# generated using pymatgen
data_BaSi2O9
_symmetry_space_group_name_H-M   'P 1'
_cell_length_a   5.37603000
_cell_length_b   7.83575300
_cell_length_c   16.00950900
_cell_angle_alpha   90.00000000
_cell_angle_beta   90.00000000
_cell_angle_gamma   90.00000000
_symmetry_Int_Tables_number   1
_chemical_formula_structural   BaSi2O9
_chemical_formula_sum   'Ba4 Si8 O36'
_cell_volume   674.40446015
_cell_formula_units_Z   4
loop_
 _symmetry_equiv_pos_site_id
 _symmetry_equiv_pos_as_xyz
  1  'x, y, z'
loop_
 _atom_site_type_symbol
 _atom_site_label
 _atom_site_symmetry_multiplicity
 _atom_site_fract_x
 _atom_site_fract_y
 _atom_site_fract_z
 _atom_site_occupancy
  Ba  Ba0  1  0.81974200  0.25000000  0.01865900  1
  Ba  Ba1  1  0.31974200  0.25000000  0.48134100  1
  Ba  Ba2  1  0.18025800  0.75000000  0.98134100  1
  Ba  Ba3  1  0.68025800  0.75000000  0.51865900  1
  Si  Si0  1  0.68564700  0.04282000  0.29905900  1
  Si  Si1  1  0.18564700  0.45718000  0.20094100  1
  Si  Si2  1  0.31435300  0.54282000  0.70094100  1
  Si  Si3  1  0.81435300  0.95718000  0.79905900  1
  Si  Si4  1  0.31435300  0.95718000  0.70094100  1
  Si  Si5  1  0.81435300  0.54282000  0.79905900  1
  Si  Si6  1  0.68564700  0.45718000  0.29905900  1
  Si  Si7  1  0.18564700  0.04282000  0.20094100  1
  O  O0  1  0.93757600  0.97350600  0.25193400  1
  O  O1  1  0.43757600  0.52649400  0.24806600  1
  O  O2  1  0.06242400  0.47350600  0.74806600  1
  O  O3  1  0.56242400  0.02649400  0.75193400  1
  O  O4  1  0.06242400  0.02649400  0.74806600  1
  O  O5  1  0.56242400  0.47350600  0.75193400  1
  O  O6  1  0.93757600  0.52649400  0.25193400  1
  O  O7  1  0.43757600  0.97350600  0.24806600  1
  O  O8  1  0.66807800  0.98371700  0.39628100  1
  O  O9  1  0.16807800  0.51628300  0.10371900  1
  O  O10  1  0.33192200  0.48371700  0.60371900  1
  O  O11  1  0.83192200  0.01628300  0.89628100  1
  O  O12  1  0.33192200  0.01628300  0.60371900  1
  O  O13  1  0.83192200  0.48371700  0.89628100  1
  O  O14  1  0.66807800  0.51628300  0.39628100  1
  O  O15  1  0.16807800  0.98371700  0.10371900  1
  O  O16  1  0.67721300  0.25000000  0.29111000  1
  O  O17  1  0.17721300  0.25000000  0.20889000  1
  O  O18  1  0.32278700  0.75000000  0.70889000  1
  O  O19  1  0.82278700  0.75000000  0.79111000  1
  O  O20  1  0.81682900  0.25000000  0.45304300  1
  O  O21  1  0.31682900  0.25000000  0.04695700  1
  O  O22  1  0.18317100  0.75000000  0.54695700  1
  O  O23  1  0.68317100  0.75000000  0.95304300  1
  O  O24  1  0.63440900  0.88972200  0.08589500  1
  O  O25  1  0.13440900  0.61027800  0.41410500  1
  O  O26  1  0.36559100  0.38972200  0.91410500  1
  O  O27  1  0.86559100  0.11027800  0.58589500  1
  O  O28  1  0.36559100  0.11027800  0.91410500  1
  O  O29  1  0.86559100  0.38972200  0.58589500  1
  O  O30  1  0.63440900  0.61027800  0.08589500  1
  O  O31  1  0.13440900  0.88972200  0.41410500  1
  O  O32  1  0.79740200  0.25000000  0.62401000  1
  O  O33  1  0.29740200  0.25000000  0.87599000  1
  O  O34  1  0.20259800  0.75000000  0.37599000  1
  O  O35  1  0.70259800  0.75000000  0.12401000  1
loop_
_geom_bond_atom_site_label_1
_geom_bond_atom_site_label_2
_geom_bond_distance
_geom_bond_site_symmetry_2
Ba0 O13 2.682655 1_554
Ba0 O11 2.682655 1_554
Ba0 O21 2.710484 1_655
Ba0 O21 2.741369 1_555
Ba1 O10 2.682655 1_555
Ba1 O12 2.682655 1_555
Ba1 O20 2.710484 1_555
Ba1 O20 2.741369 1_455
Ba2 O15 2.682655 1_556
Ba2 O9 2.682655 1_556
Ba2 O23 2.710484 1_455
Ba2 O23 2.741369 1_555
Ba3 O8 2.682655 1_555
Ba3 O14 2.682655 1_555
Ba3 O22 2.710484 1_555
Ba3 O22 2.741369 1_655
O0 Si0 1.642717 1_565
O0 Si7 1.655307 1_665
O1 Si1 1.642717 1_555
O1 Si6 1.655307 1_555
O2 Si2 1.642717 1_555
O2 Si5 1.655307 1_455
O3 Si3 1.642717 1_545
O3 Si4 1.655307 1_545
O4 Si4 1.642717 1_545
O4 Si3 1.655307 1_445
O5 Si5 1.642717 1_555
O5 Si2 1.655307 1_555
O6 Si6 1.642717 1_555
O6 Si1 1.655307 1_655
O7 Si7 1.642717 1_565
O7 Si0 1.655307 1_565
O8 Si0 1.626658 1_565
O9 Si1 1.626658 1_555
O10 Si2 1.626658 1_555
O11 Si3 1.626658 1_545
O12 Si4 1.626658 1_545
O13 Si5 1.626658 1_555
O14 Si6 1.626658 1_555
O15 Si7 1.626658 1_565
O16 Si0 1.629023 1_555
O16 Si6 1.629023 1_555
O17 Si7 1.629023 1_555
O17 Si1 1.629023 1_555
O18 Si2 1.629023 1_555
O18 Si4 1.629023 1_555
O19 Si5 1.629023 1_555
O19 Si3 1.629023 1_555
O24 O35 1.305901 1_555
O25 O34 1.305901 1_555
O26 O33 1.305901 1_555
O27 O32 1.305901 1_555
O28 O33 1.305901 1_555
O29 O32 1.305901 1_555
O30 O35 1.305901 1_555
O31 O34 1.305901 1_555
