# generated using pymatgen
data_Mg(BiO2)2
_symmetry_space_group_name_H-M   'P 1'
_cell_length_a   6.74928926
_cell_length_b   6.74928926
_cell_length_c   6.74928926
_cell_angle_alpha   120.60498164
_cell_angle_beta   117.67985902
_cell_angle_gamma   91.51008880
_symmetry_Int_Tables_number   1
_chemical_formula_structural   Mg(BiO2)2
_chemical_formula_sum   'Mg2 Bi4 O8'
_cell_volume   219.96140126
_cell_formula_units_Z   2
loop_
 _symmetry_equiv_pos_site_id
 _symmetry_equiv_pos_as_xyz
  1  'x, y, z'
loop_
 _atom_site_type_symbol
 _atom_site_label
 _atom_site_symmetry_multiplicity
 _atom_site_fract_x
 _atom_site_fract_y
 _atom_site_fract_z
 _atom_site_occupancy
  Mg  Mg0  1  0.00000000  0.50000000  0.00000000  1
  Mg  Mg1  1  0.00000000  0.00000000  0.50000000  1
  Bi  Bi0  1  0.62211500  0.87211500  0.75000000  1
  Bi  Bi1  1  0.37788500  0.12788500  0.25000000  1
  Bi  Bi2  1  0.00000000  0.50000000  0.50000000  1
  Bi  Bi3  1  0.50000000  0.50000000  0.00000000  1
  O  O0  1  0.79084000  0.25064800  0.54019100  1
  O  O1  1  0.22972800  0.72128500  0.99155600  1
  O  O2  1  0.21045700  0.25064800  0.95980900  1
  O  O3  1  0.22972800  0.23817200  0.50844400  1
  O  O4  1  0.77027200  0.76182800  0.49155600  1
  O  O5  1  0.77027200  0.27871500  0.00844400  1
  O  O6  1  0.78954300  0.74935200  0.04019100  1
  O  O7  1  0.20916000  0.74935200  0.45980900  1
loop_
_geom_bond_atom_site_label_1
_geom_bond_atom_site_label_2
_geom_bond_distance
_geom_bond_site_symmetry_2
Mg0 O1 2.164395 1_554
Mg0 O5 2.164395 1_455
Mg0 O2 2.223210 1_554
Mg0 O6 2.223210 1_455
Mg0 O7 2.223210 1_555
Mg0 O0 2.223210 1_454
Mg1 O3 2.164390 1_555
Mg1 O4 2.164390 1_445
Mg1 O0 2.223205 1_455
Mg1 O7 2.223205 1_545
Mg1 O2 2.223210 1_555
Mg1 O6 2.223210 1_445
Bi0 O5 2.221316 1_566
Bi0 O4 2.221322 1_555
Bi0 O6 2.333457 1_556
Bi0 O7 2.333462 1_555
Bi1 O1 2.221316 1_544
Bi1 O3 2.221322 1_555
Bi1 O2 2.333457 1_554
Bi1 O0 2.333462 1_555
Bi2 O0 2.365192 1_455
Bi2 O7 2.365192 1_555
Bi2 O5 2.386418 1_455
Bi2 O1 2.386418 1_555
Bi2 O4 2.386419 1_455
Bi2 O3 2.386419 1_555
Bi3 O6 2.365197 1_555
Bi3 O2 2.365197 1_554
Bi3 O4 2.386419 1_555
Bi3 O3 2.386419 1_554
Bi3 O1 2.386423 1_554
Bi3 O5 2.386423 1_555
