# generated using pymatgen
data_Y2Co14Cu3
_symmetry_space_group_name_H-M   'P 1'
_cell_length_a   8.31822461
_cell_length_b   8.31822461
_cell_length_c   8.14719800
_cell_angle_alpha   90.00000000
_cell_angle_beta   90.00000000
_cell_angle_gamma   120.00000483
_symmetry_Int_Tables_number   1
_chemical_formula_structural   Y2Co14Cu3
_chemical_formula_sum   'Y4 Co28 Cu6'
_cell_volume   488.20268935
_cell_formula_units_Z   2
loop_
 _symmetry_equiv_pos_site_id
 _symmetry_equiv_pos_as_xyz
  1  'x, y, z'
loop_
 _atom_site_type_symbol
 _atom_site_label
 _atom_site_symmetry_multiplicity
 _atom_site_fract_x
 _atom_site_fract_y
 _atom_site_fract_z
 _atom_site_occupancy
  Y  Y0  1  0.00000000  0.00000000  0.25000000  1
  Y  Y1  1  0.00000000  0.00000000  0.75000000  1
  Y  Y2  1  0.33333300  0.66666700  0.75000000  1
  Y  Y3  1  0.66666700  0.33333300  0.25000000  1
  Co  Co0  1  0.33333300  0.66666700  0.38955800  1
  Co  Co1  1  0.66666700  0.33333300  0.61044200  1
  Co  Co2  1  0.66666700  0.33333300  0.88955800  1
  Co  Co3  1  0.33333300  0.66666700  0.11044200  1
  Co  Co4  1  0.32725900  0.37413800  0.25000000  1
  Co  Co5  1  0.62586200  0.95312100  0.25000000  1
  Co  Co6  1  0.04687900  0.67274100  0.25000000  1
  Co  Co7  1  0.62586200  0.67274100  0.25000000  1
  Co  Co8  1  0.04687900  0.37413800  0.25000000  1
  Co  Co9  1  0.32725900  0.95312100  0.25000000  1
  Co  Co10  1  0.67274100  0.62586200  0.75000000  1
  Co  Co11  1  0.37413800  0.04687900  0.75000000  1
  Co  Co12  1  0.95312100  0.32725900  0.75000000  1
  Co  Co13  1  0.37413800  0.32725900  0.75000000  1
  Co  Co14  1  0.95312100  0.62586200  0.75000000  1
  Co  Co15  1  0.67274100  0.04687900  0.75000000  1
  Co  Co16  1  0.16146700  0.83853300  0.51415400  1
  Co  Co17  1  0.16146700  0.32293400  0.51415400  1
  Co  Co18  1  0.67706600  0.83853300  0.51415400  1
  Co  Co19  1  0.83853300  0.16146700  0.48584600  1
  Co  Co20  1  0.83853300  0.67706600  0.48584600  1
  Co  Co21  1  0.32293400  0.16146700  0.48584600  1
  Co  Co22  1  0.83853300  0.16146700  0.01415400  1
  Co  Co23  1  0.83853300  0.67706600  0.01415400  1
  Co  Co24  1  0.32293400  0.16146700  0.01415400  1
  Co  Co25  1  0.16146700  0.83853300  0.98584600  1
  Co  Co26  1  0.16146700  0.32293400  0.98584600  1
  Co  Co27  1  0.67706600  0.83853300  0.98584600  1
  Cu  Cu0  1  0.50000000  0.50000000  0.50000000  1
  Cu  Cu1  1  0.50000000  0.00000000  0.50000000  1
  Cu  Cu2  1  0.00000000  0.50000000  0.50000000  1
  Cu  Cu3  1  0.50000000  0.50000000  0.00000000  1
  Cu  Cu4  1  0.50000000  0.00000000  0.00000000  1
  Cu  Cu5  1  0.00000000  0.50000000  0.00000000  1
loop_
_geom_bond_atom_site_label_1
_geom_bond_atom_site_label_2
_geom_bond_distance
_geom_bond_site_symmetry_2
Co0 Co3 2.274013 1_555
Co0 Cu2 2.564310 1_555
Co0 Cu1 2.564310 1_565
Co0 Cu0 2.564317 1_555
Co0 Co9 2.663345 1_555
Co0 Co6 2.663345 1_555
Co0 Co8 2.663349 1_555
Co0 Co5 2.663349 1_555
Co0 Co4 2.663353 1_555
Co0 Co7 2.663353 1_555
Co0 Co16 2.676170 1_555
Co0 Co18 2.676176 1_555
Co0 Co17 2.676176 1_555
Co0 Y2 2.936592 1_555
Co1 Co2 2.274013 1_555
Co1 Cu2 2.564310 1_655
Co1 Cu1 2.564310 1_555
Co1 Cu0 2.564317 1_555
Co1 Co15 2.663345 1_555
Co1 Co12 2.663345 1_555
Co1 Co11 2.663349 1_555
Co1 Co14 2.663349 1_555
Co1 Co13 2.663353 1_555
Co1 Co10 2.663353 1_555
Co1 Co19 2.676170 1_555
Co1 Co20 2.676176 1_555
Co1 Co21 2.676176 1_555
Co1 Y3 2.936592 1_555
Co2 Cu5 2.564310 1_656
Co2 Cu4 2.564310 1_556
Co2 Cu3 2.564317 1_556
Co2 Co22 2.676170 1_556
Co2 Co23 2.676176 1_556
Co2 Co24 2.676176 1_556
Co2 Y3 2.936592 1_556
Co3 Cu4 2.564310 1_565
Co3 Cu5 2.564310 1_555
Co3 Cu3 2.564317 1_555
Co3 Co9 2.663345 1_555
Co3 Co6 2.663345 1_555
Co3 Co8 2.663349 1_555
Co3 Co5 2.663349 1_555
Co3 Co4 2.663353 1_555
Co3 Co7 2.663353 1_555
Co3 Y2 2.936592 1_554
Co4 Co8 2.332264 1_555
Co4 Cu0 2.409351 1_555
Co4 Cu3 2.409351 1_555
Co4 Co7 2.483847 1_555
Co4 Y0 2.936671 1_555
Co4 Y3 3.007385 1_555
Co5 Co7 2.332264 1_555
Co5 Cu4 2.409351 1_565
Co5 Cu1 2.409351 1_565
Co5 Co9 2.483847 1_555
Co5 Y0 2.936671 1_665
Co5 Y3 3.007377 1_565
Co6 Co9 2.332264 1_555
Co6 Cu2 2.409351 1_555
Co6 Cu5 2.409351 1_555
Co6 Co8 2.483847 1_555
Co6 Y0 2.936671 1_565
Co6 Y3 3.007380 1_455
Co7 Cu0 2.409351 1_555
Co7 Cu3 2.409351 1_555
Co7 Y0 2.936671 1_665
Co7 Y3 3.007385 1_555
Co8 Cu5 2.409351 1_555
Co8 Cu2 2.409351 1_555
Co8 Y0 2.936671 1_555
Co8 Y3 3.007377 1_455
Co9 Cu4 2.409351 1_565
Co9 Cu1 2.409351 1_565
Co9 Y0 2.936671 1_565
Co9 Y3 3.007380 1_565
Co10 Co14 2.332264 1_555
Co10 Cu0 2.409351 1_555
Co10 Cu3 2.409351 1_556
Co10 Co23 2.475383 1_556
Co10 Co20 2.475383 1_555
Co10 Co13 2.483847 1_555
Co10 Co27 2.599860 1_555
Co10 Co18 2.599860 1_555
Co10 Co2 2.663353 1_555
Co10 Y1 2.936671 1_665
Co10 Y2 3.007385 1_555
Co11 Co13 2.332264 1_555
Co11 Cu4 2.409351 1_556
Co11 Cu1 2.409351 1_555
Co11 Co21 2.475383 1_555
Co11 Co24 2.475383 1_556
Co11 Co15 2.483847 1_555
Co11 Co25 2.599860 1_545
Co11 Co16 2.599860 1_545
Co11 Co2 2.663349 1_555
Co11 Y1 2.936671 1_555
Co11 Y2 3.007377 1_545
Co12 Co15 2.332264 1_555
Co12 Cu5 2.409351 1_656
Co12 Cu2 2.409351 1_655
Co12 Co22 2.475383 1_556
Co12 Co19 2.475383 1_555
Co12 Co14 2.483847 1_555
Co12 Co17 2.599860 1_655
Co12 Co26 2.599860 1_655
Co12 Co2 2.663345 1_555
Co12 Y1 2.936671 1_655
Co12 Y2 3.007380 1_655
Co13 Cu0 2.409351 1_555
Co13 Cu3 2.409351 1_556
Co13 Co24 2.475383 1_556
Co13 Co21 2.475383 1_555
Co13 Co26 2.599860 1_555
Co13 Co17 2.599860 1_555
Co13 Co2 2.663353 1_555
Co13 Y1 2.936671 1_555
Co13 Y2 3.007385 1_555
Co14 Cu5 2.409351 1_656
Co14 Cu2 2.409351 1_655
Co14 Co23 2.475383 1_556
Co14 Co20 2.475383 1_555
Co14 Co16 2.599860 1_655
Co14 Co25 2.599860 1_655
Co14 Co2 2.663349 1_555
Co14 Y1 2.936671 1_665
Co14 Y2 3.007377 1_655
Co15 Cu4 2.409351 1_556
Co15 Cu1 2.409351 1_555
Co15 Co22 2.475383 1_556
Co15 Co19 2.475383 1_555
Co15 Co18 2.599860 1_545
Co15 Co27 2.599860 1_545
Co15 Co2 2.663345 1_555
Co15 Y1 2.936671 1_655
Co15 Y2 3.007380 1_545
Co16 Co21 2.337754 1_565
Co16 Co20 2.337754 1_455
Co16 Cu2 2.442309 1_555
Co16 Cu1 2.442309 1_565
Co16 Co6 2.475383 1_555
Co16 Co9 2.475383 1_555
Co16 Y1 3.017284 1_565
Co16 Y2 3.134253 1_555
Co16 Y0 3.169149 1_565
Co17 Co19 2.337754 1_455
Co17 Co21 2.337754 1_555
Co17 Cu0 2.442309 1_555
Co17 Cu2 2.442309 1_555
Co17 Co4 2.475383 1_555
Co17 Co8 2.475383 1_555
Co17 Y1 3.017284 1_555
Co17 Y2 3.134258 1_555
Co17 Y0 3.169149 1_555
Co18 Co19 2.337754 1_565
Co18 Co20 2.337754 1_555
Co18 Cu0 2.442309 1_555
Co18 Cu1 2.442309 1_565
Co18 Co7 2.475383 1_555
Co18 Co5 2.475383 1_555
Co18 Y1 3.017284 1_665
Co18 Y2 3.134258 1_555
Co18 Y0 3.169149 1_665
Co19 Cu2 2.442309 1_655
Co19 Cu1 2.442309 1_555
Co19 Co5 2.599860 1_545
Co19 Co8 2.599860 1_655
Co19 Y0 3.017284 1_655
Co19 Y3 3.134253 1_555
Co19 Y1 3.169149 1_655
Co20 Cu0 2.442309 1_555
Co20 Cu2 2.442309 1_655
Co20 Co7 2.599860 1_555
Co20 Co6 2.599860 1_655
Co20 Y0 3.017284 1_665
Co20 Y3 3.134258 1_555
Co20 Y1 3.169149 1_665
Co21 Cu0 2.442309 1_555
Co21 Cu1 2.442309 1_555
Co21 Co4 2.599860 1_555
Co21 Co9 2.599860 1_545
Co21 Y0 3.017284 1_555
Co21 Y3 3.134258 1_555
Co21 Y1 3.169149 1_555
Co22 Co26 2.337754 1_654
Co22 Co27 2.337754 1_544
Co22 Cu5 2.442309 1_655
Co22 Cu4 2.442309 1_555
Co22 Co5 2.599860 1_545
Co22 Co8 2.599860 1_655
Co22 Y0 3.017284 1_655
Co22 Y3 3.134253 1_555
Co22 Y1 3.169149 1_654
Co23 Co25 2.337754 1_654
Co23 Co27 2.337754 1_554
Co23 Cu3 2.442309 1_555
Co23 Cu5 2.442309 1_655
Co23 Co7 2.599860 1_555
Co23 Co6 2.599860 1_655
Co23 Y0 3.017284 1_665
Co23 Y3 3.134258 1_555
Co23 Y1 3.169149 1_664
Co24 Co25 2.337754 1_544
Co24 Co26 2.337754 1_554
Co24 Cu3 2.442309 1_555
Co24 Cu4 2.442309 1_555
Co24 Co4 2.599860 1_555
Co24 Co9 2.599860 1_545
Co24 Y0 3.017284 1_555
Co24 Y3 3.134258 1_555
Co24 Y1 3.169149 1_554
Co25 Cu5 2.442309 1_556
Co25 Cu4 2.442309 1_566
Co25 Co6 2.475383 1_556
Co25 Co9 2.475383 1_556
Co25 Co3 2.676170 1_556
Co25 Y1 3.017284 1_565
Co25 Y2 3.134253 1_555
Co25 Y0 3.169149 1_566
Co26 Cu3 2.442309 1_556
Co26 Cu5 2.442309 1_556
Co26 Co4 2.475383 1_556
Co26 Co8 2.475383 1_556
Co26 Co3 2.676176 1_556
Co26 Y1 3.017284 1_555
Co26 Y2 3.134258 1_555
Co26 Y0 3.169149 1_556
Co27 Cu3 2.442309 1_556
Co27 Cu4 2.442309 1_566
Co27 Co7 2.475383 1_556
Co27 Co5 2.475383 1_556
Co27 Co3 2.676176 1_556
Co27 Y1 3.017284 1_665
Co27 Y2 3.134258 1_555
Co27 Y0 3.169149 1_666
Cu0 Y2 3.148753 1_555
Cu0 Y3 3.148753 1_555
Cu1 Y2 3.148748 1_545
Cu1 Y3 3.148748 1_555
Cu2 Y2 3.148748 1_555
Cu2 Y3 3.148748 1_455
Cu3 Y2 3.148753 1_554
Cu3 Y3 3.148753 1_555
Cu4 Y2 3.148748 1_544
Cu4 Y3 3.148748 1_555
Cu5 Y2 3.148748 1_554
Cu5 Y3 3.148748 1_455
