# generated using pymatgen
data_Li5Ti2Mn3O10
_symmetry_space_group_name_H-M   'P 1'
_cell_length_a   5.24010883
_cell_length_b   10.57531697
_cell_length_c   7.88360556
_cell_angle_alpha   69.81333327
_cell_angle_beta   101.14259229
_cell_angle_gamma   81.37969435
_symmetry_Int_Tables_number   1
_chemical_formula_structural   Li5Ti2Mn3O10
_chemical_formula_sum   'Li10 Ti4 Mn6 O20'
_cell_volume   391.02688132
_cell_formula_units_Z   2
loop_
 _symmetry_equiv_pos_site_id
 _symmetry_equiv_pos_as_xyz
  1  'x, y, z'
loop_
 _atom_site_type_symbol
 _atom_site_label
 _atom_site_symmetry_multiplicity
 _atom_site_fract_x
 _atom_site_fract_y
 _atom_site_fract_z
 _atom_site_occupancy
  Li  Li0  1  0.77157700  0.44678600  0.95201800  1
  Li  Li1  1  0.27154800  0.94680200  0.45199000  1
  Li  Li2  1  0.74378100  0.64775200  0.13552300  1
  Li  Li3  1  0.24377000  0.14778700  0.63551900  1
  Li  Li4  1  0.75628200  0.74788100  0.75754500  1
  Li  Li5  1  0.25627000  0.24789400  0.25754900  1
  Li  Li6  1  0.23069600  0.55235900  0.05125600  1
  Li  Li7  1  0.73068600  0.05237300  0.55123100  1
  Li  Li8  1  0.25468700  0.35259500  0.86949200  1
  Li  Li9  1  0.75466500  0.85262700  0.36948600  1
  Ti  Ti0  1  0.74022000  0.35886300  0.32881600  1
  Ti  Ti1  1  0.24020800  0.85887200  0.82879700  1
  Ti  Ti2  1  0.26007000  0.64164700  0.67351800  1
  Ti  Ti3  1  0.76005400  0.14164200  0.17349200  1
  Mn  Mn0  1  0.24737600  0.75032100  0.25035300  1
  Mn  Mn1  1  0.74288100  0.94557400  0.95274400  1
  Mn  Mn2  1  0.75522500  0.55529200  0.54956900  1
  Mn  Mn3  1  0.74736500  0.25033200  0.75034600  1
  Mn  Mn4  1  0.24282600  0.44567900  0.45274500  1
  Mn  Mn5  1  0.25522700  0.05528800  0.04957900  1
  O  O0  1  0.51796500  0.53351300  0.29859500  1
  O  O1  1  0.01793500  0.03349700  0.79859600  1
  O  O2  1  0.47166900  0.66404900  0.87839200  1
  O  O3  1  0.97164400  0.16404700  0.37839300  1
  O  O4  1  0.47166300  0.84230300  0.09225000  1
  O  O5  1  0.97165400  0.34231000  0.59225800  1
  O  O6  1  0.96968100  0.24750200  0.98558700  1
  O  O7  1  0.46970300  0.74749300  0.48559400  1
  O  O8  1  0.98111400  0.44366000  0.20916300  1
  O  O9  1  0.48113000  0.94365400  0.70915500  1
  O  O10  1  0.01862200  0.55620900  0.79341300  1
  O  O11  1  0.51863200  0.05620600  0.29342900  1
  O  O12  1  0.02627300  0.75228900  0.01510900  1
  O  O13  1  0.52626000  0.25231200  0.51510100  1
  O  O14  1  0.52469000  0.15783300  0.90896300  1
  O  O15  1  0.02467200  0.65785600  0.40895800  1
  O  O16  1  0.52838500  0.33542900  0.12419000  1
  O  O17  1  0.02837700  0.83542600  0.62420500  1
  O  O18  1  0.48056400  0.46646600  0.70302600  1
  O  O19  1  0.98051800  0.96645200  0.20301700  1
loop_
_geom_bond_atom_site_label_1
_geom_bond_atom_site_label_2
_geom_bond_distance
_geom_bond_site_symmetry_2
Li0 O8 2.097356 1_556
Li0 O6 2.107663 1_555
Li0 O10 2.157416 1_655
Li0 O18 2.165156 1_555
Li0 O16 2.206444 1_556
Li0 O2 2.393816 1_555
Li1 O9 2.097479 1_555
Li1 O7 2.107895 1_555
Li1 O11 2.157315 1_565
Li1 O19 2.165194 1_455
Li1 O17 2.206624 1_555
Li1 O3 2.393708 1_465
Li2 O0 2.111180 1_555
Li2 O8 2.143277 1_555
Li2 O12 2.150343 1_655
Li2 O2 2.177186 1_554
Li2 O4 2.197912 1_555
Li2 O15 2.409259 1_655
Li3 O1 2.111518 1_555
Li3 O9 2.143694 1_545
Li3 O13 2.150288 1_555
Li3 O3 2.177323 1_455
Li3 O5 2.197702 1_455
Li3 O14 2.409110 1_555
Li4 O2 2.068941 1_555
Li4 O17 2.073261 1_655
Li4 O10 2.167325 1_655
Li4 O9 2.204145 1_555
Li4 O12 2.258675 1_656
Li4 O7 2.369644 1_555
Li5 O3 2.069049 1_455
Li5 O16 2.073383 1_555
Li5 O11 2.167484 1_555
Li5 O8 2.204105 1_455
Li5 O13 2.258643 1_555
Li5 O6 2.369754 1_454
Li6 O10 2.103533 1_554
Li6 O12 2.118084 1_555
Li6 O0 2.148320 1_555
Li6 O8 2.161914 1_455
Li6 O2 2.201837 1_554
Li6 O16 2.386854 1_555
Li7 O11 2.103291 1_555
Li7 O13 2.118214 1_555
Li7 O1 2.148315 1_655
Li7 O9 2.161963 1_545
Li7 O3 2.201595 1_555
Li7 O17 2.386930 1_645
Li8 O18 2.123750 1_555
Li8 O10 2.133067 1_555
Li8 O6 2.151080 1_455
Li8 O16 2.163112 1_556
Li8 O14 2.203359 1_555
Li8 O5 2.438835 1_455
Li9 O19 2.123454 1_555
Li9 O11 2.132729 1_565
Li9 O7 2.151127 1_555
Li9 O17 2.163150 1_655
Li9 O15 2.203442 1_655
Li9 O4 2.438959 1_555
Mn0 O7 1.978310 1_555
Mn0 O12 1.979363 1_555
Mn0 O15 1.985881 1_555
Mn0 O4 1.988269 1_555
Mn0 O19 2.360171 1_455
Mn0 O0 2.372195 1_555
Mn1 O9 2.141661 1_555
Mn1 O4 2.159306 1_556
Mn1 O1 2.172008 1_665
Mn1 O12 2.177014 1_656
Mn1 O19 2.219411 1_556
Mn1 O14 2.237964 1_565
Mn2 O10 2.142895 1_655
Mn2 O15 2.152449 1_655
Mn2 O18 2.170576 1_555
Mn2 O7 2.171059 1_555
Mn2 O0 2.227809 1_555
Mn2 O5 2.244137 1_555
Mn3 O6 1.978279 1_555
Mn3 O13 1.979323 1_555
Mn3 O14 1.985946 1_555
Mn3 O5 1.988194 1_555
Mn3 O18 2.360110 1_555
Mn3 O1 2.372370 1_655
Mn4 O8 2.141957 1_455
Mn4 O5 2.159576 1_455
Mn4 O0 2.172075 1_555
Mn4 O13 2.177797 1_555
Mn4 O18 2.219205 1_555
Mn4 O15 2.237129 1_555
Mn5 O11 2.142956 1_555
Mn5 O14 2.152451 1_554
Mn5 O19 2.170741 1_445
Mn5 O6 2.171196 1_454
Mn5 O1 2.227996 1_554
Mn5 O4 2.244218 1_545
O0 Ti0 1.941316 1_555
O1 Ti1 1.941191 1_545
O2 Ti2 1.882794 1_555
O2 Ti1 2.092963 1_555
O3 Ti3 1.882957 1_555
O3 Ti0 2.092862 1_555
O4 Ti1 2.127669 1_554
O5 Ti0 2.127613 1_555
O6 Ti3 2.123061 1_556
O7 Ti2 2.123122 1_555
O8 Ti0 1.871672 1_555
O9 Ti1 1.871691 1_555
O10 Ti2 1.877775 1_555
O11 Ti3 1.877807 1_555
O12 Ti1 2.134760 1_554
O13 Ti0 2.134602 1_555
O14 Ti3 2.143746 1_556
O15 Ti2 2.143952 1_555
O16 Ti0 1.887393 1_555
O16 Ti3 2.084891 1_555
O17 Ti1 1.887238 1_555
O17 Ti2 2.084847 1_555
O18 Ti2 1.943763 1_555
O19 Ti3 1.943731 1_565
