# generated using pymatgen
data_Sr(SiPd)6
_symmetry_space_group_name_H-M   'P 1'
_cell_length_a   8.40344338
_cell_length_b   8.40342666
_cell_length_c   8.40343178
_cell_angle_alpha   122.80650906
_cell_angle_beta   120.67967992
_cell_angle_gamma   87.01693922
_symmetry_Int_Tables_number   1
_chemical_formula_structural   Sr(SiPd)6
_chemical_formula_sum   'Sr2 Si12 Pd12'
_cell_volume   407.77444277
_cell_formula_units_Z   2
loop_
 _symmetry_equiv_pos_site_id
 _symmetry_equiv_pos_as_xyz
  1  'x, y, z'
loop_
 _atom_site_type_symbol
 _atom_site_label
 _atom_site_symmetry_multiplicity
 _atom_site_fract_x
 _atom_site_fract_y
 _atom_site_fract_z
 _atom_site_occupancy
  Sr  Sr0  1  0.24999946  0.24999985  0.00000064  1
  Sr  Sr1  1  0.75000160  0.75000076  0.00000010  1
  Si  Si0  1  0.04040236  0.21925246  0.49371922  1
  Si  Si1  1  0.72553695  0.54668754  0.50628442  1
  Si  Si2  1  0.22553011  0.71925551  0.17885011  1
  Si  Si3  1  0.54040661  0.04668027  0.82115087  1
  Si  Si4  1  0.95959949  0.78074301  0.50627330  1
  Si  Si5  1  0.27446993  0.45332621  0.49372714  1
  Si  Si6  1  0.77446087  0.28074609  0.82114939  1
  Si  Si7  1  0.45959625  0.95331112  0.17885020  1
  Si  Si8  1  0.73527125  0.43527006  0.17053745  1
  Si  Si9  1  0.26473257  0.56473455  0.82946294  1
  Si  Si10  1  0.76473026  0.93526827  0.70000235  1
  Si  Si11  1  0.23526670  0.06472743  0.29999832  1
  Pd  Pd0  1  0.46113236  0.68173275  0.50390769  1
  Pd  Pd1  1  0.17782516  0.95722596  0.49609421  1
  Pd  Pd2  1  0.67783552  0.18173991  0.22061387  1
  Pd  Pd3  1  0.96112584  0.45722183  0.77938540  1
  Pd  Pd4  1  0.53886877  0.31825928  0.49609502  1
  Pd  Pd5  1  0.82216212  0.04277259  0.50390367  1
  Pd  Pd6  1  0.32217617  0.81826917  0.77939859  1
  Pd  Pd7  1  0.03886986  0.54277630  0.22059819  1
  Pd  Pd8  1  0.53257159  0.68168180  0.21425164  1
  Pd  Pd9  1  0.46742953  0.31831909  0.78574659  1
  Pd  Pd10  1  0.03257058  0.81831281  0.85088354  1
  Pd  Pd11  1  0.96742709  0.18168738  0.14911515  1
loop_
_geom_bond_atom_site_label_1
_geom_bond_atom_site_label_2
_geom_bond_distance
_geom_bond_site_symmetry_2
Si0 Sr1 3.414636 1_445
Si0 Sr0 3.532558 1_556
Si1 Sr1 3.414632 1_556
Si1 Sr0 3.532583 1_555
Si2 Sr0 3.414673 1_555
Si2 Sr1 3.532517 1_455
Si3 Sr0 3.414689 1_556
Si3 Sr1 3.532516 1_546
Si4 Sr0 3.414674 1_666
Si4 Sr1 3.532519 1_555
Si5 Sr0 3.414672 1_555
Si5 Sr1 3.532521 1_556
Si6 Sr1 3.414645 1_556
Si6 Sr0 3.532595 1_656
Si7 Sr1 3.414660 1_555
Si7 Sr0 3.532591 1_565
Si8 Sr1 3.658748 1_555
Si8 Sr0 3.658789 1_555
Si9 Sr1 3.658757 1_556
Si9 Sr0 3.658788 1_556
Si10 Sr1 3.658721 1_556
Si10 Sr0 3.658766 1_666
Si11 Sr1 3.658721 1_445
Si11 Sr0 3.658767 1_555
Pd0 Si1 2.437617 1_555
Pd0 Si5 2.480004 1_555
Pd0 Si10 2.496965 1_555
Pd0 Si3 2.548947 1_565
Pd0 Si2 2.613496 1_555
Pd0 Pd8 2.788425 1_555
Pd0 Sr0 3.255371 1_555
Pd0 Sr1 3.290534 1_556
Pd1 Si0 2.437604 1_565
Pd1 Si4 2.480000 1_455
Pd1 Si11 2.496967 1_565
Pd1 Si2 2.548961 1_555
Pd1 Si3 2.613503 1_565
Pd1 Pd9 2.788412 1_565
Pd1 Sr0 3.255368 1_566
Pd1 Sr1 3.290536 1_455
Pd2 Si3 2.437668 1_554
Pd2 Si7 2.480113 1_545
Pd2 Si8 2.496993 1_555
Pd2 Si1 2.548949 1_555
Pd2 Si0 2.613405 1_655
Pd2 Sr1 3.255393 1_545
Pd2 Sr0 3.290598 1_555
Pd3 Si2 2.437675 1_656
Pd3 Si6 2.480116 1_555
Pd3 Si9 2.496995 1_655
Pd3 Si0 2.548925 1_655
Pd3 Si1 2.613395 1_555
Pd3 Sr1 3.255389 1_556
Pd3 Sr0 3.290599 1_656
Pd4 Si5 2.437667 1_555
Pd4 Si1 2.480127 1_555
Pd4 Si11 2.496968 1_555
Pd4 Si7 2.548957 1_545
Pd4 Si6 2.613406 1_555
Pd4 Pd9 2.788352 1_555
Pd4 Sr1 3.255396 1_556
Pd4 Sr0 3.290582 1_555
Pd5 Si4 2.437667 1_545
Pd5 Si0 2.480112 1_655
Pd5 Si10 2.496963 1_545
Pd5 Si6 2.548955 1_555
Pd5 Si7 2.613397 1_545
Pd5 Pd8 2.788344 1_545
Pd5 Sr1 3.255399 1_545
Pd5 Sr0 3.290599 1_656
Pd6 Si7 2.437637 1_556
Pd6 Si3 2.480014 1_565
Pd6 Si9 2.496976 1_555
Pd6 Si5 2.548913 1_555
Pd6 Si4 2.613468 1_455
Pd6 Sr0 3.255368 1_566
Pd6 Sr1 3.290547 1_556
Pd7 Si6 2.437622 1_454
Pd7 Si2 2.480002 1_555
Pd7 Si8 2.496989 1_455
Pd7 Si4 2.548932 1_455
Pd7 Si5 2.613480 1_555
Pd7 Sr0 3.255353 1_555
Pd7 Sr1 3.290528 1_455
Pd8 Si9 2.418130 1_554
Pd8 Si7 2.465540 1_555
Pd8 Si2 2.465632 1_555
Pd8 Si8 2.602193 1_555
Pd8 Si10 2.808886 1_555
Pd8 Si1 2.950115 1_555
Pd8 Si4 2.950124 1_555
Pd8 Pd9 2.972846 1_554
Pd8 Sr1 3.390585 1_555
Pd8 Sr0 3.390592 1_555
Pd9 Si8 2.418139 1_556
Pd9 Si6 2.465544 1_555
Pd9 Si3 2.465631 1_555
Pd9 Si9 2.602199 1_555
Pd9 Si11 2.808872 1_555
Pd9 Si5 2.950112 1_555
Pd9 Si0 2.950117 1_555
Pd9 Sr1 3.390582 1_556
Pd9 Sr0 3.390606 1_556
Pd10 Si10 2.418146 1_455
Pd10 Si1 2.465533 1_455
Pd10 Si4 2.465615 1_455
Pd10 Si11 2.602210 1_566
Pd10 Pd3 2.788362 1_455
Pd10 Pd6 2.788413 1_555
Pd10 Si9 2.808828 1_555
Pd10 Si2 2.950095 1_556
Pd10 Si7 2.950113 1_556
Pd10 Pd11 2.972943 1_466
Pd10 Sr1 3.390589 1_456
Pd10 Sr0 3.390594 1_566
Pd11 Si11 2.418171 1_655
Pd11 Si0 2.465572 1_655
Pd11 Si5 2.465626 1_655
Pd11 Si10 2.602200 1_544
Pd11 Pd2 2.788361 1_555
Pd11 Pd7 2.788403 1_655
Pd11 Si8 2.808819 1_555
Pd11 Si3 2.950074 1_554
Pd11 Si6 2.950102 1_554
Pd11 Sr1 3.390587 1_545
Pd11 Sr0 3.390602 1_655
