# generated using pymatgen
data_CaAl3Au
_symmetry_space_group_name_H-M   'P 1'
_cell_length_a   4.16700666
_cell_length_b   4.16700767
_cell_length_c   6.50325103
_cell_angle_alpha   71.22534505
_cell_angle_beta   71.22534513
_cell_angle_gamma   90.09656241
_symmetry_Int_Tables_number   1
_chemical_formula_structural   CaAl3Au
_chemical_formula_sum   'Ca1 Al3 Au1'
_cell_volume   100.52460749
_cell_formula_units_Z   1
loop_
 _symmetry_equiv_pos_site_id
 _symmetry_equiv_pos_as_xyz
  1  'x, y, z'
loop_
 _atom_site_type_symbol
 _atom_site_label
 _atom_site_symmetry_multiplicity
 _atom_site_fract_x
 _atom_site_fract_y
 _atom_site_fract_z
 _atom_site_occupancy
  Ca  Ca0  1  0.00209426  0.00209426  0.99580620  1
  Al  Al0  1  0.74665984  0.24757580  0.50574220  1
  Al  Al1  1  0.24757580  0.74665984  0.50574220  1
  Al  Al2  1  0.39255798  0.39255798  0.21515472  1
  Au  Au0  1  0.61111212  0.61111212  0.77755568  1
loop_
_geom_bond_atom_site_label_1
_geom_bond_atom_site_label_2
_geom_bond_distance
_geom_bond_site_symmetry_2
Al0 Au0 2.610007 1_545
Al0 Au0 2.611964 1_555
Al0 Al2 2.676903 1_655
Al0 Al2 2.678886 1_555
Al0 Al1 2.943599 1_555
Al0 Al1 2.944040 1_655
Al0 Al1 2.944040 1_545
Al0 Al1 2.954403 1_645
Al1 Au0 2.610006 1_455
Al1 Au0 2.611964 1_555
Al1 Al2 2.676904 1_565
Al1 Al2 2.678886 1_555
Al2 Au0 2.533401 1_554
Al2 Ca0 3.201762 1_664
Al2 Ca0 3.210700 1_554
Al2 Ca0 3.210794 1_654
Al2 Ca0 3.210794 1_564
Au0 Ca0 3.199430 1_555
Au0 Ca0 3.208007 1_665
Au0 Ca0 3.208285 1_565
Au0 Ca0 3.208285 1_655
