# generated using pymatgen
data_LaNO4
_symmetry_space_group_name_H-M   'P 1'
_cell_length_a   5.63928000
_cell_length_b   7.30353700
_cell_length_c   9.57852500
_cell_angle_alpha   90.00000000
_cell_angle_beta   90.00000000
_cell_angle_gamma   90.00000000
_symmetry_Int_Tables_number   1
_chemical_formula_structural   LaNO4
_chemical_formula_sum   'La4 N4 O16'
_cell_volume   394.50774111
_cell_formula_units_Z   4
loop_
 _symmetry_equiv_pos_site_id
 _symmetry_equiv_pos_as_xyz
  1  'x, y, z'
loop_
 _atom_site_type_symbol
 _atom_site_label
 _atom_site_symmetry_multiplicity
 _atom_site_fract_x
 _atom_site_fract_y
 _atom_site_fract_z
 _atom_site_occupancy
  La  La0  1  0.25000000  0.18369100  0.83245500  1
  La  La1  1  0.25000000  0.68369100  0.66754500  1
  La  La2  1  0.75000000  0.81630900  0.16754500  1
  La  La3  1  0.75000000  0.31630900  0.33245500  1
  N  N0  1  0.25000000  0.20528100  0.16512200  1
  N  N1  1  0.25000000  0.70528100  0.33487800  1
  N  N2  1  0.75000000  0.79471900  0.83487800  1
  N  N3  1  0.75000000  0.29471900  0.66512200  1
  O  O0  1  0.05564500  0.16916300  0.10418400  1
  O  O1  1  0.44435500  0.66916300  0.39581600  1
  O  O2  1  0.55564500  0.83083700  0.89581600  1
  O  O3  1  0.94435500  0.33083700  0.60418400  1
  O  O4  1  0.94435500  0.83083700  0.89581600  1
  O  O5  1  0.55564500  0.33083700  0.60418400  1
  O  O6  1  0.44435500  0.16916300  0.10418400  1
  O  O7  1  0.05564500  0.66916300  0.39581600  1
  O  O8  1  0.25000000  0.27964800  0.28478000  1
  O  O9  1  0.25000000  0.77964800  0.21522000  1
  O  O10  1  0.75000000  0.72035200  0.71522000  1
  O  O11  1  0.75000000  0.22035200  0.78478000  1
  O  O12  1  0.25000000  0.47521100  0.82820200  1
  O  O13  1  0.25000000  0.97521100  0.67179800  1
  O  O14  1  0.75000000  0.52478900  0.17179800  1
  O  O15  1  0.75000000  0.02478900  0.32820200  1
loop_
_geom_bond_atom_site_label_1
_geom_bond_atom_site_label_2
_geom_bond_distance
_geom_bond_site_symmetry_2
La0 O12 2.129517 1_555
La0 O13 2.164837 1_545
La1 O13 2.129517 1_555
La1 O12 2.164837 1_555
La2 O14 2.129517 1_555
La2 O15 2.164837 1_565
La3 O15 2.129517 1_555
La3 O14 2.164837 1_555
N0 O8 1.268328 1_555
N0 O6 1.269469 1_555
N0 O0 1.269469 1_555
N1 O9 1.268328 1_555
N1 O1 1.269469 1_555
N1 O7 1.269469 1_555
N2 O10 1.268328 1_555
N2 O4 1.269469 1_555
N2 O2 1.269469 1_555
N3 O11 1.268328 1_555
N3 O3 1.269469 1_555
N3 O5 1.269469 1_555
