# generated using pymatgen
data_Ca(ErS2)2
_symmetry_space_group_name_H-M   'P 1'
_cell_length_a   6.66895561
_cell_length_b   6.66895561
_cell_length_c   13.15682557
_cell_angle_alpha   90.00000000
_cell_angle_beta   90.00000000
_cell_angle_gamma   146.32380023
_symmetry_Int_Tables_number   1
_chemical_formula_structural   Ca(ErS2)2
_chemical_formula_sum   'Ca2 Er4 S8'
_cell_volume   324.46464039
_cell_formula_units_Z   2
loop_
 _symmetry_equiv_pos_site_id
 _symmetry_equiv_pos_as_xyz
  1  'x, y, z'
loop_
 _atom_site_type_symbol
 _atom_site_label
 _atom_site_symmetry_multiplicity
 _atom_site_fract_x
 _atom_site_fract_y
 _atom_site_fract_z
 _atom_site_occupancy
  Ca  Ca0  1  0.88726974  0.11273026  0.01180192  1
  Ca  Ca1  1  0.11273026  0.88726974  0.51180192  1
  Er  Er0  1  0.35989735  0.64010265  0.32348157  1
  Er  Er1  1  0.64010265  0.35989735  0.82348157  1
  Er  Er2  1  0.62822599  0.37177401  0.18148513  1
  Er  Er3  1  0.37177401  0.62822599  0.68148513  1
  S  S0  1  0.54247376  0.45752624  0.99968531  1
  S  S1  1  0.45752624  0.54247376  0.49968531  1
  S  S2  1  0.73383870  0.26616130  0.63631197  1
  S  S3  1  0.26616130  0.73383870  0.13631197  1
  S  S4  1  0.72222786  0.27777214  0.36987088  1
  S  S5  1  0.27777214  0.72222786  0.86987088  1
  S  S6  1  0.99073140  0.00926860  0.24466322  1
  S  S7  1  0.00926860  0.99073140  0.74466322  1
loop_
_geom_bond_atom_site_label_1
_geom_bond_atom_site_label_2
_geom_bond_distance
_geom_bond_site_symmetry_2
Ca0 S0 2.771812 1_544
Ca0 S0 2.771812 1_654
Ca0 S3 2.967442 1_655
Ca0 S3 2.967442 1_545
Ca0 S5 3.028668 1_544
Ca0 S5 3.028668 1_654
Ca0 S6 3.336295 1_555
Ca1 S1 2.771812 1_565
Ca1 S1 2.771812 1_455
Ca1 S2 2.967442 1_565
Ca1 S2 2.967442 1_455
Ca1 S4 3.028668 1_455
Ca1 S4 3.028668 1_565
Ca1 S7 3.336295 1_555
Er0 S1 2.632069 1_555
Er0 S4 2.681997 1_565
Er0 S4 2.681997 1_455
Er0 S3 2.737908 1_555
Er0 S6 2.756239 1_455
Er0 S6 2.756239 1_565
Er1 S0 2.632069 1_555
Er1 S5 2.681997 1_655
Er1 S5 2.681997 1_545
Er1 S2 2.737908 1_555
Er1 S7 2.756239 1_545
Er1 S7 2.756239 1_655
Er2 S0 2.630520 1_554
Er2 S3 2.680629 1_545
Er2 S3 2.680629 1_655
Er2 S6 2.739286 1_455
Er2 S6 2.739286 1_565
Er2 S4 2.753786 1_555
Er3 S1 2.630520 1_555
Er3 S2 2.680629 1_565
Er3 S2 2.680629 1_455
Er3 S7 2.739286 1_655
Er3 S7 2.739286 1_545
Er3 S5 2.753786 1_555
