# generated using pymatgen
data_Tl3Mo4(P2O11)2
_symmetry_space_group_name_H-M   'P 1'
_cell_length_a   10.28031259
_cell_length_b   10.28031259
_cell_length_c   19.50785100
_cell_angle_alpha   90.00000000
_cell_angle_beta   90.00000000
_cell_angle_gamma   90.34915326
_symmetry_Int_Tables_number   1
_chemical_formula_structural   Tl3Mo4(P2O11)2
_chemical_formula_sum   'Tl12 Mo16 P16 O88'
_cell_volume   2061.64557555
_cell_formula_units_Z   4
loop_
 _symmetry_equiv_pos_site_id
 _symmetry_equiv_pos_as_xyz
  1  'x, y, z'
loop_
 _atom_site_type_symbol
 _atom_site_label
 _atom_site_symmetry_multiplicity
 _atom_site_fract_x
 _atom_site_fract_y
 _atom_site_fract_z
 _atom_site_occupancy
  Tl  Tl0  1  0.99065700  0.11698200  0.12894100  1
  Tl  Tl1  1  0.00934300  0.88301800  0.62894100  1
  Tl  Tl2  1  0.88301800  0.00934300  0.37105900  1
  Tl  Tl3  1  0.11698200  0.99065700  0.87105900  1
  Tl  Tl4  1  0.61648500  0.50932600  0.87609500  1
  Tl  Tl5  1  0.38351500  0.49067400  0.37609500  1
  Tl  Tl6  1  0.49067400  0.38351500  0.62390500  1
  Tl  Tl7  1  0.50932600  0.61648500  0.12390500  1
  Tl  Tl8  1  0.79072500  0.20927500  0.75000000  1
  Tl  Tl9  1  0.20927500  0.79072500  0.25000000  1
  Tl  Tl10  1  0.70846600  0.70846600  0.50000000  1
  Tl  Tl11  1  0.29153400  0.29153400  0.00000000  1
  Mo  Mo0  1  0.89251800  0.25488100  0.56533700  1
  Mo  Mo1  1  0.10748200  0.74511900  0.06533700  1
  Mo  Mo2  1  0.74511900  0.10748200  0.93466300  1
  Mo  Mo3  1  0.25488100  0.89251800  0.43466300  1
  Mo  Mo4  1  0.24603800  0.39654700  0.81419600  1
  Mo  Mo5  1  0.75396200  0.60345300  0.31419600  1
  Mo  Mo6  1  0.60345300  0.75396200  0.68580400  1
  Mo  Mo7  1  0.39654700  0.24603800  0.18580400  1
  Mo  Mo8  1  0.13337900  0.51719500  0.56132200  1
  Mo  Mo9  1  0.86662100  0.48280500  0.06132200  1
  Mo  Mo10  1  0.48280500  0.86662100  0.93867800  1
  Mo  Mo11  1  0.51719500  0.13337900  0.43867800  1
  Mo  Mo12  1  0.98467500  0.63826500  0.81052300  1
  Mo  Mo13  1  0.01532500  0.36173500  0.31052300  1
  Mo  Mo14  1  0.36173500  0.01532500  0.68947700  1
  Mo  Mo15  1  0.63826500  0.98467500  0.18947700  1
  P  P0  1  0.95397800  0.35689800  0.90972000  1
  P  P1  1  0.04602200  0.64310200  0.40972000  1
  P  P2  1  0.64310200  0.04602200  0.59028000  1
  P  P3  1  0.35689800  0.95397800  0.09028000  1
  P  P4  1  0.34376600  0.76158100  0.57968500  1
  P  P5  1  0.65623400  0.23841900  0.07968500  1
  P  P6  1  0.23841900  0.65623400  0.92031500  1
  P  P7  1  0.76158100  0.34376600  0.42031500  1
  P  P8  1  0.15619100  0.26295800  0.66967100  1
  P  P9  1  0.84380900  0.73704200  0.16967100  1
  P  P10  1  0.73704200  0.84380900  0.83032900  1
  P  P11  1  0.26295800  0.15619100  0.33032900  1
  P  P12  1  0.85537900  0.54570000  0.65983100  1
  P  P13  1  0.14462100  0.45430000  0.15983100  1
  P  P14  1  0.45430000  0.14462100  0.84016900  1
  P  P15  1  0.54570000  0.85537900  0.34016900  1
  O  O0  1  0.10013000  0.68568600  0.89409700  1
  O  O1  1  0.89987000  0.31431400  0.39409700  1
  O  O2  1  0.31431400  0.89987000  0.60590300  1
  O  O3  1  0.68568600  0.10013000  0.10590300  1
  O  O4  1  0.01955800  0.21238800  0.64619700  1
  O  O5  1  0.98044200  0.78761200  0.14619700  1
  O  O6  1  0.78761200  0.98044200  0.85380300  1
  O  O7  1  0.21238800  0.01955800  0.35380300  1
  O  O8  1  0.90756200  0.48479500  0.87789200  1
  O  O9  1  0.09243800  0.51520500  0.37789200  1
  O  O10  1  0.51520500  0.09243800  0.62210800  1
  O  O11  1  0.48479500  0.90756200  0.12210800  1
  O  O12  1  0.15610200  0.26410100  0.74893800  1
  O  O13  1  0.84389800  0.73589900  0.24893800  1
  O  O14  1  0.73589900  0.84389800  0.75106200  1
  O  O15  1  0.26410100  0.15610200  0.25106200  1
  O  O16  1  0.85526500  0.24882200  0.88636000  1
  O  O17  1  0.14473500  0.75117800  0.38636000  1
  O  O18  1  0.75117800  0.14473500  0.61364000  1
  O  O19  1  0.24882200  0.85526500  0.11364000  1
  O  O20  1  0.02164700  0.77655900  0.76305700  1
  O  O21  1  0.97835300  0.22344100  0.26305700  1
  O  O22  1  0.22344100  0.97835300  0.73694300  1
  O  O23  1  0.77655900  0.02164700  0.23694300  1
  O  O24  1  0.82349300  0.73390400  0.85822200  1
  O  O25  1  0.17650700  0.26609600  0.35822200  1
  O  O26  1  0.26609600  0.17650700  0.64177800  1
  O  O27  1  0.73390400  0.82349300  0.14177800  1
  O  O28  1  0.02336700  0.38597000  0.53637600  1
  O  O29  1  0.97663300  0.61403000  0.03637600  1
  O  O30  1  0.61403000  0.97663300  0.96362400  1
  O  O31  1  0.38597000  0.02336700  0.46362400  1
  O  O32  1  0.37764600  0.43230700  0.76265000  1
  O  O33  1  0.62235400  0.56769300  0.26265000  1
  O  O34  1  0.56769300  0.62235400  0.73735000  1
  O  O35  1  0.43230700  0.37764600  0.23735000  1
  O  O36  1  0.29161300  0.52228000  0.89678200  1
  O  O37  1  0.70838700  0.47772000  0.39678200  1
  O  O38  1  0.47772000  0.70838700  0.60321800  1
  O  O39  1  0.52228000  0.29161300  0.10321800  1
  O  O40  1  0.93464800  0.12765400  0.51278800  1
  O  O41  1  0.06535200  0.87234600  0.01278800  1
  O  O42  1  0.87234600  0.06535200  0.98721200  1
  O  O43  1  0.12765400  0.93464800  0.48721200  1
  O  O44  1  0.86253300  0.54889100  0.73931500  1
  O  O45  1  0.13746700  0.45110900  0.23931500  1
  O  O46  1  0.45110900  0.13746700  0.76068500  1
  O  O47  1  0.54889100  0.86253300  0.26068500  1
  O  O48  1  0.94671600  0.36453800  0.99072500  1
  O  O49  1  0.05328400  0.63546200  0.49072500  1
  O  O50  1  0.63546200  0.05328400  0.50927500  1
  O  O51  1  0.36453800  0.94671600  0.00927500  1
  O  O52  1  0.74981100  0.64410300  0.63529200  1
  O  O53  1  0.25018900  0.35589700  0.13529200  1
  O  O54  1  0.35589700  0.25018900  0.86470800  1
  O  O55  1  0.64410300  0.74981100  0.36470800  1
  O  O56  1  0.26928600  0.47813200  0.51300700  1
  O  O57  1  0.73071400  0.52186800  0.01300700  1
  O  O58  1  0.52186800  0.73071400  0.98699300  1
  O  O59  1  0.47813200  0.26928600  0.48699300  1
  O  O60  1  0.18328400  0.40415200  0.64205000  1
  O  O61  1  0.81671600  0.59584800  0.14205000  1
  O  O62  1  0.59584800  0.81671600  0.85795000  1
  O  O63  1  0.40415200  0.18328400  0.35795000  1
  O  O64  1  0.76199500  0.34318000  0.49994700  1
  O  O65  1  0.23800500  0.65682000  0.99994700  1
  O  O66  1  0.65682000  0.23800500  0.00005300  1
  O  O67  1  0.34318000  0.76199500  0.50005300  1
  O  O68  1  0.09295200  0.31715300  0.88979700  1
  O  O69  1  0.90704800  0.68284700  0.38979700  1
  O  O70  1  0.68284700  0.90704800  0.61020300  1
  O  O71  1  0.31715300  0.09295200  0.11020300  1
  O  O72  1  0.81859700  0.40596000  0.63680600  1
  O  O73  1  0.18140300  0.59404000  0.13680600  1
  O  O74  1  0.59404000  0.18140300  0.86319400  1
  O  O75  1  0.40596000  0.81859700  0.36319400  1
  O  O76  1  0.23084600  0.67103200  0.60574800  1
  O  O77  1  0.76915400  0.32896800  0.10574800  1
  O  O78  1  0.32896800  0.76915400  0.89425200  1
  O  O79  1  0.67103200  0.23084600  0.39425200  1
  O  O80  1  0.98513900  0.59147600  0.62657000  1
  O  O81  1  0.01486100  0.40852400  0.12657000  1
  O  O82  1  0.40852400  0.01486100  0.87343000  1
  O  O83  1  0.59147600  0.98513900  0.37343000  1
  O  O84  1  0.11414700  0.51450600  0.78477900  1
  O  O85  1  0.88585300  0.48549400  0.28477900  1
  O  O86  1  0.48549400  0.88585300  0.71522100  1
  O  O87  1  0.51450600  0.11414700  0.21522100  1
loop_
_geom_bond_atom_site_label_1
_geom_bond_atom_site_label_2
_geom_bond_distance
_geom_bond_site_symmetry_2
Mo0 O40 1.719315 1_555
Mo0 O28 1.980579 1_655
Mo0 O18 2.064292 1_555
Mo0 O64 2.065554 1_555
Mo0 O4 2.095627 1_655
Mo0 O72 2.224395 1_555
Mo1 O41 1.719315 1_555
Mo1 O29 1.980579 1_455
Mo1 O19 2.064292 1_555
Mo1 O65 2.065554 1_554
Mo1 O5 2.095627 1_455
Mo1 O73 2.224395 1_555
Mo2 O42 1.719315 1_555
Mo2 O30 1.980579 1_545
Mo2 O16 2.064292 1_555
Mo2 O66 2.065554 1_556
Mo2 O6 2.095627 1_545
Mo2 O74 2.224395 1_555
Mo3 O43 1.719315 1_555
Mo3 O31 1.980579 1_565
Mo3 O17 2.064292 1_555
Mo3 O67 2.065554 1_555
Mo3 O7 2.095627 1_565
Mo3 O75 2.224395 1_555
Mo4 O32 1.723587 1_555
Mo4 O84 1.912669 1_555
Mo4 O12 2.077028 1_555
Mo4 O36 2.116234 1_555
Mo4 O54 2.128623 1_555
Mo4 O68 2.302683 1_555
Mo5 O33 1.723587 1_555
Mo5 O85 1.912669 1_555
Mo5 O13 2.077028 1_555
Mo5 O37 2.116234 1_555
Mo5 O55 2.128623 1_555
Mo5 O69 2.302683 1_555
Mo6 O34 1.723587 1_555
Mo6 O86 1.912669 1_555
Mo6 O14 2.077028 1_555
Mo6 O38 2.116234 1_555
Mo6 O52 2.128623 1_555
Mo6 O70 2.302683 1_555
Mo7 O35 1.723587 1_555
Mo7 O87 1.912669 1_555
Mo7 O15 2.077028 1_555
Mo7 O39 2.116234 1_555
Mo7 O53 2.128623 1_555
Mo7 O71 2.302683 1_555
Mo8 O56 1.734510 1_555
Mo8 O28 1.821314 1_555
Mo8 O49 2.016205 1_555
Mo8 O60 2.025113 1_555
Mo8 O76 2.058369 1_555
Mo8 O80 2.130703 1_455
Mo9 O57 1.734510 1_555
Mo9 O29 1.821314 1_555
Mo9 O48 2.016205 1_554
Mo9 O61 2.025113 1_555
Mo9 O77 2.058369 1_555
Mo9 O81 2.130703 1_655
Mo10 O58 1.734510 1_555
Mo10 O30 1.821314 1_555
Mo10 O51 2.016205 1_556
Mo10 O62 2.025113 1_555
Mo10 O78 2.058369 1_555
Mo10 O82 2.130703 1_565
Mo11 O59 1.734510 1_555
Mo11 O31 1.821314 1_555
Mo11 O50 2.016205 1_555
Mo11 O63 2.025113 1_555
Mo11 O79 2.058369 1_555
Mo11 O83 2.130703 1_545
Mo12 O20 1.736815 1_655
Mo12 O84 1.913935 1_655
Mo12 O0 2.073019 1_655
Mo12 O44 2.082411 1_555
Mo12 O24 2.144301 1_555
Mo12 O8 2.197632 1_555
Mo13 O21 1.736815 1_455
Mo13 O85 1.913935 1_455
Mo13 O1 2.073019 1_455
Mo13 O45 2.082411 1_555
Mo13 O25 2.144301 1_555
Mo13 O9 2.197632 1_555
Mo14 O22 1.736815 1_545
Mo14 O86 1.913935 1_545
Mo14 O2 2.073019 1_545
Mo14 O46 2.082411 1_555
Mo14 O26 2.144301 1_555
Mo14 O10 2.197632 1_555
Mo15 O23 1.736815 1_565
Mo15 O87 1.913935 1_565
Mo15 O3 2.073019 1_565
Mo15 O47 2.082411 1_555
Mo15 O27 2.144301 1_555
Mo15 O11 2.197632 1_555
O0 P6 1.542598 1_555
O1 P7 1.542598 1_555
O2 P4 1.542598 1_555
O3 P5 1.542598 1_555
O4 P8 1.563347 1_555
O5 P9 1.563347 1_555
O6 P10 1.563347 1_555
O7 P11 1.563347 1_555
O8 P0 1.532842 1_555
O9 P1 1.532842 1_555
O10 P2 1.532842 1_555
O11 P3 1.532842 1_555
O12 P8 1.546374 1_555
O13 P9 1.546374 1_555
O14 P10 1.546374 1_555
O15 P11 1.546374 1_555
O16 P0 1.567861 1_555
O16 Tl8 2.770975 1_555
O17 P1 1.567861 1_555
O17 Tl9 2.770975 1_555
O18 P2 1.567861 1_555
O18 Tl8 2.770975 1_555
O19 P3 1.567861 1_555
O19 Tl9 2.770975 1_555
O20 Tl1 2.839115 1_555
O21 Tl0 2.839115 1_555
O22 Tl3 2.839115 1_555
O23 Tl2 2.839115 1_555
O24 P10 1.541026 1_555
O25 P11 1.541026 1_555
O26 P8 1.541026 1_555
O27 P9 1.541026 1_555
O36 P6 1.554140 1_555
O37 P7 1.554140 1_555
O38 P4 1.554140 1_555
O39 P5 1.554140 1_555
O44 P12 1.552642 1_555
O45 P13 1.552642 1_555
O46 P14 1.552642 1_555
O47 P15 1.552642 1_555
O48 P0 1.583967 1_555
O49 P1 1.583967 1_555
O50 P2 1.583967 1_555
O51 P3 1.583967 1_555
O52 P12 1.563239 1_555
O52 Tl10 2.754554 1_555
O53 P13 1.563239 1_555
O53 Tl11 2.754554 1_555
O54 P14 1.563239 1_555
O54 Tl11 2.754554 1_556
O55 P15 1.563239 1_555
O55 Tl10 2.754554 1_555
O60 P8 1.571588 1_555
O61 P9 1.571588 1_555
O62 P10 1.571588 1_555
O63 P11 1.571588 1_555
O64 P7 1.553467 1_555
O65 P6 1.553467 1_555
O66 P5 1.553467 1_555
O67 P4 1.553467 1_555
O68 P0 1.538274 1_455
O69 P1 1.538274 1_655
O70 P2 1.538274 1_565
O71 P3 1.538274 1_545
O72 P12 1.549790 1_555
O73 P13 1.549790 1_555
O74 P14 1.549790 1_555
O75 P15 1.549790 1_555
O76 P4 1.568259 1_555
O77 P5 1.568259 1_555
O78 P6 1.568259 1_555
O79 P7 1.568259 1_555
O80 P12 1.553801 1_555
O81 P13 1.553801 1_555
O82 P14 1.553801 1_555
O83 P15 1.553801 1_555
