# generated using pymatgen
data_CsDy2Cu3Se5
_symmetry_space_group_name_H-M   'P 1'
_cell_length_a   7.63432858
_cell_length_b   7.63432858
_cell_length_c   17.43124500
_cell_angle_alpha   90.00000000
_cell_angle_beta   90.00000000
_cell_angle_gamma   148.53848155
_symmetry_Int_Tables_number   1
_chemical_formula_structural   CsDy2Cu3Se5
_chemical_formula_sum   'Cs2 Dy4 Cu6 Se10'
_cell_volume   530.24777968
_cell_formula_units_Z   2
loop_
 _symmetry_equiv_pos_site_id
 _symmetry_equiv_pos_as_xyz
  1  'x, y, z'
loop_
 _atom_site_type_symbol
 _atom_site_label
 _atom_site_symmetry_multiplicity
 _atom_site_fract_x
 _atom_site_fract_y
 _atom_site_fract_z
 _atom_site_occupancy
  Cs  Cs0  1  0.93923000  0.06077000  0.25000000  1
  Cs  Cs1  1  0.06077000  0.93923000  0.75000000  1
  Dy  Dy0  1  0.19211400  0.80788600  0.40885600  1
  Dy  Dy1  1  0.19211400  0.80788600  0.09114400  1
  Dy  Dy2  1  0.80788600  0.19211400  0.59114400  1
  Dy  Dy3  1  0.80788600  0.19211400  0.90885600  1
  Cu  Cu0  1  0.58433800  0.41566200  0.53020300  1
  Cu  Cu1  1  0.41566200  0.58433800  0.46979700  1
  Cu  Cu2  1  0.34170500  0.65829500  0.75000000  1
  Cu  Cu3  1  0.65829500  0.34170500  0.25000000  1
  Cu  Cu4  1  0.58433800  0.41566200  0.96979700  1
  Cu  Cu5  1  0.41566200  0.58433800  0.03020300  1
  Se  Se0  1  0.43931900  0.56068100  0.88795500  1
  Se  Se1  1  0.83231000  0.16769000  0.07010400  1
  Se  Se2  1  0.43931900  0.56068100  0.61204500  1
  Se  Se3  1  0.16769000  0.83231000  0.57010400  1
  Se  Se4  1  0.83231000  0.16769000  0.42989600  1
  Se  Se5  1  0.16769000  0.83231000  0.92989600  1
  Se  Se6  1  0.76211500  0.23788500  0.75000000  1
  Se  Se7  1  0.23788500  0.76211500  0.25000000  1
  Se  Se8  1  0.56068100  0.43931900  0.38795500  1
  Se  Se9  1  0.56068100  0.43931900  0.11204500  1
loop_
_geom_bond_atom_site_label_1
_geom_bond_atom_site_label_2
_geom_bond_distance
_geom_bond_site_symmetry_2
Cs0 Se1 3.507499 1_555
Cs0 Se4 3.507499 1_555
Cs0 Se7 3.611161 1_545
Cs0 Se7 3.611161 1_655
Cs0 Se9 3.640438 1_655
Cs0 Se8 3.640438 1_655
Cs0 Se8 3.640438 1_545
Cs0 Se9 3.640438 1_545
Cs1 Se5 3.507499 1_555
Cs1 Se3 3.507499 1_555
Cs1 Se6 3.611161 1_455
Cs1 Se6 3.611161 1_565
Cs1 Se0 3.640438 1_455
Cs1 Se2 3.640438 1_455
Cs1 Se2 3.640438 1_565
Cs1 Se0 3.640438 1_565
Dy0 Se3 2.833581 1_555
Dy0 Se7 2.849595 1_555
Dy0 Se8 2.854478 1_565
Dy0 Se8 2.854478 1_455
Dy0 Se4 2.943459 1_455
Dy0 Se4 2.943459 1_565
Dy1 Se5 2.833581 1_554
Dy1 Se7 2.849595 1_555
Dy1 Se9 2.854478 1_565
Dy1 Se9 2.854478 1_455
Dy1 Se1 2.943459 1_455
Dy1 Se1 2.943459 1_565
Dy2 Se4 2.833581 1_555
Dy2 Se6 2.849595 1_555
Dy2 Se2 2.854478 1_545
Dy2 Se2 2.854478 1_655
Dy2 Se3 2.943459 1_545
Dy2 Se3 2.943459 1_655
Dy3 Se1 2.833581 1_556
Dy3 Se6 2.849595 1_555
Dy3 Se0 2.854478 1_545
Dy3 Se0 2.854478 1_655
Dy3 Se5 2.943459 1_545
Dy3 Se5 2.943459 1_655
Cu0 Se3 2.503689 1_655
Cu0 Se3 2.503689 1_545
Cu0 Se8 2.503817 1_555
Cu0 Se2 2.564704 1_555
Cu1 Se4 2.503689 1_565
Cu1 Se4 2.503689 1_455
Cu1 Se2 2.503817 1_555
Cu1 Se8 2.564704 1_555
Cu2 Se6 2.377457 1_565
Cu2 Se6 2.377457 1_455
Cu2 Se0 2.800148 1_555
Cu2 Se2 2.800148 1_555
Cu3 Se7 2.377457 1_655
Cu3 Se7 2.377457 1_545
Cu3 Se8 2.800148 1_555
Cu3 Se9 2.800148 1_555
Cu4 Se5 2.503689 1_655
Cu4 Se5 2.503689 1_545
Cu4 Se9 2.503817 1_556
Cu4 Se0 2.564704 1_555
Cu5 Se1 2.503689 1_565
Cu5 Se1 2.503689 1_455
Cu5 Se0 2.503817 1_554
Cu5 Se9 2.564704 1_555
