# generated using pymatgen
data_Mg149Rh
_symmetry_space_group_name_H-M   'P 1'
_cell_length_a   15.89998650
_cell_length_b   15.89999222
_cell_length_c   15.66070049
_cell_angle_alpha   90.00000000
_cell_angle_beta   90.00000000
_cell_angle_gamma   120.00001595
_symmetry_Int_Tables_number   1
_chemical_formula_structural   Mg149Rh
_chemical_formula_sum   'Mg149 Rh1'
_cell_volume   3428.74678232
_cell_formula_units_Z   1
loop_
 _symmetry_equiv_pos_site_id
 _symmetry_equiv_pos_as_xyz
  1  'x, y, z'
loop_
 _atom_site_type_symbol
 _atom_site_label
 _atom_site_symmetry_multiplicity
 _atom_site_fract_x
 _atom_site_fract_y
 _atom_site_fract_z
 _atom_site_occupancy
  Mg  Mg0  1  0.60238493  0.00025889  0.00000000  1
  Mg  Mg1  1  0.39787297  0.00025889  0.00000000  1
  Mg  Mg2  1  0.81135153  0.00190464  -0.00000000  1
  Mg  Mg3  1  0.19055311  0.00190464  -0.00000000  1
  Mg  Mg4  1  0.99809536  0.18864847  0.00000000  1
  Mg  Mg5  1  0.19055311  0.18864847  -0.00000000  1
  Mg  Mg6  1  0.39761683  0.19880791  -0.00000000  1
  Mg  Mg7  1  0.80119209  0.19880891  0.00000000  1
  Mg  Mg8  1  0.59969805  0.19939610  0.00000000  1
  Mg  Mg9  1  0.19828499  0.39656898  -0.00000000  1
  Mg  Mg10  1  0.39787297  0.39761407  -0.00000000  1
  Mg  Mg11  1  0.99974111  0.39761507  -0.00000000  1
  Mg  Mg12  1  0.59969805  0.40030195  0.00000000  1
  Mg  Mg13  1  0.80060490  0.40030195  0.00000000  1
  Mg  Mg14  1  0.40014795  0.59985105  0.00000000  1
  Mg  Mg15  1  0.19970310  0.59985205  0.00000000  1
  Mg  Mg16  1  0.99974111  0.60212603  -0.00000000  1
  Mg  Mg17  1  0.60238493  0.60212703  -0.00000000  1
  Mg  Mg18  1  0.80119209  0.60238317  0.00000000  1
  Mg  Mg19  1  0.40014795  0.80029690  -0.00000000  1
  Mg  Mg20  1  0.19828499  0.80171601  -0.00000000  1
  Mg  Mg21  1  0.60343202  0.80171601  -0.00000000  1
  Mg  Mg22  1  0.99809536  0.80944689  -0.00000000  1
  Mg  Mg23  1  0.81135153  0.80944689  -0.00000000  1
  Mg  Mg24  1  0.06345473  0.12690946  0.15713466  1
  Mg  Mg25  1  0.06345473  0.93654527  0.15713466  1
  Mg  Mg26  1  0.87309054  0.93654527  0.15713466  1
  Mg  Mg27  1  0.06596262  0.33070033  0.16535195  1
  Mg  Mg28  1  0.26473771  0.33070133  0.16535195  1
  Mg  Mg29  1  0.66929867  0.73526229  0.16535195  1
  Mg  Mg30  1  0.06596262  0.73526229  0.16535195  1
  Mg  Mg31  1  0.66929867  0.93403738  0.16535195  1
  Mg  Mg32  1  0.26473771  0.93403738  0.16535195  1
  Mg  Mg33  1  0.46679552  0.53320448  0.16603342  1
  Mg  Mg34  1  0.06640995  0.53320548  0.16603342  1
  Mg  Mg35  1  0.46679552  0.93359005  0.16603342  1
  Mg  Mg36  1  0.26624330  0.53248661  0.16593373  1
  Mg  Mg37  1  0.46751439  0.73375670  0.16593373  1
  Mg  Mg38  1  0.26624330  0.73375670  0.16593373  1
  Mg  Mg39  1  0.66643659  0.13387042  0.16667490  1
  Mg  Mg40  1  0.46743384  0.13387042  0.16667490  1
  Mg  Mg41  1  0.46743384  0.33356341  0.16667490  1
  Mg  Mg42  1  0.86612958  0.33356341  0.16667490  1
  Mg  Mg43  1  0.66643659  0.53256616  0.16667490  1
  Mg  Mg44  1  0.86612958  0.53256616  0.16667490  1
  Mg  Mg45  1  0.66666700  0.33333300  0.16668458  1
  Mg  Mg46  1  0.26858508  0.13429204  0.16723518  1
  Mg  Mg47  1  0.86570796  0.13429304  0.16723518  1
  Mg  Mg48  1  0.86570796  0.73141492  0.16723518  1
  Mg  Mg49  1  -0.00000000  0.00000000  0.33141967  1
  Mg  Mg50  1  0.00027638  0.19894344  0.33124590  1
  Mg  Mg51  1  0.19866605  0.19894344  0.33124590  1
  Mg  Mg52  1  0.00027638  0.80133295  0.33124590  1
  Mg  Mg53  1  0.80105656  0.80133295  0.33124590  1
  Mg  Mg54  1  0.19866605  0.99972262  0.33124590  1
  Mg  Mg55  1  0.80105656  0.99972362  0.33124590  1
  Mg  Mg56  1  0.60040853  0.99974005  0.33263824  1
  Mg  Mg57  1  0.39933251  0.99974005  0.33263824  1
  Mg  Mg58  1  0.00025995  0.39959147  0.33263824  1
  Mg  Mg59  1  0.39933251  0.39959147  0.33263824  1
  Mg  Mg60  1  0.60040853  0.60066849  0.33263824  1
  Mg  Mg61  1  0.00025995  0.60066849  0.33263824  1
  Mg  Mg62  1  0.19993737  0.39987574  0.33283423  1
  Mg  Mg63  1  0.19993737  0.80006263  0.33283423  1
  Mg  Mg64  1  0.60012426  0.80006263  0.33283423  1
  Mg  Mg65  1  0.19997002  0.59998501  0.33311306  1
  Mg  Mg66  1  0.40001499  0.59998501  0.33311306  1
  Mg  Mg67  1  0.40001499  0.80002998  0.33311306  1
  Mg  Mg68  1  0.59963688  0.19927277  0.33357285  1
  Mg  Mg69  1  0.80072723  0.40036312  0.33357285  1
  Mg  Mg70  1  0.59963688  0.40036412  0.33357285  1
  Mg  Mg71  1  0.39964269  0.19982185  0.33365843  1
  Mg  Mg72  1  0.80017815  0.19982185  0.33365843  1
  Mg  Mg73  1  0.80017815  0.60035731  0.33365843  1
  Mg  Mg74  1  0.06672729  0.13345359  0.50000000  1
  Mg  Mg75  1  0.26614144  0.13307022  0.50000000  1
  Mg  Mg76  1  0.86692878  0.13307122  0.50000000  1
  Mg  Mg77  1  0.46692749  0.13342513  0.50000000  1
  Mg  Mg78  1  0.66649763  0.13342513  0.50000000  1
  Mg  Mg79  1  0.06641758  0.33267683  0.50000000  1
  Mg  Mg80  1  0.26626025  0.33267683  0.50000000  1
  Mg  Mg81  1  0.66666700  0.33333300  0.50000000  1
  Mg  Mg82  1  0.46692749  0.33350237  0.50000000  1
  Mg  Mg83  1  0.86657587  0.33350237  0.50000000  1
  Mg  Mg84  1  0.26641561  0.53283022  0.50000000  1
  Mg  Mg85  1  0.46682069  0.53317931  0.50000000  1
  Mg  Mg86  1  0.06635762  0.53317931  0.50000000  1
  Mg  Mg87  1  0.66649763  0.53307251  0.50000000  1
  Mg  Mg88  1  0.86657587  0.53307351  0.50000000  1
  Mg  Mg89  1  0.26641561  0.73358439  0.50000000  1
  Mg  Mg90  1  0.46716878  0.73358439  0.50000000  1
  Mg  Mg91  1  0.66732317  0.73373975  0.50000000  1
  Mg  Mg92  1  0.06641758  0.73374075  0.50000000  1
  Mg  Mg93  1  0.86692878  0.73385856  0.50000000  1
  Mg  Mg94  1  0.46682069  0.93364138  0.50000000  1
  Mg  Mg95  1  0.06672729  0.93327371  0.50000000  1
  Mg  Mg96  1  0.86654641  0.93327371  0.50000000  1
  Mg  Mg97  1  0.26626025  0.93358242  0.50000000  1
  Mg  Mg98  1  0.66732317  0.93358242  0.50000000  1
  Mg  Mg99  1  0.39964269  0.19982185  0.66634157  1
  Mg  Mg100  1  0.80017815  0.19982185  0.66634157  1
  Mg  Mg101  1  0.80017815  0.60035731  0.66634157  1
  Mg  Mg102  1  0.59963688  0.19927277  0.66642715  1
  Mg  Mg103  1  0.80072723  0.40036312  0.66642715  1
  Mg  Mg104  1  0.59963688  0.40036412  0.66642715  1
  Mg  Mg105  1  0.19997002  0.59998501  0.66688694  1
  Mg  Mg106  1  0.40001499  0.59998501  0.66688694  1
  Mg  Mg107  1  0.40001499  0.80002998  0.66688694  1
  Mg  Mg108  1  0.19993737  0.39987574  0.66716577  1
  Mg  Mg109  1  0.19993737  0.80006263  0.66716577  1
  Mg  Mg110  1  0.60012426  0.80006263  0.66716577  1
  Mg  Mg111  1  0.60040853  0.99974005  0.66736176  1
  Mg  Mg112  1  0.39933251  0.99974005  0.66736176  1
  Mg  Mg113  1  0.00025995  0.39959147  0.66736176  1
  Mg  Mg114  1  0.39933251  0.39959147  0.66736176  1
  Mg  Mg115  1  0.60040853  0.60066849  0.66736176  1
  Mg  Mg116  1  0.00025995  0.60066849  0.66736176  1
  Mg  Mg117  1  0.00027638  0.19894344  0.66875410  1
  Mg  Mg118  1  0.19866605  0.19894344  0.66875410  1
  Mg  Mg119  1  0.00027638  0.80133295  0.66875410  1
  Mg  Mg120  1  0.80105656  0.80133295  0.66875410  1
  Mg  Mg121  1  0.19866605  0.99972262  0.66875410  1
  Mg  Mg122  1  0.80105656  0.99972362  0.66875410  1
  Mg  Mg123  1  -0.00000000  0.00000000  0.66858033  1
  Mg  Mg124  1  0.26858508  0.13429204  0.83276482  1
  Mg  Mg125  1  0.86570796  0.13429304  0.83276482  1
  Mg  Mg126  1  0.86570796  0.73141492  0.83276482  1
  Mg  Mg127  1  0.66666700  0.33333300  0.83331442  1
  Mg  Mg128  1  0.66643659  0.13387042  0.83332410  1
  Mg  Mg129  1  0.46743384  0.13387042  0.83332410  1
  Mg  Mg130  1  0.46743384  0.33356341  0.83332410  1
  Mg  Mg131  1  0.86612958  0.33356341  0.83332410  1
  Mg  Mg132  1  0.66643659  0.53256616  0.83332410  1
  Mg  Mg133  1  0.86612958  0.53256616  0.83332410  1
  Mg  Mg134  1  0.26624330  0.53248661  0.83406627  1
  Mg  Mg135  1  0.46751439  0.73375670  0.83406627  1
  Mg  Mg136  1  0.26624330  0.73375670  0.83406627  1
  Mg  Mg137  1  0.46679552  0.53320448  0.83396658  1
  Mg  Mg138  1  0.06640995  0.53320548  0.83396658  1
  Mg  Mg139  1  0.46679552  0.93359005  0.83396658  1
  Mg  Mg140  1  0.06596262  0.33070033  0.83464905  1
  Mg  Mg141  1  0.26473771  0.33070133  0.83464905  1
  Mg  Mg142  1  0.66929867  0.73526229  0.83464905  1
  Mg  Mg143  1  0.06596262  0.73526229  0.83464905  1
  Mg  Mg144  1  0.66929867  0.93403738  0.83464905  1
  Mg  Mg145  1  0.26473771  0.93403738  0.83464905  1
  Mg  Mg146  1  0.06345473  0.12690946  0.84286534  1
  Mg  Mg147  1  0.06345473  0.93654527  0.84286534  1
  Mg  Mg148  1  0.87309054  0.93654527  0.84286534  1
  Rh  Rh0  1  -0.00000000  0.00000000  0.00000000  1
loop_
_geom_bond_atom_site_label_1
_geom_bond_atom_site_label_2
_geom_bond_distance
_geom_bond_site_symmetry_2
Mg0 Mg7 3.158989 1_555
Mg0 Mg21 3.165187 1_545
Mg0 Mg144 3.172757 1_544
Mg0 Mg31 3.172770 1_545
Mg0 Mg8 3.187855 1_555
Mg0 Mg39 3.193772 1_555
Mg0 Mg128 3.193784 1_554
Mg0 Mg19 3.197632 1_545
Mg0 Mg139 3.201123 1_544
Mg0 Mg35 3.201123 1_545
Mg0 Mg1 3.251737 1_555
Mg0 Mg2 3.309560 1_555
Mg1 Mg6 3.158966 1_555
Mg1 Mg20 3.165170 1_545
Mg1 Mg145 3.172757 1_544
Mg1 Mg32 3.172770 1_545
Mg1 Mg8 3.187862 1_555
Mg1 Mg40 3.193772 1_555
Mg1 Mg129 3.193785 1_554
Mg1 Mg19 3.197634 1_545
Mg1 Mg139 3.201139 1_544
Mg1 Mg35 3.201139 1_545
Mg1 Mg3 3.309544 1_555
Mg2 Mg4 2.969224 1_555
Mg2 Rh0 3.014764 1_655
Mg2 Mg26 3.019846 1_545
Mg2 Mg23 3.060077 1_545
Mg2 Mg47 3.196542 1_555
Mg2 Mg7 3.214589 1_555
Mg2 Mg31 3.245652 1_545
Mg2 Mg21 3.246203 1_545
Mg3 Mg5 2.969225 1_555
Mg3 Rh0 3.014764 1_555
Mg3 Mg46 3.196534 1_555
Mg3 Mg6 3.214581 1_555
Mg3 Mg32 3.245645 1_545
Mg4 Rh0 3.014765 1_655
Mg4 Mg5 3.060076 1_655
Mg4 Mg47 3.196534 1_555
Mg4 Mg7 3.214581 1_555
Mg4 Mg9 3.246219 1_655
Mg5 Rh0 3.014764 1_555
Mg5 Mg6 3.214588 1_555
Mg5 Mg9 3.246212 1_555
Mg6 Mg8 3.208423 1_555
Mg7 Mg8 3.208431 1_555
Mg10 Mg6 3.158982 1_555
Mg10 Mg9 3.165170 1_555
Mg10 Mg141 3.172757 1_554
Mg10 Mg28 3.172770 1_555
Mg10 Mg12 3.187862 1_555
Mg10 Mg41 3.193772 1_555
Mg10 Mg130 3.193785 1_554
Mg10 Mg14 3.197634 1_555
Mg10 Mg137 3.201132 1_554
Mg10 Mg33 3.201132 1_555
Mg10 Mg17 3.251745 1_555
Mg10 Mg5 3.309544 1_555
Mg11 Mg7 3.158973 1_555
Mg11 Mg9 3.165194 1_655
Mg11 Mg140 3.172765 1_654
Mg11 Mg27 3.172778 1_655
Mg11 Mg13 3.187838 1_555
Mg11 Mg42 3.193771 1_555
Mg11 Mg131 3.193784 1_554
Mg11 Mg15 3.197632 1_655
Mg11 Mg138 3.201131 1_654
Mg11 Mg34 3.201131 1_655
Mg11 Mg16 3.251723 1_555
Mg11 Mg4 3.309561 1_555
Mg12 Mg41 3.182833 1_555
Mg12 Mg43 3.182834 1_555
Mg12 Mg130 3.182846 1_554
Mg12 Mg132 3.182847 1_554
Mg12 Mg17 3.187871 1_555
Mg12 Mg8 3.194401 1_555
Mg12 Mg13 3.194416 1_555
Mg12 Mg45 3.196186 1_555
Mg12 Mg127 3.196199 1_554
Mg12 Mg6 3.208431 1_555
Mg12 Mg18 3.208431 1_555
Mg13 Mg42 3.182826 1_555
Mg13 Mg44 3.182834 1_555
Mg13 Mg131 3.182839 1_554
Mg13 Mg133 3.182847 1_554
Mg13 Mg16 3.187846 1_555
Mg13 Mg8 3.194408 1_555
Mg13 Mg45 3.196186 1_555
Mg13 Mg7 3.208416 1_555
Mg13 Mg18 3.208432 1_555
Mg14 Mg33 3.182743 1_555
Mg14 Mg36 3.186331 1_555
Mg14 Mg37 3.186340 1_555
Mg14 Mg15 3.187078 1_555
Mg14 Mg19 3.187087 1_555
Mg14 Mg17 3.197625 1_555
Mg14 Mg9 3.220959 1_555
Mg14 Mg21 3.220991 1_555
Mg15 Mg34 3.182735 1_555
Mg15 Mg38 3.186332 1_555
Mg15 Mg36 3.186340 1_555
Mg15 Mg19 3.187070 1_555
Mg15 Mg16 3.197624 1_455
Mg15 Mg20 3.220969 1_555
Mg15 Mg9 3.220984 1_555
Mg16 Mg18 3.158973 1_555
Mg16 Mg20 3.165194 1_655
Mg16 Mg30 3.172778 1_655
Mg16 Mg44 3.193771 1_555
Mg16 Mg34 3.201123 1_655
Mg16 Mg22 3.309561 1_555
Mg17 Mg18 3.158997 1_555
Mg17 Mg21 3.165172 1_555
Mg17 Mg29 3.172770 1_555
Mg17 Mg43 3.193780 1_555
Mg17 Mg33 3.201123 1_555
Mg17 Mg23 3.309552 1_555
Mg18 Mg48 3.164818 1_555
Mg18 Mg44 3.202799 1_555
Mg18 Mg43 3.202807 1_555
Mg18 Mg22 3.214581 1_555
Mg18 Mg23 3.214589 1_555
Mg19 Mg35 3.182735 1_555
Mg19 Mg38 3.186331 1_555
Mg19 Mg37 3.186348 1_555
Mg19 Mg20 3.220960 1_555
Mg19 Mg21 3.220991 1_555
Mg20 Mg32 3.166306 1_555
Mg20 Mg30 3.166314 1_555
Mg20 Mg38 3.202444 1_555
Mg20 Mg3 3.246212 1_565
Mg20 Mg22 3.246219 1_455
Mg21 Mg29 3.166299 1_555
Mg21 Mg31 3.166306 1_555
Mg21 Mg37 3.202444 1_555
Mg21 Mg23 3.246203 1_555
Mg22 Mg23 2.969224 1_555
Mg22 Rh0 3.014765 1_665
Mg22 Mg25 3.019846 1_655
Mg22 Mg3 3.060075 1_665
Mg22 Mg48 3.196534 1_555
Mg22 Mg30 3.245645 1_655
Mg23 Rh0 3.014764 1_665
Mg23 Mg26 3.019846 1_555
Mg23 Mg48 3.196542 1_555
Mg23 Mg29 3.245652 1_555
Mg24 Rh0 3.018202 1_555
Mg24 Mg5 3.019846 1_555
Mg24 Mg4 3.019846 1_455
Mg24 Mg26 3.026788 1_445
Mg24 Mg25 3.026789 1_545
Mg24 Mg47 3.208385 1_455
Mg24 Mg46 3.208393 1_555
Mg24 Mg27 3.223091 1_555
Mg24 Mg28 3.223098 1_555
Mg24 Mg49 3.240923 1_555
Mg24 Mg51 3.302467 1_555
Mg24 Mg50 3.302475 1_555
Mg25 Rh0 3.018202 1_565
Mg25 Mg3 3.019846 1_565
Mg25 Mg26 3.026788 1_455
Mg25 Mg46 3.208385 1_565
Mg25 Mg48 3.208385 1_455
Mg25 Mg32 3.223090 1_555
Mg25 Mg30 3.223091 1_555
Mg25 Mg49 3.240923 1_565
Mg25 Mg54 3.302467 1_555
Mg25 Mg52 3.302475 1_555
Mg26 Rh0 3.018202 1_665
Mg26 Mg48 3.208394 1_555
Mg26 Mg47 3.208394 1_565
Mg26 Mg29 3.223098 1_555
Mg26 Mg31 3.223105 1_555
Mg26 Mg49 3.240922 1_665
Mg26 Mg53 3.302475 1_555
Mg26 Mg55 3.302475 1_555
Mg27 Mg47 3.154042 1_455
Mg27 Mg28 3.160513 1_555
Mg27 Mg9 3.166314 1_555
Mg27 Mg50 3.168794 1_555
Mg27 Mg36 3.196510 1_555
Mg27 Mg42 3.200414 1_455
Mg27 Mg62 3.206878 1_555
Mg27 Mg58 3.209195 1_555
Mg27 Mg34 3.216298 1_555
Mg27 Mg4 3.245644 1_455
Mg28 Mg46 3.154076 1_555
Mg28 Mg9 3.166299 1_555
Mg28 Mg51 3.168801 1_555
Mg28 Mg36 3.196495 1_555
Mg28 Mg41 3.200422 1_555
Mg28 Mg62 3.206878 1_555
Mg28 Mg59 3.209202 1_555
Mg28 Mg33 3.216280 1_555
Mg28 Mg5 3.245653 1_555
Mg29 Mg48 3.154075 1_555
Mg29 Mg31 3.160522 1_555
Mg29 Mg53 3.168801 1_555
Mg29 Mg37 3.196478 1_555
Mg29 Mg43 3.200423 1_555
Mg29 Mg64 3.206878 1_555
Mg29 Mg60 3.209195 1_555
Mg29 Mg33 3.216280 1_555
Mg30 Mg48 3.154043 1_455
Mg30 Mg32 3.160521 1_555
Mg30 Mg52 3.168794 1_555
Mg30 Mg38 3.196510 1_555
Mg30 Mg44 3.200414 1_455
Mg30 Mg63 3.206877 1_555
Mg30 Mg61 3.209195 1_555
Mg30 Mg34 3.216282 1_555
Mg31 Mg47 3.154066 1_565
Mg31 Mg55 3.168801 1_555
Mg31 Mg37 3.196494 1_555
Mg31 Mg39 3.200407 1_565
Mg31 Mg64 3.206878 1_555
Mg31 Mg56 3.209187 1_555
Mg31 Mg35 3.216265 1_555
Mg32 Mg46 3.154044 1_565
Mg32 Mg54 3.168794 1_555
Mg32 Mg38 3.196511 1_555
Mg32 Mg40 3.200414 1_565
Mg32 Mg63 3.206878 1_555
Mg32 Mg57 3.209202 1_555
Mg32 Mg35 3.216296 1_555
Mg33 Mg43 3.179393 1_555
Mg33 Mg41 3.179394 1_555
Mg33 Mg37 3.183079 1_555
Mg33 Mg36 3.183086 1_555
Mg33 Mg60 3.192603 1_555
Mg33 Mg59 3.192603 1_555
Mg33 Mg66 3.198255 1_555
Mg34 Mg44 3.179401 1_455
Mg34 Mg42 3.179409 1_455
Mg34 Mg38 3.183070 1_555
Mg34 Mg36 3.183078 1_555
Mg34 Mg61 3.192603 1_555
Mg34 Mg58 3.192611 1_555
Mg34 Mg65 3.198246 1_555
Mg35 Mg39 3.179401 1_565
Mg35 Mg40 3.179410 1_565
Mg35 Mg38 3.183078 1_555
Mg35 Mg37 3.183079 1_555
Mg35 Mg56 3.192603 1_555
Mg35 Mg57 3.192603 1_555
Mg35 Mg67 3.198247 1_555
Mg36 Mg62 3.188449 1_555
Mg36 Mg38 3.200193 1_555
Mg36 Mg37 3.200199 1_555
Mg36 Mg66 3.201214 1_555
Mg36 Mg65 3.201215 1_555
Mg36 Mg9 3.202444 1_555
Mg37 Mg64 3.188440 1_555
Mg37 Mg38 3.200208 1_555
Mg37 Mg66 3.201215 1_555
Mg37 Mg67 3.201223 1_555
Mg38 Mg63 3.188457 1_555
Mg38 Mg67 3.201214 1_555
Mg38 Mg65 3.201215 1_555
Mg39 Mg40 3.164141 1_555
Mg39 Mg47 3.165070 1_555
Mg39 Mg45 3.169623 1_555
Mg39 Mg42 3.175116 1_555
Mg39 Mg8 3.182834 1_555
Mg39 Mg68 3.185215 1_555
Mg39 Mg56 3.188545 1_545
Mg39 Mg72 3.198487 1_555
Mg39 Mg7 3.202807 1_555
Mg40 Mg46 3.165062 1_555
Mg40 Mg45 3.169630 1_555
Mg40 Mg41 3.175117 1_555
Mg40 Mg8 3.182833 1_555
Mg40 Mg68 3.185222 1_555
Mg40 Mg57 3.188545 1_545
Mg40 Mg71 3.198495 1_555
Mg40 Mg6 3.202799 1_555
Mg41 Mg43 3.164141 1_555
Mg41 Mg46 3.165070 1_555
Mg41 Mg45 3.169638 1_555
Mg41 Mg70 3.185222 1_555
Mg41 Mg59 3.188537 1_555
Mg41 Mg71 3.198487 1_555
Mg41 Mg6 3.202807 1_555
Mg42 Mg44 3.164142 1_555
Mg42 Mg47 3.165063 1_555
Mg42 Mg45 3.169622 1_555
Mg42 Mg69 3.185215 1_555
Mg42 Mg58 3.188545 1_655
Mg42 Mg72 3.198487 1_555
Mg42 Mg7 3.202799 1_555
Mg43 Mg48 3.165070 1_555
Mg43 Mg45 3.169639 1_555
Mg43 Mg44 3.175116 1_555
Mg43 Mg70 3.185215 1_555
Mg43 Mg60 3.188545 1_555
Mg43 Mg73 3.198487 1_555
Mg44 Mg48 3.165063 1_555
Mg44 Mg45 3.169630 1_555
Mg44 Mg69 3.185222 1_555
Mg44 Mg61 3.188545 1_655
Mg44 Mg73 3.198495 1_555
Mg45 Mg8 3.196178 1_555
Mg45 Mg69 3.199763 1_555
Mg45 Mg68 3.199764 1_555
Mg45 Mg70 3.199772 1_555
Mg46 Mg6 3.164818 1_555
Mg46 Mg54 3.167436 1_545
Mg46 Mg51 3.167444 1_555
Mg46 Mg71 3.170100 1_555
Mg46 Mg5 3.196542 1_555
Mg47 Mg7 3.164818 1_555
Mg47 Mg50 3.167427 1_655
Mg47 Mg55 3.167435 1_545
Mg47 Mg72 3.170108 1_555
Mg48 Mg52 3.167427 1_655
Mg48 Mg53 3.167435 1_555
Mg48 Mg73 3.170100 1_555
Mg49 Mg51 3.160996 1_555
Mg49 Mg54 3.160996 1_545
Mg49 Mg53 3.161004 1_445
Mg49 Mg55 3.161004 1_445
Mg49 Mg52 3.161005 1_545
Mg49 Mg50 3.161005 1_555
Mg49 Mg96 3.216665 1_445
Mg49 Mg95 3.216665 1_545
Mg49 Mg74 3.216665 1_555
Mg50 Mg51 3.154393 1_555
Mg50 Mg55 3.167592 1_445
Mg50 Mg62 3.184859 1_555
Mg50 Mg72 3.188789 1_455
Mg50 Mg58 3.190507 1_555
Mg50 Mg74 3.207061 1_555
Mg50 Mg76 3.218091 1_455
Mg50 Mg79 3.221121 1_555
Mg51 Mg54 3.167609 1_545
Mg51 Mg62 3.184860 1_555
Mg51 Mg71 3.188789 1_555
Mg51 Mg59 3.190522 1_555
Mg51 Mg74 3.207045 1_555
Mg51 Mg75 3.218099 1_555
Mg51 Mg80 3.221121 1_555
Mg52 Mg54 3.154393 1_555
Mg52 Mg53 3.167592 1_455
Mg52 Mg63 3.184851 1_555
Mg52 Mg73 3.188781 1_455
Mg52 Mg61 3.190507 1_555
Mg52 Mg95 3.207061 1_555
Mg52 Mg93 3.218091 1_455
Mg52 Mg92 3.221121 1_555
Mg53 Mg55 3.154410 1_555
Mg53 Mg64 3.184867 1_555
Mg53 Mg73 3.188775 1_555
Mg53 Mg60 3.190506 1_555
Mg53 Mg96 3.207061 1_555
Mg53 Mg93 3.218083 1_555
Mg53 Mg91 3.221120 1_555
Mg54 Mg63 3.184845 1_555
Mg54 Mg71 3.188797 1_565
Mg54 Mg57 3.190530 1_555
Mg54 Mg95 3.207045 1_555
Mg54 Mg75 3.218091 1_565
Mg54 Mg97 3.221129 1_555
Mg55 Mg64 3.184859 1_555
Mg55 Mg72 3.188790 1_565
Mg55 Mg56 3.190506 1_555
Mg55 Mg96 3.207053 1_555
Mg55 Mg76 3.218091 1_565
Mg55 Mg98 3.221120 1_555
Mg56 Mg64 3.172613 1_555
Mg56 Mg68 3.178755 1_565
Mg56 Mg72 3.178859 1_565
Mg56 Mg67 3.180843 1_555
Mg56 Mg57 3.197106 1_555
Mg56 Mg98 3.198015 1_555
Mg56 Mg94 3.202101 1_555
Mg56 Mg78 3.202874 1_565
Mg57 Mg63 3.172628 1_555
Mg57 Mg68 3.178753 1_565
Mg57 Mg71 3.178876 1_565
Mg57 Mg67 3.180837 1_555
Mg57 Mg97 3.198014 1_555
Mg57 Mg94 3.202093 1_555
Mg57 Mg77 3.202874 1_565
Mg58 Mg62 3.172612 1_555
Mg58 Mg69 3.178754 1_455
Mg58 Mg72 3.178859 1_455
Mg58 Mg65 3.180843 1_555
Mg58 Mg61 3.197123 1_555
Mg58 Mg79 3.198015 1_555
Mg58 Mg86 3.202101 1_555
Mg58 Mg83 3.202866 1_455
Mg59 Mg62 3.172644 1_555
Mg59 Mg70 3.178746 1_555
Mg59 Mg71 3.178844 1_555
Mg59 Mg66 3.180853 1_555
Mg59 Mg60 3.197114 1_555
Mg59 Mg80 3.198014 1_555
Mg59 Mg85 3.202101 1_555
Mg59 Mg82 3.202866 1_555
Mg60 Mg64 3.172629 1_555
Mg60 Mg70 3.178755 1_555
Mg60 Mg73 3.178851 1_555
Mg60 Mg66 3.180844 1_555
Mg60 Mg91 3.198007 1_555
Mg60 Mg85 3.202101 1_555
Mg60 Mg87 3.202874 1_555
Mg61 Mg63 3.172620 1_555
Mg61 Mg69 3.178761 1_455
Mg61 Mg73 3.178867 1_455
Mg61 Mg65 3.180844 1_555
Mg61 Mg92 3.198015 1_555
Mg61 Mg86 3.202093 1_555
Mg61 Mg88 3.202866 1_455
Mg62 Mg65 3.181479 1_555
Mg62 Mg66 3.181486 1_555
Mg62 Mg84 3.194564 1_555
Mg62 Mg79 3.199039 1_555
Mg62 Mg80 3.199055 1_555
Mg63 Mg67 3.181494 1_555
Mg63 Mg65 3.181495 1_555
Mg63 Mg89 3.194580 1_555
Mg63 Mg92 3.199039 1_555
Mg63 Mg97 3.199039 1_555
Mg64 Mg67 3.181478 1_555
Mg64 Mg66 3.181486 1_555
Mg64 Mg90 3.194572 1_555
Mg64 Mg98 3.199039 1_555
Mg64 Mg91 3.199055 1_555
Mg65 Mg67 3.180712 1_555
Mg65 Mg66 3.180712 1_555
Mg65 Mg89 3.196095 1_555
Mg65 Mg84 3.196103 1_555
Mg65 Mg86 3.196193 1_555
Mg66 Mg67 3.180713 1_555
Mg66 Mg84 3.196094 1_555
Mg66 Mg90 3.196095 1_555
Mg66 Mg85 3.196185 1_555
Mg67 Mg89 3.196094 1_555
Mg67 Mg90 3.196095 1_555
Mg67 Mg94 3.196185 1_555
Mg68 Mg78 3.183156 1_555
Mg68 Mg77 3.183163 1_555
Mg68 Mg72 3.184248 1_555
Mg68 Mg71 3.184279 1_555
Mg68 Mg81 3.193868 1_555
Mg68 Mg69 3.197334 1_555
Mg68 Mg70 3.197351 1_555
Mg69 Mg83 3.183163 1_555
Mg69 Mg88 3.183171 1_555
Mg69 Mg72 3.184249 1_555
Mg69 Mg73 3.184281 1_555
Mg69 Mg81 3.193867 1_555
Mg69 Mg70 3.197342 1_555
Mg70 Mg87 3.183155 1_555
Mg70 Mg82 3.183163 1_555
Mg70 Mg73 3.184255 1_555
Mg70 Mg71 3.184271 1_555
Mg70 Mg81 3.193876 1_555
Mg71 Mg75 3.188330 1_555
Mg71 Mg82 3.189762 1_555
Mg71 Mg77 3.189770 1_555
Mg72 Mg76 3.188330 1_555
Mg72 Mg78 3.189761 1_555
Mg72 Mg83 3.189762 1_555
Mg73 Mg93 3.188330 1_555
Mg73 Mg87 3.189761 1_555
Mg73 Mg88 3.189770 1_555
Mg74 Mg80 3.170112 1_555
Mg74 Mg79 3.170113 1_555
Mg74 Mg75 3.173734 1_555
Mg74 Mg76 3.173758 1_455
Mg74 Mg95 3.182859 1_545
Mg74 Mg96 3.182865 1_445
Mg75 Mg80 3.172799 1_555
Mg75 Mg97 3.172799 1_545
Mg75 Mg95 3.173726 1_545
Mg75 Mg99 3.188330 1_555
Mg75 Mg77 3.189678 1_555
Mg75 Mg82 3.189686 1_555
Mg76 Mg98 3.172798 1_545
Mg76 Mg79 3.172798 1_655
Mg76 Mg96 3.173743 1_545
Mg76 Mg83 3.189663 1_555
Mg76 Mg78 3.189670 1_555
Mg77 Mg78 3.173163 1_555
Mg77 Mg94 3.175711 1_545
Mg77 Mg81 3.177195 1_555
Mg77 Mg82 3.181227 1_555
Mg77 Mg97 3.184071 1_545
Mg77 Mg99 3.189770 1_555
Mg78 Mg94 3.175710 1_545
Mg78 Mg81 3.177188 1_555
Mg78 Mg83 3.181233 1_555
Mg78 Mg98 3.184081 1_545
Mg79 Mg80 3.177496 1_555
Mg79 Mg84 3.181202 1_555
Mg79 Mg83 3.184064 1_455
Mg79 Mg86 3.188465 1_555
Mg80 Mg84 3.181203 1_555
Mg80 Mg82 3.184064 1_555
Mg80 Mg85 3.188447 1_555
Mg81 Mg83 3.177203 1_555
Mg81 Mg82 3.177203 1_555
Mg81 Mg87 3.177204 1_555
Mg81 Mg88 3.177211 1_555
Mg82 Mg87 3.173162 1_555
Mg82 Mg85 3.175711 1_555
Mg82 Mg99 3.189762 1_555
Mg83 Mg88 3.173180 1_555
Mg83 Mg86 3.175694 1_655
Mg84 Mg85 3.183666 1_555
Mg84 Mg86 3.183698 1_555
Mg84 Mg90 3.191980 1_555
Mg84 Mg89 3.191990 1_555
Mg85 Mg87 3.175710 1_555
Mg85 Mg90 3.183676 1_555
Mg85 Mg91 3.188447 1_555
Mg86 Mg88 3.175686 1_455
Mg86 Mg89 3.183682 1_555
Mg86 Mg92 3.188449 1_555
Mg87 Mg88 3.181233 1_555
Mg87 Mg91 3.184065 1_555
Mg87 Mg93 3.189678 1_555
Mg88 Mg92 3.184064 1_655
Mg88 Mg93 3.189679 1_555
Mg89 Mg97 3.181203 1_555
Mg89 Mg92 3.181210 1_555
Mg89 Mg94 3.183674 1_555
Mg89 Mg90 3.191973 1_555
Mg90 Mg98 3.181210 1_555
Mg90 Mg91 3.181218 1_555
Mg90 Mg94 3.183676 1_555
Mg91 Mg96 3.170120 1_555
Mg91 Mg93 3.172782 1_555
Mg91 Mg98 3.177497 1_555
Mg92 Mg95 3.170113 1_555
Mg92 Mg93 3.172806 1_455
Mg92 Mg97 3.177488 1_555
Mg93 Mg96 3.173744 1_555
Mg93 Mg95 3.173750 1_655
Mg94 Mg97 3.188440 1_555
Mg94 Mg98 3.188456 1_555
Mg95 Mg97 3.170120 1_555
Mg95 Mg96 3.182873 1_455
Mg96 Mg98 3.170104 1_555
Mg100 Mg125 3.170108 1_555
Mg100 Mg113 3.178859 1_655
Mg100 Mg111 3.178859 1_545
Mg100 Mg102 3.184248 1_555
Mg100 Mg103 3.184249 1_555
Mg100 Mg76 3.188330 1_555
Mg100 Mg117 3.188789 1_655
Mg100 Mg122 3.188790 1_545
Mg100 Mg78 3.189761 1_555
Mg100 Mg83 3.189762 1_555
Mg100 Mg128 3.198474 1_555
Mg100 Mg131 3.198474 1_555
Mg101 Mg126 3.170100 1_555
Mg101 Mg115 3.178851 1_555
Mg101 Mg116 3.178867 1_655
Mg101 Mg104 3.184255 1_555
Mg101 Mg103 3.184281 1_555
Mg101 Mg93 3.188330 1_555
Mg101 Mg120 3.188775 1_555
Mg101 Mg119 3.188781 1_655
Mg101 Mg87 3.189761 1_555
Mg101 Mg88 3.189770 1_555
Mg101 Mg132 3.198474 1_555
Mg101 Mg133 3.198483 1_555
Mg102 Mg112 3.178753 1_545
Mg102 Mg111 3.178755 1_545
Mg102 Mg78 3.183156 1_555
Mg102 Mg77 3.183163 1_555
Mg102 Mg99 3.184279 1_555
Mg102 Mg128 3.185202 1_555
Mg102 Mg129 3.185209 1_555
Mg102 Mg81 3.193868 1_555
Mg102 Mg103 3.197334 1_555
Mg102 Mg104 3.197351 1_555
Mg102 Mg127 3.199751 1_555
Mg103 Mg113 3.178754 1_655
Mg103 Mg116 3.178761 1_655
Mg103 Mg83 3.183163 1_555
Mg103 Mg88 3.183171 1_555
Mg103 Mg131 3.185202 1_555
Mg103 Mg133 3.185210 1_555
Mg103 Mg81 3.193867 1_555
Mg103 Mg104 3.197342 1_555
Mg103 Mg127 3.199750 1_555
Mg104 Mg114 3.178746 1_555
Mg104 Mg115 3.178755 1_555
Mg104 Mg87 3.183155 1_555
Mg104 Mg82 3.183163 1_555
Mg104 Mg99 3.184271 1_555
Mg104 Mg132 3.185202 1_555
Mg104 Mg130 3.185209 1_555
Mg104 Mg81 3.193876 1_555
Mg104 Mg127 3.199759 1_555
Mg105 Mg107 3.180712 1_555
Mg105 Mg106 3.180712 1_555
Mg105 Mg113 3.180843 1_555
Mg105 Mg116 3.180844 1_555
Mg105 Mg108 3.181479 1_555
Mg105 Mg109 3.181495 1_555
Mg105 Mg89 3.196095 1_555
Mg105 Mg84 3.196103 1_555
Mg105 Mg86 3.196193 1_555
Mg105 Mg138 3.198246 1_555
Mg105 Mg134 3.201215 1_555
Mg105 Mg136 3.201215 1_555
Mg106 Mg107 3.180713 1_555
Mg106 Mg115 3.180844 1_555
Mg106 Mg114 3.180853 1_555
Mg106 Mg110 3.181486 1_555
Mg106 Mg108 3.181486 1_555
Mg106 Mg84 3.196094 1_555
Mg106 Mg90 3.196095 1_555
Mg106 Mg85 3.196185 1_555
Mg106 Mg137 3.198255 1_555
Mg106 Mg134 3.201214 1_555
Mg106 Mg135 3.201215 1_555
Mg107 Mg112 3.180837 1_555
Mg107 Mg111 3.180843 1_555
Mg107 Mg110 3.181478 1_555
Mg107 Mg109 3.181494 1_555
Mg107 Mg89 3.196094 1_555
Mg107 Mg90 3.196095 1_555
Mg107 Mg94 3.196185 1_555
Mg107 Mg139 3.198247 1_555
Mg107 Mg136 3.201214 1_555
Mg107 Mg135 3.201223 1_555
Mg108 Mg113 3.172612 1_555
Mg108 Mg114 3.172644 1_555
Mg108 Mg117 3.184859 1_555
Mg108 Mg118 3.184860 1_555
Mg108 Mg134 3.188449 1_555
Mg108 Mg84 3.194564 1_555
Mg108 Mg79 3.199039 1_555
Mg108 Mg80 3.199055 1_555
Mg108 Mg140 3.206890 1_555
Mg108 Mg141 3.206891 1_555
Mg109 Mg116 3.172620 1_555
Mg109 Mg112 3.172628 1_555
Mg109 Mg121 3.184845 1_555
Mg109 Mg119 3.184851 1_555
Mg109 Mg136 3.188457 1_555
Mg109 Mg89 3.194580 1_555
Mg109 Mg92 3.199039 1_555
Mg109 Mg97 3.199039 1_555
Mg109 Mg143 3.206890 1_555
Mg109 Mg145 3.206891 1_555
Mg110 Mg111 3.172613 1_555
Mg110 Mg115 3.172629 1_555
Mg110 Mg122 3.184859 1_555
Mg110 Mg120 3.184867 1_555
Mg110 Mg135 3.188440 1_555
Mg110 Mg90 3.194572 1_555
Mg110 Mg98 3.199039 1_555
Mg110 Mg91 3.199055 1_555
Mg110 Mg144 3.206891 1_555
Mg110 Mg142 3.206891 1_555
Mg111 Mg128 3.188532 1_565
Mg111 Mg122 3.190506 1_555
Mg111 Mg139 3.192603 1_555
Mg111 Mg112 3.197106 1_555
Mg111 Mg98 3.198015 1_555
Mg111 Mg94 3.202101 1_555
Mg111 Mg78 3.202874 1_565
Mg111 Mg144 3.209200 1_555
Mg112 Mg99 3.178876 1_565
Mg112 Mg129 3.188532 1_565
Mg112 Mg121 3.190530 1_555
Mg112 Mg139 3.192603 1_555
Mg112 Mg97 3.198014 1_555
Mg112 Mg94 3.202093 1_555
Mg112 Mg77 3.202874 1_565
Mg112 Mg145 3.209215 1_555
Mg113 Mg131 3.188532 1_455
Mg113 Mg117 3.190507 1_555
Mg113 Mg138 3.192611 1_555
Mg113 Mg116 3.197123 1_555
Mg113 Mg79 3.198015 1_555
Mg113 Mg86 3.202101 1_555
Mg113 Mg83 3.202866 1_455
Mg113 Mg140 3.209208 1_555
Mg114 Mg99 3.178844 1_555
Mg114 Mg130 3.188525 1_555
Mg114 Mg118 3.190522 1_555
Mg114 Mg137 3.192603 1_555
Mg114 Mg115 3.197114 1_555
Mg114 Mg80 3.198014 1_555
Mg114 Mg85 3.202101 1_555
Mg114 Mg82 3.202866 1_555
Mg114 Mg141 3.209215 1_555
Mg115 Mg132 3.188533 1_555
Mg115 Mg120 3.190506 1_555
Mg115 Mg137 3.192603 1_555
Mg115 Mg91 3.198007 1_555
Mg115 Mg85 3.202101 1_555
Mg115 Mg87 3.202874 1_555
Mg115 Mg142 3.209207 1_555
Mg116 Mg133 3.188532 1_455
Mg116 Mg119 3.190507 1_555
Mg116 Mg138 3.192603 1_555
Mg116 Mg92 3.198015 1_555
Mg116 Mg86 3.202093 1_555
Mg116 Mg88 3.202866 1_455
Mg116 Mg143 3.209207 1_555
Mg117 Mg118 3.154393 1_555
Mg117 Mg123 3.161005 1_555
Mg117 Mg125 3.167427 1_455
Mg117 Mg122 3.167592 1_445
Mg117 Mg140 3.168806 1_555
Mg117 Mg74 3.207061 1_555
Mg117 Mg76 3.218091 1_455
Mg117 Mg79 3.221121 1_555
Mg117 Mg146 3.302475 1_555
Mg118 Mg123 3.160996 1_555
Mg118 Mg124 3.167444 1_555
Mg118 Mg121 3.167609 1_545
Mg118 Mg141 3.168814 1_555
Mg118 Mg99 3.188789 1_555
Mg118 Mg74 3.207045 1_555
Mg118 Mg75 3.218099 1_555
Mg118 Mg80 3.221121 1_555
Mg118 Mg146 3.302467 1_555
Mg119 Mg121 3.154393 1_555
Mg119 Mg123 3.161005 1_565
Mg119 Mg126 3.167427 1_455
Mg119 Mg120 3.167592 1_455
Mg119 Mg143 3.168807 1_555
Mg119 Mg95 3.207061 1_555
Mg119 Mg93 3.218091 1_455
Mg119 Mg92 3.221121 1_555
Mg119 Mg147 3.302475 1_555
Mg120 Mg122 3.154410 1_555
Mg120 Mg123 3.161004 1_665
Mg120 Mg126 3.167435 1_555
Mg120 Mg142 3.168814 1_555
Mg120 Mg96 3.207061 1_555
Mg120 Mg93 3.218083 1_555
Mg120 Mg91 3.221120 1_555
Mg120 Mg148 3.302475 1_555
Mg121 Mg123 3.160996 1_565
Mg121 Mg124 3.167436 1_565
Mg121 Mg145 3.168807 1_555
Mg121 Mg99 3.188797 1_565
Mg121 Mg95 3.207045 1_555
Mg121 Mg75 3.218091 1_565
Mg121 Mg97 3.221129 1_555
Mg121 Mg147 3.302467 1_555
Mg122 Mg123 3.161004 1_665
Mg122 Mg125 3.167435 1_565
Mg122 Mg144 3.168814 1_555
Mg122 Mg96 3.207053 1_555
Mg122 Mg76 3.218091 1_565
Mg122 Mg98 3.221120 1_555
Mg122 Mg148 3.302475 1_555
Mg123 Mg96 3.216665 1_445
Mg123 Mg95 3.216665 1_545
Mg123 Mg74 3.216665 1_555
Mg123 Mg148 3.240922 1_445
Mg123 Mg146 3.240923 1_555
Mg123 Mg147 3.240923 1_545
Mg124 Mg145 3.154044 1_545
Mg124 Mg141 3.154076 1_555
Mg124 Mg6 3.164818 1_556
Mg124 Mg129 3.165062 1_555
Mg124 Mg130 3.165070 1_555
Mg124 Mg99 3.170100 1_555
Mg124 Mg3 3.196534 1_556
Mg124 Mg5 3.196542 1_556
Mg124 Mg147 3.208385 1_545
Mg124 Mg146 3.208393 1_555
Mg125 Mg140 3.154043 1_655
Mg125 Mg144 3.154066 1_545
Mg125 Mg7 3.164818 1_556
Mg125 Mg131 3.165063 1_555
Mg125 Mg128 3.165070 1_555
Mg125 Mg4 3.196534 1_556
Mg125 Mg2 3.196542 1_556
Mg125 Mg146 3.208385 1_655
Mg125 Mg148 3.208394 1_545
Mg126 Mg143 3.154043 1_655
Mg126 Mg142 3.154075 1_555
Mg126 Mg18 3.164818 1_556
Mg126 Mg133 3.165063 1_555
Mg126 Mg132 3.165070 1_555
Mg126 Mg22 3.196534 1_556
Mg126 Mg23 3.196542 1_556
Mg126 Mg147 3.208385 1_655
Mg126 Mg148 3.208394 1_555
Mg127 Mg131 3.169622 1_555
Mg127 Mg128 3.169623 1_555
Mg127 Mg133 3.169630 1_555
Mg127 Mg129 3.169630 1_555
Mg127 Mg130 3.169638 1_555
Mg127 Mg132 3.169639 1_555
Mg127 Mg8 3.196191 1_556
Mg127 Mg13 3.196199 1_556
Mg128 Mg129 3.164141 1_555
Mg128 Mg131 3.175116 1_555
Mg128 Mg139 3.179401 1_545
Mg128 Mg8 3.182847 1_556
Mg128 Mg144 3.200407 1_545
Mg128 Mg7 3.202819 1_556
Mg129 Mg130 3.175117 1_555
Mg129 Mg139 3.179410 1_545
Mg129 Mg8 3.182846 1_556
Mg129 Mg99 3.198483 1_555
Mg129 Mg145 3.200414 1_545
Mg129 Mg6 3.202812 1_556
Mg130 Mg132 3.164141 1_555
Mg130 Mg137 3.179394 1_555
Mg130 Mg99 3.198474 1_555
Mg130 Mg141 3.200422 1_555
Mg130 Mg6 3.202820 1_556
Mg131 Mg133 3.164142 1_555
Mg131 Mg138 3.179409 1_655
Mg131 Mg140 3.200414 1_655
Mg131 Mg7 3.202812 1_556
Mg132 Mg133 3.175116 1_555
Mg132 Mg137 3.179393 1_555
Mg132 Mg17 3.193792 1_556
Mg132 Mg142 3.200423 1_555
Mg132 Mg18 3.202819 1_556
Mg133 Mg138 3.179401 1_655
Mg133 Mg16 3.193784 1_556
Mg133 Mg143 3.200414 1_655
Mg133 Mg18 3.202812 1_556
Mg134 Mg138 3.183078 1_555
Mg134 Mg137 3.183086 1_555
Mg134 Mg14 3.186331 1_556
Mg134 Mg15 3.186340 1_556
Mg134 Mg141 3.196495 1_555
Mg134 Mg140 3.196510 1_555
Mg134 Mg136 3.200193 1_555
Mg134 Mg135 3.200199 1_555
Mg134 Mg9 3.202444 1_556
Mg135 Mg137 3.183079 1_555
Mg135 Mg139 3.183079 1_555
Mg135 Mg14 3.186340 1_556
Mg135 Mg19 3.186348 1_556
Mg135 Mg142 3.196478 1_555
Mg135 Mg144 3.196494 1_555
Mg135 Mg136 3.200208 1_555
Mg135 Mg21 3.202444 1_556
Mg136 Mg138 3.183070 1_555
Mg136 Mg139 3.183078 1_555
Mg136 Mg19 3.186331 1_556
Mg136 Mg15 3.186332 1_556
Mg136 Mg143 3.196510 1_555
Mg136 Mg145 3.196511 1_555
Mg136 Mg20 3.202444 1_556
Mg137 Mg14 3.182743 1_556
Mg137 Mg17 3.201123 1_556
Mg137 Mg142 3.216280 1_555
Mg137 Mg141 3.216280 1_555
Mg138 Mg15 3.182735 1_556
Mg138 Mg16 3.201123 1_456
Mg138 Mg143 3.216282 1_555
Mg138 Mg140 3.216298 1_555
Mg139 Mg19 3.182735 1_556
Mg139 Mg144 3.216265 1_555
Mg139 Mg145 3.216296 1_555
Mg140 Mg141 3.160513 1_555
Mg140 Mg9 3.166301 1_556
Mg140 Mg146 3.223090 1_555
Mg140 Mg4 3.245632 1_456
Mg141 Mg9 3.166286 1_556
Mg141 Mg146 3.223097 1_555
Mg141 Mg5 3.245640 1_556
Mg142 Mg144 3.160522 1_555
Mg142 Mg21 3.166286 1_556
Mg142 Mg17 3.172757 1_556
Mg142 Mg148 3.223097 1_555
Mg142 Mg23 3.245640 1_556
Mg143 Mg145 3.160521 1_555
Mg143 Mg20 3.166301 1_556
Mg143 Mg16 3.172765 1_456
Mg143 Mg147 3.223090 1_555
Mg143 Mg22 3.245632 1_456
Mg144 Mg21 3.166294 1_556
Mg144 Mg148 3.223105 1_555
Mg144 Mg2 3.245640 1_566
Mg145 Mg20 3.166294 1_556
Mg145 Mg147 3.223089 1_555
Mg145 Mg3 3.245632 1_566
Mg146 Rh0 3.018202 1_556
Mg146 Mg5 3.019846 1_556
Mg146 Mg4 3.019846 1_456
Mg146 Mg148 3.026788 1_445
Mg146 Mg147 3.026789 1_545
Mg147 Rh0 3.018202 1_566
Mg147 Mg3 3.019846 1_566
Mg147 Mg22 3.019846 1_456
Mg147 Mg148 3.026788 1_455
Mg148 Rh0 3.018202 1_666
Mg148 Mg23 3.019846 1_556
Mg148 Mg2 3.019846 1_566
