# generated using pymatgen
data_Tl2CuSe2
_symmetry_space_group_name_H-M   'P 1'
_cell_length_a   4.39260400
_cell_length_b   4.39260400
_cell_length_c   14.37374700
_cell_angle_alpha   90.00000000
_cell_angle_beta   90.00000000
_cell_angle_gamma   90.00000000
_symmetry_Int_Tables_number   1
_chemical_formula_structural   Tl2CuSe2
_chemical_formula_sum   'Tl2 Cu1 Se2'
_cell_volume   277.34101573
_cell_formula_units_Z   1
loop_
 _symmetry_equiv_pos_site_id
 _symmetry_equiv_pos_as_xyz
  1  'x, y, z'
loop_
 _atom_site_type_symbol
 _atom_site_label
 _atom_site_symmetry_multiplicity
 _atom_site_fract_x
 _atom_site_fract_y
 _atom_site_fract_z
 _atom_site_occupancy
  Tl  Tl0  1  0.50000000  0.50000000  0.66212800  1
  Tl  Tl1  1  0.50000000  0.50000000  0.33787200  1
  Cu  Cu0  1  0.50000000  0.50000000  0.00000000  1
  Se  Se0  1  0.50000000  0.50000000  0.15451700  1
  Se  Se1  1  0.50000000  0.50000000  0.84548300  1
loop_
_geom_bond_atom_site_label_1
_geom_bond_atom_site_label_2
_geom_bond_distance
_geom_bond_site_symmetry_2
Cu0 Se0 2.220988 1_555
Cu0 Se1 2.220988 1_554
Se0 Tl1 2.635498 1_555
Se1 Tl0 2.635498 1_555
