# generated using pymatgen
data_CaMg15
_symmetry_space_group_name_H-M   'P 1'
_cell_length_a   6.49521951
_cell_length_b   6.49521951
_cell_length_c   10.33660089
_cell_angle_alpha   90.00000000
_cell_angle_beta   90.00000000
_cell_angle_gamma   119.99999179
_symmetry_Int_Tables_number   1
_chemical_formula_structural   CaMg15
_chemical_formula_sum   'Ca1 Mg15'
_cell_volume   377.65573302
_cell_formula_units_Z   1
loop_
 _symmetry_equiv_pos_site_id
 _symmetry_equiv_pos_as_xyz
  1  'x, y, z'
loop_
 _atom_site_type_symbol
 _atom_site_label
 _atom_site_symmetry_multiplicity
 _atom_site_fract_x
 _atom_site_fract_y
 _atom_site_fract_z
 _atom_site_occupancy
  Ca  Ca0  1  0.66666700  0.33333300  0.00000000  1
  Mg  Mg0  1  0.66666700  0.33333300  0.50000000  1
  Mg  Mg1  1  0.17064853  0.34129806  0.00000000  1
  Mg  Mg2  1  0.16498475  0.32996950  0.50000000  1
  Mg  Mg3  1  0.17064853  0.82935147  0.00000000  1
  Mg  Mg4  1  0.16498475  0.83501525  0.50000000  1
  Mg  Mg5  1  0.65870194  0.82935147  0.00000000  1
  Mg  Mg6  1  0.67003050  0.83501525  0.50000000  1
  Mg  Mg7  1  0.00210091  0.50104996  0.25634397  1
  Mg  Mg8  1  0.00210091  0.50104996  0.74365603  1
  Mg  Mg9  1  0.49895004  0.50104996  0.25634397  1
  Mg  Mg10  1  0.49895004  0.50104996  0.74365603  1
  Mg  Mg11  1  0.49895004  0.99789909  0.25634397  1
  Mg  Mg12  1  0.49895004  0.99789909  0.74365603  1
  Mg  Mg13  1  0.00000000  -0.00000000  0.24433871  1
  Mg  Mg14  1  0.00000000  -0.00000000  0.75566129  1
loop_
_geom_bond_atom_site_label_1
_geom_bond_atom_site_label_2
_geom_bond_distance
_geom_bond_site_symmetry_2
Ca0 Mg5 3.247912 1_545
Ca0 Mg1 3.247912 1_655
Ca0 Mg3 3.247919 1_545
Ca0 Mg3 3.247919 1_655
Ca0 Mg1 3.247925 1_555
Ca0 Mg5 3.247925 1_555
Ca0 Mg10 3.252868 1_554
Ca0 Mg9 3.252868 1_555
Ca0 Mg12 3.252868 1_544
Ca0 Mg8 3.252868 1_654
Ca0 Mg11 3.252868 1_545
Ca0 Mg7 3.252868 1_655
Mg0 Mg9 3.146955 1_555
Mg0 Mg10 3.146955 1_555
Mg0 Mg8 3.146955 1_655
Mg0 Mg12 3.146955 1_545
Mg0 Mg11 3.146955 1_545
Mg0 Mg7 3.146955 1_655
Mg0 Mg2 3.247662 1_655
Mg0 Mg6 3.247662 1_545
Mg0 Mg4 3.247665 1_655
Mg0 Mg4 3.247665 1_545
Mg0 Mg6 3.247668 1_555
Mg0 Mg2 3.247668 1_555
Mg1 Mg3 3.170014 1_555
Mg1 Mg5 3.170014 1_555
Mg1 Mg14 3.172458 1_554
Mg1 Mg13 3.172458 1_555
Mg1 Mg7 3.229882 1_555
Mg1 Mg8 3.229882 1_554
Mg1 Mg10 3.229888 1_554
Mg1 Mg9 3.229888 1_555
Mg1 Mg3 3.325205 1_545
Mg1 Mg5 3.325206 1_445
Mg2 Mg8 3.142118 1_555
Mg2 Mg7 3.142118 1_555
Mg2 Mg9 3.142122 1_555
Mg2 Mg4 3.214837 1_545
Mg2 Mg6 3.214837 1_445
Mg2 Mg4 3.280383 1_555
Mg2 Mg6 3.280383 1_555
Mg3 Mg5 3.170014 1_555
Mg3 Mg8 3.229888 1_554
Mg3 Mg7 3.229888 1_555
Mg3 Mg5 3.325205 1_455
Mg4 Mg7 3.142122 1_555
Mg4 Mg8 3.142122 1_555
Mg4 Mg6 3.214837 1_455
Mg4 Mg6 3.280383 1_555
Mg5 Mg9 3.229888 1_555
Mg6 Mg9 3.142122 1_555
Mg7 Mg9 3.227144 1_555
Mg7 Mg9 3.268075 1_455
Mg10 Mg6 3.142122 1_555
Mg10 Mg2 3.142122 1_555
Mg10 Mg8 3.227144 1_555
Mg10 Mg12 3.227144 1_555
Mg10 Mg5 3.229888 1_556
Mg10 Mg14 3.250002 1_555
Mg10 Mg14 3.250002 1_665
Mg10 Mg12 3.268075 1_545
Mg10 Mg8 3.268075 1_655
Mg11 Mg6 3.142118 1_555
Mg11 Mg4 3.142122 1_555
Mg11 Mg9 3.227144 1_555
Mg11 Mg7 3.227145 1_555
Mg11 Mg5 3.229882 1_555
Mg11 Mg3 3.229888 1_555
Mg11 Mg13 3.249998 1_665
Mg11 Mg13 3.250004 1_565
Mg11 Mg9 3.268075 1_565
Mg11 Mg7 3.268076 1_665
Mg12 Mg6 3.142118 1_555
Mg12 Mg4 3.142122 1_555
Mg12 Mg8 3.227145 1_555
Mg12 Mg5 3.229882 1_556
Mg12 Mg3 3.229888 1_556
Mg12 Mg14 3.249998 1_665
Mg12 Mg14 3.250004 1_565
Mg12 Mg8 3.268076 1_665
Mg13 Mg3 3.172454 1_545
Mg13 Mg5 3.172458 1_445
Mg13 Mg4 3.229358 1_545
Mg13 Mg2 3.229359 1_555
Mg13 Mg6 3.229359 1_445
Mg13 Mg7 3.249998 1_555
Mg13 Mg9 3.250002 1_445
Mg13 Mg9 3.250002 1_555
Mg13 Mg7 3.250004 1_545
Mg14 Mg3 3.172454 1_546
Mg14 Mg5 3.172458 1_446
Mg14 Mg4 3.229358 1_545
Mg14 Mg2 3.229359 1_555
Mg14 Mg6 3.229359 1_445
Mg14 Mg8 3.249998 1_555
Mg14 Mg8 3.250004 1_545
