# generated using pymatgen
data_Li9Mn2Co5O16
_symmetry_space_group_name_H-M   'P 1'
_cell_length_a   3.02238200
_cell_length_b   8.03230458
_cell_length_c   11.99936489
_cell_angle_alpha   90.65908880
_cell_angle_beta   95.23139892
_cell_angle_gamma   90.96472812
_symmetry_Int_Tables_number   1
_chemical_formula_structural   Li9Mn2Co5O16
_chemical_formula_sum   'Li9 Mn2 Co5 O16'
_cell_volume   290.02549943
_cell_formula_units_Z   1
loop_
 _symmetry_equiv_pos_site_id
 _symmetry_equiv_pos_as_xyz
  1  'x, y, z'
loop_
 _atom_site_type_symbol
 _atom_site_label
 _atom_site_symmetry_multiplicity
 _atom_site_fract_x
 _atom_site_fract_y
 _atom_site_fract_z
 _atom_site_occupancy
  Li  Li0  1  0.99716500  0.99862700  0.25083800  1
  Li  Li1  1  0.49824800  0.75599400  0.62074900  1
  Li  Li2  1  0.99971200  0.49985100  0.00054500  1
  Li  Li3  1  0.50110400  0.24629600  0.37762200  1
  Li  Li4  1  0.00230200  0.00175500  0.74936100  1
  Li  Li5  1  0.49978600  0.74824600  0.12669800  1
  Li  Li6  1  0.00049600  0.49991700  0.49948100  1
  Li  Li7  1  0.50119300  0.24958800  0.87463300  1
  Li  Li8  1  0.99952800  0.99954700  0.49939700  1
  Mn  Mn0  1  0.00020900  0.00067200  0.00060500  1
  Mn  Mn1  1  0.00076600  0.49810700  0.74903600  1
  Co  Co0  1  0.49803400  0.75906400  0.37997900  1
  Co  Co1  1  0.49887700  0.25204200  0.12689300  1
  Co  Co2  1  0.49979300  0.74995400  0.87472000  1
  Co  Co3  1  0.00157000  0.50210800  0.25053600  1
  Co  Co4  1  0.50404300  0.23890700  0.61835300  1
  O  O0  1  0.47818100  0.01223900  0.12202700  1
  O  O1  1  0.97725100  0.74871100  0.49041900  1
  O  O2  1  0.47744700  0.51156300  0.87141900  1
  O  O3  1  0.97558600  0.26299700  0.24500100  1
  O  O4  1  0.49445900  0.02393500  0.62665300  1
  O  O5  1  0.97597500  0.75715700  0.99370800  1
  O  O6  1  0.47738400  0.52017000  0.36714400  1
  O  O7  1  0.97653900  0.25793800  0.74326600  1
  O  O8  1  0.50394600  0.97465000  0.37224200  1
  O  O9  1  0.02453900  0.74212800  0.75500800  1
  O  O10  1  0.52377900  0.48868200  0.13299400  1
  O  O11  1  0.01965800  0.25006800  0.50872900  1
  O  O12  1  0.52334200  0.98821200  0.87894400  1
  O  O13  1  0.02395900  0.73731000  0.25741800  1
  O  O14  1  0.51998500  0.48001300  0.62865100  1
  O  O15  1  0.02514800  0.24355700  0.00692600  1
loop_
_geom_bond_atom_site_label_1
_geom_bond_atom_site_label_2
_geom_bond_distance
_geom_bond_site_symmetry_2
Li0 O8 2.028504 1_655
Li0 O13 2.104013 1_655
Li0 O0 2.104505 1_565
Li0 O3 2.127361 1_565
Li0 O8 2.185004 1_555
Li0 O0 2.218754 1_665
Li1 O1 2.115276 1_455
Li1 O4 2.152792 1_565
Li1 O9 2.163507 1_655
Li1 O14 2.221700 1_555
Li1 O1 2.226808 1_555
Li1 O9 2.253225 1_555
Li2 O15 2.063400 1_655
Li2 O5 2.071520 1_554
Li2 O2 2.112712 1_554
Li2 O10 2.142844 1_655
Li2 O2 2.213860 1_654
Li2 O10 2.240291 1_555
Li3 O11 2.116575 1_655
Li3 O3 2.150432 1_455
Li3 O8 2.182340 1_545
Li3 O6 2.206869 1_555
Li3 O11 2.238542 1_555
Li3 O3 2.240890 1_555
Li4 O4 2.039307 1_455
Li4 O7 2.062407 1_455
Li4 O9 2.089295 1_545
Li4 O12 2.114867 1_545
Li4 O4 2.192916 1_555
Li4 O12 2.221304 1_445
Li5 O10 2.089373 1_555
Li5 O0 2.123803 1_565
Li5 O13 2.129000 1_655
Li5 O5 2.145649 1_454
Li5 O13 2.224091 1_555
Li5 O5 2.245225 1_554
Li6 O1 2.004658 1_455
Li6 O11 2.012718 1_555
Li6 O14 2.112700 1_555
Li6 O6 2.145823 1_455
Li6 O14 2.223833 1_455
Li6 O6 2.245208 1_555
Li7 O12 2.102725 1_545
Li7 O2 2.107370 1_555
Li7 O7 2.133997 1_455
Li7 O15 2.139156 1_656
Li7 O7 2.228338 1_555
Li7 O15 2.237929 1_556
Li8 O11 2.013675 1_665
Li8 O1 2.016095 1_555
Li8 O4 2.043140 1_665
Li8 O8 2.043931 1_555
Li8 O8 2.262666 1_655
Li8 O4 2.264634 1_565
Mn0 O15 1.951448 1_555
Mn0 O12 1.956159 1_444
Mn0 O0 1.956246 1_555
Mn0 O5 1.956641 1_444
Mn0 O0 2.245399 1_455
Mn0 O12 2.250328 1_544
Mn1 O7 1.929474 1_455
Mn1 O14 1.955663 1_455
Mn1 O9 1.960404 1_555
Mn1 O2 1.961930 1_555
Mn1 O14 2.233091 1_555
Mn1 O2 2.257338 1_455
Co0 O8 1.735084 1_555
Co0 O1 1.875491 1_555
Co0 O6 1.922782 1_555
Co0 O13 1.961573 1_555
Co0 O1 2.149207 1_455
Co0 O13 2.269305 1_655
Co1 O10 1.901291 1_555
Co1 O0 1.926174 1_555
Co1 O3 1.926825 1_555
Co1 O15 1.935332 1_555
Co1 O3 2.219962 1_455
Co1 O15 2.241830 1_655
Co2 O12 1.913802 1_555
Co2 O2 1.914710 1_555
Co2 O5 1.932302 1_555
Co2 O9 1.936299 1_555
Co2 O5 2.227498 1_455
Co2 O9 2.235947 1_655
Co3 O13 1.889872 1_555
Co3 O6 1.915292 1_555
Co3 O3 1.921032 1_455
Co3 O10 1.925126 1_455
Co3 O6 2.212727 1_455
Co3 O10 2.213639 1_555
Co4 O4 1.730642 1_555
Co4 O11 1.880852 1_555
Co4 O14 1.938664 1_555
Co4 O7 1.976464 1_555
Co4 O11 2.130435 1_655
Co4 O7 2.291410 1_455
