# generated using pymatgen
data_Yb5Mg
_symmetry_space_group_name_H-M   'P 1'
_cell_length_a   19.61532047
_cell_length_b   19.61532047
_cell_length_c   12.17557400
_cell_angle_alpha   90.00000000
_cell_angle_beta   90.00000000
_cell_angle_gamma   157.69760637
_symmetry_Int_Tables_number   1
_chemical_formula_structural   Yb5Mg
_chemical_formula_sum   'Yb40 Mg8'
_cell_volume   1777.81310362
_cell_formula_units_Z   8
loop_
 _symmetry_equiv_pos_site_id
 _symmetry_equiv_pos_as_xyz
  1  'x, y, z'
loop_
 _atom_site_type_symbol
 _atom_site_label
 _atom_site_symmetry_multiplicity
 _atom_site_fract_x
 _atom_site_fract_y
 _atom_site_fract_z
 _atom_site_occupancy
  Yb  Yb0_0  1  0.49919150  0.00080850  0.00000000  1
  Yb  Yb0_1  1  0.49919150  0.00080850  0.50000000  1
  Yb  Yb0_2  1  0.49919150  0.50080850  0.00000000  1
  Yb  Yb0_3  1  0.49919150  0.50080850  0.50000000  1
  Yb  Yb0_4  1  0.99919150  0.00080850  0.00000000  1
  Yb  Yb0_5  1  0.99919150  0.00080850  0.50000000  1
  Yb  Yb0_6  1  0.99919150  0.50080850  0.00000000  1
  Yb  Yb0_7  1  0.99919150  0.50080850  0.50000000  1
  Yb  Yb1_0  1  0.16379300  0.33620700  0.00000000  1
  Yb  Yb1_1  1  0.16379300  0.33620700  0.50000000  1
  Yb  Yb1_2  1  0.16379300  0.83620700  0.00000000  1
  Yb  Yb1_3  1  0.16379300  0.83620700  0.50000000  1
  Yb  Yb1_4  1  0.66379300  0.33620700  0.00000000  1
  Yb  Yb1_5  1  0.66379300  0.33620700  0.50000000  1
  Yb  Yb1_6  1  0.66379300  0.83620700  0.00000000  1
  Yb  Yb1_7  1  0.66379300  0.83620700  0.50000000  1
  Yb  Yb2_0  1  0.33377200  0.16622800  0.00000000  1
  Yb  Yb2_1  1  0.33377200  0.16622800  0.50000000  1
  Yb  Yb2_2  1  0.33377200  0.66622800  0.00000000  1
  Yb  Yb2_3  1  0.33377200  0.66622800  0.50000000  1
  Yb  Yb2_4  1  0.83377200  0.16622800  0.00000000  1
  Yb  Yb2_5  1  0.83377200  0.16622800  0.50000000  1
  Yb  Yb2_6  1  0.83377200  0.66622800  0.00000000  1
  Yb  Yb2_7  1  0.83377200  0.66622800  0.50000000  1
  Yb  Yb3_0  1  0.21902100  0.28097900  0.25000000  1
  Yb  Yb3_1  1  0.21902100  0.28097900  0.75000000  1
  Yb  Yb3_2  1  0.21902100  0.78097900  0.25000000  1
  Yb  Yb3_3  1  0.21902100  0.78097900  0.75000000  1
  Yb  Yb3_4  1  0.71902100  0.28097900  0.25000000  1
  Yb  Yb3_5  1  0.71902100  0.28097900  0.75000000  1
  Yb  Yb3_6  1  0.71902100  0.78097900  0.25000000  1
  Yb  Yb3_7  1  0.71902100  0.78097900  0.75000000  1
  Yb  Yb4_0  1  0.06056150  0.43943850  0.25000000  1
  Yb  Yb4_1  1  0.06056150  0.43943850  0.75000000  1
  Yb  Yb4_2  1  0.06056150  0.93943850  0.25000000  1
  Yb  Yb4_3  1  0.06056150  0.93943850  0.75000000  1
  Yb  Yb4_4  1  0.56056150  0.43943850  0.25000000  1
  Yb  Yb4_5  1  0.56056150  0.43943850  0.75000000  1
  Yb  Yb4_6  1  0.56056150  0.93943850  0.25000000  1
  Yb  Yb4_7  1  0.56056150  0.93943850  0.75000000  1
  Mg  Mg0_0  1  0.39032700  0.10967300  0.25000000  1
  Mg  Mg0_1  1  0.39032700  0.10967300  0.75000000  1
  Mg  Mg0_2  1  0.39032700  0.60967300  0.25000000  1
  Mg  Mg0_3  1  0.39032700  0.60967300  0.75000000  1
  Mg  Mg0_4  1  0.89032700  0.10967300  0.25000000  1
  Mg  Mg0_5  1  0.89032700  0.10967300  0.75000000  1
  Mg  Mg0_6  1  0.89032700  0.60967300  0.25000000  1
  Mg  Mg0_7  1  0.89032700  0.60967300  0.75000000  1
loop_
_geom_bond_atom_site_label_1
_geom_bond_atom_site_label_2
_geom_bond_distance
_geom_bond_site_symmetry_2
Yb0_0 Yb2_2 3.767771 1_545
Yb0_0 Yb2_4 3.767771 1_555
Yb0_0 Yb3_5 3.769831 1_554
Yb0_0 Yb3_3 3.769831 1_544
Yb0_0 Yb3_4 3.769831 1_555
Yb0_0 Yb3_2 3.769831 1_545
Yb0_0 Yb0_6 3.793578 1_555
Yb0_0 Yb0_6 3.793578 1_445
Yb0_0 Yb1_4 3.795008 1_555
Yb0_0 Yb1_2 3.795008 1_545
Yb0_0 Yb4_7 3.852914 1_544
Yb0_0 Yb4_6 3.852914 1_545
Yb0_1 Yb2_3 3.767771 1_545
Yb0_1 Yb2_5 3.767771 1_555
Yb0_1 Yb3_4 3.769831 1_555
Yb0_1 Yb3_2 3.769831 1_545
Yb0_1 Yb3_5 3.769831 1_555
Yb0_1 Yb3_3 3.769831 1_545
Yb0_1 Yb0_7 3.793578 1_555
Yb0_1 Yb0_7 3.793578 1_445
Yb0_1 Yb1_5 3.795008 1_555
Yb0_1 Yb1_3 3.795008 1_545
Yb0_1 Yb4_6 3.852914 1_545
Yb0_1 Yb4_7 3.852914 1_545
Yb0_2 Yb2_6 3.767771 1_555
Yb0_2 Yb2_0 3.767771 1_555
Yb0_2 Yb3_1 3.769831 1_554
Yb0_2 Yb3_7 3.769831 1_554
Yb0_2 Yb3_0 3.769831 1_555
Yb0_2 Yb3_6 3.769831 1_555
Yb0_2 Yb0_4 3.793578 1_565
Yb0_2 Yb0_4 3.793578 1_455
Yb0_2 Yb1_0 3.795008 1_555
Yb0_2 Yb1_6 3.795008 1_555
Yb0_2 Yb4_5 3.852914 1_554
Yb0_2 Yb4_4 3.852914 1_555
Yb0_3 Yb2_7 3.767771 1_555
Yb0_3 Yb2_1 3.767771 1_555
Yb0_3 Yb3_0 3.769831 1_555
Yb0_3 Yb3_6 3.769831 1_555
Yb0_3 Yb3_7 3.769831 1_555
Yb0_3 Yb3_1 3.769831 1_555
Yb0_3 Yb0_5 3.793578 1_565
Yb0_3 Yb0_5 3.793578 1_455
Yb0_3 Yb1_1 3.795008 1_555
Yb0_3 Yb1_7 3.795008 1_555
Yb0_3 Yb4_4 3.852914 1_555
Yb0_3 Yb4_5 3.852914 1_555
Yb0_4 Yb2_0 3.767771 1_655
Yb0_4 Yb2_6 3.767771 1_545
Yb0_4 Yb3_1 3.769831 1_654
Yb0_4 Yb3_7 3.769831 1_544
Yb0_4 Yb3_0 3.769831 1_655
Yb0_4 Yb3_6 3.769831 1_545
Yb0_4 Yb1_0 3.795008 1_655
Yb0_4 Yb1_6 3.795008 1_545
Yb0_4 Yb4_3 3.852914 1_644
Yb0_4 Yb4_2 3.852914 1_645
Yb0_5 Yb2_1 3.767771 1_655
Yb0_5 Yb2_7 3.767771 1_545
Yb0_5 Yb3_0 3.769831 1_655
Yb0_5 Yb3_6 3.769831 1_545
Yb0_5 Yb3_7 3.769831 1_545
Yb0_5 Yb3_1 3.769831 1_655
Yb0_5 Yb1_1 3.795008 1_655
Yb0_5 Yb1_7 3.795008 1_545
Yb0_5 Yb4_2 3.852914 1_645
Yb0_5 Yb4_3 3.852914 1_645
Yb0_6 Yb2_2 3.767771 1_655
Yb0_6 Yb2_4 3.767771 1_555
Yb0_6 Yb3_3 3.769831 1_654
Yb0_6 Yb3_5 3.769831 1_554
Yb0_6 Yb3_2 3.769831 1_655
Yb0_6 Yb3_4 3.769831 1_555
Yb0_6 Yb1_4 3.795008 1_555
Yb0_6 Yb1_2 3.795008 1_655
Yb0_6 Yb4_1 3.852914 1_654
Yb0_6 Yb4_0 3.852914 1_655
Yb0_7 Yb2_3 3.767771 1_655
Yb0_7 Yb2_5 3.767771 1_555
Yb0_7 Yb3_2 3.769831 1_655
Yb0_7 Yb3_4 3.769831 1_555
Yb0_7 Yb3_3 3.769831 1_655
Yb0_7 Yb3_5 3.769831 1_555
Yb0_7 Yb1_5 3.795008 1_555
Yb0_7 Yb1_3 3.795008 1_655
Yb0_7 Yb4_0 3.852914 1_655
Yb0_7 Yb4_1 3.852914 1_655
Yb1_0 Yb2_4 3.617215 1_455
Yb1_0 Yb2_2 3.617215 1_555
Yb1_0 Yb3_1 3.712680 1_554
Yb1_0 Yb3_0 3.712680 1_555
Yb1_0 Yb1_6 3.793578 1_555
Yb1_0 Yb1_6 3.793578 1_445
Yb1_1 Yb2_5 3.617215 1_455
Yb1_1 Yb2_3 3.617215 1_555
Yb1_1 Yb3_0 3.712680 1_555
Yb1_1 Yb3_1 3.712680 1_555
Yb1_1 Yb1_7 3.793578 1_555
Yb1_1 Yb1_7 3.793578 1_445
Yb1_2 Yb2_6 3.617215 1_455
Yb1_2 Yb2_0 3.617215 1_565
Yb1_2 Yb3_3 3.712680 1_554
Yb1_2 Yb3_2 3.712680 1_555
Yb1_2 Yb1_4 3.793578 1_565
Yb1_2 Yb1_4 3.793578 1_455
Yb1_3 Yb2_7 3.617215 1_455
Yb1_3 Yb2_1 3.617215 1_565
Yb1_3 Yb3_2 3.712680 1_555
Yb1_3 Yb3_3 3.712680 1_555
Yb1_3 Yb1_5 3.793578 1_565
Yb1_3 Yb1_5 3.793578 1_455
Yb1_4 Yb2_0 3.617215 1_555
Yb1_4 Yb2_6 3.617215 1_555
Yb1_4 Yb3_5 3.712680 1_554
Yb1_4 Yb3_4 3.712680 1_555
Yb1_5 Yb2_1 3.617215 1_555
Yb1_5 Yb2_7 3.617215 1_555
Yb1_5 Yb3_4 3.712680 1_555
Yb1_5 Yb3_5 3.712680 1_555
Yb1_6 Yb2_2 3.617215 1_555
Yb1_6 Yb2_4 3.617215 1_565
Yb1_6 Yb3_7 3.712680 1_554
Yb1_6 Yb3_6 3.712680 1_555
Yb1_7 Yb2_3 3.617215 1_555
Yb1_7 Yb2_5 3.617215 1_565
Yb1_7 Yb3_6 3.712680 1_555
Yb1_7 Yb3_7 3.712680 1_555
Yb2_0 Yb4_5 3.696107 1_554
Yb2_0 Yb4_4 3.696107 1_555
Yb2_0 Yb4_3 3.696107 1_544
Yb2_0 Yb4_2 3.696107 1_545
Yb2_0 Yb2_6 3.793578 1_555
Yb2_0 Yb2_6 3.793578 1_445
Yb2_1 Yb4_4 3.696107 1_555
Yb2_1 Yb4_2 3.696107 1_545
Yb2_1 Yb4_5 3.696107 1_555
Yb2_1 Yb4_3 3.696107 1_545
Yb2_1 Yb2_7 3.793578 1_555
Yb2_1 Yb2_7 3.793578 1_445
Yb2_2 Yb4_1 3.696107 1_554
Yb2_2 Yb4_7 3.696107 1_554
Yb2_2 Yb4_0 3.696107 1_555
Yb2_2 Yb4_6 3.696107 1_555
Yb2_2 Yb2_4 3.793578 1_565
Yb2_2 Yb2_4 3.793578 1_455
Yb2_3 Yb4_0 3.696107 1_555
Yb2_3 Yb4_6 3.696107 1_555
Yb2_3 Yb4_1 3.696107 1_555
Yb2_3 Yb4_7 3.696107 1_555
Yb2_3 Yb2_5 3.793578 1_565
Yb2_3 Yb2_5 3.793578 1_455
Yb2_4 Yb4_1 3.696107 1_654
Yb2_4 Yb4_0 3.696107 1_655
Yb2_4 Yb4_7 3.696107 1_544
Yb2_4 Yb4_6 3.696107 1_545
Yb2_5 Yb4_0 3.696107 1_655
Yb2_5 Yb4_6 3.696107 1_545
Yb2_5 Yb4_1 3.696107 1_655
Yb2_5 Yb4_7 3.696107 1_545
Yb2_6 Yb4_5 3.696107 1_554
Yb2_6 Yb4_3 3.696107 1_654
Yb2_6 Yb4_4 3.696107 1_555
Yb2_6 Yb4_2 3.696107 1_655
Yb2_7 Yb4_4 3.696107 1_555
Yb2_7 Yb4_2 3.696107 1_655
Yb2_7 Yb4_5 3.696107 1_555
Yb2_7 Yb4_3 3.696107 1_655
Yb3_0 Yb3_6 3.793578 1_555
Yb3_0 Yb3_6 3.793578 1_445
Yb3_0 Yb4_2 4.001512 1_545
Yb3_0 Yb4_4 4.001512 1_555
Yb3_1 Yb3_7 3.793578 1_445
Yb3_1 Yb3_7 3.793578 1_555
Yb3_1 Yb4_3 4.001512 1_545
Yb3_1 Yb4_5 4.001512 1_555
Yb3_2 Yb3_4 3.793578 1_565
Yb3_2 Yb3_4 3.793578 1_455
Yb3_2 Yb4_6 4.001512 1_555
Yb3_2 Yb4_0 4.001512 1_555
Yb3_3 Yb3_5 3.793578 1_565
Yb3_3 Yb3_5 3.793578 1_455
Yb3_3 Yb4_7 4.001512 1_555
Yb3_3 Yb4_1 4.001512 1_555
Yb3_4 Yb4_6 4.001512 1_545
Yb3_4 Yb4_0 4.001512 1_655
Yb3_5 Yb4_7 4.001512 1_545
Yb3_5 Yb4_1 4.001512 1_655
Yb3_6 Yb4_4 4.001512 1_555
Yb3_6 Yb4_2 4.001512 1_655
Yb3_7 Yb4_3 4.001512 1_655
Yb3_7 Yb4_5 4.001512 1_555
Yb4_0 Yb4_6 3.793578 1_555
Yb4_0 Yb4_6 3.793578 1_445
Yb4_1 Yb4_7 3.793578 1_555
Yb4_1 Yb4_7 3.793578 1_445
Yb4_2 Yb4_4 3.793578 1_565
Yb4_2 Yb4_4 3.793578 1_455
Yb4_3 Yb4_5 3.793578 1_455
Yb4_3 Yb4_5 3.793578 1_565
Mg0_0 Yb3_4 3.573825 1_555
Mg0_0 Yb3_2 3.573825 1_545
Mg0_0 Yb4_4 3.608845 1_555
Mg0_0 Yb4_2 3.608845 1_545
Mg0_0 Yb1_3 3.698497 1_545
Mg0_0 Yb1_2 3.698497 1_545
Mg0_0 Yb1_4 3.698497 1_555
Mg0_0 Yb1_5 3.698497 1_555
Mg0_0 Yb2_0 3.742158 1_555
Mg0_0 Yb2_1 3.742158 1_555
Mg0_1 Yb3_5 3.573825 1_555
Mg0_1 Yb3_3 3.573825 1_545
Mg0_1 Yb4_5 3.608845 1_555
Mg0_1 Yb4_3 3.608845 1_545
Mg0_1 Yb1_2 3.698497 1_546
Mg0_1 Yb1_4 3.698497 1_556
Mg0_1 Yb1_5 3.698497 1_555
Mg0_1 Yb1_3 3.698497 1_545
Mg0_1 Yb2_0 3.742158 1_556
Mg0_1 Yb2_1 3.742158 1_555
Mg0_2 Yb3_6 3.573825 1_555
Mg0_2 Yb3_0 3.573825 1_555
Mg0_2 Yb4_0 3.608845 1_555
Mg0_2 Yb4_6 3.608845 1_555
Mg0_2 Yb1_6 3.698497 1_555
Mg0_2 Yb1_7 3.698497 1_555
Mg0_2 Yb1_0 3.698497 1_555
Mg0_2 Yb1_1 3.698497 1_555
Mg0_2 Yb2_2 3.742158 1_555
Mg0_2 Yb2_3 3.742158 1_555
Mg0_3 Yb3_7 3.573825 1_555
Mg0_3 Yb3_1 3.573825 1_555
Mg0_3 Yb4_1 3.608845 1_555
Mg0_3 Yb4_7 3.608845 1_555
Mg0_3 Yb1_6 3.698497 1_556
Mg0_3 Yb1_0 3.698497 1_556
Mg0_3 Yb1_7 3.698497 1_555
Mg0_3 Yb1_1 3.698497 1_555
Mg0_3 Yb2_2 3.742158 1_556
Mg0_3 Yb2_3 3.742158 1_555
Mg0_4 Yb3_0 3.573825 1_655
Mg0_4 Yb3_6 3.573825 1_545
Mg0_4 Yb4_0 3.608845 1_655
Mg0_4 Yb4_6 3.608845 1_545
Mg0_4 Yb1_7 3.698497 1_545
Mg0_4 Yb1_6 3.698497 1_545
Mg0_4 Yb1_1 3.698497 1_655
Mg0_4 Yb1_0 3.698497 1_655
Mg0_4 Yb2_5 3.742158 1_555
Mg0_4 Yb2_4 3.742158 1_555
Mg0_5 Yb3_1 3.573825 1_655
Mg0_5 Yb3_7 3.573825 1_545
Mg0_5 Yb4_1 3.608845 1_655
Mg0_5 Yb4_7 3.608845 1_545
Mg0_5 Yb1_6 3.698497 1_546
Mg0_5 Yb1_0 3.698497 1_656
Mg0_5 Yb1_7 3.698497 1_545
Mg0_5 Yb1_1 3.698497 1_655
Mg0_5 Yb2_4 3.742158 1_556
Mg0_5 Yb2_5 3.742158 1_555
Mg0_6 Yb3_4 3.573825 1_555
Mg0_6 Yb3_2 3.573825 1_655
Mg0_6 Yb4_4 3.608845 1_555
Mg0_6 Yb4_2 3.608845 1_655
Mg0_6 Yb1_2 3.698497 1_655
Mg0_6 Yb1_3 3.698497 1_655
Mg0_6 Yb1_5 3.698497 1_555
Mg0_6 Yb1_4 3.698497 1_555
Mg0_6 Yb2_6 3.742158 1_555
Mg0_6 Yb2_7 3.742158 1_555
Mg0_7 Yb3_3 3.573825 1_655
Mg0_7 Yb3_5 3.573825 1_555
Mg0_7 Yb4_5 3.608845 1_555
Mg0_7 Yb4_3 3.608845 1_655
Mg0_7 Yb1_2 3.698497 1_656
Mg0_7 Yb1_4 3.698497 1_556
Mg0_7 Yb1_3 3.698497 1_655
Mg0_7 Yb1_5 3.698497 1_555
Mg0_7 Yb2_6 3.742158 1_556
Mg0_7 Yb2_7 3.742158 1_555
