# generated using pymatgen
data_Cs2Ca5N4
_symmetry_space_group_name_H-M   'P 1'
_cell_length_a   7.93278416
_cell_length_b   7.93278416
_cell_length_c   17.83193603
_cell_angle_alpha   90.00000000
_cell_angle_beta   90.00000000
_cell_angle_gamma   90.00000000
_symmetry_Int_Tables_number   1
_chemical_formula_structural   Cs2Ca5N4
_chemical_formula_sum   'Cs8 Ca20 N16'
_cell_volume   1122.14705311
_cell_formula_units_Z   4
loop_
 _symmetry_equiv_pos_site_id
 _symmetry_equiv_pos_as_xyz
  1  'x, y, z'
loop_
 _atom_site_type_symbol
 _atom_site_label
 _atom_site_symmetry_multiplicity
 _atom_site_fract_x
 _atom_site_fract_y
 _atom_site_fract_z
 _atom_site_occupancy
  Cs  Cs0  1  0.03424280  0.96575720  0.25000000  1
  Cs  Cs1  1  0.46575720  0.96575720  0.75000000  1
  Cs  Cs2  1  0.03424280  0.53424280  0.75000000  1
  Cs  Cs3  1  0.46575720  0.53424280  0.25000000  1
  Cs  Cs4  1  0.96575720  0.03424280  0.75000000  1
  Cs  Cs5  1  0.53424280  0.03424280  0.25000000  1
  Cs  Cs6  1  0.96575720  0.46575720  0.25000000  1
  Cs  Cs7  1  0.53424280  0.46575720  0.75000000  1
  Ca  Ca0  1  0.75000000  0.75000000  0.41886866  1
  Ca  Ca1  1  0.75000000  0.75000000  0.91886866  1
  Ca  Ca2  1  0.25000000  0.25000000  0.58113134  1
  Ca  Ca3  1  0.25000000  0.25000000  0.08113134  1
  Ca  Ca4  1  0.13481934  0.57957705  0.43746157  1
  Ca  Ca5  1  0.36518066  0.57957705  0.93746157  1
  Ca  Ca6  1  0.13481934  0.92042295  0.93746157  1
  Ca  Ca7  1  0.36518066  0.92042295  0.43746157  1
  Ca  Ca8  1  0.57957705  0.13481934  0.93746157  1
  Ca  Ca9  1  0.92042295  0.13481934  0.43746157  1
  Ca  Ca10  1  0.57957705  0.36518066  0.43746157  1
  Ca  Ca11  1  0.92042295  0.36518066  0.93746157  1
  Ca  Ca12  1  0.86518066  0.42042295  0.56253843  1
  Ca  Ca13  1  0.63481934  0.42042295  0.06253843  1
  Ca  Ca14  1  0.86518066  0.07957705  0.06253843  1
  Ca  Ca15  1  0.63481934  0.07957705  0.56253843  1
  Ca  Ca16  1  0.42042295  0.86518066  0.06253843  1
  Ca  Ca17  1  0.07957705  0.86518066  0.56253843  1
  Ca  Ca18  1  0.42042295  0.63481934  0.56253843  1
  Ca  Ca19  1  0.07957705  0.63481934  0.06253843  1
  N  N0  1  0.63495534  0.05184226  0.42193047  1
  N  N1  1  0.86504466  0.05184226  0.92193047  1
  N  N2  1  0.63495534  0.44815774  0.92193047  1
  N  N3  1  0.86504466  0.44815774  0.42193047  1
  N  N4  1  0.05184226  0.63495534  0.92193047  1
  N  N5  1  0.44815774  0.63495534  0.42193047  1
  N  N6  1  0.05184226  0.86504466  0.42193047  1
  N  N7  1  0.44815774  0.86504466  0.92193047  1
  N  N8  1  0.36504466  0.94815774  0.57806953  1
  N  N9  1  0.13495534  0.94815774  0.07806953  1
  N  N10  1  0.36504466  0.55184226  0.07806953  1
  N  N11  1  0.13495534  0.55184226  0.57806953  1
  N  N12  1  0.94815774  0.36504466  0.07806953  1
  N  N13  1  0.55184226  0.36504466  0.57806953  1
  N  N14  1  0.94815774  0.13495534  0.57806953  1
  N  N15  1  0.55184226  0.13495534  0.07806953  1
loop_
_geom_bond_atom_site_label_1
_geom_bond_atom_site_label_2
_geom_bond_distance
_geom_bond_site_symmetry_2
Cs0 N9 3.171315 1_555
Cs0 N6 3.171315 1_555
Cs1 N7 3.171315 1_555
Cs1 N8 3.171315 1_555
Cs2 N4 3.171315 1_555
Cs2 N11 3.171315 1_555
Cs3 N5 3.171315 1_555
Cs3 N10 3.171315 1_555
Cs4 N14 3.171315 1_555
Cs4 N1 3.171315 1_555
Cs5 N15 3.171315 1_555
Cs5 N0 3.171315 1_555
Cs6 N3 3.171315 1_555
Cs6 N12 3.171315 1_555
Cs7 N2 3.171315 1_555
Cs7 N13 3.171315 1_555
Ca0 N6 2.563055 1_655
Ca0 N0 2.563055 1_565
Ca0 N3 2.563055 1_555
Ca0 N5 2.563055 1_555
Ca1 N4 2.563055 1_655
Ca1 N1 2.563055 1_565
Ca1 N7 2.563055 1_555
Ca1 N2 2.563055 1_555
Ca2 N14 2.563055 1_455
Ca2 N11 2.563055 1_555
Ca2 N13 2.563055 1_555
Ca2 N8 2.563055 1_545
Ca3 N12 2.563055 1_455
Ca3 N15 2.563055 1_555
Ca3 N9 2.563055 1_545
Ca3 N10 2.563055 1_555
Ca4 N6 2.374485 1_555
Ca4 N3 2.396545 1_455
Ca4 N11 2.516947 1_555
Ca4 N5 2.539316 1_555
Ca5 N7 2.374485 1_555
Ca5 N2 2.396545 1_555
Ca5 N10 2.516947 1_556
Ca5 N4 2.539316 1_555
Ca6 N4 2.374485 1_555
Ca6 N1 2.396545 1_465
Ca6 N9 2.516947 1_556
Ca6 N7 2.539316 1_555
Ca7 N5 2.374485 1_555
Ca7 N0 2.396545 1_565
Ca7 N8 2.516947 1_555
Ca7 N6 2.539316 1_555
Ca8 N1 2.374485 1_555
Ca8 N7 2.396545 1_545
Ca8 N15 2.516947 1_556
Ca8 N2 2.539316 1_555
Ca9 N0 2.374485 1_555
Ca9 N6 2.396545 1_645
Ca9 N14 2.516947 1_555
Ca9 N3 2.539316 1_555
Ca10 N3 2.374485 1_555
Ca10 N5 2.396545 1_555
Ca10 N13 2.516947 1_555
Ca10 N0 2.539316 1_555
Ca11 N2 2.374485 1_555
Ca11 N4 2.396545 1_655
Ca11 N12 2.516947 1_556
Ca11 N1 2.539316 1_555
Ca12 N14 2.374485 1_555
Ca12 N11 2.396545 1_655
Ca12 N3 2.516947 1_555
Ca12 N13 2.539316 1_555
Ca13 N15 2.374485 1_555
Ca13 N10 2.396545 1_555
Ca13 N2 2.516947 1_554
Ca13 N12 2.539316 1_555
Ca14 N12 2.374485 1_555
Ca14 N9 2.396545 1_645
Ca14 N1 2.516947 1_554
Ca14 N15 2.539316 1_555
Ca15 N13 2.374485 1_555
Ca15 N8 2.396545 1_545
Ca15 N0 2.516947 1_555
Ca15 N14 2.539316 1_555
Ca16 N9 2.374485 1_555
Ca16 N15 2.396545 1_565
Ca16 N7 2.516947 1_554
Ca16 N10 2.539316 1_555
Ca17 N8 2.374485 1_555
Ca17 N14 2.396545 1_465
Ca17 N6 2.516947 1_555
Ca17 N11 2.539316 1_555
Ca18 N11 2.374485 1_555
Ca18 N13 2.396545 1_555
Ca18 N5 2.516947 1_555
Ca18 N8 2.539316 1_555
Ca19 N10 2.374485 1_555
Ca19 N12 2.396545 1_455
Ca19 N4 2.516947 1_554
Ca19 N9 2.539316 1_555
