# generated using pymatgen
data_Ta(BO)2
_symmetry_space_group_name_H-M   'P 1'
_cell_length_a   8.89636275
_cell_length_b   8.89636275
_cell_length_c   8.89636275
_cell_angle_alpha   134.71265428
_cell_angle_beta   134.71265428
_cell_angle_gamma   65.97699918
_symmetry_Int_Tables_number   1
_chemical_formula_structural   Ta(BO)2
_chemical_formula_sum   'Ta4 B8 O8'
_cell_volume   350.15831978
_cell_formula_units_Z   4
loop_
 _symmetry_equiv_pos_site_id
 _symmetry_equiv_pos_as_xyz
  1  'x, y, z'
loop_
 _atom_site_type_symbol
 _atom_site_label
 _atom_site_symmetry_multiplicity
 _atom_site_fract_x
 _atom_site_fract_y
 _atom_site_fract_z
 _atom_site_occupancy
  Ta  Ta0  1  0.87500000  0.12500000  0.75000000  1
  Ta  Ta1  1  0.37500000  0.12500000  0.25000000  1
  Ta  Ta2  1  0.87500000  0.62500000  0.75000000  1
  Ta  Ta3  1  0.87500000  0.12500000  0.25000000  1
  B  B0  1  0.61813300  0.33449300  0.28364000  1
  B  B1  1  0.05085300  0.33449300  0.71636000  1
  B  B2  1  0.08449300  0.30085300  0.21636000  1
  B  B3  1  0.69914700  0.91550700  0.78364000  1
  B  B4  1  0.13186700  0.91550700  0.21636000  1
  B  B5  1  0.08449300  0.86813300  0.78364000  1
  B  B6  1  0.66550700  0.94914700  0.28364000  1
  B  B7  1  0.66550700  0.38186700  0.71636000  1
  O  O0  1  0.45823600  0.25489100  0.20334500  1
  O  O1  1  0.05154600  0.25489100  0.79665500  1
  O  O2  1  0.00489100  0.30154600  0.29665500  1
  O  O3  1  0.69845400  0.99510900  0.70334500  1
  O  O4  1  0.29176400  0.99510900  0.29665500  1
  O  O5  1  0.00489100  0.70823600  0.70334500  1
  O  O6  1  0.74510900  0.94845400  0.20334500  1
  O  O7  1  0.74510900  0.54176400  0.79665500  1
loop_
_geom_bond_atom_site_label_1
_geom_bond_atom_site_label_2
_geom_bond_distance
_geom_bond_site_symmetry_2
B0 O0 1.309149 1_555
B0 Ta2 2.344122 1_555
B0 Ta3 2.344122 1_555
B1 O1 1.309149 1_555
B1 Ta2 2.344122 1_455
B1 Ta3 2.344122 1_455
B2 O2 1.309149 1_555
B2 Ta0 2.344122 1_454
B2 Ta1 2.344122 1_555
B3 O3 1.309149 1_555
B3 Ta3 2.344122 1_566
B3 Ta2 2.344122 1_555
B4 O4 1.309149 1_555
B4 Ta3 2.344122 1_465
B4 Ta2 2.344122 1_454
B5 O5 1.309149 1_555
B5 Ta1 2.344122 1_566
B5 Ta0 2.344122 1_465
B6 O6 1.309149 1_555
B6 Ta0 2.344122 1_565
B6 Ta1 2.344122 1_565
B7 O7 1.309149 1_555
B7 Ta0 2.344122 1_555
B7 Ta1 2.344122 1_555
O0 Ta1 1.964685 1_555
O1 Ta0 1.964685 1_455
O2 Ta3 1.964685 1_455
O3 Ta0 1.964685 1_565
O4 Ta1 1.964685 1_565
O5 Ta2 1.964685 1_455
O6 Ta3 1.964685 1_565
O7 Ta2 1.964685 1_555
