# generated using pymatgen
data_Sr8SnPb3O16
_symmetry_space_group_name_H-M   'P 1'
_cell_length_a   6.02654100
_cell_length_b   6.02654100
_cell_length_c   12.71750000
_cell_angle_alpha   90.00000000
_cell_angle_beta   90.00000000
_cell_angle_gamma   90.00000000
_symmetry_Int_Tables_number   1
_chemical_formula_structural   Sr8SnPb3O16
_chemical_formula_sum   'Sr8 Sn1 Pb3 O16'
_cell_volume   461.88938053
_cell_formula_units_Z   1
loop_
 _symmetry_equiv_pos_site_id
 _symmetry_equiv_pos_as_xyz
  1  'x, y, z'
loop_
 _atom_site_type_symbol
 _atom_site_label
 _atom_site_symmetry_multiplicity
 _atom_site_fract_x
 _atom_site_fract_y
 _atom_site_fract_z
 _atom_site_occupancy
  Sr  Sr0  1  0.50000000  0.00000000  0.85754000  1
  Sr  Sr1  1  0.00000000  0.50000000  0.85754000  1
  Sr  Sr2  1  0.50000000  0.00000000  0.14246000  1
  Sr  Sr3  1  0.00000000  0.50000000  0.14246000  1
  Sr  Sr4  1  0.00000000  0.00000000  0.64843600  1
  Sr  Sr5  1  0.50000000  0.50000000  0.64498100  1
  Sr  Sr6  1  0.00000000  0.00000000  0.35156400  1
  Sr  Sr7  1  0.50000000  0.50000000  0.35501900  1
  Sn  Sn0  1  0.00000000  0.00000000  0.00000000  1
  Pb  Pb0  1  0.50000000  0.00000000  0.50000000  1
  Pb  Pb1  1  0.00000000  0.50000000  0.50000000  1
  Pb  Pb2  1  0.50000000  0.50000000  0.00000000  1
  O  O0  1  0.00000000  0.00000000  0.83605400  1
  O  O1  1  0.50000000  0.50000000  0.83119900  1
  O  O2  1  0.00000000  0.00000000  0.16394600  1
  O  O3  1  0.50000000  0.50000000  0.16880100  1
  O  O4  1  0.50000000  0.00000000  0.67138900  1
  O  O5  1  0.00000000  0.50000000  0.67138900  1
  O  O6  1  0.50000000  0.00000000  0.32861100  1
  O  O7  1  0.00000000  0.50000000  0.32861100  1
  O  O8  1  0.24388200  0.75611800  0.00000000  1
  O  O9  1  0.75611800  0.24388200  0.00000000  1
  O  O10  1  0.24388200  0.24388200  0.00000000  1
  O  O11  1  0.75611800  0.75611800  0.00000000  1
  O  O12  1  0.25046000  0.25046000  0.50000000  1
  O  O13  1  0.74954000  0.74954000  0.50000000  1
  O  O14  1  0.25046000  0.74954000  0.50000000  1
  O  O15  1  0.74954000  0.25046000  0.50000000  1
loop_
_geom_bond_atom_site_label_1
_geom_bond_atom_site_label_2
_geom_bond_distance
_geom_bond_site_symmetry_2
O0 Sn0 2.084983 1_556
O0 Sr4 2.386032 1_555
O0 Sr0 3.025634 1_455
O0 Sr1 3.025634 1_545
O0 Sr0 3.025634 1_555
O0 Sr1 3.025634 1_555
O1 Pb2 2.146727 1_556
O1 Sr5 2.368227 1_555
O1 Sr1 3.031834 1_555
O1 Sr0 3.031834 1_565
O1 Sr1 3.031834 1_655
O1 Sr0 3.031834 1_555
O2 Sn0 2.084983 1_555
O2 Sr6 2.386032 1_555
O2 Sr3 3.025634 1_555
O2 Sr3 3.025634 1_545
O2 Sr2 3.025634 1_455
O2 Sr2 3.025634 1_555
O3 Pb2 2.146727 1_555
O3 Sr7 2.368227 1_555
O3 Sr2 3.031834 1_565
O3 Sr2 3.031834 1_555
O3 Sr3 3.031834 1_555
O3 Sr3 3.031834 1_655
O4 Pb0 2.179640 1_555
O4 Sr0 2.367375 1_555
O4 Sr4 3.027376 1_555
O4 Sr4 3.027376 1_655
O4 Sr5 3.031928 1_545
O4 Sr5 3.031928 1_555
O5 Pb1 2.179640 1_555
O5 Sr1 2.367375 1_555
O5 Sr4 3.027376 1_555
O5 Sr4 3.027376 1_565
O5 Sr5 3.031928 1_555
O5 Sr5 3.031928 1_455
O6 Pb0 2.179640 1_555
O6 Sr2 2.367375 1_555
O6 Sr6 3.027376 1_655
O6 Sr6 3.027376 1_555
O6 Sr7 3.031928 1_555
O6 Sr7 3.031928 1_545
O7 Pb1 2.179640 1_555
O7 Sr3 2.367375 1_555
O7 Sr6 3.027376 1_565
O7 Sr6 3.027376 1_555
O7 Sr7 3.031928 1_455
O7 Sr7 3.031928 1_555
O8 Sn0 2.078561 1_565
O8 Pb2 2.182847 1_555
O8 Sr2 2.797321 1_565
O8 Sr3 2.797321 1_555
O8 Sr1 2.797321 1_554
O8 Sr0 2.797321 1_564
O9 Sn0 2.078561 1_655
O9 Pb2 2.182847 1_555
O9 Sr2 2.797321 1_555
O9 Sr0 2.797321 1_554
O9 Sr1 2.797321 1_654
O9 Sr3 2.797321 1_655
O10 Sn0 2.078561 1_555
O10 Pb2 2.182847 1_555
O10 Sr0 2.797321 1_554
O10 Sr3 2.797321 1_555
O10 Sr1 2.797321 1_554
O10 Sr2 2.797321 1_555
O11 Sn0 2.078561 1_665
O11 Pb2 2.182847 1_555
O11 Sr2 2.797321 1_565
O11 Sr1 2.797321 1_654
O11 Sr3 2.797321 1_655
O11 Sr0 2.797321 1_564
O12 Pb1 2.130708 1_555
O12 Pb0 2.130708 1_555
O12 Sr7 2.814745 1_555
O12 Sr5 2.814745 1_555
O12 Sr6 2.849590 1_555
O12 Sr4 2.849590 1_555
O13 Pb0 2.130708 1_565
O13 Pb1 2.130708 1_655
O13 Sr7 2.814745 1_555
O13 Sr5 2.814745 1_555
O13 Sr6 2.849590 1_665
O13 Sr4 2.849590 1_665
O14 Pb1 2.130708 1_555
O14 Pb0 2.130708 1_565
O14 Sr7 2.814745 1_555
O14 Sr5 2.814745 1_555
O14 Sr6 2.849590 1_565
O14 Sr4 2.849590 1_565
O15 Pb1 2.130708 1_655
O15 Pb0 2.130708 1_555
O15 Sr7 2.814745 1_555
O15 Sr5 2.814745 1_555
O15 Sr6 2.849590 1_655
O15 Sr4 2.849590 1_655
