# generated using pymatgen
data_KNaCaMg5Si8(O11F)2
_symmetry_space_group_name_H-M   'P 1'
_cell_length_a   5.31987700
_cell_length_b   10.10378806
_cell_length_c   10.39431821
_cell_angle_alpha   60.92946531
_cell_angle_beta   82.94308159
_cell_angle_gamma   75.35928350
_symmetry_Int_Tables_number   1
_chemical_formula_structural   KNaCaMg5Si8(O11F)2
_chemical_formula_sum   'K1 Na1 Ca1 Mg5 Si8 O22 F2'
_cell_volume   472.46391618
_cell_formula_units_Z   1
loop_
 _symmetry_equiv_pos_site_id
 _symmetry_equiv_pos_as_xyz
  1  'x, y, z'
loop_
 _atom_site_type_symbol
 _atom_site_label
 _atom_site_symmetry_multiplicity
 _atom_site_fract_x
 _atom_site_fract_y
 _atom_site_fract_z
 _atom_site_occupancy
  K  K0  1  0.97494600  0.51387500  0.99847100  1
  Na  Na0  1  0.50000000  0.72338900  0.55287900  1
  Ca  Ca0  1  0.50000000  0.27640400  0.44664600  1
  Mg  Mg0  1  0.49982700  0.90935400  0.18192300  1
  Mg  Mg1  1  0.49972700  0.08913100  0.82261200  1
  Mg  Mg2  1  0.00012300  0.81841600  0.36325900  1
  Mg  Mg3  1  0.00005500  0.17755700  0.64509800  1
  Mg  Mg4  1  0.99984100  0.00013800  0.00055100  1
  Si  Si0  1  0.80466400  0.54486300  0.34352000  1
  Si  Si1  1  0.19535600  0.11221500  0.34292500  1
  Si  Si2  1  0.19633400  0.45753300  0.65671800  1
  Si  Si3  1  0.80371000  0.88627500  0.65622400  1
  Si  Si4  1  0.29907800  0.64086400  0.16930800  1
  Si  Si5  1  0.70102200  0.19021100  0.16905500  1
  Si  Si6  1  0.70005100  0.36078600  0.82976700  1
  Si  Si7  1  0.30004400  0.80979300  0.82958000  1
  O  O0  1  0.72864400  0.71372200  0.33531100  1
  O  O1  1  0.27111100  0.95109700  0.33539400  1
  O  O2  1  0.27544100  0.28795000  0.65902800  1
  O  O3  1  0.72438600  0.05305900  0.65912200  1
  O  O4  1  0.59083400  0.53925700  0.23725600  1
  O  O5  1  0.40991700  0.22332100  0.23768200  1
  O  O6  1  0.40714700  0.45631900  0.76589200  1
  O  O7  1  0.59363900  0.77756700  0.76630900  1
  O  O8  1  0.21895400  0.80518400  0.16990600  1
  O  O9  1  0.78102500  0.02504500  0.16984800  1
  O  O10  1  0.78157200  0.19521400  0.82908400  1
  O  O11  1  0.21848300  0.97581400  0.82901200  1
  O  O12  1  0.09694400  0.52466500  0.26101200  1
  O  O13  1  0.90260800  0.21440300  0.26131500  1
  O  O14  1  0.90807200  0.47135500  0.74153500  1
  O  O15  1  0.09152200  0.78719400  0.74180700  1
  O  O16  1  0.79694800  0.38740400  0.49393100  1
  O  O17  1  0.20287200  0.11849000  0.49395700  1
  O  O18  1  0.20074000  0.60797300  0.50232300  1
  O  O19  1  0.79900800  0.88947700  0.50234600  1
  O  O20  1  0.30516300  0.66609500  0.00006700  1
  O  O21  1  0.69647200  0.33391800  0.00008000  1
  F  F0  1  0.71355600  0.90031000  0.99961200  1
  F  F1  1  0.28716400  0.09936000  0.99963600  1
loop_
_geom_bond_atom_site_label_1
_geom_bond_atom_site_label_2
_geom_bond_distance
_geom_bond_site_symmetry_2
K0 O21 2.612857 1_556
K0 O20 2.617159 1_656
K0 O15 2.903102 1_655
K0 O12 2.939430 1_656
K0 O14 2.978141 1_555
K0 O13 3.010773 1_556
K0 O7 3.042939 1_555
K0 O4 3.083695 1_556
K0 O6 3.285354 1_655
K0 O5 3.322880 1_656
Na0 O19 2.431007 1_555
Na0 O18 2.431077 1_555
Na0 O0 2.466175 1_555
Na0 O1 2.468258 1_555
Na0 O6 2.650832 1_555
Na0 O7 2.656852 1_555
Na0 O14 2.905440 1_555
Na0 O15 2.909934 1_555
Ca0 O17 2.368028 1_555
Ca0 O16 2.370014 1_555
Ca0 O3 2.416164 1_555
Ca0 O2 2.417831 1_555
Ca0 O5 2.598621 1_555
Ca0 O4 2.607118 1_555
Ca0 O13 2.858578 1_555
Ca0 O12 2.864787 1_555
Mg0 O1 2.029918 1_555
Mg0 O0 2.031960 1_555
Mg0 O9 2.077307 1_565
Mg0 O8 2.079584 1_555
Mg1 O10 2.075758 1_555
Mg1 O2 2.077927 1_555
Mg1 O11 2.078785 1_545
Mg1 O3 2.081279 1_555
Mg2 O19 1.997651 1_455
Mg2 O18 1.998664 1_555
Mg2 O1 2.111011 1_555
Mg2 O0 2.112617 1_455
Mg2 O8 2.240504 1_555
Mg2 O9 2.241828 1_465
Mg3 O16 2.038004 1_455
Mg3 O17 2.038995 1_555
Mg3 O2 2.108659 1_555
Mg3 O3 2.110945 1_455
Mg3 O10 2.172704 1_455
Mg3 O11 2.172887 1_545
Mg4 O9 2.072189 1_555
Mg4 O8 2.076399 1_645
Mg4 O10 2.085072 1_554
Mg4 O11 2.089080 1_644
O0 Si0 1.612414 1_555
O1 Si1 1.613396 1_565
O2 Si2 1.646668 1_555
O3 Si3 1.644822 1_545
O4 Si4 1.649560 1_555
O4 Si0 1.708607 1_555
O5 Si5 1.648520 1_555
O5 Si1 1.705094 1_555
O6 Si6 1.634517 1_555
O6 Si2 1.684602 1_555
O7 Si7 1.636047 1_555
O7 Si3 1.688081 1_555
O8 Si4 1.609287 1_555
O9 Si5 1.610764 1_555
O10 Si6 1.621965 1_555
O11 Si7 1.620242 1_555
O12 Si4 1.655944 1_555
O12 Si0 1.696131 1_455
O13 Si5 1.656034 1_555
O13 Si1 1.694606 1_655
O14 Si6 1.641271 1_555
O14 Si2 1.681552 1_655
O15 Si7 1.641412 1_555
O15 Si3 1.682940 1_455
O16 Si0 1.605364 1_555
O17 Si1 1.607343 1_555
O18 Si2 1.588941 1_555
O19 Si3 1.587158 1_555
O20 Si4 1.647728 1_555
O20 Si7 1.655495 1_554
O21 Si5 1.645645 1_555
O21 Si6 1.653873 1_554
F0 Mg4 2.031441 1_566
F0 Mg1 2.079626 1_565
F0 Mg0 2.116247 1_556
F1 Mg4 2.025664 1_456
F1 Mg1 2.071144 1_555
F1 Mg0 2.109386 1_546
