# generated using pymatgen
data_NaAlS2O19
_symmetry_space_group_name_H-M   'P 1'
_cell_length_a   8.41640491
_cell_length_b   8.84651700
_cell_length_c   11.60931962
_cell_angle_alpha   112.39621641
_cell_angle_beta   77.55940621
_cell_angle_gamma   90.00000000
_symmetry_Int_Tables_number   1
_chemical_formula_structural   NaAlS2O19
_chemical_formula_sum   'Na2 Al2 S4 O38'
_cell_volume   777.18612078
_cell_formula_units_Z   2
loop_
 _symmetry_equiv_pos_site_id
 _symmetry_equiv_pos_as_xyz
  1  'x, y, z'
loop_
 _atom_site_type_symbol
 _atom_site_label
 _atom_site_symmetry_multiplicity
 _atom_site_fract_x
 _atom_site_fract_y
 _atom_site_fract_z
 _atom_site_occupancy
  Na  Na0  1  0.50000000  0.00000000  0.00000000  1
  Na  Na1  1  0.00000000  0.00000000  0.00000000  1
  Al  Al0  1  0.50000000  0.00000000  0.50000000  1
  Al  Al1  1  0.00000000  0.50000000  0.50000000  1
  S  S0  1  0.97098900  0.10786000  0.75059100  1
  S  S1  1  0.52901100  0.35726900  0.24940900  1
  S  S2  1  0.02901100  0.89214000  0.24940900  1
  S  S3  1  0.47098900  0.64273100  0.75059100  1
  O  O0  1  0.89487900  0.25553700  0.74438900  1
  O  O1  1  0.60512100  0.51114800  0.25561100  1
  O  O2  1  0.10512100  0.74446300  0.25561100  1
  O  O3  1  0.39487900  0.48885200  0.74438900  1
  O  O4  1  0.89051600  0.07979400  0.86661500  1
  O  O5  1  0.60948400  0.21317900  0.13338500  1
  O  O6  1  0.10948400  0.92020600  0.13338500  1
  O  O7  1  0.39051600  0.78682100  0.86661500  1
  O  O8  1  0.94674500  0.97646100  0.63084100  1
  O  O9  1  0.55325500  0.34562100  0.36915900  1
  O  O10  1  0.05325500  0.02353900  0.36915900  1
  O  O11  1  0.44674500  0.65437900  0.63084100  1
  O  O12  1  0.14794200  0.11813200  0.75230800  1
  O  O13  1  0.35205800  0.36582400  0.24769200  1
  O  O14  1  0.85205800  0.88186800  0.24769200  1
  O  O15  1  0.64794200  0.63417600  0.75230800  1
  O  O16  1  0.30179000  0.11643100  0.55563900  1
  O  O17  1  0.19821000  0.56079200  0.44436100  1
  O  O18  1  0.69821000  0.88356900  0.44436100  1
  O  O19  1  0.80179000  0.43920800  0.55563900  1
  O  O20  1  0.49251100  0.00751700  0.71334100  1
  O  O21  1  0.00748900  0.29417600  0.28665900  1
  O  O22  1  0.50748900  0.99248300  0.28665900  1
  O  O23  1  0.99251100  0.70582400  0.71334100  1
  O  O24  1  0.59565800  0.18640200  0.55680200  1
  O  O25  1  0.90434200  0.62960100  0.44319800  1
  O  O26  1  0.40434200  0.81359800  0.44319800  1
  O  O27  1  0.09565800  0.37039900  0.55680200  1
  O  O28  1  0.25000000  0.32568500  0.00000000  1
  O  O29  1  0.75000000  0.67431500  0.00000000  1
  O  O30  1  0.56879600  0.08042900  0.79511500  1
  O  O31  1  0.93120400  0.28531400  0.20488500  1
  O  O32  1  0.43120400  0.91957100  0.20488500  1
  O  O33  1  0.06879600  0.71468600  0.79511500  1
  O  O34  1  0.38148500  0.37611800  0.95262800  1
  O  O35  1  0.11851500  0.42348900  0.04737200  1
  O  O36  1  0.61851500  0.62388200  0.04737200  1
  O  O37  1  0.88148500  0.57651100  0.95262800  1
loop_
_geom_bond_atom_site_label_1
_geom_bond_atom_site_label_2
_geom_bond_distance
_geom_bond_site_symmetry_2
Na0 O7 2.278816 1_544
Na0 O5 2.278816 1_555
Na0 O30 2.682422 1_554
Na0 O32 2.682422 1_545
Na1 O4 2.278816 1_454
Na1 O6 2.278816 1_545
Na1 O33 2.682422 1_544
Na1 O31 2.682422 1_455
Al0 O26 1.789519 1_545
Al0 O24 1.789519 1_555
Al0 O18 1.813791 1_545
Al0 O16 1.813791 1_555
Al0 O20 2.439239 1_555
Al0 O22 2.439239 1_545
Al1 O25 1.789526 1_455
Al1 O27 1.789526 1_555
Al1 O17 1.813791 1_555
Al1 O19 1.813791 1_455
Al1 O21 2.439239 1_555
Al1 O23 2.439239 1_455
O0 S0 1.487891 1_555
O1 S1 1.487891 1_555
O2 S2 1.487891 1_555
O3 S3 1.487891 1_555
O4 S0 1.482044 1_555
O5 S1 1.482044 1_555
O6 S2 1.482044 1_555
O7 S3 1.482044 1_555
O8 S0 1.488740 1_565
O9 S1 1.488737 1_555
O10 S2 1.488740 1_545
O11 S3 1.488737 1_555
O12 S0 1.496029 1_455
O13 S1 1.496029 1_555
O14 S2 1.496029 1_655
O15 S3 1.496029 1_555
O20 O30 1.235118 1_555
O21 O31 1.235118 1_455
O22 O32 1.235118 1_555
O23 O33 1.235118 1_655
O28 O35 1.284868 1_555
O28 O34 1.284872 1_554
O29 O37 1.284868 1_554
O29 O36 1.284872 1_555
