# generated using pymatgen
data_MgCd2(ClO2)6
_symmetry_space_group_name_H-M   'P 1'
_cell_length_a   16.78240452
_cell_length_b   12.98576559
_cell_length_c   11.82406672
_cell_angle_alpha   84.99532144
_cell_angle_beta   50.42782420
_cell_angle_gamma   44.57685436
_symmetry_Int_Tables_number   1
_chemical_formula_structural   MgCd2(ClO2)6
_chemical_formula_sum   'Mg2 Cd4 Cl12 O24'
_cell_volume   1025.39281595
_cell_formula_units_Z   2
loop_
 _symmetry_equiv_pos_site_id
 _symmetry_equiv_pos_as_xyz
  1  'x, y, z'
loop_
 _atom_site_type_symbol
 _atom_site_label
 _atom_site_symmetry_multiplicity
 _atom_site_fract_x
 _atom_site_fract_y
 _atom_site_fract_z
 _atom_site_occupancy
  Mg  Mg0  1  0.16344300  0.83655700  0.83655700  1
  Mg  Mg1  1  0.41344300  0.08655700  0.08655700  1
  Cd  Cd0  1  0.48812900  0.00406000  0.48990900  1
  Cd  Cd1  1  0.01790300  0.48990900  0.00406000  1
  Cd  Cd2  1  0.76009100  0.23209700  0.76187100  1
  Cd  Cd3  1  0.24594000  0.76187100  0.23209700  1
  Cl  Cl0  1  0.25005800  0.13525000  0.84457200  1
  Cl  Cl1  1  0.77012100  0.84457200  0.13525000  1
  Cl  Cl2  1  0.40542800  0.47987900  0.99994200  1
  Cl  Cl3  1  0.11475000  0.99994200  0.47987900  1
  Cl  Cl4  1  0.73219200  0.65089200  0.35435600  1
  Cl  Cl5  1  0.26256100  0.35435600  0.65089200  1
  Cl  Cl6  1  0.89564400  0.98743900  0.51780800  1
  Cl  Cl7  1  0.59910800  0.51780800  0.98743900  1
  Cl  Cl8  1  0.30682000  0.08750600  0.42133200  1
  Cl  Cl9  1  0.18434200  0.42133200  0.08750600  1
  Cl  Cl10  1  0.82866800  0.06565800  0.94318000  1
  Cl  Cl11  1  0.16249400  0.94318000  0.06565800  1
  O  O0  1  0.66214900  0.02137300  0.50459700  1
  O  O1  1  0.81188200  0.50459700  0.02137300  1
  O  O2  1  0.74540300  0.43811800  0.58785100  1
  O  O3  1  0.22862700  0.58785100  0.43811800  1
  O  O4  1  0.92594300  0.07094300  0.93531600  1
  O  O5  1  0.06779700  0.93531600  0.07094300  1
  O  O6  1  0.31468400  0.18220300  0.32405700  1
  O  O7  1  0.17905700  0.32405700  0.18220300  1
  O  O8  1  0.43624100  0.67876500  0.59225100  1
  O  O9  1  0.29274200  0.59225100  0.67876500  1
  O  O10  1  0.65774900  0.95725800  0.81375900  1
  O  O11  1  0.57123500  0.81375900  0.95725800  1
  O  O12  1  0.75309800  0.35038300  0.34150500  1
  O  O13  1  0.55501500  0.34150500  0.35038300  1
  O  O14  1  0.90849500  0.69498500  0.49690200  1
  O  O15  1  0.89961700  0.49690200  0.69498500  1
  O  O16  1  0.59152900  0.16809100  0.57317100  1
  O  O17  1  0.66720900  0.57317100  0.16809100  1
  O  O18  1  0.67682900  0.58279100  0.65847100  1
  O  O19  1  0.08190900  0.65847100  0.58279100  1
  O  O20  1  0.57968600  0.49084600  0.52646700  1
  O  O21  1  0.40300200  0.52646700  0.49084600  1
  O  O22  1  0.72353300  0.84699800  0.67031400  1
  O  O23  1  0.75915400  0.67031400  0.84699800  1
loop_
_geom_bond_atom_site_label_1
_geom_bond_atom_site_label_2
_geom_bond_distance
_geom_bond_site_symmetry_2
Mg0 O5 1.980264 1_556
Mg0 O4 1.980273 1_465
Mg0 O8 2.078829 1_555
Mg0 O9 2.078839 1_555
Mg1 O7 1.980266 1_555
Mg1 O6 1.980275 1_555
Mg1 O11 2.078828 1_544
Mg1 O10 2.078835 1_544
Cd0 Cl5 2.538461 1_555
Cd0 Cl4 2.556496 1_545
Cd0 Cl1 2.556961 1_545
Cd0 Cl0 2.579467 1_555
Cd0 Cl8 3.063223 1_555
Cd1 Cl4 2.538461 1_455
Cd1 Cl5 2.556496 1_554
Cd1 Cl0 2.556961 1_554
Cd1 Cl1 2.579467 1_455
Cd1 Cl9 3.063207 1_555
Cd2 Cl7 2.538461 1_555
Cd2 Cl6 2.556496 1_545
Cd2 Cl3 2.556961 1_645
Cd2 Cl2 2.579467 1_555
Cd2 Cl10 3.063218 1_555
Cd3 Cl6 2.538461 1_455
Cd3 Cl7 2.556496 1_554
Cd3 Cl2 2.556961 1_554
Cd3 Cl3 2.579467 1_555
Cd3 Cl11 3.063212 1_555
Cl8 O6 1.625904 1_555
Cl9 O7 1.625902 1_555
Cl10 O4 1.625895 1_555
Cl11 O5 1.625911 1_555
O0 O16 1.233020 1_555
O1 O17 1.233030 1_555
O10 O22 1.389847 1_555
O11 O23 1.389823 1_555
O12 O20 1.266459 1_555
O13 O21 1.266459 1_555
O14 O22 1.266459 1_555
O15 O23 1.266459 1_555
O18 O2 1.233032 1_555
O19 O3 1.233022 1_555
O20 O8 1.389832 1_555
O21 O9 1.389828 1_555
