# generated using pymatgen
data_Sr2TiMnO6
_symmetry_space_group_name_H-M   'P 1'
_cell_length_a   6.75112613
_cell_length_b   6.75112497
_cell_length_c   11.67620340
_cell_angle_alpha   78.78873052
_cell_angle_beta   78.78873532
_cell_angle_gamma   109.11513127
_symmetry_Int_Tables_number   1
_chemical_formula_structural   Sr2TiMnO6
_chemical_formula_sum   'Sr8 Ti4 Mn4 O24'
_cell_volume   473.72594534
_cell_formula_units_Z   4
loop_
 _symmetry_equiv_pos_site_id
 _symmetry_equiv_pos_as_xyz
  1  'x, y, z'
loop_
 _atom_site_type_symbol
 _atom_site_label
 _atom_site_symmetry_multiplicity
 _atom_site_fract_x
 _atom_site_fract_y
 _atom_site_fract_z
 _atom_site_occupancy
  Sr  Sr0  1  0.74999400  0.24999400  0.50001200  1
  Sr  Sr1  1  0.50000600  0.00000600  0.99998800  1
  Sr  Sr2  1  0.24999400  0.74999400  0.50001200  1
  Sr  Sr3  1  0.00000600  0.50000600  0.99998800  1
  Sr  Sr4  1  0.37500400  0.37500400  0.74999800  1
  Sr  Sr5  1  0.12499700  0.12499600  0.25000200  1
  Sr  Sr6  1  0.87500400  0.87500400  0.74999800  1
  Sr  Sr7  1  0.62499500  0.62499500  0.25000100  1
  Ti  Ti0  1  0.87500000  0.37500000  0.75000000  1
  Ti  Ti1  1  0.62501200  0.12498800  0.25000000  1
  Ti  Ti2  1  0.37500000  0.87500000  0.75000000  1
  Ti  Ti3  1  0.12498900  0.62501200  0.25000000  1
  Mn  Mn0  1  0.50003500  0.50003400  0.99993000  1
  Mn  Mn1  1  0.24996300  0.24996500  0.50007200  1
  Mn  Mn2  1  0.74996200  0.74995900  0.50007800  1
  Mn  Mn3  1  0.00003700  0.00004100  0.99992000  1
  O  O0  1  0.49997200  0.49997200  0.49999000  1
  O  O1  1  0.25002900  0.25002900  0.00001000  1
  O  O2  1  0.00003800  0.00003800  0.49999000  1
  O  O3  1  0.74996200  0.74996200  0.00001000  1
  O  O4  1  0.62499200  0.12499200  0.75000100  1
  O  O5  1  0.37500800  0.87500800  0.24999900  1
  O  O6  1  0.12499200  0.62499200  0.75000100  1
  O  O7  1  0.87500800  0.37500800  0.25000000  1
  O  O8  1  0.81180900  0.56460100  0.62358900  1
  O  O9  1  0.56179200  0.31460000  0.12361100  1
  O  O10  1  0.31180100  0.06462900  0.62357100  1
  O  O11  1  0.06180200  0.81457400  0.12362700  1
  O  O12  1  0.93819400  0.18539300  0.87641100  1
  O  O13  1  0.68819600  0.93543200  0.37637300  1
  O  O14  1  0.43820200  0.68536500  0.87643000  1
  O  O15  1  0.18820600  0.43540600  0.37638900  1
  O  O16  1  0.68536500  0.43820200  0.87643000  1
  O  O17  1  0.43540600  0.18820600  0.37638900  1
  O  O18  1  0.18539300  0.93819400  0.87641000  1
  O  O19  1  0.93543200  0.68819600  0.37637300  1
  O  O20  1  0.06462800  0.31180000  0.62357100  1
  O  O21  1  0.81457400  0.06180200  0.12362700  1
  O  O22  1  0.56460100  0.81180800  0.62358900  1
  O  O23  1  0.31460100  0.56179200  0.12361100  1
loop_
_geom_bond_atom_site_label_1
_geom_bond_atom_site_label_2
_geom_bond_distance
_geom_bond_site_symmetry_2
Mn0 O16 1.921892 1_555
Mn0 O14 1.921900 1_555
Mn0 O9 1.923413 1_556
Mn0 O23 1.923417 1_556
Mn0 O1 1.957167 1_556
Mn0 O3 1.957183 1_556
Mn1 O20 1.921916 1_555
Mn1 O10 1.921931 1_555
Mn1 O15 1.923456 1_555
Mn1 O17 1.923471 1_555
Mn1 O2 1.957179 1_555
Mn1 O0 1.957179 1_555
Mn2 O8 1.922145 1_555
Mn2 O22 1.922165 1_555
Mn2 O19 1.923763 1_555
Mn2 O13 1.923786 1_555
Mn2 O0 1.957692 1_555
Mn2 O2 1.957700 1_665
Mn3 O12 1.922091 1_455
Mn3 O18 1.922130 1_545
Mn3 O21 1.923744 1_456
Mn3 O11 1.923775 1_546
Mn3 O3 1.957688 1_446
Mn3 O1 1.957712 1_556
O0 Sr7 2.749965 1_555
O0 Sr2 2.750066 1_555
O0 Sr0 2.750066 1_555
O0 Sr4 2.750174 1_555
O1 Sr5 2.749998 1_555
O1 Sr1 2.750066 1_554
O1 Sr3 2.750066 1_554
O1 Sr4 2.750218 1_554
O2 Sr5 2.749954 1_555
O2 Sr2 2.750066 1_545
O2 Sr0 2.750066 1_455
O2 Sr6 2.750174 1_445
O3 Sr7 2.749987 1_555
O3 Sr1 2.750066 1_564
O3 Sr3 2.750066 1_654
O3 Sr6 2.750218 1_554
O4 Ti2 1.957379 1_545
O4 Ti0 1.957496 1_555
O4 Sr1 2.749943 1_555
O4 Sr0 2.749965 1_555
O4 Sr4 2.750066 1_555
O4 Sr6 2.750066 1_545
O5 Ti1 1.957379 1_565
O5 Ti3 1.957492 1_555
O5 Sr5 2.750061 1_565
O5 Sr7 2.750066 1_555
O5 Sr1 2.750207 1_564
O5 Sr2 2.750229 1_555
O6 Ti0 1.957379 1_455
O6 Ti2 1.957496 1_555
O6 Sr3 2.749943 1_555
O6 Sr2 2.749965 1_555
O6 Sr6 2.750066 1_455
O6 Sr4 2.750066 1_555
O7 Ti3 1.957379 1_655
O7 Ti1 1.957500 1_555
O7 Sr7 2.750066 1_555
O7 Sr5 2.750072 1_655
O7 Sr3 2.750218 1_654
O7 Sr0 2.750218 1_555
O8 Ti0 1.966431 1_555
O8 Sr0 2.759106 1_555
O8 Sr2 2.759113 1_655
O8 Sr4 2.759309 1_555
O8 Sr6 2.759346 1_555
O9 Ti1 1.966416 1_555
O9 Sr7 2.759145 1_555
O9 Sr5 2.759205 1_555
O9 Sr3 2.759395 1_654
O9 Sr1 2.759410 1_554
O10 Ti2 1.966711 1_545
O10 Sr0 2.759109 1_555
O10 Sr2 2.759113 1_545
O10 Sr6 2.759317 1_445
O10 Sr4 2.759343 1_555
O11 Ti3 1.965968 1_555
O11 Sr5 2.759168 1_565
O11 Sr7 2.759222 1_455
O11 Sr1 2.759382 1_564
O11 Sr3 2.759397 1_554
O12 Ti0 1.966466 1_555
O12 Sr1 2.759129 1_555
O12 Sr3 2.759139 1_655
O12 Sr6 2.759303 1_545
O12 Sr4 2.759348 1_655
O13 Ti1 1.965933 1_565
O13 Sr5 2.759180 1_665
O13 Sr7 2.759226 1_555
O13 Sr0 2.759364 1_565
O13 Sr2 2.759371 1_555
O14 Ti2 1.966754 1_555
O14 Sr3 2.759123 1_555
O14 Sr1 2.759138 1_565
O14 Sr4 2.759308 1_555
O14 Sr6 2.759359 1_555
O15 Ti3 1.966381 1_555
O15 Sr7 2.759163 1_555
O15 Sr5 2.759203 1_555
O15 Sr2 2.759377 1_555
O15 Sr0 2.759384 1_455
O16 Ti0 1.966754 1_555
O16 Sr1 2.759123 1_555
O16 Sr3 2.759139 1_655
O16 Sr4 2.759308 1_555
O16 Sr6 2.759359 1_555
O17 Ti1 1.966385 1_555
O17 Sr7 2.759162 1_555
O17 Sr5 2.759198 1_555
O17 Sr0 2.759377 1_555
O17 Sr2 2.759384 1_545
O18 Ti2 1.966459 1_555
O18 Sr3 2.759131 1_555
O18 Sr1 2.759147 1_565
O18 Sr6 2.759294 1_455
O18 Sr4 2.759345 1_565
O19 Ti3 1.965937 1_655
O19 Sr5 2.759174 1_665
O19 Sr7 2.759226 1_555
O19 Sr2 2.759364 1_655
O19 Sr0 2.759371 1_555
O20 Ti0 1.966711 1_455
O20 Sr0 2.759108 1_455
O20 Sr2 2.759114 1_555
O20 Sr6 2.759311 1_445
O20 Sr4 2.759349 1_555
O21 Ti1 1.965965 1_555
O21 Sr5 2.759173 1_655
O21 Sr7 2.759222 1_545
O21 Sr3 2.759382 1_654
O21 Sr1 2.759398 1_554
O22 Ti2 1.966435 1_555
O22 Sr2 2.759106 1_555
O22 Sr0 2.759118 1_565
O22 Sr4 2.759303 1_555
O22 Sr6 2.759347 1_555
O23 Ti3 1.966416 1_555
O23 Sr7 2.759140 1_555
O23 Sr5 2.759210 1_555
O23 Sr1 2.759395 1_564
O23 Sr3 2.759416 1_554
