# generated using pymatgen
data_Lu5Co19P12
_symmetry_space_group_name_H-M   'P 1'
_cell_length_a   11.80084021
_cell_length_b   11.80091953
_cell_length_c   3.62834713
_cell_angle_alpha   90.00003325
_cell_angle_beta   90.00003052
_cell_angle_gamma   119.99931877
_symmetry_Int_Tables_number   1
_chemical_formula_structural   Lu5Co19P12
_chemical_formula_sum   'Lu5 Co19 P12'
_cell_volume   437.59386191
_cell_formula_units_Z   1
loop_
 _symmetry_equiv_pos_site_id
 _symmetry_equiv_pos_as_xyz
  1  'x, y, z'
loop_
 _atom_site_type_symbol
 _atom_site_label
 _atom_site_symmetry_multiplicity
 _atom_site_fract_x
 _atom_site_fract_y
 _atom_site_fract_z
 _atom_site_occupancy
  Lu  Lu0  1  0.33331106  0.66666852  0.50000076  1
  Lu  Lu1  1  0.66668208  0.33335767  0.50000085  1
  Lu  Lu2  1  0.18704267  -0.00003483  -0.00000834  1
  Lu  Lu3  1  0.00000224  0.18705786  0.00000012  1
  Lu  Lu4  1  0.81295072  0.81290994  0.00000202  1
  Co  Co0  1  0.19914604  0.37681720  0.49999962  1
  Co  Co1  1  0.62318523  0.82235095  0.49999829  1
  Co  Co2  1  0.17762605  0.80081651  0.50000079  1
  Co  Co3  1  0.82240360  0.62319288  0.49999903  1
  Co  Co4  1  0.80084699  0.17767539  0.50000140  1
  Co  Co5  1  0.37680246  0.19914780  0.49999918  1
  Co  Co6  1  0.55310563  -0.00000877  0.50000192  1
  Co  Co7  1  0.00001306  0.55316495  0.50000130  1
  Co  Co8  1  0.44687506  0.44686432  0.49999853  1
  Co  Co9  1  0.12582959  0.48377022  0.00000094  1
  Co  Co10  1  0.51624598  0.64209141  -0.00000464  1
  Co  Co11  1  0.35786659  0.87414057  0.00000246  1
  Co  Co12  1  0.64213574  0.51626633  0.99999801  1
  Co  Co13  1  0.87417321  0.35794359  0.00000192  1
  Co  Co14  1  0.48373346  0.12583217  0.00000279  1
  Co  Co15  1  0.71550229  0.00001196  0.00000240  1
  Co  Co16  1  0.00002050  0.71548930  0.00000031  1
  Co  Co17  1  0.28448860  0.28448899  -0.00000299  1
  Co  Co18  1  0.00000563  -0.00002063  0.49999982  1
  P  P0  1  0.36619723  -0.00001252  0.49999902  1
  P  P1  1  0.00000207  0.36622984  0.50000105  1
  P  P2  1  0.63380580  0.63379097  0.49999685  1
  P  P3  1  0.31392083  0.48110889  -0.00000009  1
  P  P4  1  0.51887943  0.83282106  -0.00000024  1
  P  P5  1  0.16717325  0.68606413  0.00000349  1
  P  P6  1  0.83283153  0.51889538  -0.00000065  1
  P  P7  1  0.68607307  0.16718701  0.00000112  1
  P  P8  1  0.48111975  0.31394310  0.00000029  1
  P  P9  1  0.82147710  0.00000117  0.50000123  1
  P  P10  1  0.00000609  0.82146008  0.49999959  1
  P  P11  1  0.17851837  0.17851959  0.49999882  1
loop_
_geom_bond_atom_site_label_1
_geom_bond_atom_site_label_2
_geom_bond_distance
_geom_bond_site_symmetry_2
Lu0 P5 2.763355 1_555
Lu0 P5 2.763369 1_556
Lu0 P4 2.763614 1_556
Lu0 P4 2.763622 1_555
Lu0 P3 2.763627 1_556
Lu0 P3 2.763629 1_555
Lu1 P6 2.763446 1_556
Lu1 P6 2.763456 1_555
Lu1 P8 2.763550 1_556
Lu1 P8 2.763551 1_555
Lu1 P7 2.763637 1_555
Lu1 P7 2.763640 1_556
Lu2 P0 2.785733 1_554
Lu2 P0 2.785767 1_555
Lu2 P10 2.819723 1_544
Lu2 P10 2.819763 1_545
Lu2 P11 2.820126 1_554
Lu2 P11 2.820158 1_555
Lu3 P1 2.786016 1_554
Lu3 P1 2.786019 1_555
Lu3 P11 2.819849 1_555
Lu3 P11 2.819857 1_554
Lu3 P9 2.819921 1_454
Lu3 P9 2.819930 1_455
Lu4 P2 2.785658 1_555
Lu4 P2 2.785680 1_554
Lu4 P10 2.819807 1_655
Lu4 P10 2.819820 1_654
Lu4 P9 2.820245 1_565
Lu4 P9 2.820251 1_564
Co0 P11 2.228379 1_555
Co0 P3 2.230139 1_556
Co0 P3 2.230140 1_555
Co0 P1 2.290155 1_555
Co0 Lu3 2.926800 1_555
Co0 Lu3 2.926806 1_556
Co0 Lu0 2.964990 1_555
Co1 P9 2.228253 1_565
Co1 P4 2.230170 1_555
Co1 P4 2.230180 1_556
Co1 P2 2.290419 1_555
Co1 Lu4 2.927108 1_555
Co1 Lu4 2.927124 1_556
Co1 Lu0 2.965199 1_555
Co2 P10 2.227881 1_555
Co2 P5 2.230062 1_555
Co2 P5 2.230080 1_556
Co2 P0 2.290437 1_565
Co2 Lu2 2.926678 1_566
Co2 Lu2 2.926721 1_565
Co2 Lu0 2.964767 1_555
Co3 P10 2.227853 1_655
Co3 P6 2.229956 1_555
Co3 P6 2.229959 1_556
Co3 P2 2.290707 1_555
Co3 Lu4 2.926732 1_555
Co3 Lu4 2.926744 1_556
Co3 Lu1 2.964850 1_555
Co4 P9 2.228439 1_555
Co4 P7 2.230109 1_556
Co4 P7 2.230109 1_555
Co4 P1 2.290243 1_655
Co4 Lu3 2.926890 1_656
Co4 Lu3 2.926898 1_655
Co4 Lu1 2.964909 1_555
Co5 P11 2.228201 1_555
Co5 P8 2.230293 1_555
Co5 P8 2.230298 1_556
Co5 P0 2.290267 1_555
Co5 Lu2 2.926983 1_556
Co5 Lu2 2.927014 1_555
Co5 Lu1 2.965243 1_555
Co6 P0 2.205654 1_555
Co6 P4 2.559169 1_546
Co6 P4 2.559178 1_545
Co6 P7 2.559380 1_556
Co6 P7 2.559387 1_555
Co7 P1 2.205941 1_555
Co7 P5 2.558997 1_555
Co7 P5 2.559005 1_556
Co7 P6 2.559136 1_456
Co7 P6 2.559144 1_455
Co8 P2 2.205946 1_555
Co8 P8 2.559077 1_555
Co8 P8 2.559087 1_556
Co8 P3 2.559341 1_555
Co8 P3 2.559348 1_556
Co9 P5 2.184565 1_555
Co9 P3 2.235503 1_555
Co9 P1 2.315268 1_554
Co9 P1 2.315271 1_555
Co9 Lu0 2.942812 1_555
Co9 Lu0 2.942816 1_554
Co9 Lu3 3.044020 1_555
Co10 P3 2.184935 1_555
Co10 P4 2.235409 1_555
Co10 P2 2.315449 1_554
Co10 P2 2.315457 1_555
Co10 Lu0 2.943082 1_554
Co10 Lu0 2.943107 1_555
Co10 Lu4 3.043864 1_555
Co11 P4 2.185079 1_555
Co11 P5 2.235091 1_555
Co11 P0 2.315253 1_565
Co11 P0 2.315274 1_564
Co11 Lu0 2.942820 1_555
Co11 Lu0 2.942826 1_554
Co11 Lu2 3.043299 1_565
Co12 P8 2.185054 1_556
Co12 P6 2.235020 1_556
Co12 P2 2.315316 1_556
Co12 P2 2.315324 1_555
Co12 Lu1 2.942686 1_555
Co12 Lu1 2.942701 1_556
Co12 Lu4 3.043288 1_556
Co13 P6 2.184555 1_555
Co13 P7 2.235609 1_555
Co13 P1 2.315267 1_655
Co13 P1 2.315274 1_654
Co13 Lu1 2.942870 1_555
Co13 Lu1 2.942873 1_554
Co13 Lu3 3.044007 1_655
Co14 P7 2.185035 1_555
Co14 P8 2.235463 1_555
Co14 P0 2.315316 1_555
Co14 P0 2.315335 1_554
Co14 Lu1 2.943241 1_555
Co14 Lu1 2.943253 1_554
Co14 Lu2 3.043727 1_555
Co15 P7 2.167430 1_555
Co15 P4 2.167652 1_545
Co15 P9 2.203485 1_555
Co15 P9 2.203493 1_554
Co15 Lu3 2.955234 1_655
Co15 Lu4 2.955784 1_545
Co16 P5 2.167128 1_555
Co16 P6 2.167438 1_455
Co16 P10 2.203476 1_555
Co16 P10 2.203482 1_554
Co16 Lu2 2.954982 1_565
Co16 Lu4 2.955167 1_455
Co17 P3 2.167608 1_555
Co17 P8 2.167627 1_555
Co17 P11 2.203423 1_554
Co17 P11 2.203436 1_555
Co17 Lu3 2.955115 1_555
Co17 Lu2 2.955523 1_555
Co18 P10 2.106694 1_545
Co18 P11 2.106791 1_555
Co18 P9 2.106915 1_455
Co18 Lu2 2.857130 1_556
Co18 Lu2 2.857169 1_555
Co18 Lu4 2.857330 1_445
Co18 Lu4 2.857344 1_446
Co18 Lu3 2.857489 1_556
Co18 Lu3 2.857489 1_555
