# generated using pymatgen
data_Rb2Mo15Se19
_symmetry_space_group_name_H-M   'P 1'
_cell_length_a   9.91218859
_cell_length_b   9.90870342
_cell_length_c   20.50611229
_cell_angle_alpha   76.01879290
_cell_angle_beta   76.04892704
_cell_angle_gamma   60.01162949
_symmetry_Int_Tables_number   1
_chemical_formula_structural   Rb2Mo15Se19
_chemical_formula_sum   'Rb4 Mo30 Se38'
_cell_volume   1675.30263651
_cell_formula_units_Z   2
loop_
 _symmetry_equiv_pos_site_id
 _symmetry_equiv_pos_as_xyz
  1  'x, y, z'
loop_
 _atom_site_type_symbol
 _atom_site_label
 _atom_site_symmetry_multiplicity
 _atom_site_fract_x
 _atom_site_fract_y
 _atom_site_fract_z
 _atom_site_occupancy
  Rb  Rb0  1  0.88651299  0.88653192  0.34040834  1
  Rb  Rb1  1  0.38651299  0.38654675  0.84040834  1
  Rb  Rb2  1  0.11348701  0.11346808  0.65959166  1
  Rb  Rb3  1  0.61348701  0.61345325  0.15959166  1
  Mo  Mo0  1  0.68582479  0.49815486  0.44208669  1
  Mo  Mo1  1  0.49821566  0.37419821  0.44235281  1
  Mo  Mo2  1  0.37411166  0.68541098  0.44221265  1
  Mo  Mo3  1  0.18582479  0.87393365  0.94208669  1
  Mo  Mo4  1  0.87411166  0.99826472  0.94221265  1
  Mo  Mo5  1  0.99821566  0.18523333  0.94235281  1
  Mo  Mo6  1  0.31417521  0.50184514  0.55791331  1
  Mo  Mo7  1  0.50178434  0.62580179  0.55764719  1
  Mo  Mo8  1  0.62588834  0.31458902  0.55778735  1
  Mo  Mo9  1  0.81417521  0.12606635  0.05791331  1
  Mo  Mo10  1  0.12588834  0.00173528  0.05778735  1
  Mo  Mo11  1  0.00178434  0.81476667  0.05764719  1
  Mo  Mo12  1  0.77853957  0.63948312  0.63300422  1
  Mo  Mo13  1  0.63959609  0.94894485  0.63292602  1
  Mo  Mo14  1  0.94891775  0.77858869  0.63305859  1
  Mo  Mo15  1  0.27853957  0.44897308  0.13300422  1
  Mo  Mo16  1  0.44891775  0.13943497  0.13305859  1
  Mo  Mo17  1  0.13959609  0.27853303  0.13292602  1
  Mo  Mo18  1  0.22146043  0.36051688  0.36699578  1
  Mo  Mo19  1  0.36040391  0.05105515  0.36707398  1
  Mo  Mo20  1  0.05108225  0.22141131  0.36694141  1
  Mo  Mo21  1  0.72146043  0.55102692  0.86699578  1
  Mo  Mo22  1  0.55108225  0.86056503  0.86694141  1
  Mo  Mo23  1  0.86040391  0.72146697  0.86707398  1
  Mo  Mo24  1  0.90695281  0.59311138  0.74999048  1
  Mo  Mo25  1  0.59304719  0.75005466  0.75000952  1
  Mo  Mo26  1  0.75000000  0.90702939  0.75000000  1
  Mo  Mo27  1  0.40695281  0.24994534  0.24999048  1
  Mo  Mo28  1  0.25000000  0.09297061  0.25000000  1
  Mo  Mo29  1  0.09304719  0.40688862  0.25000952  1
  Se  Se0  1  0.80580717  0.44645190  0.54932371  1
  Se  Se1  1  0.44615188  0.19854137  0.54945933  1
  Se  Se2  1  0.19820950  0.80566971  0.54946899  1
  Se  Se3  1  0.30580717  0.69841722  0.04932371  1
  Se  Se4  1  0.69820950  0.94665180  0.04946899  1
  Se  Se5  1  0.94615188  0.30584742  0.04945933  1
  Se  Se6  1  0.19419283  0.55354810  0.45067629  1
  Se  Se7  1  0.55384812  0.80145863  0.45054067  1
  Se  Se8  1  0.80179050  0.19433029  0.45053101  1
  Se  Se9  1  0.69419283  0.30158278  0.95067629  1
  Se  Se10  1  0.30179050  0.05334820  0.95053101  1
  Se  Se11  1  0.05384812  0.69415258  0.95054067  1
  Se  Se12  1  0.92151966  0.52791740  0.35691675  1
  Se  Se13  1  0.52794631  0.19368473  0.35695402  1
  Se  Se14  1  0.19364018  0.92138848  0.35692094  1
  Se  Se15  1  0.42151966  0.69364619  0.85691675  1
  Se  Se16  1  0.69364018  0.02805041  0.85692094  1
  Se  Se17  1  0.02794631  0.42141494  0.85695402  1
  Se  Se18  1  0.07848034  0.47208260  0.64308325  1
  Se  Se19  1  0.47205369  0.80631527  0.64304598  1
  Se  Se20  1  0.80635982  0.07861152  0.64307906  1
  Se  Se21  1  0.57848034  0.30635381  0.14308325  1
  Se  Se22  1  0.30635982  0.97194959  0.14307906  1
  Se  Se23  1  0.97205369  0.57858506  0.14304598  1
  Se  Se24  1  0.75000000  0.44661735  0.75000000  1
  Se  Se25  1  0.44663410  0.05343972  0.75000281  1
  Se  Se26  1  0.05336590  0.75007664  0.74999719  1
  Se  Se27  1  0.25000000  0.55338265  0.25000000  1
  Se  Se28  1  0.55336590  0.94656028  0.24999719  1
  Se  Se29  1  0.94663410  0.24992336  0.25000281  1
  Se  Se30  1  0.55377108  0.55382643  0.33928760  1
  Se  Se31  1  0.05377108  0.05311489  0.83928760  1
  Se  Se32  1  0.44622892  0.44617357  0.66071240  1
  Se  Se33  1  0.94622892  0.94688511  0.16071240  1
  Se  Se34  1  0.82351434  0.82334482  0.52961400  1
  Se  Se35  1  0.32351434  0.32352684  0.02961400  1
  Se  Se36  1  0.17648566  0.17665518  0.47038600  1
  Se  Se37  1  0.67648566  0.67647316  0.97038600  1
loop_
_geom_bond_atom_site_label_1
_geom_bond_atom_site_label_2
_geom_bond_distance
_geom_bond_site_symmetry_2
Rb0 Se12 3.332342 1_555
Rb0 Se14 3.332622 1_655
Rb0 Se13 3.333816 1_565
Rb0 Se33 3.538864 1_555
Rb0 Se34 3.726143 1_555
Rb0 Se7 3.866775 1_555
Rb0 Se8 3.867767 1_565
Rb0 Se6 3.868008 1_655
Rb0 Se29 3.891536 1_565
Rb0 Se28 3.892480 1_555
Rb0 Se27 3.893887 1_655
Rb1 Se15 3.332342 1_555
Rb1 Se16 3.332622 1_555
Rb1 Se17 3.333816 1_555
Rb1 Se32 3.538864 1_555
Rb1 Se35 3.726143 1_556
Rb1 Se11 3.866775 1_555
Rb1 Se10 3.867767 1_555
Rb1 Se9 3.868008 1_555
Rb1 Se25 3.891536 1_555
Rb1 Se26 3.892480 1_555
Rb1 Se24 3.893887 1_555
Rb2 Se18 3.332342 1_555
Rb2 Se20 3.332622 1_455
Rb2 Se19 3.333816 1_545
Rb2 Se31 3.538864 1_555
Rb2 Se36 3.726143 1_555
Rb2 Se1 3.866775 1_555
Rb2 Se2 3.867767 1_545
Rb2 Se0 3.868008 1_455
Rb2 Se26 3.891536 1_545
Rb2 Se25 3.892480 1_555
Rb2 Se24 3.893887 1_455
Rb3 Se21 3.332342 1_555
Rb3 Se22 3.332622 1_555
Rb3 Se23 3.333816 1_555
Rb3 Se30 3.538864 1_555
Rb3 Se37 3.726143 1_554
Rb3 Se5 3.866775 1_555
Rb3 Se4 3.867767 1_555
Rb3 Se3 3.868008 1_555
Rb3 Se28 3.891536 1_555
Rb3 Se29 3.892480 1_555
Rb3 Se27 3.893887 1_555
Mo0 Se30 2.551100 1_555
Mo0 Se0 2.572963 1_555
Mo0 Se8 2.607533 1_555
Mo0 Se7 2.643056 1_555
Mo0 Se12 2.658520 1_555
Mo1 Se30 2.557124 1_555
Mo1 Se1 2.573684 1_555
Mo1 Se6 2.610305 1_555
Mo1 Se8 2.645186 1_555
Mo1 Se13 2.662818 1_555
Mo2 Se30 2.553860 1_555
Mo2 Se2 2.576386 1_555
Mo2 Se7 2.610538 1_555
Mo2 Se6 2.643539 1_555
Mo2 Se14 2.660373 1_555
Mo3 Se31 2.551100 1_565
Mo3 Se3 2.572963 1_556
Mo3 Se10 2.607533 1_565
Mo3 Se11 2.643056 1_555
Mo3 Se15 2.658519 1_555
Mo4 Se31 2.553860 1_665
Mo4 Se4 2.576386 1_556
Mo4 Se11 2.610538 1_655
Mo4 Se9 2.643538 1_565
Mo4 Se16 2.660373 1_565
Mo5 Se31 2.557124 1_655
Mo5 Se5 2.573684 1_556
Mo5 Se9 2.610305 1_555
Mo5 Se10 2.645186 1_655
Mo5 Se17 2.662818 1_655
Mo6 Se32 2.551100 1_555
Mo6 Se6 2.572963 1_555
Mo6 Se2 2.607533 1_555
Mo6 Se1 2.643056 1_555
Mo6 Se18 2.658520 1_555
Mo7 Se32 2.557124 1_555
Mo7 Se7 2.573684 1_555
Mo7 Se0 2.610305 1_555
Mo7 Se2 2.645186 1_555
Mo7 Se19 2.662818 1_555
Mo8 Se32 2.553860 1_555
Mo8 Se8 2.576386 1_555
Mo8 Se1 2.610538 1_555
Mo8 Se0 2.643539 1_555
Mo8 Se20 2.660373 1_555
Mo9 Se33 2.551100 1_545
Mo9 Se9 2.572963 1_554
Mo9 Se4 2.607533 1_545
Mo9 Se5 2.643056 1_555
Mo9 Se21 2.658519 1_555
Mo10 Se33 2.553860 1_445
Mo10 Se10 2.576386 1_554
Mo10 Se5 2.610538 1_455
Mo10 Se3 2.643538 1_545
Mo10 Se22 2.660373 1_545
Mo11 Se33 2.557124 1_455
Mo11 Se11 2.573684 1_554
Mo11 Se3 2.610305 1_555
Mo11 Se4 2.645186 1_455
Mo11 Se23 2.662818 1_455
Mo12 Se34 2.550002 1_555
Mo12 Se18 2.614210 1_655
Mo12 Se19 2.616646 1_555
Mo12 Se24 2.735999 1_555
Mo12 Se0 2.742531 1_555
Mo13 Se34 2.550330 1_555
Mo13 Se19 2.614707 1_555
Mo13 Se20 2.616255 1_565
Mo13 Se25 2.738882 1_565
Mo13 Se1 2.742124 1_565
Mo14 Se34 2.550931 1_555
Mo14 Se20 2.613918 1_565
Mo14 Se18 2.615726 1_655
Mo14 Se26 2.734816 1_655
Mo14 Se2 2.741232 1_655
Mo15 Se35 2.550002 1_555
Mo15 Se21 2.614210 1_555
Mo15 Se23 2.616646 1_455
Mo15 Se27 2.735999 1_555
Mo15 Se3 2.742531 1_555
Mo16 Se35 2.550931 1_555
Mo16 Se22 2.613918 1_545
Mo16 Se21 2.615726 1_555
Mo16 Se28 2.734816 1_545
Mo16 Se4 2.741232 1_545
Mo17 Se35 2.550330 1_555
Mo17 Se23 2.614707 1_455
Mo17 Se22 2.616255 1_545
Mo17 Se29 2.738882 1_455
Mo17 Se5 2.742124 1_455
Mo18 Se36 2.550002 1_555
Mo18 Se12 2.614210 1_455
Mo18 Se13 2.616646 1_555
Mo18 Se27 2.735999 1_555
Mo18 Se6 2.742531 1_555
Mo19 Se36 2.550330 1_555
Mo19 Se13 2.614707 1_555
Mo19 Se14 2.616255 1_545
Mo19 Se28 2.738882 1_545
Mo19 Se7 2.742124 1_545
Mo20 Se36 2.550931 1_555
Mo20 Se14 2.613918 1_545
Mo20 Se12 2.615726 1_455
Mo20 Se29 2.734816 1_455
Mo20 Se8 2.741232 1_455
Mo21 Se37 2.550002 1_555
Mo21 Se15 2.614210 1_555
Mo21 Se17 2.616646 1_655
Mo21 Se24 2.735999 1_555
Mo21 Se9 2.742531 1_555
Mo22 Se37 2.550931 1_555
Mo22 Se16 2.613918 1_565
Mo22 Se15 2.615726 1_555
Mo22 Se25 2.734816 1_565
Mo22 Se10 2.741232 1_565
Mo23 Se37 2.550330 1_555
Mo23 Se17 2.614707 1_655
Mo23 Se16 2.616255 1_565
Mo23 Se26 2.738882 1_655
Mo23 Se11 2.742124 1_655
Mo24 Se17 2.563082 1_655
Mo24 Se18 2.563150 1_655
Mo24 Se26 2.604194 1_655
Mo24 Se24 2.604722 1_555
Mo25 Se19 2.563082 1_555
Mo25 Se15 2.563150 1_555
Mo25 Se25 2.604194 1_565
Mo25 Se24 2.604722 1_555
Mo26 Se16 2.562702 1_565
Mo26 Se20 2.562702 1_565
Mo26 Se26 2.604977 1_655
Mo26 Se25 2.604977 1_565
Mo27 Se13 2.563082 1_555
Mo27 Se21 2.563150 1_555
Mo27 Se28 2.604194 1_545
Mo27 Se27 2.604722 1_555
Mo28 Se22 2.562702 1_545
Mo28 Se14 2.562702 1_545
Mo28 Se29 2.604977 1_455
Mo28 Se28 2.604977 1_545
Mo29 Se23 2.563082 1_455
Mo29 Se12 2.563150 1_455
Mo29 Se29 2.604194 1_455
Mo29 Se27 2.604722 1_555
