# generated using pymatgen
data_Pr5(Sn5Rh2)2
_symmetry_space_group_name_H-M   'P 1'
_cell_length_a   14.16505883
_cell_length_b   14.16505883
_cell_length_c   4.64753882
_cell_angle_alpha   90.00000000
_cell_angle_beta   90.00000000
_cell_angle_gamma   90.00000000
_symmetry_Int_Tables_number   1
_chemical_formula_structural   Pr5(Sn5Rh2)2
_chemical_formula_sum   'Pr10 Sn20 Rh8'
_cell_volume   932.52351317
_cell_formula_units_Z   2
loop_
 _symmetry_equiv_pos_site_id
 _symmetry_equiv_pos_as_xyz
  1  'x, y, z'
loop_
 _atom_site_type_symbol
 _atom_site_label
 _atom_site_symmetry_multiplicity
 _atom_site_fract_x
 _atom_site_fract_y
 _atom_site_fract_z
 _atom_site_occupancy
  Pr  Pr0  1  0.50000000  0.50000000  -0.00000000  1
  Pr  Pr1  1  -0.00000000  0.00000000  -0.00000000  1
  Pr  Pr2  1  0.67782921  0.17782921  0.50000000  1
  Pr  Pr3  1  0.32217079  0.82217079  0.50000000  1
  Pr  Pr4  1  0.17782921  0.32217079  0.50000000  1
  Pr  Pr5  1  0.82217079  0.67782921  0.50000000  1
  Pr  Pr6  1  0.89050555  0.39050555  0.50000000  1
  Pr  Pr7  1  0.10949445  0.60949445  0.50000000  1
  Pr  Pr8  1  0.39050555  0.10949445  0.50000000  1
  Pr  Pr9  1  0.60949445  0.89050555  0.50000000  1
  Sn  Sn0  1  0.57041660  0.07041660  0.00000000  1
  Sn  Sn1  1  0.42958340  0.92958340  -0.00000000  1
  Sn  Sn2  1  0.07041660  0.42958340  0.00000000  1
  Sn  Sn3  1  0.92958340  0.57041660  -0.00000000  1
  Sn  Sn4  1  0.65384256  0.69870958  -0.00000000  1
  Sn  Sn5  1  0.34615744  0.30129042  0.00000000  1
  Sn  Sn6  1  0.15384256  0.80129042  -0.00000000  1
  Sn  Sn7  1  0.84615744  0.19870958  0.00000000  1
  Sn  Sn8  1  0.30129042  0.65384256  -0.00000000  1
  Sn  Sn9  1  0.69870958  0.34615744  0.00000000  1
  Sn  Sn10  1  0.19870958  0.15384256  0.00000000  1
  Sn  Sn11  1  0.80129042  0.84615744  -0.00000000  1
  Sn  Sn12  1  0.66439449  0.50209613  0.50000000  1
  Sn  Sn13  1  0.33560551  0.49790387  0.50000000  1
  Sn  Sn14  1  0.16439449  0.99790387  0.50000000  1
  Sn  Sn15  1  0.83560551  0.00209613  0.50000000  1
  Sn  Sn16  1  0.49790387  0.66439449  0.50000000  1
  Sn  Sn17  1  0.50209613  0.33560551  0.50000000  1
  Sn  Sn18  1  0.00209613  0.16439449  0.50000000  1
  Sn  Sn19  1  0.99790387  0.83560551  0.50000000  1
  Rh  Rh0  1  0.74504642  0.52768491  -0.00000000  1
  Rh  Rh1  1  0.25495358  0.47231509  0.00000000  1
  Rh  Rh2  1  0.24504642  0.97231509  -0.00000000  1
  Rh  Rh3  1  0.75495358  0.02768491  0.00000000  1
  Rh  Rh4  1  0.47231509  0.74504642  -0.00000000  1
  Rh  Rh5  1  0.52768491  0.25495358  0.00000000  1
  Rh  Rh6  1  0.02768491  0.24504642  0.00000000  1
  Rh  Rh7  1  0.97231509  0.75495358  -0.00000000  1
loop_
_geom_bond_atom_site_label_1
_geom_bond_atom_site_label_2
_geom_bond_distance
_geom_bond_site_symmetry_2
Pr0 Sn17 3.289899 1_554
Pr0 Sn17 3.289899 1_555
Pr0 Sn13 3.289899 1_554
Pr0 Sn13 3.289899 1_555
Pr0 Sn16 3.289899 1_554
Pr0 Sn12 3.289899 1_555
Pr0 Sn16 3.289899 1_555
Pr0 Sn12 3.289899 1_554
Pr0 Rh1 3.493179 1_555
Pr0 Rh4 3.493179 1_555
Pr0 Rh5 3.493179 1_555
Pr0 Rh0 3.493179 1_555
Pr0 Sn8 3.559717 1_555
Pr0 Sn5 3.559717 1_555
Pr0 Sn4 3.559717 1_555
Pr0 Sn9 3.559717 1_555
Pr1 Sn19 3.289899 1_444
Pr1 Sn19 3.289899 1_445
Pr1 Sn15 3.289899 1_455
Pr1 Sn15 3.289899 1_454
Pr1 Sn18 3.289899 1_554
Pr1 Sn14 3.289899 1_544
Pr1 Sn14 3.289899 1_545
Pr1 Sn18 3.289899 1_555
Pr1 Rh7 3.493179 1_445
Pr1 Rh3 3.493179 1_455
Pr1 Rh2 3.493179 1_545
Pr1 Rh6 3.493179 1_555
Pr1 Sn11 3.559717 1_445
Pr1 Sn6 3.559717 1_545
Pr1 Sn7 3.559717 1_455
Pr1 Sn10 3.559717 1_555
Pr2 Sn0 3.166996 1_556
Pr2 Sn0 3.166996 1_555
Pr2 Rh5 3.334170 1_556
Pr2 Rh5 3.334170 1_555
Pr2 Rh3 3.334170 1_555
Pr2 Rh3 3.334170 1_556
Pr2 Sn9 3.342551 1_555
Pr2 Sn9 3.342551 1_556
Pr2 Sn7 3.342551 1_555
Pr2 Sn7 3.342551 1_556
Pr2 Sn17 3.345338 1_555
Pr2 Sn15 3.345338 1_555
Pr3 Sn1 3.166996 1_555
Pr3 Sn1 3.166996 1_556
Pr3 Rh2 3.334170 1_556
Pr3 Rh4 3.334170 1_556
Pr3 Rh4 3.334170 1_555
Pr3 Rh2 3.334170 1_555
Pr3 Sn6 3.342551 1_555
Pr3 Sn6 3.342551 1_556
Pr3 Sn8 3.342551 1_555
Pr3 Sn8 3.342551 1_556
Pr3 Sn14 3.345338 1_555
Pr3 Sn16 3.345338 1_555
Pr4 Sn2 3.166996 1_556
Pr4 Sn2 3.166996 1_555
Pr4 Rh6 3.334170 1_556
Pr4 Rh1 3.334170 1_555
Pr4 Rh1 3.334170 1_556
Pr4 Rh6 3.334170 1_555
Pr4 Sn10 3.342551 1_556
Pr4 Sn5 3.342551 1_556
Pr4 Sn5 3.342551 1_555
Pr4 Sn10 3.342551 1_555
Pr4 Sn18 3.345338 1_555
Pr4 Sn13 3.345338 1_555
Pr5 Sn3 3.166996 1_556
Pr5 Sn3 3.166996 1_555
Pr5 Rh0 3.334170 1_556
Pr5 Rh0 3.334170 1_555
Pr5 Rh7 3.334170 1_555
Pr5 Rh7 3.334170 1_556
Pr5 Sn11 3.342551 1_555
Pr5 Sn11 3.342551 1_556
Pr5 Sn4 3.342551 1_555
Pr5 Sn4 3.342551 1_556
Pr5 Sn12 3.345338 1_555
Pr5 Sn19 3.345338 1_555
Pr6 Sn3 3.492980 1_556
Pr6 Sn3 3.492980 1_555
Pr6 Sn2 3.492980 1_656
Pr6 Sn2 3.492980 1_655
Pr6 Sn12 3.571693 1_555
Pr6 Sn18 3.571693 1_655
Pr6 Sn9 3.629813 1_555
Pr6 Sn9 3.629813 1_556
Pr6 Sn7 3.629813 1_555
Pr6 Sn7 3.629813 1_556
Pr6 Rh0 3.663489 1_556
Pr6 Rh0 3.663489 1_555
Pr6 Rh6 3.663489 1_656
Pr6 Rh6 3.663489 1_655
Pr7 Sn2 3.492980 1_556
Pr7 Sn2 3.492980 1_555
Pr7 Sn3 3.492980 1_455
Pr7 Sn3 3.492980 1_456
Pr7 Sn13 3.571693 1_555
Pr7 Sn19 3.571693 1_455
Pr7 Sn8 3.629813 1_555
Pr7 Sn8 3.629813 1_556
Pr7 Sn6 3.629813 1_556
Pr7 Sn6 3.629813 1_555
Pr7 Rh7 3.663489 1_456
Pr7 Rh7 3.663489 1_455
Pr7 Rh1 3.663489 1_556
Pr7 Rh1 3.663489 1_555
Pr8 Sn0 3.492980 1_556
Pr8 Sn0 3.492980 1_555
Pr8 Sn1 3.492980 1_546
Pr8 Sn1 3.492980 1_545
Pr8 Sn17 3.571693 1_555
Pr8 Sn14 3.571693 1_545
Pr8 Sn5 3.629813 1_556
Pr8 Sn5 3.629813 1_555
Pr8 Sn10 3.629813 1_556
Pr8 Sn10 3.629813 1_555
Pr8 Rh2 3.663489 1_545
Pr8 Rh2 3.663489 1_546
Pr8 Rh5 3.663489 1_555
Pr8 Rh5 3.663489 1_556
Pr9 Sn1 3.492980 1_555
Pr9 Sn1 3.492980 1_556
Pr9 Sn0 3.492980 1_566
Pr9 Sn0 3.492980 1_565
Pr9 Sn16 3.571693 1_555
Pr9 Sn15 3.571693 1_565
Pr9 Sn4 3.629813 1_555
Pr9 Sn4 3.629813 1_556
Pr9 Sn11 3.629813 1_556
Pr9 Sn11 3.629813 1_555
Pr9 Rh4 3.663489 1_556
Pr9 Rh4 3.663489 1_555
Pr9 Rh3 3.663489 1_565
Pr9 Rh3 3.663489 1_566
Sn0 Sn1 2.821230 1_545
Sn2 Sn3 2.821230 1_455
Sn6 Sn8 2.953737 1_555
Sn7 Sn9 2.953737 1_555
Sn10 Sn5 2.953737 1_555
Sn11 Sn4 2.953737 1_555
Rh0 Sn12 2.614661 1_554
Rh0 Sn12 2.614661 1_555
Rh0 Sn9 2.653797 1_555
Rh0 Sn3 2.683144 1_555
Rh0 Sn4 2.745522 1_555
Rh1 Sn13 2.614661 1_555
Rh1 Sn13 2.614661 1_554
Rh1 Sn8 2.653797 1_555
Rh1 Sn2 2.683144 1_555
Rh1 Sn5 2.745522 1_555
Rh2 Sn14 2.614661 1_554
Rh2 Sn14 2.614661 1_555
Rh2 Sn10 2.653797 1_565
Rh2 Sn1 2.683144 1_555
Rh2 Sn6 2.745522 1_555
Rh3 Sn15 2.614661 1_555
Rh3 Sn15 2.614661 1_554
Rh3 Sn11 2.653797 1_545
Rh3 Sn0 2.683144 1_555
Rh3 Sn7 2.745522 1_555
Rh4 Sn16 2.614661 1_555
Rh4 Sn16 2.614661 1_554
Rh4 Sn4 2.653797 1_555
Rh4 Sn1 2.683144 1_555
Rh4 Sn8 2.745522 1_555
Rh5 Sn17 2.614661 1_554
Rh5 Sn17 2.614661 1_555
Rh5 Sn5 2.653797 1_555
Rh5 Sn0 2.683144 1_555
Rh5 Sn9 2.745522 1_555
Rh6 Sn18 2.614661 1_555
Rh6 Sn18 2.614661 1_554
Rh6 Sn7 2.653797 1_455
Rh6 Sn2 2.683144 1_555
Rh6 Sn10 2.745522 1_555
Rh7 Sn19 2.614661 1_554
Rh7 Sn19 2.614661 1_555
Rh7 Sn6 2.653797 1_655
Rh7 Sn3 2.683144 1_555
Rh7 Sn11 2.745522 1_555
