# generated using pymatgen
data_BaErAl3SiN4O3
_symmetry_space_group_name_H-M   'P 1'
_cell_length_a   6.13783968
_cell_length_b   6.13783968
_cell_length_c   10.14774600
_cell_angle_alpha   90.00000000
_cell_angle_beta   90.00000000
_cell_angle_gamma   119.99999660
_symmetry_Int_Tables_number   1
_chemical_formula_structural   BaErAl3SiN4O3
_chemical_formula_sum   'Ba2 Er2 Al6 Si2 N8 O6'
_cell_volume   331.07875731
_cell_formula_units_Z   2
loop_
 _symmetry_equiv_pos_site_id
 _symmetry_equiv_pos_as_xyz
  1  'x, y, z'
loop_
 _atom_site_type_symbol
 _atom_site_label
 _atom_site_symmetry_multiplicity
 _atom_site_fract_x
 _atom_site_fract_y
 _atom_site_fract_z
 _atom_site_occupancy
  Ba  Ba0  1  0.66666700  0.33333300  0.55310700  1
  Ba  Ba1  1  0.33333300  0.66666700  0.05310700  1
  Er  Er0  1  0.66666700  0.33333300  0.93749000  1
  Er  Er1  1  0.33333300  0.66666700  0.43749000  1
  Al  Al0  1  0.16541400  0.33082900  0.73792700  1
  Al  Al1  1  0.16541400  0.83458600  0.73792700  1
  Al  Al2  1  0.83458600  0.66917100  0.23792700  1
  Al  Al3  1  0.66917100  0.83458600  0.73792700  1
  Al  Al4  1  0.83458600  0.16541400  0.23792700  1
  Al  Al5  1  0.33082900  0.16541400  0.23792700  1
  Si  Si0  1  0.00000000  0.00000000  0.00071300  1
  Si  Si1  1  0.00000000  0.00000000  0.50071300  1
  N  N0  1  0.00000000  0.00000000  0.81918000  1
  N  N1  1  0.00000000  0.00000000  0.31918000  1
  N  N2  1  0.15424200  0.30848400  0.55668100  1
  N  N3  1  0.15424200  0.84575800  0.55668100  1
  N  N4  1  0.84575800  0.69151600  0.05668100  1
  N  N5  1  0.69151600  0.84575800  0.55668100  1
  N  N6  1  0.84575800  0.15424200  0.05668100  1
  N  N7  1  0.30848400  0.15424200  0.05668100  1
  O  O0  1  0.48949600  0.97899200  0.79303800  1
  O  O1  1  0.48949600  0.51050400  0.79303800  1
  O  O2  1  0.51050400  0.02100800  0.29303800  1
  O  O3  1  0.02100800  0.51050400  0.79303800  1
  O  O4  1  0.51050400  0.48949600  0.29303800  1
  O  O5  1  0.97899200  0.48949600  0.29303800  1
loop_
_geom_bond_atom_site_label_1
_geom_bond_atom_site_label_2
_geom_bond_distance
_geom_bond_site_symmetry_2
Ba0 N5 3.071972 1_545
Ba0 N2 3.071972 1_655
Ba0 N3 3.071975 1_655
Ba0 N3 3.071975 1_545
Ba0 N5 3.071978 1_555
Ba0 N2 3.071978 1_555
Ba0 O3 3.078255 1_655
Ba0 O0 3.078255 1_545
Ba0 O1 3.078258 1_555
Ba0 O5 3.117867 1_555
Ba0 O2 3.117867 1_555
Ba0 O4 3.117869 1_555
Ba1 N7 3.071972 1_565
Ba1 N4 3.071972 1_455
Ba1 N6 3.071975 1_565
Ba1 N6 3.071975 1_455
Ba1 N4 3.071978 1_555
Ba1 N7 3.071978 1_555
Ba1 O2 3.078255 1_565
Ba1 O5 3.078255 1_455
Ba1 O4 3.078258 1_555
Ba1 O3 3.117867 1_554
Ba1 O0 3.117867 1_554
Ba1 O1 3.117869 1_554
Er0 N6 2.255631 1_556
Er0 N7 2.255635 1_556
Er0 N4 2.255635 1_556
Er0 O3 2.386704 1_655
Er0 O0 2.386704 1_545
Er0 O1 2.386708 1_555
Er1 N3 2.255631 1_555
Er1 N2 2.255635 1_555
Er1 N5 2.255635 1_555
Er1 O2 2.386704 1_565
Er1 O5 2.386704 1_455
Er1 O4 2.386708 1_555
Al0 O3 1.814398 1_555
Al0 O1 1.814402 1_555
Al0 N2 1.843070 1_555
Al0 N0 1.942237 1_555
Al1 O3 1.814403 1_555
Al1 O0 1.814403 1_555
Al1 N3 1.843069 1_555
Al1 N0 1.942232 1_565
Al2 O5 1.814398 1_555
Al2 O4 1.814402 1_555
Al2 N4 1.843070 1_555
Al2 N1 1.942237 1_665
Al3 O0 1.814398 1_555
Al3 O1 1.814402 1_555
Al3 N5 1.843070 1_555
Al3 N0 1.942237 1_665
Al4 O2 1.814403 1_555
Al4 O5 1.814403 1_555
Al4 N6 1.843069 1_555
Al4 N1 1.942232 1_655
Al5 O2 1.814398 1_555
Al5 O4 1.814402 1_555
Al5 N7 1.843070 1_555
Al5 N1 1.942237 1_555
N0 Si0 1.842151 1_556
N1 Si1 1.842151 1_555
N2 Si1 1.735327 1_555
N3 Si1 1.735327 1_565
N4 Si0 1.735327 1_665
N5 Si1 1.735327 1_665
N6 Si0 1.735327 1_655
N7 Si0 1.735327 1_555
