# generated using pymatgen
data_Rb3FeS3
_symmetry_space_group_name_H-M   'P 1'
_cell_length_a   10.20174611
_cell_length_b   10.20174611
_cell_length_c   13.05386081
_cell_angle_alpha   90.00000000
_cell_angle_beta   90.00000000
_cell_angle_gamma   140.13253078
_symmetry_Int_Tables_number   1
_chemical_formula_structural   Rb3FeS3
_chemical_formula_sum   'Rb12 Fe4 S12'
_cell_volume   870.87431979
_cell_formula_units_Z   4
loop_
 _symmetry_equiv_pos_site_id
 _symmetry_equiv_pos_as_xyz
  1  'x, y, z'
loop_
 _atom_site_type_symbol
 _atom_site_label
 _atom_site_symmetry_multiplicity
 _atom_site_fract_x
 _atom_site_fract_y
 _atom_site_fract_z
 _atom_site_occupancy
  Rb  Rb0  1  0.85723296  0.85723296  0.32770524  1
  Rb  Rb1  1  0.14276704  0.14276704  0.67229476  1
  Rb  Rb2  1  0.64276704  0.64276704  0.82770524  1
  Rb  Rb3  1  0.35723296  0.35723296  0.17229476  1
  Rb  Rb4  1  0.82805622  0.47445105  0.12874059  1
  Rb  Rb5  1  0.52554895  0.17194378  0.87125941  1
  Rb  Rb6  1  0.02554895  0.67194378  0.62874059  1
  Rb  Rb7  1  0.32805622  0.97445105  0.37125941  1
  Rb  Rb8  1  0.17194378  0.52554895  0.87125941  1
  Rb  Rb9  1  0.47445105  0.82805622  0.12874059  1
  Rb  Rb10  1  0.97445105  0.32805622  0.37125941  1
  Rb  Rb11  1  0.67194378  0.02554895  0.62874059  1
  Fe  Fe0  1  0.08269706  0.91730294  -0.00000000  1
  Fe  Fe1  1  0.58269706  0.41730294  0.50000000  1
  Fe  Fe2  1  0.91730294  0.08269706  -0.00000000  1
  Fe  Fe3  1  0.41730294  0.58269706  0.50000000  1
  S  S0  1  0.00283962  0.30100116  0.11611009  1
  S  S1  1  0.69899884  -0.00283962  0.88388991  1
  S  S2  1  0.19899884  0.49716038  0.61611009  1
  S  S3  1  0.50283962  0.80100116  0.38388991  1
  S  S4  1  -0.00283962  0.69899884  0.88388991  1
  S  S5  1  0.30100116  0.00283962  0.11611009  1
  S  S6  1  0.80100116  0.50283962  0.38388991  1
  S  S7  1  0.49716038  0.19899884  0.61611009  1
  S  S8  1  0.79460370  0.79460370  0.07517169  1
  S  S9  1  0.20539630  0.20539630  0.92482831  1
  S  S10  1  0.70539630  0.70539630  0.57517169  1
  S  S11  1  0.29460370  0.29460370  0.42482831  1
loop_
_geom_bond_atom_site_label_1
_geom_bond_atom_site_label_2
_geom_bond_distance
_geom_bond_site_symmetry_2
Rb0 S3 3.279417 1_555
Rb0 S6 3.279417 1_555
Rb0 S11 3.296043 1_665
Rb0 S8 3.325201 1_555
Rb0 S10 3.398679 1_555
Rb1 S7 3.279417 1_555
Rb1 S2 3.279417 1_555
Rb1 S10 3.296043 1_445
Rb1 S9 3.325201 1_555
Rb1 S11 3.398679 1_555
Rb2 S1 3.279417 1_565
Rb2 S4 3.279417 1_655
Rb2 S9 3.296043 1_555
Rb2 S10 3.325201 1_555
Rb2 S8 3.398679 1_556
Rb3 S5 3.279417 1_555
Rb3 S0 3.279417 1_555
Rb3 S8 3.296043 1_555
Rb3 S11 3.325201 1_555
Rb3 S9 3.398679 1_554
Rb4 S0 3.343814 1_655
Rb4 S6 3.372865 1_555
Rb4 S4 3.517577 1_654
Rb4 S5 3.517805 1_555
Rb4 S5 3.526965 1_665
Rb4 S8 3.603334 1_555
Rb5 S1 3.343814 1_555
Rb5 S7 3.372865 1_555
Rb5 S5 3.517577 1_556
Rb5 S4 3.517805 1_655
Rb5 S4 3.526965 1_545
Rb5 S9 3.603334 1_555
Rb6 S2 3.343814 1_555
Rb6 S4 3.372865 1_555
Rb6 S6 3.517577 1_455
Rb6 S7 3.517805 1_565
Rb6 S7 3.526965 1_455
Rb6 S10 3.603334 1_455
Rb7 S3 3.343814 1_555
Rb7 S5 3.372865 1_565
Rb7 S7 3.517577 1_565
Rb7 S6 3.517805 1_455
Rb7 S6 3.526965 1_565
Rb7 S11 3.603334 1_565
Rb8 S4 3.343814 1_555
Rb8 S2 3.372865 1_555
Rb8 S0 3.517577 1_556
Rb8 S1 3.517805 1_565
Rb8 S1 3.526965 1_455
Rb8 S9 3.603334 1_555
Rb9 S5 3.343814 1_565
Rb9 S3 3.372865 1_555
Rb9 S1 3.517577 1_564
Rb9 S0 3.517805 1_555
Rb9 S0 3.526965 1_665
Rb9 S8 3.603334 1_555
Rb10 S6 3.343814 1_555
Rb10 S0 3.372865 1_655
Rb10 S2 3.517577 1_655
Rb10 S3 3.517805 1_545
Rb10 S3 3.526965 1_655
Rb10 S11 3.603334 1_655
Rb11 S7 3.343814 1_555
Rb11 S1 3.372865 1_555
Rb11 S3 3.517577 1_545
Rb11 S2 3.517805 1_655
Rb11 S2 3.526965 1_545
Rb11 S10 3.603334 1_545
Fe0 S5 2.243977 1_565
Fe0 S4 2.243977 1_554
Fe0 S8 2.349558 1_455
Fe0 S9 2.349558 1_564
Fe0 Rb4 3.459443 1_455
Fe0 Rb5 3.459443 1_564
Fe1 S6 2.243977 1_555
Fe1 S7 2.243977 1_555
Fe1 S10 2.349558 1_555
Fe1 S11 2.349558 1_555
Fe1 Rb6 3.459443 1_655
Fe1 Rb7 3.459443 1_545
Fe2 S0 2.243977 1_655
Fe2 S1 2.243977 1_554
Fe2 S8 2.349558 1_545
Fe2 S9 2.349558 1_654
Fe2 Rb9 3.459443 1_545
Fe2 Rb8 3.459443 1_654
Fe3 S3 2.243977 1_555
Fe3 S2 2.243977 1_555
Fe3 S10 2.349558 1_555
Fe3 S11 2.349558 1_555
Fe3 Rb11 3.459443 1_565
Fe3 Rb10 3.459443 1_455
