# generated using pymatgen
data_B6Pb3O11F2
_symmetry_space_group_name_H-M   'P 1'
_cell_length_a   8.45516400
_cell_length_b   6.68828200
_cell_length_c   10.14979484
_cell_angle_alpha   76.62846595
_cell_angle_beta   90.00000000
_cell_angle_gamma   90.00000000
_symmetry_Int_Tables_number   1
_chemical_formula_structural   B6Pb3O11F2
_chemical_formula_sum   'B12 Pb6 O22 F4'
_cell_volume   558.41620820
_cell_formula_units_Z   2
loop_
 _symmetry_equiv_pos_site_id
 _symmetry_equiv_pos_as_xyz
  1  'x, y, z'
loop_
 _atom_site_type_symbol
 _atom_site_label
 _atom_site_symmetry_multiplicity
 _atom_site_fract_x
 _atom_site_fract_y
 _atom_site_fract_z
 _atom_site_occupancy
  B  B0  1  0.97783300  0.00045200  0.04870500  1
  B  B1  1  0.47783300  0.99954800  0.95129500  1
  B  B2  1  0.03949200  0.92463000  0.37985900  1
  B  B3  1  0.53949200  0.07537000  0.62014100  1
  B  B4  1  0.29152400  0.08339600  0.33131800  1
  B  B5  1  0.79152400  0.91660400  0.66868200  1
  B  B6  1  0.04199600  0.29062000  0.28954900  1
  B  B7  1  0.54199600  0.70938000  0.71045100  1
  B  B8  1  0.01711900  0.68232700  0.22665100  1
  B  B9  1  0.51711900  0.31767300  0.77334900  1
  B  B10  1  0.75814300  0.09570600  0.87198300  1
  B  B11  1  0.25814300  0.90429400  0.12801700  1
  Pb  Pb0  1  0.14480300  0.07008200  0.72775200  1
  Pb  Pb1  1  0.64480300  0.92991800  0.27224800  1
  Pb  Pb2  1  0.81469100  0.46187000  0.53721700  1
  Pb  Pb3  1  0.31469100  0.53813000  0.46278300  1
  Pb  Pb4  1  0.80039300  0.53404100  0.96631600  1
  Pb  Pb5  1  0.30039300  0.46595900  0.03368400  1
  O  O0  1  0.19229600  0.93518500  0.42669300  1
  O  O1  1  0.69229600  0.06481500  0.57330700  1
  O  O2  1  0.95660700  0.10755500  0.32870700  1
  O  O3  1  0.45660700  0.89244500  0.67129300  1
  O  O4  1  0.10111900  0.34728300  0.57799500  1
  O  O5  1  0.60111900  0.65271700  0.42200500  1
  O  O6  1  0.91876900  0.81240400  0.11896100  1
  O  O7  1  0.41876900  0.18759600  0.88103900  1
  O  O8  1  0.85018800  0.99938000  0.77836500  1
  O  O9  1  0.35018800  0.00062000  0.22163500  1
  O  O10  1  0.87749900  0.14274900  0.96916800  1
  O  O11  1  0.37749900  0.85725100  0.03083200  1
  O  O12  1  0.97851700  0.74367400  0.35897500  1
  O  O13  1  0.47851700  0.25632600  0.64102500  1
  O  O14  1  0.13442800  0.05203600  0.05898700  1
  O  O15  1  0.63442800  0.94796400  0.94101300  1
  O  O16  1  0.96019400  0.46847500  0.24661200  1
  O  O17  1  0.46019400  0.53152500  0.75338800  1
  O  O18  1  0.70535400  0.71903300  0.71608900  1
  O  O19  1  0.20535400  0.28096700  0.28391100  1
  O  O20  1  0.18572000  0.70546400  0.19490400  1
  O  O21  1  0.68572000  0.29453600  0.80509600  1
  F  F0  1  0.93039900  0.86552700  0.59767400  1
  F  F1  1  0.43039900  0.13447300  0.40232600  1
  F  F2  1  0.07125600  0.58814900  0.90234700  1
  F  F3  1  0.57125600  0.41185100  0.09765300  1
loop_
_geom_bond_atom_site_label_1
_geom_bond_atom_site_label_2
_geom_bond_distance
_geom_bond_site_symmetry_2
B0 O14 1.378277 1_655
B0 O10 1.386290 1_554
B0 O6 1.387414 1_545
B1 O15 1.378277 1_555
B1 O11 1.386290 1_556
B1 O7 1.387414 1_565
B2 O12 1.376290 1_455
B2 O0 1.384084 1_555
B2 O2 1.401329 1_465
B3 O13 1.376290 1_555
B3 O1 1.384084 1_555
B3 O3 1.401329 1_545
B4 O9 1.441164 1_555
B4 F1 1.459036 1_555
B4 O0 1.476411 1_545
B4 O19 1.488084 1_555
B5 O8 1.441164 1_555
B5 F0 1.459036 1_555
B5 O1 1.476411 1_565
B5 O18 1.488084 1_555
B6 O16 1.357770 1_455
B6 O19 1.384528 1_555
B6 O2 1.397593 1_455
B7 O17 1.357770 1_555
B7 O18 1.384528 1_555
B7 O3 1.397593 1_555
B8 O20 1.461815 1_555
B8 O16 1.477985 1_455
B8 O6 1.484342 1_455
B8 O12 1.527605 1_455
B9 O21 1.461815 1_555
B9 O17 1.477985 1_555
B9 O7 1.484342 1_555
B9 O13 1.527605 1_555
B10 O21 1.478762 1_555
B10 O8 1.485524 1_545
B10 O10 1.494651 1_555
B10 O15 1.497089 1_545
B11 O20 1.478762 1_555
B11 O9 1.485524 1_565
B11 O11 1.494651 1_555
B11 O14 1.497089 1_565
O0 Pb3 2.794190 1_555
O1 Pb2 2.794190 1_555
O4 Pb0 2.140256 1_555
O4 Pb3 2.359495 1_555
O4 Pb2 2.545002 1_455
O5 Pb1 2.140256 1_555
O5 Pb2 2.359495 1_555
O5 Pb3 2.545002 1_555
O8 Pb0 2.565214 1_665
O9 Pb1 2.565214 1_545
O12 Pb2 2.677108 1_555
O13 Pb3 2.677108 1_555
F2 Pb4 2.385124 1_455
F2 Pb5 2.386312 1_556
F3 Pb5 2.385124 1_555
F3 Pb4 2.386312 1_554
