# generated using pymatgen
data_La6Al3Ni4SnRu
_symmetry_space_group_name_H-M   'P 1'
_cell_length_a   9.59139412
_cell_length_b   9.59139412
_cell_length_c   4.27403600
_cell_angle_alpha   90.00000000
_cell_angle_beta   90.00000000
_cell_angle_gamma   120.00000083
_symmetry_Int_Tables_number   1
_chemical_formula_structural   La6Al3Ni4SnRu
_chemical_formula_sum   'La6 Al3 Ni4 Sn1 Ru1'
_cell_volume   340.51188736
_cell_formula_units_Z   1
loop_
 _symmetry_equiv_pos_site_id
 _symmetry_equiv_pos_as_xyz
  1  'x, y, z'
loop_
 _atom_site_type_symbol
 _atom_site_label
 _atom_site_symmetry_multiplicity
 _atom_site_fract_x
 _atom_site_fract_y
 _atom_site_fract_z
 _atom_site_occupancy
  La  La0  1  0.68119200  0.84059600  0.00000000  1
  La  La1  1  0.15940400  0.84059600  0.00000000  1
  La  La2  1  0.15940400  0.31880800  0.00000000  1
  La  La3  1  0.41395300  0.20697600  0.50000000  1
  La  La4  1  0.79302400  0.20697600  0.50000000  1
  La  La5  1  0.79302400  0.58604700  0.50000000  1
  Al  Al0  1  0.14188500  0.57094300  0.50000000  1
  Al  Al1  1  0.42905700  0.57094300  0.50000000  1
  Al  Al2  1  0.42905700  0.85811500  0.50000000  1
  Ni  Ni0  1  0.33333300  0.66666700  0.00000000  1
  Ni  Ni1  1  0.97852500  0.48926200  0.00000000  1
  Ni  Ni2  1  0.51073800  0.48926200  0.00000000  1
  Ni  Ni3  1  0.51073800  0.02147500  0.00000000  1
  Sn  Sn0  1  0.00000000  0.00000000  0.50000000  1
  Ru  Ru0  1  0.66666700  0.33333300  0.00000000  1
loop_
_geom_bond_atom_site_label_1
_geom_bond_atom_site_label_2
_geom_bond_distance
_geom_bond_site_symmetry_2
La0 Ni0 2.889453 1_555
La0 Ni3 2.918737 1_565
La0 Ni2 2.918746 1_555
La0 Sn0 3.402868 1_665
La0 Sn0 3.402868 1_664
La1 Ni0 2.889445 1_555
La1 Ni3 2.918746 1_565
La1 Ni1 2.918746 1_455
La1 Sn0 3.402868 1_564
La1 Sn0 3.402868 1_565
La2 Ni0 2.889453 1_555
La2 Ni1 2.918737 1_455
La2 Ni2 2.918746 1_555
La2 Sn0 3.402868 1_555
La2 Sn0 3.402868 1_554
La3 Ru0 2.995537 1_555
La3 Ru0 2.995537 1_556
La3 Ni2 3.200913 1_555
La3 Ni2 3.200913 1_556
La3 Ni3 3.200913 1_556
La3 Ni3 3.200913 1_555
La3 Sn0 3.438455 1_555
La4 Ru0 2.995537 1_556
La4 Ru0 2.995537 1_555
La4 Ni1 3.200913 1_556
La4 Ni1 3.200913 1_555
La4 Ni3 3.200913 1_556
La4 Ni3 3.200913 1_555
La4 Sn0 3.438447 1_655
La5 Ru0 2.995537 1_556
La5 Ru0 2.995537 1_555
La5 Ni2 3.200913 1_555
La5 Ni2 3.200913 1_556
La5 Ni1 3.200913 1_556
La5 Ni1 3.200913 1_555
La5 Sn0 3.438455 1_665
Al0 Ni1 2.531425 1_455
Al0 Ni1 2.531425 1_456
Al0 Ni0 2.663778 1_555
Al0 Ni0 2.663778 1_556
Al0 La5 3.420799 1_455
Al0 La4 3.420809 1_455
Al1 Ni2 2.531433 1_555
Al1 Ni2 2.531433 1_556
Al1 Ni0 2.663778 1_556
Al1 Ni0 2.663778 1_555
Al1 La3 3.420818 1_555
Al1 La5 3.420818 1_555
Al2 Ni3 2.531425 1_566
Al2 Ni3 2.531425 1_565
Al2 Ni0 2.663778 1_556
Al2 Ni0 2.663778 1_555
Al2 La3 3.420799 1_565
Al2 La4 3.420809 1_565
Ni1 Ru0 2.590414 1_555
Ni2 Ru0 2.590414 1_555
Ni3 Ru0 2.590414 1_555
