# generated using pymatgen
data_Te2W3(SeS)2
_symmetry_space_group_name_H-M   'P 1'
_cell_length_a   3.34808777
_cell_length_b   3.34808777
_cell_length_c   31.01786300
_cell_angle_alpha   90.00000000
_cell_angle_beta   90.00000000
_cell_angle_gamma   119.99999551
_symmetry_Int_Tables_number   1
_chemical_formula_structural   Te2W3(SeS)2
_chemical_formula_sum   'Te2 W3 Se2 S2'
_cell_volume   301.11763760
_cell_formula_units_Z   1
loop_
 _symmetry_equiv_pos_site_id
 _symmetry_equiv_pos_as_xyz
  1  'x, y, z'
loop_
 _atom_site_type_symbol
 _atom_site_label
 _atom_site_symmetry_multiplicity
 _atom_site_fract_x
 _atom_site_fract_y
 _atom_site_fract_z
 _atom_site_occupancy
  Te  Te0  1  0.33333300  0.66666700  0.51692100  1
  Te  Te1  1  0.33333300  0.66666700  0.63969600  1
  W  W0  1  0.00000000  0.00000000  0.11565300  1
  W  W1  1  0.00000000  0.00000000  0.57834500  1
  W  W2  1  0.33333300  0.66666700  0.34698200  1
  Se  Se0  1  0.33333300  0.66666700  0.06176000  1
  Se  Se1  1  0.33333300  0.66666700  0.16953500  1
  S  S0  1  0.00000000  0.00000000  0.39601300  1
  S  S1  1  0.00000000  0.00000000  0.29793500  1
loop_
_geom_bond_atom_site_label_1
_geom_bond_atom_site_label_2
_geom_bond_distance
_geom_bond_site_symmetry_2
Te0 W1 2.714130 1_565
Te0 W1 2.714132 1_665
Te0 W1 2.714132 1_555
Te1 W1 2.712541 1_565
Te1 W1 2.712543 1_555
Te1 W1 2.712543 1_665
Se0 W0 2.555573 1_565
Se0 W0 2.555576 1_555
Se0 W0 2.555576 1_665
Se1 W0 2.555350 1_565
Se1 W0 2.555353 1_555
Se1 W0 2.555353 1_665
S0 W2 2.459573 1_545
S0 W2 2.459576 1_445
S0 W2 2.459576 1_555
S1 W2 2.459880 1_545
S1 W2 2.459883 1_555
S1 W2 2.459883 1_445
