# generated using pymatgen
data_TaCr3(CuS4)2
_symmetry_space_group_name_H-M   'P 1'
_cell_length_a   11.43266811
_cell_length_b   3.42434300
_cell_length_c   12.00814494
_cell_angle_alpha   90.00000000
_cell_angle_beta   89.45799247
_cell_angle_gamma   90.00000000
_symmetry_Int_Tables_number   1
_chemical_formula_structural   TaCr3(CuS4)2
_chemical_formula_sum   'Ta2 Cr6 Cu4 S16'
_cell_volume   470.09035899
_cell_formula_units_Z   2
loop_
 _symmetry_equiv_pos_site_id
 _symmetry_equiv_pos_as_xyz
  1  'x, y, z'
loop_
 _atom_site_type_symbol
 _atom_site_label
 _atom_site_symmetry_multiplicity
 _atom_site_fract_x
 _atom_site_fract_y
 _atom_site_fract_z
 _atom_site_occupancy
  Ta  Ta0  1  0.14456900  0.25000000  0.70917200  1
  Ta  Ta1  1  0.85543100  0.75000000  0.29082800  1
  Cr  Cr0  1  0.11931200  0.25000000  0.07506200  1
  Cr  Cr1  1  0.88068800  0.75000000  0.92493800  1
  Cr  Cr2  1  0.39056500  0.75000000  0.56886700  1
  Cr  Cr3  1  0.60943500  0.25000000  0.43113300  1
  Cr  Cr4  1  0.35402200  0.75000000  0.20657300  1
  Cr  Cr5  1  0.64597800  0.25000000  0.79342700  1
  Cu  Cu0  1  0.14029000  0.75000000  0.40790500  1
  Cu  Cu1  1  0.85971000  0.25000000  0.59209500  1
  Cu  Cu2  1  0.39198200  0.25000000  0.94759200  1
  Cu  Cu3  1  0.60801800  0.75000000  0.05240800  1
  S  S0  1  0.03158800  0.75000000  0.61111900  1
  S  S1  1  0.96841200  0.25000000  0.38888100  1
  S  S2  1  0.47410000  0.25000000  0.12478300  1
  S  S3  1  0.52590000  0.75000000  0.87521700  1
  S  S4  1  0.02771600  0.25000000  0.88025100  1
  S  S5  1  0.97228400  0.75000000  0.11974900  1
  S  S6  1  0.47259500  0.75000000  0.38359300  1
  S  S7  1  0.52740500  0.25000000  0.61640700  1
  S  S8  1  0.21349000  0.25000000  0.25123600  1
  S  S9  1  0.78651000  0.75000000  0.74876400  1
  S  S10  1  0.28920000  0.75000000  0.75337400  1
  S  S11  1  0.71080000  0.25000000  0.24662600  1
  S  S12  1  0.25343100  0.75000000  0.03080800  1
  S  S13  1  0.74656900  0.25000000  0.96919200  1
  S  S14  1  0.25284900  0.25000000  0.52119600  1
  S  S15  1  0.74715100  0.75000000  0.47880400  1
loop_
_geom_bond_atom_site_label_1
_geom_bond_atom_site_label_2
_geom_bond_distance
_geom_bond_site_symmetry_2
Cr0 S12 2.355766 1_555
Cr0 S12 2.355766 1_545
Cr0 S8 2.382819 1_555
Cr0 S5 2.455181 1_445
Cr0 S5 2.455181 1_455
Cr0 S4 2.572034 1_554
Cr1 S13 2.355766 1_555
Cr1 S13 2.355766 1_565
Cr1 S9 2.382819 1_555
Cr1 S4 2.455181 1_655
Cr1 S4 2.455181 1_665
Cr1 S5 2.572034 1_556
Cr2 S7 2.392030 1_555
Cr2 S7 2.392030 1_565
Cr2 S14 2.399000 1_555
Cr2 S14 2.399000 1_565
Cr2 S6 2.406191 1_555
Cr2 S10 2.490629 1_555
Cr3 S6 2.392030 1_555
Cr3 S6 2.392030 1_545
Cr3 S15 2.399000 1_555
Cr3 S15 2.399000 1_545
Cr3 S7 2.406191 1_555
Cr3 S11 2.490629 1_555
Cr4 S2 2.399009 1_555
Cr4 S2 2.399009 1_565
Cr4 S8 2.405039 1_565
Cr4 S8 2.405039 1_555
Cr4 S12 2.413122 1_555
Cr4 S6 2.531938 1_555
Cr5 S3 2.399009 1_555
Cr5 S3 2.399009 1_545
Cr5 S9 2.405039 1_545
Cr5 S9 2.405039 1_555
Cr5 S13 2.413122 1_555
Cr5 S7 2.531938 1_555
Cu0 S14 2.543887 1_555
Cu0 S14 2.543887 1_565
Cu0 S1 2.617925 1_465
Cu0 S1 2.617925 1_455
Cu0 S8 2.672340 1_555
Cu0 S8 2.672340 1_565
Cu0 S0 2.727957 1_555
Cu1 S15 2.543887 1_545
Cu1 S15 2.543887 1_555
Cu1 S0 2.617925 1_655
Cu1 S0 2.617925 1_645
Cu1 S9 2.672340 1_545
Cu1 S9 2.672340 1_555
Cu1 S1 2.727957 1_555
Cu2 S2 2.333763 1_556
Cu2 S3 2.450665 1_545
Cu2 S3 2.450665 1_555
Cu2 S12 2.531641 1_556
Cu2 S12 2.531641 1_546
Cu3 S3 2.333763 1_554
Cu3 S2 2.450665 1_555
Cu3 S2 2.450665 1_565
Cu3 S13 2.531641 1_554
Cu3 S13 2.531641 1_564
S0 Ta0 2.452566 1_565
S0 Ta0 2.452566 1_555
S1 Ta1 2.452566 1_555
S1 Ta1 2.452566 1_545
S4 Ta0 2.439905 1_555
S5 Ta1 2.439905 1_555
S10 Ta0 2.442128 1_565
S10 Ta0 2.442128 1_555
S11 Ta1 2.442128 1_555
S11 Ta1 2.442128 1_545
S14 Ta0 2.564127 1_555
S15 Ta1 2.564127 1_555
