# generated using pymatgen
data_Ba
_symmetry_space_group_name_H-M   'P 1'
_cell_length_a   7.21107800
_cell_length_b   7.99216000
_cell_length_c   8.00644000
_cell_angle_alpha   90.00000000
_cell_angle_beta   90.00000000
_cell_angle_gamma   90.00000000
_symmetry_Int_Tables_number   1
_chemical_formula_structural   Ba
_chemical_formula_sum   Ba8
_cell_volume   461.42786384
_cell_formula_units_Z   8
loop_
 _symmetry_equiv_pos_site_id
 _symmetry_equiv_pos_as_xyz
  1  'x, y, z'
loop_
 _atom_site_type_symbol
 _atom_site_label
 _atom_site_symmetry_multiplicity
 _atom_site_fract_x
 _atom_site_fract_y
 _atom_site_fract_z
 _atom_site_occupancy
  Ba  Ba0_0  1  0.25000000  0.25000000  0.25000000  1
  Ba  Ba0_1  1  0.25000000  0.25000000  0.75000000  1
  Ba  Ba0_2  1  0.25000000  0.75000000  0.25000000  1
  Ba  Ba0_3  1  0.25000000  0.75000000  0.75000000  1
  Ba  Ba0_4  1  0.75000000  0.25000000  0.25000000  1
  Ba  Ba0_5  1  0.75000000  0.25000000  0.75000000  1
  Ba  Ba0_6  1  0.75000000  0.75000000  0.25000000  1
  Ba  Ba0_7  1  0.75000000  0.75000000  0.75000000  1
loop_
_geom_bond_atom_site_label_1
_geom_bond_atom_site_label_2
_geom_bond_distance
_geom_bond_site_symmetry_2
Ba0_0 Ba0_4 3.605539 1_555
Ba0_0 Ba0_4 3.605539 1_455
Ba0_0 Ba0_2 3.996080 1_555
Ba0_0 Ba0_2 3.996080 1_545
Ba0_0 Ba0_1 4.003220 1_554
Ba0_0 Ba0_1 4.003220 1_555
Ba0_1 Ba0_5 3.605539 1_555
Ba0_1 Ba0_5 3.605539 1_455
Ba0_1 Ba0_3 3.996080 1_545
Ba0_1 Ba0_3 3.996080 1_555
Ba0_2 Ba0_6 3.605539 1_555
Ba0_2 Ba0_6 3.605539 1_455
Ba0_2 Ba0_3 4.003220 1_554
Ba0_2 Ba0_3 4.003220 1_555
Ba0_3 Ba0_7 3.605539 1_555
Ba0_3 Ba0_7 3.605539 1_455
Ba0_4 Ba0_6 3.996080 1_555
Ba0_4 Ba0_6 3.996080 1_545
Ba0_4 Ba0_5 4.003220 1_554
Ba0_4 Ba0_5 4.003220 1_555
Ba0_5 Ba0_7 3.996080 1_545
Ba0_5 Ba0_7 3.996080 1_555
Ba0_6 Ba0_7 4.003220 1_554
Ba0_6 Ba0_7 4.003220 1_555
