# generated using pymatgen
data_LiAl2H4Pb2(O2F3)2
_symmetry_space_group_name_H-M   'P 1'
_cell_length_a   7.37151641
_cell_length_b   7.36182828
_cell_length_c   4.95553721
_cell_angle_alpha   96.67066482
_cell_angle_beta   98.31647863
_cell_angle_gamma   112.24195003
_symmetry_Int_Tables_number   1
_chemical_formula_structural   LiAl2H4Pb2(O2F3)2
_chemical_formula_sum   'Li1 Al2 H4 Pb2 O4 F6'
_cell_volume   241.97232117
_cell_formula_units_Z   1
loop_
 _symmetry_equiv_pos_site_id
 _symmetry_equiv_pos_as_xyz
  1  'x, y, z'
loop_
 _atom_site_type_symbol
 _atom_site_label
 _atom_site_symmetry_multiplicity
 _atom_site_fract_x
 _atom_site_fract_y
 _atom_site_fract_z
 _atom_site_occupancy
  Li  Li0  1  0.50000000  0.00000000  0.50000000  1
  Al  Al0  1  0.16829700  0.68383100  0.15523700  1
  Al  Al1  1  0.83170300  0.31616900  0.84476300  1
  H  H0  1  0.15941800  0.49496100  0.68011800  1
  H  H1  1  0.84058200  0.50503900  0.31988200  1
  H  H2  1  0.12559000  0.84586000  0.75064900  1
  H  H3  1  0.87441000  0.15414000  0.24935100  1
  Pb  Pb0  1  0.74116000  0.76904500  0.90293300  1
  Pb  Pb1  1  0.25884000  0.23095500  0.09706700  1
  O  O0  1  0.11059600  0.46935900  0.85414800  1
  O  O1  1  0.88940400  0.53064100  0.14585200  1
  O  O2  1  0.09179400  0.85246500  0.93735900  1
  O  O3  1  0.90820600  0.14753500  0.06264100  1
  F  F0  1  0.20967500  0.87158400  0.46155200  1
  F  F1  1  0.79032500  0.12841600  0.53844900  1
  F  F2  1  0.24449000  0.53728600  0.39312800  1
  F  F3  1  0.75551000  0.46271400  0.60687200  1
  F  F4  1  0.43016900  0.81799200  0.14366700  1
  F  F5  1  0.56983100  0.18200800  0.85633300  1
loop_
_geom_bond_atom_site_label_1
_geom_bond_atom_site_label_2
_geom_bond_distance
_geom_bond_site_symmetry_2
Al0 F4 1.818519 1_555
Al0 F0 1.834984 1_555
Al0 F2 1.852500 1_555
Al0 O0 1.913318 1_554
Al0 O2 1.921009 1_554
Al0 O1 1.924976 1_455
Al1 F5 1.818519 1_555
Al1 F1 1.834980 1_555
Al1 F3 1.852500 1_555
Al1 O1 1.913318 1_556
Al1 O3 1.921009 1_556
Al1 O0 1.924976 1_655
H0 O0 0.992471 1_555
H1 O1 0.992471 1_555
H2 O2 0.992931 1_555
H3 O3 0.992931 1_555
O0 Pb1 2.699237 1_556
O1 Pb0 2.699237 1_554
O2 Pb0 2.394448 1_455
O2 Pb1 2.552422 1_566
O3 Pb1 2.394448 1_655
O3 Pb0 2.552422 1_544
F0 H2 1.644244 1_555
F0 Li0 1.954162 1_565
F1 H3 1.644248 1_555
F1 Li0 1.954162 1_555
F2 Pb1 2.589640 1_555
F3 Pb0 2.589640 1_555
F4 Li0 1.960529 1_565
F5 Li0 1.960529 1_555
