# generated using pymatgen
data_Sr4CaCr5O15
_symmetry_space_group_name_H-M   'P 1'
_cell_length_a   11.59954838
_cell_length_b   11.59954838
_cell_length_c   11.59954871
_cell_angle_alpha   27.32402445
_cell_angle_beta   27.32402445
_cell_angle_gamma   27.32402346
_symmetry_Int_Tables_number   1
_chemical_formula_structural   Sr4CaCr5O15
_chemical_formula_sum   'Sr4 Ca1 Cr5 O15'
_cell_volume   290.17964624
_cell_formula_units_Z   1
loop_
 _symmetry_equiv_pos_site_id
 _symmetry_equiv_pos_as_xyz
  1  'x, y, z'
loop_
 _atom_site_type_symbol
 _atom_site_label
 _atom_site_symmetry_multiplicity
 _atom_site_fract_x
 _atom_site_fract_y
 _atom_site_fract_z
 _atom_site_occupancy
  Sr  Sr0  1  0.39961700  0.39961700  0.39961700  1
  Sr  Sr1  1  0.79993600  0.79993600  0.79993600  1
  Sr  Sr2  1  0.20006400  0.20006400  0.20006400  1
  Sr  Sr3  1  0.60038300  0.60038300  0.60038300  1
  Ca  Ca0  1  0.00000000  0.00000000  0.00000000  1
  Cr  Cr0  1  0.30026400  0.30026400  0.30026400  1
  Cr  Cr1  1  0.50000000  0.50000000  0.50000000  1
  Cr  Cr2  1  0.90022100  0.90022100  0.90022100  1
  Cr  Cr3  1  0.69973600  0.69973600  0.69973600  1
  Cr  Cr4  1  0.09977900  0.09977900  0.09977900  1
  O  O0  1  0.09771000  0.60502600  0.09771000  1
  O  O1  1  0.29718000  0.80379100  0.29718000  1
  O  O2  1  0.70282000  0.19620900  0.70282000  1
  O  O3  1  0.50000000  0.00000000  0.50000000  1
  O  O4  1  0.90229000  0.39497400  0.90229000  1
  O  O5  1  0.50000000  0.50000000  0.00000000  1
  O  O6  1  0.70282000  0.70282000  0.19620900  1
  O  O7  1  0.09771000  0.09771000  0.60502600  1
  O  O8  1  0.90229000  0.90229000  0.39497400  1
  O  O9  1  0.29718000  0.29718000  0.80379100  1
  O  O10  1  0.60502600  0.09771000  0.09771000  1
  O  O11  1  0.80379100  0.29718000  0.29718000  1
  O  O12  1  0.19620900  0.70282000  0.70282000  1
  O  O13  1  0.00000000  0.50000000  0.50000000  1
  O  O14  1  0.39497400  0.90229000  0.90229000  1
loop_
_geom_bond_atom_site_label_1
_geom_bond_atom_site_label_2
_geom_bond_distance
_geom_bond_site_symmetry_2
Ca0 O0 2.718241 1_545
Ca0 O10 2.718241 1_455
Ca0 O14 2.718241 1_544
Ca0 O4 2.718241 1_454
Ca0 O8 2.718242 1_445
Ca0 O7 2.718242 1_554
Ca0 O5 2.739743 1_545
Ca0 O5 2.739743 1_455
Ca0 O13 2.739743 1_545
Ca0 O3 2.739743 1_455
Ca0 O13 2.739743 1_554
Ca0 O3 2.739743 1_554
Cr0 O5 1.930758 1_555
Cr0 O13 1.930758 1_555
Cr0 O3 1.930758 1_555
Cr0 O7 1.957004 1_555
Cr0 O0 1.957004 1_555
Cr0 O10 1.957004 1_555
Cr1 O6 1.964831 1_555
Cr1 O9 1.964831 1_555
Cr1 O12 1.964831 1_555
Cr1 O2 1.964831 1_555
Cr1 O1 1.964831 1_555
Cr1 O11 1.964831 1_555
Cr2 O6 1.911121 1_556
Cr2 O2 1.911121 1_565
Cr2 O12 1.911121 1_655
Cr2 O7 1.915566 1_665
Cr2 O0 1.915566 1_656
Cr2 O10 1.915566 1_566
Cr3 O5 1.930758 1_556
Cr3 O3 1.930758 1_565
Cr3 O13 1.930758 1_655
Cr3 O8 1.957004 1_555
Cr3 O4 1.957004 1_555
Cr3 O14 1.957004 1_555
Cr4 O9 1.911121 1_554
Cr4 O11 1.911121 1_455
Cr4 O1 1.911121 1_545
Cr4 O8 1.915566 1_445
Cr4 O14 1.915566 1_544
Cr4 O4 1.915566 1_454
O0 Sr3 2.739852 1_554
O0 Sr3 2.739852 1_455
O0 Sr2 2.751387 1_555
O1 Sr1 2.739885 1_554
O1 Sr1 2.739885 1_455
O1 Sr0 2.741442 1_555
O1 Sr2 2.742295 1_565
O2 Sr2 2.739885 1_556
O2 Sr2 2.739885 1_655
O2 Sr3 2.741442 1_555
O2 Sr1 2.742295 1_545
O3 Sr3 2.725186 1_545
O3 Sr0 2.725186 1_555
O4 Sr0 2.739852 1_556
O4 Sr0 2.739852 1_655
O4 Sr1 2.751387 1_555
O5 Sr3 2.725186 1_554
O5 Sr0 2.725186 1_555
O6 Sr2 2.739885 1_565
O6 Sr2 2.739885 1_655
O6 Sr3 2.741442 1_555
O6 Sr1 2.742295 1_554
O7 Sr3 2.739852 1_455
O7 Sr3 2.739852 1_545
O7 Sr2 2.751387 1_555
O8 Sr0 2.739852 1_655
O8 Sr0 2.739852 1_565
O8 Sr1 2.751387 1_555
O9 Sr1 2.739885 1_545
O9 Sr1 2.739885 1_455
O9 Sr0 2.741442 1_555
O9 Sr2 2.742295 1_556
O10 Sr3 2.739852 1_554
O10 Sr3 2.739852 1_545
O10 Sr2 2.751387 1_555
O11 Sr1 2.739885 1_554
O11 Sr1 2.739885 1_545
O11 Sr0 2.741442 1_555
O11 Sr2 2.742295 1_655
O12 Sr2 2.739885 1_556
O12 Sr2 2.739885 1_565
O12 Sr3 2.741442 1_555
O12 Sr1 2.742295 1_455
O13 Sr3 2.725186 1_455
O13 Sr0 2.725186 1_555
O14 Sr0 2.739852 1_556
O14 Sr0 2.739852 1_565
O14 Sr1 2.751387 1_555
