# generated using pymatgen
data_BaCeMg6
_symmetry_space_group_name_H-M   'P 1'
_cell_length_a   5.40206900
_cell_length_b   7.05189000
_cell_length_c   11.99441000
_cell_angle_alpha   90.00000000
_cell_angle_beta   90.00000000
_cell_angle_gamma   90.00000000
_symmetry_Int_Tables_number   1
_chemical_formula_structural   BaCeMg6
_chemical_formula_sum   'Ba2 Ce2 Mg12'
_cell_volume   456.92460641
_cell_formula_units_Z   2
loop_
 _symmetry_equiv_pos_site_id
 _symmetry_equiv_pos_as_xyz
  1  'x, y, z'
loop_
 _atom_site_type_symbol
 _atom_site_label
 _atom_site_symmetry_multiplicity
 _atom_site_fract_x
 _atom_site_fract_y
 _atom_site_fract_z
 _atom_site_occupancy
  Ba  Ba0  1  0.50000000  0.50000000  0.83447800  1
  Ba  Ba1  1  0.50000000  0.00000000  0.33447800  1
  Ce  Ce0  1  0.50000000  0.50000000  0.33908600  1
  Ce  Ce1  1  0.50000000  0.00000000  0.83908600  1
  Mg  Mg0  1  0.50000000  0.25313900  0.08244700  1
  Mg  Mg1  1  0.50000000  0.74686100  0.08244700  1
  Mg  Mg2  1  0.00000000  0.23445000  0.92697900  1
  Mg  Mg3  1  0.00000000  0.76555000  0.92697900  1
  Mg  Mg4  1  0.00000000  0.50000000  0.16049700  1
  Mg  Mg5  1  0.00000000  0.50000000  0.64709100  1
  Mg  Mg6  1  0.50000000  0.75313900  0.58244700  1
  Mg  Mg7  1  0.50000000  0.24686100  0.58244700  1
  Mg  Mg8  1  0.00000000  0.73445000  0.42697900  1
  Mg  Mg9  1  0.00000000  0.26555000  0.42697900  1
  Mg  Mg10  1  0.00000000  0.00000000  0.66049700  1
  Mg  Mg11  1  0.00000000  0.00000000  0.14709100  1
loop_
_geom_bond_atom_site_label_1
_geom_bond_atom_site_label_2
_geom_bond_distance
_geom_bond_site_symmetry_2
Ba0 Mg0 3.446248 1_556
Ba0 Mg1 3.446248 1_556
Ba0 Mg2 3.468906 1_555
Ba0 Mg2 3.468906 1_655
Ba0 Mg3 3.468906 1_555
Ba0 Mg3 3.468906 1_655
Ba0 Mg7 3.510686 1_555
Ba0 Mg6 3.510686 1_555
Ba0 Mg5 3.513869 1_555
Ba0 Mg5 3.513869 1_655
Ba0 Ce1 3.526378 1_565
Ba0 Ce1 3.526378 1_555
Ba1 Mg6 3.446248 1_545
Ba1 Mg7 3.446248 1_555
Ba1 Mg9 3.468906 1_555
Ba1 Mg9 3.468906 1_655
Ba1 Mg8 3.468906 1_645
Ba1 Mg8 3.468906 1_545
Ba1 Mg1 3.510686 1_545
Ba1 Mg0 3.510686 1_555
Ba1 Mg11 3.513869 1_555
Ba1 Mg11 3.513869 1_655
Ba1 Ce0 3.526378 1_545
Ba1 Ce0 3.526378 1_555
Ce0 Mg9 3.337728 1_655
Ce0 Mg9 3.337728 1_555
Ce0 Mg8 3.337728 1_655
Ce0 Mg8 3.337728 1_555
Ce0 Mg7 3.421550 1_555
Ce0 Mg6 3.421550 1_555
Ce0 Mg4 3.447325 1_655
Ce0 Mg4 3.447325 1_555
Ce0 Mg1 3.536387 1_555
Ce0 Mg0 3.536387 1_555
Ce1 Mg3 3.337728 1_545
Ce1 Mg2 3.337728 1_555
Ce1 Mg3 3.337728 1_645
Ce1 Mg2 3.337728 1_655
Ce1 Mg0 3.421550 1_556
Ce1 Mg1 3.421550 1_546
Ce1 Mg10 3.447325 1_655
Ce1 Mg10 3.447325 1_555
Ce1 Mg6 3.536387 1_545
Ce1 Mg7 3.536387 1_555
Mg0 Mg2 3.284850 1_554
Mg0 Mg2 3.284850 1_654
Mg0 Mg11 3.329173 1_555
Mg0 Mg11 3.329173 1_655
Mg0 Mg4 3.347014 1_555
Mg0 Mg4 3.347014 1_655
Mg0 Mg1 3.481673 1_555
Mg0 Mg1 3.570217 1_545
Mg1 Mg3 3.284850 1_654
Mg1 Mg3 3.284850 1_554
Mg1 Mg11 3.329173 1_565
Mg1 Mg11 3.329173 1_665
Mg1 Mg4 3.347014 1_555
Mg1 Mg4 3.347014 1_655
Mg2 Mg3 3.306631 1_545
Mg2 Mg4 3.369249 1_556
Mg3 Mg4 3.369249 1_556
Mg5 Mg8 3.115069 1_555
Mg5 Mg9 3.115069 1_555
Mg5 Mg7 3.329173 1_555
Mg5 Mg6 3.329173 1_455
Mg5 Mg6 3.329173 1_555
Mg5 Mg7 3.329173 1_455
Mg6 Mg8 3.284850 1_655
Mg6 Mg8 3.284850 1_555
Mg6 Mg7 3.481673 1_565
Mg6 Mg7 3.570217 1_555
Mg7 Mg9 3.284850 1_555
Mg7 Mg9 3.284850 1_655
Mg8 Mg9 3.306631 1_555
Mg10 Mg6 3.347014 1_545
Mg10 Mg7 3.347014 1_455
Mg10 Mg7 3.347014 1_555
Mg10 Mg6 3.347014 1_445
Mg10 Mg8 3.369249 1_545
Mg10 Mg9 3.369249 1_555
Mg10 Mg5 3.529610 1_545
Mg10 Mg5 3.529610 1_555
Mg11 Mg2 3.115069 1_554
Mg11 Mg3 3.115069 1_544
Mg11 Mg4 3.529610 1_555
Mg11 Mg4 3.529610 1_545
