# generated using pymatgen
data_Ca5Pt2
_symmetry_space_group_name_H-M   'P 1'
_cell_length_a   6.66443242
_cell_length_b   7.64566957
_cell_length_c   8.73485203
_cell_angle_alpha   96.84534543
_cell_angle_beta   112.42570942
_cell_angle_gamma   90.00000000
_symmetry_Int_Tables_number   1
_chemical_formula_structural   Ca5Pt2
_chemical_formula_sum   'Ca10 Pt4'
_cell_volume   407.98277219
_cell_formula_units_Z   2
loop_
 _symmetry_equiv_pos_site_id
 _symmetry_equiv_pos_as_xyz
  1  'x, y, z'
loop_
 _atom_site_type_symbol
 _atom_site_label
 _atom_site_symmetry_multiplicity
 _atom_site_fract_x
 _atom_site_fract_y
 _atom_site_fract_z
 _atom_site_occupancy
  Ca  Ca0  1  0.98038372  0.91791667  0.17797376  1
  Ca  Ca1  1  0.80240996  0.58208333  0.82202624  1
  Ca  Ca2  1  0.01961628  0.08208333  0.82202624  1
  Ca  Ca3  1  0.19759004  0.41791667  0.17797376  1
  Ca  Ca4  1  0.63819287  0.82204369  0.43445109  1
  Ca  Ca5  1  0.20374178  0.67795631  0.56554891  1
  Ca  Ca6  1  0.36180713  0.17795631  0.56554891  1
  Ca  Ca7  1  0.79625822  0.32204369  0.43445109  1
  Ca  Ca8  1  0.42731615  0.75000000  0.00000000  1
  Ca  Ca9  1  0.57268385  0.25000000  -0.00000000  1
  Pt  Pt0  1  0.82407925  0.58353661  0.22145171  1
  Pt  Pt1  1  0.60262754  0.91646339  0.77854829  1
  Pt  Pt2  1  0.17592075  0.41646339  0.77854829  1
  Pt  Pt3  1  0.39737246  0.08353661  0.22145171  1
loop_
_geom_bond_atom_site_label_1
_geom_bond_atom_site_label_2
_geom_bond_distance
_geom_bond_site_symmetry_2
Ca0 Pt0 2.880729 1_555
Ca0 Pt3 2.924144 1_665
Ca0 Pt1 3.435098 1_554
Ca1 Pt1 2.880729 1_555
Ca1 Pt2 2.924144 1_655
Ca1 Pt0 3.435098 1_556
Ca2 Pt2 2.880729 1_555
Ca2 Pt1 2.924144 1_445
Ca2 Pt3 3.435098 1_556
Ca3 Pt3 2.880729 1_555
Ca3 Pt0 2.924144 1_455
Ca3 Pt2 3.435098 1_554
Ca4 Pt3 2.939891 1_565
Ca4 Pt0 3.044885 1_555
Ca4 Pt1 3.104432 1_555
Ca5 Pt2 2.939891 1_555
Ca5 Pt1 3.044884 1_555
Ca5 Pt0 3.104432 1_455
Ca6 Pt1 2.939891 1_545
Ca6 Pt2 3.044885 1_555
Ca6 Pt3 3.104432 1_555
Ca7 Pt0 2.939891 1_555
Ca7 Pt3 3.044884 1_555
Ca7 Pt2 3.104432 1_655
Ca8 Pt0 3.006285 1_555
Ca8 Pt1 3.006285 1_554
Ca8 Pt2 3.066468 1_554
Ca8 Pt3 3.066468 1_565
Ca9 Pt2 3.006285 1_554
Ca9 Pt3 3.006285 1_555
Ca9 Pt0 3.066468 1_555
Ca9 Pt1 3.066468 1_544
