# generated using pymatgen
data_Ti(Si2O5)2
_symmetry_space_group_name_H-M   'P 1'
_cell_length_a   7.43339800
_cell_length_b   7.43339800
_cell_length_c   14.95549800
_cell_angle_alpha   90.00000000
_cell_angle_beta   90.00000000
_cell_angle_gamma   90.00000000
_symmetry_Int_Tables_number   1
_chemical_formula_structural   Ti(Si2O5)2
_chemical_formula_sum   'Ti4 Si16 O40'
_cell_volume   826.37211133
_cell_formula_units_Z   4
loop_
 _symmetry_equiv_pos_site_id
 _symmetry_equiv_pos_as_xyz
  1  'x, y, z'
loop_
 _atom_site_type_symbol
 _atom_site_label
 _atom_site_symmetry_multiplicity
 _atom_site_fract_x
 _atom_site_fract_y
 _atom_site_fract_z
 _atom_site_occupancy
  Ti  Ti0  1  0.50000000  0.00000000  0.55276900  1
  Ti  Ti1  1  0.00000000  0.50000000  0.94723100  1
  Ti  Ti2  1  0.00000000  0.50000000  0.44723100  1
  Ti  Ti3  1  0.50000000  0.00000000  0.05276900  1
  Si  Si0  1  0.18246600  0.26156300  0.64509600  1
  Si  Si1  1  0.81753400  0.73843700  0.64509600  1
  Si  Si2  1  0.26156300  0.18246600  0.85490400  1
  Si  Si3  1  0.76156300  0.31753400  0.64509600  1
  Si  Si4  1  0.23843700  0.68246600  0.64509600  1
  Si  Si5  1  0.31753400  0.76156300  0.85490400  1
  Si  Si6  1  0.68246600  0.23843700  0.85490400  1
  Si  Si7  1  0.73843700  0.81753400  0.85490400  1
  Si  Si8  1  0.31753400  0.23843700  0.35490400  1
  Si  Si9  1  0.68246600  0.76156300  0.35490400  1
  Si  Si10  1  0.23843700  0.31753400  0.14509600  1
  Si  Si11  1  0.73843700  0.18246600  0.35490400  1
  Si  Si12  1  0.26156300  0.81753400  0.35490400  1
  Si  Si13  1  0.18246600  0.73843700  0.14509600  1
  Si  Si14  1  0.81753400  0.26156300  0.14509600  1
  Si  Si15  1  0.76156300  0.68246600  0.14509600  1
  O  O0  1  0.28648000  0.11682600  0.58362100  1
  O  O1  1  0.71352000  0.88317400  0.58362100  1
  O  O2  1  0.11682600  0.28648000  0.91637900  1
  O  O3  1  0.61682600  0.21352000  0.58362100  1
  O  O4  1  0.38317400  0.78648000  0.58362100  1
  O  O5  1  0.21352000  0.61682600  0.91637900  1
  O  O6  1  0.78648000  0.38317400  0.91637900  1
  O  O7  1  0.88317400  0.71352000  0.91637900  1
  O  O8  1  0.21352000  0.38317400  0.41637900  1
  O  O9  1  0.78648000  0.61682600  0.41637900  1
  O  O10  1  0.38317400  0.21352000  0.08362100  1
  O  O11  1  0.88317400  0.28648000  0.41637900  1
  O  O12  1  0.11682600  0.71352000  0.41637900  1
  O  O13  1  0.28648000  0.88317400  0.08362100  1
  O  O14  1  0.71352000  0.11682600  0.08362100  1
  O  O15  1  0.25370500  0.03260100  0.37815800  1
  O  O16  1  0.61682600  0.78648000  0.08362100  1
  O  O17  1  0.75370500  0.53260100  0.62184200  1
  O  O18  1  0.46739900  0.24629500  0.87815800  1
  O  O19  1  0.96739900  0.25370500  0.62184200  1
  O  O20  1  0.03260100  0.74629500  0.62184200  1
  O  O21  1  0.25370500  0.96739900  0.87815800  1
  O  O22  1  0.74629500  0.03260100  0.87815800  1
  O  O23  1  0.53260100  0.75370500  0.87815800  1
  O  O24  1  0.71696900  0.71696900  0.25000000  1
  O  O25  1  0.78303100  0.21696900  0.25000000  1
  O  O26  1  0.21696900  0.78303100  0.25000000  1
  O  O27  1  0.28303100  0.28303100  0.25000000  1
  O  O28  1  0.78303100  0.78303100  0.75000000  1
  O  O29  1  0.71696900  0.28303100  0.75000000  1
  O  O30  1  0.28303100  0.71696900  0.75000000  1
  O  O31  1  0.21696900  0.21696900  0.75000000  1
  O  O32  1  0.96739900  0.74629500  0.12184200  1
  O  O33  1  0.75370500  0.46739900  0.12184200  1
  O  O34  1  0.24629500  0.53260100  0.12184200  1
  O  O35  1  0.46739900  0.75370500  0.37815800  1
  O  O36  1  0.53260100  0.24629500  0.37815800  1
  O  O37  1  0.03260100  0.25370500  0.12184200  1
  O  O38  1  0.74629500  0.96739900  0.37815800  1
  O  O39  1  0.24629500  0.46739900  0.62184200  1
loop_
_geom_bond_atom_site_label_1
_geom_bond_atom_site_label_2
_geom_bond_distance
_geom_bond_site_symmetry_2
O0 Si0 1.612642 1_555
O0 Ti0 1.867131 1_555
O1 Si1 1.612642 1_555
O1 Ti0 1.867131 1_565
O2 Si2 1.612642 1_555
O2 Ti1 1.867131 1_555
O3 Si3 1.612642 1_555
O3 Ti0 1.867131 1_555
O4 Si4 1.612642 1_555
O4 Ti0 1.867131 1_565
O5 Si5 1.612642 1_555
O5 Ti1 1.867131 1_555
O6 Si6 1.612642 1_555
O6 Ti1 1.867131 1_655
O7 Si7 1.612642 1_555
O7 Ti1 1.867131 1_655
O8 Si8 1.612642 1_555
O8 Ti2 1.867131 1_555
O9 Si9 1.612642 1_555
O9 Ti2 1.867131 1_655
O10 Si10 1.612642 1_555
O10 Ti3 1.867131 1_555
O11 Si11 1.612642 1_555
O11 Ti2 1.867131 1_655
O12 Si12 1.612642 1_555
O12 Ti2 1.867131 1_555
O13 Si13 1.612642 1_555
O13 Ti3 1.867131 1_565
O14 Si14 1.612642 1_555
O14 Ti3 1.867131 1_555
O15 Si12 1.637111 1_545
O15 Si8 1.639254 1_555
O16 Si15 1.612642 1_555
O16 Ti3 1.867131 1_565
O17 Si3 1.637111 1_555
O17 Si1 1.639254 1_555
O18 Si6 1.637111 1_555
O18 Si2 1.639254 1_555
O19 Si0 1.637111 1_655
O19 Si3 1.639254 1_555
O20 Si1 1.637111 1_455
O20 Si4 1.639254 1_555
O21 Si2 1.637111 1_565
O21 Si5 1.639254 1_555
O22 Si7 1.637111 1_545
O22 Si6 1.639254 1_555
O23 Si5 1.637111 1_555
O23 Si7 1.639254 1_555
O24 Si15 1.623910 1_555
O24 Si9 1.623910 1_555
O25 Si11 1.623910 1_555
O25 Si14 1.623910 1_555
O26 Si13 1.623910 1_555
O26 Si12 1.623910 1_555
O27 Si8 1.623910 1_555
O27 Si10 1.623910 1_555
O28 Si1 1.623910 1_555
O28 Si7 1.623910 1_555
O29 Si6 1.623910 1_555
O29 Si3 1.623910 1_555
O30 Si5 1.623910 1_555
O30 Si4 1.623910 1_555
O31 Si0 1.623910 1_555
O31 Si2 1.623910 1_555
O32 Si13 1.637111 1_655
O32 Si15 1.639254 1_555
O33 Si15 1.637111 1_555
O33 Si14 1.639254 1_555
O34 Si10 1.637111 1_555
O34 Si13 1.639254 1_555
O35 Si9 1.637111 1_555
O35 Si12 1.639254 1_555
O36 Si8 1.637111 1_555
O36 Si11 1.639254 1_555
O37 Si14 1.637111 1_455
O37 Si10 1.639254 1_555
O38 Si11 1.637111 1_565
O38 Si9 1.639254 1_555
O39 Si4 1.637111 1_555
O39 Si0 1.639254 1_555
