# generated using pymatgen
data_B20H30C2S
_symmetry_space_group_name_H-M   'P 1'
_cell_length_a   7.34617820
_cell_length_b   10.91967098
_cell_length_c   27.79895230
_cell_angle_alpha   90.00000000
_cell_angle_beta   90.00000000
_cell_angle_gamma   97.23840480
_symmetry_Int_Tables_number   1
_chemical_formula_structural   B20H30C2S
_chemical_formula_sum   'B80 H120 C8 S4'
_cell_volume   2212.20032181
_cell_formula_units_Z   4
loop_
 _symmetry_equiv_pos_site_id
 _symmetry_equiv_pos_as_xyz
  1  'x, y, z'
loop_
 _atom_site_type_symbol
 _atom_site_label
 _atom_site_symmetry_multiplicity
 _atom_site_fract_x
 _atom_site_fract_y
 _atom_site_fract_z
 _atom_site_occupancy
  B  B0  1  0.45163920  0.58150379  0.42145108  1
  B  B1  1  0.95163920  0.08150379  0.07854892  1
  B  B2  1  0.54836080  0.41849621  0.57854892  1
  B  B3  1  0.04836080  0.91849621  0.92145108  1
  B  B4  1  0.64664504  0.69293575  0.42916438  1
  B  B5  1  0.14664504  0.19293575  0.07083562  1
  B  B6  1  0.35335496  0.30706425  0.57083562  1
  B  B7  1  0.85335496  0.80706425  0.92916438  1
  B  B8  1  0.62886229  0.60017830  0.37692892  1
  B  B9  1  0.12886229  0.10017830  0.12307108  1
  B  B10  1  0.37113771  0.39982170  0.62307108  1
  B  B11  1  0.87113771  0.89982170  0.87692892  1
  B  B12  1  0.39655946  0.54648066  0.35893554  1
  B  B13  1  0.89655946  0.04648066  0.14106446  1
  B  B14  1  0.60344054  0.45351934  0.64106446  1
  B  B15  1  0.10344054  0.95351934  0.85893554  1
  B  B16  1  0.41929574  0.73012046  0.43775730  1
  B  B17  1  0.91929574  0.23012046  0.06224270  1
  B  B18  1  0.58070426  0.26987954  0.56224270  1
  B  B19  1  0.08070426  0.76987954  0.93775730  1
  B  B20  1  0.57974026  0.83747162  0.41596542  1
  B  B21  1  0.07974026  0.33747162  0.08403458  1
  B  B22  1  0.42025974  0.16252838  0.58403458  1
  B  B23  1  0.92025974  0.66252838  0.91596542  1
  B  B24  1  0.69891540  0.76158701  0.37207522  1
  B  B25  1  0.19891540  0.26158701  0.12792478  1
  B  B26  1  0.30108460  0.23841299  0.62792478  1
  B  B27  1  0.80108460  0.73841299  0.87207522  1
  B  B28  1  0.54182923  0.65767472  0.32465215  1
  B  B29  1  0.04182923  0.15767472  0.17534785  1
  B  B30  1  0.45817077  0.34232528  0.67534785  1
  B  B31  1  0.95817077  0.84232528  0.82465215  1
  B  B32  1  0.30318630  0.66521049  0.33096171  1
  B  B33  1  0.80318630  0.16521049  0.16903829  1
  B  B34  1  0.69681370  0.33478951  0.66903829  1
  B  B35  1  0.19681370  0.83478951  0.83096171  1
  B  B36  1  0.26405721  0.64668974  0.39382480  1
  B  B37  1  0.76405721  0.14668974  0.10617520  1
  B  B38  1  0.73594279  0.35331026  0.60617520  1
  B  B39  1  0.23594279  0.85331026  0.89382480  1
  B  B40  1  0.22494372  0.27881669  0.37913105  1
  B  B41  1  0.72494372  0.77881669  0.12086895  1
  B  B42  1  0.77505628  0.72118331  0.62086895  1
  B  B43  1  0.27505628  0.22118331  0.87913105  1
  B  B44  1  0.33312162  0.39739696  0.34011056  1
  B  B45  1  0.83312162  0.89739696  0.15988944  1
  B  B46  1  0.66687838  0.60260304  0.65988944  1
  B  B47  1  0.16687838  0.10260304  0.84011056  1
  B  B48  1  0.45217217  0.27136132  0.35889216  1
  B  B49  1  0.95217217  0.77136132  0.14110784  1
  B  B50  1  0.54782783  0.72863868  0.64110784  1
  B  B51  1  0.04782783  0.22863868  0.85889216  1
  B  B52  1  0.30839798  0.13318340  0.37429850  1
  B  B53  1  0.80839798  0.63318340  0.12570150  1
  B  B54  1  0.69160202  0.86681660  0.62570150  1
  B  B55  1  0.19160202  0.36681660  0.87429850  1
  B  B56  1  0.10006863  0.32594507  0.33056041  1
  B  B57  1  0.60006863  0.82594507  0.16943959  1
  B  B58  1  0.89993137  0.67405493  0.66943959  1
  B  B59  1  0.39993137  0.17405493  0.83056041  1
  B  B60  1  0.25223937  0.36700809  0.28201528  1
  B  B61  1  0.75223937  0.86700809  0.21798472  1
  B  B62  1  0.74776063  0.63299191  0.71798472  1
  B  B63  1  0.24776063  0.13299191  0.78201528  1
  B  B64  1  0.46227514  0.31431075  0.29839759  1
  B  B65  1  0.96227514  0.81431075  0.20160241  1
  B  B66  1  0.53772486  0.68568925  0.70160241  1
  B  B67  1  0.03772486  0.18568925  0.79839759  1
  B  B68  1  0.44626123  0.14239420  0.32112895  1
  B  B69  1  0.94626123  0.64239420  0.17887105  1
  B  B70  1  0.55373877  0.85760580  0.67887105  1
  B  B71  1  0.05373877  0.35760580  0.82112895  1
  B  B72  1  0.22367158  0.05619037  0.32340837  1
  B  B73  1  0.72367158  0.55619037  0.17659163  1
  B  B74  1  0.77632842  0.94380963  0.67659163  1
  B  B75  1  0.27632842  0.44380963  0.82340837  1
  B  B76  1  0.08411834  0.15411201  0.35358074  1
  B  B77  1  0.58411834  0.65411201  0.14641926  1
  B  B78  1  0.91588166  0.84588799  0.64641926  1
  B  B79  1  0.41588166  0.34588799  0.85358074  1
  H  H0  1  0.41737622  0.49572442  0.44831690  1
  H  H1  1  0.91737622  0.99572442  0.05168310  1
  H  H2  1  0.58262378  0.50427558  0.55168310  1
  H  H3  1  0.08262378  0.00427558  0.94831690  1
  H  H4  1  0.75726569  0.68036379  0.45987466  1
  H  H5  1  0.25726569  0.18036379  0.04012534  1
  H  H6  1  0.24273431  0.31963621  0.54012534  1
  H  H7  1  0.74273431  0.81963621  0.95987466  1
  H  H8  1  0.74569679  0.53518237  0.36975491  1
  H  H9  1  0.24569679  0.03518237  0.13024509  1
  H  H10  1  0.25430321  0.46481763  0.63024509  1
  H  H11  1  0.75430321  0.96481763  0.86975491  1
  H  H12  1  0.05885435  0.82506495  0.46529776  1
  H  H13  1  0.55885435  0.32506495  0.03470224  1
  H  H14  1  0.94114565  0.17493505  0.53470224  1
  H  H15  1  0.44114565  0.67493505  0.96529776  1
  H  H16  1  0.23032519  0.95441871  0.47785625  1
  H  H17  1  0.73032519  0.45441871  0.02214375  1
  H  H18  1  0.76967481  0.04558129  0.52214375  1
  H  H19  1  0.26967481  0.54558129  0.97785625  1
  H  H20  1  0.10048818  0.87818190  0.52633924  1
  H  H21  1  0.60048818  0.37818190  0.97366076  1
  H  H22  1  0.89951182  0.12181810  0.47366076  1
  H  H23  1  0.39951182  0.62181810  0.02633924  1
  H  H24  1  0.13466992  0.65499232  0.55640802  1
  H  H25  1  0.63466992  0.15499232  0.94359198  1
  H  H26  1  0.86533008  0.34500768  0.44359198  1
  H  H27  1  0.36533008  0.84500768  0.05640802  1
  H  H28  1  0.27590426  0.55609409  0.52668968  1
  H  H29  1  0.77590426  0.05609409  0.97331032  1
  H  H30  1  0.72409574  0.44390591  0.47331032  1
  H  H31  1  0.22409574  0.94390591  0.02668968  1
  H  H32  1  0.08071656  0.60399750  0.49576215  1
  H  H33  1  0.58071656  0.10399750  0.00423785  1
  H  H34  1  0.91928344  0.39600250  0.50423785  1
  H  H35  1  0.41928344  0.89600250  0.99576215  1
  H  H36  1  0.63467028  0.93793648  0.43104400  1
  H  H37  1  0.13467028  0.43793648  0.06895600  1
  H  H38  1  0.36532972  0.06206352  0.56895600  1
  H  H39  1  0.86532972  0.56206352  0.93104400  1
  H  H40  1  0.58626344  0.84612030  0.36820329  1
  H  H41  1  0.08626344  0.34612030  0.13179671  1
  H  H42  1  0.41373656  0.15387970  0.63179671  1
  H  H43  1  0.91373656  0.65387970  0.86820329  1
  H  H44  1  0.84319768  0.80519927  0.35574499  1
  H  H45  1  0.34319768  0.30519927  0.14425501  1
  H  H46  1  0.15680232  0.19480073  0.64425501  1
  H  H47  1  0.65680232  0.69480073  0.85574499  1
  H  H48  1  0.44184270  0.74945841  0.31741722  1
  H  H49  1  0.94184270  0.24945841  0.18258278  1
  H  H50  1  0.55815730  0.25054159  0.68258278  1
  H  H51  1  0.05815730  0.75054159  0.81741722  1
  H  H52  1  0.60582453  0.64009959  0.28595448  1
  H  H53  1  0.10582453  0.14009959  0.21404552  1
  H  H54  1  0.39417547  0.35990041  0.71404552  1
  H  H55  1  0.89417547  0.85990041  0.78595448  1
  H  H56  1  0.19109783  0.65784433  0.29971219  1
  H  H57  1  0.69109783  0.15784433  0.20028781  1
  H  H58  1  0.80890217  0.34215567  0.70028781  1
  H  H59  1  0.30890217  0.84215567  0.79971219  1
  H  H60  1  0.25918014  0.74295683  0.36438755  1
  H  H61  1  0.75918014  0.24295683  0.13561245  1
  H  H62  1  0.74081986  0.25704317  0.63561245  1
  H  H63  1  0.24081986  0.75704317  0.86438755  1
  H  H64  1  0.10719808  0.61855030  0.40557345  1
  H  H65  1  0.60719808  0.11855030  0.09442655  1
  H  H66  1  0.89280192  0.38144970  0.59442655  1
  H  H67  1  0.39280192  0.88144970  0.90557345  1
  H  H68  1  0.17553067  0.30918364  0.41785573  1
  H  H69  1  0.67553067  0.80918364  0.08214427  1
  H  H70  1  0.82446933  0.69081636  0.58214427  1
  H  H71  1  0.32446933  0.19081636  0.91785573  1
  H  H72  1  0.59337232  0.29551122  0.38025600  1
  H  H73  1  0.09337232  0.79551122  0.11974400  1
  H  H74  1  0.40662768  0.70448878  0.61974400  1
  H  H75  1  0.90662768  0.20448878  0.88025600  1
  H  H76  1  0.33911673  0.07647212  0.40937409  1
  H  H77  1  0.83911673  0.57647212  0.09062591  1
  H  H78  1  0.66088327  0.92352788  0.59062591  1
  H  H79  1  0.16088327  0.42352788  0.90937409  1
  H  H80  1  0.09788015  0.28706629  0.28547807  1
  H  H81  1  0.59788015  0.78706629  0.21452193  1
  H  H82  1  0.90211985  0.71293371  0.71452193  1
  H  H83  1  0.40211985  0.21293371  0.78547807  1
  H  H84  1  0.96416498  0.37458880  0.33446279  1
  H  H85  1  0.46416498  0.87458880  0.16553721  1
  H  H86  1  0.03583502  0.62541120  0.66553721  1
  H  H87  1  0.53583502  0.12541120  0.83446279  1
  H  H88  1  0.22851954  0.43471127  0.24960416  1
  H  H89  1  0.72851954  0.93471127  0.25039584  1
  H  H90  1  0.77148046  0.56528873  0.75039584  1
  H  H91  1  0.27148046  0.06528873  0.74960416  1
  H  H92  1  0.34554694  0.28002952  0.26326089  1
  H  H93  1  0.84554694  0.78002952  0.23673911  1
  H  H94  1  0.65445306  0.71997048  0.73673911  1
  H  H95  1  0.15445306  0.21997048  0.76326089  1
  H  H96  1  0.60050478  0.35375539  0.27808780  1
  H  H97  1  0.10050478  0.85375539  0.22191220  1
  H  H98  1  0.39949522  0.64624461  0.72191220  1
  H  H99  1  0.89949522  0.14624461  0.77808780  1
  H  H100  1  0.57607649  0.09001848  0.31320214  1
  H  H101  1  0.07607649  0.59001848  0.18679786  1
  H  H102  1  0.42392351  0.90998152  0.68679786  1
  H  H103  1  0.92392351  0.40998152  0.81320214  1
  H  H104  1  0.32779510  0.10322685  0.28662846  1
  H  H105  1  0.82779510  0.60322685  0.21337154  1
  H  H106  1  0.67220490  0.89677315  0.71337154  1
  H  H107  1  0.17220490  0.39677315  0.78662846  1
  H  H108  1  0.18608123  0.94870836  0.31559295  1
  H  H109  1  0.68608123  0.44870836  0.18440705  1
  H  H110  1  0.81391877  0.05129164  0.68440705  1
  H  H111  1  0.31391877  0.55129164  0.81559295  1
  H  H112  1  0.07938257  0.11079849  0.30891757  1
  H  H113  1  0.57938257  0.61079849  0.19108243  1
  H  H114  1  0.92061743  0.88920151  0.69108243  1
  H  H115  1  0.42061743  0.38920151  0.80891757  1
  H  H116  1  0.94078933  0.11073688  0.37033135  1
  H  H117  1  0.44078933  0.61073688  0.12966865  1
  H  H118  1  0.05921067  0.88926312  0.62966865  1
  H  H119  1  0.55921067  0.38926312  0.87033135  1
  C  C0  1  0.16266522  0.86597909  0.49102185  1
  C  C1  1  0.66266522  0.36597909  0.00897815  1
  C  C2  1  0.83733478  0.13402091  0.50897815  1
  C  C3  1  0.33733478  0.63402091  0.99102185  1
  C  C4  1  0.19064967  0.63059856  0.52166142  1
  C  C5  1  0.69064967  0.13059856  0.97833858  1
  C  C6  1  0.80935033  0.36940144  0.47833858  1
  C  C7  1  0.30935033  0.86940144  0.02166142  1
  S  S0  1  0.33552642  0.76432999  0.49989845  1
  S  S1  1  0.83552642  0.26432999  0.00010155  1
  S  S2  1  0.66447358  0.23567001  0.50010155  1
  S  S3  1  0.16447358  0.73567001  0.99989845  1
loop_
_geom_bond_atom_site_label_1
_geom_bond_atom_site_label_2
_geom_bond_distance
_geom_bond_site_symmetry_2
B0 H0 1.199620 1_555
B0 B16 1.729949 1_555
B0 B12 1.814158 1_555
B1 H1 1.199620 1_545
B1 B17 1.729949 1_555
B1 B13 1.814158 1_555
B2 H2 1.199620 1_555
B3 H3 1.199620 1_565
B4 H4 1.198402 1_555
B5 H5 1.198402 1_555
B6 H6 1.198402 1_555
B7 H7 1.198402 1_555
B8 H8 1.197354 1_555
B9 H9 1.197354 1_555
B10 H10 1.197354 1_555
B10 B14 1.803920 1_555
B11 H11 1.197354 1_555
B11 B15 1.803920 1_655
B12 B44 1.717575 1_555
B12 B32 1.726334 1_555
B12 B28 1.787433 1_555
B12 B8 1.803920 1_555
B12 B36 1.831378 1_555
B13 B45 1.717575 1_545
B13 B33 1.726334 1_555
B13 B29 1.787433 1_655
B13 B9 1.803920 1_655
B13 B37 1.831378 1_555
B14 B46 1.717575 1_555
B14 B34 1.726334 1_555
B14 B30 1.787433 1_555
B14 B2 1.814158 1_555
B14 B38 1.831378 1_555
B15 B47 1.717575 1_565
B15 B35 1.726334 1_555
B15 B31 1.787433 1_455
B15 B3 1.814158 1_555
B15 B39 1.831378 1_555
B16 B20 1.667987 1_555
B16 B4 1.783878 1_555
B16 B36 1.833092 1_555
B16 S0 1.886872 1_555
B17 B21 1.667987 1_655
B17 B5 1.783878 1_655
B17 B37 1.833092 1_555
B17 S1 1.886872 1_555
B18 B22 1.667987 1_555
B18 B2 1.729949 1_555
B18 B6 1.783878 1_555
B18 B38 1.833092 1_555
B18 S2 1.886872 1_555
B19 B23 1.667987 1_455
B19 B3 1.729949 1_555
B19 B7 1.783878 1_455
B19 B39 1.833092 1_555
B19 S3 1.886872 1_555
B20 H36 1.196028 1_555
B20 H40 1.331526 1_555
B21 H37 1.196028 1_555
B21 H41 1.331526 1_555
B22 H38 1.196028 1_555
B22 H42 1.331526 1_555
B23 H39 1.196028 1_555
B23 H43 1.331526 1_555
B24 H44 1.195457 1_555
B24 H40 1.319474 1_555
B25 H45 1.195457 1_555
B25 H41 1.319474 1_555
B26 H46 1.195457 1_555
B26 H42 1.319474 1_555
B27 H47 1.195457 1_555
B27 H43 1.319474 1_555
B28 H52 1.199095 1_555
B28 H48 1.330406 1_555
B29 H53 1.199095 1_555
B29 H49 1.330406 1_455
B30 H54 1.199095 1_555
B30 H50 1.330406 1_555
B31 H55 1.199095 1_555
B31 H51 1.330406 1_655
B32 H56 1.192665 1_555
B32 H60 1.325831 1_555
B32 H48 1.337719 1_555
B33 H57 1.192665 1_555
B33 H61 1.325831 1_555
B33 H49 1.337719 1_555
B34 H58 1.192665 1_555
B34 H62 1.325831 1_555
B34 H50 1.337719 1_555
B35 H59 1.192665 1_555
B35 H63 1.325831 1_555
B35 H51 1.337719 1_555
B36 H64 1.199870 1_555
B36 H60 1.336212 1_555
B37 H65 1.199870 1_555
B37 H61 1.336212 1_555
B38 H66 1.199870 1_555
B38 H62 1.336212 1_555
B39 H67 1.199870 1_555
B39 H63 1.336212 1_555
B40 H68 1.196211 1_555
B40 B44 1.795974 1_555
B41 H69 1.196211 1_555
B41 B45 1.795974 1_555
B42 H70 1.196211 1_555
B42 B46 1.795974 1_555
B43 H71 1.196211 1_555
B43 B47 1.795974 1_555
B44 B60 1.738292 1_555
B44 B48 1.798580 1_555
B44 B56 1.809347 1_555
B44 B64 1.812423 1_555
B45 B61 1.738292 1_555
B45 B49 1.798580 1_555
B45 B57 1.809347 1_555
B45 B65 1.812423 1_555
B46 B62 1.738292 1_555
B46 B50 1.798580 1_555
B46 B58 1.809347 1_555
B46 B66 1.812423 1_555
B47 B63 1.738292 1_555
B47 B51 1.798580 1_555
B47 B59 1.809347 1_555
B47 B67 1.812423 1_555
B48 H72 1.195522 1_555
B49 H73 1.195522 1_655
B50 H74 1.195522 1_555
B51 H75 1.195522 1_455
B52 H76 1.191799 1_555
B53 H77 1.191799 1_555
B54 H78 1.191799 1_555
B55 H79 1.191799 1_555
B56 H84 1.193439 1_455
B56 H80 1.322645 1_555
B57 H85 1.193439 1_555
B57 H81 1.322645 1_555
B58 H86 1.193439 1_655
B58 H82 1.322645 1_555
B59 H87 1.193439 1_555
B59 H83 1.322645 1_555
B60 H88 1.192131 1_555
B60 H80 1.344503 1_555
B60 H92 1.344541 1_555
B61 H89 1.192131 1_555
B61 H81 1.344503 1_555
B61 H93 1.344541 1_555
B62 H90 1.192131 1_555
B62 H82 1.344503 1_555
B62 H94 1.344541 1_555
B63 H91 1.192131 1_555
B63 H83 1.344503 1_555
B63 H95 1.344541 1_555
B64 H96 1.193828 1_555
B64 H92 1.322355 1_555
B65 H97 1.193828 1_655
B65 H93 1.322355 1_555
B66 H98 1.193828 1_555
B66 H94 1.322355 1_555
B67 H99 1.193828 1_455
B67 H95 1.322355 1_555
B68 H100 1.192703 1_555
B68 H104 1.329034 1_555
B69 H101 1.192703 1_655
B69 H105 1.329034 1_555
B70 H102 1.192703 1_555
B70 H106 1.329034 1_555
B71 H103 1.192703 1_455
B71 H107 1.329034 1_555
B72 H108 1.191336 1_545
B72 H104 1.339881 1_555
B72 H112 1.341890 1_555
B73 H109 1.191336 1_555
B73 H105 1.339881 1_555
B73 H113 1.341890 1_555
B74 H110 1.191336 1_565
B74 H106 1.339881 1_555
B74 H114 1.341890 1_555
B75 H111 1.191336 1_555
B75 H107 1.339881 1_555
B75 H115 1.341890 1_555
B76 H116 1.193371 1_455
B76 H112 1.327519 1_555
B77 H117 1.193371 1_555
B77 H113 1.327519 1_555
B78 H118 1.193371 1_655
B78 H114 1.327519 1_555
B79 H119 1.193371 1_555
B79 H115 1.327519 1_555
C0 H16 1.092097 1_555
C0 H20 1.098012 1_555
C0 H12 1.098497 1_555
C0 S0 1.805740 1_555
C1 H17 1.092097 1_555
C1 H21 1.098012 1_554
C1 H13 1.098497 1_555
C1 S1 1.805740 1_555
C2 H18 1.092097 1_555
C2 H22 1.098012 1_555
C2 H14 1.098497 1_555
C2 S2 1.805740 1_555
C3 H19 1.092097 1_555
C3 H23 1.098012 1_556
C3 H15 1.098497 1_555
C3 S3 1.805740 1_555
C4 H32 1.093536 1_555
C4 H24 1.095753 1_555
C4 H28 1.096390 1_555
C4 S0 1.799878 1_555
C5 H33 1.093536 1_556
C5 H25 1.095753 1_555
C5 H29 1.096390 1_555
C5 S1 1.799878 1_556
C6 H34 1.093536 1_555
C6 H26 1.095753 1_555
C6 H30 1.096390 1_555
C6 S2 1.799878 1_555
C7 H35 1.093536 1_554
C7 H27 1.095753 1_555
C7 H31 1.096390 1_555
C7 S3 1.799878 1_554
