# generated using pymatgen
data_YErAl6(BO3)8
_symmetry_space_group_name_H-M   'P 1'
_cell_length_a   9.35466300
_cell_length_b   5.92081400
_cell_length_c   7.26012296
_cell_angle_alpha   66.12305177
_cell_angle_beta   90.00000000
_cell_angle_gamma   90.00000000
_symmetry_Int_Tables_number   1
_chemical_formula_structural   YErAl6(BO3)8
_chemical_formula_sum   'Y1 Er1 Al6 B8 O24'
_cell_volume   367.70351072
_cell_formula_units_Z   1
loop_
 _symmetry_equiv_pos_site_id
 _symmetry_equiv_pos_as_xyz
  1  'x, y, z'
loop_
 _atom_site_type_symbol
 _atom_site_label
 _atom_site_symmetry_multiplicity
 _atom_site_fract_x
 _atom_site_fract_y
 _atom_site_fract_z
 _atom_site_occupancy
  Y  Y0  1  0.00005200  0.00000000  0.00000000  1
  Er  Er0  1  0.50000600  0.00000000  0.50000000  1
  Al  Al0  1  0.77768000  0.55591400  0.77771300  1
  Al  Al1  1  0.27801200  0.55542200  0.27800200  1
  Al  Al2  1  0.27801200  0.44457800  0.72199800  1
  Al  Al3  1  0.77768000  0.44408600  0.22228700  1
  Al  Al4  1  0.94429200  0.00000000  0.50000000  1
  Al  Al5  1  0.44427300  0.00000000  0.00000000  1
  B  B0  1  0.22180600  0.94322500  0.72111000  1
  B  B1  1  0.72124700  0.94289200  0.22193100  1
  B  B2  1  0.22180600  0.05677500  0.27889000  1
  B  B3  1  0.72124700  0.05710800  0.77806900  1
  B  B4  1  0.55682800  0.50000000  0.50000000  1
  B  B5  1  0.05705700  0.50000000  0.00000000  1
  B  B6  1  0.99999800  0.50000000  0.50000000  1
  B  B7  1  0.49999900  0.50000000  0.00000000  1
  O  O0  1  0.92562100  0.35137500  0.42567200  1
  O  O1  1  0.42572800  0.35130900  0.92567100  1
  O  O2  1  0.92562100  0.64862500  0.57432800  1
  O  O3  1  0.42572800  0.64869100  0.07432900  1
  O  O4  1  0.14863600  0.50000000  0.50000000  1
  O  O5  1  0.64866100  0.50000000  0.00000000  1
  O  O6  1  0.07568400  0.97117300  0.70336800  1
  O  O7  1  0.57502900  0.97156300  0.20496000  1
  O  O8  1  0.30080600  0.21984700  0.32929200  1
  O  O9  1  0.79935900  0.22106600  0.82817900  1
  O  O10  1  0.62420900  0.37013000  0.40455300  1
  O  O11  1  0.12490400  0.37225500  0.90362200  1
  O  O12  1  0.30080600  0.78015300  0.67070800  1
  O  O13  1  0.79935900  0.77893400  0.17182100  1
  O  O14  1  0.62420900  0.62987000  0.59544700  1
  O  O15  1  0.12490400  0.62774500  0.09637800  1
  O  O16  1  0.07568400  0.02882700  0.29663200  1
  O  O17  1  0.57502900  0.02843700  0.79504000  1
  O  O18  1  0.79578800  0.09135800  0.29562500  1
  O  O19  1  0.29561200  0.09142000  0.79576700  1
  O  O20  1  0.79578800  0.90864200  0.70437500  1
  O  O21  1  0.29561200  0.90858000  0.20423300  1
  O  O22  1  0.40856500  0.50000000  0.50000000  1
  O  O23  1  0.90865900  0.50000000  0.00000000  1
loop_
_geom_bond_atom_site_label_1
_geom_bond_atom_site_label_2
_geom_bond_distance
_geom_bond_site_symmetry_2
Er0 O8 2.323104 1_555
Er0 O12 2.323104 1_545
Er0 O17 2.324035 1_555
Er0 O7 2.324035 1_545
Er0 O14 2.324504 1_545
Er0 O10 2.324504 1_555
Al0 O9 1.875610 1_555
Al0 O14 1.880122 1_555
Al0 O5 1.933445 1_556
Al0 O2 1.934109 1_555
Al0 O20 1.942566 1_555
Al0 O23 1.944944 1_556
Al1 O15 1.875208 1_555
Al1 O8 1.879590 1_555
Al1 O3 1.933880 1_555
Al1 O4 1.934414 1_555
Al1 O22 1.941322 1_555
Al1 O21 1.944110 1_555
Al2 O11 1.875208 1_555
Al2 O12 1.879590 1_555
Al2 O1 1.933880 1_555
Al2 O4 1.934414 1_555
Al2 O22 1.941322 1_555
Al2 O19 1.944110 1_555
Al3 O13 1.875610 1_555
Al3 O10 1.880122 1_555
Al3 O5 1.933445 1_555
Al3 O0 1.934109 1_555
Al3 O18 1.942566 1_555
Al3 O23 1.944944 1_555
Al4 O16 1.875063 1_655
Al4 O6 1.875063 1_645
Al4 O0 1.934175 1_555
Al4 O2 1.934175 1_545
Al4 O18 1.942771 1_555
Al4 O20 1.942771 1_545
Al5 O7 1.880409 1_545
Al5 O17 1.880409 1_554
Al5 O1 1.933691 1_554
Al5 O3 1.933691 1_545
Al5 O19 1.943140 1_554
Al5 O21 1.943140 1_545
B0 O6 1.376661 1_555
B0 O12 1.377786 1_555
B0 O19 1.387581 1_565
B1 O13 1.376439 1_555
B1 O7 1.377678 1_555
B1 O18 1.387782 1_565
B2 O16 1.376661 1_555
B2 O8 1.377786 1_555
B2 O21 1.387581 1_545
B3 O9 1.376439 1_555
B3 O17 1.377678 1_555
B3 O20 1.387782 1_545
B4 O14 1.378449 1_555
B4 O10 1.378449 1_555
B4 O22 1.386950 1_555
B5 O11 1.375842 1_554
B5 O15 1.375842 1_555
B5 O23 1.388213 1_455
B6 O4 1.390458 1_655
B6 O2 1.390716 1_555
B6 O0 1.390716 1_555
B7 O3 1.390534 1_555
B7 O1 1.390534 1_554
B7 O5 1.390683 1_555
O6 Y0 2.337777 1_566
O9 Y0 2.339272 1_656
O11 Y0 2.337319 1_556
O13 Y0 2.339272 1_665
O15 Y0 2.337319 1_565
O16 Y0 2.337777 1_555
