# generated using pymatgen
data_DySiPt2
_symmetry_space_group_name_H-M   'P 1'
_cell_length_a   5.51315352
_cell_length_b   6.92230091
_cell_length_c   7.29436247
_cell_angle_alpha   90.00000000
_cell_angle_beta   89.99921189
_cell_angle_gamma   90.00000000
_symmetry_Int_Tables_number   1
_chemical_formula_structural   DySiPt2
_chemical_formula_sum   'Dy4 Si4 Pt8'
_cell_volume   278.37991663
_cell_formula_units_Z   4
loop_
 _symmetry_equiv_pos_site_id
 _symmetry_equiv_pos_as_xyz
  1  'x, y, z'
loop_
 _atom_site_type_symbol
 _atom_site_label
 _atom_site_symmetry_multiplicity
 _atom_site_fract_x
 _atom_site_fract_y
 _atom_site_fract_z
 _atom_site_occupancy
  Dy  Dy0  1  0.36261713  0.75000000  0.02635524  1
  Dy  Dy1  1  0.13736379  0.75000000  0.52635365  1
  Dy  Dy2  1  0.63738287  0.25000000  0.97364476  1
  Dy  Dy3  1  0.86263621  0.25000000  0.47364635  1
  Si  Si0  1  0.63661029  0.75000000  0.37852133  1
  Si  Si1  1  0.86339822  0.75000000  0.87850734  1
  Si  Si2  1  0.36338971  0.25000000  0.62147867  1
  Si  Si3  1  0.13660178  0.25000000  0.12149266  1
  Pt  Pt0  1  0.90896719  0.55085836  0.18090327  1
  Pt  Pt1  1  0.59105710  0.94914900  0.68089682  1
  Pt  Pt2  1  0.09103281  0.05085836  0.81909673  1
  Pt  Pt3  1  0.40894290  0.44914900  0.31910318  1
  Pt  Pt4  1  0.09103281  0.44914164  0.81909673  1
  Pt  Pt5  1  0.40894290  0.05085100  0.31910418  1
  Pt  Pt6  1  0.90896719  0.94914164  0.18090327  1
  Pt  Pt7  1  0.59105710  0.55085100  0.68089582  1
loop_
_geom_bond_atom_site_label_1
_geom_bond_atom_site_label_2
_geom_bond_distance
_geom_bond_site_symmetry_2
Dy0 Si1 2.956035 1_454
Dy0 Si1 2.964028 1_554
Dy0 Pt4 2.977395 1_554
Dy0 Pt2 2.977395 1_564
Dy0 Si0 2.980065 1_555
Dy0 Pt3 2.993721 1_555
Dy0 Pt5 2.993726 1_565
Dy0 Pt6 3.070231 1_455
Dy0 Pt0 3.070231 1_455
Dy0 Pt1 3.136305 1_554
Dy0 Pt7 3.136311 1_554
Dy1 Si0 2.956107 1_555
Dy1 Si0 2.963872 1_455
Dy1 Pt5 2.977290 1_565
Dy1 Pt3 2.977294 1_555
Dy1 Si1 2.979875 1_455
Dy1 Pt4 2.993728 1_555
Dy1 Pt2 2.993728 1_565
Dy1 Pt7 3.070458 1_555
Dy1 Pt1 3.070461 1_555
Dy1 Pt6 3.136167 1_455
Dy1 Pt0 3.136167 1_455
Dy2 Si3 2.956035 1_656
Dy2 Si3 2.964028 1_556
Dy2 Pt6 2.977395 1_546
Dy2 Pt0 2.977395 1_556
Dy2 Si2 2.980065 1_555
Dy2 Pt1 2.993721 1_545
Dy2 Pt7 2.993726 1_555
Dy2 Pt2 3.070231 1_655
Dy2 Pt4 3.070231 1_655
Dy2 Pt3 3.136305 1_556
Dy2 Pt5 3.136311 1_556
Dy3 Si2 2.956107 1_555
Dy3 Si2 2.963872 1_655
Dy3 Pt7 2.977290 1_555
Dy3 Pt1 2.977294 1_545
Dy3 Si3 2.979875 1_655
Dy3 Pt6 2.993728 1_545
Dy3 Pt0 2.993728 1_555
Dy3 Pt5 3.070458 1_555
Dy3 Pt3 3.070461 1_555
Dy3 Pt4 3.136167 1_655
Dy3 Pt2 3.136167 1_655
Pt0 Si3 2.469844 1_655
Pt0 Si0 2.496559 1_555
Pt0 Si1 2.613223 1_554
Pt1 Si2 2.469909 1_565
Pt1 Si1 2.496527 1_555
Pt1 Si0 2.613110 1_555
Pt2 Si1 2.469844 1_445
Pt2 Si2 2.496559 1_555
Pt2 Si3 2.613223 1_556
Pt3 Si0 2.469909 1_555
Pt3 Si3 2.496527 1_555
Pt3 Si2 2.613110 1_555
Pt4 Si1 2.469844 1_455
Pt4 Si2 2.496559 1_555
Pt4 Si3 2.613223 1_556
Pt5 Si0 2.469908 1_545
Pt5 Si3 2.496531 1_555
Pt5 Si2 2.613104 1_555
Pt6 Si3 2.469844 1_665
Pt6 Si0 2.496559 1_555
Pt6 Si1 2.613223 1_554
Pt7 Si2 2.469908 1_555
Pt7 Si1 2.496531 1_555
Pt7 Si0 2.613104 1_555
