# generated using pymatgen
data_TmNi5
_symmetry_space_group_name_H-M   'P 1'
_cell_length_a   4.79308481
_cell_length_b   4.79306296
_cell_length_c   3.90750342
_cell_angle_alpha   90.00000000
_cell_angle_beta   90.00000000
_cell_angle_gamma   119.99593393
_symmetry_Int_Tables_number   1
_chemical_formula_structural   TmNi5
_chemical_formula_sum   'Tm1 Ni5'
_cell_volume   77.74563922
_cell_formula_units_Z   1
loop_
 _symmetry_equiv_pos_site_id
 _symmetry_equiv_pos_as_xyz
  1  'x, y, z'
loop_
 _atom_site_type_symbol
 _atom_site_label
 _atom_site_symmetry_multiplicity
 _atom_site_fract_x
 _atom_site_fract_y
 _atom_site_fract_z
 _atom_site_occupancy
  Tm  Tm0  1  -0.00000000  0.00000000  0.00000000  1
  Ni  Ni0  1  0.33334207  0.66666787  -0.00000000  1
  Ni  Ni1  1  0.66665793  0.33333213  -0.00000000  1
  Ni  Ni2  1  0.50000000  0.00000000  0.50000000  1
  Ni  Ni3  1  0.50000000  0.50000000  0.50000000  1
  Ni  Ni4  1  -0.00000000  0.50000000  0.50000000  1
loop_
_geom_bond_atom_site_label_1
_geom_bond_atom_site_label_2
_geom_bond_distance
_geom_bond_site_symmetry_2
Ni0 Ni3 2.394043 1_555
Ni0 Ni3 2.394043 1_554
Ni0 Ni2 2.394106 1_565
Ni0 Ni2 2.394106 1_564
Ni0 Ni4 2.394133 1_555
Ni0 Ni4 2.394133 1_554
Ni0 Ni1 2.767163 1_555
Ni0 Tm0 2.767257 1_565
Ni0 Tm0 2.767366 1_665
Ni0 Ni1 2.767380 1_565
Ni0 Tm0 2.767395 1_555
Ni0 Ni1 2.767475 1_455
Ni1 Ni3 2.394043 1_555
Ni1 Ni3 2.394043 1_554
Ni1 Ni2 2.394106 1_555
Ni1 Ni2 2.394106 1_554
Ni1 Ni4 2.394133 1_655
Ni1 Ni4 2.394133 1_654
Ni1 Tm0 2.767257 1_655
Ni1 Tm0 2.767366 1_555
Ni1 Tm0 2.767395 1_665
Ni2 Ni3 2.396531 1_555
Ni2 Ni3 2.396531 1_545
Ni2 Ni4 2.396684 1_545
Ni2 Ni4 2.396684 1_655
Ni2 Tm0 3.092016 1_555
Ni2 Tm0 3.092016 1_655
Ni2 Tm0 3.092016 1_556
Ni2 Tm0 3.092016 1_656
Ni3 Ni4 2.396542 1_555
Ni3 Ni4 2.396542 1_655
Ni3 Tm0 3.092126 1_666
Ni3 Tm0 3.092126 1_665
Ni3 Tm0 3.092126 1_555
Ni3 Tm0 3.092126 1_556
Ni4 Tm0 3.092007 1_566
Ni4 Tm0 3.092007 1_555
Ni4 Tm0 3.092007 1_556
Ni4 Tm0 3.092007 1_565
