# generated using pymatgen
data_PuVO3
_symmetry_space_group_name_H-M   'P 1'
_cell_length_a   5.44020600
_cell_length_b   5.76125100
_cell_length_c   7.76938900
_cell_angle_alpha   90.00000000
_cell_angle_beta   90.00000000
_cell_angle_gamma   90.00000000
_symmetry_Int_Tables_number   1
_chemical_formula_structural   PuVO3
_chemical_formula_sum   'Pu4 V4 O12'
_cell_volume   243.51123764
_cell_formula_units_Z   4
loop_
 _symmetry_equiv_pos_site_id
 _symmetry_equiv_pos_as_xyz
  1  'x, y, z'
loop_
 _atom_site_type_symbol
 _atom_site_label
 _atom_site_symmetry_multiplicity
 _atom_site_fract_x
 _atom_site_fract_y
 _atom_site_fract_z
 _atom_site_occupancy
  Pu  Pu0  1  0.01845600  0.43258700  0.25000000  1
  Pu  Pu1  1  0.98154400  0.56741300  0.75000000  1
  Pu  Pu2  1  0.51845600  0.06741300  0.75000000  1
  Pu  Pu3  1  0.48154400  0.93258700  0.25000000  1
  V  V0  1  0.00000000  0.00000000  0.00000000  1
  V  V1  1  0.50000000  0.50000000  0.00000000  1
  V  V2  1  0.00000000  0.00000000  0.50000000  1
  V  V3  1  0.50000000  0.50000000  0.50000000  1
  O  O0  1  0.30895500  0.19510800  0.05694200  1
  O  O1  1  0.69104500  0.80489200  0.94305800  1
  O  O2  1  0.80895500  0.30489200  0.94305800  1
  O  O3  1  0.69104500  0.80489200  0.55694200  1
  O  O4  1  0.19104500  0.69510800  0.05694200  1
  O  O5  1  0.30895500  0.19510800  0.44305800  1
  O  O6  1  0.19104500  0.69510800  0.44305800  1
  O  O7  1  0.80895500  0.30489200  0.55694200  1
  O  O8  1  0.61493100  0.54172900  0.25000000  1
  O  O9  1  0.38506900  0.45827100  0.75000000  1
  O  O10  1  0.11493100  0.95827100  0.75000000  1
  O  O11  1  0.88506900  0.04172900  0.25000000  1
loop_
_geom_bond_atom_site_label_1
_geom_bond_atom_site_label_2
_geom_bond_distance
_geom_bond_site_symmetry_2
O0 V0 2.069846 1_555
O0 V1 2.088401 1_555
O0 Pu3 2.327853 1_545
O0 Pu0 2.572803 1_555
O0 Pu2 2.743584 1_554
O1 V0 2.069846 1_666
O1 V1 2.088401 1_556
O1 Pu2 2.327853 1_565
O1 Pu1 2.572803 1_555
O1 Pu3 2.743584 1_556
O2 V1 2.069846 1_556
O2 V0 2.088401 1_656
O2 Pu1 2.327853 1_555
O2 Pu2 2.572803 1_555
O2 Pu0 2.743584 1_656
O3 V2 2.069846 1_665
O3 V3 2.088401 1_555
O3 Pu2 2.327853 1_565
O3 Pu1 2.572803 1_555
O3 Pu3 2.743584 1_555
O4 V1 2.069846 1_555
O4 V0 2.088401 1_565
O4 Pu0 2.327853 1_555
O4 Pu3 2.572803 1_555
O4 Pu1 2.743584 1_454
O5 V2 2.069846 1_555
O5 V3 2.088401 1_555
O5 Pu3 2.327853 1_545
O5 Pu0 2.572803 1_555
O5 Pu2 2.743584 1_555
O6 V3 2.069846 1_555
O6 V2 2.088401 1_565
O6 Pu0 2.327853 1_555
O6 Pu3 2.572803 1_555
O6 Pu1 2.743584 1_455
O7 V3 2.069846 1_555
O7 V2 2.088401 1_655
O7 Pu1 2.327853 1_555
O7 Pu2 2.572803 1_555
O7 Pu0 2.743584 1_655
O8 V1 2.054616 1_555
O8 V3 2.054616 1_555
O8 Pu0 2.283538 1_655
O8 Pu3 2.365865 1_555
O9 V1 2.054616 1_556
O9 V3 2.054616 1_555
O9 Pu1 2.283538 1_455
O9 Pu2 2.365865 1_555
O10 V0 2.054616 1_566
O10 V2 2.054616 1_565
O10 Pu2 2.283538 1_565
O10 Pu1 2.365865 1_455
O11 V2 2.054616 1_655
O11 V0 2.054616 1_655
O11 Pu3 2.283538 1_545
O11 Pu0 2.365865 1_655
