# generated using pymatgen
data_Ho2MgS4
_symmetry_space_group_name_H-M   'P 1'
_cell_length_a   7.25657800
_cell_length_b   7.94310300
_cell_length_c   11.41020700
_cell_angle_alpha   90.00000000
_cell_angle_beta   90.00000000
_cell_angle_gamma   90.00000000
_symmetry_Int_Tables_number   1
_chemical_formula_structural   Ho2MgS4
_chemical_formula_sum   'Ho8 Mg4 S16'
_cell_volume   657.68143878
_cell_formula_units_Z   4
loop_
 _symmetry_equiv_pos_site_id
 _symmetry_equiv_pos_as_xyz
  1  'x, y, z'
loop_
 _atom_site_type_symbol
 _atom_site_label
 _atom_site_symmetry_multiplicity
 _atom_site_fract_x
 _atom_site_fract_y
 _atom_site_fract_z
 _atom_site_occupancy
  Ho  Ho0  1  0.75000000  0.03601400  0.30988500  1
  Ho  Ho1  1  0.25000000  0.96398600  0.69011500  1
  Ho  Ho2  1  0.25000000  0.46398600  0.80988500  1
  Ho  Ho3  1  0.75000000  0.53601400  0.19011500  1
  Ho  Ho4  1  0.25000000  0.07466300  0.02171500  1
  Ho  Ho5  1  0.75000000  0.92533700  0.97828500  1
  Ho  Ho6  1  0.75000000  0.42533700  0.52171500  1
  Ho  Ho7  1  0.25000000  0.57466300  0.47828500  1
  Mg  Mg0  1  0.25000000  0.18338700  0.40841200  1
  Mg  Mg1  1  0.75000000  0.81661300  0.59158800  1
  Mg  Mg2  1  0.75000000  0.31661300  0.90841200  1
  Mg  Mg3  1  0.25000000  0.68338700  0.09158800  1
  S  S0  1  0.50036100  0.12765600  0.84403000  1
  S  S1  1  0.49963900  0.87234400  0.15597000  1
  S  S2  1  0.49963900  0.37234400  0.34403000  1
  S  S3  1  0.50036100  0.62765600  0.65597000  1
  S  S4  1  0.99963900  0.62765600  0.65597000  1
  S  S5  1  0.00036100  0.37234400  0.34403000  1
  S  S6  1  0.00036100  0.87234400  0.15597000  1
  S  S7  1  0.99963900  0.12765600  0.84403000  1
  S  S8  1  0.25000000  0.89743800  0.45494200  1
  S  S9  1  0.75000000  0.10256200  0.54505800  1
  S  S10  1  0.75000000  0.60256200  0.95494200  1
  S  S11  1  0.25000000  0.39743800  0.04505800  1
  S  S12  1  0.75000000  0.21871600  0.11131800  1
  S  S13  1  0.25000000  0.78128400  0.88868200  1
  S  S14  1  0.25000000  0.28128400  0.61131800  1
  S  S15  1  0.75000000  0.71871600  0.38868200  1
loop_
_geom_bond_atom_site_label_1
_geom_bond_atom_site_label_2
_geom_bond_distance
_geom_bond_site_symmetry_2
Ho0 S15 2.675898 1_545
Ho0 S12 2.690612 1_555
Ho0 S9 2.734941 1_555
Ho0 S1 2.841655 1_545
Ho0 S6 2.841655 1_645
Ho0 S2 3.254129 1_555
Ho0 S5 3.254129 1_655
Ho1 S14 2.675898 1_565
Ho1 S13 2.690612 1_555
Ho1 S8 2.734941 1_555
Ho1 S0 2.841655 1_565
Ho1 S7 2.841655 1_465
Ho1 S3 3.254129 1_555
Ho1 S4 3.254129 1_455
Ho2 S13 2.675898 1_555
Ho2 S14 2.690612 1_555
Ho2 S11 2.734941 1_556
Ho2 S3 2.841655 1_555
Ho2 S4 2.841655 1_455
Ho2 S0 3.254129 1_555
Ho2 S7 3.254129 1_455
Ho3 S12 2.675898 1_555
Ho3 S15 2.690612 1_555
Ho3 S10 2.734941 1_554
Ho3 S2 2.841655 1_555
Ho3 S5 2.841655 1_655
Ho3 S1 3.254129 1_555
Ho3 S6 3.254129 1_655
Ho4 S11 2.577633 1_555
Ho4 S0 2.754679 1_554
Ho4 S7 2.754679 1_454
Ho4 S13 2.781116 1_544
Ho4 S1 2.865458 1_545
Ho4 S6 2.865458 1_545
Ho5 S10 2.577633 1_555
Ho5 S6 2.754679 1_656
Ho5 S1 2.754679 1_556
Ho5 S12 2.781116 1_566
Ho5 S7 2.865458 1_565
Ho5 S0 2.865458 1_565
Ho6 S9 2.577633 1_555
Ho6 S5 2.754679 1_655
Ho6 S2 2.754679 1_555
Ho6 S15 2.781116 1_555
Ho6 S4 2.865458 1_555
Ho6 S3 2.865458 1_555
Ho7 S8 2.577633 1_555
Ho7 S3 2.754679 1_555
Ho7 S4 2.754679 1_455
Ho7 S14 2.781116 1_555
Ho7 S5 2.865458 1_555
Ho7 S2 2.865458 1_555
Mg0 S8 2.332548 1_545
Mg0 S14 2.442298 1_555
Mg0 S5 2.464547 1_555
Mg0 S2 2.464547 1_555
Mg1 S9 2.332548 1_565
Mg1 S15 2.442298 1_555
Mg1 S4 2.464547 1_555
Mg1 S3 2.464547 1_555
Mg2 S10 2.332548 1_555
Mg2 S12 2.442298 1_556
Mg2 S7 2.464547 1_555
Mg2 S0 2.464547 1_555
Mg3 S11 2.332548 1_555
Mg3 S13 2.442298 1_554
Mg3 S1 2.464547 1_555
Mg3 S6 2.464547 1_555
