# generated using pymatgen
data_Sr2YMn2AlO7
_symmetry_space_group_name_H-M   'P 1'
_cell_length_a   11.81210002
_cell_length_b   11.81210002
_cell_length_c   11.81210002
_cell_angle_alpha   152.05156405
_cell_angle_beta   150.94189456
_cell_angle_gamma   40.75593720
_symmetry_Int_Tables_number   1
_chemical_formula_structural   Sr2YMn2AlO7
_chemical_formula_sum   'Sr4 Y2 Mn4 Al2 O14'
_cell_volume   374.38165773
_cell_formula_units_Z   2
loop_
 _symmetry_equiv_pos_site_id
 _symmetry_equiv_pos_as_xyz
  1  'x, y, z'
loop_
 _atom_site_type_symbol
 _atom_site_label
 _atom_site_symmetry_multiplicity
 _atom_site_fract_x
 _atom_site_fract_y
 _atom_site_fract_z
 _atom_site_occupancy
  Sr  Sr0  1  0.81407600  0.83360100  0.95954700  1
  Sr  Sr1  1  0.18592400  0.14547100  0.01952500  1
  Sr  Sr2  1  0.62594600  0.64547100  0.95954700  1
  Sr  Sr3  1  0.37405400  0.33360100  0.01952500  1
  Y  Y0  1  0.50000000  0.48925500  0.98925500  1
  Y  Y1  1  0.00000000  0.98925500  0.98925500  1
  Mn  Mn0  1  0.91995700  0.39816500  0.48634600  1
  Mn  Mn1  1  0.08004300  0.56639000  0.47820800  1
  Mn  Mn2  1  0.58818100  0.06639000  0.48634600  1
  Mn  Mn3  1  0.41181900  0.89816500  0.47820800  1
  Al  Al0  1  0.16929100  0.75876800  0.42805900  1
  Al  Al1  1  0.83070900  0.25876800  0.58947700  1
  O  O0  1  0.92738000  0.56232800  0.98970700  1
  O  O1  1  0.07262000  0.06232800  0.63494800  1
  O  O2  1  0.73336700  0.70980100  0.57369900  1
  O  O3  1  0.26663300  0.84033200  0.97643400  1
  O  O4  1  0.36389800  0.34033200  0.57369900  1
  O  O5  1  0.63610200  0.20980100  0.97643400  1
  O  O6  1  0.12151300  0.10322200  0.36956700  1
  O  O7  1  0.87848700  0.24805400  0.98170900  1
  O  O8  1  0.76634500  0.74805400  0.36956700  1
  O  O9  1  0.23365500  0.60322200  0.98170900  1
  O  O10  1  0.38110900  0.78105400  0.52467000  1
  O  O11  1  0.61889100  0.14356100  0.39994500  1
  O  O12  1  0.24361500  0.64356100  0.52467000  1
  O  O13  1  0.75638500  0.28105400  0.39994500  1
loop_
_geom_bond_atom_site_label_1
_geom_bond_atom_site_label_2
_geom_bond_distance
_geom_bond_site_symmetry_2
Mn0 O6 2.096052 1_655
Mn0 O2 2.108703 1_555
Mn0 O9 2.118372 1_655
Mn0 O5 2.188611 1_554
Mn0 O13 2.189952 1_555
Mn1 O7 2.096054 1_454
Mn1 O3 2.108704 1_555
Mn1 O8 2.118369 1_455
Mn1 O4 2.188617 1_555
Mn1 O12 2.189941 1_555
Mn2 O8 2.096057 1_545
Mn2 O4 2.108701 1_555
Mn2 O7 2.118374 1_555
Mn2 O3 2.188613 1_544
Mn2 O11 2.189952 1_555
Mn3 O9 2.096052 1_554
Mn3 O5 2.108703 1_565
Mn3 O6 2.118372 1_565
Mn3 O2 2.188611 1_555
Mn3 O10 2.189963 1_555
Al0 O10 1.762686 1_555
Al0 O12 1.762694 1_555
Al0 O0 1.819741 1_454
Al0 O1 1.824091 1_565
Al1 O11 1.762686 1_555
Al1 O13 1.762695 1_555
Al1 O1 1.819737 1_655
Al1 O0 1.824087 1_555
O0 Sr0 2.621425 1_555
O0 Sr2 2.621442 1_555
O1 Sr1 2.621434 1_556
O1 Sr3 2.621434 1_556
O2 Y1 2.237500 1_655
O2 Sr0 2.561343 1_555
O2 Y0 2.807157 1_554
O2 Sr3 3.036469 1_555
O3 Y1 2.237500 1_555
O3 Sr1 2.561343 1_566
O3 Y0 2.807157 1_555
O3 Sr2 3.036469 1_555
O4 Y0 2.237500 1_555
O4 Sr2 2.561343 1_555
O4 Y1 2.807157 1_544
O4 Sr1 3.036469 1_555
O5 Y0 2.237500 1_555
O5 Sr3 2.561343 1_556
O5 Y1 2.807157 1_645
O5 Sr0 3.036469 1_545
O6 Y1 2.241306 1_544
O6 Sr0 2.511832 1_444
O7 Y1 2.241306 1_645
O7 Sr1 2.511832 1_656
O8 Y0 2.241306 1_554
O8 Sr2 2.511832 1_554
O9 Y0 2.241306 1_555
O9 Sr3 2.511832 1_556
O10 Sr0 2.485048 1_555
O10 Sr3 2.761450 1_555
O10 Sr3 3.065609 1_566
O11 Sr1 2.485048 1_555
O11 Sr2 2.761450 1_544
O11 Sr2 3.065609 1_555
O12 Sr2 2.485049 1_555
O12 Sr1 2.761450 1_555
O12 Sr1 3.065603 1_566
O13 Sr3 2.485049 1_555
O13 Sr0 2.761445 1_544
O13 Sr0 3.065609 1_555
