# generated using pymatgen
data_LiLaMg6
_symmetry_space_group_name_H-M   'P 1'
_cell_length_a   5.20311500
_cell_length_b   6.70000300
_cell_length_c   11.65460300
_cell_angle_alpha   90.00000000
_cell_angle_beta   90.00000000
_cell_angle_gamma   90.00000000
_symmetry_Int_Tables_number   1
_chemical_formula_structural   LiLaMg6
_chemical_formula_sum   'Li2 La2 Mg12'
_cell_volume   406.28978783
_cell_formula_units_Z   2
loop_
 _symmetry_equiv_pos_site_id
 _symmetry_equiv_pos_as_xyz
  1  'x, y, z'
loop_
 _atom_site_type_symbol
 _atom_site_label
 _atom_site_symmetry_multiplicity
 _atom_site_fract_x
 _atom_site_fract_y
 _atom_site_fract_z
 _atom_site_occupancy
  Li  Li0  1  0.50000000  0.00000000  0.16334100  1
  Li  Li1  1  0.50000000  0.50000000  0.66334100  1
  La  La0  1  0.50000000  0.50000000  0.16597900  1
  La  La1  1  0.50000000  0.00000000  0.66597900  1
  Mg  Mg0  1  0.50000000  0.25776400  0.41944700  1
  Mg  Mg1  1  0.50000000  0.74223600  0.41944700  1
  Mg  Mg2  1  0.00000000  0.76150100  0.08050200  1
  Mg  Mg3  1  0.00000000  0.23849900  0.08050200  1
  Mg  Mg4  1  0.00000000  0.00000000  0.33212400  1
  Mg  Mg5  1  0.00000000  0.50000000  0.33865300  1
  Mg  Mg6  1  0.50000000  0.75776400  0.91944700  1
  Mg  Mg7  1  0.50000000  0.24223600  0.91944700  1
  Mg  Mg8  1  0.00000000  0.26150100  0.58050200  1
  Mg  Mg9  1  0.00000000  0.73849900  0.58050200  1
  Mg  Mg10  1  0.00000000  0.50000000  0.83212400  1
  Mg  Mg11  1  0.00000000  0.00000000  0.83865300  1
loop_
_geom_bond_atom_site_label_1
_geom_bond_atom_site_label_2
_geom_bond_distance
_geom_bond_site_symmetry_2
Li0 Mg2 3.202129 1_545
Li0 Mg3 3.202129 1_555
Li0 Mg3 3.202129 1_655
Li0 Mg2 3.202129 1_645
Li0 Mg4 3.261530 1_555
Li0 Mg4 3.261530 1_655
Li0 Mg6 3.273195 1_544
Li0 Mg7 3.273195 1_554
Li0 Mg1 3.448436 1_545
Li0 Mg0 3.448436 1_555
Li1 Mg8 3.202129 1_655
Li1 Mg9 3.202129 1_655
Li1 Mg8 3.202129 1_555
Li1 Mg9 3.202129 1_555
Li1 Mg10 3.261530 1_655
Li1 Mg10 3.261530 1_555
Li1 Mg1 3.273195 1_555
Li1 Mg0 3.273195 1_555
Li1 Mg7 3.448436 1_555
Li1 Mg6 3.448436 1_555
La0 Mg5 3.289080 1_655
La0 Mg5 3.289080 1_555
La0 Mg3 3.290930 1_655
La0 Mg2 3.290930 1_555
La0 Mg3 3.290930 1_555
La0 Mg2 3.290930 1_655
La0 Li0 3.350143 1_555
La0 Li0 3.350143 1_565
La0 Mg6 3.352322 1_554
La0 Mg7 3.352322 1_554
La0 Mg1 3.370548 1_555
La0 Mg0 3.370548 1_555
La1 Mg11 3.289080 1_655
La1 Mg11 3.289080 1_555
La1 Mg8 3.290930 1_655
La1 Mg9 3.290930 1_545
La1 Mg8 3.290930 1_555
La1 Mg9 3.290930 1_645
La1 Li1 3.350143 1_545
La1 Li1 3.350143 1_555
La1 Mg0 3.352322 1_555
La1 Mg1 3.352322 1_545
La1 Mg7 3.370548 1_555
La1 Mg6 3.370548 1_545
Mg0 Mg5 3.207620 1_655
Mg0 Mg5 3.207620 1_555
Mg0 Mg8 3.208111 1_655
Mg0 Mg8 3.208111 1_555
Mg0 Mg1 3.245964 1_555
Mg0 Mg4 3.284272 1_655
Mg0 Mg4 3.284272 1_555
Mg0 Mg1 3.454039 1_545
Mg1 Mg5 3.207620 1_655
Mg1 Mg5 3.207620 1_555
Mg1 Mg9 3.208111 1_555
Mg1 Mg9 3.208111 1_655
Mg1 Mg4 3.284272 1_665
Mg1 Mg4 3.284272 1_565
Mg2 Mg3 3.195888 1_565
Mg2 Mg6 3.208111 1_554
Mg2 Mg6 3.208111 1_454
Mg2 Mg4 3.339656 1_565
Mg2 Mg5 3.481618 1_555
Mg2 Mg3 3.504115 1_555
Mg3 Mg7 3.208111 1_554
Mg3 Mg7 3.208111 1_454
Mg3 Mg4 3.339656 1_555
Mg3 Mg5 3.481618 1_555
Mg4 Mg5 3.350866 1_545
Mg4 Mg5 3.350866 1_555
Mg4 Mg8 3.383676 1_555
Mg4 Mg9 3.383676 1_545
Mg5 Mg8 3.240098 1_555
Mg5 Mg9 3.240098 1_555
Mg6 Mg7 3.245964 1_565
Mg6 Mg7 3.454039 1_555
Mg8 Mg9 3.195888 1_555
Mg8 Mg9 3.504115 1_545
Mg10 Mg7 3.284272 1_555
Mg10 Mg6 3.284272 1_455
Mg10 Mg6 3.284272 1_555
Mg10 Mg7 3.284272 1_455
Mg10 Mg9 3.339656 1_555
Mg10 Mg8 3.339656 1_555
Mg10 Mg11 3.350866 1_565
Mg10 Mg11 3.350866 1_555
Mg10 Mg2 3.383676 1_556
Mg10 Mg3 3.383676 1_556
Mg11 Mg7 3.207620 1_455
Mg11 Mg6 3.207620 1_545
Mg11 Mg7 3.207620 1_555
Mg11 Mg6 3.207620 1_445
Mg11 Mg3 3.240098 1_556
Mg11 Mg2 3.240098 1_546
Mg11 Mg8 3.481618 1_555
Mg11 Mg9 3.481618 1_545
