# generated using pymatgen
data_Mn3BPO10
_symmetry_space_group_name_H-M   'P 1'
_cell_length_a   5.88017453
_cell_length_b   7.36543921
_cell_length_c   14.63980800
_cell_angle_alpha   90.00000000
_cell_angle_beta   90.00000000
_cell_angle_gamma   90.00000000
_symmetry_Int_Tables_number   1
_chemical_formula_structural   Mn3BPO10
_chemical_formula_sum   'Mn12 B4 P4 O40'
_cell_volume   634.05108064
_cell_formula_units_Z   4
loop_
 _symmetry_equiv_pos_site_id
 _symmetry_equiv_pos_as_xyz
  1  'x, y, z'
loop_
 _atom_site_type_symbol
 _atom_site_label
 _atom_site_symmetry_multiplicity
 _atom_site_fract_x
 _atom_site_fract_y
 _atom_site_fract_z
 _atom_site_occupancy
  Mn  Mn0  1  0.25000000  0.24870976  0.94786866  1
  Mn  Mn1  1  0.25000000  0.25129024  0.44786866  1
  Mn  Mn2  1  0.75000000  0.75129024  0.05213134  1
  Mn  Mn3  1  0.75000000  0.74870976  0.55213134  1
  Mn  Mn4  1  0.49184627  0.12336528  0.14509505  1
  Mn  Mn5  1  0.00815373  0.37663472  0.64509505  1
  Mn  Mn6  1  0.99184627  0.87663472  0.85490495  1
  Mn  Mn7  1  0.50815373  0.62336528  0.35490495  1
  Mn  Mn8  1  0.50815373  0.87663472  0.85490495  1
  Mn  Mn9  1  0.99184627  0.62336528  0.35490495  1
  Mn  Mn10  1  0.00815373  0.12336528  0.14509505  1
  Mn  Mn11  1  0.49184627  0.37663472  0.64509505  1
  B  B0  1  0.25000000  0.53664007  0.79389690  1
  B  B1  1  0.25000000  0.96335993  0.29389690  1
  B  B2  1  0.75000000  0.46335993  0.20610310  1
  B  B3  1  0.75000000  0.03664007  0.70610310  1
  P  P0  1  0.25000000  0.77626437  0.05197928  1
  P  P1  1  0.25000000  0.72373563  0.55197928  1
  P  P2  1  0.75000000  0.22373563  0.94802072  1
  P  P3  1  0.75000000  0.27626437  0.44802072  1
  O  O0  1  0.25000000  0.04098398  0.89141915  1
  O  O1  1  0.25000000  0.45901602  0.39141915  1
  O  O2  1  0.75000000  0.95901602  0.10858085  1
  O  O3  1  0.75000000  0.54098398  0.60858085  1
  O  O4  1  0.25000000  0.27068753  0.15826639  1
  O  O5  1  0.25000000  0.22931247  0.65826639  1
  O  O6  1  0.75000000  0.72931247  0.84173361  1
  O  O7  1  0.75000000  0.77068753  0.34173361  1
  O  O8  1  0.25000000  0.44532191  0.89021312  1
  O  O9  1  0.25000000  0.05467809  0.39021312  1
  O  O10  1  0.75000000  0.55467809  0.10978688  1
  O  O11  1  0.75000000  0.94532191  0.60978688  1
  O  O12  1  0.25000000  0.73289591  0.82114541  1
  O  O13  1  0.25000000  0.76710409  0.32114541  1
  O  O14  1  0.75000000  0.26710409  0.17885459  1
  O  O15  1  0.75000000  0.23289591  0.67885459  1
  O  O16  1  0.04426875  0.49402448  0.74753122  1
  O  O17  1  0.45573125  0.00597552  0.24753122  1
  O  O18  1  0.54426875  0.50597552  0.25246878  1
  O  O19  1  0.95573125  0.99402448  0.75246878  1
  O  O20  1  0.95573125  0.50597552  0.25246878  1
  O  O21  1  0.54426875  0.99402448  0.75246878  1
  O  O22  1  0.45573125  0.49402448  0.74753122  1
  O  O23  1  0.04426875  0.00597552  0.24753122  1
  O  O24  1  0.03651667  0.76648087  0.98825233  1
  O  O25  1  0.46348333  0.73351913  0.48825233  1
  O  O26  1  0.53651667  0.23351913  0.01174767  1
  O  O27  1  0.96348333  0.26648087  0.51174767  1
  O  O28  1  0.96348333  0.23351913  0.01174767  1
  O  O29  1  0.53651667  0.26648087  0.51174767  1
  O  O30  1  0.46348333  0.76648087  0.98825233  1
  O  O31  1  0.03651667  0.73351913  0.48825233  1
  O  O32  1  0.25000000  0.98449848  0.08320146  1
  O  O33  1  0.25000000  0.51550152  0.58320146  1
  O  O34  1  0.75000000  0.01550152  0.91679854  1
  O  O35  1  0.75000000  0.48449848  0.41679854  1
  O  O36  1  0.25000000  0.64797523  0.12683868  1
  O  O37  1  0.25000000  0.85202477  0.62683868  1
  O  O38  1  0.75000000  0.35202477  0.87316132  1
  O  O39  1  0.75000000  0.14797523  0.37316132  1
loop_
_geom_bond_atom_site_label_1
_geom_bond_atom_site_label_2
_geom_bond_distance
_geom_bond_site_symmetry_2
Mn0 O8 1.676169 1_555
Mn0 O0 1.738916 1_555
Mn0 O28 1.930160 1_456
Mn0 O26 1.930160 1_556
Mn1 O9 1.676169 1_555
Mn1 O1 1.738916 1_555
Mn1 O27 1.930160 1_455
Mn1 O29 1.930160 1_555
Mn2 O10 1.676169 1_555
Mn2 O2 1.738916 1_555
Mn2 O24 1.930160 1_654
Mn2 O30 1.930160 1_554
Mn3 O11 1.676169 1_555
Mn3 O3 1.738916 1_555
Mn3 O31 1.930160 1_655
Mn3 O25 1.930160 1_555
Mn4 O17 1.744023 1_555
Mn4 O4 1.799159 1_555
Mn4 O14 1.915568 1_555
Mn4 O32 1.972194 1_545
Mn4 O2 2.013794 1_545
Mn4 O26 2.130319 1_555
Mn5 O16 1.744023 1_555
Mn5 O5 1.799159 1_555
Mn5 O15 1.915568 1_455
Mn5 O33 1.972194 1_555
Mn5 O3 2.013794 1_455
Mn5 O27 2.130319 1_455
Mn6 O19 1.744023 1_555
Mn6 O6 1.799159 1_555
Mn6 O12 1.915568 1_655
Mn6 O34 1.972194 1_565
Mn6 O0 2.013794 1_665
Mn6 O24 2.130319 1_655
Mn7 O18 1.744023 1_555
Mn7 O7 1.799159 1_555
Mn7 O13 1.915568 1_555
Mn7 O35 1.972194 1_555
Mn7 O1 2.013794 1_555
Mn7 O25 2.130319 1_555
Mn8 O21 1.744023 1_555
Mn8 O6 1.799159 1_555
Mn8 O12 1.915568 1_555
Mn8 O34 1.972194 1_565
Mn8 O0 2.013794 1_565
Mn8 O30 2.130319 1_555
Mn9 O20 1.744023 1_555
Mn9 O7 1.799159 1_555
Mn9 O13 1.915568 1_655
Mn9 O35 1.972194 1_555
Mn9 O1 2.013794 1_655
Mn9 O31 2.130319 1_655
Mn10 O23 1.744023 1_555
Mn10 O4 1.799159 1_555
Mn10 O14 1.915568 1_455
Mn10 O32 1.972194 1_545
Mn10 O2 2.013794 1_445
Mn10 O28 2.130319 1_455
Mn11 O22 1.744023 1_555
Mn11 O5 1.799159 1_555
Mn11 O15 1.915568 1_555
Mn11 O33 1.972194 1_555
Mn11 O3 2.013794 1_555
Mn11 O29 2.130319 1_555
B0 O22 1.422228 1_555
B0 O16 1.422228 1_555
B0 O12 1.499544 1_555
B0 O8 1.562252 1_555
B1 O23 1.422228 1_565
B1 O17 1.422228 1_565
B1 O13 1.499544 1_555
B1 O9 1.562252 1_565
B2 O20 1.422228 1_555
B2 O18 1.422228 1_555
B2 O14 1.499544 1_555
B2 O10 1.562252 1_555
B3 O19 1.422228 1_545
B3 O21 1.422228 1_545
B3 O15 1.499544 1_555
B3 O11 1.562252 1_545
O24 P0 1.565700 1_556
O25 P1 1.565700 1_555
O26 P2 1.565700 1_554
O27 P3 1.565700 1_555
O28 P2 1.565700 1_554
O29 P3 1.565700 1_555
O30 P0 1.565700 1_556
O31 P1 1.565700 1_555
O32 P0 1.600398 1_555
O33 P1 1.600398 1_555
O34 P2 1.600398 1_555
O35 P3 1.600398 1_555
O36 P0 1.447033 1_555
O37 P1 1.447033 1_555
O38 P2 1.447033 1_555
O39 P3 1.447033 1_555
