# generated using pymatgen
data_Te3(Ru2N)2
_symmetry_space_group_name_H-M   'P 1'
_cell_length_a   6.40612600
_cell_length_b   11.13885700
_cell_length_c   9.16480900
_cell_angle_alpha   90.00000000
_cell_angle_beta   90.00000000
_cell_angle_gamma   90.00000000
_symmetry_Int_Tables_number   1
_chemical_formula_structural   Te3(Ru2N)2
_chemical_formula_sum   'Te12 Ru16 N8'
_cell_volume   653.97255581
_cell_formula_units_Z   4
loop_
 _symmetry_equiv_pos_site_id
 _symmetry_equiv_pos_as_xyz
  1  'x, y, z'
loop_
 _atom_site_type_symbol
 _atom_site_label
 _atom_site_symmetry_multiplicity
 _atom_site_fract_x
 _atom_site_fract_y
 _atom_site_fract_z
 _atom_site_occupancy
  Te  Te0  1  0.85369800  0.25000000  0.15974300  1
  Te  Te1  1  0.35369800  0.25000000  0.34025700  1
  Te  Te2  1  0.14630200  0.75000000  0.84025700  1
  Te  Te3  1  0.64630200  0.75000000  0.65974300  1
  Te  Te4  1  0.55778000  0.57777700  0.32074700  1
  Te  Te5  1  0.05778000  0.92222300  0.17925300  1
  Te  Te6  1  0.44222000  0.07777700  0.67925300  1
  Te  Te7  1  0.94222000  0.42222300  0.82074700  1
  Te  Te8  1  0.44222000  0.42222300  0.67925300  1
  Te  Te9  1  0.94222000  0.07777700  0.82074700  1
  Te  Te10  1  0.55778000  0.92222300  0.32074700  1
  Te  Te11  1  0.05778000  0.57777700  0.17925300  1
  Ru  Ru0  1  0.61032100  0.25000000  0.90809300  1
  Ru  Ru1  1  0.11032100  0.25000000  0.59190700  1
  Ru  Ru2  1  0.38967900  0.75000000  0.09190700  1
  Ru  Ru3  1  0.88967900  0.75000000  0.40809300  1
  Ru  Ru4  1  0.75389900  0.25000000  0.43606600  1
  Ru  Ru5  1  0.25389900  0.25000000  0.06393400  1
  Ru  Ru6  1  0.24610100  0.75000000  0.56393400  1
  Ru  Ru7  1  0.74610100  0.75000000  0.93606600  1
  Ru  Ru8  1  0.68292700  0.46782000  0.06542300  1
  Ru  Ru9  1  0.18292700  0.03218000  0.43457700  1
  Ru  Ru10  1  0.31707300  0.96782000  0.93457700  1
  Ru  Ru11  1  0.81707300  0.53218000  0.56542300  1
  Ru  Ru12  1  0.31707300  0.53218000  0.93457700  1
  Ru  Ru13  1  0.81707300  0.96782000  0.56542300  1
  Ru  Ru14  1  0.68292700  0.03218000  0.06542300  1
  Ru  Ru15  1  0.18292700  0.46782000  0.43457700  1
  N  N0  1  0.57258500  0.62205600  0.99547100  1
  N  N1  1  0.07258500  0.87794400  0.50452900  1
  N  N2  1  0.42741500  0.12205600  0.00452900  1
  N  N3  1  0.92741500  0.37794400  0.49547100  1
  N  N4  1  0.42741500  0.37794400  0.00452900  1
  N  N5  1  0.92741500  0.12205600  0.49547100  1
  N  N6  1  0.57258500  0.87794400  0.99547100  1
  N  N7  1  0.07258500  0.62205600  0.50452900  1
loop_
_geom_bond_atom_site_label_1
_geom_bond_atom_site_label_2
_geom_bond_distance
_geom_bond_site_symmetry_2
Ru0 Te0 2.783871 1_556
Ru0 Te7 2.973486 1_555
Ru0 Te9 2.973486 1_555
Ru0 Te8 3.039467 1_555
Ru0 Te6 3.039467 1_555
Ru1 Te1 2.783871 1_555
Ru1 Te8 2.973486 1_555
Ru1 Te6 2.973486 1_555
Ru1 Te7 3.039467 1_455
Ru1 Te9 3.039467 1_455
Ru2 Te2 2.783871 1_554
Ru2 Te5 2.973486 1_555
Ru2 Te11 2.973486 1_555
Ru2 Te10 3.039467 1_555
Ru2 Te4 3.039467 1_555
Ru3 Te3 2.783871 1_555
Ru3 Te10 2.973486 1_555
Ru3 Te4 2.973486 1_555
Ru3 Te5 3.039467 1_655
Ru3 Te11 3.039467 1_655
Ru4 Te0 2.611901 1_555
Ru4 Te1 2.709938 1_555
Ru5 Te1 2.611901 1_555
Ru5 Te0 2.709938 1_455
Ru6 Te2 2.611901 1_555
Ru6 Te3 2.709938 1_555
Ru7 Te3 2.611901 1_555
Ru7 Te2 2.709938 1_655
Ru8 Te4 2.760152 1_555
Ru8 Te0 2.798355 1_555
Ru8 Te7 2.836457 1_554
Ru8 Te11 2.890495 1_655
Ru9 Te5 2.760152 1_545
Ru9 Te1 2.798355 1_555
Ru9 Te6 2.836457 1_555
Ru9 Te10 2.890495 1_545
Ru10 Te6 2.760152 1_565
Ru10 Te2 2.798355 1_555
Ru10 Te5 2.836457 1_556
Ru10 Te9 2.890495 1_465
Ru11 Te7 2.760152 1_555
Ru11 Te3 2.798355 1_555
Ru11 Te4 2.836457 1_555
Ru11 Te8 2.890495 1_555
Ru12 Te8 2.760152 1_555
Ru12 Te2 2.798355 1_555
Ru12 Te11 2.836457 1_556
Ru12 Te7 2.890495 1_455
Ru13 Te9 2.760152 1_565
Ru13 Te3 2.798355 1_555
Ru13 Te10 2.836457 1_555
Ru13 Te6 2.890495 1_565
Ru14 Te10 2.760152 1_545
Ru14 Te0 2.798355 1_555
Ru14 Te9 2.836457 1_554
Ru14 Te5 2.890495 1_645
Ru15 Te11 2.760152 1_555
Ru15 Te1 2.798355 1_555
Ru15 Te8 2.836457 1_555
Ru15 Te4 2.890495 1_555
N0 Ru7 1.887602 1_555
N0 Ru8 1.965256 1_556
N0 Ru12 1.998234 1_555
N0 Ru2 2.045754 1_556
N1 Ru6 1.887602 1_555
N1 Ru9 1.965256 1_565
N1 Ru13 1.998234 1_455
N1 Ru3 2.045754 1_455
N2 Ru5 1.887602 1_555
N2 Ru10 1.965256 1_544
N2 Ru14 1.998234 1_555
N2 Ru0 2.045754 1_554
N3 Ru4 1.887602 1_555
N3 Ru11 1.965256 1_555
N3 Ru15 1.998234 1_655
N3 Ru1 2.045754 1_655
N4 Ru5 1.887602 1_555
N4 Ru12 1.965256 1_554
N4 Ru8 1.998234 1_555
N4 Ru0 2.045754 1_554
N5 Ru4 1.887602 1_555
N5 Ru13 1.965256 1_545
N5 Ru9 1.998234 1_655
N5 Ru1 2.045754 1_655
N6 Ru7 1.887602 1_555
N6 Ru14 1.965256 1_566
N6 Ru10 1.998234 1_555
N6 Ru2 2.045754 1_556
N7 Ru6 1.887602 1_555
N7 Ru15 1.965256 1_555
N7 Ru11 1.998234 1_455
N7 Ru3 2.045754 1_455
