# generated using pymatgen
data_RbScCl3
_symmetry_space_group_name_H-M   'P 1'
_cell_length_a   7.31175768
_cell_length_b   7.31174503
_cell_length_c   5.89839408
_cell_angle_alpha   90.00001326
_cell_angle_beta   89.99993037
_cell_angle_gamma   120.00005087
_symmetry_Int_Tables_number   1
_chemical_formula_structural   RbScCl3
_chemical_formula_sum   'Rb2 Sc2 Cl6'
_cell_volume   273.09077018
_cell_formula_units_Z   2
loop_
 _symmetry_equiv_pos_site_id
 _symmetry_equiv_pos_as_xyz
  1  'x, y, z'
loop_
 _atom_site_type_symbol
 _atom_site_label
 _atom_site_symmetry_multiplicity
 _atom_site_fract_x
 _atom_site_fract_y
 _atom_site_fract_z
 _atom_site_occupancy
  Rb  Rb0  1  0.33333219  0.66666680  0.75000058  1
  Rb  Rb1  1  0.66666781  0.33333320  0.24999942  1
  Sc  Sc0  1  -0.00000000  -0.00000000  0.00000000  1
  Sc  Sc1  1  -0.00000000  -0.00000000  0.50000000  1
  Cl  Cl0  1  0.16794803  0.33589761  0.25000003  1
  Cl  Cl1  1  0.83205197  0.66410239  0.74999997  1
  Cl  Cl2  1  0.66410181  0.83205097  0.25000084  1
  Cl  Cl3  1  0.33589819  0.16794903  0.74999916  1
  Cl  Cl4  1  0.16794866  0.83205134  0.25000006  1
  Cl  Cl5  1  0.83205134  0.16794866  0.74999994  1
loop_
_geom_bond_atom_site_label_1
_geom_bond_atom_site_label_2
_geom_bond_distance
_geom_bond_site_symmetry_2
Cl0 Sc1 2.588122 1_555
Cl0 Sc0 2.588123 1_555
Cl0 Rb0 3.617263 1_554
Cl0 Rb0 3.617270 1_555
Cl0 Rb1 3.655900 1_455
Cl0 Rb1 3.655929 1_555
Cl1 Sc1 2.588122 1_665
Cl1 Sc0 2.588123 1_666
Cl1 Rb1 3.617263 1_556
Cl1 Rb1 3.617270 1_555
Cl1 Rb0 3.655900 1_655
Cl1 Rb0 3.655929 1_555
Cl2 Sc1 2.588128 1_665
Cl2 Sc0 2.588130 1_665
Cl2 Rb0 3.617267 1_555
Cl2 Rb0 3.617273 1_554
Cl2 Rb1 3.655903 1_565
Cl2 Rb1 3.655914 1_555
Cl3 Sc1 2.588128 1_555
Cl3 Sc0 2.588130 1_556
Cl3 Rb1 3.617267 1_555
Cl3 Rb1 3.617273 1_556
Cl3 Rb0 3.655903 1_545
Cl3 Rb0 3.655914 1_555
Cl4 Sc1 2.588123 1_565
Cl4 Sc0 2.588125 1_565
Cl4 Rb0 3.617260 1_554
Cl4 Rb0 3.617268 1_555
Cl4 Rb1 3.655905 1_455
Cl4 Rb1 3.655913 1_565
Cl5 Sc1 2.588123 1_655
Cl5 Sc0 2.588125 1_656
Cl5 Rb1 3.617260 1_556
Cl5 Rb1 3.617268 1_555
Cl5 Rb0 3.655905 1_655
Cl5 Rb0 3.655913 1_545
