# generated using pymatgen
data_Gd3AlVS7
_symmetry_space_group_name_H-M   'P 1'
_cell_length_a   9.77250784
_cell_length_b   9.77250784
_cell_length_c   6.04617100
_cell_angle_alpha   90.00000000
_cell_angle_beta   90.00000000
_cell_angle_gamma   119.99999891
_symmetry_Int_Tables_number   1
_chemical_formula_structural   Gd3AlVS7
_chemical_formula_sum   'Gd6 Al2 V2 S14'
_cell_volume   500.06115225
_cell_formula_units_Z   2
loop_
 _symmetry_equiv_pos_site_id
 _symmetry_equiv_pos_as_xyz
  1  'x, y, z'
loop_
 _atom_site_type_symbol
 _atom_site_label
 _atom_site_symmetry_multiplicity
 _atom_site_fract_x
 _atom_site_fract_y
 _atom_site_fract_z
 _atom_site_occupancy
  Gd  Gd0  1  0.62353500  0.85437600  0.26852100  1
  Gd  Gd1  1  0.14562400  0.76915900  0.26852100  1
  Gd  Gd2  1  0.23084100  0.37646500  0.26852100  1
  Gd  Gd3  1  0.37646500  0.14562400  0.76852100  1
  Gd  Gd4  1  0.85437600  0.23084100  0.76852100  1
  Gd  Gd5  1  0.76915900  0.62353500  0.76852100  1
  Al  Al0  1  0.33333300  0.66666700  0.84298000  1
  Al  Al1  1  0.66666700  0.33333300  0.34298000  1
  V  V0  1  0.00000000  0.00000000  0.44434200  1
  V  V1  1  0.00000000  0.00000000  0.94434200  1
  S  S0  1  0.77133400  0.90781900  0.69084000  1
  S  S1  1  0.09218100  0.86351500  0.69084000  1
  S  S2  1  0.13648500  0.22866600  0.69084000  1
  S  S3  1  0.22866600  0.09218100  0.19084000  1
  S  S4  1  0.90781900  0.13648500  0.19084000  1
  S  S5  1  0.86351500  0.77133400  0.19084000  1
  S  S6  1  0.48377600  0.57618000  0.99643900  1
  S  S7  1  0.42382000  0.90759500  0.99643900  1
  S  S8  1  0.09240500  0.51622400  0.99643900  1
  S  S9  1  0.51622400  0.42382000  0.49643900  1
  S  S10  1  0.57618000  0.09240500  0.49643900  1
  S  S11  1  0.90759500  0.48377600  0.49643900  1
  S  S12  1  0.33333300  0.66666700  0.47689400  1
  S  S13  1  0.66666700  0.33333300  0.97689400  1
loop_
_geom_bond_atom_site_label_1
_geom_bond_atom_site_label_2
_geom_bond_distance
_geom_bond_site_symmetry_2
Gd0 S12 2.791559 1_555
Gd0 S7 2.793017 1_554
Gd0 S4 2.807171 1_565
Gd0 S0 2.850356 1_555
Gd0 S6 2.872217 1_554
Gd0 S5 2.877910 1_555
Gd0 S10 2.932669 1_565
Gd1 S12 2.791552 1_555
Gd1 S8 2.793024 1_554
Gd1 S5 2.807171 1_455
Gd1 S1 2.850356 1_555
Gd1 S7 2.872217 1_554
Gd1 S3 2.877910 1_565
Gd1 S11 2.932663 1_455
Gd2 S12 2.791560 1_555
Gd2 S6 2.793022 1_554
Gd2 S3 2.807171 1_555
Gd2 S2 2.850356 1_555
Gd2 S8 2.872210 1_554
Gd2 S4 2.877910 1_455
Gd2 S9 2.932660 1_555
Gd3 S13 2.791559 1_555
Gd3 S10 2.793017 1_555
Gd3 S1 2.807171 1_545
Gd3 S3 2.850356 1_556
Gd3 S9 2.872217 1_555
Gd3 S2 2.877910 1_555
Gd3 S7 2.932669 1_545
Gd4 S13 2.791552 1_555
Gd4 S11 2.793024 1_555
Gd4 S2 2.807171 1_655
Gd4 S4 2.850356 1_556
Gd4 S10 2.872217 1_555
Gd4 S0 2.877910 1_545
Gd4 S8 2.932663 1_655
Gd5 S13 2.791560 1_555
Gd5 S9 2.793022 1_555
Gd5 S0 2.807171 1_555
Gd5 S5 2.850356 1_556
Gd5 S11 2.872210 1_555
Gd5 S1 2.877910 1_655
Gd5 S6 2.932660 1_555
Al0 S12 2.213419 1_555
Al0 S7 2.259282 1_555
Al0 S8 2.259285 1_555
Al0 S6 2.259299 1_555
Al1 S13 2.213419 1_554
Al1 S10 2.259282 1_555
Al1 S11 2.259285 1_555
Al1 S9 2.259299 1_555
S0 V0 2.452198 1_665
S0 V1 2.478164 1_665
S1 V0 2.452198 1_565
S1 V1 2.478164 1_565
S2 V0 2.452198 1_555
S2 V1 2.478164 1_555
S3 V1 2.452198 1_554
S3 V0 2.478164 1_555
S4 V1 2.452198 1_654
S4 V0 2.478164 1_655
S5 V1 2.452198 1_664
S5 V0 2.478164 1_665
