# generated using pymatgen
data_MnCu2SiSe4
_symmetry_space_group_name_H-M   'P 1'
_cell_length_a   6.56689600
_cell_length_b   6.78326800
_cell_length_c   7.94395000
_cell_angle_alpha   90.00000000
_cell_angle_beta   90.00000000
_cell_angle_gamma   90.00000000
_symmetry_Int_Tables_number   1
_chemical_formula_structural   MnCu2SiSe4
_chemical_formula_sum   'Mn2 Cu4 Si2 Se8'
_cell_volume   353.86337585
_cell_formula_units_Z   2
loop_
 _symmetry_equiv_pos_site_id
 _symmetry_equiv_pos_as_xyz
  1  'x, y, z'
loop_
 _atom_site_type_symbol
 _atom_site_label
 _atom_site_symmetry_multiplicity
 _atom_site_fract_x
 _atom_site_fract_y
 _atom_site_fract_z
 _atom_site_occupancy
  Mn  Mn0  1  0.51023600  0.34882800  0.00000000  1
  Mn  Mn1  1  0.01023600  0.65117200  0.50000000  1
  Cu  Cu0  1  0.51537100  0.82411500  0.75618800  1
  Cu  Cu1  1  0.01537100  0.17588500  0.74381200  1
  Cu  Cu2  1  0.01537100  0.17588500  0.25618800  1
  Cu  Cu3  1  0.51537100  0.82411500  0.24381200  1
  Si  Si0  1  0.99862500  0.67339500  0.00000000  1
  Si  Si1  1  0.49862500  0.32660500  0.50000000  1
  Se  Se0  1  0.89570100  0.34751400  0.00000000  1
  Se  Se1  1  0.39570100  0.65248600  0.50000000  1
  Se  Se2  1  0.88204000  0.83789900  0.76220000  1
  Se  Se3  1  0.38204000  0.16210100  0.73780000  1
  Se  Se4  1  0.38204000  0.16210100  0.26220000  1
  Se  Se5  1  0.88204000  0.83789900  0.23780000  1
  Se  Se6  1  0.35311700  0.68575100  0.00000000  1
  Se  Se7  1  0.85311700  0.31424900  0.50000000  1
loop_
_geom_bond_atom_site_label_1
_geom_bond_atom_site_label_2
_geom_bond_distance
_geom_bond_site_symmetry_2
Mn0 Se6 2.507551 1_555
Mn0 Se0 2.531324 1_555
Mn0 Se3 2.579055 1_554
Mn0 Se4 2.579055 1_555
Mn1 Se7 2.507551 1_455
Mn1 Se1 2.531324 1_555
Mn1 Se2 2.579055 1_455
Mn1 Se5 2.579055 1_455
Cu0 Se6 2.401564 1_556
Cu0 Se2 2.410165 1_555
Cu0 Se3 2.458496 1_565
Cu0 Se1 2.472805 1_555
Cu1 Se7 2.401564 1_455
Cu1 Se3 2.410165 1_555
Cu1 Se2 2.458496 1_445
Cu1 Se0 2.472805 1_456
Cu2 Se7 2.401564 1_455
Cu2 Se4 2.410165 1_555
Cu2 Se5 2.458496 1_445
Cu2 Se0 2.472805 1_455
Cu3 Se6 2.401564 1_555
Cu3 Se5 2.410165 1_555
Cu3 Se4 2.458496 1_565
Cu3 Se1 2.472805 1_555
Se0 Si0 2.311560 1_555
Se1 Si1 2.311560 1_555
Se2 Si0 2.323771 1_556
Se3 Si1 2.323771 1_555
Se4 Si1 2.323771 1_555
Se5 Si0 2.323771 1_555
Se6 Si0 2.329420 1_455
Se7 Si1 2.329420 1_555
