# generated using pymatgen
data_TbCoB4
_symmetry_space_group_name_H-M   'P 1'
_cell_length_a   3.41277759
_cell_length_b   5.90028162
_cell_length_c   11.42913423
_cell_angle_alpha   90.00000000
_cell_angle_beta   90.00000000
_cell_angle_gamma   90.00000000
_symmetry_Int_Tables_number   1
_chemical_formula_structural   TbCoB4
_chemical_formula_sum   'Tb4 Co4 B16'
_cell_volume   230.14103434
_cell_formula_units_Z   4
loop_
 _symmetry_equiv_pos_site_id
 _symmetry_equiv_pos_as_xyz
  1  'x, y, z'
loop_
 _atom_site_type_symbol
 _atom_site_label
 _atom_site_symmetry_multiplicity
 _atom_site_fract_x
 _atom_site_fract_y
 _atom_site_fract_z
 _atom_site_occupancy
  Tb  Tb0  1  0.50000000  0.37334307  0.15028417  1
  Tb  Tb1  1  0.50000000  0.62667119  0.84970633  1
  Tb  Tb2  1  0.50000000  0.12665693  0.65028417  1
  Tb  Tb3  1  0.50000000  0.87332881  0.34970633  1
  Co  Co0  1  0.50000000  0.36679714  0.41160236  1
  Co  Co1  1  0.50000000  0.63323918  0.58841403  1
  Co  Co2  1  0.50000000  0.13320286  0.91160236  1
  Co  Co3  1  0.50000000  0.86676082  0.08841403  1
  B  B0  1  0.00000000  0.11176941  0.04601330  1
  B  B1  1  0.00000000  0.88823095  0.95398393  1
  B  B2  1  0.00000000  0.38823059  0.54601330  1
  B  B3  1  0.00000000  0.61176905  0.45398393  1
  B  B4  1  0.00000000  0.13985419  0.46709670  1
  B  B5  1  0.00000000  0.86015060  0.53290176  1
  B  B6  1  0.00000000  0.36014581  0.96709670  1
  B  B7  1  0.00000000  0.63984940  0.03290176  1
  B  B8  1  0.00000000  0.02197491  0.18962097  1
  B  B9  1  0.00000000  0.97802300  0.81037824  1
  B  B10  1  0.00000000  0.47802509  0.68962097  1
  B  B11  1  0.00000000  0.52197700  0.31037824  1
  B  B12  1  0.00000000  0.21798574  0.31622927  1
  B  B13  1  0.00000000  0.78201527  0.68376893  1
  B  B14  1  0.00000000  0.28201426  0.81622927  1
  B  B15  1  0.00000000  0.71798473  0.18376893  1
loop_
_geom_bond_atom_site_label_1
_geom_bond_atom_site_label_2
_geom_bond_distance
_geom_bond_site_symmetry_2
B0 B1 1.686985 1_544
B0 B6 1.720806 1_554
B0 B8 1.724704 1_555
B0 Co3 2.288322 1_545
B0 Co3 2.288322 1_445
B0 Co2 2.299493 1_454
B0 Co2 2.299493 1_554
B0 Tb0 2.591125 1_555
B0 Tb0 2.591125 1_455
B1 B7 1.720839 1_556
B1 B9 1.724678 1_555
B1 Co2 2.288139 1_565
B1 Co2 2.288139 1_465
B1 Co3 2.299651 1_456
B1 Co3 2.299651 1_556
B1 Tb1 2.591111 1_555
B1 Tb1 2.591111 1_455
B2 B3 1.686985 1_555
B2 B4 1.720806 1_555
B2 Co1 2.288322 1_455
B2 Co1 2.288322 1_555
B2 Co0 2.299493 1_455
B2 Co0 2.299493 1_555
B2 Tb2 2.591125 1_455
B2 Tb2 2.591125 1_555
B3 B5 1.720839 1_555
B3 Co0 2.288139 1_455
B3 Co0 2.288139 1_555
B3 Co1 2.299651 1_455
B3 Co1 2.299651 1_555
B3 Tb3 2.591111 1_455
B3 Tb3 2.591111 1_555
B4 B5 1.813625 1_545
B4 Co0 2.259875 1_555
B4 Co0 2.259875 1_455
B4 Tb3 2.680454 1_545
B4 Tb3 2.680454 1_445
B4 Tb2 2.702091 1_455
B4 Tb2 2.702091 1_555
B5 Co1 2.259822 1_455
B5 Co1 2.259822 1_555
B5 Tb2 2.680342 1_565
B5 Tb2 2.680342 1_465
B5 Tb3 2.702159 1_555
B5 Tb3 2.702159 1_455
B6 B7 1.813625 1_556
B6 Co2 2.259875 1_555
B6 Co2 2.259875 1_455
B6 Tb1 2.680454 1_455
B6 Tb1 2.680454 1_555
B6 Tb0 2.702091 1_456
B6 Tb0 2.702091 1_556
B7 Co3 2.259822 1_455
B7 Co3 2.259822 1_555
B7 Tb0 2.680342 1_555
B7 Tb0 2.680342 1_455
B7 Tb1 2.702159 1_454
B7 Tb1 2.702159 1_554
B8 Co3 2.255757 1_445
B8 Co3 2.255757 1_545
B8 Tb3 2.651143 1_545
B8 Tb3 2.651143 1_445
B8 Tb0 2.722486 1_455
B8 Tb0 2.722486 1_555
B9 Co2 2.255775 1_565
B9 Co2 2.255775 1_465
B9 Tb2 2.651188 1_465
B9 Tb2 2.651188 1_565
B9 Tb1 2.722396 1_455
B9 Tb1 2.722396 1_555
B10 B2 1.724704 1_555
B10 B13 1.794874 1_555
B10 B14 1.852407 1_555
B10 Co1 2.255757 1_555
B10 Co1 2.255757 1_455
B10 Tb1 2.651143 1_555
B10 Tb1 2.651143 1_455
B10 Tb2 2.722486 1_455
B10 Tb2 2.722486 1_555
B11 B3 1.724678 1_555
B11 B12 1.794880 1_555
B11 B15 1.852405 1_555
B11 Co0 2.255775 1_555
B11 Co0 2.255775 1_455
B11 Tb0 2.651188 1_455
B11 Tb0 2.651188 1_555
B11 Tb3 2.722396 1_455
B11 Tb3 2.722396 1_555
B12 B4 1.784846 1_555
B12 B8 1.852407 1_555
B12 Co0 2.207004 1_455
B12 Co0 2.207004 1_555
B12 Tb3 2.682084 1_445
B12 Tb3 2.682084 1_545
B12 Tb0 2.710929 1_555
B12 Tb0 2.710929 1_455
B13 B5 1.784849 1_555
B13 B9 1.852405 1_555
B13 Co1 2.206819 1_455
B13 Co1 2.206819 1_555
B13 Tb2 2.682028 1_565
B13 Tb2 2.682028 1_465
B13 Tb1 2.710841 1_455
B13 Tb1 2.710841 1_555
B14 B6 1.784846 1_555
B14 B9 1.794880 1_545
B14 Co2 2.207004 1_455
B14 Co2 2.207004 1_555
B14 Tb1 2.682084 1_455
B14 Tb1 2.682084 1_555
B14 Tb2 2.710929 1_455
B14 Tb2 2.710929 1_555
B15 B7 1.784849 1_555
B15 B8 1.794874 1_565
B15 Co3 2.206819 1_455
B15 Co3 2.206819 1_555
B15 Tb0 2.682028 1_555
B15 Tb0 2.682028 1_455
B15 Tb3 2.710841 1_455
B15 Tb3 2.710841 1_555
