# generated using pymatgen
data_Ti(MnP6)2
_symmetry_space_group_name_H-M   'P 1'
_cell_length_a   8.53309302
_cell_length_b   8.53309302
_cell_length_c   10.65148920
_cell_angle_alpha   66.39505730
_cell_angle_beta   66.39505730
_cell_angle_gamma   39.73915988
_symmetry_Int_Tables_number   1
_chemical_formula_structural   Ti(MnP6)2
_chemical_formula_sum   'Ti2 Mn4 P24'
_cell_volume   448.63189000
_cell_formula_units_Z   2
loop_
 _symmetry_equiv_pos_site_id
 _symmetry_equiv_pos_as_xyz
  1  'x, y, z'
loop_
 _atom_site_type_symbol
 _atom_site_label
 _atom_site_symmetry_multiplicity
 _atom_site_fract_x
 _atom_site_fract_y
 _atom_site_fract_z
 _atom_site_occupancy
  Ti  Ti0  1  0.69642500  0.30357500  0.75000000  1
  Ti  Ti1  1  0.30357500  0.69642500  0.25000000  1
  Mn  Mn0  1  0.62766900  0.00721700  0.54625500  1
  Mn  Mn1  1  0.99278300  0.37233100  0.95374500  1
  Mn  Mn2  1  0.00721700  0.62766900  0.04625500  1
  Mn  Mn3  1  0.37233100  0.99278300  0.45374500  1
  P  P0  1  0.59535100  0.95247700  0.07473100  1
  P  P1  1  0.04752300  0.40464900  0.42526900  1
  P  P2  1  0.40464900  0.04752300  0.92526900  1
  P  P3  1  0.95247700  0.59535100  0.57473100  1
  P  P4  1  0.58501200  0.29113100  0.16667500  1
  P  P5  1  0.70886900  0.41498800  0.33332500  1
  P  P6  1  0.97976800  0.33227100  0.75715000  1
  P  P7  1  0.66772900  0.02023200  0.74285000  1
  P  P8  1  0.02023200  0.66772900  0.24285000  1
  P  P9  1  0.33227100  0.97976800  0.25715000  1
  P  P10  1  0.01610000  0.91785700  0.92773200  1
  P  P11  1  0.08214300  0.98390000  0.57226800  1
  P  P12  1  0.98390000  0.08214300  0.07226800  1
  P  P13  1  0.91785700  0.01610000  0.42773200  1
  P  P14  1  0.33372000  0.43230300  0.50606700  1
  P  P15  1  0.56769700  0.66628000  0.99393300  1
  P  P16  1  0.66628000  0.56769700  0.49393300  1
  P  P17  1  0.43230300  0.33372000  0.00606700  1
  P  P18  1  0.99466800  0.64936400  0.83537400  1
  P  P19  1  0.35063600  0.00533200  0.66462600  1
  P  P20  1  0.00533200  0.35063600  0.16462600  1
  P  P21  1  0.64936400  0.99466800  0.33537400  1
  P  P22  1  0.29113100  0.58501200  0.66667500  1
  P  P23  1  0.41498800  0.70886900  0.83332500  1
loop_
_geom_bond_atom_site_label_1
_geom_bond_atom_site_label_2
_geom_bond_distance
_geom_bond_site_symmetry_2
Mn0 P19 2.198512 1_555
Mn0 P21 2.218166 1_545
Mn0 P3 2.228092 1_545
Mn0 P14 2.292575 1_555
Mn0 P7 2.309121 1_555
Mn0 P13 2.332291 1_555
Mn1 P18 2.198512 1_555
Mn1 P20 2.218166 1_656
Mn1 P2 2.228092 1_655
Mn1 P15 2.292575 1_555
Mn1 P6 2.309121 1_555
Mn1 P12 2.332291 1_556
Mn2 P20 2.198512 1_555
Mn2 P18 2.218166 1_454
Mn2 P0 2.228092 1_455
Mn2 P17 2.292575 1_555
Mn2 P8 2.309121 1_555
Mn2 P10 2.332291 1_554
Mn3 P21 2.198512 1_555
Mn3 P19 2.218166 1_565
Mn3 P1 2.228092 1_565
Mn3 P16 2.292575 1_555
Mn3 P9 2.309121 1_555
Mn3 P11 2.332291 1_555
P0 P2 2.202544 1_564
P0 P9 2.221319 1_555
P0 P17 2.236599 1_565
P1 P3 2.202544 1_455
P1 P8 2.221319 1_555
P1 P16 2.236599 1_455
P2 P7 2.221319 1_555
P3 P6 2.221319 1_555
P4 Ti1 2.548271 1_555
P5 Ti1 2.548271 1_555
P6 Ti0 2.642798 1_555
P7 Ti0 2.642798 1_555
P8 Ti1 2.642798 1_555
P9 Ti1 2.642798 1_555
P10 P23 2.266448 1_555
P10 P12 2.282131 1_466
P10 Ti0 2.682475 1_465
P11 P22 2.266448 1_555
P11 P13 2.282131 1_465
P11 Ti0 2.682475 1_465
P12 P4 2.266448 1_555
P12 Ti1 2.682475 1_645
P13 P5 2.266448 1_555
P13 Ti1 2.682475 1_645
P14 P3 2.236599 1_455
P14 P22 2.305582 1_555
P14 Ti1 2.707802 1_555
P15 P2 2.236599 1_565
P15 P23 2.305582 1_555
P15 Ti1 2.707802 1_556
P16 P5 2.305582 1_555
P16 Ti0 2.707802 1_555
P17 P4 2.305582 1_555
P17 Ti0 2.707802 1_554
P18 P7 2.212565 1_565
P18 P22 2.223368 1_655
P19 P6 2.212565 1_455
P19 P23 2.223368 1_545
P20 P9 2.212565 1_545
P20 P5 2.223368 1_455
P21 P8 2.212565 1_655
P21 P4 2.223368 1_565
P22 Ti0 2.548271 1_555
P23 Ti0 2.548271 1_555
