# generated using pymatgen
data_EuSi2Pt
_symmetry_space_group_name_H-M   'P 1'
_cell_length_a   8.77009667
_cell_length_b   8.77009667
_cell_length_c   4.17831236
_cell_angle_alpha   90.00000000
_cell_angle_beta   90.00000000
_cell_angle_gamma   151.42567406
_symmetry_Int_Tables_number   1
_chemical_formula_structural   EuSi2Pt
_chemical_formula_sum   'Eu2 Si4 Pt2'
_cell_volume   153.71228626
_cell_formula_units_Z   2
loop_
 _symmetry_equiv_pos_site_id
 _symmetry_equiv_pos_as_xyz
  1  'x, y, z'
loop_
 _atom_site_type_symbol
 _atom_site_label
 _atom_site_symmetry_multiplicity
 _atom_site_fract_x
 _atom_site_fract_y
 _atom_site_fract_z
 _atom_site_occupancy
  Eu  Eu0  1  0.60495709  0.39504291  0.25000000  1
  Eu  Eu1  1  0.39503745  0.60496255  0.75000000  1
  Si  Si0  1  0.25116580  0.74883420  0.25000000  1
  Si  Si1  1  0.74882844  0.25117156  0.75000000  1
  Si  Si2  1  0.96217306  0.03782694  0.25000000  1
  Si  Si3  1  0.03784002  0.96215998  0.75000000  1
  Pt  Pt0  1  0.82070033  0.17929967  0.25000000  1
  Pt  Pt1  1  0.17929981  0.82070019  0.75000000  1
loop_
_geom_bond_atom_site_label_1
_geom_bond_atom_site_label_2
_geom_bond_distance
_geom_bond_site_symmetry_2
Eu0 Si1 3.216357 1_554
Eu0 Si1 3.216357 1_555
Eu0 Si3 3.217185 1_654
Eu0 Si3 3.217185 1_655
Eu0 Si3 3.217185 1_544
Eu0 Si3 3.217185 1_545
Eu0 Si2 3.251849 1_565
Eu0 Si2 3.251849 1_455
Eu0 Pt1 3.262759 1_545
Eu0 Pt1 3.262759 1_544
Eu0 Pt1 3.262759 1_654
Eu0 Pt1 3.262759 1_655
Eu0 Si0 3.295523 1_655
Eu0 Si0 3.295523 1_545
Eu1 Si0 3.216361 1_555
Eu1 Si0 3.216361 1_556
Eu1 Si2 3.217297 1_456
Eu1 Si2 3.217297 1_565
Eu1 Si2 3.217297 1_566
Eu1 Si2 3.217297 1_455
Eu1 Si3 3.252085 1_655
Eu1 Si3 3.252085 1_545
Eu1 Pt0 3.262722 1_565
Eu1 Pt0 3.262722 1_566
Eu1 Pt0 3.262722 1_455
Eu1 Pt0 3.262722 1_456
Eu1 Si1 3.295527 1_565
Eu1 Si1 3.295527 1_455
Si2 Si3 2.453322 1_645
Si2 Si3 2.453322 1_644
Pt0 Si2 2.404710 1_555
Pt0 Si1 2.420128 1_554
Pt0 Si1 2.420128 1_555
Pt0 Si0 2.465999 1_545
Pt0 Si0 2.465999 1_655
Pt1 Si3 2.404490 1_555
Pt1 Si0 2.420077 1_555
Pt1 Si0 2.420077 1_556
Pt1 Si1 2.465951 1_455
Pt1 Si1 2.465951 1_565
