# generated using pymatgen
data_Na5H7(Se2O9)2
_symmetry_space_group_name_H-M   'P 1'
_cell_length_a   6.24914800
_cell_length_b   7.49697615
_cell_length_c   11.20844082
_cell_angle_alpha   98.31201727
_cell_angle_beta   96.40620394
_cell_angle_gamma   97.65850163
_symmetry_Int_Tables_number   1
_chemical_formula_structural   Na5H7(Se2O9)2
_chemical_formula_sum   'Na5 H7 Se4 O18'
_cell_volume   510.35731891
_cell_formula_units_Z   1
loop_
 _symmetry_equiv_pos_site_id
 _symmetry_equiv_pos_as_xyz
  1  'x, y, z'
loop_
 _atom_site_type_symbol
 _atom_site_label
 _atom_site_symmetry_multiplicity
 _atom_site_fract_x
 _atom_site_fract_y
 _atom_site_fract_z
 _atom_site_occupancy
  Na  Na0  1  0.97750400  0.23476500  0.28031400  1
  Na  Na1  1  0.14081100  0.74513800  0.73790100  1
  Na  Na2  1  0.49011600  0.02559200  0.46173800  1
  Na  Na3  1  0.40581300  0.79962200  0.10714300  1
  Na  Na4  1  0.59922500  0.15359300  0.88121200  1
  H  H0  1  0.44992800  0.62779500  0.40842700  1
  H  H1  1  0.56486300  0.35862900  0.56208500  1
  H  H2  1  0.06667700  0.30627600  0.02708700  1
  H  H3  1  0.88862800  0.80549600  0.89573400  1
  H  H4  1  0.65713600  0.32190100  0.59482400  1
  H  H5  1  0.36953400  0.68323000  0.38292600  1
  H  H6  1  0.26525800  0.03598300  0.02589400  1
  Se  Se0  1  0.45156300  0.33390500  0.17771500  1
  Se  Se1  1  0.56245000  0.59354600  0.83341500  1
  Se  Se2  1  0.06370600  0.19313800  0.71318900  1
  Se  Se3  1  0.93433700  0.76391400  0.29494100  1
  O  O0  1  0.98638600  0.06958300  0.07521600  1
  O  O1  1  0.62868000  0.47727100  0.94537200  1
  O  O2  1  0.25306100  0.07623300  0.76398800  1
  O  O3  1  0.71956900  0.85907600  0.24929400  1
  O  O4  1  0.46681300  0.13637400  0.07834500  1
  O  O5  1  0.43410100  0.76358400  0.89701700  1
  O  O6  1  0.93063400  0.21698300  0.01025400  1
  O  O7  1  0.10474600  0.95661400  0.00271000  1
  O  O8  1  0.37127200  0.27049100  0.30725800  1
  O  O9  1  0.82199000  0.73205800  0.81658500  1
  O  O10  1  0.80834900  0.09552400  0.70812400  1
  O  O11  1  0.17173700  0.87995800  0.27659400  1
  O  O12  1  0.90273100  0.14239500  0.46324200  1
  O  O13  1  0.14165400  0.83497100  0.53680400  1
  O  O14  1  0.09544100  0.18975300  0.53633200  1
  O  O15  1  0.93919500  0.79419400  0.47645700  1
  O  O16  1  0.11449600  0.40949900  0.78010100  1
  O  O17  1  0.91160100  0.54291300  0.24076400  1
loop_
_geom_bond_atom_site_label_1
_geom_bond_atom_site_label_2
_geom_bond_distance
_geom_bond_site_symmetry_2
Na0 O12 2.332346 1_555
Na0 O8 2.419333 1_655
Na0 O0 2.458649 1_555
Na0 O17 2.492385 1_555
Na1 O9 2.263170 1_455
Na1 O5 2.385520 1_555
Na1 O13 2.444308 1_555
Na1 O2 2.453410 1_565
Na1 O16 2.614116 1_555
Na2 O12 2.607666 1_555
Na2 O11 2.702128 1_545
Na2 O13 2.723808 1_545
Na2 O8 2.813557 1_555
Na3 O3 2.333716 1_555
Na3 O5 2.360678 1_554
Na3 O4 2.574834 1_565
Na3 O11 2.575612 1_555
Na3 O7 2.606184 1_555
Na4 O6 2.340392 1_556
Na4 O2 2.356539 1_555
Na4 O1 2.405477 1_555
Na4 O4 2.458755 1_556
Na4 O10 2.476766 1_555
H0 H5 0.751510 1_555
H1 H4 0.753184 1_555
H1 Na2 2.545007 1_555
H2 O6 0.991206 1_455
H3 O9 0.989333 1_555
H4 Na2 2.515101 1_555
H5 Na2 2.572236 1_565
H6 O7 1.079706 1_545
H6 O4 1.397387 1_555
H6 Na3 2.333174 1_545
O0 O7 1.423697 1_645
O0 O6 1.466744 1_555
O1 Se1 1.674035 1_555
O2 Se2 1.662197 1_555
O3 Se3 1.667194 1_555
O4 Se0 1.739837 1_555
O5 Se1 1.707023 1_555
O8 Se0 1.698405 1_555
O9 Se1 1.849454 1_555
O10 Se2 1.655821 1_655
O11 Se3 1.666092 1_455
O12 O14 1.352496 1_655
O13 O15 1.340837 1_455
O14 Se2 2.010964 1_555
O15 Se3 2.010606 1_555
O16 Se2 1.658975 1_555
O17 Se3 1.661672 1_555
