# generated using pymatgen
data_Mn2H2SO5
_symmetry_space_group_name_H-M   'P 1'
_cell_length_a   5.81340000
_cell_length_b   7.62101100
_cell_length_c   10.42325400
_cell_angle_alpha   90.00000000
_cell_angle_beta   90.00000000
_cell_angle_gamma   90.00000000
_symmetry_Int_Tables_number   1
_chemical_formula_structural   Mn2H2SO5
_chemical_formula_sum   'Mn8 H8 S4 O20'
_cell_volume   461.79169249
_cell_formula_units_Z   4
loop_
 _symmetry_equiv_pos_site_id
 _symmetry_equiv_pos_as_xyz
  1  'x, y, z'
loop_
 _atom_site_type_symbol
 _atom_site_label
 _atom_site_symmetry_multiplicity
 _atom_site_fract_x
 _atom_site_fract_y
 _atom_site_fract_z
 _atom_site_occupancy
  Mn  Mn0  1  0.26044500  0.90260500  0.05510800  1
  Mn  Mn1  1  0.23955500  0.40260500  0.44489100  1
  Mn  Mn2  1  0.73955500  0.09739500  0.55510900  1
  Mn  Mn3  1  0.76044500  0.59739500  0.94489100  1
  Mn  Mn4  1  0.73955500  0.09739500  0.94489100  1
  Mn  Mn5  1  0.76044500  0.59739500  0.55510900  1
  Mn  Mn6  1  0.26044500  0.90260500  0.44489100  1
  Mn  Mn7  1  0.23955500  0.40260500  0.05510800  1
  H  H0  1  0.49636500  0.83097400  0.85236000  1
  H  H1  1  0.00363500  0.33097400  0.64764000  1
  H  H2  1  0.50363500  0.16902600  0.35236000  1
  H  H3  1  0.99636500  0.66902600  0.14764000  1
  H  H4  1  0.50363500  0.16902600  0.14764000  1
  H  H5  1  0.99636500  0.66902600  0.35236000  1
  H  H6  1  0.49636500  0.83097400  0.64764000  1
  H  H7  1  0.00363500  0.33097400  0.85236000  1
  S  S0  1  0.90249000  0.16186300  0.25000000  1
  S  S1  1  0.59751000  0.66186300  0.25000000  1
  S  S2  1  0.09751000  0.83813700  0.75000000  1
  S  S3  1  0.40249000  0.33813700  0.75000000  1
  O  O0  1  0.09177900  0.30677900  0.25000000  1
  O  O1  1  0.40822100  0.80677900  0.25000000  1
  O  O2  1  0.90822100  0.69322100  0.75000000  1
  O  O3  1  0.59177900  0.19322100  0.75000000  1
  O  O4  1  0.95447100  0.04587300  0.13145800  1
  O  O5  1  0.54552900  0.54587300  0.36854200  1
  O  O6  1  0.04552900  0.95412700  0.63145800  1
  O  O7  1  0.45447100  0.45412700  0.86854200  1
  O  O8  1  0.04552900  0.95412700  0.86854200  1
  O  O9  1  0.45447100  0.45412700  0.63145800  1
  O  O10  1  0.95447100  0.04587300  0.36854200  1
  O  O11  1  0.54552900  0.54587300  0.13145800  1
  O  O12  1  0.56176900  0.84067200  0.93862600  1
  O  O13  1  0.93823100  0.34067200  0.56137400  1
  O  O14  1  0.43823100  0.15932800  0.43862600  1
  O  O15  1  0.06176900  0.65932800  0.06137400  1
  O  O16  1  0.43823100  0.15932800  0.06137400  1
  O  O17  1  0.06176900  0.65932800  0.43862600  1
  O  O18  1  0.56176900  0.84067200  0.56137400  1
  O  O19  1  0.93823100  0.34067200  0.93862600  1
loop_
_geom_bond_atom_site_label_1
_geom_bond_atom_site_label_2
_geom_bond_distance
_geom_bond_site_symmetry_2
Mn0 O12 2.182975 1_554
Mn0 O15 2.185321 1_555
Mn0 O16 2.213667 1_565
Mn0 O4 2.233697 1_465
Mn0 O1 2.323353 1_555
Mn0 O8 2.344509 1_554
Mn1 O13 2.182981 1_455
Mn1 O14 2.185321 1_555
Mn1 O17 2.213667 1_555
Mn1 O5 2.233693 1_555
Mn1 O0 2.323343 1_555
Mn1 O9 2.344517 1_555
Mn2 O14 2.182981 1_555
Mn2 O13 2.185321 1_555
Mn2 O18 2.213667 1_545
Mn2 O6 2.233693 1_645
Mn2 O3 2.323343 1_555
Mn2 O10 2.344517 1_555
Mn3 O15 2.182981 1_656
Mn3 O12 2.185321 1_555
Mn3 O19 2.213667 1_555
Mn3 O7 2.233693 1_555
Mn3 O2 2.323343 1_555
Mn3 O11 2.344517 1_556
Mn4 O16 2.182981 1_556
Mn4 O19 2.185321 1_555
Mn4 O12 2.213667 1_545
Mn4 O8 2.233693 1_645
Mn4 O3 2.323343 1_555
Mn4 O4 2.344517 1_556
Mn5 O17 2.182981 1_655
Mn5 O18 2.185321 1_555
Mn5 O13 2.213667 1_555
Mn5 O9 2.233693 1_555
Mn5 O2 2.323343 1_555
Mn5 O5 2.344517 1_555
Mn6 O18 2.182981 1_555
Mn6 O17 2.185321 1_555
Mn6 O14 2.213667 1_565
Mn6 O10 2.233693 1_465
Mn6 O1 2.323343 1_555
Mn6 O6 2.344517 1_555
Mn7 O19 2.182975 1_454
Mn7 O16 2.185321 1_555
Mn7 O15 2.213667 1_555
Mn7 O11 2.233697 1_555
Mn7 O0 2.323353 1_555
Mn7 O7 2.344509 1_554
H0 O12 0.979051 1_555
H1 O13 0.979051 1_455
H2 O14 0.979051 1_555
H3 O15 0.979051 1_655
H4 O16 0.979051 1_555
H5 O17 0.979051 1_655
H6 O18 0.979051 1_555
H7 O19 0.979051 1_455
O0 S0 1.559045 1_455
O1 S1 1.559045 1_555
O2 S2 1.559045 1_655
O3 S3 1.559045 1_555
O4 S0 1.548998 1_555
O5 S1 1.548998 1_555
O6 S2 1.548998 1_555
O7 S3 1.548998 1_555
O8 S2 1.548998 1_555
O9 S3 1.548998 1_555
O10 S0 1.548998 1_555
O11 S1 1.548998 1_555
