# generated using pymatgen
data_BaFe12
_symmetry_space_group_name_H-M   'P 1'
_cell_length_a   4.66147570
_cell_length_b   4.66050000
_cell_length_c   21.60472800
_cell_angle_alpha   90.00000000
_cell_angle_beta   90.00000000
_cell_angle_gamma   60.00692375
_symmetry_Int_Tables_number   1
_chemical_formula_structural   BaFe12
_chemical_formula_sum   'Ba2 Fe24'
_cell_volume   406.50479021
_cell_formula_units_Z   2
loop_
 _symmetry_equiv_pos_site_id
 _symmetry_equiv_pos_as_xyz
  1  'x, y, z'
loop_
 _atom_site_type_symbol
 _atom_site_label
 _atom_site_symmetry_multiplicity
 _atom_site_fract_x
 _atom_site_fract_y
 _atom_site_fract_z
 _atom_site_occupancy
  Ba  Ba0  1  0.66667100  0.66666500  0.73394400  1
  Ba  Ba1  1  0.33332900  0.33333500  0.23394400  1
  Fe  Fe0  1  0.33319800  0.33340100  0.51488500  1
  Fe  Fe1  1  0.66657700  0.66671200  0.47785700  1
  Fe  Fe2  1  0.66680200  0.66659900  0.01488500  1
  Fe  Fe3  1  0.33342300  0.33328800  0.97785700  1
  Fe  Fe4  1  0.99997700  0.00001100  0.49593300  1
  Fe  Fe5  1  0.00002300  0.99998900  0.99593300  1
  Fe  Fe6  1  0.33304700  0.33347700  0.62577900  1
  Fe  Fe7  1  0.66659300  0.66670400  0.35729300  1
  Fe  Fe8  1  0.66695300  0.66652300  0.12577900  1
  Fe  Fe9  1  0.33340700  0.33329600  0.85729300  1
  Fe  Fe10  1  0.17138400  0.65724200  0.40656800  1
  Fe  Fe11  1  0.65724800  0.17137600  0.40657200  1
  Fe  Fe12  1  0.17138400  0.17137400  0.40656800  1
  Fe  Fe13  1  0.83174900  0.33607200  0.58697700  1
  Fe  Fe14  1  0.33557400  0.83221300  0.58701600  1
  Fe  Fe15  1  0.83174900  0.83217900  0.58697700  1
  Fe  Fe16  1  0.82861600  0.34275800  0.90656800  1
  Fe  Fe17  1  0.34275200  0.82862400  0.90657200  1
  Fe  Fe18  1  0.82861600  0.82862600  0.90656800  1
  Fe  Fe19  1  0.16825100  0.66392800  0.08697700  1
  Fe  Fe20  1  0.66442600  0.16778700  0.08701600  1
  Fe  Fe21  1  0.16825100  0.16782100  0.08697700  1
  Fe  Fe22  1  0.00007800  0.99996100  0.82063100  1
  Fe  Fe23  1  0.99992200  0.00003900  0.32063100  1
loop_
_geom_bond_atom_site_label_1
_geom_bond_atom_site_label_2
_geom_bond_distance
_geom_bond_site_symmetry_2
Ba0 Fe22 3.278635 1_655
Ba0 Fe22 3.278639 1_645
Ba0 Fe22 3.278733 1_555
Ba0 Fe15 3.444184 1_555
Ba0 Fe13 3.444185 1_555
Ba0 Fe14 3.444306 1_555
Ba0 Fe6 3.563538 1_655
Ba0 Fe6 3.564442 1_555
Ba0 Fe6 3.564442 1_565
Ba0 Fe9 3.787100 1_565
Ba0 Fe9 3.787106 1_555
Ba0 Fe9 3.787802 1_655
Ba1 Fe23 3.278635 1_455
Ba1 Fe23 3.278639 1_465
Ba1 Fe23 3.278733 1_555
Ba1 Fe21 3.444184 1_555
Ba1 Fe19 3.444185 1_555
Ba1 Fe20 3.444306 1_555
Ba1 Fe8 3.563538 1_455
Ba1 Fe8 3.564442 1_545
Ba1 Fe8 3.564442 1_555
Ba1 Fe7 3.787100 1_545
Ba1 Fe7 3.787106 1_555
Ba1 Fe7 3.787802 1_455
Fe0 Fe6 2.395835 1_555
Fe0 Fe10 2.680482 1_555
Fe0 Fe12 2.680482 1_555
Fe0 Fe11 2.680952 1_555
Fe0 Fe4 2.721676 1_465
Fe0 Fe4 2.721680 1_455
Fe0 Fe4 2.722907 1_555
Fe0 Fe13 2.802833 1_555
Fe0 Fe15 2.802833 1_545
Fe0 Fe14 2.803333 1_555
Fe0 Fe14 2.803333 1_545
Fe0 Fe15 2.803717 1_455
Fe0 Fe13 2.803717 1_455
Fe0 Fe1 2.807410 1_545
Fe0 Fe1 2.807414 1_555
Fe0 Fe1 2.807687 1_455
Fe1 Fe7 2.604752 1_555
Fe1 Fe15 2.709054 1_555
Fe1 Fe13 2.709056 1_555
Fe1 Fe14 2.710649 1_555
Fe1 Fe4 2.719248 1_565
Fe1 Fe4 2.719256 1_555
Fe1 Fe4 2.719410 1_465
Fe1 Fe11 2.793449 1_565
Fe1 Fe11 2.793453 1_555
Fe1 Fe12 2.793624 1_565
Fe1 Fe10 2.793626 1_555
Fe1 Fe10 2.794201 1_655
Fe1 Fe12 2.794203 1_655
Fe2 Fe8 2.395835 1_555
Fe2 Fe5 2.721676 1_644
Fe2 Fe5 2.721680 1_654
Fe2 Fe5 2.722907 1_554
Fe2 Fe21 2.802833 1_565
Fe2 Fe20 2.803333 1_565
Fe2 Fe20 2.803333 1_555
Fe2 Fe21 2.803717 1_655
Fe2 Fe3 2.807410 1_564
Fe2 Fe3 2.807414 1_554
Fe2 Fe3 2.807687 1_654
Fe3 Fe9 2.604752 1_555
Fe3 Fe5 2.719248 1_545
Fe3 Fe5 2.719256 1_555
Fe3 Fe5 2.719410 1_645
Fe10 Fe12 2.264388 1_555
Fe10 Fe11 2.264848 1_555
Fe10 Fe23 2.315525 1_465
Fe10 Fe4 2.375256 1_465
Fe10 Fe12 2.396112 1_565
Fe10 Fe11 2.396628 1_465
Fe10 Fe7 2.562375 1_555
Fe10 Fe7 2.562901 1_455
Fe11 Fe12 2.264848 1_555
Fe11 Fe23 2.315471 1_555
Fe11 Fe4 2.375260 1_555
Fe11 Fe12 2.396628 1_655
Fe11 Fe7 2.562221 1_545
Fe11 Fe7 2.562225 1_555
Fe12 Fe23 2.315525 1_455
Fe12 Fe4 2.375258 1_455
Fe12 Fe7 2.562373 1_545
Fe12 Fe7 2.562903 1_455
Fe13 Fe15 2.312107 1_555
Fe13 Fe14 2.312829 1_555
Fe13 Fe15 2.348393 1_545
Fe13 Fe14 2.348647 1_645
Fe13 Fe4 2.389359 1_555
Fe13 Fe6 2.476930 1_555
Fe13 Fe6 2.476940 1_655
Fe14 Fe15 2.312829 1_555
Fe14 Fe15 2.348647 1_455
Fe14 Fe4 2.389151 1_465
Fe14 Fe6 2.476187 1_555
Fe14 Fe6 2.476192 1_565
Fe15 Fe4 2.389357 1_565
Fe15 Fe6 2.476933 1_565
Fe15 Fe6 2.476937 1_655
Fe16 Fe18 2.264388 1_555
Fe16 Fe17 2.264848 1_555
Fe16 Fe22 2.315525 1_645
Fe16 Fe5 2.375256 1_645
Fe16 Fe18 2.396112 1_545
Fe16 Fe17 2.396628 1_645
Fe16 Fe9 2.562375 1_555
Fe16 Fe9 2.562901 1_655
Fe16 Fe2 2.680482 1_556
Fe16 Fe3 2.793626 1_555
Fe16 Fe3 2.794201 1_655
Fe17 Fe18 2.264848 1_555
Fe17 Fe22 2.315471 1_555
Fe17 Fe5 2.375260 1_555
Fe17 Fe18 2.396628 1_455
Fe17 Fe9 2.562221 1_565
Fe17 Fe9 2.562225 1_555
Fe17 Fe2 2.680952 1_556
Fe17 Fe3 2.793449 1_565
Fe17 Fe3 2.793453 1_555
Fe18 Fe22 2.315525 1_655
Fe18 Fe5 2.375258 1_655
Fe18 Fe9 2.562373 1_565
Fe18 Fe9 2.562903 1_655
Fe18 Fe2 2.680482 1_556
Fe18 Fe3 2.793624 1_565
Fe18 Fe3 2.794203 1_655
Fe19 Fe21 2.312107 1_555
Fe19 Fe20 2.312829 1_555
Fe19 Fe21 2.348393 1_565
Fe19 Fe20 2.348647 1_465
Fe19 Fe5 2.389359 1_554
Fe19 Fe8 2.476930 1_555
Fe19 Fe8 2.476940 1_455
Fe19 Fe3 2.709056 1_554
Fe19 Fe2 2.802833 1_555
Fe19 Fe2 2.803717 1_455
Fe20 Fe21 2.312829 1_555
Fe20 Fe21 2.348647 1_655
Fe20 Fe5 2.389151 1_644
Fe20 Fe8 2.476187 1_555
Fe20 Fe8 2.476192 1_545
Fe20 Fe3 2.710649 1_554
Fe21 Fe5 2.389357 1_544
Fe21 Fe8 2.476933 1_545
Fe21 Fe8 2.476937 1_455
Fe21 Fe3 2.709054 1_554
Fe22 Fe9 2.805070 1_565
Fe22 Fe9 2.805074 1_555
Fe22 Fe9 2.805638 1_465
Fe23 Fe7 2.805070 1_545
Fe23 Fe7 2.805074 1_555
Fe23 Fe7 2.805638 1_645
