# generated using pymatgen
data_Yb2ZnSb2
_symmetry_space_group_name_H-M   'P 1'
_cell_length_a   4.59929800
_cell_length_b   12.43176800
_cell_length_c   21.81509999
_cell_angle_alpha   89.72189175
_cell_angle_beta   90.00000000
_cell_angle_gamma   90.00000000
_symmetry_Int_Tables_number   1
_chemical_formula_structural   Yb2ZnSb2
_chemical_formula_sum   'Yb18 Zn9 Sb18'
_cell_volume   1247.31612847
_cell_formula_units_Z   9
loop_
 _symmetry_equiv_pos_site_id
 _symmetry_equiv_pos_as_xyz
  1  'x, y, z'
loop_
 _atom_site_type_symbol
 _atom_site_label
 _atom_site_symmetry_multiplicity
 _atom_site_fract_x
 _atom_site_fract_y
 _atom_site_fract_z
 _atom_site_occupancy
  Yb  Yb0  1  0.00000000  0.06854400  0.58829600  1
  Yb  Yb1  1  0.00000000  0.93251700  0.40994900  1
  Yb  Yb2  1  0.00000000  0.43760200  0.09197200  1
  Yb  Yb3  1  0.00000000  0.56776600  0.91039900  1
  Yb  Yb4  1  0.00000000  0.12617200  0.75450600  1
  Yb  Yb5  1  0.00000000  0.87705400  0.23636900  1
  Yb  Yb6  1  0.00000000  0.37784100  0.26368600  1
  Yb  Yb7  1  0.00000000  0.62111900  0.73531300  1
  Yb  Yb8  1  0.50000000  0.30186800  0.89938100  1
  Yb  Yb9  1  0.50000000  0.71200300  0.10247100  1
  Yb  Yb10  1  0.50000000  0.21110800  0.39869400  1
  Yb  Yb11  1  0.50000000  0.78857400  0.59976000  1
  Yb  Yb12  1  0.50000000  0.49946500  0.49980900  1
  Yb  Yb13  1  0.50000000  0.99481800  0.00408900  1
  Yb  Yb14  1  0.00000000  0.36814300  0.63703300  1
  Yb  Yb15  1  0.00000000  0.63328500  0.36138800  1
  Yb  Yb16  1  0.00000000  0.13083900  0.14373600  1
  Yb  Yb17  1  0.00000000  0.85476500  0.85980700  1
  Zn  Zn0  1  0.50000000  0.38256700  0.73787600  1
  Zn  Zn1  1  0.50000000  0.61663900  0.26242500  1
  Zn  Zn2  1  0.50000000  0.11475300  0.23850100  1
  Zn  Zn3  1  0.50000000  0.87477300  0.75961200  1
  Zn  Zn4  1  0.50000000  0.22439300  0.54558400  1
  Zn  Zn5  1  0.50000000  0.77540400  0.45319300  1
  Zn  Zn6  1  0.50000000  0.28204900  0.04632900  1
  Zn  Zn7  1  0.50000000  0.72544000  0.95346800  1
  Zn  Zn8  1  0.00000000  0.10926600  0.89550100  1
  Sb  Sb0  1  0.00000000  0.37517100  0.80806900  1
  Sb  Sb1  1  0.00000000  0.62060300  0.19393600  1
  Sb  Sb2  1  0.00000000  0.12007200  0.30551700  1
  Sb  Sb3  1  0.00000000  0.88390400  0.69546500  1
  Sb  Sb4  1  0.50000000  0.04176300  0.85144400  1
  Sb  Sb5  1  0.50000000  0.95753500  0.14700400  1
  Sb  Sb6  1  0.50000000  0.45797200  0.35266600  1
  Sb  Sb7  1  0.50000000  0.54140500  0.64822500  1
  Sb  Sb8  1  0.50000000  0.19159400  0.66745000  1
  Sb  Sb9  1  0.50000000  0.80992800  0.33117600  1
  Sb  Sb10  1  0.50000000  0.30890000  0.16737900  1
  Sb  Sb11  1  0.50000000  0.68787000  0.83101300  1
  Sb  Sb12  1  0.00000000  0.19559200  0.00231500  1
  Sb  Sb13  1  0.00000000  0.80744500  0.00441100  1
  Sb  Sb14  1  0.00000000  0.30723700  0.49435100  1
  Sb  Sb15  1  0.00000000  0.69257300  0.50601000  1
  Sb  Sb16  1  0.50000000  0.99939100  0.50057700  1
  Sb  Sb17  1  0.50000000  0.50007400  0.99954500  1
loop_
_geom_bond_atom_site_label_1
_geom_bond_atom_site_label_2
_geom_bond_distance
_geom_bond_site_symmetry_2
Yb0 Zn4 3.145294 1_555
Yb0 Zn4 3.145294 1_455
Yb1 Zn5 3.158387 1_455
Yb1 Zn5 3.158387 1_555
Yb2 Zn6 3.168294 1_555
Yb2 Zn6 3.168294 1_455
Yb3 Zn7 3.167220 1_555
Yb3 Zn7 3.167220 1_455
Yb4 Zn8 3.081974 1_555
Yb8 Zn6 3.213947 1_556
Yb8 Zn8 3.321233 1_555
Yb8 Zn8 3.321233 1_655
Yb9 Zn7 3.253995 1_554
Yb10 Zn4 3.209474 1_555
Yb11 Zn5 3.202357 1_555
Yb12 Zn4 3.557795 1_555
Yb12 Zn5 3.573233 1_555
Yb13 Zn7 3.531309 1_554
Yb13 Zn8 3.590472 1_564
Yb13 Zn8 3.590472 1_664
Yb14 Zn0 3.188092 1_455
Yb14 Zn0 3.188092 1_555
Yb14 Zn4 3.535039 1_555
Yb14 Zn4 3.535039 1_455
Yb15 Zn1 3.161699 1_555
Yb15 Zn1 3.161699 1_455
Yb15 Zn5 3.529197 1_555
Yb15 Zn5 3.529197 1_455
Yb16 Zn2 3.098084 1_555
Yb16 Zn2 3.098084 1_455
Yb17 Zn3 3.181594 1_455
Yb17 Zn3 3.181594 1_555
Yb17 Zn8 3.261976 1_565
Yb17 Zn7 3.466422 1_555
Yb17 Zn7 3.466422 1_455
Sb0 Zn0 2.764101 1_555
Sb0 Zn0 2.764101 1_455
Sb0 Yb8 3.173199 1_455
Sb0 Yb8 3.173199 1_555
Sb0 Yb3 3.281445 1_555
Sb0 Yb4 3.313996 1_555
Sb0 Yb7 3.438132 1_555
Sb1 Zn1 2.742703 1_555
Sb1 Zn1 2.742703 1_455
Sb1 Yb2 3.189455 1_555
Sb1 Yb9 3.246346 1_555
Sb1 Yb9 3.246346 1_455
Sb1 Yb5 3.324119 1_555
Sb1 Yb6 3.373245 1_555
Sb2 Zn2 2.725991 1_455
Sb2 Zn2 2.725991 1_555
Sb2 Yb1 3.251945 1_545
Sb2 Yb10 3.274642 1_555
Sb2 Yb10 3.274642 1_455
Sb2 Yb6 3.327662 1_555
Sb2 Yb5 3.383346 1_545
Sb2 Yb16 3.531157 1_555
Sb3 Zn3 2.694063 1_455
Sb3 Zn3 2.694063 1_555
Sb3 Yb0 3.268419 1_565
Sb3 Yb4 3.281405 1_565
Sb3 Yb11 3.328045 1_455
Sb3 Yb11 3.328045 1_555
Sb3 Yb7 3.376479 1_555
Sb3 Yb17 3.601642 1_555
Sb4 Zn8 2.631382 1_655
Sb4 Zn8 2.631382 1_555
Sb4 Zn3 2.891951 1_545
Sb4 Yb17 3.274425 1_545
Sb4 Yb17 3.274425 1_645
Sb4 Yb4 3.292414 1_555
Sb4 Yb4 3.292414 1_655
Sb4 Yb13 3.377929 1_546
Sb4 Yb8 3.403287 1_555
Sb5 Zn2 2.800360 1_565
Sb5 Yb13 3.149743 1_555
Sb5 Yb16 3.151784 1_565
Sb5 Yb16 3.151784 1_665
Sb5 Yb5 3.173495 1_655
Sb5 Yb5 3.173495 1_555
Sb5 Yb9 3.207758 1_555
Sb6 Zn1 2.780028 1_555
Sb6 Yb6 3.172918 1_555
Sb6 Yb6 3.172918 1_655
Sb6 Yb15 3.174684 1_555
Sb6 Yb15 3.174684 1_655
Sb6 Yb10 3.224407 1_555
Sb6 Yb12 3.253593 1_555
Sb7 Zn0 2.772479 1_555
Sb7 Yb7 3.146122 1_555
Sb7 Yb7 3.146122 1_655
Sb7 Yb14 3.161110 1_555
Sb7 Yb14 3.161110 1_655
Sb7 Yb11 3.244697 1_555
Sb7 Yb12 3.281920 1_555
Sb8 Zn4 2.687649 1_555
Sb8 Zn0 2.834128 1_555
Sb8 Yb4 3.088945 1_555
Sb8 Yb4 3.088945 1_655
Sb8 Yb14 3.245268 1_555
Sb8 Yb14 3.245268 1_655
Sb8 Yb0 3.261253 1_655
Sb8 Yb0 3.261253 1_555
Sb9 Zn5 2.694135 1_555
Sb9 Zn1 2.838743 1_555
Sb9 Yb5 3.200869 1_555
Sb9 Yb5 3.200869 1_655
Sb9 Yb15 3.245161 1_555
Sb9 Yb15 3.245161 1_655
Sb9 Yb1 3.254139 1_555
Sb9 Yb1 3.254139 1_655
Sb10 Zn6 2.663339 1_555
Sb10 Zn2 2.862922 1_555
Sb10 Yb6 3.233325 1_555
Sb10 Yb6 3.233325 1_655
Sb10 Yb16 3.235054 1_655
Sb10 Yb16 3.235054 1_555
Sb10 Yb2 3.244823 1_555
Sb10 Yb2 3.244823 1_655
Sb11 Zn7 2.714123 1_555
Sb11 Zn3 2.791032 1_555
Sb11 Yb17 3.162340 1_555
Sb11 Yb17 3.162340 1_655
Sb11 Yb7 3.217505 1_555
Sb11 Yb7 3.217505 1_655
Sb11 Yb3 3.239109 1_555
Sb11 Yb3 3.239109 1_655
Sb12 Zn8 2.570144 1_554
Sb12 Zn6 2.715797 1_455
Sb12 Zn6 2.715797 1_555
Sb12 Yb16 3.184624 1_555
Sb12 Yb13 3.393942 1_445
Sb12 Yb13 3.393942 1_545
Sb12 Yb8 3.470949 1_454
Sb12 Yb8 3.470949 1_554
Sb12 Yb2 3.596432 1_555
Sb13 Zn7 2.752044 1_554
Sb13 Zn7 2.752044 1_454
Sb13 Yb17 3.206125 1_554
Sb13 Yb13 3.273267 1_555
Sb13 Yb13 3.273267 1_455
Sb13 Yb9 3.353757 1_455
Sb13 Yb9 3.353757 1_555
Sb14 Zn4 2.754460 1_555
Sb14 Zn4 2.754460 1_455
Sb14 Yb14 3.206961 1_555
Sb14 Yb12 3.319059 1_555
Sb14 Yb12 3.319059 1_455
Sb14 Yb10 3.330967 1_555
Sb14 Yb10 3.330967 1_455
Sb14 Yb0 3.598111 1_555
Sb15 Zn5 2.768539 1_555
Sb15 Zn5 2.768539 1_455
Sb15 Yb15 3.243377 1_555
Sb15 Yb11 3.304411 1_455
Sb15 Yb11 3.304411 1_555
Sb15 Yb12 3.327623 1_555
Sb15 Yb12 3.327623 1_455
Sb16 Zn4 2.968978 1_565
Sb16 Zn5 2.974928 1_555
Sb16 Yb0 3.115331 1_565
Sb16 Yb0 3.115331 1_665
Sb16 Yb1 3.147104 1_555
Sb16 Yb1 3.147104 1_655
Sb16 Yb11 3.390462 1_555
Sb16 Yb10 3.436658 1_565
Sb17 Zn6 2.891579 1_556
Sb17 Zn7 2.971960 1_555
Sb17 Yb3 3.124523 1_555
Sb17 Yb3 3.124523 1_655
Sb17 Yb2 3.153067 1_656
Sb17 Yb2 3.153067 1_556
Sb17 Yb8 3.301276 1_555
Sb17 Yb9 3.469925 1_556
