# generated using pymatgen
data_RbMg30SbO32
_symmetry_space_group_name_H-M   'P 1'
_cell_length_a   8.67562800
_cell_length_b   8.67562800
_cell_length_c   8.74837900
_cell_angle_alpha   90.00000000
_cell_angle_beta   90.00000000
_cell_angle_gamma   90.00000000
_symmetry_Int_Tables_number   1
_chemical_formula_structural   RbMg30SbO32
_chemical_formula_sum   'Rb1 Mg30 Sb1 O32'
_cell_volume   658.46005342
_cell_formula_units_Z   1
loop_
 _symmetry_equiv_pos_site_id
 _symmetry_equiv_pos_as_xyz
  1  'x, y, z'
loop_
 _atom_site_type_symbol
 _atom_site_label
 _atom_site_symmetry_multiplicity
 _atom_site_fract_x
 _atom_site_fract_y
 _atom_site_fract_z
 _atom_site_occupancy
  Rb  Rb0  1  0.00000000  0.00000000  0.00000000  1
  Mg  Mg0  1  0.00000000  0.50000000  0.00000000  1
  Mg  Mg1  1  0.00000000  0.50000000  0.50000000  1
  Mg  Mg2  1  0.50000000  0.00000000  0.00000000  1
  Mg  Mg3  1  0.50000000  0.00000000  0.50000000  1
  Mg  Mg4  1  0.50000000  0.50000000  0.00000000  1
  Mg  Mg5  1  0.50000000  0.50000000  0.50000000  1
  Mg  Mg6  1  0.00000000  0.25970200  0.24539000  1
  Mg  Mg7  1  0.00000000  0.25970200  0.75461000  1
  Mg  Mg8  1  0.00000000  0.74029800  0.24539000  1
  Mg  Mg9  1  0.00000000  0.74029800  0.75461000  1
  Mg  Mg10  1  0.50000000  0.25109700  0.24874700  1
  Mg  Mg11  1  0.50000000  0.25109700  0.75125300  1
  Mg  Mg12  1  0.50000000  0.74890300  0.24874700  1
  Mg  Mg13  1  0.50000000  0.74890300  0.75125300  1
  Mg  Mg14  1  0.25970200  0.00000000  0.24539000  1
  Mg  Mg15  1  0.25970200  0.00000000  0.75461000  1
  Mg  Mg16  1  0.25109700  0.50000000  0.24874700  1
  Mg  Mg17  1  0.25109700  0.50000000  0.75125300  1
  Mg  Mg18  1  0.74029800  0.00000000  0.24539000  1
  Mg  Mg19  1  0.74029800  0.00000000  0.75461000  1
  Mg  Mg20  1  0.74890300  0.50000000  0.24874700  1
  Mg  Mg21  1  0.74890300  0.50000000  0.75125300  1
  Mg  Mg22  1  0.25369500  0.25369500  0.00000000  1
  Mg  Mg23  1  0.25579400  0.25579400  0.50000000  1
  Mg  Mg24  1  0.25369500  0.74630500  0.00000000  1
  Mg  Mg25  1  0.25579400  0.74420600  0.50000000  1
  Mg  Mg26  1  0.74630500  0.25369500  0.00000000  1
  Mg  Mg27  1  0.74420600  0.25579400  0.50000000  1
  Mg  Mg28  1  0.74630500  0.74630500  0.00000000  1
  Mg  Mg29  1  0.74420600  0.74420600  0.50000000  1
  Sb  Sb0  1  0.00000000  0.00000000  0.50000000  1
  O  O0  1  0.27976700  0.00000000  0.00000000  1
  O  O1  1  0.26554200  0.00000000  0.50000000  1
  O  O2  1  0.25605500  0.50000000  0.00000000  1
  O  O3  1  0.25322600  0.50000000  0.50000000  1
  O  O4  1  0.72023300  0.00000000  0.00000000  1
  O  O5  1  0.73445800  0.00000000  0.50000000  1
  O  O6  1  0.74394500  0.50000000  0.00000000  1
  O  O7  1  0.74677400  0.50000000  0.50000000  1
  O  O8  1  0.24928400  0.24928400  0.25037700  1
  O  O9  1  0.24928400  0.24928400  0.74962300  1
  O  O10  1  0.24928400  0.75071600  0.25037700  1
  O  O11  1  0.24928400  0.75071600  0.74962300  1
  O  O12  1  0.75071600  0.24928400  0.25037700  1
  O  O13  1  0.75071600  0.24928400  0.74962300  1
  O  O14  1  0.75071600  0.75071600  0.25037700  1
  O  O15  1  0.75071600  0.75071600  0.74962300  1
  O  O16  1  0.00000000  0.00000000  0.26390500  1
  O  O17  1  0.00000000  0.00000000  0.73609500  1
  O  O18  1  0.00000000  0.50000000  0.25454100  1
  O  O19  1  0.00000000  0.50000000  0.74545900  1
  O  O20  1  0.50000000  0.00000000  0.25454100  1
  O  O21  1  0.50000000  0.00000000  0.74545900  1
  O  O22  1  0.50000000  0.50000000  0.25166100  1
  O  O23  1  0.50000000  0.50000000  0.74833900  1
  O  O24  1  0.00000000  0.27976700  0.00000000  1
  O  O25  1  0.00000000  0.26554200  0.50000000  1
  O  O26  1  0.00000000  0.72023300  0.00000000  1
  O  O27  1  0.00000000  0.73445800  0.50000000  1
  O  O28  1  0.50000000  0.25605500  0.00000000  1
  O  O29  1  0.50000000  0.25322600  0.50000000  1
  O  O30  1  0.50000000  0.74394500  0.00000000  1
  O  O31  1  0.50000000  0.74677400  0.50000000  1
loop_
_geom_bond_atom_site_label_1
_geom_bond_atom_site_label_2
_geom_bond_distance
_geom_bond_site_symmetry_2
Mg0 O24 1.910660 1_555
Mg0 O26 1.910660 1_555
Mg0 O2 2.221438 1_555
Mg0 O6 2.221438 1_455
Mg0 O18 2.226821 1_555
Mg0 O19 2.226821 1_554
Mg1 O25 2.034070 1_555
Mg1 O27 2.034070 1_555
Mg1 O19 2.147368 1_555
Mg1 O18 2.147368 1_555
Mg1 O7 2.196895 1_455
Mg1 O3 2.196895 1_555
Mg2 O0 1.910660 1_555
Mg2 O4 1.910660 1_555
Mg2 O28 2.221438 1_555
Mg2 O30 2.221438 1_545
Mg2 O21 2.226821 1_554
Mg2 O20 2.226821 1_555
Mg3 O1 2.034070 1_555
Mg3 O5 2.034070 1_555
Mg3 O21 2.147368 1_555
Mg3 O20 2.147368 1_555
Mg3 O31 2.196895 1_545
Mg3 O29 2.196895 1_555
Mg4 O6 2.116376 1_555
Mg4 O30 2.116376 1_555
Mg4 O2 2.116376 1_555
Mg4 O28 2.116376 1_555
Mg4 O23 2.201626 1_554
Mg4 O22 2.201626 1_555
Mg5 O29 2.140919 1_555
Mg5 O3 2.140919 1_555
Mg5 O7 2.140919 1_555
Mg5 O31 2.140919 1_555
Mg5 O22 2.172564 1_555
Mg5 O23 2.172564 1_555
Mg6 O18 2.086273 1_555
Mg6 O24 2.153811 1_555
Mg6 O12 2.165023 1_455
Mg6 O8 2.165023 1_555
Mg6 O25 2.228001 1_555
Mg6 O16 2.258893 1_555
Mg7 O19 2.086273 1_555
Mg7 O24 2.153811 1_556
Mg7 O13 2.165023 1_455
Mg7 O9 2.165023 1_555
Mg7 O25 2.228001 1_555
Mg7 O17 2.258893 1_555
Mg8 O18 2.086273 1_555
Mg8 O26 2.153811 1_555
Mg8 O14 2.165023 1_455
Mg8 O10 2.165023 1_555
Mg8 O27 2.228001 1_555
Mg8 O16 2.258893 1_565
Mg9 O19 2.086273 1_555
Mg9 O26 2.153811 1_556
Mg9 O15 2.165023 1_455
Mg9 O11 2.165023 1_555
Mg9 O27 2.228001 1_555
Mg9 O17 2.258893 1_565
Mg10 O22 2.159540 1_555
Mg10 O8 2.175222 1_555
Mg10 O12 2.175222 1_555
Mg10 O28 2.176558 1_555
Mg10 O20 2.179014 1_555
Mg10 O29 2.198134 1_555
Mg11 O23 2.159540 1_555
Mg11 O9 2.175222 1_555
Mg11 O13 2.175222 1_555
Mg11 O28 2.176558 1_556
Mg11 O21 2.179014 1_555
Mg11 O29 2.198134 1_555
Mg12 O22 2.159540 1_555
Mg12 O10 2.175222 1_555
Mg12 O14 2.175222 1_555
Mg12 O30 2.176558 1_555
Mg12 O20 2.179014 1_565
Mg12 O31 2.198134 1_555
Mg13 O23 2.159540 1_555
Mg13 O11 2.175222 1_555
Mg13 O15 2.175222 1_555
Mg13 O30 2.176558 1_556
Mg13 O21 2.179014 1_565
Mg13 O31 2.198134 1_555
Mg14 O20 2.086273 1_555
Mg14 O0 2.153811 1_555
Mg14 O10 2.165023 1_545
Mg14 O8 2.165023 1_555
Mg14 O1 2.228001 1_555
Mg14 O16 2.258893 1_555
Mg15 O21 2.086273 1_555
Mg15 O0 2.153811 1_556
Mg15 O11 2.165023 1_545
Mg15 O9 2.165023 1_555
Mg15 O1 2.228001 1_555
Mg15 O17 2.258893 1_555
Mg16 O22 2.159540 1_555
Mg16 O8 2.175222 1_555
Mg16 O10 2.175222 1_555
Mg16 O2 2.176558 1_555
Mg16 O18 2.179014 1_555
Mg16 O3 2.198134 1_555
Mg17 O23 2.159540 1_555
Mg17 O9 2.175222 1_555
Mg17 O11 2.175222 1_555
Mg17 O2 2.176558 1_556
Mg17 O19 2.179014 1_555
Mg17 O3 2.198134 1_555
Mg18 O20 2.086273 1_555
Mg18 O4 2.153811 1_555
Mg18 O14 2.165023 1_545
Mg18 O12 2.165023 1_555
Mg18 O5 2.228001 1_555
Mg18 O16 2.258893 1_655
Mg19 O21 2.086273 1_555
Mg19 O4 2.153811 1_556
Mg19 O15 2.165023 1_545
Mg19 O13 2.165023 1_555
Mg19 O5 2.228001 1_555
Mg19 O17 2.258893 1_655
Mg20 O22 2.159540 1_555
Mg20 O12 2.175222 1_555
Mg20 O14 2.175222 1_555
Mg20 O6 2.176558 1_555
Mg20 O18 2.179014 1_655
Mg20 O7 2.198134 1_555
Mg21 O23 2.159540 1_555
Mg21 O13 2.175222 1_555
Mg21 O15 2.175222 1_555
Mg21 O6 2.176558 1_556
Mg21 O19 2.179014 1_655
Mg21 O7 2.198134 1_555
Mg22 O2 2.136949 1_555
Mg22 O28 2.136949 1_555
Mg22 O9 2.191061 1_554
Mg22 O8 2.191061 1_555
Mg22 O0 2.212556 1_555
Mg22 O24 2.212556 1_555
Mg23 O29 2.118758 1_555
Mg23 O3 2.118758 1_555
Mg23 O8 2.185257 1_555
Mg23 O9 2.185257 1_555
Mg23 O25 2.220784 1_555
Mg23 O1 2.220784 1_555
Mg24 O30 2.136949 1_555
Mg24 O2 2.136949 1_555
Mg24 O11 2.191061 1_554
Mg24 O10 2.191061 1_555
Mg24 O26 2.212556 1_555
Mg24 O0 2.212556 1_565
Mg25 O31 2.118758 1_555
Mg25 O3 2.118758 1_555
Mg25 O10 2.185257 1_555
Mg25 O11 2.185257 1_555
Mg25 O1 2.220784 1_565
Mg25 O27 2.220784 1_555
Mg26 O28 2.136949 1_555
Mg26 O6 2.136949 1_555
Mg26 O13 2.191061 1_554
Mg26 O12 2.191061 1_555
Mg26 O24 2.212556 1_655
Mg26 O4 2.212556 1_555
Mg27 O7 2.118758 1_555
Mg27 O29 2.118758 1_555
Mg27 O12 2.185257 1_555
Mg27 O13 2.185257 1_555
Mg27 O25 2.220784 1_655
Mg27 O5 2.220784 1_555
Mg28 O30 2.136949 1_555
Mg28 O6 2.136949 1_555
Mg28 O15 2.191061 1_554
Mg28 O14 2.191061 1_555
Mg28 O4 2.212556 1_565
Mg28 O26 2.212556 1_655
Mg29 O7 2.118758 1_555
Mg29 O31 2.118758 1_555
Mg29 O14 2.185257 1_555
Mg29 O15 2.185257 1_555
Mg29 O5 2.220784 1_565
Mg29 O27 2.220784 1_655
O0 Rb0 2.427154 1_555
O1 Sb0 2.303744 1_555
O4 Rb0 2.427154 1_655
O5 Sb0 2.303744 1_655
O16 Sb0 2.065449 1_555
O16 Rb0 2.308741 1_555
O17 Sb0 2.065449 1_555
O17 Rb0 2.308741 1_556
O24 Rb0 2.427154 1_555
O25 Sb0 2.303744 1_555
O26 Rb0 2.427154 1_565
O27 Sb0 2.303744 1_565
