# generated using pymatgen
data_ZnFe4NiO8
_symmetry_space_group_name_H-M   'P 1'
_cell_length_a   8.41547046
_cell_length_b   8.41547046
_cell_length_c   8.38396091
_cell_angle_alpha   89.98120413
_cell_angle_beta   89.98120413
_cell_angle_gamma   90.21761416
_symmetry_Int_Tables_number   1
_chemical_formula_structural   ZnFe4NiO8
_chemical_formula_sum   'Zn4 Fe16 Ni4 O32'
_cell_volume   593.74896425
_cell_formula_units_Z   4
loop_
 _symmetry_equiv_pos_site_id
 _symmetry_equiv_pos_as_xyz
  1  'x, y, z'
loop_
 _atom_site_type_symbol
 _atom_site_label
 _atom_site_symmetry_multiplicity
 _atom_site_fract_x
 _atom_site_fract_y
 _atom_site_fract_z
 _atom_site_occupancy
  Zn  Zn0  1  0.99964200  0.49979500  0.00874100  1
  Zn  Zn1  1  0.00310200  0.00310200  0.50080100  1
  Zn  Zn2  1  0.49641100  0.49641100  0.49701000  1
  Zn  Zn3  1  0.49979500  0.99964200  0.00874100  1
  Fe  Fe0  1  0.75051500  0.75051500  0.74659000  1
  Fe  Fe1  1  0.24894300  0.24894300  0.74386400  1
  Fe  Fe2  1  0.75152100  0.25115000  0.24659200  1
  Fe  Fe3  1  0.25115000  0.75152100  0.24659200  1
  Fe  Fe4  1  0.87266300  0.62665700  0.37239500  1
  Fe  Fe5  1  0.62889300  0.37471600  0.87432400  1
  Fe  Fe6  1  0.87178500  0.87178500  0.12685300  1
  Fe  Fe7  1  0.62795500  0.62795500  0.12932100  1
  Fe  Fe8  1  0.12646100  0.62601700  0.62326800  1
  Fe  Fe9  1  0.62601700  0.12646100  0.62326800  1
  Fe  Fe10  1  0.37320000  0.12566800  0.37246700  1
  Fe  Fe11  1  0.87476600  0.12640800  0.87457800  1
  Fe  Fe12  1  0.37471600  0.62889300  0.87432400  1
  Fe  Fe13  1  0.12640800  0.87476600  0.87457800  1
  Fe  Fe14  1  0.62665700  0.87266300  0.37239500  1
  Fe  Fe15  1  0.12566800  0.37320000  0.37246700  1
  Ni  Ni0  1  0.37465300  0.87490700  0.62537400  1
  Ni  Ni1  1  0.12650700  0.12650700  0.12643900  1
  Ni  Ni2  1  0.87490700  0.37465300  0.62537400  1
  Ni  Ni3  1  0.37225800  0.37225800  0.12789700  1
  O  O0  1  0.61726800  0.11218200  0.37821200  1
  O  O1  1  0.87441500  0.87441500  0.89106500  1
  O  O2  1  0.12111800  0.38335100  0.61009600  1
  O  O3  1  0.39180600  0.62336000  0.12072100  1
  O  O4  1  0.35697700  0.35697700  0.37067200  1
  O  O5  1  0.13336800  0.63946300  0.86709700  1
  O  O6  1  0.64131100  0.85955800  0.14165300  1
  O  O7  1  0.86323800  0.12928200  0.64080500  1
  O  O8  1  0.11218200  0.61726800  0.37821200  1
  O  O9  1  0.62030800  0.62030800  0.88883500  1
  O  O10  1  0.11306200  0.11306200  0.87533800  1
  O  O11  1  0.38198400  0.38198400  0.87750300  1
  O  O12  1  0.88632400  0.38898500  0.37379800  1
  O  O13  1  0.38898500  0.88632400  0.37379800  1
  O  O14  1  0.62358800  0.88145500  0.60757100  1
  O  O15  1  0.10916700  0.87529000  0.11485000  1
  O  O16  1  0.62336000  0.39180600  0.12072100  1
  O  O17  1  0.87529000  0.10916700  0.11485000  1
  O  O18  1  0.38335100  0.12111800  0.61009600  1
  O  O19  1  0.88145500  0.62358800  0.60757100  1
  O  O20  1  0.86133200  0.86133200  0.36211600  1
  O  O21  1  0.37027200  0.86446600  0.87027300  1
  O  O22  1  0.86446600  0.37027200  0.87027300  1
  O  O23  1  0.63946300  0.13336800  0.86709700  1
  O  O24  1  0.14010600  0.14010600  0.36949400  1
  O  O25  1  0.63824500  0.63824500  0.36122000  1
  O  O26  1  0.13088300  0.36778900  0.14498000  1
  O  O27  1  0.63173800  0.36371700  0.63469500  1
  O  O28  1  0.12928200  0.86323800  0.64080500  1
  O  O29  1  0.36371700  0.63173800  0.63469500  1
  O  O30  1  0.85955800  0.64131100  0.14165300  1
  O  O31  1  0.36778900  0.13088300  0.14498000  1
loop_
_geom_bond_atom_site_label_1
_geom_bond_atom_site_label_2
_geom_bond_distance
_geom_bond_site_symmetry_2
Fe0 O1 1.906549 1_555
Fe0 O19 1.929392 1_555
Fe0 O14 1.929392 1_555
Fe0 O9 1.952627 1_555
Fe1 O18 1.924455 1_555
Fe1 O2 1.924455 1_555
Fe1 O11 1.937652 1_555
Fe1 O10 1.954128 1_555
Fe2 O16 1.920320 1_555
Fe2 O17 1.934446 1_555
Fe2 O12 1.939438 1_555
Fe2 O0 1.962178 1_555
Fe3 O3 1.920320 1_555
Fe3 O15 1.934446 1_555
Fe3 O13 1.939438 1_555
Fe3 O8 1.962178 1_555
Fe4 O30 1.941616 1_555
Fe4 O19 1.973283 1_555
Fe4 O25 1.977766 1_555
Fe4 O20 1.979413 1_555
Fe4 O12 2.003890 1_555
Fe4 O8 2.018118 1_655
Fe5 O22 1.983232 1_555
Fe5 O27 2.011340 1_555
Fe5 O23 2.034263 1_555
Fe5 O16 2.071351 1_556
Fe5 O9 2.071922 1_555
Fe5 O11 2.079150 1_555
Fe6 O30 1.945802 1_555
Fe6 O6 1.945802 1_555
Fe6 O20 1.976283 1_555
Fe6 O1 1.977070 1_554
Fe6 O17 2.000286 1_565
Fe6 O15 2.000286 1_655
Fe7 O25 1.948127 1_555
Fe7 O30 1.954632 1_555
Fe7 O6 1.954632 1_555
Fe7 O3 1.988866 1_555
Fe7 O16 1.988866 1_555
Fe7 O9 2.018313 1_554
Fe8 O29 1.999347 1_555
Fe8 O28 2.001833 1_555
Fe8 O2 2.045493 1_555
Fe8 O5 2.048251 1_555
Fe8 O8 2.059415 1_555
Fe8 O19 2.066104 1_455
Fe9 O27 1.999347 1_555
Fe9 O7 2.001833 1_555
Fe9 O18 2.045493 1_555
Fe9 O23 2.048251 1_555
Fe9 O0 2.059415 1_555
Fe9 O14 2.066104 1_545
Fe10 O31 1.908295 1_555
Fe10 O4 1.951926 1_555
Fe10 O24 1.965981 1_555
Fe10 O18 1.994492 1_555
Fe10 O13 2.019099 1_545
Fe10 O0 2.058089 1_555
Fe11 O7 1.962521 1_555
Fe11 O23 1.982286 1_555
Fe11 O10 2.008954 1_655
Fe11 O17 2.019609 1_556
Fe11 O22 2.054695 1_555
Fe11 O1 2.125085 1_545
Fe12 O21 1.983232 1_555
Fe12 O29 2.011340 1_555
Fe12 O5 2.034263 1_555
Fe12 O3 2.071351 1_556
Fe12 O9 2.071922 1_555
Fe12 O11 2.079150 1_555
Fe13 O28 1.962521 1_555
Fe13 O5 1.982286 1_555
Fe13 O10 2.008954 1_565
Fe13 O15 2.019609 1_556
Fe13 O21 2.054695 1_555
Fe13 O1 2.125085 1_455
Fe14 O6 1.941616 1_555
Fe14 O14 1.973283 1_555
Fe14 O25 1.977766 1_555
Fe14 O20 1.979413 1_555
Fe14 O13 2.003890 1_555
Fe14 O0 2.018118 1_565
Fe15 O26 1.908295 1_555
Fe15 O4 1.951926 1_555
Fe15 O24 1.965981 1_555
Fe15 O2 1.994492 1_555
Fe15 O12 2.019099 1_455
Fe15 O8 2.058089 1_555
Ni0 O29 2.049564 1_555
Ni0 O21 2.055387 1_555
Ni0 O28 2.070874 1_555
Ni0 O18 2.076906 1_565
Ni0 O14 2.100680 1_555
Ni0 O13 2.114741 1_555
Ni1 O26 2.036688 1_555
Ni1 O31 2.036688 1_555
Ni1 O24 2.044231 1_555
Ni1 O10 2.111344 1_554
Ni1 O15 2.120847 1_545
Ni1 O17 2.120847 1_455
Ni2 O27 2.049564 1_555
Ni2 O22 2.055387 1_555
Ni2 O7 2.070874 1_555
Ni2 O2 2.076906 1_655
Ni2 O19 2.100680 1_555
Ni2 O12 2.114741 1_555
Ni3 O26 2.036484 1_555
Ni3 O31 2.036484 1_555
Ni3 O4 2.043410 1_555
Ni3 O11 2.102417 1_554
Ni3 O3 2.119745 1_555
Ni3 O16 2.119745 1_555
O4 Zn2 1.966431 1_555
O5 Zn0 2.011556 1_456
O6 Zn3 2.015054 1_555
O7 Zn1 1.974872 1_655
O20 Zn1 2.046885 1_665
O21 Zn3 1.955032 1_556
O22 Zn0 1.955032 1_556
O23 Zn3 2.011556 1_546
O24 Zn1 1.964373 1_555
O25 Zn2 2.032939 1_555
O26 Zn0 1.941105 1_455
O27 Zn2 1.971326 1_555
O28 Zn1 1.974872 1_565
O29 Zn2 1.971326 1_555
O30 Zn0 2.015054 1_555
O31 Zn3 1.941105 1_545
