# generated using pymatgen
data_Pr7Pt3
_symmetry_space_group_name_H-M   'P 1'
_cell_length_a   6.54456900
_cell_length_b   10.24738849
_cell_length_c   10.24738849
_cell_angle_alpha   119.85726920
_cell_angle_beta   90.00000000
_cell_angle_gamma   90.00000000
_symmetry_Int_Tables_number   1
_chemical_formula_structural   Pr7Pt3
_chemical_formula_sum   'Pr14 Pt6'
_cell_volume   596.02011112
_cell_formula_units_Z   2
loop_
 _symmetry_equiv_pos_site_id
 _symmetry_equiv_pos_as_xyz
  1  'x, y, z'
loop_
 _atom_site_type_symbol
 _atom_site_label
 _atom_site_symmetry_multiplicity
 _atom_site_fract_x
 _atom_site_fract_y
 _atom_site_fract_z
 _atom_site_occupancy
  Pr  Pr0  1  0.45787500  0.33335900  0.66664100  1
  Pr  Pr1  1  0.95787500  0.66664100  0.33335900  1
  Pr  Pr2  1  0.24847100  0.12715800  0.87284200  1
  Pr  Pr3  1  0.24791500  0.74618600  0.87313200  1
  Pr  Pr4  1  0.24791500  0.12686800  0.25381400  1
  Pr  Pr5  1  0.74847100  0.87284200  0.12715800  1
  Pr  Pr6  1  0.74791500  0.25381400  0.12686800  1
  Pr  Pr7  1  0.74791500  0.87313200  0.74618600  1
  Pr  Pr8  1  0.44152600  0.53775300  0.46224700  1
  Pr  Pr9  1  0.44120900  0.92441000  0.46229100  1
  Pr  Pr10  1  0.44120900  0.53770900  0.07559000  1
  Pr  Pr11  1  0.94152600  0.46224700  0.53775300  1
  Pr  Pr12  1  0.94120900  0.07559000  0.53770900  1
  Pr  Pr13  1  0.94120900  0.46229100  0.92441000  1
  Pt  Pt0  1  0.18911300  0.81084400  0.18915600  1
  Pt  Pt1  1  0.18888300  0.37830100  0.18936300  1
  Pt  Pt2  1  0.18888300  0.81063700  0.62169900  1
  Pt  Pt3  1  0.68911300  0.18915600  0.81084400  1
  Pt  Pt4  1  0.68888300  0.62169900  0.81063700  1
  Pt  Pt5  1  0.68888300  0.18936300  0.37830100  1
loop_
_geom_bond_atom_site_label_1
_geom_bond_atom_site_label_2
_geom_bond_distance
_geom_bond_site_symmetry_2
Pr0 Pt3 2.971807 1_555
Pr0 Pt5 2.975289 1_555
Pr0 Pt4 2.975289 1_555
Pr1 Pt0 2.971807 1_655
Pr1 Pt1 2.975289 1_655
Pr1 Pt2 2.975289 1_655
Pr2 Pt1 2.997389 1_556
Pr2 Pt2 2.997389 1_545
Pr2 Pt3 3.086343 1_555
Pr3 Pt2 2.986354 1_555
Pr3 Pt0 2.989655 1_556
Pr3 Pt4 3.090746 1_555
Pr4 Pt1 2.986354 1_555
Pr4 Pt0 2.989655 1_545
Pr4 Pt5 3.090746 1_555
Pr5 Pt5 2.997389 1_565
Pr5 Pt4 2.997389 1_554
Pr5 Pt0 3.086343 1_655
Pr6 Pt5 2.986354 1_555
Pr6 Pt3 2.989655 1_554
Pr6 Pt1 3.090746 1_655
Pr7 Pt4 2.986354 1_555
Pr7 Pt3 2.989655 1_565
Pr7 Pt2 3.090746 1_655
Pr8 Pt1 2.945142 1_555
Pr8 Pt2 2.945142 1_555
Pr9 Pt2 2.941241 1_555
Pr9 Pt0 2.943998 1_555
Pr10 Pt1 2.941241 1_555
Pr10 Pt0 2.943998 1_555
Pr11 Pt5 2.945142 1_555
Pr11 Pt4 2.945142 1_555
Pr12 Pt5 2.941241 1_555
Pr12 Pt3 2.943998 1_555
Pr13 Pt4 2.941241 1_555
Pr13 Pt3 2.943998 1_555
