# generated using pymatgen
data_Zn(NiO2)2
_symmetry_space_group_name_H-M   'P 1'
_cell_length_a   5.89278208
_cell_length_b   5.89278208
_cell_length_c   14.51005300
_cell_angle_alpha   90.00000000
_cell_angle_beta   90.00000000
_cell_angle_gamma   120.00000087
_symmetry_Int_Tables_number   1
_chemical_formula_structural   Zn(NiO2)2
_chemical_formula_sum   'Zn6 Ni12 O24'
_cell_volume   436.35543321
_cell_formula_units_Z   6
loop_
 _symmetry_equiv_pos_site_id
 _symmetry_equiv_pos_as_xyz
  1  'x, y, z'
loop_
 _atom_site_type_symbol
 _atom_site_label
 _atom_site_symmetry_multiplicity
 _atom_site_fract_x
 _atom_site_fract_y
 _atom_site_fract_z
 _atom_site_occupancy
  Zn  Zn0  1  0.66666700  0.33333300  0.95360300  1
  Zn  Zn1  1  0.33333300  0.66666700  0.62001500  1
  Zn  Zn2  1  0.00000000  0.00000000  0.66658000  1
  Zn  Zn3  1  0.00000000  0.00000000  0.28858300  1
  Zn  Zn4  1  0.33333300  0.66666700  0.00133300  1
  Zn  Zn5  1  0.33333300  0.66666700  0.37635200  1
  Ni  Ni0  1  0.16738200  0.33476400  0.83389700  1
  Ni  Ni1  1  0.66523600  0.83261800  0.83389700  1
  Ni  Ni2  1  0.83331700  0.66663500  0.49854800  1
  Ni  Ni3  1  0.16738200  0.83261800  0.83389700  1
  Ni  Ni4  1  0.33336500  0.16668300  0.49854800  1
  Ni  Ni5  1  0.66666700  0.33333300  0.33367700  1
  Ni  Ni6  1  0.66666700  0.33333300  0.71357500  1
  Ni  Ni7  1  0.50107400  0.00214700  0.16734000  1
  Ni  Ni8  1  0.83331700  0.16668300  0.49854800  1
  Ni  Ni9  1  0.99785300  0.49892600  0.16734000  1
  Ni  Ni10  1  0.50107400  0.49892600  0.16734000  1
  Ni  Ni11  1  0.00000000  0.00000000  0.04436400  1
  O  O0  1  0.48542400  0.97084800  0.90644600  1
  O  O1  1  0.33333300  0.66666700  0.75439500  1
  O  O2  1  0.02915200  0.51457600  0.90644600  1
  O  O3  1  0.48542400  0.51457600  0.90644600  1
  O  O4  1  0.15326700  0.30653400  0.57150000  1
  O  O5  1  0.84632200  0.15367800  0.76198000  1
  O  O6  1  0.00000000  0.00000000  0.42442900  1
  O  O7  1  0.30735600  0.15367800  0.76198000  1
  O  O8  1  0.00000000  0.00000000  0.91604300  1
  O  O9  1  0.69346600  0.84673300  0.57150000  1
  O  O10  1  0.15326700  0.84673300  0.57150000  1
  O  O11  1  0.84632200  0.69264400  0.76198000  1
  O  O12  1  0.81679700  0.63359300  0.24694500  1
  O  O13  1  0.51699700  0.48300300  0.42312500  1
  O  O14  1  0.96600500  0.48300300  0.42312500  1
  O  O15  1  0.66666700  0.33333300  0.09182900  1
  O  O16  1  0.66666700  0.33333300  0.57616200  1
  O  O17  1  0.36640700  0.18320300  0.24694500  1
  O  O18  1  0.81679700  0.18320300  0.24694500  1
  O  O19  1  0.51699700  0.03399500  0.42312500  1
  O  O20  1  0.17368300  0.82631700  0.09115500  1
  O  O21  1  0.65263400  0.82631700  0.09115500  1
  O  O22  1  0.33333300  0.66666700  0.23937200  1
  O  O23  1  0.17368300  0.34736600  0.09115500  1
loop_
_geom_bond_atom_site_label_1
_geom_bond_atom_site_label_2
_geom_bond_distance
_geom_bond_site_symmetry_2
Ni0 O3 1.938427 1_555
Ni0 O2 1.938427 1_555
Ni0 O5 1.946323 1_455
Ni0 O7 1.946323 1_555
Ni0 O1 2.049317 1_555
Ni0 O8 2.083113 1_555
Ni1 O3 1.938427 1_555
Ni1 O0 1.938427 1_555
Ni1 O5 1.946323 1_565
Ni1 O11 1.946323 1_555
Ni1 O1 2.049317 1_555
Ni1 O8 2.083113 1_665
Ni2 O9 1.949509 1_555
Ni2 O10 1.949513 1_655
Ni2 O13 1.956044 1_555
Ni2 O14 1.956044 1_555
Ni2 O6 2.012691 1_665
Ni2 O16 2.039972 1_555
Ni3 O0 1.938427 1_555
Ni3 O2 1.938427 1_555
Ni3 O7 1.946323 1_565
Ni3 O11 1.946323 1_455
Ni3 O1 2.049313 1_555
Ni3 O8 2.083113 1_565
Ni4 O4 1.949509 1_555
Ni4 O10 1.949513 1_545
Ni4 O13 1.956044 1_555
Ni4 O19 1.956044 1_555
Ni4 O6 2.012691 1_555
Ni4 O16 2.039972 1_555
Ni5 O12 1.982872 1_555
Ni5 O17 1.982872 1_555
Ni5 O18 1.982872 1_555
Ni5 O19 2.004527 1_555
Ni5 O14 2.004527 1_555
Ni5 O13 2.004535 1_555
Ni6 O5 1.963579 1_555
Ni6 O11 1.963583 1_555
Ni6 O7 1.963583 1_555
Ni6 O16 1.993870 1_555
Ni7 O18 1.987192 1_555
Ni7 O17 1.987192 1_555
Ni7 O21 2.004644 1_545
Ni7 O20 2.004648 1_545
Ni7 O22 2.005879 1_545
Ni7 O15 2.014216 1_555
Ni8 O9 1.949513 1_545
Ni8 O4 1.949513 1_655
Ni8 O14 1.956044 1_555
Ni8 O19 1.956044 1_555
Ni8 O6 2.012696 1_655
Ni8 O16 2.039963 1_555
Ni9 O18 1.987192 1_555
Ni9 O12 1.987192 1_555
Ni9 O23 2.004644 1_655
Ni9 O20 2.004648 1_655
Ni9 O22 2.005879 1_655
Ni9 O15 2.014216 1_555
Ni10 O17 1.987192 1_555
Ni10 O12 1.987192 1_555
Ni10 O23 2.004649 1_555
Ni10 O21 2.004649 1_555
Ni10 O22 2.005887 1_555
Ni10 O15 2.014216 1_555
Ni11 O8 1.861945 1_554
Ni11 O23 1.898281 1_555
Ni11 O21 1.898281 1_445
Ni11 O20 1.898281 1_545
O0 Zn0 1.972363 1_565
O0 Zn4 2.074931 1_556
O1 Zn1 1.949861 1_555
O2 Zn0 1.972363 1_455
O2 Zn4 2.074931 1_556
O3 Zn0 1.972368 1_555
O3 Zn4 2.074935 1_556
O4 Zn1 1.968072 1_555
O4 Zn2 2.085781 1_555
O5 Zn2 2.091999 1_655
O6 Zn3 1.971133 1_555
O7 Zn2 2.091999 1_555
O9 Zn1 1.968072 1_555
O9 Zn2 2.085781 1_665
O10 Zn1 1.968067 1_555
O10 Zn2 2.085781 1_565
O11 Zn2 2.091999 1_665
O12 Zn3 1.965067 1_665
O13 Zn5 1.993658 1_555
O14 Zn5 1.993658 1_655
O15 Zn0 2.005667 1_554
O17 Zn3 1.965067 1_555
O18 Zn3 1.965062 1_655
O19 Zn5 1.993658 1_545
O20 Zn4 2.086592 1_555
O21 Zn4 2.086596 1_555
O22 Zn5 1.987587 1_555
O23 Zn4 2.086596 1_555
