# generated using pymatgen
data_Ca2SiSe4
_symmetry_space_group_name_H-M   'P 1'
_cell_length_a   6.54714783
_cell_length_b   8.56334720
_cell_length_c   14.23855996
_cell_angle_alpha   90.00000000
_cell_angle_beta   90.00000000
_cell_angle_gamma   90.00000000
_symmetry_Int_Tables_number   1
_chemical_formula_structural   Ca2SiSe4
_chemical_formula_sum   'Ca8 Si4 Se16'
_cell_volume   798.29198398
_cell_formula_units_Z   4
loop_
 _symmetry_equiv_pos_site_id
 _symmetry_equiv_pos_as_xyz
  1  'x, y, z'
loop_
 _atom_site_type_symbol
 _atom_site_label
 _atom_site_symmetry_multiplicity
 _atom_site_fract_x
 _atom_site_fract_y
 _atom_site_fract_z
 _atom_site_occupancy
  Ca  Ca0  1  0.00000000  0.50000000  0.00000000  1
  Ca  Ca1  1  0.50000000  -0.00000000  0.50000000  1
  Ca  Ca2  1  0.00000000  -0.00000000  0.00000000  1
  Ca  Ca3  1  0.50000000  0.50000000  0.50000000  1
  Ca  Ca4  1  0.48184239  0.75000000  0.22816737  1
  Ca  Ca5  1  0.01815761  0.75000000  0.72816737  1
  Ca  Ca6  1  0.51815761  0.25000000  0.77183263  1
  Ca  Ca7  1  0.98184239  0.25000000  0.27183263  1
  Si  Si0  1  0.90221247  0.75000000  0.40765977  1
  Si  Si1  1  0.59778753  0.75000000  0.90765977  1
  Si  Si2  1  0.09778753  0.25000000  0.59234023  1
  Si  Si3  1  0.40221247  0.25000000  0.09234023  1
  Se  Se0  1  0.24700131  0.75000000  0.40703430  1
  Se  Se1  1  0.25299869  0.75000000  0.90703430  1
  Se  Se2  1  0.75299869  0.25000000  0.59296570  1
  Se  Se3  1  0.74700131  0.25000000  0.09296570  1
  Se  Se4  1  0.77329426  0.75000000  0.55706820  1
  Se  Se5  1  0.72670574  0.75000000  0.05706820  1
  Se  Se6  1  0.22670574  0.25000000  0.44293180  1
  Se  Se7  1  0.27329426  0.25000000  0.94293180  1
  Se  Se8  1  0.76276914  0.53996253  0.33183269  1
  Se  Se9  1  0.73723086  0.96003747  0.83183269  1
  Se  Se10  1  0.23723086  0.03996253  0.66816731  1
  Se  Se11  1  0.26276914  0.46003747  0.16816731  1
  Se  Se12  1  0.23723086  0.46003747  0.66816731  1
  Se  Se13  1  0.26276914  0.03996253  0.16816731  1
  Se  Se14  1  0.76276914  0.96003747  0.33183269  1
  Se  Se15  1  0.73723086  0.53996253  0.83183269  1
loop_
_geom_bond_atom_site_label_1
_geom_bond_atom_site_label_2
_geom_bond_distance
_geom_bond_site_symmetry_2
Ca0 Se5 2.906035 1_455
Ca0 Se7 2.906035 1_554
Ca0 Se15 2.968213 1_454
Ca0 Se11 2.968213 1_555
Ca0 Se3 3.013152 1_455
Ca0 Se1 3.013152 1_554
Ca1 Se4 2.906035 1_545
Ca1 Se6 2.906035 1_555
Ca1 Se10 2.968213 1_555
Ca1 Se14 2.968213 1_545
Ca1 Se0 3.013152 1_545
Ca1 Se2 3.013152 1_555
Ca2 Se7 2.906035 1_554
Ca2 Se5 2.906035 1_445
Ca2 Se9 2.968213 1_444
Ca2 Se13 2.968213 1_555
Ca2 Se3 3.013152 1_455
Ca2 Se1 3.013152 1_544
Ca3 Se6 2.906035 1_555
Ca3 Se4 2.906035 1_555
Ca3 Se12 2.968213 1_555
Ca3 Se8 2.968213 1_555
Ca3 Se0 3.013152 1_555
Ca3 Se2 3.013152 1_555
Ca4 Se5 2.916369 1_555
Ca4 Se14 2.965917 1_555
Ca4 Se8 2.965917 1_555
Ca4 Se0 2.974938 1_555
Ca4 Se11 2.992093 1_555
Ca4 Se13 2.992093 1_565
Ca5 Se4 2.916369 1_455
Ca5 Se15 2.965917 1_455
Ca5 Se9 2.965917 1_455
Ca5 Se1 2.974938 1_555
Ca5 Se12 2.992093 1_555
Ca5 Se10 2.992093 1_565
Ca6 Se7 2.916369 1_555
Ca6 Se12 2.965917 1_555
Ca6 Se10 2.965917 1_555
Ca6 Se2 2.974938 1_555
Ca6 Se15 2.992093 1_555
Ca6 Se9 2.992093 1_545
Ca7 Se6 2.916369 1_655
Ca7 Se13 2.965917 1_655
Ca7 Se11 2.965917 1_655
Ca7 Se3 2.974938 1_555
Ca7 Se14 2.992093 1_545
Ca7 Se8 2.992093 1_555
Se0 Si0 2.257401 1_455
Se1 Si1 2.257401 1_555
Se2 Si2 2.257401 1_655
Se3 Si3 2.257401 1_555
Se4 Si0 2.288685 1_555
Se5 Si1 2.288685 1_554
Se6 Si2 2.288685 1_555
Se7 Si3 2.288685 1_556
Se8 Si0 2.287842 1_555
Se9 Si1 2.287842 1_555
Se10 Si2 2.287842 1_555
Se11 Si3 2.287842 1_555
Se12 Si2 2.287842 1_555
Se13 Si3 2.287842 1_555
Se14 Si0 2.287842 1_555
Se15 Si1 2.287842 1_555
