# generated using pymatgen
data_RbSm2Cl7
_symmetry_space_group_name_H-M   'P 1'
_cell_length_a   7.08183712
_cell_length_b   12.91298591
_cell_length_c   13.07866059
_cell_angle_alpha   90.00000000
_cell_angle_beta   90.00000000
_cell_angle_gamma   90.00000000
_symmetry_Int_Tables_number   1
_chemical_formula_structural   RbSm2Cl7
_chemical_formula_sum   'Rb4 Sm8 Cl28'
_cell_volume   1196.01294544
_cell_formula_units_Z   4
loop_
 _symmetry_equiv_pos_site_id
 _symmetry_equiv_pos_as_xyz
  1  'x, y, z'
loop_
 _atom_site_type_symbol
 _atom_site_label
 _atom_site_symmetry_multiplicity
 _atom_site_fract_x
 _atom_site_fract_y
 _atom_site_fract_z
 _atom_site_occupancy
  Rb  Rb0  1  0.25000000  0.80440086  0.04001549  1
  Rb  Rb1  1  0.75000000  0.19559914  0.95998451  1
  Rb  Rb2  1  0.75000000  0.30440086  0.45998451  1
  Rb  Rb3  1  0.25000000  0.69559914  0.54001549  1
  Sm  Sm0  1  0.25000000  0.46050511  0.23504397  1
  Sm  Sm1  1  0.75000000  0.53949489  0.76495603  1
  Sm  Sm2  1  0.75000000  0.96050511  0.26495603  1
  Sm  Sm3  1  0.25000000  0.03949489  0.73504397  1
  Sm  Sm4  1  0.25000000  0.15693125  0.24752347  1
  Sm  Sm5  1  0.75000000  0.84306875  0.75247653  1
  Sm  Sm6  1  0.75000000  0.65693125  0.25247653  1
  Sm  Sm7  1  0.25000000  0.34306875  0.74752347  1
  Cl  Cl0  1  0.00564379  0.30676496  0.17218204  1
  Cl  Cl1  1  0.99435621  0.69323504  0.82781796  1
  Cl  Cl2  1  0.99435621  0.80676496  0.32781796  1
  Cl  Cl3  1  0.50564379  0.69323504  0.82781796  1
  Cl  Cl4  1  0.00564379  0.19323504  0.67218204  1
  Cl  Cl5  1  0.49435621  0.30676496  0.17218204  1
  Cl  Cl6  1  0.49435621  0.19323504  0.67218204  1
  Cl  Cl7  1  0.50564379  0.80676496  0.32781796  1
  Cl  Cl8  1  0.01093680  0.58032330  0.11735730  1
  Cl  Cl9  1  0.98906320  0.41967670  0.88264270  1
  Cl  Cl10  1  0.98906320  0.08032330  0.38264270  1
  Cl  Cl11  1  0.51093680  0.41967670  0.88264270  1
  Cl  Cl12  1  0.01093680  0.91967670  0.61735730  1
  Cl  Cl13  1  0.48906320  0.58032330  0.11735730  1
  Cl  Cl14  1  0.48906320  0.91967670  0.61735730  1
  Cl  Cl15  1  0.51093680  0.08032330  0.38264270  1
  Cl  Cl16  1  0.00916876  0.03891856  0.12807819  1
  Cl  Cl17  1  0.99083124  0.96108144  0.87192181  1
  Cl  Cl18  1  0.99083124  0.53891856  0.37192181  1
  Cl  Cl19  1  0.50916876  0.96108144  0.87192181  1
  Cl  Cl20  1  0.00916876  0.46108144  0.62807819  1
  Cl  Cl21  1  0.49083124  0.03891856  0.12807819  1
  Cl  Cl22  1  0.49083124  0.46108144  0.62807819  1
  Cl  Cl23  1  0.50916876  0.53891856  0.37192181  1
  Cl  Cl24  1  0.25000000  0.31225206  0.39514860  1
  Cl  Cl25  1  0.75000000  0.68774794  0.60485140  1
  Cl  Cl26  1  0.75000000  0.81225206  0.10485140  1
  Cl  Cl27  1  0.25000000  0.18774794  0.89514860  1
loop_
_geom_bond_atom_site_label_1
_geom_bond_atom_site_label_2
_geom_bond_distance
_geom_bond_site_symmetry_2
Cl0 Sm0 2.758935 1_555
Cl0 Sm4 2.776508 1_555
Cl0 Rb1 3.611139 1_454
Cl1 Sm1 2.758935 1_555
Cl1 Sm5 2.776508 1_555
Cl1 Rb0 3.611139 1_656
Cl2 Sm2 2.758935 1_555
Cl2 Sm6 2.776508 1_555
Cl2 Rb3 3.611139 1_655
Cl3 Sm1 2.758935 1_555
Cl3 Sm5 2.776508 1_555
Cl3 Rb0 3.611139 1_556
Cl4 Sm3 2.758935 1_555
Cl4 Sm7 2.776508 1_555
Cl4 Rb2 3.611139 1_455
Cl5 Sm0 2.758935 1_555
Cl5 Sm4 2.776508 1_555
Cl5 Rb1 3.611139 1_554
Cl6 Sm3 2.758935 1_555
Cl6 Sm7 2.776508 1_555
Cl6 Rb2 3.611139 1_555
Cl7 Sm2 2.758935 1_555
Cl7 Sm6 2.776508 1_555
Cl7 Rb3 3.611139 1_555
Cl8 Sm6 2.741585 1_455
Cl8 Sm0 2.762104 1_555
Cl8 Rb0 3.501694 1_555
Cl9 Sm7 2.741585 1_655
Cl9 Sm1 2.762104 1_555
Cl9 Rb1 3.501694 1_555
Cl10 Sm4 2.741585 1_655
Cl10 Sm2 2.762104 1_545
Cl10 Rb2 3.501694 1_555
Cl11 Sm7 2.741585 1_555
Cl11 Sm1 2.762104 1_555
Cl11 Rb1 3.501694 1_555
Cl12 Sm5 2.741585 1_455
Cl12 Sm3 2.762104 1_565
Cl12 Rb3 3.501694 1_555
Cl13 Sm6 2.741585 1_555
Cl13 Sm0 2.762104 1_555
Cl13 Rb0 3.501694 1_555
Cl14 Sm5 2.741585 1_555
Cl14 Sm3 2.762104 1_565
Cl14 Rb3 3.501694 1_555
Cl15 Sm4 2.741585 1_555
Cl15 Sm2 2.762104 1_545
Cl15 Rb2 3.501694 1_555
Cl16 Sm2 2.756567 1_445
Cl16 Sm4 2.769748 1_555
Cl16 Rb1 3.506450 1_454
Cl16 Rb0 3.661431 1_545
Cl17 Sm3 2.756567 1_665
Cl17 Sm5 2.769748 1_555
Cl17 Rb0 3.506450 1_656
Cl17 Rb1 3.661431 1_565
Cl18 Sm0 2.756567 1_655
Cl18 Sm6 2.769748 1_555
Cl18 Rb3 3.506450 1_655
Cl18 Rb2 3.661431 1_555
Cl19 Sm3 2.756567 1_565
Cl19 Sm5 2.769748 1_555
Cl19 Rb0 3.506450 1_556
Cl19 Rb1 3.661431 1_565
Cl20 Sm1 2.756567 1_455
Cl20 Sm7 2.769748 1_555
Cl20 Rb2 3.506450 1_455
Cl20 Rb3 3.661431 1_555
Cl21 Sm2 2.756567 1_545
Cl21 Sm4 2.769748 1_555
Cl21 Rb1 3.506450 1_554
Cl21 Rb0 3.661431 1_545
Cl22 Sm1 2.756567 1_555
Cl22 Sm7 2.769748 1_555
Cl22 Rb2 3.506450 1_555
Cl22 Rb3 3.661431 1_555
Cl23 Sm0 2.756567 1_555
Cl23 Sm6 2.769748 1_555
Cl23 Rb3 3.506450 1_555
Cl23 Rb2 3.661431 1_555
Cl24 Sm4 2.783955 1_555
Cl24 Sm0 2.837170 1_555
Cl24 Rb2 3.642448 1_555
Cl24 Rb2 3.642448 1_455
Cl25 Sm5 2.783955 1_555
Cl25 Sm1 2.837170 1_555
Cl25 Rb3 3.642448 1_655
Cl25 Rb3 3.642448 1_555
Cl26 Sm6 2.783955 1_555
Cl26 Sm2 2.837170 1_555
Cl26 Rb0 3.642448 1_555
Cl26 Rb0 3.642448 1_655
Cl27 Sm7 2.783955 1_555
Cl27 Sm3 2.837170 1_555
Cl27 Rb1 3.642448 1_455
Cl27 Rb1 3.642448 1_555
