# generated using pymatgen
data_RbDyBeF6
_symmetry_space_group_name_H-M   'P 1'
_cell_length_a   5.90953100
_cell_length_b   6.54880300
_cell_length_c   7.17026012
_cell_angle_alpha   66.45584633
_cell_angle_beta   90.00000000
_cell_angle_gamma   90.00000000
_symmetry_Int_Tables_number   1
_chemical_formula_structural   RbDyBeF6
_chemical_formula_sum   'Rb2 Dy2 Be2 F12'
_cell_volume   254.39112901
_cell_formula_units_Z   2
loop_
 _symmetry_equiv_pos_site_id
 _symmetry_equiv_pos_as_xyz
  1  'x, y, z'
loop_
 _atom_site_type_symbol
 _atom_site_label
 _atom_site_symmetry_multiplicity
 _atom_site_fract_x
 _atom_site_fract_y
 _atom_site_fract_z
 _atom_site_occupancy
  Rb  Rb0  1  0.25000000  0.07714400  0.78902100  1
  Rb  Rb1  1  0.75000000  0.92285600  0.21097900  1
  Dy  Dy0  1  0.25000000  0.39015500  0.18002300  1
  Dy  Dy1  1  0.75000000  0.60984500  0.81997700  1
  Be  Be0  1  0.25000000  0.76563100  0.46541100  1
  Be  Be1  1  0.75000000  0.23436900  0.53458900  1
  F  F0  1  0.46567500  0.76114700  0.59464300  1
  F  F1  1  0.53432500  0.23885300  0.40535700  1
  F  F2  1  0.96567500  0.23885300  0.40535700  1
  F  F3  1  0.03432500  0.76114700  0.59464300  1
  F  F4  1  0.25000000  0.56621400  0.40211800  1
  F  F5  1  0.75000000  0.43378600  0.59788200  1
  F  F6  1  0.49894800  0.67401800  0.03244100  1
  F  F7  1  0.50105200  0.32598200  0.96755900  1
  F  F8  1  0.99894800  0.32598200  0.96755900  1
  F  F9  1  0.00105200  0.67401800  0.03244100  1
  F  F10  1  0.25000000  0.99245700  0.27114900  1
  F  F11  1  0.75000000  0.00754300  0.72885100  1
loop_
_geom_bond_atom_site_label_1
_geom_bond_atom_site_label_2
_geom_bond_distance
_geom_bond_site_symmetry_2
Dy0 F1 2.266374 1_555
Dy0 F2 2.266374 1_455
Dy0 F9 2.273385 1_555
Dy0 F6 2.273385 1_555
Dy0 F7 2.282539 1_554
Dy0 F8 2.282539 1_454
Dy0 F4 2.309159 1_555
Dy0 F10 2.418787 1_545
Dy1 F3 2.266374 1_655
Dy1 F0 2.266374 1_555
Dy1 F8 2.273385 1_555
Dy1 F7 2.273385 1_555
Dy1 F6 2.282539 1_556
Dy1 F9 2.282539 1_656
Dy1 F5 2.309159 1_555
Dy1 F11 2.418787 1_565
Be0 F4 1.544324 1_555
Be0 F3 1.569143 1_555
Be0 F0 1.569143 1_555
Be0 F10 1.579149 1_555
Be1 F5 1.544324 1_555
Be1 F2 1.569143 1_555
Be1 F1 1.569143 1_555
Be1 F11 1.579149 1_555
F0 Rb1 3.030682 1_555
F0 Rb0 3.186474 1_565
F1 Rb0 3.030682 1_555
F1 Rb1 3.186474 1_545
F2 Rb0 3.030682 1_655
F2 Rb1 3.186474 1_545
F3 Rb1 3.030682 1_455
F3 Rb0 3.186474 1_565
F4 Rb0 3.294799 1_555
F5 Rb1 3.294799 1_555
F6 Rb1 2.856939 1_555
F6 Rb0 2.915310 1_564
F7 Rb0 2.856939 1_555
F7 Rb1 2.915310 1_546
F8 Rb0 2.856939 1_655
F8 Rb1 2.915310 1_546
F9 Rb1 2.856939 1_455
F9 Rb0 2.915310 1_564
F10 Rb1 3.046578 1_455
F10 Rb1 3.046578 1_555
F10 Rb0 3.275150 1_564
F11 Rb0 3.046578 1_655
F11 Rb0 3.046578 1_555
F11 Rb1 3.275150 1_546
