# generated using pymatgen
data_Ba7Ge6
_symmetry_space_group_name_H-M   'P 1'
_cell_length_a   8.20147236
_cell_length_b   9.09507235
_cell_length_c   24.94644017
_cell_angle_alpha   90.00000000
_cell_angle_beta   90.00000000
_cell_angle_gamma   90.00000000
_symmetry_Int_Tables_number   1
_chemical_formula_structural   Ba7Ge6
_chemical_formula_sum   'Ba28 Ge24'
_cell_volume   1860.82942470
_cell_formula_units_Z   4
loop_
 _symmetry_equiv_pos_site_id
 _symmetry_equiv_pos_as_xyz
  1  'x, y, z'
loop_
 _atom_site_type_symbol
 _atom_site_label
 _atom_site_symmetry_multiplicity
 _atom_site_fract_x
 _atom_site_fract_y
 _atom_site_fract_z
 _atom_site_occupancy
  Ba  Ba0  1  0.46367157  0.68242723  0.33842698  1
  Ba  Ba1  1  0.96367157  0.81757277  0.16157302  1
  Ba  Ba2  1  0.53632843  0.31757277  0.83842698  1
  Ba  Ba3  1  0.03632843  0.18242723  0.66157302  1
  Ba  Ba4  1  0.53632843  0.31757277  0.66157302  1
  Ba  Ba5  1  0.03632843  0.18242723  0.83842698  1
  Ba  Ba6  1  0.46367157  0.68242723  0.16157302  1
  Ba  Ba7  1  0.96367157  0.81757277  0.33842698  1
  Ba  Ba8  1  0.37671471  0.81554046  0.86040081  1
  Ba  Ba9  1  0.87671471  0.68445954  0.63959919  1
  Ba  Ba10  1  0.62328529  0.18445954  0.36040081  1
  Ba  Ba11  1  0.12328529  0.31554046  0.13959919  1
  Ba  Ba12  1  0.62328529  0.18445954  0.13959919  1
  Ba  Ba13  1  0.12328529  0.31554046  0.36040081  1
  Ba  Ba14  1  0.37671471  0.81554046  0.63959919  1
  Ba  Ba15  1  0.87671471  0.68445954  0.86040081  1
  Ba  Ba16  1  0.15538821  0.67637208  0.48084617  1
  Ba  Ba17  1  0.65538821  0.82362792  0.01915383  1
  Ba  Ba18  1  0.84461179  0.32362792  0.98084617  1
  Ba  Ba19  1  0.34461179  0.17637208  0.51915383  1
  Ba  Ba20  1  0.84461179  0.32362792  0.51915383  1
  Ba  Ba21  1  0.34461179  0.17637208  0.98084617  1
  Ba  Ba22  1  0.15538821  0.67637208  0.01915383  1
  Ba  Ba23  1  0.65538821  0.82362792  0.48084617  1
  Ba  Ba24  1  0.20997981  0.53200145  0.75000000  1
  Ba  Ba25  1  0.70997981  0.96799855  0.75000000  1
  Ba  Ba26  1  0.79002019  0.46799855  0.25000000  1
  Ba  Ba27  1  0.29002019  0.03200145  0.25000000  1
  Ge  Ge0  1  0.49440470  0.53471317  0.94943802  1
  Ge  Ge1  1  0.99440470  0.96528683  0.55056198  1
  Ge  Ge2  1  0.50559530  0.46528683  0.44943802  1
  Ge  Ge3  1  0.00559530  0.03471317  0.05056198  1
  Ge  Ge4  1  0.50559530  0.46528683  0.05056198  1
  Ge  Ge5  1  0.00559530  0.03471317  0.44943802  1
  Ge  Ge6  1  0.49440470  0.53471317  0.55056198  1
  Ge  Ge7  1  0.99440470  0.96528683  0.94943802  1
  Ge  Ge8  1  0.28893791  0.97487304  0.40477960  1
  Ge  Ge9  1  0.78893791  0.52512696  0.09522040  1
  Ge  Ge10  1  0.71106209  0.02512696  0.90477960  1
  Ge  Ge11  1  0.21106209  0.47487304  0.59522040  1
  Ge  Ge12  1  0.71106209  0.02512696  0.59522040  1
  Ge  Ge13  1  0.21106209  0.47487304  0.90477960  1
  Ge  Ge14  1  0.28893791  0.97487304  0.09522040  1
  Ge  Ge15  1  0.78893791  0.52512696  0.40477960  1
  Ge  Ge16  1  0.33015741  0.08402129  0.75000000  1
  Ge  Ge17  1  0.83015741  0.41597871  0.75000000  1
  Ge  Ge18  1  0.66984259  0.91597871  0.25000000  1
  Ge  Ge19  1  0.16984259  0.58402129  0.25000000  1
  Ge  Ge20  1  0.11109569  0.88723869  0.75000000  1
  Ge  Ge21  1  0.61109569  0.61276131  0.75000000  1
  Ge  Ge22  1  0.88890431  0.11276131  0.25000000  1
  Ge  Ge23  1  0.38890431  0.38723869  0.25000000  1
loop_
_geom_bond_atom_site_label_1
_geom_bond_atom_site_label_2
_geom_bond_distance
_geom_bond_site_symmetry_2
Ba0 Ge19 3.387401 1_555
Ba0 Ge2 3.418724 1_555
Ba0 Ge8 3.445027 1_555
Ba0 Ge15 3.450087 1_555
Ba0 Ge18 3.498202 1_555
Ba0 Ge23 3.528473 1_555
Ba1 Ge18 3.387401 1_555
Ba1 Ge3 3.418724 1_665
Ba1 Ge9 3.445027 1_555
Ba1 Ge14 3.450087 1_655
Ba1 Ge19 3.498202 1_655
Ba1 Ge22 3.528473 1_565
Ba2 Ge17 3.387401 1_555
Ba2 Ge0 3.418724 1_555
Ba2 Ge10 3.445027 1_555
Ba2 Ge13 3.450087 1_555
Ba2 Ge16 3.498202 1_555
Ba2 Ge21 3.528473 1_555
Ba3 Ge16 3.387401 1_555
Ba3 Ge1 3.418724 1_445
Ba3 Ge11 3.445027 1_555
Ba3 Ge12 3.450087 1_455
Ba3 Ge17 3.498202 1_455
Ba3 Ge20 3.528473 1_545
Ba4 Ge17 3.387401 1_555
Ba4 Ge6 3.418724 1_555
Ba4 Ge12 3.445027 1_555
Ba4 Ge11 3.450087 1_555
Ba4 Ge16 3.498202 1_555
Ba4 Ge21 3.528473 1_555
Ba5 Ge16 3.387401 1_555
Ba5 Ge7 3.418724 1_445
Ba5 Ge13 3.445027 1_555
Ba5 Ge10 3.450087 1_455
Ba5 Ge17 3.498202 1_455
Ba5 Ge20 3.528473 1_545
Ba6 Ge19 3.387401 1_555
Ba6 Ge4 3.418724 1_555
Ba6 Ge14 3.445027 1_555
Ba6 Ge9 3.450087 1_555
Ba6 Ge18 3.498202 1_555
Ba6 Ge23 3.528473 1_555
Ba7 Ge18 3.387401 1_555
Ba7 Ge5 3.418724 1_665
Ba7 Ge15 3.445027 1_555
Ba7 Ge8 3.450087 1_655
Ba7 Ge19 3.498202 1_655
Ba7 Ge22 3.528473 1_565
Ba8 Ge10 3.518324 1_565
Ba8 Ge0 3.519785 1_555
Ba8 Ge13 3.559703 1_555
Ba8 Ge20 3.571563 1_555
Ba8 Ge16 3.700480 1_565
Ba8 Ge21 3.831662 1_555
Ba8 Ge7 4.076747 1_455
Ba9 Ge11 3.518324 1_655
Ba9 Ge1 3.519785 1_555
Ba9 Ge12 3.559703 1_565
Ba9 Ge21 3.571563 1_555
Ba9 Ge17 3.700480 1_555
Ba9 Ge20 3.831662 1_655
Ba9 Ge6 4.076747 1_555
Ba10 Ge8 3.518324 1_545
Ba10 Ge2 3.519785 1_555
Ba10 Ge15 3.559703 1_555
Ba10 Ge22 3.571563 1_555
Ba10 Ge18 3.700480 1_545
Ba10 Ge23 3.831662 1_555
Ba10 Ge5 4.076747 1_655
Ba11 Ge9 3.518324 1_455
Ba11 Ge3 3.519785 1_555
Ba11 Ge14 3.559703 1_545
Ba11 Ge23 3.571563 1_555
Ba11 Ge19 3.700480 1_555
Ba11 Ge22 3.831662 1_455
Ba11 Ge4 4.076747 1_555
Ba12 Ge14 3.518324 1_545
Ba12 Ge4 3.519785 1_555
Ba12 Ge9 3.559703 1_555
Ba12 Ge22 3.571563 1_555
Ba12 Ge18 3.700480 1_545
Ba12 Ge23 3.831662 1_555
Ba12 Ge3 4.076747 1_655
Ba13 Ge15 3.518324 1_455
Ba13 Ge5 3.519785 1_555
Ba13 Ge8 3.559703 1_545
Ba13 Ge23 3.571563 1_555
Ba13 Ge19 3.700480 1_555
Ba13 Ge22 3.831662 1_455
Ba13 Ge2 4.076747 1_555
Ba14 Ge12 3.518324 1_565
Ba14 Ge6 3.519785 1_555
Ba14 Ge11 3.559703 1_555
Ba14 Ge20 3.571563 1_555
Ba14 Ge16 3.700480 1_565
Ba14 Ge21 3.831662 1_555
Ba14 Ge1 4.076747 1_455
Ba15 Ge13 3.518324 1_655
Ba15 Ge7 3.519785 1_555
Ba15 Ge10 3.559703 1_565
Ba15 Ge21 3.571563 1_555
Ba15 Ge17 3.700480 1_555
Ba15 Ge20 3.831662 1_655
Ba15 Ge0 4.076747 1_555
Ba16 Ge1 3.416532 1_455
Ba16 Ge11 3.421697 1_555
Ba16 Ge8 3.488718 1_555
Ba16 Ge6 3.523559 1_555
Ba16 Ge2 3.542497 1_555
Ba16 Ge5 3.570036 1_565
Ba16 Ge15 3.811260 1_455
Ba17 Ge0 3.416532 1_554
Ba17 Ge10 3.421697 1_564
Ba17 Ge9 3.488718 1_555
Ba17 Ge7 3.523559 1_554
Ba17 Ge3 3.542497 1_665
Ba17 Ge4 3.570036 1_555
Ba17 Ge14 3.811260 1_555
Ba18 Ge3 3.416532 1_656
Ba18 Ge9 3.421697 1_556
Ba18 Ge10 3.488718 1_555
Ba18 Ge4 3.523559 1_556
Ba18 Ge0 3.542497 1_555
Ba18 Ge7 3.570036 1_545
Ba18 Ge13 3.811260 1_655
Ba19 Ge2 3.416532 1_555
Ba19 Ge8 3.421697 1_545
Ba19 Ge11 3.488718 1_555
Ba19 Ge5 3.523559 1_555
Ba19 Ge1 3.542497 1_445
Ba19 Ge6 3.570036 1_555
Ba19 Ge12 3.811260 1_555
Ba20 Ge5 3.416532 1_655
Ba20 Ge15 3.421697 1_555
Ba20 Ge12 3.488718 1_555
Ba20 Ge2 3.523559 1_555
Ba20 Ge6 3.542497 1_555
Ba20 Ge1 3.570036 1_545
Ba20 Ge11 3.811260 1_655
Ba21 Ge4 3.416532 1_556
Ba21 Ge14 3.421697 1_546
Ba21 Ge13 3.488718 1_555
Ba21 Ge3 3.523559 1_556
Ba21 Ge7 3.542497 1_445
Ba21 Ge0 3.570036 1_555
Ba21 Ge10 3.811260 1_555
Ba22 Ge7 3.416532 1_454
Ba22 Ge13 3.421697 1_554
Ba22 Ge14 3.488718 1_555
Ba22 Ge0 3.523559 1_554
Ba22 Ge4 3.542497 1_555
Ba22 Ge3 3.570036 1_565
Ba22 Ge9 3.811260 1_455
Ba23 Ge6 3.416532 1_555
Ba23 Ge12 3.421697 1_565
Ba23 Ge15 3.488718 1_555
Ba23 Ge1 3.523559 1_555
Ba23 Ge5 3.542497 1_665
Ba23 Ge2 3.570036 1_555
Ba23 Ge8 3.811260 1_555
Ba24 Ge17 3.288980 1_455
Ba24 Ge20 3.331138 1_555
Ba24 Ge21 3.370743 1_555
Ba24 Ge13 3.896013 1_555
Ba24 Ge11 3.896013 1_555
Ba25 Ge16 3.288980 1_565
Ba25 Ge21 3.331138 1_555
Ba25 Ge20 3.370743 1_655
Ba25 Ge10 3.896013 1_565
Ba25 Ge12 3.896013 1_565
Ba26 Ge19 3.288980 1_655
Ba26 Ge22 3.331138 1_555
Ba26 Ge23 3.370743 1_555
Ba26 Ge9 3.896013 1_555
Ba26 Ge15 3.896013 1_555
Ba27 Ge18 3.288980 1_545
Ba27 Ge23 3.331138 1_555
Ba27 Ge22 3.370743 1_455
Ba27 Ge14 3.896013 1_545
Ba27 Ge8 3.896013 1_545
Ge0 Ge4 2.602127 1_556
Ge0 Ge13 2.633919 1_555
Ge1 Ge5 2.602127 1_665
Ge1 Ge12 2.633919 1_565
Ge2 Ge6 2.602127 1_555
Ge3 Ge7 2.602127 1_444
Ge4 Ge9 2.633919 1_555
Ge5 Ge8 2.633919 1_545
Ge10 Ge7 2.633919 1_545
Ge11 Ge6 2.633919 1_555
Ge14 Ge3 2.633919 1_565
Ge15 Ge2 2.633919 1_555
Ge16 Ge20 2.535959 1_545
Ge17 Ge21 2.535959 1_555
Ge18 Ge22 2.535959 1_565
Ge19 Ge23 2.535959 1_555
