# generated using pymatgen
data_Ca(AgO2)2
_symmetry_space_group_name_H-M   'P 1'
_cell_length_a   6.50411738
_cell_length_b   6.50411738
_cell_length_c   6.50411738
_cell_angle_alpha   119.20265550
_cell_angle_beta   115.56828425
_cell_angle_gamma   94.61807689
_symmetry_Int_Tables_number   1
_chemical_formula_structural   Ca(AgO2)2
_chemical_formula_sum   'Ca2 Ag4 O8'
_cell_volume   201.30860985
_cell_formula_units_Z   2
loop_
 _symmetry_equiv_pos_site_id
 _symmetry_equiv_pos_as_xyz
  1  'x, y, z'
loop_
 _atom_site_type_symbol
 _atom_site_label
 _atom_site_symmetry_multiplicity
 _atom_site_fract_x
 _atom_site_fract_y
 _atom_site_fract_z
 _atom_site_occupancy
  Ca  Ca0  1  0.00000000  0.50000000  0.50000000  1
  Ca  Ca1  1  0.50000000  0.50000000  0.00000000  1
  Ag  Ag0  1  0.12394500  0.87394500  0.25000000  1
  Ag  Ag1  1  0.87605500  0.12605500  0.75000000  1
  Ag  Ag2  1  0.50000000  0.00000000  0.00000000  1
  Ag  Ag3  1  0.50000000  0.50000000  0.50000000  1
  O  O0  1  0.73345800  0.25612600  0.02266800  1
  O  O1  1  0.68753900  0.23422500  0.45331400  1
  O  O2  1  0.73345800  0.71079000  0.47733200  1
  O  O3  1  0.28091100  0.23422500  0.04668600  1
  O  O4  1  0.71908900  0.76577500  0.95331400  1
  O  O5  1  0.31246100  0.76577500  0.54668600  1
  O  O6  1  0.26654200  0.28921000  0.52266800  1
  O  O7  1  0.26654200  0.74387400  0.97733200  1
loop_
_geom_bond_atom_site_label_1
_geom_bond_atom_site_label_2
_geom_bond_distance
_geom_bond_site_symmetry_2
Ca0 O2 2.294814 1_455
Ca0 O0 2.294814 1_455
Ca0 O6 2.294814 1_555
Ca0 O7 2.294814 1_555
Ca0 O1 2.366428 1_455
Ca0 O5 2.366428 1_555
Ca1 O2 2.294814 1_555
Ca1 O6 2.294814 1_554
Ca1 O0 2.294814 1_555
Ca1 O7 2.294814 1_554
Ca1 O4 2.366428 1_554
Ca1 O3 2.366428 1_555
Ag0 O7 2.191613 1_554
Ag0 O6 2.191613 1_565
Ag0 O4 2.267912 1_454
Ag0 O5 2.267912 1_555
Ag1 O0 2.191613 1_556
Ag1 O2 2.191613 1_545
Ag1 O1 2.267912 1_555
Ag1 O3 2.267912 1_656
Ag2 O7 2.064534 1_544
Ag2 O0 2.064534 1_555
Ag2 O1 2.171466 1_555
Ag2 O4 2.171466 1_544
Ag2 O3 2.171466 1_555
Ag2 O5 2.171466 1_544
Ag3 O6 2.064534 1_555
Ag3 O2 2.064534 1_555
Ag3 O5 2.171466 1_555
Ag3 O3 2.171466 1_555
Ag3 O1 2.171466 1_555
Ag3 O4 2.171466 1_555
