# generated using pymatgen
data_MgSi2
_symmetry_space_group_name_H-M   'P 1'
_cell_length_a   3.69465300
_cell_length_b   5.35109956
_cell_length_c   11.81991326
_cell_angle_alpha   86.38985181
_cell_angle_beta   86.70196066
_cell_angle_gamma   86.26288326
_symmetry_Int_Tables_number   1
_chemical_formula_structural   MgSi2
_chemical_formula_sum   'Mg4 Si8'
_cell_volume   232.39030664
_cell_formula_units_Z   4
loop_
 _symmetry_equiv_pos_site_id
 _symmetry_equiv_pos_as_xyz
  1  'x, y, z'
loop_
 _atom_site_type_symbol
 _atom_site_label
 _atom_site_symmetry_multiplicity
 _atom_site_fract_x
 _atom_site_fract_y
 _atom_site_fract_z
 _atom_site_occupancy
  Mg  Mg0  1  0.91471000  0.01284800  0.03728200  1
  Mg  Mg1  1  0.46132800  0.82257300  0.82315600  1
  Mg  Mg2  1  0.56245400  0.35370500  0.64652600  1
  Mg  Mg3  1  0.04135300  0.64997500  0.41062100  1
  Si  Si0  1  0.94076500  0.51522200  0.95889800  1
  Si  Si1  1  0.94882700  0.51235200  0.16323000  1
  Si  Si2  1  0.13470400  0.14797400  0.28558800  1
  Si  Si3  1  0.00733400  0.74875400  0.64958300  1
  Si  Si4  1  0.40623500  0.78176600  0.19298700  1
  Si  Si5  1  0.47137100  0.30122500  0.88200500  1
  Si  Si6  1  0.51038400  0.91424600  0.54681700  1
  Si  Si7  1  0.60045500  0.23929100  0.40340400  1
loop_
_geom_bond_atom_site_label_1
_geom_bond_atom_site_label_2
_geom_bond_distance
_geom_bond_site_symmetry_2
Mg0 Si0 2.793595 1_554
Mg0 Si4 2.831841 1_645
Mg0 Si4 2.839696 1_545
Mg0 Si5 2.844738 1_554
Mg0 Si0 2.868000 1_544
Mg0 Si1 2.979992 1_545
Mg0 Si5 3.098778 1_654
Mg0 Si1 3.153267 1_555
Mg0 Si2 3.227351 1_655
Mg1 Si5 2.699126 1_565
Mg1 Si3 2.786227 1_555
Mg1 Si3 2.820756 1_655
Mg1 Si5 2.830763 1_555
Mg1 Si0 2.834048 1_555
Mg1 Si0 2.950130 1_455
Mg2 Si6 2.718465 1_545
Mg2 Si3 2.764263 1_655
Mg2 Si5 2.783022 1_555
Mg2 Si3 2.848242 1_555
Mg2 Si7 2.969265 1_555
Mg3 Si7 2.827818 1_455
Mg3 Si6 2.828687 1_455
Mg3 Si3 2.900268 1_555
Mg3 Si4 2.903192 1_555
Mg3 Si7 2.918116 1_555
Mg3 Si6 2.919147 1_555
Mg3 Si2 2.994939 1_565
Mg3 Si1 3.103034 1_455
Mg3 Si2 3.136813 1_555
Si0 Si5 2.369377 1_655
Si0 Si5 2.390870 1_555
Si0 Si1 2.416153 1_556
Si1 Si4 2.346896 1_655
Si1 Si4 2.413889 1_555
Si1 Si2 2.439201 1_655
Si2 Si7 2.368582 1_555
Si2 Si7 2.391208 1_455
Si2 Si4 2.435577 1_545
Si3 Si6 2.352316 1_555
Si3 Si6 2.353717 1_455
Si6 Si7 2.376716 1_565
