# generated using pymatgen
data_Dy(FeSn)6
_symmetry_space_group_name_H-M   'P 1'
_cell_length_a   10.36990040
_cell_length_b   10.36990040
_cell_length_c   5.41210300
_cell_angle_alpha   90.00000000
_cell_angle_beta   90.00000000
_cell_angle_gamma   128.86439674
_symmetry_Int_Tables_number   1
_chemical_formula_structural   Dy(FeSn)6
_chemical_formula_sum   'Dy2 Fe12 Sn12'
_cell_volume   453.15643040
_cell_formula_units_Z   2
loop_
 _symmetry_equiv_pos_site_id
 _symmetry_equiv_pos_as_xyz
  1  'x, y, z'
loop_
 _atom_site_type_symbol
 _atom_site_label
 _atom_site_symmetry_multiplicity
 _atom_site_fract_x
 _atom_site_fract_y
 _atom_site_fract_z
 _atom_site_occupancy
  Dy  Dy0  1  0.87284100  0.12715900  0.75000000  1
  Dy  Dy1  1  0.12715900  0.87284100  0.25000000  1
  Fe  Fe0  1  0.50000000  0.00000000  0.00000000  1
  Fe  Fe1  1  0.00000000  0.50000000  0.00000000  1
  Fe  Fe2  1  0.50000000  0.00000000  0.50000000  1
  Fe  Fe3  1  0.00000000  0.50000000  0.50000000  1
  Fe  Fe4  1  0.75385500  0.75385500  0.00000000  1
  Fe  Fe5  1  0.75385500  0.75385500  0.50000000  1
  Fe  Fe6  1  0.24614500  0.24614500  0.00000000  1
  Fe  Fe7  1  0.24614500  0.24614500  0.50000000  1
  Fe  Fe8  1  0.62766500  0.87825000  0.25000000  1
  Fe  Fe9  1  0.87825000  0.62766500  0.75000000  1
  Fe  Fe10  1  0.37233500  0.12175000  0.75000000  1
  Fe  Fe11  1  0.12175000  0.37233500  0.25000000  1
  Sn  Sn0  1  0.53836400  0.78706800  0.75000000  1
  Sn  Sn1  1  0.78706800  0.53836400  0.25000000  1
  Sn  Sn2  1  0.46163600  0.21293200  0.25000000  1
  Sn  Sn3  1  0.21293200  0.46163600  0.75000000  1
  Sn  Sn4  1  0.95688000  0.04312000  0.25000000  1
  Sn  Sn5  1  0.04312000  0.95688000  0.75000000  1
  Sn  Sn6  1  0.45787300  0.54212700  0.25000000  1
  Sn  Sn7  1  0.54212700  0.45787300  0.75000000  1
  Sn  Sn8  1  0.78871500  0.21128500  0.25000000  1
  Sn  Sn9  1  0.21128500  0.78871500  0.75000000  1
  Sn  Sn10  1  0.29428000  0.70572000  0.25000000  1
  Sn  Sn11  1  0.70572000  0.29428100  0.75000000  1
loop_
_geom_bond_atom_site_label_1
_geom_bond_atom_site_label_2
_geom_bond_distance
_geom_bond_site_symmetry_2
Dy0 Sn3 3.019439 1_655
Dy0 Sn0 3.019439 1_545
Dy0 Sn11 3.126653 1_555
Dy0 Sn4 3.129658 1_556
Dy0 Sn4 3.129658 1_555
Dy0 Sn8 3.130476 1_556
Dy0 Sn8 3.130476 1_555
Dy0 Sn5 3.185726 1_645
Dy0 Fe0 3.481356 1_556
Dy0 Fe1 3.481356 1_656
Dy0 Fe3 3.481356 1_655
Dy0 Fe2 3.481356 1_555
Dy0 Fe11 3.494786 1_656
Dy0 Fe11 3.494786 1_655
Dy0 Fe8 3.494786 1_545
Dy0 Fe8 3.494786 1_546
Dy0 Fe6 3.513467 1_656
Dy0 Fe7 3.513467 1_655
Dy0 Fe5 3.513467 1_545
Dy0 Fe4 3.513467 1_546
Dy1 Sn2 3.019439 1_565
Dy1 Sn1 3.019439 1_455
Dy1 Sn10 3.126643 1_555
Dy1 Sn5 3.129658 1_554
Dy1 Sn5 3.129658 1_555
Dy1 Sn9 3.130476 1_555
Dy1 Sn9 3.130476 1_554
Dy1 Sn4 3.185726 1_465
Dy1 Fe0 3.481356 1_565
Dy1 Fe2 3.481356 1_565
Dy1 Fe1 3.481356 1_555
Dy1 Fe3 3.481356 1_555
Dy1 Fe10 3.494786 1_564
Dy1 Fe10 3.494786 1_565
Dy1 Fe9 3.494786 1_454
Dy1 Fe9 3.494786 1_455
Dy1 Fe7 3.513467 1_565
Dy1 Fe6 3.513467 1_565
Dy1 Fe4 3.513467 1_455
Dy1 Fe5 3.513467 1_455
Fe0 Fe8 2.697202 1_545
Fe0 Fe10 2.697202 1_554
Fe0 Fe2 2.706052 1_554
Fe0 Fe2 2.706052 1_555
Fe0 Sn8 2.713425 1_555
Fe0 Sn9 2.713425 1_544
Fe0 Sn10 2.743053 1_545
Fe0 Sn11 2.743060 1_554
Fe0 Sn2 2.822586 1_555
Fe0 Sn0 2.822586 1_544
Fe1 Fe9 2.697202 1_454
Fe1 Fe11 2.697202 1_555
Fe1 Fe3 2.706052 1_554
Fe1 Fe3 2.706052 1_555
Fe1 Sn9 2.713425 1_554
Fe1 Sn8 2.713425 1_455
Fe1 Sn11 2.743052 1_454
Fe1 Sn10 2.743053 1_555
Fe1 Sn3 2.822586 1_554
Fe1 Sn1 2.822586 1_455
Fe2 Fe8 2.697202 1_545
Fe2 Sn8 2.713425 1_555
Fe2 Sn9 2.713425 1_545
Fe2 Sn10 2.743053 1_545
Fe2 Sn11 2.743060 1_555
Fe2 Sn2 2.822586 1_555
Fe2 Sn0 2.822586 1_545
Fe3 Fe9 2.697202 1_455
Fe3 Sn9 2.713425 1_555
Fe3 Sn8 2.713425 1_455
Fe3 Sn11 2.743052 1_455
Fe3 Sn10 2.743053 1_555
Fe3 Sn3 2.822586 1_555
Fe3 Sn1 2.822586 1_455
Fe4 Fe5 2.706052 1_555
Fe4 Fe5 2.706052 1_554
Fe4 Fe8 2.706558 1_555
Fe4 Fe9 2.706558 1_554
Fe4 Sn4 2.708434 1_565
Fe4 Sn5 2.708434 1_654
Fe4 Sn6 2.759500 1_555
Fe4 Sn7 2.759500 1_554
Fe4 Sn1 2.812240 1_555
Fe4 Sn0 2.812240 1_554
Fe5 Fe8 2.706558 1_555
Fe5 Fe9 2.706558 1_555
Fe5 Sn5 2.708434 1_655
Fe5 Sn4 2.708434 1_565
Fe5 Sn6 2.759500 1_555
Fe5 Sn7 2.759500 1_555
Fe5 Sn0 2.812240 1_555
Fe5 Sn1 2.812240 1_555
Fe6 Fe7 2.706052 1_554
Fe6 Fe7 2.706052 1_555
Fe6 Sn5 2.708434 1_544
Fe6 Sn4 2.708434 1_455
Fe6 Sn7 2.759500 1_554
Fe6 Sn6 2.759500 1_555
Fe6 Sn3 2.812240 1_554
Fe6 Sn2 2.812240 1_555
Fe7 Sn4 2.708434 1_455
Fe7 Sn5 2.708434 1_545
Fe7 Sn7 2.759500 1_555
Fe7 Sn6 2.759500 1_555
Fe7 Sn3 2.812240 1_555
Fe7 Sn2 2.812240 1_555
Fe8 Sn4 2.693149 1_565
Fe8 Sn10 2.718582 1_555
Fe8 Sn8 2.734575 1_565
Fe8 Sn6 2.747265 1_555
Fe8 Sn0 2.824087 1_554
Fe8 Sn0 2.824087 1_555
Fe9 Sn5 2.693149 1_655
Fe9 Sn11 2.718573 1_555
Fe9 Sn9 2.734575 1_655
Fe9 Sn7 2.747265 1_555
Fe9 Sn1 2.824087 1_556
Fe9 Sn1 2.824087 1_555
Fe10 Sn5 2.693149 1_545
Fe10 Fe2 2.697202 1_555
Fe10 Fe7 2.706558 1_555
Fe10 Fe6 2.706558 1_556
Fe10 Sn11 2.718580 1_555
Fe10 Sn9 2.734575 1_545
Fe10 Sn7 2.747265 1_555
Fe10 Sn2 2.824087 1_556
Fe10 Sn2 2.824087 1_555
Fe11 Sn4 2.693149 1_455
Fe11 Fe3 2.697202 1_555
Fe11 Fe7 2.706558 1_555
Fe11 Fe6 2.706558 1_555
Fe11 Sn10 2.718582 1_555
Fe11 Sn8 2.734575 1_455
Fe11 Sn6 2.747265 1_555
Fe11 Sn3 2.824087 1_555
Fe11 Sn3 2.824087 1_554
Sn0 Sn3 2.912896 1_555
Sn1 Sn2 2.912896 1_555
