# generated using pymatgen
data_GdCrTeO6
_symmetry_space_group_name_H-M   'P 1'
_cell_length_a   5.13580145
_cell_length_b   5.13531238
_cell_length_c   9.87822822
_cell_angle_alpha   90.01210517
_cell_angle_beta   89.99395355
_cell_angle_gamma   119.99685581
_symmetry_Int_Tables_number   1
_chemical_formula_structural   GdCrTeO6
_chemical_formula_sum   'Gd2 Cr2 Te2 O12'
_cell_volume   225.63087577
_cell_formula_units_Z   2
loop_
 _symmetry_equiv_pos_site_id
 _symmetry_equiv_pos_as_xyz
  1  'x, y, z'
loop_
 _atom_site_type_symbol
 _atom_site_label
 _atom_site_symmetry_multiplicity
 _atom_site_fract_x
 _atom_site_fract_y
 _atom_site_fract_z
 _atom_site_occupancy
  Gd  Gd0  1  -0.00000000  0.00000000  -0.00000000  1
  Gd  Gd1  1  -0.00000000  0.00000000  0.50000000  1
  Cr  Cr0  1  0.33343473  0.66671786  0.25000000  1
  Cr  Cr1  1  0.66656527  0.33328214  0.75000000  1
  Te  Te0  1  0.33319566  0.66659833  0.75000000  1
  Te  Te1  1  0.66680434  0.33340267  0.25000000  1
  O  O0  1  0.36892841  0.36000758  0.14169556  1
  O  O1  1  0.64006894  0.00878330  0.14169768  1
  O  O2  1  0.99133576  0.63125267  0.14169340  1
  O  O3  1  0.63107159  0.63999242  0.85830444  1
  O  O4  1  0.35993106  0.99121670  0.85830232  1
  O  O5  1  0.00866424  0.36874733  0.85830660  1
  O  O6  1  0.64006894  0.63128564  0.35830232  1
  O  O7  1  0.36892841  0.00892083  0.35830444  1
  O  O8  1  0.99133576  0.36008309  0.35830660  1
  O  O9  1  0.35993106  0.36871436  0.64169768  1
  O  O10  1  0.63107159  0.99107917  0.64169556  1
  O  O11  1  0.00866424  0.63991691  0.64169340  1
loop_
_geom_bond_atom_site_label_1
_geom_bond_atom_site_label_2
_geom_bond_distance
_geom_bond_site_symmetry_2
Gd0 O1 2.336907 1_455
Gd0 O4 2.336907 1_544
Gd0 O5 2.337473 1_554
Gd0 O2 2.337473 1_445
Gd0 O0 2.337517 1_555
Gd0 O3 2.337517 1_444
Gd1 O6 2.336906 1_445
Gd1 O9 2.336906 1_555
Gd1 O11 2.337473 1_545
Gd1 O8 2.337473 1_455
Gd1 O10 2.337518 1_445
Gd1 O7 2.337518 1_555
Cr0 O1 1.986111 1_565
Cr0 O6 1.986113 1_555
Cr0 O7 1.986185 1_565
Cr0 O0 1.986189 1_555
Cr0 O2 1.986215 1_455
Cr0 O8 1.986217 1_455
Cr1 O4 1.986111 1_545
Cr1 O9 1.986113 1_555
Cr1 O10 1.986185 1_545
Cr1 O3 1.986189 1_555
Cr1 O5 1.986215 1_655
Cr1 O11 1.986217 1_655
O0 Te1 1.926926 1_555
O1 Te1 1.926854 1_555
O2 Te1 1.927009 1_555
O3 Te0 1.926928 1_555
O4 Te0 1.926850 1_555
O5 Te0 1.927010 1_555
O6 Te1 1.926850 1_555
O7 Te1 1.926928 1_555
O8 Te1 1.927010 1_555
O9 Te0 1.926854 1_555
O10 Te0 1.926926 1_555
O11 Te0 1.927009 1_555
