# generated using pymatgen
data_Nb5Ge3
_symmetry_space_group_name_H-M   'P 1'
_cell_length_a   6.73465000
_cell_length_b   6.73465000
_cell_length_c   7.67939625
_cell_angle_alpha   116.00746509
_cell_angle_beta   116.00746509
_cell_angle_gamma   90.00000000
_symmetry_Int_Tables_number   1
_chemical_formula_structural   Nb5Ge3
_chemical_formula_sum   'Nb10 Ge6'
_cell_volume   273.24717650
_cell_formula_units_Z   2
loop_
 _symmetry_equiv_pos_site_id
 _symmetry_equiv_pos_as_xyz
  1  'x, y, z'
loop_
 _atom_site_type_symbol
 _atom_site_label
 _atom_site_symmetry_multiplicity
 _atom_site_fract_x
 _atom_site_fract_y
 _atom_site_fract_z
 _atom_site_occupancy
  Nb  Nb0  1  0.50000000  0.50000000  0.00000000  1
  Nb  Nb1  1  0.00000000  0.00000000  0.00000000  1
  Nb  Nb2  1  0.98853200  0.81590700  0.30443800  1
  Nb  Nb3  1  0.31590700  0.48853200  0.30443800  1
  Nb  Nb4  1  0.81590700  0.31590700  0.30443800  1
  Nb  Nb5  1  0.48853200  0.98853200  0.30443800  1
  Nb  Nb6  1  0.01146800  0.18409300  0.69556200  1
  Nb  Nb7  1  0.68409300  0.51146800  0.69556200  1
  Nb  Nb8  1  0.18409300  0.68409300  0.69556200  1
  Nb  Nb9  1  0.51146800  0.01146800  0.69556200  1
  Ge  Ge0  1  0.75000000  0.75000000  0.50000000  1
  Ge  Ge1  1  0.25000000  0.25000000  0.50000000  1
  Ge  Ge2  1  0.63463400  0.86536600  0.00000000  1
  Ge  Ge3  1  0.36536600  0.13463400  0.00000000  1
  Ge  Ge4  1  0.86536600  0.36536600  0.00000000  1
  Ge  Ge5  1  0.13463400  0.63463400  0.00000000  1
loop_
_geom_bond_atom_site_label_1
_geom_bond_atom_site_label_2
_geom_bond_distance
_geom_bond_site_symmetry_2
Ge0 Nb3 2.780881 1_555
Ge0 Nb6 2.780881 1_665
Ge0 Nb8 2.780883 1_655
Ge0 Nb4 2.780883 1_555
Ge0 Nb9 2.780886 1_565
Ge0 Nb5 2.780886 1_555
Ge0 Nb7 2.780889 1_555
Ge0 Nb2 2.780889 1_555
Ge0 Nb0 3.012282 1_555
Ge0 Nb1 3.012282 1_666
Ge1 Nb2 2.780881 1_445
Ge1 Nb7 2.780881 1_555
Ge1 Nb8 2.780883 1_555
Ge1 Nb4 2.780883 1_455
Ge1 Nb9 2.780886 1_555
Ge1 Nb5 2.780886 1_545
Ge1 Nb6 2.780889 1_555
Ge1 Nb3 2.780889 1_555
Ge1 Nb0 3.012282 1_556
Ge1 Nb1 3.012282 1_555
Ge2 Ge3 2.564571 1_565
Ge2 Nb1 2.622354 1_665
Ge2 Nb0 2.622354 1_555
Ge2 Nb2 2.655851 1_555
Ge2 Nb7 2.655851 1_554
Ge2 Nb5 2.727391 1_555
Ge2 Nb9 2.727391 1_564
Ge2 Nb4 2.727396 1_565
Ge2 Nb8 2.727396 1_554
Ge3 Nb1 2.622354 1_555
Ge3 Nb0 2.622354 1_555
Ge3 Nb3 2.655851 1_555
Ge3 Nb6 2.655851 1_554
Ge3 Nb9 2.727391 1_554
Ge3 Nb5 2.727391 1_545
Ge3 Nb4 2.727396 1_555
Ge3 Nb8 2.727396 1_544
Ge4 Ge5 2.564571 1_655
Ge4 Nb1 2.622354 1_655
Ge4 Nb0 2.622354 1_555
Ge4 Nb4 2.655848 1_555
Ge4 Nb9 2.655855 1_554
Ge4 Nb6 2.727392 1_654
Ge4 Nb7 2.727392 1_554
Ge4 Nb3 2.727396 1_655
Ge4 Nb2 2.727396 1_555
Ge5 Nb1 2.622354 1_565
Ge5 Nb0 2.622354 1_555
Ge5 Nb8 2.655848 1_554
Ge5 Nb5 2.655855 1_555
Ge5 Nb2 2.727392 1_455
Ge5 Nb3 2.727392 1_555
Ge5 Nb6 2.727396 1_554
Ge5 Nb7 2.727396 1_454
