# generated using pymatgen
data_MgSn
_symmetry_space_group_name_H-M   'P 1'
_cell_length_a   13.18769882
_cell_length_b   13.18769882
_cell_length_c   14.95198727
_cell_angle_alpha   73.27429418
_cell_angle_beta   73.27429418
_cell_angle_gamma   29.05905972
_symmetry_Int_Tables_number   1
_chemical_formula_structural   MgSn
_chemical_formula_sum   'Mg24 Sn24'
_cell_volume   1205.92485582
_cell_formula_units_Z   24
loop_
 _symmetry_equiv_pos_site_id
 _symmetry_equiv_pos_as_xyz
  1  'x, y, z'
loop_
 _atom_site_type_symbol
 _atom_site_label
 _atom_site_symmetry_multiplicity
 _atom_site_fract_x
 _atom_site_fract_y
 _atom_site_fract_z
 _atom_site_occupancy
  Mg  Mg0_0  1  0.00006100  0.00006100  0.00200550  1
  Mg  Mg0_1  1  0.00006100  0.00006100  0.50200550  1
  Mg  Mg0_2  1  0.00006100  0.50006100  0.00200550  1
  Mg  Mg0_3  1  0.00006100  0.50006100  0.50200550  1
  Mg  Mg0_4  1  0.50006100  0.00006100  0.00200550  1
  Mg  Mg0_5  1  0.50006100  0.00006100  0.50200550  1
  Mg  Mg0_6  1  0.50006100  0.50006100  0.00200550  1
  Mg  Mg0_7  1  0.50006100  0.50006100  0.50200550  1
  Mg  Mg1_0  1  0.33387350  0.33387350  0.33152550  1
  Mg  Mg1_1  1  0.33387350  0.33387350  0.83152550  1
  Mg  Mg1_2  1  0.33387350  0.83387350  0.33152550  1
  Mg  Mg1_3  1  0.33387350  0.83387350  0.83152550  1
  Mg  Mg1_4  1  0.83387350  0.33387350  0.33152550  1
  Mg  Mg1_5  1  0.83387350  0.33387350  0.83152550  1
  Mg  Mg1_6  1  0.83387350  0.83387350  0.33152550  1
  Mg  Mg1_7  1  0.83387350  0.83387350  0.83152550  1
  Mg  Mg2_0  1  0.13816450  0.13816450  0.47096500  1
  Mg  Mg2_1  1  0.13816450  0.13816450  0.97096500  1
  Mg  Mg2_2  1  0.13816450  0.63816450  0.47096500  1
  Mg  Mg2_3  1  0.13816450  0.63816450  0.97096500  1
  Mg  Mg2_4  1  0.63816450  0.13816450  0.47096500  1
  Mg  Mg2_5  1  0.63816450  0.13816450  0.97096500  1
  Mg  Mg2_6  1  0.63816450  0.63816450  0.47096500  1
  Mg  Mg2_7  1  0.63816450  0.63816450  0.97096500  1
  Sn  Sn0_0  1  0.30739250  0.30739250  0.13299650  1
  Sn  Sn0_1  1  0.30739250  0.30739250  0.63299650  1
  Sn  Sn0_2  1  0.30739250  0.80739250  0.13299650  1
  Sn  Sn0_3  1  0.30739250  0.80739250  0.63299650  1
  Sn  Sn0_4  1  0.80739250  0.30739250  0.13299650  1
  Sn  Sn0_5  1  0.80739250  0.30739250  0.63299650  1
  Sn  Sn0_6  1  0.80739250  0.80739250  0.13299650  1
  Sn  Sn0_7  1  0.80739250  0.80739250  0.63299650  1
  Sn  Sn1_0  1  0.16523950  0.16523950  0.16484650  1
  Sn  Sn1_1  1  0.16523950  0.16523950  0.66484650  1
  Sn  Sn1_2  1  0.16523950  0.66523950  0.16484650  1
  Sn  Sn1_3  1  0.16523950  0.66523950  0.66484650  1
  Sn  Sn1_4  1  0.66523950  0.16523950  0.16484650  1
  Sn  Sn1_5  1  0.66523950  0.16523950  0.66484650  1
  Sn  Sn1_6  1  0.66523950  0.66523950  0.16484650  1
  Sn  Sn1_7  1  0.66523950  0.66523950  0.66484650  1
  Sn  Sn2_0  1  0.47193600  0.47193600  0.31432700  1
  Sn  Sn2_1  1  0.47193600  0.47193600  0.81432700  1
  Sn  Sn2_2  1  0.47193600  0.97193600  0.31432700  1
  Sn  Sn2_3  1  0.47193600  0.97193600  0.81432700  1
  Sn  Sn2_4  1  0.97193600  0.47193600  0.31432700  1
  Sn  Sn2_5  1  0.97193600  0.47193600  0.81432700  1
  Sn  Sn2_6  1  0.97193600  0.97193600  0.31432700  1
  Sn  Sn2_7  1  0.97193600  0.97193600  0.81432700  1
loop_
_geom_bond_atom_site_label_1
_geom_bond_atom_site_label_2
_geom_bond_distance
_geom_bond_site_symmetry_2
Mg0_0 Sn2_7 3.096508 1_444
Mg0_0 Sn1_4 3.196809 1_455
Mg0_0 Sn1_2 3.196809 1_545
Mg0_0 Sn0_2 3.227988 1_545
Mg0_0 Sn0_4 3.227988 1_455
Mg0_0 Mg1_5 3.251136 1_454
Mg0_0 Mg1_3 3.251136 1_544
Mg0_0 Mg0_6 3.308516 1_545
Mg0_0 Mg0_6 3.308516 1_455
Mg0_0 Mg2_1 3.416916 1_554
Mg0_0 Mg2_3 3.449987 1_544
Mg0_0 Mg2_5 3.449987 1_454
Mg0_1 Sn2_6 3.096508 1_445
Mg0_1 Sn1_5 3.196809 1_455
Mg0_1 Sn1_3 3.196809 1_545
Mg0_1 Sn0_5 3.227988 1_455
Mg0_1 Sn0_3 3.227988 1_545
Mg0_1 Mg1_2 3.251136 1_545
Mg0_1 Mg1_4 3.251136 1_455
Mg0_1 Mg0_7 3.308516 1_455
Mg0_1 Mg0_7 3.308516 1_545
Mg0_1 Mg2_0 3.416916 1_555
Mg0_1 Mg2_2 3.449987 1_545
Mg0_1 Mg2_4 3.449987 1_455
Mg0_2 Sn2_5 3.096508 1_454
Mg0_2 Sn1_6 3.196809 1_455
Mg0_2 Sn1_0 3.196809 1_555
Mg0_2 Sn0_6 3.227988 1_455
Mg0_2 Sn0_0 3.227988 1_555
Mg0_2 Mg1_7 3.251136 1_454
Mg0_2 Mg1_1 3.251136 1_554
Mg0_2 Mg0_4 3.308516 1_465
Mg0_2 Mg0_4 3.308516 1_555
Mg0_2 Mg2_3 3.416916 1_554
Mg0_2 Mg2_7 3.449987 1_454
Mg0_2 Mg2_1 3.449987 1_554
Mg0_3 Sn2_4 3.096508 1_455
Mg0_3 Sn1_7 3.196809 1_455
Mg0_3 Sn1_1 3.196809 1_555
Mg0_3 Sn0_7 3.227988 1_455
Mg0_3 Sn0_1 3.227988 1_555
Mg0_3 Mg1_6 3.251136 1_455
Mg0_3 Mg1_0 3.251136 1_555
Mg0_3 Mg0_5 3.308516 1_555
Mg0_3 Mg0_5 3.308516 1_465
Mg0_3 Mg2_2 3.416916 1_555
Mg0_3 Mg2_0 3.449987 1_555
Mg0_3 Mg2_6 3.449987 1_455
Mg0_4 Sn2_3 3.096508 1_544
Mg0_4 Sn1_6 3.196809 1_545
Mg0_4 Sn1_0 3.196809 1_555
Mg0_4 Sn0_6 3.227988 1_545
Mg0_4 Sn0_0 3.227988 1_555
Mg0_4 Mg1_7 3.251136 1_544
Mg0_4 Mg1_1 3.251136 1_554
Mg0_4 Mg2_5 3.416916 1_554
Mg0_4 Mg2_7 3.449987 1_544
Mg0_4 Mg2_1 3.449987 1_554
Mg0_5 Sn2_2 3.096508 1_545
Mg0_5 Sn1_7 3.196809 1_545
Mg0_5 Sn1_1 3.196809 1_555
Mg0_5 Sn0_7 3.227988 1_545
Mg0_5 Sn0_1 3.227988 1_555
Mg0_5 Mg1_0 3.251136 1_555
Mg0_5 Mg1_6 3.251136 1_545
Mg0_5 Mg2_4 3.416916 1_555
Mg0_5 Mg2_0 3.449987 1_555
Mg0_5 Mg2_6 3.449987 1_545
Mg0_6 Sn2_1 3.096508 1_554
Mg0_6 Sn1_2 3.196809 1_555
Mg0_6 Sn1_4 3.196809 1_555
Mg0_6 Sn0_4 3.227988 1_555
Mg0_6 Sn0_2 3.227988 1_555
Mg0_6 Mg1_3 3.251136 1_554
Mg0_6 Mg1_5 3.251136 1_554
Mg0_6 Mg2_7 3.416916 1_554
Mg0_6 Mg2_5 3.449987 1_554
Mg0_6 Mg2_3 3.449987 1_554
Mg0_7 Sn2_0 3.096508 1_555
Mg0_7 Sn1_5 3.196809 1_555
Mg0_7 Sn1_3 3.196809 1_555
Mg0_7 Sn0_5 3.227988 1_555
Mg0_7 Sn0_3 3.227988 1_555
Mg0_7 Mg1_2 3.251136 1_555
Mg0_7 Mg1_4 3.251136 1_555
Mg0_7 Mg2_6 3.416916 1_555
Mg0_7 Mg2_4 3.449987 1_555
Mg0_7 Mg2_2 3.449987 1_555
Mg1_0 Sn1_4 3.191367 1_555
Mg1_0 Sn1_2 3.191367 1_555
Mg1_0 Sn0_0 3.234482 1_555
Mg1_0 Mg2_4 3.274623 1_555
Mg1_0 Mg2_2 3.274623 1_555
Mg1_0 Mg1_6 3.308516 1_455
Mg1_0 Mg1_6 3.308516 1_545
Mg1_0 Sn2_4 3.377529 1_455
Mg1_0 Sn2_2 3.377529 1_545
Mg1_0 Sn2_0 3.457273 1_555
Mg1_1 Sn1_5 3.191367 1_555
Mg1_1 Sn1_3 3.191367 1_555
Mg1_1 Sn0_1 3.234482 1_555
Mg1_1 Mg2_3 3.274623 1_555
Mg1_1 Mg2_5 3.274623 1_555
Mg1_1 Mg1_7 3.308516 1_545
Mg1_1 Mg1_7 3.308516 1_455
Mg1_1 Sn2_5 3.377529 1_455
Mg1_1 Sn2_3 3.377529 1_545
Mg1_1 Sn2_1 3.457273 1_555
Mg1_2 Sn1_0 3.191367 1_565
Mg1_2 Sn1_6 3.191367 1_555
Mg1_2 Sn0_2 3.234482 1_555
Mg1_2 Mg2_0 3.274623 1_565
Mg1_2 Mg2_6 3.274623 1_555
Mg1_2 Mg1_4 3.308516 1_465
Mg1_2 Mg1_4 3.308516 1_555
Mg1_2 Sn2_6 3.377529 1_455
Mg1_2 Sn2_0 3.377529 1_555
Mg1_2 Sn2_2 3.457273 1_555
Mg1_3 Sn1_1 3.191367 1_565
Mg1_3 Sn1_7 3.191367 1_555
Mg1_3 Sn0_3 3.234482 1_555
Mg1_3 Mg2_1 3.274623 1_565
Mg1_3 Mg2_7 3.274623 1_555
Mg1_3 Mg1_5 3.308516 1_555
Mg1_3 Mg1_5 3.308516 1_465
Mg1_3 Sn2_7 3.377529 1_455
Mg1_3 Sn2_1 3.377529 1_555
Mg1_3 Sn2_3 3.457273 1_555
Mg1_4 Sn1_0 3.191367 1_655
Mg1_4 Sn1_6 3.191367 1_555
Mg1_4 Sn0_4 3.234482 1_555
Mg1_4 Mg2_0 3.274623 1_655
Mg1_4 Mg2_6 3.274623 1_555
Mg1_4 Sn2_6 3.377529 1_545
Mg1_4 Sn2_0 3.377529 1_555
Mg1_4 Sn2_4 3.457273 1_555
Mg1_5 Sn1_1 3.191367 1_655
Mg1_5 Sn1_7 3.191367 1_555
Mg1_5 Sn0_5 3.234482 1_555
Mg1_5 Mg2_1 3.274623 1_655
Mg1_5 Mg2_7 3.274623 1_555
Mg1_5 Sn2_7 3.377529 1_545
Mg1_5 Sn2_1 3.377529 1_555
Mg1_5 Sn2_5 3.457273 1_555
Mg1_6 Sn1_2 3.191367 1_655
Mg1_6 Sn1_4 3.191367 1_565
Mg1_6 Sn0_6 3.234482 1_555
Mg1_6 Mg2_2 3.274623 1_655
Mg1_6 Mg2_4 3.274623 1_565
Mg1_6 Sn2_4 3.377529 1_555
Mg1_6 Sn2_2 3.377529 1_555
Mg1_6 Sn2_6 3.457273 1_555
Mg1_7 Sn1_3 3.191367 1_655
Mg1_7 Sn1_5 3.191367 1_565
Mg1_7 Sn0_7 3.234482 1_555
Mg1_7 Mg2_5 3.274623 1_565
Mg1_7 Mg2_3 3.274623 1_655
Mg1_7 Sn2_3 3.377529 1_555
Mg1_7 Sn2_5 3.377529 1_555
Mg1_7 Sn2_7 3.457273 1_555
Mg2_0 Sn2_2 3.133355 1_545
Mg2_0 Sn2_4 3.133355 1_455
Mg2_0 Sn0_5 3.144549 1_455
Mg2_0 Sn0_3 3.144549 1_545
Mg2_0 Sn1_1 3.173815 1_555
Mg2_0 Mg2_6 3.308516 1_455
Mg2_0 Mg2_6 3.308516 1_545
Mg2_1 Sn2_5 3.133355 1_455
Mg2_1 Sn2_3 3.133355 1_545
Mg2_1 Sn0_4 3.144549 1_456
Mg2_1 Sn0_2 3.144549 1_546
Mg2_1 Sn1_0 3.173815 1_556
Mg2_1 Mg2_7 3.308516 1_455
Mg2_1 Mg2_7 3.308516 1_545
Mg2_2 Sn2_0 3.133355 1_555
Mg2_2 Sn2_6 3.133355 1_455
Mg2_2 Sn0_1 3.144549 1_555
Mg2_2 Sn0_7 3.144549 1_455
Mg2_2 Sn1_3 3.173815 1_555
Mg2_2 Mg2_4 3.308516 1_555
Mg2_2 Mg2_4 3.308516 1_465
Mg2_3 Sn2_1 3.133355 1_555
Mg2_3 Sn2_7 3.133355 1_455
Mg2_3 Sn0_0 3.144549 1_556
Mg2_3 Sn0_6 3.144549 1_456
Mg2_3 Sn1_2 3.173815 1_556
Mg2_3 Mg2_5 3.308516 1_465
Mg2_3 Mg2_5 3.308516 1_555
Mg2_4 Sn2_0 3.133355 1_555
Mg2_4 Sn2_6 3.133355 1_545
Mg2_4 Sn0_1 3.144549 1_555
Mg2_4 Sn0_7 3.144549 1_545
Mg2_4 Sn1_5 3.173815 1_555
Mg2_5 Sn2_1 3.133355 1_555
Mg2_5 Sn2_7 3.133355 1_545
Mg2_5 Sn0_0 3.144549 1_556
Mg2_5 Sn0_6 3.144549 1_546
Mg2_5 Sn1_4 3.173815 1_556
Mg2_6 Sn2_4 3.133355 1_555
Mg2_6 Sn2_2 3.133355 1_555
Mg2_6 Sn0_5 3.144549 1_555
Mg2_6 Sn0_3 3.144549 1_555
Mg2_6 Sn1_7 3.173815 1_555
Mg2_7 Sn2_5 3.133355 1_555
Mg2_7 Sn2_3 3.133355 1_555
Mg2_7 Sn0_4 3.144549 1_556
Mg2_7 Sn0_2 3.144549 1_556
Mg2_7 Sn1_6 3.173815 1_556
Sn0_0 Sn0_6 3.308516 1_455
Sn0_0 Sn0_6 3.308516 1_545
Sn0_0 Sn1_4 3.365264 1_555
Sn0_0 Sn1_2 3.365264 1_555
Sn0_0 Sn2_2 3.366096 1_545
Sn0_0 Sn2_4 3.366096 1_455
Sn0_0 Sn1_0 3.517365 1_555
Sn0_1 Sn0_7 3.308516 1_455
Sn0_1 Sn0_7 3.308516 1_545
Sn0_1 Sn1_5 3.365264 1_555
Sn0_1 Sn1_3 3.365264 1_555
Sn0_1 Sn2_3 3.366096 1_545
Sn0_1 Sn2_5 3.366096 1_455
Sn0_1 Sn1_1 3.517365 1_555
Sn0_2 Sn0_4 3.308516 1_555
Sn0_2 Sn0_4 3.308516 1_465
Sn0_2 Sn1_0 3.365264 1_565
Sn0_2 Sn1_6 3.365264 1_555
Sn0_2 Sn2_6 3.366096 1_455
Sn0_2 Sn2_0 3.366096 1_555
Sn0_2 Sn1_2 3.517365 1_555
Sn0_3 Sn0_5 3.308516 1_555
Sn0_3 Sn0_5 3.308516 1_465
Sn0_3 Sn1_1 3.365264 1_565
Sn0_3 Sn1_7 3.365264 1_555
Sn0_3 Sn2_7 3.366096 1_455
Sn0_3 Sn2_1 3.366096 1_555
Sn0_3 Sn1_3 3.517365 1_555
Sn0_4 Sn1_0 3.365264 1_655
Sn0_4 Sn1_6 3.365264 1_555
Sn0_4 Sn2_6 3.366096 1_545
Sn0_4 Sn2_0 3.366096 1_555
Sn0_4 Sn1_4 3.517365 1_555
Sn0_5 Sn1_1 3.365264 1_655
Sn0_5 Sn1_7 3.365264 1_555
Sn0_5 Sn2_7 3.366096 1_545
Sn0_5 Sn2_1 3.366096 1_555
Sn0_5 Sn1_5 3.517365 1_555
Sn0_6 Sn1_4 3.365264 1_565
Sn0_6 Sn1_2 3.365264 1_655
Sn0_6 Sn2_4 3.366096 1_555
Sn0_6 Sn2_2 3.366096 1_555
Sn0_6 Sn1_6 3.517365 1_555
Sn0_7 Sn1_3 3.365264 1_655
Sn0_7 Sn1_5 3.365264 1_565
Sn0_7 Sn2_5 3.366096 1_555
Sn0_7 Sn2_3 3.366096 1_555
Sn0_7 Sn1_7 3.517365 1_555
Sn1_0 Sn1_6 3.308516 1_545
Sn1_0 Sn1_6 3.308516 1_455
Sn1_0 Sn2_2 3.427990 1_545
Sn1_0 Sn2_4 3.427990 1_455
Sn1_1 Sn1_7 3.308516 1_455
Sn1_1 Sn1_7 3.308516 1_545
Sn1_1 Sn2_5 3.427990 1_455
Sn1_1 Sn2_3 3.427990 1_545
Sn1_2 Sn1_4 3.308516 1_465
Sn1_2 Sn1_4 3.308516 1_555
Sn1_2 Sn2_0 3.427990 1_555
Sn1_2 Sn2_6 3.427990 1_455
Sn1_3 Sn1_5 3.308516 1_555
Sn1_3 Sn1_5 3.308516 1_465
Sn1_3 Sn2_1 3.427990 1_555
Sn1_3 Sn2_7 3.427990 1_455
Sn1_4 Sn2_0 3.427990 1_555
Sn1_4 Sn2_6 3.427990 1_545
Sn1_5 Sn2_1 3.427990 1_555
Sn1_5 Sn2_7 3.427990 1_545
Sn1_6 Sn2_4 3.427990 1_555
Sn1_6 Sn2_2 3.427990 1_555
Sn1_7 Sn2_5 3.427990 1_555
Sn1_7 Sn2_3 3.427990 1_555
Sn2_0 Sn2_6 3.308516 1_545
Sn2_0 Sn2_6 3.308516 1_455
Sn2_1 Sn2_7 3.308516 1_545
Sn2_1 Sn2_7 3.308516 1_455
Sn2_2 Sn2_4 3.308516 1_465
Sn2_2 Sn2_4 3.308516 1_555
Sn2_3 Sn2_5 3.308516 1_465
Sn2_3 Sn2_5 3.308516 1_555
