# generated using pymatgen
data_CeDyFe4
_symmetry_space_group_name_H-M   'P 1'
_cell_length_a   5.18672641
_cell_length_b   5.18672641
_cell_length_c   5.18672641
_cell_angle_alpha   90.00000000
_cell_angle_beta   60.00000000
_cell_angle_gamma   120.00000000
_symmetry_Int_Tables_number   1
_chemical_formula_structural   CeDyFe4
_chemical_formula_sum   'Ce1 Dy1 Fe4'
_cell_volume   98.66543263
_cell_formula_units_Z   1
loop_
 _symmetry_equiv_pos_site_id
 _symmetry_equiv_pos_as_xyz
  1  'x, y, z'
loop_
 _atom_site_type_symbol
 _atom_site_label
 _atom_site_symmetry_multiplicity
 _atom_site_fract_x
 _atom_site_fract_y
 _atom_site_fract_z
 _atom_site_occupancy
  Ce  Ce0  1  0.50000000  0.75000000  0.75000000  1
  Dy  Dy0  1  0.00000000  0.00000000  0.00000000  1
  Fe  Fe0  1  0.75048932  0.37524366  0.87426702  1
  Fe  Fe1  1  0.24951068  0.37524366  0.37524366  1
  Fe  Fe2  1  0.24951068  0.87426702  0.37524366  1
  Fe  Fe3  1  0.75048932  0.37524366  0.37524366  1
loop_
_geom_bond_atom_site_label_1
_geom_bond_atom_site_label_2
_geom_bond_distance
_geom_bond_site_symmetry_2
Ce0 Fe1 3.040446 1_556
Ce0 Fe3 3.040446 1_565
Ce0 Fe1 3.040446 1_665
Ce0 Fe3 3.040446 1_456
Ce0 Fe2 3.040446 1_556
Ce0 Fe0 3.040446 1_455
Ce0 Fe2 3.040446 1_655
Ce0 Fe0 3.040446 1_565
Ce0 Fe3 3.040455 1_555
Ce0 Fe2 3.040455 1_555
Ce0 Fe0 3.040455 1_555
Ce0 Fe1 3.040455 1_555
Ce0 Dy0 3.176208 1_566
Ce0 Dy0 3.176208 1_556
Ce0 Dy0 3.176208 1_665
Ce0 Dy0 3.176208 1_666
Dy0 Fe2 3.041524 1_545
Dy0 Fe0 3.041524 1_454
Dy0 Fe3 3.041524 1_455
Dy0 Fe1 3.041524 1_555
Dy0 Fe0 3.041533 1_554
Dy0 Fe2 3.041533 1_445
Dy0 Fe1 3.041533 1_445
Dy0 Fe3 3.041533 1_554
Dy0 Fe2 3.041533 1_544
Dy0 Fe0 3.041533 1_444
Dy0 Fe1 3.041533 1_554
Dy0 Fe3 3.041533 1_445
Fe0 Fe1 2.588292 1_655
Fe0 Fe3 2.588298 1_555
Fe0 Fe2 2.588298 1_655
Fe0 Fe3 2.598429 1_556
Fe0 Fe2 2.598429 1_546
Fe0 Fe1 2.598434 1_556
Fe1 Fe3 2.588287 1_455
Fe1 Fe2 2.588298 1_555
Fe1 Fe2 2.598429 1_545
Fe1 Fe3 2.598439 1_555
Fe2 Fe3 2.588292 1_455
Fe2 Fe3 2.598434 1_565
