# generated using pymatgen
data_Ca2NdTaO6
_symmetry_space_group_name_H-M   'P 1'
_cell_length_a   5.65928500
_cell_length_b   5.93604700
_cell_length_c   8.20816438
_cell_angle_alpha   90.00000000
_cell_angle_beta   90.21614144
_cell_angle_gamma   90.00000000
_symmetry_Int_Tables_number   1
_chemical_formula_structural   Ca2NdTaO6
_chemical_formula_sum   'Ca4 Nd2 Ta2 O12'
_cell_volume   275.74132071
_cell_formula_units_Z   2
loop_
 _symmetry_equiv_pos_site_id
 _symmetry_equiv_pos_as_xyz
  1  'x, y, z'
loop_
 _atom_site_type_symbol
 _atom_site_label
 _atom_site_symmetry_multiplicity
 _atom_site_fract_x
 _atom_site_fract_y
 _atom_site_fract_z
 _atom_site_occupancy
  Ca  Ca0  1  0.99931100  0.99704700  0.49953700  1
  Ca  Ca1  1  0.49931100  0.50295300  0.99953700  1
  Ca  Ca2  1  0.51402200  0.94539600  0.24481100  1
  Ca  Ca3  1  0.01402200  0.55460400  0.74481100  1
  Nd  Nd0  1  0.48497500  0.05664600  0.75550800  1
  Nd  Nd1  1  0.98497500  0.44335400  0.25550800  1
  Ta  Ta0  1  0.49981300  0.50102200  0.50136000  1
  Ta  Ta1  1  0.99981300  0.99897800  0.00136000  1
  O  O0  1  0.37962800  0.55683400  0.27074700  1
  O  O1  1  0.87962800  0.94316600  0.77074700  1
  O  O2  1  0.61586100  0.44246000  0.72931100  1
  O  O3  1  0.11586100  0.05754000  0.22931100  1
  O  O4  1  0.83203800  0.71405400  0.07212900  1
  O  O5  1  0.33203800  0.78594600  0.57212900  1
  O  O6  1  0.17214100  0.28111100  0.92858600  1
  O  O7  1  0.67214100  0.21888900  0.42858600  1
  O  O8  1  0.79209300  0.67501100  0.44616100  1
  O  O9  1  0.29209300  0.82498900  0.94616100  1
  O  O10  1  0.21011800  0.32215100  0.55184900  1
  O  O11  1  0.71011800  0.17784900  0.05184900  1
loop_
_geom_bond_atom_site_label_1
_geom_bond_atom_site_label_2
_geom_bond_distance
_geom_bond_site_symmetry_2
Ca0 O8 2.284208 1_555
Ca0 O10 2.308257 1_665
Ca0 O5 2.337203 1_655
Ca0 O7 2.343798 1_565
Ca0 O3 2.344105 1_665
Ca0 O1 2.351195 1_555
Ca1 O9 2.284208 1_555
Ca1 O11 2.308257 1_556
Ca1 O4 2.337203 1_556
Ca1 O6 2.343798 1_555
Ca1 O2 2.344105 1_555
Ca1 O0 2.351195 1_556
Ca2 O3 2.352565 1_565
Ca2 O11 2.378540 1_565
Ca2 O7 2.387811 1_565
Ca2 O0 2.438249 1_555
Ca2 O4 2.674544 1_555
Ca2 O8 2.786468 1_555
Ca2 O9 2.841526 1_554
Ca2 O5 3.032439 1_555
Ca3 O2 2.352565 1_455
Ca3 O10 2.378540 1_555
Ca3 O6 2.387811 1_555
Ca3 O1 2.438249 1_455
Ca3 O5 2.674544 1_555
Ca3 O9 2.786468 1_555
Ca3 O8 2.841526 1_455
Ca3 O4 3.032439 1_456
Nd0 O1 2.335727 1_545
Nd0 O9 2.354643 1_545
Nd0 O5 2.363687 1_545
Nd0 O2 2.416851 1_555
Nd0 O6 2.635714 1_555
Nd0 O10 2.770983 1_555
Nd0 O11 2.834493 1_556
Nd0 O7 3.044951 1_555
Nd1 O0 2.335727 1_655
Nd1 O8 2.354643 1_555
Nd1 O4 2.363687 1_555
Nd1 O3 2.416851 1_655
Nd1 O7 2.635714 1_555
Nd1 O11 2.770983 1_555
Nd1 O10 2.834493 1_655
Nd1 O6 3.044951 1_654
O0 Ta0 2.036117 1_555
O1 Ta1 2.036117 1_556
O2 Ta0 2.010909 1_555
O3 Ta1 2.010909 1_445
O4 Ta1 2.025755 1_555
O5 Ta0 2.025755 1_555
O6 Ta1 2.029072 1_446
O7 Ta0 2.029072 1_555
O8 Ta0 2.003412 1_555
O9 Ta1 2.003412 1_456
O10 Ta0 1.998027 1_555
O11 Ta1 1.998027 1_545
