# generated using pymatgen
data_Na4Al3Si7(HO3)8
_symmetry_space_group_name_H-M   'P 1'
_cell_length_a   6.64436200
_cell_length_b   9.89953602
_cell_length_c   9.96953405
_cell_angle_alpha   84.11066460
_cell_angle_beta   109.40761820
_cell_angle_gamma   109.48724163
_symmetry_Int_Tables_number   1
_chemical_formula_structural   Na4Al3Si7(HO3)8
_chemical_formula_sum   'Na4 Al3 Si7 H8 O24'
_cell_volume   583.04086694
_cell_formula_units_Z   1
loop_
 _symmetry_equiv_pos_site_id
 _symmetry_equiv_pos_as_xyz
  1  'x, y, z'
loop_
 _atom_site_type_symbol
 _atom_site_label
 _atom_site_symmetry_multiplicity
 _atom_site_fract_x
 _atom_site_fract_y
 _atom_site_fract_z
 _atom_site_occupancy
  Na  Na0  1  0.55726700  0.93471400  0.44564500  1
  Na  Na1  1  0.18962100  0.05794400  0.56276400  1
  Na  Na2  1  0.37466100  0.56198300  0.93932500  1
  Na  Na3  1  0.87569200  0.44286000  0.05832700  1
  Al  Al0  1  0.31785000  0.57604400  0.31338000  1
  Al  Al1  1  0.42264300  0.41969400  0.68613500  1
  Al  Al2  1  0.48920900  0.92357200  0.81281800  1
  Si  Si0  1  0.32192400  0.81201400  0.07806000  1
  Si  Si1  1  0.42968000  0.19031500  0.92194800  1
  Si  Si2  1  0.26136900  0.68862800  0.57950300  1
  Si  Si3  1  0.99253900  0.31037000  0.41631700  1
  Si  Si4  1  0.75252400  0.49721300  0.49982000  1
  Si  Si5  1  0.00146400  0.00121300  0.00010900  1
  Si  Si6  1  0.74554100  0.07744700  0.18171200  1
  H  H0  1  0.71038700  0.60605500  0.20802000  1
  H  H1  1  0.89456300  0.39293100  0.79194700  1
  H  H2  1  0.85541100  0.89361100  0.70640600  1
  H  H3  1  0.26048800  0.10947900  0.29480400  1
  H  H4  1  0.85407600  0.70501000  0.11381100  1
  H  H5  1  0.03656600  0.29635500  0.88869100  1
  H  H6  1  0.89983900  0.79571800  0.60916000  1
  H  H7  1  0.49674900  0.20621500  0.39262300  1
  O  O0  1  0.26605500  0.65080000  0.14147500  1
  O  O1  1  0.47621400  0.35446000  0.86430600  1
  O  O2  1  0.36022800  0.85436500  0.63809600  1
  O  O3  1  0.86017900  0.14489500  0.34496400  1
  O  O4  1  0.57708500  0.54403000  0.36132700  1
  O  O5  1  0.66547200  0.44940500  0.63714300  1
  O  O6  1  0.78220200  0.95251500  0.86019100  1
  O  O7  1  0.94435700  0.04802000  0.13589300  1
  O  O8  1  0.54749400  0.92609000  0.19322800  1
  O  O9  1  0.42159900  0.08331000  0.80611900  1
  O  O10  1  0.36722700  0.58072200  0.69482500  1
  O  O11  1  0.08947500  0.41608600  0.30065100  1
  O  O12  1  0.10361800  0.86756000  0.05785500  1
  O  O13  1  0.19386900  0.14293300  0.96448500  1
  O  O14  1  0.98474600  0.63583300  0.54726300  1
  O  O15  1  0.79802600  0.35720700  0.45087400  1
  O  O16  1  0.73774100  0.61254800  0.11559500  1
  O  O17  1  0.00900300  0.38870000  0.88445500  1
  O  O18  1  0.87541500  0.88779400  0.61344500  1
  O  O19  1  0.37737200  0.11312500  0.38730200  1
  O  O20  1  0.31904600  0.69542900  0.43194800  1
  O  O21  1  0.18636100  0.29778800  0.56383500  1
  O  O22  1  0.36919000  0.80471400  0.93026700  1
  O  O23  1  0.64036400  0.19228400  0.07313400  1
loop_
_geom_bond_atom_site_label_1
_geom_bond_atom_site_label_2
_geom_bond_distance
_geom_bond_site_symmetry_2
Na0 O20 2.357202 1_555
Na0 O19 2.371097 1_565
Na0 O18 2.372413 1_555
Na0 O8 2.505188 1_555
Na0 O2 2.586360 1_555
Na0 O3 2.739987 1_565
Na1 O18 2.373007 1_445
Na1 O21 2.382806 1_555
Na1 O9 2.388838 1_555
Na1 O19 2.390409 1_555
Na1 O2 2.560949 1_545
Na1 O3 2.821708 1_455
Na2 O17 2.381877 1_555
Na2 O16 2.390820 1_556
Na2 O22 2.407299 1_555
Na2 O10 2.410770 1_555
Na2 O1 2.609730 1_555
Na2 O0 2.666244 1_556
Na3 O16 2.357933 1_555
Na3 O17 2.367441 1_654
Na3 O11 2.400736 1_655
Na3 O23 2.471921 1_555
Na3 O1 2.634030 1_554
Na3 O0 2.647830 1_655
Al0 O20 1.751660 1_555
Al0 O4 1.755483 1_555
Al0 O0 1.766620 1_555
Al0 O11 1.770944 1_555
Al1 O5 1.762353 1_555
Al1 O10 1.767879 1_555
Al1 O21 1.781433 1_555
Al1 O1 1.787930 1_555
Al2 O2 1.760433 1_555
Al2 O22 1.761594 1_555
Al2 O9 1.771785 1_565
Al2 O6 1.771887 1_555
H0 O16 0.988713 1_555
H1 O17 0.988826 1_655
H2 O18 0.988848 1_555
H3 O19 0.983364 1_555
H4 O16 0.984567 1_555
H5 O17 0.984720 1_555
H6 O18 0.985038 1_555
H7 O19 0.987717 1_555
O0 Si0 1.624246 1_555
O1 Si1 1.630205 1_555
O2 Si2 1.639294 1_555
O3 Si6 1.653703 1_555
O3 Si3 1.680803 1_555
O4 Si4 1.624654 1_555
O5 Si4 1.625876 1_555
O6 Si5 1.618487 1_666
O7 Si6 1.650353 1_555
O7 Si5 1.666908 1_655
O8 Si6 1.655131 1_565
O8 Si0 1.683187 1_555
O9 Si1 1.621834 1_555
O10 Si2 1.633854 1_555
O11 Si3 1.623580 1_455
O12 Si5 1.651032 1_565
O12 Si0 1.661973 1_555
O13 Si5 1.652755 1_556
O13 Si1 1.662881 1_555
O14 Si4 1.650179 1_555
O14 Si2 1.660001 1_655
O15 Si3 1.653032 1_555
O15 Si4 1.663402 1_555
O20 Si2 1.628653 1_555
O21 Si3 1.627163 1_455
O22 Si0 1.618442 1_556
O23 Si6 1.651453 1_555
O23 Si1 1.678516 1_554
