# generated using pymatgen
data_La3(IO3)13
_symmetry_space_group_name_H-M   'P 1'
_cell_length_a   13.76525928
_cell_length_b   13.76525928
_cell_length_c   13.76525944
_cell_angle_alpha   109.29745848
_cell_angle_beta   109.29745848
_cell_angle_gamma   109.29745664
_symmetry_Int_Tables_number   1
_chemical_formula_structural   La3(IO3)13
_chemical_formula_sum   'La6 I26 O78'
_cell_volume   2020.66423949
_cell_formula_units_Z   2
loop_
 _symmetry_equiv_pos_site_id
 _symmetry_equiv_pos_as_xyz
  1  'x, y, z'
loop_
 _atom_site_type_symbol
 _atom_site_label
 _atom_site_symmetry_multiplicity
 _atom_site_fract_x
 _atom_site_fract_y
 _atom_site_fract_z
 _atom_site_occupancy
  La  La0  1  0.09383300  0.86475000  0.73855900  1
  La  La1  1  0.73855900  0.09383300  0.86475000  1
  La  La2  1  0.86475000  0.73855900  0.09383300  1
  La  La3  1  0.23855900  0.36475000  0.59383300  1
  La  La4  1  0.59383300  0.23855900  0.36475000  1
  La  La5  1  0.36475000  0.59383300  0.23855900  1
  I  I0  1  0.91691600  0.91691600  0.91691600  1
  I  I1  1  0.41691600  0.41691600  0.41691600  1
  I  I2  1  0.87107700  0.97905900  0.63841900  1
  I  I3  1  0.63841900  0.87107700  0.97905900  1
  I  I4  1  0.97905900  0.63841900  0.87107700  1
  I  I5  1  0.13841900  0.47905900  0.37107700  1
  I  I6  1  0.37107700  0.13841900  0.47905900  1
  I  I7  1  0.47905900  0.37107700  0.13841900  1
  I  I8  1  0.25577400  0.20296200  0.79840700  1
  I  I9  1  0.79840700  0.25577400  0.20296200  1
  I  I10  1  0.20296200  0.79840700  0.25577400  1
  I  I11  1  0.29840700  0.70296200  0.75577400  1
  I  I12  1  0.75577400  0.29840700  0.70296200  1
  I  I13  1  0.70296200  0.75577400  0.29840700  1
  I  I14  1  0.99453200  0.70478200  0.39175000  1
  I  I15  1  0.39175000  0.99453200  0.70478200  1
  I  I16  1  0.70478200  0.39175000  0.99453200  1
  I  I17  1  0.89175000  0.20478200  0.49453200  1
  I  I18  1  0.49453200  0.89175000  0.20478200  1
  I  I19  1  0.20478200  0.49453200  0.89175000  1
  I  I20  1  0.91148500  0.51073700  0.53443300  1
  I  I21  1  0.53443300  0.91148500  0.51073700  1
  I  I22  1  0.51073700  0.53443300  0.91148500  1
  I  I23  1  0.03443300  0.01073700  0.41148500  1
  I  I24  1  0.41148500  0.03443300  0.01073700  1
  I  I25  1  0.01073700  0.41148500  0.03443300  1
  O  O0  1  0.04621900  0.98403800  0.90131400  1
  O  O1  1  0.90131400  0.04621900  0.98403800  1
  O  O2  1  0.98403800  0.90131400  0.04621900  1
  O  O3  1  0.40131400  0.48403800  0.54621900  1
  O  O4  1  0.54621900  0.40131400  0.48403800  1
  O  O5  1  0.48403800  0.54621900  0.40131400  1
  O  O6  1  0.90310700  0.86260500  0.64673800  1
  O  O7  1  0.64673800  0.90310700  0.86260500  1
  O  O8  1  0.86260500  0.64673800  0.90310700  1
  O  O9  1  0.14673800  0.36260500  0.40310700  1
  O  O10  1  0.40310700  0.14673800  0.36260500  1
  O  O11  1  0.36260500  0.40310700  0.14673800  1
  O  O12  1  0.82568600  0.00423400  0.75123800  1
  O  O13  1  0.75123800  0.82568600  0.00423400  1
  O  O14  1  0.00423400  0.75123800  0.82568600  1
  O  O15  1  0.25123800  0.50423400  0.32568600  1
  O  O16  1  0.32568600  0.25123800  0.50423400  1
  O  O17  1  0.50423400  0.32568600  0.25123800  1
  O  O18  1  0.72097800  0.88484300  0.50799800  1
  O  O19  1  0.50799800  0.72097800  0.88484300  1
  O  O20  1  0.88484300  0.50799800  0.72097800  1
  O  O21  1  0.00799800  0.38484300  0.22097800  1
  O  O22  1  0.22097700  0.00799800  0.38484300  1
  O  O23  1  0.38484300  0.22097800  0.00799800  1
  O  O24  1  0.13027500  0.05782100  0.74141300  1
  O  O25  1  0.74141300  0.13027500  0.05782100  1
  O  O26  1  0.05782100  0.74141300  0.13027500  1
  O  O27  1  0.24141300  0.55782100  0.63027500  1
  O  O28  1  0.63027500  0.24141300  0.55782100  1
  O  O29  1  0.55782100  0.63027500  0.24141300  1
  O  O30  1  0.20527800  0.21234800  0.66168100  1
  O  O31  1  0.66168100  0.20527800  0.21234800  1
  O  O32  1  0.21234800  0.66168100  0.20527800  1
  O  O33  1  0.16168100  0.71234800  0.70527800  1
  O  O34  1  0.70527800  0.16168100  0.71234800  1
  O  O35  1  0.71234800  0.70527800  0.16168100  1
  O  O36  1  0.21132500  0.29751000  0.87895400  1
  O  O37  1  0.87895400  0.21132500  0.29751000  1
  O  O38  1  0.29751000  0.87895400  0.21132500  1
  O  O39  1  0.37895400  0.79751000  0.71132500  1
  O  O40  1  0.71132500  0.37895400  0.79751000  1
  O  O41  1  0.79751000  0.71132500  0.37895400  1
  O  O42  1  0.09399800  0.83323700  0.54036600  1
  O  O43  1  0.54036600  0.09399800  0.83323700  1
  O  O44  1  0.83323700  0.54036600  0.09399800  1
  O  O45  1  0.04036600  0.33323700  0.59399800  1
  O  O46  1  0.59399800  0.04036600  0.33323700  1
  O  O47  1  0.33323700  0.59399800  0.04036600  1
  O  O48  1  0.10234500  0.66990500  0.35988900  1
  O  O49  1  0.35988900  0.10234500  0.66990500  1
  O  O50  1  0.66990500  0.35988900  0.10234500  1
  O  O51  1  0.85988900  0.16990500  0.60234500  1
  O  O52  1  0.60234500  0.85988900  0.16990500  1
  O  O53  1  0.16990500  0.60234500  0.85988900  1
  O  O54  1  0.98323300  0.78792600  0.31093400  1
  O  O55  1  0.31093400  0.98323300  0.78792600  1
  O  O56  1  0.78792600  0.31093400  0.98323300  1
  O  O57  1  0.81093400  0.28792600  0.48323300  1
  O  O58  1  0.48323300  0.81093400  0.28792600  1
  O  O59  1  0.28792600  0.48323300  0.81093400  1
  O  O60  1  0.93816900  0.66060600  0.56708700  1
  O  O61  1  0.56708700  0.93816900  0.66060600  1
  O  O62  1  0.66060600  0.56708700  0.93816900  1
  O  O63  1  0.06708700  0.16060600  0.43816900  1
  O  O64  1  0.43816900  0.06708700  0.16060600  1
  O  O65  1  0.16060600  0.43816900  0.06708700  1
  O  O66  1  0.75094600  0.44344300  0.45099800  1
  O  O67  1  0.45099800  0.75094600  0.44344300  1
  O  O68  1  0.44344300  0.45099800  0.75094600  1
  O  O69  1  0.95099800  0.94344300  0.25094600  1
  O  O70  1  0.25094600  0.95099800  0.94344300  1
  O  O71  1  0.94344300  0.25094600  0.95099800  1
  O  O72  1  0.94240500  0.47723900  0.40941600  1
  O  O73  1  0.40941600  0.94240500  0.47723900  1
  O  O74  1  0.47723900  0.40941600  0.94240500  1
  O  O75  1  0.90941600  0.97723900  0.44240500  1
  O  O76  1  0.44240500  0.90941600  0.97723900  1
  O  O77  1  0.97723900  0.44240500  0.90941600  1
loop_
_geom_bond_atom_site_label_1
_geom_bond_atom_site_label_2
_geom_bond_distance
_geom_bond_site_symmetry_2
La0 O70 2.469672 1_555
La0 O6 2.494386 1_455
La0 O14 2.518639 1_555
La0 O60 2.520469 1_455
La0 O24 2.520558 1_565
La0 O33 2.534890 1_555
La0 O55 2.599306 1_555
La0 O42 2.617955 1_555
La0 O0 2.719460 1_555
La1 O71 2.469672 1_555
La1 O7 2.494386 1_545
La1 O12 2.518639 1_555
La1 O61 2.520469 1_545
La1 O25 2.520558 1_556
La1 O34 2.534890 1_555
La1 O56 2.599306 1_555
La1 O43 2.617955 1_555
La1 O1 2.719460 1_555
La2 O69 2.469672 1_555
La2 O8 2.494386 1_554
La2 O13 2.518639 1_555
La2 O62 2.520469 1_554
La2 O26 2.520558 1_655
La2 O35 2.534890 1_555
La2 O54 2.599306 1_555
La2 O44 2.617955 1_555
La2 O2 2.719460 1_555
La3 O68 2.469672 1_555
La3 O9 2.494386 1_555
La3 O16 2.518639 1_555
La3 O63 2.520469 1_555
La3 O27 2.520558 1_555
La3 O30 2.534890 1_555
La3 O59 2.599306 1_555
La3 O45 2.617955 1_555
La3 O3 2.719460 1_555
La4 O66 2.469672 1_555
La4 O10 2.494386 1_555
La4 O17 2.518639 1_555
La4 O64 2.520469 1_555
La4 O28 2.520558 1_555
La4 O31 2.534890 1_555
La4 O57 2.599306 1_555
La4 O46 2.617955 1_555
La4 O4 2.719460 1_555
La5 O67 2.469672 1_555
La5 O11 2.494386 1_555
La5 O15 2.518639 1_555
La5 O65 2.520469 1_555
La5 O29 2.520558 1_555
La5 O32 2.534890 1_555
La5 O58 2.599306 1_555
La5 O47 2.617955 1_555
La5 O5 2.719460 1_555
I0 O1 1.834306 1_565
I0 O2 1.834306 1_556
I0 O0 1.834306 1_655
I1 O4 1.834306 1_555
I1 O3 1.834306 1_555
I1 O5 1.834306 1_555
I2 O6 1.825452 1_555
I2 O12 1.830571 1_565
I2 O18 1.847258 1_555
I3 O7 1.825452 1_555
I3 O13 1.830571 1_556
I3 O19 1.847258 1_555
I4 O8 1.825452 1_555
I4 O14 1.830571 1_655
I4 O20 1.847258 1_555
I5 O9 1.825452 1_555
I5 O15 1.830571 1_555
I5 O21 1.847258 1_555
I6 O10 1.825452 1_555
I6 O16 1.830571 1_555
I6 O22 1.847266 1_555
I7 O11 1.825452 1_555
I7 O17 1.830571 1_555
I7 O23 1.847258 1_555
I8 O36 1.821669 1_555
I8 O24 1.838067 1_555
I8 O30 1.843217 1_555
I9 O37 1.821669 1_555
I9 O25 1.838067 1_555
I9 O31 1.843217 1_555
I10 O38 1.821669 1_555
I10 O26 1.838067 1_555
I10 O32 1.843217 1_555
I11 O39 1.821669 1_555
I11 O27 1.838067 1_555
I11 O33 1.843217 1_555
I12 O40 1.821669 1_555
I12 O28 1.838067 1_555
I12 O34 1.843217 1_555
I13 O41 1.821669 1_555
I13 O29 1.838067 1_555
I13 O35 1.843217 1_555
I14 O42 1.828660 1_655
I14 O48 1.840450 1_655
I14 O54 1.848359 1_555
I15 O43 1.828660 1_565
I15 O49 1.840450 1_565
I15 O55 1.848359 1_555
I16 O44 1.828660 1_556
I16 O50 1.840450 1_556
I16 O56 1.848359 1_555
I17 O45 1.828660 1_655
I17 O51 1.840450 1_555
I17 O57 1.848359 1_555
I18 O46 1.828660 1_565
I18 O52 1.840450 1_555
I18 O58 1.848359 1_555
I19 O47 1.828660 1_556
I19 O53 1.840450 1_555
I19 O59 1.848359 1_555
I20 O66 1.823998 1_555
I20 O60 1.835761 1_555
I20 O72 1.855962 1_555
I20 O57 2.634394 1_555
I21 O67 1.823998 1_555
I21 O61 1.835761 1_555
I21 O73 1.855962 1_555
I21 O58 2.634394 1_555
I22 O68 1.823998 1_555
I22 O62 1.835761 1_555
I22 O74 1.855962 1_555
I22 O59 2.634394 1_555
I23 O69 1.823998 1_445
I23 O63 1.835761 1_555
I23 O75 1.855962 1_445
I23 O54 2.634394 1_445
I24 O70 1.823998 1_544
I24 O64 1.835761 1_555
I24 O76 1.855962 1_544
I24 O55 2.634394 1_544
I25 O71 1.823998 1_454
I25 O65 1.835761 1_555
I25 O77 1.855962 1_454
I25 O56 2.634394 1_454
