# generated using pymatgen
data_Er2MgSe4
_symmetry_space_group_name_H-M   'P 1'
_cell_length_a   3.98209200
_cell_length_b   13.08490700
_cell_length_c   13.92417400
_cell_angle_alpha   90.00000000
_cell_angle_beta   90.00000000
_cell_angle_gamma   90.00000000
_symmetry_Int_Tables_number   1
_chemical_formula_structural   Er2MgSe4
_chemical_formula_sum   'Er8 Mg4 Se16'
_cell_volume   725.52331205
_cell_formula_units_Z   4
loop_
 _symmetry_equiv_pos_site_id
 _symmetry_equiv_pos_as_xyz
  1  'x, y, z'
loop_
 _atom_site_type_symbol
 _atom_site_label
 _atom_site_symmetry_multiplicity
 _atom_site_fract_x
 _atom_site_fract_y
 _atom_site_fract_z
 _atom_site_occupancy
  Er  Er0  1  0.25000000  0.11309800  0.07723500  1
  Er  Er1  1  0.75000000  0.88690200  0.92276500  1
  Er  Er2  1  0.75000000  0.38690200  0.57723500  1
  Er  Er3  1  0.25000000  0.61309800  0.42276500  1
  Er  Er4  1  0.25000000  0.14446300  0.70272000  1
  Er  Er5  1  0.75000000  0.85553700  0.29728000  1
  Er  Er6  1  0.75000000  0.35553700  0.20272000  1
  Er  Er7  1  0.25000000  0.64446300  0.79728000  1
  Mg  Mg0  1  0.75000000  0.11716700  0.43891000  1
  Mg  Mg1  1  0.25000000  0.88283300  0.56109000  1
  Mg  Mg2  1  0.25000000  0.38283300  0.93891000  1
  Mg  Mg3  1  0.75000000  0.61716700  0.06109000  1
  Se  Se0  1  0.75000000  0.01677800  0.61232100  1
  Se  Se1  1  0.25000000  0.98322200  0.38767900  1
  Se  Se2  1  0.25000000  0.48322200  0.11232100  1
  Se  Se3  1  0.75000000  0.51677800  0.88767900  1
  Se  Se4  1  0.25000000  0.03270500  0.88147100  1
  Se  Se5  1  0.75000000  0.96729500  0.11852900  1
  Se  Se6  1  0.75000000  0.46729500  0.38147100  1
  Se  Se7  1  0.25000000  0.53270500  0.61852900  1
  Se  Se8  1  0.25000000  0.21810200  0.25482400  1
  Se  Se9  1  0.75000000  0.78189800  0.74517600  1
  Se  Se10  1  0.75000000  0.28189800  0.75482400  1
  Se  Se11  1  0.25000000  0.71810200  0.24517600  1
  Se  Se12  1  0.75000000  0.25609900  0.01624800  1
  Se  Se13  1  0.25000000  0.74390100  0.98375200  1
  Se  Se14  1  0.25000000  0.24390100  0.51624800  1
  Se  Se15  1  0.75000000  0.75609900  0.48375200  1
loop_
_geom_bond_atom_site_label_1
_geom_bond_atom_site_label_2
_geom_bond_distance
_geom_bond_site_symmetry_2
Er0 Se5 2.816850 1_545
Er0 Se5 2.816850 1_445
Er0 Se8 2.828856 1_555
Er0 Se12 2.861226 1_455
Er0 Se12 2.861226 1_555
Er0 Se4 2.921786 1_554
Er1 Se4 2.816850 1_665
Er1 Se4 2.816850 1_565
Er1 Se9 2.828856 1_555
Er1 Se13 2.861226 1_655
Er1 Se13 2.861226 1_555
Er1 Se5 2.921786 1_556
Er2 Se7 2.816850 1_555
Er2 Se7 2.816850 1_655
Er2 Se10 2.828856 1_555
Er2 Se14 2.861226 1_655
Er2 Se14 2.861226 1_555
Er2 Se6 2.921786 1_555
Er3 Se6 2.816850 1_555
Er3 Se6 2.816850 1_455
Er3 Se11 2.828856 1_555
Er3 Se15 2.861226 1_455
Er3 Se15 2.861226 1_555
Er3 Se7 2.921786 1_555
Er4 Se10 2.779315 1_455
Er4 Se10 2.779315 1_555
Er4 Se4 2.886758 1_555
Er4 Se0 2.887917 1_455
Er4 Se0 2.887917 1_555
Er4 Se14 2.904239 1_555
Er5 Se11 2.779315 1_555
Er5 Se11 2.779315 1_655
Er5 Se5 2.886758 1_555
Er5 Se1 2.887917 1_555
Er5 Se1 2.887917 1_655
Er5 Se15 2.904239 1_555
Er6 Se8 2.779315 1_655
Er6 Se8 2.779315 1_555
Er6 Se6 2.886758 1_555
Er6 Se2 2.887917 1_655
Er6 Se2 2.887917 1_555
Er6 Se12 2.904239 1_555
Er7 Se9 2.779315 1_455
Er7 Se9 2.779315 1_555
Er7 Se7 2.886758 1_555
Er7 Se3 2.887917 1_455
Er7 Se3 2.887917 1_555
Er7 Se13 2.904239 1_555
Mg0 Se1 2.746806 1_645
Mg0 Se1 2.746806 1_545
Mg0 Se0 2.748784 1_555
Mg0 Se14 2.806043 1_555
Mg0 Se14 2.806043 1_655
Mg1 Se0 2.746806 1_565
Mg1 Se0 2.746806 1_465
Mg1 Se1 2.748784 1_555
Mg1 Se15 2.806043 1_455
Mg1 Se15 2.806043 1_555
Mg2 Se3 2.746806 1_455
Mg2 Se3 2.746806 1_555
Mg2 Se2 2.748784 1_556
Mg2 Se12 2.806043 1_456
Mg2 Se12 2.806043 1_556
Mg3 Se2 2.746806 1_555
Mg3 Se2 2.746806 1_655
Mg3 Se3 2.748784 1_554
Mg3 Se13 2.806043 1_654
Mg3 Se13 2.806043 1_554
