# generated using pymatgen
data_Eu2Si3Ni8
_symmetry_space_group_name_H-M   'P 1'
_cell_length_a   9.98871300
_cell_length_b   9.98871300
_cell_length_c   7.48750100
_cell_angle_alpha   90.00000000
_cell_angle_beta   90.00000000
_cell_angle_gamma   90.00000000
_symmetry_Int_Tables_number   1
_chemical_formula_structural   Eu2Si3Ni8
_chemical_formula_sum   'Eu8 Si12 Ni32'
_cell_volume   747.06082540
_cell_formula_units_Z   4
loop_
 _symmetry_equiv_pos_site_id
 _symmetry_equiv_pos_as_xyz
  1  'x, y, z'
loop_
 _atom_site_type_symbol
 _atom_site_label
 _atom_site_symmetry_multiplicity
 _atom_site_fract_x
 _atom_site_fract_y
 _atom_site_fract_z
 _atom_site_occupancy
  Eu  Eu0  1  0.50000000  0.70609300  0.64153500  1
  Eu  Eu1  1  0.50000000  0.29390700  0.64153500  1
  Eu  Eu2  1  0.20609300  0.00000000  0.14153500  1
  Eu  Eu3  1  0.79390700  0.00000000  0.14153500  1
  Eu  Eu4  1  0.00000000  0.79390700  0.85846500  1
  Eu  Eu5  1  0.00000000  0.20609300  0.85846500  1
  Eu  Eu6  1  0.29390700  0.50000000  0.35846500  1
  Eu  Eu7  1  0.70609300  0.50000000  0.35846500  1
  Si  Si0  1  0.50000000  0.00000000  0.26494200  1
  Si  Si1  1  0.50000000  0.00000000  0.76494200  1
  Si  Si2  1  0.00000000  0.50000000  0.23505800  1
  Si  Si3  1  0.00000000  0.50000000  0.73505800  1
  Si  Si4  1  0.29244200  0.70755800  0.00000000  1
  Si  Si5  1  0.29244200  0.29244200  0.00000000  1
  Si  Si6  1  0.70755800  0.70755800  0.00000000  1
  Si  Si7  1  0.70755800  0.29244200  0.00000000  1
  Si  Si8  1  0.20755800  0.79244200  0.50000000  1
  Si  Si9  1  0.20755800  0.20755800  0.50000000  1
  Si  Si10  1  0.79244200  0.79244200  0.50000000  1
  Si  Si11  1  0.79244200  0.20755800  0.50000000  1
  Ni  Ni0  1  0.50000000  0.86254200  0.00749900  1
  Ni  Ni1  1  0.50000000  0.13745800  0.00749900  1
  Ni  Ni2  1  0.36254200  0.00000000  0.50749900  1
  Ni  Ni3  1  0.63745800  0.00000000  0.50749900  1
  Ni  Ni4  1  0.00000000  0.63745800  0.49250100  1
  Ni  Ni5  1  0.00000000  0.36254200  0.49250100  1
  Ni  Ni6  1  0.13745800  0.50000000  0.99250100  1
  Ni  Ni7  1  0.86254200  0.50000000  0.99250100  1
  Ni  Ni8  1  0.37298100  0.79273400  0.28185700  1
  Ni  Ni9  1  0.37298100  0.20726600  0.28185700  1
  Ni  Ni10  1  0.62701900  0.79273400  0.28185700  1
  Ni  Ni11  1  0.62701900  0.20726600  0.28185700  1
  Ni  Ni12  1  0.29273400  0.87298100  0.78185700  1
  Ni  Ni13  1  0.29273400  0.12701900  0.78185700  1
  Ni  Ni14  1  0.70726600  0.87298100  0.78185700  1
  Ni  Ni15  1  0.70726600  0.12701900  0.78185700  1
  Ni  Ni16  1  0.12701900  0.70726600  0.21814300  1
  Ni  Ni17  1  0.12701900  0.29273400  0.21814300  1
  Ni  Ni18  1  0.87298100  0.70726600  0.21814300  1
  Ni  Ni19  1  0.87298100  0.29273400  0.21814300  1
  Ni  Ni20  1  0.20726600  0.62701900  0.71814300  1
  Ni  Ni21  1  0.20726600  0.37298100  0.71814300  1
  Ni  Ni22  1  0.79273400  0.62701900  0.71814300  1
  Ni  Ni23  1  0.79273400  0.37298100  0.71814300  1
  Ni  Ni24  1  0.50000000  0.62752900  0.10228600  1
  Ni  Ni25  1  0.50000000  0.37247100  0.10228600  1
  Ni  Ni26  1  0.12752900  0.00000000  0.60228600  1
  Ni  Ni27  1  0.87247100  0.00000000  0.60228600  1
  Ni  Ni28  1  0.00000000  0.87247100  0.39771400  1
  Ni  Ni29  1  0.00000000  0.12752900  0.39771400  1
  Ni  Ni30  1  0.37247100  0.50000000  0.89771400  1
  Ni  Ni31  1  0.62752900  0.50000000  0.89771400  1
loop_
_geom_bond_atom_site_label_1
_geom_bond_atom_site_label_2
_geom_bond_distance
_geom_bond_site_symmetry_2
Eu0 Ni14 2.858145 1_555
Eu0 Ni12 2.858145 1_555
Eu0 Si1 3.077733 1_565
Eu0 Ni20 3.082672 1_555
Eu0 Ni22 3.082672 1_555
Eu0 Ni30 3.088658 1_555
Eu0 Ni31 3.088658 1_555
Eu0 Ni8 3.100233 1_555
Eu0 Ni10 3.100233 1_555
Eu0 Ni0 3.154451 1_556
Eu0 Si8 3.224892 1_555
Eu0 Si10 3.224892 1_555
Eu0 Si4 3.391522 1_556
Eu0 Si6 3.391522 1_556
Eu0 Ni3 3.392794 1_565
Eu0 Ni2 3.392794 1_565
Eu1 Ni15 2.858145 1_555
Eu1 Ni13 2.858145 1_555
Eu1 Si1 3.077733 1_555
Eu1 Ni21 3.082672 1_555
Eu1 Ni23 3.082672 1_555
Eu1 Ni31 3.088658 1_555
Eu1 Ni30 3.088658 1_555
Eu1 Ni9 3.100233 1_555
Eu1 Ni11 3.100233 1_555
Eu1 Ni1 3.154451 1_556
Eu1 Si11 3.224892 1_555
Eu1 Si9 3.224892 1_555
Eu1 Si5 3.391522 1_556
Eu1 Si7 3.391522 1_556
Eu1 Ni3 3.392794 1_555
Eu1 Ni2 3.392794 1_555
Eu2 Ni8 2.858145 1_545
Eu2 Ni9 2.858145 1_555
Eu2 Si0 3.077733 1_555
Eu2 Ni17 3.082672 1_555
Eu2 Ni16 3.082672 1_545
Eu2 Ni29 3.088658 1_555
Eu2 Ni28 3.088658 1_545
Eu2 Ni13 3.100233 1_554
Eu2 Ni12 3.100233 1_544
Eu2 Ni2 3.154451 1_555
Eu2 Si4 3.224892 1_545
Eu2 Si5 3.224892 1_555
Eu2 Si8 3.391522 1_545
Eu2 Si9 3.391522 1_555
Eu2 Ni1 3.392794 1_555
Eu2 Ni0 3.392794 1_545
Eu3 Ni10 2.858145 1_545
Eu3 Ni11 2.858145 1_555
Eu3 Si0 3.077733 1_555
Eu3 Ni19 3.082672 1_555
Eu3 Ni18 3.082672 1_545
Eu3 Ni28 3.088658 1_645
Eu3 Ni29 3.088658 1_655
Eu3 Ni14 3.100233 1_544
Eu3 Ni15 3.100233 1_554
Eu3 Ni3 3.154451 1_555
Eu3 Si7 3.224892 1_555
Eu3 Si6 3.224892 1_545
Eu3 Si10 3.391522 1_545
Eu3 Si11 3.391522 1_555
Eu3 Ni0 3.392794 1_545
Eu3 Ni1 3.392794 1_555
Eu4 Ni22 2.858145 1_455
Eu4 Ni20 2.858145 1_555
Eu4 Si3 3.077733 1_555
Eu4 Ni12 3.082672 1_555
Eu4 Ni14 3.082672 1_455
Eu4 Ni27 3.088658 1_465
Eu4 Ni26 3.088658 1_565
Eu4 Ni16 3.100233 1_556
Eu4 Ni18 3.100233 1_456
Eu4 Ni4 3.154451 1_555
Eu4 Si6 3.224892 1_456
Eu4 Si4 3.224892 1_556
Eu4 Si8 3.391522 1_555
Eu4 Si10 3.391522 1_455
Eu4 Ni7 3.392794 1_455
Eu4 Ni6 3.392794 1_555
Eu5 Ni23 2.858145 1_455
Eu5 Ni21 2.858145 1_555
Eu5 Si3 3.077733 1_555
Eu5 Ni13 3.082672 1_555
Eu5 Ni15 3.082672 1_455
Eu5 Ni27 3.088658 1_455
Eu5 Ni26 3.088658 1_555
Eu5 Ni17 3.100233 1_556
Eu5 Ni19 3.100233 1_456
Eu5 Ni5 3.154451 1_555
Eu5 Si5 3.224892 1_556
Eu5 Si7 3.224892 1_456
Eu5 Si11 3.391522 1_455
Eu5 Si9 3.391522 1_555
Eu5 Ni7 3.392794 1_455
Eu5 Ni6 3.392794 1_555
Eu6 Ni16 2.858145 1_555
Eu6 Ni17 2.858145 1_555
Eu6 Si2 3.077733 1_555
Eu6 Ni9 3.082672 1_555
Eu6 Ni8 3.082672 1_555
Eu6 Ni25 3.088658 1_555
Eu6 Ni24 3.088658 1_555
Eu6 Ni21 3.100233 1_555
Eu6 Ni20 3.100233 1_555
Eu6 Ni6 3.154451 1_554
Eu6 Si8 3.224892 1_555
Eu6 Si9 3.224892 1_555
Eu6 Si4 3.391522 1_555
Eu6 Si5 3.391522 1_555
Eu6 Ni4 3.392794 1_555
Eu6 Ni5 3.392794 1_555
Eu7 Ni18 2.858145 1_555
Eu7 Ni19 2.858145 1_555
Eu7 Si2 3.077733 1_655
Eu7 Ni11 3.082672 1_555
Eu7 Ni10 3.082672 1_555
Eu7 Ni25 3.088658 1_555
Eu7 Ni24 3.088658 1_555
Eu7 Ni23 3.100233 1_555
Eu7 Ni22 3.100233 1_555
Eu7 Ni7 3.154451 1_554
Eu7 Si10 3.224892 1_555
Eu7 Si11 3.224892 1_555
Eu7 Si7 3.391522 1_555
Eu7 Si6 3.391522 1_555
Eu7 Ni5 3.392794 1_655
Eu7 Ni4 3.392794 1_655
Ni0 Si1 2.276750 1_564
Ni0 Si0 2.366615 1_565
Ni0 Ni24 2.452417 1_555
Ni0 Ni10 2.513151 1_555
Ni0 Ni8 2.513151 1_555
Ni0 Si6 2.588059 1_555
Ni0 Si4 2.588059 1_555
Ni0 Ni14 2.674227 1_554
Ni0 Ni12 2.674227 1_554
Ni0 Ni1 2.746057 1_565
Ni1 Si1 2.276750 1_554
Ni1 Si0 2.366615 1_555
Ni1 Ni25 2.452417 1_555
Ni1 Ni9 2.513151 1_555
Ni1 Ni11 2.513151 1_555
Ni1 Si5 2.588059 1_555
Ni1 Si7 2.588059 1_555
Ni1 Ni15 2.674227 1_554
Ni1 Ni13 2.674227 1_554
Ni2 Si0 2.276750 1_555
Ni2 Si1 2.366615 1_555
Ni2 Ni26 2.452417 1_555
Ni2 Si9 2.588059 1_555
Ni2 Si8 2.588059 1_545
Ni2 Ni8 2.674227 1_545
Ni2 Ni9 2.674227 1_555
Ni2 Ni3 2.746057 1_555
Ni3 Si0 2.276750 1_555
Ni3 Si1 2.366615 1_555
Ni3 Si11 2.588059 1_555
Ni3 Si10 2.588059 1_545
Ni4 Si3 2.276750 1_555
Ni4 Si2 2.366615 1_555
Ni4 Si8 2.588059 1_555
Ni4 Si10 2.588059 1_455
Ni4 Ni5 2.746057 1_555
Ni5 Si3 2.276750 1_555
Ni5 Si2 2.366615 1_555
Ni5 Si9 2.588059 1_555
Ni5 Si11 2.588059 1_455
Ni6 Si2 2.276750 1_556
Ni6 Si3 2.366615 1_555
Ni6 Si5 2.588059 1_556
Ni6 Si4 2.588059 1_556
Ni6 Ni7 2.746057 1_455
Ni7 Si2 2.276750 1_656
Ni7 Si3 2.366615 1_655
Ni7 Si7 2.588059 1_556
Ni7 Si6 2.588059 1_556
Ni8 Si8 2.323388 1_555
Ni8 Si4 2.413474 1_555
Ni8 Si0 2.431463 1_565
Ni9 Si9 2.323388 1_555
Ni9 Si5 2.413474 1_555
Ni9 Si0 2.431463 1_555
Ni10 Si10 2.323388 1_555
Ni10 Si6 2.413474 1_555
Ni10 Si0 2.431463 1_565
Ni10 Ni24 2.478031 1_555
Ni10 Ni8 2.537513 1_555
Ni10 Ni18 2.644333 1_555
Ni10 Ni3 2.674227 1_565
Ni11 Si11 2.323388 1_555
Ni11 Si7 2.413474 1_555
Ni11 Si0 2.431463 1_555
Ni11 Ni25 2.478031 1_555
Ni11 Ni9 2.537513 1_555
Ni11 Ni19 2.644333 1_555
Ni11 Ni3 2.674227 1_555
Ni12 Si4 2.323388 1_556
Ni12 Si8 2.413474 1_555
Ni12 Si1 2.431463 1_565
Ni12 Ni26 2.478031 1_565
Ni12 Ni2 2.513151 1_565
Ni12 Ni13 2.537513 1_565
Ni12 Ni20 2.644333 1_555
Ni13 Si5 2.323388 1_556
Ni13 Si9 2.413474 1_555
Ni13 Si1 2.431463 1_555
Ni13 Ni26 2.478031 1_555
Ni13 Ni2 2.513151 1_555
Ni13 Ni21 2.644333 1_555
Ni14 Si6 2.323388 1_556
Ni14 Si10 2.413474 1_555
Ni14 Si1 2.431463 1_565
Ni14 Ni27 2.478031 1_565
Ni14 Ni3 2.513151 1_565
Ni14 Ni15 2.537513 1_565
Ni14 Ni22 2.644333 1_555
Ni15 Si7 2.323388 1_556
Ni15 Si11 2.413474 1_555
Ni15 Si1 2.431463 1_555
Ni15 Ni27 2.478031 1_555
Ni15 Ni3 2.513151 1_555
Ni15 Ni23 2.644333 1_555
Ni16 Si4 2.323388 1_555
Ni16 Si8 2.413474 1_555
Ni16 Si2 2.431463 1_555
Ni16 Ni28 2.478031 1_555
Ni16 Ni4 2.513151 1_555
Ni16 Ni18 2.537513 1_455
Ni16 Ni8 2.644333 1_555
Ni16 Ni6 2.674227 1_554
Ni17 Si5 2.323388 1_555
Ni17 Si9 2.413474 1_555
Ni17 Si2 2.431463 1_555
Ni17 Ni29 2.478031 1_555
Ni17 Ni5 2.513151 1_555
Ni17 Ni19 2.537513 1_455
Ni17 Ni9 2.644333 1_555
Ni17 Ni6 2.674227 1_554
Ni18 Si6 2.323388 1_555
Ni18 Si10 2.413474 1_555
Ni18 Si2 2.431463 1_655
Ni18 Ni28 2.478031 1_655
Ni18 Ni4 2.513151 1_655
Ni18 Ni7 2.674227 1_554
Ni19 Si7 2.323388 1_555
Ni19 Si11 2.413474 1_555
Ni19 Si2 2.431463 1_655
Ni19 Ni29 2.478031 1_655
Ni19 Ni5 2.513151 1_655
Ni19 Ni7 2.674227 1_554
Ni20 Si8 2.323388 1_555
Ni20 Si4 2.413474 1_556
Ni20 Si3 2.431463 1_555
Ni20 Ni30 2.478031 1_555
Ni20 Ni6 2.513151 1_555
Ni20 Ni21 2.537513 1_555
Ni20 Ni4 2.674227 1_555
Ni21 Si9 2.323388 1_555
Ni21 Si5 2.413474 1_556
Ni21 Si3 2.431463 1_555
Ni21 Ni30 2.478031 1_555
Ni21 Ni6 2.513151 1_555
Ni21 Ni5 2.674227 1_555
Ni22 Si10 2.323388 1_555
Ni22 Si6 2.413474 1_556
Ni22 Si3 2.431463 1_655
Ni22 Ni31 2.478031 1_555
Ni22 Ni7 2.513151 1_555
Ni22 Ni23 2.537513 1_555
Ni22 Ni4 2.674227 1_655
Ni23 Si11 2.323388 1_555
Ni23 Si7 2.413474 1_556
Ni23 Si3 2.431463 1_655
Ni23 Ni31 2.478031 1_555
Ni23 Ni7 2.513151 1_555
Ni23 Ni5 2.674227 1_655
Ni24 Si4 2.350294 1_555
Ni24 Si6 2.350294 1_555
Ni24 Ni31 2.364656 1_554
Ni24 Ni30 2.364656 1_554
Ni24 Ni8 2.478031 1_555
Ni24 Ni25 2.547701 1_555
Ni25 Si5 2.350294 1_555
Ni25 Si7 2.350294 1_555
Ni25 Ni31 2.364656 1_554
Ni25 Ni30 2.364656 1_554
Ni25 Ni9 2.478031 1_555
Ni26 Si9 2.350294 1_555
Ni26 Si8 2.350294 1_545
Ni26 Ni28 2.364656 1_545
Ni26 Ni29 2.364656 1_555
Ni26 Ni27 2.547701 1_455
Ni27 Si11 2.350294 1_555
Ni27 Si10 2.350294 1_545
Ni27 Ni28 2.364656 1_645
Ni27 Ni29 2.364656 1_655
Ni27 Ni3 2.452417 1_555
Ni28 Si8 2.350294 1_555
Ni28 Si10 2.350294 1_455
Ni28 Ni4 2.452417 1_555
Ni28 Ni29 2.547701 1_565
Ni29 Si9 2.350294 1_555
Ni29 Si11 2.350294 1_455
Ni29 Ni5 2.452417 1_555
Ni30 Si5 2.350294 1_556
Ni30 Si4 2.350294 1_556
Ni30 Ni6 2.452417 1_555
Ni30 Ni31 2.547701 1_555
Ni31 Si7 2.350294 1_556
Ni31 Si6 2.350294 1_556
Ni31 Ni7 2.452417 1_555
