# generated using pymatgen
data_Na2ZrSi3O11
_symmetry_space_group_name_H-M   'P 1'
_cell_length_a   6.71161545
_cell_length_b   11.87321651
_cell_length_c   12.92125584
_cell_angle_alpha   90.00000000
_cell_angle_beta   90.00000000
_cell_angle_gamma   90.00000000
_symmetry_Int_Tables_number   1
_chemical_formula_structural   Na2ZrSi3O11
_chemical_formula_sum   'Na8 Zr4 Si12 O44'
_cell_volume   1029.67502270
_cell_formula_units_Z   4
loop_
 _symmetry_equiv_pos_site_id
 _symmetry_equiv_pos_as_xyz
  1  'x, y, z'
loop_
 _atom_site_type_symbol
 _atom_site_label
 _atom_site_symmetry_multiplicity
 _atom_site_fract_x
 _atom_site_fract_y
 _atom_site_fract_z
 _atom_site_occupancy
  Na  Na0  1  0.06947576  0.74741580  0.65550119  1
  Na  Na1  1  0.93052424  0.24741580  0.34449881  1
  Na  Na2  1  0.56947576  0.24741580  0.84449881  1
  Na  Na3  1  0.43052424  0.74741580  0.15550119  1
  Na  Na4  1  0.16399492  0.99578660  0.89101715  1
  Na  Na5  1  0.83600508  0.49578660  0.10898285  1
  Na  Na6  1  0.66399492  0.49578660  0.60898285  1
  Na  Na7  1  0.33600508  0.99578660  0.39101715  1
  Zr  Zr0  1  0.34790313  0.24874600  0.55307032  1
  Zr  Zr1  1  0.65209687  0.74874600  0.44692968  1
  Zr  Zr2  1  0.84790313  0.74874600  0.94692968  1
  Zr  Zr3  1  0.15209687  0.24874600  0.05307032  1
  Si  Si0  1  0.10756465  0.28229870  0.78756919  1
  Si  Si1  1  0.89243535  0.78229870  0.21243081  1
  Si  Si2  1  0.60756465  0.78229870  0.71243081  1
  Si  Si3  1  0.39243535  0.28229870  0.28756919  1
  Si  Si4  1  0.10947802  0.49787327  0.91556167  1
  Si  Si5  1  0.89052198  0.99787327  0.08443833  1
  Si  Si6  1  0.60947802  0.99787327  0.58443833  1
  Si  Si7  1  0.39052198  0.49787327  0.41556167  1
  Si  Si8  1  0.34983810  0.71245754  0.89103193  1
  Si  Si9  1  0.65016190  0.21245754  0.10896807  1
  Si  Si10  1  0.84983810  0.21245754  0.60896807  1
  Si  Si11  1  0.15016190  0.71245754  0.39103193  1
  O  O0  1  0.13748941  0.20998131  0.89261644  1
  O  O1  1  0.86251059  0.70998131  0.10738356  1
  O  O2  1  0.63748941  0.70998131  0.60738356  1
  O  O3  1  0.36251059  0.20998131  0.39261644  1
  O  O4  1  0.07708054  0.41737634  0.81321327  1
  O  O5  1  0.92291946  0.91737634  0.18678673  1
  O  O6  1  0.57708054  0.91737634  0.68678673  1
  O  O7  1  0.42291946  0.41737634  0.31321327  1
  O  O8  1  0.39647841  0.74384741  0.76819547  1
  O  O9  1  0.60352159  0.24384741  0.23180453  1
  O  O10  1  0.89647841  0.24384741  0.73180453  1
  O  O11  1  0.10352159  0.74384741  0.26819547  1
  O  O12  1  0.30019225  0.26671505  0.71280788  1
  O  O13  1  0.69980775  0.76671505  0.28719212  1
  O  O14  1  0.80019225  0.76671505  0.78719212  1
  O  O15  1  0.19980775  0.26671505  0.21280788  1
  O  O16  1  0.34869721  0.42243966  0.51836601  1
  O  O17  1  0.65130279  0.92243966  0.48163399  1
  O  O18  1  0.84869721  0.92243966  0.98163399  1
  O  O19  1  0.15130279  0.42243966  0.01836601  1
  O  O20  1  0.30598219  0.57610559  0.89185695  1
  O  O21  1  0.69401781  0.07610559  0.10814305  1
  O  O22  1  0.80598219  0.07610559  0.60814305  1
  O  O23  1  0.19401781  0.57610559  0.39185695  1
  O  O24  1  0.41110407  0.07500870  0.56817169  1
  O  O25  1  0.58889593  0.57500870  0.43182831  1
  O  O26  1  0.91110407  0.57500870  0.93182831  1
  O  O27  1  0.08889593  0.07500870  0.06817169  1
  O  O28  1  0.03727370  0.23740512  0.53355270  1
  O  O29  1  0.96272630  0.73740512  0.46644730  1
  O  O30  1  0.53727370  0.73740512  0.96644730  1
  O  O31  1  0.46272630  0.23740512  0.03355270  1
  O  O32  1  0.15382311  0.78314664  0.92407536  1
  O  O33  1  0.84617689  0.28314664  0.07592464  1
  O  O34  1  0.65382311  0.28314664  0.57592464  1
  O  O35  1  0.34617689  0.78314664  0.42407536  1
  O  O36  1  0.02602469  0.54011967  0.63235815  1
  O  O37  1  0.97397531  0.04011967  0.36764185  1
  O  O38  1  0.52602469  0.04011967  0.86764185  1
  O  O39  1  0.47397531  0.54011967  0.13235815  1
  O  O40  1  0.11964077  0.95487659  0.69814180  1
  O  O41  1  0.88035923  0.45487659  0.30185820  1
  O  O42  1  0.61964077  0.45487659  0.80185820  1
  O  O43  1  0.38035923  0.95487659  0.19814180  1
loop_
_geom_bond_atom_site_label_1
_geom_bond_atom_site_label_2
_geom_bond_distance
_geom_bond_site_symmetry_2
Na0 O14 2.492875 1_455
Na0 O36 2.496463 1_555
Na0 O40 2.546451 1_555
Na0 O29 2.548486 1_455
Na0 O8 2.634189 1_555
Na1 O15 2.492875 1_655
Na1 O37 2.496463 1_555
Na1 O41 2.546451 1_555
Na1 O28 2.548486 1_655
Na1 O9 2.634189 1_555
Na2 O12 2.492875 1_555
Na2 O38 2.496463 1_555
Na2 O42 2.546451 1_555
Na2 O31 2.548486 1_556
Na2 O10 2.634189 1_555
Na3 O13 2.492875 1_555
Na3 O39 2.496463 1_555
Na3 O43 2.546451 1_555
Na3 O30 2.548486 1_554
Na3 O11 2.634189 1_555
Na4 O38 2.504446 1_565
Na4 O27 2.525591 1_566
Na4 O0 2.549478 1_565
Na4 O40 2.556477 1_555
Na4 O32 2.561510 1_555
Na4 O18 2.570504 1_455
Na5 O39 2.504446 1_555
Na5 O26 2.525591 1_554
Na5 O1 2.549478 1_555
Na5 O41 2.556477 1_555
Na5 O33 2.561510 1_555
Na5 O19 2.570504 1_655
Na6 O36 2.504446 1_655
Na6 O25 2.525591 1_555
Na6 O2 2.549478 1_555
Na6 O42 2.556477 1_555
Na6 O34 2.561510 1_555
Na6 O16 2.570504 1_555
Na7 O37 2.504446 1_465
Na7 O24 2.525591 1_565
Na7 O3 2.549478 1_565
Na7 O43 2.556477 1_555
Na7 O35 2.561510 1_555
Na7 O17 2.570504 1_555
O0 Si0 1.618635 1_555
O0 Zr3 2.126002 1_556
O1 Si1 1.618635 1_555
O1 Zr2 2.126002 1_554
O2 Si2 1.618635 1_555
O2 Zr1 2.126002 1_555
O3 Si3 1.618635 1_555
O3 Zr0 2.126002 1_555
O4 Si4 1.646110 1_555
O4 Si0 1.650409 1_555
O5 Si5 1.646110 1_555
O5 Si1 1.650409 1_555
O6 Si6 1.646110 1_555
O6 Si2 1.650409 1_555
O7 Si7 1.646110 1_555
O7 Si3 1.650409 1_555
O8 Si2 1.653706 1_555
O8 Si8 1.660151 1_555
O9 Si3 1.653706 1_555
O9 Si9 1.660151 1_555
O10 Si0 1.653706 1_655
O10 Si10 1.660151 1_555
O11 Si1 1.653706 1_455
O11 Si11 1.660151 1_555
O12 Si0 1.624454 1_555
O12 Zr0 2.099570 1_555
O13 Si1 1.624454 1_555
O13 Zr1 2.099570 1_555
O14 Si2 1.624454 1_555
O14 Zr2 2.099570 1_555
O15 Si3 1.624454 1_555
O15 Zr3 2.099570 1_555
O16 Si7 1.626503 1_555
O16 Zr0 2.110498 1_555
O17 Si6 1.626503 1_555
O17 Zr1 2.110498 1_555
O18 Si5 1.626503 1_556
O18 Zr2 2.110498 1_555
O19 Si4 1.626503 1_554
O19 Zr3 2.110498 1_555
O20 Si4 1.641952 1_555
O20 Si8 1.645511 1_555
O21 Si5 1.641952 1_545
O21 Si9 1.645511 1_555
O22 Si6 1.641952 1_545
O22 Si10 1.645511 1_555
O23 Si7 1.641952 1_555
O23 Si11 1.645511 1_555
O24 Si6 1.629602 1_545
O24 Zr0 2.115002 1_555
O25 Si7 1.629602 1_555
O25 Zr1 2.115002 1_555
O26 Si4 1.629602 1_655
O26 Zr2 2.115002 1_555
O27 Si5 1.629602 1_445
O27 Zr3 2.115002 1_555
O28 Si10 1.618600 1_455
O28 Zr0 2.104336 1_555
O29 Si11 1.618600 1_655
O29 Zr1 2.104336 1_555
O30 Si8 1.618600 1_555
O30 Zr2 2.104336 1_555
O31 Si9 1.618600 1_555
O31 Zr3 2.104336 1_555
O32 Si8 1.617862 1_555
O32 Zr2 2.114175 1_455
O33 Si9 1.617862 1_555
O33 Zr3 2.114175 1_655
O34 Si10 1.617862 1_555
O34 Zr0 2.114175 1_555
O35 Si11 1.617862 1_555
O35 Zr1 2.114175 1_555
