# generated using pymatgen
data_BaCaGdSbO6
_symmetry_space_group_name_H-M   'P 1'
_cell_length_a   8.42103646
_cell_length_b   8.40512796
_cell_length_c   8.41893191
_cell_angle_alpha   90.00000000
_cell_angle_beta   90.00000000
_cell_angle_gamma   90.00000000
_symmetry_Int_Tables_number   1
_chemical_formula_structural   BaCaGdSbO6
_chemical_formula_sum   'Ba4 Ca4 Gd4 Sb4 O24'
_cell_volume   595.89106611
_cell_formula_units_Z   4
loop_
 _symmetry_equiv_pos_site_id
 _symmetry_equiv_pos_as_xyz
  1  'x, y, z'
loop_
 _atom_site_type_symbol
 _atom_site_label
 _atom_site_symmetry_multiplicity
 _atom_site_fract_x
 _atom_site_fract_y
 _atom_site_fract_z
 _atom_site_occupancy
  Ba  Ba0  1  -0.00000000  -0.00000000  -0.00000000  1
  Ba  Ba1  1  0.50000000  0.50000000  0.50000000  1
  Ba  Ba2  1  0.50000000  -0.00000000  0.50000000  1
  Ba  Ba3  1  -0.00000000  0.50000000  0.00000000  1
  Ca  Ca0  1  -0.00000000  0.50000000  0.50000000  1
  Ca  Ca1  1  0.50000000  0.50000000  0.00000000  1
  Ca  Ca2  1  0.50000000  -0.00000000  -0.00000000  1
  Ca  Ca3  1  -0.00000000  -0.00000000  0.50000000  1
  Gd  Gd0  1  0.75000000  0.75000000  0.75000000  1
  Gd  Gd1  1  0.25000000  0.25000000  0.75000000  1
  Gd  Gd2  1  0.25000000  0.75000000  0.25000000  1
  Gd  Gd3  1  0.75000000  0.25000000  0.25000000  1
  Sb  Sb0  1  0.25000000  0.25000000  0.25000000  1
  Sb  Sb1  1  0.75000000  0.75000000  0.25000000  1
  Sb  Sb2  1  0.75000000  0.25000000  0.75000000  1
  Sb  Sb3  1  0.25000000  0.75000000  0.75000000  1
  O  O0  1  0.01682257  0.19548230  0.28090879  1
  O  O1  1  0.98317743  0.80451770  0.28090879  1
  O  O2  1  0.98317743  0.19548230  0.71909121  1
  O  O3  1  0.01682257  0.80451770  0.71909121  1
  O  O4  1  0.30180245  0.01693949  0.21272179  1
  O  O5  1  0.30180245  0.98306051  0.78727821  1
  O  O6  1  0.69819755  0.98306051  0.21272179  1
  O  O7  1  0.69819755  0.01693949  0.78727821  1
  O  O8  1  0.22387399  0.27535626  0.01455321  1
  O  O9  1  0.77612601  0.27535626  0.98544679  1
  O  O10  1  0.22387399  0.72464374  0.98544679  1
  O  O11  1  0.77612601  0.72464374  0.01455321  1
  O  O12  1  0.48317743  0.30451770  0.21909121  1
  O  O13  1  0.51682257  0.69548230  0.21909121  1
  O  O14  1  0.51682257  0.30451770  0.78090879  1
  O  O15  1  0.48317743  0.69548230  0.78090879  1
  O  O16  1  0.19819755  0.48306051  0.28727821  1
  O  O17  1  0.19819755  0.51693949  0.71272179  1
  O  O18  1  0.80180245  0.51693949  0.28727821  1
  O  O19  1  0.80180245  0.48306051  0.71272179  1
  O  O20  1  0.27612601  0.22464374  0.48544679  1
  O  O21  1  0.72387399  0.22464374  0.51455321  1
  O  O22  1  0.27612601  0.77535626  0.51455321  1
  O  O23  1  0.72387399  0.77535626  0.48544679  1
loop_
_geom_bond_atom_site_label_1
_geom_bond_atom_site_label_2
_geom_bond_distance
_geom_bond_site_symmetry_2
Ba0 O3 2.883174 1_544
Ba0 O1 2.883174 1_445
Ba0 O0 2.883174 1_555
Ba0 O2 2.883174 1_454
Ba0 O10 2.987583 1_544
Ba0 O8 2.987583 1_555
Ba0 O9 2.987583 1_454
Ba0 O11 2.987583 1_445
Ba0 O4 3.112351 1_555
Ba0 O5 3.112351 1_544
Ba0 O7 3.112351 1_454
Ba0 O6 3.112351 1_445
Ba1 O14 2.883174 1_555
Ba1 O15 2.883174 1_555
Ba1 O12 2.883174 1_555
Ba1 O13 2.883174 1_555
Ba1 O20 2.987583 1_555
Ba1 O23 2.987583 1_555
Ba1 O21 2.987583 1_555
Ba1 O22 2.987583 1_555
Ba1 O16 3.112351 1_555
Ba1 O17 3.112351 1_555
Ba1 O19 3.112351 1_555
Ba1 O18 3.112351 1_555
Ba2 O21 2.671016 1_555
Ba2 O23 2.671016 1_545
Ba2 O20 2.671016 1_555
Ba2 O22 2.671016 1_545
Ba2 O6 2.942012 1_545
Ba2 O7 2.942012 1_555
Ba2 O5 2.942012 1_545
Ba2 O4 2.942012 1_555
Ba3 O8 2.671016 1_555
Ba3 O9 2.671016 1_454
Ba3 O10 2.671016 1_554
Ba3 O11 2.671016 1_455
Ba3 O18 2.942012 1_455
Ba3 O19 2.942012 1_454
Ba3 O17 2.942012 1_554
Ba3 O16 2.942012 1_555
Ca0 O18 2.452186 1_455
Ca0 O19 2.452186 1_455
Ca0 O16 2.452186 1_555
Ca0 O17 2.452186 1_555
Ca1 O14 2.474253 1_554
Ca1 O15 2.474253 1_554
Ca1 O13 2.474253 1_555
Ca1 O12 2.474253 1_555
Ca1 O8 2.997837 1_555
Ca1 O10 2.997837 1_554
Ca1 O11 2.997837 1_555
Ca1 O9 2.997837 1_554
Ca2 O6 2.452186 1_545
Ca2 O4 2.452186 1_555
Ca2 O7 2.452186 1_554
Ca2 O5 2.452186 1_544
Ca3 O3 2.474253 1_545
Ca3 O1 2.474253 1_445
Ca3 O0 2.474253 1_555
Ca3 O2 2.474253 1_455
Ca3 O20 2.997837 1_555
Ca3 O22 2.997837 1_545
Ca3 O21 2.997837 1_455
Ca3 O23 2.997837 1_445
Gd0 O23 2.248220 1_555
Gd0 O11 2.248220 1_556
Gd0 O7 2.307121 1_565
Gd0 O19 2.307121 1_555
Gd0 O15 2.307888 1_555
Gd0 O3 2.307888 1_655
Gd1 O20 2.248220 1_555
Gd1 O8 2.248220 1_556
Gd1 O5 2.307121 1_545
Gd1 O17 2.307121 1_555
Gd1 O2 2.307888 1_455
Gd1 O14 2.307888 1_555
Gd2 O22 2.248220 1_555
Gd2 O10 2.248220 1_554
Gd2 O4 2.307121 1_565
Gd2 O16 2.307121 1_555
Gd2 O13 2.307888 1_555
Gd2 O1 2.307888 1_455
Gd3 O21 2.248220 1_555
Gd3 O9 2.248220 1_554
Gd3 O18 2.307121 1_555
Gd3 O6 2.307121 1_545
Gd3 O12 2.307888 1_555
Gd3 O0 2.307888 1_655
O0 Sb0 2.033075 1_555
O1 Sb1 2.033075 1_555
O2 Sb2 2.033075 1_555
O3 Sb3 2.033075 1_555
O4 Sb0 2.031280 1_555
O5 Sb3 2.031280 1_555
O6 Sb1 2.031280 1_555
O7 Sb2 2.031280 1_555
O8 Sb0 2.005738 1_555
O9 Sb2 2.005738 1_555
O10 Sb3 2.005738 1_555
O11 Sb1 2.005738 1_555
O12 Sb0 2.033075 1_555
O13 Sb1 2.033075 1_555
O14 Sb2 2.033075 1_555
O15 Sb3 2.033075 1_555
O16 Sb0 2.031280 1_555
O17 Sb3 2.031280 1_555
O18 Sb1 2.031280 1_555
O19 Sb2 2.031280 1_555
O20 Sb0 2.005738 1_555
O21 Sb2 2.005738 1_555
O22 Sb3 2.005738 1_555
O23 Sb1 2.005738 1_555
