# generated using pymatgen
data_Na3Sc2(WO4)3
_symmetry_space_group_name_H-M   'P 1'
_cell_length_a   9.26284855
_cell_length_b   9.26284855
_cell_length_c   7.29261762
_cell_angle_alpha   75.83817594
_cell_angle_beta   75.83817594
_cell_angle_gamma   96.31808343
_symmetry_Int_Tables_number   1
_chemical_formula_structural   Na3Sc2(WO4)3
_chemical_formula_sum   'Na6 Sc4 W6 O24'
_cell_volume   578.56835804
_cell_formula_units_Z   2
loop_
 _symmetry_equiv_pos_site_id
 _symmetry_equiv_pos_as_xyz
  1  'x, y, z'
loop_
 _atom_site_type_symbol
 _atom_site_label
 _atom_site_symmetry_multiplicity
 _atom_site_fract_x
 _atom_site_fract_y
 _atom_site_fract_z
 _atom_site_occupancy
  Na  Na0  1  0.22811900  0.77188100  0.25000000  1
  Na  Na1  1  0.77188100  0.22811900  0.75000000  1
  Na  Na2  1  0.00000000  0.00000000  0.00000000  1
  Na  Na3  1  0.00000000  0.00000000  0.50000000  1
  Na  Na4  1  0.51044600  0.48955400  0.25000000  1
  Na  Na5  1  0.48955400  0.51044600  0.75000000  1
  Sc  Sc0  1  0.55354200  0.86550900  0.37757100  1
  Sc  Sc1  1  0.44645800  0.13449100  0.62242900  1
  Sc  Sc2  1  0.13449100  0.44645800  0.12242900  1
  Sc  Sc3  1  0.86550900  0.55354200  0.87757100  1
  W  W0  1  0.78028500  0.21971500  0.25000000  1
  W  W1  1  0.21971500  0.78028500  0.75000000  1
  W  W2  1  0.38304400  0.15605800  0.12245100  1
  W  W3  1  0.61695600  0.84394200  0.87754900  1
  W  W4  1  0.84394200  0.61695600  0.37754900  1
  W  W5  1  0.15605800  0.38304400  0.62245100  1
  O  O0  1  0.46803700  0.08426900  0.33998500  1
  O  O1  1  0.53196300  0.91573100  0.66001500  1
  O  O2  1  0.91573100  0.53196300  0.16001500  1
  O  O3  1  0.08426900  0.46803700  0.83998500  1
  O  O4  1  0.49453200  0.84000000  0.12896600  1
  O  O5  1  0.50546800  0.16000000  0.87103400  1
  O  O6  1  0.16000000  0.50546800  0.37103400  1
  O  O7  1  0.84000000  0.49453200  0.62896600  1
  O  O8  1  0.19979900  0.03345600  0.21905500  1
  O  O9  1  0.80020100  0.96654400  0.78094500  1
  O  O10  1  0.96654400  0.80020100  0.28094500  1
  O  O11  1  0.03345600  0.19979900  0.71905500  1
  O  O12  1  0.75955200  0.01928600  0.22821800  1
  O  O13  1  0.24044800  0.98071400  0.77178200  1
  O  O14  1  0.98071400  0.24044800  0.27178200  1
  O  O15  1  0.01928600  0.75955200  0.72821800  1
  O  O16  1  0.66503200  0.27264200  0.46877900  1
  O  O17  1  0.33496800  0.72735800  0.53122100  1
  O  O18  1  0.72735800  0.33496800  0.03122100  1
  O  O19  1  0.27264200  0.66503200  0.96877900  1
  O  O20  1  0.64433500  0.66746200  0.42439300  1
  O  O21  1  0.35566500  0.33253800  0.57560700  1
  O  O22  1  0.33253800  0.35566500  0.07560700  1
  O  O23  1  0.66746200  0.64433500  0.92439300  1
loop_
_geom_bond_atom_site_label_1
_geom_bond_atom_site_label_2
_geom_bond_distance
_geom_bond_site_symmetry_2
Na0 O6 2.363453 1_555
Na0 O4 2.363453 1_555
Na0 O10 2.427269 1_455
Na0 O8 2.427269 1_565
Na0 O17 2.454539 1_555
Na0 O19 2.454539 1_554
Na1 O5 2.363453 1_555
Na1 O7 2.363453 1_555
Na1 O9 2.427269 1_545
Na1 O11 2.427269 1_655
Na1 O16 2.454539 1_555
Na1 O18 2.454539 1_556
Na2 O11 2.329489 1_554
Na2 O10 2.329489 1_445
Na2 O12 2.486289 1_455
Na2 O13 2.486289 1_544
Na2 O8 2.763294 1_555
Na2 O9 2.763294 1_444
Na3 O8 2.329489 1_555
Na3 O9 2.329489 1_445
Na3 O15 2.486289 1_545
Na3 O14 2.486289 1_455
Na3 O11 2.763294 1_555
Na3 O10 2.763294 1_445
Na4 O21 2.448376 1_555
Na4 O23 2.448376 1_554
Na4 O20 2.686762 1_555
Na4 O22 2.686762 1_555
Na5 O22 2.448376 1_556
Na5 O20 2.448376 1_555
Na5 O23 2.686762 1_555
Na5 O21 2.686762 1_555
O0 W2 1.946483 1_555
O0 Sc1 2.187883 1_555
O0 Sc0 2.235210 1_545
O1 W3 1.946483 1_555
O1 Sc0 2.187883 1_555
O1 Sc1 2.235210 1_565
O2 W4 1.946483 1_555
O2 Sc3 2.187883 1_554
O2 Sc2 2.235210 1_655
O3 W5 1.946483 1_555
O3 Sc2 2.187883 1_556
O3 Sc3 2.235210 1_455
O4 W3 1.894650 1_554
O4 Sc0 2.075476 1_555
O5 W2 1.894650 1_556
O5 Sc1 2.075476 1_555
O6 W5 1.894650 1_555
O6 Sc2 2.075476 1_555
O7 W4 1.894650 1_555
O7 Sc3 2.075476 1_555
O8 W2 1.807262 1_555
O9 W3 1.807262 1_555
O10 W4 1.807262 1_555
O11 W5 1.807262 1_555
O12 W0 1.894631 1_555
O12 Sc0 2.117125 1_545
O13 W1 1.894631 1_555
O13 Sc1 2.117125 1_565
O14 W0 1.894631 1_555
O14 Sc2 2.117125 1_655
O15 W1 1.894631 1_555
O15 Sc3 2.117125 1_455
O16 W0 1.894748 1_555
O16 Sc1 2.147145 1_555
O17 W1 1.894748 1_555
O17 Sc0 2.147145 1_555
O18 W0 1.894748 1_555
O18 Sc3 2.147145 1_554
O19 W1 1.894748 1_555
O19 Sc2 2.147145 1_556
O20 W4 1.927075 1_555
O20 Sc0 2.088723 1_555
O21 W5 1.927075 1_555
O21 Sc1 2.088723 1_555
O22 W2 1.927075 1_555
O22 Sc2 2.088723 1_555
O23 W3 1.927075 1_555
O23 Sc3 2.088723 1_555
