# generated using pymatgen
data_Ca5Mg
_symmetry_space_group_name_H-M   'P 1'
_cell_length_a   6.60661229
_cell_length_b   6.60661229
_cell_length_c   6.21026900
_cell_angle_alpha   90.00000000
_cell_angle_beta   90.00000000
_cell_angle_gamma   120.00001231
_symmetry_Int_Tables_number   1
_chemical_formula_structural   Ca5Mg
_chemical_formula_sum   'Ca5 Mg1'
_cell_volume   234.74623296
_cell_formula_units_Z   1
loop_
 _symmetry_equiv_pos_site_id
 _symmetry_equiv_pos_as_xyz
  1  'x, y, z'
loop_
 _atom_site_type_symbol
 _atom_site_label
 _atom_site_symmetry_multiplicity
 _atom_site_fract_x
 _atom_site_fract_y
 _atom_site_fract_z
 _atom_site_occupancy
  Ca  Ca0  1  0.67810561  0.00000000  0.50000000  1
  Ca  Ca1  1  0.32189439  0.32189439  0.50000000  1
  Ca  Ca2  1  0.00000000  0.67810561  0.50000000  1
  Ca  Ca3  1  0.66666700  0.33333300  -0.00000000  1
  Ca  Ca4  1  0.33333300  0.66666700  -0.00000000  1
  Mg  Mg0  1  0.00000000  -0.00000000  0.00000000  1
loop_
_geom_bond_atom_site_label_1
_geom_bond_atom_site_label_2
_geom_bond_distance
_geom_bond_site_symmetry_2
Ca0 Ca1 3.683433 1_655
Ca0 Ca2 3.683434 1_645
Ca0 Mg0 3.763565 1_655
Ca0 Mg0 3.763565 1_656
Ca0 Ca3 3.829319 1_555
Ca0 Ca3 3.829319 1_556
Ca0 Ca4 3.829321 1_546
Ca0 Ca4 3.829321 1_545
Ca0 Ca1 3.881432 1_545
Ca0 Ca2 3.881432 1_655
Ca0 Ca2 3.881432 1_545
Ca0 Ca1 3.881433 1_555
Ca1 Ca2 3.683433 1_545
Ca1 Mg0 3.763565 1_556
Ca1 Mg0 3.763565 1_555
Ca1 Ca4 3.829323 1_556
Ca1 Ca4 3.829323 1_555
Ca1 Ca3 3.829323 1_555
Ca1 Ca3 3.829323 1_556
Ca1 Ca2 3.881432 1_655
Ca1 Ca2 3.881433 1_555
Ca2 Mg0 3.763565 1_566
Ca2 Mg0 3.763565 1_565
Ca2 Ca4 3.829319 1_555
Ca2 Ca4 3.829319 1_556
Ca2 Ca3 3.829321 1_455
Ca2 Ca3 3.829321 1_456
Ca3 Ca4 3.814325 1_545
Ca3 Ca4 3.814325 1_655
Ca3 Mg0 3.814326 1_655
Ca3 Mg0 3.814331 1_665
Ca3 Mg0 3.814331 1_555
Ca3 Ca4 3.814337 1_555
Ca4 Mg0 3.814326 1_565
Ca4 Mg0 3.814331 1_665
Ca4 Mg0 3.814331 1_555
