# generated using pymatgen
data_Sr13Mn8O30
_symmetry_space_group_name_H-M   'P 1'
_cell_length_a   6.85981316
_cell_length_b   9.84018913
_cell_length_c   10.65521624
_cell_angle_alpha   89.43072402
_cell_angle_beta   91.69356542
_cell_angle_gamma   89.60537473
_symmetry_Int_Tables_number   1
_chemical_formula_structural   Sr13Mn8O30
_chemical_formula_sum   'Sr13 Mn8 O30'
_cell_volume   718.87868557
_cell_formula_units_Z   1
loop_
 _symmetry_equiv_pos_site_id
 _symmetry_equiv_pos_as_xyz
  1  'x, y, z'
loop_
 _atom_site_type_symbol
 _atom_site_label
 _atom_site_symmetry_multiplicity
 _atom_site_fract_x
 _atom_site_fract_y
 _atom_site_fract_z
 _atom_site_occupancy
  Sr  Sr0  1  0.00155000  0.81749900  0.53292400  1
  Sr  Sr1  1  0.99982800  0.68794400  0.03419100  1
  Sr  Sr2  1  0.17550400  0.00496900  0.82273600  1
  Sr  Sr3  1  0.17369300  0.49667500  0.32635600  1
  Sr  Sr4  1  0.35541800  0.34588200  0.69614600  1
  Sr  Sr5  1  0.35463900  0.14324400  0.20881100  1
  Sr  Sr6  1  0.50044400  0.49898200  0.00124500  1
  Sr  Sr7  1  0.64540800  0.85558300  0.79189000  1
  Sr  Sr8  1  0.64415400  0.65402300  0.30598200  1
  Sr  Sr9  1  0.82526400  0.50175000  0.67351400  1
  Sr  Sr10  1  0.82142400  0.99731200  0.17563400  1
  Sr  Sr11  1  0.99989800  0.31339800  0.96699400  1
  Sr  Sr12  1  0.99705600  0.18153000  0.46933200  1
  Mn  Mn0  1  0.21926100  0.66770300  0.78275400  1
  Mn  Mn1  1  0.21841900  0.83098200  0.28019800  1
  Mn  Mn2  1  0.41702700  0.66604900  0.57705900  1
  Mn  Mn3  1  0.42058700  0.83249000  0.07336800  1
  Mn  Mn4  1  0.57902800  0.16775300  0.92810200  1
  Mn  Mn5  1  0.58230000  0.33323000  0.42489600  1
  Mn  Mn6  1  0.78145800  0.16798900  0.72212400  1
  Mn  Mn7  1  0.78087300  0.33350000  0.21976300  1
  O  O0  1  0.02803400  0.25113600  0.71362700  1
  O  O1  1  0.03237600  0.25763000  0.21142800  1
  O  O2  1  0.15996800  0.51867100  0.88452100  1
  O  O3  1  0.16158900  0.58125400  0.62005200  1
  O  O4  1  0.12985200  0.98264400  0.36208900  1
  O  O5  1  0.15857700  0.91445700  0.11606200  1
  O  O6  1  0.30990800  0.78307700  0.91382300  1
  O  O7  1  0.31485100  0.81569600  0.66621900  1
  O  O8  1  0.33678000  0.24524400  0.95570100  1
  O  O9  1  0.30858000  0.71692200  0.41692300  1
  O  O10  1  0.32080200  0.67395200  0.16119000  1
  O  O11  1  0.32450200  0.28380900  0.45133300  1
  O  O12  1  0.48802900  0.59699900  0.74926000  1
  O  O13  1  0.50053400  0.49913300  0.50231900  1
  O  O14  1  0.48756800  0.89414000  0.24100300  1
  O  O15  1  0.51228700  0.10369100  0.76202600  1
  O  O16  1  0.50259300  0.00161200  0.00506200  1
  O  O17  1  0.51217100  0.40442800  0.25348500  1
  O  O18  1  0.67456200  0.71597700  0.55038400  1
  O  O19  1  0.67817000  0.32585100  0.83921100  1
  O  O20  1  0.69063400  0.28002200  0.58442600  1
  O  O21  1  0.66140000  0.75407000  0.04428800  1
  O  O22  1  0.68443100  0.18432600  0.33442400  1
  O  O23  1  0.68878300  0.22242800  0.08668400  1
  O  O24  1  0.84124300  0.08596200  0.88686900  1
  O  O25  1  0.87214600  0.01627100  0.64061500  1
  O  O26  1  0.83857900  0.41806500  0.38324000  1
  O  O27  1  0.84299100  0.48328100  0.11952100  1
  O  O28  1  0.96718200  0.74205200  0.78999100  1
  O  O29  1  0.97164400  0.74871400  0.28820500  1
loop_
_geom_bond_atom_site_label_1
_geom_bond_atom_site_label_2
_geom_bond_distance
_geom_bond_site_symmetry_2
Mn0 O2 1.869376 1_555
Mn0 O28 1.876954 1_455
Mn0 O6 1.901546 1_555
Mn0 O3 1.969522 1_555
Mn0 O12 2.009180 1_555
Mn0 O7 2.029264 1_555
Mn1 O4 1.844565 1_555
Mn1 O29 1.885295 1_455
Mn1 O9 1.915542 1_555
Mn1 O5 1.956085 1_555
Mn1 O14 2.006428 1_555
Mn1 O10 2.136707 1_555
Mn2 O18 1.866024 1_555
Mn2 O7 1.901359 1_555
Mn2 O9 1.902183 1_555
Mn2 O13 1.923567 1_555
Mn2 O12 1.995840 1_555
Mn2 O3 2.009097 1_555
Mn3 O21 1.854132 1_555
Mn3 O16 1.904924 1_565
Mn3 O6 1.909984 1_554
Mn3 O14 1.935579 1_555
Mn3 O10 1.949743 1_555
Mn3 O5 2.030661 1_555
Mn4 O8 1.856155 1_555
Mn4 O16 1.905442 1_556
Mn4 O23 1.913095 1_556
Mn4 O15 1.927860 1_555
Mn4 O19 1.950191 1_555
Mn4 O24 2.027332 1_555
Mn5 O11 1.865964 1_555
Mn5 O20 1.902132 1_555
Mn5 O22 1.902871 1_555
Mn5 O13 1.924000 1_555
Mn5 O17 1.994012 1_555
Mn5 O26 2.010849 1_555
Mn6 O25 1.847987 1_555
Mn6 O0 1.888205 1_655
Mn6 O20 1.913260 1_555
Mn6 O24 1.955976 1_555
Mn6 O15 2.011878 1_555
Mn6 O19 2.132398 1_555
Mn7 O27 1.870558 1_555
Mn7 O1 1.880007 1_655
Mn7 O23 1.895177 1_555
Mn7 O26 1.968728 1_555
Mn7 O17 2.010024 1_555
Mn7 O22 2.027454 1_555
O0 Sr4 2.449003 1_555
O0 Sr12 2.700875 1_455
O0 Sr11 2.786203 1_455
O0 Sr2 2.843134 1_555
O0 Sr9 2.845298 1_455
O1 Sr5 2.474820 1_555
O1 Sr11 2.658910 1_454
O1 Sr3 2.826819 1_555
O1 Sr12 2.858681 1_455
O1 Sr10 2.973057 1_445
O2 Sr11 2.471914 1_455
O2 Sr1 2.579857 1_456
O2 Sr6 2.618528 1_556
O2 Sr4 2.985429 1_555
O2 Sr9 3.172053 1_455
O3 Sr9 2.520530 1_455
O3 Sr0 2.707959 1_555
O3 Sr4 2.765175 1_555
O3 Sr3 3.249437 1_555
O4 Sr12 2.459096 1_465
O4 Sr0 2.604705 1_555
O4 Sr5 2.770149 1_565
O4 Sr10 2.861111 1_455
O5 Sr10 2.547115 1_455
O5 Sr1 2.632670 1_455
O5 Sr5 2.803799 1_565
O5 Sr2 3.246962 1_564
O6 Sr2 2.537083 1_565
O6 Sr1 2.685256 1_456
O6 Sr7 2.770327 1_555
O7 Sr0 2.540685 1_555
O7 Sr7 2.632901 1_555
O7 Sr2 2.700981 1_565
O8 Sr11 2.408613 1_455
O8 Sr6 2.785787 1_556
O8 Sr5 2.867212 1_556
O8 Sr4 2.934941 1_555
O8 Sr2 2.971750 1_555
O9 Sr3 2.549686 1_555
O9 Sr0 2.663203 1_555
O9 Sr8 2.689849 1_555
O10 Sr1 2.552281 1_455
O10 Sr8 2.669176 1_555
O10 Sr3 2.688276 1_555
O10 Sr6 2.746025 1_555
O11 Sr12 2.479511 1_455
O11 Sr3 2.657887 1_555
O11 Sr4 2.687614 1_555
O11 Sr5 2.955048 1_555
O12 Sr9 2.641414 1_555
O12 Sr4 2.698550 1_555
O12 Sr7 2.806817 1_555
O12 Sr6 2.842604 1_556
O13 Sr4 2.758754 1_555
O13 Sr8 2.783761 1_555
O13 Sr9 2.837563 1_555
O13 Sr3 2.880272 1_555
O14 Sr10 2.621654 1_555
O14 Sr5 2.625206 1_565
O14 Sr8 2.665436 1_555
O15 Sr2 2.608880 1_555
O15 Sr7 2.613889 1_545
O15 Sr4 2.686481 1_555
O16 Sr10 2.801922 1_545
O16 Sr5 2.802950 1_555
O16 Sr7 2.891512 1_544
O16 Sr2 2.924007 1_554
O17 Sr3 2.628610 1_555
O17 Sr8 2.681947 1_555
O17 Sr5 2.834069 1_555
O17 Sr6 2.834122 1_555
O18 Sr0 2.473022 1_655
O18 Sr9 2.658696 1_555
O18 Sr8 2.682907 1_555
O18 Sr7 2.940396 1_555
O19 Sr11 2.560276 1_555
O19 Sr4 2.655752 1_555
O19 Sr9 2.683255 1_555
O19 Sr6 2.742963 1_556
O20 Sr9 2.555688 1_555
O20 Sr12 2.647558 1_555
O20 Sr4 2.698415 1_555
O21 Sr1 2.412453 1_555
O21 Sr6 2.785900 1_555
O21 Sr7 2.858348 1_554
O21 Sr8 2.953805 1_555
O21 Sr10 2.984074 1_555
O22 Sr12 2.546049 1_555
O22 Sr5 2.630067 1_555
O22 Sr10 2.695246 1_545
O23 Sr10 2.552014 1_545
O23 Sr11 2.673396 1_554
O23 Sr5 2.781235 1_555
O24 Sr2 2.537346 1_655
O24 Sr11 2.634138 1_555
O24 Sr7 2.824046 1_545
O24 Sr10 3.196795 1_546
O25 Sr0 2.451800 1_645
O25 Sr12 2.600415 1_555
O25 Sr7 2.765672 1_545
O25 Sr2 2.803991 1_655
O26 Sr3 2.519491 1_655
O26 Sr12 2.702700 1_555
O26 Sr8 2.775251 1_555
O26 Sr9 3.212314 1_555
O27 Sr1 2.468062 1_555
O27 Sr11 2.593637 1_554
O27 Sr6 2.636248 1_555
O27 Sr8 2.970783 1_555
O27 Sr3 3.120117 1_655
O28 Sr7 2.467753 1_555
O28 Sr1 2.653384 1_556
O28 Sr9 2.845713 1_555
O28 Sr0 2.847740 1_655
O28 Sr2 2.982729 1_665
O29 Sr8 2.449780 1_555
O29 Sr0 2.702743 1_655
O29 Sr1 2.789626 1_555
O29 Sr3 2.852466 1_655
O29 Sr10 2.884211 1_555
