# generated using pymatgen
data_Pr2MgCu2
_symmetry_space_group_name_H-M   'P 1'
_cell_length_a   7.85639122
_cell_length_b   7.85639122
_cell_length_c   3.83735454
_cell_angle_alpha   90.00000000
_cell_angle_beta   90.00000000
_cell_angle_gamma   90.00000000
_symmetry_Int_Tables_number   1
_chemical_formula_structural   Pr2MgCu2
_chemical_formula_sum   'Pr4 Mg2 Cu4'
_cell_volume   236.85258531
_cell_formula_units_Z   2
loop_
 _symmetry_equiv_pos_site_id
 _symmetry_equiv_pos_as_xyz
  1  'x, y, z'
loop_
 _atom_site_type_symbol
 _atom_site_label
 _atom_site_symmetry_multiplicity
 _atom_site_fract_x
 _atom_site_fract_y
 _atom_site_fract_z
 _atom_site_occupancy
  Pr  Pr0  1  0.67068497  0.17068497  0.50000000  1
  Pr  Pr1  1  0.32931503  0.82931503  0.50000000  1
  Pr  Pr2  1  0.17068497  0.32931503  0.50000000  1
  Pr  Pr3  1  0.82931503  0.67068497  0.50000000  1
  Mg  Mg0  1  -0.00000000  0.00000000  -0.00000000  1
  Mg  Mg1  1  0.50000000  0.50000000  -0.00000000  1
  Cu  Cu0  1  0.12075730  0.62075730  -0.00000000  1
  Cu  Cu1  1  0.87924270  0.37924270  0.00000000  1
  Cu  Cu2  1  0.62075730  0.87924270  0.00000000  1
  Cu  Cu3  1  0.37924270  0.12075730  -0.00000000  1
loop_
_geom_bond_atom_site_label_1
_geom_bond_atom_site_label_2
_geom_bond_distance
_geom_bond_site_symmetry_2
Mg0 Pr0 3.489021 1_455
Mg0 Pr0 3.489021 1_454
Mg0 Pr3 3.489021 1_444
Mg0 Pr2 3.489021 1_555
Mg0 Pr3 3.489021 1_445
Mg0 Pr2 3.489021 1_554
Mg0 Pr1 3.489021 1_544
Mg0 Pr1 3.489021 1_545
Mg1 Pr1 3.489021 1_555
Mg1 Pr3 3.489021 1_555
Mg1 Pr1 3.489021 1_554
Mg1 Pr2 3.489021 1_555
Mg1 Pr3 3.489021 1_554
Mg1 Pr2 3.489021 1_554
Mg1 Pr0 3.489021 1_554
Mg1 Pr0 3.489021 1_555
Cu0 Cu1 2.683376 1_455
Cu0 Pr1 3.008448 1_555
Cu0 Pr1 3.008448 1_554
Cu0 Pr2 3.012945 1_554
Cu0 Pr2 3.012945 1_555
Cu0 Pr3 3.012945 1_454
Cu0 Pr3 3.012945 1_455
Cu0 Mg1 3.126877 1_555
Cu0 Mg0 3.126877 1_565
Cu1 Pr0 3.008448 1_554
Cu1 Pr0 3.008448 1_555
Cu1 Pr2 3.012945 1_654
Cu1 Pr2 3.012945 1_655
Cu1 Pr3 3.012945 1_555
Cu1 Pr3 3.012945 1_554
Cu1 Mg0 3.126877 1_655
Cu1 Mg1 3.126877 1_555
Cu2 Cu3 2.683376 1_565
Cu2 Pr3 3.008448 1_554
Cu2 Pr3 3.008448 1_555
Cu2 Pr1 3.012945 1_555
Cu2 Pr1 3.012945 1_554
Cu2 Pr0 3.012945 1_565
Cu2 Pr0 3.012945 1_564
Cu2 Mg0 3.126877 1_665
Cu2 Mg1 3.126877 1_555
Cu3 Pr2 3.008448 1_554
Cu3 Pr2 3.008448 1_555
Cu3 Pr0 3.012945 1_554
Cu3 Pr0 3.012945 1_555
Cu3 Pr1 3.012945 1_545
Cu3 Pr1 3.012945 1_544
Cu3 Mg1 3.126877 1_555
Cu3 Mg0 3.126877 1_555
