# generated using pymatgen
data_V(GeO3)2
_symmetry_space_group_name_H-M   'P 1'
_cell_length_a   8.95402500
_cell_length_b   5.46232200
_cell_length_c   10.18286967
_cell_angle_alpha   76.02001784
_cell_angle_beta   90.00000000
_cell_angle_gamma   90.00000000
_symmetry_Int_Tables_number   1
_chemical_formula_structural   V(GeO3)2
_chemical_formula_sum   'V4 Ge8 O24'
_cell_volume   483.28988709
_cell_formula_units_Z   4
loop_
 _symmetry_equiv_pos_site_id
 _symmetry_equiv_pos_as_xyz
  1  'x, y, z'
loop_
 _atom_site_type_symbol
 _atom_site_label
 _atom_site_symmetry_multiplicity
 _atom_site_fract_x
 _atom_site_fract_y
 _atom_site_fract_z
 _atom_site_occupancy
  V  V0  1  0.34419700  0.72308600  0.23753700  1
  V  V1  1  0.84419700  0.77691400  0.76246300  1
  V  V2  1  0.65580300  0.27691400  0.76246300  1
  V  V3  1  0.15580300  0.22308600  0.23753700  1
  Ge  Ge0  1  0.66674200  0.80155700  0.05131300  1
  Ge  Ge1  1  0.16674200  0.69844300  0.94868700  1
  Ge  Ge2  1  0.33325800  0.19844300  0.94868700  1
  Ge  Ge3  1  0.83325800  0.30155700  0.05131300  1
  Ge  Ge4  1  0.65347900  0.62674300  0.47988700  1
  Ge  Ge5  1  0.15347900  0.87325700  0.52011300  1
  Ge  Ge6  1  0.34652100  0.37325700  0.52011300  1
  Ge  Ge7  1  0.84652100  0.12674300  0.47988700  1
  O  O0  1  0.72294000  0.93949900  0.41140900  1
  O  O1  1  0.22294000  0.56050100  0.58859100  1
  O  O2  1  0.27706000  0.06050100  0.58859100  1
  O  O3  1  0.77706000  0.43949900  0.41140900  1
  O  O4  1  0.70129500  0.06625700  0.11587100  1
  O  O5  1  0.20129500  0.43374300  0.88412900  1
  O  O6  1  0.29870500  0.93374300  0.88412900  1
  O  O7  1  0.79870500  0.56625700  0.11587100  1
  O  O8  1  0.03122700  0.17780800  0.40387300  1
  O  O9  1  0.53122700  0.32219200  0.59612700  1
  O  O10  1  0.96877300  0.82219200  0.59612700  1
  O  O11  1  0.46877300  0.67780800  0.40387300  1
  O  O12  1  0.00909200  0.19259800  0.12124300  1
  O  O13  1  0.50909200  0.30740200  0.87875700  1
  O  O14  1  0.99090800  0.80740200  0.87875700  1
  O  O15  1  0.49090800  0.69259800  0.12124300  1
  O  O16  1  0.67823900  0.88687500  0.87152100  1
  O  O17  1  0.17823900  0.61312500  0.12847900  1
  O  O18  1  0.32176100  0.11312500  0.12847900  1
  O  O19  1  0.82176100  0.38687500  0.87152100  1
  O  O20  1  0.70248500  0.61338600  0.66260200  1
  O  O21  1  0.20248500  0.88661400  0.33739800  1
  O  O22  1  0.29751500  0.38661400  0.33739800  1
  O  O23  1  0.79751500  0.11338600  0.66260200  1
loop_
_geom_bond_atom_site_label_1
_geom_bond_atom_site_label_2
_geom_bond_distance
_geom_bond_site_symmetry_2
Ge0 O7 1.752727 1_555
Ge0 O4 1.754333 1_565
Ge0 O15 1.770686 1_555
Ge0 O16 1.779709 1_554
Ge1 O6 1.752727 1_555
Ge1 O5 1.754333 1_555
Ge1 O14 1.770686 1_455
Ge1 O17 1.779709 1_556
Ge2 O5 1.752727 1_555
Ge2 O6 1.754333 1_545
Ge2 O13 1.770686 1_555
Ge2 O18 1.779709 1_556
Ge3 O4 1.752727 1_555
Ge3 O7 1.754333 1_555
Ge3 O12 1.770686 1_655
Ge3 O19 1.779709 1_554
Ge4 O3 1.761068 1_555
Ge4 O0 1.793329 1_555
Ge4 O11 1.818759 1_555
Ge4 O20 1.895778 1_555
Ge4 O9 2.101267 1_555
Ge5 O2 1.761068 1_565
Ge5 O1 1.793329 1_555
Ge5 O10 1.818759 1_455
Ge5 O21 1.895778 1_555
Ge5 O8 2.101267 1_565
Ge6 O1 1.761068 1_555
Ge6 O2 1.793329 1_555
Ge6 O9 1.818759 1_555
Ge6 O22 1.895778 1_555
Ge6 O11 2.101267 1_555
Ge7 O0 1.761068 1_545
Ge7 O3 1.793329 1_555
Ge7 O8 1.818759 1_655
Ge7 O23 1.895778 1_555
Ge7 O10 2.101267 1_545
O8 V3 1.992961 1_555
O9 V2 1.992961 1_555
O10 V1 1.992961 1_555
O11 V0 1.992961 1_555
O12 V3 1.803067 1_555
O13 V2 1.803067 1_555
O14 V1 1.803067 1_555
O15 V0 1.803067 1_555
O16 V1 2.030884 1_555
O16 V2 2.160917 1_565
O17 V0 2.030884 1_555
O17 V3 2.160917 1_555
O18 V3 2.030884 1_555
O18 V0 2.160917 1_545
O19 V2 2.030884 1_555
O19 V1 2.160917 1_555
O20 V2 1.919293 1_555
O20 V1 1.969991 1_555
O21 V3 1.919293 1_565
O21 V0 1.969991 1_555
O22 V0 1.919293 1_555
O22 V3 1.969991 1_555
O23 V1 1.919293 1_545
O23 V2 1.969991 1_555
