# generated using pymatgen
data_MnAgPO4
_symmetry_space_group_name_H-M   'P 1'
_cell_length_a   5.87144827
_cell_length_b   6.69837765
_cell_length_c   9.82962957
_cell_angle_alpha   74.78928113
_cell_angle_beta   79.75126551
_cell_angle_gamma   77.82972574
_symmetry_Int_Tables_number   1
_chemical_formula_structural   MnAgPO4
_chemical_formula_sum   'Mn4 Ag4 P4 O16'
_cell_volume   361.57017066
_cell_formula_units_Z   4
loop_
 _symmetry_equiv_pos_site_id
 _symmetry_equiv_pos_as_xyz
  1  'x, y, z'
loop_
 _atom_site_type_symbol
 _atom_site_label
 _atom_site_symmetry_multiplicity
 _atom_site_fract_x
 _atom_site_fract_y
 _atom_site_fract_z
 _atom_site_occupancy
  Mn  Mn0  1  0.65799700  0.06687900  0.21128700  1
  Mn  Mn1  1  0.34196000  0.93307800  0.78871600  1
  Mn  Mn2  1  0.22209100  0.83023400  0.42935600  1
  Mn  Mn3  1  0.77788900  0.16977900  0.57065200  1
  Ag  Ag0  1  0.30497700  0.62119800  0.12463400  1
  Ag  Ag1  1  0.69503300  0.37881600  0.87536900  1
  Ag  Ag2  1  0.82816500  0.52355000  0.24062700  1
  Ag  Ag3  1  0.17184900  0.47642900  0.75937900  1
  P  P0  1  0.31262800  0.28834900  0.46606300  1
  P  P1  1  0.68737900  0.71166200  0.53393600  1
  P  P2  1  0.18780100  0.14752300  0.09005600  1
  P  P3  1  0.81219500  0.85247600  0.90994000  1
  O  O0  1  0.13277300  0.15893300  0.44824200  1
  O  O1  1  0.86721600  0.84108900  0.55176600  1
  O  O2  1  0.34849300  0.23565200  0.62803600  1
  O  O3  1  0.65154100  0.76435000  0.37196100  1
  O  O4  1  0.23096700  0.52354800  0.40808100  1
  O  O5  1  0.76905000  0.47646600  0.59192000  1
  O  O6  1  0.56318600  0.21455600  0.38991600  1
  O  O7  1  0.43680600  0.78544700  0.61007400  1
  O  O8  1  0.23465700  0.92987800  0.19850900  1
  O  O9  1  0.76538800  0.07013300  0.80149400  1
  O  O10  1  0.22108400  0.12190700  0.93656500  1
  O  O11  1  0.77892500  0.87807000  0.06343700  1
  O  O12  1  0.92992400  0.25806800  0.12856400  1
  O  O13  1  0.07005800  0.74190200  0.87143200  1
  O  O14  1  0.37018000  0.27893800  0.10592400  1
  O  O15  1  0.62979000  0.72109100  0.89406500  1
loop_
_geom_bond_atom_site_label_1
_geom_bond_atom_site_label_2
_geom_bond_distance
_geom_bond_site_symmetry_2
Mn0 O11 2.105807 1_545
Mn0 O6 2.168605 1_555
Mn0 O12 2.168900 1_555
Mn0 O14 2.187422 1_555
Mn0 O3 2.221260 1_545
Mn1 O10 2.105867 1_565
Mn1 O7 2.168532 1_555
Mn1 O13 2.168720 1_555
Mn1 O15 2.187242 1_555
Mn1 O2 2.221545 1_565
Mn2 O4 2.107844 1_555
Mn2 O8 2.183205 1_555
Mn2 O0 2.202313 1_565
Mn2 O1 2.210088 1_455
Mn2 O7 2.278748 1_555
Mn2 O3 2.454839 1_555
Mn3 O5 2.107869 1_555
Mn3 O9 2.183192 1_555
Mn3 O1 2.202255 1_545
Mn3 O0 2.210134 1_655
Mn3 O6 2.278863 1_555
Mn3 O2 2.454526 1_555
Ag0 O14 2.294008 1_555
Ag0 O8 2.300917 1_555
Ag0 O4 2.666867 1_555
Ag0 O15 2.725005 1_554
Ag1 O15 2.294050 1_555
Ag1 O9 2.300922 1_555
Ag1 O5 2.666887 1_555
Ag1 O14 2.725041 1_556
Ag2 O12 2.253536 1_555
Ag2 O3 2.292312 1_555
Ag2 O11 2.544748 1_555
Ag3 O13 2.253422 1_555
Ag3 O2 2.292279 1_555
Ag3 O10 2.544739 1_555
O0 P0 1.558462 1_555
O1 P1 1.558464 1_555
O2 P0 1.580157 1_555
O3 P1 1.580138 1_555
O4 P0 1.531126 1_555
O5 P1 1.531121 1_555
O6 P0 1.569881 1_555
O7 P1 1.569902 1_555
O8 P2 1.567565 1_565
O9 P3 1.567561 1_545
O10 P2 1.536482 1_556
O11 P3 1.536495 1_554
O12 P2 1.566692 1_655
O13 P3 1.566689 1_455
O14 P2 1.573148 1_555
O15 P3 1.573152 1_555
