# generated using pymatgen
data_Na5Hf2F13
_symmetry_space_group_name_H-M   'P 1'
_cell_length_a   6.33749015
_cell_length_b   6.33749015
_cell_length_c   8.32141211
_cell_angle_alpha   83.49529293
_cell_angle_beta   83.49529293
_cell_angle_gamma   50.87886107
_symmetry_Int_Tables_number   1
_chemical_formula_structural   Na5Hf2F13
_chemical_formula_sum   'Na5 Hf2 F13'
_cell_volume   257.24359552
_cell_formula_units_Z   1
loop_
 _symmetry_equiv_pos_site_id
 _symmetry_equiv_pos_as_xyz
  1  'x, y, z'
loop_
 _atom_site_type_symbol
 _atom_site_label
 _atom_site_symmetry_multiplicity
 _atom_site_fract_x
 _atom_site_fract_y
 _atom_site_fract_z
 _atom_site_occupancy
  Na  Na0  1  0.22258776  0.22258776  0.84599467  1
  Na  Na1  1  0.77741224  0.77741224  0.15400533  1
  Na  Na2  1  0.50000000  0.50000000  -0.00000000  1
  Na  Na3  1  0.66457612  0.66457612  0.57159692  1
  Na  Na4  1  0.33542388  0.33542388  0.42840308  1
  Hf  Hf0  1  0.92688658  0.92688658  0.74422102  1
  Hf  Hf1  1  0.07311342  0.07311342  0.25577898  1
  F  F0  1  0.05637445  0.58056810  0.64301764  1
  F  F1  1  0.58056810  0.05637445  0.64301764  1
  F  F2  1  0.94362555  0.41943190  0.35698236  1
  F  F3  1  0.41943190  0.94362555  0.35698236  1
  F  F4  1  0.64024109  0.09214061  0.93059467  1
  F  F5  1  0.09214061  0.64024109  0.93059467  1
  F  F6  1  0.35975891  0.90785939  0.06940533  1
  F  F7  1  0.90785939  0.35975891  0.06940533  1
  F  F8  1  0.30076387  0.82334674  0.74990942  1
  F  F9  1  0.82334674  0.30076387  0.74990942  1
  F  F10  1  0.69923613  0.17665326  0.25009058  1
  F  F11  1  0.17665326  0.69923613  0.25009058  1
  F  F12  1  -0.00000000  -0.00000000  0.50000000  1
loop_
_geom_bond_atom_site_label_1
_geom_bond_atom_site_label_2
_geom_bond_distance
_geom_bond_site_symmetry_2
F0 Hf0 2.046729 1_455
F0 Na4 2.275195 1_555
F0 Na3 2.323036 1_455
F0 Na0 2.372482 1_555
F1 Hf0 2.046729 1_545
F1 Na4 2.275195 1_555
F1 Na3 2.323036 1_545
F1 Na0 2.372482 1_555
F2 Hf1 2.046729 1_655
F2 Na3 2.275195 1_555
F2 Na4 2.323036 1_655
F2 Na1 2.372482 1_555
F3 Hf1 2.046729 1_565
F3 Na3 2.275195 1_555
F3 Na4 2.323036 1_565
F3 Na1 2.372482 1_555
F4 Hf0 2.032486 1_545
F4 Na2 2.264421 1_556
F4 Na1 2.351223 1_546
F4 Na0 2.390394 1_555
F5 Hf0 2.032486 1_455
F5 Na2 2.264421 1_556
F5 Na1 2.351223 1_456
F5 Na0 2.390394 1_555
F6 Hf1 2.032486 1_565
F6 Na2 2.264421 1_555
F6 Na0 2.351223 1_564
F6 Na1 2.390394 1_555
F7 Hf1 2.032486 1_655
F7 Na2 2.264421 1_555
F7 Na0 2.351223 1_654
F7 Na1 2.390394 1_555
F8 Hf0 2.025692 1_455
F8 Na3 2.272822 1_555
F8 Na0 2.464411 1_565
F8 Na2 2.547259 1_556
F9 Hf0 2.025692 1_545
F9 Na3 2.272822 1_555
F9 Na0 2.464411 1_655
F9 Na2 2.547259 1_556
F10 Hf1 2.025692 1_655
F10 Na4 2.272822 1_555
F10 Na1 2.464411 1_545
F10 Na2 2.547259 1_555
F11 Hf1 2.025692 1_565
F11 Na4 2.272822 1_555
F11 Na1 2.464411 1_455
F11 Na2 2.547259 1_555
F12 Hf0 2.098505 1_445
F12 Hf1 2.098505 1_555
