# generated using pymatgen
data_Yb2MgTiO6
_symmetry_space_group_name_H-M   'P 1'
_cell_length_a   5.52936795
_cell_length_b   5.19770455
_cell_length_c   9.14890501
_cell_angle_alpha   55.91079806
_cell_angle_beta   90.00000000
_cell_angle_gamma   90.00000000
_symmetry_Int_Tables_number   1
_chemical_formula_structural   Yb2MgTiO6
_chemical_formula_sum   'Yb4 Mg2 Ti2 O12'
_cell_volume   217.75773206
_cell_formula_units_Z   2
loop_
 _symmetry_equiv_pos_site_id
 _symmetry_equiv_pos_as_xyz
  1  'x, y, z'
loop_
 _atom_site_type_symbol
 _atom_site_label
 _atom_site_symmetry_multiplicity
 _atom_site_fract_x
 _atom_site_fract_y
 _atom_site_fract_z
 _atom_site_occupancy
  Yb  Yb0  1  0.07004228  0.72546003  0.75298081  1
  Yb  Yb1  1  0.92995772  0.27453997  0.24701919  1
  Yb  Yb2  1  0.57004228  0.27453997  0.74701919  1
  Yb  Yb3  1  0.42995772  0.72546003  0.25298081  1
  Mg  Mg0  1  0.50000000  0.50000000  0.00000000  1
  Mg  Mg1  1  0.00000000  0.50000000  0.50000000  1
  Ti  Ti0  1  0.50000000  0.00000000  0.50000000  1
  Ti  Ti1  1  0.00000000  0.00000000  0.00000000  1
  O  O0  1  0.44974326  0.88250338  0.74293512  1
  O  O1  1  0.55025674  0.11749662  0.25706488  1
  O  O2  1  0.94974326  0.11749662  0.75706488  1
  O  O3  1  0.05025674  0.88250338  0.24293512  1
  O  O4  1  0.79825435  0.74838233  0.56868257  1
  O  O5  1  0.20174565  0.25161767  0.43131743  1
  O  O6  1  0.29825435  0.25161767  0.93131743  1
  O  O7  1  0.70174565  0.74838233  0.06868257  1
  O  O8  1  0.31294141  0.63668519  0.55987856  1
  O  O9  1  0.68705859  0.36331481  0.44012144  1
  O  O10  1  0.81294141  0.36331481  0.94012144  1
  O  O11  1  0.18705859  0.63668519  0.05987856  1
loop_
_geom_bond_atom_site_label_1
_geom_bond_atom_site_label_2
_geom_bond_distance
_geom_bond_site_symmetry_2
Mg0 O7 2.053130 1_555
Mg0 O6 2.053130 1_554
Mg0 O11 2.057985 1_555
Mg0 O10 2.057985 1_554
Mg0 O1 2.078396 1_555
Mg0 O0 2.078396 1_554
Mg1 O4 2.053130 1_455
Mg1 O5 2.053130 1_555
Mg1 O8 2.057985 1_555
Mg1 O9 2.057985 1_455
Mg1 O2 2.078396 1_455
Mg1 O3 2.078396 1_555
O0 Ti0 1.966861 1_565
O0 Yb2 2.163651 1_565
O0 Yb0 2.235748 1_555
O1 Ti0 1.966861 1_555
O1 Yb3 2.163651 1_545
O1 Yb1 2.235748 1_555
O2 Ti1 1.966861 1_656
O2 Yb0 2.163651 1_645
O2 Yb2 2.235748 1_555
O3 Ti1 1.966861 1_565
O3 Yb1 2.163651 1_465
O3 Yb3 2.235748 1_555
O4 Ti0 1.975801 1_565
O4 Yb0 2.211443 1_655
O4 Yb2 2.411579 1_555
O4 Yb1 2.765547 1_565
O5 Ti0 1.975801 1_555
O5 Yb1 2.211443 1_455
O5 Yb3 2.411579 1_555
O5 Yb0 2.765547 1_545
O6 Ti1 1.975801 1_556
O6 Yb2 2.211443 1_555
O6 Yb0 2.411579 1_555
O6 Yb3 2.765547 1_546
O7 Ti1 1.975801 1_665
O7 Yb3 2.211443 1_555
O7 Yb1 2.411579 1_555
O7 Yb2 2.765547 1_564
O8 Ti0 1.943279 1_565
O8 Yb2 2.209721 1_555
O8 Yb0 2.460022 1_555
O8 Yb3 2.657607 1_555
O9 Ti0 1.943279 1_555
O9 Yb3 2.209721 1_555
O9 Yb1 2.460022 1_555
O9 Yb2 2.657607 1_555
O10 Ti1 1.943279 1_656
O10 Yb0 2.209721 1_655
O10 Yb2 2.460022 1_555
O10 Yb1 2.657607 1_556
O11 Ti1 1.943279 1_565
O11 Yb1 2.209721 1_455
O11 Yb3 2.460022 1_555
O11 Yb0 2.657607 1_554
