# generated using pymatgen
data_Cu3O4
_symmetry_space_group_name_H-M   'P 1'
_cell_length_a   5.83010644
_cell_length_b   5.82833987
_cell_length_c   5.82875860
_cell_angle_alpha   118.54588952
_cell_angle_beta   109.97308649
_cell_angle_gamma   100.41488648
_symmetry_Int_Tables_number   1
_chemical_formula_structural   Cu3O4
_chemical_formula_sum   'Cu6 O8'
_cell_volume   148.64779494
_cell_formula_units_Z   2
loop_
 _symmetry_equiv_pos_site_id
 _symmetry_equiv_pos_as_xyz
  1  'x, y, z'
loop_
 _atom_site_type_symbol
 _atom_site_label
 _atom_site_symmetry_multiplicity
 _atom_site_fract_x
 _atom_site_fract_y
 _atom_site_fract_z
 _atom_site_occupancy
  Cu  Cu0  1  -0.00000000  -0.00000000  0.50000000  1
  Cu  Cu1  1  -0.00000000  0.50000000  0.50000000  1
  Cu  Cu2  1  -0.00000000  0.50000000  -0.00000000  1
  Cu  Cu3  1  0.50000000  0.50000000  0.50000000  1
  Cu  Cu4  1  -0.00000000  -0.00000000  -0.00000000  1
  Cu  Cu5  1  0.50000000  -0.00000000  -0.00000000  1
  O  O0  1  0.80361396  0.74990217  0.55351760  1
  O  O1  1  0.66464326  0.24483287  0.41982061  1
  O  O2  1  0.80365165  0.24994571  0.05356530  1
  O  O3  1  0.82502979  0.74470184  0.08004568  1
  O  O4  1  0.17497021  0.25529816  0.91995432  1
  O  O5  1  0.19634835  0.75005429  0.94643470  1
  O  O6  1  0.33535674  0.75516713  0.58017939  1
  O  O7  1  0.19638604  0.25009783  0.44648240  1
loop_
_geom_bond_atom_site_label_1
_geom_bond_atom_site_label_2
_geom_bond_distance
_geom_bond_site_symmetry_2
Cu0 O3 1.873711 1_445
Cu0 O4 1.873711 1_555
Cu0 O7 1.899510 1_555
Cu0 O0 1.899510 1_445
Cu1 O6 1.978149 1_555
Cu1 O1 1.978149 1_455
Cu1 O7 1.985536 1_555
Cu1 O0 1.985536 1_455
Cu1 O2 1.985705 1_455
Cu1 O5 1.985705 1_555
Cu2 O3 1.872840 1_455
Cu2 O4 1.872840 1_554
Cu2 O2 1.899414 1_455
Cu2 O5 1.899414 1_554
Cu3 O1 1.873470 1_555
Cu3 O6 1.873470 1_555
Cu3 O0 1.899583 1_555
Cu3 O7 1.899583 1_555
Cu4 O4 1.977922 1_554
Cu4 O3 1.977922 1_445
Cu4 O2 1.985563 1_455
Cu4 O5 1.985563 1_544
Cu4 O0 1.985918 1_444
Cu4 O7 1.985918 1_555
Cu5 O1 1.873093 1_555
Cu5 O6 1.873093 1_544
Cu5 O5 1.899732 1_544
Cu5 O2 1.899732 1_555
