# generated using pymatgen
data_ScH4(SO5)2
_symmetry_space_group_name_H-M   'P 1'
_cell_length_a   8.76019762
_cell_length_b   9.53064431
_cell_length_c   10.77599900
_cell_angle_alpha   90.00000000
_cell_angle_beta   90.00000000
_cell_angle_gamma   101.66892629
_symmetry_Int_Tables_number   1
_chemical_formula_structural   ScH4(SO5)2
_chemical_formula_sum   'Sc4 H16 S8 O40'
_cell_volume   881.09743941
_cell_formula_units_Z   4
loop_
 _symmetry_equiv_pos_site_id
 _symmetry_equiv_pos_as_xyz
  1  'x, y, z'
loop_
 _atom_site_type_symbol
 _atom_site_label
 _atom_site_symmetry_multiplicity
 _atom_site_fract_x
 _atom_site_fract_y
 _atom_site_fract_z
 _atom_site_occupancy
  Sc  Sc0  1  0.75437100  0.49667500  0.12560900  1
  Sc  Sc1  1  0.74562900  0.50332500  0.62560900  1
  Sc  Sc2  1  0.24562900  0.50332500  0.87439100  1
  Sc  Sc3  1  0.25437100  0.49667500  0.37439100  1
  H  H0  1  0.98650600  0.95776500  0.16795300  1
  H  H1  1  0.51349400  0.04223500  0.66795300  1
  H  H2  1  0.01349400  0.04223500  0.83204700  1
  H  H3  1  0.48650600  0.95776500  0.33204700  1
  H  H4  1  0.91756800  0.07218900  0.24846600  1
  H  H5  1  0.58243200  0.92781100  0.74846600  1
  H  H6  1  0.08243200  0.92781100  0.75153400  1
  H  H7  1  0.41756800  0.07218900  0.25153400  1
  H  H8  1  0.71684800  0.10375800  0.05887900  1
  H  H9  1  0.78315200  0.89624200  0.55887900  1
  H  H10  1  0.28315200  0.89624200  0.94112100  1
  H  H11  1  0.21684800  0.10375800  0.44112100  1
  H  H12  1  0.66133700  0.94178400  0.01753300  1
  H  H13  1  0.83866300  0.05821600  0.51753300  1
  H  H14  1  0.33866300  0.05821600  0.98246700  1
  H  H15  1  0.16133700  0.94178400  0.48246700  1
  S  S0  1  0.14031600  0.68117900  0.12640600  1
  S  S1  1  0.35968400  0.31882100  0.62640600  1
  S  S2  1  0.85968400  0.31882100  0.87359400  1
  S  S3  1  0.64031600  0.68117900  0.37359400  1
  S  S4  1  0.36011900  0.32150500  0.12303500  1
  S  S5  1  0.13988100  0.67849500  0.62303500  1
  S  S6  1  0.63988100  0.67849500  0.87696500  1
  S  S7  1  0.86011900  0.32150500  0.37696500  1
  O  O0  1  0.98914700  0.57633700  0.12417300  1
  O  O1  1  0.51085300  0.42366300  0.62417300  1
  O  O2  1  0.01085300  0.42366300  0.87582700  1
  O  O3  1  0.48914700  0.57633700  0.37582700  1
  O  O4  1  0.22663500  0.66210000  0.00916600  1
  O  O5  1  0.27336500  0.33790000  0.50916600  1
  O  O6  1  0.77336500  0.33790000  0.99083400  1
  O  O7  1  0.72663500  0.66210000  0.49083400  1
  O  O8  1  0.12174200  0.82866100  0.13577400  1
  O  O9  1  0.37825800  0.17133900  0.63577400  1
  O  O10  1  0.87825800  0.17133900  0.86422600  1
  O  O11  1  0.62174200  0.82866100  0.36422600  1
  O  O12  1  0.23360400  0.64310400  0.23284000  1
  O  O13  1  0.26639600  0.35689600  0.73283900  1
  O  O14  1  0.76639600  0.35689600  0.76716100  1
  O  O15  1  0.73360400  0.64310400  0.26716100  1
  O  O16  1  0.51496400  0.41992800  0.12443100  1
  O  O17  1  0.98503600  0.58007200  0.62443100  1
  O  O18  1  0.48503600  0.58007200  0.87556900  1
  O  O19  1  0.01496400  0.41992800  0.37556900  1
  O  O20  1  0.37407900  0.17083600  0.11403600  1
  O  O21  1  0.12592100  0.82916400  0.61403600  1
  O  O22  1  0.62592100  0.82916400  0.88596400  1
  O  O23  1  0.87407900  0.17083600  0.38596400  1
  O  O24  1  0.27563200  0.34256300  0.23937100  1
  O  O25  1  0.22436800  0.65743700  0.73937100  1
  O  O26  1  0.72436800  0.65743700  0.76062900  1
  O  O27  1  0.77563200  0.34256300  0.26062900  1
  O  O28  1  0.26895300  0.35867100  0.01570300  1
  O  O29  1  0.23104700  0.64132900  0.51570300  1
  O  O30  1  0.73104700  0.64132900  0.98429700  1
  O  O31  1  0.76895300  0.35867100  0.48429700  1
  O  O32  1  0.94485100  0.04707900  0.16274300  1
  O  O33  1  0.55514900  0.95292100  0.66274300  1
  O  O34  1  0.05514900  0.95292100  0.83725700  1
  O  O35  1  0.44485100  0.04707900  0.33725700  1
  O  O36  1  0.65979000  0.00962900  0.08807800  1
  O  O37  1  0.84021000  0.99037100  0.58807800  1
  O  O38  1  0.34021000  0.99037100  0.91192200  1
  O  O39  1  0.15979000  0.00962900  0.41192200  1
loop_
_geom_bond_atom_site_label_1
_geom_bond_atom_site_label_2
_geom_bond_distance
_geom_bond_site_symmetry_2
H0 O32 0.993243 1_565
H1 O33 0.993243 1_545
H2 O34 0.993243 1_545
H3 O35 0.993243 1_565
H4 O32 0.995413 1_555
H5 O33 0.995413 1_555
H6 O34 0.995413 1_555
H7 O35 0.995413 1_555
H8 O36 0.986033 1_555
H9 O37 0.986033 1_555
H10 O38 0.986033 1_555
H11 O39 0.986033 1_555
H12 O36 0.999861 1_565
H13 O37 0.999861 1_545
H14 O38 0.999861 1_545
H15 O39 0.999861 1_565
O0 S0 1.489105 1_655
O0 Sc0 2.043276 1_555
O1 S1 1.489105 1_555
O1 Sc1 2.043276 1_555
O2 S2 1.489105 1_455
O2 Sc2 2.043276 1_555
O3 S3 1.489105 1_555
O3 Sc3 2.043276 1_555
O4 S0 1.502200 1_555
O4 Sc2 2.128068 1_554
O5 S1 1.502200 1_555
O5 Sc3 2.128068 1_555
O6 S2 1.502200 1_555
O6 Sc0 2.128068 1_556
O7 S3 1.502200 1_555
O7 Sc1 2.128068 1_555
O8 S0 1.450823 1_555
O9 S1 1.450823 1_555
O10 S2 1.450823 1_555
O11 S3 1.450823 1_555
O12 S0 1.494974 1_555
O12 Sc3 2.100022 1_555
O13 S1 1.494965 1_555
O13 Sc2 2.100030 1_555
O14 S2 1.494965 1_555
O14 Sc1 2.100030 1_555
O15 S3 1.494965 1_555
O15 Sc0 2.100030 1_555
O16 S4 1.485074 1_555
O16 Sc0 2.076803 1_555
O17 S5 1.485074 1_655
O17 Sc1 2.076803 1_555
O18 S6 1.485074 1_555
O18 Sc2 2.076803 1_555
O19 S7 1.485074 1_455
O19 Sc3 2.076803 1_555
O20 S4 1.468813 1_555
O21 S5 1.468813 1_555
O22 S6 1.468813 1_555
O23 S7 1.468813 1_555
O24 S4 1.489883 1_555
O24 Sc3 2.102293 1_555
O25 S5 1.489883 1_555
O25 Sc2 2.102293 1_555
O26 S6 1.489883 1_555
O26 Sc1 2.102293 1_555
O27 S7 1.489883 1_555
O27 Sc0 2.102293 1_555
O28 S4 1.488442 1_555
O28 Sc2 2.091701 1_554
O29 S5 1.488442 1_555
O29 Sc3 2.091701 1_555
O30 S6 1.488442 1_555
O30 Sc0 2.091701 1_556
O31 S7 1.488442 1_555
O31 Sc1 2.091701 1_555
