# generated using pymatgen
data_AlH3
_symmetry_space_group_name_H-M   'P 1'
_cell_length_a   6.34890043
_cell_length_b   6.34890043
_cell_length_c   6.34890043
_cell_angle_alpha   60.00000000
_cell_angle_beta   60.00000000
_cell_angle_gamma   60.00000000
_symmetry_Int_Tables_number   1
_chemical_formula_structural   AlH3
_chemical_formula_sum   'Al4 H12'
_cell_volume   180.95915150
_cell_formula_units_Z   4
loop_
 _symmetry_equiv_pos_site_id
 _symmetry_equiv_pos_as_xyz
  1  'x, y, z'
loop_
 _atom_site_type_symbol
 _atom_site_label
 _atom_site_symmetry_multiplicity
 _atom_site_fract_x
 _atom_site_fract_y
 _atom_site_fract_z
 _atom_site_occupancy
  Al  Al0  1  0.50000000  0.50000000  -0.00000000  1
  Al  Al1  1  0.50000000  0.00000000  0.50000000  1
  Al  Al2  1  0.00000000  0.50000000  0.50000000  1
  Al  Al3  1  0.50000000  0.50000000  0.50000000  1
  H  H0  1  0.43009041  0.81990959  0.81990959  1
  H  H1  1  0.81990959  0.43009041  0.43009041  1
  H  H2  1  0.81990959  0.43009041  0.81990959  1
  H  H3  1  0.43009041  0.81990959  0.43009041  1
  H  H4  1  0.81990959  0.81990959  0.43009041  1
  H  H5  1  0.43009041  0.43009041  0.81990959  1
  H  H6  1  0.56990959  0.18009041  0.18009041  1
  H  H7  1  0.18009041  0.56990959  0.56990959  1
  H  H8  1  0.18009041  0.56990959  0.18009041  1
  H  H9  1  0.56990959  0.18009041  0.56990959  1
  H  H10  1  0.18009041  0.18009041  0.56990959  1
  H  H11  1  0.56990959  0.56990959  0.18009041  1
loop_
_geom_bond_atom_site_label_1
_geom_bond_atom_site_label_2
_geom_bond_distance
_geom_bond_site_symmetry_2
Al0 H11 1.706836 1_555
Al0 H8 1.706836 1_555
Al0 H2 1.706836 1_554
Al0 H0 1.706836 1_554
Al0 H6 1.706836 1_555
Al0 H5 1.706836 1_554
Al1 H9 1.706836 1_555
Al1 H6 1.706836 1_555
Al1 H10 1.706836 1_555
Al1 H0 1.706836 1_545
Al1 H4 1.706836 1_545
Al1 H3 1.706836 1_545
Al2 H7 1.706836 1_555
Al2 H8 1.706836 1_555
Al2 H10 1.706836 1_555
Al2 H4 1.706836 1_455
Al2 H2 1.706836 1_455
Al2 H1 1.706836 1_455
Al3 H5 1.706836 1_555
Al3 H3 1.706836 1_555
Al3 H1 1.706836 1_555
Al3 H11 1.706836 1_555
Al3 H7 1.706836 1_555
Al3 H9 1.706836 1_555
