# generated using pymatgen
data_Mn2AlCu3
_symmetry_space_group_name_H-M   'P 1'
_cell_length_a   4.85062019
_cell_length_b   4.85062019
_cell_length_c   4.85062074
_cell_angle_alpha   59.77862357
_cell_angle_beta   59.77862357
_cell_angle_gamma   59.77861710
_symmetry_Int_Tables_number   1
_chemical_formula_structural   Mn2AlCu3
_chemical_formula_sum   'Mn2 Al1 Cu3'
_cell_volume   80.29500496
_cell_formula_units_Z   1
loop_
 _symmetry_equiv_pos_site_id
 _symmetry_equiv_pos_as_xyz
  1  'x, y, z'
loop_
 _atom_site_type_symbol
 _atom_site_label
 _atom_site_symmetry_multiplicity
 _atom_site_fract_x
 _atom_site_fract_y
 _atom_site_fract_z
 _atom_site_occupancy
  Mn  Mn0  1  0.12602200  0.12602200  0.12602200  1
  Mn  Mn1  1  0.87397800  0.87397800  0.87397800  1
  Al  Al0  1  0.50000000  0.50000000  0.50000000  1
  Cu  Cu0  1  0.50000000  0.00000000  0.50000000  1
  Cu  Cu1  1  0.00000000  0.50000000  0.50000000  1
  Cu  Cu2  1  0.50000000  0.50000000  0.00000000  1
loop_
_geom_bond_atom_site_label_1
_geom_bond_atom_site_label_2
_geom_bond_distance
_geom_bond_site_symmetry_2
Mn0 Mn1 2.954045 1_544
Mn0 Mn1 2.954045 1_454
Mn0 Mn1 2.954045 1_445
Mn0 Mn1 2.999673 1_444
Al0 Cu1 2.425310 1_555
Al0 Cu1 2.425310 1_655
Al0 Cu0 2.425310 1_565
Al0 Cu0 2.425310 1_555
Al0 Cu2 2.425310 1_555
Al0 Cu2 2.425310 1_556
Al0 Mn1 2.832738 1_455
Al0 Mn1 2.832738 1_545
Al0 Mn0 2.832738 1_655
Al0 Mn0 2.832738 1_565
Al0 Mn1 2.832738 1_554
Al0 Mn0 2.832738 1_556
Cu0 Cu1 2.417190 1_555
Cu0 Cu1 2.417190 1_645
Cu0 Cu2 2.417190 1_555
Cu0 Cu2 2.417190 1_546
Cu0 Mn1 2.834631 1_545
Cu0 Mn0 2.834631 1_555
Cu0 Mn0 2.844700 1_655
Cu0 Mn1 2.844700 1_445
Cu0 Mn0 2.844700 1_556
Cu0 Mn1 2.844700 1_544
Cu1 Cu2 2.417190 1_555
Cu1 Cu2 2.417190 1_456
Cu1 Mn1 2.834631 1_455
Cu1 Mn0 2.834631 1_555
Cu1 Mn0 2.844700 1_565
Cu1 Mn1 2.844700 1_445
Cu1 Mn0 2.844700 1_556
Cu1 Mn1 2.844700 1_454
Cu2 Mn1 2.834631 1_554
Cu2 Mn0 2.834631 1_555
Cu2 Mn0 2.844700 1_655
Cu2 Mn0 2.844700 1_565
Cu2 Mn1 2.844700 1_544
Cu2 Mn1 2.844700 1_454
