# generated using pymatgen
data_Li2Co(CO3)2
_symmetry_space_group_name_H-M   'P 1'
_cell_length_a   6.42652937
_cell_length_b   7.95232572
_cell_length_c   9.70583579
_cell_angle_alpha   90.03010149
_cell_angle_beta   76.56808420
_cell_angle_gamma   90.06547837
_symmetry_Int_Tables_number   1
_chemical_formula_structural   Li2Co(CO3)2
_chemical_formula_sum   'Li8 Co4 C8 O24'
_cell_volume   482.45674817
_cell_formula_units_Z   4
loop_
 _symmetry_equiv_pos_site_id
 _symmetry_equiv_pos_as_xyz
  1  'x, y, z'
loop_
 _atom_site_type_symbol
 _atom_site_label
 _atom_site_symmetry_multiplicity
 _atom_site_fract_x
 _atom_site_fract_y
 _atom_site_fract_z
 _atom_site_occupancy
  Li  Li0  1  0.58276586  0.07811194  0.18034574  1
  Li  Li1  1  0.08313148  0.07888763  0.68053187  1
  Li  Li2  1  0.83278810  0.41978157  0.43027953  1
  Li  Li3  1  0.33349045  0.41952434  0.93045601  1
  Li  Li4  1  0.03114688  0.92716070  0.37539864  1
  Li  Li5  1  0.52966972  0.92833290  0.87431792  1
  Li  Li6  1  0.77855993  0.56969031  0.12348490  1
  Li  Li7  1  0.28023260  0.56973671  0.62442865  1
  Co  Co0  1  0.76371370  0.49794435  0.75449035  1
  Co  Co1  1  0.01393014  0.00093646  0.00483023  1
  Co  Co2  1  0.26286183  0.49750860  0.25412228  1
  Co  Co3  1  0.51422719  0.00047642  0.50411397  1
  C  C0  1  0.50991533  0.74023755  0.36160807  1
  C  C1  1  0.01056591  0.74154205  0.86147574  1
  C  C2  1  0.25978291  0.75741187  0.11174724  1
  C  C3  1  0.75998151  0.75745055  0.61174316  1
  C  C4  1  0.24134245  0.23284856  0.39643333  1
  C  C5  1  0.74158487  0.23330917  0.89676991  1
  C  C6  1  0.99081870  0.26576748  0.14670747  1
  C  C7  1  0.49190399  0.26543483  0.64676991  1
  O  O0  1  0.40438138  0.74452909  0.49297199  1
  O  O1  1  0.90427952  0.74552087  0.99267319  1
  O  O2  1  0.15310687  0.75274746  0.24277863  1
  O  O3  1  0.65308140  0.75279246  0.74279013  1
  O  O4  1  0.58955834  0.88165409  0.30564709  1
  O  O5  1  0.09027568  0.88300553  0.80566019  1
  O  O6  1  0.33975317  0.61619036  0.05543162  1
  O  O7  1  0.84011012  0.61631560  0.55547757  1
  O  O8  1  0.21369951  0.09104343  0.46624899  1
  O  O9  1  0.71331642  0.09130723  0.96625809  1
  O  O10  1  0.96182092  0.40800646  0.21580257  1
  O  O11  1  0.46319235  0.40742017  0.71648575  1
  O  O12  1  0.54102939  0.60051601  0.29065590  1
  O  O13  1  0.04164228  0.60208449  0.79028297  1
  O  O14  1  0.29153149  0.89731352  0.04114186  1
  O  O15  1  0.79158117  0.89733005  0.54124805  1
  O  O16  1  0.14834887  0.37046628  0.45216739  1
  O  O17  1  0.64976135  0.37125683  0.95291984  1
  O  O18  1  0.89905983  0.12747972  0.20294170  1
  O  O19  1  0.40073343  0.12697250  0.70261927  1
  O  O20  1  0.35754422  0.24082182  0.26849164  1
  O  O21  1  0.85776020  0.24120508  0.76868920  1
  O  O22  1  0.10757221  0.25790475  0.01882653  1
  O  O23  1  0.60757233  0.25802022  0.51858687  1
loop_
_geom_bond_atom_site_label_1
_geom_bond_atom_site_label_2
_geom_bond_distance
_geom_bond_site_symmetry_2
Li0 O20 1.982157 1_555
Li0 O4 1.987089 1_545
Li0 O9 2.054918 1_554
Li0 O18 2.130533 1_555
Li1 O21 1.980756 1_455
Li1 O5 1.982826 1_545
Li1 O8 2.056268 1_555
Li1 O19 2.135319 1_555
Li2 O23 1.976058 1_555
Li2 O7 1.986422 1_555
Li2 O10 2.056161 1_555
Li2 O16 2.124525 1_655
Li3 O22 1.978339 1_556
Li3 O6 1.984808 1_556
Li3 O11 2.052496 1_555
Li3 O17 2.129266 1_555
Li4 O2 1.930496 1_555
Li4 O15 1.966200 1_455
Li4 O8 2.080442 1_565
Li4 O18 2.593444 1_465
Li5 O3 1.933305 1_555
Li5 O14 1.967999 1_556
Li5 O9 2.086492 1_565
Li5 O19 2.570275 1_565
Li6 O1 1.934581 1_554
Li6 O12 1.967911 1_555
Li6 O10 2.082791 1_555
Li6 O17 2.558656 1_554
Li7 O0 1.929505 1_555
Li7 O13 1.965269 1_555
Li7 O11 2.083200 1_555
Li7 O16 2.584061 1_555
Co0 O13 2.069136 1_655
Co0 O7 2.102008 1_555
Co0 O21 2.143485 1_555
Co0 O17 2.146058 1_555
Co0 O3 2.160251 1_555
Co0 O11 2.170656 1_555
Co1 O14 2.069234 1_545
Co1 O5 2.101351 1_544
Co1 O22 2.142746 1_555
Co1 O18 2.143628 1_455
Co1 O1 2.161285 1_444
Co1 O9 2.174475 1_454
Co2 O12 2.069607 1_555
Co2 O6 2.100480 1_555
Co2 O20 2.144526 1_555
Co2 O16 2.144815 1_555
Co2 O2 2.160803 1_555
Co2 O10 2.172243 1_455
Co3 O15 2.069265 1_545
Co3 O4 2.098500 1_545
Co3 O19 2.145391 1_555
Co3 O23 2.147145 1_555
Co3 O0 2.164425 1_545
Co3 O8 2.171890 1_555
C0 O12 1.297891 1_555
C0 O0 1.298088 1_555
C0 O4 1.300713 1_555
C1 O13 1.297244 1_555
C1 O1 1.298069 1_455
C1 O5 1.300703 1_555
C2 O2 1.297574 1_555
C2 O14 1.297814 1_555
C2 O6 1.301642 1_555
C3 O15 1.297105 1_555
C3 O3 1.298136 1_555
C3 O7 1.301193 1_555
C4 O20 1.293394 1_555
C4 O16 1.303123 1_555
C4 O8 1.306449 1_555
C5 O21 1.294419 1_555
C5 O17 1.303877 1_555
C5 O9 1.306323 1_555
C6 O22 1.294146 1_655
C6 O18 1.305609 1_555
C6 O10 1.305966 1_555
C7 O23 1.293931 1_555
C7 O19 1.304278 1_555
C7 O11 1.307084 1_555
