# generated using pymatgen
data_Nb4Al5Co3
_symmetry_space_group_name_H-M   'P 1'
_cell_length_a   5.05046476
_cell_length_b   5.05046500
_cell_length_c   7.99110300
_cell_angle_alpha   90.00000000
_cell_angle_beta   90.00000000
_cell_angle_gamma   60.00000496
_symmetry_Int_Tables_number   1
_chemical_formula_structural   Nb4Al5Co3
_chemical_formula_sum   'Nb4 Al5 Co3'
_cell_volume   176.52250939
_cell_formula_units_Z   1
loop_
 _symmetry_equiv_pos_site_id
 _symmetry_equiv_pos_as_xyz
  1  'x, y, z'
loop_
 _atom_site_type_symbol
 _atom_site_label
 _atom_site_symmetry_multiplicity
 _atom_site_fract_x
 _atom_site_fract_y
 _atom_site_fract_z
 _atom_site_occupancy
  Nb  Nb0  1  0.33333400  0.33333300  0.04882300  1
  Nb  Nb1  1  0.66666600  0.66666700  0.92353000  1
  Nb  Nb2  1  0.66666600  0.66666700  0.57647000  1
  Nb  Nb3  1  0.33333400  0.33333300  0.45117700  1
  Al  Al0  1  0.83034800  0.33930000  0.25000000  1
  Al  Al1  1  0.33930000  0.83035300  0.25000000  1
  Al  Al2  1  0.83035300  0.83034800  0.25000000  1
  Al  Al3  1  0.00000000  0.00000000  0.52584400  1
  Al  Al4  1  0.00000000  0.00000000  0.97415600  1
  Co  Co0  1  0.17641900  0.64716900  0.75000000  1
  Co  Co1  1  0.64716900  0.17641200  0.75000000  1
  Co  Co2  1  0.17641200  0.17641900  0.75000000  1
loop_
_geom_bond_atom_site_label_1
_geom_bond_atom_site_label_2
_geom_bond_distance
_geom_bond_site_symmetry_2
Nb0 Nb1 3.082992 1_554
Nb0 Nb1 3.082993 1_544
Nb0 Nb1 3.083001 1_454
Nb0 Nb3 3.215252 1_555
Nb1 Nb2 2.773392 1_555
Nb2 Nb3 3.082992 1_555
Nb2 Nb3 3.082993 1_565
Nb2 Nb3 3.083001 1_655
Al0 Al2 2.480033 1_555
Al0 Al1 2.480033 1_555
Al0 Al2 2.570432 1_545
Al0 Al1 2.570432 1_645
Al0 Al3 2.657312 1_655
Al0 Al4 2.657312 1_654
Al0 Nb1 2.975956 1_554
Al0 Nb2 2.975956 1_555
Al0 Nb3 2.993640 1_555
Al0 Nb0 2.993640 1_555
Al0 Nb0 2.993661 1_655
Al0 Nb3 2.993661 1_655
Al1 Al2 2.480033 1_555
Al1 Al2 2.570432 1_455
Al1 Al3 2.657312 1_565
Al1 Al4 2.657312 1_564
Al1 Nb1 2.975954 1_554
Al1 Nb2 2.975954 1_555
Al1 Nb3 2.993637 1_565
Al1 Nb0 2.993637 1_565
Al1 Nb0 2.993663 1_555
Al1 Nb3 2.993663 1_555
Al2 Al3 2.657309 1_665
Al2 Al4 2.657309 1_664
Al2 Nb1 2.975958 1_554
Al2 Nb2 2.975958 1_555
Al2 Nb0 2.993642 1_655
Al2 Nb3 2.993642 1_655
Al2 Nb3 2.993659 1_565
Al2 Nb0 2.993659 1_565
Al3 Co2 2.364345 1_555
Al3 Co1 2.364345 1_455
Al3 Co0 2.364345 1_545
Al3 Nb2 2.943815 1_545
Al3 Nb2 2.943820 1_445
Al3 Nb2 2.943820 1_455
Al3 Nb3 2.976306 1_455
Al3 Nb3 2.976310 1_555
Al3 Nb3 2.976311 1_545
Al4 Co2 2.364345 1_555
Al4 Co1 2.364345 1_455
Al4 Co0 2.364345 1_545
Al4 Nb1 2.943815 1_545
Al4 Nb1 2.943820 1_445
Al4 Nb1 2.943820 1_455
Al4 Nb0 2.976306 1_456
Al4 Nb0 2.976310 1_556
Al4 Nb0 2.976311 1_546
Co0 Co2 2.377524 1_555
Co0 Co1 2.377524 1_555
Co0 Co2 2.672941 1_565
Co0 Co1 2.672941 1_465
Co0 Nb0 2.754342 1_556
Co0 Nb3 2.754342 1_555
Co0 Nb2 2.882169 1_555
Co0 Nb1 2.882169 1_555
Co0 Nb2 2.882204 1_455
Co0 Nb1 2.882204 1_455
Co1 Co2 2.377524 1_555
Co1 Co2 2.672941 1_655
Co1 Nb3 2.754340 1_555
Co1 Nb0 2.754340 1_556
Co1 Nb2 2.882171 1_545
Co1 Nb1 2.882171 1_545
Co1 Nb2 2.882202 1_555
Co1 Nb1 2.882202 1_555
Co2 Nb3 2.754342 1_555
Co2 Nb0 2.754342 1_556
Co2 Nb2 2.882173 1_455
Co2 Nb1 2.882173 1_455
Co2 Nb2 2.882200 1_545
Co2 Nb1 2.882200 1_545
