# generated using pymatgen
data_NdCrS3
_symmetry_space_group_name_H-M   'P 1'
_cell_length_a   3.78190129
_cell_length_b   7.81500959
_cell_length_c   13.05412393
_cell_angle_alpha   90.00000000
_cell_angle_beta   90.00000000
_cell_angle_gamma   90.00000000
_symmetry_Int_Tables_number   1
_chemical_formula_structural   NdCrS3
_chemical_formula_sum   'Nd4 Cr4 S12'
_cell_volume   385.82239799
_cell_formula_units_Z   4
loop_
 _symmetry_equiv_pos_site_id
 _symmetry_equiv_pos_as_xyz
  1  'x, y, z'
loop_
 _atom_site_type_symbol
 _atom_site_label
 _atom_site_symmetry_multiplicity
 _atom_site_fract_x
 _atom_site_fract_y
 _atom_site_fract_z
 _atom_site_occupancy
  Nd  Nd0  1  0.25000000  0.58873207  0.32778084  1
  Nd  Nd1  1  0.75000000  0.41126793  0.67221916  1
  Nd  Nd2  1  0.25000000  0.08873207  0.17221916  1
  Nd  Nd3  1  0.75000000  0.91126793  0.82778084  1
  Cr  Cr0  1  0.25000000  0.83853107  0.55169962  1
  Cr  Cr1  1  0.75000000  0.16146893  0.44830038  1
  Cr  Cr2  1  0.25000000  0.33853107  0.94830038  1
  Cr  Cr3  1  0.75000000  0.66146893  0.05169962  1
  S  S0  1  0.25000000  0.98808952  0.39316844  1
  S  S1  1  0.75000000  0.01191048  0.60683156  1
  S  S2  1  0.25000000  0.48808952  0.10683156  1
  S  S3  1  0.75000000  0.51191048  0.89316844  1
  S  S4  1  0.25000000  0.83947619  0.99349809  1
  S  S5  1  0.75000000  0.16052381  0.00650191  1
  S  S6  1  0.25000000  0.33947619  0.50650191  1
  S  S7  1  0.75000000  0.66052381  0.49349809  1
  S  S8  1  0.75000000  0.80602873  0.21223807  1
  S  S9  1  0.25000000  0.19397127  0.78776193  1
  S  S10  1  0.75000000  0.30602873  0.28776193  1
  S  S11  1  0.25000000  0.69397127  0.71223807  1
loop_
_geom_bond_atom_site_label_1
_geom_bond_atom_site_label_2
_geom_bond_distance
_geom_bond_site_symmetry_2
Nd0 S7 2.927510 1_555
Nd0 S7 2.927510 1_455
Nd0 S10 2.954614 1_455
Nd0 S10 2.954614 1_555
Nd0 S8 2.955417 1_455
Nd0 S8 2.955417 1_555
Nd0 S2 2.989615 1_555
Nd0 S6 3.039337 1_555
Nd0 S0 3.235603 1_555
Nd1 S6 2.927510 1_555
Nd1 S6 2.927510 1_655
Nd1 S11 2.954614 1_555
Nd1 S11 2.954614 1_655
Nd1 S9 2.955417 1_655
Nd1 S9 2.955417 1_555
Nd1 S3 2.989615 1_555
Nd1 S7 3.039337 1_555
Nd1 S1 3.235603 1_555
Nd2 S5 2.927510 1_455
Nd2 S5 2.927510 1_555
Nd2 S8 2.954614 1_545
Nd2 S8 2.954614 1_445
Nd2 S10 2.955417 1_555
Nd2 S10 2.955417 1_455
Nd2 S0 2.989615 1_545
Nd2 S4 3.039337 1_544
Nd2 S2 3.235603 1_555
Nd3 S4 2.927510 1_555
Nd3 S4 2.927510 1_655
Nd3 S9 2.954614 1_665
Nd3 S9 2.954614 1_565
Nd3 S11 2.955417 1_655
Nd3 S11 2.955417 1_555
Nd3 S1 2.989615 1_565
Nd3 S5 3.039337 1_566
Nd3 S3 3.235603 1_555
Cr0 S0 2.376734 1_555
Cr0 S11 2.380801 1_555
Cr0 S1 2.435073 1_465
Cr0 S1 2.435073 1_565
Cr0 S7 2.467424 1_455
Cr0 S7 2.467424 1_555
Cr1 S1 2.376734 1_555
Cr1 S10 2.380801 1_555
Cr1 S0 2.435073 1_645
Cr1 S0 2.435073 1_545
Cr1 S6 2.467424 1_555
Cr1 S6 2.467424 1_655
Cr2 S2 2.376734 1_556
Cr2 S9 2.380801 1_555
Cr2 S3 2.435073 1_455
Cr2 S3 2.435073 1_555
Cr2 S5 2.467424 1_556
Cr2 S5 2.467424 1_456
Cr3 S3 2.376734 1_554
Cr3 S8 2.380801 1_555
Cr3 S2 2.435073 1_555
Cr3 S2 2.435073 1_655
Cr3 S4 2.467424 1_654
Cr3 S4 2.467424 1_554
