# generated using pymatgen
data_CaTiSn(PO4)3
_symmetry_space_group_name_H-M   'P 1'
_cell_length_a   8.98097891
_cell_length_b   8.98097920
_cell_length_c   8.98097933
_cell_angle_alpha   58.52300131
_cell_angle_beta   58.52300436
_cell_angle_gamma   58.52301278
_symmetry_Int_Tables_number   1
_chemical_formula_structural   CaTiSn(PO4)3
_chemical_formula_sum   'Ca2 Ti2 Sn2 P6 O24'
_cell_volume   494.91507127
_cell_formula_units_Z   2
loop_
 _symmetry_equiv_pos_site_id
 _symmetry_equiv_pos_as_xyz
  1  'x, y, z'
loop_
 _atom_site_type_symbol
 _atom_site_label
 _atom_site_symmetry_multiplicity
 _atom_site_fract_x
 _atom_site_fract_y
 _atom_site_fract_z
 _atom_site_occupancy
  Ca  Ca0  1  0.00338300  0.00338300  0.00338300  1
  Ca  Ca1  1  0.50338300  0.50338300  0.50338300  1
  Ti  Ti0  1  0.14598300  0.14598300  0.14598300  1
  Ti  Ti1  1  0.64598300  0.64598300  0.64598300  1
  Sn  Sn0  1  0.35267000  0.35267000  0.35267000  1
  Sn  Sn1  1  0.85267000  0.85267000  0.85267000  1
  P  P0  1  0.04060300  0.45639300  0.74960300  1
  P  P1  1  0.45639300  0.74960300  0.04060300  1
  P  P2  1  0.74960300  0.04060300  0.45639300  1
  P  P3  1  0.24960300  0.95639300  0.54060300  1
  P  P4  1  0.54060300  0.24960300  0.95639300  1
  P  P5  1  0.95639300  0.54060300  0.24960300  1
  O  O0  1  0.11518000  0.51746900  0.29185800  1
  O  O1  1  0.29185800  0.11518000  0.51746900  1
  O  O2  1  0.06046900  0.27243500  0.91708200  1
  O  O3  1  0.51746900  0.29185800  0.11518000  1
  O  O4  1  0.01746900  0.61518000  0.79185800  1
  O  O5  1  0.23012900  0.43624800  0.58305800  1
  O  O6  1  0.27243500  0.91708200  0.06046900  1
  O  O7  1  0.43624800  0.58305800  0.23012900  1
  O  O8  1  0.20164400  0.99440300  0.38138700  1
  O  O9  1  0.58305800  0.23012900  0.43624800  1
  O  O10  1  0.08305800  0.93624800  0.73012900  1
  O  O11  1  0.38138700  0.20164400  0.99440300  1
  O  O12  1  0.61518000  0.79185800  0.01746900  1
  O  O13  1  0.91708200  0.06046900  0.27243500  1
  O  O14  1  0.41708200  0.77243500  0.56046900  1
  O  O15  1  0.79185800  0.01746900  0.61518000  1
  O  O16  1  0.56046900  0.41708200  0.77243500  1
  O  O17  1  0.73012900  0.08305800  0.93624800  1
  O  O18  1  0.77243500  0.56046900  0.41708200  1
  O  O19  1  0.99440300  0.38138700  0.20164400  1
  O  O20  1  0.49440300  0.70164400  0.88138700  1
  O  O21  1  0.93624800  0.73012900  0.08305800  1
  O  O22  1  0.70164400  0.88138700  0.49440300  1
  O  O23  1  0.88138700  0.49440300  0.70164400  1
loop_
_geom_bond_atom_site_label_1
_geom_bond_atom_site_label_2
_geom_bond_distance
_geom_bond_site_symmetry_2
Ca0 O2 2.371762 1_554
Ca0 O6 2.371763 1_545
Ca0 O13 2.371763 1_455
Ca0 O21 2.481718 1_445
Ca0 O17 2.481718 1_454
Ca0 O10 2.481718 1_544
Ca1 O18 2.371762 1_555
Ca1 O16 2.371763 1_555
Ca1 O14 2.371763 1_555
Ca1 O5 2.481718 1_555
Ca1 O7 2.481718 1_555
Ca1 O9 2.481718 1_555
O0 P5 1.547333 1_455
O0 Sn0 2.028236 1_555
O1 P3 1.547333 1_545
O1 Sn0 2.028235 1_555
O2 P0 1.549530 1_555
O2 Ti0 2.098935 1_556
O3 P4 1.547333 1_554
O3 Sn0 2.028236 1_555
O4 P0 1.547333 1_555
O4 Sn1 2.028236 1_455
O5 P0 1.571450 1_555
O5 Sn0 2.106423 1_555
O6 P1 1.549531 1_555
O6 Ti0 2.098935 1_565
O7 P1 1.571450 1_555
O7 Sn0 2.106423 1_555
O8 P3 1.525315 1_555
O8 Ti0 1.990021 1_565
O9 P2 1.571450 1_555
O9 Sn0 2.106423 1_555
O10 P3 1.571450 1_555
O10 Sn1 2.106423 1_455
O11 P4 1.525315 1_555
O11 Ti0 1.990020 1_556
O12 P1 1.547333 1_555
O12 Sn1 2.028235 1_554
O13 P2 1.549530 1_555
O13 Ti0 2.098935 1_655
O14 P3 1.549531 1_555
O14 Ti1 2.098935 1_555
O15 P2 1.547333 1_555
O15 Sn1 2.028236 1_545
O16 P4 1.549530 1_555
O16 Ti1 2.098935 1_555
O17 P4 1.571450 1_555
O17 Sn1 2.106423 1_545
O18 P5 1.549530 1_555
O18 Ti1 2.098935 1_555
O19 P5 1.525316 1_555
O19 Ti0 1.990021 1_655
O20 P1 1.525315 1_556
O20 Ti1 1.990021 1_555
O21 P5 1.571450 1_555
O21 Sn1 2.106423 1_554
O22 P2 1.525315 1_565
O22 Ti1 1.990020 1_555
O23 P0 1.525315 1_655
O23 Ti1 1.990021 1_555
