# generated using pymatgen
data_MgGa5
_symmetry_space_group_name_H-M   'P 1'
_cell_length_a   5.55729397
_cell_length_b   5.55729397
_cell_length_c   6.57537922
_cell_angle_alpha   72.20118463
_cell_angle_beta   72.20118463
_cell_angle_gamma   34.63410799
_symmetry_Int_Tables_number   1
_chemical_formula_structural   MgGa5
_chemical_formula_sum   'Mg1 Ga5'
_cell_volume   109.33596905
_cell_formula_units_Z   1
loop_
 _symmetry_equiv_pos_site_id
 _symmetry_equiv_pos_as_xyz
  1  'x, y, z'
loop_
 _atom_site_type_symbol
 _atom_site_label
 _atom_site_symmetry_multiplicity
 _atom_site_fract_x
 _atom_site_fract_y
 _atom_site_fract_z
 _atom_site_occupancy
  Mg  Mg0  1  0.61589762  0.61589762  0.27226063  1
  Ga  Ga0  1  0.99348915  0.99348915  0.00502396  1
  Ga  Ga1  1  0.33352155  0.33352155  0.33740179  1
  Ga  Ga2  1  0.94549943  0.94549943  0.61581161  1
  Ga  Ga3  1  0.66416008  0.66416008  0.67791361  1
  Ga  Ga4  1  0.28076617  0.28076617  0.92492141  1
loop_
_geom_bond_atom_site_label_1
_geom_bond_atom_site_label_2
_geom_bond_distance
_geom_bond_site_symmetry_2
Ga0 Ga2 2.764674 1_554
Ga0 Ga1 2.831659 1_655
Ga0 Ga1 2.831659 1_565
Ga0 Ga3 2.854429 1_654
Ga0 Ga3 2.854429 1_564
Ga0 Ga4 2.922502 1_664
Ga0 Ga4 2.978222 1_654
Ga0 Ga4 2.978222 1_564
Ga0 Mg0 2.995423 1_565
Ga0 Mg0 2.995423 1_655
Ga1 Mg0 2.887738 1_555
Ga1 Ga3 2.898654 1_545
Ga1 Ga3 2.898654 1_455
Ga1 Ga4 2.939677 1_554
Ga1 Mg0 2.980836 1_545
Ga1 Mg0 2.980836 1_455
Ga1 Ga2 2.981988 1_545
Ga1 Ga2 2.981988 1_455
Ga2 Ga4 2.765440 1_565
Ga2 Ga4 2.765440 1_655
Ga2 Ga3 2.880579 1_555
Ga2 Mg0 2.914246 1_565
Ga2 Mg0 2.914246 1_655
Ga2 Ga3 2.982099 1_655
Ga2 Ga3 2.982099 1_565
Ga3 Ga4 2.862164 1_565
Ga3 Ga4 2.862164 1_655
Ga3 Mg0 2.872556 1_555
Ga4 Mg0 2.907616 1_546
Ga4 Mg0 2.907616 1_456
