# generated using pymatgen
data_Ca(FeO2)2
_symmetry_space_group_name_H-M   'P 1'
_cell_length_a   6.26974700
_cell_length_b   6.32113869
_cell_length_c   15.28387872
_cell_angle_alpha   90.33766010
_cell_angle_beta   89.97749987
_cell_angle_gamma   119.63578319
_symmetry_Int_Tables_number   1
_chemical_formula_structural   Ca(FeO2)2
_chemical_formula_sum   'Ca6 Fe12 O24'
_cell_volume   526.48064482
_cell_formula_units_Z   6
loop_
 _symmetry_equiv_pos_site_id
 _symmetry_equiv_pos_as_xyz
  1  'x, y, z'
loop_
 _atom_site_type_symbol
 _atom_site_label
 _atom_site_symmetry_multiplicity
 _atom_site_fract_x
 _atom_site_fract_y
 _atom_site_fract_z
 _atom_site_occupancy
  Ca  Ca0  1  0.84186700  0.17959800  0.04099600  1
  Ca  Ca1  1  0.16018100  0.82583400  0.33108300  1
  Ca  Ca2  1  0.33431800  0.16614900  0.16739500  1
  Ca  Ca3  1  0.83847900  0.17234500  0.66883200  1
  Ca  Ca4  1  0.00233800  0.50016900  0.50054300  1
  Ca  Ca5  1  0.66346300  0.82874600  0.83262200  1
  Fe  Fe0  1  0.82394400  0.66018300  0.16406200  1
  Fe  Fe1  1  0.50739200  0.51363700  0.38124400  1
  Fe  Fe2  1  0.49827400  0.50282900  0.00575500  1
  Fe  Fe3  1  0.34035000  0.65952600  0.16718100  1
  Fe  Fe4  1  0.50033700  0.00093200  0.49910900  1
  Fe  Fe5  1  0.17942600  0.85518000  0.71026900  1
  Fe  Fe6  1  0.00131100  0.99961100  0.49993400  1
  Fe  Fe7  1  0.16392900  0.33821700  0.83264100  1
  Fe  Fe8  1  0.82424100  0.14779200  0.28735500  1
  Fe  Fe9  1  0.65259900  0.32633600  0.83534000  1
  Fe  Fe10  1  0.49541900  0.48546200  0.62091200  1
  Fe  Fe11  1  0.15105200  0.81181000  0.95818300  1
  O  O0  1  0.66255300  0.38220200  0.08435600  1
  O  O1  1  0.51292400  0.52062900  0.25177700  1
  O  O2  1  0.22051600  0.38498800  0.08620700  1
  O  O3  1  0.64431200  0.79138200  0.08896000  1
  O  O4  1  0.35573500  0.69330200  0.42277800  1
  O  O5  1  0.99623300  0.48953500  0.23665000  1
  O  O6  1  0.18193200  0.86059100  0.57829600  1
  O  O7  1  0.49973800  0.97233000  0.24148800  1
  O  O8  1  0.83706200  0.69163400  0.42380300  1
  O  O9  1  0.14946600  0.80878200  0.08477600  1
  O  O10  1  0.33085000  0.16179100  0.42437100  1
  O  O11  1  0.97225800  0.97356200  0.24032300  1
  O  O12  1  0.02691400  0.02518900  0.75831900  1
  O  O13  1  0.66940800  0.83478900  0.57634700  1
  O  O14  1  0.16741800  0.30827200  0.57739300  1
  O  O15  1  0.50173500  0.02733100  0.75740500  1
  O  O16  1  0.84652300  0.20125600  0.89470800  1
  O  O17  1  0.82159900  0.14238600  0.41966200  1
  O  O18  1  0.02167100  0.51909800  0.75736200  1
  O  O19  1  0.64570100  0.30809400  0.57740200  1
  O  O20  1  0.33707300  0.18322900  0.91837200  1
  O  O21  1  0.80738000  0.63464700  0.92063500  1
  O  O22  1  0.49031900  0.47303000  0.75387200  1
  O  O23  1  0.32176100  0.63759500  0.92128200  1
loop_
_geom_bond_atom_site_label_1
_geom_bond_atom_site_label_2
_geom_bond_distance
_geom_bond_site_symmetry_2
Ca0 O2 2.177522 1_655
Ca0 O0 2.180972 1_555
Ca0 O16 2.240137 1_554
Ca0 O3 2.260093 1_545
Ca1 O8 2.268113 1_455
Ca1 O4 2.280388 1_555
Ca1 O11 2.299806 1_455
Ca1 O7 2.308244 1_555
Ca1 O10 2.325062 1_565
Ca1 O5 2.337241 1_455
Ca2 O0 2.224836 1_555
Ca2 O2 2.226981 1_555
Ca2 O7 2.265609 1_545
Ca2 O11 2.271214 1_445
Ca2 O9 2.327871 1_545
Ca2 O1 2.328872 1_555
Ca3 O19 2.278399 1_555
Ca3 O14 2.281259 1_655
Ca3 O15 2.286667 1_555
Ca3 O12 2.287968 1_655
Ca3 O13 2.324504 1_545
Ca3 O18 2.330422 1_655
Ca4 O4 2.269871 1_555
Ca4 O8 2.274249 1_455
Ca4 O14 2.276315 1_555
Ca4 O19 2.276777 1_455
Ca4 O6 2.302767 1_555
Ca4 O17 2.315311 1_455
Ca5 O16 2.250347 1_565
Ca5 O15 2.280844 1_565
Ca5 O22 2.288697 1_555
Ca5 O12 2.289206 1_665
Ca5 O21 2.290049 1_555
Ca5 O23 2.311480 1_555
Fe0 O0 1.952658 1_555
Fe0 O3 2.051764 1_555
Fe0 O11 2.073445 1_555
Fe0 O9 2.152147 1_655
Fe0 O1 2.165337 1_555
Fe0 O5 2.174546 1_555
Fe1 O8 1.911491 1_555
Fe1 O4 1.912031 1_555
Fe1 O1 1.979419 1_555
Fe1 O10 2.046514 1_555
Fe2 O2 1.955957 1_555
Fe2 O0 1.968233 1_555
Fe2 O3 2.025933 1_555
Fe2 O21 2.134591 1_554
Fe2 O23 2.136301 1_554
Fe2 O20 2.199203 1_554
Fe3 O2 1.947736 1_555
Fe3 O3 2.048159 1_555
Fe3 O7 2.053866 1_555
Fe3 O1 2.137121 1_555
Fe3 O5 2.157720 1_455
Fe3 O9 2.245124 1_555
Fe4 O4 2.048147 1_545
Fe4 O19 2.062964 1_555
Fe4 O6 2.120466 1_545
Fe4 O10 2.133345 1_555
Fe4 O17 2.135597 1_555
Fe4 O13 2.176411 1_545
Fe5 O15 1.898402 1_565
Fe5 O12 1.901302 1_565
Fe5 O18 1.987189 1_555
Fe5 O6 2.017474 1_555
Fe6 O8 2.048383 1_455
Fe6 O14 2.063279 1_565
Fe6 O6 2.118193 1_555
Fe6 O10 2.137978 1_565
Fe6 O17 2.146878 1_465
Fe6 O13 2.155938 1_455
Fe7 O16 1.978394 1_455
Fe7 O12 2.058338 1_555
Fe7 O18 2.109850 1_555
Fe7 O23 2.124784 1_555
Fe7 O22 2.156100 1_555
Fe7 O20 2.218832 1_555
Fe8 O11 1.895212 1_545
Fe8 O7 1.902963 1_545
Fe8 O17 2.022577 1_555
Fe8 O5 2.035980 1_555
Fe9 O16 1.971493 1_555
Fe9 O15 2.022901 1_555
Fe9 O22 2.095971 1_555
Fe9 O21 2.130725 1_555
Fe9 O20 2.141050 1_555
Fe9 O18 2.342251 1_655
Fe10 O19 1.903289 1_555
Fe10 O14 1.907978 1_555
Fe10 O22 2.033754 1_555
Fe10 O13 2.040771 1_555
Fe11 O9 1.935013 1_556
Fe11 O21 1.957888 1_455
Fe11 O23 1.958116 1_555
Fe11 O20 2.133276 1_565
