# generated using pymatgen
data_CuAgPO4
_symmetry_space_group_name_H-M   'P 1'
_cell_length_a   5.62020300
_cell_length_b   7.73975100
_cell_length_c   7.91812536
_cell_angle_alpha   81.78716045
_cell_angle_beta   90.00000000
_cell_angle_gamma   90.00000000
_symmetry_Int_Tables_number   1
_chemical_formula_structural   CuAgPO4
_chemical_formula_sum   'Cu4 Ag4 P4 O16'
_cell_volume   340.89791850
_cell_formula_units_Z   4
loop_
 _symmetry_equiv_pos_site_id
 _symmetry_equiv_pos_as_xyz
  1  'x, y, z'
loop_
 _atom_site_type_symbol
 _atom_site_label
 _atom_site_symmetry_multiplicity
 _atom_site_fract_x
 _atom_site_fract_y
 _atom_site_fract_z
 _atom_site_occupancy
  Cu  Cu0  1  0.62152800  0.64676000  0.59028500  1
  Cu  Cu1  1  0.12152800  0.85324000  0.40971500  1
  Cu  Cu2  1  0.37847200  0.35324000  0.40971500  1
  Cu  Cu3  1  0.87847200  0.14676000  0.59028500  1
  Ag  Ag0  1  0.61390300  0.30691400  0.93037200  1
  Ag  Ag1  1  0.11390300  0.19308600  0.06962800  1
  Ag  Ag2  1  0.38609700  0.69308600  0.06962800  1
  Ag  Ag3  1  0.88609700  0.80691400  0.93037200  1
  P  P0  1  0.61965200  0.00825200  0.27329900  1
  P  P1  1  0.11965200  0.49174800  0.72670100  1
  P  P2  1  0.38034800  0.99174800  0.72670100  1
  P  P3  1  0.88034800  0.50825200  0.27329900  1
  O  O0  1  0.44688900  0.84776800  0.30676100  1
  O  O1  1  0.94688900  0.65223200  0.69323900  1
  O  O2  1  0.55311100  0.15223200  0.69323900  1
  O  O3  1  0.05311100  0.34776800  0.30676100  1
  O  O4  1  0.48350300  0.18312000  0.26718200  1
  O  O5  1  0.98350300  0.31688000  0.73281800  1
  O  O6  1  0.51649700  0.81688000  0.73281800  1
  O  O7  1  0.01649700  0.68312000  0.26718200  1
  O  O8  1  0.75134500  0.00964000  0.10231300  1
  O  O9  1  0.25134500  0.49036000  0.89768700  1
  O  O10  1  0.24865500  0.99036000  0.89768700  1
  O  O11  1  0.74865500  0.50964000  0.10231300  1
  O  O12  1  0.80751500  0.98635000  0.42554100  1
  O  O13  1  0.30751500  0.51365000  0.57445900  1
  O  O14  1  0.19248500  0.01365000  0.57445900  1
  O  O15  1  0.69248500  0.48635000  0.42554100  1
loop_
_geom_bond_atom_site_label_1
_geom_bond_atom_site_label_2
_geom_bond_distance
_geom_bond_site_symmetry_2
Cu0 O6 1.944323 1_555
Cu0 O15 1.965902 1_555
Cu0 O1 2.004987 1_555
Cu0 O13 2.056346 1_555
Cu1 O7 1.944323 1_555
Cu1 O14 1.965902 1_565
Cu1 O0 2.004987 1_555
Cu1 O12 2.056346 1_455
Cu2 O4 1.944323 1_555
Cu2 O13 1.965902 1_555
Cu2 O3 2.004987 1_555
Cu2 O15 2.056346 1_555
Cu3 O5 1.944323 1_555
Cu3 O12 1.965902 1_545
Cu3 O2 2.004987 1_555
Cu3 O14 2.056346 1_655
Ag0 O11 2.345064 1_556
Ag0 O2 2.391197 1_555
Ag0 O9 2.475867 1_555
Ag0 O5 2.594851 1_555
Ag0 O8 2.617075 1_556
Ag1 O10 2.345064 1_544
Ag1 O3 2.391197 1_555
Ag1 O8 2.475867 1_455
Ag1 O4 2.594851 1_555
Ag1 O9 2.617075 1_554
Ag2 O9 2.345064 1_554
Ag2 O0 2.391197 1_555
Ag2 O11 2.475867 1_555
Ag2 O7 2.594851 1_555
Ag2 O10 2.617075 1_554
Ag3 O8 2.345064 1_566
Ag3 O1 2.391197 1_555
Ag3 O10 2.475867 1_655
Ag3 O6 2.594851 1_555
Ag3 O11 2.617075 1_556
O0 P0 1.569004 1_565
O1 P1 1.569004 1_655
O2 P2 1.569004 1_545
O3 P3 1.569004 1_455
O4 P0 1.549487 1_555
O5 P1 1.549487 1_655
O6 P2 1.549487 1_555
O7 P3 1.549487 1_455
O8 P0 1.541682 1_555
O9 P1 1.541682 1_555
O10 P2 1.541682 1_555
O11 P3 1.541682 1_555
O12 P0 1.593200 1_565
O13 P1 1.593200 1_555
O14 P2 1.593200 1_545
O15 P3 1.593200 1_555
