# generated using pymatgen
data_Sm3AlFeS7
_symmetry_space_group_name_H-M   'P 1'
_cell_length_a   9.79324479
_cell_length_b   9.79324479
_cell_length_c   6.23679300
_cell_angle_alpha   90.00000000
_cell_angle_beta   90.00000000
_cell_angle_gamma   120.00000533
_symmetry_Int_Tables_number   1
_chemical_formula_structural   Sm3AlFeS7
_chemical_formula_sum   'Sm6 Al2 Fe2 S14'
_cell_volume   518.01836716
_cell_formula_units_Z   2
loop_
 _symmetry_equiv_pos_site_id
 _symmetry_equiv_pos_as_xyz
  1  'x, y, z'
loop_
 _atom_site_type_symbol
 _atom_site_label
 _atom_site_symmetry_multiplicity
 _atom_site_fract_x
 _atom_site_fract_y
 _atom_site_fract_z
 _atom_site_occupancy
  Sm  Sm0  1  0.77308500  0.14934900  0.22843600  1
  Sm  Sm1  1  0.37626400  0.22691500  0.22843600  1
  Sm  Sm2  1  0.85065100  0.62373600  0.22843600  1
  Sm  Sm3  1  0.22691500  0.85065100  0.72843600  1
  Sm  Sm4  1  0.62373600  0.77308500  0.72843600  1
  Sm  Sm5  1  0.14934900  0.37626400  0.72843600  1
  Al  Al0  1  0.66666700  0.33333300  0.65360800  1
  Al  Al1  1  0.33333300  0.66666700  0.15360800  1
  Fe  Fe0  1  0.00000000  0.00000000  0.05469800  1
  Fe  Fe1  1  0.00000000  0.00000000  0.55469800  1
  S  S0  1  0.86460300  0.09503900  0.81697400  1
  S  S1  1  0.23043600  0.13539700  0.81697400  1
  S  S2  1  0.90496100  0.76956400  0.81697400  1
  S  S3  1  0.13539700  0.90496100  0.31697400  1
  S  S4  1  0.76956400  0.86460300  0.31697400  1
  S  S5  1  0.09503900  0.23043600  0.31697400  1
  S  S6  1  0.90613100  0.42535600  0.50204000  1
  S  S7  1  0.51922500  0.09386900  0.50204000  1
  S  S8  1  0.57464400  0.48077500  0.50204000  1
  S  S9  1  0.09386900  0.57464400  0.00204000  1
  S  S10  1  0.48077500  0.90613100  0.00204000  1
  S  S11  1  0.42535600  0.51922500  0.00204000  1
  S  S12  1  0.66666700  0.33333300  0.01340300  1
  S  S13  1  0.33333300  0.66666700  0.51340300  1
loop_
_geom_bond_atom_site_label_1
_geom_bond_atom_site_label_2
_geom_bond_distance
_geom_bond_site_symmetry_2
Al0 S12 2.243967 1_556
Al0 S6 2.256535 1_555
Al0 S7 2.256536 1_555
Al0 S8 2.256543 1_555
Al1 S13 2.243967 1_555
Al1 S9 2.256535 1_555
Al1 S10 2.256536 1_555
Al1 S11 2.256543 1_555
Fe0 S1 2.461064 1_554
Fe0 S2 2.461064 1_444
Fe0 S0 2.461064 1_454
Fe0 S4 2.556236 1_445
Fe0 S5 2.556236 1_555
Fe0 S3 2.556236 1_545
Fe1 S4 2.461064 1_445
Fe1 S5 2.461064 1_555
Fe1 S3 2.461064 1_545
Fe1 S1 2.556236 1_555
Fe1 S2 2.556236 1_445
Fe1 S0 2.556236 1_455
S0 Sm5 2.825981 1_655
S0 Sm0 2.854516 1_556
S0 Sm4 2.893609 1_545
S1 Sm3 2.825981 1_545
S1 Sm1 2.854515 1_556
S1 Sm5 2.893609 1_555
S2 Sm4 2.825981 1_555
S2 Sm2 2.854516 1_556
S2 Sm3 2.893609 1_655
S3 Sm2 2.825981 1_455
S3 Sm3 2.854516 1_555
S3 Sm1 2.893609 1_565
S4 Sm0 2.825981 1_565
S4 Sm4 2.854515 1_555
S4 Sm2 2.893609 1_555
S5 Sm1 2.825981 1_555
S5 Sm5 2.854516 1_555
S5 Sm0 2.893609 1_455
S6 Sm2 2.834965 1_555
S6 Sm0 2.897218 1_555
S6 Sm5 3.007225 1_655
S7 Sm0 2.834965 1_555
S7 Sm1 2.897218 1_555
S7 Sm3 3.007225 1_545
S8 Sm1 2.834965 1_555
S8 Sm2 2.897218 1_555
S8 Sm4 3.007225 1_555
S9 Sm5 2.834965 1_554
S9 Sm3 2.897218 1_554
S9 Sm2 3.007225 1_455
S10 Sm3 2.834965 1_554
S10 Sm4 2.897218 1_554
S10 Sm0 3.007225 1_565
S11 Sm4 2.834965 1_554
S11 Sm5 2.897218 1_554
S11 Sm1 3.007225 1_555
S12 Sm0 2.830019 1_555
S12 Sm2 2.830026 1_555
S12 Sm1 2.830027 1_555
S13 Sm3 2.830019 1_555
S13 Sm5 2.830026 1_555
S13 Sm4 2.830027 1_555
