# generated using pymatgen
data_Mg3Si4
_symmetry_space_group_name_H-M   'P 1'
_cell_length_a   6.58492200
_cell_length_b   7.14670874
_cell_length_c   11.81023880
_cell_angle_alpha   102.85950099
_cell_angle_beta   89.99784599
_cell_angle_gamma   107.89530548
_symmetry_Int_Tables_number   1
_chemical_formula_structural   Mg3Si4
_chemical_formula_sum   'Mg12 Si16'
_cell_volume   514.23940886
_cell_formula_units_Z   4
loop_
 _symmetry_equiv_pos_site_id
 _symmetry_equiv_pos_as_xyz
  1  'x, y, z'
loop_
 _atom_site_type_symbol
 _atom_site_label
 _atom_site_symmetry_multiplicity
 _atom_site_fract_x
 _atom_site_fract_y
 _atom_site_fract_z
 _atom_site_occupancy
  Mg  Mg0  1  0.35325400  0.89102500  0.54128800  1
  Mg  Mg1  1  0.59904300  0.53574600  0.62306900  1
  Mg  Mg2  1  0.19996200  0.03498800  0.08659900  1
  Mg  Mg3  1  0.99837100  0.24695400  0.90187500  1
  Mg  Mg4  1  0.64814500  0.42468400  0.21699700  1
  Mg  Mg5  1  0.50691700  0.81748000  0.21845400  1
  Mg  Mg6  1  0.09841300  0.52509700  0.66111400  1
  Mg  Mg7  1  0.91396000  0.96074300  0.63740000  1
  Mg  Mg8  1  0.77537200  0.18234800  0.45509600  1
  Mg  Mg9  1  0.01115900  0.86087900  0.29996400  1
  Mg  Mg10  1  0.52850900  0.29860100  0.93896900  1
  Mg  Mg11  1  0.34910000  0.66825000  0.92184200  1
  Si  Si0  1  0.65137300  0.05637100  0.05670400  1
  Si  Si1  1  0.88557500  0.56871800  0.86249700  1
  Si  Si2  1  0.19512300  0.19185100  0.51138600  1
  Si  Si3  1  0.93855500  0.60880500  0.46834600  1
  Si  Si4  1  0.08490800  0.48766500  0.27820400  1
  Si  Si5  1  0.27714500  0.45213000  0.09180800  1
  Si  Si6  1  0.69592600  0.24751600  0.71370800  1
  Si  Si7  1  0.52910500  0.88539600  0.75209700  1
  Si  Si8  1  0.40212100  0.13612000  0.33655900  1
  Si  Si9  1  0.33530900  0.45786200  0.40976200  1
  Si  Si10  1  0.77383700  0.86325800  0.88992800  1
  Si  Si11  1  0.00260600  0.61244300  0.07064900  1
  Si  Si12  1  0.65349500  0.73756300  0.42307100  1
  Si  Si13  1  0.88957600  0.13876700  0.22381300  1
  Si  Si14  1  0.30315300  0.26706900  0.72633500  1
  Si  Si15  1  0.18297500  0.93511500  0.81630200  1
loop_
_geom_bond_atom_site_label_1
_geom_bond_atom_site_label_2
_geom_bond_distance
_geom_bond_site_symmetry_2
Mg0 Si2 2.746796 1_565
Mg0 Si7 2.759449 1_555
Mg0 Si12 2.776995 1_555
Mg0 Si3 2.847657 1_455
Mg0 Si9 3.105626 1_555
Mg0 Si6 3.144399 1_565
Mg0 Si14 3.168286 1_565
Mg1 Si6 2.754135 1_555
Mg1 Si14 2.777359 1_555
Mg1 Si7 2.791177 1_555
Mg1 Si3 2.883901 1_555
Mg1 Si9 2.907635 1_555
Mg1 Si12 2.997764 1_555
Mg1 Si2 3.065048 1_555
Mg2 Si13 2.783874 1_455
Mg2 Si5 2.852509 1_555
Mg2 Si11 2.859827 1_545
Mg2 Si0 2.954416 1_555
Mg2 Si8 3.077104 1_555
Mg2 Si15 3.106334 1_544
Mg3 Si10 2.657364 1_545
Mg3 Si5 2.726473 1_656
Mg3 Si1 2.753477 1_555
Mg3 Si15 2.850981 1_645
Mg3 Si14 2.881258 1_655
Mg3 Si11 2.904196 1_656
Mg3 Si6 2.985669 1_555
Mg3 Si0 3.100888 1_556
Mg4 Si4 2.838409 1_655
Mg4 Si8 2.848558 1_555
Mg4 Si0 2.886035 1_555
Mg4 Si12 2.907523 1_555
Mg4 Si5 2.935405 1_555
Mg4 Si13 2.962929 1_555
Mg4 Si11 3.056669 1_655
Mg4 Si9 3.089059 1_555
Mg5 Si8 2.675699 1_565
Mg5 Si5 2.679168 1_555
Mg5 Si0 2.814689 1_565
Mg5 Si13 2.829348 1_565
Mg5 Si12 2.837426 1_555
Mg6 Si3 2.764501 1_455
Mg6 Si1 2.767015 1_455
Mg6 Si14 2.823420 1_555
Mg6 Si2 2.874366 1_555
Mg6 Si6 2.943259 1_455
Mg6 Si15 2.976997 1_555
Mg6 Si7 3.179463 1_555
Mg7 Si2 2.754155 1_665
Mg7 Si14 2.827111 1_665
Mg7 Si15 2.829793 1_655
Mg7 Si7 2.834263 1_555
Mg7 Si6 2.839015 1_565
Mg7 Si3 2.890286 1_555
Mg7 Si12 2.900876 1_555
Mg8 Si8 2.721266 1_555
Mg8 Si13 2.808697 1_555
Mg8 Si2 2.819769 1_655
Mg8 Si3 2.871075 1_555
Mg8 Si12 2.964565 1_545
Mg8 Si6 3.055420 1_555
Mg9 Si13 2.676979 1_465
Mg9 Si8 2.682056 1_565
Mg9 Si12 2.780649 1_455
Mg9 Si4 2.811944 1_555
Mg9 Si11 2.878966 1_555
Mg9 Si3 2.914431 1_455
Mg9 Si2 2.984535 1_565
Mg10 Si5 2.726940 1_556
Mg10 Si0 2.741742 1_556
Mg10 Si1 2.838511 1_555
Mg10 Si14 2.846433 1_555
Mg10 Si6 2.870729 1_555
Mg10 Si15 2.952406 1_545
Mg10 Si7 3.270703 1_545
Mg11 Si5 2.751324 1_556
Mg11 Si10 2.782994 1_555
Mg11 Si7 2.843664 1_555
Mg11 Si11 2.864612 1_556
Mg11 Si15 2.954349 1_555
Mg11 Si1 2.959315 1_455
Mg11 Si0 2.972090 1_566
Mg11 Si14 3.188027 1_555
Si0 Si13 2.370120 1_555
Si0 Si10 2.430734 1_544
Si1 Si10 2.392822 1_555
Si1 Si11 2.499020 1_656
Si1 Si6 2.521863 1_555
Si1 Si15 2.910993 1_655
Si2 Si9 2.417410 1_555
Si2 Si8 2.499429 1_555
Si3 Si4 2.523552 1_655
Si4 Si9 2.354050 1_555
Si4 Si5 2.541948 1_555
Si6 Si7 2.623920 1_545
Si8 Si9 2.442339 1_555
Si10 Si7 2.354445 1_555
Si10 Si15 2.761620 1_655
Si11 Si5 2.458388 1_555
Si12 Si9 2.386779 1_555
Si12 Si3 2.436552 1_555
Si13 Si4 2.366548 1_655
Si14 Si2 2.529267 1_555
Si14 Si6 2.635134 1_555
Si14 Si15 2.711383 1_545
Si15 Si7 2.504760 1_555
