# generated using pymatgen
data_NaMg6BO7
_symmetry_space_group_name_H-M   'P 1'
_cell_length_a   7.98596443
_cell_length_b   4.46381240
_cell_length_c   4.46381240
_cell_angle_alpha   90.00000000
_cell_angle_beta   90.00000000
_cell_angle_gamma   90.00000000
_symmetry_Int_Tables_number   1
_chemical_formula_structural   NaMg6BO7
_chemical_formula_sum   'Na1 Mg6 B1 O7'
_cell_volume   159.12530169
_cell_formula_units_Z   1
loop_
 _symmetry_equiv_pos_site_id
 _symmetry_equiv_pos_as_xyz
  1  'x, y, z'
loop_
 _atom_site_type_symbol
 _atom_site_label
 _atom_site_symmetry_multiplicity
 _atom_site_fract_x
 _atom_site_fract_y
 _atom_site_fract_z
 _atom_site_occupancy
  Na  Na0  1  0.00240125  0.00000000  0.00000000  1
  Mg  Mg0  1  0.00269055  0.50000000  0.50000000  1
  Mg  Mg1  1  0.49683837  0.50000000  0.50000000  1
  Mg  Mg2  1  0.25443766  0.00000000  0.50000000  1
  Mg  Mg3  1  0.74450523  0.00000000  0.50000000  1
  Mg  Mg4  1  0.25443766  0.50000000  -0.00000000  1
  Mg  Mg5  1  0.74450523  0.50000000  -0.00000000  1
  B  B0  1  0.50096728  -0.00000000  0.00000000  1
  O  O0  1  0.32669626  0.00000000  0.00000000  1
  O  O1  1  0.67618504  0.00000000  0.00000000  1
  O  O2  1  0.74930956  0.50000000  0.50000000  1
  O  O3  1  0.99898762  -0.00000000  0.50000000  1
  O  O4  1  0.49952535  0.00000000  0.50000000  1
  O  O5  1  0.99898762  0.50000000  0.00000000  1
  O  O6  1  0.49952535  0.50000000  0.00000000  1
loop_
_geom_bond_atom_site_label_1
_geom_bond_atom_site_label_2
_geom_bond_distance
_geom_bond_site_symmetry_2
Na0 O3 2.232073 1_455
Na0 O5 2.232073 1_445
Na0 O3 2.232073 1_454
Na0 O5 2.232073 1_455
Na0 O0 2.589808 1_555
Na0 O1 2.605151 1_455
Mg0 O2 2.023492 1_455
Mg0 O5 2.232102 1_455
Mg0 O3 2.232102 1_465
Mg0 O3 2.232102 1_455
Mg0 O5 2.232102 1_456
Mg1 O2 2.016226 1_555
Mg1 O4 2.232009 1_555
Mg1 O4 2.232009 1_565
Mg1 O6 2.232009 1_556
Mg1 O6 2.232009 1_555
Mg2 O4 1.957262 1_555
Mg2 O3 2.040015 1_455
Mg2 O0 2.305298 1_556
Mg2 O0 2.305298 1_555
Mg3 O4 1.956401 1_555
Mg3 O3 2.032287 1_555
Mg3 O2 2.232236 1_555
Mg3 O2 2.232236 1_545
Mg3 O1 2.297626 1_555
Mg3 O1 2.297626 1_556
Mg4 O6 1.957262 1_555
Mg4 O5 2.040015 1_455
Mg4 O0 2.305298 1_555
Mg4 O0 2.305298 1_565
Mg5 O6 1.956401 1_555
Mg5 O5 2.032287 1_555
Mg5 O2 2.232236 1_555
Mg5 O2 2.232236 1_554
Mg5 O1 2.297626 1_565
Mg5 O1 2.297626 1_555
B0 O0 1.391722 1_555
B0 O1 1.399283 1_555
