# generated using pymatgen
data_Mg16Al12Bi
_symmetry_space_group_name_H-M   'P 1'
_cell_length_a   9.18474327
_cell_length_b   9.18474327
_cell_length_c   9.18474327
_cell_angle_alpha   109.47122063
_cell_angle_beta   109.47122063
_cell_angle_gamma   109.47122063
_symmetry_Int_Tables_number   1
_chemical_formula_structural   Mg16Al12Bi
_chemical_formula_sum   'Mg16 Al12 Bi1'
_cell_volume   596.45704683
_cell_formula_units_Z   1
loop_
 _symmetry_equiv_pos_site_id
 _symmetry_equiv_pos_as_xyz
  1  'x, y, z'
loop_
 _atom_site_type_symbol
 _atom_site_label
 _atom_site_symmetry_multiplicity
 _atom_site_fract_x
 _atom_site_fract_y
 _atom_site_fract_z
 _atom_site_occupancy
  Mg  Mg0  1  0.34868900  0.00000000  0.00000000  1
  Mg  Mg1  1  0.59863700  0.31488400  0.00000000  1
  Mg  Mg2  1  0.31488400  0.59863700  0.00000000  1
  Mg  Mg3  1  0.00000000  0.34868900  0.00000000  1
  Mg  Mg4  1  0.40136300  0.40136300  0.71624700  1
  Mg  Mg5  1  0.28375300  0.68511600  0.68511600  1
  Mg  Mg6  1  0.68511600  0.28375300  0.68511600  1
  Mg  Mg7  1  0.65131100  0.65131100  0.65131100  1
  Mg  Mg8  1  0.31488400  0.00000000  0.59863700  1
  Mg  Mg9  1  0.00000000  0.31488400  0.59863700  1
  Mg  Mg10  1  0.71624700  0.40136300  0.40136300  1
  Mg  Mg11  1  0.40136300  0.71624700  0.40136300  1
  Mg  Mg12  1  0.00000000  0.00000000  0.34868900  1
  Mg  Mg13  1  0.00000000  0.59863700  0.31488400  1
  Mg  Mg14  1  0.59863700  0.00000000  0.31488400  1
  Mg  Mg15  1  0.68511600  0.68511600  0.28375300  1
  Al  Al0  1  0.62732100  0.81197000  0.00000000  1
  Al  Al1  1  0.81197000  0.62732100  0.00000000  1
  Al  Al2  1  0.18803000  0.18803000  0.81535100  1
  Al  Al3  1  0.62732100  0.00000000  0.81197000  1
  Al  Al4  1  0.00000000  0.62732100  0.81197000  1
  Al  Al5  1  0.81197000  0.00000000  0.62732100  1
  Al  Al6  1  0.00000000  0.81197000  0.62732100  1
  Al  Al7  1  0.37267900  0.18464900  0.37267900  1
  Al  Al8  1  0.18464900  0.37267900  0.37267900  1
  Al  Al9  1  0.18803000  0.81535100  0.18803000  1
  Al  Al10  1  0.81535100  0.18803000  0.18803000  1
  Al  Al11  1  0.37267900  0.37267900  0.18464900  1
  Bi  Bi0  1  0.00000000  0.00000000  0.00000000  1
loop_
_geom_bond_atom_site_label_1
_geom_bond_atom_site_label_2
_geom_bond_distance
_geom_bond_site_symmetry_2
Mg0 Mg14 3.034528 1_555
Mg0 Mg1 3.034528 1_555
Mg0 Mg5 3.034528 1_544
Mg1 Mg4 3.146037 1_554
Mg1 Mg15 3.146037 1_555
Mg1 Mg10 3.195093 1_555
Mg1 Mg8 3.195093 1_554
Mg1 Mg6 3.195093 1_554
Mg1 Mg13 3.195093 1_655
Mg2 Mg3 3.034528 1_555
Mg2 Mg4 3.146037 1_554
Mg2 Mg9 3.195093 1_554
Mg2 Mg5 3.195093 1_554
Mg3 Mg6 3.034528 1_454
Mg4 Mg7 3.034528 1_555
Mg4 Mg8 3.195093 1_555
Mg4 Mg9 3.195093 1_555
Mg4 Mg5 3.195093 1_555
Mg4 Mg6 3.195093 1_555
Mg5 Mg9 3.146037 1_555
Mg5 Mg8 3.195093 1_565
Mg6 Mg8 3.146037 1_555
Mg6 Mg9 3.195093 1_655
Mg10 Mg7 3.034528 1_555
Mg10 Mg13 3.146037 1_655
Mg10 Mg9 3.146037 1_655
Mg10 Mg14 3.195093 1_555
Mg10 Mg6 3.195093 1_555
Mg10 Mg15 3.195093 1_555
Mg11 Mg7 3.034528 1_555
Mg11 Mg8 3.146037 1_565
Mg11 Mg14 3.146037 1_565
Mg11 Mg2 3.195093 1_555
Mg11 Mg13 3.195093 1_555
Mg11 Mg5 3.195093 1_555
Mg11 Mg15 3.195093 1_555
Mg12 Mg9 3.034528 1_555
Mg12 Mg8 3.034528 1_555
Mg12 Mg15 3.034528 1_445
Mg13 Mg3 3.034528 1_555
Mg13 Mg5 3.146037 1_555
Mg13 Mg8 3.195093 1_565
Mg13 Mg15 3.195093 1_455
Mg14 Mg6 3.146037 1_555
Mg14 Mg2 3.195093 1_545
Mg14 Mg15 3.195093 1_545
Mg14 Mg9 3.195093 1_655
Mg15 Mg2 3.146037 1_555
Al0 Al1 2.769481 1_555
Al0 Al3 2.820191 1_564
Al0 Al10 2.820191 1_565
Al0 Mg2 2.885419 1_555
Al0 Mg14 2.982925 1_565
Al0 Mg5 2.982925 1_554
Al0 Mg15 3.153718 1_555
Al0 Mg4 3.153718 1_554
Al0 Mg12 3.165345 1_665
Al0 Mg7 3.165345 1_554
Al0 Bi0 3.279974 1_665
Al1 Al9 2.820191 1_655
Al1 Al4 2.820191 1_654
Al1 Mg1 2.885419 1_555
Al1 Mg6 2.982925 1_554
Al1 Mg13 2.982925 1_655
Al1 Mg15 3.153718 1_555
Al1 Mg4 3.153718 1_554
Al1 Mg12 3.165345 1_665
Al1 Mg7 3.165345 1_554
Al1 Bi0 3.279974 1_665
Al2 Al6 2.820191 1_545
Al2 Al5 2.820191 1_455
Al2 Mg4 2.885419 1_555
Al2 Mg8 2.982925 1_555
Al2 Mg9 2.982925 1_555
Al2 Mg1 3.153718 1_556
Al2 Mg2 3.153718 1_556
Al2 Mg0 3.165345 1_556
Al2 Mg3 3.165345 1_556
Al2 Bi0 3.279974 1_556
Al3 Al5 2.769481 1_555
Al3 Mg8 2.885419 1_555
Al3 Mg1 2.982925 1_556
Al3 Mg5 2.982925 1_545
Al3 Mg6 3.153718 1_555
Al3 Mg11 3.153718 1_545
Al3 Mg3 3.165345 1_656
Al3 Mg7 3.165345 1_545
Al3 Bi0 3.279974 1_656
Al4 Al6 2.769481 1_555
Al4 Al9 2.820191 1_556
Al4 Mg9 2.885419 1_555
Al4 Mg2 2.982925 1_556
Al4 Mg6 2.982925 1_455
Al4 Mg5 3.153718 1_555
Al4 Mg10 3.153718 1_455
Al4 Mg0 3.165345 1_566
Al4 Mg7 3.165345 1_455
Al4 Bi0 3.279974 1_566
Al5 Al6 2.820191 1_645
Al5 Mg14 2.885419 1_555
Al5 Mg15 2.982925 1_545
Al5 Mg9 2.982925 1_655
Al5 Mg6 3.153718 1_555
Al5 Mg11 3.153718 1_545
Al5 Mg3 3.165345 1_656
Al5 Mg7 3.165345 1_545
Al5 Bi0 3.279974 1_656
Al6 Mg13 2.885419 1_555
Al6 Mg8 2.982925 1_565
Al6 Mg15 2.982925 1_455
Al6 Mg5 3.153718 1_555
Al6 Mg10 3.153718 1_455
Al6 Mg0 3.165345 1_566
Al6 Mg7 3.165345 1_455
Al6 Bi0 3.279974 1_566
Al7 Al9 2.769481 1_545
Al7 Al8 2.820191 1_555
Al7 Mg6 2.885419 1_555
Al7 Mg10 2.982925 1_555
Al7 Mg4 2.982925 1_555
Al7 Mg8 3.153718 1_555
Al7 Mg14 3.153718 1_555
Al7 Mg12 3.165345 1_555
Al7 Mg0 3.165345 1_555
Al7 Bi0 3.279974 1_555
Al8 Mg5 2.885419 1_555
Al8 Mg4 2.982925 1_555
Al8 Mg11 2.982925 1_555
Al8 Mg9 3.153718 1_555
Al8 Mg13 3.153718 1_555
Al8 Mg12 3.165345 1_555
Al8 Mg3 3.165345 1_555
Al8 Bi0 3.279974 1_555
Al9 Mg11 2.885419 1_555
Al9 Mg13 2.982925 1_555
Al9 Mg2 2.982925 1_555
Al9 Mg14 3.153718 1_565
Al9 Mg8 3.153718 1_565
Al9 Mg12 3.165345 1_565
Al9 Mg0 3.165345 1_565
Al9 Bi0 3.279974 1_565
Al10 Al8 2.769481 1_655
Al10 Al3 2.820191 1_554
Al10 Mg10 2.885419 1_555
Al10 Mg14 2.982925 1_555
Al10 Mg1 2.982925 1_555
Al10 Mg13 3.153718 1_655
Al10 Mg9 3.153718 1_655
Al10 Mg3 3.165345 1_655
Al10 Mg12 3.165345 1_655
Al10 Bi0 3.279974 1_655
Al11 Al2 2.769481 1_554
Al11 Al7 2.820191 1_555
Al11 Al8 2.820191 1_555
Al11 Mg15 2.885419 1_555
Al11 Mg10 2.982925 1_555
Al11 Mg11 2.982925 1_555
Al11 Mg1 3.153718 1_555
Al11 Mg2 3.153718 1_555
Al11 Mg0 3.165345 1_555
Al11 Mg3 3.165345 1_555
Al11 Bi0 3.279974 1_555
Bi0 Mg3 3.202619 1_555
Bi0 Mg12 3.202619 1_555
Bi0 Mg0 3.202619 1_555
Bi0 Mg7 3.202619 1_444
