# generated using pymatgen
data_HoFe5P3
_symmetry_space_group_name_H-M   'P 1'
_cell_length_a   3.64513200
_cell_length_b   10.28466100
_cell_length_c   11.81460500
_cell_angle_alpha   90.00000000
_cell_angle_beta   90.00000000
_cell_angle_gamma   90.00000000
_symmetry_Int_Tables_number   1
_chemical_formula_structural   HoFe5P3
_chemical_formula_sum   'Ho4 Fe20 P12'
_cell_volume   442.91709973
_cell_formula_units_Z   4
loop_
 _symmetry_equiv_pos_site_id
 _symmetry_equiv_pos_as_xyz
  1  'x, y, z'
loop_
 _atom_site_type_symbol
 _atom_site_label
 _atom_site_symmetry_multiplicity
 _atom_site_fract_x
 _atom_site_fract_y
 _atom_site_fract_z
 _atom_site_occupancy
  Ho  Ho0  1  0.25000000  0.58122300  0.70481300  1
  Ho  Ho1  1  0.25000000  0.91877700  0.20481300  1
  Ho  Ho2  1  0.75000000  0.41877700  0.29518700  1
  Ho  Ho3  1  0.75000000  0.08122300  0.79518700  1
  Fe  Fe0  1  0.25000000  0.70773700  0.98812100  1
  Fe  Fe1  1  0.25000000  0.79226300  0.48812100  1
  Fe  Fe2  1  0.75000000  0.29226300  0.01187900  1
  Fe  Fe3  1  0.75000000  0.20773700  0.51187900  1
  Fe  Fe4  1  0.25000000  0.40528500  0.49032500  1
  Fe  Fe5  1  0.25000000  0.09471500  0.99032500  1
  Fe  Fe6  1  0.75000000  0.59471500  0.50967500  1
  Fe  Fe7  1  0.75000000  0.90528500  0.00967500  1
  Fe  Fe8  1  0.25000000  0.21920500  0.17675100  1
  Fe  Fe9  1  0.25000000  0.28079500  0.67675100  1
  Fe  Fe10  1  0.75000000  0.78079500  0.82324900  1
  Fe  Fe11  1  0.75000000  0.71920500  0.32324900  1
  Fe  Fe12  1  0.25000000  0.87650900  0.70080400  1
  Fe  Fe13  1  0.25000000  0.62349100  0.20080400  1
  Fe  Fe14  1  0.75000000  0.12349100  0.29919600  1
  Fe  Fe15  1  0.75000000  0.37650900  0.79919600  1
  Fe  Fe16  1  0.25000000  0.46322900  0.93270200  1
  Fe  Fe17  1  0.25000000  0.03677100  0.43270200  1
  Fe  Fe18  1  0.75000000  0.53677100  0.06729800  1
  Fe  Fe19  1  0.75000000  0.96322900  0.56729800  1
  P  P0  1  0.25000000  0.42158400  0.11277900  1
  P  P1  1  0.25000000  0.07841600  0.61277900  1
  P  P2  1  0.75000000  0.57841600  0.88722100  1
  P  P3  1  0.75000000  0.92158400  0.38722100  1
  P  P4  1  0.25000000  0.26599500  0.87171900  1
  P  P5  1  0.25000000  0.23400500  0.37171900  1
  P  P6  1  0.75000000  0.73400500  0.12828100  1
  P  P7  1  0.75000000  0.76599500  0.62828100  1
  P  P8  1  0.25000000  0.60044700  0.39572500  1
  P  P9  1  0.25000000  0.89955300  0.89572500  1
  P  P10  1  0.75000000  0.39955300  0.60427500  1
  P  P11  1  0.75000000  0.10044700  0.10427500  1
loop_
_geom_bond_atom_site_label_1
_geom_bond_atom_site_label_2
_geom_bond_distance
_geom_bond_site_symmetry_2
Ho0 P7 2.783976 1_455
Ho0 P7 2.783976 1_555
Ho0 P2 2.822577 1_455
Ho0 P2 2.822577 1_555
Ho0 P10 2.867687 1_555
Ho0 P10 2.867687 1_455
Ho1 P6 2.783976 1_455
Ho1 P6 2.783976 1_555
Ho1 P3 2.822577 1_555
Ho1 P3 2.822577 1_455
Ho1 P11 2.867687 1_565
Ho1 P11 2.867687 1_465
Ho2 P5 2.783976 1_655
Ho2 P5 2.783976 1_555
Ho2 P0 2.822577 1_655
Ho2 P0 2.822577 1_555
Ho2 P8 2.867687 1_555
Ho2 P8 2.867687 1_655
Ho3 P4 2.783976 1_555
Ho3 P4 2.783976 1_655
Ho3 P1 2.822577 1_655
Ho3 P1 2.822577 1_555
Ho3 P9 2.867687 1_545
Ho3 P9 2.867687 1_645
Fe0 P9 2.254647 1_555
Fe0 P6 2.477267 1_456
Fe0 P6 2.477267 1_556
Fe0 P2 2.551822 1_455
Fe0 P2 2.551822 1_555
Fe1 P8 2.254647 1_555
Fe1 P7 2.477267 1_455
Fe1 P7 2.477267 1_555
Fe1 P3 2.551822 1_455
Fe1 P3 2.551822 1_555
Fe2 P11 2.254647 1_555
Fe2 P4 2.477267 1_554
Fe2 P4 2.477267 1_654
Fe2 P0 2.551822 1_655
Fe2 P0 2.551822 1_555
Fe3 P10 2.254647 1_555
Fe3 P5 2.477267 1_655
Fe3 P5 2.477267 1_555
Fe3 P1 2.551822 1_655
Fe3 P1 2.551822 1_555
Fe4 P5 2.250928 1_555
Fe4 P10 2.266644 1_555
Fe4 P10 2.266644 1_455
Fe4 P8 2.297372 1_555
Fe4 Ho2 2.942148 1_455
Fe4 Ho2 2.942148 1_555
Fe4 Ho0 3.113804 1_555
Fe5 P4 2.250928 1_555
Fe5 P11 2.266644 1_456
Fe5 P11 2.266644 1_556
Fe5 P9 2.297372 1_545
Fe5 Ho3 2.942148 1_455
Fe5 Ho3 2.942148 1_555
Fe5 Ho1 3.113804 1_546
Fe6 P7 2.250928 1_555
Fe6 P8 2.266644 1_555
Fe6 P8 2.266644 1_655
Fe6 P10 2.297372 1_555
Fe6 Ho0 2.942148 1_655
Fe6 Ho0 2.942148 1_555
Fe6 Ho2 3.113804 1_555
Fe7 P6 2.250928 1_555
Fe7 P9 2.266644 1_554
Fe7 P9 2.266644 1_654
Fe7 P11 2.297372 1_565
Fe7 Ho1 2.942148 1_655
Fe7 Ho1 2.942148 1_555
Fe7 Ho3 3.113804 1_564
Fe8 P0 2.214376 1_555
Fe8 P5 2.308494 1_555
Fe8 P11 2.355151 1_455
Fe8 P11 2.355151 1_555
Fe8 Ho2 3.081006 1_455
Fe8 Ho2 3.081006 1_555
Fe8 Ho1 3.107537 1_545
Fe9 P1 2.214376 1_555
Fe9 P4 2.308494 1_555
Fe9 P10 2.355151 1_555
Fe9 P10 2.355151 1_455
Fe9 Ho3 3.081006 1_455
Fe9 Ho3 3.081006 1_555
Fe9 Ho0 3.107537 1_555
Fe10 P2 2.214376 1_555
Fe10 P7 2.308494 1_555
Fe10 P9 2.355151 1_555
Fe10 P9 2.355151 1_655
Fe10 Ho0 3.081006 1_555
Fe10 Ho0 3.081006 1_655
Fe10 Ho3 3.107537 1_565
Fe11 P3 2.214376 1_555
Fe11 P6 2.308494 1_555
Fe11 P8 2.355151 1_655
Fe11 P8 2.355151 1_555
Fe11 Ho1 3.081006 1_655
Fe11 Ho1 3.081006 1_555
Fe11 Ho2 3.107537 1_555
Fe12 P7 2.312523 1_455
Fe12 P7 2.312523 1_555
Fe12 P9 2.315078 1_555
Fe12 P1 2.322412 1_565
Fe12 Ho3 2.999660 1_565
Fe12 Ho3 2.999660 1_465
Fe12 Ho0 3.037286 1_555
Fe13 P6 2.312523 1_555
Fe13 P6 2.312523 1_455
Fe13 P8 2.315078 1_555
Fe13 P0 2.322412 1_555
Fe13 Ho2 2.999660 1_455
Fe13 Ho2 2.999660 1_555
Fe13 Ho1 3.037286 1_555
Fe14 P5 2.312523 1_655
Fe14 P5 2.312523 1_555
Fe14 P11 2.315078 1_555
Fe14 P3 2.322412 1_545
Fe14 Ho1 2.999660 1_545
Fe14 Ho1 2.999660 1_645
Fe14 Ho2 3.037286 1_555
Fe15 P4 2.312523 1_555
Fe15 P4 2.312523 1_655
Fe15 P10 2.315078 1_555
Fe15 P2 2.322412 1_555
Fe15 Ho0 2.999660 1_655
Fe15 Ho0 2.999660 1_555
Fe15 Ho3 3.037286 1_555
Fe16 P4 2.152639 1_555
Fe16 P0 2.170222 1_556
Fe16 P2 2.239174 1_455
Fe16 P2 2.239174 1_555
Fe16 Ho0 2.953264 1_555
Fe17 P5 2.152639 1_555
Fe17 P1 2.170222 1_555
Fe17 P3 2.239174 1_445
Fe17 P3 2.239174 1_545
Fe17 Ho1 2.953264 1_545
Fe18 P6 2.152639 1_555
Fe18 P2 2.170222 1_554
Fe18 P0 2.239174 1_555
Fe18 P0 2.239174 1_655
Fe18 Ho2 2.953264 1_555
Fe19 P7 2.152639 1_555
Fe19 P3 2.170222 1_555
Fe19 P1 2.239174 1_565
Fe19 P1 2.239174 1_665
Fe19 Ho3 2.953264 1_565
