# generated using pymatgen
data_MgV12Zn6O24
_symmetry_space_group_name_H-M   'P 1'
_cell_length_a   6.20414872
_cell_length_b   6.01473820
_cell_length_c   18.12388394
_cell_angle_alpha   60.22309201
_cell_angle_beta   60.23862150
_cell_angle_gamma   60.65385517
_symmetry_Int_Tables_number   1
_chemical_formula_structural   MgV12Zn6O24
_chemical_formula_sum   'Mg1 V12 Zn6 O24'
_cell_volume   482.23316556
_cell_formula_units_Z   1
loop_
 _symmetry_equiv_pos_site_id
 _symmetry_equiv_pos_as_xyz
  1  'x, y, z'
loop_
 _atom_site_type_symbol
 _atom_site_label
 _atom_site_symmetry_multiplicity
 _atom_site_fract_x
 _atom_site_fract_y
 _atom_site_fract_z
 _atom_site_occupancy
  Mg  Mg0  1  0.49927378  0.00444764  0.66554337  1
  V  V0  1  0.00223162  0.49780634  0.16698217  1
  V  V1  1  0.49862133  0.49813731  0.16677410  1
  V  V2  1  0.01206989  0.48909036  0.50384195  1
  V  V3  1  0.49918183  0.00254428  0.16652244  1
  V  V4  1  0.50449960  0.50038367  0.33194417  1
  V  V5  1  0.52790541  0.49388047  0.49340669  1
  V  V6  1  0.99240725  0.50348298  0.83172082  1
  V  V7  1  0.52799773  0.00039566  0.49318410  1
  V  V8  1  0.46980898  0.00122653  0.83876217  1
  V  V9  1  0.51240190  0.50359226  0.66178988  1
  V  V10  1  0.46993567  0.51386431  0.83924782  1
  V  V11  1  0.85795236  0.87913100  0.95909543  1
  Zn  Zn0  1  0.10837640  0.12645090  0.04671789  1
  Zn  Zn1  1  0.13838546  0.12044475  0.37425492  1
  Zn  Zn2  1  0.48868766  0.50064300  0.00256543  1
  Zn  Zn3  1  0.02829073  0.14643592  0.72591015  1
  Zn  Zn4  1  0.88782256  0.87264179  0.28880261  1
  Zn  Zn5  1  0.96949777  0.83496126  0.61798791  1
  O  O0  1  0.24909403  0.24862994  0.09345666  1
  O  O1  1  0.25968194  0.25859890  0.24120924  1
  O  O2  1  0.24988404  0.72181665  0.09309522  1
  O  O3  1  0.71301067  0.25446141  0.09153891  1
  O  O4  1  0.28886507  0.73403161  0.24850089  1
  O  O5  1  0.26939637  0.25676570  0.42211014  1
  O  O6  1  0.74160113  0.28132730  0.24500923  1
  O  O7  1  0.74080164  0.74208748  0.09083584  1
  O  O8  1  0.26834306  0.70915571  0.42420603  1
  O  O9  1  0.28449304  0.24034163  0.57851494  1
  O  O10  1  0.74105811  0.73786233  0.24648281  1
  O  O11  1  0.73404850  0.26078806  0.41473308  1
  O  O12  1  0.32970676  0.73938303  0.56570726  1
  O  O13  1  0.24796120  0.26572365  0.74553946  1
  O  O14  1  0.75658467  0.24866183  0.57982275  1
  O  O15  1  0.76663006  0.73065192  0.42513783  1
  O  O16  1  0.22685183  0.28488631  0.90829565  1
  O  O17  1  0.25440335  0.75499886  0.74625381  1
  O  O18  1  0.75675756  0.75627727  0.57983314  1
  O  O19  1  0.66952342  0.27849928  0.76196990  1
  O  O20  1  0.24188288  0.74399199  0.91931650  1
  O  O21  1  0.73071962  0.75015688  0.75202346  1
  O  O22  1  0.73819597  0.27632234  0.91018388  1
  O  O23  1  0.74514914  0.74543852  0.90902336  1
loop_
_geom_bond_atom_site_label_1
_geom_bond_atom_site_label_2
_geom_bond_distance
_geom_bond_site_symmetry_2
Mg0 O9 2.070566 1_555
Mg0 O17 2.132346 1_545
Mg0 O21 2.135046 1_545
Mg0 O13 2.149385 1_555
Mg0 O14 2.165477 1_555
Mg0 O18 2.166869 1_545
O0 Zn0 2.000282 1_555
O0 V0 2.018723 1_555
O0 V3 2.047878 1_555
O0 Zn2 2.125616 1_555
O1 Zn1 1.972933 1_555
O1 V3 2.059817 1_555
O1 V1 2.066589 1_555
O1 V0 2.095073 1_555
O2 Zn0 2.001732 1_565
O2 V0 2.040527 1_555
O2 V1 2.049650 1_555
O2 Zn2 2.116505 1_555
O3 V3 2.009433 1_555
O3 V1 2.012510 1_555
O3 Zn0 2.015278 1_655
O3 Zn2 2.136884 1_555
O4 V4 2.026496 1_555
O4 Zn4 2.046147 1_455
O4 V1 2.065082 1_555
O4 V3 2.067838 1_565
O5 Zn1 2.035845 1_555
O5 V2 2.053576 1_555
O5 V7 2.065212 1_555
O5 V4 2.072510 1_555
O6 Zn4 2.021534 1_545
O6 V4 2.060001 1_555
O6 V0 2.067484 1_655
O6 V1 2.083797 1_555
O7 V11 1.954004 1_554
O7 V3 2.091445 1_565
O7 V1 2.099254 1_555
O7 V0 2.136930 1_655
O8 Zn1 2.033360 1_565
O8 V5 2.047231 1_555
O8 V2 2.061592 1_555
O8 V4 2.090339 1_555
O9 V7 2.125378 1_555
O9 V5 2.143301 1_555
O9 V2 2.169749 1_555
O9 Zn3 2.268838 1_555
O10 Zn4 2.027066 1_555
O10 V4 2.047877 1_555
O10 V0 2.059549 1_655
O10 V3 2.100562 1_565
O11 V5 2.012957 1_555
O11 V7 2.013687 1_555
O11 Zn1 2.063042 1_655
O11 V4 2.078088 1_555
O12 Zn5 1.844486 1_455
O12 V7 1.985930 1_565
O12 V5 1.987970 1_555
O12 V9 2.063847 1_555
O13 Zn3 2.047458 1_555
O13 V6 2.129826 1_455
O13 V9 2.171179 1_555
O13 V8 2.184634 1_555
O14 Zn5 2.095428 1_545
O14 V5 2.121736 1_555
O14 V2 2.145182 1_655
O14 V9 2.145793 1_555
O15 Zn4 2.022160 1_555
O15 V7 2.040946 1_565
O15 V5 2.061691 1_555
O15 V2 2.096132 1_655
O16 V6 2.021783 1_455
O16 V10 2.046369 1_555
O16 Zn0 2.055115 1_556
O16 V8 2.121351 1_555
O17 Zn3 2.015194 1_565
O17 V10 2.154250 1_555
O17 V9 2.164769 1_555
O17 V6 2.216568 1_455
O18 Zn5 2.070668 1_555
O18 V7 2.125158 1_565
O18 V2 2.127439 1_655
O18 V9 2.143613 1_555
O19 Zn3 1.830551 1_655
O19 V10 2.007086 1_555
O19 V9 2.025284 1_555
O19 V8 2.064357 1_555
O20 V11 1.957971 1_455
O20 V10 2.015126 1_555
O20 V8 2.091946 1_565
O20 Zn2 2.160276 1_556
O21 Zn5 2.072000 1_555
O21 V10 2.149366 1_555
O21 V6 2.182221 1_555
O21 V8 2.192640 1_565
O22 V11 1.963616 1_545
O22 V6 2.081392 1_555
O22 V10 2.105525 1_555
O22 Zn2 2.154883 1_556
O23 V11 1.966446 1_555
O23 V6 2.034025 1_555
O23 V8 2.131741 1_565
O23 Zn2 2.170875 1_556
