# generated using pymatgen
data_Sr2ScOsO6
_symmetry_space_group_name_H-M   'P 1'
_cell_length_a   5.72410718
_cell_length_b   5.72410718
_cell_length_c   5.72410718
_cell_angle_alpha   60.00000000
_cell_angle_beta   60.00000000
_cell_angle_gamma   60.00000000
_symmetry_Int_Tables_number   1
_chemical_formula_structural   Sr2ScOsO6
_chemical_formula_sum   'Sr2 Sc1 Os1 O6'
_cell_volume   132.61977056
_cell_formula_units_Z   1
loop_
 _symmetry_equiv_pos_site_id
 _symmetry_equiv_pos_as_xyz
  1  'x, y, z'
loop_
 _atom_site_type_symbol
 _atom_site_label
 _atom_site_symmetry_multiplicity
 _atom_site_fract_x
 _atom_site_fract_y
 _atom_site_fract_z
 _atom_site_occupancy
  Sr  Sr0  1  0.25000000  0.25000000  0.25000000  1
  Sr  Sr1  1  0.75000000  0.75000000  0.75000000  1
  Sc  Sc0  1  0.50000000  0.50000000  0.50000000  1
  Os  Os0  1  0.00000000  0.00000000  0.00000000  1
  O  O0  1  0.75654100  0.24345900  0.24345900  1
  O  O1  1  0.24345900  0.75654100  0.75654100  1
  O  O2  1  0.24345900  0.75654100  0.24345900  1
  O  O3  1  0.75654100  0.24345900  0.75654100  1
  O  O4  1  0.24345900  0.24345900  0.75654100  1
  O  O5  1  0.75654100  0.75654100  0.24345900  1
loop_
_geom_bond_atom_site_label_1
_geom_bond_atom_site_label_2
_geom_bond_distance
_geom_bond_site_symmetry_2
O0 Os0 1.970827 1_655
O0 Sc0 2.076728 1_555
O0 Sr1 2.862543 1_545
O0 Sr0 2.862543 1_555
O0 Sr1 2.862543 1_554
O0 Sr0 2.862543 1_655
O1 Os0 1.970827 1_566
O1 Sc0 2.076728 1_555
O1 Sr0 2.862543 1_556
O1 Sr1 2.862543 1_455
O1 Sr1 2.862543 1_555
O1 Sr0 2.862543 1_565
O2 Os0 1.970827 1_565
O2 Sc0 2.076728 1_555
O2 Sr0 2.862543 1_555
O2 Sr1 2.862543 1_455
O2 Sr1 2.862543 1_554
O2 Sr0 2.862543 1_565
O3 Os0 1.970827 1_656
O3 Sc0 2.076728 1_555
O3 Sr1 2.862543 1_545
O3 Sr0 2.862543 1_556
O3 Sr0 2.862543 1_655
O3 Sr1 2.862543 1_555
O4 Os0 1.970827 1_556
O4 Sc0 2.076728 1_555
O4 Sr1 2.862543 1_455
O4 Sr1 2.862543 1_545
O4 Sr0 2.862543 1_555
O4 Sr0 2.862543 1_556
O5 Os0 1.970827 1_665
O5 Sc0 2.076728 1_555
O5 Sr1 2.862543 1_554
O5 Sr1 2.862543 1_555
O5 Sr0 2.862543 1_565
O5 Sr0 2.862543 1_655
