# generated using pymatgen
data_K2TiSi3O10
_symmetry_space_group_name_H-M   'P 1'
_cell_length_a   7.20409200
_cell_length_b   10.00165300
_cell_length_c   13.00789400
_cell_angle_alpha   90.00000000
_cell_angle_beta   90.00000000
_cell_angle_gamma   90.00000000
_symmetry_Int_Tables_number   1
_chemical_formula_structural   K2TiSi3O10
_chemical_formula_sum   'K8 Ti4 Si12 O40'
_cell_volume   937.25555376
_cell_formula_units_Z   4
loop_
 _symmetry_equiv_pos_site_id
 _symmetry_equiv_pos_as_xyz
  1  'x, y, z'
loop_
 _atom_site_type_symbol
 _atom_site_label
 _atom_site_symmetry_multiplicity
 _atom_site_fract_x
 _atom_site_fract_y
 _atom_site_fract_z
 _atom_site_occupancy
  K  K0  1  0.34051700  0.78061000  0.12593100  1
  K  K1  1  0.84051700  0.71939000  0.87406900  1
  K  K2  1  0.65948300  0.28061000  0.37406900  1
  K  K3  1  0.15948300  0.21939000  0.62593100  1
  K  K4  1  0.78298400  0.56130300  0.58512700  1
  K  K5  1  0.28298400  0.93869700  0.41487300  1
  K  K6  1  0.21701600  0.06130300  0.91487300  1
  K  K7  1  0.71701600  0.43869700  0.08512700  1
  Ti  Ti0  1  0.23839300  0.54954500  0.70848600  1
  Ti  Ti1  1  0.73839300  0.95045500  0.29151400  1
  Ti  Ti2  1  0.76160700  0.04954500  0.79151400  1
  Ti  Ti3  1  0.26160700  0.45045500  0.20848600  1
  Si  Si0  1  0.48918700  0.82266100  0.67612100  1
  Si  Si1  1  0.98918700  0.67733900  0.32387900  1
  Si  Si2  1  0.51081300  0.32266100  0.82387900  1
  Si  Si3  1  0.01081300  0.17733900  0.17612100  1
  Si  Si4  1  0.76552600  0.96737100  0.54961000  1
  Si  Si5  1  0.26552600  0.53262900  0.45039000  1
  Si  Si6  1  0.23447400  0.46737100  0.95039000  1
  Si  Si7  1  0.73447400  0.03262900  0.04961000  1
  Si  Si8  1  0.92089200  0.35933800  0.83206300  1
  Si  Si9  1  0.42089200  0.14066200  0.16793700  1
  Si  Si10  1  0.07910800  0.85933800  0.66793700  1
  Si  Si11  1  0.57910800  0.64066200  0.33206300  1
  O  O0  1  0.25618400  0.57893800  0.85907100  1
  O  O1  1  0.75618400  0.92106200  0.14092900  1
  O  O2  1  0.74381600  0.07893800  0.64092900  1
  O  O3  1  0.24381600  0.42106200  0.35907100  1
  O  O4  1  0.44623000  0.66409100  0.68675200  1
  O  O5  1  0.94623000  0.83590900  0.31324800  1
  O  O6  1  0.55377000  0.16409100  0.81324800  1
  O  O7  1  0.05377000  0.33590900  0.18675200  1
  O  O8  1  0.22040600  0.48401700  0.56588000  1
  O  O9  1  0.72040600  0.01598300  0.43412000  1
  O  O10  1  0.77959400  0.98401700  0.93412000  1
  O  O11  1  0.27959400  0.51598300  0.06588000  1
  O  O12  1  0.01450500  0.43870000  0.73713600  1
  O  O13  1  0.51450500  0.06130000  0.26286400  1
  O  O14  1  0.98549500  0.93870000  0.76286400  1
  O  O15  1  0.48549500  0.56130000  0.23713600  1
  O  O16  1  0.40322100  0.38592700  0.72558700  1
  O  O17  1  0.90322100  0.11407300  0.27441300  1
  O  O18  1  0.59677900  0.88592700  0.77441300  1
  O  O19  1  0.09677900  0.61407300  0.22558700  1
  O  O20  1  0.06782700  0.69868800  0.68505100  1
  O  O21  1  0.56782700  0.80131200  0.31494900  1
  O  O22  1  0.93217300  0.19868800  0.81494900  1
  O  O23  1  0.43217300  0.30131200  0.18505100  1
  O  O24  1  0.29670300  0.90776600  0.65052900  1
  O  O25  1  0.79670300  0.59223400  0.34947100  1
  O  O26  1  0.70329700  0.40776600  0.84947100  1
  O  O27  1  0.20329700  0.09223400  0.15052900  1
  O  O28  1  0.98059600  0.90772500  0.55839900  1
  O  O29  1  0.48059600  0.59227500  0.44160100  1
  O  O30  1  0.01940400  0.40772500  0.94160100  1
  O  O31  1  0.51940400  0.09227500  0.05839900  1
  O  O32  1  0.62566600  0.83942900  0.57519700  1
  O  O33  1  0.12566600  0.66057100  0.42480300  1
  O  O34  1  0.37433400  0.33942900  0.92480300  1
  O  O35  1  0.87433400  0.16057100  0.07519700  1
  O  O36  1  0.58635600  0.30360300  0.58896100  1
  O  O37  1  0.08635600  0.19639700  0.41103900  1
  O  O38  1  0.41364400  0.80360300  0.91103900  1
  O  O39  1  0.91364400  0.69639700  0.08896100  1
loop_
_geom_bond_atom_site_label_1
_geom_bond_atom_site_label_2
_geom_bond_distance
_geom_bond_site_symmetry_2
K0 O19 2.745547 1_555
K0 O11 2.794256 1_555
K0 O15 2.827474 1_555
K0 O38 2.853783 1_554
K0 O21 2.961387 1_555
K0 O39 3.224552 1_455
K0 O27 3.285386 1_565
K0 O1 3.313373 1_555
K1 O18 2.745547 1_555
K1 O10 2.794256 1_555
K1 O14 2.827474 1_555
K1 O39 2.853783 1_556
K1 O20 2.961387 1_655
K1 O38 3.224552 1_555
K1 O26 3.285386 1_555
K1 O0 3.313373 1_655
K2 O17 2.745547 1_555
K2 O9 2.794256 1_555
K2 O13 2.827474 1_555
K2 O36 2.853783 1_555
K2 O23 2.961387 1_555
K2 O37 3.224552 1_655
K2 O25 3.285386 1_555
K2 O3 3.313373 1_555
K3 O16 2.745547 1_555
K3 O8 2.794256 1_555
K3 O12 2.827474 1_555
K3 O37 2.853783 1_555
K3 O22 2.961387 1_455
K3 O36 3.224552 1_555
K3 O24 3.285386 1_545
K3 O2 3.313373 1_455
K4 O20 2.790774 1_655
K4 O12 2.862746 1_655
K4 O29 2.885672 1_555
K4 O36 2.941455 1_555
K4 O4 2.947861 1_555
K4 O32 3.006509 1_555
K4 O25 3.082544 1_555
K4 O8 3.254294 1_655
K4 O33 3.380754 1_655
K5 O21 2.790774 1_555
K5 O13 2.862746 1_565
K5 O28 2.885672 1_455
K5 O37 2.941455 1_565
K5 O5 2.947861 1_455
K5 O33 3.006509 1_555
K5 O24 3.082544 1_555
K5 O9 3.254294 1_565
K5 O32 3.380754 1_555
K6 O22 2.790774 1_455
K6 O14 2.862746 1_445
K6 O31 2.885672 1_556
K6 O38 2.941455 1_545
K6 O6 2.947861 1_555
K6 O34 3.006509 1_555
K6 O27 3.082544 1_556
K6 O10 3.254294 1_445
K6 O35 3.380754 1_456
K7 O23 2.790774 1_555
K7 O15 2.862746 1_555
K7 O30 2.885672 1_654
K7 O39 2.941455 1_555
K7 O7 2.947861 1_655
K7 O35 3.006509 1_555
K7 O26 3.082544 1_554
K7 O11 3.254294 1_555
K7 O34 3.380754 1_554
O0 Si6 1.637261 1_555
O0 Ti0 1.984874 1_555
O1 Si7 1.637261 1_565
O1 Ti1 1.984874 1_555
O2 Si4 1.637261 1_545
O2 Ti2 1.984874 1_555
O3 Si5 1.637261 1_555
O3 Ti3 1.984874 1_555
O4 Si0 1.621779 1_555
O4 Ti0 1.906378 1_555
O5 Si1 1.621779 1_555
O5 Ti1 1.906378 1_555
O6 Si2 1.621779 1_555
O6 Ti2 1.906378 1_555
O7 Si3 1.621779 1_555
O7 Ti3 1.906378 1_555
O8 Si5 1.612110 1_555
O8 Ti0 1.971640 1_555
O9 Si4 1.612110 1_545
O9 Ti1 1.971640 1_545
O10 Si7 1.612110 1_566
O10 Ti2 1.971640 1_565
O11 Si6 1.612110 1_554
O11 Ti3 1.971640 1_555
O12 Si8 1.615421 1_455
O12 Ti0 1.992344 1_555
O13 Si9 1.615421 1_555
O13 Ti1 1.992344 1_545
O14 Si10 1.615421 1_655
O14 Ti2 1.992344 1_565
O15 Si11 1.615421 1_555
O15 Ti3 1.992344 1_555
O16 Si2 1.623552 1_555
O16 Ti0 2.034074 1_555
O17 Si3 1.623552 1_655
O17 Ti1 2.034074 1_545
O18 Si0 1.623552 1_555
O18 Ti2 2.034074 1_565
O19 Si1 1.623552 1_455
O19 Ti3 2.034074 1_555
O20 Si10 1.624149 1_555
O20 Ti0 1.956504 1_555
O21 Si11 1.624149 1_555
O21 Ti1 1.956504 1_555
O22 Si8 1.624149 1_555
O22 Ti2 1.956504 1_555
O23 Si9 1.624149 1_555
O23 Ti3 1.956504 1_555
O24 Si10 1.656252 1_555
O24 Si0 1.660785 1_555
O25 Si11 1.656252 1_555
O25 Si1 1.660785 1_555
O26 Si8 1.656252 1_555
O26 Si2 1.660785 1_555
O27 Si9 1.656252 1_555
O27 Si3 1.660785 1_555
O28 Si10 1.663758 1_655
O28 Si4 1.664195 1_555
O29 Si11 1.663758 1_555
O29 Si5 1.664195 1_555
O30 Si8 1.663758 1_455
O30 Si6 1.664195 1_555
O31 Si9 1.663758 1_555
O31 Si7 1.664195 1_555
O32 Si0 1.648723 1_555
O32 Si4 1.662354 1_555
O33 Si1 1.648723 1_455
O33 Si5 1.662354 1_555
O34 Si2 1.648723 1_555
O34 Si6 1.662354 1_555
O35 Si3 1.648723 1_655
O35 Si7 1.662354 1_555
