# generated using pymatgen
data_NaPrHfGaO6
_symmetry_space_group_name_H-M   'P 1'
_cell_length_a   5.65238782
_cell_length_b   5.65238782
_cell_length_c   5.65238782
_cell_angle_alpha   60.00000000
_cell_angle_beta   60.00000000
_cell_angle_gamma   60.00000000
_symmetry_Int_Tables_number   1
_chemical_formula_structural   NaPrHfGaO6
_chemical_formula_sum   'Na1 Pr1 Hf1 Ga1 O6'
_cell_volume   127.69704828
_cell_formula_units_Z   1
loop_
 _symmetry_equiv_pos_site_id
 _symmetry_equiv_pos_as_xyz
  1  'x, y, z'
loop_
 _atom_site_type_symbol
 _atom_site_label
 _atom_site_symmetry_multiplicity
 _atom_site_fract_x
 _atom_site_fract_y
 _atom_site_fract_z
 _atom_site_occupancy
  Na  Na0  1  0.25000000  0.25000000  0.25000000  1
  Pr  Pr0  1  0.75000000  0.75000000  0.75000000  1
  Hf  Hf0  1  0.50000000  0.50000000  0.50000000  1
  Ga  Ga0  1  0.00000000  0.00000000  0.00000000  1
  O  O0  1  0.75541591  0.24458409  0.24458409  1
  O  O1  1  0.24458409  0.75541591  0.75541591  1
  O  O2  1  0.75541591  0.24458409  0.75541591  1
  O  O3  1  0.24458409  0.75541591  0.24458409  1
  O  O4  1  0.75541591  0.75541591  0.24458409  1
  O  O5  1  0.24458409  0.24458409  0.75541591  1
loop_
_geom_bond_atom_site_label_1
_geom_bond_atom_site_label_2
_geom_bond_distance
_geom_bond_site_symmetry_2
Na0 O0 2.826525 1_555
Na0 O4 2.826525 1_455
Na0 O1 2.826525 1_554
Na0 O2 2.826525 1_455
Na0 O0 2.826525 1_455
Na0 O5 2.826525 1_555
Na0 O2 2.826525 1_554
Na0 O4 2.826525 1_545
Na0 O3 2.826525 1_555
Na0 O1 2.826525 1_545
Na0 O5 2.826525 1_554
Na0 O3 2.826525 1_545
Hf0 O2 2.041714 1_555
Hf0 O4 2.041714 1_555
Hf0 O1 2.041714 1_555
Hf0 O5 2.041714 1_555
Hf0 O3 2.041714 1_555
Hf0 O0 2.041714 1_555
Ga0 O3 1.955128 1_545
Ga0 O5 1.955128 1_554
Ga0 O0 1.955128 1_455
Ga0 O1 1.955128 1_544
Ga0 O4 1.955128 1_445
Ga0 O2 1.955128 1_454
O0 Pr0 2.826525 1_545
O0 Pr0 2.826525 1_554
O1 Pr0 2.826525 1_555
O1 Pr0 2.826525 1_455
O2 Pr0 2.826525 1_545
O2 Pr0 2.826525 1_555
O3 Pr0 2.826525 1_554
O3 Pr0 2.826525 1_455
O4 Pr0 2.826525 1_555
O4 Pr0 2.826525 1_554
O5 Pr0 2.826525 1_545
O5 Pr0 2.826525 1_455
