# generated using pymatgen
data_YCr4(CuO4)3
_symmetry_space_group_name_H-M   'P 1'
_cell_length_a   6.39911776
_cell_length_b   6.39916802
_cell_length_c   6.39910974
_cell_angle_alpha   70.42333088
_cell_angle_beta   70.53023683
_cell_angle_gamma   109.36781971
_symmetry_Int_Tables_number   1
_chemical_formula_structural   YCr4(CuO4)3
_chemical_formula_sum   'Y1 Cr4 Cu3 O12'
_cell_volume   201.71446288
_cell_formula_units_Z   1
loop_
 _symmetry_equiv_pos_site_id
 _symmetry_equiv_pos_as_xyz
  1  'x, y, z'
loop_
 _atom_site_type_symbol
 _atom_site_label
 _atom_site_symmetry_multiplicity
 _atom_site_fract_x
 _atom_site_fract_y
 _atom_site_fract_z
 _atom_site_occupancy
  Y  Y0  1  0.99999500  0.99999800  0.00000600  1
  Cr  Cr0  1  0.00000400  0.50000100  0.00000300  1
  Cr  Cr1  1  0.49999500  0.49999900  0.49999600  1
  Cr  Cr2  1  0.50000700  0.00001000  0.99999600  1
  Cr  Cr3  1  0.99999500  0.99998900  0.50000100  1
  Cu  Cu0  1  0.50000100  0.99999700  0.49999900  1
  Cu  Cu1  1  0.49999900  0.50000100  0.00000200  1
  Cu  Cu2  1  0.99999900  0.50000100  0.50000100  1
  O  O0  1  0.86107100  0.69346900  0.83241700  1
  O  O1  1  0.47411200  0.30653200  0.83239500  1
  O  O2  1  0.52588500  0.69347500  0.16759700  1
  O  O3  1  0.13892900  0.30652500  0.16759000  1
  O  O4  1  0.83333200  0.13910300  0.69422200  1
  O  O5  1  0.83333200  0.52757100  0.30576300  1
  O  O6  1  0.16666300  0.47242600  0.69424000  1
  O  O7  1  0.16668000  0.86090000  0.30576700  1
  O  O8  1  0.30712100  0.16800800  0.52486600  1
  O  O9  1  0.69288600  0.16802400  0.13911500  1
  O  O10  1  0.30712900  0.83199300  0.86088500  1
  O  O11  1  0.69286500  0.83197800  0.47513800  1
loop_
_geom_bond_atom_site_label_1
_geom_bond_atom_site_label_2
_geom_bond_distance
_geom_bond_site_symmetry_2
Cr0 O3 1.987215 1_555
Cr0 O0 1.987225 1_454
Cr0 O5 1.990461 1_455
Cr0 O6 1.990477 1_554
Cr0 O9 1.991257 1_455
Cr0 O10 1.991326 1_554
Cr1 O2 1.987191 1_555
Cr1 O1 1.987199 1_555
Cr1 O6 1.990464 1_555
Cr1 O5 1.990477 1_555
Cr1 O11 1.991289 1_555
Cr1 O8 1.991322 1_555
Cr2 O1 1.987317 1_555
Cr2 O2 1.987322 1_546
Cr2 O7 1.990439 1_546
Cr2 O4 1.990467 1_555
Cr2 O10 1.991340 1_545
Cr2 O9 1.991377 1_556
Cr3 O0 1.987287 1_555
Cr3 O3 1.987302 1_665
Cr3 O7 1.990485 1_655
Cr3 O4 1.990502 1_565
Cr3 O8 1.991343 1_665
Cr3 O11 1.991344 1_555
Cu0 O9 1.888985 1_565
Cu0 O10 1.888999 1_555
Cu0 O11 1.889002 1_555
Cu0 O8 1.889046 1_565
Cu1 O3 1.892770 1_555
Cu1 O0 1.892779 1_554
Cu1 O2 1.892783 1_555
Cu1 O1 1.892819 1_554
Cu2 O4 1.890744 1_555
Cu2 O7 1.890749 1_655
Cu2 O6 1.890774 1_655
Cu2 O5 1.890783 1_555
O0 Y0 2.583918 1_556
O1 Y0 2.583890 1_446
O2 Y0 2.583868 1_555
O3 Y0 2.583897 1_445
O4 Y0 2.571421 1_546
O5 Y0 2.571309 1_555
O6 Y0 2.571320 1_446
O7 Y0 2.571405 1_455
O8 Y0 2.586009 1_446
O9 Y0 2.585999 1_545
O10 Y0 2.586036 1_456
O11 Y0 2.585960 1_555
