# generated using pymatgen
data_LaH2SNO7
_symmetry_space_group_name_H-M   'P 1'
_cell_length_a   8.92647500
_cell_length_b   8.92647500
_cell_length_c   12.15926100
_cell_angle_alpha   90.00000000
_cell_angle_beta   90.00000000
_cell_angle_gamma   90.00000000
_symmetry_Int_Tables_number   1
_chemical_formula_structural   LaH2SNO7
_chemical_formula_sum   'La4 H8 S4 N4 O28'
_cell_volume   968.87369909
_cell_formula_units_Z   4
loop_
 _symmetry_equiv_pos_site_id
 _symmetry_equiv_pos_as_xyz
  1  'x, y, z'
loop_
 _atom_site_type_symbol
 _atom_site_label
 _atom_site_symmetry_multiplicity
 _atom_site_fract_x
 _atom_site_fract_y
 _atom_site_fract_z
 _atom_site_occupancy
  La  La0  1  0.90652100  0.35500100  0.52961100  1
  La  La1  1  0.09347900  0.64499900  0.02961100  1
  La  La2  1  0.35500100  0.09347900  0.27961100  1
  La  La3  1  0.64499900  0.90652100  0.77961100  1
  H  H0  1  0.62500500  0.14428300  0.96523200  1
  H  H1  1  0.37499500  0.85571700  0.46523200  1
  H  H2  1  0.14428300  0.37499500  0.71523200  1
  H  H3  1  0.85571700  0.62500500  0.21523200  1
  H  H4  1  0.53581100  0.41154000  0.95988900  1
  H  H5  1  0.46418900  0.58846000  0.45988900  1
  H  H6  1  0.41154000  0.46418900  0.70988900  1
  H  H7  1  0.58846000  0.53581100  0.20988900  1
  S  S0  1  0.29087200  0.67293600  0.74322500  1
  S  S1  1  0.70912800  0.32706400  0.24322500  1
  S  S2  1  0.67293600  0.70912800  0.49322500  1
  S  S3  1  0.32706400  0.29087200  0.99322500  1
  N  N0  1  0.85020000  0.09297700  0.71804300  1
  N  N1  1  0.14980000  0.90702300  0.21804300  1
  N  N2  1  0.09297700  0.14980000  0.46804300  1
  N  N3  1  0.90702300  0.85020000  0.96804300  1
  O  O0  1  0.05609200  0.51694900  0.61250500  1
  O  O1  1  0.94390800  0.48305100  0.11250500  1
  O  O2  1  0.51694900  0.94390800  0.36250500  1
  O  O3  1  0.48305100  0.05609200  0.86250500  1
  O  O4  1  0.40801300  0.52806800  0.77547300  1
  O  O5  1  0.59198700  0.47193200  0.27547300  1
  O  O6  1  0.52806800  0.59198700  0.52547300  1
  O  O7  1  0.47193200  0.40801300  0.02547300  1
  O  O8  1  0.39735100  0.80424400  0.74687900  1
  O  O9  1  0.60264900  0.19575600  0.24687900  1
  O  O10  1  0.80424400  0.60264900  0.49687900  1
  O  O11  1  0.19575600  0.39735100  0.99687900  1
  O  O12  1  0.19821100  0.67779100  0.84770700  1
  O  O13  1  0.80178900  0.32220900  0.34770700  1
  O  O14  1  0.67779100  0.80178900  0.59770700  1
  O  O15  1  0.32220900  0.19821100  0.09770700  1
  O  O16  1  0.73463500  0.14359400  0.66551200  1
  O  O17  1  0.26536500  0.85640600  0.16551200  1
  O  O18  1  0.14359400  0.26536500  0.41551200  1
  O  O19  1  0.85640600  0.73463500  0.91551200  1
  O  O20  1  0.96983700  0.16068500  0.70420900  1
  O  O21  1  0.03016300  0.83931500  0.20420900  1
  O  O22  1  0.16068500  0.03016300  0.45420900  1
  O  O23  1  0.83931500  0.96983700  0.95420900  1
  O  O24  1  0.61158800  0.15709000  0.88562500  1
  O  O25  1  0.38841200  0.84291000  0.38562500  1
  O  O26  1  0.15709000  0.38841200  0.63562500  1
  O  O27  1  0.84291000  0.61158800  0.13562500  1
loop_
_geom_bond_atom_site_label_1
_geom_bond_atom_site_label_2
_geom_bond_distance
_geom_bond_site_symmetry_2
La0 O0 2.210963 1_655
La0 O13 2.419057 1_555
La0 O10 2.424619 1_555
La0 N2 2.585701 1_655
La0 O26 2.598734 1_655
La0 O18 2.653939 1_655
La0 O20 2.799139 1_555
La0 O16 2.940411 1_555
La1 O1 2.210963 1_455
La1 O12 2.419057 1_554
La1 O11 2.424619 1_554
La1 N3 2.585701 1_454
La1 O27 2.598734 1_455
La1 O19 2.653939 1_454
La1 O21 2.799139 1_555
La1 O17 2.940411 1_555
La2 O2 2.210963 1_545
La2 O15 2.419057 1_555
La2 O9 2.424619 1_555
La2 N1 2.585701 1_545
La2 O25 2.598734 1_545
La2 O17 2.653939 1_545
La2 O22 2.799139 1_555
La2 O18 2.940411 1_555
La3 O3 2.210963 1_565
La3 O14 2.419057 1_555
La3 O8 2.424619 1_555
La3 N0 2.585701 1_565
La3 O24 2.598734 1_565
La3 O16 2.653939 1_565
La3 O23 2.799139 1_555
La3 O19 2.940411 1_555
H0 O24 0.982021 1_555
H1 O25 0.982021 1_555
H2 O26 0.982021 1_555
H3 O27 0.982021 1_555
H4 O7 0.980850 1_556
H5 O6 0.980850 1_555
H6 O4 0.980850 1_555
H7 O5 0.980850 1_555
N0 O20 1.238578 1_555
N0 O16 1.294725 1_555
N1 O21 1.238578 1_555
N1 O17 1.294725 1_555
N2 O22 1.238578 1_555
N2 O18 1.294725 1_555
N3 O23 1.238578 1_555
N3 O19 1.294725 1_555
O0 O26 1.486041 1_555
O1 O27 1.486041 1_555
O2 O25 1.486041 1_555
O4 S0 1.708629 1_555
O5 S1 1.708629 1_555
O6 S2 1.708629 1_555
O7 S3 1.708629 1_554
O8 S0 1.509718 1_555
O9 S1 1.509718 1_555
O10 S2 1.509718 1_555
O11 S3 1.509718 1_555
O12 S0 1.516578 1_555
O13 S1 1.516578 1_555
O14 S2 1.516578 1_555
O15 S3 1.516578 1_554
O24 O3 1.486041 1_555
