# generated using pymatgen
data_KNaSr8(BO3)6
_symmetry_space_group_name_H-M   'P 1'
_cell_length_a   11.16210100
_cell_length_b   6.93547100
_cell_length_c   6.93615146
_cell_angle_alpha   60.06011856
_cell_angle_beta   90.00000000
_cell_angle_gamma   90.00000000
_symmetry_Int_Tables_number   1
_chemical_formula_structural   KNaSr8(BO3)6
_chemical_formula_sum   'K1 Na1 Sr8 B6 O18'
_cell_volume   465.30088907
_cell_formula_units_Z   1
loop_
 _symmetry_equiv_pos_site_id
 _symmetry_equiv_pos_as_xyz
  1  'x, y, z'
loop_
 _atom_site_type_symbol
 _atom_site_label
 _atom_site_symmetry_multiplicity
 _atom_site_fract_x
 _atom_site_fract_y
 _atom_site_fract_z
 _atom_site_occupancy
  K  K0  1  0.00000000  0.91159500  0.83278400  1
  Na  Na0  1  0.50000000  0.76963100  0.17107400  1
  Sr  Sr0  1  0.71865900  0.13874500  0.56889500  1
  Sr  Sr1  1  0.77987500  0.70823100  0.42949600  1
  Sr  Sr2  1  0.28134100  0.13874500  0.56889500  1
  Sr  Sr3  1  0.22012500  0.70823100  0.42949600  1
  Sr  Sr4  1  0.75031200  0.27670700  0.99951300  1
  Sr  Sr5  1  0.24968800  0.27670700  0.99951300  1
  Sr  Sr6  1  0.00000000  0.41301000  0.28729400  1
  Sr  Sr7  1  0.50000000  0.69951400  0.71628000  1
  B  B0  1  0.74792800  0.70660400  0.00081300  1
  B  B1  1  0.25207200  0.70660400  0.00081300  1
  B  B2  1  0.00000000  0.96654500  0.34002400  1
  B  B3  1  0.50000000  0.30685900  0.65907900  1
  B  B4  1  0.00000000  0.38061700  0.74838900  1
  B  B5  1  0.50000000  0.12806000  0.24989800  1
  O  O0  1  0.00000000  0.79773500  0.28910300  1
  O  O1  1  0.50000000  0.08449600  0.71697900  1
  O  O2  1  0.00000000  0.44923700  0.90204900  1
  O  O3  1  0.50000000  0.35210200  0.10219800  1
  O  O4  1  0.60740700  0.42452200  0.62422000  1
  O  O5  1  0.89232100  0.05100200  0.37239500  1
  O  O6  1  0.39259300  0.42452200  0.62422000  1
  O  O7  1  0.10767900  0.05100200  0.37239500  1
  O  O8  1  0.74572500  0.90548900  0.00192700  1
  O  O9  1  0.25427500  0.90548900  0.00192700  1
  O  O10  1  0.77594000  0.50934500  0.19532600  1
  O  O11  1  0.72401100  0.70545500  0.80378600  1
  O  O12  1  0.22406000  0.50934500  0.19532600  1
  O  O13  1  0.27598900  0.70545500  0.80378600  1
  O  O14  1  0.89236600  0.33822500  0.66839400  1
  O  O15  1  0.60705500  0.00387500  0.32766000  1
  O  O16  1  0.10763400  0.33822500  0.66839400  1
  O  O17  1  0.39294500  0.00387500  0.32766000  1
loop_
_geom_bond_atom_site_label_1
_geom_bond_atom_site_label_2
_geom_bond_distance
_geom_bond_site_symmetry_2
K0 O14 2.851462 1_465
K0 O16 2.851462 1_565
K0 O0 2.854221 1_556
K0 O2 2.995958 1_555
K0 O9 3.063369 1_556
K0 O8 3.063369 1_456
K0 O5 3.081380 1_465
K0 O7 3.081380 1_565
Na0 O15 2.647285 1_565
Na0 O17 2.647285 1_565
Na0 O1 2.797068 1_564
Na0 O8 2.946832 1_555
Na0 O9 2.946832 1_555
B0 O8 1.383452 1_555
B0 O10 1.395442 1_555
B0 O11 1.396361 1_554
B1 O9 1.383452 1_555
B1 O12 1.395442 1_555
B1 O13 1.396361 1_554
B2 O0 1.381386 1_555
B2 O5 1.403359 1_465
B2 O7 1.403359 1_565
B3 O1 1.386152 1_555
B3 O6 1.401705 1_555
B3 O4 1.401705 1_555
B4 O2 1.367022 1_555
B4 O16 1.414411 1_555
B4 O14 1.414411 1_455
B5 O3 1.369300 1_555
B5 O17 1.413134 1_555
B5 O15 1.413134 1_555
O0 Sr3 2.601412 1_555
O0 Sr1 2.601412 1_455
O0 Sr6 2.674534 1_555
O1 Sr2 2.601499 1_555
O1 Sr0 2.601499 1_555
O1 Sr7 2.672455 1_545
O2 Sr6 2.556010 1_556
O2 Sr5 2.974721 1_555
O2 Sr4 2.974721 1_455
O3 Sr7 2.555936 1_554
O3 Sr5 2.993149 1_554
O3 Sr4 2.993149 1_554
O4 Sr0 2.525243 1_555
O4 Sr7 2.588067 1_555
O4 Sr1 2.597915 1_555
O4 Sr4 2.776274 1_555
O5 Sr1 2.538472 1_545
O5 Sr6 2.572418 1_655
O5 Sr0 2.610247 1_555
O5 Sr4 2.758807 1_554
O6 Sr2 2.525243 1_555
O6 Sr7 2.588067 1_555
O6 Sr3 2.597915 1_555
O6 Sr5 2.776274 1_555
O7 Sr3 2.538472 1_545
O7 Sr6 2.572418 1_555
O7 Sr2 2.610247 1_555
O7 Sr5 2.758807 1_554
O8 Sr4 2.566767 1_564
O8 Sr1 2.600444 1_555
O8 Sr0 2.622909 1_564
O9 Sr5 2.566767 1_564
O9 Sr3 2.600444 1_555
O9 Sr2 2.622909 1_564
O10 Sr6 2.585110 1_655
O10 Sr4 2.591743 1_554
O10 Sr1 2.603668 1_555
O10 Sr0 2.661070 1_555
O11 Sr7 2.578221 1_555
O11 Sr4 2.596498 1_555
O11 Sr0 2.607941 1_565
O11 Sr1 2.660678 1_555
O12 Sr6 2.585110 1_555
O12 Sr5 2.591743 1_554
O12 Sr3 2.603668 1_555
O12 Sr2 2.661070 1_555
O13 Sr7 2.578221 1_555
O13 Sr5 2.596498 1_555
O13 Sr2 2.607941 1_565
O13 Sr3 2.660678 1_555
O14 Sr1 2.581297 1_555
O14 Sr4 2.644410 1_555
O14 Sr0 2.665120 1_555
O14 Sr6 2.707634 1_655
O15 Sr0 2.605538 1_555
O15 Sr1 2.641719 1_545
O15 Sr4 2.649334 1_554
O15 Sr7 2.733135 1_545
O16 Sr3 2.581297 1_555
O16 Sr5 2.644410 1_555
O16 Sr2 2.665120 1_555
O16 Sr6 2.707634 1_555
O17 Sr2 2.605538 1_555
O17 Sr3 2.641719 1_545
O17 Sr5 2.649334 1_554
O17 Sr7 2.733135 1_545
