# generated using pymatgen
data_Li3Mn3TeO8
_symmetry_space_group_name_H-M   'P 1'
_cell_length_a   6.15223081
_cell_length_b   8.83066341
_cell_length_c   6.27205917
_cell_angle_alpha   89.99880916
_cell_angle_beta   90.00179609
_cell_angle_gamma   92.27503919
_symmetry_Int_Tables_number   1
_chemical_formula_structural   Li3Mn3TeO8
_chemical_formula_sum   'Li6 Mn6 Te2 O16'
_cell_volume   340.48159879
_cell_formula_units_Z   2
loop_
 _symmetry_equiv_pos_site_id
 _symmetry_equiv_pos_as_xyz
  1  'x, y, z'
loop_
 _atom_site_type_symbol
 _atom_site_label
 _atom_site_symmetry_multiplicity
 _atom_site_fract_x
 _atom_site_fract_y
 _atom_site_fract_z
 _atom_site_occupancy
  Li  Li0  1  0.76066700  0.74771700  0.26124800  1
  Li  Li1  1  0.23796200  0.25231300  0.73744900  1
  Li  Li2  1  0.99670800  0.50764200  0.50341800  1
  Li  Li3  1  0.50289400  0.99296500  0.00294700  1
  Li  Li4  1  0.26206600  0.24767800  0.23746800  1
  Li  Li5  1  0.73914700  0.75240900  0.76128200  1
  Mn  Mn0  1  0.75645800  0.25550100  0.24934400  1
  Mn  Mn1  1  0.24576900  0.74556400  0.75076500  1
  Mn  Mn2  1  0.99918000  0.99902600  0.49971700  1
  Mn  Mn3  1  0.50076200  0.50087300  0.99991900  1
  Mn  Mn4  1  0.25433100  0.75434100  0.25084500  1
  Mn  Mn5  1  0.74385400  0.24460900  0.74922600  1
  Te  Te0  1  0.00061900  0.99985900  0.99972800  1
  Te  Te1  1  0.49936500  0.50008400  0.49967000  1
  O  O0  1  0.51373500  0.28295100  0.00310500  1
  O  O1  1  0.01198300  0.77969300  0.49724700  1
  O  O2  1  0.98643900  0.21691200  0.50314300  1
  O  O3  1  0.48800000  0.72015900  0.99716600  1
  O  O4  1  0.29152300  0.49655600  0.25897500  1
  O  O5  1  0.75992500  0.99508100  0.79617400  1
  O  O6  1  0.49509500  0.27964800  0.49919400  1
  O  O7  1  0.99567500  0.77922400  0.00043100  1
  O  O8  1  0.79127700  0.99555100  0.23959000  1
  O  O9  1  0.25934600  0.49586800  0.70371900  1
  O  O10  1  0.24063000  0.00403500  0.20380600  1
  O  O11  1  0.70873200  0.50443800  0.73949900  1
  O  O12  1  0.00499200  0.22030200  0.99923900  1
  O  O13  1  0.50421800  0.72071700  0.50037100  1
  O  O14  1  0.74010100  0.50493500  0.29617700  1
  O  O15  1  0.20853200  0.00334600  0.75913100  1
loop_
_geom_bond_atom_site_label_1
_geom_bond_atom_site_label_2
_geom_bond_distance
_geom_bond_site_symmetry_2
Li0 O1 2.150937 1_655
Li0 O14 2.153803 1_555
Li0 O13 2.183057 1_555
Li0 O8 2.193373 1_555
Li0 O7 2.193637 1_555
Li0 O3 2.363081 1_554
Li1 O2 2.147882 1_455
Li1 O9 2.159935 1_555
Li1 O6 2.182591 1_555
Li1 O12 2.190483 1_555
Li1 O15 2.203011 1_555
Li1 O0 2.385659 1_556
Li2 O14 2.044336 1_555
Li2 O9 2.052595 1_655
Li2 O11 2.308333 1_555
Li2 O4 2.379959 1_655
Li2 O1 2.400809 1_655
Li2 O2 2.565608 1_555
Li3 O5 2.044655 1_554
Li3 O10 2.052490 1_565
Li3 O8 2.312550 1_555
Li3 O15 2.374785 1_564
Li3 O3 2.407436 1_554
Li3 O0 2.558989 1_565
Li4 O0 2.148695 1_555
Li4 O10 2.160680 1_555
Li4 O12 2.182186 1_554
Li4 O6 2.190322 1_555
Li4 O4 2.202173 1_555
Li4 O2 2.385271 1_455
Li5 O3 2.150007 1_555
Li5 O5 2.152849 1_555
Li5 O7 2.183326 1_556
Li5 O13 2.193865 1_555
Li5 O11 2.194575 1_555
Li5 O1 2.363495 1_655
Mn0 O2 2.165671 1_555
Mn0 O0 2.168524 1_555
Mn0 O12 2.221084 1_654
Mn0 O14 2.228403 1_555
Mn0 O6 2.261446 1_555
Mn0 O8 2.314766 1_545
Mn1 O3 2.164713 1_555
Mn1 O1 2.173053 1_555
Mn1 O7 2.223587 1_456
Mn1 O9 2.229493 1_555
Mn1 O13 2.251812 1_555
Mn1 O15 2.297516 1_565
Mn2 O2 1.928901 1_565
Mn2 O1 1.941641 1_655
Mn2 O8 2.072584 1_555
Mn2 O15 2.074523 1_665
Mn2 O5 2.370930 1_555
Mn2 O10 2.376577 1_665
Mn3 O0 1.929316 1_556
Mn3 O3 1.941220 1_555
Mn3 O4 2.072394 1_556
Mn3 O11 2.074340 1_555
Mn3 O14 2.370190 1_556
Mn3 O9 2.377791 1_555
Mn4 O1 2.165228 1_555
Mn4 O3 2.173464 1_554
Mn4 O13 2.221953 1_555
Mn4 O10 2.229516 1_565
Mn4 O7 2.252768 1_455
Mn4 O4 2.297468 1_555
Mn5 O0 2.166277 1_556
Mn5 O2 2.167617 1_555
Mn5 O6 2.221409 1_555
Mn5 O5 2.229160 1_545
Mn5 O12 2.261263 1_655
Mn5 O11 2.313941 1_555
O4 Te1 1.977826 1_555
O5 Te0 1.954343 1_655
O6 Te1 1.945733 1_555
O7 Te0 1.947388 1_654
O8 Te0 1.979828 1_654
O9 Te1 1.953342 1_555
O10 Te0 1.953369 1_544
O11 Te1 1.979708 1_555
O12 Te0 1.945778 1_545
O13 Te1 1.947384 1_555
O14 Te1 1.954343 1_555
O15 Te0 1.977703 1_545
