# generated using pymatgen
data_Hf4CuP
_symmetry_space_group_name_H-M   'P 1'
_cell_length_a   6.48771900
_cell_length_b   6.48771900
_cell_length_c   5.21553800
_cell_angle_alpha   90.00000000
_cell_angle_beta   90.00000000
_cell_angle_gamma   90.00000000
_symmetry_Int_Tables_number   1
_chemical_formula_structural   Hf4CuP
_chemical_formula_sum   'Hf8 Cu2 P2'
_cell_volume   219.52459083
_cell_formula_units_Z   2
loop_
 _symmetry_equiv_pos_site_id
 _symmetry_equiv_pos_as_xyz
  1  'x, y, z'
loop_
 _atom_site_type_symbol
 _atom_site_label
 _atom_site_symmetry_multiplicity
 _atom_site_fract_x
 _atom_site_fract_y
 _atom_site_fract_z
 _atom_site_occupancy
  Hf  Hf0  1  0.15890600  0.65367500  0.50000000  1
  Hf  Hf1  1  0.84109400  0.34632500  0.50000000  1
  Hf  Hf2  1  0.65367500  0.84109400  0.50000000  1
  Hf  Hf3  1  0.34632500  0.15890600  0.50000000  1
  Hf  Hf4  1  0.15890600  0.34632500  0.00000000  1
  Hf  Hf5  1  0.84109400  0.65367500  0.00000000  1
  Hf  Hf6  1  0.65367500  0.15890600  0.00000000  1
  Hf  Hf7  1  0.34632500  0.84109400  0.00000000  1
  Cu  Cu0  1  0.00000000  0.00000000  0.25000000  1
  Cu  Cu1  1  0.00000000  0.00000000  0.75000000  1
  P  P0  1  0.50000000  0.50000000  0.25000000  1
  P  P1  1  0.50000000  0.50000000  0.75000000  1
loop_
_geom_bond_atom_site_label_1
_geom_bond_atom_site_label_2
_geom_bond_distance
_geom_bond_site_symmetry_2
Hf0 P1 2.755204 1_555
Hf0 P0 2.755204 1_555
Hf1 P1 2.755204 1_555
Hf1 P0 2.755204 1_555
Hf2 P1 2.755204 1_555
Hf2 P0 2.755204 1_555
Hf3 P1 2.755204 1_555
Hf3 P0 2.755204 1_555
Hf4 P1 2.755204 1_554
Hf4 P0 2.755204 1_555
Hf5 P1 2.755204 1_554
Hf5 P0 2.755204 1_555
Hf6 P0 2.755204 1_555
Hf6 P1 2.755204 1_554
Hf7 P1 2.755204 1_554
Hf7 P0 2.755204 1_555
Cu0 Cu1 2.607769 1_554
Cu0 Cu1 2.607769 1_555
Cu0 Hf1 2.794875 1_455
Cu0 Hf4 2.794875 1_555
Cu0 Hf0 2.794875 1_545
Cu0 Hf5 2.794875 1_445
Cu0 Hf7 2.794875 1_545
Cu0 Hf2 2.794875 1_445
Cu0 Hf3 2.794875 1_555
Cu0 Hf6 2.794875 1_455
Cu1 Hf1 2.794875 1_455
Cu1 Hf4 2.794875 1_556
Cu1 Hf0 2.794875 1_545
Cu1 Hf5 2.794875 1_446
Cu1 Hf7 2.794875 1_546
Cu1 Hf2 2.794875 1_445
Cu1 Hf3 2.794875 1_555
Cu1 Hf6 2.794875 1_456
P0 P1 2.607769 1_555
P0 P1 2.607769 1_554
