# generated using pymatgen
data_Ti3CoS6
_symmetry_space_group_name_H-M   'P 1'
_cell_length_a   6.63185274
_cell_length_b   6.63185274
_cell_length_c   6.63185332
_cell_angle_alpha   52.86066952
_cell_angle_beta   52.86066080
_cell_angle_gamma   52.86066930
_symmetry_Int_Tables_number   1
_chemical_formula_structural   Ti3CoS6
_chemical_formula_sum   'Ti3 Co1 S6'
_cell_volume   171.71943404
_cell_formula_units_Z   1
loop_
 _symmetry_equiv_pos_site_id
 _symmetry_equiv_pos_as_xyz
  1  'x, y, z'
loop_
 _atom_site_type_symbol
 _atom_site_label
 _atom_site_symmetry_multiplicity
 _atom_site_fract_x
 _atom_site_fract_y
 _atom_site_fract_z
 _atom_site_occupancy
  Ti  Ti0  1  0.50000000  0.50000000  0.50000000  1
  Ti  Ti1  1  0.16896930  0.16896930  0.16896930  1
  Ti  Ti2  1  0.83103070  0.83103070  0.83103070  1
  Co  Co0  1  0.00000000  0.00000000  -0.00000000  1
  S  S0  1  0.58789547  0.24913288  0.91559800  1
  S  S1  1  0.91559800  0.58789547  0.24913288  1
  S  S2  1  0.24913288  0.91559800  0.58789547  1
  S  S3  1  0.75086712  0.08440200  0.41210453  1
  S  S4  1  0.08440200  0.41210453  0.75086712  1
  S  S5  1  0.41210453  0.75086712  0.08440200  1
loop_
_geom_bond_atom_site_label_1
_geom_bond_atom_site_label_2
_geom_bond_distance
_geom_bond_site_symmetry_2
Co0 S4 2.406338 1_554
Co0 S1 2.406338 1_445
Co0 S3 2.406338 1_455
Co0 S2 2.406338 1_544
Co0 S5 2.406338 1_545
Co0 S0 2.406338 1_454
S0 Ti1 2.427457 1_556
S0 Ti0 2.436431 1_555
S0 Ti2 2.447439 1_545
S1 Ti1 2.427457 1_655
S1 Ti0 2.436431 1_555
S1 Ti2 2.447439 1_554
S2 Ti1 2.427457 1_565
S2 Ti0 2.436431 1_555
S2 Ti2 2.447439 1_455
S3 Ti2 2.427457 1_545
S3 Ti0 2.436431 1_555
S3 Ti1 2.447439 1_655
S4 Ti2 2.427457 1_455
S4 Ti0 2.436431 1_555
S4 Ti1 2.447439 1_556
S5 Ti2 2.427457 1_554
S5 Ti0 2.436431 1_555
S5 Ti1 2.447439 1_565
