# generated using pymatgen
data_Ba2V2ZnCuF14
_symmetry_space_group_name_H-M   'P 1'
_cell_length_a   7.59712567
_cell_length_b   7.59712567
_cell_length_c   14.81797735
_cell_angle_alpha   88.42928276
_cell_angle_beta   88.42928276
_cell_angle_gamma   40.75956699
_symmetry_Int_Tables_number   1
_chemical_formula_structural   Ba2V2ZnCuF14
_chemical_formula_sum   'Ba4 V4 Zn2 Cu2 F28'
_cell_volume   558.13507029
_cell_formula_units_Z   2
loop_
 _symmetry_equiv_pos_site_id
 _symmetry_equiv_pos_as_xyz
  1  'x, y, z'
loop_
 _atom_site_type_symbol
 _atom_site_label
 _atom_site_symmetry_multiplicity
 _atom_site_fract_x
 _atom_site_fract_y
 _atom_site_fract_z
 _atom_site_occupancy
  Ba  Ba0  1  0.10182500  0.26670600  0.87649400  1
  Ba  Ba1  1  0.26670600  0.10182500  0.37649400  1
  Ba  Ba2  1  0.89817500  0.73329400  0.12350600  1
  Ba  Ba3  1  0.73329400  0.89817500  0.62350600  1
  V  V0  1  0.10034600  0.13938000  0.62635200  1
  V  V1  1  0.89965400  0.86062000  0.37364800  1
  V  V2  1  0.13938000  0.10034600  0.12635200  1
  V  V3  1  0.86062000  0.89965400  0.87364800  1
  Zn  Zn0  1  0.44095900  0.55904100  0.75000000  1
  Zn  Zn1  1  0.55904100  0.44095900  0.25000000  1
  Cu  Cu0  1  0.50000000  0.50000000  0.50000000  1
  Cu  Cu1  1  0.50000000  0.50000000  0.00000000  1
  F  F0  1  0.88645600  0.10640700  0.16365800  1
  F  F1  1  0.87081900  0.41350400  0.04534600  1
  F  F2  1  0.12918100  0.58649600  0.95465400  1
  F  F3  1  0.63751600  0.86788800  0.90369800  1
  F  F4  1  0.60724200  0.48822800  0.87748200  1
  F  F5  1  0.51177200  0.39275800  0.62251800  1
  F  F6  1  0.41350400  0.87081900  0.54534600  1
  F  F7  1  0.89359300  0.11354400  0.33634200  1
  F  F8  1  0.35898100  0.98152800  0.72395100  1
  F  F9  1  0.36248400  0.13211200  0.09630200  1
  F  F10  1  0.80031400  0.42155000  0.71257500  1
  F  F11  1  0.13211200  0.36248400  0.59630200  1
  F  F12  1  0.42155000  0.80031400  0.21257500  1
  F  F13  1  0.19968600  0.57845000  0.28742500  1
  F  F14  1  0.48822800  0.60724200  0.37748200  1
  F  F15  1  0.64101900  0.01847200  0.27604900  1
  F  F16  1  0.12132500  0.72375800  0.48649200  1
  F  F17  1  0.11354400  0.89359300  0.83634200  1
  F  F18  1  0.87867500  0.27624200  0.51350800  1
  F  F19  1  0.72375800  0.12132500  0.98649200  1
  F  F20  1  0.58649600  0.12918100  0.45465400  1
  F  F21  1  0.57845000  0.19968600  0.78742500  1
  F  F22  1  0.98152800  0.35898100  0.22395100  1
  F  F23  1  0.27624200  0.87867500  0.01350800  1
  F  F24  1  0.39275800  0.51177200  0.12251800  1
  F  F25  1  0.10640700  0.88645600  0.66365800  1
  F  F26  1  0.01847200  0.64101900  0.77604900  1
  F  F27  1  0.86788800  0.63751600  0.40369800  1
loop_
_geom_bond_atom_site_label_1
_geom_bond_atom_site_label_2
_geom_bond_distance
_geom_bond_site_symmetry_2
Ba0 F8 2.689650 1_545
Ba0 F3 2.692252 1_545
Ba0 F4 2.714672 1_455
Ba0 F1 2.744299 1_456
Ba0 F26 2.791882 1_555
Ba0 F17 2.846759 1_545
Ba0 F2 2.866932 1_555
Ba0 F23 2.910304 1_546
Ba0 F10 2.932035 1_455
Ba0 F3 3.013603 1_455
Ba1 F22 2.689650 1_455
Ba1 F27 2.692252 1_455
Ba1 F14 2.714672 1_545
Ba1 F6 2.744299 1_545
Ba1 F15 2.791882 1_555
Ba1 F7 2.846759 1_455
Ba1 F20 2.866932 1_555
Ba1 F18 2.910304 1_455
Ba1 F12 2.932035 1_545
Ba1 F27 3.013603 1_545
Ba2 F15 2.689650 1_565
Ba2 F9 2.692252 1_565
Ba2 F24 2.714672 1_655
Ba2 F2 2.744299 1_654
Ba2 F22 2.791882 1_555
Ba2 F0 2.846759 1_565
Ba2 F1 2.866932 1_555
Ba2 F19 2.910304 1_564
Ba2 F13 2.932035 1_655
Ba2 F9 3.013603 1_655
Ba3 F26 2.689650 1_655
Ba3 F11 2.692252 1_655
Ba3 F5 2.714672 1_565
Ba3 F20 2.744299 1_565
Ba3 F8 2.791882 1_555
Ba3 F25 2.846759 1_655
Ba3 F6 2.866932 1_555
Ba3 F16 2.910304 1_655
Ba3 F21 2.932035 1_565
Ba3 F11 3.013603 1_565
Cu0 F14 1.945544 1_555
Cu0 F5 1.945544 1_555
Cu0 F18 1.952025 1_555
Cu0 F16 1.952025 1_555
Cu0 F6 2.468771 1_555
Cu0 F20 2.468771 1_555
Cu1 F24 1.945544 1_555
Cu1 F4 1.945544 1_554
Cu1 F23 1.952025 1_555
Cu1 F19 1.952025 1_554
Cu1 F2 2.468771 1_554
Cu1 F1 2.468771 1_555
F0 V2 1.951661 1_655
F0 Zn1 2.170349 1_555
F1 V2 1.971794 1_655
F2 V3 1.971794 1_455
F3 V3 1.923997 1_555
F4 Zn0 2.121145 1_555
F5 Zn0 2.121145 1_555
F6 V0 1.971794 1_565
F7 V1 1.951661 1_545
F7 Zn1 2.170349 1_555
F8 V0 1.970157 1_565
F9 V2 1.923997 1_555
F10 V0 2.002890 1_655
F10 Zn0 2.116744 1_555
F11 V0 1.923997 1_555
F12 V2 2.002890 1_565
F12 Zn1 2.116744 1_555
F13 V1 2.002890 1_455
F13 Zn1 2.116744 1_555
F14 Zn1 2.121145 1_555
F15 V1 1.970157 1_545
F16 V1 2.029673 1_455
F17 V3 1.951661 1_455
F17 Zn0 2.170349 1_555
F18 V0 2.029673 1_655
F19 V3 2.029673 1_545
F20 V1 1.971794 1_545
F21 V3 2.002890 1_545
F21 Zn0 2.116744 1_555
F22 V2 1.970157 1_655
F23 V2 2.029673 1_565
F24 Zn1 2.121145 1_555
F25 V0 1.951661 1_565
F25 Zn0 2.170349 1_555
F26 V3 1.970157 1_455
F27 V1 1.923997 1_555
