# generated using pymatgen
data_Ta2Pd3Se8
_symmetry_space_group_name_H-M   'P 1'
_cell_length_a   3.58290865
_cell_length_b   11.12606605
_cell_length_c   15.47467255
_cell_angle_alpha   90.00000000
_cell_angle_beta   90.00000000
_cell_angle_gamma   90.00000000
_symmetry_Int_Tables_number   1
_chemical_formula_structural   Ta2Pd3Se8
_chemical_formula_sum   'Ta4 Pd6 Se16'
_cell_volume   616.87736819
_cell_formula_units_Z   2
loop_
 _symmetry_equiv_pos_site_id
 _symmetry_equiv_pos_as_xyz
  1  'x, y, z'
loop_
 _atom_site_type_symbol
 _atom_site_label
 _atom_site_symmetry_multiplicity
 _atom_site_fract_x
 _atom_site_fract_y
 _atom_site_fract_z
 _atom_site_occupancy
  Ta  Ta0  1  0.50000000  0.69585290  0.37495654  1
  Ta  Ta1  1  0.50000000  0.30414710  0.62504346  1
  Ta  Ta2  1  0.50000000  0.19585290  0.12504346  1
  Ta  Ta3  1  0.50000000  0.80414710  0.87495654  1
  Pd  Pd0  1  0.00000000  0.85226204  0.27509665  1
  Pd  Pd1  1  -0.00000000  0.14773796  0.72490335  1
  Pd  Pd2  1  0.00000000  0.35226204  0.22490335  1
  Pd  Pd3  1  -0.00000000  0.64773796  0.77509665  1
  Pd  Pd4  1  -0.00000000  0.50000000  0.50000000  1
  Pd  Pd5  1  -0.00000000  -0.00000000  0.00000000  1
  Se  Se0  1  0.50000000  0.92568359  0.37240696  1
  Se  Se1  1  0.50000000  0.07431641  0.62759304  1
  Se  Se2  1  0.50000000  0.42568359  0.12759304  1
  Se  Se3  1  0.50000000  0.57431641  0.87240696  1
  Se  Se4  1  0.50000000  0.72607345  0.21134497  1
  Se  Se5  1  0.50000000  0.27392655  0.78865503  1
  Se  Se6  1  0.50000000  0.22607345  0.28865503  1
  Se  Se7  1  0.50000000  0.77392655  0.71134497  1
  Se  Se8  1  -0.00000000  0.52756430  0.34331518  1
  Se  Se9  1  -0.00000000  0.47243570  0.65668482  1
  Se  Se10  1  0.00000000  0.77926828  0.99745411  1
  Se  Se11  1  0.00000000  0.22073172  0.00254589  1
  Se  Se12  1  -0.00000000  0.27926828  0.50254589  1
  Se  Se13  1  0.00000000  0.72073172  0.49745411  1
  Se  Se14  1  0.00000000  0.97243570  0.84331518  1
  Se  Se15  1  0.00000000  0.02756430  0.15668482  1
loop_
_geom_bond_atom_site_label_1
_geom_bond_atom_site_label_2
_geom_bond_distance
_geom_bond_site_symmetry_2
Pd0 Se0 2.478748 1_555
Pd0 Se0 2.478748 1_455
Pd0 Se4 2.480671 1_455
Pd0 Se4 2.480671 1_555
Pd0 Se15 2.676152 1_565
Pd0 Ta0 2.936940 1_455
Pd0 Ta0 2.936940 1_555
Pd1 Se1 2.478748 1_455
Pd1 Se1 2.478748 1_555
Pd1 Se5 2.480671 1_555
Pd1 Se5 2.480671 1_455
Pd1 Se14 2.676152 1_545
Pd1 Ta1 2.936940 1_455
Pd1 Ta1 2.936940 1_555
Pd2 Se2 2.478748 1_455
Pd2 Se2 2.478748 1_555
Pd2 Se6 2.480671 1_455
Pd2 Se6 2.480671 1_555
Pd2 Se8 2.676152 1_555
Pd2 Ta2 2.936940 1_455
Pd2 Ta2 2.936940 1_555
Pd3 Se3 2.478748 1_455
Pd3 Se3 2.478748 1_555
Pd3 Se7 2.480671 1_455
Pd3 Se7 2.480671 1_555
Pd3 Se9 2.676152 1_555
Pd3 Ta3 2.936940 1_455
Pd3 Ta3 2.936940 1_555
Pd4 Se8 2.443965 1_555
Pd4 Se9 2.443965 1_555
Pd4 Se13 2.456192 1_555
Pd4 Se12 2.456192 1_555
Pd5 Se15 2.443965 1_555
Pd5 Se14 2.443965 1_544
Pd5 Se11 2.456192 1_555
Pd5 Se10 2.456192 1_544
Se0 Ta0 2.557416 1_555
Se1 Ta1 2.557416 1_555
Se2 Ta2 2.557416 1_555
Se3 Ta3 2.557416 1_555
Se4 Ta0 2.554064 1_555
Se5 Ta1 2.554064 1_555
Se6 Ta2 2.554064 1_555
Se7 Ta3 2.554064 1_555
Se8 Ta0 2.637214 1_455
Se8 Ta0 2.637214 1_555
Se9 Ta1 2.637214 1_455
Se9 Ta1 2.637214 1_555
Se10 Ta3 2.622835 1_555
Se10 Ta3 2.622835 1_455
Se11 Ta2 2.622835 1_455
Se11 Ta2 2.622835 1_555
Se12 Ta1 2.622835 1_455
Se12 Ta1 2.622835 1_555
Se13 Ta0 2.622835 1_455
Se13 Ta0 2.622835 1_555
Se14 Ta3 2.637214 1_455
Se14 Ta3 2.637214 1_555
Se15 Ta2 2.637214 1_555
Se15 Ta2 2.637214 1_455
