# generated using pymatgen
data_Eu2AlNO3
_symmetry_space_group_name_H-M   'P 1'
_cell_length_a   6.76076625
_cell_length_b   6.76076625
_cell_length_c   6.76076625
_cell_angle_alpha   147.91952985
_cell_angle_beta   147.91952985
_cell_angle_gamma   46.00417043
_symmetry_Int_Tables_number   1
_chemical_formula_structural   Eu2AlNO3
_chemical_formula_sum   'Eu2 Al1 N1 O3'
_cell_volume   86.86955997
_cell_formula_units_Z   1
loop_
 _symmetry_equiv_pos_site_id
 _symmetry_equiv_pos_as_xyz
  1  'x, y, z'
loop_
 _atom_site_type_symbol
 _atom_site_label
 _atom_site_symmetry_multiplicity
 _atom_site_fract_x
 _atom_site_fract_y
 _atom_site_fract_z
 _atom_site_occupancy
  Eu  Eu0  1  0.52041500  0.52041500  0.00000000  1
  Eu  Eu1  1  0.80740700  0.80740700  0.00000000  1
  Al  Al0  1  0.16550000  0.16550000  0.00000000  1
  N  N0  1  0.99701600  0.99701600  0.00000000  1
  O  O0  1  0.66684000  0.16684000  0.50000000  1
  O  O1  1  0.16684000  0.66684000  0.50000000  1
  O  O2  1  0.32868100  0.32868100  0.00000000  1
loop_
_geom_bond_atom_site_label_1
_geom_bond_atom_site_label_2
_geom_bond_distance
_geom_bond_site_symmetry_2
Eu0 O2 2.386406 1_555
Eu0 O0 2.609815 1_554
Eu0 O1 2.609815 1_554
Eu0 O0 2.609815 1_565
Eu0 O1 2.609815 1_655
Eu0 N0 2.657872 1_455
Eu0 N0 2.657872 1_556
Eu0 N0 2.657872 1_444
Eu0 N0 2.657872 1_545
Eu1 N0 2.359958 1_555
Eu1 O0 2.559432 1_565
Eu1 O1 2.559432 1_655
Eu1 O0 2.559432 1_554
Eu1 O1 2.559432 1_554
Eu1 O2 2.655104 1_565
Eu1 O2 2.655104 1_666
Eu1 O2 2.655104 1_554
Eu1 O2 2.655104 1_655
Al0 O1 1.868157 1_544
Al0 O0 1.868157 1_555
Al0 O0 1.868157 1_454
Al0 O1 1.868157 1_555
Al0 O2 2.031023 1_555
Al0 N0 2.097027 1_445
