# generated using pymatgen
data_KMg14Bi
_symmetry_space_group_name_H-M   'P 1'
_cell_length_a   6.61112325
_cell_length_b   6.50892013
_cell_length_c   10.64287387
_cell_angle_alpha   90.00000000
_cell_angle_beta   90.00000000
_cell_angle_gamma   119.48992139
_symmetry_Int_Tables_number   1
_chemical_formula_structural   KMg14Bi
_chemical_formula_sum   'K1 Mg14 Bi1'
_cell_volume   398.64204379
_cell_formula_units_Z   1
loop_
 _symmetry_equiv_pos_site_id
 _symmetry_equiv_pos_as_xyz
  1  'x, y, z'
loop_
 _atom_site_type_symbol
 _atom_site_label
 _atom_site_symmetry_multiplicity
 _atom_site_fract_x
 _atom_site_fract_y
 _atom_site_fract_z
 _atom_site_occupancy
  K  K0  1  0.16670597  0.33335248  0.12500000  1
  Mg  Mg0  1  0.16523471  0.33261686  0.62500000  1
  Mg  Mg1  1  0.16361659  0.83180779  0.62500000  1
  Mg  Mg2  1  0.66642998  0.32850622  0.12500000  1
  Mg  Mg3  1  0.66747956  0.33514977  0.62500000  1
  Mg  Mg4  1  0.66642998  0.83792276  0.12500000  1
  Mg  Mg5  1  0.66747956  0.83232879  0.62500000  1
  Mg  Mg6  1  0.34042279  0.16662438  0.39094778  1
  Mg  Mg7  1  0.34042279  0.16662438  0.85905222  1
  Mg  Mg8  1  0.34042279  0.67379941  0.39094778  1
  Mg  Mg9  1  0.34042279  0.67379941  0.85905222  1
  Mg  Mg10  1  0.82182807  0.16091453  0.38861308  1
  Mg  Mg11  1  0.82182807  0.16091453  0.86138692  1
  Mg  Mg12  1  0.82712333  0.66356217  0.37590402  1
  Mg  Mg13  1  0.82712333  0.66356217  0.87409598  1
  Bi  Bi0  1  0.17702971  0.83851436  0.12500000  1
loop_
_geom_bond_atom_site_label_1
_geom_bond_atom_site_label_2
_geom_bond_distance
_geom_bond_site_symmetry_2
K0 Mg4 3.291972 1_445
K0 Mg2 3.291973 1_455
K0 Mg4 3.319378 1_555
K0 Mg2 3.319379 1_555
K0 Mg7 3.425665 1_554
K0 Mg6 3.425665 1_555
K0 Mg9 3.425671 1_554
K0 Mg8 3.425671 1_555
K0 Mg11 3.436593 1_454
K0 Mg10 3.436593 1_455
Mg0 Mg6 3.153690 1_555
Mg0 Mg7 3.153690 1_555
Mg0 Mg8 3.153697 1_555
Mg0 Mg9 3.153697 1_555
Mg0 Mg10 3.199168 1_455
Mg0 Mg11 3.199168 1_455
Mg0 Mg1 3.254473 1_555
Mg0 Mg1 3.254473 1_545
Mg0 Mg5 3.298867 1_445
Mg0 Mg3 3.298868 1_455
Mg0 Mg5 3.312318 1_555
Mg0 Mg3 3.312318 1_555
Mg1 Mg8 3.132512 1_555
Mg1 Mg9 3.132512 1_555
Mg1 Mg6 3.132519 1_565
Mg1 Mg7 3.132519 1_565
Mg1 Mg3 3.281693 1_455
Mg1 Mg5 3.281694 1_455
Mg1 Mg12 3.282971 1_455
Mg1 Mg13 3.282971 1_455
Mg1 Mg3 3.329432 1_565
Mg1 Mg5 3.329432 1_555
Mg2 Mg4 3.193169 1_545
Mg2 Mg4 3.315752 1_555
Mg2 Mg7 3.395736 1_554
Mg2 Mg6 3.395736 1_555
Mg3 Mg6 3.122228 1_555
Mg3 Mg7 3.122228 1_555
Mg3 Mg5 3.236099 1_555
Mg3 Mg5 3.272822 1_545
Mg4 Mg9 3.395736 1_554
Mg4 Mg8 3.395736 1_555
Mg5 Mg8 3.122229 1_555
Mg5 Mg9 3.122229 1_555
Mg6 Mg8 3.207758 1_545
Mg6 Mg8 3.301162 1_555
Mg7 Mg9 3.207758 1_545
Mg7 Mg9 3.301162 1_555
Mg10 Mg3 3.129884 1_555
Mg10 Mg5 3.129891 1_545
Mg10 Mg8 3.201184 1_545
Mg10 Mg6 3.201185 1_555
Mg10 Mg12 3.257412 1_545
Mg10 Mg12 3.257412 1_555
Mg10 Mg2 3.349649 1_555
Mg10 Mg4 3.349655 1_545
Mg10 Mg8 3.410442 1_655
Mg10 Mg6 3.410442 1_655
Mg11 Mg3 3.129884 1_555
Mg11 Mg5 3.129891 1_545
Mg11 Mg9 3.201184 1_545
Mg11 Mg7 3.201185 1_555
Mg11 Mg13 3.257412 1_545
Mg11 Mg13 3.257412 1_555
Mg11 Mg2 3.349649 1_556
Mg11 Mg4 3.349655 1_546
Mg11 Mg9 3.410442 1_655
Mg11 Mg7 3.410442 1_655
Mg12 Mg5 3.238883 1_555
Mg12 Mg3 3.238889 1_555
Mg12 Mg6 3.254896 1_555
Mg12 Mg8 3.254897 1_555
Mg12 Mg4 3.276334 1_555
Mg12 Mg2 3.276340 1_555
Mg12 Mg6 3.364996 1_665
Mg12 Mg8 3.364996 1_655
Mg13 Mg5 3.238883 1_555
Mg13 Mg3 3.238889 1_555
Mg13 Mg7 3.254896 1_555
Mg13 Mg9 3.254897 1_555
Mg13 Mg4 3.276334 1_556
Mg13 Mg2 3.276340 1_556
Mg13 Mg7 3.364996 1_665
Mg13 Mg9 3.364996 1_655
Bi0 Mg2 3.237383 1_565
Bi0 Mg4 3.237383 1_555
Bi0 K0 3.255002 1_565
Bi0 K0 3.255002 1_555
Bi0 Mg12 3.344426 1_455
Bi0 Mg13 3.344426 1_454
Bi0 Mg2 3.373744 1_455
Bi0 Mg4 3.373744 1_455
Bi0 Mg9 3.386435 1_554
Bi0 Mg8 3.386435 1_555
Bi0 Mg6 3.386441 1_565
Bi0 Mg7 3.386441 1_564
