# generated using pymatgen
data_MgSi
_symmetry_space_group_name_H-M   'P 1'
_cell_length_a   4.45331700
_cell_length_b   7.09748640
_cell_length_c   14.98736379
_cell_angle_alpha   96.99062322
_cell_angle_beta   96.08855329
_cell_angle_gamma   89.96395545
_symmetry_Int_Tables_number   1
_chemical_formula_structural   MgSi
_chemical_formula_sum   'Mg12 Si12'
_cell_volume   467.50097246
_cell_formula_units_Z   12
loop_
 _symmetry_equiv_pos_site_id
 _symmetry_equiv_pos_as_xyz
  1  'x, y, z'
loop_
 _atom_site_type_symbol
 _atom_site_label
 _atom_site_symmetry_multiplicity
 _atom_site_fract_x
 _atom_site_fract_y
 _atom_site_fract_z
 _atom_site_occupancy
  Mg  Mg0  1  0.37434000  0.06141000  0.00546200  1
  Mg  Mg1  1  0.13023800  0.39885300  0.34300700  1
  Mg  Mg2  1  0.68538000  0.97921300  0.67709900  1
  Mg  Mg3  1  0.37292100  0.56715600  0.00546600  1
  Mg  Mg4  1  0.18421000  0.90463800  0.36468800  1
  Mg  Mg5  1  0.66803400  0.48473000  0.67924600  1
  Mg  Mg6  1  0.88250400  0.85173400  0.15597100  1
  Mg  Mg7  1  0.69468000  0.68423500  0.49259100  1
  Mg  Mg8  1  0.23639500  0.27058100  0.82254000  1
  Mg  Mg9  1  0.82777100  0.34675900  0.13612700  1
  Mg  Mg10  1  0.69843400  0.18616900  0.49273000  1
  Mg  Mg11  1  0.21922400  0.76479100  0.81968800  1
  Si  Si0  1  0.86649100  0.80670700  0.96900600  1
  Si  Si1  1  0.66272600  0.07876600  0.31083100  1
  Si  Si2  1  0.14820300  0.71215000  0.63655500  1
  Si  Si3  1  0.86339600  0.30085600  0.95759900  1
  Si  Si4  1  0.66386400  0.70140800  0.31101900  1
  Si  Si5  1  0.14956000  0.23219500  0.63922900  1
  Si  Si6  1  0.34533600  0.55101300  0.18599900  1
  Si  Si7  1  0.22207100  0.44286500  0.52989200  1
  Si  Si8  1  0.73335700  0.01946900  0.86048000  1
  Si  Si9  1  0.34772800  0.16878800  0.18626000  1
  Si  Si10  1  0.21884500  0.94971400  0.54334600  1
  Si  Si11  1  0.73446000  0.53584000  0.86277900  1
loop_
_geom_bond_atom_site_label_1
_geom_bond_atom_site_label_2
_geom_bond_distance
_geom_bond_site_symmetry_2
Mg0 Si9 2.739086 1_555
Mg0 Si8 2.818727 1_554
Mg0 Si0 2.860765 1_444
Mg0 Si0 2.894595 1_544
Mg0 Si3 2.919900 1_454
Mg0 Si3 2.962923 1_554
Mg1 Si7 2.766613 1_555
Mg1 Si9 2.944520 1_555
Mg1 Si6 2.952823 1_555
Mg1 Si4 3.031238 1_455
Mg1 Si1 3.042141 1_455
Mg2 Si8 2.713916 1_565
Mg2 Si10 2.719138 1_555
Mg2 Si2 2.861921 1_655
Mg2 Si5 2.884575 1_665
Mg2 Si2 3.016913 1_555
Mg2 Si5 3.032376 1_565
Mg3 Si6 2.737716 1_555
Mg3 Si11 2.798050 1_554
Mg3 Si0 2.869765 1_454
Mg3 Si0 2.916548 1_554
Mg3 Si3 2.926727 1_454
Mg3 Si3 2.975745 1_554
Mg4 Si10 2.645692 1_555
Mg4 Si1 2.707584 1_565
Mg4 Si4 2.714492 1_555
Mg4 Si1 2.722812 1_465
Mg4 Si4 2.724645 1_455
Mg5 Si11 2.714767 1_555
Mg5 Si7 2.817603 1_555
Mg5 Si2 2.851878 1_655
Mg5 Si5 2.859543 1_655
Mg5 Si2 2.882066 1_555
Mg5 Si5 2.890192 1_555
Mg6 Si0 2.774656 1_554
Mg6 Si1 2.917317 1_565
Mg6 Si4 2.927631 1_555
Mg6 Si6 3.006299 1_655
Mg6 Si9 3.019914 1_665
Mg7 Si4 2.727743 1_555
Mg7 Si2 2.783131 1_655
Mg7 Si7 2.857312 1_555
Mg7 Si10 2.933829 1_555
Mg7 Si7 2.951770 1_655
Mg7 Si10 2.976203 1_655
Mg8 Si5 2.713717 1_555
Mg8 Si3 2.740365 1_455
Mg8 Si11 2.876281 1_555
Mg8 Si8 2.893528 1_555
Mg8 Si11 2.984779 1_455
Mg8 Si8 3.006686 1_455
Mg9 Si3 2.677365 1_554
Mg9 Si9 2.702842 1_555
Mg9 Si6 2.710674 1_655
Mg9 Si6 2.710910 1_555
Mg9 Si9 2.716625 1_655
Mg10 Si1 2.727785 1_555
Mg10 Si5 2.802526 1_655
Mg10 Si7 2.851072 1_555
Mg10 Si7 2.924073 1_655
Mg10 Si10 2.934540 1_545
Mg10 Si10 2.948740 1_645
Mg11 Si2 2.709112 1_555
Mg11 Si0 2.854331 1_455
Mg11 Si11 2.873816 1_555
Mg11 Si11 2.876404 1_455
Mg11 Si8 2.884896 1_565
Mg11 Si8 2.886082 1_465
Si0 Si11 2.373630 1_555
Si0 Si8 2.381088 1_565
Si1 Si9 2.365452 1_555
Si1 Si4 2.678639 1_545
Si2 Si7 2.384040 1_555
Si3 Si8 2.357463 1_555
Si4 Si6 2.369310 1_555
Si5 Si7 2.394681 1_555
Si6 Si9 2.713328 1_555
Si10 Si2 2.358103 1_555
Si10 Si5 2.360484 1_565
Si11 Si3 2.352315 1_555
