# generated using pymatgen
data_CaNi(GeO3)2
_symmetry_space_group_name_H-M   'P 1'
_cell_length_a   9.17544500
_cell_length_b   5.31371000
_cell_length_c   10.24948610
_cell_angle_alpha   75.94710051
_cell_angle_beta   90.00000000
_cell_angle_gamma   90.00000000
_symmetry_Int_Tables_number   1
_chemical_formula_structural   CaNi(GeO3)2
_chemical_formula_sum   'Ca4 Ni4 Ge8 O24'
_cell_volume   484.76474101
_cell_formula_units_Z   4
loop_
 _symmetry_equiv_pos_site_id
 _symmetry_equiv_pos_as_xyz
  1  'x, y, z'
loop_
 _atom_site_type_symbol
 _atom_site_label
 _atom_site_symmetry_multiplicity
 _atom_site_fract_x
 _atom_site_fract_y
 _atom_site_fract_z
 _atom_site_occupancy
  Ca  Ca0  1  0.45382300  0.52940800  0.27552400  1
  Ca  Ca1  1  0.95382300  0.97059200  0.72447600  1
  Ca  Ca2  1  0.54617700  0.47059200  0.72447600  1
  Ca  Ca3  1  0.04617700  0.02940800  0.27552400  1
  Ni  Ni0  1  0.66459700  0.03462700  0.23388600  1
  Ni  Ni1  1  0.16459700  0.46537300  0.76611400  1
  Ni  Ni2  1  0.33540300  0.96537300  0.76611400  1
  Ni  Ni3  1  0.83540300  0.53462700  0.23388600  1
  Ge  Ge0  1  0.34656500  0.16866400  0.04427600  1
  Ge  Ge1  1  0.84656500  0.33133600  0.95572400  1
  Ge  Ge2  1  0.65343500  0.83133600  0.95572400  1
  Ge  Ge3  1  0.15343500  0.66866400  0.04427600  1
  Ge  Ge4  1  0.35113600  0.90835000  0.48804200  1
  Ge  Ge5  1  0.85113600  0.59165000  0.51195800  1
  Ge  Ge6  1  0.64886400  0.09165000  0.51195800  1
  Ge  Ge7  1  0.14886400  0.40835000  0.48804200  1
  O  O0  1  0.24753000  0.68947800  0.39672500  1
  O  O1  1  0.74753000  0.81052200  0.60327500  1
  O  O2  1  0.75247000  0.31052200  0.60327500  1
  O  O3  1  0.25247000  0.18947800  0.39672500  1
  O  O4  1  0.30944900  0.82432100  0.10109400  1
  O  O5  1  0.80944900  0.67567900  0.89890600  1
  O  O6  1  0.69055100  0.17567900  0.89890600  1
  O  O7  1  0.19055100  0.32432100  0.10109400  1
  O  O8  1  0.97568000  0.34864900  0.41834900  1
  O  O9  1  0.47568000  0.15135100  0.58165100  1
  O  O10  1  0.02432000  0.65135100  0.58165100  1
  O  O11  1  0.52432000  0.84864900  0.41834900  1
  O  O12  1  0.01136200  0.73590400  0.13993700  1
  O  O13  1  0.51136200  0.76409600  0.86006300  1
  O  O14  1  0.98863800  0.26409600  0.86006300  1
  O  O15  1  0.48863800  0.23590400  0.13993700  1
  O  O16  1  0.34561000  0.25260800  0.86757300  1
  O  O17  1  0.84561000  0.24739200  0.13242700  1
  O  O18  1  0.65439000  0.74739200  0.13242700  1
  O  O19  1  0.15439000  0.75260800  0.86757300  1
  O  O20  1  0.32692200  0.70612400  0.65248100  1
  O  O21  1  0.82692200  0.79387600  0.34751900  1
  O  O22  1  0.67307800  0.29387600  0.34751900  1
  O  O23  1  0.17307800  0.20612400  0.65248100  1
loop_
_geom_bond_atom_site_label_1
_geom_bond_atom_site_label_2
_geom_bond_distance
_geom_bond_site_symmetry_2
Ca0 O15 2.349082 1_555
Ca0 O22 2.389472 1_555
Ca0 O4 2.458917 1_555
Ca0 O18 2.460578 1_555
Ca0 O0 2.522415 1_555
Ca0 O11 2.577777 1_555
Ca0 O3 2.670100 1_555
Ca1 O14 2.349082 1_565
Ca1 O23 2.389472 1_665
Ca1 O5 2.458917 1_555
Ca1 O19 2.460578 1_655
Ca1 O1 2.522415 1_555
Ca1 O10 2.577777 1_655
Ca1 O2 2.670100 1_565
Ca2 O13 2.349082 1_555
Ca2 O20 2.389472 1_555
Ca2 O6 2.458917 1_555
Ca2 O16 2.460578 1_555
Ca2 O2 2.522415 1_555
Ca2 O9 2.577777 1_555
Ca2 O1 2.670100 1_555
Ca3 O12 2.349082 1_545
Ca3 O21 2.389472 1_445
Ca3 O7 2.458917 1_555
Ca3 O17 2.460578 1_455
Ca3 O3 2.522415 1_555
Ca3 O8 2.577777 1_455
Ca3 O0 2.670100 1_545
Ni0 O22 2.009829 1_555
Ni0 O15 2.043916 1_555
Ni0 O18 2.047072 1_545
Ni0 O21 2.118440 1_545
Ni0 O17 2.132403 1_555
Ni0 O11 2.302268 1_545
Ni1 O23 2.009829 1_555
Ni1 O14 2.043916 1_455
Ni1 O19 2.047072 1_555
Ni1 O20 2.118440 1_555
Ni1 O16 2.132403 1_555
Ni1 O10 2.302268 1_555
Ni2 O20 2.009829 1_555
Ni2 O13 2.043916 1_555
Ni2 O16 2.047072 1_565
Ni2 O23 2.118440 1_565
Ni2 O19 2.132403 1_555
Ni2 O9 2.302268 1_565
Ni3 O21 2.009829 1_555
Ni3 O12 2.043916 1_655
Ni3 O17 2.047072 1_555
Ni3 O22 2.118440 1_555
Ni3 O18 2.132403 1_555
Ni3 O8 2.302268 1_555
Ge0 O15 1.720014 1_555
Ge0 O16 1.756945 1_554
Ge0 O4 1.812619 1_545
Ge0 O7 1.818341 1_555
Ge1 O14 1.720014 1_555
Ge1 O17 1.756945 1_556
Ge1 O5 1.812619 1_555
Ge1 O6 1.818341 1_555
Ge2 O13 1.720014 1_555
Ge2 O18 1.756945 1_556
Ge2 O6 1.812619 1_565
Ge2 O5 1.818341 1_555
Ge3 O12 1.720014 1_555
Ge3 O19 1.756945 1_554
Ge3 O7 1.812619 1_555
Ge3 O4 1.818341 1_555
Ge4 O20 1.779088 1_555
Ge4 O11 1.801661 1_555
Ge4 O3 1.802256 1_565
Ge4 O0 1.913363 1_555
Ge4 O9 2.120220 1_565
Ge5 O21 1.779088 1_555
Ge5 O10 1.801661 1_655
Ge5 O2 1.802256 1_555
Ge5 O1 1.913363 1_555
Ge5 O8 2.120220 1_555
Ge6 O22 1.779088 1_555
Ge6 O9 1.801661 1_555
Ge6 O1 1.802256 1_545
Ge6 O2 1.913363 1_555
Ge6 O11 2.120220 1_545
Ge7 O23 1.779088 1_555
Ge7 O8 1.801661 1_455
Ge7 O0 1.802256 1_555
Ge7 O3 1.913363 1_555
Ge7 O10 2.120220 1_555
