# generated using pymatgen
data_Li7Mn2(CoO4)3
_symmetry_space_group_name_H-M   'P 1'
_cell_length_a   5.05374300
_cell_length_b   5.90945140
_cell_length_c   7.80899855
_cell_angle_alpha   77.99694625
_cell_angle_beta   77.82002729
_cell_angle_gamma   72.27390934
_symmetry_Int_Tables_number   1
_chemical_formula_structural   Li7Mn2(CoO4)3
_chemical_formula_sum   'Li7 Mn2 Co3 O12'
_cell_volume   214.53904219
_cell_formula_units_Z   1
loop_
 _symmetry_equiv_pos_site_id
 _symmetry_equiv_pos_as_xyz
  1  'x, y, z'
loop_
 _atom_site_type_symbol
 _atom_site_label
 _atom_site_symmetry_multiplicity
 _atom_site_fract_x
 _atom_site_fract_y
 _atom_site_fract_z
 _atom_site_occupancy
  Li  Li0  1  0.99956600  0.16679700  0.82346100  1
  Li  Li1  1  0.00000000  0.50000000  0.50000000  1
  Li  Li2  1  0.50000000  0.00000000  0.00000000  1
  Li  Li3  1  0.51224900  0.32765400  0.65857000  1
  Li  Li4  1  0.00043400  0.83320300  0.17653900  1
  Li  Li5  1  0.48775100  0.67234600  0.34143000  1
  Li  Li6  1  0.00000000  0.00000000  0.50000000  1
  Mn  Mn0  1  0.99995100  0.66829200  0.82962300  1
  Mn  Mn1  1  0.00004900  0.33170800  0.17037700  1
  Co  Co0  1  0.50000000  0.50000000  0.00000000  1
  Co  Co1  1  0.48842100  0.84432600  0.66125100  1
  Co  Co2  1  0.51157900  0.15567400  0.33874900  1
  O  O0  1  0.23063100  0.34885800  0.92964800  1
  O  O1  1  0.24264900  0.66185100  0.60705100  1
  O  O2  1  0.74891100  0.19881700  0.08659100  1
  O  O3  1  0.75166400  0.52097400  0.75914600  1
  O  O4  1  0.23824900  0.02662300  0.24077600  1
  O  O5  1  0.72484700  0.84847000  0.41427500  1
  O  O6  1  0.76175100  0.97337700  0.75922400  1
  O  O7  1  0.75735100  0.33814900  0.39294900  1
  O  O8  1  0.25108900  0.80118300  0.91340900  1
  O  O9  1  0.27515300  0.15153000  0.58572500  1
  O  O10  1  0.76936900  0.65114200  0.07035200  1
  O  O11  1  0.24833600  0.47902600  0.24085400  1
loop_
_geom_bond_atom_site_label_1
_geom_bond_atom_site_label_2
_geom_bond_distance
_geom_bond_site_symmetry_2
Li0 O9 2.072803 1_655
Li0 O6 2.081330 1_545
Li0 O3 2.105710 1_555
Li0 O0 2.180237 1_655
Li0 O2 2.186322 1_556
Li0 O8 2.202368 1_645
Li1 O1 2.144001 1_555
Li1 O7 2.144001 1_455
Li1 O3 2.150257 1_455
Li1 O11 2.150257 1_555
Li1 O9 2.167506 1_555
Li1 O5 2.167506 1_455
Li2 O4 2.063160 1_555
Li2 O6 2.063160 1_544
Li2 O10 2.130871 1_545
Li2 O0 2.130871 1_554
Li2 O2 2.238156 1_555
Li2 O8 2.238156 1_544
Li3 O9 2.033679 1_555
Li3 O1 2.044713 1_555
Li3 O6 2.171887 1_545
Li3 O7 2.179389 1_555
Li3 O3 2.236471 1_555
Li3 O0 2.291891 1_555
Li4 O5 2.072803 1_455
Li4 O4 2.081330 1_565
Li4 O11 2.105710 1_555
Li4 O10 2.180237 1_455
Li4 O8 2.186322 1_554
Li4 O2 2.202368 1_465
Li5 O5 2.033679 1_555
Li5 O7 2.044713 1_555
Li5 O4 2.171887 1_565
Li5 O1 2.179389 1_555
Li5 O11 2.236471 1_555
Li5 O10 2.291891 1_555
Li6 O1 2.107443 1_545
Li6 O7 2.107443 1_455
Li6 O4 2.127583 1_555
Li6 O6 2.127583 1_445
Li6 O9 2.141021 1_555
Li6 O5 2.141021 1_445
Mn0 O6 1.883398 1_555
Mn0 O1 1.904270 1_655
Mn0 O3 1.947077 1_555
Mn0 O8 1.956192 1_655
Mn0 O0 1.990842 1_655
Mn0 O10 1.992577 1_556
Mn1 O4 1.883398 1_555
Mn1 O7 1.904270 1_455
Mn1 O11 1.947077 1_555
Mn1 O2 1.956192 1_455
Mn1 O10 1.990842 1_455
Mn1 O0 1.992577 1_554
Co0 O2 1.924167 1_555
Co0 O8 1.924167 1_554
Co0 O11 2.039633 1_555
Co0 O3 2.039633 1_554
Co0 O10 2.052517 1_555
Co0 O0 2.052517 1_554
Co1 O9 1.853816 1_565
Co1 O1 2.027782 1_555
Co1 O5 2.042954 1_555
Co1 O3 2.068611 1_555
Co1 O8 2.088485 1_555
Co1 O6 2.098837 1_555
Co2 O5 1.853816 1_545
Co2 O7 2.027782 1_555
Co2 O9 2.042954 1_555
Co2 O11 2.068611 1_555
Co2 O2 2.088485 1_555
Co2 O4 2.098837 1_555
