# generated using pymatgen
data_CsK7Rb5
_symmetry_space_group_name_H-M   'P 1'
_cell_length_a   8.78878605
_cell_length_b   8.78878605
_cell_length_c   33.03393000
_cell_angle_alpha   90.00000000
_cell_angle_beta   90.00000000
_cell_angle_gamma   120.00000036
_symmetry_Int_Tables_number   1
_chemical_formula_structural   CsK7Rb5
_chemical_formula_sum   'Cs2 K14 Rb10'
_cell_volume   2209.77806740
_cell_formula_units_Z   2
loop_
 _symmetry_equiv_pos_site_id
 _symmetry_equiv_pos_as_xyz
  1  'x, y, z'
loop_
 _atom_site_type_symbol
 _atom_site_label
 _atom_site_symmetry_multiplicity
 _atom_site_fract_x
 _atom_site_fract_y
 _atom_site_fract_z
 _atom_site_occupancy
  Cs  Cs0  1  0.33333300  0.66666700  0.25000000  1
  Cs  Cs1  1  0.66666700  0.33333300  0.75000000  1
  K  K0  1  0.00000000  0.00000000  0.50000000  1
  K  K1  1  0.00000000  0.00000000  0.00000000  1
  K  K2  1  0.16713000  0.83287000  0.38504100  1
  K  K3  1  0.16713000  0.33425900  0.38504100  1
  K  K4  1  0.66574100  0.83287000  0.38504100  1
  K  K5  1  0.83287000  0.16713000  0.61495900  1
  K  K6  1  0.83287000  0.66574100  0.61495900  1
  K  K7  1  0.33425900  0.16713000  0.61495900  1
  K  K8  1  0.83287000  0.16713000  0.88504100  1
  K  K9  1  0.83287000  0.66574100  0.88504100  1
  K  K10  1  0.33425900  0.16713000  0.88504100  1
  K  K11  1  0.16713000  0.83287000  0.11495900  1
  K  K12  1  0.16713000  0.33425900  0.11495900  1
  K  K13  1  0.66574100  0.83287000  0.11495900  1
  Rb  Rb0  1  0.00000000  0.00000000  0.25000000  1
  Rb  Rb1  1  0.00000000  0.00000000  0.75000000  1
  Rb  Rb2  1  0.33333300  0.66666700  0.52651200  1
  Rb  Rb3  1  0.66666700  0.33333300  0.47348800  1
  Rb  Rb4  1  0.66666700  0.33333300  0.02651200  1
  Rb  Rb5  1  0.33333300  0.66666700  0.97348800  1
  Rb  Rb6  1  0.33333300  0.66666700  0.67882000  1
  Rb  Rb7  1  0.66666700  0.33333300  0.32118000  1
  Rb  Rb8  1  0.66666700  0.33333300  0.17882000  1
  Rb  Rb9  1  0.33333300  0.66666700  0.82118000  1
loop_
_geom_bond_atom_site_label_1
_geom_bond_atom_site_label_2
_geom_bond_distance
_geom_bond_site_symmetry_2
Cs0 Rb0 5.074203 1_565
Cs0 Rb0 5.074211 1_555
Cs0 Rb0 5.074211 1_665
Cs0 K2 5.128457 1_555
Cs0 K11 5.128457 1_555
Cs0 K4 5.128465 1_555
Cs0 K3 5.128465 1_555
Cs0 K13 5.128465 1_555
Cs0 K12 5.128465 1_555
Cs1 Rb1 5.074203 1_655
Cs1 Rb1 5.074211 1_555
Cs1 Rb1 5.074211 1_665
Cs1 K8 5.128457 1_555
Cs1 K5 5.128457 1_555
Cs1 K9 5.128465 1_555
Cs1 K10 5.128465 1_555
Cs1 K6 5.128465 1_555
Cs1 K7 5.128465 1_555
K0 K7 4.571003 1_555
K0 K6 4.571003 1_445
K0 K3 4.571003 1_555
K0 K4 4.571003 1_445
K0 K5 4.571007 1_455
K0 K2 4.571007 1_545
K1 K12 4.571003 1_555
K1 K13 4.571003 1_445
K1 K10 4.571003 1_554
K1 K9 4.571003 1_444
K1 K11 4.571007 1_545
K1 K8 4.571007 1_454
K2 K4 4.382185 1_555
K2 K3 4.382185 1_555
K2 K3 4.406601 1_565
K2 K4 4.406601 1_455
K2 Rb7 4.874532 1_455
K2 Rb7 4.874532 1_565
K3 K4 4.382185 1_555
K3 K4 4.406601 1_445
K3 Rb7 4.874532 1_455
K3 Rb7 4.874532 1_555
K4 Rb7 4.874532 1_565
K4 Rb7 4.874532 1_555
K5 K6 4.382185 1_555
K5 K7 4.382185 1_555
K5 K7 4.406601 1_655
K5 K6 4.406601 1_545
K5 Rb6 4.874532 1_655
K5 Rb6 4.874532 1_545
K6 K7 4.382185 1_555
K6 K7 4.406601 1_665
K6 Rb6 4.874532 1_655
K6 Rb6 4.874532 1_555
K7 Rb6 4.874532 1_545
K7 Rb6 4.874532 1_555
K8 K9 4.382185 1_555
K8 K9 4.406601 1_545
K8 Rb9 4.874532 1_655
K8 Rb9 4.874532 1_545
K9 Rb9 4.874532 1_655
K9 Rb9 4.874532 1_555
K10 K9 4.382185 1_555
K10 K8 4.382185 1_555
K10 K9 4.406601 1_445
K10 K8 4.406601 1_455
K10 Rb9 4.874532 1_545
K10 Rb9 4.874532 1_555
K11 K13 4.382185 1_555
K11 K12 4.382185 1_555
K11 K12 4.406601 1_565
K11 K13 4.406601 1_455
K11 Rb8 4.874532 1_565
K11 Rb8 4.874532 1_455
K12 K13 4.382185 1_555
K12 K13 4.406601 1_445
K12 Rb8 4.874532 1_455
K12 Rb8 4.874532 1_555
K13 Rb8 4.874532 1_565
K13 Rb8 4.874532 1_555
Rb2 Rb6 5.031332 1_555
Rb3 Rb7 5.031332 1_555
Rb4 Rb8 5.031332 1_555
Rb5 Rb9 5.031332 1_555
Rb6 Rb9 4.702710 1_555
Rb7 Rb8 4.702710 1_555
