# generated using pymatgen
data_SrPr3CrNiO8
_symmetry_space_group_name_H-M   'P 1'
_cell_length_a   6.80372094
_cell_length_b   6.80372094
_cell_length_c   5.50407300
_cell_angle_alpha   90.00000000
_cell_angle_beta   90.00000000
_cell_angle_gamma   132.24996143
_symmetry_Int_Tables_number   1
_chemical_formula_structural   SrPr3CrNiO8
_chemical_formula_sum   'Sr1 Pr3 Cr1 Ni1 O8'
_cell_volume   188.59803017
_cell_formula_units_Z   1
loop_
 _symmetry_equiv_pos_site_id
 _symmetry_equiv_pos_as_xyz
  1  'x, y, z'
loop_
 _atom_site_type_symbol
 _atom_site_label
 _atom_site_symmetry_multiplicity
 _atom_site_fract_x
 _atom_site_fract_y
 _atom_site_fract_z
 _atom_site_occupancy
  Sr  Sr0  1  0.14279200  0.85720800  0.50000000  1
  Pr  Pr0  1  0.63641700  0.36358300  0.00000000  1
  Pr  Pr1  1  0.36131600  0.63868400  0.00000000  1
  Pr  Pr2  1  0.86431600  0.13568400  0.50000000  1
  Cr  Cr0  1  0.50071900  0.49928100  0.50000000  1
  Ni  Ni0  1  0.00306100  0.99693900  0.00000000  1
  O  O0  1  0.74143200  0.74935100  0.24760700  1
  O  O1  1  0.25064900  0.25856800  0.75239300  1
  O  O2  1  0.74143200  0.74935100  0.75239300  1
  O  O3  1  0.25064900  0.25856800  0.24760700  1
  O  O4  1  0.82178800  0.17821200  0.00000000  1
  O  O5  1  0.33664700  0.66335300  0.50000000  1
  O  O6  1  0.17623800  0.82376200  0.00000000  1
  O  O7  1  0.67254400  0.32745600  0.50000000  1
loop_
_geom_bond_atom_site_label_1
_geom_bond_atom_site_label_2
_geom_bond_distance
_geom_bond_site_symmetry_2
Cr0 O3 1.939016 1_555
Cr0 O1 1.939016 1_555
Cr0 O0 1.939016 1_555
Cr0 O2 1.939016 1_555
Cr0 O5 2.041558 1_555
Cr0 O7 2.138029 1_555
Ni0 O1 1.957375 1_564
Ni0 O3 1.957375 1_565
Ni0 O2 1.957375 1_454
Ni0 O0 1.957375 1_455
Ni0 O6 2.154852 1_555
Ni0 O4 2.255591 1_465
O0 Pr1 2.548365 1_555
O0 Pr2 2.565675 1_565
O0 Pr0 2.595170 1_555
O0 Sr0 2.688977 1_655
O1 Pr1 2.548365 1_556
O1 Pr2 2.565675 1_455
O1 Pr0 2.595170 1_556
O1 Sr0 2.688977 1_545
O2 Pr1 2.548365 1_556
O2 Pr2 2.565675 1_565
O2 Pr0 2.595170 1_556
O2 Sr0 2.688977 1_655
O3 Pr1 2.548365 1_555
O3 Pr2 2.565675 1_455
O3 Pr0 2.595170 1_555
O3 Sr0 2.688977 1_545
O4 Pr0 2.306582 1_555
O4 Pr1 2.797338 1_545
O4 Pr1 2.797338 1_655
O4 Pr2 2.802452 1_554
O4 Pr2 2.802452 1_555
O5 Sr0 2.412149 1_555
O5 Pr1 2.769102 1_555
O5 Pr1 2.769102 1_556
O5 Pr2 2.775197 1_565
O5 Pr2 2.775197 1_455
O6 Pr1 2.302937 1_555
O6 Sr0 2.783326 1_554
O6 Sr0 2.783326 1_555
O6 Pr0 2.797981 1_455
O6 Pr0 2.797981 1_565
O7 Pr2 2.386231 1_555
O7 Sr0 2.778531 1_655
O7 Sr0 2.778531 1_545
O7 Pr0 2.788509 1_556
O7 Pr0 2.788509 1_555
