# generated using pymatgen
data_In2(SeO4)3
_symmetry_space_group_name_H-M   'P 1'
_cell_length_a   9.27576445
_cell_length_b   8.79895305
_cell_length_c   14.88218411
_cell_angle_alpha   55.85927648
_cell_angle_beta   90.00000000
_cell_angle_gamma   90.00000000
_symmetry_Int_Tables_number   1
_chemical_formula_structural   In2(SeO4)3
_chemical_formula_sum   'In8 Se12 O48'
_cell_volume   1005.31049166
_cell_formula_units_Z   4
loop_
 _symmetry_equiv_pos_site_id
 _symmetry_equiv_pos_as_xyz
  1  'x, y, z'
loop_
 _atom_site_type_symbol
 _atom_site_label
 _atom_site_symmetry_multiplicity
 _atom_site_fract_x
 _atom_site_fract_y
 _atom_site_fract_z
 _atom_site_occupancy
  In  In0  1  0.03166766  0.86758992  0.88524863  1
  In  In1  1  0.96833234  0.13241008  0.11475137  1
  In  In2  1  0.53166766  0.13241008  0.61475137  1
  In  In3  1  0.46833234  0.86758992  0.38524863  1
  In  In4  1  0.03501212  0.63457987  0.61578788  1
  In  In5  1  0.96498788  0.36542013  0.38421212  1
  In  In6  1  0.53501212  0.36542013  0.88421212  1
  In  In7  1  0.46498788  0.63457987  0.11578788  1
  Se  Se0  1  0.87770142  0.96521142  0.64369503  1
  Se  Se1  1  0.12229858  0.03478858  0.35630497  1
  Se  Se2  1  0.37770142  0.03478858  0.85630497  1
  Se  Se3  1  0.62229858  0.96521142  0.14369503  1
  Se  Se4  1  0.37373745  0.74245073  0.65724706  1
  Se  Se5  1  0.62626255  0.25754927  0.34275294  1
  Se  Se6  1  0.87373745  0.25754927  0.84275294  1
  Se  Se7  1  0.12626255  0.74245073  0.15724706  1
  Se  Se8  1  0.25444471  0.45607203  0.50439657  1
  Se  Se9  1  0.74555529  0.54392797  0.49560343  1
  Se  Se10  1  0.75444471  0.54392797  0.99560343  1
  Se  Se11  1  0.24555529  0.45607203  0.00439657  1
  O  O0  1  0.71592452  0.95439850  0.69254927  1
  O  O1  1  0.28407548  0.04560150  0.30745073  1
  O  O2  1  0.21592452  0.04560150  0.80745073  1
  O  O3  1  0.78407548  0.95439850  0.19254927  1
  O  O4  1  0.12103055  0.61114893  0.93392936  1
  O  O5  1  0.87896945  0.38885107  0.06607064  1
  O  O6  1  0.62103055  0.38885107  0.56607064  1
  O  O7  1  0.37896945  0.61114893  0.43392936  1
  O  O8  1  0.19862193  0.46012181  0.60852278  1
  O  O9  1  0.80137807  0.53987819  0.39147722  1
  O  O10  1  0.69862193  0.53987819  0.89147722  1
  O  O11  1  0.30137807  0.46012181  0.10852278  1
  O  O12  1  0.41901198  0.87656522  0.69704722  1
  O  O13  1  0.58098802  0.12343478  0.30295278  1
  O  O14  1  0.91901198  0.12343478  0.80295278  1
  O  O15  1  0.08098802  0.87656522  0.19704722  1
  O  O16  1  0.99698585  0.87265215  0.74197466  1
  O  O17  1  0.00301415  0.12734785  0.25802534  1
  O  O18  1  0.49698585  0.12734785  0.75802534  1
  O  O19  1  0.50301415  0.87265215  0.24197466  1
  O  O20  1  0.37826299  0.49962712  0.91961331  1
  O  O21  1  0.62173701  0.50037288  0.08038669  1
  O  O22  1  0.87826299  0.50037288  0.58038669  1
  O  O23  1  0.12173701  0.49962712  0.41961331  1
  O  O24  1  0.88485497  0.84622558  0.58839871  1
  O  O25  1  0.11514503  0.15377442  0.41160129  1
  O  O26  1  0.38485497  0.15377442  0.91160129  1
  O  O27  1  0.61514503  0.84622558  0.08839871  1
  O  O28  1  0.47740946  0.55822250  0.71538850  1
  O  O29  1  0.52259054  0.44177750  0.28461150  1
  O  O30  1  0.97740946  0.44177750  0.78461150  1
  O  O31  1  0.02259054  0.55822250  0.21538850  1
  O  O32  1  0.32305188  0.25258071  0.54845391  1
  O  O33  1  0.67694812  0.74741929  0.45154609  1
  O  O34  1  0.82305188  0.74741929  0.95154609  1
  O  O35  1  0.17694812  0.25258071  0.04845391  1
  O  O36  1  0.38995585  0.85702894  0.52421065  1
  O  O37  1  0.61004415  0.14297106  0.47578935  1
  O  O38  1  0.88995585  0.14297106  0.97578935  1
  O  O39  1  0.11004415  0.85702894  0.02421065  1
  O  O40  1  0.20280970  0.69087111  0.69052996  1
  O  O41  1  0.79719030  0.30912889  0.30947004  1
  O  O42  1  0.70280970  0.30912889  0.80947004  1
  O  O43  1  0.29719030  0.69087111  0.19052996  1
  O  O44  1  0.41661668  0.81638160  0.94621962  1
  O  O45  1  0.58338332  0.18361840  0.05378038  1
  O  O46  1  0.91661668  0.18361840  0.55378038  1
  O  O47  1  0.08338332  0.81638160  0.44621962  1
loop_
_geom_bond_atom_site_label_1
_geom_bond_atom_site_label_2
_geom_bond_distance
_geom_bond_site_symmetry_2
In0 O4 2.113873 1_555
In0 O16 2.131965 1_455
In0 O14 2.136582 1_465
In0 O39 2.144370 1_556
In0 O34 2.159863 1_455
In0 O2 2.163192 1_565
In1 O5 2.113873 1_555
In1 O17 2.131965 1_655
In1 O15 2.136582 1_645
In1 O38 2.144370 1_554
In1 O35 2.159863 1_655
In1 O3 2.163192 1_545
In2 O6 2.113873 1_555
In2 O18 2.131965 1_555
In2 O12 2.136582 1_545
In2 O37 2.144370 1_555
In2 O32 2.159863 1_555
In2 O0 2.163192 1_545
In3 O7 2.113873 1_555
In3 O19 2.131965 1_555
In3 O13 2.136582 1_565
In3 O36 2.144370 1_555
In3 O33 2.159863 1_555
In3 O1 2.163192 1_565
In4 O22 2.117640 1_455
In4 O40 2.126861 1_555
In4 O47 2.144148 1_555
In4 O30 2.166034 1_455
In4 O24 2.173036 1_455
In4 O8 2.203970 1_555
In5 O23 2.117640 1_655
In5 O41 2.126861 1_555
In5 O46 2.144148 1_555
In5 O31 2.166034 1_655
In5 O25 2.173036 1_655
In5 O9 2.203970 1_555
In6 O20 2.117640 1_555
In6 O42 2.126861 1_555
In6 O45 2.144148 1_556
In6 O28 2.166034 1_555
In6 O26 2.173036 1_555
In6 O10 2.203970 1_555
In7 O21 2.117640 1_555
In7 O43 2.126861 1_555
In7 O44 2.144148 1_554
In7 O29 2.166034 1_555
In7 O27 2.173036 1_555
In7 O11 2.203970 1_555
O0 Se0 1.646765 1_555
O1 Se1 1.646765 1_555
O2 Se2 1.646765 1_555
O3 Se3 1.646765 1_555
O4 Se11 1.640015 1_556
O5 Se10 1.640015 1_554
O6 Se9 1.640015 1_555
O7 Se8 1.640015 1_555
O8 Se8 1.653090 1_555
O9 Se9 1.653090 1_555
O10 Se10 1.653090 1_555
O11 Se11 1.653090 1_555
O12 Se4 1.644481 1_555
O13 Se5 1.644481 1_555
O14 Se6 1.644481 1_555
O15 Se7 1.644481 1_555
O16 Se0 1.640035 1_555
O17 Se1 1.640035 1_555
O18 Se2 1.640035 1_555
O19 Se3 1.640035 1_555
O20 Se11 1.646638 1_556
O21 Se10 1.646638 1_554
O22 Se9 1.646638 1_555
O23 Se8 1.646638 1_555
O24 Se0 1.656742 1_555
O25 Se1 1.656742 1_555
O26 Se2 1.656742 1_555
O27 Se3 1.656742 1_555
O28 Se4 1.651289 1_555
O29 Se5 1.651289 1_555
O30 Se6 1.651289 1_555
O31 Se7 1.651289 1_555
O32 Se8 1.650173 1_555
O33 Se9 1.650173 1_555
O34 Se10 1.650173 1_555
O35 Se11 1.650173 1_555
O36 Se4 1.648775 1_555
O37 Se5 1.648775 1_555
O38 Se6 1.648775 1_555
O39 Se7 1.648775 1_555
O40 Se4 1.647045 1_555
O41 Se5 1.647045 1_555
O42 Se6 1.647045 1_555
O43 Se7 1.647045 1_555
O44 Se2 1.651535 1_565
O45 Se3 1.651535 1_545
O46 Se0 1.651535 1_545
O47 Se1 1.651535 1_565
