# generated using pymatgen
data_RbMg6BO7
_symmetry_space_group_name_H-M   'P 1'
_cell_length_a   4.03839500
_cell_length_b   4.03839500
_cell_length_c   12.80700000
_cell_angle_alpha   90.00000000
_cell_angle_beta   90.00000000
_cell_angle_gamma   90.00000000
_symmetry_Int_Tables_number   1
_chemical_formula_structural   RbMg6BO7
_chemical_formula_sum   'Rb1 Mg6 B1 O7'
_cell_volume   208.86467789
_cell_formula_units_Z   1
loop_
 _symmetry_equiv_pos_site_id
 _symmetry_equiv_pos_as_xyz
  1  'x, y, z'
loop_
 _atom_site_type_symbol
 _atom_site_label
 _atom_site_symmetry_multiplicity
 _atom_site_fract_x
 _atom_site_fract_y
 _atom_site_fract_z
 _atom_site_occupancy
  Rb  Rb0  1  0.00000000  0.00000000  0.04131400  1
  Mg  Mg0  1  0.00000000  0.00000000  0.54124000  1
  Mg  Mg1  1  0.50000000  0.50000000  0.49601400  1
  Mg  Mg2  1  0.00000000  0.50000000  0.33180100  1
  Mg  Mg3  1  0.00000000  0.50000000  0.75190800  1
  Mg  Mg4  1  0.50000000  0.00000000  0.33180100  1
  Mg  Mg5  1  0.50000000  0.00000000  0.75190800  1
  B  B0  1  0.50000000  0.50000000  0.88281900  1
  O  O0  1  0.00000000  0.00000000  0.69955900  1
  O  O1  1  0.50000000  0.50000000  0.33126500  1
  O  O2  1  0.50000000  0.50000000  0.77024800  1
  O  O3  1  0.00000000  0.50000000  0.90393900  1
  O  O4  1  0.00000000  0.50000000  0.50612200  1
  O  O5  1  0.50000000  0.00000000  0.90393900  1
  O  O6  1  0.50000000  0.00000000  0.50612200  1
loop_
_geom_bond_atom_site_label_1
_geom_bond_atom_site_label_2
_geom_bond_distance
_geom_bond_site_symmetry_2
Mg0 O0 2.027591 1_555
Mg0 O6 2.068681 1_555
Mg0 O4 2.068681 1_555
Mg0 O6 2.068681 1_455
Mg0 O4 2.068681 1_545
Mg1 O6 2.023343 1_565
Mg1 O4 2.023343 1_555
Mg1 O4 2.023343 1_655
Mg1 O6 2.023343 1_555
Mg1 O1 2.109940 1_555
Mg2 O1 2.019209 1_555
Mg2 O1 2.019209 1_455
Mg2 O4 2.232529 1_555
Mg3 O3 1.947061 1_555
Mg3 O2 2.032813 1_455
Mg3 O2 2.032813 1_555
Mg3 O0 2.127590 1_555
Mg3 O0 2.127590 1_565
Mg4 O1 2.019209 1_555
Mg4 O1 2.019209 1_545
Mg4 O6 2.232529 1_555
Mg5 O5 1.947061 1_555
Mg5 O2 2.032813 1_555
Mg5 O2 2.032813 1_545
Mg5 O0 2.127590 1_555
Mg5 O0 2.127590 1_655
B0 O2 1.441697 1_555
B0 O3 2.037233 1_655
B0 O5 2.037233 1_555
B0 O5 2.037233 1_565
B0 O3 2.037233 1_555
O3 Rb0 2.678155 1_566
O3 Rb0 2.678155 1_556
O5 Rb0 2.678155 1_556
O5 Rb0 2.678155 1_656
