# generated using pymatgen
data_Ca4MnFe11Si8(HO9)4
_symmetry_space_group_name_H-M   'P 1'
_cell_length_a   5.87384700
_cell_length_b   8.94963300
_cell_length_c   13.20585028
_cell_angle_alpha   89.98811205
_cell_angle_beta   90.00000000
_cell_angle_gamma   90.00000000
_symmetry_Int_Tables_number   1
_chemical_formula_structural   Ca4MnFe11Si8(HO9)4
_chemical_formula_sum   'Ca4 Mn1 Fe11 Si8 H4 O36'
_cell_volume   694.21535665
_cell_formula_units_Z   1
loop_
 _symmetry_equiv_pos_site_id
 _symmetry_equiv_pos_as_xyz
  1  'x, y, z'
loop_
 _atom_site_type_symbol
 _atom_site_label
 _atom_site_symmetry_multiplicity
 _atom_site_fract_x
 _atom_site_fract_y
 _atom_site_fract_z
 _atom_site_occupancy
  Ca  Ca0  1  0.50000000  0.86852400  0.31334000  1
  Ca  Ca1  1  0.50000000  0.63155300  0.81357100  1
  Ca  Ca2  1  0.00000000  0.13093100  0.68708400  1
  Ca  Ca3  1  0.00000000  0.36985300  0.18690200  1
  Mn  Mn0  1  0.00000000  0.23881500  0.44017600  1
  Fe  Fe0  1  0.23704800  0.55157300  0.39002600  1
  Fe  Fe1  1  0.76321200  0.94828400  0.89034900  1
  Fe  Fe2  1  0.73793700  0.45017000  0.61041700  1
  Fe  Fe3  1  0.26201100  0.05023300  0.11007000  1
  Fe  Fe4  1  0.26206300  0.45017000  0.61041700  1
  Fe  Fe5  1  0.73798900  0.05023300  0.11007000  1
  Fe  Fe6  1  0.76295200  0.55157300  0.39002600  1
  Fe  Fe7  1  0.23678800  0.94828400  0.89034900  1
  Fe  Fe8  1  0.00000000  0.25655700  0.94125600  1
  Fe  Fe9  1  0.50000000  0.75977100  0.55870800  1
  Fe  Fe10  1  0.50000000  0.73987800  0.05849300  1
  Si  Si0  1  0.00000000  0.86690900  0.45880000  1
  Si  Si1  1  0.00000000  0.63099900  0.95880100  1
  Si  Si2  1  0.50000000  0.13091100  0.54136500  1
  Si  Si3  1  0.50000000  0.36946800  0.04049500  1
  Si  Si4  1  0.00000000  0.72766800  0.17811900  1
  Si  Si5  1  0.00000000  0.77266400  0.67820400  1
  Si  Si6  1  0.50000000  0.27319600  0.82157700  1
  Si  Si7  1  0.50000000  0.22761700  0.32113900  1
  H  H0  1  0.50000000  0.56612300  0.22878100  1
  H  H1  1  0.50000000  0.93384600  0.72890900  1
  H  H2  1  0.00000000  0.43425400  0.77168800  1
  H  H3  1  0.00000000  0.06483600  0.27105000  1
  O  O0  1  0.23450200  0.77102800  0.43613500  1
  O  O1  1  0.76638200  0.72855100  0.93594200  1
  O  O2  1  0.73324200  0.22770200  0.56498400  1
  O  O3  1  0.26527300  0.27275400  0.06362300  1
  O  O4  1  0.26675800  0.22770200  0.56498400  1
  O  O5  1  0.73472700  0.27275400  0.06362300  1
  O  O6  1  0.76549800  0.77102800  0.43613500  1
  O  O7  1  0.23361800  0.72855100  0.93594200  1
  O  O8  1  0.00000000  0.60929400  0.27520300  1
  O  O9  1  0.00000000  0.89141900  0.77506000  1
  O  O10  1  0.50000000  0.39125700  0.72467800  1
  O  O11  1  0.50000000  0.10887500  0.22462700  1
  O  O12  1  0.23288600  0.82995300  0.17059600  1
  O  O13  1  0.76697900  0.67049600  0.67085400  1
  O  O14  1  0.73404200  0.17107900  0.82979500  1
  O  O15  1  0.26760000  0.33049300  0.32866300  1
  O  O16  1  0.26595800  0.17107900  0.82979500  1
  O  O17  1  0.73240000  0.33049300  0.32866300  1
  O  O18  1  0.76711400  0.82995300  0.17059600  1
  O  O19  1  0.23302100  0.67049600  0.67085400  1
  O  O20  1  0.50000000  0.52535700  0.10174700  1
  O  O21  1  0.50000000  0.97432500  0.60188600  1
  O  O22  1  0.00000000  0.47641100  0.89709800  1
  O  O23  1  0.00000000  0.02012900  0.39520800  1
  O  O24  1  0.50000000  0.53104700  0.50899800  1
  O  O25  1  0.50000000  0.96854300  0.00919900  1
  O  O26  1  0.00000000  0.47403100  0.49247200  1
  O  O27  1  0.00000000  0.02783900  0.99199000  1
  O  O28  1  0.50000000  0.60898200  0.29845200  1
  O  O29  1  0.50000000  0.89175600  0.79882300  1
  O  O30  1  0.00000000  0.39079100  0.70190400  1
  O  O31  1  0.00000000  0.10967000  0.20163600  1
  O  O32  1  0.00000000  0.60167900  0.08416900  1
  O  O33  1  0.00000000  0.89832500  0.58382200  1
  O  O34  1  0.50000000  0.39837600  0.91566400  1
  O  O35  1  0.50000000  0.10289100  0.41599900  1
loop_
_geom_bond_atom_site_label_1
_geom_bond_atom_site_label_2
_geom_bond_distance
_geom_bond_site_symmetry_2
Ca0 O28 2.331152 1_555
Ca0 O0 2.412968 1_555
Ca0 O6 2.412968 1_555
Ca0 O11 2.449177 1_565
Ca0 O18 2.476810 1_555
Ca0 O12 2.476810 1_555
Ca0 O35 2.497719 1_565
Ca1 O29 2.336811 1_555
Ca1 O7 2.411207 1_555
Ca1 O1 2.411207 1_555
Ca1 O10 2.450310 1_555
Ca1 O13 2.476393 1_555
Ca1 O19 2.476393 1_555
Ca1 O34 2.484246 1_555
Ca2 O30 2.333912 1_555
Ca2 O4 2.409273 1_555
Ca2 O2 2.409273 1_455
Ca2 O9 2.437934 1_545
Ca2 O14 2.474194 1_455
Ca2 O16 2.474194 1_555
Ca2 O33 2.488853 1_545
Ca3 O31 2.336617 1_555
Ca3 O3 2.415378 1_555
Ca3 O5 2.415378 1_455
Ca3 O8 2.439849 1_555
Ca3 O15 2.469648 1_555
Ca3 O17 2.469648 1_455
Ca3 O32 2.478714 1_555
Mn0 O23 2.045386 1_555
Mn0 O26 2.215622 1_555
Mn0 O4 2.276299 1_555
Mn0 O2 2.276299 1_455
Mn0 O17 2.304778 1_455
Mn0 O15 2.304778 1_555
Fe0 O28 2.027748 1_555
Fe0 O0 2.056441 1_555
Fe0 O26 2.061612 1_555
Fe0 O8 2.122389 1_555
Fe0 O15 2.145772 1_555
Fe0 O24 2.210807 1_555
Fe1 O29 2.026677 1_555
Fe1 O1 2.056602 1_555
Fe1 O27 2.059965 1_665
Fe1 O9 2.124094 1_655
Fe1 O14 2.154979 1_565
Fe1 O25 2.210587 1_556
Fe2 O30 2.027634 1_655
Fe2 O24 2.066544 1_555
Fe2 O2 2.079746 1_555
Fe2 O10 2.123154 1_555
Fe2 O13 2.134219 1_555
Fe2 O26 2.200220 1_655
Fe3 O31 2.028292 1_555
Fe3 O25 2.064828 1_545
Fe3 O3 2.083767 1_555
Fe3 O11 2.125690 1_555
Fe3 O12 2.134012 1_545
Fe3 O27 2.200095 1_554
Fe4 O30 2.027634 1_555
Fe4 O24 2.066544 1_555
Fe4 O4 2.079746 1_555
Fe4 O10 2.123154 1_555
Fe4 O19 2.134219 1_555
Fe4 O26 2.200220 1_555
Fe5 O31 2.028292 1_655
Fe5 O25 2.064828 1_545
Fe5 O5 2.083767 1_555
Fe5 O11 2.125690 1_555
Fe5 O18 2.134012 1_545
Fe5 O27 2.200095 1_654
Fe6 O28 2.027748 1_555
Fe6 O6 2.056441 1_555
Fe6 O26 2.061612 1_655
Fe6 O8 2.122389 1_655
Fe6 O17 2.145772 1_555
Fe6 O24 2.210807 1_555
Fe7 O29 2.026677 1_555
Fe7 O7 2.056602 1_555
Fe7 O27 2.059965 1_565
Fe7 O9 2.124094 1_555
Fe7 O16 2.154979 1_565
Fe7 O25 2.210587 1_556
Fe8 O22 2.052092 1_555
Fe8 O27 2.153668 1_555
Fe8 O3 2.249520 1_556
Fe8 O5 2.249520 1_456
Fe8 O14 2.278759 1_455
Fe8 O16 2.278759 1_555
Fe9 O21 2.003166 1_555
Fe9 O24 2.149812 1_555
Fe9 O0 2.249941 1_555
Fe9 O6 2.249941 1_555
Fe9 O19 2.300091 1_555
Fe9 O13 2.300091 1_555
Fe10 O20 2.002942 1_555
Fe10 O25 2.147379 1_555
Fe10 O7 2.253392 1_554
Fe10 O1 2.253392 1_554
Fe10 O18 2.302977 1_555
Fe10 O12 2.302977 1_555
H0 O28 0.996892 1_555
H0 O20 1.716880 1_555
H1 O29 0.997089 1_555
H1 O21 1.716047 1_555
H2 O30 1.000360 1_555
H2 O22 1.698654 1_555
H3 O31 1.000566 1_555
H3 O23 1.687645 1_555
O0 Si0 1.650254 1_555
O1 Si1 1.654169 1_655
O2 Si2 1.650683 1_555
O3 Si3 1.656295 1_555
O4 Si2 1.650683 1_555
O5 Si3 1.656295 1_555
O6 Si0 1.650254 1_655
O7 Si1 1.654169 1_555
O8 Si4 1.662977 1_555
O9 Si5 1.663174 1_555
O10 Si6 1.659310 1_555
O11 Si7 1.659607 1_555
O12 Si4 1.648959 1_555
O13 Si5 1.648922 1_655
O14 Si6 1.654340 1_555
O15 Si7 1.649561 1_555
O16 Si6 1.654340 1_555
O17 Si7 1.649561 1_555
O18 Si4 1.648959 1_655
O19 Si5 1.648922 1_555
O20 Si3 1.612825 1_555
O21 Si2 1.613131 1_565
O22 Si1 1.605778 1_555
O23 Si0 1.607832 1_545
O32 Si1 1.676203 1_554
O32 Si4 1.676685 1_555
O33 Si0 1.674849 1_555
O33 Si5 1.678597 1_555
O34 Si3 1.668624 1_556
O34 Si6 1.673167 1_555
O35 Si2 1.674500 1_555
O35 Si7 1.677711 1_555
