# generated using pymatgen
data_MnAl(WO4)2
_symmetry_space_group_name_H-M   'P 1'
_cell_length_a   5.12381344
_cell_length_b   5.67576500
_cell_length_c   9.27936019
_cell_angle_alpha   90.00001657
_cell_angle_beta   91.59362249
_cell_angle_gamma   90.00008473
_symmetry_Int_Tables_number   1
_chemical_formula_structural   MnAl(WO4)2
_chemical_formula_sum   'Mn2 Al2 W4 O16'
_cell_volume   269.75390252
_cell_formula_units_Z   2
loop_
 _symmetry_equiv_pos_site_id
 _symmetry_equiv_pos_as_xyz
  1  'x, y, z'
loop_
 _atom_site_type_symbol
 _atom_site_label
 _atom_site_symmetry_multiplicity
 _atom_site_fract_x
 _atom_site_fract_y
 _atom_site_fract_z
 _atom_site_occupancy
  Mn  Mn0  1  0.75000000  0.34608900  0.25000000  1
  Mn  Mn1  1  0.25000000  0.64585700  0.75000100  1
  Al  Al0  1  0.25000000  0.65563100  0.25000000  1
  Al  Al1  1  0.75000000  0.33528100  0.75000000  1
  W  W0  1  0.74358700  0.83761200  0.49765300  1
  W  W1  1  0.75641300  0.83761100  0.00234800  1
  W  W2  1  0.24844800  0.16975900  0.50101400  1
  W  W3  1  0.25155100  0.16975800  0.99898600  1
  O  O0  1  0.37767800  0.39723200  0.13076700  1
  O  O1  1  0.12232100  0.39723200  0.36923200  1
  O  O2  1  0.62364500  0.60926600  0.87503400  1
  O  O3  1  0.87635500  0.60926700  0.62496600  1
  O  O4  1  0.43184200  0.88612000  0.60747000  1
  O  O5  1  0.06815700  0.88612000  0.89253000  1
  O  O6  1  0.58394100  0.11452000  0.39244300  1
  O  O7  1  0.91606000  0.11451900  0.10755600  1
  O  O8  1  0.93116000  0.64397000  0.13911000  1
  O  O9  1  0.56884000  0.64397000  0.36089100  1
  O  O10  1  0.06113700  0.35845200  0.85585700  1
  O  O11  1  0.43886200  0.35845200  0.64414300  1
  O  O12  1  0.42800700  0.87834800  0.11318300  1
  O  O13  1  0.58154700  0.11329300  0.88364600  1
  O  O14  1  0.07199200  0.87834800  0.38681800  1
  O  O15  1  0.91845300  0.11329300  0.61635400  1
loop_
_geom_bond_atom_site_label_1
_geom_bond_atom_site_label_2
_geom_bond_distance
_geom_bond_site_symmetry_2
Mn0 O6 2.064237 1_555
Mn0 O7 2.064250 1_555
Mn0 O1 2.197796 1_655
Mn0 O0 2.197805 1_555
Mn0 O8 2.198187 1_555
Mn0 O9 2.198193 1_555
Mn1 O5 2.132015 1_555
Mn1 O4 2.132023 1_555
Mn1 O10 2.148285 1_555
Mn1 O11 2.148293 1_555
Mn1 O2 2.220579 1_555
Mn1 O3 2.220587 1_455
Al0 O8 1.907510 1_455
Al0 O9 1.907515 1_555
Al0 O1 1.960434 1_555
Al0 O0 1.960439 1_555
Al0 O12 2.026333 1_555
Al0 O14 2.026342 1_555
Al1 O10 1.853801 1_655
Al1 O11 1.853806 1_555
Al1 O13 1.982413 1_555
Al1 O15 1.982414 1_555
Al1 O2 2.055562 1_555
Al1 O3 2.055566 1_555
O0 W3 1.880409 1_554
O1 W2 1.880413 1_555
O2 W1 1.869081 1_556
O3 W0 1.869077 1_555
O4 W0 1.938093 1_555
O4 W2 2.097350 1_565
O5 W1 1.938094 1_456
O5 W3 2.097343 1_565
O6 W0 2.011954 1_545
O6 W2 2.040733 1_555
O7 W1 2.011945 1_545
O7 W3 2.040719 1_654
O8 W1 1.885988 1_555
O9 W0 1.885989 1_555
O10 W3 1.946995 1_555
O11 W2 1.946990 1_555
O12 W1 2.009710 1_555
O12 W3 2.150048 1_564
O13 W3 2.051292 1_555
O13 W1 2.099870 1_546
O14 W0 2.009705 1_455
O14 W2 2.150045 1_565
O15 W2 2.051288 1_655
O15 W0 2.099859 1_545
