# generated using pymatgen
data_CeSiRu2C
_symmetry_space_group_name_H-M   'P 1'
_cell_length_a   5.93332258
_cell_length_b   5.93332258
_cell_length_c   7.14245100
_cell_angle_alpha   90.00000000
_cell_angle_beta   90.00000000
_cell_angle_gamma   141.68379453
_symmetry_Int_Tables_number   1
_chemical_formula_structural   CeSiRu2C
_chemical_formula_sum   'Ce2 Si2 Ru4 C2'
_cell_volume   155.89621131
_cell_formula_units_Z   2
loop_
 _symmetry_equiv_pos_site_id
 _symmetry_equiv_pos_as_xyz
  1  'x, y, z'
loop_
 _atom_site_type_symbol
 _atom_site_label
 _atom_site_symmetry_multiplicity
 _atom_site_fract_x
 _atom_site_fract_y
 _atom_site_fract_z
 _atom_site_occupancy
  Ce  Ce0  1  0.55191900  0.44808100  0.25000000  1
  Ce  Ce1  1  0.44808100  0.55191900  0.75000000  1
  Si  Si0  1  0.27206600  0.72793400  0.25000000  1
  Si  Si1  1  0.72793400  0.27206600  0.75000000  1
  Ru  Ru0  1  0.83586500  0.16413500  0.05651300  1
  Ru  Ru1  1  0.16413500  0.83586500  0.94348700  1
  Ru  Ru2  1  0.16413500  0.83586500  0.55651300  1
  Ru  Ru3  1  0.83586500  0.16413500  0.44348700  1
  C  C0  1  0.00000000  0.00000000  0.00000000  1
  C  C1  1  0.00000000  0.00000000  0.50000000  1
loop_
_geom_bond_atom_site_label_1
_geom_bond_atom_site_label_2
_geom_bond_distance
_geom_bond_site_symmetry_2
Ce0 Si0 3.136993 1_555
Ce0 Si0 3.143428 1_545
Ce0 Si0 3.143428 1_655
Ce1 Si1 3.136993 1_555
Ce1 Si1 3.143428 1_455
Ce1 Si1 3.143428 1_565
Ru0 Si0 2.492543 1_655
Ru0 Si0 2.492543 1_545
Ru0 Si1 2.501311 1_554
Ru1 Si1 2.492543 1_565
Ru1 Si1 2.492543 1_455
Ru1 Si0 2.501311 1_556
Ru2 Si1 2.492543 1_565
Ru2 Si1 2.492543 1_455
Ru2 Si0 2.501311 1_555
Ru3 Si0 2.492543 1_655
Ru3 Si0 2.492543 1_545
Ru3 Si1 2.501311 1_555
C0 Ru1 1.883616 1_544
C0 Ru0 1.883616 1_455
C0 Ce1 2.705292 1_554
C0 Ce0 2.705292 1_555
C0 Ce1 2.705292 1_444
C0 Ce0 2.705292 1_445
C1 Ru2 1.883616 1_545
C1 Ru3 1.883616 1_455
C1 Ce1 2.705292 1_555
C1 Ce0 2.705292 1_555
C1 Ce1 2.705292 1_445
C1 Ce0 2.705292 1_445
