# generated using pymatgen
data_Hf3ScGa12
_symmetry_space_group_name_H-M   'P 1'
_cell_length_a   3.97798600
_cell_length_b   3.97798600
_cell_length_c   17.60720700
_cell_angle_alpha   90.00000000
_cell_angle_beta   90.00000000
_cell_angle_gamma   90.00000000
_symmetry_Int_Tables_number   1
_chemical_formula_structural   Hf3ScGa12
_chemical_formula_sum   'Hf3 Sc1 Ga12'
_cell_volume   278.62300430
_cell_formula_units_Z   1
loop_
 _symmetry_equiv_pos_site_id
 _symmetry_equiv_pos_as_xyz
  1  'x, y, z'
loop_
 _atom_site_type_symbol
 _atom_site_label
 _atom_site_symmetry_multiplicity
 _atom_site_fract_x
 _atom_site_fract_y
 _atom_site_fract_z
 _atom_site_occupancy
  Hf  Hf0  1  0.00000000  0.00000000  0.88133600  1
  Hf  Hf1  1  0.00000000  0.00000000  0.11760700  1
  Hf  Hf2  1  0.50000000  0.50000000  0.61981800  1
  Sc  Sc0  1  0.50000000  0.50000000  0.38093300  1
  Ga  Ga0  1  0.50000000  0.00000000  0.00003400  1
  Ga  Ga1  1  0.00000000  0.50000000  0.49994700  1
  Ga  Ga2  1  0.50000000  0.00000000  0.49994700  1
  Ga  Ga3  1  0.00000000  0.50000000  0.00003400  1
  Ga  Ga4  1  0.50000000  0.50000000  0.12666000  1
  Ga  Ga5  1  0.00000000  0.00000000  0.62317000  1
  Ga  Ga6  1  0.00000000  0.00000000  0.37590300  1
  Ga  Ga7  1  0.50000000  0.50000000  0.87531500  1
  Ga  Ga8  1  0.00000000  0.50000000  0.24969400  1
  Ga  Ga9  1  0.50000000  0.00000000  0.74995400  1
  Ga  Ga10  1  0.50000000  0.00000000  0.24969400  1
  Ga  Ga11  1  0.00000000  0.50000000  0.74995400  1
loop_
_geom_bond_atom_site_label_1
_geom_bond_atom_site_label_2
_geom_bond_distance
_geom_bond_site_symmetry_2
Ga0 Ga3 2.812861 1_655
Ga0 Ga3 2.812861 1_545
Ga0 Ga3 2.812861 1_645
Ga0 Ga3 2.812861 1_555
Ga0 Hf1 2.870808 1_655
Ga0 Hf1 2.870808 1_555
Ga0 Hf0 2.885125 1_654
Ga0 Hf0 2.885125 1_554
Ga0 Ga7 2.962820 1_554
Ga0 Ga7 2.962820 1_544
Ga0 Ga4 2.987791 1_555
Ga0 Ga4 2.987791 1_545
Ga1 Ga2 2.812861 1_565
Ga1 Ga2 2.812861 1_555
Ga1 Ga2 2.812861 1_465
Ga1 Ga2 2.812861 1_455
Ga1 Sc0 2.889157 1_555
Ga1 Sc0 2.889157 1_455
Ga1 Hf2 2.900120 1_555
Ga1 Hf2 2.900120 1_455
Ga1 Ga5 2.943351 1_565
Ga1 Ga5 2.943351 1_555
Ga1 Ga6 2.954022 1_555
Ga1 Ga6 2.954022 1_565
Ga2 Sc0 2.889157 1_555
Ga2 Sc0 2.889157 1_545
Ga2 Hf2 2.900120 1_555
Ga2 Hf2 2.900120 1_545
Ga2 Ga5 2.943351 1_655
Ga2 Ga5 2.943351 1_555
Ga2 Ga6 2.954022 1_555
Ga2 Ga6 2.954022 1_655
Ga3 Hf1 2.870808 1_555
Ga3 Hf1 2.870808 1_565
Ga3 Hf0 2.885125 1_554
Ga3 Hf0 2.885125 1_564
Ga3 Ga7 2.962820 1_554
Ga3 Ga7 2.962820 1_454
Ga3 Ga4 2.987791 1_555
Ga3 Ga4 2.987791 1_455
Ga4 Hf1 2.817374 1_555
Ga4 Hf1 2.817374 1_565
Ga4 Hf1 2.817374 1_665
Ga4 Hf1 2.817374 1_655
Ga4 Ga8 2.940899 1_655
Ga4 Ga8 2.940899 1_555
Ga5 Hf2 2.813480 1_545
Ga5 Hf2 2.813480 1_455
Ga5 Hf2 2.813480 1_445
Ga5 Hf2 2.813480 1_555
Ga5 Ga9 2.989868 1_455
Ga5 Ga9 2.989868 1_555
Ga6 Sc0 2.814255 1_455
Ga6 Sc0 2.814255 1_445
Ga6 Sc0 2.814255 1_555
Ga6 Sc0 2.814255 1_545
Ga6 Ga8 2.982317 1_555
Ga6 Ga8 2.982317 1_545
Ga7 Hf0 2.814858 1_565
Ga7 Hf0 2.814858 1_655
Ga7 Hf0 2.814858 1_665
Ga7 Hf0 2.814858 1_555
Ga7 Ga9 2.971208 1_555
Ga7 Ga9 2.971208 1_565
Ga8 Sc0 3.048880 1_455
Ga8 Sc0 3.048880 1_555
Ga8 Hf1 3.060212 1_555
Ga8 Hf1 3.060212 1_565
Ga9 Hf2 3.034187 1_555
Ga9 Hf2 3.034187 1_545
Ga9 Hf0 3.050789 1_655
Ga9 Hf0 3.050789 1_555
Ga10 Ga8 2.812861 1_555
Ga10 Ga8 2.812861 1_545
Ga10 Ga8 2.812861 1_645
Ga10 Ga8 2.812861 1_655
Ga10 Ga4 2.940899 1_555
Ga10 Ga4 2.940899 1_545
Ga10 Ga6 2.982317 1_655
Ga10 Ga6 2.982317 1_555
Ga10 Sc0 3.048880 1_545
Ga10 Sc0 3.048880 1_555
Ga10 Hf1 3.060212 1_555
Ga10 Hf1 3.060212 1_655
Ga11 Ga9 2.812861 1_455
Ga11 Ga9 2.812861 1_555
Ga11 Ga9 2.812861 1_565
Ga11 Ga9 2.812861 1_465
Ga11 Ga7 2.971208 1_555
Ga11 Ga7 2.971208 1_455
Ga11 Ga5 2.989868 1_565
Ga11 Ga5 2.989868 1_555
Ga11 Hf2 3.034187 1_555
Ga11 Hf2 3.034187 1_455
Ga11 Hf0 3.050789 1_565
Ga11 Hf0 3.050789 1_555
