# generated using pymatgen
data_Sb2Te4Pd3
_symmetry_space_group_name_H-M   'P 1'
_cell_length_a   6.66612500
_cell_length_b   6.67154203
_cell_length_c   19.97564557
_cell_angle_alpha   89.81280580
_cell_angle_beta   89.54041602
_cell_angle_gamma   89.81700474
_symmetry_Int_Tables_number   1
_chemical_formula_structural   Sb2Te4Pd3
_chemical_formula_sum   'Sb8 Te16 Pd12'
_cell_volume   888.34576142
_cell_formula_units_Z   4
loop_
 _symmetry_equiv_pos_site_id
 _symmetry_equiv_pos_as_xyz
  1  'x, y, z'
loop_
 _atom_site_type_symbol
 _atom_site_label
 _atom_site_symmetry_multiplicity
 _atom_site_fract_x
 _atom_site_fract_y
 _atom_site_fract_z
 _atom_site_occupancy
  Sb  Sb0  1  0.36921200  0.87409000  0.70987600  1
  Sb  Sb1  1  0.36890400  0.87350000  0.37692200  1
  Sb  Sb2  1  0.36785300  0.87204800  0.04282000  1
  Sb  Sb3  1  0.12968700  0.36989000  0.95750800  1
  Sb  Sb4  1  0.13064300  0.36876900  0.62454400  1
  Sb  Sb5  1  0.13274500  0.37067700  0.29146400  1
  Sb  Sb6  1  0.87397600  0.12988900  0.78968200  1
  Sb  Sb7  1  0.87355700  0.13183600  0.45635600  1
  Te  Te0  1  0.87242300  0.13189000  0.12265300  1
  Te  Te1  1  0.63110200  0.63172900  0.87652800  1
  Te  Te2  1  0.63079900  0.63123300  0.54373500  1
  Te  Te3  1  0.62972400  0.63174300  0.21077900  1
  Te  Te4  1  0.62272900  0.12365000  0.95771300  1
  Te  Te5  1  0.62475600  0.12403000  0.62491600  1
  Te  Te6  1  0.62365500  0.12295600  0.29187200  1
  Te  Te7  1  0.87449800  0.62383900  0.70812400  1
  Te  Te8  1  0.87575100  0.62321300  0.37476900  1
  Te  Te9  1  0.87315200  0.62277800  0.04124900  1
  Te  Te10  1  0.12353600  0.87425800  0.87475400  1
  Te  Te11  1  0.12225300  0.87584500  0.54119800  1
  Te  Te12  1  0.12524700  0.87100400  0.20838200  1
  Te  Te13  1  0.37406500  0.37336700  0.79159500  1
  Te  Te14  1  0.37304300  0.37250100  0.45790500  1
  Te  Te15  1  0.37455500  0.37218100  0.12394100  1
  Pd  Pd0  1  0.00243100  0.49584000  0.83343400  1
  Pd  Pd1  1  0.00161400  0.49645700  0.50061100  1
  Pd  Pd2  1  0.00457500  0.49988700  0.16769400  1
  Pd  Pd3  1  0.50038900  0.00151000  0.83173800  1
  Pd  Pd4  1  0.50066600  0.00225500  0.49905500  1
  Pd  Pd5  1  0.49720200  0.00009500  0.16557300  1
  Pd  Pd6  1  0.49596300  0.50086100  0.66740100  1
  Pd  Pd7  1  0.49697700  0.50077100  0.33434500  1
  Pd  Pd8  1  0.49530600  0.50124200  0.00001400  1
  Pd  Pd9  1  0.00231400  0.00076400  0.99969600  1
  Pd  Pd10  1  0.00237800  0.00170000  0.66753000  1
  Pd  Pd11  1  0.00232200  0.00170300  0.33362700  1
loop_
_geom_bond_atom_site_label_1
_geom_bond_atom_site_label_2
_geom_bond_distance
_geom_bond_site_symmetry_2
Sb0 Te5 2.918203 1_565
Sb1 Te6 2.914325 1_565
Sb2 Te4 2.923661 1_564
Sb3 Te9 2.919456 1_456
Sb4 Te7 2.924564 1_455
Sb5 Te8 2.914918 1_455
Sb6 Te10 2.927844 1_645
Sb7 Te11 2.923274 1_645
Te0 Te12 2.968253 1_645
Te1 Te13 2.978248 1_555
Te14 Te2 2.992821 1_555
Te15 Te3 2.997807 1_555
Pd0 Te13 2.731620 1_555
Pd0 Sb6 2.738082 1_455
Pd0 Sb3 2.753909 1_555
Pd0 Te1 2.765276 1_455
Pd0 Te7 2.781709 1_455
Pd0 Te10 2.782822 1_555
Pd1 Sb7 2.732598 1_455
Pd1 Te14 2.738580 1_555
Pd1 Sb4 2.758624 1_555
Pd1 Te2 2.759990 1_455
Pd1 Te11 2.783415 1_555
Pd1 Te8 2.784523 1_455
Pd2 Te12 2.733904 1_555
Pd2 Te15 2.743980 1_555
Pd2 Sb5 2.756998 1_555
Pd2 Te0 2.766600 1_455
Pd2 Te3 2.777586 1_455
Pd2 Te9 2.799439 1_455
Pd3 Sb0 2.732288 1_545
Pd3 Te13 2.737022 1_555
Pd3 Sb6 2.759832 1_555
Pd3 Te1 2.762289 1_545
Pd3 Te4 2.777065 1_555
Pd3 Te10 2.782843 1_545
Pd4 Te14 2.735953 1_555
Pd4 Sb1 2.741224 1_545
Pd4 Sb7 2.762004 1_555
Pd4 Te2 2.767748 1_545
Pd4 Te5 2.777818 1_555
Pd4 Te11 2.785329 1_545
Pd5 Te15 2.739843 1_555
Pd5 Sb2 2.745583 1_545
Pd5 Te12 2.756032 1_545
Pd5 Te3 2.760339 1_545
Pd5 Te0 2.781952 1_555
Pd5 Te6 2.792762 1_555
Pd6 Sb4 2.737176 1_555
Pd6 Te13 2.738013 1_555
Pd6 Te2 2.760829 1_555
Pd6 Sb0 2.760950 1_555
Pd6 Te7 2.784375 1_555
Pd6 Te5 2.786794 1_555
Pd7 Sb5 2.726530 1_555
Pd7 Te14 2.732184 1_555
Pd7 Te3 2.755889 1_555
Pd7 Sb1 2.761235 1_555
Pd7 Te8 2.782971 1_555
Pd7 Te6 2.788418 1_555
Pd8 Te15 2.734237 1_555
Pd8 Sb3 2.735111 1_554
Pd8 Sb2 2.749850 1_555
Pd8 Te1 2.759919 1_554
Pd8 Te9 2.780434 1_555
Pd8 Te4 2.787510 1_554
Pd9 Sb2 2.726281 1_546
Pd9 Sb3 2.735700 1_555
Pd9 Te0 2.742765 1_456
Pd9 Te10 2.751612 1_545
Pd9 Te9 2.788954 1_446
Pd9 Te4 2.791859 1_455
Pd10 Sb6 2.719083 1_455
Pd10 Sb0 2.726776 1_545
Pd10 Sb4 2.730100 1_555
Pd10 Te11 2.772932 1_545
Pd10 Te7 2.780024 1_445
Pd10 Te5 2.782817 1_455
Pd11 Sb1 2.732547 1_545
Pd11 Sb7 2.734269 1_455
Pd11 Sb5 2.741025 1_555
Pd11 Te12 2.769088 1_545
Pd11 Te6 2.781763 1_455
Pd11 Te8 2.784318 1_445
