# generated using pymatgen
data_Rb6Nb6H14O27
_symmetry_space_group_name_H-M   'P 1'
_cell_length_a   9.78291082
_cell_length_b   10.61741711
_cell_length_c   17.22372698
_cell_angle_alpha   73.13637753
_cell_angle_beta   88.28082263
_cell_angle_gamma   65.09767593
_symmetry_Int_Tables_number   1
_chemical_formula_structural   Rb6Nb6H14O27
_chemical_formula_sum   'Rb12 Nb12 H28 O54'
_cell_volume   1544.13094888
_cell_formula_units_Z   2
loop_
 _symmetry_equiv_pos_site_id
 _symmetry_equiv_pos_as_xyz
  1  'x, y, z'
loop_
 _atom_site_type_symbol
 _atom_site_label
 _atom_site_symmetry_multiplicity
 _atom_site_fract_x
 _atom_site_fract_y
 _atom_site_fract_z
 _atom_site_occupancy
  Rb  Rb0  1  0.56909277  0.78119681  0.63836412  1
  Rb  Rb1  1  0.43140787  0.21771638  0.36504825  1
  Rb  Rb2  1  0.28342928  0.71816706  0.03530836  1
  Rb  Rb3  1  0.71954235  0.28068984  0.96643651  1
  Rb  Rb4  1  0.10975625  0.36190658  0.85218308  1
  Rb  Rb5  1  0.89230425  0.63714491  0.14901448  1
  Rb  Rb6  1  0.87266343  0.40349251  0.56154670  1
  Rb  Rb7  1  0.12773057  0.59643642  0.43558391  1
  Rb  Rb8  1  0.46124668  0.37714773  0.70695747  1
  Rb  Rb9  1  0.53496589  0.62010076  0.29284893  1
  Rb  Rb10  1  0.40214617  0.95609160  0.82447857  1
  Rb  Rb11  1  0.59855116  0.04209699  0.17550377  1
  Nb  Nb0  1  0.21253619  0.69783691  0.81465966  1
  Nb  Nb1  1  0.78829585  0.30304569  0.18477847  1
  Nb  Nb2  1  0.74534831  0.06564627  0.64800242  1
  Nb  Nb3  1  0.25482730  0.93510014  0.35255654  1
  Nb  Nb4  1  0.01221506  0.70344862  0.65435844  1
  Nb  Nb5  1  0.98767160  0.29669557  0.34559164  1
  Nb  Nb6  1  0.96012365  0.04521450  0.80380128  1
  Nb  Nb7  1  0.03970532  0.95375746  0.19609942  1
  Nb  Nb8  1  0.83242703  0.78579335  0.81785402  1
  Nb  Nb9  1  0.16824730  0.21258342  0.18141834  1
  Nb  Nb10  1  0.13720729  0.96586213  0.63881965  1
  Nb  Nb11  1  0.86161473  0.03544651  0.36073592  1
  H  H0  1  0.64050134  0.71664220  0.97672879  1
  H  H1  1  0.35851257  0.28314589  0.02293481  1
  H  H2  1  0.51048189  0.82301637  0.09210427  1
  H  H3  1  0.48987398  0.17712643  0.90783617  1
  H  H4  1  0.89917252  0.12768054  0.51538320  1
  H  H5  1  0.10049607  0.87183338  0.48431025  1
  H  H6  1  0.72846327  0.79311223  0.46558059  1
  H  H7  1  0.27221934  0.20529106  0.53536944  1
  H  H8  1  0.15620723  0.47193166  0.05476134  1
  H  H9  1  0.84300507  0.52505057  0.94527091  1
  H  H10  1  0.59928561  0.74289071  0.45805149  1
  H  H11  1  0.40040507  0.25702098  0.54240651  1
  H  H12  1  0.11379007  0.07345352  0.94608217  1
  H  H13  1  0.88582415  0.92684696  0.05343581  1
  H  H14  1  0.61312027  0.60756906  0.05635624  1
  H  H15  1  0.38871013  0.39177267  0.94394958  1
  H  H16  1  0.07028755  0.60378668  0.97361589  1
  H  H17  1  0.93142762  0.39656636  0.02744383  1
  H  H18  1  0.37222506  0.91835284  0.13516371  1
  H  H19  1  0.62765152  0.08163144  0.86465430  1
  H  H20  1  0.79180599  0.92212384  0.53203395  1
  H  H21  1  0.20845866  0.07780146  0.46828455  1
  H  H22  1  0.18945120  0.34439525  0.65659537  1
  H  H23  1  0.80997381  0.65509939  0.34282517  1
  H  H24  1  0.19206449  0.05998923  0.02924281  1
  H  H25  1  0.80753231  0.93965804  0.97058716  1
  H  H26  1  0.16182765  0.20743399  0.70578976  1
  H  H27  1  0.83861668  0.79152231  0.29433779  1
  O  O0  1  0.57728570  0.20544716  0.58039731  1
  O  O1  1  0.42277326  0.79521733  0.41934005  1
  O  O2  1  0.91223701  0.11010988  0.57594303  1
  O  O3  1  0.08744630  0.89070546  0.42356580  1
  O  O4  1  0.24392155  0.04153305  0.56628974  1
  O  O5  1  0.75630641  0.95870298  0.43327928  1
  O  O6  1  0.18936609  0.59509544  0.73675054  1
  O  O7  1  0.81111584  0.40518826  0.26313442  1
  O  O8  1  0.71783240  0.71608418  0.88808968  1
  O  O9  1  0.28101104  0.28075911  0.11055236  1
  O  O10  1  0.21704294  0.26737773  0.70924246  1
  O  O11  1  0.78110979  0.73389820  0.29080629  1
  O  O12  1  0.70259028  0.70911992  0.48560369  1
  O  O13  1  0.29664446  0.29027355  0.51569309  1
  O  O14  1  0.11600066  0.82470972  0.58662869  1
  O  O15  1  0.88380756  0.17562966  0.41289476  1
  O  O16  1  0.08155791  0.09570167  0.71007071  1
  O  O17  1  0.91836728  0.90555180  0.28957546  1
  O  O18  1  0.04508280  0.65794990  0.87006297  1
  O  O19  1  0.95700942  0.34203177  0.12986055  1
  O  O20  1  0.29341039  0.80760589  0.72238990  1
  O  O21  1  0.70466937  0.19360423  0.27703016  1
  O  O22  1  0.09616229  0.57872937  0.03332055  1
  O  O23  1  0.90920013  0.41975693  0.96751688  1
  O  O24  1  0.02982234  0.57834533  0.59831596  1
  O  O25  1  0.96784277  0.42085325  0.40227561  1
  O  O26  1  0.87677985  0.67081054  0.73866740  1
  O  O27  1  0.12426331  0.32934438  0.26152656  1
  O  O28  1  0.97607916  0.88648578  0.72236944  1
  O  O29  1  0.02474728  0.11365717  0.27779675  1
  O  O30  1  0.15047705  0.86783932  0.85723516  1
  O  O31  1  0.85133531  0.13095007  0.14288346  1
  O  O32  1  0.21355385  0.03836760  0.97677099  1
  O  O33  1  0.78607754  0.96042372  0.02331785  1
  O  O34  1  0.95508353  0.16185641  0.86344515  1
  O  O35  1  0.04654662  0.83564113  0.13668894  1
  O  O36  1  0.38305539  0.64175767  0.56018536  1
  O  O37  1  0.61816870  0.35541395  0.44232961  1
  O  O38  1  0.59251406  0.71146707  0.02909021  1
  O  O39  1  0.40681434  0.28849259  0.97066043  1
  O  O40  1  0.48106406  0.85060284  0.14253416  1
  O  O41  1  0.51872150  0.14911596  0.85748592  1
  O  O42  1  0.80598395  0.89276135  0.59325585  1
  O  O43  1  0.19423654  0.10725696  0.40702928  1
  O  O44  1  0.66682701  0.95127040  0.73033210  1
  O  O45  1  0.33348737  0.04863675  0.26981642  1
  O  O46  1  0.83477320  0.94343014  0.86158942  1
  O  O47  1  0.16552870  0.05473093  0.13838987  1
  O  O48  1  0.38086199  0.55903637  0.88366597  1
  O  O49  1  0.62515461  0.44101370  0.11499705  1
  O  O50  1  0.77579089  0.17022214  0.71634788  1
  O  O51  1  0.22432226  0.83108995  0.28312584  1
  O  O52  1  0.61848676  0.55623222  0.82582393  1
  O  O53  1  0.24230176  0.54574789  0.27752324  1
loop_
_geom_bond_atom_site_label_1
_geom_bond_atom_site_label_2
_geom_bond_distance
_geom_bond_site_symmetry_2
Nb0 O48 1.831289 1_555
Nb0 O30 1.995667 1_555
Nb0 O18 2.007379 1_555
Nb0 O6 2.029224 1_555
Nb0 O20 2.033815 1_555
Nb0 O28 2.522131 1_455
Nb1 O49 1.806191 1_555
Nb1 O31 2.007241 1_555
Nb1 O19 2.011155 1_555
Nb1 O7 2.029400 1_555
Nb1 O21 2.048303 1_555
Nb1 O29 2.529248 1_655
Nb2 O0 1.821857 1_555
Nb2 O50 1.940379 1_555
Nb2 O44 1.948517 1_545
Nb2 O2 2.148582 1_555
Nb2 O42 2.159651 1_545
Nb2 O28 2.344787 1_545
Nb3 O1 1.815377 1_555
Nb3 O45 1.948051 1_565
Nb3 O51 1.950334 1_555
Nb3 O3 2.143523 1_555
Nb3 O43 2.149855 1_565
Nb3 O29 2.341464 1_565
Nb4 O24 1.807466 1_555
Nb4 O6 1.965232 1_555
Nb4 O26 1.990849 1_455
Nb4 O14 2.051278 1_555
Nb4 O42 2.168674 1_455
Nb4 O28 2.447707 1_455
Nb5 O25 1.802371 1_555
Nb5 O7 1.962070 1_555
Nb5 O27 1.996251 1_655
Nb5 O15 2.047734 1_555
Nb5 O43 2.172428 1_655
Nb5 O29 2.443235 1_655
Nb6 O34 1.809738 1_555
Nb6 O30 2.001331 1_645
Nb6 O46 2.020170 1_545
Nb6 O16 2.055242 1_655
Nb6 O50 2.066355 1_555
Nb6 O28 2.443046 1_545
Nb7 O35 1.814952 1_555
Nb7 O31 1.989138 1_465
Nb7 O47 2.017957 1_565
Nb7 O17 2.044999 1_455
Nb7 O51 2.062481 1_555
Nb7 O29 2.459298 1_565
Nb8 O8 1.834646 1_555
Nb8 O18 2.001269 1_655
Nb8 O26 2.005819 1_555
Nb8 O46 2.033249 1_555
Nb8 O44 2.048583 1_555
Nb8 O28 2.434980 1_555
Nb9 O9 1.819284 1_555
Nb9 O19 1.989516 1_455
Nb9 O47 2.029347 1_555
Nb9 O27 2.033054 1_555
Nb9 O45 2.049788 1_555
Nb9 O29 2.433090 1_555
Nb10 O4 1.828048 1_565
Nb10 O20 1.948518 1_555
Nb10 O16 2.003069 1_565
Nb10 O14 2.037592 1_555
Nb10 O2 2.168943 1_465
Nb10 O28 2.354748 1_455
Nb11 O5 1.823586 1_545
Nb11 O21 1.952613 1_555
Nb11 O17 2.001890 1_545
Nb11 O15 2.032020 1_555
Nb11 O3 2.175559 1_645
Nb11 O29 2.359697 1_655
H0 O38 1.002160 1_556
H1 O39 1.002280 1_554
H1 O9 1.666799 1_555
H2 O40 0.992311 1_555
H2 Rb2 3.158279 1_555
H3 O41 0.992184 1_555
H4 O2 1.007048 1_555
H4 O15 1.681635 1_555
H5 O3 1.007928 1_555
H5 O14 1.679170 1_555
H6 O12 0.992317 1_555
H7 O13 0.992663 1_555
H8 O22 0.988092 1_555
H9 O23 0.986235 1_555
H10 O12 1.000003 1_555
H10 O1 1.667728 1_555
H11 O13 0.999350 1_555
H11 O0 1.668655 1_555
H12 O32 0.990571 1_555
H12 Rb4 3.004189 1_555
H13 O33 0.989197 1_555
H13 Rb5 3.013197 1_555
H14 O38 0.997954 1_555
H14 Rb2 2.923483 1_555
H15 O39 0.997055 1_555
H15 Rb3 2.934543 1_555
H16 O22 0.996246 1_556
H16 O18 1.698383 1_555
H17 O23 0.997097 1_554
H17 O19 1.679714 1_555
H18 O40 0.988629 1_555
H19 O41 0.988835 1_555
H20 O42 1.004971 1_555
H20 O5 1.644132 1_555
H21 O43 1.005490 1_555
H21 O4 1.632035 1_555
H22 O10 0.981010 1_555
H22 Rb8 3.005903 1_555
H23 O11 0.981715 1_555
H23 Rb9 3.046901 1_555
H24 O32 0.990964 1_554
H25 O33 0.991613 1_556
H26 O10 1.006870 1_555
H26 O16 1.661239 1_555
H26 Rb10 2.944050 1_545
H27 O11 1.004010 1_555
H27 O17 1.677866 1_555
H27 Rb11 2.941111 1_565
O0 Rb8 3.126992 1_555
O1 Rb9 3.145833 1_555
O2 Rb6 2.907994 1_555
O3 Rb7 2.924486 1_555
O4 Rb0 3.184654 1_545
O5 Rb1 3.167706 1_565
O6 Rb8 2.848917 1_555
O6 Rb4 3.060115 1_555
O7 Rb9 2.858362 1_555
O7 Rb5 3.050357 1_555
O8 Rb10 3.031073 1_555
O9 Rb11 3.042591 1_555
O10 Rb4 2.926035 1_555
O10 Rb8 3.062659 1_555
O10 Rb10 3.084067 1_545
O11 Rb5 2.925399 1_555
O11 Rb11 3.059770 1_565
O11 Rb9 3.111265 1_555
O12 Rb6 2.851359 1_555
O12 Rb0 3.055214 1_555
O13 Rb7 2.865675 1_555
O13 Rb1 3.027049 1_555
O18 Rb4 3.041397 1_555
O19 Rb5 3.040432 1_555
O20 Rb0 2.968365 1_555
O20 Rb10 3.137148 1_555
O21 Rb1 2.985958 1_555
O21 Rb11 3.141740 1_555
O22 Rb5 2.787422 1_455
O22 Rb2 2.804731 1_555
O23 Rb4 2.762619 1_655
O23 Rb3 2.819247 1_555
O24 Rb7 2.914070 1_555
O24 Rb6 3.058712 1_455
O25 Rb6 2.850309 1_555
O25 Rb7 3.062870 1_655
O26 Rb0 3.095976 1_555
O26 Rb4 3.166375 1_655
O27 Rb1 3.115897 1_555
O27 Rb5 3.151044 1_455
O30 Rb10 2.968293 1_555
O30 Rb2 3.048759 1_556
O31 Rb11 2.982452 1_555
O31 Rb3 3.021839 1_554
O32 Rb2 3.022798 1_546
O32 Rb4 3.217530 1_555
O32 Rb10 3.275544 1_545
O33 Rb3 3.031119 1_564
O33 Rb5 3.219939 1_555
O33 Rb11 3.267844 1_565
O34 Rb3 2.941632 1_555
O34 Rb4 3.047729 1_655
O35 Rb2 2.926044 1_555
O35 Rb5 3.027030 1_455
O36 Rb8 3.009056 1_555
O36 Rb0 3.300017 1_555
O37 Rb9 3.031560 1_555
O37 Rb1 3.282046 1_555
O38 Rb2 2.993899 1_555
O38 Rb5 3.310501 1_555
O39 Rb3 3.024685 1_555
O39 Rb4 3.277564 1_555
O40 Rb9 2.879116 1_555
O40 Rb11 2.907628 1_565
O41 Rb8 2.863378 1_555
O41 Rb10 2.916700 1_545
O42 Rb0 3.007869 1_555
O43 Rb1 2.996774 1_555
O44 Rb10 3.003562 1_555
O44 Rb0 3.144588 1_555
O45 Rb11 3.004789 1_555
O45 Rb1 3.175168 1_555
O48 Rb2 3.411683 1_556
O49 Rb3 3.370327 1_554
O49 Rb2 3.371434 1_555
O50 Rb8 2.907277 1_555
O51 Rb9 2.891636 1_555
O52 Rb3 2.999803 1_555
O52 Rb0 3.318237 1_555
O53 Rb7 3.019326 1_555
O53 Rb1 3.085489 1_555
O53 Rb9 3.310584 1_555
