# generated using pymatgen
data_Ba2CaV2(Si2O7)2
_symmetry_space_group_name_H-M   'P 1'
_cell_length_a   5.93955217
_cell_length_b   7.29894467
_cell_length_c   8.65119907
_cell_angle_alpha   98.39632873
_cell_angle_beta   114.57740955
_cell_angle_gamma   77.54349553
_symmetry_Int_Tables_number   1
_chemical_formula_structural   Ba2CaV2(Si2O7)2
_chemical_formula_sum   'Ba2 Ca1 V2 Si4 O14'
_cell_volume   332.37225549
_cell_formula_units_Z   1
loop_
 _symmetry_equiv_pos_site_id
 _symmetry_equiv_pos_as_xyz
  1  'x, y, z'
loop_
 _atom_site_type_symbol
 _atom_site_label
 _atom_site_symmetry_multiplicity
 _atom_site_fract_x
 _atom_site_fract_y
 _atom_site_fract_z
 _atom_site_occupancy
  Ba  Ba0  1  0.78633600  0.75423500  0.57595000  1
  Ba  Ba1  1  0.28800500  0.24381700  0.42938500  1
  Ca  Ca0  1  0.10813700  0.96640900  0.03345100  1
  V  V0  1  0.06119500  0.60176100  0.16615200  1
  V  V1  1  0.99348700  0.36739600  0.84534300  1
  Si  Si0  1  0.42551700  0.51881200  0.80870800  1
  Si  Si1  1  0.63859100  0.46011600  0.21562100  1
  Si  Si2  1  0.35061200  0.96952000  0.78533300  1
  Si  Si3  1  0.69208300  0.01793800  0.18932400  1
  O  O0  1  0.17545400  0.42046200  0.71122800  1
  O  O1  1  0.43120200  0.55523700  0.29563100  1
  O  O2  1  0.06786900  0.07306800  0.77126200  1
  O  O3  1  0.51223700  0.95824600  0.26407800  1
  O  O4  1  0.54233700  0.48853600  0.01281700  1
  O  O5  1  0.55295600  0.02315100  0.97903300  1
  O  O6  1  0.98412700  0.65606000  0.94313400  1
  O  O7  1  0.08848600  0.31387200  0.07267400  1
  O  O8  1  0.32586100  0.74477000  0.78070500  1
  O  O9  1  0.73490700  0.23778600  0.26193000  1
  O  O10  1  0.62396700  0.43017100  0.71979300  1
  O  O11  1  0.89236000  0.55483500  0.31318300  1
  O  O12  1  0.44970200  0.99424800  0.64609500  1
  O  O13  1  0.97557400  0.89955400  0.23385700  1
loop_
_geom_bond_atom_site_label_1
_geom_bond_atom_site_label_2
_geom_bond_distance
_geom_bond_site_symmetry_2
Ba0 O12 2.573482 1_555
Ba0 O11 2.740743 1_555
Ba0 O1 2.911688 1_555
Ba0 O3 2.936144 1_555
Ba0 O8 2.937673 1_655
Ba0 O0 2.966466 1_655
Ba0 O6 3.030113 1_555
Ba0 O2 3.040868 1_665
Ba0 O10 3.303842 1_555
Ba1 O12 2.549567 1_545
Ba1 O3 2.771256 1_545
Ba1 O11 2.843632 1_455
Ba1 O0 2.849639 1_555
Ba1 O10 2.854226 1_555
Ba1 O7 2.889012 1_555
Ba1 O9 2.996290 1_455
Ba1 O1 3.106422 1_555
Ba1 O13 3.282989 1_445
Ca0 O13 2.326440 1_455
Ca0 O3 2.394717 1_555
Ca0 O2 2.406721 1_564
Ca0 O6 2.451205 1_454
Ca0 O7 2.492903 1_565
O0 Si0 1.635156 1_555
O0 V1 2.004824 1_455
O1 Si1 1.636595 1_555
O1 V0 1.985244 1_555
O2 Si2 1.647900 1_545
O2 V1 2.155239 1_455
O3 Si3 1.614570 1_565
O4 Si1 1.633670 1_555
O4 Si0 1.636126 1_554
O5 Si2 1.655843 1_545
O5 Si3 1.658354 1_556
O6 V0 1.870689 1_656
O6 V1 2.150829 1_555
O7 V1 1.882827 1_454
O7 V0 2.135769 1_555
O8 Si0 1.644797 1_555
O8 Si2 1.671589 1_555
O9 Si1 1.649211 1_555
O9 Si3 1.668229 1_555
O10 Si0 1.636927 1_555
O10 V1 1.983746 1_555
O11 Si1 1.638015 1_555
O11 V0 2.019251 1_655
O12 Si2 1.590292 1_555
O13 Si3 1.631015 1_565
O13 V0 2.173765 1_655
