# generated using pymatgen
data_CoAg2Sn3S8
_symmetry_space_group_name_H-M   'P 1'
_cell_length_a   7.38804655
_cell_length_b   7.38804655
_cell_length_c   7.38804637
_cell_angle_alpha   61.34774030
_cell_angle_beta   61.34774030
_cell_angle_gamma   61.34774693
_symmetry_Int_Tables_number   1
_chemical_formula_structural   CoAg2Sn3S8
_chemical_formula_sum   'Co1 Ag2 Sn3 S8'
_cell_volume   293.78623570
_cell_formula_units_Z   1
loop_
 _symmetry_equiv_pos_site_id
 _symmetry_equiv_pos_as_xyz
  1  'x, y, z'
loop_
 _atom_site_type_symbol
 _atom_site_label
 _atom_site_symmetry_multiplicity
 _atom_site_fract_x
 _atom_site_fract_y
 _atom_site_fract_z
 _atom_site_occupancy
  Co  Co0  1  0.00000000  0.00000000  -0.00000000  1
  Ag  Ag0  1  0.39284254  0.39284254  0.39284254  1
  Ag  Ag1  1  0.60715746  0.60715746  0.60715746  1
  Sn  Sn0  1  0.00000000  0.50000000  -0.00000000  1
  Sn  Sn1  1  0.00000000  0.00000000  0.50000000  1
  Sn  Sn2  1  0.50000000  0.00000000  -0.00000000  1
  S  S0  1  0.77341126  0.21146675  0.77341126  1
  S  S1  1  0.75265342  0.75265342  0.75265342  1
  S  S2  1  0.78853325  0.22658874  0.22658874  1
  S  S3  1  0.22658874  0.22658874  0.78853325  1
  S  S4  1  0.22658874  0.78853325  0.22658874  1
  S  S5  1  0.24734658  0.24734658  0.24734658  1
  S  S6  1  0.21146675  0.77341126  0.77341126  1
  S  S7  1  0.77341126  0.77341126  0.21146675  1
loop_
_geom_bond_atom_site_label_1
_geom_bond_atom_site_label_2
_geom_bond_distance
_geom_bond_site_symmetry_2
Co0 S7 2.391016 1_445
Co0 S3 2.391016 1_554
Co0 S6 2.391016 1_544
Co0 S0 2.391016 1_454
Co0 S2 2.391016 1_455
Co0 S4 2.391016 1_545
Ag0 S3 2.474550 1_555
Ag0 S4 2.474551 1_555
Ag0 S2 2.474551 1_555
Ag0 S5 2.605894 1_555
Ag1 S7 2.474550 1_555
Ag1 S0 2.474551 1_555
Ag1 S6 2.474551 1_555
Ag1 S1 2.605894 1_555
S0 Sn2 2.568860 1_556
S0 Sn1 2.568860 1_655
S1 Sn1 2.612130 1_665
S1 Sn0 2.612130 1_656
S1 Sn2 2.612130 1_566
S2 Sn0 2.568860 1_655
S2 Sn1 2.568860 1_655
S3 Sn0 2.568860 1_556
S3 Sn2 2.568860 1_556
S4 Sn2 2.568860 1_565
S4 Sn1 2.568860 1_565
S5 Sn1 2.612130 1_555
S5 Sn2 2.612130 1_555
S5 Sn0 2.612130 1_555
S6 Sn0 2.568860 1_556
S6 Sn1 2.568860 1_565
S7 Sn2 2.568860 1_565
S7 Sn0 2.568860 1_655
