# generated using pymatgen
data_KMg14Co
_symmetry_space_group_name_H-M   'P 1'
_cell_length_a   6.36562334
_cell_length_b   6.36562334
_cell_length_c   10.60343200
_cell_angle_alpha   90.00000000
_cell_angle_beta   90.00000000
_cell_angle_gamma   118.69259562
_symmetry_Int_Tables_number   1
_chemical_formula_structural   KMg14Co
_chemical_formula_sum   'K1 Mg14 Co1'
_cell_volume   376.90423829
_cell_formula_units_Z   1
loop_
 _symmetry_equiv_pos_site_id
 _symmetry_equiv_pos_as_xyz
  1  'x, y, z'
loop_
 _atom_site_type_symbol
 _atom_site_label
 _atom_site_symmetry_multiplicity
 _atom_site_fract_x
 _atom_site_fract_y
 _atom_site_fract_z
 _atom_site_occupancy
  K  K0  1  0.16878700  0.83121300  0.00000000  1
  Mg  Mg0  1  0.66721400  0.33278600  0.50000000  1
  Mg  Mg1  1  0.16405200  0.83594800  0.50000000  1
  Mg  Mg2  1  0.66322300  0.82339100  0.00000000  1
  Mg  Mg3  1  0.67121000  0.83790800  0.50000000  1
  Mg  Mg4  1  0.17660900  0.33677700  0.00000000  1
  Mg  Mg5  1  0.16209200  0.32879000  0.50000000  1
  Mg  Mg6  1  0.82156300  0.65201100  0.24745600  1
  Mg  Mg7  1  0.82156300  0.65201100  0.75254400  1
  Mg  Mg8  1  0.34798900  0.17843700  0.24745600  1
  Mg  Mg9  1  0.34798900  0.17843700  0.75254400  1
  Mg  Mg10  1  0.82774700  0.17225300  0.22969500  1
  Mg  Mg11  1  0.82774700  0.17225300  0.77030500  1
  Mg  Mg12  1  0.33705100  0.66294900  0.26407300  1
  Mg  Mg13  1  0.33705100  0.66294900  0.73592700  1
  Co  Co0  1  0.65812000  0.34188000  0.00000000  1
loop_
_geom_bond_atom_site_label_1
_geom_bond_atom_site_label_2
_geom_bond_distance
_geom_bond_site_symmetry_2
K0 Mg4 3.171600 1_555
K0 Mg2 3.171600 1_555
K0 Mg2 3.194623 1_455
K0 Mg4 3.194623 1_565
K0 Mg8 3.263493 1_565
K0 Mg6 3.263493 1_455
K0 Mg9 3.263493 1_564
K0 Mg7 3.263493 1_454
K0 Mg13 3.352105 1_554
K0 Mg12 3.352105 1_555
Mg0 Mg5 3.162498 1_655
Mg0 Mg3 3.162498 1_545
Mg0 Mg5 3.203282 1_555
Mg0 Mg3 3.203282 1_555
Mg0 Mg6 3.216878 1_555
Mg0 Mg7 3.216878 1_555
Mg0 Mg8 3.216878 1_555
Mg0 Mg9 3.216878 1_555
Mg0 Mg1 3.245685 1_545
Mg0 Mg1 3.245685 1_655
Mg0 Mg10 3.362459 1_555
Mg0 Mg11 3.362459 1_555
Mg1 Mg12 3.138180 1_555
Mg1 Mg13 3.138180 1_555
Mg1 Mg3 3.143256 1_455
Mg1 Mg5 3.143256 1_565
Mg1 Mg3 3.222405 1_555
Mg1 Mg5 3.222405 1_555
Mg1 Mg7 3.292973 1_455
Mg1 Mg9 3.292973 1_565
Mg1 Mg8 3.292973 1_565
Mg1 Mg6 3.292973 1_455
Mg2 Mg4 3.158611 1_555
Mg2 Mg7 3.185388 1_554
Mg2 Mg6 3.185388 1_555
Mg2 Mg4 3.332389 1_665
Mg3 Mg5 3.186315 1_665
Mg3 Mg6 3.251869 1_555
Mg3 Mg7 3.251869 1_555
Mg3 Mg5 3.304685 1_555
Mg4 Mg9 3.185388 1_554
Mg4 Mg8 3.185388 1_555
Mg5 Mg9 3.251869 1_555
Mg5 Mg8 3.251869 1_555
Mg6 Mg8 3.073969 1_555
Mg6 Mg8 3.417031 1_665
Mg7 Mg9 3.073969 1_555
Mg7 Mg9 3.417031 1_665
Mg10 Mg6 3.078818 1_555
Mg10 Mg8 3.078818 1_555
Mg10 Mg4 3.118836 1_655
Mg10 Mg2 3.118836 1_545
Mg10 Mg12 3.267496 1_655
Mg10 Mg12 3.267496 1_545
Mg10 Mg6 3.298327 1_545
Mg10 Mg8 3.298327 1_655
Mg10 Mg5 3.420689 1_655
Mg10 Mg3 3.420689 1_545
Mg11 Mg7 3.078818 1_555
Mg11 Mg9 3.078818 1_555
Mg11 Mg4 3.118836 1_656
Mg11 Mg2 3.118836 1_546
Mg11 Mg13 3.267496 1_655
Mg11 Mg13 3.267496 1_545
Mg11 Mg7 3.298327 1_545
Mg11 Mg9 3.298327 1_655
Mg11 Mg5 3.420689 1_655
Mg11 Mg3 3.420689 1_545
Mg12 Mg5 3.122251 1_555
Mg12 Mg3 3.122251 1_555
Mg12 Mg8 3.123222 1_555
Mg12 Mg6 3.123222 1_555
Mg12 Mg8 3.253323 1_565
Mg12 Mg6 3.253323 1_455
Mg12 Mg2 3.340406 1_555
Mg12 Mg4 3.340406 1_555
Mg13 Mg5 3.122251 1_555
Mg13 Mg3 3.122251 1_555
Mg13 Mg9 3.123222 1_555
Mg13 Mg7 3.123222 1_555
Mg13 Mg7 3.253323 1_455
Mg13 Mg9 3.253323 1_565
Mg13 Mg4 3.340406 1_556
Mg13 Mg2 3.340406 1_556
Co0 Mg4 3.049655 1_555
Co0 Mg2 3.049655 1_555
Co0 Mg11 3.063223 1_554
Co0 Mg10 3.063223 1_555
Co0 Mg7 3.145210 1_554
Co0 Mg6 3.145210 1_555
Co0 Mg9 3.145210 1_554
Co0 Mg8 3.145210 1_555
Co0 K0 3.247602 1_655
Co0 K0 3.247602 1_545
Co0 Mg2 3.316224 1_545
Co0 Mg4 3.316224 1_655
