# generated using pymatgen
data_LaBeAl3
_symmetry_space_group_name_H-M   'P 1'
_cell_length_a   6.17859626
_cell_length_b   6.17859626
_cell_length_c   6.17859626
_cell_angle_alpha   139.59346190
_cell_angle_beta   139.59346190
_cell_angle_gamma   58.47109197
_symmetry_Int_Tables_number   1
_chemical_formula_structural   LaBeAl3
_chemical_formula_sum   'La1 Be1 Al3'
_cell_volume   98.19232400
_cell_formula_units_Z   1
loop_
 _symmetry_equiv_pos_site_id
 _symmetry_equiv_pos_as_xyz
  1  'x, y, z'
loop_
 _atom_site_type_symbol
 _atom_site_label
 _atom_site_symmetry_multiplicity
 _atom_site_fract_x
 _atom_site_fract_y
 _atom_site_fract_z
 _atom_site_occupancy
  La  La0  1  0.00000000  0.00000000  0.00000000  1
  Be  Be0  1  0.25000000  0.75000000  0.50000000  1
  Al  Al0  1  0.75000000  0.25000000  0.50000000  1
  Al  Al1  1  0.62004400  0.62004400  0.00000000  1
  Al  Al2  1  0.37995600  0.37995600  0.00000000  1
loop_
_geom_bond_atom_site_label_1
_geom_bond_atom_site_label_2
_geom_bond_distance
_geom_bond_site_symmetry_2
Be0 La0 3.438065 1_555
Be0 La0 3.438065 1_565
Be0 La0 3.438065 1_566
Be0 La0 3.438065 1_666
Al0 Al1 2.552800 1_556
Al0 Al2 2.552800 1_656
Al0 Al1 2.552800 1_545
Al0 Al2 2.552800 1_555
Al0 La0 3.438065 1_666
Al0 La0 3.438065 1_555
Al0 La0 3.438065 1_655
Al0 La0 3.438065 1_656
Al1 Be0 2.552800 1_554
Al1 Be0 2.552800 1_655
Al1 Al2 2.588899 1_555
Al1 La0 3.283551 1_666
Al1 La0 3.283551 1_554
Al1 La0 3.283551 1_565
Al1 La0 3.283551 1_655
Al2 Be0 2.552800 1_544
Al2 Be0 2.552800 1_555
Al2 La0 3.283551 1_655
Al2 La0 3.283551 1_666
Al2 La0 3.283551 1_554
Al2 La0 3.283551 1_565
