# generated using pymatgen
data_Sb2Pd
_symmetry_space_group_name_H-M   'P 1'
_cell_length_a   6.52129187
_cell_length_b   6.52129187
_cell_length_c   6.52129187
_cell_angle_alpha   90.00000000
_cell_angle_beta   90.00000000
_cell_angle_gamma   90.00000000
_symmetry_Int_Tables_number   1
_chemical_formula_structural   Sb2Pd
_chemical_formula_sum   'Sb8 Pd4'
_cell_volume   277.33259438
_cell_formula_units_Z   4
loop_
 _symmetry_equiv_pos_site_id
 _symmetry_equiv_pos_as_xyz
  1  'x, y, z'
loop_
 _atom_site_type_symbol
 _atom_site_label
 _atom_site_symmetry_multiplicity
 _atom_site_fract_x
 _atom_site_fract_y
 _atom_site_fract_z
 _atom_site_occupancy
  Sb  Sb0  1  0.37381026  0.37381026  0.37381026  1
  Sb  Sb1  1  0.12618974  0.62618974  0.87381026  1
  Sb  Sb2  1  0.87381026  0.12618974  0.62618974  1
  Sb  Sb3  1  0.62618974  0.87381026  0.12618974  1
  Sb  Sb4  1  0.62618974  0.62618974  0.62618974  1
  Sb  Sb5  1  0.87381026  0.37381026  0.12618974  1
  Sb  Sb6  1  0.12618974  0.87381026  0.37381026  1
  Sb  Sb7  1  0.37381026  0.12618974  0.87381026  1
  Pd  Pd0  1  0.00000000  0.00000000  -0.00000000  1
  Pd  Pd1  1  0.50000000  0.00000000  0.50000000  1
  Pd  Pd2  1  0.50000000  0.50000000  -0.00000000  1
  Pd  Pd3  1  0.00000000  0.50000000  0.50000000  1
loop_
_geom_bond_atom_site_label_1
_geom_bond_atom_site_label_2
_geom_bond_distance
_geom_bond_site_symmetry_2
Sb0 Sb4 2.850679 1_555
Sb1 Sb5 2.850679 1_456
Sb2 Sb6 2.850679 1_645
Sb3 Sb7 2.850679 1_564
Pd0 Sb2 2.701278 1_454
Pd0 Sb3 2.701278 1_445
Pd0 Sb1 2.701278 1_544
Pd0 Sb7 2.701278 1_554
Pd0 Sb5 2.701278 1_455
Pd0 Sb6 2.701278 1_545
Pd1 Sb4 2.701278 1_545
Pd1 Sb3 2.701278 1_545
Pd1 Sb0 2.701278 1_555
Pd1 Sb6 2.701278 1_545
Pd1 Sb7 2.701278 1_555
Pd1 Sb2 2.701278 1_555
Pd2 Sb7 2.701278 1_554
Pd2 Sb0 2.701278 1_555
Pd2 Sb4 2.701278 1_554
Pd2 Sb1 2.701278 1_554
Pd2 Sb3 2.701278 1_555
Pd2 Sb5 2.701278 1_555
Pd3 Sb4 2.701278 1_455
Pd3 Sb5 2.701278 1_455
Pd3 Sb2 2.701278 1_455
Pd3 Sb0 2.701278 1_555
Pd3 Sb6 2.701278 1_555
Pd3 Sb1 2.701278 1_555
