# generated using pymatgen
data_Nd3Rh2
_symmetry_space_group_name_H-M   'P 1'
_cell_length_a   7.57572642
_cell_length_b   7.57578950
_cell_length_c   7.57565046
_cell_angle_alpha   71.66544540
_cell_angle_beta   71.66462932
_cell_angle_gamma   71.66539074
_symmetry_Int_Tables_number   1
_chemical_formula_structural   Nd3Rh2
_chemical_formula_sum   'Nd9 Rh6'
_cell_volume   380.37721685
_cell_formula_units_Z   3
loop_
 _symmetry_equiv_pos_site_id
 _symmetry_equiv_pos_as_xyz
  1  'x, y, z'
loop_
 _atom_site_type_symbol
 _atom_site_label
 _atom_site_symmetry_multiplicity
 _atom_site_fract_x
 _atom_site_fract_y
 _atom_site_fract_z
 _atom_site_occupancy
  Nd  Nd0  1  0.00001201  0.00000203  -0.00001424  1
  Nd  Nd1  1  0.79634088  0.79633398  0.79631318  1
  Nd  Nd2  1  0.20366694  0.20365584  0.20368859  1
  Nd  Nd3  1  0.39029428  0.16343238  0.66709697  1
  Nd  Nd4  1  0.16343299  0.66711391  0.39031722  1
  Nd  Nd5  1  0.66709740  0.39030430  0.16343528  1
  Nd  Nd6  1  0.60967788  0.83656605  0.33291553  1
  Nd  Nd7  1  0.83657778  0.33288409  0.60969533  1
  Nd  Nd8  1  0.33289162  0.60971164  0.83655482  1
  Rh  Rh0  1  0.16200486  0.95687584  0.58992659  1
  Rh  Rh1  1  0.95688248  0.58993328  0.16199388  1
  Rh  Rh2  1  0.58993347  0.16199030  0.95687509  1
  Rh  Rh3  1  0.83800290  0.04311909  0.41008460  1
  Rh  Rh4  1  0.04312694  0.41006373  0.83799525  1
  Rh  Rh5  1  0.41005756  0.83801154  0.04312091  1
loop_
_geom_bond_atom_site_label_1
_geom_bond_atom_site_label_2
_geom_bond_distance
_geom_bond_site_symmetry_2
Nd0 Rh5 3.041462 1_545
Nd0 Rh0 3.041490 1_544
Nd0 Rh4 3.041548 1_554
Nd0 Rh2 3.041637 1_454
Nd0 Rh1 3.041637 1_445
Nd0 Rh3 3.041754 1_455
Nd0 Nd2 3.411081 1_555
Nd0 Nd1 3.411082 1_444
Nd0 Nd3 3.504581 1_554
Nd0 Nd8 3.504636 1_544
Nd0 Nd7 3.504652 1_454
Nd0 Nd5 3.504847 1_455
Nd0 Nd4 3.504855 1_545
Nd0 Nd6 3.504991 1_445
Nd1 Rh3 2.916293 1_565
Nd1 Rh4 2.916578 1_655
Nd1 Rh5 2.916661 1_556
Nd1 Rh0 3.129845 1_655
Nd1 Rh2 3.129907 1_565
Nd1 Rh1 3.129969 1_556
Nd2 Rh0 2.916334 1_545
Nd2 Rh2 2.916580 1_554
Nd2 Rh1 2.916615 1_455
Nd2 Rh3 3.129833 1_455
Nd2 Rh5 3.129840 1_545
Nd2 Rh4 3.130049 1_554
Nd3 Rh4 2.893491 1_555
Nd3 Rh0 2.948860 1_545
Nd3 Rh2 3.028212 1_555
Nd3 Rh5 3.135724 1_546
Nd3 Rh3 3.337996 1_555
Nd4 Rh5 2.893569 1_555
Nd4 Rh1 2.949066 1_455
Nd4 Rh0 3.027990 1_555
Nd4 Rh3 3.135685 1_465
Nd4 Rh4 3.337917 1_555
Nd5 Rh3 2.893684 1_555
Nd5 Rh2 2.948999 1_554
Nd5 Rh1 3.028219 1_555
Nd5 Rh4 3.135787 1_654
Nd5 Rh5 3.338121 1_555
Nd6 Rh1 2.893721 1_555
Nd6 Rh3 2.949054 1_565
Nd6 Rh5 3.028208 1_555
Nd6 Rh2 3.135809 1_564
Nd6 Rh0 3.337787 1_555
Nd7 Rh2 2.893562 1_555
Nd7 Rh4 2.948909 1_655
Nd7 Rh3 3.028026 1_555
Nd7 Rh0 3.135690 1_645
Nd7 Rh1 3.338046 1_555
Nd8 Rh0 2.893462 1_555
Nd8 Rh5 2.948955 1_556
Nd8 Rh4 3.028190 1_555
Nd8 Rh1 3.135691 1_456
Nd8 Rh2 3.338212 1_555
Rh0 Rh3 2.973702 1_465
Rh1 Rh4 2.973786 1_654
Rh2 Rh5 2.973719 1_546
