# generated using pymatgen
data_LiMg6Bi
_symmetry_space_group_name_H-M   'P 1'
_cell_length_a   5.28058000
_cell_length_b   6.28645400
_cell_length_c   11.26933400
_cell_angle_alpha   90.00000000
_cell_angle_beta   90.00000000
_cell_angle_gamma   90.00000000
_symmetry_Int_Tables_number   1
_chemical_formula_structural   LiMg6Bi
_chemical_formula_sum   'Li2 Mg12 Bi2'
_cell_volume   374.09820056
_cell_formula_units_Z   2
loop_
 _symmetry_equiv_pos_site_id
 _symmetry_equiv_pos_as_xyz
  1  'x, y, z'
loop_
 _atom_site_type_symbol
 _atom_site_label
 _atom_site_symmetry_multiplicity
 _atom_site_fract_x
 _atom_site_fract_y
 _atom_site_fract_z
 _atom_site_occupancy
  Li  Li0  1  0.50000000  0.00000000  0.16695900  1
  Li  Li1  1  0.50000000  0.50000000  0.66695900  1
  Mg  Mg0  1  0.50000000  0.24898100  0.41639000  1
  Mg  Mg1  1  0.50000000  0.75101900  0.41639000  1
  Mg  Mg2  1  0.00000000  0.75740800  0.08177300  1
  Mg  Mg3  1  0.00000000  0.24259200  0.08177300  1
  Mg  Mg4  1  0.00000000  0.00000000  0.33249900  1
  Mg  Mg5  1  0.00000000  0.50000000  0.33757300  1
  Mg  Mg6  1  0.50000000  0.74898100  0.91639000  1
  Mg  Mg7  1  0.50000000  0.25101900  0.91639000  1
  Mg  Mg8  1  0.00000000  0.25740800  0.58177300  1
  Mg  Mg9  1  0.00000000  0.74259200  0.58177300  1
  Mg  Mg10  1  0.00000000  0.50000000  0.83249900  1
  Mg  Mg11  1  0.00000000  0.00000000  0.83757300  1
  Bi  Bi0  1  0.50000000  0.50000000  0.16663900  1
  Bi  Bi1  1  0.50000000  0.00000000  0.66663900  1
loop_
_geom_bond_atom_site_label_1
_geom_bond_atom_site_label_2
_geom_bond_distance
_geom_bond_site_symmetry_2
Li0 Mg3 3.196634 1_555
Li0 Mg3 3.196634 1_655
Li0 Mg2 3.196634 1_545
Li0 Mg2 3.196634 1_645
Li0 Mg0 3.217321 1_555
Li0 Mg1 3.217321 1_545
Li0 Mg4 3.232850 1_555
Li0 Mg4 3.232850 1_655
Li0 Mg6 3.234762 1_544
Li0 Mg7 3.234762 1_554
Li1 Mg8 3.196634 1_555
Li1 Mg8 3.196634 1_655
Li1 Mg9 3.196634 1_555
Li1 Mg9 3.196634 1_655
Li1 Mg7 3.217321 1_555
Li1 Mg6 3.217321 1_555
Li1 Mg10 3.232850 1_555
Li1 Mg10 3.232850 1_655
Li1 Mg0 3.234762 1_555
Li1 Mg1 3.234762 1_555
Mg0 Mg1 3.130415 1_545
Mg0 Mg1 3.156039 1_555
Mg0 Mg5 3.201594 1_555
Mg0 Mg5 3.201594 1_655
Mg0 Mg4 3.211663 1_555
Mg0 Mg4 3.211663 1_655
Mg0 Mg8 3.232263 1_655
Mg0 Mg8 3.232263 1_555
Mg1 Mg5 3.201594 1_555
Mg1 Mg5 3.201594 1_655
Mg1 Mg4 3.211663 1_565
Mg1 Mg4 3.211663 1_665
Mg1 Mg9 3.232263 1_555
Mg1 Mg9 3.232263 1_655
Mg2 Mg3 3.050087 1_565
Mg2 Mg4 3.210809 1_565
Mg2 Mg6 3.232263 1_454
Mg2 Mg6 3.232263 1_554
Mg2 Mg3 3.236367 1_555
Mg2 Mg5 3.305821 1_555
Mg3 Mg4 3.210809 1_555
Mg3 Mg7 3.232263 1_554
Mg3 Mg7 3.232263 1_454
Mg3 Mg5 3.305821 1_555
Mg4 Mg5 3.143747 1_545
Mg4 Mg5 3.143747 1_555
Mg4 Mg9 3.241890 1_545
Mg4 Mg8 3.241890 1_555
Mg5 Mg8 3.146284 1_555
Mg5 Mg9 3.146284 1_555
Mg6 Mg7 3.130415 1_555
Mg6 Mg7 3.156039 1_565
Mg8 Mg9 3.050087 1_555
Mg8 Mg9 3.236367 1_545
Mg10 Mg11 3.143747 1_555
Mg10 Mg11 3.143747 1_565
Mg10 Mg9 3.210809 1_555
Mg10 Mg8 3.210809 1_555
Mg10 Mg6 3.211663 1_455
Mg10 Mg7 3.211663 1_455
Mg10 Mg7 3.211663 1_555
Mg10 Mg6 3.211663 1_555
Mg10 Mg2 3.241890 1_556
Mg10 Mg3 3.241890 1_556
Mg11 Mg3 3.146284 1_556
Mg11 Mg2 3.146284 1_546
Mg11 Mg6 3.201594 1_545
Mg11 Mg7 3.201594 1_455
Mg11 Mg7 3.201594 1_555
Mg11 Mg6 3.201594 1_445
Mg11 Mg9 3.305821 1_545
Mg11 Mg8 3.305821 1_555
Bi0 Li0 3.143229 1_555
Bi0 Li0 3.143229 1_565
Bi0 Mg6 3.225378 1_554
Bi0 Mg7 3.225378 1_554
Bi0 Mg0 3.226718 1_555
Bi0 Mg1 3.226718 1_555
Bi0 Mg2 3.241037 1_555
Bi0 Mg3 3.241037 1_655
Bi0 Mg2 3.241037 1_655
Bi0 Mg3 3.241037 1_555
Bi0 Mg5 3.268304 1_655
Bi0 Mg5 3.268304 1_555
Bi1 Li1 3.143229 1_555
Bi1 Li1 3.143229 1_545
Bi1 Mg0 3.225378 1_555
Bi1 Mg1 3.225378 1_545
Bi1 Mg6 3.226718 1_545
Bi1 Mg7 3.226718 1_555
Bi1 Mg9 3.241037 1_545
Bi1 Mg9 3.241037 1_645
Bi1 Mg8 3.241037 1_555
Bi1 Mg8 3.241037 1_655
Bi1 Mg11 3.268304 1_655
Bi1 Mg11 3.268304 1_555
