# generated using pymatgen
data_Ba(ZnN)2
_symmetry_space_group_name_H-M   'P 1'
_cell_length_a   3.66553000
_cell_length_b   3.66553215
_cell_length_c   6.59897800
_cell_angle_alpha   90.00000085
_cell_angle_beta   90.00005904
_cell_angle_gamma   120.00002994
_symmetry_Int_Tables_number   1
_chemical_formula_structural   Ba(ZnN)2
_chemical_formula_sum   'Ba1 Zn2 N2'
_cell_volume   76.78581392
_cell_formula_units_Z   1
loop_
 _symmetry_equiv_pos_site_id
 _symmetry_equiv_pos_as_xyz
  1  'x, y, z'
loop_
 _atom_site_type_symbol
 _atom_site_label
 _atom_site_symmetry_multiplicity
 _atom_site_fract_x
 _atom_site_fract_y
 _atom_site_fract_z
 _atom_site_occupancy
  Ba  Ba0  1  0.00000000  0.00000000  0.50000000  1
  Zn  Zn0  1  0.66666800  0.33333400  0.12007800  1
  Zn  Zn1  1  0.33333200  0.66666600  0.87992200  1
  N  N0  1  0.66666500  0.33333200  0.79113300  1
  N  N1  1  0.33333500  0.66666800  0.20886700  1
loop_
_geom_bond_atom_site_label_1
_geom_bond_atom_site_label_2
_geom_bond_distance
_geom_bond_site_symmetry_2
Ba0 N0 2.858252 1_555
Ba0 N1 2.858252 1_445
Ba0 N0 2.858260 1_455
Ba0 N1 2.858260 1_545
Ba0 N1 2.858262 1_555
Ba0 N0 2.858262 1_445
N0 Zn0 2.170701 1_556
N0 Zn1 2.195905 1_545
N0 Zn1 2.195905 1_655
N0 Zn1 2.195908 1_555
N1 Zn1 2.170701 1_554
N1 Zn0 2.195905 1_565
N1 Zn0 2.195905 1_455
N1 Zn0 2.195908 1_555
