# generated using pymatgen
data_Ba2Ca3Tl2(FeO3)4
_symmetry_space_group_name_H-M   'P 1'
_cell_length_a   3.99312153
_cell_length_b   3.99312148
_cell_length_c   21.47097056
_cell_angle_alpha   95.33558028
_cell_angle_beta   95.33557905
_cell_angle_gamma   89.99999667
_symmetry_Int_Tables_number   1
_chemical_formula_structural   Ba2Ca3Tl2(FeO3)4
_chemical_formula_sum   'Ba2 Ca3 Tl2 Fe4 O12'
_cell_volume   339.38180856
_cell_formula_units_Z   1
loop_
 _symmetry_equiv_pos_site_id
 _symmetry_equiv_pos_as_xyz
  1  'x, y, z'
loop_
 _atom_site_type_symbol
 _atom_site_label
 _atom_site_symmetry_multiplicity
 _atom_site_fract_x
 _atom_site_fract_y
 _atom_site_fract_z
 _atom_site_occupancy
  Ba  Ba0  1  0.15980200  0.15980200  0.31960300  1
  Ba  Ba1  1  0.84019800  0.84019800  0.68039700  1
  Ca  Ca0  1  0.07504000  0.07504000  0.15008000  1
  Ca  Ca1  1  0.92496000  0.92496000  0.84992000  1
  Ca  Ca2  1  0.00000000  0.00000000  0.00000000  1
  Tl  Tl0  1  0.72337700  0.72337700  0.44675200  1
  Tl  Tl1  1  0.27662300  0.27662300  0.55324800  1
  Fe  Fe0  1  0.53985200  0.53985200  0.07970500  1
  Fe  Fe1  1  0.38924400  0.38924400  0.77848800  1
  Fe  Fe2  1  0.61075600  0.61075600  0.22151200  1
  Fe  Fe3  1  0.46014800  0.46014800  0.92029500  1
  O  O0  1  0.39003600  0.89003600  0.78007200  1
  O  O1  1  0.53637200  0.03637200  0.07274600  1
  O  O2  1  0.22625600  0.22625600  0.45251300  1
  O  O3  1  0.96362800  0.46362800  0.92725400  1
  O  O4  1  0.77374400  0.77374400  0.54748700  1
  O  O5  1  0.10996400  0.60996400  0.21992800  1
  O  O6  1  0.60996400  0.10996400  0.21992800  1
  O  O7  1  0.32638600  0.32638600  0.65277300  1
  O  O8  1  0.89003600  0.39003600  0.78007200  1
  O  O9  1  0.03637200  0.53637200  0.07274600  1
  O  O10  1  0.46362800  0.96362800  0.92725400  1
  O  O11  1  0.67361400  0.67361400  0.34722700  1
loop_
_geom_bond_atom_site_label_1
_geom_bond_atom_site_label_2
_geom_bond_distance
_geom_bond_site_symmetry_2
Ba0 O2 2.828923 1_555
Ba0 O11 2.884131 1_455
Ba0 O11 2.884131 1_545
Ba0 O11 2.884131 1_555
Ba0 O11 2.884131 1_445
Ba0 O6 2.913271 1_555
Ba0 O5 2.913271 1_555
Ba0 O5 2.913274 1_545
Ba0 O6 2.913274 1_455
Ba1 O4 2.828923 1_555
Ba1 O7 2.884131 1_655
Ba1 O7 2.884131 1_565
Ba1 O7 2.884131 1_555
Ba1 O7 2.884131 1_665
Ba1 O0 2.913271 1_555
Ba1 O8 2.913271 1_555
Ba1 O8 2.913274 1_565
Ba1 O0 2.913274 1_655
Ca0 O5 2.489271 1_555
Ca0 O6 2.489271 1_555
Ca0 O6 2.489271 1_455
Ca0 O5 2.489271 1_545
Ca0 O1 2.587587 1_555
Ca0 O9 2.587587 1_555
Ca0 O9 2.587593 1_545
Ca0 O1 2.587593 1_455
Ca1 O8 2.489271 1_555
Ca1 O0 2.489271 1_555
Ca1 O0 2.489271 1_655
Ca1 O8 2.489271 1_565
Ca1 O10 2.587587 1_555
Ca1 O3 2.587587 1_555
Ca1 O3 2.587593 1_565
Ca1 O10 2.587593 1_655
Ca2 O9 2.526592 1_555
Ca2 O3 2.526592 1_444
Ca2 O10 2.526592 1_444
Ca2 O1 2.526592 1_555
Ca2 O10 2.526598 1_544
Ca2 O1 2.526598 1_455
Ca2 O3 2.526598 1_454
Ca2 O9 2.526598 1_545
Fe0 O1 2.002045 1_565
Fe0 O9 2.002045 1_655
Fe0 O1 2.002049 1_555
Fe0 O9 2.002049 1_555
Fe1 O0 1.996845 1_555
Fe1 O0 1.996845 1_545
Fe1 O8 1.996845 1_555
Fe1 O8 1.996845 1_455
Fe1 O7 2.675781 1_555
Fe2 O6 1.996845 1_555
Fe2 O6 1.996845 1_565
Fe2 O5 1.996845 1_555
Fe2 O5 1.996845 1_655
Fe2 O11 2.675781 1_555
Fe3 O10 2.002045 1_545
Fe3 O3 2.002045 1_455
Fe3 O10 2.002049 1_555
Fe3 O3 2.002049 1_555
O2 Tl1 2.144094 1_555
O2 Tl0 2.826216 1_445
O2 Tl0 2.826224 1_545
O2 Tl0 2.826224 1_455
O2 Tl0 2.826233 1_555
O4 Tl0 2.144094 1_555
O4 Tl1 2.826216 1_665
O4 Tl1 2.826224 1_565
O4 Tl1 2.826224 1_655
O4 Tl1 2.826233 1_555
O7 Tl1 2.118340 1_555
O11 Tl0 2.118340 1_555
