# generated using pymatgen
data_DyZnIn
_symmetry_space_group_name_H-M   'P 1'
_cell_length_a   4.61230700
_cell_length_b   4.61254756
_cell_length_c   7.29388998
_cell_angle_alpha   90.00000000
_cell_angle_beta   90.00000000
_cell_angle_gamma   119.99828200
_symmetry_Int_Tables_number   1
_chemical_formula_structural   DyZnIn
_chemical_formula_sum   'Dy2 Zn2 In2'
_cell_volume   134.38674081
_cell_formula_units_Z   2
loop_
 _symmetry_equiv_pos_site_id
 _symmetry_equiv_pos_as_xyz
  1  'x, y, z'
loop_
 _atom_site_type_symbol
 _atom_site_label
 _atom_site_symmetry_multiplicity
 _atom_site_fract_x
 _atom_site_fract_y
 _atom_site_fract_z
 _atom_site_occupancy
  Dy  Dy0  1  0.00000000  0.00000000  0.50000000  1
  Dy  Dy1  1  0.00000000  0.00000000  -0.00000000  1
  Zn  Zn0  1  0.33335151  0.66670301  0.75000000  1
  Zn  Zn1  1  0.66664849  0.33329699  0.25000000  1
  In  In0  1  0.33333151  0.66666202  0.25000000  1
  In  In1  1  0.66666849  0.33333798  0.75000000  1
loop_
_geom_bond_atom_site_label_1
_geom_bond_atom_site_label_2
_geom_bond_distance
_geom_bond_site_symmetry_2
Dy0 Zn1 3.227388 1_555
Dy0 Zn0 3.227388 1_445
Dy0 Zn1 3.227389 1_455
Dy0 Zn0 3.227389 1_545
Dy0 In1 3.227454 1_555
Dy0 In0 3.227454 1_445
Dy0 In0 3.227458 1_545
Dy0 In1 3.227458 1_455
Dy0 In1 3.227548 1_445
Dy0 In0 3.227548 1_555
Dy0 Zn0 3.227683 1_555
Dy0 Zn1 3.227683 1_445
Dy1 Zn1 3.227388 1_555
Dy1 Zn0 3.227388 1_444
Dy1 Zn1 3.227389 1_455
Dy1 Zn0 3.227389 1_544
Dy1 In1 3.227454 1_554
Dy1 In0 3.227454 1_445
Dy1 In1 3.227458 1_454
Dy1 In0 3.227458 1_545
Dy1 In0 3.227548 1_555
Dy1 In1 3.227548 1_444
Dy1 Zn1 3.227683 1_445
Dy1 Zn0 3.227683 1_554
In0 Zn1 2.662975 1_565
In0 Zn1 2.663024 1_555
In0 Zn1 2.663028 1_455
In1 Zn0 2.662975 1_545
In1 Zn0 2.663024 1_555
In1 Zn0 2.663028 1_655
