# generated using pymatgen
data_SmSi3Pt
_symmetry_space_group_name_H-M   'P 1'
_cell_length_a   4.32029800
_cell_length_b   4.32029800
_cell_length_c   5.68762676
_cell_angle_alpha   112.32116796
_cell_angle_beta   112.32116796
_cell_angle_gamma   90.00000000
_symmetry_Int_Tables_number   1
_chemical_formula_structural   SmSi3Pt
_chemical_formula_sum   'Sm1 Si3 Pt1'
_cell_volume   89.54639254
_cell_formula_units_Z   1
loop_
 _symmetry_equiv_pos_site_id
 _symmetry_equiv_pos_as_xyz
  1  'x, y, z'
loop_
 _atom_site_type_symbol
 _atom_site_label
 _atom_site_symmetry_multiplicity
 _atom_site_fract_x
 _atom_site_fract_y
 _atom_site_fract_z
 _atom_site_occupancy
  Sm  Sm0  1  0.57653300  0.57653300  0.15306700  1
  Si  Si0  1  0.34037900  0.84037900  0.68075800  1
  Si  Si1  1  0.84037900  0.34037900  0.68075800  1
  Si  Si2  1  0.97606500  0.97606500  0.95213000  1
  Pt  Pt0  1  0.22444300  0.22444300  0.44888600  1
loop_
_geom_bond_atom_site_label_1
_geom_bond_atom_site_label_2
_geom_bond_distance
_geom_bond_site_symmetry_2
Si0 Sm0 3.130604 1_566
Si0 Sm0 3.130607 1_556
Si0 Sm0 3.327971 1_555
Si0 Sm0 3.327974 1_455
Si1 Sm0 3.130604 1_656
Si1 Sm0 3.130607 1_556
Si1 Sm0 3.327971 1_555
Si1 Sm0 3.327974 1_545
Si2 Sm0 3.203401 1_666
Si2 Sm0 3.203404 1_656
Si2 Sm0 3.203404 1_566
Si2 Sm0 3.203407 1_556
Pt0 Si2 2.383218 1_444
Pt0 Si1 2.429758 1_455
Pt0 Si0 2.429758 1_545
Pt0 Si0 2.429758 1_555
Pt0 Si1 2.429758 1_555
Pt0 Sm0 3.368475 1_555
Pt0 Sm0 3.368478 1_545
Pt0 Sm0 3.368478 1_455
Pt0 Sm0 3.368481 1_445
Pt0 Sm0 3.378353 1_556
