# generated using pymatgen
data_Ba5In3F19
_symmetry_space_group_name_H-M   'P 1'
_cell_length_a   15.25020692
_cell_length_b   15.25020692
_cell_length_c   15.79668311
_cell_angle_alpha   90.00000000
_cell_angle_beta   90.00000000
_cell_angle_gamma   90.00000000
_symmetry_Int_Tables_number   1
_chemical_formula_structural   Ba5In3F19
_chemical_formula_sum   'Ba40 In24 F152'
_cell_volume   3673.81581026
_cell_formula_units_Z   8
loop_
 _symmetry_equiv_pos_site_id
 _symmetry_equiv_pos_as_xyz
  1  'x, y, z'
loop_
 _atom_site_type_symbol
 _atom_site_label
 _atom_site_symmetry_multiplicity
 _atom_site_fract_x
 _atom_site_fract_y
 _atom_site_fract_z
 _atom_site_occupancy
  Ba  Ba0  1  0.27108981  0.93531649  0.25097200  1
  Ba  Ba1  1  0.72891019  0.06468351  0.75097200  1
  Ba  Ba2  1  0.93531649  0.72891019  0.50097200  1
  Ba  Ba3  1  0.06468351  0.27108981  0.00097200  1
  Ba  Ba4  1  0.73016603  0.05278118  0.24763436  1
  Ba  Ba5  1  0.26983397  0.94721882  0.74763436  1
  Ba  Ba6  1  0.05278118  0.26983397  0.49763436  1
  Ba  Ba7  1  0.94721882  0.73016603  0.99763436  1
  Ba  Ba8  1  0.07616730  0.72364800  0.25306162  1
  Ba  Ba9  1  0.92383270  0.27635200  0.75306162  1
  Ba  Ba10  1  0.72364800  0.92383270  0.50306162  1
  Ba  Ba11  1  0.27635200  0.07616730  0.00306162  1
  Ba  Ba12  1  0.91662107  0.28287725  0.23815157  1
  Ba  Ba13  1  0.08337893  0.71712275  0.73815157  1
  Ba  Ba14  1  0.28287725  0.08337893  0.48815157  1
  Ba  Ba15  1  0.71712275  0.91662107  0.98815157  1
  Ba  Ba16  1  0.78961139  0.54439602  0.26581000  1
  Ba  Ba17  1  0.21038861  0.45560398  0.76581000  1
  Ba  Ba18  1  0.54439602  0.21038861  0.51581000  1
  Ba  Ba19  1  0.45560398  0.78961139  0.01581000  1
  Ba  Ba20  1  0.21834028  0.43517091  0.26192535  1
  Ba  Ba21  1  0.78165972  0.56482909  0.76192535  1
  Ba  Ba22  1  0.43517091  0.78165972  0.51192535  1
  Ba  Ba23  1  0.56482909  0.21834028  0.01192535  1
  Ba  Ba24  1  0.60251541  0.77577522  0.26143546  1
  Ba  Ba25  1  0.39748459  0.22422478  0.76143546  1
  Ba  Ba26  1  0.77577522  0.39748459  0.51143546  1
  Ba  Ba27  1  0.22422478  0.60251541  0.01143546  1
  Ba  Ba28  1  0.41414893  0.21776723  0.26447989  1
  Ba  Ba29  1  0.58585107  0.78223277  0.76447989  1
  Ba  Ba30  1  0.21776723  0.58585107  0.51447989  1
  Ba  Ba31  1  0.78223277  0.41414893  0.01447989  1
  Ba  Ba32  1  0.00976401  0.97381839  0.38771626  1
  Ba  Ba33  1  0.99023599  0.02618161  0.88771626  1
  Ba  Ba34  1  0.97381839  0.99023599  0.63771626  1
  Ba  Ba35  1  0.02618161  0.00976401  0.13771626  1
  Ba  Ba36  1  0.46941957  0.51342744  0.37351061  1
  Ba  Ba37  1  0.53058043  0.48657256  0.87351061  1
  Ba  Ba38  1  0.51342744  0.53058043  0.62351061  1
  Ba  Ba39  1  0.48657256  0.46941957  0.12351061  1
  In  In0  1  0.50505954  0.97826794  0.37540570  1
  In  In1  1  0.49494046  0.02173206  0.87540570  1
  In  In2  1  0.97826794  0.49494046  0.62540570  1
  In  In3  1  0.02173206  0.50505954  0.12540570  1
  In  In4  1  0.01209592  0.50577467  0.38893628  1
  In  In5  1  0.98790408  0.49422533  0.88893628  1
  In  In6  1  0.50577467  0.98790408  0.63893628  1
  In  In7  1  0.49422533  0.01209592  0.13893628  1
  In  In8  1  0.37231636  0.68779088  0.23998324  1
  In  In9  1  0.62768364  0.31220912  0.73998324  1
  In  In10  1  0.68779088  0.62768364  0.48998324  1
  In  In11  1  0.31220912  0.37231636  0.98998324  1
  In  In12  1  0.65152066  0.33049471  0.26602321  1
  In  In13  1  0.34847934  0.66950529  0.76602321  1
  In  In14  1  0.33049471  0.34847934  0.51602321  1
  In  In15  1  0.66950529  0.65152066  0.01602321  1
  In  In16  1  0.84123754  0.83663368  0.24066160  1
  In  In17  1  0.15876246  0.16336632  0.74066160  1
  In  In18  1  0.83663368  0.15876246  0.49066160  1
  In  In19  1  0.16336632  0.84123754  0.99066160  1
  In  In20  1  0.14852283  0.17403161  0.27359208  1
  In  In21  1  0.85147717  0.82596839  0.77359208  1
  In  In22  1  0.17403161  0.85147717  0.52359208  1
  In  In23  1  0.82596839  0.14852283  0.02359208  1
  F  F0  1  0.09679241  0.90207832  0.25321920  1
  F  F1  1  0.90320759  0.09792168  0.75321920  1
  F  F2  1  0.90207832  0.90320759  0.50321920  1
  F  F3  1  0.09792168  0.09679241  0.00321920  1
  F  F4  1  0.40283183  0.39903497  0.25974501  1
  F  F5  1  0.59716817  0.60096503  0.75974501  1
  F  F6  1  0.39903497  0.59716817  0.50974501  1
  F  F7  1  0.60096503  0.40283183  0.00974501  1
  F  F8  1  0.57344520  0.85822800  0.41141971  1
  F  F9  1  0.42655480  0.14177200  0.91141971  1
  F  F10  1  0.85822800  0.42655480  0.66141971  1
  F  F11  1  0.14177200  0.57344520  0.16141971  1
  F  F12  1  0.40951014  0.12655738  0.11186486  1
  F  F13  1  0.59048986  0.87344262  0.61186486  1
  F  F14  1  0.12655738  0.59048986  0.36186486  1
  F  F15  1  0.87344262  0.40951014  0.86186486  1
  F  F16  1  0.24665528  0.26654027  0.23971844  1
  F  F17  1  0.75334472  0.73345973  0.73971844  1
  F  F18  1  0.26654027  0.75334472  0.48971844  1
  F  F19  1  0.73345973  0.24665528  0.98971844  1
  F  F20  1  0.89412951  0.96536244  0.25263739  1
  F  F21  1  0.10587049  0.03463756  0.75263739  1
  F  F22  1  0.96536244  0.10587049  0.50263739  1
  F  F23  1  0.03463756  0.89412951  0.00263739  1
  F  F24  1  0.56089335  0.28059697  0.35412265  1
  F  F25  1  0.43910665  0.71940303  0.85412265  1
  F  F26  1  0.28059697  0.43910665  0.60412265  1
  F  F27  1  0.71940303  0.56089335  0.10412265  1
  F  F28  1  0.93036650  0.80117153  0.33527417  1
  F  F29  1  0.06963350  0.19882847  0.83527417  1
  F  F30  1  0.80117153  0.06963350  0.58527417  1
  F  F31  1  0.19882847  0.93036650  0.08527417  1
  F  F32  1  0.74570547  0.87888798  0.33064271  1
  F  F33  1  0.25429453  0.12111202  0.83064271  1
  F  F34  1  0.87888798  0.25429453  0.58064271  1
  F  F35  1  0.12111202  0.74570547  0.08064271  1
  F  F36  1  0.25413073  0.75744724  0.25155242  1
  F  F37  1  0.74586927  0.24255276  0.75155242  1
  F  F38  1  0.75744724  0.74586927  0.50155242  1
  F  F39  1  0.24255276  0.25413073  0.00155242  1
  F  F40  1  0.08013114  0.28521445  0.32255943  1
  F  F41  1  0.91986886  0.71478555  0.82255943  1
  F  F42  1  0.28521445  0.91986886  0.57255943  1
  F  F43  1  0.71478555  0.08013114  0.07255943  1
  F  F44  1  0.75184349  0.89429805  0.15536842  1
  F  F45  1  0.24815651  0.10570195  0.65536842  1
  F  F46  1  0.89429805  0.24815651  0.40536842  1
  F  F47  1  0.10570195  0.75184349  0.90536842  1
  F  F48  1  0.57374878  0.11440334  0.18288611  1
  F  F49  1  0.42625122  0.88559666  0.68288611  1
  F  F50  1  0.11440334  0.42625122  0.43288611  1
  F  F51  1  0.88559666  0.57374878  0.93288611  1
  F  F52  1  0.43995421  0.70769074  0.35629759  1
  F  F53  1  0.56004579  0.29230926  0.85629759  1
  F  F54  1  0.70769074  0.56004579  0.60629759  1
  F  F55  1  0.29230926  0.43995421  0.10629759  1
  F  F56  1  0.77309417  0.71770717  0.23607733  1
  F  F57  1  0.22690583  0.28229283  0.73607733  1
  F  F58  1  0.71770717  0.22690583  0.48607733  1
  F  F59  1  0.28229283  0.77309417  0.98607733  1
  F  F60  1  0.49094549  0.61212807  0.22545479  1
  F  F61  1  0.50905451  0.38787193  0.72545479  1
  F  F62  1  0.61212807  0.50905451  0.47545479  1
  F  F63  1  0.38787193  0.49094549  0.97545479  1
  F  F64  1  0.43521328  0.79989530  0.19426392  1
  F  F65  1  0.56478672  0.20010470  0.69426392  1
  F  F66  1  0.79989530  0.56478672  0.44426392  1
  F  F67  1  0.20010470  0.43521328  0.94426392  1
  F  F68  1  0.02626820  0.10260198  0.28046216  1
  F  F69  1  0.97373180  0.89739802  0.78046216  1
  F  F70  1  0.10260198  0.97373180  0.53046216  1
  F  F71  1  0.89739802  0.02626820  0.03046216  1
  F  F72  1  0.74420422  0.37556111  0.17675998  1
  F  F73  1  0.25579578  0.62443889  0.67675998  1
  F  F74  1  0.37556111  0.25579578  0.42675998  1
  F  F75  1  0.62443889  0.74420422  0.92675998  1
  F  F76  1  0.59529470  0.45897376  0.25821214  1
  F  F77  1  0.40470530  0.54102624  0.75821214  1
  F  F78  1  0.45897376  0.40470530  0.50821214  1
  F  F79  1  0.54102624  0.59529470  0.00821214  1
  F  F80  1  0.04283969  0.46877614  0.25987130  1
  F  F81  1  0.95716031  0.53122386  0.75987130  1
  F  F82  1  0.46877614  0.95716031  0.50987130  1
  F  F83  1  0.53122386  0.04283969  0.00987130  1
  F  F84  1  0.62424810  0.04119204  0.40409874  1
  F  F85  1  0.37575190  0.95880796  0.90409874  1
  F  F86  1  0.04119204  0.37575190  0.65409874  1
  F  F87  1  0.95880796  0.62424810  0.15409874  1
  F  F88  1  0.18521163  0.07801659  0.18010479  1
  F  F89  1  0.81478837  0.92198341  0.68010479  1
  F  F90  1  0.07801659  0.81478837  0.43010479  1
  F  F91  1  0.92198341  0.18521163  0.93010479  1
  F  F92  1  0.65115558  0.64403417  0.36167903  1
  F  F93  1  0.34884442  0.35596583  0.86167903  1
  F  F94  1  0.64403417  0.34884442  0.61167903  1
  F  F95  1  0.35596583  0.65115558  0.11167903  1
  F  F96  1  0.55819612  0.29933046  0.17207319  1
  F  F97  1  0.44180388  0.70066954  0.67207319  1
  F  F98  1  0.29933046  0.44180388  0.42207319  1
  F  F99  1  0.70066954  0.55819612  0.92207319  1
  F  F100  1  0.06668538  0.21445605  0.16151874  1
  F  F101  1  0.93331462  0.78554395  0.66151874  1
  F  F102  1  0.21445605  0.93331462  0.41151874  1
  F  F103  1  0.78554395  0.06668538  0.91151874  1
  F  F104  1  0.94534158  0.61822423  0.34646769  1
  F  F105  1  0.05465842  0.38177577  0.84646769  1
  F  F106  1  0.61822423  0.05465842  0.59646769  1
  F  F107  1  0.38177577  0.94534158  0.09646769  1
  F  F108  1  0.13374904  0.13827802  0.40904329  1
  F  F109  1  0.86625096  0.86172198  0.90904329  1
  F  F110  1  0.13827802  0.86625096  0.65904329  1
  F  F111  1  0.86172198  0.13374904  0.15904329  1
  F  F112  1  0.31875575  0.57555209  0.29391590  1
  F  F113  1  0.68124425  0.42444791  0.79391590  1
  F  F114  1  0.57555209  0.68124425  0.54391590  1
  F  F115  1  0.42444791  0.31875575  0.04391590  1
  F  F116  1  0.94114603  0.81352234  0.15237537  1
  F  F117  1  0.05885397  0.18647766  0.65237537  1
  F  F118  1  0.81352234  0.05885397  0.40237537  1
  F  F119  1  0.18647766  0.94114603  0.90237537  1
  F  F120  1  0.39644078  0.89637323  0.36775219  1
  F  F121  1  0.60355922  0.10362677  0.86775219  1
  F  F122  1  0.89637323  0.60355922  0.61775219  1
  F  F123  1  0.10362677  0.39644078  0.11775219  1
  F  F124  1  0.57342177  0.95100181  0.25787914  1
  F  F125  1  0.42657823  0.04899819  0.75787914  1
  F  F126  1  0.95100181  0.42657823  0.50787914  1
  F  F127  1  0.04899819  0.57342177  0.00787914  1
  F  F128  1  0.45188545  0.10213533  0.40605408  1
  F  F129  1  0.54811455  0.89786467  0.90605408  1
  F  F130  1  0.10213533  0.54811455  0.65605408  1
  F  F131  1  0.89786467  0.45188545  0.15605408  1
  F  F132  1  0.02741358  0.57454670  0.50702869  1
  F  F133  1  0.97258642  0.42545330  0.00702869  1
  F  F134  1  0.57454670  0.97258642  0.75702869  1
  F  F135  1  0.42545330  0.02741358  0.25702869  1
  F  F136  1  0.73630477  0.22258077  0.27248487  1
  F  F137  1  0.26369523  0.77741923  0.77248487  1
  F  F138  1  0.22258077  0.26369523  0.52248487  1
  F  F139  1  0.77741923  0.73630477  0.02248487  1
  F  F140  1  0.27271197  0.11068625  0.31854345  1
  F  F141  1  0.72728803  0.88931375  0.81854345  1
  F  F142  1  0.11068625  0.72728803  0.56854345  1
  F  F143  1  0.88931375  0.27271197  0.06854345  1
  F  F144  1  0.72867240  0.39758156  0.35419104  1
  F  F145  1  0.27132760  0.60241844  0.85419104  1
  F  F146  1  0.39758156  0.27132760  0.60419104  1
  F  F147  1  0.60241844  0.72867240  0.10419104  1
  F  F148  1  0.90231075  0.43406074  0.34828083  1
  F  F149  1  0.09768925  0.56593926  0.84828083  1
  F  F150  1  0.43406074  0.09768925  0.59828083  1
  F  F151  1  0.56593926  0.90231075  0.09828083  1
loop_
_geom_bond_atom_site_label_1
_geom_bond_atom_site_label_2
_geom_bond_distance
_geom_bond_site_symmetry_2
Ba0 F102 2.679310 1_555
Ba0 F0 2.706204 1_555
Ba0 F120 2.722149 1_555
Ba0 F36 2.724860 1_555
Ba0 F135 2.742890 1_565
Ba0 F88 2.775660 1_565
Ba0 F31 2.841001 1_555
Ba0 F140 2.879673 1_565
Ba0 F107 2.971441 1_555
Ba1 F103 2.679310 1_555
Ba1 F1 2.706204 1_555
Ba1 F121 2.722149 1_555
Ba1 F37 2.724860 1_555
Ba1 F134 2.742890 1_545
Ba1 F89 2.775660 1_545
Ba1 F30 2.841001 1_555
Ba1 F141 2.879673 1_545
Ba1 F106 2.971441 1_555
Ba2 F101 2.679310 1_555
Ba2 F2 2.706204 1_555
Ba2 F122 2.722149 1_555
Ba2 F38 2.724860 1_555
Ba2 F132 2.742890 1_655
Ba2 F90 2.775660 1_655
Ba2 F28 2.841001 1_555
Ba2 F142 2.879673 1_655
Ba2 F104 2.971441 1_555
Ba3 F100 2.679310 1_555
Ba3 F3 2.706204 1_555
Ba3 F123 2.722149 1_555
Ba3 F39 2.724860 1_555
Ba3 F133 2.742890 1_455
Ba3 F91 2.775660 1_454
Ba3 F29 2.841001 1_554
Ba3 F143 2.879673 1_455
Ba3 F105 2.971441 1_554
Ba4 F136 2.620737 1_555
Ba4 F111 2.740106 1_555
Ba4 F118 2.756736 1_555
Ba4 F48 2.760322 1_555
Ba4 F43 2.806696 1_555
Ba4 F20 2.834772 1_545
Ba4 F44 2.841653 1_545
Ba4 F124 2.854699 1_545
Ba4 F84 2.957910 1_555
Ba4 F32 2.967855 1_545
Ba5 F137 2.620737 1_555
Ba5 F110 2.740106 1_555
Ba5 F119 2.756736 1_555
Ba5 F49 2.760322 1_555
Ba5 F42 2.806696 1_555
Ba5 F21 2.834772 1_565
Ba5 F45 2.841653 1_565
Ba5 F125 2.854699 1_565
Ba5 F85 2.957910 1_555
Ba5 F33 2.967855 1_565
Ba6 F138 2.620737 1_555
Ba6 F108 2.740106 1_555
Ba6 F117 2.756736 1_555
Ba6 F50 2.760322 1_555
Ba6 F40 2.806696 1_555
Ba6 F22 2.834772 1_455
Ba6 F46 2.841653 1_455
Ba6 F126 2.854699 1_455
Ba6 F86 2.957910 1_555
Ba6 F34 2.967855 1_455
Ba7 F139 2.620737 1_556
Ba7 F109 2.740106 1_555
Ba7 F116 2.756736 1_556
Ba7 F51 2.760322 1_555
Ba7 F41 2.806696 1_555
Ba7 F23 2.834772 1_656
Ba7 F47 2.841653 1_655
Ba7 F127 2.854699 1_656
Ba7 F87 2.957910 1_556
Ba7 F35 2.967855 1_656
Ba8 F0 2.739219 1_555
Ba8 F36 2.762596 1_555
Ba8 F14 2.769163 1_555
Ba8 F87 2.818677 1_455
Ba8 F35 2.828639 1_555
Ba8 F28 2.833411 1_455
Ba8 F11 2.888526 1_555
Ba8 F116 2.940777 1_455
Ba8 F104 2.956760 1_455
Ba8 F90 3.123163 1_555
Ba9 F1 2.739219 1_555
Ba9 F37 2.762596 1_555
Ba9 F15 2.769163 1_555
Ba9 F86 2.818677 1_655
Ba9 F34 2.828639 1_555
Ba9 F29 2.833411 1_655
Ba9 F10 2.888526 1_555
Ba9 F117 2.940777 1_655
Ba9 F105 2.956760 1_655
Ba9 F91 3.123163 1_555
Ba10 F2 2.739219 1_555
Ba10 F38 2.762596 1_555
Ba10 F13 2.769163 1_555
Ba10 F84 2.818677 1_565
Ba10 F32 2.828639 1_555
Ba10 F30 2.833411 1_565
Ba10 F8 2.888526 1_555
Ba10 F118 2.940777 1_565
Ba10 F106 2.956760 1_565
Ba10 F89 3.123163 1_555
Ba11 F3 2.739219 1_555
Ba11 F39 2.762596 1_555
Ba11 F12 2.769163 1_555
Ba11 F85 2.818677 1_544
Ba11 F33 2.828639 1_554
Ba11 F31 2.833411 1_545
Ba11 F9 2.888526 1_554
Ba11 F119 2.940777 1_544
Ba11 F107 2.956760 1_545
Ba11 F88 3.123163 1_555
Ba12 F46 2.715444 1_555
Ba12 F143 2.715845 1_555
Ba12 F111 2.726667 1_555
Ba12 F100 2.791320 1_655
Ba12 F40 2.827894 1_655
Ba12 F148 2.896515 1_555
Ba12 F131 2.899436 1_555
Ba12 F136 2.949817 1_555
Ba12 F72 3.138793 1_555
Ba12 F68 3.286497 1_655
Ba13 F47 2.715444 1_555
Ba13 F142 2.715845 1_555
Ba13 F110 2.726667 1_555
Ba13 F101 2.791320 1_455
Ba13 F41 2.827894 1_455
Ba13 F149 2.896515 1_555
Ba13 F130 2.899436 1_555
Ba13 F137 2.949817 1_555
Ba13 F73 3.138793 1_555
Ba13 F69 3.286497 1_455
Ba14 F45 2.715444 1_555
Ba14 F140 2.715845 1_555
Ba14 F108 2.726667 1_555
Ba14 F102 2.791320 1_545
Ba14 F42 2.827894 1_545
Ba14 F150 2.896515 1_555
Ba14 F128 2.899436 1_555
Ba14 F138 2.949817 1_555
Ba14 F74 3.138793 1_555
Ba14 F70 3.286497 1_545
Ba15 F44 2.715444 1_556
Ba15 F141 2.715845 1_555
Ba15 F109 2.726667 1_555
Ba15 F103 2.791320 1_565
Ba15 F43 2.827894 1_566
Ba15 F151 2.896515 1_556
Ba15 F129 2.899436 1_555
Ba15 F139 2.949817 1_556
Ba15 F75 3.138793 1_555
Ba15 F71 3.286497 1_566
Ba16 F56 2.696230 1_555
Ba16 F148 2.735389 1_555
Ba16 F131 2.778810 1_555
Ba16 F27 2.780868 1_555
Ba16 F144 2.797451 1_555
Ba16 F66 2.840412 1_555
Ba16 F104 2.920833 1_555
Ba16 F92 3.010096 1_555
Ba16 F72 3.014586 1_555
Ba16 F76 3.239292 1_555
Ba16 F87 3.354825 1_555
Ba17 F57 2.696230 1_555
Ba17 F149 2.735389 1_555
Ba17 F130 2.778810 1_555
Ba17 F26 2.780868 1_555
Ba17 F145 2.797451 1_555
Ba17 F67 2.840412 1_555
Ba17 F105 2.920833 1_555
Ba17 F93 3.010096 1_555
Ba17 F73 3.014586 1_555
Ba17 F77 3.239292 1_555
Ba17 F86 3.354825 1_555
Ba18 F58 2.696230 1_555
Ba18 F150 2.735389 1_555
Ba18 F128 2.778810 1_555
Ba18 F24 2.780868 1_555
Ba18 F146 2.797451 1_555
Ba18 F65 2.840412 1_555
Ba18 F106 2.920833 1_555
Ba18 F94 3.010096 1_555
Ba18 F74 3.014586 1_555
Ba18 F78 3.239292 1_555
Ba18 F84 3.354825 1_555
Ba19 F59 2.696230 1_554
Ba19 F151 2.735389 1_555
Ba19 F129 2.778810 1_554
Ba19 F25 2.780868 1_554
Ba19 F147 2.797451 1_555
Ba19 F64 2.840412 1_555
Ba19 F107 2.920833 1_555
Ba19 F95 3.010096 1_555
Ba19 F75 3.014586 1_554
Ba19 F79 3.239292 1_555
Ba19 F85 3.354825 1_554
Ba20 F16 2.631143 1_555
Ba20 F112 2.680230 1_555
Ba20 F55 2.705835 1_555
Ba20 F80 2.725238 1_555
Ba20 F98 2.817030 1_555
Ba20 F4 2.867203 1_555
Ba20 F11 2.886312 1_555
Ba20 F123 2.931909 1_555
Ba20 F50 3.134363 1_555
Ba20 F14 3.172066 1_555
Ba20 F40 3.254174 1_555
Ba21 F17 2.631143 1_555
Ba21 F113 2.680230 1_555
Ba21 F54 2.705835 1_555
Ba21 F81 2.725238 1_555
Ba21 F99 2.817030 1_555
Ba21 F5 2.867203 1_555
Ba21 F10 2.886312 1_555
Ba21 F122 2.931909 1_555
Ba21 F51 3.134363 1_555
Ba21 F15 3.172066 1_555
Ba21 F41 3.254174 1_555
Ba22 F18 2.631143 1_555
Ba22 F114 2.680230 1_555
Ba22 F52 2.705835 1_555
Ba22 F82 2.725238 1_555
Ba22 F97 2.817030 1_555
Ba22 F6 2.867203 1_555
Ba22 F8 2.886312 1_555
Ba22 F120 2.931909 1_555
Ba22 F49 3.134363 1_555
Ba22 F13 3.172066 1_555
Ba22 F42 3.254174 1_555
Ba23 F19 2.631143 1_554
Ba23 F115 2.680230 1_555
Ba23 F53 2.705835 1_554
Ba23 F83 2.725238 1_555
Ba23 F96 2.817030 1_555
Ba23 F7 2.867203 1_555
Ba23 F9 2.886312 1_554
Ba23 F121 2.931909 1_554
Ba23 F48 3.134363 1_555
Ba23 F12 3.172066 1_555
Ba23 F43 3.254174 1_555
Ba24 F147 2.585722 1_555
Ba24 F92 2.663484 1_555
Ba24 F124 2.709407 1_555
Ba24 F8 2.718641 1_555
Ba24 F56 2.777002 1_555
Ba24 F64 2.787618 1_555
Ba24 F32 2.904542 1_555
Ba24 F60 3.073486 1_555
Ba24 F52 3.077254 1_555
Ba25 F146 2.585722 1_555
Ba25 F93 2.663484 1_555
Ba25 F125 2.709407 1_555
Ba25 F9 2.718641 1_555
Ba25 F57 2.777002 1_555
Ba25 F65 2.787618 1_555
Ba25 F33 2.904542 1_555
Ba25 F61 3.073486 1_555
Ba25 F53 3.077254 1_555
Ba26 F144 2.585722 1_555
Ba26 F94 2.663484 1_555
Ba26 F126 2.709407 1_555
Ba26 F10 2.718641 1_555
Ba26 F58 2.777002 1_555
Ba26 F66 2.787618 1_555
Ba26 F34 2.904542 1_555
Ba26 F62 3.073486 1_555
Ba26 F54 3.077254 1_555
Ba27 F145 2.585722 1_554
Ba27 F95 2.663484 1_555
Ba27 F127 2.709407 1_555
Ba27 F11 2.718641 1_555
Ba27 F59 2.777002 1_554
Ba27 F67 2.787618 1_554
Ba27 F35 2.904542 1_555
Ba27 F63 3.073486 1_554
Ba27 F55 3.077254 1_555
Ba28 F16 2.689005 1_555
Ba28 F74 2.693344 1_555
Ba28 F4 2.770763 1_555
Ba28 F12 2.784207 1_555
Ba28 F24 2.816278 1_555
Ba28 F140 2.836983 1_555
Ba28 F128 2.905564 1_555
Ba28 F135 2.910428 1_555
Ba28 F96 2.916105 1_555
Ba28 F48 3.173342 1_555
Ba29 F17 2.689005 1_555
Ba29 F75 2.693344 1_555
Ba29 F5 2.770763 1_555
Ba29 F13 2.784207 1_555
Ba29 F25 2.816278 1_555
Ba29 F141 2.836983 1_555
Ba29 F129 2.905564 1_555
Ba29 F134 2.910428 1_555
Ba29 F97 2.916105 1_555
Ba29 F49 3.173342 1_555
Ba30 F18 2.689005 1_555
Ba30 F73 2.693344 1_555
Ba30 F6 2.770763 1_555
Ba30 F14 2.784207 1_555
Ba30 F26 2.816278 1_555
Ba30 F142 2.836983 1_555
Ba30 F130 2.905564 1_555
Ba30 F132 2.910428 1_555
Ba30 F98 2.916105 1_555
Ba30 F50 3.173342 1_555
Ba31 F19 2.689005 1_554
Ba31 F72 2.693344 1_555
Ba31 F7 2.770763 1_555
Ba31 F15 2.784207 1_554
Ba31 F27 2.816278 1_555
Ba31 F143 2.836983 1_555
Ba31 F131 2.905564 1_555
Ba31 F133 2.910428 1_555
Ba31 F99 2.916105 1_554
Ba31 F51 3.173342 1_554
Ba32 F68 2.605967 1_565
Ba32 F70 2.662539 1_555
Ba32 F2 2.680580 1_455
Ba32 F90 2.722785 1_555
Ba32 F0 2.733563 1_555
Ba32 F20 2.771187 1_455
Ba32 F22 2.794560 1_465
Ba32 F28 3.014056 1_455
Ba32 F108 3.158939 1_565
Ba32 F102 3.204260 1_555
Ba32 F118 3.269824 1_465
Ba33 F69 2.605967 1_545
Ba33 F71 2.662539 1_556
Ba33 F3 2.680580 1_656
Ba33 F91 2.722785 1_555
Ba33 F1 2.733563 1_555
Ba33 F21 2.771187 1_655
Ba33 F23 2.794560 1_646
Ba33 F29 3.014056 1_655
Ba33 F109 3.158939 1_545
Ba33 F103 3.204260 1_555
Ba33 F119 3.269824 1_645
Ba34 F70 2.605967 1_655
Ba34 F69 2.662539 1_555
Ba34 F1 2.680580 1_565
Ba34 F89 2.722785 1_555
Ba34 F2 2.733563 1_555
Ba34 F22 2.771187 1_565
Ba34 F21 2.794560 1_665
Ba34 F30 3.014056 1_565
Ba34 F110 3.158939 1_655
Ba34 F101 3.204260 1_555
Ba34 F117 3.269824 1_665
Ba35 F71 2.605967 1_455
Ba35 F68 2.662539 1_555
Ba35 F0 2.680580 1_545
Ba35 F88 2.722785 1_555
Ba35 F3 2.733563 1_555
Ba35 F23 2.771187 1_545
Ba35 F20 2.794560 1_445
Ba35 F31 3.014056 1_545
Ba35 F111 3.158939 1_455
Ba35 F100 3.204260 1_555
Ba35 F116 3.269824 1_445
Ba36 F78 2.702249 1_555
Ba36 F4 2.702618 1_555
Ba36 F62 2.708173 1_555
Ba36 F6 2.722932 1_555
Ba36 F76 2.773413 1_555
Ba36 F112 2.785264 1_555
Ba36 F60 2.800598 1_555
Ba36 F98 2.917162 1_555
Ba36 F52 3.008752 1_555
Ba37 F79 2.702249 1_556
Ba37 F5 2.702618 1_555
Ba37 F63 2.708173 1_555
Ba37 F7 2.722932 1_556
Ba37 F77 2.773413 1_555
Ba37 F113 2.785264 1_555
Ba37 F61 2.800598 1_555
Ba37 F99 2.917162 1_555
Ba37 F53 3.008752 1_555
Ba38 F77 2.702249 1_555
Ba38 F6 2.702618 1_555
Ba38 F61 2.708173 1_555
Ba38 F5 2.722932 1_555
Ba38 F78 2.773413 1_555
Ba38 F114 2.785264 1_555
Ba38 F62 2.800598 1_555
Ba38 F97 2.917162 1_555
Ba38 F54 3.008752 1_555
Ba39 F76 2.702249 1_555
Ba39 F7 2.702618 1_555
Ba39 F60 2.708173 1_555
Ba39 F4 2.722932 1_555
Ba39 F79 2.773413 1_555
Ba39 F115 2.785264 1_555
Ba39 F63 2.800598 1_554
Ba39 F96 2.917162 1_555
Ba39 F55 3.008752 1_555
F8 In0 2.182315 1_555
F9 In1 2.182315 1_555
F10 In2 2.182315 1_555
F11 In3 2.182315 1_555
F12 In7 2.213352 1_555
F13 In6 2.213352 1_555
F14 In4 2.213352 1_555
F15 In5 2.213352 1_555
F16 In20 2.125146 1_555
F17 In21 2.125146 1_555
F18 In22 2.125146 1_555
F19 In23 2.125146 1_556
F20 In16 2.130806 1_555
F21 In17 2.130806 1_555
F22 In18 2.130806 1_555
F23 In19 2.130806 1_554
F24 In12 2.103800 1_555
F25 In13 2.103800 1_555
F26 In14 2.103800 1_555
F27 In15 2.103800 1_555
F28 In16 2.091343 1_555
F29 In17 2.091343 1_555
F30 In18 2.091343 1_555
F31 In19 2.091343 1_554
F32 In16 2.134978 1_555
F33 In17 2.134978 1_555
F34 In18 2.134978 1_555
F35 In19 2.134978 1_554
F36 In8 2.100074 1_555
F37 In9 2.100074 1_555
F38 In10 2.100074 1_555
F39 In11 2.100074 1_554
F40 In20 2.135670 1_555
F41 In21 2.135670 1_555
F42 In22 2.135670 1_555
F43 In23 2.135670 1_555
F44 In16 2.108841 1_555
F45 In17 2.108841 1_555
F46 In18 2.108841 1_555
F47 In19 2.108841 1_555
F48 In7 2.094520 1_555
F49 In6 2.094520 1_555
F50 In4 2.094520 1_555
F51 In5 2.094520 1_555
F52 In8 2.128859 1_555
F53 In9 2.128859 1_555
F54 In10 2.128859 1_555
F55 In11 2.128859 1_554
F56 In16 2.091536 1_555
F57 In17 2.091536 1_555
F58 In18 2.091536 1_555
F59 In19 2.091536 1_555
F60 In8 2.158010 1_555
F61 In9 2.158010 1_555
F62 In10 2.158010 1_555
F63 In11 2.158010 1_555
F64 In8 2.089121 1_555
F65 In9 2.089121 1_555
F66 In10 2.089121 1_555
F67 In11 2.089121 1_555
F68 In20 2.162038 1_555
F69 In21 2.162038 1_555
F70 In22 2.162038 1_555
F71 In23 2.162038 1_555
F72 In12 2.111502 1_555
F73 In13 2.111502 1_555
F74 In14 2.111502 1_555
F75 In15 2.111502 1_556
F76 In12 2.142298 1_555
F77 In13 2.142298 1_555
F78 In14 2.142298 1_555
F79 In15 2.142298 1_555
F80 In4 2.166767 1_555
F80 In3 2.218476 1_555
F81 In5 2.166767 1_555
F81 In2 2.218476 1_555
F82 In6 2.166767 1_555
F82 In0 2.218476 1_555
F83 In7 2.166767 1_555
F83 In1 2.218476 1_554
F84 In0 2.104789 1_545
F85 In1 2.104789 1_565
F86 In2 2.104789 1_455
F87 In3 2.104789 1_655
F88 In20 2.153598 1_555
F89 In21 2.153598 1_555
F90 In22 2.153598 1_555
F91 In23 2.153598 1_556
F92 In10 2.117111 1_555
F93 In11 2.117111 1_555
F94 In9 2.117111 1_555
F95 In8 2.117111 1_555
F96 In12 2.110444 1_555
F97 In13 2.110444 1_555
F98 In14 2.110444 1_555
F99 In15 2.110444 1_556
F100 In20 2.252092 1_555
F101 In21 2.252092 1_555
F102 In22 2.252092 1_555
F103 In23 2.252092 1_556
F104 In4 2.104098 1_655
F105 In5 2.104098 1_455
F106 In6 2.104098 1_545
F107 In7 2.104098 1_565
F108 In20 2.219524 1_555
F109 In21 2.219524 1_555
F110 In22 2.219524 1_555
F111 In23 2.219524 1_555
F112 In8 2.079136 1_555
F113 In9 2.079136 1_555
F114 In10 2.079136 1_555
F115 In11 2.079136 1_554
F116 In16 2.095387 1_555
F117 In17 2.095387 1_555
F118 In18 2.095387 1_555
F119 In19 2.095387 1_555
F120 In0 2.078040 1_555
F121 In1 2.078040 1_555
F122 In2 2.078040 1_555
F123 In3 2.078040 1_555
F124 In0 2.169445 1_555
F124 In7 2.420129 1_565
F125 In1 2.169445 1_555
F125 In6 2.420129 1_545
F126 In2 2.169445 1_555
F126 In4 2.420129 1_655
F127 In3 2.169445 1_555
F127 In5 2.420129 1_454
F128 In0 2.111945 1_545
F129 In1 2.111945 1_565
F130 In2 2.111945 1_455
F131 In3 2.111945 1_655
F132 In4 2.152788 1_555
F132 In2 2.352087 1_455
F133 In5 2.152788 1_554
F133 In3 2.352087 1_655
F134 In6 2.152788 1_555
F134 In1 2.352087 1_565
F135 In7 2.152788 1_555
F135 In0 2.352087 1_545
F136 In12 2.095367 1_555
F137 In13 2.095367 1_555
F138 In14 2.095367 1_555
F139 In15 2.095367 1_555
F140 In20 2.241501 1_555
F141 In21 2.241501 1_555
F142 In22 2.241501 1_555
F143 In23 2.241501 1_555
F144 In12 2.090653 1_555
F145 In13 2.090653 1_555
F146 In14 2.090653 1_555
F147 In15 2.090653 1_555
F148 In4 2.100387 1_655
F149 In5 2.100387 1_455
F150 In6 2.100387 1_545
F151 In7 2.100387 1_565
