# generated using pymatgen
data_Sr4CeSm3Nb2(CuO5)4
_symmetry_space_group_name_H-M   'P 1'
_cell_length_a   3.93859000
_cell_length_b   3.93859000
_cell_length_c   29.08571300
_cell_angle_alpha   90.00000000
_cell_angle_beta   90.00000000
_cell_angle_gamma   90.00000000
_symmetry_Int_Tables_number   1
_chemical_formula_structural   Sr4CeSm3Nb2(CuO5)4
_chemical_formula_sum   'Sr4 Ce1 Sm3 Nb2 Cu4 O20'
_cell_volume   451.19186661
_cell_formula_units_Z   1
loop_
 _symmetry_equiv_pos_site_id
 _symmetry_equiv_pos_as_xyz
  1  'x, y, z'
loop_
 _atom_site_type_symbol
 _atom_site_label
 _atom_site_symmetry_multiplicity
 _atom_site_fract_x
 _atom_site_fract_y
 _atom_site_fract_z
 _atom_site_occupancy
  Sr  Sr0  1  0.00000000  0.00000000  0.42180100  1
  Sr  Sr1  1  0.50000000  0.50000000  0.91569200  1
  Sr  Sr2  1  0.50000000  0.50000000  0.07991100  1
  Sr  Sr3  1  0.00000000  0.00000000  0.58517600  1
  Ce  Ce0  1  0.00000000  0.00000000  0.29358100  1
  Sm  Sm0  1  0.50000000  0.50000000  0.79156000  1
  Sm  Sm1  1  0.50000000  0.50000000  0.20553100  1
  Sm  Sm2  1  0.00000000  0.00000000  0.70867600  1
  Nb  Nb0  1  0.00000000  0.00000000  0.99952100  1
  Nb  Nb1  1  0.50000000  0.50000000  0.50043100  1
  Cu  Cu0  1  0.50000000  0.50000000  0.35623900  1
  Cu  Cu1  1  0.00000000  0.00000000  0.85696500  1
  Cu  Cu2  1  0.00000000  0.00000000  0.14307300  1
  Cu  Cu3  1  0.50000000  0.50000000  0.64393700  1
  O  O0  1  0.00000000  0.50000000  0.25200500  1
  O  O1  1  0.50000000  0.00000000  0.74998700  1
  O  O2  1  0.50000000  0.00000000  0.25200500  1
  O  O3  1  0.00000000  0.50000000  0.74998700  1
  O  O4  1  0.00000000  0.50000000  0.34800600  1
  O  O5  1  0.50000000  0.00000000  0.85378100  1
  O  O6  1  0.50000000  0.00000000  0.34800600  1
  O  O7  1  0.00000000  0.50000000  0.85378100  1
  O  O8  1  0.50000000  0.00000000  0.15072400  1
  O  O9  1  0.00000000  0.50000000  0.64598300  1
  O  O10  1  0.00000000  0.50000000  0.15072400  1
  O  O11  1  0.50000000  0.00000000  0.64598300  1
  O  O12  1  0.50000000  0.00000000  0.00091500  1
  O  O13  1  0.00000000  0.50000000  0.49814000  1
  O  O14  1  0.50000000  0.00000000  0.49814000  1
  O  O15  1  0.00000000  0.50000000  0.00091500  1
  O  O16  1  0.50000000  0.50000000  0.43045600  1
  O  O17  1  0.00000000  0.00000000  0.93183700  1
  O  O18  1  0.00000000  0.00000000  0.06895100  1
  O  O19  1  0.50000000  0.50000000  0.56757900  1
loop_
_geom_bond_atom_site_label_1
_geom_bond_atom_site_label_2
_geom_bond_distance
_geom_bond_site_symmetry_2
Ce0 O0 2.310942 1_555
Ce0 O2 2.310942 1_455
Ce0 O0 2.310942 1_545
Ce0 O2 2.310942 1_555
Ce0 O6 2.526654 1_455
Ce0 O4 2.526654 1_555
Ce0 O4 2.526654 1_545
Ce0 O6 2.526654 1_555
Nb0 O17 1.968637 1_555
Nb0 O15 1.969712 1_556
Nb0 O15 1.969712 1_546
Nb0 O12 1.969712 1_456
Nb0 O12 1.969712 1_556
Nb0 O18 2.019421 1_556
Nb1 O19 1.953047 1_555
Nb1 O13 1.970422 1_555
Nb1 O13 1.970422 1_655
Nb1 O14 1.970422 1_555
Nb1 O14 1.970422 1_565
Nb1 O16 2.035273 1_555
Cu0 O4 1.983801 1_655
Cu0 O4 1.983801 1_555
Cu0 O6 1.983801 1_555
Cu0 O6 1.983801 1_565
Cu0 O16 2.158654 1_555
Cu1 O7 1.971471 1_555
Cu1 O5 1.971471 1_455
Cu1 O7 1.971471 1_545
Cu1 O5 1.971471 1_555
Cu1 O17 2.177706 1_555
Cu2 O10 1.981829 1_545
Cu2 O8 1.981829 1_455
Cu2 O10 1.981829 1_555
Cu2 O8 1.981829 1_555
Cu2 O18 2.155891 1_555
Cu3 O9 1.970194 1_555
Cu3 O11 1.970194 1_555
Cu3 O11 1.970194 1_565
Cu3 O9 1.970194 1_655
Cu3 O19 2.220927 1_555
O0 Sm1 2.388576 1_555
O0 Sm1 2.388576 1_455
O1 Sm2 2.306918 1_555
O1 Sm2 2.306918 1_655
O1 Sm0 2.310896 1_545
O1 Sm0 2.310896 1_555
O2 Sm1 2.388576 1_545
O2 Sm1 2.388576 1_555
O3 Sm2 2.306918 1_555
O3 Sm2 2.306918 1_565
O3 Sm0 2.310896 1_455
O3 Sm0 2.310896 1_555
O4 Sr0 2.912914 1_565
O4 Sr0 2.912914 1_555
O5 Sr1 2.668471 1_555
O5 Sr1 2.668471 1_545
O5 Sm0 2.674563 1_555
O5 Sm0 2.674563 1_545
O6 Sr0 2.912914 1_655
O6 Sr0 2.912914 1_555
O7 Sr1 2.668471 1_455
O7 Sr1 2.668471 1_555
O7 Sm0 2.674563 1_555
O7 Sm0 2.674563 1_455
O8 Sm1 2.533630 1_555
O8 Sm1 2.533630 1_545
O8 Sr2 2.849608 1_545
O8 Sr2 2.849608 1_555
O9 Sr3 2.646908 1_565
O9 Sr3 2.646908 1_555
O9 Sm2 2.683872 1_565
O9 Sm2 2.683872 1_555
O10 Sm1 2.533630 1_455
O10 Sm1 2.533630 1_555
O10 Sr2 2.849608 1_455
O10 Sr2 2.849608 1_555
O11 Sr3 2.646908 1_555
O11 Sr3 2.646908 1_655
O11 Sm2 2.683872 1_555
O11 Sm2 2.683872 1_655
O12 Sr2 3.026110 1_555
O12 Sr2 3.026110 1_545
O12 Sr1 3.165822 1_554
O12 Sr1 3.165822 1_544
O13 Sr0 2.967859 1_555
O13 Sr0 2.967859 1_565
O13 Sr3 3.207279 1_565
O13 Sr3 3.207279 1_555
O14 Sr0 2.967859 1_555
O14 Sr0 2.967859 1_655
O14 Sr3 3.207279 1_555
O14 Sr3 3.207279 1_655
O15 Sr2 3.026110 1_455
O15 Sr2 3.026110 1_555
O15 Sr1 3.165822 1_554
O15 Sr1 3.165822 1_454
O16 Sr0 2.796358 1_565
O16 Sr0 2.796358 1_665
O16 Sr0 2.796358 1_655
O16 Sr0 2.796358 1_555
O17 Sr1 2.824316 1_555
O17 Sr1 2.824316 1_455
O17 Sr1 2.824316 1_445
O17 Sr1 2.824316 1_545
O18 Sr2 2.803189 1_455
O18 Sr2 2.803189 1_545
O18 Sr2 2.803189 1_555
O18 Sr2 2.803189 1_445
O19 Sr3 2.831644 1_665
O19 Sr3 2.831644 1_565
O19 Sr3 2.831644 1_555
O19 Sr3 2.831644 1_655
