# generated using pymatgen
data_ErScS3
_symmetry_space_group_name_H-M   'P 1'
_cell_length_a   6.35345200
_cell_length_b   6.97091500
_cell_length_c   9.53949500
_cell_angle_alpha   90.00000000
_cell_angle_beta   90.00000000
_cell_angle_gamma   90.00000000
_symmetry_Int_Tables_number   1
_chemical_formula_structural   ErScS3
_chemical_formula_sum   'Er4 Sc4 S12'
_cell_volume   422.49826038
_cell_formula_units_Z   4
loop_
 _symmetry_equiv_pos_site_id
 _symmetry_equiv_pos_as_xyz
  1  'x, y, z'
loop_
 _atom_site_type_symbol
 _atom_site_label
 _atom_site_symmetry_multiplicity
 _atom_site_fract_x
 _atom_site_fract_y
 _atom_site_fract_z
 _atom_site_occupancy
  Er  Er0  1  0.45855800  0.60112600  0.50813800  1
  Er  Er1  1  0.54144200  0.39887400  0.00813800  1
  Er  Er2  1  0.95855800  0.89887400  0.00813800  1
  Er  Er3  1  0.04144200  0.10112600  0.50813800  1
  Sc  Sc0  1  0.99649600  0.50401600  0.26181600  1
  Sc  Sc1  1  0.00350400  0.49598400  0.76181600  1
  Sc  Sc2  1  0.49649600  0.99598400  0.76181600  1
  Sc  Sc3  1  0.50350400  0.00401600  0.26181600  1
  S  S0  1  0.17382700  0.81365500  0.68426000  1
  S  S1  1  0.82617300  0.18634500  0.18426000  1
  S  S2  1  0.67382700  0.68634500  0.18426000  1
  S  S3  1  0.32617300  0.31365500  0.68426000  1
  S  S4  1  0.17687800  0.81896600  0.33038800  1
  S  S5  1  0.82312200  0.18103400  0.83038800  1
  S  S6  1  0.67687800  0.68103400  0.83038800  1
  S  S7  1  0.32312200  0.31896600  0.33038800  1
  S  S8  1  0.14709900  0.54981200  0.01039800  1
  S  S9  1  0.85290100  0.45018800  0.51039800  1
  S  S10  1  0.64709900  0.95018800  0.51039800  1
  S  S11  1  0.35290100  0.04981200  0.01039800  1
loop_
_geom_bond_atom_site_label_1
_geom_bond_atom_site_label_2
_geom_bond_distance
_geom_bond_site_symmetry_2
Er0 S10 2.712242 1_555
Er0 S9 2.717492 1_555
Er0 S7 2.735763 1_555
Er0 S3 2.746998 1_555
Er0 S0 2.879282 1_555
Er0 S4 2.895514 1_555
Er0 S6 3.418245 1_555
Er0 S2 3.430647 1_555
Er1 S11 2.712242 1_555
Er1 S8 2.717492 1_555
Er1 S6 2.735763 1_554
Er1 S2 2.746998 1_555
Er1 S1 2.879282 1_555
Er1 S5 2.895514 1_554
Er1 S7 3.418245 1_555
Er1 S3 3.430647 1_554
Er2 S8 2.712242 1_655
Er2 S11 2.717492 1_665
Er2 S5 2.735763 1_564
Er2 S1 2.746998 1_565
Er2 S2 2.879282 1_555
Er2 S6 2.895514 1_554
Er2 S4 3.418245 1_655
Er2 S0 3.430647 1_654
Er3 S9 2.712242 1_455
Er3 S10 2.717492 1_445
Er3 S4 2.735763 1_545
Er3 S0 2.746998 1_545
Er3 S3 2.879282 1_555
Er3 S7 2.895514 1_555
Er3 S5 3.418245 1_455
Er3 S1 3.430647 1_455
S0 Sc2 2.523007 1_555
S0 Sc1 2.573367 1_555
S1 Sc3 2.523007 1_555
S1 Sc0 2.573367 1_555
S2 Sc0 2.523007 1_555
S2 Sc3 2.573367 1_565
S3 Sc1 2.523007 1_555
S3 Sc2 2.573367 1_545
S4 Sc3 2.529503 1_565
S4 Sc0 2.561543 1_455
S5 Sc2 2.529503 1_545
S5 Sc1 2.561543 1_655
S6 Sc1 2.529503 1_655
S6 Sc2 2.561543 1_555
S7 Sc0 2.529503 1_455
S7 Sc3 2.561543 1_555
S8 Sc1 2.568349 1_554
S8 Sc0 2.601884 1_455
S9 Sc0 2.568349 1_555
S9 Sc1 2.601884 1_655
S10 Sc3 2.568349 1_565
S10 Sc2 2.601884 1_555
S11 Sc2 2.568349 1_544
S11 Sc3 2.601884 1_555
