# generated using pymatgen
data_Li6(CoO2)5
_symmetry_space_group_name_H-M   'P 1'
_cell_length_a   5.45564800
_cell_length_b   6.26827010
_cell_length_c   8.24538224
_cell_angle_alpha   79.75919907
_cell_angle_beta   77.41908464
_cell_angle_gamma   67.36978789
_symmetry_Int_Tables_number   1
_chemical_formula_structural   Li6(CoO2)5
_chemical_formula_sum   'Li6 Co5 O10'
_cell_volume   252.62667110
_cell_formula_units_Z   1
loop_
 _symmetry_equiv_pos_site_id
 _symmetry_equiv_pos_as_xyz
  1  'x, y, z'
loop_
 _atom_site_type_symbol
 _atom_site_label
 _atom_site_symmetry_multiplicity
 _atom_site_fract_x
 _atom_site_fract_y
 _atom_site_fract_z
 _atom_site_occupancy
  Li  Li0  1  0.54264200  0.70967600  0.72441700  1
  Li  Li1  1  0.53302800  0.57485000  0.36656200  1
  Li  Li2  1  0.53727400  0.13390100  0.54989900  1
  Li  Li3  1  0.45899800  0.66315800  0.05264000  1
  Li  Li4  1  0.45677000  0.08384900  0.87158300  1
  Li  Li5  1  0.46336200  0.23604600  0.23796000  1
  Co  Co0  1  0.99940200  0.89571900  0.80136400  1
  Co  Co1  1  0.99903000  0.69858400  0.39027600  1
  Co  Co2  1  0.99545500  0.29655900  0.59548500  1
  Co  Co3  1  0.00400800  0.50504600  0.00252900  1
  Co  Co4  1  0.00329100  0.10641500  0.20877100  1
  O  O0  1  0.74494500  0.75156000  0.89265000  1
  O  O1  1  0.75455800  0.99544000  0.34471400  1
  O  O2  1  0.74370900  0.59349400  0.51635200  1
  O  O3  1  0.74640300  0.14442200  0.71162100  1
  O  O4  1  0.74497700  0.39766900  0.15846800  1
  O  O5  1  0.25482400  0.64036200  0.89864800  1
  O  O6  1  0.24600100  0.81153000  0.24946300  1
  O  O7  1  0.26172900  0.41542300  0.43857400  1
  O  O8  1  0.25304800  0.02943400  0.71253200  1
  O  O9  1  0.25653300  0.21687200  0.07550900  1
loop_
_geom_bond_atom_site_label_1
_geom_bond_atom_site_label_2
_geom_bond_distance
_geom_bond_site_symmetry_2
Li0 O2 1.920027 1_555
Li0 O5 2.009628 1_555
Li0 O8 2.020826 1_565
Li0 O0 2.056861 1_555
Li1 O2 1.906126 1_555
Li1 O6 1.986665 1_555
Li1 O7 2.021483 1_555
Li1 O4 2.083155 1_555
Li2 O3 1.958607 1_555
Li2 O1 1.969123 1_545
Li2 O8 2.048126 1_555
Li2 O7 2.049419 1_555
Li3 O5 1.917429 1_554
Li3 O6 1.931962 1_555
Li3 O0 1.997445 1_554
Li3 O4 2.010895 1_555
Li4 O9 1.926980 1_556
Li4 O3 1.938128 1_555
Li4 O8 2.038936 1_555
Li4 O0 2.076190 1_545
Li5 O1 1.966354 1_545
Li5 O9 1.975330 1_555
Li5 O7 2.031572 1_555
Li5 O4 2.083148 1_555
Co0 O3 1.806056 1_565
Co0 O8 1.840287 1_665
Co0 O5 1.860439 1_655
Co0 O0 1.891717 1_555
Co1 O2 1.812926 1_555
Co1 O7 1.844637 1_655
Co1 O6 1.850689 1_655
Co1 O1 1.855347 1_555
Co2 O2 1.941054 1_555
Co2 O3 1.943762 1_555
Co2 O8 1.978743 1_655
Co2 O7 2.002691 1_655
Co3 O5 1.857360 1_554
Co3 O9 1.892765 1_555
Co3 O0 1.893530 1_454
Co3 O4 1.932880 1_455
Co4 O1 1.835297 1_445
Co4 O6 1.836311 1_545
Co4 O9 1.843870 1_555
Co4 O4 1.869900 1_455
