# generated using pymatgen
data_SrO6
_symmetry_space_group_name_H-M   'P 1'
_cell_length_a   5.28893421
_cell_length_b   5.28893421
_cell_length_c   8.10441324
_cell_angle_alpha   101.17445478
_cell_angle_beta   78.82554522
_cell_angle_gamma   110.66460448
_symmetry_Int_Tables_number   1
_chemical_formula_structural   SrO6
_chemical_formula_sum   'Sr2 O12'
_cell_volume   206.14513686
_cell_formula_units_Z   2
loop_
 _symmetry_equiv_pos_site_id
 _symmetry_equiv_pos_as_xyz
  1  'x, y, z'
loop_
 _atom_site_type_symbol
 _atom_site_label
 _atom_site_symmetry_multiplicity
 _atom_site_fract_x
 _atom_site_fract_y
 _atom_site_fract_z
 _atom_site_occupancy
  Sr  Sr0  1  0.84008700  0.84008700  0.75000000  1
  Sr  Sr1  1  0.15991300  0.15991300  0.25000000  1
  O  O0  1  0.18368700  0.84552500  0.95299100  1
  O  O1  1  0.84552500  0.18368700  0.54700900  1
  O  O2  1  0.81631300  0.15447500  0.04700900  1
  O  O3  1  0.15447500  0.81631300  0.45299100  1
  O  O4  1  0.34657900  0.93185900  0.81497000  1
  O  O5  1  0.93185900  0.34657900  0.68503000  1
  O  O6  1  0.65342100  0.06814100  0.18503000  1
  O  O7  1  0.06814100  0.65342100  0.31497000  1
  O  O8  1  0.47635300  0.45076500  0.57021800  1
  O  O9  1  0.45076500  0.47635300  0.92978200  1
  O  O10  1  0.52364700  0.54923500  0.42978200  1
  O  O11  1  0.54923500  0.52364700  0.07021800  1
loop_
_geom_bond_atom_site_label_1
_geom_bond_atom_site_label_2
_geom_bond_distance
_geom_bond_site_symmetry_2
O0 O4 1.322400 1_555
O0 Sr1 2.655865 1_566
O0 Sr0 2.667076 1_455
O1 O5 1.322400 1_555
O1 Sr1 2.655865 1_655
O1 Sr0 2.667076 1_545
O2 O6 1.322400 1_555
O2 Sr0 2.655865 1_544
O2 Sr1 2.667076 1_655
O3 O7 1.322400 1_555
O3 Sr0 2.655865 1_455
O3 Sr1 2.667076 1_565
O4 Sr0 2.686778 1_455
O4 Sr0 2.754640 1_555
O5 Sr0 2.686778 1_545
O5 Sr0 2.754640 1_555
O6 Sr1 2.686778 1_655
O6 Sr1 2.754640 1_555
O7 Sr1 2.686778 1_565
O7 Sr1 2.754640 1_555
O8 Sr0 2.681689 1_555
O9 Sr0 2.681689 1_555
O10 O8 1.287108 1_555
O10 Sr1 2.681689 1_555
O11 O9 1.287108 1_554
O11 Sr1 2.681689 1_555
