# generated using pymatgen
data_TiTe(PO4)3
_symmetry_space_group_name_H-M   'P 1'
_cell_length_a   8.93639908
_cell_length_b   8.93639827
_cell_length_c   8.93639838
_cell_angle_alpha   58.48003571
_cell_angle_beta   58.48003709
_cell_angle_gamma   58.48003466
_symmetry_Int_Tables_number   1
_chemical_formula_structural   TiTe(PO4)3
_chemical_formula_sum   'Ti2 Te2 P6 O24'
_cell_volume   487.08127696
_cell_formula_units_Z   2
loop_
 _symmetry_equiv_pos_site_id
 _symmetry_equiv_pos_as_xyz
  1  'x, y, z'
loop_
 _atom_site_type_symbol
 _atom_site_label
 _atom_site_symmetry_multiplicity
 _atom_site_fract_x
 _atom_site_fract_y
 _atom_site_fract_z
 _atom_site_occupancy
  Ti  Ti0  1  0.13906500  0.13906500  0.13906500  1
  Ti  Ti1  1  0.63906500  0.63906500  0.63906500  1
  Te  Te0  1  0.35638600  0.35638600  0.35638600  1
  Te  Te1  1  0.85638600  0.85638600  0.85638600  1
  P  P0  1  0.03435300  0.45997700  0.75011200  1
  P  P1  1  0.45997700  0.75011200  0.03435300  1
  P  P2  1  0.75011200  0.03435300  0.45997700  1
  P  P3  1  0.25011200  0.95997700  0.53435300  1
  P  P4  1  0.53435300  0.25011200  0.95997700  1
  P  P5  1  0.95997700  0.53435300  0.25011200  1
  O  O0  1  0.12862800  0.52231900  0.27210300  1
  O  O1  1  0.27210300  0.12862800  0.52231900  1
  O  O2  1  0.06125600  0.28510700  0.92339800  1
  O  O3  1  0.52231900  0.27210300  0.12862800  1
  O  O4  1  0.02231900  0.62862800  0.77210300  1
  O  O5  1  0.22056800  0.43967100  0.57932000  1
  O  O6  1  0.28510700  0.92339800  0.06125600  1
  O  O7  1  0.43967100  0.57932000  0.22056800  1
  O  O8  1  0.21280200  0.99972000  0.36696000  1
  O  O9  1  0.57932000  0.22056800  0.43967100  1
  O  O10  1  0.07932000  0.93967100  0.72056800  1
  O  O11  1  0.36696000  0.21280200  0.99972000  1
  O  O12  1  0.62862800  0.77210300  0.02231900  1
  O  O13  1  0.92339800  0.06125600  0.28510700  1
  O  O14  1  0.42339800  0.78510700  0.56125600  1
  O  O15  1  0.77210300  0.02231900  0.62862800  1
  O  O16  1  0.56125600  0.42339800  0.78510700  1
  O  O17  1  0.72056800  0.07932000  0.93967100  1
  O  O18  1  0.78510700  0.56125600  0.42339800  1
  O  O19  1  0.99972000  0.36696000  0.21280200  1
  O  O20  1  0.49972000  0.71280200  0.86696000  1
  O  O21  1  0.93967100  0.72056800  0.07932000  1
  O  O22  1  0.71280200  0.86696000  0.49972000  1
  O  O23  1  0.86696000  0.49972000  0.71280200  1
loop_
_geom_bond_atom_site_label_1
_geom_bond_atom_site_label_2
_geom_bond_distance
_geom_bond_site_symmetry_2
O0 P5 1.561971 1_455
O0 Te0 2.046491 1_555
O1 P3 1.561971 1_545
O1 Te0 2.046491 1_555
O2 P0 1.537547 1_555
O2 Ti0 1.929658 1_556
O3 P4 1.561971 1_554
O3 Te0 2.046491 1_555
O4 P0 1.561971 1_555
O4 Te1 2.046491 1_455
O5 P0 1.565192 1_555
O5 Te0 2.018318 1_555
O6 P1 1.537547 1_555
O6 Ti0 1.929658 1_565
O7 P1 1.565192 1_555
O7 Te0 2.018318 1_555
O8 P3 1.522226 1_555
O8 Ti0 2.006487 1_565
O9 P2 1.565192 1_555
O9 Te0 2.018318 1_555
O10 P3 1.565192 1_555
O10 Te1 2.018318 1_455
O11 P4 1.522226 1_555
O11 Ti0 2.006487 1_556
O12 P1 1.561971 1_555
O12 Te1 2.046491 1_554
O13 P2 1.537547 1_555
O13 Ti0 1.929658 1_655
O14 P3 1.537547 1_555
O14 Ti1 1.929658 1_555
O15 P2 1.561971 1_555
O15 Te1 2.046491 1_545
O16 P4 1.537547 1_555
O16 Ti1 1.929658 1_555
O17 P4 1.565192 1_555
O17 Te1 2.018318 1_545
O18 P5 1.537547 1_555
O18 Ti1 1.929658 1_555
O19 P5 1.522226 1_555
O19 Ti0 2.006487 1_655
O20 P1 1.522226 1_556
O20 Ti1 2.006487 1_555
O21 P5 1.565192 1_555
O21 Te1 2.018318 1_554
O22 P2 1.522226 1_565
O22 Ti1 2.006487 1_555
O23 P0 1.522226 1_655
O23 Ti1 2.006487 1_555
