# generated using pymatgen
data_Nd2Hf2O7
_symmetry_space_group_name_H-M   'P 1'
_cell_length_a   7.52253388
_cell_length_b   7.52253388
_cell_length_c   7.52253388
_cell_angle_alpha   60.00000000
_cell_angle_beta   60.00000000
_cell_angle_gamma   60.00000000
_symmetry_Int_Tables_number   1
_chemical_formula_structural   Nd2Hf2O7
_chemical_formula_sum   'Nd4 Hf4 O14'
_cell_volume   301.00759913
_cell_formula_units_Z   2
loop_
 _symmetry_equiv_pos_site_id
 _symmetry_equiv_pos_as_xyz
  1  'x, y, z'
loop_
 _atom_site_type_symbol
 _atom_site_label
 _atom_site_symmetry_multiplicity
 _atom_site_fract_x
 _atom_site_fract_y
 _atom_site_fract_z
 _atom_site_occupancy
  Nd  Nd0  1  0.62500000  0.12500000  0.12500000  1
  Nd  Nd1  1  0.12500000  0.62500000  0.12500000  1
  Nd  Nd2  1  0.12500000  0.12500000  0.62500000  1
  Nd  Nd3  1  0.12500000  0.12500000  0.12500000  1
  Hf  Hf0  1  0.12500000  0.62500000  0.62500000  1
  Hf  Hf1  1  0.62500000  0.12500000  0.62500000  1
  Hf  Hf2  1  0.62500000  0.62500000  0.12500000  1
  Hf  Hf3  1  0.62500000  0.62500000  0.62500000  1
  O  O0  1  0.70706803  0.70706803  0.29293197  1
  O  O1  1  0.29293197  0.29293197  0.70706803  1
  O  O2  1  0.70706803  0.29293197  0.70706803  1
  O  O3  1  0.29293197  0.70706803  0.29293197  1
  O  O4  1  0.29293197  0.70706803  0.70706803  1
  O  O5  1  0.70706803  0.29293197  0.29293197  1
  O  O6  1  0.54293197  0.54293197  0.95706803  1
  O  O7  1  0.95706803  0.95706803  0.54293197  1
  O  O8  1  0.54293197  0.95706803  0.54293197  1
  O  O9  1  0.95706803  0.54293197  0.95706803  1
  O  O10  1  0.95706803  0.54293197  0.54293197  1
  O  O11  1  0.54293197  0.95706803  0.95706803  1
  O  O12  1  0.25000000  0.25000000  0.25000000  1
  O  O13  1  0.00000000  0.00000000  0.00000000  1
loop_
_geom_bond_atom_site_label_1
_geom_bond_atom_site_label_2
_geom_bond_distance
_geom_bond_site_symmetry_2
Nd0 O13 2.303296 1_655
Nd0 O12 2.303296 1_555
Nd0 O11 2.593936 1_544
Nd0 O2 2.593936 1_554
Nd0 O0 2.593936 1_545
Nd0 O5 2.593936 1_555
Nd0 O6 2.593936 1_554
Nd0 O8 2.593936 1_545
Nd1 O12 2.303296 1_555
Nd1 O13 2.303296 1_565
Nd1 O9 2.593936 1_454
Nd1 O4 2.593936 1_554
Nd1 O0 2.593936 1_455
Nd1 O10 2.593936 1_455
Nd1 O3 2.593936 1_555
Nd1 O6 2.593936 1_554
Nd2 O12 2.303296 1_555
Nd2 O13 2.303296 1_556
Nd2 O7 2.593936 1_445
Nd2 O2 2.593936 1_455
Nd2 O4 2.593936 1_545
Nd2 O8 2.593936 1_545
Nd2 O1 2.593936 1_555
Nd2 O10 2.593936 1_455
Nd3 O12 2.303296 1_555
Nd3 O13 2.303296 1_555
Nd3 O11 2.593936 1_544
Nd3 O9 2.593936 1_454
Nd3 O5 2.593936 1_455
Nd3 O1 2.593936 1_554
Nd3 O3 2.593936 1_545
Nd3 O7 2.593936 1_445
Hf0 O10 2.073415 1_455
Hf0 O1 2.073415 1_555
Hf0 O3 2.073415 1_555
Hf0 O7 2.073415 1_455
Hf0 O4 2.073415 1_555
Hf0 O9 2.073415 1_455
Hf1 O8 2.073415 1_545
Hf1 O1 2.073415 1_555
Hf1 O5 2.073415 1_555
Hf1 O2 2.073415 1_555
Hf1 O7 2.073415 1_545
Hf1 O11 2.073415 1_545
Hf2 O6 2.073415 1_554
Hf2 O5 2.073415 1_555
Hf2 O3 2.073415 1_555
Hf2 O9 2.073415 1_554
Hf2 O0 2.073415 1_555
Hf2 O11 2.073415 1_554
Hf3 O0 2.073415 1_555
Hf3 O4 2.073415 1_555
Hf3 O2 2.073415 1_555
Hf3 O6 2.073415 1_555
Hf3 O8 2.073415 1_555
Hf3 O10 2.073415 1_555
