# generated using pymatgen
data_In2TeAs
_symmetry_space_group_name_H-M   'P 1'
_cell_length_a   4.70111500
_cell_length_b   4.70111500
_cell_length_c   6.58360800
_cell_angle_alpha   90.00000000
_cell_angle_beta   90.00000000
_cell_angle_gamma   90.00000000
_symmetry_Int_Tables_number   1
_chemical_formula_structural   In2TeAs
_chemical_formula_sum   'In2 Te1 As1'
_cell_volume   145.50091170
_cell_formula_units_Z   1
loop_
 _symmetry_equiv_pos_site_id
 _symmetry_equiv_pos_as_xyz
  1  'x, y, z'
loop_
 _atom_site_type_symbol
 _atom_site_label
 _atom_site_symmetry_multiplicity
 _atom_site_fract_x
 _atom_site_fract_y
 _atom_site_fract_z
 _atom_site_occupancy
  In  In0  1  0.50000000  0.00000000  0.78115100  1
  In  In1  1  0.00000000  0.50000000  0.21884900  1
  Te  Te0  1  0.00000000  0.00000000  0.50000000  1
  As  As0  1  0.50000000  0.50000000  0.00000000  1
loop_
_geom_bond_atom_site_label_1
_geom_bond_atom_site_label_2
_geom_bond_distance
_geom_bond_site_symmetry_2
In0 Te0 2.991868 1_655
In0 Te0 2.991868 1_555
In1 Te0 2.991868 1_555
In1 Te0 2.991868 1_565
As0 In1 2.757004 1_555
As0 In1 2.757004 1_655
As0 In0 2.757004 1_564
As0 In0 2.757004 1_554
