# generated using pymatgen
data_BaZr(AsO4)2
_symmetry_space_group_name_H-M   'P 1'
_cell_length_a   5.22870817
_cell_length_b   5.22870817
_cell_length_c   8.10755141
_cell_angle_alpha   87.79994005
_cell_angle_beta   87.79994005
_cell_angle_gamma   65.75052563
_symmetry_Int_Tables_number   1
_chemical_formula_structural   BaZr(AsO4)2
_chemical_formula_sum   'Ba1 Zr1 As2 O8'
_cell_volume   201.88667641
_cell_formula_units_Z   1
loop_
 _symmetry_equiv_pos_site_id
 _symmetry_equiv_pos_as_xyz
  1  'x, y, z'
loop_
 _atom_site_type_symbol
 _atom_site_label
 _atom_site_symmetry_multiplicity
 _atom_site_fract_x
 _atom_site_fract_y
 _atom_site_fract_z
 _atom_site_occupancy
  Ba  Ba0  1  0.00000000  0.00000000  0.50000000  1
  Zr  Zr0  1  0.00000000  0.00000000  0.00000000  1
  As  As0  1  0.36495100  0.36495100  0.78334200  1
  As  As1  1  0.63505000  0.63505000  0.21665800  1
  O  O0  1  0.29949300  0.29949300  0.59083500  1
  O  O1  1  0.70050700  0.70050700  0.40916500  1
  O  O2  1  0.72594800  0.22852300  0.80625400  1
  O  O3  1  0.27405200  0.77147700  0.19374600  1
  O  O4  1  0.77147700  0.27405200  0.19374600  1
  O  O5  1  0.22852300  0.72594800  0.80625400  1
  O  O6  1  0.23233300  0.23233300  0.94503100  1
  O  O7  1  0.76766700  0.76766700  0.05496900  1
loop_
_geom_bond_atom_site_label_1
_geom_bond_atom_site_label_2
_geom_bond_distance
_geom_bond_site_symmetry_2
Ba0 O1 2.763736 1_445
Ba0 O0 2.763736 1_555
Ba0 O2 2.862583 1_455
Ba0 O5 2.862583 1_545
Ba0 O4 2.862583 1_455
Ba0 O3 2.862583 1_545
As0 O0 1.687752 1_555
As0 O6 1.713333 1_555
As0 O5 1.736932 1_555
As0 O2 1.736932 1_555
As1 O1 1.687749 1_555
As1 O7 1.713328 1_555
As1 O4 1.736937 1_555
As1 O3 1.736937 1_555
O2 Zr0 2.137934 1_656
O3 Zr0 2.137934 1_565
O4 Zr0 2.137934 1_655
O5 Zr0 2.137934 1_566
O6 Zr0 2.068616 1_556
O7 Zr0 2.068616 1_665
