# generated using pymatgen
data_Yb14Hg51
_symmetry_space_group_name_H-M   'P 1'
_cell_length_a   13.70806926
_cell_length_b   13.70806926
_cell_length_c   10.20507500
_cell_angle_alpha   90.00000000
_cell_angle_beta   90.00000000
_cell_angle_gamma   119.99999642
_symmetry_Int_Tables_number   1
_chemical_formula_structural   Yb14Hg51
_chemical_formula_sum   'Yb14 Hg51'
_cell_volume   1660.73151868
_cell_formula_units_Z   1
loop_
 _symmetry_equiv_pos_site_id
 _symmetry_equiv_pos_as_xyz
  1  'x, y, z'
loop_
 _atom_site_type_symbol
 _atom_site_label
 _atom_site_symmetry_multiplicity
 _atom_site_fract_x
 _atom_site_fract_y
 _atom_site_fract_z
 _atom_site_occupancy
  Yb  Yb0  1  0.79665800  0.99170600  0.50000000  1
  Yb  Yb1  1  0.19504700  0.20334200  0.50000000  1
  Yb  Yb2  1  0.00829400  0.80495300  0.50000000  1
  Yb  Yb3  1  0.86705800  0.33871900  0.50000000  1
  Yb  Yb4  1  0.47166100  0.13294200  0.50000000  1
  Yb  Yb5  1  0.66128100  0.52833900  0.50000000  1
  Yb  Yb6  1  0.44970100  0.38926300  0.00000000  1
  Yb  Yb7  1  0.93956300  0.55029900  0.00000000  1
  Yb  Yb8  1  0.61073700  0.06043700  0.00000000  1
  Yb  Yb9  1  0.21714700  0.95184800  0.00000000  1
  Yb  Yb10  1  0.73470200  0.78285300  0.00000000  1
  Yb  Yb11  1  0.04815200  0.26529800  0.00000000  1
  Yb  Yb12  1  0.33333300  0.66666700  0.68695200  1
  Yb  Yb13  1  0.33333300  0.66666700  0.31304800  1
  Hg  Hg0  1  0.82517400  0.04322400  0.85243100  1
  Hg  Hg1  1  0.21805100  0.17482600  0.85243100  1
  Hg  Hg2  1  0.95677600  0.78194900  0.85243100  1
  Hg  Hg3  1  0.83834200  0.28651800  0.85380200  1
  Hg  Hg4  1  0.44817600  0.16165800  0.85380200  1
  Hg  Hg5  1  0.71348200  0.55182400  0.85380200  1
  Hg  Hg6  1  0.83834200  0.28651800  0.14619800  1
  Hg  Hg7  1  0.44817600  0.16165800  0.14619800  1
  Hg  Hg8  1  0.71348200  0.55182400  0.14619800  1
  Hg  Hg9  1  0.82517400  0.04322400  0.14756900  1
  Hg  Hg10  1  0.21805100  0.17482600  0.14756900  1
  Hg  Hg11  1  0.95677600  0.78194900  0.14756900  1
  Hg  Hg12  1  0.43649700  0.32269200  0.65782400  1
  Hg  Hg13  1  0.88619500  0.56350300  0.65782400  1
  Hg  Hg14  1  0.67730800  0.11380500  0.65782400  1
  Hg  Hg15  1  0.22776300  0.00563200  0.65949300  1
  Hg  Hg16  1  0.77786900  0.77223700  0.65949300  1
  Hg  Hg17  1  0.99436800  0.22213100  0.65949300  1
  Hg  Hg18  1  0.22776300  0.00563200  0.34050700  1
  Hg  Hg19  1  0.77786900  0.77223700  0.34050700  1
  Hg  Hg20  1  0.99436800  0.22213100  0.34050700  1
  Hg  Hg21  1  0.43649700  0.32269200  0.34217600  1
  Hg  Hg22  1  0.88619500  0.56350300  0.34217600  1
  Hg  Hg23  1  0.67730800  0.11380500  0.34217600  1
  Hg  Hg24  1  0.38759200  0.48494400  0.50000000  1
  Hg  Hg25  1  0.09735200  0.61240800  0.50000000  1
  Hg  Hg26  1  0.51505600  0.90264800  0.50000000  1
  Hg  Hg27  1  0.27888700  0.84428400  0.50000000  1
  Hg  Hg28  1  0.56539700  0.72111300  0.50000000  1
  Hg  Hg29  1  0.15571600  0.43460300  0.50000000  1
  Hg  Hg30  1  0.00000000  0.00000000  0.00000000  1
  Hg  Hg31  1  0.66666700  0.33333300  0.00000000  1
  Hg  Hg32  1  0.52170100  0.58278400  0.77374300  1
  Hg  Hg33  1  0.06108300  0.47829900  0.77374300  1
  Hg  Hg34  1  0.41721600  0.93891700  0.77374300  1
  Hg  Hg35  1  0.14553400  0.74200200  0.78311300  1
  Hg  Hg36  1  0.59646900  0.85446600  0.78311300  1
  Hg  Hg37  1  0.25799800  0.40353100  0.78311300  1
  Hg  Hg38  1  0.14553400  0.74200200  0.21688700  1
  Hg  Hg39  1  0.59646900  0.85446600  0.21688700  1
  Hg  Hg40  1  0.25799800  0.40353100  0.21688700  1
  Hg  Hg41  1  0.52170100  0.58278400  0.22625700  1
  Hg  Hg42  1  0.06108300  0.47829900  0.22625700  1
  Hg  Hg43  1  0.41721600  0.93891700  0.22625700  1
  Hg  Hg44  1  0.00000000  0.00000000  0.66786200  1
  Hg  Hg45  1  0.66666700  0.33333300  0.67104800  1
  Hg  Hg46  1  0.66666700  0.33333300  0.32895200  1
  Hg  Hg47  1  0.00000000  0.00000000  0.33213800  1
  Hg  Hg48  1  0.46606400  0.68427100  0.00000000  1
  Hg  Hg49  1  0.21820700  0.53393600  0.00000000  1
  Hg  Hg50  1  0.31572900  0.78179300  0.00000000  1
loop_
_geom_bond_atom_site_label_1
_geom_bond_atom_site_label_2
_geom_bond_distance
_geom_bond_site_symmetry_2
Hg0 Hg36 2.985360 1_545
Hg0 Hg9 3.011905 1_556
Hg0 Hg17 3.095569 1_555
Hg0 Hg30 3.127666 1_656
Hg0 Hg3 3.248631 1_555
Hg0 Hg14 3.309067 1_555
Hg0 Hg44 3.325978 1_655
Hg0 Yb11 3.401905 1_656
Hg0 Yb8 3.414371 1_556
Hg0 Yb10 3.481173 1_546
Hg0 Yb0 3.648411 1_545
Hg1 Hg37 2.985360 1_555
Hg1 Hg10 3.011905 1_556
Hg1 Hg15 3.095563 1_555
Hg1 Hg30 3.127674 1_556
Hg1 Hg4 3.248617 1_555
Hg1 Hg12 3.309059 1_555
Hg1 Hg44 3.325985 1_555
Hg1 Yb9 3.401905 1_546
Hg1 Yb6 3.414371 1_556
Hg1 Yb11 3.481173 1_556
Hg1 Yb1 3.648415 1_555
Hg2 Hg35 2.985360 1_655
Hg2 Hg30 3.127678 1_666
Hg2 Hg5 3.248624 1_555
Hg2 Hg44 3.325989 1_665
Hg2 Yb10 3.401905 1_556
Hg2 Yb7 3.414371 1_556
Hg2 Yb9 3.481173 1_656
Hg2 Yb2 3.648411 1_655
Hg3 Hg33 2.979046 1_655
Hg3 Hg6 2.983923 1_556
Hg3 Hg31 3.112265 1_556
Hg3 Hg45 3.307346 1_555
Hg3 Yb11 3.379211 1_656
Hg3 Yb8 3.449023 1_556
Hg3 Yb7 3.494124 1_556
Hg3 Yb3 3.663547 1_555
Hg4 Hg7 2.983923 1_556
Hg4 Hg45 3.307354 1_555
Hg4 Yb9 3.379204 1_546
Hg4 Yb6 3.449017 1_556
Hg4 Yb8 3.494136 1_556
Hg4 Yb4 3.663547 1_555
Hg5 Hg8 2.983923 1_556
Hg5 Yb10 3.379199 1_556
Hg5 Yb7 3.449030 1_556
Hg5 Yb6 3.494126 1_556
Hg5 Yb5 3.663547 1_555
Hg6 Hg9 3.248631 1_555
Hg6 Yb11 3.379211 1_655
Hg6 Yb8 3.449023 1_555
Hg6 Yb7 3.494124 1_555
Hg6 Yb3 3.663547 1_555
Hg7 Yb9 3.379204 1_545
Hg7 Yb6 3.449017 1_555
Hg7 Yb8 3.494136 1_555
Hg7 Yb4 3.663547 1_555
Hg8 Yb10 3.379199 1_555
Hg8 Yb7 3.449030 1_555
Hg8 Yb6 3.494126 1_555
Hg8 Yb5 3.663547 1_555
Hg9 Yb11 3.401905 1_655
Hg9 Yb8 3.414371 1_555
Hg9 Yb10 3.481173 1_545
Hg9 Yb0 3.648411 1_545
Hg10 Hg40 2.985360 1_555
Hg10 Hg18 3.095563 1_555
Hg10 Hg30 3.127674 1_555
Hg10 Hg7 3.248617 1_555
Hg10 Hg21 3.309059 1_555
Hg10 Hg47 3.325985 1_555
Hg10 Yb9 3.401905 1_545
Hg10 Yb6 3.414371 1_555
Hg10 Yb11 3.481173 1_555
Hg10 Yb1 3.648415 1_555
Hg11 Hg38 2.985360 1_655
Hg11 Hg2 3.011905 1_554
Hg11 Hg19 3.095574 1_555
Hg11 Hg30 3.127678 1_665
Hg11 Hg8 3.248624 1_555
Hg11 Hg22 3.309056 1_555
Hg11 Hg47 3.325989 1_665
Hg11 Yb10 3.401905 1_555
Hg11 Yb7 3.414371 1_555
Hg11 Yb9 3.481173 1_655
Hg11 Yb2 3.648411 1_655
Hg12 Hg4 3.041681 1_555
Hg12 Hg24 3.079194 1_555
Hg12 Yb1 3.287941 1_555
Hg12 Yb4 3.293322 1_555
Hg12 Hg32 3.363197 1_555
Hg12 Yb5 3.368869 1_555
Hg12 Yb6 3.590813 1_556
Hg13 Hg5 3.041681 1_555
Hg13 Hg25 3.079194 1_655
Hg13 Yb2 3.287941 1_655
Hg13 Yb5 3.293322 1_555
Hg13 Hg2 3.309056 1_555
Hg13 Hg33 3.363197 1_655
Hg13 Yb3 3.368869 1_555
Hg13 Yb7 3.590816 1_556
Hg14 Hg3 3.041681 1_555
Hg14 Hg26 3.079194 1_545
Hg14 Yb0 3.287930 1_545
Hg14 Yb3 3.293322 1_555
Hg14 Hg34 3.363197 1_545
Hg14 Yb4 3.368869 1_555
Hg14 Yb8 3.590814 1_556
Hg15 Hg27 3.095529 1_545
Hg15 Yb2 3.315372 1_545
Hg15 Yb4 3.322379 1_555
Hg15 Hg4 3.342657 1_555
Hg15 Hg34 3.363842 1_545
Hg15 Yb1 3.378032 1_555
Hg15 Yb9 3.540111 1_546
Hg16 Hg28 3.095529 1_555
Hg16 Hg2 3.095574 1_555
Hg16 Yb0 3.315377 1_555
Hg16 Yb5 3.322379 1_555
Hg16 Hg5 3.342657 1_555
Hg16 Hg32 3.363842 1_555
Hg16 Yb2 3.378020 1_655
Hg16 Yb10 3.540108 1_556
Hg17 Hg29 3.095529 1_655
Hg17 Yb1 3.315365 1_655
Hg17 Yb3 3.322379 1_555
Hg17 Hg3 3.342657 1_555
Hg17 Hg33 3.363842 1_655
Hg17 Yb0 3.378025 1_545
Hg17 Yb11 3.540110 1_656
Hg18 Hg27 3.095529 1_545
Hg18 Yb2 3.315372 1_545
Hg18 Yb4 3.322379 1_555
Hg18 Hg7 3.342657 1_555
Hg18 Hg43 3.363842 1_545
Hg18 Yb1 3.378032 1_555
Hg18 Yb9 3.540111 1_545
Hg19 Hg28 3.095529 1_555
Hg19 Yb0 3.315377 1_555
Hg19 Yb5 3.322379 1_555
Hg19 Hg8 3.342657 1_555
Hg19 Hg41 3.363842 1_555
Hg19 Yb2 3.378020 1_655
Hg19 Yb10 3.540108 1_555
Hg20 Hg29 3.095529 1_655
Hg20 Hg9 3.095569 1_555
Hg20 Yb1 3.315365 1_655
Hg20 Yb3 3.322379 1_555
Hg20 Hg6 3.342657 1_555
Hg20 Hg42 3.363842 1_655
Hg20 Yb0 3.378025 1_545
Hg20 Yb11 3.540110 1_655
Hg21 Hg7 3.041681 1_555
Hg21 Hg24 3.079194 1_555
Hg21 Yb1 3.287941 1_555
Hg21 Yb4 3.293322 1_555
Hg21 Hg41 3.363197 1_555
Hg21 Yb5 3.368869 1_555
Hg21 Yb6 3.590813 1_555
Hg22 Hg8 3.041681 1_555
Hg22 Hg25 3.079194 1_655
Hg22 Yb2 3.287941 1_655
Hg22 Yb5 3.293322 1_555
Hg22 Hg42 3.363197 1_655
Hg22 Yb3 3.368869 1_555
Hg22 Yb7 3.590816 1_555
Hg23 Hg6 3.041681 1_555
Hg23 Hg26 3.079194 1_545
Hg23 Yb0 3.287930 1_545
Hg23 Yb3 3.293322 1_555
Hg23 Hg9 3.309067 1_555
Hg23 Hg43 3.363197 1_545
Hg23 Yb4 3.368869 1_555
Hg23 Yb8 3.590814 1_555
Hg24 Hg29 2.895871 1_555
Hg24 Hg28 2.920764 1_555
Hg24 Hg32 3.242967 1_555
Hg24 Hg41 3.242967 1_555
Hg24 Hg37 3.281191 1_555
Hg24 Hg40 3.281191 1_555
Hg24 Yb1 3.417469 1_555
Hg24 Yb5 3.492521 1_555
Hg24 Yb12 3.500201 1_555
Hg24 Yb13 3.500201 1_555
Hg25 Hg27 2.895871 1_555
Hg25 Hg29 2.920764 1_555
Hg25 Hg33 3.242967 1_555
Hg25 Hg42 3.242967 1_555
Hg25 Hg38 3.281190 1_555
Hg25 Hg35 3.281190 1_555
Hg25 Yb2 3.417479 1_555
Hg25 Yb3 3.492521 1_455
Hg25 Yb12 3.500190 1_555
Hg25 Yb13 3.500190 1_555
Hg26 Hg28 2.895871 1_555
Hg26 Hg27 2.920764 1_555
Hg26 Hg34 3.242967 1_555
Hg26 Hg43 3.242967 1_555
Hg26 Hg36 3.281196 1_555
Hg26 Hg39 3.281196 1_555
Hg26 Yb0 3.417466 1_555
Hg26 Yb4 3.492521 1_565
Hg26 Yb12 3.500193 1_555
Hg26 Yb13 3.500193 1_555
Hg27 Hg43 3.259242 1_555
Hg27 Hg34 3.259242 1_555
Hg27 Hg35 3.330445 1_555
Hg27 Hg38 3.330445 1_555
Hg27 Yb12 3.455770 1_555
Hg27 Yb13 3.455770 1_555
Hg27 Yb2 3.471277 1_555
Hg27 Yb4 3.490568 1_565
Hg28 Hg41 3.259242 1_555
Hg28 Hg32 3.259242 1_555
Hg28 Hg36 3.330443 1_555
Hg28 Hg39 3.330443 1_555
Hg28 Yb12 3.455782 1_555
Hg28 Yb13 3.455782 1_555
Hg28 Yb0 3.471272 1_555
Hg28 Yb5 3.490568 1_555
Hg29 Hg33 3.259242 1_555
Hg29 Hg42 3.259242 1_555
Hg29 Hg37 3.330449 1_555
Hg29 Hg40 3.330449 1_555
Hg29 Yb13 3.455778 1_555
Hg29 Yb12 3.455778 1_555
Hg29 Yb1 3.471264 1_555
Hg29 Yb3 3.490568 1_455
Hg30 Hg9 3.127666 1_455
Hg30 Yb11 3.355735 1_555
Hg30 Yb10 3.355740 1_445
Hg30 Yb9 3.355748 1_545
Hg31 Hg6 3.112265 1_555
Hg31 Hg7 3.112273 1_555
Hg31 Hg4 3.112273 1_554
Hg31 Hg5 3.112277 1_554
Hg31 Hg8 3.112277 1_555
Hg31 Yb6 3.422554 1_555
Hg31 Yb8 3.422554 1_555
Hg31 Yb7 3.422554 1_555
Hg32 Hg5 2.979046 1_555
Hg32 Hg48 2.984871 1_556
Hg32 Hg37 3.198713 1_555
Hg32 Yb6 3.274837 1_556
Hg32 Hg36 3.333539 1_555
Hg32 Yb12 3.426866 1_555
Hg32 Yb10 3.656581 1_556
Hg32 Yb5 3.667431 1_555
Hg33 Hg49 2.984871 1_556
Hg33 Hg35 3.198710 1_555
Hg33 Yb7 3.274827 1_456
Hg33 Hg37 3.333552 1_555
Hg33 Yb12 3.426856 1_555
Hg33 Yb11 3.656585 1_556
Hg33 Yb3 3.667431 1_455
Hg34 Hg4 2.979046 1_565
Hg34 Hg50 2.984871 1_556
Hg34 Hg36 3.198723 1_555
Hg34 Yb8 3.274835 1_566
Hg34 Hg35 3.333543 1_555
Hg34 Yb12 3.426853 1_555
Hg34 Yb9 3.656575 1_556
Hg34 Yb4 3.667431 1_565
Hg35 Hg50 3.060548 1_556
Hg35 Yb9 3.363548 1_556
Hg35 Yb12 3.363829 1_555
Hg35 Yb7 3.515236 1_456
Hg35 Yb2 3.775551 1_555
Hg36 Hg48 3.060551 1_556
Hg36 Yb10 3.363548 1_556
Hg36 Yb12 3.363848 1_555
Hg36 Yb8 3.515236 1_566
Hg36 Yb0 3.775538 1_555
Hg37 Hg49 3.060557 1_556
Hg37 Yb11 3.363548 1_556
Hg37 Yb12 3.363855 1_555
Hg37 Yb6 3.515236 1_556
Hg37 Yb1 3.775534 1_555
Hg38 Hg50 3.060548 1_555
Hg38 Hg42 3.198710 1_555
Hg38 Hg43 3.333543 1_555
Hg38 Yb9 3.363548 1_555
Hg38 Yb13 3.363829 1_555
Hg38 Yb7 3.515236 1_455
Hg38 Yb2 3.775551 1_555
Hg39 Hg9 2.985360 1_565
Hg39 Hg48 3.060551 1_555
Hg39 Hg43 3.198723 1_555
Hg39 Hg41 3.333539 1_555
Hg39 Yb10 3.363548 1_555
Hg39 Yb13 3.363848 1_555
Hg39 Yb8 3.515236 1_565
Hg39 Yb0 3.775538 1_555
Hg40 Hg49 3.060557 1_555
Hg40 Hg41 3.198713 1_555
Hg40 Hg42 3.333552 1_555
Hg40 Yb11 3.363548 1_555
Hg40 Yb13 3.363855 1_555
Hg40 Yb6 3.515236 1_555
Hg40 Yb1 3.775534 1_555
Hg41 Hg8 2.979046 1_555
Hg41 Hg48 2.984871 1_555
Hg41 Yb6 3.274837 1_555
Hg41 Yb13 3.426866 1_555
Hg41 Yb10 3.656581 1_555
Hg41 Yb5 3.667431 1_555
Hg42 Hg6 2.979046 1_455
Hg42 Hg49 2.984871 1_555
Hg42 Yb7 3.274827 1_455
Hg42 Yb13 3.426856 1_555
Hg42 Yb11 3.656585 1_555
Hg42 Yb3 3.667431 1_455
Hg43 Hg7 2.979046 1_565
Hg43 Hg50 2.984871 1_555
Hg43 Yb8 3.274835 1_565
Hg43 Yb13 3.426853 1_555
Hg43 Yb9 3.656575 1_555
Hg43 Yb4 3.667431 1_565
Hg44 Yb2 3.224934 1_545
Hg44 Yb1 3.224941 1_555
Hg44 Yb0 3.224946 1_445
Hg45 Yb3 3.224201 1_555
Hg45 Yb4 3.224207 1_555
Hg45 Yb5 3.224213 1_555
Hg45 Hg5 3.307357 1_555
Hg46 Yb3 3.224201 1_555
Hg46 Yb4 3.224207 1_555
Hg46 Yb5 3.224213 1_555
Hg46 Hg6 3.307346 1_555
Hg46 Hg7 3.307354 1_555
Hg46 Hg8 3.307357 1_555
Hg47 Yb2 3.224934 1_545
Hg47 Yb1 3.224941 1_555
Hg47 Yb0 3.224946 1_445
Hg47 Hg9 3.325978 1_455
Hg48 Hg50 2.964625 1_555
Hg48 Hg49 2.964626 1_555
Hg48 Yb10 3.226552 1_555
Hg48 Yb12 3.624315 1_554
Hg48 Yb13 3.624315 1_555
Hg49 Hg50 2.964626 1_555
Hg49 Yb11 3.226550 1_555
Hg49 Yb12 3.624313 1_554
Hg49 Yb13 3.624313 1_555
Hg50 Yb9 3.226539 1_555
Hg50 Yb12 3.624309 1_554
Hg50 Yb13 3.624309 1_555
