# generated using pymatgen
data_CaMg14Sb
_symmetry_space_group_name_H-M   'P 1'
_cell_length_a   6.54423201
_cell_length_b   6.34596690
_cell_length_c   10.49863252
_cell_angle_alpha   90.00000000
_cell_angle_beta   90.00000000
_cell_angle_gamma   119.00277657
_symmetry_Int_Tables_number   1
_chemical_formula_structural   CaMg14Sb
_chemical_formula_sum   'Ca1 Mg14 Sb1'
_cell_volume   381.32635046
_cell_formula_units_Z   1
loop_
 _symmetry_equiv_pos_site_id
 _symmetry_equiv_pos_as_xyz
  1  'x, y, z'
loop_
 _atom_site_type_symbol
 _atom_site_label
 _atom_site_symmetry_multiplicity
 _atom_site_fract_x
 _atom_site_fract_y
 _atom_site_fract_z
 _atom_site_occupancy
  Ca  Ca0  1  0.16257023  0.33128461  0.12500000  1
  Mg  Mg0  1  0.16496036  0.33247968  0.62500000  1
  Mg  Mg1  1  0.16165922  0.83082911  0.62500000  1
  Mg  Mg2  1  0.66349787  0.32774833  0.12500000  1
  Mg  Mg3  1  0.66595216  0.33539513  0.62500000  1
  Mg  Mg4  1  0.66349787  0.83574854  0.12500000  1
  Mg  Mg5  1  0.66595216  0.83055603  0.62500000  1
  Mg  Mg6  1  0.33843609  0.16825027  0.38554723  1
  Mg  Mg7  1  0.33843609  0.16825027  0.86445277  1
  Mg  Mg8  1  0.33843609  0.67018682  0.38554723  1
  Mg  Mg9  1  0.33843609  0.67018682  0.86445277  1
  Mg  Mg10  1  0.82938328  0.16469214  0.38351788  1
  Mg  Mg11  1  0.82938328  0.16469214  0.86648212  1
  Mg  Mg12  1  0.83037116  0.66518608  0.37373572  1
  Mg  Mg13  1  0.83037116  0.66518608  0.87626428  1
  Sb  Sb0  1  0.17865690  0.83932795  0.12500000  1
loop_
_geom_bond_atom_site_label_1
_geom_bond_atom_site_label_2
_geom_bond_distance
_geom_bond_site_symmetry_2
Ca0 Sb0 3.174319 1_545
Ca0 Sb0 3.174319 1_555
Ca0 Mg4 3.255224 1_445
Ca0 Mg2 3.255224 1_455
Ca0 Mg4 3.289126 1_555
Ca0 Mg2 3.289126 1_555
Ca0 Mg10 3.317071 1_455
Ca0 Mg11 3.317071 1_454
Ca0 Mg6 3.321450 1_555
Ca0 Mg7 3.321450 1_554
Ca0 Mg9 3.321456 1_554
Ca0 Mg8 3.321456 1_555
Mg0 Mg6 3.137219 1_555
Mg0 Mg7 3.137219 1_555
Mg0 Mg9 3.137226 1_555
Mg0 Mg8 3.137226 1_555
Mg0 Mg1 3.173040 1_545
Mg0 Mg1 3.173040 1_555
Mg0 Mg10 3.180640 1_455
Mg0 Mg11 3.180640 1_455
Mg0 Mg5 3.269676 1_555
Mg0 Mg3 3.269676 1_555
Mg0 Mg5 3.274636 1_445
Mg0 Mg3 3.274636 1_455
Mg1 Mg9 3.137042 1_555
Mg1 Mg8 3.137042 1_555
Mg1 Mg6 3.137048 1_565
Mg1 Mg7 3.137048 1_565
Mg1 Mg3 3.243182 1_455
Mg1 Mg5 3.243182 1_455
Mg1 Mg12 3.248701 1_455
Mg1 Mg13 3.248701 1_455
Mg1 Mg3 3.301050 1_565
Mg1 Mg5 3.301051 1_555
Mg2 Mg4 3.122214 1_545
Mg2 Sb0 3.183987 1_545
Mg2 Mg4 3.223753 1_555
Mg2 Mg7 3.308206 1_554
Mg2 Mg6 3.308206 1_555
Mg2 Sb0 3.360365 1_655
Mg3 Mg6 3.135962 1_555
Mg3 Mg7 3.135962 1_555
Mg3 Mg5 3.142275 1_555
Mg3 Mg5 3.203692 1_545
Mg4 Sb0 3.183987 1_555
Mg4 Mg8 3.308206 1_555
Mg4 Mg9 3.308206 1_554
Mg4 Sb0 3.360366 1_655
Mg5 Mg9 3.135962 1_555
Mg5 Mg8 3.135962 1_555
Mg6 Mg8 3.160694 1_545
Mg6 Mg8 3.185273 1_555
Mg6 Sb0 3.288798 1_545
Mg7 Mg9 3.160694 1_545
Mg7 Mg9 3.185273 1_555
Mg7 Sb0 3.288798 1_546
Mg8 Sb0 3.288792 1_555
Mg9 Sb0 3.288792 1_556
Mg10 Mg3 3.141382 1_555
Mg10 Mg5 3.141388 1_545
Mg10 Mg12 3.174650 1_555
Mg10 Mg12 3.174650 1_545
Mg10 Mg8 3.223951 1_545
Mg10 Mg6 3.223951 1_555
Mg10 Mg2 3.271812 1_555
Mg10 Mg4 3.271818 1_545
Mg10 Mg8 3.320539 1_655
Mg10 Mg6 3.320539 1_655
Mg11 Mg3 3.141382 1_555
Mg11 Mg5 3.141388 1_545
Mg11 Mg13 3.174650 1_555
Mg11 Mg13 3.174650 1_545
Mg11 Mg9 3.223951 1_545
Mg11 Mg7 3.223951 1_555
Mg11 Mg2 3.271812 1_556
Mg11 Mg4 3.271818 1_546
Mg11 Mg9 3.320539 1_655
Mg11 Mg7 3.320539 1_655
Mg12 Mg5 3.211344 1_555
Mg12 Mg3 3.211350 1_555
Mg12 Mg4 3.213984 1_555
Mg12 Mg2 3.213990 1_555
Mg12 Mg6 3.237219 1_555
Mg12 Mg8 3.237219 1_555
Mg12 Sb0 3.285287 1_655
Mg12 Mg6 3.311947 1_665
Mg12 Mg8 3.311947 1_655
Mg13 Mg5 3.211344 1_555
Mg13 Mg3 3.211350 1_555
Mg13 Mg4 3.213984 1_556
Mg13 Mg2 3.213990 1_556
Mg13 Mg7 3.237219 1_555
Mg13 Mg9 3.237219 1_555
Mg13 Sb0 3.285287 1_656
Mg13 Mg7 3.311947 1_665
Mg13 Mg9 3.311947 1_655
