# generated using pymatgen
data_ZnB12(H5O12)2
_symmetry_space_group_name_H-M   'P 1'
_cell_length_a   8.70160000
_cell_length_b   8.78193692
_cell_length_c   11.71922039
_cell_angle_alpha   102.87976086
_cell_angle_beta   90.00000000
_cell_angle_gamma   90.00000000
_symmetry_Int_Tables_number   1
_chemical_formula_structural   ZnB12(H5O12)2
_chemical_formula_sum   'Zn2 B24 H20 O48'
_cell_volume   873.01456413
_cell_formula_units_Z   2
loop_
 _symmetry_equiv_pos_site_id
 _symmetry_equiv_pos_as_xyz
  1  'x, y, z'
loop_
 _atom_site_type_symbol
 _atom_site_label
 _atom_site_symmetry_multiplicity
 _atom_site_fract_x
 _atom_site_fract_y
 _atom_site_fract_z
 _atom_site_occupancy
  Zn  Zn0  1  0.50000000  0.50000000  0.50000000  1
  Zn  Zn1  1  0.00000000  0.00000000  0.50000000  1
  B  B0  1  0.59352600  0.70645300  0.96866100  1
  B  B1  1  0.09352600  0.79354700  0.03133900  1
  B  B2  1  0.40647400  0.29354700  0.03133900  1
  B  B3  1  0.90647400  0.20645300  0.96866100  1
  B  B4  1  0.59384600  0.89514700  0.84869600  1
  B  B5  1  0.09384600  0.60485300  0.15130400  1
  B  B6  1  0.40615400  0.10485300  0.15130400  1
  B  B7  1  0.90615400  0.39514700  0.84869600  1
  B  B8  1  0.45772700  0.64103700  0.77993700  1
  B  B9  1  0.95772700  0.85896300  0.22006300  1
  B  B10  1  0.54227300  0.35896300  0.22006300  1
  B  B11  1  0.04227300  0.14103700  0.77993700  1
  B  B12  1  0.20426000  0.56281000  0.64715900  1
  B  B13  1  0.70426000  0.93719000  0.35284100  1
  B  B14  1  0.79574000  0.43719000  0.35284100  1
  B  B15  1  0.29574000  0.06281000  0.64715900  1
  B  B16  1  0.24757100  0.25521200  0.52300200  1
  B  B17  1  0.74757100  0.24478800  0.47699800  1
  B  B18  1  0.75242900  0.74478800  0.47699800  1
  B  B19  1  0.25242900  0.75521200  0.52300200  1
  B  B20  1  0.51215200  0.20583500  0.58308800  1
  B  B21  1  0.01215200  0.29416500  0.41691200  1
  B  B22  1  0.48784800  0.79416500  0.41691200  1
  B  B23  1  0.98784800  0.70583500  0.58308800  1
  H  H0  1  0.22314400  0.69998400  0.82488300  1
  H  H1  1  0.72314400  0.80001600  0.17511700  1
  H  H2  1  0.77685600  0.30001600  0.17511700  1
  H  H3  1  0.27685600  0.19998400  0.82488300  1
  H  H4  1  0.11796700  0.35763800  0.68404000  1
  H  H5  1  0.61796700  0.14236200  0.31596000  1
  H  H6  1  0.88203300  0.64236200  0.31596000  1
  H  H7  1  0.38203300  0.85763800  0.68404000  1
  H  H8  1  0.58792800  0.06834400  0.76646100  1
  H  H9  1  0.08792800  0.43165600  0.23353900  1
  H  H10  1  0.41207200  0.93165600  0.23353900  1
  H  H11  1  0.91207200  0.56834400  0.76646100  1
  H  H12  1  0.59369500  0.57321000  0.08641800  1
  H  H13  1  0.09369500  0.92679000  0.91358200  1
  H  H14  1  0.40630500  0.42679000  0.91358200  1
  H  H15  1  0.90630500  0.07321000  0.08641800  1
  H  H16  1  0.36706600  0.50261100  0.29048400  1
  H  H17  1  0.86706600  0.99738900  0.70951600  1
  H  H18  1  0.63293400  0.49738900  0.70951600  1
  H  H19  1  0.13293400  0.00261100  0.29048400  1
  O  O0  1  0.64778900  0.84463000  0.94504400  1
  O  O1  1  0.14778900  0.65537000  0.05495600  1
  O  O2  1  0.35221100  0.15537000  0.05495600  1
  O  O3  1  0.85221100  0.34463000  0.94504400  1
  O  O4  1  0.49003200  0.80437100  0.77386300  1
  O  O5  1  0.99003200  0.69562900  0.22613700  1
  O  O6  1  0.50996800  0.19562900  0.22613700  1
  O  O7  1  0.00996800  0.30437100  0.77386300  1
  O  O8  1  0.49835400  0.60786800  0.89232300  1
  O  O9  1  0.99835400  0.89213200  0.10767700  1
  O  O10  1  0.50164600  0.39213200  0.10767700  1
  O  O11  1  0.00164600  0.10786800  0.89232300  1
  O  O12  1  0.28432000  0.62135100  0.76474200  1
  O  O13  1  0.78432000  0.87864900  0.23525800  1
  O  O14  1  0.71568000  0.37864900  0.23525800  1
  O  O15  1  0.21568000  0.12135100  0.76474200  1
  O  O16  1  0.19873200  0.38855300  0.62991000  1
  O  O17  1  0.69873200  0.11144700  0.37009000  1
  O  O18  1  0.80126800  0.61144700  0.37009000  1
  O  O19  1  0.30126800  0.88855300  0.62991000  1
  O  O20  1  0.41513500  0.27040800  0.51113300  1
  O  O21  1  0.91513500  0.22959200  0.48886700  1
  O  O22  1  0.58486500  0.72959200  0.48886700  1
  O  O23  1  0.08486500  0.77040800  0.51113300  1
  O  O24  1  0.29009700  0.60694300  0.55408200  1
  O  O25  1  0.79009700  0.89305700  0.44591800  1
  O  O26  1  0.70990300  0.39305700  0.44591800  1
  O  O27  1  0.20990300  0.10694300  0.55408200  1
  O  O28  1  0.64469600  0.03499500  0.82957700  1
  O  O29  1  0.14469600  0.46500500  0.17042300  1
  O  O30  1  0.35530400  0.96500500  0.17042300  1
  O  O31  1  0.85530400  0.53499500  0.82957700  1
  O  O32  1  0.63371200  0.67453600  0.07452900  1
  O  O33  1  0.13371200  0.82546400  0.92547100  1
  O  O34  1  0.36628800  0.32546400  0.92547100  1
  O  O35  1  0.86628800  0.17453600  0.07452900  1
  O  O36  1  0.04810900  0.62270200  0.65920100  1
  O  O37  1  0.54810900  0.87729800  0.34079900  1
  O  O38  1  0.95189100  0.37729800  0.34079900  1
  O  O39  1  0.45189100  0.12270200  0.65920100  1
  O  O40  1  0.16791400  0.27749700  0.42112200  1
  O  O41  1  0.66791400  0.22250300  0.57887800  1
  O  O42  1  0.83208600  0.72250300  0.57887800  1
  O  O43  1  0.33208600  0.77749700  0.42112200  1
  O  O44  1  0.46696700  0.47041900  0.31573400  1
  O  O45  1  0.96696700  0.02958100  0.68426600  1
  O  O46  1  0.53303300  0.52958100  0.68426600  1
  O  O47  1  0.03303300  0.97041900  0.31573400  1
loop_
_geom_bond_atom_site_label_1
_geom_bond_atom_site_label_2
_geom_bond_distance
_geom_bond_site_symmetry_2
B0 O8 1.374931 1_555
B0 O32 1.376659 1_556
B0 O0 1.386279 1_555
B1 O9 1.374931 1_455
B1 O33 1.376659 1_554
B1 O1 1.386279 1_555
B2 O10 1.374931 1_555
B2 O34 1.376659 1_554
B2 O2 1.386279 1_555
B3 O11 1.374931 1_655
B3 O35 1.376659 1_556
B3 O3 1.386279 1_555
B4 O28 1.370030 1_565
B4 O4 1.381656 1_555
B4 O0 1.383972 1_555
B5 O29 1.370030 1_555
B5 O5 1.381656 1_455
B5 O1 1.383972 1_555
B6 O30 1.370030 1_545
B6 O6 1.381656 1_555
B6 O2 1.383972 1_555
B7 O31 1.370030 1_555
B7 O7 1.381656 1_655
B7 O3 1.383972 1_555
B8 O8 1.454493 1_555
B8 O46 1.468083 1_555
B8 O4 1.478877 1_555
B8 O12 1.524699 1_555
B9 O9 1.454493 1_555
B9 O47 1.468083 1_655
B9 O5 1.478877 1_555
B9 O13 1.524699 1_555
B10 O10 1.454493 1_555
B10 O44 1.468083 1_555
B10 O6 1.478877 1_555
B10 O14 1.524699 1_555
B11 O11 1.454493 1_555
B11 O45 1.468083 1_455
B11 O7 1.478877 1_555
B11 O15 1.524699 1_555
B12 O24 1.444436 1_555
B12 O36 1.452482 1_555
B12 O16 1.499042 1_555
B12 O12 1.527296 1_555
B13 O25 1.444436 1_555
B13 O37 1.452482 1_555
B13 O17 1.499042 1_565
B13 O13 1.527296 1_555
B14 O26 1.444436 1_555
B14 O38 1.452482 1_555
B14 O18 1.499042 1_555
B14 O14 1.527296 1_555
B15 O27 1.444436 1_555
B15 O39 1.452482 1_555
B15 O19 1.499042 1_545
B15 O15 1.527296 1_555
B16 O40 1.431239 1_555
B16 O27 1.465254 1_555
B16 O20 1.473572 1_555
B16 O16 1.570821 1_555
B17 O41 1.431239 1_555
B17 O26 1.465254 1_555
B17 O21 1.473572 1_555
B17 O17 1.570821 1_555
B18 O42 1.431239 1_555
B18 O25 1.465254 1_555
B18 O22 1.473572 1_555
B18 O18 1.570821 1_555
B19 O43 1.431239 1_555
B19 O24 1.465254 1_555
B19 O23 1.473572 1_555
B19 O19 1.570821 1_555
B20 O41 1.365332 1_555
B20 O39 1.376196 1_555
B20 O20 1.399471 1_555
B21 O40 1.365332 1_555
B21 O38 1.376196 1_455
B21 O21 1.399471 1_455
B22 O43 1.365332 1_555
B22 O37 1.376196 1_555
B22 O22 1.399471 1_555
B23 O42 1.365332 1_555
B23 O36 1.376196 1_655
B23 O23 1.399471 1_655
H0 O12 1.019807 1_555
H0 O33 1.621850 1_555
H1 O13 1.019807 1_555
H1 O32 1.621850 1_555
H2 O14 1.019807 1_555
H2 O35 1.621850 1_555
H3 O15 1.019807 1_555
H3 O34 1.621850 1_555
H4 O16 1.023137 1_555
H4 O7 1.558715 1_555
H5 O17 1.023137 1_555
H5 O6 1.558715 1_555
H6 O18 1.023137 1_555
H6 O5 1.558715 1_555
H7 O19 1.023137 1_555
H7 O4 1.558715 1_555
H8 O28 0.986645 1_555
H9 O29 0.986645 1_555
H10 O30 0.986645 1_555
H11 O31 0.986645 1_555
H12 O32 0.993856 1_555
H13 O33 0.993856 1_555
H14 O34 0.993856 1_555
H15 O35 0.993856 1_555
H16 O44 0.980031 1_555
H17 O45 0.980031 1_565
H18 O46 0.980031 1_555
H19 O47 0.980031 1_545
O20 Zn0 2.178288 1_555
O21 Zn1 2.178288 1_655
O22 Zn0 2.178288 1_555
O23 Zn1 2.178288 1_565
O24 Zn0 2.086730 1_555
O25 Zn1 2.086730 1_665
O26 Zn0 2.086730 1_555
O27 Zn1 2.086730 1_555
O44 Zn0 2.136178 1_555
O45 Zn1 2.136178 1_655
O46 Zn0 2.136178 1_555
O47 Zn1 2.136178 1_565
