# generated using pymatgen
data_Er3Ru2
_symmetry_space_group_name_H-M   'P 1'
_cell_length_a   8.22953977
_cell_length_b   8.22953977
_cell_length_c   8.22953977
_cell_angle_alpha   109.47122063
_cell_angle_beta   109.47122063
_cell_angle_gamma   109.47122063
_symmetry_Int_Tables_number   1
_chemical_formula_structural   Er3Ru2
_chemical_formula_sum   'Er12 Ru8'
_cell_volume   429.04688563
_cell_formula_units_Z   4
loop_
 _symmetry_equiv_pos_site_id
 _symmetry_equiv_pos_as_xyz
  1  'x, y, z'
loop_
 _atom_site_type_symbol
 _atom_site_label
 _atom_site_symmetry_multiplicity
 _atom_site_fract_x
 _atom_site_fract_y
 _atom_site_fract_z
 _atom_site_occupancy
  Er  Er0  1  0.37500000  0.75000000  0.62500000  1
  Er  Er1  1  0.12500000  0.25000000  0.87500000  1
  Er  Er2  1  0.75000000  0.62500000  0.37500000  1
  Er  Er3  1  0.25000000  0.87500000  0.12500000  1
  Er  Er4  1  0.62500000  0.37500000  0.75000000  1
  Er  Er5  1  0.87500000  0.12500000  0.25000000  1
  Er  Er6  1  0.87500000  0.75000000  0.12500000  1
  Er  Er7  1  0.62500000  0.25000000  0.37500000  1
  Er  Er8  1  0.75000000  0.12500000  0.87500000  1
  Er  Er9  1  0.25000000  0.37500000  0.62500000  1
  Er  Er10  1  0.12500000  0.87500000  0.75000000  1
  Er  Er11  1  0.37500000  0.62500000  0.25000000  1
  Ru  Ru0  1  0.23841300  0.00000000  0.50000000  1
  Ru  Ru1  1  0.00000000  0.50000000  0.23841300  1
  Ru  Ru2  1  0.50000000  0.23841300  0.00000000  1
  Ru  Ru3  1  0.26158700  0.26158700  0.26158700  1
  Ru  Ru4  1  0.00000000  0.50000000  0.73841300  1
  Ru  Ru5  1  0.73841300  0.00000000  0.50000000  1
  Ru  Ru6  1  0.50000000  0.73841300  0.00000000  1
  Ru  Ru7  1  0.76158700  0.76158700  0.76158700  1
loop_
_geom_bond_atom_site_label_1
_geom_bond_atom_site_label_2
_geom_bond_distance
_geom_bond_site_symmetry_2
Er0 Ru6 2.955729 1_556
Er0 Ru1 2.955729 1_555
Er0 Ru0 2.955729 1_565
Er0 Ru7 2.955729 1_555
Er1 Ru3 2.955729 1_556
Er1 Ru5 2.955729 1_455
Er1 Ru4 2.955729 1_555
Er1 Ru2 2.955729 1_556
Er2 Ru1 2.955729 1_655
Er2 Ru5 2.955729 1_565
Er2 Ru7 2.955729 1_555
Er2 Ru2 2.955729 1_555
Er3 Ru6 2.955729 1_555
Er3 Ru4 2.955729 1_554
Er3 Ru0 2.955729 1_565
Er3 Ru3 2.955729 1_565
Er4 Ru7 2.955729 1_555
Er4 Ru0 2.955729 1_555
Er4 Ru4 2.955729 1_655
Er4 Ru2 2.955729 1_556
Er5 Ru3 2.955729 1_655
Er5 Ru1 2.955729 1_655
Er5 Ru5 2.955729 1_555
Er5 Ru6 2.955729 1_545
Er6 Ru6 2.865865 1_555
Er6 Ru7 2.865865 1_554
Er6 Ru0 2.865865 1_665
Er6 Ru1 2.865865 1_655
Er7 Ru3 2.865865 1_555
Er7 Ru4 2.865865 1_655
Er7 Ru2 2.865865 1_555
Er7 Ru5 2.865865 1_555
Er8 Ru7 2.865865 1_545
Er8 Ru2 2.865865 1_556
Er8 Ru5 2.865865 1_555
Er8 Ru1 2.865865 1_656
Er9 Ru4 2.865865 1_555
Er9 Ru3 2.865865 1_555
Er9 Ru6 2.865865 1_556
Er9 Ru0 2.865865 1_555
Er10 Ru2 2.865865 1_566
Er10 Ru4 2.865865 1_555
Er10 Ru7 2.865865 1_455
Er10 Ru0 2.865865 1_565
Er11 Ru3 2.865865 1_555
Er11 Ru6 2.865865 1_555
Er11 Ru5 2.865865 1_565
Er11 Ru1 2.865865 1_555
