# generated using pymatgen
data_Yb2NiAs2
_symmetry_space_group_name_H-M   'P 1'
_cell_length_a   4.32867294
_cell_length_b   4.32867294
_cell_length_c   12.98968100
_cell_angle_alpha   90.00000000
_cell_angle_beta   90.00000000
_cell_angle_gamma   120.00001434
_symmetry_Int_Tables_number   1
_chemical_formula_structural   Yb2NiAs2
_chemical_formula_sum   'Yb4 Ni2 As4'
_cell_volume   210.78446549
_cell_formula_units_Z   2
loop_
 _symmetry_equiv_pos_site_id
 _symmetry_equiv_pos_as_xyz
  1  'x, y, z'
loop_
 _atom_site_type_symbol
 _atom_site_label
 _atom_site_symmetry_multiplicity
 _atom_site_fract_x
 _atom_site_fract_y
 _atom_site_fract_z
 _atom_site_occupancy
  Yb  Yb0  1  0.66666700  0.33333300  0.62101400  1
  Yb  Yb1  1  0.33333300  0.66666700  0.12101400  1
  Yb  Yb2  1  0.66666700  0.33333300  0.34415400  1
  Yb  Yb3  1  0.33333300  0.66666700  0.84415400  1
  Ni  Ni0  1  0.00000000  0.00000000  0.00987400  1
  Ni  Ni1  1  0.00000000  0.00000000  0.50987400  1
  As  As0  1  0.66666700  0.33333300  0.98588900  1
  As  As1  1  0.33333300  0.66666700  0.48588900  1
  As  As2  1  0.00000000  0.00000000  0.72340000  1
  As  As3  1  0.00000000  0.00000000  0.22340000  1
loop_
_geom_bond_atom_site_label_1
_geom_bond_atom_site_label_2
_geom_bond_distance
_geom_bond_site_symmetry_2
Ni0 Yb1 2.886171 1_545
Ni0 Yb1 2.886174 1_555
Ni0 Yb1 2.886174 1_445
Ni0 Yb3 3.298438 1_544
Ni0 Yb3 3.298440 1_554
Ni0 Yb3 3.298440 1_444
Ni1 Yb0 2.886171 1_455
Ni1 Yb0 2.886174 1_555
Ni1 Yb0 2.886174 1_445
Ni1 Yb2 3.298438 1_455
Ni1 Yb2 3.298440 1_555
Ni1 Yb2 3.298440 1_445
As0 Ni0 2.518503 1_656
As0 Ni0 2.518507 1_556
As0 Ni0 2.518507 1_666
As0 Yb1 3.053952 1_546
As0 Yb1 3.053952 1_656
As0 Yb1 3.053959 1_556
As0 Yb3 3.104096 1_545
As0 Yb3 3.104096 1_655
As0 Yb3 3.104102 1_555
As1 Ni1 2.518503 1_565
As1 Ni1 2.518507 1_665
As1 Ni1 2.518507 1_555
As1 Yb0 3.053952 1_455
As1 Yb0 3.053952 1_565
As1 Yb0 3.053959 1_555
As1 Yb2 3.104096 1_455
As1 Yb2 3.104096 1_565
As1 Yb2 3.104102 1_555
As2 Ni1 2.773635 1_555
As2 Yb0 2.831005 1_455
As2 Yb0 2.831008 1_555
As2 Yb0 2.831008 1_445
As2 Yb3 2.950620 1_545
As2 Yb3 2.950623 1_555
As2 Yb3 2.950623 1_445
As3 Ni0 2.773635 1_555
As3 Yb1 2.831005 1_545
As3 Yb1 2.831008 1_555
As3 Yb1 2.831008 1_445
As3 Yb2 2.950620 1_455
As3 Yb2 2.950623 1_555
As3 Yb2 2.950623 1_445
