# generated using pymatgen
data_Ca3Zn3(TeO6)2
_symmetry_space_group_name_H-M   'P 1'
_cell_length_a   11.04434230
_cell_length_b   11.04434230
_cell_length_c   11.04434230
_cell_angle_alpha   109.47122063
_cell_angle_beta   109.47122063
_cell_angle_gamma   109.47122063
_symmetry_Int_Tables_number   1
_chemical_formula_structural   Ca3Zn3(TeO6)2
_chemical_formula_sum   'Ca12 Zn12 Te8 O48'
_cell_volume   1037.04519687
_cell_formula_units_Z   4
loop_
 _symmetry_equiv_pos_site_id
 _symmetry_equiv_pos_as_xyz
  1  'x, y, z'
loop_
 _atom_site_type_symbol
 _atom_site_label
 _atom_site_symmetry_multiplicity
 _atom_site_fract_x
 _atom_site_fract_y
 _atom_site_fract_z
 _atom_site_occupancy
  Ca  Ca0  1  0.62500000  0.25000000  0.87500000  1
  Ca  Ca1  1  0.12500000  0.25000000  0.37500000  1
  Ca  Ca2  1  0.37500000  0.75000000  0.12500000  1
  Ca  Ca3  1  0.12500000  0.37500000  0.75000000  1
  Ca  Ca4  1  0.37500000  0.12500000  0.25000000  1
  Ca  Ca5  1  0.25000000  0.37500000  0.12500000  1
  Ca  Ca6  1  0.75000000  0.12500000  0.37500000  1
  Ca  Ca7  1  0.87500000  0.75000000  0.62500000  1
  Ca  Ca8  1  0.87500000  0.62500000  0.25000000  1
  Ca  Ca9  1  0.62500000  0.87500000  0.75000000  1
  Ca  Ca10  1  0.75000000  0.62500000  0.87500000  1
  Ca  Ca11  1  0.25000000  0.87500000  0.62500000  1
  Zn  Zn0  1  0.12500000  0.75000000  0.87500000  1
  Zn  Zn1  1  0.62500000  0.75000000  0.37500000  1
  Zn  Zn2  1  0.37500000  0.62500000  0.75000000  1
  Zn  Zn3  1  0.12500000  0.87500000  0.25000000  1
  Zn  Zn4  1  0.37500000  0.25000000  0.62500000  1
  Zn  Zn5  1  0.25000000  0.12500000  0.87500000  1
  Zn  Zn6  1  0.75000000  0.37500000  0.62500000  1
  Zn  Zn7  1  0.25000000  0.62500000  0.37500000  1
  Zn  Zn8  1  0.87500000  0.12500000  0.75000000  1
  Zn  Zn9  1  0.75000000  0.87500000  0.12500000  1
  Zn  Zn10  1  0.87500000  0.25000000  0.12500000  1
  Zn  Zn11  1  0.62500000  0.37500000  0.25000000  1
  Te  Te0  1  0.50000000  0.50000000  0.50000000  1
  Te  Te1  1  0.50000000  0.00000000  0.50000000  1
  Te  Te2  1  0.00000000  0.50000000  0.50000000  1
  Te  Te3  1  0.50000000  0.50000000  0.00000000  1
  Te  Te4  1  0.00000000  0.00000000  0.50000000  1
  Te  Te5  1  0.00000000  0.50000000  0.00000000  1
  Te  Te6  1  0.50000000  0.00000000  0.00000000  1
  Te  Te7  1  0.00000000  0.00000000  0.00000000  1
  O  O0  1  0.42469200  0.83089500  0.80721000  1
  O  O1  1  0.88251800  0.40620300  0.07530800  1
  O  O2  1  0.09379700  0.97631500  0.66910500  1
  O  O3  1  0.52368500  0.61748200  0.69279000  1
  O  O4  1  0.66910500  0.07530800  0.69279000  1
  O  O5  1  0.61748200  0.69279000  0.52368500  1
  O  O6  1  0.61748200  0.42469200  0.09379700  1
  O  O7  1  0.69279000  0.52368500  0.61748200  1
  O  O8  1  0.83089500  0.52368500  0.40620300  1
  O  O9  1  0.97631500  0.80721000  0.88251800  1
  O  O10  1  0.80721000  0.88251800  0.97631500  1
  O  O11  1  0.69279000  0.66910500  0.07530800  1
  O  O12  1  0.42469200  0.09379700  0.61748200  1
  O  O13  1  0.40620300  0.83089500  0.52368500  1
  O  O14  1  0.07530800  0.69279000  0.66910500  1
  O  O15  1  0.09379700  0.61748200  0.42469200  1
  O  O16  1  0.52368500  0.40620300  0.83089500  1
  O  O17  1  0.07530800  0.88251800  0.40620300  1
  O  O18  1  0.97631500  0.66910500  0.09379700  1
  O  O19  1  0.16910500  0.47631500  0.59379700  1
  O  O20  1  0.66910500  0.09379700  0.97631500  1
  O  O21  1  0.80721000  0.42469200  0.83089500  1
  O  O22  1  0.40620300  0.07530800  0.88251800  1
  O  O23  1  0.88251800  0.97631500  0.80721000  1
  O  O24  1  0.57530800  0.16910500  0.19279000  1
  O  O25  1  0.11748200  0.59379700  0.92469200  1
  O  O26  1  0.90620300  0.02368500  0.33089500  1
  O  O27  1  0.47631500  0.38251800  0.30721000  1
  O  O28  1  0.33089500  0.92469200  0.30721000  1
  O  O29  1  0.38251800  0.30721000  0.47631500  1
  O  O30  1  0.38251800  0.57530800  0.90620300  1
  O  O31  1  0.30721000  0.47631500  0.38251800  1
  O  O32  1  0.11748200  0.02368500  0.19279000  1
  O  O33  1  0.59379700  0.92469200  0.11748200  1
  O  O34  1  0.19279000  0.57530800  0.16910500  1
  O  O35  1  0.16910500  0.19279000  0.57530800  1
  O  O36  1  0.33089500  0.90620300  0.02368500  1
  O  O37  1  0.02368500  0.33089500  0.90620300  1
  O  O38  1  0.92469200  0.11748200  0.59379700  1
  O  O39  1  0.47631500  0.59379700  0.16910500  1
  O  O40  1  0.90620300  0.38251800  0.57530800  1
  O  O41  1  0.92469200  0.30721000  0.33089500  1
  O  O42  1  0.59379700  0.16910500  0.47631500  1
  O  O43  1  0.57530800  0.90620300  0.38251800  1
  O  O44  1  0.30721000  0.33089500  0.92469200  1
  O  O45  1  0.19279000  0.11748200  0.02368500  1
  O  O46  1  0.02368500  0.19279000  0.11748200  1
  O  O47  1  0.83089500  0.80721000  0.42469200  1
loop_
_geom_bond_atom_site_label_1
_geom_bond_atom_site_label_2
_geom_bond_distance
_geom_bond_site_symmetry_2
Ca0 O1 2.439118 1_556
Ca0 O16 2.439118 1_555
Ca0 O12 2.439118 1_555
Ca0 O20 2.439118 1_555
Ca0 O6 2.588637 1_556
Ca0 O22 2.588637 1_555
Ca0 O4 2.588637 1_555
Ca0 O21 2.588637 1_555
Ca1 O29 2.439118 1_555
Ca1 O35 2.439118 1_555
Ca1 O41 2.439118 1_455
Ca1 O46 2.439118 1_555
Ca1 O19 2.588637 1_555
Ca1 O32 2.588637 1_555
Ca1 O31 2.588637 1_555
Ca1 O26 2.588637 1_455
Ca2 O43 2.439118 1_555
Ca2 O39 2.439118 1_555
Ca2 O36 2.439118 1_555
Ca2 O25 2.439118 1_554
Ca2 O30 2.588637 1_554
Ca2 O28 2.588637 1_555
Ca2 O34 2.588637 1_555
Ca2 O33 2.588637 1_555
Ca3 O30 2.439118 1_555
Ca3 O19 2.439118 1_555
Ca3 O37 2.439118 1_555
Ca3 O38 2.439118 1_455
Ca3 O40 2.588637 1_455
Ca3 O44 2.588637 1_555
Ca3 O35 2.588637 1_555
Ca3 O25 2.588637 1_555
Ca4 O27 2.439118 1_555
Ca4 O24 2.439118 1_555
Ca4 O28 2.439118 1_545
Ca4 O32 2.439118 1_555
Ca4 O42 2.588637 1_555
Ca4 O45 2.588637 1_555
Ca4 O29 2.588637 1_555
Ca4 O36 2.588637 1_545
Ca5 O31 2.439118 1_555
Ca5 O34 2.439118 1_555
Ca5 O44 2.439118 1_554
Ca5 O45 2.439118 1_555
Ca5 O39 2.588637 1_555
Ca5 O46 2.588637 1_555
Ca5 O27 2.588637 1_555
Ca5 O37 2.588637 1_554
Ca6 O40 2.439118 1_555
Ca6 O42 2.439118 1_555
Ca6 O26 2.439118 1_555
Ca6 O33 2.439118 1_545
Ca6 O43 2.588637 1_545
Ca6 O41 2.588637 1_555
Ca6 O24 2.588637 1_555
Ca6 O38 2.588637 1_555
Ca7 O9 2.439118 1_555
Ca7 O14 2.439118 1_655
Ca7 O5 2.439118 1_555
Ca7 O47 2.439118 1_555
Ca7 O2 2.588637 1_655
Ca7 O8 2.588637 1_555
Ca7 O23 2.588637 1_555
Ca7 O7 2.588637 1_555
Ca8 O17 2.439118 1_655
Ca8 O8 2.439118 1_555
Ca8 O6 2.439118 1_555
Ca8 O18 2.439118 1_555
Ca8 O15 2.588637 1_655
Ca8 O1 2.588637 1_555
Ca8 O11 2.588637 1_555
Ca8 O47 2.588637 1_555
Ca9 O23 2.439118 1_555
Ca9 O4 2.439118 1_565
Ca9 O3 2.439118 1_555
Ca9 O0 2.439118 1_555
Ca9 O20 2.588637 1_565
Ca9 O13 2.588637 1_555
Ca9 O10 2.588637 1_555
Ca9 O5 2.588637 1_555
Ca10 O10 2.439118 1_555
Ca10 O11 2.439118 1_556
Ca10 O7 2.439118 1_555
Ca10 O21 2.439118 1_555
Ca10 O18 2.588637 1_556
Ca10 O16 2.588637 1_555
Ca10 O9 2.588637 1_555
Ca10 O3 2.588637 1_555
Ca11 O22 2.439118 1_565
Ca11 O2 2.439118 1_555
Ca11 O13 2.439118 1_555
Ca11 O15 2.439118 1_555
Ca11 O12 2.588637 1_565
Ca11 O17 2.588637 1_555
Ca11 O14 2.588637 1_555
Ca11 O0 2.588637 1_555
O0 Te6 1.961179 1_566
O0 Zn2 1.962230 1_555
O1 Te5 1.961179 1_655
O1 Zn10 1.962230 1_555
O2 Te4 1.961179 1_565
O2 Zn5 1.962230 1_565
O3 Te0 1.961179 1_555
O3 Zn2 1.962230 1_555
O4 Te1 1.961179 1_555
O4 Zn8 1.962230 1_555
O5 Te0 1.961179 1_555
O5 Zn1 1.962230 1_555
O6 Te3 1.961179 1_555
O6 Zn11 1.962230 1_555
O7 Te0 1.961179 1_555
O7 Zn6 1.962230 1_555
O8 Te2 1.961179 1_655
O8 Zn11 1.962230 1_555
O9 Te7 1.961179 1_666
O9 Zn0 1.962230 1_655
O10 Te7 1.961179 1_666
O10 Zn9 1.962230 1_556
O11 Te3 1.961179 1_555
O11 Zn9 1.962230 1_555
O12 Te1 1.961179 1_555
O12 Zn4 1.962230 1_555
O13 Te1 1.961179 1_565
O13 Zn7 1.962230 1_555
O14 Te2 1.961179 1_555
O14 Zn0 1.962230 1_555
O15 Te2 1.961179 1_555
O15 Zn7 1.962230 1_555
O16 Te3 1.961179 1_556
O16 Zn4 1.962230 1_555
O17 Te4 1.961179 1_565
O17 Zn3 1.962230 1_555
O18 Te5 1.961179 1_655
O18 Zn3 1.962230 1_655
O19 Te2 1.961179 1_555
O19 Zn2 1.962230 1_555
O20 Te6 1.961179 1_556
O20 Zn10 1.962230 1_556
O21 Te5 1.961179 1_656
O21 Zn6 1.962230 1_555
O22 Te6 1.961179 1_556
O22 Zn5 1.962230 1_555
O23 Te7 1.961179 1_666
O23 Zn8 1.962230 1_565
O24 Te6 1.961179 1_555
O24 Zn11 1.962230 1_555
O25 Te5 1.961179 1_556
O25 Zn0 1.962230 1_555
O26 Te4 1.961179 1_655
O26 Zn9 1.962230 1_545
O27 Te0 1.961179 1_555
O27 Zn11 1.962230 1_555
O28 Te1 1.961179 1_565
O28 Zn3 1.962230 1_555
O29 Te0 1.961179 1_555
O29 Zn4 1.962230 1_555
O30 Te3 1.961179 1_556
O30 Zn2 1.962230 1_555
O31 Te0 1.961179 1_555
O31 Zn7 1.962230 1_555
O32 Te7 1.961179 1_555
O32 Zn3 1.962230 1_545
O33 Te6 1.961179 1_565
O33 Zn9 1.962230 1_555
O34 Te5 1.961179 1_555
O34 Zn7 1.962230 1_555
O35 Te4 1.961179 1_555
O35 Zn4 1.962230 1_555
O36 Te6 1.961179 1_565
O36 Zn0 1.962230 1_554
O37 Te5 1.961179 1_556
O37 Zn8 1.962230 1_455
O38 Te4 1.961179 1_655
O38 Zn8 1.962230 1_555
O39 Te3 1.961179 1_555
O39 Zn1 1.962230 1_555
O40 Te2 1.961179 1_655
O40 Zn6 1.962230 1_555
O41 Te2 1.961179 1_655
O41 Zn10 1.962230 1_555
O42 Te1 1.961179 1_555
O42 Zn6 1.962230 1_555
O43 Te1 1.961179 1_565
O43 Zn1 1.962230 1_555
O44 Te3 1.961179 1_556
O44 Zn5 1.962230 1_555
O45 Te7 1.961179 1_555
O45 Zn5 1.962230 1_554
O46 Te7 1.961179 1_555
O46 Zn10 1.962230 1_455
O47 Te4 1.961179 1_665
O47 Zn1 1.962230 1_555
