# generated using pymatgen
data_GaN2OF5
_symmetry_space_group_name_H-M   'P 1'
_cell_length_a   6.78544600
_cell_length_b   8.40505500
_cell_length_c   9.40728800
_cell_angle_alpha   90.00000000
_cell_angle_beta   90.00000000
_cell_angle_gamma   90.00000000
_symmetry_Int_Tables_number   1
_chemical_formula_structural   GaN2OF5
_chemical_formula_sum   'Ga4 N8 O4 F20'
_cell_volume   536.51688975
_cell_formula_units_Z   4
loop_
 _symmetry_equiv_pos_site_id
 _symmetry_equiv_pos_as_xyz
  1  'x, y, z'
loop_
 _atom_site_type_symbol
 _atom_site_label
 _atom_site_symmetry_multiplicity
 _atom_site_fract_x
 _atom_site_fract_y
 _atom_site_fract_z
 _atom_site_occupancy
  Ga  Ga0  1  0.75000000  0.40574300  0.50000000  1
  Ga  Ga1  1  0.25000000  0.09425700  0.00000000  1
  Ga  Ga2  1  0.25000000  0.59425700  0.50000000  1
  Ga  Ga3  1  0.75000000  0.90574300  0.00000000  1
  N  N0  1  0.26498700  0.09620900  0.65656600  1
  N  N1  1  0.76498700  0.40379100  0.84343400  1
  N  N2  1  0.73501300  0.40379100  0.15656600  1
  N  N3  1  0.23501300  0.09620900  0.34343400  1
  N  N4  1  0.73501300  0.90379100  0.34343400  1
  N  N5  1  0.23501300  0.59620900  0.15656600  1
  N  N6  1  0.26498700  0.59620900  0.84343400  1
  N  N7  1  0.76498700  0.90379100  0.65656600  1
  O  O0  1  0.75000000  0.62927200  0.50000000  1
  O  O1  1  0.25000000  0.87072800  0.00000000  1
  O  O2  1  0.25000000  0.37072800  0.50000000  1
  O  O3  1  0.75000000  0.12927200  0.00000000  1
  F  F0  1  0.75000000  0.00089700  0.50000000  1
  F  F1  1  0.25000000  0.49910300  0.00000000  1
  F  F2  1  0.25000000  0.99910300  0.50000000  1
  F  F3  1  0.75000000  0.50089700  0.00000000  1
  F  F4  1  0.83567000  0.30620200  0.66578600  1
  F  F5  1  0.33567000  0.19379800  0.83421400  1
  F  F6  1  0.16433000  0.19379800  0.16578600  1
  F  F7  1  0.66433000  0.30620200  0.33421400  1
  F  F8  1  0.16433000  0.69379800  0.33421400  1
  F  F9  1  0.66433000  0.80620200  0.16578600  1
  F  F10  1  0.83567000  0.80620200  0.83421400  1
  F  F11  1  0.33567000  0.69379800  0.66578600  1
  F  F12  1  0.48822500  0.86948000  0.91439500  1
  F  F13  1  0.98822500  0.63052000  0.58560500  1
  F  F14  1  0.51177500  0.63052000  0.41439500  1
  F  F15  1  0.01177500  0.86948000  0.08560500  1
  F  F16  1  0.51177500  0.13052000  0.08560500  1
  F  F17  1  0.01177500  0.36948000  0.41439500  1
  F  F18  1  0.48822500  0.36948000  0.58560500  1
  F  F19  1  0.98822500  0.13052000  0.91439500  1
loop_
_geom_bond_atom_site_label_1
_geom_bond_atom_site_label_2
_geom_bond_distance
_geom_bond_site_symmetry_2
Ga0 O0 1.878774 1_555
Ga1 O1 1.878774 1_545
Ga2 O2 1.878774 1_555
Ga3 O3 1.878774 1_565
F0 N4 1.686954 1_545
F0 N7 1.686954 1_545
F1 N6 1.686954 1_554
F1 N5 1.686954 1_555
F2 N3 1.686954 1_565
F2 N0 1.686954 1_565
F3 N1 1.686954 1_554
F3 N2 1.686954 1_555
F4 Ga0 1.862858 1_555
F4 N1 1.922417 1_555
F5 Ga1 1.862858 1_556
F5 N0 1.922417 1_555
F6 Ga1 1.862858 1_555
F6 N3 1.922417 1_555
F7 Ga0 1.862858 1_555
F7 N2 1.922417 1_555
F8 Ga2 1.862858 1_555
F8 N5 1.922417 1_555
F9 Ga3 1.862858 1_555
F9 N4 1.922417 1_555
F10 Ga3 1.862858 1_556
F10 N7 1.922417 1_555
F11 Ga2 1.862858 1_555
F11 N6 1.922417 1_555
F12 O1 1.805987 1_556
F12 Ga3 1.973962 1_556
F13 O0 1.805987 1_555
F13 Ga2 1.973962 1_655
F14 O0 1.805987 1_555
F14 Ga2 1.973962 1_555
F15 O1 1.805987 1_555
F15 Ga3 1.973962 1_455
F16 O3 1.805987 1_555
F16 Ga1 1.973962 1_555
F17 O2 1.805987 1_555
F17 Ga0 1.973962 1_455
F18 O2 1.805987 1_555
F18 Ga0 1.973962 1_555
F19 O3 1.805987 1_556
F19 Ga1 1.973962 1_656
