# generated using pymatgen
data_NiO2
_symmetry_space_group_name_H-M   'P 1'
_cell_length_a   5.74928225
_cell_length_b   5.74928225
_cell_length_c   18.81966337
_cell_angle_alpha   80.67543171
_cell_angle_beta   80.67543171
_cell_angle_gamma   59.93273613
_symmetry_Int_Tables_number   1
_chemical_formula_structural   NiO2
_chemical_formula_sum   'Ni16 O32'
_cell_volume   528.86295633
_cell_formula_units_Z   16
loop_
 _symmetry_equiv_pos_site_id
 _symmetry_equiv_pos_as_xyz
  1  'x, y, z'
loop_
 _atom_site_type_symbol
 _atom_site_label
 _atom_site_symmetry_multiplicity
 _atom_site_fract_x
 _atom_site_fract_y
 _atom_site_fract_z
 _atom_site_occupancy
  Ni  Ni0  1  0.37884700  0.87256500  0.87500100  1
  Ni  Ni1  1  0.25258100  0.25258100  0.74739600  1
  Ni  Ni2  1  0.87256500  0.37884700  0.87500100  1
  Ni  Ni3  1  0.34812200  0.34812200  0.46574700  1
  Ni  Ni4  1  0.12527800  0.62315300  0.62230700  1
  Ni  Ni5  1  0.90332000  0.90332000  0.77891800  1
  Ni  Ni6  1  0.09917800  0.09917800  0.21668700  1
  Ni  Ni7  1  0.62315300  0.12527800  0.62230700  1
  Ni  Ni8  1  0.87582600  0.37602000  0.37586800  1
  Ni  Ni9  1  0.64983100  0.64983100  0.53686000  1
  Ni  Ni10  1  0.37602000  0.87582600  0.37586800  1
  Ni  Ni11  1  0.12182500  0.62604200  0.12878200  1
  Ni  Ni12  1  0.62604200  0.12182500  0.12878200  1
  Ni  Ni13  1  0.40500100  0.40500100  0.28349400  1
  Ni  Ni14  1  0.50138300  0.50138300  0.99981800  1
  Ni  Ni15  1  0.15267800  0.15267800  0.03005900  1
  O  O0  1  0.67671800  0.23773500  0.93588500  1
  O  O1  1  0.57013600  0.57013600  0.82393000  1
  O  O2  1  0.23773500  0.67671800  0.93588500  1
  O  O3  1  0.67069800  0.67069800  0.93366300  1
  O  O4  1  0.07754700  0.07754700  0.81621600  1
  O  O5  1  0.43041000  0.98334100  0.68537600  1
  O  O6  1  0.52834300  0.05614900  0.81015100  1
  O  O7  1  0.32260400  0.32260400  0.56688100  1
  O  O8  1  0.98334100  0.43041000  0.68537600  1
  O  O9  1  0.17425200  0.17425200  0.92799500  1
  O  O10  1  0.41948800  0.41948800  0.68108500  1
  O  O11  1  0.05614900  0.52834300  0.81015100  1
  O  O12  1  0.19452700  0.70369500  0.43283200  1
  O  O13  1  0.81704500  0.81704500  0.56937100  1
  O  O14  1  0.29073700  0.80456300  0.56502500  1
  O  O15  1  0.07667100  0.07667100  0.31736500  1
  O  O16  1  0.70369500  0.19452700  0.43283200  1
  O  O17  1  0.92389600  0.92389600  0.67692600  1
  O  O18  1  0.18603100  0.18603100  0.43013400  1
  O  O19  1  0.80456300  0.29073700  0.56502500  1
  O  O20  1  0.56579300  0.56579300  0.32114300  1
  O  O21  1  0.94286600  0.45993100  0.18675900  1
  O  O22  1  0.04924800  0.55527500  0.31785700  1
  O  O23  1  0.82557000  0.82557000  0.07434900  1
  O  O24  1  0.45993100  0.94286600  0.18675900  1
  O  O25  1  0.67446100  0.67446100  0.43504900  1
  O  O26  1  0.93499800  0.93499800  0.18281000  1
  O  O27  1  0.55527500  0.04924800  0.31785700  1
  O  O28  1  0.32728400  0.32728400  0.06645600  1
  O  O29  1  0.77820900  0.30688600  0.06179900  1
  O  O30  1  0.42701200  0.42701200  0.18274100  1
  O  O31  1  0.30688600  0.77820900  0.06179900  1
loop_
_geom_bond_atom_site_label_1
_geom_bond_atom_site_label_2
_geom_bond_distance
_geom_bond_site_symmetry_2
Ni0 O2 1.853363 1_555
Ni0 O1 1.854572 1_555
Ni0 O6 1.869207 1_565
Ni0 O9 1.876899 1_565
Ni0 O3 1.901309 1_555
Ni0 O4 1.940727 1_565
Ni1 O5 1.848432 1_545
Ni1 O8 1.848432 1_455
Ni1 O10 1.882975 1_555
Ni1 O11 1.887924 1_555
Ni1 O6 1.887924 1_555
Ni1 O4 1.967955 1_555
Ni2 O0 1.853363 1_555
Ni2 O1 1.854572 1_555
Ni2 O11 1.869207 1_655
Ni2 O9 1.876899 1_655
Ni2 O3 1.901309 1_555
Ni2 O4 1.940727 1_655
Ni3 O12 1.816764 1_555
Ni3 O16 1.816764 1_555
Ni3 O18 1.860408 1_555
Ni3 O7 1.872491 1_555
Ni4 O14 1.858053 1_555
Ni4 O8 1.862448 1_455
Ni4 O17 1.889723 1_455
Ni4 O7 1.896624 1_555
Ni4 O13 1.899552 1_455
Ni4 O10 1.912545 1_555
Ni5 O17 1.891866 1_555
Ni5 O6 1.903640 1_565
Ni5 O11 1.903640 1_655
Ni5 O4 1.990110 1_665
Ni6 O24 1.828766 1_545
Ni6 O21 1.828766 1_455
Ni6 O26 1.863130 1_445
Ni6 O15 1.865838 1_555
Ni7 O19 1.858053 1_555
Ni7 O5 1.862448 1_545
Ni7 O17 1.889723 1_545
Ni7 O7 1.896624 1_555
Ni7 O13 1.899552 1_545
Ni7 O10 1.912545 1_555
Ni8 O16 1.883051 1_555
Ni8 O22 1.886909 1_655
Ni8 O18 1.921856 1_655
Ni8 O20 1.926222 1_555
Ni8 O15 1.928282 1_655
Ni8 O25 1.932817 1_555
Ni9 O19 1.814521 1_555
Ni9 O14 1.814521 1_555
Ni9 O13 1.878855 1_555
Ni9 O25 1.885628 1_555
Ni10 O12 1.883051 1_555
Ni10 O27 1.886909 1_565
Ni10 O18 1.921856 1_565
Ni10 O20 1.926222 1_555
Ni10 O15 1.928282 1_565
Ni10 O25 1.932817 1_555
Ni11 O21 1.855888 1_455
Ni11 O23 1.869007 1_455
Ni11 O30 1.899537 1_555
Ni11 O31 1.904519 1_555
Ni11 O26 1.913712 1_455
Ni11 O28 1.972882 1_555
Ni12 O24 1.855888 1_545
Ni12 O23 1.869007 1_545
Ni12 O30 1.899537 1_555
Ni12 O29 1.904519 1_555
Ni12 O26 1.913712 1_545
Ni12 O28 1.972882 1_555
Ni13 O27 1.824762 1_555
Ni13 O22 1.824762 1_555
Ni13 O30 1.867592 1_555
Ni13 O20 1.868700 1_555
Ni14 O0 1.851575 1_555
Ni14 O2 1.851575 1_555
Ni14 O29 1.881403 1_556
Ni14 O31 1.881403 1_556
Ni14 O3 1.899808 1_555
Ni14 O28 1.940856 1_556
Ni15 O9 1.892429 1_554
Ni15 O29 1.902678 1_455
Ni15 O31 1.902678 1_545
Ni15 O28 1.984968 1_555
