# generated using pymatgen
data_Cr3HgF6
_symmetry_space_group_name_H-M   'P 1'
_cell_length_a   8.65991400
_cell_length_b   8.98901709
_cell_length_c   16.55828478
_cell_angle_alpha   98.87976404
_cell_angle_beta   90.08319478
_cell_angle_gamma   115.93086400
_symmetry_Int_Tables_number   1
_chemical_formula_structural   Cr3HgF6
_chemical_formula_sum   'Cr3 Hg1 F6'
_cell_volume   1141.84777055
_cell_formula_units_Z   1
loop_
 _symmetry_equiv_pos_site_id
 _symmetry_equiv_pos_as_xyz
  1  'x, y, z'
loop_
 _atom_site_type_symbol
 _atom_site_label
 _atom_site_symmetry_multiplicity
 _atom_site_fract_x
 _atom_site_fract_y
 _atom_site_fract_z
 _atom_site_occupancy
  Cr  Cr0  1  0.00000000  0.00000000  0.50000000  1
  Cr  Cr1  1  0.00000000  0.50000000  0.00000000  1
  Cr  Cr2  1  0.50000000  0.00000000  0.00000000  1
  Hg  Hg0  1  0.00000000  0.00000000  0.00000000  1
  F  F0  1  0.37062600  0.01708200  0.91798400  1
  F  F1  1  0.62937400  0.98291800  0.08201600  1
  F  F2  1  0.01696700  0.07337500  0.61006800  1
  F  F3  1  0.98303300  0.92662500  0.38993200  1
  F  F4  1  0.10773400  0.36585200  0.97426800  1
  F  F5  1  0.89226600  0.63414800  0.02573200  1
loop_
_geom_bond_atom_site_label_1
_geom_bond_atom_site_label_2
_geom_bond_distance
_geom_bond_site_symmetry_2
Cr0 F3 1.822530 1_445
Cr0 F2 1.822530 1_555
Cr1 F4 1.825519 1_554
Cr1 F5 1.825519 1_455
Cr2 F0 1.825787 1_554
Cr2 F1 1.825787 1_545
