# generated using pymatgen
data_Ba2NdInSe5
_symmetry_space_group_name_H-M   'P 1'
_cell_length_a   9.86525937
_cell_length_b   9.86525937
_cell_length_c   13.50990500
_cell_angle_alpha   90.00000000
_cell_angle_beta   90.00000000
_cell_angle_gamma   154.41634722
_symmetry_Int_Tables_number   1
_chemical_formula_structural   Ba2NdInSe5
_chemical_formula_sum   'Ba4 Nd2 In2 Se10'
_cell_volume   567.78058613
_cell_formula_units_Z   2
loop_
 _symmetry_equiv_pos_site_id
 _symmetry_equiv_pos_as_xyz
  1  'x, y, z'
loop_
 _atom_site_type_symbol
 _atom_site_label
 _atom_site_symmetry_multiplicity
 _atom_site_fract_x
 _atom_site_fract_y
 _atom_site_fract_z
 _atom_site_occupancy
  Ba  Ba0  1  0.13040900  0.86959100  0.81498800  1
  Ba  Ba1  1  0.86959100  0.13040900  0.31498800  1
  Ba  Ba2  1  0.11599200  0.88400800  0.18118600  1
  Ba  Ba3  1  0.88400800  0.11599200  0.68118600  1
  Nd  Nd0  1  0.21148400  0.78851600  0.51754600  1
  Nd  Nd1  1  0.78851600  0.21148400  0.01754600  1
  In  In0  1  0.44879500  0.55120500  0.93639900  1
  In  In1  1  0.55120500  0.44879500  0.43639900  1
  Se  Se0  1  0.35934100  0.64065900  0.50059400  1
  Se  Se1  1  0.64065900  0.35934100  0.00059400  1
  Se  Se2  1  0.29082100  0.70917900  0.16219600  1
  Se  Se3  1  0.70917900  0.29082100  0.66219600  1
  Se  Se4  1  0.31541600  0.68458400  0.86556300  1
  Se  Se5  1  0.68458400  0.31541600  0.36556300  1
  Se  Se6  1  0.50505900  0.49494100  0.76515000  1
  Se  Se7  1  0.49494100  0.50505900  0.26515000  1
  Se  Se8  1  0.04755800  0.95244200  0.54904800  1
  Se  Se9  1  0.95244200  0.04755800  0.04904800  1
loop_
_geom_bond_atom_site_label_1
_geom_bond_atom_site_label_2
_geom_bond_distance
_geom_bond_site_symmetry_2
Ba0 Se6 3.322845 1_455
Ba0 Se6 3.322845 1_565
Ba0 Se1 3.331298 1_566
Ba0 Se1 3.331298 1_456
Ba0 Se3 3.365855 1_455
Ba0 Se3 3.365855 1_565
Ba0 Se4 3.624669 1_555
Ba0 Se8 3.930599 1_555
Ba1 Se7 3.322845 1_655
Ba1 Se7 3.322845 1_545
Ba1 Se0 3.331298 1_655
Ba1 Se0 3.331298 1_545
Ba1 Se2 3.365855 1_545
Ba1 Se2 3.365855 1_655
Ba1 Se5 3.624669 1_555
Ba1 Se9 3.930599 1_555
Ba2 Se1 3.308895 1_565
Ba2 Se1 3.308895 1_455
Ba2 Se2 3.373624 1_555
Ba2 Se7 3.388590 1_455
Ba2 Se7 3.388590 1_565
Ba2 Se5 3.566152 1_455
Ba2 Se5 3.566152 1_565
Ba2 Se9 3.617931 1_465
Ba3 Se0 3.308895 1_655
Ba3 Se0 3.308895 1_545
Ba3 Se3 3.373624 1_555
Ba3 Se6 3.388590 1_545
Ba3 Se6 3.388590 1_655
Ba3 Se4 3.566152 1_545
Ba3 Se4 3.566152 1_655
Ba3 Se8 3.617931 1_645
Nd0 Se0 2.854094 1_555
Nd0 Se3 2.931193 1_565
Nd0 Se3 2.931193 1_455
Nd0 Se5 3.042174 1_565
Nd0 Se5 3.042174 1_455
Nd0 Se8 3.182655 1_555
Nd1 Se1 2.854094 1_555
Nd1 Se2 2.931193 1_545
Nd1 Se2 2.931193 1_655
Nd1 Se4 3.042174 1_544
Nd1 Se4 3.042174 1_654
Nd1 Se9 3.182655 1_555
In0 Se6 2.554310 1_555
In0 Se9 2.663087 1_566
In0 Se9 2.663087 1_456
In0 Se4 2.738948 1_555
In1 Se7 2.554310 1_555
In1 Se8 2.663087 1_655
In1 Se8 2.663087 1_545
In1 Se5 2.738948 1_555
