# generated using pymatgen
data_CaMo2P2O9
_symmetry_space_group_name_H-M   'P 1'
_cell_length_a   6.74183600
_cell_length_b   7.47425200
_cell_length_c   15.04679100
_cell_angle_alpha   90.00000000
_cell_angle_beta   90.00000000
_cell_angle_gamma   90.00000000
_symmetry_Int_Tables_number   1
_chemical_formula_structural   CaMo2P2O9
_chemical_formula_sum   'Ca4 Mo8 P8 O36'
_cell_volume   758.21052507
_cell_formula_units_Z   4
loop_
 _symmetry_equiv_pos_site_id
 _symmetry_equiv_pos_as_xyz
  1  'x, y, z'
loop_
 _atom_site_type_symbol
 _atom_site_label
 _atom_site_symmetry_multiplicity
 _atom_site_fract_x
 _atom_site_fract_y
 _atom_site_fract_z
 _atom_site_occupancy
  Ca  Ca0  1  0.75000000  0.89959300  0.77811700  1
  Ca  Ca1  1  0.75000000  0.60040700  0.27811700  1
  Ca  Ca2  1  0.25000000  0.39959300  0.72188300  1
  Ca  Ca3  1  0.25000000  0.10040700  0.22188300  1
  Mo  Mo0  1  0.75000000  0.36375500  0.87661200  1
  Mo  Mo1  1  0.25000000  0.63624500  0.12338800  1
  Mo  Mo2  1  0.25000000  0.86375500  0.62338800  1
  Mo  Mo3  1  0.75000000  0.13624500  0.37661200  1
  Mo  Mo4  1  0.50000000  0.00000000  0.00000000  1
  Mo  Mo5  1  0.50000000  0.50000000  0.50000000  1
  Mo  Mo6  1  0.00000000  0.50000000  0.50000000  1
  Mo  Mo7  1  0.00000000  0.00000000  0.00000000  1
  P  P0  1  0.25000000  0.36829100  0.92784800  1
  P  P1  1  0.75000000  0.63170900  0.07215200  1
  P  P2  1  0.75000000  0.86829100  0.57215200  1
  P  P3  1  0.25000000  0.13170900  0.42784800  1
  P  P4  1  0.75000000  0.39587400  0.69055100  1
  P  P5  1  0.75000000  0.10412600  0.19055100  1
  P  P6  1  0.25000000  0.89587400  0.80944900  1
  P  P7  1  0.25000000  0.60412600  0.30944900  1
  O  O0  1  0.05750500  0.60313600  0.36615000  1
  O  O1  1  0.55750500  0.39686400  0.63385000  1
  O  O2  1  0.94249500  0.10313600  0.13385000  1
  O  O3  1  0.44249500  0.89686400  0.86615000  1
  O  O4  1  0.94249500  0.39686400  0.63385000  1
  O  O5  1  0.44249500  0.60313600  0.36615000  1
  O  O6  1  0.05750500  0.89686400  0.86615000  1
  O  O7  1  0.55750500  0.10313600  0.13385000  1
  O  O8  1  0.25000000  0.31753500  0.47815400  1
  O  O9  1  0.75000000  0.68246500  0.52184600  1
  O  O10  1  0.75000000  0.81753500  0.02184600  1
  O  O11  1  0.25000000  0.18246500  0.97815400  1
  O  O12  1  0.75000000  0.11669500  0.93749300  1
  O  O13  1  0.25000000  0.88330500  0.06250700  1
  O  O14  1  0.25000000  0.61669500  0.56250700  1
  O  O15  1  0.75000000  0.38330500  0.43749300  1
  O  O16  1  0.75000000  0.22366500  0.74979300  1
  O  O17  1  0.25000000  0.77633500  0.25020700  1
  O  O18  1  0.25000000  0.72366500  0.75020700  1
  O  O19  1  0.75000000  0.27633500  0.24979300  1
  O  O20  1  0.43012900  0.12606400  0.36384000  1
  O  O21  1  0.93012900  0.87393600  0.63616000  1
  O  O22  1  0.56987100  0.62606400  0.13616000  1
  O  O23  1  0.06987100  0.37393600  0.86384000  1
  O  O24  1  0.56987100  0.87393600  0.63616000  1
  O  O25  1  0.06987100  0.12606400  0.36384000  1
  O  O26  1  0.43012900  0.37393600  0.86384000  1
  O  O27  1  0.93012900  0.62606400  0.13616000  1
  O  O28  1  0.75000000  0.48357300  0.00392600  1
  O  O29  1  0.25000000  0.05448500  0.74091300  1
  O  O30  1  0.25000000  0.44551500  0.24091300  1
  O  O31  1  0.75000000  0.55448500  0.75908700  1
  O  O32  1  0.75000000  0.01642700  0.50392600  1
  O  O33  1  0.25000000  0.98357300  0.49607400  1
  O  O34  1  0.25000000  0.51642700  0.99607400  1
  O  O35  1  0.75000000  0.94551500  0.25908700  1
loop_
_geom_bond_atom_site_label_1
_geom_bond_atom_site_label_2
_geom_bond_distance
_geom_bond_site_symmetry_2
Ca0 O16 2.459404 1_565
Ca0 O6 2.460277 1_655
Ca0 O3 2.460277 1_555
Ca0 O21 2.464554 1_555
Ca0 O24 2.464554 1_555
Ca0 O31 2.595269 1_555
Ca0 O12 2.895504 1_565
Ca1 O19 2.459404 1_555
Ca1 O0 2.460277 1_655
Ca1 O5 2.460277 1_555
Ca1 O27 2.464554 1_555
Ca1 O22 2.464554 1_555
Ca1 O35 2.595269 1_555
Ca1 O15 2.895504 1_555
Ca2 O18 2.459404 1_555
Ca2 O4 2.460277 1_455
Ca2 O1 2.460277 1_555
Ca2 O23 2.464554 1_555
Ca2 O26 2.464554 1_555
Ca2 O29 2.595269 1_555
Ca2 O14 2.895504 1_555
Ca3 O17 2.459404 1_545
Ca3 O7 2.460277 1_555
Ca3 O2 2.460277 1_455
Ca3 O25 2.464554 1_555
Ca3 O20 2.464554 1_555
Ca3 O30 2.595269 1_555
Ca3 O13 2.895504 1_545
Mo0 O12 2.061325 1_555
Mo0 O28 2.114661 1_556
Mo0 O26 2.166401 1_555
Mo0 O23 2.166401 1_655
Mo0 O16 2.176615 1_555
Mo0 O31 2.271427 1_555
Mo1 O13 2.061325 1_555
Mo1 O34 2.114661 1_554
Mo1 O22 2.166401 1_555
Mo1 O27 2.166401 1_455
Mo1 O17 2.176615 1_555
Mo1 O30 2.271427 1_555
Mo2 O14 2.061325 1_555
Mo2 O33 2.114661 1_555
Mo2 O21 2.166401 1_455
Mo2 O24 2.166401 1_555
Mo2 O18 2.176615 1_555
Mo2 O29 2.271427 1_565
Mo3 O15 2.061325 1_555
Mo3 O32 2.114661 1_555
Mo3 O25 2.166401 1_655
Mo3 O20 2.166401 1_555
Mo3 O19 2.176615 1_555
Mo3 O35 2.271427 1_545
Mo4 O13 2.118045 1_545
Mo4 O12 2.118045 1_554
Mo4 O7 2.191069 1_555
Mo4 O3 2.191069 1_544
Mo4 O10 2.192885 1_545
Mo4 O11 2.192885 1_554
Mo5 O14 2.118045 1_555
Mo5 O15 2.118045 1_555
Mo5 O5 2.191069 1_555
Mo5 O1 2.191069 1_555
Mo5 O9 2.192885 1_555
Mo5 O8 2.192885 1_555
Mo6 O14 2.118045 1_555
Mo6 O15 2.118045 1_455
Mo6 O0 2.191069 1_555
Mo6 O4 2.191069 1_455
Mo6 O9 2.192885 1_455
Mo6 O8 2.192885 1_555
Mo7 O13 2.118045 1_545
Mo7 O12 2.118045 1_454
Mo7 O2 2.191069 1_455
Mo7 O6 2.191069 1_544
Mo7 O10 2.192885 1_445
Mo7 O11 2.192885 1_554
O0 P7 1.553112 1_555
O1 P4 1.553112 1_555
O2 P5 1.553112 1_555
O3 P6 1.553112 1_555
O4 P4 1.553112 1_555
O5 P7 1.553112 1_555
O6 P6 1.553112 1_555
O7 P5 1.553112 1_555
O8 P3 1.581783 1_555
O9 P2 1.581783 1_555
O10 P1 1.581783 1_555
O11 P0 1.581783 1_555
O16 P4 1.565666 1_555
O17 P7 1.565666 1_555
O18 P6 1.565666 1_555
O19 P5 1.565666 1_555
O20 P3 1.550528 1_555
O21 P2 1.550528 1_555
O22 P1 1.550528 1_555
O23 P0 1.550528 1_555
O24 P2 1.550528 1_555
O25 P3 1.550528 1_555
O26 P0 1.550528 1_555
O27 P1 1.550528 1_555
O28 P1 1.509893 1_555
O29 P6 1.571266 1_545
O30 P7 1.571266 1_555
O31 P4 1.571266 1_555
O32 P2 1.509893 1_545
O33 P3 1.509893 1_565
O34 P0 1.509893 1_555
O35 P5 1.571266 1_565
