# generated using pymatgen
data_CaAl2SiO6
_symmetry_space_group_name_H-M   'P 1'
_cell_length_a   6.54044624
_cell_length_b   6.54044624
_cell_length_c   5.32471973
_cell_angle_alpha   78.12063271
_cell_angle_beta   78.12063271
_cell_angle_gamma   83.59878288
_symmetry_Int_Tables_number   1
_chemical_formula_structural   CaAl2SiO6
_chemical_formula_sum   'Ca2 Al4 Si2 O12'
_cell_volume   217.55693310
_cell_formula_units_Z   2
loop_
 _symmetry_equiv_pos_site_id
 _symmetry_equiv_pos_as_xyz
  1  'x, y, z'
loop_
 _atom_site_type_symbol
 _atom_site_label
 _atom_site_symmetry_multiplicity
 _atom_site_fract_x
 _atom_site_fract_y
 _atom_site_fract_z
 _atom_site_occupancy
  Ca  Ca0  1  0.69652900  0.32338500  0.24086100  1
  Ca  Ca1  1  0.32338500  0.69652900  0.74086100  1
  Al  Al0  1  0.61292300  0.80942500  0.20847900  1
  Al  Al1  1  0.80942500  0.61292300  0.70847900  1
  Al  Al2  1  0.08948200  0.90882400  0.26127000  1
  Al  Al3  1  0.90882400  0.08948200  0.76127000  1
  Si  Si0  1  0.18936400  0.38117100  0.28368200  1
  Si  Si1  1  0.38117100  0.18936400  0.78368200  1
  O  O0  1  0.82809600  0.97497600  0.12290400  1
  O  O1  1  0.35790200  0.91058200  0.32006400  1
  O  O2  1  0.61023200  0.66062800  0.97237900  1
  O  O3  1  0.02092900  0.20016800  0.37495600  1
  O  O4  1  0.11038200  0.62424400  0.20245500  1
  O  O5  1  0.33398100  0.35677800  0.51295000  1
  O  O6  1  0.20016800  0.02092900  0.87495600  1
  O  O7  1  0.62424400  0.11038200  0.70245500  1
  O  O8  1  0.35677800  0.33398100  0.01295000  1
  O  O9  1  0.97497600  0.82809600  0.62290400  1
  O  O10  1  0.91058200  0.35790200  0.82006400  1
  O  O11  1  0.66062800  0.61023200  0.47237900  1
loop_
_geom_bond_atom_site_label_1
_geom_bond_atom_site_label_2
_geom_bond_distance
_geom_bond_site_symmetry_2
Ca0 O10 2.366882 1_554
Ca0 O3 2.380446 1_655
Ca0 O11 2.414419 1_555
Ca0 O2 2.446198 1_554
Ca0 O0 2.501434 1_545
Ca0 O5 2.523855 1_555
Ca0 O7 2.542468 1_555
Ca0 O8 2.730685 1_555
Ca1 O1 2.366882 1_555
Ca1 O6 2.380446 1_565
Ca1 O2 2.414419 1_555
Ca1 O11 2.446198 1_555
Ca1 O9 2.501434 1_455
Ca1 O8 2.523855 1_556
Ca1 O4 2.542468 1_556
Ca1 O5 2.730685 1_555
Al0 O2 1.744858 1_554
Al0 O1 1.755159 1_555
Al0 O11 1.762214 1_555
Al0 O0 1.798124 1_555
Al1 O11 1.744858 1_555
Al1 O10 1.755159 1_555
Al1 O2 1.762214 1_555
Al1 O9 1.798124 1_555
Al2 O1 1.847290 1_555
Al2 O9 1.903539 1_455
Al2 O4 1.935653 1_555
Al2 O0 1.968520 1_455
Al2 O6 2.043849 1_564
Al2 O3 2.090725 1_565
Al3 O10 1.847290 1_555
Al3 O0 1.903539 1_546
Al3 O7 1.935653 1_555
Al3 O9 1.968520 1_545
Al3 O3 2.043849 1_655
Al3 O6 2.090725 1_655
O3 Si0 1.638533 1_555
O4 Si0 1.614674 1_555
O5 Si0 1.664928 1_555
O5 Si1 1.682348 1_555
O6 Si1 1.638533 1_555
O7 Si1 1.614674 1_555
O8 Si1 1.664928 1_554
O8 Si0 1.682348 1_555
