# generated using pymatgen
data_Sm2(Al3Co)3
_symmetry_space_group_name_H-M   'P 1'
_cell_length_a   7.36991328
_cell_length_b   7.36991328
_cell_length_c   9.32783234
_cell_angle_alpha   90.00000000
_cell_angle_beta   90.00000000
_cell_angle_gamma   119.05090774
_symmetry_Int_Tables_number   1
_chemical_formula_structural   Sm2(Al3Co)3
_chemical_formula_sum   'Sm4 Al18 Co6'
_cell_volume   442.90504522
_cell_formula_units_Z   2
loop_
 _symmetry_equiv_pos_site_id
 _symmetry_equiv_pos_as_xyz
  1  'x, y, z'
loop_
 _atom_site_type_symbol
 _atom_site_label
 _atom_site_symmetry_multiplicity
 _atom_site_fract_x
 _atom_site_fract_y
 _atom_site_fract_z
 _atom_site_occupancy
  Sm  Sm0  1  0.99248166  0.67224582  0.25000000  1
  Sm  Sm1  1  0.00751834  0.32775418  0.75000000  1
  Sm  Sm2  1  0.67224582  0.99248166  0.25000000  1
  Sm  Sm3  1  0.32775418  0.00751834  0.75000000  1
  Al  Al0  1  0.12817823  0.12817823  0.25000000  1
  Al  Al1  1  0.87182177  0.87182177  0.75000000  1
  Al  Al2  1  -0.00100661  0.33542614  0.07021356  1
  Al  Al3  1  0.00100661  0.66457386  0.92978644  1
  Al  Al4  1  0.00100661  0.66457386  0.57021356  1
  Al  Al5  1  0.33542614  -0.00100661  0.42978644  1
  Al  Al6  1  -0.00100661  0.33542614  0.42978644  1
  Al  Al7  1  0.66457386  0.00100661  0.57021356  1
  Al  Al8  1  0.66457386  0.00100661  0.92978644  1
  Al  Al9  1  0.33542614  -0.00100661  0.07021356  1
  Al  Al10  1  0.33249869  0.33249869  0.53451302  1
  Al  Al11  1  0.66750131  0.66750131  0.46548698  1
  Al  Al12  1  0.66750131  0.66750131  0.03451302  1
  Al  Al13  1  0.33249869  0.33249869  0.96548698  1
  Al  Al14  1  0.33865110  0.55158878  0.25000000  1
  Al  Al15  1  0.66134890  0.44841122  0.75000000  1
  Al  Al16  1  0.55158878  0.33865110  0.25000000  1
  Al  Al17  1  0.44841122  0.66134890  0.75000000  1
  Co  Co0  1  0.67049840  0.32950160  0.00000000  1
  Co  Co1  1  0.32950160  0.67049840  0.00000000  1
  Co  Co2  1  0.32950160  0.67049840  0.50000000  1
  Co  Co3  1  0.67049840  0.32950160  0.50000000  1
  Co  Co4  1  0.00000000  0.00000000  0.00000000  1
  Co  Co5  1  0.00000000  0.00000000  0.50000000  1
loop_
_geom_bond_atom_site_label_1
_geom_bond_atom_site_label_2
_geom_bond_distance
_geom_bond_site_symmetry_2
Al0 Co4 2.521139 1_555
Al0 Co5 2.521139 1_555
Al0 Al16 2.728141 1_555
Al0 Al14 2.728141 1_555
Al0 Al6 2.732047 1_555
Al0 Al5 2.732047 1_555
Al0 Al9 2.732047 1_555
Al0 Al2 2.732047 1_555
Al0 Sm2 3.004566 1_445
Al0 Sm0 3.004566 1_445
Al1 Co5 2.521139 1_665
Al1 Co4 2.521139 1_666
Al1 Al17 2.728141 1_555
Al1 Al15 2.728141 1_555
Al1 Al8 2.732047 1_565
Al1 Al4 2.732047 1_655
Al1 Al3 2.732047 1_655
Al1 Al7 2.732047 1_565
Al1 Sm1 3.004566 1_665
Al1 Sm3 3.004566 1_665
Al2 Co0 2.487837 1_455
Al2 Co4 2.560840 1_555
Al2 Co1 2.572666 1_555
Al2 Al3 2.750547 1_554
Al2 Al8 2.822297 1_454
Al2 Sm1 2.988671 1_554
Al2 Sm2 3.014713 1_445
Al2 Sm0 3.015354 1_455
Al3 Co1 2.487837 1_556
Al3 Co4 2.560840 1_566
Al3 Co0 2.572666 1_456
Al3 Al9 2.822297 1_566
Al3 Sm0 2.988671 1_456
Al3 Sm3 3.014713 1_565
Al3 Sm1 3.015354 1_555
Al4 Co2 2.487837 1_555
Al4 Co5 2.560840 1_565
Al4 Co3 2.572666 1_455
Al4 Al6 2.750547 1_555
Al4 Al5 2.822297 1_565
Al4 Sm0 2.988671 1_455
Al4 Sm3 3.014713 1_565
Al4 Sm1 3.015354 1_555
Al5 Co2 2.487837 1_545
Al5 Co5 2.560840 1_555
Al5 Co3 2.572666 1_555
Al5 Al7 2.750547 1_555
Al5 Sm3 2.988671 1_555
Al5 Sm0 3.014713 1_445
Al5 Sm2 3.015354 1_545
Al6 Co3 2.487837 1_455
Al6 Co5 2.560840 1_555
Al6 Co2 2.572666 1_555
Al6 Al7 2.822297 1_455
Al6 Sm1 2.988671 1_555
Al6 Sm2 3.014713 1_445
Al6 Sm0 3.015354 1_455
Al7 Co3 2.487837 1_555
Al7 Co5 2.560840 1_655
Al7 Co2 2.572666 1_545
Al7 Sm2 2.988671 1_545
Al7 Sm1 3.014713 1_655
Al7 Sm3 3.015354 1_555
Al8 Co0 2.487837 1_556
Al8 Co4 2.560840 1_656
Al8 Co1 2.572666 1_546
Al8 Al9 2.750547 1_556
Al8 Sm2 2.988671 1_546
Al8 Sm1 3.014713 1_655
Al8 Sm3 3.015354 1_555
Al9 Co1 2.487837 1_545
Al9 Co4 2.560840 1_555
Al9 Co0 2.572666 1_555
Al9 Sm3 2.988671 1_554
Al9 Sm0 3.014713 1_445
Al9 Sm2 3.015354 1_545
Al10 Co5 2.506317 1_555
Al10 Co2 2.522457 1_555
Al10 Co3 2.522457 1_555
Al10 Al5 2.654721 1_555
Al10 Al6 2.654721 1_555
Al10 Sm3 3.113919 1_555
Al10 Sm1 3.113919 1_555
Al11 Co5 2.506317 1_665
Al11 Co3 2.522457 1_555
Al11 Co2 2.522457 1_555
Al11 Al7 2.654721 1_565
Al11 Al4 2.654721 1_655
Al11 Sm2 3.113919 1_555
Al11 Sm0 3.113919 1_555
Al12 Co4 2.506317 1_665
Al12 Co0 2.522457 1_555
Al12 Co1 2.522457 1_555
Al12 Al8 2.654721 1_564
Al12 Al3 2.654721 1_654
Al12 Sm2 3.113919 1_555
Al12 Sm0 3.113919 1_555
Al13 Co4 2.506317 1_556
Al13 Co1 2.522457 1_556
Al13 Co0 2.522457 1_556
Al13 Al9 2.654721 1_556
Al13 Al2 2.654721 1_556
Al13 Sm3 3.113919 1_555
Al13 Sm1 3.113919 1_555
Al14 Co1 2.503590 1_555
Al14 Co2 2.503590 1_555
Al14 Al6 2.782740 1_555
Al14 Al2 2.782740 1_555
Al14 Sm2 2.973943 1_555
Al14 Sm0 3.082661 1_455
Al15 Co0 2.503590 1_556
Al15 Co3 2.503590 1_555
Al15 Al4 2.782740 1_655
Al15 Al3 2.782740 1_655
Al15 Sm3 2.973943 1_555
Al15 Sm1 3.082661 1_655
Al16 Co0 2.503590 1_555
Al16 Co3 2.503590 1_555
Al16 Al5 2.782740 1_555
Al16 Al9 2.782740 1_555
Al16 Sm0 2.973943 1_555
Al16 Sm2 3.082661 1_545
Al17 Co1 2.503590 1_556
Al17 Co2 2.503590 1_555
Al17 Al8 2.782740 1_565
Al17 Al7 2.782740 1_565
Al17 Sm1 2.973943 1_555
Al17 Sm3 3.082661 1_565
