# generated using pymatgen
data_Na2Pd(S4O13)2
_symmetry_space_group_name_H-M   'P 1'
_cell_length_a   16.35622600
_cell_length_b   7.24475700
_cell_length_c   9.61288232
_cell_angle_alpha   78.85107036
_cell_angle_beta   90.00000000
_cell_angle_gamma   90.00000000
_symmetry_Int_Tables_number   1
_chemical_formula_structural   Na2Pd(S4O13)2
_chemical_formula_sum   'Na4 Pd2 S16 O52'
_cell_volume   1117.59943980
_cell_formula_units_Z   2
loop_
 _symmetry_equiv_pos_site_id
 _symmetry_equiv_pos_as_xyz
  1  'x, y, z'
loop_
 _atom_site_type_symbol
 _atom_site_label
 _atom_site_symmetry_multiplicity
 _atom_site_fract_x
 _atom_site_fract_y
 _atom_site_fract_z
 _atom_site_occupancy
  Na  Na0  1  0.12295800  0.74361500  0.11231100  1
  Na  Na1  1  0.62295800  0.25638500  0.38768900  1
  Na  Na2  1  0.87704200  0.25638500  0.88768900  1
  Na  Na3  1  0.37704200  0.74361500  0.61231100  1
  Pd  Pd0  1  0.50000000  0.00000000  0.00000000  1
  Pd  Pd1  1  0.00000000  0.00000000  0.50000000  1
  S  S0  1  0.11438000  0.21187600  0.25579000  1
  S  S1  1  0.61438000  0.78812400  0.24421000  1
  S  S2  1  0.88562000  0.78812400  0.74421000  1
  S  S3  1  0.38562000  0.21187600  0.75579000  1
  S  S4  1  0.29266200  0.15881300  0.29674800  1
  S  S5  1  0.79266200  0.84118700  0.20325200  1
  S  S6  1  0.70733800  0.84118700  0.70325200  1
  S  S7  1  0.20733800  0.15881300  0.79674800  1
  S  S8  1  0.40931500  0.45915900  0.30138600  1
  S  S9  1  0.90931500  0.54084100  0.19861400  1
  S  S10  1  0.59068500  0.54084100  0.69861400  1
  S  S11  1  0.09068500  0.45915900  0.80138600  1
  S  S12  1  0.35024400  0.70697000  0.03878600  1
  S  S13  1  0.85024400  0.29303000  0.46121400  1
  S  S14  1  0.64975600  0.29303000  0.96121400  1
  S  S15  1  0.14975600  0.70697000  0.53878600  1
  O  O0  1  0.12882200  0.39386800  0.16989300  1
  O  O1  1  0.62882200  0.60613200  0.33010700  1
  O  O2  1  0.87117800  0.60613200  0.83010700  1
  O  O3  1  0.37117800  0.39386800  0.66989300  1
  O  O4  1  0.05954400  0.22198700  0.37763600  1
  O  O5  1  0.55954400  0.77801300  0.12236400  1
  O  O6  1  0.94045600  0.77801300  0.62236400  1
  O  O7  1  0.44045600  0.22198700  0.87763600  1
  O  O8  1  0.10202500  0.05308700  0.18929300  1
  O  O9  1  0.60202500  0.94691300  0.31070700  1
  O  O10  1  0.89797500  0.94691300  0.81070700  1
  O  O11  1  0.39797500  0.05308700  0.68929300  1
  O  O12  1  0.20356600  0.15685500  0.35731400  1
  O  O13  1  0.70356600  0.84314500  0.14268600  1
  O  O14  1  0.79643400  0.84314500  0.64268600  1
  O  O15  1  0.29643400  0.15685500  0.85731400  1
  O  O16  1  0.33628200  0.01245800  0.38748800  1
  O  O17  1  0.83628200  0.98754200  0.11251200  1
  O  O18  1  0.66371800  0.98754200  0.61251200  1
  O  O19  1  0.16371800  0.01245800  0.88748800  1
  O  O20  1  0.29446300  0.18496800  0.14639400  1
  O  O21  1  0.79446300  0.81503200  0.35360600  1
  O  O22  1  0.70553700  0.81503200  0.85360600  1
  O  O23  1  0.20553700  0.18496800  0.64639400  1
  O  O24  1  0.32015300  0.36341600  0.34249300  1
  O  O25  1  0.82015300  0.63658400  0.15750700  1
  O  O26  1  0.67984700  0.63658400  0.65750700  1
  O  O27  1  0.17984700  0.36341600  0.84249300  1
  O  O28  1  0.47142600  0.31797700  0.32967500  1
  O  O29  1  0.97142600  0.68202300  0.17032500  1
  O  O30  1  0.52857400  0.68202300  0.67032500  1
  O  O31  1  0.02857400  0.31797700  0.82967500  1
  O  O32  1  0.40894100  0.61888300  0.36831500  1
  O  O33  1  0.90894100  0.38111700  0.13168500  1
  O  O34  1  0.59105900  0.38111700  0.63168400  1
  O  O35  1  0.09105900  0.61888300  0.86831600  1
  O  O36  1  0.40582000  0.51667400  0.13416400  1
  O  O37  1  0.90582000  0.48332600  0.36583600  1
  O  O38  1  0.59418000  0.48332600  0.86583600  1
  O  O39  1  0.09418000  0.51667400  0.63416400  1
  O  O40  1  0.27021600  0.68833800  0.10123500  1
  O  O41  1  0.77021600  0.31166200  0.39876500  1
  O  O42  1  0.72978400  0.31166200  0.89876500  1
  O  O43  1  0.22978400  0.68833800  0.60123500  1
  O  O44  1  0.36241600  0.67356700  0.89818300  1
  O  O45  1  0.86241600  0.32643300  0.60181700  1
  O  O46  1  0.63758400  0.32643300  0.10181700  1
  O  O47  1  0.13758400  0.67356700  0.39818300  1
  O  O48  1  0.39314500  0.87324200  0.07446000  1
  O  O49  1  0.89314500  0.12675800  0.42554000  1
  O  O50  1  0.60685500  0.12675800  0.92554000  1
  O  O51  1  0.10685500  0.87324200  0.57446000  1
loop_
_geom_bond_atom_site_label_1
_geom_bond_atom_site_label_2
_geom_bond_distance
_geom_bond_site_symmetry_2
Na0 O40 2.447342 1_555
Na0 O0 2.488675 1_555
Na0 O8 2.516599 1_565
Na0 O29 2.560626 1_455
Na0 O19 2.698320 1_564
Na0 O47 2.706890 1_555
Na0 O35 2.722098 1_554
Na1 O41 2.447342 1_555
Na1 O1 2.488675 1_555
Na1 O9 2.516599 1_545
Na1 O28 2.560626 1_555
Na1 O18 2.698320 1_545
Na1 O46 2.706890 1_555
Na1 O34 2.722098 1_555
Na2 O42 2.447342 1_555
Na2 O2 2.488675 1_555
Na2 O10 2.516599 1_545
Na2 O31 2.560626 1_655
Na2 O17 2.698320 1_546
Na2 O45 2.706890 1_555
Na2 O33 2.722106 1_556
Na3 O43 2.447342 1_555
Na3 O3 2.488675 1_555
Na3 O11 2.516599 1_565
Na3 O30 2.560626 1_555
Na3 O16 2.698320 1_565
Na3 O44 2.706890 1_555
Na3 O32 2.722106 1_555
O0 S0 1.433526 1_555
O1 S1 1.433526 1_555
O2 S2 1.433526 1_555
O3 S3 1.433526 1_555
O4 S0 1.488260 1_555
O4 Pd1 2.046215 1_555
O5 S1 1.488260 1_555
O5 Pd0 2.046215 1_565
O6 S2 1.488260 1_555
O6 Pd1 2.046215 1_665
O7 S3 1.488260 1_555
O7 Pd0 2.046215 1_556
O8 S0 1.434301 1_555
O9 S1 1.434301 1_555
O10 S2 1.434301 1_555
O11 S3 1.434301 1_555
O12 S4 1.568320 1_555
O12 S0 1.757512 1_555
O13 S5 1.568320 1_555
O13 S1 1.757512 1_555
O14 S6 1.568320 1_555
O14 S2 1.757512 1_555
O15 S7 1.568320 1_555
O15 S3 1.757512 1_555
O16 S4 1.427048 1_555
O17 S5 1.427048 1_555
O18 S6 1.427048 1_555
O19 S7 1.427048 1_555
O20 S4 1.421216 1_555
O21 S5 1.421216 1_555
O22 S6 1.421216 1_555
O23 S7 1.421216 1_555
O24 S8 1.630361 1_555
O24 S4 1.686666 1_555
O25 S9 1.630361 1_555
O25 S5 1.686666 1_555
O26 S10 1.630361 1_555
O26 S6 1.686666 1_555
O27 S11 1.630361 1_555
O27 S7 1.686666 1_555
O28 S8 1.429903 1_555
O29 S9 1.429903 1_555
O30 S10 1.429903 1_555
O31 S11 1.429903 1_555
O32 S8 1.428604 1_555
O33 S9 1.428604 1_555
O34 S10 1.428610 1_555
O35 S11 1.428610 1_555
O36 S8 1.581731 1_555
O36 S12 1.754646 1_555
O37 S9 1.581731 1_555
O37 S13 1.754646 1_555
O38 S10 1.581731 1_555
O38 S14 1.754646 1_555
O39 S11 1.581731 1_555
O39 S15 1.754646 1_555
O40 S12 1.435489 1_555
O41 S13 1.435489 1_555
O42 S14 1.435489 1_555
O43 S15 1.435489 1_555
O44 S12 1.432310 1_556
O45 S13 1.432310 1_555
O46 S14 1.432310 1_554
O47 S15 1.432310 1_555
O48 S12 1.490233 1_555
O48 Pd0 2.038646 1_565
O49 S13 1.490233 1_555
O49 Pd1 2.038646 1_655
O50 S14 1.490233 1_555
O50 Pd0 2.038646 1_556
O51 S15 1.490233 1_555
O51 Pd1 2.038646 1_565
