# generated using pymatgen
data_Sr2SnSe3F2
_symmetry_space_group_name_H-M   'P 1'
_cell_length_a   6.19249000
_cell_length_b   6.19838100
_cell_length_c   19.73559600
_cell_angle_alpha   90.00000000
_cell_angle_beta   90.00000000
_cell_angle_gamma   90.00000000
_symmetry_Int_Tables_number   1
_chemical_formula_structural   Sr2SnSe3F2
_chemical_formula_sum   'Sr8 Sn4 Se12 F8'
_cell_volume   757.51951941
_cell_formula_units_Z   4
loop_
 _symmetry_equiv_pos_site_id
 _symmetry_equiv_pos_as_xyz
  1  'x, y, z'
loop_
 _atom_site_type_symbol
 _atom_site_label
 _atom_site_symmetry_multiplicity
 _atom_site_fract_x
 _atom_site_fract_y
 _atom_site_fract_z
 _atom_site_occupancy
  Sr  Sr0  1  0.50471900  0.75421300  0.06953300  1
  Sr  Sr1  1  0.00471900  0.74578700  0.93046700  1
  Sr  Sr2  1  0.99528100  0.25421300  0.43046700  1
  Sr  Sr3  1  0.49528100  0.24578700  0.56953300  1
  Sr  Sr4  1  0.50471900  0.75421300  0.43046700  1
  Sr  Sr5  1  0.00471900  0.74578700  0.56953300  1
  Sr  Sr6  1  0.99528100  0.25421300  0.06953300  1
  Sr  Sr7  1  0.49528100  0.24578700  0.93046700  1
  Sn  Sn0  1  0.58037500  0.14605500  0.25000000  1
  Sn  Sn1  1  0.08037500  0.35394500  0.75000000  1
  Sn  Sn2  1  0.91962500  0.64605500  0.25000000  1
  Sn  Sn3  1  0.41962500  0.85394500  0.75000000  1
  Se  Se0  1  0.48736900  0.25720700  0.36942900  1
  Se  Se1  1  0.98736900  0.24279300  0.63057100  1
  Se  Se2  1  0.01263100  0.75720700  0.13057100  1
  Se  Se3  1  0.51263100  0.74279300  0.86942900  1
  Se  Se4  1  0.50717500  0.73346000  0.25000000  1
  Se  Se5  1  0.00717500  0.76654000  0.75000000  1
  Se  Se6  1  0.99282500  0.23346000  0.25000000  1
  Se  Se7  1  0.49282500  0.26654000  0.75000000  1
  Se  Se8  1  0.48736900  0.25720700  0.13057100  1
  Se  Se9  1  0.98736900  0.24279300  0.86942900  1
  Se  Se10  1  0.01263100  0.75720700  0.36942900  1
  Se  Se11  1  0.51263100  0.74279300  0.63057100  1
  F  F0  1  0.25331100  0.49872600  0.49932600  1
  F  F1  1  0.75331100  0.00127400  0.50067400  1
  F  F2  1  0.24668900  0.99872600  0.00067400  1
  F  F3  1  0.74668900  0.50127400  0.99932600  1
  F  F4  1  0.74668900  0.50127400  0.50067400  1
  F  F5  1  0.24668900  0.99872600  0.49932600  1
  F  F6  1  0.75331100  0.00127400  0.99932600  1
  F  F7  1  0.25331100  0.49872600  0.00067400  1
loop_
_geom_bond_atom_site_label_1
_geom_bond_atom_site_label_2
_geom_bond_distance
_geom_bond_site_symmetry_2
Se0 Sn0 2.522268 1_555
Se0 Sr2 3.276765 1_455
Se0 Sr4 3.309525 1_555
Se0 Sr4 3.344101 1_545
Se0 Sr2 3.368084 1_555
Se1 Sn1 2.522268 1_655
Se1 Sr3 3.276765 1_555
Se1 Sr5 3.309525 1_645
Se1 Sr5 3.344101 1_655
Se1 Sr3 3.368084 1_655
Se2 Sn2 2.522268 1_455
Se2 Sr0 3.276765 1_555
Se2 Sr6 3.309525 1_465
Se2 Sr6 3.344101 1_455
Se2 Sr0 3.368084 1_455
Se3 Sn3 2.522268 1_555
Se3 Sr1 3.276765 1_655
Se3 Sr7 3.309525 1_555
Se3 Sr7 3.344101 1_565
Se3 Sr1 3.368084 1_555
Se4 Sn0 2.597282 1_565
Se4 Sn2 2.610920 1_555
Se4 Sr0 3.563978 1_555
Se4 Sr4 3.563978 1_555
Se5 Sn1 2.597282 1_555
Se5 Sn3 2.610920 1_555
Se5 Sr5 3.563978 1_555
Se5 Sr1 3.563978 1_555
Se6 Sn2 2.597282 1_555
Se6 Sn0 2.610920 1_555
Se6 Sr6 3.563978 1_555
Se6 Sr2 3.563978 1_555
Se7 Sn3 2.597282 1_545
Se7 Sn1 2.610920 1_555
Se7 Sr7 3.563978 1_555
Se7 Sr3 3.563978 1_555
Se8 Sn0 2.522268 1_555
Se8 Sr6 3.276765 1_455
Se8 Sr0 3.309525 1_555
Se8 Sr0 3.344101 1_545
Se8 Sr6 3.368084 1_555
Se9 Sn1 2.522268 1_655
Se9 Sr7 3.276765 1_555
Se9 Sr1 3.309525 1_645
Se9 Sr1 3.344101 1_655
Se9 Sr7 3.368084 1_655
Se10 Sn2 2.522268 1_455
Se10 Sr4 3.276765 1_555
Se10 Sr2 3.309525 1_465
Se10 Sr2 3.344101 1_455
Se10 Sr4 3.368084 1_455
Se11 Sn3 2.522268 1_555
Se11 Sr5 3.276765 1_655
Se11 Sr3 3.309525 1_555
Se11 Sr3 3.344101 1_565
Se11 Sr5 3.368084 1_555
F0 Sr3 2.573529 1_555
F0 Sr5 2.575792 1_555
F0 Sr2 2.587842 1_455
F0 Sr4 2.603531 1_555
F1 Sr2 2.573529 1_555
F1 Sr4 2.575792 1_545
F1 Sr3 2.587842 1_555
F1 Sr5 2.603531 1_645
F2 Sr1 2.573529 1_554
F2 Sr7 2.575792 1_564
F2 Sr0 2.587842 1_555
F2 Sr6 2.603531 1_465
F3 Sr0 2.573529 1_556
F3 Sr6 2.575792 1_556
F3 Sr1 2.587842 1_655
F3 Sr7 2.603531 1_555
F4 Sr4 2.573529 1_555
F4 Sr2 2.575792 1_555
F4 Sr5 2.587842 1_655
F4 Sr3 2.603531 1_555
F5 Sr5 2.573529 1_555
F5 Sr3 2.575792 1_565
F5 Sr4 2.587842 1_555
F5 Sr2 2.603531 1_465
F6 Sr6 2.573529 1_556
F6 Sr0 2.575792 1_546
F6 Sr7 2.587842 1_555
F6 Sr1 2.603531 1_645
F7 Sr7 2.573529 1_554
F7 Sr1 2.575792 1_554
F7 Sr6 2.587842 1_455
F7 Sr0 2.603531 1_555
