# generated using pymatgen
data_Ba4Tm2Cu6O13
_symmetry_space_group_name_H-M   'P 1'
_cell_length_a   12.60230616
_cell_length_b   12.58262615
_cell_length_c   5.49706470
_cell_angle_alpha   77.59293270
_cell_angle_beta   77.19257490
_cell_angle_gamma   25.21449239
_symmetry_Int_Tables_number   1
_chemical_formula_structural   Ba4Tm2Cu6O13
_chemical_formula_sum   'Ba4 Tm2 Cu6 O13'
_cell_volume   361.88523439
_cell_formula_units_Z   1
loop_
 _symmetry_equiv_pos_site_id
 _symmetry_equiv_pos_as_xyz
  1  'x, y, z'
loop_
 _atom_site_type_symbol
 _atom_site_label
 _atom_site_symmetry_multiplicity
 _atom_site_fract_x
 _atom_site_fract_y
 _atom_site_fract_z
 _atom_site_occupancy
  Ba  Ba0  1  0.85416800  0.33734300  0.14583200  1
  Ba  Ba1  1  0.33734300  0.85416800  0.66265700  1
  Ba  Ba2  1  0.14583200  0.66265700  0.85416800  1
  Ba  Ba3  1  0.66265700  0.14583200  0.33734300  1
  Tm  Tm0  1  0.50000000  0.00000000  0.50000000  1
  Tm  Tm1  1  0.00000000  0.50000000  0.00000000  1
  Cu  Cu0  1  0.43410700  0.93146600  0.06853400  1
  Cu  Cu1  1  0.93146600  0.43410700  0.56589300  1
  Cu  Cu2  1  0.56589300  0.06853400  0.93146600  1
  Cu  Cu3  1  0.06853400  0.56589300  0.43410700  1
  Cu  Cu4  1  0.24232600  0.75767400  0.24232600  1
  Cu  Cu5  1  0.75767400  0.24232600  0.75767400  1
  O  O0  1  0.34724100  0.80396900  0.19603100  1
  O  O1  1  0.80396900  0.34724100  0.65275900  1
  O  O2  1  0.65275900  0.19603100  0.80396900  1
  O  O3  1  0.19603100  0.65275900  0.34724100  1
  O  O4  1  0.19204000  0.19204000  0.30796000  1
  O  O5  1  0.69204000  0.69204000  0.80796000  1
  O  O6  1  0.30796000  0.30796000  0.19204000  1
  O  O7  1  0.80796000  0.80796000  0.69204000  1
  O  O8  1  0.69238000  0.69238000  0.30762000  1
  O  O9  1  0.19016400  0.19016400  0.80983600  1
  O  O10  1  0.80983600  0.80983600  0.19016400  1
  O  O11  1  0.30762000  0.30762000  0.69238000  1
  O  O12  1  0.00000000  0.00000000  0.00000000  1
loop_
_geom_bond_atom_site_label_1
_geom_bond_atom_site_label_2
_geom_bond_distance
_geom_bond_site_symmetry_2
Ba0 O1 2.721382 1_555
Ba0 O0 2.721382 1_555
Ba0 O1 2.869647 1_554
Ba0 O0 2.869647 1_645
Ba0 O9 2.929863 1_654
Ba0 O12 2.954841 1_655
Ba0 O5 3.027100 1_554
Ba0 O4 3.027100 1_655
Ba0 O8 3.054030 1_555
Ba1 O0 2.721382 1_555
Ba1 O1 2.721382 1_555
Ba1 O1 2.869647 1_465
Ba1 O0 2.869647 1_556
Ba1 O9 2.929863 1_565
Ba1 O12 2.954841 1_566
Ba1 O4 3.027100 1_565
Ba1 O5 3.027100 1_555
Ba1 O8 3.054030 1_555
Ba2 O3 2.721382 1_555
Ba2 O2 2.721382 1_555
Ba2 O3 2.869647 1_556
Ba2 O2 2.869647 1_465
Ba2 O10 2.929863 1_456
Ba2 O12 2.954841 1_566
Ba2 O7 3.027100 1_455
Ba2 O6 3.027100 1_556
Ba2 O11 3.054030 1_555
Ba3 O2 2.721382 1_555
Ba3 O3 2.721382 1_555
Ba3 O3 2.869647 1_645
Ba3 O2 2.869647 1_554
Ba3 O10 2.929863 1_545
Ba3 O12 2.954841 1_655
Ba3 O7 3.027100 1_545
Ba3 O6 3.027100 1_555
Ba3 O11 3.054030 1_555
Cu0 O4 1.940233 1_565
Cu0 O5 1.940233 1_554
Cu0 O8 1.962533 1_555
Cu0 O9 1.977642 1_564
Cu0 O0 2.572473 1_555
Cu1 O4 1.940233 1_655
Cu1 O5 1.940233 1_555
Cu1 O8 1.962533 1_555
Cu1 O9 1.977642 1_655
Cu1 O1 2.572473 1_555
Cu2 O7 1.940233 1_545
Cu2 O6 1.940233 1_556
Cu2 O11 1.962533 1_555
Cu2 O10 1.977642 1_546
Cu2 O2 2.572473 1_555
Cu3 O6 1.940233 1_555
Cu3 O7 1.940233 1_455
Cu3 O11 1.962533 1_555
Cu3 O10 1.977642 1_455
Cu3 O3 2.572473 1_555
Cu4 O3 1.825634 1_555
Cu4 O0 1.825634 1_555
Cu4 O12 1.899235 1_565
Cu5 O2 1.825634 1_555
Cu5 O1 1.825634 1_555
Cu5 O12 1.899235 1_656
O4 Tm1 2.401442 1_555
O4 Tm0 2.401442 1_555
O5 Tm0 2.401442 1_565
O5 Tm1 2.401442 1_656
O6 Tm1 2.401442 1_555
O6 Tm0 2.401442 1_555
O7 Tm0 2.401442 1_565
O7 Tm1 2.401442 1_656
O8 Tm1 2.370752 1_655
O8 Tm0 2.370752 1_565
O9 Tm0 2.402046 1_555
O9 Tm1 2.402046 1_556
O10 Tm1 2.402046 1_655
O10 Tm0 2.402046 1_565
O11 Tm0 2.370752 1_555
O11 Tm1 2.370752 1_556
