# generated using pymatgen
data_Mg30AlCdO32
_symmetry_space_group_name_H-M   'P 1'
_cell_length_a   8.57799600
_cell_length_b   8.57799600
_cell_length_c   8.56963700
_cell_angle_alpha   90.00000000
_cell_angle_beta   90.00000000
_cell_angle_gamma   90.00000000
_symmetry_Int_Tables_number   1
_chemical_formula_structural   Mg30AlCdO32
_chemical_formula_sum   'Mg30 Al1 Cd1 O32'
_cell_volume   630.57116150
_cell_formula_units_Z   1
loop_
 _symmetry_equiv_pos_site_id
 _symmetry_equiv_pos_as_xyz
  1  'x, y, z'
loop_
 _atom_site_type_symbol
 _atom_site_label
 _atom_site_symmetry_multiplicity
 _atom_site_fract_x
 _atom_site_fract_y
 _atom_site_fract_z
 _atom_site_occupancy
  Mg  Mg0  1  0.50000000  0.00000000  0.00000000  1
  Mg  Mg1  1  0.50000000  0.00000000  0.50000000  1
  Mg  Mg2  1  0.00000000  0.50000000  0.00000000  1
  Mg  Mg3  1  0.00000000  0.50000000  0.50000000  1
  Mg  Mg4  1  0.50000000  0.50000000  0.00000000  1
  Mg  Mg5  1  0.50000000  0.50000000  0.50000000  1
  Mg  Mg6  1  0.25259300  0.00000000  0.24979100  1
  Mg  Mg7  1  0.25259300  0.00000000  0.75020900  1
  Mg  Mg8  1  0.74740700  0.00000000  0.24979100  1
  Mg  Mg9  1  0.74740700  0.00000000  0.75020900  1
  Mg  Mg10  1  0.25037300  0.50000000  0.25074700  1
  Mg  Mg11  1  0.25037300  0.50000000  0.74925300  1
  Mg  Mg12  1  0.74962700  0.50000000  0.25074700  1
  Mg  Mg13  1  0.74962700  0.50000000  0.74925300  1
  Mg  Mg14  1  0.00000000  0.25259300  0.24979100  1
  Mg  Mg15  1  0.00000000  0.25259300  0.75020900  1
  Mg  Mg16  1  0.50000000  0.25037300  0.25074700  1
  Mg  Mg17  1  0.50000000  0.25037300  0.74925300  1
  Mg  Mg18  1  0.00000000  0.74740700  0.24979100  1
  Mg  Mg19  1  0.00000000  0.74740700  0.75020900  1
  Mg  Mg20  1  0.50000000  0.74962700  0.25074700  1
  Mg  Mg21  1  0.50000000  0.74962700  0.74925300  1
  Mg  Mg22  1  0.25077900  0.25077900  0.00000000  1
  Mg  Mg23  1  0.25194600  0.25194600  0.50000000  1
  Mg  Mg24  1  0.74922100  0.25077900  0.00000000  1
  Mg  Mg25  1  0.74805400  0.25194600  0.50000000  1
  Mg  Mg26  1  0.25077900  0.74922100  0.00000000  1
  Mg  Mg27  1  0.25194600  0.74805400  0.50000000  1
  Mg  Mg28  1  0.74922100  0.74922100  0.00000000  1
  Mg  Mg29  1  0.74805400  0.74805400  0.50000000  1
  Al  Al0  1  0.00000000  0.00000000  0.00000000  1
  Cd  Cd0  1  0.00000000  0.00000000  0.50000000  1
  O  O0  1  0.00000000  0.23987300  0.00000000  1
  O  O1  1  0.00000000  0.26801500  0.50000000  1
  O  O2  1  0.50000000  0.24873200  0.00000000  1
  O  O3  1  0.50000000  0.25262900  0.50000000  1
  O  O4  1  0.00000000  0.76012700  0.00000000  1
  O  O5  1  0.00000000  0.73198500  0.50000000  1
  O  O6  1  0.50000000  0.75126800  0.00000000  1
  O  O7  1  0.50000000  0.74737100  0.50000000  1
  O  O8  1  0.24955200  0.24955200  0.24948700  1
  O  O9  1  0.24955200  0.24955200  0.75051300  1
  O  O10  1  0.75044800  0.24955200  0.24948700  1
  O  O11  1  0.75044800  0.24955200  0.75051300  1
  O  O12  1  0.24955200  0.75044800  0.24948700  1
  O  O13  1  0.24955200  0.75044800  0.75051300  1
  O  O14  1  0.75044800  0.75044800  0.24948700  1
  O  O15  1  0.75044800  0.75044800  0.75051300  1
  O  O16  1  0.00000000  0.00000000  0.21674300  1
  O  O17  1  0.00000000  0.00000000  0.78325700  1
  O  O18  1  0.50000000  0.00000000  0.24469600  1
  O  O19  1  0.50000000  0.00000000  0.75530400  1
  O  O20  1  0.00000000  0.50000000  0.24469600  1
  O  O21  1  0.00000000  0.50000000  0.75530400  1
  O  O22  1  0.50000000  0.50000000  0.24862400  1
  O  O23  1  0.50000000  0.50000000  0.75137600  1
  O  O24  1  0.23987300  0.00000000  0.00000000  1
  O  O25  1  0.26801500  0.00000000  0.50000000  1
  O  O26  1  0.76012700  0.00000000  0.00000000  1
  O  O27  1  0.73198500  0.00000000  0.50000000  1
  O  O28  1  0.24873200  0.50000000  0.00000000  1
  O  O29  1  0.25262900  0.50000000  0.50000000  1
  O  O30  1  0.75126800  0.50000000  0.00000000  1
  O  O31  1  0.74737100  0.50000000  0.50000000  1
loop_
_geom_bond_atom_site_label_1
_geom_bond_atom_site_label_2
_geom_bond_distance
_geom_bond_site_symmetry_2
Mg0 O18 2.096956 1_555
Mg0 O19 2.096956 1_554
Mg0 O2 2.133622 1_555
Mg0 O6 2.133622 1_545
Mg0 O26 2.231368 1_555
Mg0 O24 2.231368 1_555
Mg1 O27 1.989966 1_555
Mg1 O25 1.989966 1_555
Mg1 O7 2.167051 1_545
Mg1 O3 2.167051 1_555
Mg1 O18 2.187863 1_555
Mg1 O19 2.187863 1_555
Mg2 O20 2.096956 1_555
Mg2 O21 2.096956 1_554
Mg2 O28 2.133622 1_555
Mg2 O30 2.133622 1_455
Mg2 O4 2.231368 1_555
Mg2 O0 2.231368 1_555
Mg3 O5 1.989966 1_555
Mg3 O1 1.989966 1_555
Mg3 O29 2.167051 1_555
Mg3 O31 2.167051 1_455
Mg3 O21 2.187863 1_555
Mg3 O20 2.187863 1_555
Mg4 O22 2.130617 1_555
Mg4 O23 2.130617 1_554
Mg4 O6 2.155376 1_555
Mg4 O30 2.155376 1_555
Mg4 O2 2.155376 1_555
Mg4 O28 2.155376 1_555
Mg5 O29 2.121947 1_555
Mg5 O7 2.121947 1_555
Mg5 O31 2.121947 1_555
Mg5 O3 2.121947 1_555
Mg5 O23 2.154201 1_555
Mg5 O22 2.154201 1_555
Mg6 O18 2.122705 1_555
Mg6 O8 2.140817 1_555
Mg6 O12 2.140817 1_545
Mg6 O24 2.143397 1_555
Mg6 O25 2.148277 1_555
Mg6 O16 2.185172 1_555
Mg7 O19 2.122705 1_555
Mg7 O13 2.140817 1_545
Mg7 O9 2.140817 1_555
Mg7 O24 2.143397 1_556
Mg7 O25 2.148277 1_555
Mg7 O17 2.185172 1_555
Mg8 O18 2.122705 1_555
Mg8 O14 2.140817 1_545
Mg8 O10 2.140817 1_555
Mg8 O26 2.143397 1_555
Mg8 O27 2.148277 1_555
Mg8 O16 2.185172 1_655
Mg9 O19 2.122705 1_555
Mg9 O11 2.140817 1_555
Mg9 O15 2.140817 1_545
Mg9 O26 2.143397 1_556
Mg9 O27 2.148277 1_555
Mg9 O17 2.185172 1_655
Mg10 O29 2.136095 1_555
Mg10 O22 2.141377 1_555
Mg10 O20 2.148325 1_555
Mg10 O8 2.148381 1_555
Mg10 O12 2.148381 1_555
Mg10 O28 2.148857 1_555
Mg11 O29 2.136095 1_555
Mg11 O23 2.141377 1_555
Mg11 O21 2.148325 1_555
Mg11 O9 2.148381 1_555
Mg11 O13 2.148381 1_555
Mg11 O28 2.148857 1_556
Mg12 O31 2.136095 1_555
Mg12 O22 2.141377 1_555
Mg12 O20 2.148325 1_655
Mg12 O14 2.148381 1_555
Mg12 O10 2.148381 1_555
Mg12 O30 2.148857 1_555
Mg13 O31 2.136095 1_555
Mg13 O23 2.141377 1_555
Mg13 O21 2.148325 1_655
Mg13 O11 2.148381 1_555
Mg13 O15 2.148381 1_555
Mg13 O30 2.148857 1_556
Mg14 O20 2.122705 1_555
Mg14 O8 2.140817 1_555
Mg14 O10 2.140817 1_455
Mg14 O0 2.143397 1_555
Mg14 O1 2.148277 1_555
Mg14 O16 2.185172 1_555
Mg15 O21 2.122705 1_555
Mg15 O9 2.140817 1_555
Mg15 O11 2.140817 1_455
Mg15 O0 2.143397 1_556
Mg15 O1 2.148277 1_555
Mg15 O17 2.185172 1_555
Mg16 O3 2.136095 1_555
Mg16 O22 2.141377 1_555
Mg16 O18 2.148325 1_555
Mg16 O8 2.148381 1_555
Mg16 O10 2.148381 1_555
Mg16 O2 2.148857 1_555
Mg17 O3 2.136095 1_555
Mg17 O23 2.141377 1_555
Mg17 O19 2.148325 1_555
Mg17 O11 2.148381 1_555
Mg17 O9 2.148381 1_555
Mg17 O2 2.148857 1_556
Mg18 O20 2.122705 1_555
Mg18 O14 2.140817 1_455
Mg18 O12 2.140817 1_555
Mg18 O4 2.143397 1_555
Mg18 O5 2.148277 1_555
Mg18 O16 2.185172 1_565
Mg19 O21 2.122705 1_555
Mg19 O15 2.140817 1_455
Mg19 O13 2.140817 1_555
Mg19 O4 2.143397 1_556
Mg19 O5 2.148277 1_555
Mg19 O17 2.185172 1_565
Mg20 O7 2.136095 1_555
Mg20 O22 2.141377 1_555
Mg20 O18 2.148325 1_565
Mg20 O14 2.148381 1_555
Mg20 O12 2.148381 1_555
Mg20 O6 2.148857 1_555
Mg21 O7 2.136095 1_555
Mg21 O23 2.141377 1_555
Mg21 O19 2.148325 1_565
Mg21 O15 2.148381 1_555
Mg21 O13 2.148381 1_555
Mg21 O6 2.148857 1_556
Mg22 O2 2.137889 1_555
Mg22 O28 2.137889 1_555
Mg22 O8 2.138065 1_555
Mg22 O9 2.138065 1_554
Mg22 O24 2.153215 1_555
Mg22 O0 2.153215 1_555
Mg23 O3 2.127814 1_555
Mg23 O29 2.127814 1_555
Mg23 O8 2.147002 1_555
Mg23 O9 2.147002 1_555
Mg23 O25 2.165583 1_555
Mg23 O1 2.165583 1_555
Mg24 O2 2.137889 1_555
Mg24 O30 2.137889 1_555
Mg24 O10 2.138065 1_555
Mg24 O11 2.138065 1_554
Mg24 O26 2.153215 1_555
Mg24 O0 2.153215 1_655
Mg25 O3 2.127814 1_555
Mg25 O31 2.127814 1_555
Mg25 O10 2.147002 1_555
Mg25 O11 2.147002 1_555
Mg25 O27 2.165583 1_555
Mg25 O1 2.165583 1_655
Mg26 O28 2.137889 1_555
Mg26 O6 2.137889 1_555
Mg26 O12 2.138065 1_555
Mg26 O13 2.138065 1_554
Mg26 O4 2.153215 1_555
Mg26 O24 2.153215 1_565
Mg27 O29 2.127814 1_555
Mg27 O7 2.127814 1_555
Mg27 O12 2.147002 1_555
Mg27 O13 2.147002 1_555
Mg27 O25 2.165583 1_565
Mg27 O5 2.165583 1_555
Mg28 O30 2.137889 1_555
Mg28 O6 2.137889 1_555
Mg28 O14 2.138065 1_555
Mg28 O15 2.138065 1_554
Mg28 O26 2.153215 1_565
Mg28 O4 2.153215 1_655
Mg29 O7 2.127814 1_555
Mg29 O31 2.127814 1_555
Mg29 O14 2.147002 1_555
Mg29 O15 2.147002 1_555
Mg29 O27 2.165583 1_565
Mg29 O5 2.165583 1_655
Al0 O16 1.857409 1_555
Al0 O17 1.857409 1_554
Al0 O4 2.057630 1_545
Al0 O0 2.057630 1_555
Al0 O24 2.057630 1_555
Al0 O26 2.057630 1_455
Cd0 O25 2.299032 1_555
Cd0 O5 2.299032 1_545
Cd0 O1 2.299032 1_555
Cd0 O27 2.299032 1_455
Cd0 O17 2.427410 1_555
Cd0 O16 2.427410 1_555
