# generated using pymatgen
data_LiTaN2
_symmetry_space_group_name_H-M   'P 1'
_cell_length_a   3.02758566
_cell_length_b   3.02758566
_cell_length_c   10.51757500
_cell_angle_alpha   90.00000000
_cell_angle_beta   90.00000000
_cell_angle_gamma   119.99999265
_symmetry_Int_Tables_number   1
_chemical_formula_structural   LiTaN2
_chemical_formula_sum   'Li2 Ta2 N4'
_cell_volume   83.49090367
_cell_formula_units_Z   2
loop_
 _symmetry_equiv_pos_site_id
 _symmetry_equiv_pos_as_xyz
  1  'x, y, z'
loop_
 _atom_site_type_symbol
 _atom_site_label
 _atom_site_symmetry_multiplicity
 _atom_site_fract_x
 _atom_site_fract_y
 _atom_site_fract_z
 _atom_site_occupancy
  Li  Li0  1  0.00000000  0.00000000  0.50000000  1
  Li  Li1  1  0.00000000  0.00000000  0.00000000  1
  Ta  Ta0  1  0.33333300  0.66666700  0.75000000  1
  Ta  Ta1  1  0.66666700  0.33333300  0.25000000  1
  N  N0  1  0.66666700  0.33333300  0.63270400  1
  N  N1  1  0.33333300  0.66666700  0.36729600  1
  N  N2  1  0.33333300  0.66666700  0.13270400  1
  N  N3  1  0.66666700  0.33333300  0.86729600  1
loop_
_geom_bond_atom_site_label_1
_geom_bond_atom_site_label_2
_geom_bond_distance
_geom_bond_site_symmetry_2
Li0 N0 2.236843 1_455
Li0 N1 2.236843 1_545
Li0 N0 2.236845 1_445
Li0 N0 2.236845 1_555
Li0 N1 2.236845 1_445
Li0 N1 2.236845 1_555
Li1 N2 2.236843 1_545
Li1 N3 2.236843 1_454
Li1 N2 2.236845 1_445
Li1 N2 2.236845 1_555
Li1 N3 2.236845 1_554
Li1 N3 2.236845 1_444
N0 Ta0 2.139477 1_655
N0 Ta0 2.139477 1_545
N0 Ta0 2.139481 1_555
N1 Ta1 2.139477 1_455
N1 Ta1 2.139477 1_565
N1 Ta1 2.139481 1_555
N2 Ta1 2.139477 1_455
N2 Ta1 2.139477 1_565
N2 Ta1 2.139481 1_555
N3 Ta0 2.139477 1_545
N3 Ta0 2.139477 1_655
N3 Ta0 2.139481 1_555
