# generated using pymatgen
data_Eu2Si
_symmetry_space_group_name_H-M   'P 1'
_cell_length_a   4.96433743
_cell_length_b   7.60557149
_cell_length_c   9.36734580
_cell_angle_alpha   89.99986470
_cell_angle_beta   90.00000000
_cell_angle_gamma   90.00000000
_symmetry_Int_Tables_number   1
_chemical_formula_structural   Eu2Si
_chemical_formula_sum   'Eu8 Si4'
_cell_volume   353.67934598
_cell_formula_units_Z   4
loop_
 _symmetry_equiv_pos_site_id
 _symmetry_equiv_pos_as_xyz
  1  'x, y, z'
loop_
 _atom_site_type_symbol
 _atom_site_label
 _atom_site_symmetry_multiplicity
 _atom_site_fract_x
 _atom_site_fract_y
 _atom_site_fract_z
 _atom_site_occupancy
  Eu  Eu0  1  0.25000000  0.52174645  0.81804288  1
  Eu  Eu1  1  0.25000000  0.02169693  0.68208408  1
  Eu  Eu2  1  0.75000000  0.47825355  0.18195712  1
  Eu  Eu3  1  0.75000000  0.97830307  0.31791592  1
  Eu  Eu4  1  0.25000000  0.65733353  0.42245718  1
  Eu  Eu5  1  0.25000000  0.15730999  0.07744410  1
  Eu  Eu6  1  0.75000000  0.34266647  0.57754282  1
  Eu  Eu7  1  0.75000000  0.84269001  0.92255590  1
  Si  Si0  1  0.25000000  0.74752691  0.10454376  1
  Si  Si1  1  0.25000000  0.24755192  0.39543025  1
  Si  Si2  1  0.75000000  0.25247309  0.89545624  1
  Si  Si3  1  0.75000000  0.75244808  0.60456975  1
loop_
_geom_bond_atom_site_label_1
_geom_bond_atom_site_label_2
_geom_bond_distance
_geom_bond_site_symmetry_2
Eu0 Si0 3.186109 1_556
Eu0 Si2 3.298670 1_455
Eu0 Si2 3.298670 1_555
Eu0 Si3 3.638480 1_455
Eu0 Si3 3.638480 1_555
Eu1 Si1 3.187615 1_555
Eu1 Si3 3.298764 1_545
Eu1 Si3 3.298764 1_445
Eu1 Si2 3.638238 1_455
Eu1 Si2 3.638238 1_555
Eu2 Si2 3.186109 1_554
Eu2 Si0 3.298670 1_555
Eu2 Si0 3.298670 1_655
Eu2 Si1 3.638480 1_555
Eu2 Si1 3.638480 1_655
Eu3 Si3 3.187615 1_555
Eu3 Si1 3.298764 1_665
Eu3 Si1 3.298764 1_565
Eu3 Si0 3.638238 1_555
Eu3 Si0 3.638238 1_655
Eu4 Si0 3.055988 1_555
Eu4 Si3 3.097517 1_455
Eu4 Si3 3.097517 1_555
Eu4 Si1 3.126890 1_555
Eu5 Si1 3.056738 1_555
Eu5 Si2 3.096958 1_454
Eu5 Si2 3.096958 1_554
Eu5 Si0 3.126955 1_545
Eu6 Si2 3.055988 1_555
Eu6 Si1 3.097517 1_555
Eu6 Si1 3.097517 1_655
Eu6 Si3 3.126890 1_555
Eu7 Si3 3.056738 1_555
Eu7 Si0 3.096958 1_656
Eu7 Si0 3.096958 1_556
Eu7 Si2 3.126955 1_565
