# generated using pymatgen
data_Y2Ge6Pd
_symmetry_space_group_name_H-M   'P 1'
_cell_length_a   4.06270000
_cell_length_b   4.10920900
_cell_length_c   11.19633277
_cell_angle_alpha   90.00000000
_cell_angle_beta   100.45306094
_cell_angle_gamma   90.00000000
_symmetry_Int_Tables_number   1
_chemical_formula_structural   Y2Ge6Pd
_chemical_formula_sum   'Y2 Ge6 Pd1'
_cell_volume   183.81489333
_cell_formula_units_Z   1
loop_
 _symmetry_equiv_pos_site_id
 _symmetry_equiv_pos_as_xyz
  1  'x, y, z'
loop_
 _atom_site_type_symbol
 _atom_site_label
 _atom_site_symmetry_multiplicity
 _atom_site_fract_x
 _atom_site_fract_y
 _atom_site_fract_z
 _atom_site_occupancy
  Y  Y0  1  0.77796400  0.50000000  0.55592700  1
  Y  Y1  1  0.11757200  0.50000000  0.23514300  1
  Ge  Ge0  1  0.49368000  0.50000000  0.98736000  1
  Ge  Ge1  1  0.38016600  0.50000000  0.76033200  1
  Ge  Ge2  1  0.99250900  0.00000000  0.98501900  1
  Ge  Ge3  1  0.87853900  0.00000000  0.75707700  1
  Ge  Ge4  1  0.66878000  0.00000000  0.33756000  1
  Ge  Ge5  1  0.23931000  0.00000000  0.47862000  1
  Pd  Pd0  1  0.55848000  0.00000000  0.11696100  1
loop_
_geom_bond_atom_site_label_1
_geom_bond_atom_site_label_2
_geom_bond_distance
_geom_bond_site_symmetry_2
Ge0 Ge1 2.499696 1_555
Ge0 Pd0 2.501530 1_566
Ge0 Pd0 2.501530 1_556
Ge0 Ge2 2.889366 1_565
Ge0 Ge2 2.889366 1_555
Ge0 Ge2 2.889369 1_465
Ge0 Ge2 2.889369 1_455
Ge0 Y1 3.401405 1_556
Ge0 Y1 3.401407 1_656
Ge1 Ge3 2.889474 1_465
Ge1 Ge3 2.889474 1_455
Ge1 Ge3 2.889477 1_565
Ge1 Ge3 2.889477 1_555
Ge1 Y0 3.031765 1_455
Ge1 Y0 3.031767 1_555
Ge2 Pd0 2.497371 1_656
Ge2 Pd0 2.497371 1_556
Ge2 Ge3 2.509759 1_555
Ge2 Y1 3.435969 1_646
Ge2 Y1 3.435969 1_656
Ge3 Y0 3.021024 1_545
Ge3 Y0 3.021024 1_555
Ge4 Pd0 2.428909 1_555
Ge4 Ge5 2.557076 1_655
Ge4 Ge5 2.557076 1_555
Ge4 Y1 3.101516 1_545
Ge4 Y1 3.101516 1_555
Ge4 Y1 3.101519 1_645
Ge4 Y1 3.101519 1_655
Ge4 Y0 3.162629 1_555
Ge4 Y0 3.162629 1_545
Ge5 Y0 3.012026 1_455
Ge5 Y0 3.012026 1_445
Ge5 Y0 3.012028 1_555
Ge5 Y0 3.012028 1_545
Ge5 Y1 3.377592 1_545
Ge5 Y1 3.377592 1_555
Pd0 Y1 3.168754 1_555
Pd0 Y1 3.168754 1_545
Pd0 Y1 3.168760 1_655
Pd0 Y1 3.168760 1_645
