# generated using pymatgen
data_Cr3N2
_symmetry_space_group_name_H-M   'P 1'
_cell_length_a   4.45756206
_cell_length_b   4.45756206
_cell_length_c   5.02818600
_cell_angle_alpha   90.00000000
_cell_angle_beta   90.00000000
_cell_angle_gamma   120.00000089
_symmetry_Int_Tables_number   1
_chemical_formula_structural   Cr3N2
_chemical_formula_sum   'Cr3 N2'
_cell_volume   86.52403392
_cell_formula_units_Z   1
loop_
 _symmetry_equiv_pos_site_id
 _symmetry_equiv_pos_as_xyz
  1  'x, y, z'
loop_
 _atom_site_type_symbol
 _atom_site_label
 _atom_site_symmetry_multiplicity
 _atom_site_fract_x
 _atom_site_fract_y
 _atom_site_fract_z
 _atom_site_occupancy
  Cr  Cr0  1  0.00000000  0.67736100  0.00000000  1
  Cr  Cr1  1  0.67736100  0.00000000  0.00000000  1
  Cr  Cr2  1  0.32263900  0.32263900  0.00000000  1
  N  N0  1  0.66666700  0.33333300  0.79771500  1
  N  N1  1  0.33333300  0.66666700  0.20228500  1
loop_
_geom_bond_atom_site_label_1
_geom_bond_atom_site_label_2
_geom_bond_distance
_geom_bond_site_symmetry_2
Cr0 N1 1.820826 1_555
Cr0 N0 1.820828 1_454
Cr1 N0 1.820826 1_554
Cr1 N1 1.820828 1_545
Cr2 N1 1.820829 1_555
Cr2 N0 1.820829 1_554
