# generated using pymatgen
data_YMn2O4
_symmetry_space_group_name_H-M   'P 1'
_cell_length_a   6.39070712
_cell_length_b   6.39070712
_cell_length_c   6.39070725
_cell_angle_alpha   60.12915235
_cell_angle_beta   60.12915235
_cell_angle_gamma   60.12914614
_symmetry_Int_Tables_number   1
_chemical_formula_structural   YMn2O4
_chemical_formula_sum   'Y2 Mn4 O8'
_cell_volume   185.09749666
_cell_formula_units_Z   2
loop_
 _symmetry_equiv_pos_site_id
 _symmetry_equiv_pos_as_xyz
  1  'x, y, z'
loop_
 _atom_site_type_symbol
 _atom_site_label
 _atom_site_symmetry_multiplicity
 _atom_site_fract_x
 _atom_site_fract_y
 _atom_site_fract_z
 _atom_site_occupancy
  Y  Y0  1  0.61775600  0.61775600  0.61775600  1
  Y  Y1  1  0.38224400  0.38224400  0.38224400  1
  Mn  Mn0  1  0.50000000  0.00000000  0.00000000  1
  Mn  Mn1  1  0.00000000  0.00000000  0.00000000  1
  Mn  Mn2  1  0.00000000  0.50000000  0.00000000  1
  Mn  Mn3  1  0.00000000  0.00000000  0.50000000  1
  O  O0  1  0.75770500  0.19923500  0.75770500  1
  O  O1  1  0.24229500  0.24229500  0.80076500  1
  O  O2  1  0.80076500  0.24229500  0.24229500  1
  O  O3  1  0.24765900  0.24765900  0.24765900  1
  O  O4  1  0.75770500  0.75770500  0.19923500  1
  O  O5  1  0.24229500  0.80076500  0.24229500  1
  O  O6  1  0.19923500  0.75770500  0.75770500  1
  O  O7  1  0.75234100  0.75234100  0.75234100  1
loop_
_geom_bond_atom_site_label_1
_geom_bond_atom_site_label_2
_geom_bond_distance
_geom_bond_site_symmetry_2
Mn0 O4 2.077470 1_545
Mn0 O1 2.077470 1_554
Mn0 O0 2.077470 1_554
Mn0 O5 2.077470 1_545
Mn0 O3 2.240766 1_555
Mn0 O7 2.240766 1_544
Mn1 O2 2.208410 1_455
Mn1 O5 2.208410 1_545
Mn1 O0 2.208410 1_454
Mn1 O6 2.208410 1_544
Mn1 O1 2.208410 1_554
Mn1 O4 2.208410 1_445
Mn2 O4 2.077470 1_455
Mn2 O1 2.077470 1_554
Mn2 O6 2.077470 1_554
Mn2 O2 2.077470 1_455
Mn2 O3 2.240766 1_555
Mn2 O7 2.240766 1_454
Mn3 O6 2.077470 1_545
Mn3 O0 2.077470 1_455
Mn3 O2 2.077470 1_455
Mn3 O5 2.077470 1_545
Mn3 O3 2.240766 1_555
Mn3 O7 2.240766 1_445
O0 Y0 2.187405 1_555
O1 Y1 2.187405 1_555
O2 Y1 2.187405 1_555
O3 Y1 2.104731 1_555
O4 Y0 2.187405 1_555
O5 Y1 2.187405 1_555
O6 Y0 2.187405 1_555
O7 Y0 2.104731 1_555
