# generated using pymatgen
data_Ca3La2Sb3O14
_symmetry_space_group_name_H-M   'P 1'
_cell_length_a   7.58091990
_cell_length_b   7.58091990
_cell_length_c   7.54827200
_cell_angle_alpha   60.39804233
_cell_angle_beta   60.39804233
_cell_angle_gamma   60.49618243
_symmetry_Int_Tables_number   1
_chemical_formula_structural   Ca3La2Sb3O14
_chemical_formula_sum   'Ca3 La2 Sb3 O14'
_cell_volume   309.73111360
_cell_formula_units_Z   1
loop_
 _symmetry_equiv_pos_site_id
 _symmetry_equiv_pos_as_xyz
  1  'x, y, z'
loop_
 _atom_site_type_symbol
 _atom_site_label
 _atom_site_symmetry_multiplicity
 _atom_site_fract_x
 _atom_site_fract_y
 _atom_site_fract_z
 _atom_site_occupancy
  Ca  Ca0  1  0.50000000  0.50000000  0.00000000  1
  Ca  Ca1  1  0.50000000  0.50000000  0.50000000  1
  Ca  Ca2  1  0.00000000  0.00000000  0.00000000  1
  La  La0  1  0.50000000  0.00000000  0.50000000  1
  La  La1  1  0.00000000  0.50000000  0.50000000  1
  Sb  Sb0  1  0.50000000  0.00000000  0.00000000  1
  Sb  Sb1  1  0.00000000  0.50000000  0.00000000  1
  Sb  Sb2  1  0.00000000  0.00000000  0.50000000  1
  O  O0  1  0.68685900  0.68685900  0.08637000  1
  O  O1  1  0.31314100  0.31314100  0.91363000  1
  O  O2  1  0.63094000  0.09262000  0.09397000  1
  O  O3  1  0.36906000  0.90738000  0.90603000  1
  O  O4  1  0.90738000  0.36906000  0.90603000  1
  O  O5  1  0.09262000  0.63094000  0.09397000  1
  O  O6  1  0.37611500  0.37611500  0.37925200  1
  O  O7  1  0.62388500  0.62388500  0.62074800  1
  O  O8  1  0.90604300  0.90604300  0.36844000  1
  O  O9  1  0.09395700  0.09395700  0.63156000  1
  O  O10  1  0.31613800  0.91129900  0.31744300  1
  O  O11  1  0.68386200  0.08870100  0.68255700  1
  O  O12  1  0.08870100  0.68386200  0.68255700  1
  O  O13  1  0.91129900  0.31613800  0.31744300  1
loop_
_geom_bond_atom_site_label_1
_geom_bond_atom_site_label_2
_geom_bond_distance
_geom_bond_site_symmetry_2
Ca0 O6 2.348533 1_555
Ca0 O7 2.348533 1_554
Ca0 O2 2.556970 1_555
Ca0 O5 2.556970 1_555
Ca0 O3 2.556970 1_554
Ca0 O4 2.556970 1_554
Ca0 O1 2.870467 1_554
Ca0 O0 2.870467 1_555
Ca1 O6 2.270434 1_555
Ca1 O7 2.270434 1_555
Ca1 O10 2.633588 1_555
Ca1 O11 2.633588 1_555
Ca1 O12 2.633588 1_555
Ca1 O13 2.633588 1_555
Ca1 O0 2.645552 1_555
Ca1 O1 2.645552 1_555
Ca2 O8 2.309714 1_445
Ca2 O9 2.309714 1_554
Ca2 O2 2.328176 1_455
Ca2 O5 2.328176 1_545
Ca2 O3 2.328176 1_544
Ca2 O4 2.328176 1_454
La0 O7 2.341644 1_545
La0 O6 2.341644 1_555
La0 O2 2.535034 1_555
La0 O3 2.535034 1_545
La0 O8 2.547154 1_545
La0 O9 2.547154 1_555
La0 O11 2.833722 1_555
La0 O10 2.833722 1_545
La1 O7 2.341644 1_455
La1 O6 2.341644 1_555
La1 O5 2.535034 1_555
La1 O4 2.535034 1_455
La1 O8 2.547154 1_455
La1 O9 2.547154 1_555
La1 O12 2.833722 1_555
La1 O13 2.833722 1_455
O0 Sb0 2.034270 1_565
O0 Sb1 2.034270 1_655
O1 Sb0 2.034270 1_556
O1 Sb1 2.034270 1_556
O2 Sb0 1.963572 1_555
O3 Sb0 1.963572 1_566
O4 Sb1 1.963572 1_656
O5 Sb1 1.963572 1_555
O8 Sb2 1.974375 1_665
O9 Sb2 1.974375 1_555
O10 Sb2 2.039657 1_565
O10 Sb0 2.041629 1_565
O11 Sb2 2.039657 1_655
O11 Sb0 2.041629 1_556
O12 Sb2 2.039657 1_565
O12 Sb1 2.041629 1_556
O13 Sb2 2.039657 1_655
O13 Sb1 2.041629 1_655
