# generated using pymatgen
data_Li7Mn2(CoO4)3
_symmetry_space_group_name_H-M   'P 1'
_cell_length_a   5.13076700
_cell_length_b   5.86811910
_cell_length_c   7.66216677
_cell_angle_alpha   78.66934897
_cell_angle_beta   76.74766935
_cell_angle_gamma   72.88203667
_symmetry_Int_Tables_number   1
_chemical_formula_structural   Li7Mn2(CoO4)3
_chemical_formula_sum   'Li7 Mn2 Co3 O12'
_cell_volume   212.52817524
_cell_formula_units_Z   1
loop_
 _symmetry_equiv_pos_site_id
 _symmetry_equiv_pos_as_xyz
  1  'x, y, z'
loop_
 _atom_site_type_symbol
 _atom_site_label
 _atom_site_symmetry_multiplicity
 _atom_site_fract_x
 _atom_site_fract_y
 _atom_site_fract_z
 _atom_site_occupancy
  Li  Li0  1  0.50366900  0.16248700  0.83440700  1
  Li  Li1  1  0.49933200  0.00746800  0.48985200  1
  Li  Li2  1  0.49497500  0.84440200  0.16904300  1
  Li  Li3  1  0.50084100  0.66794500  0.83242900  1
  Li  Li4  1  0.50230500  0.49306800  0.49561000  1
  Li  Li5  1  0.49934100  0.32559600  0.17775100  1
  Li  Li6  1  0.00079700  0.16705700  0.33230800  1
  Mn  Mn0  1  0.00475300  0.00301300  0.00218900  1
  Mn  Mn1  1  0.99993000  0.32912600  0.66245600  1
  Co  Co0  1  0.00160500  0.83336200  0.66114100  1
  Co  Co1  1  0.00248100  0.67342100  0.34146000  1
  Co  Co2  1  0.99212000  0.49616200  0.01705200  1
  O  O0  1  0.77751100  0.31736600  0.91282900  1
  O  O1  1  0.78466300  0.15436000  0.59282200  1
  O  O2  1  0.76955200  0.99353900  0.23472400  1
  O  O3  1  0.79179100  0.84022300  0.90537300  1
  O  O4  1  0.75542800  0.63539400  0.58642700  1
  O  O5  1  0.76357100  0.51331700  0.23789000  1
  O  O6  1  0.23354900  0.02259900  0.75583300  1
  O  O7  1  0.22596900  0.82338900  0.42649000  1
  O  O8  1  0.23177400  0.68553100  0.07806400  1
  O  O9  1  0.20407600  0.50813300  0.74908500  1
  O  O10  1  0.22953500  0.33958100  0.43070900  1
  O  O11  1  0.23043100  0.16346100  0.07405700  1
loop_
_geom_bond_atom_site_label_1
_geom_bond_atom_site_label_2
_geom_bond_distance
_geom_bond_site_symmetry_2
Li0 O11 2.038712 1_556
Li0 O6 2.050258 1_555
Li0 O1 2.068313 1_555
Li0 O3 2.091886 1_545
Li0 O0 2.124740 1_555
Li0 O9 2.237964 1_555
Li1 O10 2.066913 1_555
Li1 O2 2.122201 1_545
Li1 O6 2.178653 1_555
Li1 O7 2.186285 1_545
Li1 O1 2.246851 1_555
Li1 O4 2.272284 1_545
Li2 O2 2.056152 1_555
Li2 O11 2.073376 1_565
Li2 O5 2.075216 1_555
Li2 O7 2.137215 1_555
Li2 O8 2.146349 1_555
Li2 O3 2.233437 1_554
Li3 O4 2.039941 1_555
Li3 O8 2.063969 1_556
Li3 O6 2.182961 1_565
Li3 O0 2.193311 1_555
Li3 O3 2.248508 1_555
Li3 O9 2.264373 1_555
Li4 O4 2.037065 1_555
Li4 O10 2.062593 1_555
Li4 O7 2.090690 1_555
Li4 O5 2.120943 1_555
Li4 O9 2.178646 1_555
Li4 O1 2.195903 1_555
Li5 O2 2.064566 1_545
Li5 O10 2.108360 1_555
Li5 O5 2.151446 1_555
Li5 O0 2.197587 1_554
Li5 O11 2.238856 1_555
Li5 O8 2.251466 1_555
Li6 O1 2.048180 1_455
Li6 O11 2.058393 1_555
Li6 O7 2.088382 1_545
Li6 O10 2.091841 1_555
Li6 O2 2.102523 1_445
Li6 O5 2.122181 1_455
Mn0 O2 1.910153 1_445
Mn0 O11 1.915275 1_555
Mn0 O8 1.942421 1_545
Mn0 O0 1.958206 1_454
Mn0 O3 1.980221 1_444
Mn0 O6 1.983079 1_554
Mn1 O10 1.893486 1_655
Mn1 O1 1.925693 1_555
Mn1 O4 1.933782 1_555
Mn1 O6 1.949968 1_655
Mn1 O9 1.970159 1_655
Mn1 O0 1.994474 1_555
Co0 O7 1.901034 1_555
Co0 O1 1.925239 1_465
Co0 O3 1.934658 1_455
Co0 O9 1.955515 1_555
Co0 O6 2.160133 1_565
Co0 O4 2.174684 1_455
Co1 O7 1.917188 1_555
Co1 O4 2.022546 1_455
Co1 O2 2.036838 1_455
Co1 O10 2.039087 1_555
Co1 O8 2.089604 1_555
Co1 O5 2.105207 1_455
Co2 O5 1.826504 1_555
Co2 O11 2.000480 1_655
Co2 O8 2.058488 1_655
Co2 O0 2.088886 1_554
Co2 O3 2.089918 1_554
Co2 O9 2.089934 1_654
