# generated using pymatgen
data_Li3MnCo3O8
_symmetry_space_group_name_H-M   'P 1'
_cell_length_a   5.88265183
_cell_length_b   10.36762129
_cell_length_c   5.89929846
_cell_angle_alpha   89.88864551
_cell_angle_beta   59.36772104
_cell_angle_gamma   105.92831547
_symmetry_Int_Tables_number   1
_chemical_formula_structural   Li3MnCo3O8
_chemical_formula_sum   'Li6 Mn2 Co6 O16'
_cell_volume   293.29666716
_cell_formula_units_Z   2
loop_
 _symmetry_equiv_pos_site_id
 _symmetry_equiv_pos_as_xyz
  1  'x, y, z'
loop_
 _atom_site_type_symbol
 _atom_site_label
 _atom_site_symmetry_multiplicity
 _atom_site_fract_x
 _atom_site_fract_y
 _atom_site_fract_z
 _atom_site_occupancy
  Li  Li0  1  0.50451100  0.24973400  0.74085500  1
  Li  Li1  1  0.49548400  0.75029100  0.25903000  1
  Li  Li2  1  0.00003500  0.24945900  0.74170100  1
  Li  Li3  1  0.99999300  0.75056400  0.25823300  1
  Li  Li4  1  0.99694700  0.25139900  0.25800200  1
  Li  Li5  1  0.00295700  0.74864400  0.74196600  1
  Mn  Mn0  1  0.00001200  0.50002800  0.50007200  1
  Mn  Mn1  1  0.99990500  0.99993300  0.99999600  1
  Co  Co0  1  0.49998300  0.99997000  0.00000700  1
  Co  Co1  1  0.50005800  0.50005200  0.49999100  1
  Co  Co2  1  0.00000600  0.99998100  0.49996800  1
  Co  Co3  1  0.00007600  0.50005700  0.99998400  1
  Co  Co4  1  0.49994000  0.99992300  0.50009000  1
  Co  Co5  1  0.50001100  0.50003100  0.00000900  1
  O  O0  1  0.74261400  0.11689600  0.62945400  1
  O  O1  1  0.74928800  0.61129500  0.13338900  1
  O  O2  1  0.25081000  0.38874800  0.86655200  1
  O  O3  1  0.25736200  0.88306100  0.37050400  1
  O  O4  1  0.23181400  0.10653700  0.11847400  1
  O  O5  1  0.22740900  0.60809000  0.61907900  1
  O  O6  1  0.75041100  0.10650800  0.13184200  1
  O  O7  1  0.75786500  0.61013400  0.61816300  1
  O  O8  1  0.22311300  0.10779600  0.64709100  1
  O  O9  1  0.24168900  0.60679900  0.14256900  1
  O  O10  1  0.75846800  0.39322000  0.85743100  1
  O  O11  1  0.77680600  0.89212800  0.35290700  1
  O  O12  1  0.24215500  0.38990000  0.38187900  1
  O  O13  1  0.24936400  0.89340600  0.86846300  1
  O  O14  1  0.77277300  0.39203000  0.38087800  1
  O  O15  1  0.76814100  0.89338400  0.88141800  1
loop_
_geom_bond_atom_site_label_1
_geom_bond_atom_site_label_2
_geom_bond_distance
_geom_bond_site_symmetry_2
Li0 O0 2.101135 1_555
Li0 O14 2.114572 1_555
Li0 O10 2.179207 1_555
Li0 O4 2.185938 1_556
Li0 O8 2.193382 1_555
Li0 O2 2.216167 1_555
Li1 O3 2.100609 1_555
Li1 O5 2.114306 1_555
Li1 O9 2.178158 1_555
Li1 O15 2.185392 1_554
Li1 O11 2.193009 1_555
Li1 O1 2.216426 1_555
Li2 O12 2.103161 1_555
Li2 O0 2.122165 1_455
Li2 O8 2.122592 1_555
Li2 O2 2.178594 1_555
Li2 O10 2.210153 1_455
Li2 O6 2.235649 1_456
Li3 O7 2.103524 1_555
Li3 O3 2.121739 1_655
Li3 O11 2.122120 1_555
Li3 O1 2.178191 1_555
Li3 O9 2.210705 1_655
Li3 O13 2.233662 1_654
Li4 O14 2.115563 1_555
Li4 O0 2.118220 1_555
Li4 O12 2.148977 1_655
Li4 O6 2.195976 1_555
Li4 O4 2.197020 1_655
Li4 O2 2.212774 1_654
Li5 O5 2.115921 1_555
Li5 O3 2.117847 1_555
Li5 O7 2.148273 1_455
Li5 O15 2.195723 1_455
Li5 O13 2.196159 1_555
Li5 O1 2.212701 1_456
Mn0 O14 1.916894 1_455
Mn0 O5 1.917030 1_555
Mn0 O7 1.924024 1_455
Mn0 O12 1.924181 1_555
Mn0 O10 1.940179 1_455
Mn0 O9 1.940661 1_555
Mn1 O11 1.925486 1_556
Mn1 O13 1.925586 1_655
Mn1 O8 1.925677 1_665
Mn1 O6 1.926153 1_566
Mn1 O15 1.927873 1_555
Mn1 O4 1.928289 1_666
Co0 O4 2.008456 1_565
Co0 O15 2.008522 1_554
Co0 O3 2.035824 1_555
Co0 O0 2.036131 1_564
Co0 O13 2.066783 1_554
Co0 O6 2.067111 1_565
Co1 O1 1.996985 1_555
Co1 O2 1.997053 1_555
Co1 O5 2.039979 1_555
Co1 O14 2.040140 1_555
Co1 O7 2.054034 1_555
Co1 O12 2.054465 1_555
Co2 O8 2.021053 1_565
Co2 O11 2.021315 1_455
Co2 O3 2.043836 1_555
Co2 O0 2.043946 1_465
Co2 O15 2.044687 1_455
Co2 O4 2.044747 1_565
Co3 O1 1.969802 1_456
Co3 O2 1.970163 1_555
Co3 O14 2.048850 1_456
Co3 O5 2.048912 1_555
Co3 O9 2.076299 1_556
Co3 O10 2.076475 1_455
Co4 O6 1.986598 1_565
Co4 O13 1.986898 1_555
Co4 O11 2.053603 1_555
Co4 O8 2.054032 1_565
Co4 O0 2.062681 1_565
Co4 O3 2.062764 1_555
Co5 O9 1.966302 1_555
Co5 O10 1.967215 1_554
Co5 O7 2.058114 1_554
Co5 O12 2.058318 1_555
Co5 O1 2.085918 1_555
Co5 O2 2.085992 1_554
