# generated using pymatgen
data_TaMo2(WSe5)2
_symmetry_space_group_name_H-M   'P 1'
_cell_length_a   3.35702618
_cell_length_b   3.35702618
_cell_length_c   67.36990200
_cell_angle_alpha   90.00000000
_cell_angle_beta   90.00000000
_cell_angle_gamma   120.00000346
_symmetry_Int_Tables_number   1
_chemical_formula_structural   TaMo2(WSe5)2
_chemical_formula_sum   'Ta2 Mo4 W4 Se20'
_cell_volume   657.51548810
_cell_formula_units_Z   2
loop_
 _symmetry_equiv_pos_site_id
 _symmetry_equiv_pos_as_xyz
  1  'x, y, z'
loop_
 _atom_site_type_symbol
 _atom_site_label
 _atom_site_symmetry_multiplicity
 _atom_site_fract_x
 _atom_site_fract_y
 _atom_site_fract_z
 _atom_site_occupancy
  Ta  Ta0  1  0.66666700  0.33333300  0.14998600  1
  Ta  Ta1  1  0.66666700  0.33333300  0.34999600  1
  Mo  Mo0  1  0.66666700  0.33333300  0.55000300  1
  Mo  Mo1  1  0.66666700  0.33333300  0.74999800  1
  Mo  Mo2  1  0.66666700  0.33333300  0.95001200  1
  Mo  Mo3  1  0.33333300  0.66666700  0.04999100  1
  W  W0  1  0.33333300  0.66666700  0.25000300  1
  W  W1  1  0.33333300  0.66666700  0.45001200  1
  W  W2  1  0.33333300  0.66666700  0.65000000  1
  W  W3  1  0.33333300  0.66666700  0.84999400  1
  Se  Se0  1  0.66666700  0.33333300  0.02531300  1
  Se  Se1  1  0.66666700  0.33333300  0.22521600  1
  Se  Se2  1  0.66666700  0.33333300  0.42523200  1
  Se  Se3  1  0.66666700  0.33333300  0.62520900  1
  Se  Se4  1  0.66666700  0.33333300  0.82520500  1
  Se  Se5  1  0.33333300  0.66666700  0.17553200  1
  Se  Se6  1  0.33333300  0.66666700  0.37553000  1
  Se  Se7  1  0.33333300  0.66666700  0.57467300  1
  Se  Se8  1  0.33333300  0.66666700  0.77467100  1
  Se  Se9  1  0.33333300  0.66666700  0.97469000  1
  Se  Se10  1  0.33333300  0.66666700  0.12443800  1
  Se  Se11  1  0.33333300  0.66666700  0.32447000  1
  Se  Se12  1  0.33333300  0.66666700  0.52532900  1
  Se  Se13  1  0.33333300  0.66666700  0.72532700  1
  Se  Se14  1  0.33333300  0.66666700  0.92534300  1
  Se  Se15  1  0.66666700  0.33333300  0.07465700  1
  Se  Se16  1  0.66666700  0.33333300  0.27478600  1
  Se  Se17  1  0.66666700  0.33333300  0.47480800  1
  Se  Se18  1  0.66666700  0.33333300  0.67479000  1
  Se  Se19  1  0.66666700  0.33333300  0.87478600  1
loop_
_geom_bond_atom_site_label_1
_geom_bond_atom_site_label_2
_geom_bond_distance
_geom_bond_site_symmetry_2
Mo0 Se7 2.553200 1_655
Mo0 Se7 2.553200 1_545
Mo0 Se7 2.553204 1_555
Mo0 Se12 2.553375 1_545
Mo0 Se12 2.553375 1_655
Mo0 Se12 2.553380 1_555
Mo1 Se13 2.553244 1_545
Mo1 Se13 2.553244 1_655
Mo1 Se13 2.553248 1_555
Mo1 Se8 2.553331 1_545
Mo1 Se8 2.553331 1_655
Mo1 Se8 2.553336 1_555
Mo2 Se14 2.553156 1_545
Mo2 Se14 2.553156 1_655
Mo2 Se14 2.553160 1_555
Mo2 Se9 2.553551 1_545
Mo2 Se9 2.553551 1_655
Mo2 Se9 2.553555 1_555
Mo3 Se15 2.553024 1_455
Mo3 Se15 2.553024 1_565
Mo3 Se15 2.553029 1_555
Mo3 Se0 2.553551 1_455
Mo3 Se0 2.553551 1_565
Mo3 Se0 2.553555 1_555
Se1 W0 2.558338 1_545
Se1 W0 2.558338 1_655
Se1 W0 2.558342 1_555
Se2 W1 2.558030 1_545
Se2 W1 2.558030 1_655
Se2 W1 2.558034 1_555
Se3 W2 2.558514 1_545
Se3 W2 2.558514 1_655
Se3 W2 2.558518 1_555
Se4 W3 2.558426 1_545
Se4 W3 2.558426 1_655
Se4 W3 2.558430 1_555
Se5 Ta0 2.592004 1_455
Se5 Ta0 2.592004 1_565
Se5 Ta0 2.592008 1_555
Se6 Ta1 2.591467 1_455
Se6 Ta1 2.591467 1_565
Se6 Ta1 2.591471 1_555
Se10 Ta0 2.592093 1_455
Se10 Ta0 2.592093 1_565
Se10 Ta0 2.592098 1_555
Se11 Ta1 2.591109 1_455
Se11 Ta1 2.591109 1_565
Se11 Ta1 2.591114 1_555
Se16 W0 2.558162 1_545
Se16 W0 2.558162 1_655
Se16 W0 2.558166 1_555
Se17 W1 2.558734 1_655
Se17 W1 2.558734 1_545
Se17 W1 2.558738 1_555
Se18 W2 2.558470 1_655
Se18 W2 2.558470 1_545
Se18 W2 2.558474 1_555
Se19 W3 2.558558 1_545
Se19 W3 2.558558 1_655
Se19 W3 2.558562 1_555
