# generated using pymatgen
data_PdPt
_symmetry_space_group_name_H-M   'P 1'
_cell_length_a   5.53360518
_cell_length_b   5.53360518
_cell_length_c   9.66409288
_cell_angle_alpha   106.63638526
_cell_angle_beta   73.36361474
_cell_angle_gamma   119.99999983
_symmetry_Int_Tables_number   1
_chemical_formula_structural   PdPt
_chemical_formula_sum   'Pd8 Pt8'
_cell_volume   241.86707299
_cell_formula_units_Z   8
loop_
 _symmetry_equiv_pos_site_id
 _symmetry_equiv_pos_as_xyz
  1  'x, y, z'
loop_
 _atom_site_type_symbol
 _atom_site_label
 _atom_site_symmetry_multiplicity
 _atom_site_fract_x
 _atom_site_fract_y
 _atom_site_fract_z
 _atom_site_occupancy
  Pd  Pd0_0  1  0.00000000  0.00000000  0.00000000  1
  Pd  Pd0_1  1  0.00000000  0.00000000  0.50000000  1
  Pd  Pd0_2  1  0.00000000  0.50000000  0.00000000  1
  Pd  Pd0_3  1  0.00000000  0.50000000  0.50000000  1
  Pd  Pd0_4  1  0.50000000  0.00000000  0.00000000  1
  Pd  Pd0_5  1  0.50000000  0.00000000  0.50000000  1
  Pd  Pd0_6  1  0.50000000  0.50000000  0.00000000  1
  Pd  Pd0_7  1  0.50000000  0.50000000  0.50000000  1
  Pt  Pt0_0  1  0.25000000  0.25000000  0.25000000  1
  Pt  Pt0_1  1  0.25000000  0.25000000  0.75000000  1
  Pt  Pt0_2  1  0.25000000  0.75000000  0.25000000  1
  Pt  Pt0_3  1  0.25000000  0.75000000  0.75000000  1
  Pt  Pt0_4  1  0.75000000  0.25000000  0.25000000  1
  Pt  Pt0_5  1  0.75000000  0.25000000  0.75000000  1
  Pt  Pt0_6  1  0.75000000  0.75000000  0.25000000  1
  Pt  Pt0_7  1  0.75000000  0.75000000  0.75000000  1
loop_
_geom_bond_atom_site_label_1
_geom_bond_atom_site_label_2
_geom_bond_distance
_geom_bond_site_symmetry_2
Pd0_0 Pd0_4 2.766803 1_555
Pd0_0 Pd0_2 2.766803 1_555
Pd0_0 Pd0_2 2.766803 1_545
Pd0_0 Pd0_4 2.766803 1_455
Pd0_0 Pd0_6 2.766803 1_445
Pd0_0 Pd0_6 2.766803 1_555
Pd0_0 Pt0_7 2.784056 1_444
Pd0_0 Pt0_0 2.784056 1_555
Pd0_0 Pt0_1 2.784056 1_554
Pd0_0 Pt0_6 2.784056 1_445
Pd0_0 Pt0_3 2.784057 1_544
Pd0_0 Pt0_4 2.784057 1_455
Pd0_1 Pd0_3 2.766803 1_545
Pd0_1 Pd0_3 2.766803 1_555
Pd0_1 Pd0_5 2.766803 1_555
Pd0_1 Pd0_5 2.766803 1_455
Pd0_1 Pd0_7 2.766803 1_445
Pd0_1 Pd0_7 2.766803 1_555
Pd0_1 Pt0_6 2.784056 1_445
Pd0_1 Pt0_0 2.784056 1_555
Pd0_1 Pt0_1 2.784056 1_555
Pd0_1 Pt0_7 2.784056 1_445
Pd0_1 Pt0_2 2.784057 1_545
Pd0_1 Pt0_5 2.784057 1_455
Pd0_2 Pd0_6 2.766803 1_555
Pd0_2 Pd0_6 2.766803 1_455
Pd0_2 Pd0_4 2.766803 1_455
Pd0_2 Pd0_4 2.766803 1_565
Pd0_2 Pt0_2 2.784056 1_555
Pd0_2 Pt0_3 2.784056 1_554
Pd0_2 Pt0_4 2.784056 1_455
Pd0_2 Pt0_5 2.784056 1_454
Pd0_2 Pt0_1 2.784057 1_554
Pd0_2 Pt0_6 2.784057 1_455
Pd0_3 Pd0_7 2.766803 1_455
Pd0_3 Pd0_7 2.766803 1_555
Pd0_3 Pd0_5 2.766803 1_565
Pd0_3 Pd0_5 2.766803 1_455
Pd0_3 Pt0_4 2.784056 1_455
Pd0_3 Pt0_2 2.784056 1_555
Pd0_3 Pt0_3 2.784056 1_555
Pd0_3 Pt0_5 2.784056 1_455
Pd0_3 Pt0_7 2.784057 1_455
Pd0_3 Pt0_0 2.784057 1_555
Pd0_4 Pd0_6 2.766803 1_545
Pd0_4 Pd0_6 2.766803 1_555
Pd0_4 Pt0_4 2.784056 1_555
Pd0_4 Pt0_2 2.784056 1_545
Pd0_4 Pt0_3 2.784056 1_544
Pd0_4 Pt0_5 2.784056 1_554
Pd0_4 Pt0_7 2.784057 1_544
Pd0_4 Pt0_0 2.784057 1_555
Pd0_5 Pd0_7 2.766803 1_545
Pd0_5 Pd0_7 2.766803 1_555
Pd0_5 Pt0_2 2.784056 1_545
Pd0_5 Pt0_4 2.784056 1_555
Pd0_5 Pt0_5 2.784056 1_555
Pd0_5 Pt0_3 2.784056 1_545
Pd0_5 Pt0_1 2.784057 1_555
Pd0_5 Pt0_6 2.784057 1_545
Pd0_6 Pt0_7 2.784056 1_554
Pd0_6 Pt0_0 2.784056 1_555
Pd0_6 Pt0_6 2.784056 1_555
Pd0_6 Pt0_1 2.784056 1_554
Pd0_6 Pt0_2 2.784057 1_555
Pd0_6 Pt0_5 2.784057 1_554
Pd0_7 Pt0_0 2.784056 1_555
Pd0_7 Pt0_6 2.784056 1_555
Pd0_7 Pt0_1 2.784056 1_555
Pd0_7 Pt0_7 2.784056 1_555
Pd0_7 Pt0_3 2.784057 1_555
Pd0_7 Pt0_4 2.784057 1_555
Pt0_0 Pt0_2 2.766803 1_555
Pt0_0 Pt0_4 2.766803 1_455
Pt0_0 Pt0_2 2.766803 1_545
Pt0_0 Pt0_4 2.766803 1_555
Pt0_0 Pt0_6 2.766803 1_445
Pt0_0 Pt0_6 2.766803 1_555
Pt0_1 Pt0_5 2.766803 1_555
Pt0_1 Pt0_3 2.766803 1_555
Pt0_1 Pt0_5 2.766803 1_455
Pt0_1 Pt0_3 2.766803 1_545
Pt0_1 Pt0_7 2.766803 1_445
Pt0_1 Pt0_7 2.766803 1_555
Pt0_2 Pt0_6 2.766803 1_555
Pt0_2 Pt0_6 2.766803 1_455
Pt0_2 Pt0_4 2.766803 1_565
Pt0_2 Pt0_4 2.766803 1_455
Pt0_3 Pt0_7 2.766803 1_455
Pt0_3 Pt0_7 2.766803 1_555
Pt0_3 Pt0_5 2.766803 1_455
Pt0_3 Pt0_5 2.766803 1_565
Pt0_4 Pt0_6 2.766803 1_545
Pt0_4 Pt0_6 2.766803 1_555
Pt0_5 Pt0_7 2.766803 1_555
Pt0_5 Pt0_7 2.766803 1_545
