# generated using pymatgen
data_Eu2Si4Pd3Au
_symmetry_space_group_name_H-M   'P 1'
_cell_length_a   4.28207900
_cell_length_b   4.28207900
_cell_length_c   9.94618100
_cell_angle_alpha   90.00000000
_cell_angle_beta   90.00000000
_cell_angle_gamma   90.00000000
_symmetry_Int_Tables_number   1
_chemical_formula_structural   Eu2Si4Pd3Au
_chemical_formula_sum   'Eu2 Si4 Pd3 Au1'
_cell_volume   182.37516964
_cell_formula_units_Z   1
loop_
 _symmetry_equiv_pos_site_id
 _symmetry_equiv_pos_as_xyz
  1  'x, y, z'
loop_
 _atom_site_type_symbol
 _atom_site_label
 _atom_site_symmetry_multiplicity
 _atom_site_fract_x
 _atom_site_fract_y
 _atom_site_fract_z
 _atom_site_occupancy
  Eu  Eu0  1  0.50000000  0.00000000  0.74812300  1
  Eu  Eu1  1  0.00000000  0.50000000  0.25187700  1
  Si  Si0  1  0.00000000  0.50000000  0.86402600  1
  Si  Si1  1  0.50000000  0.00000000  0.37324600  1
  Si  Si2  1  0.50000000  0.00000000  0.13597400  1
  Si  Si3  1  0.00000000  0.50000000  0.62675400  1
  Pd  Pd0  1  0.00000000  0.00000000  0.50000000  1
  Pd  Pd1  1  0.00000000  0.00000000  0.00000000  1
  Pd  Pd2  1  0.50000000  0.50000000  0.50000000  1
  Au  Au0  1  0.50000000  0.50000000  0.00000000  1
loop_
_geom_bond_atom_site_label_1
_geom_bond_atom_site_label_2
_geom_bond_distance
_geom_bond_site_symmetry_2
Eu0 Si0 3.239912 1_545
Eu0 Si0 3.239912 1_655
Eu0 Si0 3.239912 1_555
Eu0 Si0 3.239912 1_645
Eu0 Si3 3.259652 1_655
Eu0 Si3 3.259652 1_645
Eu0 Si3 3.259652 1_545
Eu0 Si3 3.259652 1_555
Eu0 Pd0 3.267180 1_555
Eu0 Pd2 3.267180 1_555
Eu0 Pd2 3.267180 1_545
Eu0 Pd0 3.267180 1_655
Eu0 Pd1 3.295474 1_556
Eu0 Pd1 3.295474 1_656
Eu1 Si2 3.239912 1_455
Eu1 Si2 3.239912 1_465
Eu1 Si2 3.239912 1_555
Eu1 Si2 3.239912 1_565
Eu1 Si1 3.259652 1_455
Eu1 Si1 3.259652 1_565
Eu1 Si1 3.259652 1_465
Eu1 Si1 3.259652 1_555
Eu1 Pd2 3.267180 1_555
Eu1 Pd0 3.267180 1_565
Eu1 Pd2 3.267180 1_455
Eu1 Pd0 3.267180 1_555
Eu1 Pd1 3.295474 1_565
Eu1 Pd1 3.295474 1_555
Si0 Si3 2.359950 1_555
Si1 Si2 2.359950 1_555
Pd0 Si3 2.484645 1_555
Pd0 Si3 2.484645 1_545
Pd0 Si1 2.484645 1_455
Pd0 Si1 2.484645 1_555
Pd1 Si2 2.532409 1_555
Pd1 Si2 2.532409 1_455
Pd1 Si0 2.532409 1_544
Pd1 Si0 2.532409 1_554
Pd2 Si3 2.484645 1_555
Pd2 Si3 2.484645 1_655
Pd2 Si1 2.484645 1_565
Pd2 Si1 2.484645 1_555
Au0 Si2 2.532409 1_565
Au0 Si2 2.532409 1_555
Au0 Si0 2.532409 1_554
Au0 Si0 2.532409 1_654
Au0 Pd1 3.027887 1_665
Au0 Pd1 3.027887 1_555
Au0 Pd1 3.027887 1_565
Au0 Pd1 3.027887 1_655
Au0 Eu1 3.295474 1_555
Au0 Eu1 3.295474 1_655
Au0 Eu0 3.295474 1_564
Au0 Eu0 3.295474 1_554
