# generated using pymatgen
data_YTi4(CuO4)3
_symmetry_space_group_name_H-M   'P 1'
_cell_length_a   6.46893610
_cell_length_b   6.46893610
_cell_length_c   6.46893610
_cell_angle_alpha   109.47122063
_cell_angle_beta   109.47122063
_cell_angle_gamma   109.47122063
_symmetry_Int_Tables_number   1
_chemical_formula_structural   YTi4(CuO4)3
_chemical_formula_sum   'Y1 Ti4 Cu3 O12'
_cell_volume   208.38991299
_cell_formula_units_Z   1
loop_
 _symmetry_equiv_pos_site_id
 _symmetry_equiv_pos_as_xyz
  1  'x, y, z'
loop_
 _atom_site_type_symbol
 _atom_site_label
 _atom_site_symmetry_multiplicity
 _atom_site_fract_x
 _atom_site_fract_y
 _atom_site_fract_z
 _atom_site_occupancy
  Y  Y0  1  0.00000000  0.00000000  0.00000000  1
  Ti  Ti0  1  0.00000000  0.00000000  0.50000000  1
  Ti  Ti1  1  0.00000000  0.50000000  0.00000000  1
  Ti  Ti2  1  0.50000000  0.00000000  0.00000000  1
  Ti  Ti3  1  0.50000000  0.50000000  0.50000000  1
  Cu  Cu0  1  0.00000000  0.50000000  0.50000000  1
  Cu  Cu1  1  0.50000000  0.00000000  0.50000000  1
  Cu  Cu2  1  0.50000000  0.50000000  0.00000000  1
  O  O0  1  0.29560100  0.11944400  0.82384300  1
  O  O1  1  0.70439900  0.88055600  0.17615700  1
  O  O2  1  0.70439900  0.52824100  0.82384300  1
  O  O3  1  0.47175900  0.17615700  0.29560100  1
  O  O4  1  0.17615700  0.29560100  0.47175900  1
  O  O5  1  0.82384300  0.29560100  0.11944400  1
  O  O6  1  0.88055600  0.17615700  0.70439900  1
  O  O7  1  0.82384300  0.70439900  0.52824100  1
  O  O8  1  0.29560100  0.47175900  0.17615700  1
  O  O9  1  0.52824100  0.82384300  0.70439900  1
  O  O10  1  0.17615700  0.70439900  0.88055600  1
  O  O11  1  0.11944400  0.82384300  0.29560100  1
loop_
_geom_bond_atom_site_label_1
_geom_bond_atom_site_label_2
_geom_bond_distance
_geom_bond_site_symmetry_2
Cu0 O7 2.015572 1_455
Cu0 O4 2.015572 1_555
Cu0 O5 2.015573 1_455
Cu0 O10 2.015573 1_555
Cu1 O9 2.015572 1_545
Cu1 O3 2.015572 1_555
Cu1 O11 2.015573 1_545
Cu1 O6 2.015573 1_555
Cu2 O8 2.015572 1_555
Cu2 O2 2.015572 1_554
Cu2 O1 2.015573 1_555
Cu2 O0 2.015573 1_554
O0 Ti2 1.976748 1_556
O0 Ti0 1.976748 1_555
O0 Y0 2.570388 1_556
O1 Ti0 1.976748 1_665
O1 Ti2 1.976748 1_565
O1 Y0 2.570388 1_665
O2 Ti1 1.976744 1_656
O2 Ti3 1.976751 1_555
O2 Y0 2.570393 1_666
O3 Ti2 1.976744 1_555
O3 Ti3 1.976751 1_555
O3 Y0 2.570393 1_555
O4 Ti0 1.976744 1_555
O4 Ti3 1.976751 1_555
O4 Y0 2.570393 1_555
O5 Ti1 1.976748 1_655
O5 Ti2 1.976748 1_555
O5 Y0 2.570388 1_655
O6 Ti1 1.976748 1_656
O6 Ti0 1.976748 1_655
O6 Y0 2.570388 1_656
O7 Ti0 1.976744 1_665
O7 Ti3 1.976751 1_555
O7 Y0 2.570393 1_666
O8 Ti1 1.976744 1_555
O8 Ti3 1.976751 1_555
O8 Y0 2.570393 1_555
O9 Ti2 1.976744 1_566
O9 Ti3 1.976751 1_555
O9 Y0 2.570393 1_666
O10 Ti1 1.976748 1_556
O10 Ti2 1.976748 1_566
O10 Y0 2.570388 1_566
O11 Ti0 1.976748 1_565
O11 Ti1 1.976748 1_555
O11 Y0 2.570388 1_565
