# generated using pymatgen
data_NdMgRh
_symmetry_space_group_name_H-M   'P 1'
_cell_length_a   4.14487397
_cell_length_b   7.23328313
_cell_length_c   8.70053995
_cell_angle_alpha   90.00000000
_cell_angle_beta   90.00000000
_cell_angle_gamma   90.00000000
_symmetry_Int_Tables_number   1
_chemical_formula_structural   NdMgRh
_chemical_formula_sum   'Nd4 Mg4 Rh4'
_cell_volume   260.85129685
_cell_formula_units_Z   4
loop_
 _symmetry_equiv_pos_site_id
 _symmetry_equiv_pos_as_xyz
  1  'x, y, z'
loop_
 _atom_site_type_symbol
 _atom_site_label
 _atom_site_symmetry_multiplicity
 _atom_site_fract_x
 _atom_site_fract_y
 _atom_site_fract_z
 _atom_site_occupancy
  Nd  Nd0  1  0.75000000  0.96175278  0.32088692  1
  Nd  Nd1  1  0.25000000  0.03824722  0.67911308  1
  Nd  Nd2  1  0.25000000  0.53824722  0.82088692  1
  Nd  Nd3  1  0.75000000  0.46175278  0.17911308  1
  Mg  Mg0  1  0.75000000  0.86714842  0.94292999  1
  Mg  Mg1  1  0.25000000  0.13285158  0.05707001  1
  Mg  Mg2  1  0.25000000  0.63285158  0.44292999  1
  Mg  Mg3  1  0.75000000  0.36714842  0.55707001  1
  Rh  Rh0  1  0.75000000  0.74812481  0.62656745  1
  Rh  Rh1  1  0.25000000  0.25187519  0.37343255  1
  Rh  Rh2  1  0.25000000  0.75187519  0.12656745  1
  Rh  Rh3  1  0.75000000  0.24812481  0.87343255  1
loop_
_geom_bond_atom_site_label_1
_geom_bond_atom_site_label_2
_geom_bond_distance
_geom_bond_site_symmetry_2
Nd0 Rh1 2.984605 1_565
Nd0 Rh1 2.984605 1_665
Nd0 Rh2 3.075394 1_555
Nd0 Rh2 3.075394 1_655
Nd0 Rh0 3.075896 1_555
Nd1 Rh0 2.984605 1_545
Nd1 Rh0 2.984605 1_445
Nd1 Rh3 3.075394 1_555
Nd1 Rh3 3.075394 1_455
Nd1 Rh1 3.075896 1_555
Nd2 Rh3 2.984605 1_455
Nd2 Rh3 2.984605 1_555
Nd2 Rh0 3.075394 1_455
Nd2 Rh0 3.075394 1_555
Nd2 Rh2 3.075896 1_556
Nd3 Rh2 2.984605 1_555
Nd3 Rh2 2.984605 1_655
Nd3 Rh1 3.075394 1_655
Nd3 Rh1 3.075394 1_555
Nd3 Rh3 3.075896 1_554
Mg0 Rh2 2.746455 1_556
Mg0 Rh2 2.746455 1_656
Mg0 Rh3 2.821269 1_565
Mg0 Rh0 2.884024 1_555
Mg1 Rh3 2.746455 1_454
Mg1 Rh3 2.746455 1_554
Mg1 Rh2 2.821269 1_545
Mg1 Rh1 2.884024 1_555
Mg2 Rh0 2.746455 1_555
Mg2 Rh0 2.746455 1_455
Mg2 Rh1 2.821269 1_555
Mg2 Rh2 2.884024 1_555
Mg3 Rh1 2.746455 1_555
Mg3 Rh1 2.746455 1_655
Mg3 Rh0 2.821269 1_555
Mg3 Rh3 2.884024 1_555
