# generated using pymatgen
data_K3YV2O8
_symmetry_space_group_name_H-M   'P 1'
_cell_length_a   6.02135500
_cell_length_b   6.02135577
_cell_length_c   7.81690600
_cell_angle_alpha   90.00000000
_cell_angle_beta   90.00000000
_cell_angle_gamma   120.00000124
_symmetry_Int_Tables_number   1
_chemical_formula_structural   K3YV2O8
_chemical_formula_sum   'K3 Y1 V2 O8'
_cell_volume   245.44491370
_cell_formula_units_Z   1
loop_
 _symmetry_equiv_pos_site_id
 _symmetry_equiv_pos_as_xyz
  1  'x, y, z'
loop_
 _atom_site_type_symbol
 _atom_site_label
 _atom_site_symmetry_multiplicity
 _atom_site_fract_x
 _atom_site_fract_y
 _atom_site_fract_z
 _atom_site_occupancy
  K  K0  1  0.33333300  0.66666700  0.70672400  1
  K  K1  1  0.66666700  0.33333300  0.29327600  1
  K  K2  1  0.00000000  0.00000000  0.00000000  1
  Y  Y0  1  0.00000000  0.00000000  0.50000000  1
  V  V0  1  0.33333300  0.66666700  0.25147600  1
  V  V1  1  0.66666700  0.33333300  0.74852400  1
  O  O0  1  0.33333300  0.66666700  0.03630100  1
  O  O1  1  0.66666700  0.33333300  0.96369900  1
  O  O2  1  0.17411100  0.82588900  0.32811200  1
  O  O3  1  0.65177800  0.82588900  0.32811200  1
  O  O4  1  0.17411100  0.34822200  0.32811200  1
  O  O5  1  0.82588900  0.17411100  0.67188800  1
  O  O6  1  0.34822200  0.17411100  0.67188800  1
  O  O7  1  0.82588900  0.65177800  0.67188800  1
loop_
_geom_bond_atom_site_label_1
_geom_bond_atom_site_label_2
_geom_bond_distance
_geom_bond_site_symmetry_2
K0 O0 2.576272 1_556
K0 O7 3.023961 1_455
K0 O6 3.023962 1_565
K0 O5 3.023964 1_455
K0 O5 3.023964 1_565
K0 O7 3.023967 1_555
K0 O6 3.023968 1_555
K1 O1 2.576272 1_554
K1 O4 3.023961 1_655
K1 O3 3.023962 1_545
K1 O2 3.023964 1_655
K1 O2 3.023964 1_545
K1 O4 3.023967 1_555
K1 O3 3.023968 1_555
K2 O3 3.142552 1_445
K2 O6 3.142552 1_554
K2 O2 3.142552 1_545
K2 O5 3.142552 1_454
K2 O4 3.142552 1_555
K2 O7 3.142552 1_444
O0 V0 1.682003 1_555
O1 V1 1.682003 1_555
O2 V0 1.765325 1_555
O2 Y0 2.258910 1_565
O3 V0 1.765329 1_555
O3 Y0 2.258910 1_665
O4 V0 1.765330 1_555
O4 Y0 2.258910 1_555
O5 V1 1.765325 1_555
O5 Y0 2.258910 1_655
O6 V1 1.765329 1_555
O6 Y0 2.258910 1_555
O7 V1 1.765330 1_555
O7 Y0 2.258910 1_665
