# generated using pymatgen
data_Sr4IrN4
_symmetry_space_group_name_H-M   'P 1'
_cell_length_a   6.33157136
_cell_length_b   6.35610681
_cell_length_c   9.17457147
_cell_angle_alpha   69.84371356
_cell_angle_beta   80.38649785
_cell_angle_gamma   74.53648625
_symmetry_Int_Tables_number   1
_chemical_formula_structural   Sr4IrN4
_chemical_formula_sum   'Sr8 Ir2 N8'
_cell_volume   332.90941290
_cell_formula_units_Z   2
loop_
 _symmetry_equiv_pos_site_id
 _symmetry_equiv_pos_as_xyz
  1  'x, y, z'
loop_
 _atom_site_type_symbol
 _atom_site_label
 _atom_site_symmetry_multiplicity
 _atom_site_fract_x
 _atom_site_fract_y
 _atom_site_fract_z
 _atom_site_occupancy
  Sr  Sr0  1  0.79371400  0.56628000  0.14878400  1
  Sr  Sr1  1  0.20628600  0.43372000  0.85121700  1
  Sr  Sr2  1  0.70885900  0.16411600  0.98503600  1
  Sr  Sr3  1  0.29114100  0.83588400  0.01496400  1
  Sr  Sr4  1  0.74890200  0.43206000  0.59516700  1
  Sr  Sr5  1  0.25109800  0.56794000  0.40483300  1
  Sr  Sr6  1  0.22263600  0.97170400  0.62202700  1
  Sr  Sr7  1  0.77736400  0.02829600  0.37797300  1
  Ir  Ir0  1  0.72700700  0.82706600  0.76371800  1
  Ir  Ir1  1  0.27299300  0.17293400  0.23628200  1
  N  N0  1  0.98213200  0.68832500  0.61684800  1
  N  N1  1  0.01786800  0.31167500  0.38315200  1
  N  N2  1  0.96970300  0.84739500  0.87558800  1
  N  N3  1  0.03029700  0.15260500  0.12441200  1
  N  N4  1  0.53089100  0.62931900  0.78735700  1
  N  N5  1  0.46910900  0.37068100  0.21264300  1
  N  N6  1  0.49449800  0.89250300  0.22990100  1
  N  N7  1  0.50550200  0.10749700  0.77009900  1
loop_
_geom_bond_atom_site_label_1
_geom_bond_atom_site_label_2
_geom_bond_distance
_geom_bond_site_symmetry_2
Ir0 N4 1.929548 1_555
Ir0 N7 1.964419 1_565
Ir0 N2 2.038490 1_555
Ir0 N0 2.129548 1_555
Ir1 N5 1.929548 1_555
Ir1 N6 1.964419 1_545
Ir1 N3 2.038490 1_555
Ir1 N1 2.129548 1_555
N0 Sr4 2.545081 1_555
N0 Sr5 2.548275 1_655
N0 Sr1 2.579359 1_655
N0 Sr6 2.666664 1_655
N0 Sr7 2.710118 1_565
N1 Sr5 2.545081 1_555
N1 Sr4 2.548275 1_455
N1 Sr0 2.579352 1_455
N1 Sr7 2.666664 1_455
N1 Sr6 2.710118 1_545
N2 Sr3 2.551055 1_656
N2 Sr6 2.600846 1_655
N2 Sr2 2.618170 1_565
N2 Sr1 2.720367 1_655
N2 Sr0 2.785502 1_556
N3 Sr2 2.551055 1_454
N3 Sr7 2.600846 1_455
N3 Sr3 2.618170 1_545
N3 Sr0 2.720370 1_455
N3 Sr1 2.785497 1_554
N4 Sr4 2.524726 1_555
N4 Sr1 2.563474 1_555
N4 Sr6 2.700925 1_555
N4 Sr3 2.855985 1_556
N4 Sr2 2.917564 1_555
N5 Sr5 2.524726 1_555
N5 Sr0 2.563475 1_555
N5 Sr7 2.700925 1_555
N5 Sr2 2.855985 1_554
N5 Sr3 2.917564 1_555
N6 Sr0 2.634436 1_555
N6 Sr3 2.694467 1_555
N6 Sr2 2.725378 1_564
N6 Sr5 2.791783 1_555
N6 Sr7 2.871087 1_565
N7 Sr1 2.634440 1_555
N7 Sr2 2.694467 1_555
N7 Sr3 2.725378 1_546
N7 Sr4 2.791783 1_555
N7 Sr6 2.871087 1_545
