# generated using pymatgen
data_BaCr2PO11
_symmetry_space_group_name_H-M   'P 1'
_cell_length_a   7.58548900
_cell_length_b   7.81189226
_cell_length_c   9.60933914
_cell_angle_alpha   93.98479960
_cell_angle_beta   105.23234941
_cell_angle_gamma   106.15869614
_symmetry_Int_Tables_number   1
_chemical_formula_structural   BaCr2PO11
_chemical_formula_sum   'Ba2 Cr4 P2 O22'
_cell_volume   521.42572957
_cell_formula_units_Z   2
loop_
 _symmetry_equiv_pos_site_id
 _symmetry_equiv_pos_as_xyz
  1  'x, y, z'
loop_
 _atom_site_type_symbol
 _atom_site_label
 _atom_site_symmetry_multiplicity
 _atom_site_fract_x
 _atom_site_fract_y
 _atom_site_fract_z
 _atom_site_occupancy
  Ba  Ba0  1  0.25716100  0.45451100  0.11522900  1
  Ba  Ba1  1  0.74283900  0.54548900  0.88477100  1
  Cr  Cr0  1  0.24319900  0.72447500  0.75130200  1
  Cr  Cr1  1  0.75680100  0.27552500  0.24869800  1
  Cr  Cr2  1  0.11822000  0.93145700  0.25246900  1
  Cr  Cr3  1  0.88178000  0.06854300  0.74753100  1
  P  P0  1  0.31709200  0.14833900  0.77662800  1
  P  P1  1  0.68290800  0.85166100  0.22337200  1
  O  O0  1  0.09255700  0.69639300  0.59163100  1
  O  O1  1  0.90744300  0.30360700  0.40836900  1
  O  O2  1  0.13434900  0.62202800  0.86358800  1
  O  O3  1  0.86565100  0.37797200  0.13641200  1
  O  O4  1  0.42271400  0.65312600  0.74285400  1
  O  O5  1  0.57728600  0.34687400  0.25714600  1
  O  O6  1  0.34314000  0.96752700  0.82368700  1
  O  O7  1  0.65686000  0.03247300  0.17631300  1
  O  O8  1  0.44536200  0.22690000  0.68235800  1
  O  O9  1  0.55463800  0.77310000  0.31764200  1
  O  O10  1  0.38891300  0.29397700  0.91125600  1
  O  O11  1  0.61108700  0.70602300  0.08874400  1
  O  O12  1  0.10096700  0.11226400  0.69180400  1
  O  O13  1  0.89903300  0.88773600  0.30819600  1
  O  O14  1  0.10254900  0.74955800  0.14612000  1
  O  O15  1  0.89745100  0.25044200  0.85388000  1
  O  O16  1  0.13621300  0.10519700  0.16524300  1
  O  O17  1  0.86378700  0.89480300  0.83475700  1
  O  O18  1  0.29422300  0.97359000  0.39833400  1
  O  O19  1  0.70577700  0.02641000  0.60166600  1
  O  O20  1  0.28552100  0.46260600  0.42107300  1
  O  O21  1  0.71447900  0.53739400  0.57892700  1
loop_
_geom_bond_atom_site_label_1
_geom_bond_atom_site_label_2
_geom_bond_distance
_geom_bond_site_symmetry_2
Ba0 O16 2.745826 1_555
Ba0 O10 2.792595 1_554
Ba0 O5 2.831817 1_555
Ba0 O20 2.884810 1_555
Ba0 O2 2.891750 1_554
Ba0 O14 2.892831 1_555
Ba0 O3 2.926576 1_455
Ba0 O11 2.936892 1_555
Ba0 O9 2.994026 1_555
Ba0 O15 3.116934 1_454
Ba1 O17 2.745826 1_555
Ba1 O11 2.792595 1_556
Ba1 O4 2.831817 1_555
Ba1 O21 2.884810 1_555
Ba1 O3 2.891750 1_556
Ba1 O15 2.892831 1_555
Ba1 O2 2.926576 1_655
Ba1 O10 2.936892 1_555
Ba1 O8 2.994026 1_555
Ba1 O14 3.116934 1_656
Cr0 O0 1.612593 1_555
Cr0 O4 1.626575 1_555
Cr0 O2 1.645243 1_555
Cr0 O6 1.844391 1_555
Cr1 O1 1.612593 1_555
Cr1 O5 1.626575 1_555
Cr1 O3 1.645243 1_555
Cr1 O7 1.844391 1_555
Cr2 O18 1.601059 1_555
Cr2 O16 1.636580 1_565
Cr2 O14 1.648634 1_555
Cr2 O13 1.828929 1_455
Cr3 O19 1.601059 1_555
Cr3 O17 1.636580 1_545
Cr3 O15 1.648634 1_555
Cr3 O12 1.828929 1_655
O6 P0 1.560706 1_565
O7 P1 1.560706 1_545
O8 P0 1.533626 1_555
O9 P1 1.533626 1_555
O10 P0 1.531309 1_555
O11 P1 1.531309 1_555
O12 P0 1.562124 1_555
O13 P1 1.562124 1_555
