# generated using pymatgen
data_CsCrAs2O7
_symmetry_space_group_name_H-M   'P 1'
_cell_length_a   10.11550405
_cell_length_b   7.93735248
_cell_length_c   8.69185421
_cell_angle_alpha   74.10170330
_cell_angle_beta   90.00000000
_cell_angle_gamma   90.00000000
_symmetry_Int_Tables_number   1
_chemical_formula_structural   CsCrAs2O7
_chemical_formula_sum   'Cs4 Cr4 As8 O28'
_cell_volume   671.17778995
_cell_formula_units_Z   4
loop_
 _symmetry_equiv_pos_site_id
 _symmetry_equiv_pos_as_xyz
  1  'x, y, z'
loop_
 _atom_site_type_symbol
 _atom_site_label
 _atom_site_symmetry_multiplicity
 _atom_site_fract_x
 _atom_site_fract_y
 _atom_site_fract_z
 _atom_site_occupancy
  Cs  Cs0  1  0.19628968  0.67880853  0.45588100  1
  Cs  Cs1  1  0.69628968  0.32119147  0.04411900  1
  Cs  Cs2  1  0.80371032  0.32119147  0.54411900  1
  Cs  Cs3  1  0.30371032  0.67880853  0.95588100  1
  Cr  Cr0  1  0.39942803  0.26105192  0.76699200  1
  Cr  Cr1  1  0.89942803  0.73894808  0.73300800  1
  Cr  Cr2  1  0.60057197  0.73894808  0.23300800  1
  Cr  Cr3  1  0.10057197  0.26105192  0.26699200  1
  As  As0  1  0.13191841  0.06917237  0.68582170  1
  As  As1  1  0.63191841  0.93082763  0.81417830  1
  As  As2  1  0.86808159  0.93082763  0.31417830  1
  As  As3  1  0.36808159  0.06917237  0.18582170  1
  As  As4  1  0.08945952  0.36390990  0.84124710  1
  As  As5  1  0.58945952  0.63609010  0.65875290  1
  As  As6  1  0.91054048  0.63609010  0.15875290  1
  As  As7  1  0.41054048  0.36390990  0.34124710  1
  O  O0  1  0.10513892  0.20548598  0.50443409  1
  O  O1  1  0.60513892  0.79451402  0.99556591  1
  O  O2  1  0.89486108  0.79451402  0.49556591  1
  O  O3  1  0.39486108  0.20548598  0.00443409  1
  O  O4  1  0.07574872  0.86357405  0.71830448  1
  O  O5  1  0.57574872  0.13642595  0.78169552  1
  O  O6  1  0.92425128  0.13642595  0.28169552  1
  O  O7  1  0.42425128  0.86357405  0.21830448  1
  O  O8  1  0.28968430  0.05838963  0.75328092  1
  O  O9  1  0.78968430  0.94161037  0.74671908  1
  O  O10  1  0.71031570  0.94161037  0.24671908  1
  O  O11  1  0.21031570  0.05838963  0.25328092  1
  O  O12  1  0.03613713  0.16163821  0.81417748  1
  O  O13  1  0.53613713  0.83836179  0.68582252  1
  O  O14  1  0.96386287  0.83836179  0.18582252  1
  O  O15  1  0.46386287  0.16163821  0.31417748  1
  O  O16  1  0.08005234  0.34830588  0.03454459  1
  O  O17  1  0.58005234  0.65169412  0.46545541  1
  O  O18  1  0.91994766  0.65169412  0.96545541  1
  O  O19  1  0.41994766  0.34830588  0.53454459  1
  O  O20  1  0.99215380  0.51707600  0.72322893  1
  O  O21  1  0.49215380  0.48292400  0.77677107  1
  O  O22  1  0.00784620  0.48292400  0.27677107  1
  O  O23  1  0.50784620  0.51707600  0.22322893  1
  O  O24  1  0.24094230  0.40348860  0.75844516  1
  O  O25  1  0.74094230  0.59651140  0.74155484  1
  O  O26  1  0.75905770  0.59651140  0.24155484  1
  O  O27  1  0.25905770  0.40348860  0.25844516  1
loop_
_geom_bond_atom_site_label_1
_geom_bond_atom_site_label_2
_geom_bond_distance
_geom_bond_site_symmetry_2
Cs0 O24 2.957551 1_555
Cs0 O11 3.048247 1_565
Cs0 O20 3.110857 1_455
Cs0 O22 3.130614 1_555
Cs0 O7 3.173824 1_555
Cs0 O27 3.190336 1_555
Cs0 O2 3.230017 1_455
Cs0 O4 3.266943 1_555
Cs0 O14 3.318556 1_455
Cs0 O19 3.388971 1_555
Cs1 O25 2.957551 1_554
Cs1 O10 3.048247 1_545
Cs1 O21 3.110857 1_554
Cs1 O23 3.130614 1_555
Cs1 O6 3.173824 1_555
Cs1 O26 3.190336 1_555
Cs1 O3 3.230017 1_555
Cs1 O5 3.266943 1_554
Cs1 O15 3.318556 1_555
Cs1 O18 3.388971 1_554
Cs2 O26 2.957551 1_555
Cs2 O9 3.048247 1_545
Cs2 O22 3.110857 1_655
Cs2 O20 3.130614 1_555
Cs2 O5 3.173824 1_555
Cs2 O25 3.190336 1_555
Cs2 O0 3.230017 1_655
Cs2 O6 3.266943 1_555
Cs2 O12 3.318556 1_655
Cs2 O17 3.388971 1_555
Cs3 O27 2.957551 1_556
Cs3 O8 3.048247 1_565
Cs3 O23 3.110857 1_556
Cs3 O21 3.130614 1_555
Cs3 O4 3.173824 1_555
Cs3 O24 3.190336 1_555
Cs3 O1 3.230017 1_555
Cs3 O7 3.266943 1_556
Cs3 O13 3.318556 1_555
Cs3 O16 3.388971 1_556
Cr0 O24 1.951365 1_555
Cr0 O19 1.959118 1_555
Cr0 O8 1.984737 1_555
Cr0 O3 1.989295 1_556
Cr0 O21 2.017525 1_555
Cr0 O5 2.026505 1_555
Cr1 O25 1.951365 1_555
Cr1 O18 1.959118 1_555
Cr1 O9 1.984737 1_555
Cr1 O2 1.989295 1_555
Cr1 O20 2.017525 1_555
Cr1 O4 2.026505 1_655
Cr2 O26 1.951365 1_555
Cr2 O17 1.959118 1_555
Cr2 O10 1.984737 1_555
Cr2 O1 1.989295 1_554
Cr2 O23 2.017525 1_555
Cr2 O7 2.026505 1_555
Cr3 O27 1.951365 1_555
Cr3 O16 1.959118 1_555
Cr3 O11 1.984737 1_555
Cr3 O0 1.989295 1_555
Cr3 O22 2.017525 1_555
Cr3 O6 2.026505 1_455
As0 O0 1.671865 1_555
As0 O4 1.677272 1_545
As0 O8 1.694246 1_555
As0 O12 1.780632 1_555
As1 O1 1.671865 1_555
As1 O5 1.677272 1_565
As1 O9 1.694246 1_555
As1 O13 1.780632 1_555
As2 O2 1.671865 1_555
As2 O6 1.677272 1_565
As2 O10 1.694246 1_555
As2 O14 1.780632 1_555
As3 O3 1.671865 1_555
As3 O7 1.677272 1_545
As3 O11 1.694246 1_555
As3 O15 1.780632 1_555
As4 O16 1.653231 1_556
As4 O20 1.678056 1_455
As4 O24 1.685471 1_555
As4 O12 1.769430 1_555
As5 O17 1.653231 1_555
As5 O21 1.678056 1_555
As5 O25 1.685471 1_555
As5 O13 1.769430 1_555
As6 O18 1.653231 1_554
As6 O22 1.678056 1_655
As6 O26 1.685471 1_555
As6 O14 1.769430 1_555
As7 O19 1.653231 1_555
As7 O23 1.678056 1_555
As7 O27 1.685471 1_555
As7 O15 1.769430 1_555
