# generated using pymatgen
data_KYMg14O16
_symmetry_space_group_name_H-M   'P 1'
_cell_length_a   4.43111400
_cell_length_b   8.68321900
_cell_length_c   8.87288000
_cell_angle_alpha   90.00000000
_cell_angle_beta   90.00000000
_cell_angle_gamma   90.00000000
_symmetry_Int_Tables_number   1
_chemical_formula_structural   KYMg14O16
_chemical_formula_sum   'K1 Y1 Mg14 O16'
_cell_volume   341.39588800
_cell_formula_units_Z   1
loop_
 _symmetry_equiv_pos_site_id
 _symmetry_equiv_pos_as_xyz
  1  'x, y, z'
loop_
 _atom_site_type_symbol
 _atom_site_label
 _atom_site_symmetry_multiplicity
 _atom_site_fract_x
 _atom_site_fract_y
 _atom_site_fract_z
 _atom_site_occupancy
  K  K0  1  0.00000000  0.00000000  0.50000000  1
  Y  Y0  1  0.00000000  0.00000000  0.00000000  1
  Mg  Mg0  1  0.00000000  0.50000000  0.00000000  1
  Mg  Mg1  1  0.00000000  0.50000000  0.50000000  1
  Mg  Mg2  1  0.50000000  0.00000000  0.26401200  1
  Mg  Mg3  1  0.50000000  0.00000000  0.73598800  1
  Mg  Mg4  1  0.50000000  0.50000000  0.25313100  1
  Mg  Mg5  1  0.50000000  0.50000000  0.74686900  1
  Mg  Mg6  1  0.50000000  0.26160500  0.00000000  1
  Mg  Mg7  1  0.50000000  0.25233800  0.50000000  1
  Mg  Mg8  1  0.50000000  0.73839500  0.00000000  1
  Mg  Mg9  1  0.50000000  0.74766200  0.50000000  1
  Mg  Mg10  1  0.00000000  0.25714600  0.25821500  1
  Mg  Mg11  1  0.00000000  0.25714600  0.74178500  1
  Mg  Mg12  1  0.00000000  0.74285400  0.25821500  1
  Mg  Mg13  1  0.00000000  0.74285400  0.74178500  1
  O  O0  1  0.00000000  0.26161400  0.00000000  1
  O  O1  1  0.00000000  0.27605200  0.50000000  1
  O  O2  1  0.00000000  0.73838600  0.00000000  1
  O  O3  1  0.00000000  0.72394800  0.50000000  1
  O  O4  1  0.50000000  0.24930100  0.24813500  1
  O  O5  1  0.50000000  0.24930100  0.75186500  1
  O  O6  1  0.50000000  0.75069900  0.24813500  1
  O  O7  1  0.50000000  0.75069900  0.75186500  1
  O  O8  1  0.50000000  0.00000000  0.00000000  1
  O  O9  1  0.50000000  0.00000000  0.50000000  1
  O  O10  1  0.50000000  0.50000000  0.00000000  1
  O  O11  1  0.50000000  0.50000000  0.50000000  1
  O  O12  1  0.00000000  0.00000000  0.23969700  1
  O  O13  1  0.00000000  0.00000000  0.76030300  1
  O  O14  1  0.00000000  0.50000000  0.24483200  1
  O  O15  1  0.00000000  0.50000000  0.75516800  1
loop_
_geom_bond_atom_site_label_1
_geom_bond_atom_site_label_2
_geom_bond_distance
_geom_bond_site_symmetry_2
K0 O9 2.215557 1_555
K0 O9 2.215557 1_455
K0 O13 2.309637 1_555
K0 O12 2.309637 1_555
K0 O3 2.397020 1_545
K0 O1 2.397020 1_555
Mg0 O0 2.069958 1_555
Mg0 O2 2.069958 1_555
Mg0 O14 2.172365 1_555
Mg0 O15 2.172365 1_554
Mg0 O10 2.215557 1_555
Mg0 O10 2.215557 1_455
Mg1 O1 1.944590 1_555
Mg1 O3 1.944590 1_555
Mg1 O11 2.215557 1_455
Mg1 O11 2.215557 1_555
Mg1 O15 2.264075 1_555
Mg1 O14 2.264075 1_555
Mg2 O9 2.093893 1_555
Mg2 O4 2.169314 1_555
Mg2 O6 2.169314 1_545
Mg2 O12 2.226036 1_655
Mg2 O12 2.226036 1_555
Mg2 O8 2.342547 1_555
Mg3 O9 2.093893 1_555
Mg3 O5 2.169314 1_555
Mg3 O7 2.169314 1_545
Mg3 O13 2.226036 1_655
Mg3 O13 2.226036 1_555
Mg3 O8 2.342547 1_556
Mg4 O4 2.177326 1_555
Mg4 O6 2.177326 1_555
Mg4 O11 2.190439 1_555
Mg4 O14 2.216780 1_555
Mg4 O14 2.216780 1_655
Mg4 O10 2.246001 1_555
Mg5 O5 2.177326 1_555
Mg5 O7 2.177326 1_555
Mg5 O11 2.190439 1_555
Mg5 O15 2.216780 1_555
Mg5 O15 2.216780 1_655
Mg5 O10 2.246001 1_556
Mg6 O10 2.070036 1_555
Mg6 O4 2.204263 1_555
Mg6 O5 2.204263 1_554
Mg6 O0 2.215557 1_555
Mg6 O0 2.215557 1_655
Mg6 O8 2.271574 1_555
Mg7 O11 2.150503 1_555
Mg7 O9 2.191106 1_555
Mg7 O1 2.225105 1_655
Mg7 O1 2.225105 1_555
Mg7 O5 2.234924 1_555
Mg7 O4 2.234924 1_555
Mg8 O10 2.070036 1_555
Mg8 O6 2.204263 1_555
Mg8 O7 2.204263 1_554
Mg8 O2 2.215557 1_555
Mg8 O2 2.215557 1_655
Mg8 O8 2.271574 1_565
Mg9 O11 2.150503 1_555
Mg9 O9 2.191106 1_565
Mg9 O3 2.225105 1_655
Mg9 O3 2.225105 1_555
Mg9 O6 2.234924 1_555
Mg9 O7 2.234924 1_555
Mg10 O14 2.112095 1_555
Mg10 O1 2.151601 1_555
Mg10 O4 2.218408 1_455
Mg10 O4 2.218408 1_555
Mg10 O12 2.238892 1_555
Mg10 O0 2.291439 1_555
Mg11 O15 2.112095 1_555
Mg11 O1 2.151601 1_555
Mg11 O5 2.218408 1_455
Mg11 O5 2.218408 1_555
Mg11 O13 2.238892 1_555
Mg11 O0 2.291439 1_556
Mg12 O14 2.112095 1_555
Mg12 O3 2.151601 1_555
Mg12 O6 2.218408 1_555
Mg12 O6 2.218408 1_455
Mg12 O12 2.238892 1_565
Mg12 O2 2.291439 1_555
Mg13 O15 2.112095 1_555
Mg13 O3 2.151601 1_555
Mg13 O7 2.218408 1_555
Mg13 O7 2.218408 1_455
Mg13 O13 2.238892 1_565
Mg13 O2 2.291439 1_556
O0 Y0 2.271652 1_555
O2 Y0 2.271652 1_565
O8 Y0 2.215557 1_555
O8 Y0 2.215557 1_655
O12 Y0 2.126803 1_555
O13 Y0 2.126803 1_556
