# generated using pymatgen
data_Nd3Si(Mo2O7)2
_symmetry_space_group_name_H-M   'P 1'
_cell_length_a   6.16548400
_cell_length_b   10.68955500
_cell_length_c   18.06668800
_cell_angle_alpha   90.00000000
_cell_angle_beta   90.00000000
_cell_angle_gamma   90.00000000
_symmetry_Int_Tables_number   1
_chemical_formula_structural   Nd3Si(Mo2O7)2
_chemical_formula_sum   'Nd12 Si4 Mo16 O56'
_cell_volume   1190.70820378
_cell_formula_units_Z   4
loop_
 _symmetry_equiv_pos_site_id
 _symmetry_equiv_pos_as_xyz
  1  'x, y, z'
loop_
 _atom_site_type_symbol
 _atom_site_label
 _atom_site_symmetry_multiplicity
 _atom_site_fract_x
 _atom_site_fract_y
 _atom_site_fract_z
 _atom_site_occupancy
  Nd  Nd0  1  0.26070400  0.12600200  0.66595100  1
  Nd  Nd1  1  0.26070400  0.37399800  0.16595100  1
  Nd  Nd2  1  0.76070400  0.87399800  0.33404900  1
  Nd  Nd3  1  0.76070400  0.62600200  0.83404900  1
  Nd  Nd4  1  0.74006100  0.52359900  0.33822000  1
  Nd  Nd5  1  0.74006100  0.97640100  0.83822000  1
  Nd  Nd6  1  0.24006100  0.47640100  0.66178000  1
  Nd  Nd7  1  0.24006100  0.02359900  0.16178000  1
  Nd  Nd8  1  0.75785600  0.29769300  0.52768300  1
  Nd  Nd9  1  0.75785600  0.20230700  0.02768300  1
  Nd  Nd10  1  0.25785600  0.70230700  0.47231700  1
  Nd  Nd11  1  0.25785600  0.79769300  0.97231700  1
  Si  Si0  1  0.75553600  0.59926500  0.55300000  1
  Si  Si1  1  0.75553600  0.90073500  0.05300000  1
  Si  Si2  1  0.25553600  0.40073500  0.44700000  1
  Si  Si3  1  0.25553600  0.09926500  0.94700000  1
  Mo  Mo0  1  0.99189300  0.81863500  0.65625800  1
  Mo  Mo1  1  0.50304300  0.68288000  0.15420800  1
  Mo  Mo2  1  0.49189300  0.18136500  0.34374200  1
  Mo  Mo3  1  0.00304300  0.31712000  0.84579200  1
  Mo  Mo4  1  0.00304300  0.18288000  0.34579200  1
  Mo  Mo5  1  0.49189300  0.31863500  0.84374200  1
  Mo  Mo6  1  0.50304300  0.81712000  0.65420800  1
  Mo  Mo7  1  0.99189300  0.68136500  0.15625800  1
  Mo  Mo8  1  0.25114300  0.86151800  0.79867200  1
  Mo  Mo9  1  0.25114300  0.63848200  0.29867200  1
  Mo  Mo10  1  0.75114300  0.13848200  0.20132800  1
  Mo  Mo11  1  0.75114300  0.36151800  0.70132800  1
  Mo  Mo12  1  0.24701400  0.00679500  0.49405100  1
  Mo  Mo13  1  0.74701400  0.99320500  0.50594900  1
  Mo  Mo14  1  0.74701400  0.50679500  0.00594900  1
  Mo  Mo15  1  0.24701400  0.49320500  0.99405100  1
  O  O0  1  0.99668800  0.88966200  0.45612300  1
  O  O1  1  0.49737800  0.61437400  0.95957800  1
  O  O2  1  0.49668800  0.11033800  0.54387700  1
  O  O3  1  0.99737800  0.38562600  0.04042200  1
  O  O4  1  0.99737800  0.11437400  0.54042200  1
  O  O5  1  0.49668800  0.38966200  0.04387700  1
  O  O6  1  0.49737800  0.88562600  0.45957800  1
  O  O7  1  0.99668800  0.61033800  0.95612300  1
  O  O8  1  0.97884400  0.68402500  0.56947900  1
  O  O9  1  0.52547000  0.82658400  0.07068100  1
  O  O10  1  0.47884400  0.31597500  0.43052100  1
  O  O11  1  0.02547000  0.17341600  0.92931900  1
  O  O12  1  0.02547000  0.32658400  0.42931900  1
  O  O13  1  0.47884400  0.18402500  0.93052100  1
  O  O14  1  0.52547000  0.67341600  0.57068100  1
  O  O15  1  0.97884400  0.81597500  0.06947900  1
  O  O16  1  0.28082500  0.98119000  0.88996600  1
  O  O17  1  0.28082500  0.51881000  0.38996600  1
  O  O18  1  0.78082500  0.01881000  0.11003400  1
  O  O19  1  0.78082500  0.48119000  0.61003400  1
  O  O20  1  0.23909100  0.90866000  0.59611500  1
  O  O21  1  0.23909100  0.59134000  0.09611500  1
  O  O22  1  0.73909100  0.09134000  0.40388500  1
  O  O23  1  0.73909100  0.40866000  0.90388500  1
  O  O24  1  0.76262700  0.73228100  0.71405700  1
  O  O25  1  0.76262700  0.76771900  0.21405700  1
  O  O26  1  0.26262700  0.26771900  0.28594300  1
  O  O27  1  0.26262700  0.23228100  0.78594300  1
  O  O28  1  0.75309300  0.91462400  0.60373000  1
  O  O29  1  0.75309300  0.58537600  0.10373000  1
  O  O30  1  0.25309300  0.08537600  0.39627000  1
  O  O31  1  0.25309300  0.41462400  0.89627000  1
  O  O32  1  0.02272100  0.96181100  0.73443400  1
  O  O33  1  0.47192700  0.53498400  0.23708100  1
  O  O34  1  0.52272100  0.03818900  0.26556600  1
  O  O35  1  0.97192700  0.46501600  0.76291900  1
  O  O36  1  0.97192700  0.03498400  0.26291900  1
  O  O37  1  0.52272100  0.46181100  0.76556600  1
  O  O38  1  0.47192700  0.96501600  0.73708100  1
  O  O39  1  0.02272100  0.53818900  0.23443400  1
  O  O40  1  0.75068300  0.53652000  0.47092900  1
  O  O41  1  0.75068300  0.96348000  0.97092900  1
  O  O42  1  0.25068300  0.46348000  0.52907100  1
  O  O43  1  0.25068300  0.03652000  0.02907100  1
  O  O44  1  0.99354100  0.80203100  0.85534500  1
  O  O45  1  0.50672200  0.71015600  0.35060300  1
  O  O46  1  0.49354100  0.19796900  0.14465500  1
  O  O47  1  0.00672200  0.28984400  0.64939700  1
  O  O48  1  0.00672200  0.21015600  0.14939700  1
  O  O49  1  0.49354100  0.30203100  0.64465500  1
  O  O50  1  0.50672200  0.78984400  0.85060300  1
  O  O51  1  0.99354100  0.69796900  0.35534500  1
  O  O52  1  0.24193900  0.72195200  0.71105600  1
  O  O53  1  0.24193900  0.77804800  0.21105600  1
  O  O54  1  0.74193900  0.27804800  0.28894400  1
  O  O55  1  0.74193900  0.22195200  0.78894400  1
loop_
_geom_bond_atom_site_label_1
_geom_bond_atom_site_label_2
_geom_bond_distance
_geom_bond_site_symmetry_2
Nd0 O47 2.368323 1_555
Nd0 O49 2.397818 1_555
Nd0 O27 2.447533 1_555
Nd0 O38 2.511731 1_545
Nd0 O32 2.600808 1_545
Nd0 O20 2.647136 1_545
Nd0 O2 2.647460 1_555
Nd0 O4 2.791889 1_455
Nd1 O48 2.368323 1_555
Nd1 O46 2.397818 1_555
Nd1 O26 2.447533 1_555
Nd1 O33 2.511731 1_555
Nd1 O39 2.600808 1_555
Nd1 O21 2.647136 1_555
Nd1 O5 2.647460 1_555
Nd1 O3 2.791889 1_455
Nd2 O45 2.368323 1_555
Nd2 O51 2.397818 1_555
Nd2 O25 2.447533 1_555
Nd2 O36 2.511731 1_565
Nd2 O34 2.600808 1_565
Nd2 O22 2.647136 1_565
Nd2 O0 2.647460 1_555
Nd2 O6 2.791889 1_555
Nd3 O50 2.368323 1_555
Nd3 O44 2.397818 1_555
Nd3 O24 2.447533 1_555
Nd3 O35 2.511731 1_555
Nd3 O37 2.600808 1_555
Nd3 O23 2.647136 1_555
Nd3 O7 2.647460 1_555
Nd3 O1 2.791889 1_555
Nd4 O40 2.402480 1_555
Nd4 O51 2.452023 1_555
Nd4 O33 2.467110 1_555
Nd4 O45 2.469137 1_555
Nd4 O39 2.564632 1_655
Nd4 O54 2.771719 1_555
Nd5 O41 2.402480 1_555
Nd5 O44 2.452023 1_555
Nd5 O38 2.467110 1_555
Nd5 O50 2.469137 1_555
Nd5 O32 2.564632 1_655
Nd5 O55 2.771719 1_565
Nd6 O42 2.402480 1_555
Nd6 O49 2.452023 1_555
Nd6 O35 2.467110 1_455
Nd6 O47 2.469137 1_555
Nd6 O37 2.564632 1_555
Nd6 O52 2.771719 1_555
Nd7 O43 2.402480 1_555
Nd7 O46 2.452023 1_555
Nd7 O36 2.467110 1_455
Nd7 O48 2.469137 1_555
Nd7 O34 2.564632 1_555
Nd7 O53 2.771719 1_545
Nd8 O12 2.444566 1_655
Nd8 O4 2.464517 1_555
Nd8 O10 2.465531 1_555
Nd8 O19 2.465993 1_555
Nd8 O2 2.586388 1_555
Nd8 O49 2.669057 1_555
Nd8 O47 2.682690 1_655
Nd8 O40 2.751525 1_555
Nd9 O11 2.444566 1_654
Nd9 O3 2.464517 1_555
Nd9 O13 2.465531 1_554
Nd9 O18 2.465993 1_555
Nd9 O5 2.586388 1_555
Nd9 O46 2.669057 1_555
Nd9 O48 2.682690 1_655
Nd9 O41 2.751525 1_544
Nd10 O14 2.444566 1_555
Nd10 O6 2.464517 1_555
Nd10 O8 2.465531 1_455
Nd10 O17 2.465993 1_555
Nd10 O0 2.586388 1_455
Nd10 O51 2.669057 1_455
Nd10 O45 2.682690 1_555
Nd10 O42 2.751525 1_555
Nd11 O9 2.444566 1_556
Nd11 O1 2.464517 1_555
Nd11 O15 2.465531 1_456
Nd11 O16 2.465993 1_555
Nd11 O7 2.586388 1_455
Nd11 O44 2.669057 1_455
Nd11 O50 2.682690 1_555
Nd11 O43 2.751525 1_566
Mo0 O24 1.985095 1_555
Mo0 O28 2.030067 1_555
Mo0 O32 2.091253 1_655
Mo0 O52 2.103557 1_655
Mo0 O20 2.104663 1_655
Mo0 O8 2.129552 1_555
Mo1 O29 2.072390 1_555
Mo1 O25 2.133794 1_555
Mo1 O9 2.157793 1_555
Mo1 O53 2.163633 1_555
Mo1 O21 2.169668 1_555
Mo1 O33 2.185844 1_555
Mo2 O26 1.985095 1_555
Mo2 O30 2.030067 1_555
Mo2 O34 2.091253 1_555
Mo2 O54 2.103557 1_555
Mo2 O22 2.104663 1_555
Mo2 O10 2.129552 1_555
Mo3 O31 2.072390 1_555
Mo3 O27 2.133794 1_555
Mo3 O11 2.157793 1_555
Mo3 O55 2.163633 1_455
Mo3 O23 2.169668 1_455
Mo3 O35 2.185844 1_455
Mo4 O30 2.072390 1_555
Mo4 O26 2.133794 1_555
Mo4 O12 2.157793 1_555
Mo4 O54 2.163633 1_455
Mo4 O22 2.169668 1_455
Mo4 O36 2.185844 1_455
Mo5 O27 1.985095 1_555
Mo5 O31 2.030067 1_555
Mo5 O37 2.091253 1_555
Mo5 O55 2.103557 1_555
Mo5 O23 2.104663 1_555
Mo5 O13 2.129552 1_555
Mo6 O28 2.072390 1_555
Mo6 O24 2.133794 1_555
Mo6 O14 2.157793 1_555
Mo6 O52 2.163633 1_555
Mo6 O20 2.169668 1_555
Mo6 O38 2.185844 1_555
Mo7 O25 1.985095 1_555
Mo7 O29 2.030067 1_555
Mo7 O39 2.091253 1_655
Mo7 O53 2.103557 1_655
Mo7 O21 2.104663 1_655
Mo7 O15 2.129552 1_555
Mo8 O50 1.987539 1_555
Mo8 O44 1.993796 1_455
Mo8 O38 2.077302 1_555
Mo8 O16 2.095329 1_555
Mo8 O32 2.116528 1_555
Mo8 O52 2.175925 1_555
Mo9 O45 1.987539 1_555
Mo9 O51 1.993796 1_455
Mo9 O33 2.077302 1_555
Mo9 O17 2.095329 1_555
Mo9 O39 2.116528 1_555
Mo9 O53 2.175925 1_555
Mo10 O48 1.987539 1_655
Mo10 O46 1.993796 1_555
Mo10 O36 2.077302 1_555
Mo10 O18 2.095329 1_555
Mo10 O34 2.116528 1_555
Mo10 O54 2.175925 1_555
Mo11 O47 1.987539 1_655
Mo11 O49 1.993796 1_555
Mo11 O35 2.077302 1_555
Mo11 O19 2.095329 1_555
Mo11 O37 2.116528 1_555
Mo11 O55 2.175925 1_555
Mo12 O30 1.956476 1_555
Mo12 O4 2.095997 1_455
Mo12 O2 2.098820 1_555
Mo12 O0 2.102219 1_445
Mo12 O6 2.109099 1_545
Mo12 O20 2.122030 1_545
Mo13 O28 1.956476 1_555
Mo13 O6 2.095997 1_555
Mo13 O0 2.098820 1_555
Mo13 O2 2.102219 1_565
Mo13 O4 2.109099 1_565
Mo13 O22 2.122030 1_565
Mo14 O29 1.956476 1_555
Mo14 O1 2.095997 1_554
Mo14 O7 2.098820 1_554
Mo14 O5 2.102219 1_555
Mo14 O3 2.109099 1_555
Mo14 O23 2.122030 1_554
Mo15 O31 1.956476 1_555
Mo15 O3 2.095997 1_456
Mo15 O5 2.098820 1_556
Mo15 O7 2.102219 1_455
Mo15 O1 2.109099 1_555
Mo15 O21 2.122030 1_556
O8 Si0 1.674856 1_555
O9 Si1 1.656011 1_555
O10 Si2 1.674856 1_555
O11 Si3 1.656011 1_555
O12 Si2 1.656011 1_555
O13 Si3 1.674856 1_555
O14 Si0 1.656011 1_555
O15 Si1 1.674856 1_555
O16 Si3 1.636807 1_565
O17 Si2 1.636807 1_555
O18 Si1 1.636807 1_545
O19 Si0 1.636807 1_555
O40 Si0 1.627669 1_555
O41 Si1 1.627669 1_556
O42 Si2 1.627669 1_555
O43 Si3 1.627669 1_554
