# generated using pymatgen
data_NiPW
_symmetry_space_group_name_H-M   'P 1'
_cell_length_a   5.83520768
_cell_length_b   5.83520768
_cell_length_c   3.78622600
_cell_angle_alpha   90.00000000
_cell_angle_beta   90.00000000
_cell_angle_gamma   119.99999642
_symmetry_Int_Tables_number   1
_chemical_formula_structural   NiPW
_chemical_formula_sum   'Ni3 P3 W3'
_cell_volume   111.64770920
_cell_formula_units_Z   3
loop_
 _symmetry_equiv_pos_site_id
 _symmetry_equiv_pos_as_xyz
  1  'x, y, z'
loop_
 _atom_site_type_symbol
 _atom_site_label
 _atom_site_symmetry_multiplicity
 _atom_site_fract_x
 _atom_site_fract_y
 _atom_site_fract_z
 _atom_site_occupancy
  Ni  Ni0  1  0.74655100  0.00000000  0.00000000  1
  Ni  Ni1  1  0.00000000  0.74655100  0.00000000  1
  Ni  Ni2  1  0.25344900  0.25344900  0.00000000  1
  P  P0  1  0.33333300  0.66666700  0.00000000  1
  P  P1  1  0.66666700  0.33333300  0.00000000  1
  P  P2  1  0.00000000  0.00000000  0.50000000  1
  W  W0  1  0.41470500  0.00000000  0.50000000  1
  W  W1  1  0.00000000  0.41470500  0.50000000  1
  W  W2  1  0.58529500  0.58529500  0.50000000  1
loop_
_geom_bond_atom_site_label_1
_geom_bond_atom_site_label_2
_geom_bond_distance
_geom_bond_site_symmetry_2
Ni0 P1 2.215230 1_555
Ni0 P0 2.215234 1_545
Ni0 P2 2.402312 1_654
Ni0 P2 2.402312 1_655
Ni0 Ni1 2.561578 1_645
Ni0 Ni2 2.561578 1_655
Ni0 W0 2.708041 1_555
Ni0 W0 2.708041 1_554
Ni0 W2 2.836922 1_544
Ni0 W2 2.836922 1_545
Ni0 W1 2.836922 1_655
Ni0 W1 2.836922 1_654
Ni1 P0 2.215230 1_555
Ni1 P1 2.215234 1_455
Ni1 P2 2.402312 1_564
Ni1 P2 2.402312 1_565
Ni1 Ni2 2.561578 1_565
Ni1 W1 2.708041 1_554
Ni1 W1 2.708041 1_555
Ni1 W2 2.836922 1_454
Ni1 W2 2.836922 1_455
Ni1 W0 2.836922 1_565
Ni1 W0 2.836922 1_564
Ni2 P1 2.215236 1_555
Ni2 P0 2.215236 1_555
Ni2 P2 2.402312 1_555
Ni2 P2 2.402312 1_554
Ni2 W2 2.708041 1_555
Ni2 W2 2.708041 1_554
Ni2 W1 2.836922 1_554
Ni2 W0 2.836922 1_555
Ni2 W1 2.836922 1_555
Ni2 W0 2.836922 1_554
P0 W0 2.582452 1_564
P0 W0 2.582452 1_565
P0 W1 2.582453 1_554
P0 W1 2.582453 1_555
P0 W2 2.582456 1_555
P0 W2 2.582456 1_554
P1 W1 2.582452 1_655
P1 W1 2.582452 1_654
P1 W0 2.582453 1_554
P1 W0 2.582453 1_555
P1 W2 2.582456 1_555
P1 W2 2.582456 1_554
P2 W0 2.419890 1_555
P2 W1 2.419890 1_555
P2 W2 2.419890 1_445
