# generated using pymatgen
data_La3Ni3Bi4
_symmetry_space_group_name_H-M   'P 1'
_cell_length_a   8.62032064
_cell_length_b   8.62032064
_cell_length_c   8.62032064
_cell_angle_alpha   109.47122063
_cell_angle_beta   109.47122063
_cell_angle_gamma   109.47122063
_symmetry_Int_Tables_number   1
_chemical_formula_structural   La3Ni3Bi4
_chemical_formula_sum   'La6 Ni6 Bi8'
_cell_volume   493.11517651
_cell_formula_units_Z   2
loop_
 _symmetry_equiv_pos_site_id
 _symmetry_equiv_pos_as_xyz
  1  'x, y, z'
loop_
 _atom_site_type_symbol
 _atom_site_label
 _atom_site_symmetry_multiplicity
 _atom_site_fract_x
 _atom_site_fract_y
 _atom_site_fract_z
 _atom_site_occupancy
  La  La0  1  0.12500000  0.87500000  0.25000000  1
  La  La1  1  0.37500000  0.62500000  0.75000000  1
  La  La2  1  0.87500000  0.25000000  0.12500000  1
  La  La3  1  0.62500000  0.75000000  0.37500000  1
  La  La4  1  0.25000000  0.12500000  0.87500000  1
  La  La5  1  0.75000000  0.37500000  0.62500000  1
  Ni  Ni0  1  0.62500000  0.37500000  0.25000000  1
  Ni  Ni1  1  0.87500000  0.12500000  0.75000000  1
  Ni  Ni2  1  0.37500000  0.25000000  0.62500000  1
  Ni  Ni3  1  0.12500000  0.75000000  0.87500000  1
  Ni  Ni4  1  0.25000000  0.62500000  0.37500000  1
  Ni  Ni5  1  0.75000000  0.87500000  0.12500000  1
  Bi  Bi0  1  0.34965706  0.34965706  0.34965706  1
  Bi  Bi1  1  0.15034294  0.50000000  -0.00000000  1
  Bi  Bi2  1  -0.00000000  0.15034294  0.50000000  1
  Bi  Bi3  1  0.84965706  0.84965706  0.84965706  1
  Bi  Bi4  1  0.50000000  -0.00000000  0.15034294  1
  Bi  Bi5  1  0.65034294  0.50000000  0.00000000  1
  Bi  Bi6  1  0.50000000  0.00000000  0.65034294  1
  Bi  Bi7  1  0.00000000  0.65034294  0.50000000  1
loop_
_geom_bond_atom_site_label_1
_geom_bond_atom_site_label_2
_geom_bond_distance
_geom_bond_site_symmetry_2
La0 Ni4 3.047744 1_555
La0 Ni5 3.047744 1_455
La0 Ni3 3.047744 1_554
La0 Ni2 3.047744 1_565
La1 Ni5 3.047744 1_556
La1 Ni2 3.047744 1_555
La1 Ni3 3.047744 1_555
La1 Ni4 3.047744 1_555
La2 Ni5 3.047744 1_545
La2 Ni1 3.047744 1_554
La2 Ni4 3.047744 1_655
La2 Ni0 3.047744 1_555
La3 Ni0 3.047744 1_555
La3 Ni1 3.047744 1_565
La3 Ni4 3.047744 1_555
La3 Ni5 3.047744 1_555
La4 Ni2 3.047744 1_555
La4 Ni0 3.047744 1_556
La4 Ni1 3.047744 1_455
La4 Ni3 3.047744 1_545
La5 Ni2 3.047744 1_555
La5 Ni0 3.047744 1_555
La5 Ni1 3.047744 1_555
La5 Ni3 3.047744 1_655
Bi0 Ni4 2.749227 1_555
Bi0 Ni2 2.749227 1_555
Bi0 Ni0 2.749227 1_555
Bi0 La3 3.358905 1_555
Bi0 La1 3.358905 1_555
Bi0 La5 3.358905 1_555
Bi0 La2 3.534863 1_455
Bi0 La4 3.534863 1_554
Bi0 La0 3.534863 1_545
Bi1 Ni1 2.749227 1_454
Bi1 Ni4 2.749227 1_555
Bi1 Ni3 2.749227 1_554
Bi1 La0 3.358905 1_555
Bi1 La5 3.358905 1_454
Bi1 La2 3.358905 1_455
Bi1 La1 3.534863 1_554
Bi1 La4 3.534863 1_554
Bi1 La3 3.534863 1_555
Bi2 Ni5 2.749227 1_445
Bi2 Ni2 2.749227 1_555
Bi2 Ni1 2.749227 1_455
Bi2 La0 3.358905 1_545
Bi2 La3 3.358905 1_445
Bi2 La4 3.358905 1_555
Bi2 La1 3.534863 1_555
Bi2 La5 3.534863 1_455
Bi2 La2 3.534863 1_455
Bi3 Ni3 2.749227 1_655
Bi3 Ni1 2.749227 1_565
Bi3 Ni5 2.749227 1_556
Bi3 La0 3.358905 1_656
Bi3 La2 3.358905 1_566
Bi3 La4 3.358905 1_665
Bi3 La3 3.534863 1_555
Bi3 La1 3.534863 1_555
Bi3 La5 3.534863 1_555
Bi4 Ni5 2.749227 1_545
Bi4 Ni0 2.749227 1_555
Bi4 Ni3 2.749227 1_544
Bi4 La1 3.358905 1_544
Bi4 La2 3.358905 1_555
Bi4 La4 3.358905 1_554
Bi4 La5 3.534863 1_555
Bi4 La0 3.534863 1_545
Bi4 La3 3.534863 1_545
Bi5 Ni2 2.749227 1_554
Bi5 Ni5 2.749227 1_555
Bi5 Ni0 2.749227 1_555
Bi5 La3 3.358905 1_555
Bi5 La1 3.358905 1_554
Bi5 La4 3.358905 1_554
Bi5 La2 3.534863 1_555
Bi5 La0 3.534863 1_655
Bi5 La5 3.534863 1_554
Bi6 Ni1 2.749227 1_555
Bi6 Ni2 2.749227 1_555
Bi6 Ni4 2.749227 1_545
Bi6 La0 3.358905 1_545
Bi6 La3 3.358905 1_545
Bi6 La5 3.358905 1_555
Bi6 La4 3.534863 1_555
Bi6 La1 3.534863 1_545
Bi6 La2 3.534863 1_556
Bi7 Ni4 2.749227 1_555
Bi7 Ni0 2.749227 1_455
Bi7 Ni3 2.749227 1_555
Bi7 La1 3.358905 1_555
Bi7 La5 3.358905 1_455
Bi7 La2 3.358905 1_455
Bi7 La3 3.534863 1_455
Bi7 La0 3.534863 1_555
Bi7 La4 3.534863 1_565
