# generated using pymatgen
data_AlV2O4
_symmetry_space_group_name_H-M   'P 1'
_cell_length_a   5.96061840
_cell_length_b   10.32965015
_cell_length_c   5.96481737
_cell_angle_alpha   90.78701492
_cell_angle_beta   60.08549230
_cell_angle_gamma   73.00134888
_symmetry_Int_Tables_number   1
_chemical_formula_structural   AlV2O4
_chemical_formula_sum   'Al4 V8 O16'
_cell_volume   298.73176856
_cell_formula_units_Z   4
loop_
 _symmetry_equiv_pos_site_id
 _symmetry_equiv_pos_as_xyz
  1  'x, y, z'
loop_
 _atom_site_type_symbol
 _atom_site_label
 _atom_site_symmetry_multiplicity
 _atom_site_fract_x
 _atom_site_fract_y
 _atom_site_fract_z
 _atom_site_occupancy
  Al  Al0  1  0.63318800  0.31409300  0.93493300  1
  Al  Al1  1  0.61931100  0.81538400  0.43503900  1
  Al  Al2  1  0.38155200  0.18570500  0.56455500  1
  Al  Al3  1  0.36553100  0.68641000  0.06447700  1
  V  V0  1  0.49757700  0.00087800  0.00115300  1
  V  V1  1  0.50270300  0.49993000  0.49788500  1
  V  V2  1  0.99978300  0.99982300  0.50194500  1
  V  V3  1  0.99839400  0.50028900  0.00192700  1
  V  V4  1  0.01460200  0.24871200  0.24848600  1
  V  V5  1  0.98679300  0.74943300  0.75037300  1
  V  V6  1  0.00024800  0.50099000  0.50111700  1
  V  V7  1  0.99965100  0.99984000  0.99788400  1
  O  O0  1  0.25787600  0.12146900  0.37916700  1
  O  O1  1  0.23702200  0.62431100  0.88224800  1
  O  O2  1  0.76554300  0.37364100  0.11598800  1
  O  O3  1  0.74044400  0.87915100  0.62322100  1
  O  O4  1  0.75896700  0.37816600  0.62927400  1
  O  O5  1  0.73899700  0.87730500  0.12945500  1
  O  O6  1  0.24679100  0.37399400  0.62880700  1
  O  O7  1  0.24871200  0.87342200  0.12936900  1
  O  O8  1  0.75421600  0.12605900  0.38192200  1
  O  O9  1  0.74062200  0.62007300  0.87665000  1
  O  O10  1  0.74755500  0.12736800  0.87162800  1
  O  O11  1  0.75502400  0.62721400  0.37227800  1
  O  O12  1  0.25951200  0.12298600  0.86941800  1
  O  O13  1  0.24438800  0.62112600  0.36842200  1
  O  O14  1  0.25774700  0.37976400  0.12567700  1
  O  O15  1  0.24725100  0.87246700  0.61670500  1
loop_
_geom_bond_atom_site_label_1
_geom_bond_atom_site_label_2
_geom_bond_distance
_geom_bond_site_symmetry_2
Al0 O10 1.811637 1_555
Al0 O2 1.811726 1_556
Al0 O4 1.812211 1_555
Al0 O14 1.820524 1_556
Al1 O5 1.800645 1_555
Al1 O15 1.805841 1_555
Al1 O3 1.811427 1_555
Al1 O11 1.825162 1_555
Al2 O12 1.801165 1_555
Al2 O8 1.807849 1_555
Al2 O0 1.812581 1_555
Al2 O6 1.825915 1_555
Al3 O13 1.809867 1_555
Al3 O1 1.810607 1_554
Al3 O7 1.813988 1_555
Al3 O9 1.818840 1_554
O0 V0 2.084728 1_555
O0 V4 2.116366 1_555
O0 V2 2.124561 1_445
O1 V3 2.061984 1_456
O1 V1 2.126729 1_555
O1 V5 2.141226 1_455
O2 V3 2.060334 1_555
O2 V1 2.123463 1_555
O2 V4 2.138206 1_655
O3 V0 2.088400 1_566
O3 V2 2.121952 1_555
O3 V5 2.124887 1_555
O4 V6 2.063825 1_655
O4 V4 2.131221 1_655
O4 V1 2.151091 1_555
O5 V0 2.082561 1_565
O5 V5 2.117832 1_554
O5 V7 2.143090 1_554
O6 V3 2.086034 1_456
O6 V6 2.115944 1_555
O6 V1 2.151502 1_555
O7 V2 2.084180 1_455
O7 V0 2.134653 1_565
O7 V7 2.140140 1_454
O8 V2 2.076112 1_545
O8 V7 2.132525 1_544
O8 V4 2.143108 1_655
O9 V6 2.068645 1_655
O9 V3 2.123470 1_556
O9 V5 2.139546 1_555
O10 V2 2.077002 1_545
O10 V0 2.131225 1_556
O10 V7 2.135182 1_545
O11 V3 2.077361 1_555
O11 V6 2.112048 1_655
O11 V1 2.147411 1_555
O12 V0 2.077223 1_556
O12 V4 2.109206 1_556
O12 V7 2.144639 1_445
O13 V6 2.053823 1_555
O13 V5 2.131374 1_455
O13 V1 2.149365 1_555
O14 V6 2.075997 1_555
O14 V3 2.126672 1_455
O14 V4 2.141283 1_555
O15 V2 2.066945 1_455
O15 V7 2.124696 1_455
O15 V5 2.146620 1_455
