# generated using pymatgen
data_K3(CuS)4
_symmetry_space_group_name_H-M   'P 1'
_cell_length_a   3.82750900
_cell_length_b   7.86451800
_cell_length_c   15.69717900
_cell_angle_alpha   90.00000000
_cell_angle_beta   90.00000000
_cell_angle_gamma   90.00000000
_symmetry_Int_Tables_number   1
_chemical_formula_structural   K3(CuS)4
_chemical_formula_sum   'K6 Cu8 S8'
_cell_volume   472.50884441
_cell_formula_units_Z   2
loop_
 _symmetry_equiv_pos_site_id
 _symmetry_equiv_pos_as_xyz
  1  'x, y, z'
loop_
 _atom_site_type_symbol
 _atom_site_label
 _atom_site_symmetry_multiplicity
 _atom_site_fract_x
 _atom_site_fract_y
 _atom_site_fract_z
 _atom_site_occupancy
  K  K0  1  0.50000000  0.01760200  0.23067000  1
  K  K1  1  0.50000000  0.98239800  0.76933000  1
  K  K2  1  0.50000000  0.48239800  0.73067000  1
  K  K3  1  0.50000000  0.51760200  0.26933000  1
  K  K4  1  0.00000000  0.00000000  0.00000000  1
  K  K5  1  0.00000000  0.50000000  0.50000000  1
  Cu  Cu0  1  0.00000000  0.07124400  0.41513600  1
  Cu  Cu1  1  0.00000000  0.92875600  0.58486400  1
  Cu  Cu2  1  0.00000000  0.42875600  0.91513600  1
  Cu  Cu3  1  0.00000000  0.57124400  0.08486400  1
  Cu  Cu4  1  0.50000000  0.34863200  0.05988000  1
  Cu  Cu5  1  0.50000000  0.65136800  0.94012000  1
  Cu  Cu6  1  0.50000000  0.15136800  0.55988000  1
  Cu  Cu7  1  0.50000000  0.84863200  0.44012000  1
  S  S0  1  0.00000000  0.30025000  0.14049200  1
  S  S1  1  0.00000000  0.69975000  0.85950800  1
  S  S2  1  0.00000000  0.19975000  0.64049200  1
  S  S3  1  0.00000000  0.80025000  0.35950800  1
  S  S4  1  0.50000000  0.22662700  0.41583200  1
  S  S5  1  0.50000000  0.77337300  0.58416800  1
  S  S6  1  0.50000000  0.27337300  0.91583200  1
  S  S7  1  0.50000000  0.72662700  0.08416800  1
loop_
_geom_bond_atom_site_label_1
_geom_bond_atom_site_label_2
_geom_bond_distance
_geom_bond_site_symmetry_2
K0 S7 3.244248 1_545
K0 S0 3.256908 1_555
K0 S0 3.256908 1_655
K0 S3 3.267181 1_645
K0 S3 3.267181 1_545
K0 S4 3.339193 1_555
K1 S6 3.244248 1_565
K1 S1 3.256908 1_555
K1 S1 3.256908 1_655
K1 S2 3.267181 1_565
K1 S2 3.267181 1_665
K1 S5 3.339193 1_555
K2 S5 3.244248 1_555
K2 S2 3.256908 1_655
K2 S2 3.256908 1_555
K2 S1 3.267181 1_655
K2 S1 3.267181 1_555
K2 S6 3.339193 1_555
K3 S4 3.244248 1_555
K3 S3 3.256908 1_555
K3 S3 3.256908 1_655
K3 S0 3.267181 1_555
K3 S0 3.267181 1_655
K3 S7 3.339193 1_555
K4 S7 3.167065 1_545
K4 S6 3.167065 1_554
K4 S7 3.167065 1_445
K4 S6 3.167065 1_454
K4 S1 3.230992 1_544
K4 S0 3.230992 1_555
K5 S5 3.167065 1_555
K5 S4 3.167065 1_455
K5 S5 3.167065 1_455
K5 S4 3.167065 1_555
K5 S2 3.230992 1_555
K5 S3 3.230992 1_555
Cu0 S4 2.270658 1_555
Cu0 S4 2.270658 1_455
Cu0 S3 2.303184 1_545
Cu1 S5 2.270658 1_455
Cu1 S5 2.270658 1_555
Cu1 S2 2.303184 1_565
Cu2 S6 2.270658 1_455
Cu2 S6 2.270658 1_555
Cu2 S1 2.303184 1_555
Cu3 S7 2.270658 1_555
Cu3 S7 2.270658 1_455
Cu3 S0 2.303184 1_555
Cu4 S0 2.325602 1_555
Cu4 S0 2.325602 1_655
Cu4 S6 2.337328 1_554
Cu5 S1 2.325602 1_555
Cu5 S1 2.325602 1_655
Cu5 S7 2.337328 1_556
Cu6 S2 2.325602 1_655
Cu6 S2 2.325602 1_555
Cu6 S4 2.337328 1_555
Cu7 S3 2.325602 1_655
Cu7 S3 2.325602 1_555
Cu7 S5 2.337328 1_555
