# generated using pymatgen
data_HfBi2
_symmetry_space_group_name_H-M   'P 1'
_cell_length_a   4.02520905
_cell_length_b   10.23329234
_cell_length_c   15.63413985
_cell_angle_alpha   90.00000000
_cell_angle_beta   90.00000000
_cell_angle_gamma   90.00000000
_symmetry_Int_Tables_number   1
_chemical_formula_structural   HfBi2
_chemical_formula_sum   'Hf8 Bi16'
_cell_volume   643.98805801
_cell_formula_units_Z   8
loop_
 _symmetry_equiv_pos_site_id
 _symmetry_equiv_pos_as_xyz
  1  'x, y, z'
loop_
 _atom_site_type_symbol
 _atom_site_label
 _atom_site_symmetry_multiplicity
 _atom_site_fract_x
 _atom_site_fract_y
 _atom_site_fract_z
 _atom_site_occupancy
  Hf  Hf0  1  -0.00000000  0.83885610  0.49476232  1
  Hf  Hf1  1  -0.00000000  0.16114142  0.50519912  1
  Hf  Hf2  1  0.50000000  0.66114142  0.99480088  1
  Hf  Hf3  1  0.50000000  0.33885610  0.00523768  1
  Hf  Hf4  1  0.50000000  0.52226388  0.25386597  1
  Hf  Hf5  1  0.50000000  0.47774477  0.74612949  1
  Hf  Hf6  1  0.00000000  0.97774477  0.75387051  1
  Hf  Hf7  1  0.00000000  0.02226388  0.24613403  1
  Bi  Bi0  1  0.50000000  0.62500541  0.44346977  1
  Bi  Bi1  1  0.50000000  0.37498979  0.55651475  1
  Bi  Bi2  1  -0.00000000  0.87498979  0.94348525  1
  Bi  Bi3  1  -0.00000000  0.12500541  0.05653023  1
  Bi  Bi4  1  0.50000000  0.84597682  0.15028082  1
  Bi  Bi5  1  0.50000000  0.15401858  0.84972341  1
  Bi  Bi6  1  -0.00000000  0.65401858  0.65027659  1
  Bi  Bi7  1  -0.00000000  0.34597682  0.34971918  1
  Bi  Bi8  1  -0.00000000  0.73515621  0.30030017  1
  Bi  Bi9  1  0.00000000  0.26484540  0.69968957  1
  Bi  Bi10  1  0.50000000  0.76484540  0.80031043  1
  Bi  Bi11  1  0.50000000  0.23515621  0.19969983  1
  Bi  Bi12  1  -0.00000000  0.51406040  0.10720322  1
  Bi  Bi13  1  -0.00000000  0.48594022  0.89281452  1
  Bi  Bi14  1  0.50000000  0.98594022  0.60718548  1
  Bi  Bi15  1  0.50000000  0.01406040  0.39279678  1
loop_
_geom_bond_atom_site_label_1
_geom_bond_atom_site_label_2
_geom_bond_distance
_geom_bond_site_symmetry_2
Bi0 Hf0 3.079403 1_655
Bi0 Hf0 3.079403 1_555
Bi0 Hf4 3.145225 1_555
Bi1 Hf1 3.079480 1_555
Bi1 Hf1 3.079480 1_655
Bi1 Hf5 3.145432 1_555
Bi2 Hf2 3.079480 1_555
Bi2 Hf2 3.079480 1_455
Bi2 Hf6 3.145432 1_555
Bi3 Hf3 3.079403 1_555
Bi3 Hf3 3.079403 1_455
Bi3 Hf7 3.145225 1_555
Bi4 Hf2 3.080007 1_554
Bi4 Hf7 3.090426 1_665
Bi4 Hf7 3.090426 1_565
Bi5 Hf3 3.080444 1_556
Bi5 Hf6 3.090344 1_545
Bi5 Hf6 3.090344 1_645
Bi6 Hf0 3.080444 1_555
Bi6 Hf5 3.090344 1_455
Bi6 Hf5 3.090344 1_555
Bi7 Hf1 3.080007 1_555
Bi7 Hf4 3.090426 1_555
Bi7 Hf4 3.090426 1_455
Bi8 Hf4 3.053497 1_555
Bi8 Hf4 3.053497 1_455
Bi8 Hf7 3.057665 1_565
Bi8 Hf0 3.220130 1_555
Bi9 Hf5 3.053570 1_455
Bi9 Hf5 3.053570 1_555
Bi9 Hf6 3.057660 1_545
Bi9 Hf1 3.220562 1_555
Bi10 Hf6 3.053570 1_555
Bi10 Hf6 3.053570 1_655
Bi10 Hf5 3.057660 1_555
Bi10 Hf2 3.220562 1_555
Bi11 Hf7 3.053497 1_555
Bi11 Hf7 3.053497 1_655
Bi11 Hf4 3.057665 1_555
Bi11 Hf3 3.220130 1_555
Bi12 Hf4 3.052085 1_455
Bi12 Hf4 3.052085 1_555
Bi12 Hf2 3.066615 1_454
Bi12 Hf2 3.066615 1_554
Bi12 Hf3 3.131521 1_455
Bi12 Hf3 3.131521 1_555
Bi13 Hf5 3.052345 1_455
Bi13 Hf5 3.052345 1_555
Bi13 Hf3 3.066817 1_556
Bi13 Hf3 3.066817 1_456
Bi13 Hf2 3.131668 1_555
Bi13 Hf2 3.131668 1_455
Bi14 Hf6 3.052345 1_655
Bi14 Hf6 3.052345 1_555
Bi14 Hf0 3.066817 1_655
Bi14 Hf0 3.066817 1_555
Bi14 Hf1 3.131668 1_565
Bi14 Hf1 3.131668 1_665
Bi15 Hf7 3.052085 1_655
Bi15 Hf7 3.052085 1_555
Bi15 Hf1 3.066615 1_655
Bi15 Hf1 3.066615 1_555
Bi15 Hf0 3.131521 1_645
Bi15 Hf0 3.131521 1_545
