# generated using pymatgen
data_Li3MnCoO5
_symmetry_space_group_name_H-M   'P 1'
_cell_length_a   3.03429300
_cell_length_b   5.04902463
_cell_length_c   12.07076323
_cell_angle_alpha   96.92330553
_cell_angle_beta   92.51684163
_cell_angle_gamma   92.26670826
_symmetry_Int_Tables_number   1
_chemical_formula_structural   Li3MnCoO5
_chemical_formula_sum   'Li6 Mn2 Co2 O10'
_cell_volume   183.21365947
_cell_formula_units_Z   2
loop_
 _symmetry_equiv_pos_site_id
 _symmetry_equiv_pos_as_xyz
  1  'x, y, z'
loop_
 _atom_site_type_symbol
 _atom_site_label
 _atom_site_symmetry_multiplicity
 _atom_site_fract_x
 _atom_site_fract_y
 _atom_site_fract_z
 _atom_site_occupancy
  Li  Li0  1  0.69790300  0.90133500  0.39959100  1
  Li  Li1  1  0.09679200  0.70169300  0.19928300  1
  Li  Li2  1  0.50000000  0.50000000  0.00000000  1
  Li  Li3  1  0.90320800  0.29830700  0.80071700  1
  Li  Li4  1  0.30209700  0.09866500  0.60040900  1
  Li  Li5  1  0.00000000  0.00000000  0.00000000  1
  Mn  Mn0  1  0.80377600  0.60344400  0.60285200  1
  Mn  Mn1  1  0.19622400  0.39655600  0.39714800  1
  Co  Co0  1  0.59033700  0.19289400  0.18962100  1
  Co  Co1  1  0.40966300  0.80710600  0.81037900  1
  O  O0  1  0.22420700  0.73303200  0.49827700  1
  O  O1  1  0.62762500  0.51677700  0.29525200  1
  O  O2  1  0.03230800  0.34013400  0.10712400  1
  O  O3  1  0.43990800  0.11844000  0.88951600  1
  O  O4  1  0.82640800  0.93269200  0.70312500  1
  O  O5  1  0.17359200  0.06730800  0.29687500  1
  O  O6  1  0.56009200  0.88156000  0.11048400  1
  O  O7  1  0.96769200  0.65986600  0.89287600  1
  O  O8  1  0.37237500  0.48322300  0.70474800  1
  O  O9  1  0.77579300  0.26696800  0.50172300  1
loop_
_geom_bond_atom_site_label_1
_geom_bond_atom_site_label_2
_geom_bond_distance
_geom_bond_site_symmetry_2
Li0 O9 2.091639 1_565
Li0 O0 2.122455 1_555
Li0 O5 2.152864 1_665
Li0 O1 2.180777 1_555
Li0 O0 2.208096 1_655
Li0 O5 2.225581 1_565
Li1 O2 2.017761 1_555
Li1 O6 2.053269 1_555
Li1 O5 2.065752 1_565
Li1 O1 2.130887 1_455
Li1 O6 2.196369 1_455
Li1 O1 2.241388 1_555
Li2 O7 2.158612 1_554
Li2 O2 2.158612 1_555
Li2 O6 2.203337 1_555
Li2 O3 2.203337 1_554
Li2 O7 2.259130 1_454
Li2 O2 2.259130 1_655
Li3 O7 2.017761 1_555
Li3 O3 2.053269 1_555
Li3 O4 2.065752 1_545
Li3 O8 2.130887 1_655
Li3 O3 2.196369 1_655
Li3 O8 2.241388 1_555
Li4 O0 2.091639 1_545
Li4 O9 2.122455 1_555
Li4 O4 2.152864 1_445
Li4 O8 2.180777 1_555
Li4 O9 2.208096 1_455
Li4 O4 2.225581 1_545
Li5 O7 2.017698 1_444
Li5 O2 2.017698 1_555
Li5 O6 2.050209 1_445
Li5 O3 2.050209 1_554
Li5 O6 2.257879 1_545
Li5 O3 2.257879 1_454
Mn0 O4 1.931791 1_555
Mn0 O8 1.962974 1_555
Mn0 O9 1.965460 1_555
Mn0 O0 1.980771 1_655
Mn0 O8 2.221342 1_655
Mn0 O0 2.282385 1_555
Mn1 O5 1.931791 1_555
Mn1 O1 1.962974 1_555
Mn1 O0 1.965460 1_555
Mn1 O9 1.980771 1_455
Mn1 O1 2.221342 1_455
Mn1 O9 2.282385 1_555
Co0 O6 1.735158 1_545
Co0 O2 1.886705 1_655
Co0 O1 1.944930 1_555
Co0 O5 1.988829 1_555
Co0 O2 2.131022 1_555
Co0 O5 2.301233 1_655
Co1 O3 1.735158 1_565
Co1 O7 1.886705 1_455
Co1 O8 1.944930 1_555
Co1 O4 1.988829 1_555
Co1 O7 2.131022 1_555
Co1 O4 2.301233 1_455
