# generated using pymatgen
data_Ba2CoRuO6
_symmetry_space_group_name_H-M   'P 1'
_cell_length_a   5.81529954
_cell_length_b   5.81529954
_cell_length_c   14.14204700
_cell_angle_alpha   90.00000000
_cell_angle_beta   90.00000000
_cell_angle_gamma   119.99999477
_symmetry_Int_Tables_number   1
_chemical_formula_structural   Ba2CoRuO6
_chemical_formula_sum   'Ba6 Co3 Ru3 O18'
_cell_volume   414.17807978
_cell_formula_units_Z   3
loop_
 _symmetry_equiv_pos_site_id
 _symmetry_equiv_pos_as_xyz
  1  'x, y, z'
loop_
 _atom_site_type_symbol
 _atom_site_label
 _atom_site_symmetry_multiplicity
 _atom_site_fract_x
 _atom_site_fract_y
 _atom_site_fract_z
 _atom_site_occupancy
  Ba  Ba0  1  0.00000000  0.00000000  0.25374600  1
  Ba  Ba1  1  0.00000000  0.00000000  0.74898200  1
  Ba  Ba2  1  0.66666700  0.33333300  0.58430300  1
  Ba  Ba3  1  0.33333300  0.66666700  0.40674200  1
  Ba  Ba4  1  0.33333300  0.66666700  0.09135400  1
  Ba  Ba5  1  0.66666700  0.33333300  0.91263600  1
  Co  Co0  1  0.00000000  0.00000000  0.49622500  1
  Co  Co1  1  0.00000000  0.00000000  0.00174500  1
  Co  Co2  1  0.66666700  0.33333300  0.35215100  1
  Ru  Ru0  1  0.33333300  0.66666700  0.65983000  1
  Ru  Ru1  1  0.33333300  0.66666700  0.83950600  1
  Ru  Ru2  1  0.66666700  0.33333300  0.15933000  1
  O  O0  1  0.34576000  0.17288000  0.08298800  1
  O  O1  1  0.82712000  0.17288000  0.08298800  1
  O  O2  1  0.82712000  0.65424000  0.08298800  1
  O  O3  1  0.65640300  0.82820200  0.91420700  1
  O  O4  1  0.17179800  0.82820200  0.91420700  1
  O  O5  1  0.17179800  0.34359700  0.91420700  1
  O  O6  1  0.65898600  0.82949300  0.58592100  1
  O  O7  1  0.17050700  0.82949300  0.58592100  1
  O  O8  1  0.17050700  0.34101400  0.58592100  1
  O  O9  1  0.34162600  0.17081300  0.41602400  1
  O  O10  1  0.82918700  0.17081300  0.41602400  1
  O  O11  1  0.82918700  0.65837400  0.41602400  1
  O  O12  1  0.96711600  0.48355800  0.24796000  1
  O  O13  1  0.51644200  0.48355800  0.24796000  1
  O  O14  1  0.51644200  0.03288400  0.24796000  1
  O  O15  1  0.01731900  0.50865900  0.75041700  1
  O  O16  1  0.49134100  0.50865900  0.75041700  1
  O  O17  1  0.49134100  0.98268100  0.75041700  1
loop_
_geom_bond_atom_site_label_1
_geom_bond_atom_site_label_2
_geom_bond_distance
_geom_bond_site_symmetry_2
Ba0 O10 2.868252 1_455
Ba0 O9 2.868252 1_555
Ba0 O11 2.868252 1_445
Ba0 O14 2.913512 1_455
Ba0 O12 2.913512 1_455
Ba0 O14 2.913512 1_555
Ba0 O12 2.913512 1_445
Ba0 O13 2.913512 1_555
Ba0 O13 2.913512 1_445
Ba0 O1 2.977208 1_455
Ba0 O2 2.977208 1_445
Ba0 O0 2.977208 1_555
Ba1 O7 2.875278 1_545
Ba1 O8 2.875278 1_555
Ba1 O6 2.875278 1_445
Ba1 O4 2.907600 1_545
Ba1 O5 2.907603 1_555
Ba1 O3 2.907603 1_445
Ba1 O15 2.909026 1_555
Ba1 O17 2.909026 1_445
Ba1 O16 2.909029 1_555
Ba1 O16 2.909029 1_445
Ba1 O15 2.909031 1_545
Ba1 O17 2.909031 1_545
Ba2 O10 2.888451 1_555
Ba2 O9 2.888454 1_555
Ba2 O11 2.888454 1_555
Ba2 O8 2.907994 1_655
Ba2 O6 2.907994 1_545
Ba2 O7 2.907997 1_655
Ba2 O7 2.907997 1_545
Ba2 O6 2.908000 1_555
Ba2 O8 2.908000 1_555
Ba2 O16 2.938927 1_555
Ba2 O15 2.938927 1_655
Ba2 O17 2.938927 1_545
Ba3 O12 2.905835 1_455
Ba3 O14 2.905835 1_565
Ba3 O13 2.905838 1_555
Ba3 O9 2.910908 1_565
Ba3 O11 2.910908 1_455
Ba3 O10 2.910911 1_565
Ba3 O10 2.910911 1_455
Ba3 O9 2.910914 1_555
Ba3 O11 2.910914 1_555
Ba3 O7 3.018393 1_555
Ba3 O8 3.018396 1_555
Ba3 O6 3.018396 1_555
Ba4 O14 2.882121 1_565
Ba4 O12 2.882121 1_455
Ba4 O13 2.882124 1_555
Ba4 O0 2.910726 1_565
Ba4 O2 2.910726 1_455
Ba4 O1 2.910729 1_455
Ba4 O1 2.910729 1_565
Ba4 O0 2.910732 1_555
Ba4 O2 2.910732 1_555
Ba4 O4 2.987207 1_554
Ba4 O5 2.987207 1_554
Ba4 O3 2.987207 1_554
Ba5 O16 2.895086 1_555
Ba5 O15 2.895086 1_655
Ba5 O17 2.895086 1_545
Ba5 O1 2.901002 1_556
Ba5 O0 2.901005 1_556
Ba5 O2 2.901005 1_556
Ba5 O5 2.908188 1_655
Ba5 O3 2.908188 1_545
Ba5 O4 2.908194 1_655
Ba5 O4 2.908194 1_545
Ba5 O3 2.908200 1_555
Ba5 O5 2.908200 1_555
Co0 O10 2.060711 1_455
Co0 O11 2.060711 1_445
Co0 O9 2.060711 1_555
Co0 O7 2.135079 1_545
Co0 O8 2.135080 1_555
Co0 O6 2.135080 1_445
Co1 O1 2.086204 1_455
Co1 O2 2.086204 1_445
Co1 O0 2.086204 1_555
Co1 O4 2.127652 1_544
Co1 O5 2.127657 1_554
Co1 O3 2.127657 1_444
Co2 O10 1.869652 1_555
Co2 O11 1.869656 1_555
Co2 O9 1.869656 1_555
Co2 O14 2.112027 1_555
Co2 O12 2.112027 1_555
Co2 O13 2.112031 1_555
O0 Ru2 1.943592 1_555
O1 Ru2 1.943588 1_555
O2 Ru2 1.943592 1_555
O3 Ru1 1.939924 1_555
O4 Ru1 1.939924 1_555
O5 Ru1 1.939924 1_555
O6 Ru0 1.944805 1_555
O7 Ru0 1.944801 1_555
O8 Ru0 1.944805 1_555
O12 Ru2 1.964833 1_555
O13 Ru2 1.964837 1_555
O14 Ru2 1.964833 1_555
O15 Ru1 2.029840 1_555
O15 Ru0 2.043057 1_555
O16 Ru1 2.029848 1_555
O16 Ru0 2.043064 1_555
O17 Ru1 2.029840 1_555
O17 Ru0 2.043057 1_555
