# generated using pymatgen
data_HfMn
_symmetry_space_group_name_H-M   'P 1'
_cell_length_a   8.22188127
_cell_length_b   8.22188127
_cell_length_c   8.22188127
_cell_angle_alpha   60.00000000
_cell_angle_beta   60.00000000
_cell_angle_gamma   60.00000000
_symmetry_Int_Tables_number   1
_chemical_formula_structural   HfMn
_chemical_formula_sum   'Hf12 Mn12'
_cell_volume   393.00547898
_cell_formula_units_Z   12
loop_
 _symmetry_equiv_pos_site_id
 _symmetry_equiv_pos_as_xyz
  1  'x, y, z'
loop_
 _atom_site_type_symbol
 _atom_site_label
 _atom_site_symmetry_multiplicity
 _atom_site_fract_x
 _atom_site_fract_y
 _atom_site_fract_z
 _atom_site_occupancy
  Hf  Hf0  1  0.42725600  0.82274400  0.82274400  1
  Hf  Hf1  1  0.82274400  0.42725600  0.42725600  1
  Hf  Hf2  1  0.82274400  0.42725600  0.82274400  1
  Hf  Hf3  1  0.42725600  0.82274400  0.42725600  1
  Hf  Hf4  1  0.82274400  0.82274400  0.42725600  1
  Hf  Hf5  1  0.42725600  0.42725600  0.82274400  1
  Hf  Hf6  1  0.57274400  0.17725600  0.17725600  1
  Hf  Hf7  1  0.17725600  0.57274400  0.57274400  1
  Hf  Hf8  1  0.17725600  0.57274400  0.17725600  1
  Hf  Hf9  1  0.57274400  0.17725600  0.57274400  1
  Hf  Hf10  1  0.17725600  0.17725600  0.57274400  1
  Hf  Hf11  1  0.57274400  0.57274400  0.17725600  1
  Mn  Mn0  1  0.00000000  0.00000000  0.50000000  1
  Mn  Mn1  1  0.00000000  0.50000000  0.00000000  1
  Mn  Mn2  1  0.50000000  0.00000000  0.00000000  1
  Mn  Mn3  1  0.00000000  0.00000000  0.00000000  1
  Mn  Mn4  1  0.20221200  0.20221200  0.89336300  1
  Mn  Mn5  1  0.20221200  0.89336300  0.20221200  1
  Mn  Mn6  1  0.89336300  0.20221200  0.20221200  1
  Mn  Mn7  1  0.20221200  0.20221200  0.20221200  1
  Mn  Mn8  1  0.79778800  0.79778800  0.10663700  1
  Mn  Mn9  1  0.79778800  0.10663700  0.79778800  1
  Mn  Mn10  1  0.10663700  0.79778800  0.79778800  1
  Mn  Mn11  1  0.79778800  0.79778800  0.79778800  1
loop_
_geom_bond_atom_site_label_1
_geom_bond_atom_site_label_2
_geom_bond_distance
_geom_bond_site_symmetry_2
Hf0 Mn10 2.856056 1_555
Hf0 Mn11 2.856064 1_555
Hf0 Mn5 2.908456 1_556
Hf0 Mn4 2.908456 1_565
Hf0 Mn2 2.910817 1_566
Hf0 Mn3 2.910817 1_566
Hf0 Hf8 3.031219 1_556
Hf0 Hf10 3.031219 1_565
Hf0 Hf11 3.031219 1_556
Hf0 Hf9 3.031219 1_565
Hf0 Hf5 3.251655 1_555
Hf0 Hf3 3.251655 1_555
Hf0 Hf2 3.251655 1_555
Hf0 Hf4 3.251655 1_555
Hf1 Mn9 2.856060 1_555
Hf1 Mn8 2.856060 1_555
Hf1 Mn7 2.908459 1_655
Hf1 Mn6 2.908463 1_555
Hf1 Mn1 2.910817 1_655
Hf1 Mn0 2.910817 1_655
Hf1 Hf11 3.031219 1_555
Hf1 Hf8 3.031219 1_655
Hf1 Hf9 3.031219 1_555
Hf1 Hf10 3.031219 1_655
Hf1 Hf5 3.251655 1_555
Hf1 Hf3 3.251655 1_555
Hf1 Hf2 3.251655 1_555
Hf1 Hf4 3.251655 1_555
Hf2 Mn9 2.856056 1_555
Hf2 Mn11 2.856064 1_555
Hf2 Mn6 2.908456 1_556
Hf2 Mn4 2.908456 1_655
Hf2 Mn1 2.910817 1_656
Hf2 Mn3 2.910817 1_656
Hf2 Hf7 3.031219 1_655
Hf2 Hf6 3.031219 1_556
Hf2 Hf5 3.251655 1_555
Hf2 Hf4 3.251655 1_555
Hf3 Mn10 2.856060 1_555
Hf3 Mn8 2.856060 1_555
Hf3 Mn7 2.908459 1_565
Hf3 Mn5 2.908463 1_555
Hf3 Mn0 2.910817 1_565
Hf3 Mn2 2.910817 1_565
Hf3 Hf7 3.031219 1_555
Hf3 Hf6 3.031219 1_565
Hf3 Hf5 3.251655 1_555
Hf3 Hf4 3.251655 1_555
Hf4 Mn8 2.856056 1_555
Hf4 Mn11 2.856064 1_555
Hf4 Mn6 2.908456 1_565
Hf4 Mn5 2.908456 1_655
Hf4 Mn0 2.910817 1_665
Hf4 Mn3 2.910817 1_665
Hf4 Hf8 3.031219 1_655
Hf4 Hf6 3.031219 1_565
Hf4 Hf9 3.031219 1_565
Hf4 Hf7 3.031219 1_655
Hf5 Mn10 2.856060 1_555
Hf5 Mn9 2.856060 1_555
Hf5 Mn7 2.908459 1_556
Hf5 Mn4 2.908463 1_555
Hf5 Mn2 2.910817 1_556
Hf5 Mn1 2.910817 1_556
Hf5 Hf7 3.031219 1_555
Hf5 Hf9 3.031219 1_555
Hf5 Hf6 3.031219 1_556
Hf5 Hf8 3.031219 1_556
Hf6 Mn6 2.856056 1_555
Hf6 Mn7 2.856064 1_555
Hf6 Mn9 2.908456 1_554
Hf6 Mn8 2.908456 1_545
Hf6 Mn3 2.910817 1_655
Hf6 Mn2 2.910817 1_555
Hf6 Hf9 3.251655 1_555
Hf6 Hf8 3.251655 1_555
Hf7 Mn5 2.856060 1_555
Hf7 Mn4 2.856060 1_555
Hf7 Mn11 2.908459 1_455
Hf7 Mn10 2.908463 1_555
Hf7 Mn1 2.910817 1_556
Hf7 Mn0 2.910817 1_565
Hf7 Hf9 3.251655 1_555
Hf7 Hf8 3.251655 1_555
Hf8 Mn5 2.856056 1_555
Hf8 Mn7 2.856064 1_555
Hf8 Mn10 2.908456 1_554
Hf8 Mn8 2.908456 1_455
Hf8 Mn3 2.910817 1_565
Hf8 Mn1 2.910817 1_555
Hf9 Mn6 2.856060 1_555
Hf9 Mn4 2.856060 1_555
Hf9 Mn11 2.908459 1_545
Hf9 Mn9 2.908463 1_555
Hf9 Mn0 2.910817 1_655
Hf9 Mn2 2.910817 1_556
Hf10 Mn4 2.856056 1_555
Hf10 Mn7 2.856064 1_555
Hf10 Mn10 2.908456 1_545
Hf10 Mn9 2.908456 1_455
Hf10 Mn0 2.910817 1_555
Hf10 Mn3 2.910817 1_556
Hf10 Hf3 3.031219 1_545
Hf10 Hf2 3.031219 1_455
Hf10 Hf9 3.251655 1_555
Hf10 Hf7 3.251655 1_555
Hf10 Hf6 3.251655 1_555
Hf10 Hf8 3.251655 1_555
Hf11 Mn5 2.856060 1_555
Hf11 Mn6 2.856060 1_555
Hf11 Mn11 2.908459 1_554
Hf11 Mn8 2.908463 1_555
Hf11 Mn1 2.910817 1_655
Hf11 Mn2 2.910817 1_565
Hf11 Hf2 3.031219 1_554
Hf11 Hf3 3.031219 1_555
Hf11 Hf6 3.251655 1_555
Hf11 Hf9 3.251655 1_555
Hf11 Hf7 3.251655 1_555
Hf11 Hf8 3.251655 1_555
Mn0 Mn11 2.479060 1_445
Mn0 Mn7 2.479060 1_555
Mn0 Mn6 2.479064 1_455
Mn0 Mn5 2.479064 1_545
Mn0 Mn9 2.479064 1_455
Mn0 Mn10 2.479064 1_545
Mn1 Mn11 2.479060 1_454
Mn1 Mn7 2.479060 1_555
Mn1 Mn4 2.479064 1_554
Mn1 Mn6 2.479064 1_455
Mn1 Mn8 2.479064 1_455
Mn1 Mn10 2.479064 1_554
Mn2 Mn7 2.479060 1_555
Mn2 Mn4 2.479064 1_554
Mn2 Mn5 2.479064 1_545
Mn2 Mn9 2.479064 1_554
Mn2 Mn8 2.479064 1_545
Mn3 Mn8 2.479057 1_445
Mn3 Mn9 2.479057 1_454
Mn3 Mn4 2.479057 1_554
Mn3 Mn5 2.479057 1_545
Mn3 Mn6 2.479057 1_455
Mn4 Mn7 2.539320 1_556
Mn4 Mn5 2.539320 1_546
Mn4 Mn6 2.539320 1_456
Mn5 Mn6 2.539320 1_465
Mn5 Mn7 2.539320 1_565
Mn6 Mn7 2.539320 1_655
Mn8 Mn9 2.539320 1_564
Mn10 Mn3 2.479057 1_566
Mn10 Mn11 2.539320 1_455
Mn10 Mn8 2.539320 1_456
Mn10 Mn9 2.539320 1_465
Mn11 Mn2 2.479060 1_566
Mn11 Mn9 2.539320 1_565
Mn11 Mn8 2.539320 1_556
