# generated using pymatgen
data_Li4ZnCd3
_symmetry_space_group_name_H-M   'P 1'
_cell_length_a   8.00538885
_cell_length_b   8.00538885
_cell_length_c   8.00538861
_cell_angle_alpha   33.49680796
_cell_angle_beta   33.49680796
_cell_angle_gamma   33.49680325
_symmetry_Int_Tables_number   1
_chemical_formula_structural   Li4ZnCd3
_chemical_formula_sum   'Li4 Zn1 Cd3'
_cell_volume   139.17232494
_cell_formula_units_Z   1
loop_
 _symmetry_equiv_pos_site_id
 _symmetry_equiv_pos_as_xyz
  1  'x, y, z'
loop_
 _atom_site_type_symbol
 _atom_site_label
 _atom_site_symmetry_multiplicity
 _atom_site_fract_x
 _atom_site_fract_y
 _atom_site_fract_z
 _atom_site_occupancy
  Li  Li0  1  0.12560018  0.12560018  0.12560018  1
  Li  Li1  1  0.62422600  0.62422600  0.62422600  1
  Li  Li2  1  0.00302606  0.00302606  0.00302606  1
  Li  Li3  1  0.49625530  0.49625530  0.49625530  1
  Zn  Zn0  1  0.37563543  0.37563543  0.37563543  1
  Cd  Cd0  1  0.87422633  0.87422633  0.87422633  1
  Cd  Cd1  1  0.74629888  0.74629888  0.74629888  1
  Cd  Cd2  1  0.25473182  0.25473182  0.25473182  1
loop_
_geom_bond_atom_site_label_1
_geom_bond_atom_site_label_2
_geom_bond_distance
_geom_bond_site_symmetry_2
Li0 Li2 2.776011 1_555
Li1 Li2 2.855886 1_566
Li1 Li2 2.855886 1_656
Li1 Li2 2.855886 1_665
Li2 Zn0 2.808380 1_455
Li2 Zn0 2.808380 1_545
Li2 Zn0 2.808381 1_554
Li3 Zn0 2.731752 1_555
Cd0 Li3 2.849170 1_565
Cd0 Li3 2.849170 1_655
Cd0 Li3 2.849170 1_556
Cd0 Cd2 2.870038 1_566
Cd0 Cd2 2.870038 1_656
Cd0 Cd2 2.870038 1_665
Cd0 Cd1 2.897251 1_555
Cd0 Li2 2.917006 1_666
Cd1 Li1 2.764659 1_555
Cd1 Zn0 2.794734 1_655
Cd1 Zn0 2.794734 1_565
Cd1 Zn0 2.794735 1_556
Cd1 Li0 2.859998 1_656
Cd1 Li0 2.859998 1_566
Cd1 Li0 2.859999 1_665
Cd1 Li2 3.178964 1_656
Cd1 Li2 3.178964 1_566
Cd1 Li2 3.178964 1_665
Cd1 Li3 3.264040 1_565
Cd1 Li3 3.264040 1_655
Cd1 Li3 3.264040 1_556
Cd2 Zn0 2.738178 1_555
Cd2 Li1 2.786838 1_545
Cd2 Li1 2.786838 1_455
Cd2 Li1 2.786838 1_554
Cd2 Li0 2.924523 1_555
Cd2 Li2 3.242430 1_565
Cd2 Li2 3.242430 1_655
Cd2 Li2 3.242430 1_556
Cd2 Li3 3.379224 1_455
Cd2 Li3 3.379224 1_545
Cd2 Li3 3.379224 1_554
