# generated using pymatgen
data_KMgAs
_symmetry_space_group_name_H-M   'P 1'
_cell_length_a   4.55263303
_cell_length_b   4.55263303
_cell_length_c   7.73356801
_cell_angle_alpha   90.00000000
_cell_angle_beta   90.00000000
_cell_angle_gamma   90.00000000
_symmetry_Int_Tables_number   1
_chemical_formula_structural   KMgAs
_chemical_formula_sum   'K2 Mg2 As2'
_cell_volume   160.28954606
_cell_formula_units_Z   2
loop_
 _symmetry_equiv_pos_site_id
 _symmetry_equiv_pos_as_xyz
  1  'x, y, z'
loop_
 _atom_site_type_symbol
 _atom_site_label
 _atom_site_symmetry_multiplicity
 _atom_site_fract_x
 _atom_site_fract_y
 _atom_site_fract_z
 _atom_site_occupancy
  K  K0  1  0.75000000  0.75000000  0.35720564  1
  K  K1  1  0.25000000  0.25000000  0.64279436  1
  Mg  Mg0  1  0.75000000  0.25000000  0.00000000  1
  Mg  Mg1  1  0.25000000  0.75000000  0.00000000  1
  As  As0  1  0.75000000  0.75000000  0.80898436  1
  As  As1  1  0.25000000  0.25000000  0.19101564  1
loop_
_geom_bond_atom_site_label_1
_geom_bond_atom_site_label_2
_geom_bond_distance
_geom_bond_site_symmetry_2
As0 Mg0 2.713638 1_566
As0 Mg0 2.713638 1_556
As0 Mg1 2.713638 1_656
As0 Mg1 2.713638 1_556
As0 K1 3.466278 1_665
As0 K1 3.466278 1_555
As0 K1 3.466278 1_565
As0 K1 3.466278 1_655
As0 K0 3.493861 1_555
As1 Mg1 2.713638 1_555
As1 Mg0 2.713638 1_455
As1 Mg0 2.713638 1_555
As1 Mg1 2.713638 1_545
As1 K0 3.466278 1_455
As1 K0 3.466278 1_555
As1 K0 3.466278 1_545
As1 K0 3.466278 1_445
As1 K1 3.493861 1_555
