# generated using pymatgen
data_MgSiO3
_symmetry_space_group_name_H-M   'P 1'
_cell_length_a   8.90002800
_cell_length_b   5.35252100
_cell_length_c   18.64141193
_cell_angle_alpha   88.79596128
_cell_angle_beta   90.00000000
_cell_angle_gamma   90.00000000
_symmetry_Int_Tables_number   1
_chemical_formula_structural   MgSiO3
_chemical_formula_sum   'Mg16 Si16 O48'
_cell_volume   887.83580537
_cell_formula_units_Z   16
loop_
 _symmetry_equiv_pos_site_id
 _symmetry_equiv_pos_as_xyz
  1  'x, y, z'
loop_
 _atom_site_type_symbol
 _atom_site_label
 _atom_site_symmetry_multiplicity
 _atom_site_fract_x
 _atom_site_fract_y
 _atom_site_fract_z
 _atom_site_occupancy
  Mg  Mg0  1  0.39994700  0.25000000  0.00000000  1
  Mg  Mg1  1  0.60005300  0.75000000  0.00000000  1
  Mg  Mg2  1  0.24262400  0.75000000  0.00000000  1
  Mg  Mg3  1  0.75737600  0.25000000  0.00000000  1
  Mg  Mg4  1  0.90089300  0.27739900  0.24954000  1
  Mg  Mg5  1  0.90089300  0.22260100  0.75046000  1
  Mg  Mg6  1  0.09910700  0.72260100  0.75046000  1
  Mg  Mg7  1  0.09910700  0.77739900  0.24954000  1
  Mg  Mg8  1  0.25803300  0.27669800  0.25214700  1
  Mg  Mg9  1  0.25803300  0.22330200  0.74785300  1
  Mg  Mg10  1  0.74196700  0.72330200  0.74785300  1
  Mg  Mg11  1  0.74196700  0.77669800  0.25214700  1
  Mg  Mg12  1  0.59661800  0.75000000  0.50000000  1
  Mg  Mg13  1  0.40338200  0.25000000  0.50000000  1
  Mg  Mg14  1  0.23897200  0.75000000  0.50000000  1
  Mg  Mg15  1  0.76102800  0.25000000  0.50000000  1
  Si  Si0  1  0.91109900  0.54922900  0.89585100  1
  Si  Si1  1  0.91109900  0.95077100  0.10414900  1
  Si  Si2  1  0.08890100  0.45077100  0.10414900  1
  Si  Si3  1  0.08890100  0.04922900  0.89585100  1
  Si  Si4  1  0.41066400  0.59123300  0.85221500  1
  Si  Si5  1  0.41066400  0.90876700  0.14778500  1
  Si  Si6  1  0.58933600  0.40876700  0.14778500  1
  Si  Si7  1  0.58933600  0.09123300  0.85221500  1
  Si  Si8  1  0.90943700  0.57913900  0.39716600  1
  Si  Si9  1  0.90943700  0.92086100  0.60283400  1
  Si  Si10  1  0.09056300  0.42086100  0.60283400  1
  Si  Si11  1  0.09056300  0.07913900  0.39716600  1
  Si  Si12  1  0.58982000  0.08153500  0.35288400  1
  Si  Si13  1  0.58982000  0.41846500  0.64711600  1
  Si  Si14  1  0.41018000  0.91846500  0.64711600  1
  Si  Si15  1  0.41018000  0.58153500  0.35288400  1
  O  O0  1  0.90818200  0.55358800  0.80821600  1
  O  O1  1  0.90818200  0.94641200  0.19178400  1
  O  O2  1  0.09181800  0.44641200  0.19178400  1
  O  O3  1  0.09181800  0.05358800  0.80821600  1
  O  O4  1  0.75678100  0.57139100  0.93972800  1
  O  O5  1  0.75678100  0.92860900  0.06027200  1
  O  O6  1  0.24321900  0.42860900  0.06027200  1
  O  O7  1  0.24321900  0.07139100  0.93972800  1
  O  O8  1  0.03451700  0.76106800  0.92299400  1
  O  O9  1  0.03451700  0.73893200  0.07700600  1
  O  O10  1  0.96548300  0.23893200  0.07700600  1
  O  O11  1  0.96548300  0.26106800  0.92299400  1
  O  O12  1  0.40750800  0.58279100  0.94011200  1
  O  O13  1  0.40750800  0.91720900  0.05988800  1
  O  O14  1  0.59249200  0.41720900  0.05988800  1
  O  O15  1  0.59249200  0.08279100  0.94011200  1
  O  O16  1  0.25743700  0.52779400  0.80977100  1
  O  O17  1  0.25743700  0.97220600  0.19022900  1
  O  O18  1  0.74256300  0.47220600  0.19022900  1
  O  O19  1  0.74256300  0.02779400  0.80977100  1
  O  O20  1  0.53070400  0.37267700  0.82492700  1
  O  O21  1  0.53070400  0.12732300  0.17507300  1
  O  O22  1  0.46929600  0.62732300  0.17507300  1
  O  O23  1  0.46929600  0.87267700  0.82492700  1
  O  O24  1  0.90784400  0.59851200  0.30985100  1
  O  O25  1  0.90784400  0.90148800  0.69014900  1
  O  O26  1  0.09215600  0.40148800  0.69014900  1
  O  O27  1  0.09215600  0.09851200  0.30985100  1
  O  O28  1  0.75165400  0.57469400  0.43922200  1
  O  O29  1  0.75165400  0.92530600  0.56077800  1
  O  O30  1  0.24834600  0.42530600  0.56077800  1
  O  O31  1  0.24834600  0.07469400  0.43922200  1
  O  O32  1  0.97747600  0.30250800  0.42598000  1
  O  O33  1  0.97747600  0.19749200  0.57402000  1
  O  O34  1  0.02252400  0.69749200  0.57402000  1
  O  O35  1  0.02252400  0.80250800  0.42598000  1
  O  O36  1  0.59108800  0.08506500  0.44042100  1
  O  O37  1  0.59108800  0.41493500  0.55957900  1
  O  O38  1  0.40891200  0.91493500  0.55957900  1
  O  O39  1  0.40891200  0.58506500  0.44042100  1
  O  O40  1  0.74896500  0.09261100  0.31239500  1
  O  O41  1  0.74896500  0.40738900  0.68760500  1
  O  O42  1  0.25103500  0.90738900  0.68760500  1
  O  O43  1  0.25103500  0.59261100  0.31239500  1
  O  O44  1  0.52827700  0.80371700  0.32340000  1
  O  O45  1  0.52827700  0.69628300  0.67660000  1
  O  O46  1  0.47172300  0.19628300  0.67660000  1
  O  O47  1  0.47172300  0.30371700  0.32340000  1
loop_
_geom_bond_atom_site_label_1
_geom_bond_atom_site_label_2
_geom_bond_distance
_geom_bond_site_symmetry_2
Mg0 O6 2.041365 1_555
Mg0 O7 2.041365 1_554
Mg0 O13 2.083320 1_545
Mg0 O12 2.083320 1_554
Mg0 O14 2.241864 1_555
Mg0 O15 2.241864 1_554
Mg1 O4 2.041365 1_554
Mg1 O5 2.041365 1_555
Mg1 O14 2.083320 1_555
Mg1 O15 2.083320 1_564
Mg1 O13 2.241864 1_555
Mg1 O12 2.241864 1_554
Mg2 O7 2.034808 1_564
Mg2 O6 2.034808 1_555
Mg2 O13 2.059809 1_555
Mg2 O12 2.059809 1_554
Mg2 O9 2.343307 1_555
Mg2 O8 2.343307 1_554
Mg3 O4 2.034808 1_554
Mg3 O5 2.034808 1_545
Mg3 O14 2.059809 1_555
Mg3 O15 2.059809 1_554
Mg3 O11 2.343307 1_554
Mg3 O10 2.343307 1_555
Mg4 O40 2.032442 1_555
Mg4 O18 2.060804 1_555
Mg4 O24 2.074415 1_555
Mg4 O1 2.093364 1_545
Mg4 O2 2.196370 1_655
Mg4 O27 2.243482 1_655
Mg5 O41 2.032442 1_555
Mg5 O19 2.060804 1_555
Mg5 O25 2.074415 1_545
Mg5 O0 2.093364 1_555
Mg5 O3 2.196370 1_655
Mg5 O26 2.243482 1_655
Mg6 O42 2.032442 1_555
Mg6 O16 2.060804 1_555
Mg6 O26 2.074415 1_555
Mg6 O3 2.093364 1_565
Mg6 O0 2.196370 1_455
Mg6 O25 2.243482 1_455
Mg7 O43 2.032442 1_555
Mg7 O17 2.060804 1_555
Mg7 O27 2.074415 1_565
Mg7 O2 2.093364 1_555
Mg7 O1 2.196370 1_455
Mg7 O24 2.243482 1_455
Mg8 O17 2.016829 1_545
Mg8 O27 2.050146 1_555
Mg8 O43 2.050441 1_555
Mg8 O2 2.058349 1_555
Mg8 O47 2.326000 1_555
Mg9 O16 2.016829 1_555
Mg9 O26 2.050146 1_555
Mg9 O42 2.050441 1_545
Mg9 O3 2.058349 1_555
Mg9 O46 2.326000 1_555
Mg10 O19 2.016829 1_565
Mg10 O25 2.050146 1_555
Mg10 O41 2.050441 1_555
Mg10 O0 2.058349 1_555
Mg10 O45 2.326000 1_555
Mg11 O18 2.016829 1_555
Mg11 O24 2.050146 1_555
Mg11 O40 2.050441 1_565
Mg11 O1 2.058349 1_555
Mg11 O44 2.326000 1_555
Mg12 O29 2.027984 1_555
Mg12 O28 2.027984 1_555
Mg12 O36 2.090135 1_565
Mg12 O37 2.090135 1_555
Mg12 O39 2.201126 1_555
Mg12 O38 2.201126 1_555
Mg13 O31 2.027984 1_555
Mg13 O30 2.027984 1_555
Mg13 O39 2.090135 1_555
Mg13 O38 2.090135 1_545
Mg13 O36 2.201126 1_555
Mg13 O37 2.201126 1_555
Mg14 O31 2.056277 1_565
Mg14 O30 2.056277 1_555
Mg14 O39 2.083664 1_555
Mg14 O38 2.083664 1_555
Mg14 O35 2.382779 1_555
Mg14 O34 2.382779 1_555
Mg15 O29 2.056277 1_545
Mg15 O28 2.056277 1_555
Mg15 O36 2.083664 1_555
Mg15 O37 2.083664 1_555
Mg15 O33 2.382779 1_555
Mg15 O32 2.382779 1_555
O0 Si0 1.633523 1_555
O1 Si1 1.633523 1_555
O2 Si2 1.633523 1_555
O3 Si3 1.633523 1_555
O4 Si0 1.604207 1_555
O5 Si1 1.604207 1_555
O6 Si2 1.604207 1_555
O7 Si3 1.604207 1_555
O8 Si0 1.665032 1_455
O8 Si3 1.684178 1_565
O9 Si1 1.665032 1_455
O9 Si2 1.684178 1_555
O10 Si2 1.665032 1_655
O10 Si1 1.684178 1_545
O11 Si3 1.665032 1_655
O11 Si0 1.684178 1_555
O12 Si4 1.638439 1_555
O13 Si5 1.638439 1_555
O14 Si6 1.638439 1_555
O15 Si7 1.638439 1_555
O16 Si4 1.616279 1_555
O17 Si5 1.616279 1_555
O18 Si6 1.616279 1_555
O19 Si7 1.616279 1_555
O20 Si7 1.663793 1_555
O20 Si4 1.671423 1_555
O21 Si6 1.663793 1_555
O21 Si5 1.671423 1_545
O22 Si5 1.663793 1_555
O22 Si6 1.671423 1_555
O23 Si4 1.663793 1_555
O23 Si7 1.671423 1_565
O24 Si8 1.628860 1_555
O25 Si9 1.628860 1_555
O26 Si10 1.628860 1_555
O27 Si11 1.628860 1_555
O28 Si8 1.608227 1_555
O29 Si9 1.608227 1_555
O30 Si10 1.608227 1_555
O31 Si11 1.608227 1_555
O32 Si11 1.660701 1_655
O32 Si8 1.677549 1_555
O33 Si10 1.660701 1_655
O33 Si9 1.677549 1_545
O34 Si9 1.660701 1_455
O34 Si10 1.677549 1_555
O35 Si8 1.660701 1_455
O35 Si11 1.677549 1_565
O36 Si12 1.632359 1_555
O37 Si13 1.632359 1_555
O38 Si14 1.632359 1_555
O39 Si15 1.632359 1_555
O40 Si12 1.605456 1_555
O41 Si13 1.605456 1_555
O42 Si14 1.605456 1_555
O43 Si15 1.605456 1_555
O44 Si15 1.671417 1_555
O44 Si12 1.687512 1_565
O45 Si14 1.671417 1_555
O45 Si13 1.687512 1_555
O46 Si13 1.671417 1_555
O46 Si14 1.687512 1_545
O47 Si12 1.671417 1_555
O47 Si15 1.687512 1_555
