# generated using pymatgen
data_Zr5Sb3Se
_symmetry_space_group_name_H-M   'P 1'
_cell_length_a   8.55163394
_cell_length_b   8.55163394
_cell_length_c   6.13115802
_cell_angle_alpha   90.00000000
_cell_angle_beta   90.00000000
_cell_angle_gamma   119.99998100
_symmetry_Int_Tables_number   1
_chemical_formula_structural   Zr5Sb3Se
_chemical_formula_sum   'Zr10 Sb6 Se2'
_cell_volume   388.30361095
_cell_formula_units_Z   2
loop_
 _symmetry_equiv_pos_site_id
 _symmetry_equiv_pos_as_xyz
  1  'x, y, z'
loop_
 _atom_site_type_symbol
 _atom_site_label
 _atom_site_symmetry_multiplicity
 _atom_site_fract_x
 _atom_site_fract_y
 _atom_site_fract_z
 _atom_site_occupancy
  Zr  Zr0  1  0.73810430  0.73810430  0.25000000  1
  Zr  Zr1  1  0.26189570  0.00000000  0.25000000  1
  Zr  Zr2  1  0.00000000  0.26189570  0.25000000  1
  Zr  Zr3  1  0.26189570  0.26189570  0.75000000  1
  Zr  Zr4  1  0.73810430  -0.00000000  0.75000000  1
  Zr  Zr5  1  -0.00000000  0.73810430  0.75000000  1
  Zr  Zr6  1  0.66666700  0.33333300  0.50000000  1
  Zr  Zr7  1  0.33333300  0.66666700  0.50000000  1
  Zr  Zr8  1  0.33333300  0.66666700  -0.00000000  1
  Zr  Zr9  1  0.66666700  0.33333300  -0.00000000  1
  Sb  Sb0  1  0.39555459  0.39555459  0.25000000  1
  Sb  Sb1  1  0.60444541  -0.00000000  0.25000000  1
  Sb  Sb2  1  -0.00000000  0.60444541  0.25000000  1
  Sb  Sb3  1  0.60444541  0.60444541  0.75000000  1
  Sb  Sb4  1  0.39555459  0.00000000  0.75000000  1
  Sb  Sb5  1  0.00000000  0.39555459  0.75000000  1
  Se  Se0  1  0.00000000  0.00000000  0.50000000  1
  Se  Se1  1  0.00000000  0.00000000  -0.00000000  1
loop_
_geom_bond_atom_site_label_1
_geom_bond_atom_site_label_2
_geom_bond_distance
_geom_bond_site_symmetry_2
Sb0 Zr0 2.929361 1_555
Sb0 Zr2 2.980324 1_555
Sb0 Zr1 2.980324 1_555
Sb0 Zr6 3.039974 1_555
Sb0 Zr8 3.039974 1_555
Sb0 Zr9 3.039974 1_555
Sb0 Zr7 3.039974 1_555
Sb0 Zr3 3.271732 1_554
Sb0 Zr3 3.271732 1_555
Sb1 Zr1 2.929360 1_555
Sb1 Zr0 2.980324 1_545
Sb1 Zr2 2.980325 1_655
Sb1 Zr9 3.039967 1_555
Sb1 Zr6 3.039967 1_555
Sb1 Zr8 3.039970 1_545
Sb1 Zr7 3.039970 1_545
Sb1 Zr4 3.271732 1_555
Sb1 Zr4 3.271732 1_554
Sb2 Zr2 2.929360 1_555
Sb2 Zr0 2.980324 1_455
Sb2 Zr1 2.980325 1_565
Sb2 Zr7 3.039967 1_555
Sb2 Zr8 3.039967 1_555
Sb2 Zr9 3.039970 1_455
Sb2 Zr6 3.039970 1_455
Sb2 Zr5 3.271732 1_555
Sb2 Zr5 3.271732 1_554
Sb3 Zr3 2.929361 1_555
Sb3 Zr5 2.980324 1_655
Sb3 Zr4 2.980324 1_565
Sb3 Zr8 3.039974 1_556
Sb3 Zr7 3.039974 1_555
Sb3 Zr6 3.039974 1_555
Sb3 Zr9 3.039974 1_556
Sb3 Zr0 3.271732 1_555
Sb3 Zr0 3.271732 1_556
Sb4 Zr4 2.929360 1_555
Sb4 Zr3 2.980324 1_555
Sb4 Zr5 2.980325 1_545
Sb4 Zr7 3.039967 1_545
Sb4 Zr8 3.039967 1_546
Sb4 Zr6 3.039970 1_555
Sb4 Zr9 3.039970 1_556
Sb4 Zr1 3.271732 1_556
Sb4 Zr1 3.271732 1_555
Sb5 Zr5 2.929360 1_555
Sb5 Zr3 2.980324 1_555
Sb5 Zr4 2.980325 1_455
Sb5 Zr6 3.039967 1_455
Sb5 Zr9 3.039967 1_456
Sb5 Zr7 3.039970 1_555
Sb5 Zr8 3.039970 1_556
Sb5 Zr2 3.271732 1_556
Sb5 Zr2 3.271732 1_555
Se0 Zr2 2.713930 1_555
Se0 Zr1 2.713930 1_555
Se0 Zr5 2.713930 1_545
Se0 Zr4 2.713930 1_455
Se0 Zr3 2.713930 1_555
Se0 Zr0 2.713930 1_445
Se1 Zr2 2.713930 1_555
Se1 Zr1 2.713930 1_555
Se1 Zr4 2.713930 1_454
Se1 Zr5 2.713930 1_544
Se1 Zr3 2.713930 1_554
Se1 Zr0 2.713930 1_445
