# generated using pymatgen
data_Sr2LiCdWO6
_symmetry_space_group_name_H-M   'P 1'
_cell_length_a   6.20339187
_cell_length_b   6.66084126
_cell_length_c   5.44580960
_cell_angle_alpha   118.68084050
_cell_angle_beta   110.69599403
_cell_angle_gamma   103.96909355
_symmetry_Int_Tables_number   1
_chemical_formula_structural   Sr2LiCdWO6
_chemical_formula_sum   'Sr2 Li1 Cd1 W1 O6'
_cell_volume   159.84446810
_cell_formula_units_Z   1
loop_
 _symmetry_equiv_pos_site_id
 _symmetry_equiv_pos_as_xyz
  1  'x, y, z'
loop_
 _atom_site_type_symbol
 _atom_site_label
 _atom_site_symmetry_multiplicity
 _atom_site_fract_x
 _atom_site_fract_y
 _atom_site_fract_z
 _atom_site_occupancy
  Sr  Sr0  1  0.71778600  0.27691500  0.45911100  1
  Sr  Sr1  1  0.28221400  0.72308500  0.54088900  1
  Li  Li0  1  0.00000000  0.00000000  0.50000000  1
  Cd  Cd0  1  0.50000000  0.50000000  0.00000000  1
  W  W0  1  0.00000000  0.00000000  0.00000000  1
  O  O0  1  0.68695900  0.85066500  0.03669500  1
  O  O1  1  0.16616800  0.83873100  0.15664300  1
  O  O2  1  0.83383100  0.16126900  0.84335700  1
  O  O3  1  0.31304100  0.14933500  0.96330500  1
  O  O4  1  0.15267100  0.31325600  0.49393400  1
  O  O5  1  0.84732900  0.68674400  0.50606600  1
loop_
_geom_bond_atom_site_label_1
_geom_bond_atom_site_label_2
_geom_bond_distance
_geom_bond_site_symmetry_2
Li0 O3 2.078868 1_555
Li0 O0 2.078868 1_445
Li0 O5 2.094264 1_445
Li0 O4 2.094264 1_555
Li0 O1 2.383653 1_545
Li0 O2 2.383659 1_455
Cd0 O0 2.218317 1_555
Cd0 O3 2.218317 1_554
Cd0 O4 2.236816 1_554
Cd0 O5 2.236816 1_555
O0 W0 2.081561 1_665
O0 Sr1 2.508451 1_554
O0 Sr0 2.558751 1_565
O1 W0 1.933067 1_565
O1 Sr1 2.498087 1_555
O2 W0 1.933070 1_656
O2 Sr0 2.498087 1_555
O3 W0 2.081561 1_556
O3 Sr0 2.508451 1_556
O3 Sr1 2.558751 1_545
O4 W0 2.084247 1_555
O4 Sr1 2.507717 1_555
O4 Sr0 2.579055 1_455
O5 W0 2.084247 1_666
O5 Sr0 2.507717 1_555
O5 Sr1 2.579055 1_655
