# generated using pymatgen
data_Hf20Co5P11
_symmetry_space_group_name_H-M   'P 1'
_cell_length_a   3.59415200
_cell_length_b   10.22463300
_cell_length_c   17.08082264
_cell_angle_alpha   89.74239858
_cell_angle_beta   90.00000000
_cell_angle_gamma   90.00000000
_symmetry_Int_Tables_number   1
_chemical_formula_structural   Hf20Co5P11
_chemical_formula_sum   'Hf20 Co5 P11'
_cell_volume   627.69484507
_cell_formula_units_Z   1
loop_
 _symmetry_equiv_pos_site_id
 _symmetry_equiv_pos_as_xyz
  1  'x, y, z'
loop_
 _atom_site_type_symbol
 _atom_site_label
 _atom_site_symmetry_multiplicity
 _atom_site_fract_x
 _atom_site_fract_y
 _atom_site_fract_z
 _atom_site_occupancy
  Hf  Hf0  1  0.00000000  0.01454500  0.22872700  1
  Hf  Hf1  1  0.00000000  0.48733600  0.72786300  1
  Hf  Hf2  1  0.50000000  0.98784200  0.77224700  1
  Hf  Hf3  1  0.50000000  0.51216100  0.26762200  1
  Hf  Hf4  1  0.00000000  0.38019900  0.02720300  1
  Hf  Hf5  1  0.00000000  0.12150700  0.52349900  1
  Hf  Hf6  1  0.50000000  0.62107700  0.97800400  1
  Hf  Hf7  1  0.50000000  0.87853800  0.47683400  1
  Hf  Hf8  1  0.00000000  0.74567500  0.33209700  1
  Hf  Hf9  1  0.00000000  0.75367000  0.83188100  1
  Hf  Hf10  1  0.50000000  0.25300200  0.66801100  1
  Hf  Hf11  1  0.50000000  0.25031200  0.16836600  1
  Hf  Hf12  1  0.00000000  0.44077800  0.42307400  1
  Hf  Hf13  1  0.00000000  0.06059700  0.92355600  1
  Hf  Hf14  1  0.50000000  0.56081800  0.57604000  1
  Hf  Hf15  1  0.50000000  0.94019300  0.07630600  1
  Hf  Hf16  1  0.00000000  0.67846400  0.13235200  1
  Hf  Hf17  1  0.00000000  0.81534900  0.63160300  1
  Hf  Hf18  1  0.50000000  0.31499700  0.86755300  1
  Hf  Hf19  1  0.50000000  0.18360000  0.36888300  1
  Co  Co0  1  0.00000000  0.13294500  0.08785500  1
  Co  Co1  1  0.00000000  0.36631100  0.58818700  1
  Co  Co2  1  0.50000000  0.86491400  0.91115100  1
  Co  Co3  1  0.50000000  0.63296000  0.41364100  1
  Co  Co4  1  0.50000000  0.49666900  0.11351000  1
  P  P0  1  0.00000000  0.68912900  0.49055900  1
  P  P1  1  0.00000000  0.81222200  0.99088500  1
  P  P2  1  0.50000000  0.31187100  0.50916300  1
  P  P3  1  0.50000000  0.18710700  0.00778500  1
  P  P4  1  0.00000000  0.31275400  0.28331200  1
  P  P5  1  0.00000000  0.18563700  0.78216900  1
  P  P6  1  0.50000000  0.68530000  0.71771800  1
  P  P7  1  0.50000000  0.81801800  0.21822000  1
  P  P8  1  0.00000000  0.99385300  0.38437600  1
  P  P9  1  0.00000000  0.50413100  0.88383000  1
  P  P10  1  0.50000000  0.00551700  0.61592000  1
loop_
_geom_bond_atom_site_label_1
_geom_bond_atom_site_label_2
_geom_bond_distance
_geom_bond_site_symmetry_2
Hf0 P8 2.666069 1_545
Hf0 P7 2.702349 1_545
Hf0 P7 2.702349 1_445
Hf0 P4 3.192448 1_555
Hf1 P9 2.670344 1_555
Hf1 P6 2.711711 1_555
Hf1 P6 2.711711 1_455
Hf1 P5 3.217211 1_555
Hf2 P10 2.675492 1_565
Hf2 P5 2.711330 1_665
Hf2 P5 2.711330 1_565
Hf2 P6 3.234566 1_555
Hf3 P4 2.730083 1_555
Hf3 P4 2.730083 1_655
Hf3 P7 3.235455 1_555
Hf4 P3 2.691323 1_555
Hf4 P3 2.691323 1_455
Hf4 P9 2.752279 1_554
Hf5 P2 2.659631 1_555
Hf5 P2 2.659631 1_455
Hf5 P10 2.666683 1_455
Hf5 P10 2.666683 1_555
Hf5 P8 2.716330 1_545
Hf6 P1 2.664843 1_655
Hf6 P1 2.664843 1_555
Hf6 P9 2.695189 1_555
Hf6 P9 2.695189 1_655
Hf7 P0 2.651589 1_555
Hf7 P0 2.651589 1_655
Hf7 P8 2.664013 1_555
Hf7 P8 2.664013 1_655
Hf7 P10 2.712438 1_565
Hf8 P8 2.693849 1_555
Hf8 P7 2.747205 1_555
Hf8 P7 2.747205 1_455
Hf8 P0 2.765179 1_555
Hf9 P9 2.697567 1_555
Hf9 P6 2.744615 1_555
Hf9 P6 2.744615 1_455
Hf9 P1 2.783747 1_555
Hf10 P10 2.686086 1_555
Hf10 P5 2.737514 1_555
Hf10 P5 2.737514 1_655
Hf10 P2 2.776574 1_555
Hf11 P4 2.739197 1_655
Hf11 P4 2.739197 1_555
Hf11 P3 2.820786 1_555
Hf12 P2 2.666746 1_555
Hf12 P2 2.666746 1_455
Hf12 P4 2.727735 1_555
Hf12 P0 2.793397 1_555
Hf13 P3 2.643722 1_456
Hf13 P3 2.643722 1_556
Hf13 P5 2.727457 1_555
Hf13 P1 2.783091 1_545
Hf14 P0 2.658059 1_655
Hf14 P0 2.658059 1_555
Hf14 P6 2.739336 1_555
Hf14 P2 2.794646 1_555
Hf15 P1 2.662248 1_554
Hf15 P1 2.662248 1_654
Hf15 P7 2.721961 1_555
Hf15 P3 2.777928 1_565
Hf16 P7 2.726813 1_555
Hf16 P7 2.726813 1_455
Hf16 P1 2.771199 1_554
Hf17 P10 2.660308 1_565
Hf17 P10 2.660308 1_465
Hf17 P6 2.672751 1_555
Hf17 P6 2.672751 1_455
Hf17 P0 2.738152 1_555
Hf18 P9 2.655428 1_655
Hf18 P9 2.655428 1_555
Hf18 P5 2.668945 1_655
Hf18 P5 2.668945 1_555
Hf18 P3 2.723800 1_556
Hf19 P8 2.656851 1_645
Hf19 P8 2.656851 1_545
Hf19 P4 2.663142 1_655
Hf19 P4 2.663142 1_555
Hf19 P2 2.736720 1_555
Co0 P3 2.323758 1_455
Co0 P3 2.323758 1_555
Co0 Hf11 2.564286 1_555
Co0 Hf11 2.564286 1_455
Co0 Hf15 2.675073 1_545
Co0 Hf15 2.675073 1_445
Co0 Hf0 2.688716 1_555
Co0 Hf4 2.727804 1_555
Co0 Hf13 2.905433 1_554
Co1 P2 2.316899 1_555
Co1 P2 2.316899 1_455
Co1 Hf10 2.533085 1_455
Co1 Hf10 2.533085 1_555
Co1 Hf14 2.687749 1_455
Co1 Hf14 2.687749 1_555
Co1 Hf1 2.692535 1_555
Co1 Hf5 2.740600 1_555
Co1 Hf12 2.917930 1_555
Co2 P1 2.316889 1_555
Co2 P1 2.316889 1_655
Co2 Hf9 2.523962 1_655
Co2 Hf9 2.523962 1_555
Co2 Hf2 2.679957 1_555
Co2 Hf13 2.698396 1_565
Co2 Hf13 2.698396 1_665
Co2 Hf6 2.737538 1_555
Co2 Hf15 2.927441 1_556
Co3 P0 2.300484 1_555
Co3 P0 2.300484 1_655
Co3 Hf8 2.546219 1_555
Co3 Hf8 2.546219 1_655
Co3 Hf12 2.667168 1_555
Co3 Hf12 2.667168 1_655
Co3 Hf7 2.737571 1_555
Co3 Hf3 2.788170 1_555
Co3 Hf14 2.867100 1_555
Co4 Hf16 2.606440 1_555
Co4 Hf16 2.606440 1_655
Co4 Hf4 2.614703 1_655
Co4 Hf4 2.614703 1_555
Co4 Hf6 2.636046 1_554
Co4 Hf3 2.637832 1_555
Co4 Hf11 2.683585 1_555
