# generated using pymatgen
data_Pr5Si2Ge
_symmetry_space_group_name_H-M   'P 1'
_cell_length_a   7.90005500
_cell_length_b   8.99013376
_cell_length_c   7.90005500
_cell_angle_alpha   116.06392521
_cell_angle_beta   90.00000000
_cell_angle_gamma   116.06392521
_symmetry_Int_Tables_number   1
_chemical_formula_structural   Pr5Si2Ge
_chemical_formula_sum   'Pr10 Si4 Ge2'
_cell_volume   439.61829178
_cell_formula_units_Z   2
loop_
 _symmetry_equiv_pos_site_id
 _symmetry_equiv_pos_as_xyz
  1  'x, y, z'
loop_
 _atom_site_type_symbol
 _atom_site_label
 _atom_site_symmetry_multiplicity
 _atom_site_fract_x
 _atom_site_fract_y
 _atom_site_fract_z
 _atom_site_occupancy
  Pr  Pr0  1  0.00000000  0.00000000  0.00000000  1
  Pr  Pr1  1  0.50000000  0.00000000  0.50000000  1
  Pr  Pr2  1  0.53079600  0.70946500  0.67867000  1
  Pr  Pr3  1  0.17867000  0.70946500  0.03079600  1
  Pr  Pr4  1  0.67867000  0.70946500  0.17867000  1
  Pr  Pr5  1  0.03079600  0.70946500  0.53079600  1
  Pr  Pr6  1  0.46920400  0.29053500  0.32133000  1
  Pr  Pr7  1  0.82133000  0.29053500  0.96920400  1
  Pr  Pr8  1  0.32133000  0.29053500  0.82133000  1
  Pr  Pr9  1  0.96920400  0.29053500  0.46920400  1
  Si  Si0  1  0.88517700  0.00000000  0.61482300  1
  Si  Si1  1  0.11482300  0.00000000  0.38517700  1
  Si  Si2  1  0.61482300  0.00000000  0.11482300  1
  Si  Si3  1  0.38517700  0.00000000  0.88517700  1
  Ge  Ge0  1  0.75000000  0.50000000  0.75000000  1
  Ge  Ge1  1  0.25000000  0.50000000  0.25000000  1
loop_
_geom_bond_atom_site_label_1
_geom_bond_atom_site_label_2
_geom_bond_distance
_geom_bond_site_symmetry_2
Pr0 Si1 3.175249 1_555
Pr0 Si2 3.175249 1_455
Pr0 Si3 3.175249 1_554
Pr0 Si0 3.175249 1_454
Pr1 Si3 3.175249 1_555
Pr1 Si1 3.175249 1_555
Pr1 Si0 3.175249 1_555
Pr1 Si2 3.175249 1_555
Pr2 Si0 3.105880 1_565
Pr2 Si2 3.114984 1_566
Pr2 Si3 3.114989 1_565
Pr3 Si1 3.105880 1_565
Pr3 Si2 3.114984 1_565
Pr3 Si3 3.114989 1_564
Pr4 Si2 3.105885 1_565
Pr4 Si1 3.114983 1_665
Pr4 Si0 3.114983 1_565
Pr5 Si3 3.105876 1_565
Pr5 Si1 3.114990 1_565
Pr5 Si0 3.114990 1_465
Pr6 Si1 3.105880 1_555
Pr6 Si3 3.114984 1_554
Pr6 Si2 3.114989 1_555
Pr7 Si0 3.105880 1_555
Pr7 Si3 3.114984 1_555
Pr7 Si2 3.114989 1_556
Pr8 Si3 3.105885 1_555
Pr8 Si0 3.114983 1_455
Pr8 Si1 3.114983 1_555
Pr9 Si2 3.105876 1_555
Pr9 Si1 3.114990 1_655
Pr9 Si0 3.114990 1_555
Si0 Si1 2.565689 1_655
Si2 Si3 2.565689 1_554
Ge0 Pr7 3.265068 1_555
Ge0 Pr2 3.265068 1_555
Ge0 Pr5 3.265071 1_655
Ge0 Pr9 3.265071 1_555
Ge0 Pr8 3.265074 1_555
Ge0 Pr4 3.265074 1_556
Ge0 Pr3 3.265077 1_656
Ge0 Pr6 3.265077 1_555
Ge0 Pr0 3.521969 1_666
Ge0 Pr1 3.521969 1_555
Ge1 Pr6 3.265068 1_555
Ge1 Pr3 3.265068 1_555
Ge1 Pr9 3.265071 1_455
Ge1 Pr5 3.265071 1_555
Ge1 Pr8 3.265074 1_554
Ge1 Pr4 3.265074 1_555
Ge1 Pr2 3.265077 1_555
Ge1 Pr7 3.265077 1_454
Ge1 Pr0 3.521969 1_555
Ge1 Pr1 3.521969 1_565
