# generated using pymatgen
data_Na3U6TiF30
_symmetry_space_group_name_H-M   'P 1'
_cell_length_a   9.87454197
_cell_length_b   9.87454882
_cell_length_c   12.94487643
_cell_angle_alpha   89.99903363
_cell_angle_beta   90.00039818
_cell_angle_gamma   120.00027869
_symmetry_Int_Tables_number   1
_chemical_formula_structural   Na3U6TiF30
_chemical_formula_sum   'Na6 U12 Ti2 F60'
_cell_volume   1093.10414839
_cell_formula_units_Z   2
loop_
 _symmetry_equiv_pos_site_id
 _symmetry_equiv_pos_as_xyz
  1  'x, y, z'
loop_
 _atom_site_type_symbol
 _atom_site_label
 _atom_site_symmetry_multiplicity
 _atom_site_fract_x
 _atom_site_fract_y
 _atom_site_fract_z
 _atom_site_occupancy
  Na  Na0  1  0.66666818  0.33332996  0.66249236  1
  Na  Na1  1  0.66667943  0.33334486  0.16248436  1
  Na  Na2  1  0.33333230  0.66665631  0.33751342  1
  Na  Na3  1  0.33333634  0.66666997  0.83751665  1
  Na  Na4  1  0.99999569  0.00001180  0.49998656  1
  Na  Na5  1  0.99998465  0.99998998  0.00001190  1
  U  U0  1  0.07550663  0.67327874  0.60133301  1
  U  U1  1  0.59779180  0.92449484  0.60133176  1
  U  U2  1  0.32670298  0.40222671  0.60132582  1
  U  U3  1  0.07551192  0.40221093  0.10133914  1
  U  U4  1  0.32669726  0.92447745  0.10133535  1
  U  U5  1  0.59780177  0.67332161  0.10133879  1
  U  U6  1  0.92447683  0.32668322  0.39865857  1
  U  U7  1  0.40222316  0.07552374  0.39866069  1
  U  U8  1  0.67330918  0.59779335  0.39865428  1
  U  U9  1  0.92447952  0.59777366  0.89867734  1
  U  U10  1  0.67329100  0.07550488  0.89867023  1
  U  U11  1  0.40223455  0.32672049  0.89867324  1
  Ti  Ti0  1  0.99999350  0.99999373  0.75000588  1
  Ti  Ti1  1  0.99998147  0.99999851  0.25000364  1
  F  F0  1  0.86772242  0.56510158  0.71622668  1
  F  F1  1  0.69738461  0.13225807  0.71620761  1
  F  F2  1  0.43488943  0.30262328  0.71620175  1
  F  F3  1  0.86774328  0.30260799  0.21621408  1
  F  F4  1  0.43487305  0.13225909  0.21620191  1
  F  F5  1  0.69739056  0.56514377  0.21619314  1
  F  F6  1  0.13223669  0.43484745  0.28380970  1
  F  F7  1  0.30261783  0.86774290  0.28379442  1
  F  F8  1  0.56513724  0.69738284  0.28378629  1
  F  F9  1  0.13224312  0.69736704  0.78381186  1
  F  F10  1  0.56513505  0.86774490  0.78379286  1
  F  F11  1  0.30261647  0.43489223  0.78379226  1
  F  F12  1  0.88608876  0.69381938  0.51849053  1
  F  F13  1  0.80772453  0.11389790  0.51848890  1
  F  F14  1  0.30616973  0.19228301  0.51849474  1
  F  F15  1  0.88610412  0.19227104  0.01849518  1
  F  F16  1  0.30616850  0.11388465  0.01850671  1
  F  F17  1  0.80770915  0.69382278  0.01849829  1
  F  F18  1  0.11386636  0.30616532  0.48149058  1
  F  F19  1  0.19227969  0.88611898  0.48149627  1
  F  F20  1  0.69383183  0.80773129  0.48150076  1
  F  F21  1  0.11387036  0.80770478  0.98149885  1
  F  F22  1  0.69383461  0.88610012  0.98150589  1
  F  F23  1  0.19226572  0.30617309  0.98150459  1
  F  F24  1  0.12151711  0.58797524  0.44826268  1
  F  F25  1  0.46649964  0.87847328  0.44827995  1
  F  F26  1  0.41199000  0.53352638  0.44826710  1
  F  F27  1  0.12149817  0.53351262  0.94826201  1
  F  F28  1  0.41201007  0.87848421  0.94826372  1
  F  F29  1  0.46650626  0.58803028  0.94827585  1
  F  F30  1  0.87846793  0.41196514  0.55172221  1
  F  F31  1  0.53353755  0.12152720  0.55173878  1
  F  F32  1  0.58800765  0.46648853  0.55173270  1
  F  F33  1  0.87845432  0.46647633  0.05172049  1
  F  F34  1  0.58802734  0.12153841  0.05172319  1
  F  F35  1  0.53354995  0.41202270  0.05173687  1
  F  F36  1  0.07971619  0.89807491  0.66213454  1
  F  F37  1  0.81833979  0.92028178  0.66212744  1
  F  F38  1  0.10191341  0.18164575  0.66212662  1
  F  F39  1  0.07968342  0.18158478  0.16215630  1
  F  F40  1  0.10187664  0.92029969  0.16214374  1
  F  F41  1  0.81839582  0.89809325  0.16214568  1
  F  F42  1  0.92029965  0.10191346  0.33784852  1
  F  F43  1  0.18158548  0.07970993  0.33784303  1
  F  F44  1  0.89809006  0.81840697  0.33783770  1
  F  F45  1  0.92026480  0.81833741  0.83788342  1
  F  F46  1  0.89806535  0.07972358  0.83787824  1
  F  F47  1  0.18163546  0.10191510  0.83787240  1
  F  F48  1  0.33862244  0.82705969  0.63657083  1
  F  F49  1  0.48847012  0.66142509  0.63656588  1
  F  F50  1  0.17294269  0.51152997  0.63656634  1
  F  F51  1  0.33861217  0.51154671  0.13656096  1
  F  F52  1  0.17293799  0.66140266  0.13655773  1
  F  F53  1  0.48847986  0.82704812  0.13655249  1
  F  F54  1  0.66143668  0.17295878  0.36344523  1
  F  F55  1  0.51154871  0.33860406  0.36343611  1
  F  F56  1  0.82705815  0.48844581  0.36343557  1
  F  F57  1  0.66143652  0.48847287  0.86343897  1
  F  F58  1  0.82704858  0.33859970  0.86343818  1
  F  F59  1  0.51157275  0.17295140  0.86343169  1
loop_
_geom_bond_atom_site_label_1
_geom_bond_atom_site_label_2
_geom_bond_distance
_geom_bond_site_symmetry_2
F0 Na0 2.262635 1_555
F0 U0 2.317565 1_655
F0 U9 2.411532 1_555
F1 Na0 2.262710 1_555
F1 U1 2.317302 1_545
F1 U10 2.411666 1_555
F2 Na0 2.262643 1_555
F2 U2 2.317449 1_555
F2 U11 2.411790 1_555
F3 Na1 2.262812 1_555
F3 U3 2.317308 1_655
F3 U6 2.411412 1_555
F4 Na1 2.262867 1_555
F4 U4 2.317344 1_545
F4 U7 2.411587 1_555
F5 Na1 2.262822 1_555
F5 U5 2.317118 1_555
F5 U8 2.411624 1_555
F6 Na2 2.262876 1_555
F6 U6 2.317033 1_455
F6 U3 2.411725 1_555
F7 Na2 2.262851 1_555
F7 U7 2.317337 1_565
F7 U4 2.411590 1_555
F8 Na2 2.262885 1_555
F8 U8 2.317197 1_555
F8 U5 2.411445 1_555
F9 Na3 2.262762 1_555
F9 U9 2.317198 1_455
F9 U0 2.411850 1_555
F10 Na3 2.262809 1_555
F10 U10 2.317290 1_565
F10 U1 2.411642 1_555
F11 Na3 2.262655 1_555
F11 U11 2.317488 1_555
F11 U2 2.411729 1_555
F12 U0 2.251432 1_655
F12 U8 2.393293 1_555
F12 Na4 2.657686 1_565
F13 U1 2.251243 1_545
F13 U6 2.393261 1_555
F13 Na4 2.657407 1_555
F14 U2 2.251284 1_555
F14 U7 2.393508 1_555
F14 Na4 2.657528 1_455
F15 U3 2.251322 1_655
F15 U10 2.393417 1_554
F15 Na5 2.657434 1_545
F16 U4 2.251188 1_545
F16 U11 2.393612 1_554
F16 Na5 2.657616 1_445
F17 U5 2.251133 1_555
F17 U9 2.393444 1_554
F17 Na5 2.657453 1_555
F18 U6 2.251009 1_455
F18 U2 2.393653 1_555
F18 Na4 2.657373 1_455
F19 U7 2.251258 1_565
F19 U0 2.393669 1_555
F19 Na4 2.657562 1_465
F20 U8 2.251368 1_555
F20 U1 2.393427 1_555
F20 Na4 2.657437 1_565
F21 U9 2.251078 1_455
F21 U4 2.393603 1_556
F21 Na5 2.657546 1_456
F22 U10 2.251284 1_565
F22 U5 2.393237 1_556
F22 Na5 2.657327 1_556
F23 U11 2.251439 1_555
F23 U3 2.393376 1_556
F23 Na5 2.657608 1_446
F24 U0 2.285818 1_555
F24 Na2 2.325641 1_555
F24 U6 2.415571 1_455
F25 U1 2.285482 1_555
F25 Na2 2.325841 1_555
F25 U7 2.415873 1_565
F26 U2 2.285588 1_555
F26 Na2 2.325491 1_555
F26 U8 2.415810 1_555
F27 U3 2.285825 1_556
F27 Na3 2.325769 1_555
F27 U9 2.415361 1_455
F28 U4 2.285807 1_556
F28 Na3 2.325643 1_555
F28 U10 2.415397 1_565
F29 U5 2.285642 1_556
F29 Na3 2.325718 1_555
F29 U11 2.415686 1_555
F30 U6 2.285637 1_555
F30 Na0 2.325748 1_555
F30 U0 2.415732 1_655
F31 U7 2.285895 1_555
F31 Na0 2.325610 1_555
F31 U1 2.415469 1_545
F32 U8 2.285841 1_555
F32 Na0 2.325763 1_555
F32 U2 2.415622 1_555
F33 U9 2.285391 1_554
F33 Na1 2.325501 1_555
F33 U3 2.415867 1_655
F34 U10 2.285523 1_554
F34 Na1 2.325724 1_555
F34 U4 2.415892 1_545
F35 U11 2.285734 1_554
F35 Na1 2.325564 1_555
F35 U5 2.415636 1_555
F36 Ti0 1.928409 1_455
F36 U0 2.335879 1_555
F36 Na4 2.613605 1_465
F37 Ti0 1.928538 1_555
F37 U1 2.335492 1_555
F37 Na4 2.613533 1_565
F38 Ti0 1.928507 1_445
F38 U2 2.335790 1_555
F38 Na4 2.613433 1_455
F39 Ti1 1.927809 1_445
F39 U3 2.336108 1_555
F39 Na5 2.613280 1_445
F40 Ti1 1.927993 1_455
F40 U4 2.336271 1_555
F40 Na5 2.613054 1_455
F41 Ti1 1.927913 1_555
F41 U5 2.335804 1_555
F41 Na5 2.613116 1_555
F42 Ti1 1.927909 1_545
F42 U6 2.335817 1_555
F42 Na4 2.613196 1_555
F43 Ti1 1.927884 1_445
F43 U7 2.336293 1_555
F43 Na4 2.613224 1_455
F44 Ti1 1.927746 1_555
F44 U8 2.335964 1_555
F44 Na4 2.613378 1_565
F45 Ti0 1.928527 1_555
F45 U9 2.335633 1_555
F45 Na5 2.613412 1_556
F46 Ti0 1.928529 1_545
F46 U10 2.335584 1_555
F46 Na5 2.613429 1_546
F47 Ti0 1.928360 1_445
F47 U11 2.335962 1_555
F47 Na5 2.613490 1_446
F48 U1 2.284928 1_555
F48 U0 2.306292 1_555
F49 U2 2.285201 1_555
F49 U1 2.305884 1_555
F50 U0 2.285052 1_555
F50 U2 2.305883 1_555
F51 U5 2.285089 1_555
F51 U3 2.306113 1_555
F52 U3 2.285097 1_555
F52 U4 2.305902 1_555
F53 U4 2.285264 1_555
F53 U5 2.305664 1_555
F54 U7 2.285264 1_555
F54 U6 2.305580 1_555
F55 U8 2.285066 1_555
F55 U7 2.305949 1_555
F56 U6 2.285018 1_555
F56 U8 2.306076 1_555
F57 U11 2.285184 1_555
F57 U9 2.305684 1_555
F58 U9 2.284984 1_555
F58 U10 2.306083 1_555
F59 U10 2.284872 1_555
F59 U11 2.306239 1_555
