# generated using pymatgen
data_YbZr3F15
_symmetry_space_group_name_H-M   'P 1'
_cell_length_a   8.22533271
_cell_length_b   8.22533271
_cell_length_c   8.16654992
_cell_angle_alpha   80.25659883
_cell_angle_beta   80.25659883
_cell_angle_gamma   99.42508042
_symmetry_Int_Tables_number   1
_chemical_formula_structural   YbZr3F15
_chemical_formula_sum   'Yb2 Zr6 F30'
_cell_volume   526.05918088
_cell_formula_units_Z   2
loop_
 _symmetry_equiv_pos_site_id
 _symmetry_equiv_pos_as_xyz
  1  'x, y, z'
loop_
 _atom_site_type_symbol
 _atom_site_label
 _atom_site_symmetry_multiplicity
 _atom_site_fract_x
 _atom_site_fract_y
 _atom_site_fract_z
 _atom_site_occupancy
  Yb  Yb0  1  0.18049900  0.81950100  0.25000000  1
  Yb  Yb1  1  0.81950100  0.18049900  0.75000000  1
  Zr  Zr0  1  0.75146200  0.24853800  0.25000000  1
  Zr  Zr1  1  0.24853800  0.75146200  0.75000000  1
  Zr  Zr2  1  0.74812800  0.68064400  0.67873200  1
  Zr  Zr3  1  0.31935600  0.25187200  0.82126800  1
  Zr  Zr4  1  0.25187200  0.31935600  0.32126800  1
  Zr  Zr5  1  0.68064400  0.74812800  0.17873200  1
  F  F0  1  0.46426500  0.53573500  0.25000000  1
  F  F1  1  0.74559300  0.95427000  0.97381900  1
  F  F2  1  0.04573000  0.25440700  0.52618100  1
  F  F3  1  0.25440700  0.04573000  0.02618100  1
  F  F4  1  0.95427000  0.74559300  0.47381900  1
  F  F5  1  0.53573500  0.46426500  0.75000000  1
  F  F6  1  0.77176400  0.28200400  0.99774800  1
  F  F7  1  0.00779800  0.27389700  0.21945200  1
  F  F8  1  0.77482600  0.50829100  0.22646400  1
  F  F9  1  0.50829100  0.77482600  0.72646400  1
  F  F10  1  0.27389700  0.00779800  0.71945200  1
  F  F11  1  0.28200400  0.77176400  0.49774800  1
  F  F12  1  0.22823600  0.71799600  0.00225200  1
  F  F13  1  0.99220200  0.72610300  0.78054800  1
  F  F14  1  0.22517400  0.49170900  0.77353600  1
  F  F15  1  0.49170900  0.22517400  0.27353600  1
  F  F16  1  0.72610300  0.99220200  0.28054800  1
  F  F17  1  0.71799600  0.22823600  0.50225200  1
  F  F18  1  0.31527300  0.34876100  0.05051000  1
  F  F19  1  0.93549500  0.81430900  0.14879700  1
  F  F20  1  0.84565100  0.46627800  0.68132500  1
  F  F21  1  0.46627800  0.84565100  0.18132500  1
  F  F22  1  0.81430900  0.93549500  0.64879700  1
  F  F23  1  0.34876100  0.31527300  0.55051000  1
  F  F24  1  0.68472700  0.65123900  0.94949000  1
  F  F25  1  0.06450500  0.18569100  0.85120300  1
  F  F26  1  0.15434900  0.53372200  0.31867500  1
  F  F27  1  0.53372200  0.15434900  0.81867500  1
  F  F28  1  0.18569100  0.06450500  0.35120300  1
  F  F29  1  0.65123900  0.68472700  0.44949000  1
loop_
_geom_bond_atom_site_label_1
_geom_bond_atom_site_label_2
_geom_bond_distance
_geom_bond_site_symmetry_2
F0 Zr4 2.201205 1_555
F0 Zr5 2.201205 1_555
F1 Zr5 2.097886 1_556
F1 Yb1 2.296806 1_565
F2 Zr4 2.097886 1_555
F2 Yb1 2.296806 1_455
F3 Zr3 2.097886 1_554
F3 Yb0 2.296806 1_545
F4 Zr2 2.097886 1_555
F4 Yb0 2.296806 1_655
F5 Zr3 2.201205 1_555
F5 Zr2 2.201205 1_555
F6 Zr0 2.005979 1_556
F6 Yb1 2.314091 1_555
F7 Zr0 2.052222 1_455
F7 Zr4 2.299126 1_555
F8 Zr0 2.086328 1_555
F8 Zr5 2.232986 1_555
F9 Zr1 2.086328 1_555
F9 Zr2 2.232986 1_555
F10 Zr1 2.052222 1_545
F10 Zr3 2.299126 1_555
F11 Zr1 2.005979 1_555
F11 Yb0 2.314091 1_555
F12 Zr1 2.005979 1_554
F12 Yb0 2.314091 1_555
F13 Zr1 2.052222 1_655
F13 Zr2 2.299126 1_555
F14 Zr1 2.086328 1_555
F14 Zr3 2.232986 1_555
F15 Zr0 2.086328 1_555
F15 Zr4 2.232986 1_555
F16 Zr0 2.052222 1_565
F16 Zr5 2.299126 1_555
F17 Zr0 2.005979 1_555
F17 Yb1 2.314091 1_555
F18 Zr4 2.146406 1_555
F18 Zr3 2.152567 1_554
F19 Zr5 2.039133 1_555
F19 Yb0 2.300779 1_655
F20 Zr2 2.051643 1_555
F20 Yb1 2.287710 1_555
F21 Zr5 2.051643 1_555
F21 Yb0 2.287710 1_555
F22 Zr2 2.039133 1_555
F22 Yb1 2.300779 1_565
F23 Zr3 2.146406 1_555
F23 Zr4 2.152567 1_555
F24 Zr2 2.146406 1_555
F24 Zr5 2.152567 1_556
F25 Zr3 2.039133 1_555
F25 Yb1 2.300779 1_455
F26 Zr4 2.051643 1_555
F26 Yb0 2.287710 1_555
F27 Zr3 2.051643 1_555
F27 Yb1 2.287710 1_555
F28 Zr4 2.039133 1_555
F28 Yb0 2.300779 1_545
F29 Zr5 2.146406 1_555
F29 Zr2 2.152567 1_555
