# generated using pymatgen
data_MgHg3
_symmetry_space_group_name_H-M   'P 1'
_cell_length_a   6.29078488
_cell_length_b   13.44610279
_cell_length_c   10.00631190
_cell_angle_alpha   68.15546958
_cell_angle_beta   90.00000000
_cell_angle_gamma   76.47169032
_symmetry_Int_Tables_number   1
_chemical_formula_structural   MgHg3
_chemical_formula_sum   'Mg8 Hg24'
_cell_volume   760.26648327
_cell_formula_units_Z   8
loop_
 _symmetry_equiv_pos_site_id
 _symmetry_equiv_pos_as_xyz
  1  'x, y, z'
loop_
 _atom_site_type_symbol
 _atom_site_label
 _atom_site_symmetry_multiplicity
 _atom_site_fract_x
 _atom_site_fract_y
 _atom_site_fract_z
 _atom_site_occupancy
  Mg  Mg0_0  1  0.37500050  0.24999950  0.05321550  1
  Mg  Mg0_1  1  0.37500050  0.24999950  0.55321550  1
  Mg  Mg0_2  1  0.37500050  0.74999950  0.05321550  1
  Mg  Mg0_3  1  0.37500050  0.74999950  0.55321550  1
  Mg  Mg0_4  1  0.87500050  0.24999950  0.05321550  1
  Mg  Mg0_5  1  0.87500050  0.24999950  0.55321550  1
  Mg  Mg0_6  1  0.87500050  0.74999950  0.05321550  1
  Mg  Mg0_7  1  0.87500050  0.74999950  0.55321550  1
  Hg  Hg0_0  1  0.02171536  0.45656779  0.00604327  1
  Hg  Hg0_1  1  0.02171536  0.45656779  0.50604328  1
  Hg  Hg0_2  1  0.02171536  0.95656779  0.00604327  1
  Hg  Hg0_3  1  0.02171536  0.95656779  0.50604327  1
  Hg  Hg0_4  1  0.52171536  0.45656779  0.00604327  1
  Hg  Hg0_5  1  0.52171536  0.45656779  0.50604328  1
  Hg  Hg0_6  1  0.52171536  0.95656779  0.00604327  1
  Hg  Hg0_7  1  0.52171536  0.95656779  0.50604327  1
  Hg  Hg1_0  1  0.22828464  0.04343172  0.21261205  1
  Hg  Hg1_1  1  0.22828464  0.04343172  0.71261206  1
  Hg  Hg1_2  1  0.22828464  0.54343172  0.21261205  1
  Hg  Hg1_3  1  0.22828464  0.54343172  0.71261205  1
  Hg  Hg1_4  1  0.72828464  0.04343172  0.21261205  1
  Hg  Hg1_5  1  0.72828464  0.04343172  0.71261206  1
  Hg  Hg1_6  1  0.72828464  0.54343172  0.21261205  1
  Hg  Hg1_7  1  0.72828464  0.54343172  0.71261205  1
  Hg  Hg2_0  1  0.12500100  0.24999950  0.31146316  1
  Hg  Hg2_1  1  0.12500100  0.24999950  0.81146316  1
  Hg  Hg2_2  1  0.12500100  0.74999950  0.31146316  1
  Hg  Hg2_3  1  0.12500100  0.74999950  0.81146316  1
  Hg  Hg2_4  1  0.62500100  0.24999950  0.31146316  1
  Hg  Hg2_5  1  0.62500100  0.24999950  0.81146317  1
  Hg  Hg2_6  1  0.62500100  0.74999950  0.31146316  1
  Hg  Hg2_7  1  0.62500100  0.74999950  0.81146316  1
loop_
_geom_bond_atom_site_label_1
_geom_bond_atom_site_label_2
_geom_bond_distance
_geom_bond_site_symmetry_2
Mg0_0 Mg0_4 3.145392 1_455
Mg0_0 Mg0_4 3.145392 1_555
Mg0_1 Mg0_5 3.145392 1_555
Mg0_1 Mg0_5 3.145392 1_455
Mg0_2 Mg0_6 3.145392 1_555
Mg0_2 Mg0_6 3.145392 1_455
Mg0_3 Mg0_7 3.145392 1_555
Mg0_3 Mg0_7 3.145392 1_455
Hg0_0 Mg0_4 3.002175 1_455
Hg0_0 Mg0_0 3.002182 1_555
Hg0_0 Hg1_7 3.135581 1_454
Hg0_0 Hg1_3 3.135588 1_554
Hg0_0 Hg1_6 3.135592 1_455
Hg0_0 Hg1_2 3.135600 1_555
Hg0_0 Hg0_4 3.145392 1_455
Hg0_0 Hg0_4 3.145392 1_555
Hg0_0 Hg2_0 3.211776 1_555
Hg0_1 Mg0_5 3.002175 1_455
Hg0_1 Mg0_1 3.002182 1_555
Hg0_1 Hg1_6 3.135581 1_455
Hg0_1 Hg1_2 3.135588 1_555
Hg0_1 Hg1_7 3.135592 1_455
Hg0_1 Hg1_3 3.135600 1_555
Hg0_1 Hg0_5 3.145392 1_455
Hg0_1 Hg0_5 3.145392 1_555
Hg0_1 Hg2_1 3.211776 1_555
Hg0_2 Mg0_6 3.002175 1_455
Hg0_2 Mg0_2 3.002182 1_555
Hg0_2 Hg1_5 3.135581 1_464
Hg0_2 Hg1_1 3.135588 1_564
Hg0_2 Hg1_4 3.135592 1_465
Hg0_2 Hg1_0 3.135600 1_565
Hg0_2 Hg0_6 3.145392 1_555
Hg0_2 Hg0_6 3.145392 1_455
Hg0_2 Hg2_2 3.211776 1_555
Hg0_3 Mg0_7 3.002175 1_455
Hg0_3 Mg0_3 3.002182 1_555
Hg0_3 Hg1_4 3.135581 1_465
Hg0_3 Hg1_0 3.135588 1_565
Hg0_3 Hg1_5 3.135592 1_465
Hg0_3 Hg1_1 3.135600 1_565
Hg0_3 Hg0_7 3.145392 1_555
Hg0_3 Hg0_7 3.145392 1_455
Hg0_3 Hg2_3 3.211776 1_555
Hg0_4 Mg0_0 3.002175 1_555
Hg0_4 Mg0_4 3.002182 1_555
Hg0_4 Hg1_3 3.135581 1_554
Hg0_4 Hg1_7 3.135588 1_554
Hg0_4 Hg1_2 3.135592 1_555
Hg0_4 Hg1_6 3.135600 1_555
Hg0_4 Hg2_4 3.211776 1_555
Hg0_5 Mg0_1 3.002175 1_555
Hg0_5 Mg0_5 3.002182 1_555
Hg0_5 Hg1_2 3.135581 1_555
Hg0_5 Hg1_6 3.135588 1_555
Hg0_5 Hg1_3 3.135592 1_555
Hg0_5 Hg1_7 3.135600 1_555
Hg0_5 Hg2_5 3.211776 1_555
Hg0_6 Mg0_2 3.002175 1_555
Hg0_6 Mg0_6 3.002182 1_555
Hg0_6 Hg1_1 3.135581 1_564
Hg0_6 Hg1_5 3.135588 1_564
Hg0_6 Hg1_0 3.135592 1_565
Hg0_6 Hg1_4 3.135600 1_565
Hg0_6 Hg2_6 3.211776 1_555
Hg0_7 Mg0_3 3.002175 1_555
Hg0_7 Mg0_7 3.002182 1_555
Hg0_7 Hg1_0 3.135581 1_565
Hg0_7 Hg1_4 3.135588 1_565
Hg0_7 Hg1_1 3.135592 1_565
Hg0_7 Hg1_5 3.135600 1_565
Hg0_7 Hg2_7 3.211776 1_555
Hg1_0 Mg0_0 3.002175 1_555
Hg1_0 Mg0_4 3.002177 1_455
Hg1_0 Hg1_4 3.145392 1_455
Hg1_0 Hg1_4 3.145392 1_555
Hg1_0 Hg2_0 3.211765 1_555
Hg1_1 Mg0_1 3.002175 1_555
Hg1_1 Mg0_5 3.002177 1_455
Hg1_1 Hg1_5 3.145392 1_455
Hg1_1 Hg1_5 3.145392 1_555
Hg1_1 Hg2_1 3.211765 1_555
Hg1_2 Mg0_2 3.002175 1_555
Hg1_2 Mg0_6 3.002177 1_455
Hg1_2 Hg1_6 3.145392 1_555
Hg1_2 Hg1_6 3.145392 1_455
Hg1_2 Hg2_2 3.211765 1_555
Hg1_3 Mg0_3 3.002175 1_555
Hg1_3 Mg0_7 3.002177 1_455
Hg1_3 Hg1_7 3.145392 1_455
Hg1_3 Hg1_7 3.145392 1_555
Hg1_3 Hg2_3 3.211765 1_555
Hg1_4 Mg0_4 3.002175 1_555
Hg1_4 Mg0_0 3.002177 1_555
Hg1_4 Hg2_4 3.211765 1_555
Hg1_5 Mg0_5 3.002175 1_555
Hg1_5 Mg0_1 3.002177 1_555
Hg1_5 Hg2_5 3.211765 1_555
Hg1_6 Mg0_6 3.002175 1_555
Hg1_6 Mg0_2 3.002177 1_555
Hg1_6 Hg2_6 3.211765 1_555
Hg1_7 Mg0_7 3.002175 1_555
Hg1_7 Mg0_3 3.002177 1_555
Hg1_7 Hg2_7 3.211765 1_555
Hg2_0 Mg0_1 2.885336 1_555
Hg2_0 Mg0_5 2.885339 1_455
Hg2_0 Mg0_0 3.025057 1_555
Hg2_0 Mg0_4 3.025060 1_455
Hg2_0 Hg2_4 3.145392 1_455
Hg2_0 Hg2_4 3.145392 1_555
Hg2_1 Mg0_0 2.885336 1_556
Hg2_1 Mg0_4 2.885339 1_456
Hg2_1 Mg0_1 3.025057 1_555
Hg2_1 Mg0_5 3.025060 1_455
Hg2_1 Hg2_5 3.145392 1_555
Hg2_1 Hg2_5 3.145392 1_455
Hg2_2 Mg0_3 2.885336 1_555
Hg2_2 Mg0_7 2.885339 1_455
Hg2_2 Mg0_2 3.025057 1_555
Hg2_2 Mg0_6 3.025060 1_455
Hg2_2 Hg2_6 3.145392 1_555
Hg2_2 Hg2_6 3.145392 1_455
Hg2_3 Mg0_2 2.885336 1_556
Hg2_3 Mg0_6 2.885339 1_456
Hg2_3 Mg0_3 3.025057 1_555
Hg2_3 Mg0_7 3.025060 1_455
Hg2_3 Hg2_7 3.145392 1_555
Hg2_3 Hg2_7 3.145392 1_455
Hg2_4 Mg0_5 2.885336 1_555
Hg2_4 Mg0_1 2.885339 1_555
Hg2_4 Mg0_4 3.025057 1_555
Hg2_4 Mg0_0 3.025060 1_555
Hg2_5 Mg0_4 2.885336 1_556
Hg2_5 Mg0_0 2.885339 1_556
Hg2_5 Mg0_5 3.025057 1_555
Hg2_5 Mg0_1 3.025060 1_555
Hg2_6 Mg0_7 2.885336 1_555
Hg2_6 Mg0_3 2.885339 1_555
Hg2_6 Mg0_6 3.025057 1_555
Hg2_6 Mg0_2 3.025060 1_555
Hg2_7 Mg0_6 2.885336 1_556
Hg2_7 Mg0_2 2.885339 1_556
Hg2_7 Mg0_7 3.025057 1_555
Hg2_7 Mg0_3 3.025060 1_555
