# generated using pymatgen
data_EuHfF7
_symmetry_space_group_name_H-M   'P 1'
_cell_length_a   5.71593918
_cell_length_b   6.13084769
_cell_length_c   8.26254659
_cell_angle_alpha   102.23643294
_cell_angle_beta   90.00000000
_cell_angle_gamma   90.00000000
_symmetry_Int_Tables_number   1
_chemical_formula_structural   EuHfF7
_chemical_formula_sum   'Eu2 Hf2 F14'
_cell_volume   282.97081451
_cell_formula_units_Z   2
loop_
 _symmetry_equiv_pos_site_id
 _symmetry_equiv_pos_as_xyz
  1  'x, y, z'
loop_
 _atom_site_type_symbol
 _atom_site_label
 _atom_site_symmetry_multiplicity
 _atom_site_fract_x
 _atom_site_fract_y
 _atom_site_fract_z
 _atom_site_occupancy
  Eu  Eu0  1  0.69959569  0.65735961  0.68775860  1
  Eu  Eu1  1  0.19959569  0.34264039  0.31224140  1
  Hf  Hf0  1  0.70999958  0.81084067  0.22473424  1
  Hf  Hf1  1  0.20999958  0.18915933  0.77526576  1
  F  F0  1  0.87897085  0.44971532  0.46977969  1
  F  F1  1  0.37897085  0.55028468  0.53022031  1
  F  F2  1  0.43322266  0.93963901  0.77052767  1
  F  F3  1  0.93322266  0.06036099  0.22947233  1
  F  F4  1  0.95809532  0.96009722  0.76189783  1
  F  F5  1  0.45809532  0.03990278  0.23810217  1
  F  F6  1  0.99416941  0.44628479  0.78449721  1
  F  F7  1  0.49416941  0.55371521  0.21550279  1
  F  F8  1  0.69796075  0.75714467  0.97961657  1
  F  F9  1  0.19796075  0.24285533  0.02038343  1
  F  F10  1  0.71062440  0.86319901  0.47101849  1
  F  F11  1  0.21062440  0.13680099  0.52898151  1
  F  F12  1  0.49372134  0.38277666  0.78849722  1
  F  F13  1  0.99372134  0.61722334  0.21150278  1
loop_
_geom_bond_atom_site_label_1
_geom_bond_atom_site_label_2
_geom_bond_distance
_geom_bond_site_symmetry_2
Eu0 F0 2.223459 1_555
Eu0 F1 2.263129 1_555
Eu0 F2 2.297661 1_555
Eu0 F12 2.346377 1_555
Eu0 F4 2.349763 1_555
Eu0 F8 2.358871 1_555
Eu0 F6 2.363689 1_555
Eu0 F10 2.400329 1_555
Eu1 F1 2.223459 1_555
Eu1 F0 2.263129 1_455
Eu1 F3 2.297661 1_455
Eu1 F13 2.346377 1_455
Eu1 F5 2.349763 1_555
Eu1 F9 2.358871 1_555
Eu1 F7 2.363689 1_555
Eu1 F11 2.400329 1_555
F2 Hf1 1.986037 1_565
F3 Hf0 1.986037 1_545
F4 Hf1 1.997963 1_665
F5 Hf0 1.997963 1_545
F6 Hf1 1.990433 1_655
F7 Hf0 1.990433 1_555
F8 Hf0 1.983006 1_556
F9 Hf1 1.983006 1_554
F10 Hf0 1.991763 1_555
F11 Hf1 1.991763 1_555
F12 Hf1 1.999007 1_555
F13 Hf0 1.999007 1_555
