# generated using pymatgen
data_ZnFe4O9
_symmetry_space_group_name_H-M   'P 1'
_cell_length_a   5.15789554
_cell_length_b   8.42214035
_cell_length_c   8.44236390
_cell_angle_alpha   89.85287210
_cell_angle_beta   89.81734578
_cell_angle_gamma   89.79232988
_symmetry_Int_Tables_number   1
_chemical_formula_structural   ZnFe4O9
_chemical_formula_sum   'Zn2 Fe8 O18'
_cell_volume   366.73520845
_cell_formula_units_Z   2
loop_
 _symmetry_equiv_pos_site_id
 _symmetry_equiv_pos_as_xyz
  1  'x, y, z'
loop_
 _atom_site_type_symbol
 _atom_site_label
 _atom_site_symmetry_multiplicity
 _atom_site_fract_x
 _atom_site_fract_y
 _atom_site_fract_z
 _atom_site_occupancy
  Zn  Zn0  1  0.02295700  0.25028000  0.24868600  1
  Zn  Zn1  1  0.98019800  0.75061700  0.75028000  1
  Fe  Fe0  1  0.61603400  0.53323500  0.34028000  1
  Fe  Fe1  1  0.38254400  0.84087300  0.46811000  1
  Fe  Fe2  1  0.62119400  0.33952600  0.96734200  1
  Fe  Fe3  1  0.38446100  0.03296000  0.83950700  1
  Fe  Fe4  1  0.61551300  0.96748600  0.15957400  1
  Fe  Fe5  1  0.61589600  0.16003000  0.53138200  1
  Fe  Fe6  1  0.38277300  0.46652900  0.66050900  1
  Fe  Fe7  1  0.38157200  0.65982000  0.03214100  1
  O  O0  1  0.49981400  0.75083400  0.24993300  1
  O  O1  1  0.49784900  0.24946700  0.74920600  1
  O  O2  1  0.04093000  0.68042700  0.96806500  1
  O  O3  1  0.04284100  0.53164400  0.68408400  1
  O  O4  1  0.04447800  0.96884400  0.81702900  1
  O  O5  1  0.04242600  0.82178000  0.53305000  1
  O  O6  1  0.96195100  0.31416600  0.02891800  1
  O  O7  1  0.95564600  0.46570800  0.32405600  1
  O  O8  1  0.95575600  0.03217900  0.18163700  1
  O  O9  1  0.95611600  0.18365300  0.46718100  1
  O  O10  1  0.46358100  0.03994500  0.35571000  1
  O  O11  1  0.46519000  0.14356600  0.03791100  1
  O  O12  1  0.46213500  0.35712000  0.46143200  1
  O  O13  1  0.46920800  0.46125200  0.14448900  1
  O  O14  1  0.53100400  0.53744100  0.85606200  1
  O  O15  1  0.53666100  0.85626500  0.96080100  1
  O  O16  1  0.53495300  0.64351300  0.53898000  1
  O  O17  1  0.53632600  0.96083900  0.64364300  1
loop_
_geom_bond_atom_site_label_1
_geom_bond_atom_site_label_2
_geom_bond_distance
_geom_bond_site_symmetry_2
Fe0 O7 1.844518 1_555
Fe0 O13 1.920866 1_555
Fe0 O16 1.962711 1_555
Fe0 O12 1.967712 1_555
Fe0 O0 2.070626 1_555
Fe1 O5 1.843756 1_555
Fe1 O16 1.930609 1_555
Fe1 O17 1.966485 1_555
Fe1 O10 1.969916 1_565
Fe1 O0 2.080953 1_555
Fe2 O6 1.845945 1_556
Fe2 O11 1.930740 1_556
Fe2 O14 1.966360 1_555
Fe2 O13 1.974025 1_556
Fe2 O1 2.095144 1_555
Fe3 O4 1.847219 1_545
Fe3 O17 1.926191 1_545
Fe3 O11 1.965207 1_556
Fe3 O15 1.966797 1_545
Fe3 O1 2.060571 1_555
Fe4 O8 1.849568 1_565
Fe4 O10 1.929201 1_565
Fe4 O11 1.960681 1_565
Fe4 O15 1.968275 1_554
Fe4 O0 2.065268 1_555
Fe5 O9 1.846256 1_555
Fe5 O12 1.929110 1_555
Fe5 O10 1.964821 1_555
Fe5 O17 1.968604 1_545
Fe5 O1 2.077619 1_555
Fe6 O3 1.845510 1_555
Fe6 O14 1.919173 1_555
Fe6 O12 1.960144 1_555
Fe6 O16 1.971321 1_555
Fe6 O1 2.059856 1_555
Fe7 O2 1.847472 1_554
Fe7 O15 1.934261 1_554
Fe7 O14 1.964929 1_554
Fe7 O13 1.972273 1_555
Fe7 O0 2.087593 1_555
O2 Zn1 1.955724 1_455
O3 Zn1 1.953890 1_455
O4 Zn1 1.953567 1_455
O5 Zn1 1.953854 1_455
O6 Zn0 1.956592 1_655
O7 Zn0 1.953788 1_655
O8 Zn0 1.955986 1_655
O9 Zn0 1.956623 1_655
