# generated using pymatgen
data_Li7Mn4CoO12
_symmetry_space_group_name_H-M   'P 1'
_cell_length_a   2.93079825
_cell_length_b   5.94742996
_cell_length_c   24.69772499
_cell_angle_alpha   89.68227041
_cell_angle_beta   89.56261536
_cell_angle_gamma   91.75167112
_symmetry_Int_Tables_number   1
_chemical_formula_structural   Li7Mn4CoO12
_chemical_formula_sum   'Li14 Mn8 Co2 O24'
_cell_volume   430.27816114
_cell_formula_units_Z   2
loop_
 _symmetry_equiv_pos_site_id
 _symmetry_equiv_pos_as_xyz
  1  'x, y, z'
loop_
 _atom_site_type_symbol
 _atom_site_label
 _atom_site_symmetry_multiplicity
 _atom_site_fract_x
 _atom_site_fract_y
 _atom_site_fract_z
 _atom_site_occupancy
  Li  Li0  1  0.50056300  0.24850900  0.41640200  1
  Li  Li1  1  0.49945500  0.75145100  0.91693600  1
  Li  Li2  1  0.00003100  0.99999100  0.16665200  1
  Li  Li3  1  0.00000500  0.50002700  0.66668400  1
  Li  Li4  1  0.50139800  0.75151900  0.41657300  1
  Li  Li5  1  0.49862900  0.24849000  0.91676600  1
  Li  Li6  1  0.00639100  0.98924000  0.49285500  1
  Li  Li7  1  0.00649300  0.48857500  0.99111700  1
  Li  Li8  1  0.99352700  0.51140800  0.34223200  1
  Li  Li9  1  0.99360000  0.01074100  0.84048200  1
  Li  Li10  1  0.50052300  0.25072400  0.08375000  1
  Li  Li11  1  0.50144600  0.75201100  0.58356400  1
  Li  Li12  1  0.49949900  0.74926600  0.24956600  1
  Li  Li13  1  0.49857300  0.24799100  0.74981300  1
  Mn  Mn0  1  0.98605800  0.00508800  0.99654700  1
  Mn  Mn1  1  0.01395600  0.99490000  0.33679200  1
  Mn  Mn2  1  0.49890000  0.24873600  0.58278900  1
  Mn  Mn3  1  0.50100500  0.75130100  0.75056000  1
  Mn  Mn4  1  0.99458200  0.50637500  0.49579300  1
  Mn  Mn5  1  0.00550400  0.49359900  0.83755200  1
  Mn  Mn6  1  0.49743600  0.74558400  0.08375200  1
  Mn  Mn7  1  0.50259800  0.25443900  0.24956700  1
  Co  Co0  1  0.00001200  0.49998800  0.16665400  1
  Co  Co1  1  0.99990800  0.99996300  0.66667000  1
  O  O0  1  0.49961300  0.22029100  0.00011900  1
  O  O1  1  0.50726800  0.71970600  0.49982600  1
  O  O2  1  0.50042400  0.77968700  0.33321300  1
  O  O3  1  0.49277400  0.28028400  0.83352500  1
  O  O4  1  0.95648600  0.98661400  0.07991500  1
  O  O5  1  0.98293800  0.48533000  0.57878200  1
  O  O6  1  0.04352400  0.01340200  0.25342300  1
  O  O7  1  0.01709800  0.51469500  0.75454400  1
  O  O8  1  0.00295800  0.00116300  0.41027600  1
  O  O9  1  0.99996800  0.50193900  0.91065300  1
  O  O10  1  0.00005800  0.49806700  0.42269200  1
  O  O11  1  0.99707700  0.99881300  0.92306200  1
  O  O12  1  0.52295400  0.22399300  0.33188700  1
  O  O13  1  0.51331400  0.72143300  0.83162500  1
  O  O14  1  0.47708600  0.77600500  0.00144900  1
  O  O15  1  0.48670900  0.27857400  0.50171800  1
  O  O16  1  0.96199600  0.49305800  0.24597300  1
  O  O17  1  0.98289900  0.98163100  0.75346800  1
  O  O18  1  0.03804600  0.50693600  0.08734000  1
  O  O19  1  0.01677700  0.01844500  0.57983700  1
  O  O20  1  0.51453700  0.72202200  0.16488000  1
  O  O21  1  0.50420400  0.24451400  0.66077600  1
  O  O22  1  0.48547400  0.27795400  0.16843600  1
  O  O23  1  0.49572800  0.75552300  0.67251400  1
loop_
_geom_bond_atom_site_label_1
_geom_bond_atom_site_label_2
_geom_bond_distance
_geom_bond_site_symmetry_2
Li0 O8 2.046582 1_555
Li0 O10 2.059933 1_655
Li0 O12 2.093890 1_555
Li0 O15 2.115858 1_555
Li0 O8 2.118125 1_655
Li0 O10 2.123908 1_555
Li1 O11 2.046683 1_555
Li1 O9 2.059710 1_455
Li1 O14 2.093856 1_556
Li1 O13 2.115710 1_555
Li1 O11 2.118157 1_455
Li1 O9 2.123715 1_555
Li2 O22 2.148732 1_565
Li2 O4 2.148746 1_455
Li2 O20 2.148845 1_455
Li2 O6 2.149582 1_565
Li2 O20 2.271781 1_555
Li2 O22 2.271862 1_465
Li3 O23 2.076346 1_555
Li3 O21 2.076726 1_455
Li3 O23 2.156505 1_455
Li3 O21 2.156543 1_555
Li3 O7 2.173076 1_555
Li3 O5 2.174118 1_455
Li4 O8 2.061547 1_665
Li4 O1 2.064052 1_555
Li4 O2 2.064712 1_555
Li4 O10 2.076693 1_555
Li4 O8 2.120416 1_565
Li4 O10 2.136933 1_655
Li5 O11 2.061666 1_445
Li5 O3 2.063747 1_555
Li5 O0 2.064554 1_556
Li5 O9 2.076669 1_555
Li5 O11 2.120572 1_545
Li5 O9 2.136912 1_455
Li6 O8 2.040465 1_565
Li6 O1 2.142187 1_455
Li6 O19 2.156599 1_565
Li6 O15 2.202611 1_565
Li6 O1 2.213359 1_555
Li6 O15 2.342679 1_465
Li7 O9 1.988687 1_455
Li7 O0 2.156010 1_456
Li7 O14 2.180757 1_556
Li7 O0 2.196822 1_556
Li7 O14 2.357067 1_456
Li7 O18 2.381973 1_556
Li8 O10 1.988584 1_655
Li8 O2 2.156061 1_655
Li8 O12 2.180694 1_555
Li8 O2 2.196809 1_555
Li8 O12 2.357075 1_655
Li8 O16 2.382854 1_555
Li9 O11 2.040492 1_545
Li9 O3 2.142300 1_655
Li9 O17 2.157357 1_545
Li9 O13 2.202420 1_545
Li9 O3 2.213269 1_555
Li9 O13 2.342612 1_645
Li10 O18 2.071944 1_555
Li10 O0 2.074425 1_555
Li10 O4 2.095268 1_545
Li10 O22 2.098939 1_555
Li10 O18 2.160672 1_655
Li10 O4 2.206685 1_445
Li11 O1 2.078093 1_555
Li11 O19 2.156495 1_665
Li11 O5 2.158074 1_555
Li11 O19 2.162206 1_565
Li11 O5 2.167103 1_455
Li11 O23 2.197019 1_555
Li12 O16 2.071969 1_555
Li12 O2 2.074812 1_555
Li12 O6 2.095434 1_565
Li12 O20 2.098946 1_555
Li12 O16 2.160618 1_455
Li12 O6 2.206796 1_665
Li13 O3 2.077446 1_555
Li13 O17 2.156804 1_445
Li13 O7 2.158076 1_555
Li13 O17 2.161115 1_545
Li13 O7 2.167154 1_655
Li13 O21 2.199164 1_555
Mn0 O11 1.815564 1_545
Mn0 O0 1.946630 1_556
Mn0 O0 1.948551 1_656
Mn0 O14 1.991797 1_546
Mn0 O14 2.015604 1_646
Mn0 O4 2.062341 1_546
Mn1 O8 1.815537 1_565
Mn1 O2 1.946728 1_555
Mn1 O2 1.948547 1_455
Mn1 O12 1.991896 1_565
Mn1 O12 2.015594 1_465
Mn1 O6 2.062373 1_565
Mn2 O21 1.926313 1_555
Mn2 O19 1.939633 1_555
Mn2 O5 1.968896 1_555
Mn2 O15 2.009823 1_555
Mn2 O19 2.076399 1_655
Mn2 O5 2.099360 1_455
Mn3 O23 1.927769 1_555
Mn3 O17 1.939266 1_555
Mn3 O7 1.968654 1_555
Mn3 O13 2.009700 1_555
Mn3 O17 2.077025 1_455
Mn3 O7 2.099667 1_655
Mn4 O10 1.806341 1_655
Mn4 O1 1.940253 1_655
Mn4 O1 1.941526 1_555
Mn4 O15 1.985880 1_555
Mn4 O15 2.014390 1_655
Mn4 O5 2.052725 1_555
Mn5 O9 1.806347 1_455
Mn5 O3 1.940282 1_455
Mn5 O3 1.941357 1_555
Mn5 O13 1.985878 1_555
Mn5 O13 2.014666 1_455
Mn5 O7 2.053209 1_555
Mn6 O18 1.927454 1_555
Mn6 O4 1.937169 1_555
Mn6 O20 2.008910 1_555
Mn6 O14 2.041220 1_555
Mn6 O18 2.161250 1_655
Mn6 O4 2.171912 1_455
Mn7 O16 1.927352 1_555
Mn7 O6 1.937265 1_555
Mn7 O22 2.008968 1_555
Mn7 O12 2.041651 1_555
Mn7 O16 2.161121 1_455
Mn7 O6 2.171909 1_655
Co0 O18 1.961329 1_555
Co0 O16 1.961449 1_455
Co0 O22 1.971104 1_555
Co0 O20 1.971127 1_455
Co0 O20 1.973906 1_555
Co0 O22 1.973936 1_455
Co1 O23 2.044718 1_555
Co1 O21 2.045487 1_665
Co1 O23 2.091890 1_655
Co1 O21 2.092207 1_565
Co1 O17 2.146001 1_555
Co1 O19 2.146899 1_665
