# generated using pymatgen
data_TeC2S2(BrN2)2
_symmetry_space_group_name_H-M   'P 1'
_cell_length_a   9.09001682
_cell_length_b   9.09001682
_cell_length_c   9.96833129
_cell_angle_alpha   63.19833410
_cell_angle_beta   63.19833410
_cell_angle_gamma   50.66720198
_symmetry_Int_Tables_number   1
_chemical_formula_structural   TeC2S2(BrN2)2
_chemical_formula_sum   'Te2 C4 S4 Br4 N8'
_cell_volume   552.14591352
_cell_formula_units_Z   2
loop_
 _symmetry_equiv_pos_site_id
 _symmetry_equiv_pos_as_xyz
  1  'x, y, z'
loop_
 _atom_site_type_symbol
 _atom_site_label
 _atom_site_symmetry_multiplicity
 _atom_site_fract_x
 _atom_site_fract_y
 _atom_site_fract_z
 _atom_site_occupancy
  Te  Te0  1  0.11037100  0.88962900  0.25000000  1
  Te  Te1  1  0.88962900  0.11037100  0.75000000  1
  C  C0  1  0.22339400  0.49190300  0.58026400  1
  C  C1  1  0.50809700  0.77660600  0.91973600  1
  C  C2  1  0.77660600  0.50809700  0.41973600  1
  C  C3  1  0.49190300  0.22339400  0.08026400  1
  S  S0  1  0.27745100  0.50845600  0.37286900  1
  S  S1  1  0.49154400  0.72254900  0.12713100  1
  S  S2  1  0.72254900  0.49154400  0.62713100  1
  S  S3  1  0.50845600  0.27745100  0.87286900  1
  Br  Br0  1  0.76658500  0.97175800  0.44649300  1
  Br  Br1  1  0.02824200  0.23341500  0.05350700  1
  Br  Br2  1  0.23341500  0.02824200  0.55350700  1
  Br  Br3  1  0.97175800  0.76658500  0.94649300  1
  N  N0  1  0.21348000  0.34247600  0.67673400  1
  N  N1  1  0.65752400  0.78652000  0.82326600  1
  N  N2  1  0.78652000  0.65752400  0.32326600  1
  N  N3  1  0.34247600  0.21348000  0.17673400  1
  N  N4  1  0.21265000  0.63274800  0.59893600  1
  N  N5  1  0.36725200  0.78735000  0.90106400  1
  N  N6  1  0.78735000  0.36725200  0.40106400  1
  N  N7  1  0.63274800  0.21265000  0.09893600  1
loop_
_geom_bond_atom_site_label_1
_geom_bond_atom_site_label_2
_geom_bond_distance
_geom_bond_site_symmetry_2
C0 N0 1.294961 1_555
C0 N4 1.312749 1_555
C0 S0 1.853441 1_555
C1 N1 1.294961 1_555
C1 N5 1.312749 1_555
C1 S1 1.853441 1_556
C2 N2 1.294961 1_555
C2 N6 1.312749 1_555
C2 S2 1.853441 1_555
C3 N3 1.294961 1_555
C3 N7 1.312749 1_555
C3 S3 1.853441 1_554
S0 Te0 2.644200 1_555
S1 Te0 2.644200 1_555
S2 Te1 2.644200 1_555
S3 Te1 2.644200 1_555
Br0 Te0 2.645930 1_655
Br1 Te0 2.645930 1_545
Br2 Te1 2.645930 1_455
Br3 Te1 2.645930 1_565
