# generated using pymatgen
data_Li7V3P8O29
_symmetry_space_group_name_H-M   'P 1'
_cell_length_a   9.87130816
_cell_length_b   9.84361787
_cell_length_c   13.95911855
_cell_angle_alpha   90.77521410
_cell_angle_beta   90.81567152
_cell_angle_gamma   60.23476252
_symmetry_Int_Tables_number   1
_chemical_formula_structural   Li7V3P8O29
_chemical_formula_sum   'Li14 V6 P16 O58'
_cell_volume   1177.29299427
_cell_formula_units_Z   2
loop_
 _symmetry_equiv_pos_site_id
 _symmetry_equiv_pos_as_xyz
  1  'x, y, z'
loop_
 _atom_site_type_symbol
 _atom_site_label
 _atom_site_symmetry_multiplicity
 _atom_site_fract_x
 _atom_site_fract_y
 _atom_site_fract_z
 _atom_site_occupancy
  Li  Li0  1  0.90980653  0.31898438  0.56497971  1
  Li  Li1  1  0.67892859  0.67371594  0.38688703  1
  Li  Li2  1  0.67904297  0.67551690  0.88913497  1
  Li  Li3  1  0.76921769  0.31498527  0.06405253  1
  Li  Li4  1  0.32366161  0.90733416  0.06295451  1
  Li  Li5  1  0.65049653  0.24580628  0.44053159  1
  Li  Li6  1  0.31862412  0.76563687  0.56343104  1
  Li  Li7  1  0.66548914  0.10544168  0.93539034  1
  Li  Li8  1  0.24338224  0.65669252  0.94019997  1
  Li  Li9  1  0.10284126  0.67043053  0.43336493  1
  Li  Li10  1  0.22703322  0.09195971  0.44568827  1
  Li  Li11  1  0.09479595  0.22902916  0.94168967  1
  Li  Li12  1  0.99109774  0.91338215  0.02534460  1
  Li  Li13  1  0.91017116  0.99063668  0.52303743  1
  V  V0  1  0.56585365  0.43695728  0.24816165  1
  V  V1  1  0.43497111  0.56486282  0.74893532  1
  V  V2  1  0.56746340  0.99695945  0.74704449  1
  V  V3  1  0.43803340  0.00215770  0.24808447  1
  V  V4  1  0.99796652  0.56817247  0.24699319  1
  V  V5  1  0.00029466  0.43788331  0.74904292  1
  P  P0  1  0.91399046  0.78203123  0.83672887  1
  P  P1  1  0.77908726  0.91615793  0.33710953  1
  P  P2  1  0.90791588  0.32134971  0.34464552  1
  P  P3  1  0.66093570  0.66839734  0.12834550  1
  P  P4  1  0.66020053  0.66647013  0.62746244  1
  P  P5  1  0.77000171  0.32597268  0.84413940  1
  P  P6  1  0.68520334  0.22753947  0.65977685  1
  P  P7  1  0.32299889  0.90806171  0.84465026  1
  P  P8  1  0.68689149  0.08379053  0.15092086  1
  P  P9  1  0.32675803  0.77274371  0.34276976  1
  P  P10  1  0.22811134  0.68704617  0.15898885  1
  P  P11  1  0.33912156  0.33254286  0.37038689  1
  P  P12  1  0.33801427  0.33192525  0.87062724  1
  P  P13  1  0.08489344  0.68614392  0.65058234  1
  P  P14  1  0.22889997  0.08370575  0.65965663  1
  P  P15  1  0.08575506  0.22575358  0.15959031  1
  O  O0  1  0.01487845  0.77270412  0.55816901  1
  O  O1  1  0.92092054  0.75200380  0.34478847  1
  O  O2  1  0.77102726  0.01187932  0.05856161  1
  O  O3  1  0.74826164  0.92639684  0.84213088  1
  O  O4  1  0.89665202  0.63464743  0.83284341  1
  O  O5  1  0.80248524  0.67561637  0.16700766  1
  O  O6  1  0.88544972  0.48631298  0.33135523  1
  O  O7  1  0.99699687  0.22067815  0.07098782  1
  O  O8  1  0.91839330  0.33855463  0.84869437  1
  O  O9  1  0.66464039  0.81167081  0.67412327  1
  O  O10  1  0.62912181  0.90110144  0.32807099  1
  O  O11  1  0.80510359  0.51432333  0.66306538  1
  O  O12  1  0.64040377  0.67277147  0.02114473  1
  O  O13  1  0.64784878  0.67509973  0.52024553  1
  O  O14  1  0.67008328  0.51172088  0.16654785  1
  O  O15  1  0.48735310  0.88892195  0.83020288  1
  O  O16  1  0.50801940  0.81220307  0.17271160  1
  O  O17  1  0.74495643  0.33430720  0.34429763  1
  O  O18  1  0.79077322  0.21626398  0.75224032  1
  O  O19  1  0.77884697  0.21542273  0.57081983  1
  O  O20  1  0.74832738  0.25064557  0.93154554  1
  O  O21  1  0.62729308  0.49147847  0.82563757  1
  O  O22  1  0.50692176  0.67538297  0.66850073  1
  O  O23  1  0.66292187  0.25058387  0.16093387  1
  O  O24  1  0.49180370  0.62888898  0.32608744  1
  O  O25  1  0.34163617  0.92150535  0.34770642  1
  O  O26  1  0.80030238  0.98547082  0.23798619  1
  O  O27  1  0.77237225  0.02316235  0.41706326  1
  O  O28  1  0.23420422  0.99095847  0.57101186  1
  O  O29  1  0.66111246  0.08651119  0.66410354  1
  O  O30  1  0.53285352  0.38500303  0.66502393  1
  O  O31  1  0.33814823  0.74444625  0.84585550  1
  O  O32  1  0.48340351  0.33911169  0.32575301  1
  O  O33  1  0.38397353  0.53312446  0.16745341  1
  O  O34  1  0.22125187  0.77793990  0.06914550  1
  O  O35  1  0.24937388  0.75427239  0.43002606  1
  O  O36  1  0.21879860  0.79518724  0.25048250  1
  O  O37  1  0.24997583  0.66738413  0.66255941  1
  O  O38  1  0.48693995  0.17963248  0.83211642  1
  O  O39  1  0.53317524  0.08108173  0.16169455  1
  O  O40  1  0.34042347  0.47858365  0.82323973  1
  O  O41  1  0.34645658  0.34781940  0.97673290  1
  O  O42  1  0.36894020  0.30346999  0.47532190  1
  O  O43  1  0.18785613  0.48194861  0.34142726  1
  O  O44  1  0.37959437  0.09287692  0.67251134  1
  O  O45  1  0.33795051  0.18606236  0.32032078  1
  O  O46  1  0.08564238  0.66827964  0.16296100  1
  O  O47  1  0.98190253  0.80137333  0.73664158  1
  O  O48  1  0.01924549  0.78338309  0.91569650  1
  O  O49  1  0.08803554  0.53128685  0.66114759  1
  O  O50  1  0.19125719  0.32860273  0.83348284  1
  O  O51  1  0.09676796  0.37336254  0.17045972  1
  O  O52  1  0.24897182  0.07684089  0.16166794  1
  O  O53  1  0.24426076  0.00150890  0.93372311  1
  O  O54  1  0.21475012  0.99516786  0.75320704  1
  O  O55  1  0.08229119  0.24477435  0.65979405  1
  O  O56  1  0.00026864  0.23958385  0.43398354  1
  O  O57  1  0.99724950  0.21172127  0.25354218  1
loop_
_geom_bond_atom_site_label_1
_geom_bond_atom_site_label_2
_geom_bond_distance
_geom_bond_site_symmetry_2
Li0 O55 1.977730 1_655
Li0 O19 2.007681 1_555
Li0 O56 2.016649 1_655
Li0 O11 2.153148 1_555
Li1 O13 1.889753 1_555
Li1 O6 2.105287 1_555
Li1 O10 2.207113 1_555
Li1 O24 2.254233 1_555
Li2 O12 1.890369 1_556
Li2 O4 2.138933 1_555
Li2 O15 2.173899 1_555
Li2 O21 2.278384 1_555
Li3 O7 1.962285 1_555
Li3 O20 1.987982 1_554
Li3 O23 2.013915 1_555
Li3 O14 2.199608 1_555
Li4 O34 1.983856 1_555
Li4 O52 1.992908 1_565
Li4 O53 2.002878 1_564
Li4 O16 2.191692 1_555
Li5 O27 1.931776 1_555
Li5 O17 2.075289 1_555
Li5 O19 2.138990 1_555
Li5 O32 2.142815 1_555
Li5 O42 2.597555 1_555
Li6 O28 1.945778 1_555
Li6 O35 1.995421 1_555
Li6 O37 2.005744 1_555
Li6 O22 2.171036 1_555
Li7 O20 1.969354 1_555
Li7 O2 1.982160 1_556
Li7 O3 2.001737 1_545
Li7 O38 2.096704 1_555
Li8 O48 1.953938 1_555
Li8 O31 2.055201 1_555
Li8 O34 2.099109 1_556
Li8 O40 2.226337 1_555
Li9 O0 1.982486 1_555
Li9 O1 1.982516 1_455
Li9 O35 1.990938 1_555
Li9 O43 2.052775 1_555
Li10 O56 1.978727 1_555
Li10 O28 2.006879 1_545
Li10 O25 2.015712 1_545
Li10 O45 2.494965 1_555
Li11 O53 1.980445 1_555
Li11 O8 1.997298 1_455
Li11 O7 2.080578 1_456
Li11 O50 2.270819 1_555
Li12 O48 1.914032 1_654
Li12 O2 1.949235 1_565
Li12 O34 2.070751 1_655
Li13 O27 1.914225 1_565
Li13 O0 1.929603 1_655
Li13 O19 2.039143 1_565
O0 P13 1.512435 1_555
O1 P1 1.528690 1_555
O1 V4 2.076726 1_555
O2 P8 1.508342 1_555
O3 P0 1.547198 1_555
O3 V2 2.038654 1_555
O4 P0 1.543106 1_555
O4 V5 2.042504 1_655
O5 P3 1.524724 1_555
O5 V4 2.008243 1_555
O6 P2 1.539436 1_555
O6 V4 2.054571 1_555
O7 P15 1.520130 1_655
O8 P5 1.530472 1_555
O8 V5 2.097221 1_655
O9 P4 1.582802 1_555
O9 V2 1.877065 1_555
O10 P1 1.562485 1_555
O10 V3 1.975177 1_565
O11 P4 1.552061 1_555
O11 V5 2.058689 1_655
O12 P3 1.505547 1_555
O13 P4 1.500005 1_555
O14 P3 1.598035 1_555
O14 V0 1.925097 1_555
O15 P7 1.553420 1_555
O15 V2 1.999600 1_555
O16 P3 1.596002 1_555
O16 V3 1.940472 1_565
O17 P2 1.549205 1_555
O17 V0 2.035444 1_555
O18 P5 1.613719 1_555
O18 P6 1.617091 1_555
O19 P6 1.526397 1_555
O20 P5 1.507876 1_555
O21 P5 1.558105 1_555
O21 V1 1.968196 1_555
O22 P4 1.586422 1_555
O22 V1 1.942073 1_555
O23 P8 1.542791 1_555
O23 V0 1.998456 1_555
O24 P9 1.557239 1_555
O24 V0 1.970496 1_555
O25 P9 1.543103 1_555
O25 V3 2.070575 1_565
O26 P8 1.607600 1_565
O26 P1 1.612327 1_555
O27 P1 1.503487 1_545
O28 P14 1.513681 1_565
O29 P6 1.522447 1_555
O29 V2 1.959418 1_545
O30 P6 1.534656 1_555
O30 V1 1.928149 1_555
O31 P7 1.542108 1_555
O31 V1 2.040435 1_555
O32 P11 1.593317 1_555
O32 V0 1.896013 1_555
O33 P10 1.536844 1_555
O33 V0 1.916399 1_555
O34 P10 1.531587 1_555
O35 P9 1.506832 1_555
O36 P9 1.605913 1_555
O36 P10 1.625474 1_555
O37 P13 1.553021 1_555
O37 V1 1.986822 1_555
O38 P12 1.584303 1_555
O38 V2 1.955857 1_545
O39 P8 1.540308 1_555
O39 V3 1.929232 1_555
O40 P12 1.607057 1_555
O40 V1 1.872601 1_555
O41 P12 1.492771 1_555
O42 P11 1.493188 1_555
O43 P11 1.540925 1_555
O43 V4 2.086132 1_455
O44 P14 1.542225 1_555
O44 V2 1.909517 1_545
O45 P11 1.598964 1_555
O45 V3 1.863644 1_555
O46 P10 1.508470 1_555
O46 V4 2.000759 1_455
O47 P0 1.611903 1_555
O47 P13 1.617480 1_655
O48 P0 1.508488 1_455
O49 P13 1.518346 1_555
O49 V5 1.988052 1_555
O50 P12 1.547191 1_555
O50 V5 2.014350 1_555
O51 P15 1.515410 1_555
O51 V4 1.971581 1_455
O52 P15 1.549279 1_555
O52 V3 2.018977 1_555
O53 P7 1.510938 1_545
O54 P7 1.608556 1_555
O54 P14 1.625197 1_565
O55 P14 1.526430 1_555
O55 V5 2.063394 1_555
O56 P2 1.516697 1_455
O57 P2 1.615361 1_555
O57 P15 1.630862 1_655
