# generated using pymatgen
data_Tb2Ni2Sn
_symmetry_space_group_name_H-M   'P 1'
_cell_length_a   3.64698465
_cell_length_b   7.35628306
_cell_length_c   7.35628306
_cell_angle_alpha   90.00000000
_cell_angle_beta   90.00000000
_cell_angle_gamma   90.00000000
_symmetry_Int_Tables_number   1
_chemical_formula_structural   Tb2Ni2Sn
_chemical_formula_sum   'Tb4 Ni4 Sn2'
_cell_volume   197.35621131
_cell_formula_units_Z   2
loop_
 _symmetry_equiv_pos_site_id
 _symmetry_equiv_pos_as_xyz
  1  'x, y, z'
loop_
 _atom_site_type_symbol
 _atom_site_label
 _atom_site_symmetry_multiplicity
 _atom_site_fract_x
 _atom_site_fract_y
 _atom_site_fract_z
 _atom_site_occupancy
  Tb  Tb0  1  0.50000000  0.17597262  0.67597262  1
  Tb  Tb1  1  0.50000000  0.82402738  0.32402738  1
  Tb  Tb2  1  0.50000000  0.32402738  0.17597262  1
  Tb  Tb3  1  0.50000000  0.67597262  0.82402738  1
  Ni  Ni0  1  0.00000000  0.38154405  0.88154405  1
  Ni  Ni1  1  -0.00000000  0.61845595  0.11845595  1
  Ni  Ni2  1  0.00000000  0.11845595  0.38154405  1
  Ni  Ni3  1  -0.00000000  0.88154405  0.61845595  1
  Sn  Sn0  1  -0.00000000  0.50000000  0.50000000  1
  Sn  Sn1  1  0.00000000  0.00000000  -0.00000000  1
loop_
_geom_bond_atom_site_label_1
_geom_bond_atom_site_label_2
_geom_bond_distance
_geom_bond_site_symmetry_2
Ni0 Ni1 2.464679 1_556
Ni0 Tb0 2.810494 1_455
Ni0 Tb0 2.810494 1_555
Ni0 Tb3 2.862738 1_455
Ni0 Tb3 2.862738 1_555
Ni0 Tb2 2.862738 1_556
Ni0 Tb2 2.862738 1_456
Ni0 Sn0 2.938903 1_555
Ni0 Sn1 2.938903 1_556
Ni1 Tb1 2.810494 1_455
Ni1 Tb1 2.810494 1_555
Ni1 Tb2 2.862738 1_455
Ni1 Tb2 2.862738 1_555
Ni1 Tb3 2.862738 1_554
Ni1 Tb3 2.862738 1_454
Ni1 Sn0 2.938903 1_555
Ni1 Sn1 2.938903 1_565
Ni2 Ni3 2.464679 1_545
Ni2 Tb2 2.810494 1_555
Ni2 Tb2 2.810494 1_455
Ni2 Tb0 2.862738 1_455
Ni2 Tb1 2.862738 1_445
Ni2 Tb1 2.862738 1_545
Ni2 Tb0 2.862738 1_555
Ni2 Sn0 2.938903 1_555
Ni2 Sn1 2.938903 1_555
Ni3 Tb3 2.810494 1_555
Ni3 Tb3 2.810494 1_455
Ni3 Tb0 2.862738 1_565
Ni3 Tb0 2.862738 1_465
Ni3 Tb1 2.862738 1_555
Ni3 Tb1 2.862738 1_455
Ni3 Sn1 2.938903 1_566
Ni3 Sn0 2.938903 1_555
Sn0 Tb2 3.268423 1_555
Sn0 Tb2 3.268423 1_455
Sn0 Tb3 3.268423 1_455
Sn0 Tb0 3.268423 1_555
Sn0 Tb3 3.268423 1_555
Sn0 Tb1 3.268423 1_455
Sn0 Tb0 3.268423 1_455
Sn0 Tb1 3.268423 1_555
Sn1 Tb0 3.268423 1_454
Sn1 Tb0 3.268423 1_554
Sn1 Tb2 3.268423 1_455
Sn1 Tb2 3.268423 1_555
Sn1 Tb1 3.268423 1_545
Sn1 Tb3 3.268423 1_544
Sn1 Tb3 3.268423 1_444
Sn1 Tb1 3.268423 1_445
