# generated using pymatgen
data_CeZn3
_symmetry_space_group_name_H-M   'P 1'
_cell_length_a   4.48180358
_cell_length_b   6.53237652
_cell_length_c   10.14031258
_cell_angle_alpha   90.00000000
_cell_angle_beta   90.00000000
_cell_angle_gamma   90.00000000
_symmetry_Int_Tables_number   1
_chemical_formula_structural   CeZn3
_chemical_formula_sum   'Ce4 Zn12'
_cell_volume   296.87619207
_cell_formula_units_Z   4
loop_
 _symmetry_equiv_pos_site_id
 _symmetry_equiv_pos_as_xyz
  1  'x, y, z'
loop_
 _atom_site_type_symbol
 _atom_site_label
 _atom_site_symmetry_multiplicity
 _atom_site_fract_x
 _atom_site_fract_y
 _atom_site_fract_z
 _atom_site_occupancy
  Ce  Ce0  1  0.75000000  0.22963005  0.84626631  1
  Ce  Ce1  1  0.75000000  0.72963005  0.65373369  1
  Ce  Ce2  1  0.25000000  0.77036995  0.15373369  1
  Ce  Ce3  1  0.25000000  0.27036995  0.34626631  1
  Zn  Zn0  1  0.75000000  0.95712894  0.38290300  1
  Zn  Zn1  1  0.75000000  0.45712894  0.11709700  1
  Zn  Zn2  1  0.25000000  0.04287106  0.61709700  1
  Zn  Zn3  1  0.25000000  0.54287106  0.88290300  1
  Zn  Zn4  1  0.75000000  0.57891677  0.35868565  1
  Zn  Zn5  1  0.75000000  0.07891677  0.14131435  1
  Zn  Zn6  1  0.25000000  0.42108323  0.64131435  1
  Zn  Zn7  1  0.25000000  0.92108323  0.85868565  1
  Zn  Zn8  1  0.75000000  0.26723948  0.54524348  1
  Zn  Zn9  1  0.75000000  0.76723948  0.95475652  1
  Zn  Zn10  1  0.25000000  0.73276052  0.45475652  1
  Zn  Zn11  1  0.25000000  0.23276052  0.04524348  1
loop_
_geom_bond_atom_site_label_1
_geom_bond_atom_site_label_2
_geom_bond_distance
_geom_bond_site_symmetry_2
Ce0 Zn11 3.015483 1_656
Ce0 Zn11 3.015483 1_556
Ce0 Zn7 3.016607 1_645
Ce0 Zn7 3.016607 1_545
Ce0 Zn3 3.057225 1_555
Ce0 Zn3 3.057225 1_655
Ce0 Zn8 3.062336 1_555
Ce0 Zn1 3.122615 1_556
Ce0 Zn5 3.149701 1_556
Ce0 Zn9 3.214615 1_545
Ce0 Zn6 3.302270 1_655
Ce0 Zn6 3.302270 1_555
Ce0 Zn2 3.451125 1_655
Ce0 Zn2 3.451125 1_555
Ce1 Zn10 3.015483 1_555
Ce1 Zn10 3.015483 1_655
Ce1 Zn6 3.016607 1_655
Ce1 Zn6 3.016607 1_555
Ce1 Zn2 3.057225 1_565
Ce1 Zn2 3.057225 1_665
Ce1 Zn9 3.062336 1_555
Ce1 Zn0 3.122615 1_555
Ce1 Zn4 3.149701 1_555
Ce1 Zn8 3.214615 1_555
Ce1 Zn7 3.302270 1_555
Ce1 Zn7 3.302270 1_655
Ce1 Zn3 3.451125 1_555
Ce1 Zn3 3.451125 1_655
Ce2 Zn9 3.015483 1_554
Ce2 Zn9 3.015483 1_454
Ce2 Zn5 3.016607 1_565
Ce2 Zn5 3.016607 1_465
Ce2 Zn1 3.057225 1_555
Ce2 Zn1 3.057225 1_455
Ce2 Zn10 3.062336 1_555
Ce2 Zn3 3.122615 1_554
Ce2 Zn7 3.149701 1_554
Ce2 Zn11 3.214615 1_565
Ce2 Zn4 3.302270 1_555
Ce2 Zn4 3.302270 1_455
Ce2 Zn0 3.451125 1_455
Ce2 Zn0 3.451125 1_555
Ce3 Zn8 3.015483 1_555
Ce3 Zn8 3.015483 1_455
Ce3 Zn4 3.016607 1_555
Ce3 Zn4 3.016607 1_455
Ce3 Zn0 3.057225 1_445
Ce3 Zn0 3.057225 1_545
Ce3 Zn11 3.062336 1_555
Ce3 Zn2 3.122615 1_555
Ce3 Zn6 3.149701 1_555
Ce3 Zn10 3.214615 1_555
Ce3 Zn5 3.302270 1_455
Ce3 Zn5 3.302270 1_555
Ce3 Zn1 3.451125 1_555
Ce3 Zn1 3.451125 1_455
Zn0 Zn4 2.482799 1_555
Zn0 Zn5 2.575726 1_565
Zn0 Zn8 2.610291 1_565
Zn0 Zn10 2.775010 1_655
Zn0 Zn10 2.775010 1_555
Zn1 Zn5 2.482799 1_555
Zn1 Zn4 2.575726 1_555
Zn1 Zn9 2.610291 1_554
Zn1 Zn11 2.775010 1_555
Zn1 Zn11 2.775010 1_655
Zn2 Zn6 2.482799 1_555
Zn2 Zn7 2.575726 1_545
Zn2 Zn8 2.775010 1_455
Zn2 Zn8 2.775010 1_555
Zn3 Zn7 2.482799 1_555
Zn3 Zn6 2.575726 1_555
Zn3 Zn9 2.775010 1_455
Zn3 Zn9 2.775010 1_555
Zn4 Zn8 2.779209 1_555
Zn5 Zn9 2.779209 1_544
Zn6 Zn8 2.642090 1_455
Zn6 Zn8 2.642090 1_555
Zn7 Zn9 2.642090 1_555
Zn7 Zn9 2.642090 1_455
Zn10 Zn2 2.610291 1_565
Zn10 Zn4 2.642090 1_455
Zn10 Zn4 2.642090 1_555
Zn10 Zn6 2.779209 1_555
Zn11 Zn3 2.610291 1_554
Zn11 Zn5 2.642090 1_455
Zn11 Zn5 2.642090 1_555
Zn11 Zn7 2.779209 1_544
