# generated using pymatgen
data_Pd5Pb3
_symmetry_space_group_name_H-M   'P 1'
_cell_length_a   7.36513974
_cell_length_b   7.36513974
_cell_length_c   7.45986698
_cell_angle_alpha   63.99181866
_cell_angle_beta   63.99181866
_cell_angle_gamma   64.21409134
_symmetry_Int_Tables_number   1
_chemical_formula_structural   Pd5Pb3
_chemical_formula_sum   'Pd10 Pb6'
_cell_volume   311.74568956
_cell_formula_units_Z   2
loop_
 _symmetry_equiv_pos_site_id
 _symmetry_equiv_pos_as_xyz
  1  'x, y, z'
loop_
 _atom_site_type_symbol
 _atom_site_label
 _atom_site_symmetry_multiplicity
 _atom_site_fract_x
 _atom_site_fract_y
 _atom_site_fract_z
 _atom_site_occupancy
  Pd  Pd0  1  0.37626200  0.96267500  0.65627500  1
  Pd  Pd1  1  0.03732500  0.62373800  0.34372500  1
  Pd  Pd2  1  0.79274300  0.04491000  0.41196000  1
  Pd  Pd3  1  0.95509000  0.20725700  0.58804000  1
  Pd  Pd4  1  0.44960100  0.71597500  0.08511400  1
  Pd  Pd5  1  0.28402500  0.55039900  0.91488600  1
  Pd  Pd6  1  0.62463000  0.88359900  0.24138300  1
  Pd  Pd7  1  0.11640100  0.37537000  0.75861700  1
  Pd  Pd8  1  0.20449900  0.13178200  0.16754700  1
  Pd  Pd9  1  0.86821800  0.79550100  0.83245300  1
  Pb  Pb0  1  0.41076700  0.29654900  0.28978500  1
  Pb  Pb1  1  0.70345100  0.58923300  0.71021500  1
  Pb  Pb2  1  0.01121800  0.98878200  0.00000000  1
  Pb  Pb3  1  0.24097800  0.75902200  0.50000000  1
  Pb  Pb4  1  0.83606200  0.46527100  0.20704400  1
  Pb  Pb5  1  0.53472900  0.16393800  0.79295600  1
loop_
_geom_bond_atom_site_label_1
_geom_bond_atom_site_label_2
_geom_bond_distance
_geom_bond_site_symmetry_2
Pd0 Pd2 2.973733 1_565
Pd0 Pd3 2.974136 1_465
Pd0 Pd5 2.985186 1_555
Pd0 Pd6 2.992218 1_555
Pd0 Pd7 3.029392 1_565
Pd0 Pd4 3.064502 1_556
Pd1 Pd3 2.973733 1_455
Pd1 Pd2 2.974136 1_465
Pd1 Pd4 2.985186 1_555
Pd1 Pd7 2.992218 1_555
Pd1 Pd6 3.029392 1_455
Pd1 Pd5 3.064502 1_554
Pd2 Pd6 2.924256 1_545
Pd2 Pd3 2.929765 1_555
Pd2 Pd8 2.957442 1_655
Pd2 Pd9 3.018349 1_545
Pd3 Pd7 2.924256 1_655
Pd3 Pd9 2.957442 1_545
Pd3 Pd8 3.018349 1_655
Pd4 Pd6 2.917139 1_555
Pd4 Pd5 2.932066 1_554
Pd4 Pd8 2.980590 1_565
Pd4 Pd9 2.984642 1_554
Pd5 Pd7 2.917139 1_555
Pd5 Pd9 2.980590 1_455
Pd5 Pd8 2.984642 1_556
Pd6 Pd9 2.978088 1_554
Pd6 Pd8 2.985008 1_565
Pd7 Pd8 2.978088 1_556
Pd7 Pd9 2.985008 1_455
Pb0 Pd0 2.761225 1_545
Pb0 Pd1 2.765372 1_555
Pb0 Pd6 2.856237 1_545
Pb0 Pd4 2.864442 1_555
Pb0 Pd5 2.893768 1_554
Pb0 Pd8 2.898533 1_555
Pb0 Pd2 2.900216 1_555
Pb0 Pd3 3.276392 1_455
Pb0 Pd7 3.362306 1_555
Pb1 Pd1 2.761225 1_655
Pb1 Pd0 2.765372 1_555
Pb1 Pd7 2.856237 1_655
Pb1 Pd5 2.864442 1_555
Pb1 Pd4 2.893768 1_556
Pb1 Pd9 2.898533 1_555
Pb1 Pd3 2.900216 1_555
Pb1 Pd2 3.276392 1_565
Pb1 Pd6 3.362306 1_555
Pb2 Pd1 2.788727 1_555
Pb2 Pd0 2.788727 1_554
Pb2 Pd6 2.854615 1_455
Pb2 Pd7 2.854615 1_564
Pb2 Pd3 2.898808 1_464
Pb2 Pd2 2.898808 1_465
Pb2 Pd9 2.952494 1_454
Pb2 Pd8 2.952494 1_565
Pb2 Pd5 3.146428 1_554
Pb2 Pd4 3.146428 1_555
Pb3 Pd8 2.780564 1_565
Pb3 Pd9 2.780564 1_455
Pb3 Pd5 2.882109 1_555
Pb3 Pd4 2.882109 1_555
Pb3 Pd0 2.907599 1_555
Pb3 Pd1 2.907599 1_555
Pb3 Pd6 2.910415 1_555
Pb3 Pd7 2.910415 1_555
Pb3 Pd3 3.225610 1_465
Pb3 Pd2 3.225610 1_465
Pb4 Pd8 2.760071 1_655
Pb4 Pd9 2.782179 1_554
Pb4 Pd6 2.855082 1_555
Pb4 Pd2 2.881832 1_555
Pb4 Pd3 2.908051 1_555
Pb4 Pd1 2.910927 1_655
Pb4 Pd4 2.926344 1_555
Pb4 Pd5 3.213047 1_654
Pb4 Pd7 3.253867 1_654
Pb5 Pd9 2.760071 1_545
Pb5 Pd8 2.782179 1_556
Pb5 Pd7 2.855082 1_555
Pb5 Pd3 2.881832 1_555
Pb5 Pd2 2.908051 1_555
Pb5 Pd0 2.910927 1_545
Pb5 Pd5 2.926344 1_555
Pb5 Pd4 3.213047 1_546
Pb5 Pd6 3.253867 1_546
