# generated using pymatgen
data_KLiLu2(MoO4)4
_symmetry_space_group_name_H-M   'P 1'
_cell_length_a   6.82711031
_cell_length_b   6.82711031
_cell_length_c   19.50346498
_cell_angle_alpha   88.79504359
_cell_angle_beta   88.79504359
_cell_angle_gamma   135.14181731
_symmetry_Int_Tables_number   1
_chemical_formula_structural   KLiLu2(MoO4)4
_chemical_formula_sum   'K2 Li2 Lu4 Mo8 O32'
_cell_volume   640.22458781
_cell_formula_units_Z   2
loop_
 _symmetry_equiv_pos_site_id
 _symmetry_equiv_pos_as_xyz
  1  'x, y, z'
loop_
 _atom_site_type_symbol
 _atom_site_label
 _atom_site_symmetry_multiplicity
 _atom_site_fract_x
 _atom_site_fract_y
 _atom_site_fract_z
 _atom_site_occupancy
  K  K0  1  0.53089000  0.46911000  0.25000000  1
  K  K1  1  0.46911000  0.53089000  0.75000000  1
  Li  Li0  1  0.81367400  0.18632600  0.25000000  1
  Li  Li1  1  0.18632600  0.81367400  0.75000000  1
  Lu  Lu0  1  0.64812500  0.35259600  0.03245200  1
  Lu  Lu1  1  0.35187500  0.64740400  0.96754800  1
  Lu  Lu2  1  0.64740400  0.35187500  0.46754800  1
  Lu  Lu3  1  0.35259600  0.64812500  0.53245200  1
  Mo  Mo0  1  0.91797700  0.04227400  0.09089200  1
  Mo  Mo1  1  0.08202300  0.95772600  0.90910800  1
  Mo  Mo2  1  0.95772600  0.08202300  0.40910800  1
  Mo  Mo3  1  0.04227400  0.91797700  0.59089200  1
  Mo  Mo4  1  0.23139400  0.74761900  0.14683900  1
  Mo  Mo5  1  0.76860600  0.25238100  0.85316100  1
  Mo  Mo6  1  0.25238100  0.76860600  0.35316100  1
  Mo  Mo7  1  0.74761900  0.23139400  0.64683900  1
  O  O0  1  0.65979700  0.00229100  0.04100200  1
  O  O1  1  0.34020300  0.99770900  0.95899800  1
  O  O2  1  0.99770900  0.34020300  0.45899800  1
  O  O3  1  0.00229100  0.65979700  0.54100200  1
  O  O4  1  0.49183600  0.76895600  0.17281500  1
  O  O5  1  0.50816400  0.23104400  0.82718500  1
  O  O6  1  0.23104400  0.50816400  0.32718500  1
  O  O7  1  0.76895600  0.49183600  0.67281500  1
  O  O8  1  0.71719400  0.75614900  0.46383200  1
  O  O9  1  0.28280600  0.24385100  0.53616800  1
  O  O10  1  0.24385100  0.28280600  0.03616800  1
  O  O11  1  0.75614900  0.71719400  0.96383200  1
  O  O12  1  0.44308100  0.92333800  0.43470800  1
  O  O13  1  0.55691900  0.07666200  0.56529200  1
  O  O14  1  0.07666200  0.55691900  0.06529200  1
  O  O15  1  0.92333800  0.44308100  0.93470800  1
  O  O16  1  0.79871500  0.98040300  0.32946000  1
  O  O17  1  0.20128500  0.01959700  0.67054000  1
  O  O18  1  0.01959700  0.20128500  0.17054000  1
  O  O19  1  0.98040300  0.79871500  0.82946000  1
  O  O20  1  0.71625900  0.81197600  0.60064500  1
  O  O21  1  0.28374100  0.18802400  0.39935500  1
  O  O22  1  0.18802400  0.28374100  0.89935500  1
  O  O23  1  0.81197600  0.71625900  0.10064500  1
  O  O24  1  0.40579300  0.10534300  0.13004600  1
  O  O25  1  0.59420700  0.89465700  0.86995400  1
  O  O26  1  0.89465700  0.59420700  0.36995400  1
  O  O27  1  0.10534300  0.40579300  0.63004600  1
  O  O28  1  0.43383000  0.02897100  0.28599000  1
  O  O29  1  0.56617000  0.97102900  0.71401000  1
  O  O30  1  0.97102900  0.56617000  0.21401000  1
  O  O31  1  0.02897100  0.43383000  0.78599000  1
loop_
_geom_bond_atom_site_label_1
_geom_bond_atom_site_label_2
_geom_bond_distance
_geom_bond_site_symmetry_2
K0 O28 2.651404 1_555
K0 O30 2.651404 1_555
K0 O6 2.681204 1_555
K0 O4 2.681204 1_555
K0 O18 3.037723 1_555
K0 O16 3.037723 1_555
K0 O24 3.113169 1_555
K0 O26 3.113169 1_555
K0 O23 3.159512 1_555
K0 O21 3.159512 1_555
K1 O31 2.651404 1_555
K1 O29 2.651404 1_555
K1 O5 2.681204 1_555
K1 O7 2.681204 1_555
K1 O19 3.037723 1_555
K1 O17 3.037723 1_555
K1 O27 3.113169 1_555
K1 O25 3.113169 1_555
K1 O20 3.159512 1_555
K1 O22 3.159512 1_555
Li0 O16 2.021569 1_545
Li0 O18 2.021569 1_655
Li0 O30 2.076980 1_555
Li0 O28 2.076980 1_555
Li1 O19 2.021569 1_455
Li1 O17 2.021569 1_565
Li1 O29 2.076980 1_555
Li1 O31 2.076980 1_555
Lu0 O24 2.232204 1_555
Lu0 O14 2.290450 1_655
Lu0 O1 2.322420 1_544
Lu0 O23 2.334184 1_555
Lu0 O15 2.387544 1_554
Lu0 O11 2.397236 1_554
Lu0 O10 2.444539 1_555
Lu0 O0 2.451068 1_555
Lu1 O25 2.232204 1_555
Lu1 O15 2.290450 1_455
Lu1 O0 2.322420 1_566
Lu1 O22 2.334184 1_555
Lu1 O14 2.387544 1_556
Lu1 O10 2.397236 1_556
Lu1 O11 2.444539 1_555
Lu1 O1 2.451068 1_555
Lu2 O26 2.232204 1_555
Lu2 O12 2.290450 1_545
Lu2 O3 2.322420 1_655
Lu2 O21 2.334184 1_555
Lu2 O13 2.387544 1_555
Lu2 O9 2.397236 1_555
Lu2 O8 2.444539 1_555
Lu2 O2 2.451068 1_555
Lu3 O27 2.232204 1_555
Lu3 O13 2.290450 1_565
Lu3 O2 2.322420 1_455
Lu3 O20 2.334184 1_555
Lu3 O12 2.387544 1_555
Lu3 O8 2.397236 1_555
Lu3 O9 2.444539 1_555
Lu3 O3 2.451068 1_555
Mo0 O18 1.766751 1_655
Mo0 O23 1.790721 1_545
Mo0 O10 1.852665 1_655
Mo0 O0 1.878649 1_555
Mo1 O19 1.766751 1_455
Mo1 O22 1.790721 1_565
Mo1 O11 1.852665 1_455
Mo1 O1 1.878649 1_555
Mo2 O16 1.766751 1_545
Mo2 O21 1.790721 1_655
Mo2 O8 1.852665 1_545
Mo2 O2 1.878649 1_555
Mo3 O17 1.766751 1_565
Mo3 O20 1.790721 1_455
Mo3 O9 1.852665 1_565
Mo3 O3 1.878649 1_555
Mo4 O4 1.764424 1_555
Mo4 O30 1.767070 1_455
Mo4 O24 1.821228 1_565
Mo4 O14 1.883723 1_555
Mo5 O5 1.764424 1_555
Mo5 O31 1.767070 1_655
Mo5 O25 1.821228 1_545
Mo5 O15 1.883723 1_555
Mo6 O6 1.764424 1_555
Mo6 O28 1.767070 1_565
Mo6 O26 1.821228 1_455
Mo6 O12 1.883723 1_555
Mo7 O7 1.764424 1_555
Mo7 O29 1.767070 1_545
Mo7 O27 1.821228 1_655
Mo7 O13 1.883723 1_555
