# generated using pymatgen
data_Cd(CoO2)2
_symmetry_space_group_name_H-M   'P 1'
_cell_length_a   6.28785278
_cell_length_b   6.13537628
_cell_length_c   6.28968379
_cell_angle_alpha   59.11078490
_cell_angle_beta   89.91368417
_cell_angle_gamma   59.12273367
_symmetry_Int_Tables_number   1
_chemical_formula_structural   Cd(CoO2)2
_chemical_formula_sum   'Cd2 Co4 O8'
_cell_volume   167.03073630
_cell_formula_units_Z   2
loop_
 _symmetry_equiv_pos_site_id
 _symmetry_equiv_pos_as_xyz
  1  'x, y, z'
loop_
 _atom_site_type_symbol
 _atom_site_label
 _atom_site_symmetry_multiplicity
 _atom_site_fract_x
 _atom_site_fract_y
 _atom_site_fract_z
 _atom_site_occupancy
  Cd  Cd0  1  0.00000900  0.99997500  0.00002800  1
  Cd  Cd1  1  0.24999200  0.50002500  0.74997400  1
  Co  Co0  1  0.62500000  0.75000000  0.37500000  1
  Co  Co1  1  0.62500000  0.75000000  0.87500000  1
  Co  Co2  1  0.12500100  0.25000000  0.37500000  1
  Co  Co3  1  0.62500000  0.25000000  0.37500000  1
  O  O0  1  0.85504200  0.28989900  0.14106400  1
  O  O1  1  0.39489400  0.21016400  0.18101600  1
  O  O2  1  0.85891800  0.70996200  0.14526700  1
  O  O3  1  0.43112400  0.70997400  0.14467700  1
  O  O4  1  0.39495600  0.21010100  0.60893400  1
  O  O5  1  0.85510400  0.28983900  0.56898300  1
  O  O6  1  0.39108300  0.79003700  0.60473300  1
  O  O7  1  0.81887700  0.79002500  0.60532200  1
loop_
_geom_bond_atom_site_label_1
_geom_bond_atom_site_label_2
_geom_bond_distance
_geom_bond_site_symmetry_2
Cd0 O0 2.176089 1_465
Cd0 O2 2.176339 1_455
Cd0 O3 2.176391 1_555
Cd0 O5 2.176448 1_464
Cd1 O4 2.176109 1_555
Cd1 O6 2.176334 1_555
Cd1 O7 2.176391 1_455
Cd1 O1 2.176433 1_556
Co0 O5 1.956687 1_555
Co0 O1 1.956700 1_565
Co0 O6 2.073347 1_555
Co0 O2 2.073352 1_555
Co0 O7 2.079154 1_555
Co0 O3 2.079160 1_555
Co1 O0 1.956353 1_556
Co1 O4 1.956354 1_565
Co1 O3 2.072877 1_556
Co1 O7 2.072886 1_555
Co1 O2 2.078772 1_556
Co1 O6 2.078772 1_555
Co2 O2 1.955837 1_455
Co2 O6 1.955840 1_545
Co2 O1 2.074262 1_555
Co2 O5 2.074277 1_455
Co2 O4 2.077825 1_555
Co2 O0 2.077852 1_455
Co3 O3 1.955896 1_555
Co3 O7 1.955900 1_545
Co3 O0 2.074697 1_555
Co3 O4 2.074699 1_555
Co3 O1 2.077566 1_555
Co3 O5 2.077567 1_555
