# generated using pymatgen
data_Na2Sn2Se5
_symmetry_space_group_name_H-M   'P 1'
_cell_length_a   11.87059500
_cell_length_b   12.70977000
_cell_length_c   14.30867400
_cell_angle_alpha   90.00000000
_cell_angle_beta   90.00000000
_cell_angle_gamma   90.00000000
_symmetry_Int_Tables_number   1
_chemical_formula_structural   Na2Sn2Se5
_chemical_formula_sum   'Na16 Sn16 Se40'
_cell_volume   2158.78587899
_cell_formula_units_Z   8
loop_
 _symmetry_equiv_pos_site_id
 _symmetry_equiv_pos_as_xyz
  1  'x, y, z'
loop_
 _atom_site_type_symbol
 _atom_site_label
 _atom_site_symmetry_multiplicity
 _atom_site_fract_x
 _atom_site_fract_y
 _atom_site_fract_z
 _atom_site_occupancy
  Na  Na0  1  0.75016300  0.75436800  0.71280500  1
  Na  Na1  1  0.25016300  0.24563200  0.78719500  1
  Na  Na2  1  0.74983700  0.25436800  0.28719500  1
  Na  Na3  1  0.24983700  0.74563200  0.21280500  1
  Na  Na4  1  0.24983700  0.24563200  0.28719500  1
  Na  Na5  1  0.74983700  0.75436800  0.21280500  1
  Na  Na6  1  0.25016300  0.74563200  0.71280500  1
  Na  Na7  1  0.75016300  0.25436800  0.78719500  1
  Na  Na8  1  0.00533600  0.50120100  0.76141000  1
  Na  Na9  1  0.50533600  0.49879900  0.73859000  1
  Na  Na10  1  0.49466400  0.00120100  0.23859000  1
  Na  Na11  1  0.99466400  0.99879900  0.26141000  1
  Na  Na12  1  0.99466400  0.49879900  0.23859000  1
  Na  Na13  1  0.49466400  0.50120100  0.26141000  1
  Na  Na14  1  0.50533600  0.99879900  0.76141000  1
  Na  Na15  1  0.00533600  0.00120100  0.73859000  1
  Sn  Sn0  1  0.55637300  0.71887000  0.94562700  1
  Sn  Sn1  1  0.76526100  0.46819800  0.52793700  1
  Sn  Sn2  1  0.26526100  0.53180200  0.97206300  1
  Sn  Sn3  1  0.73473900  0.96819800  0.47206300  1
  Sn  Sn4  1  0.23473900  0.03180200  0.02793700  1
  Sn  Sn5  1  0.23473900  0.53180200  0.47206300  1
  Sn  Sn6  1  0.73473900  0.46819800  0.02793700  1
  Sn  Sn7  1  0.26526100  0.03180200  0.52793700  1
  Sn  Sn8  1  0.76526100  0.96819800  0.97206300  1
  Sn  Sn9  1  0.55637300  0.21887000  0.55437300  1
  Sn  Sn10  1  0.05637300  0.78113000  0.94562700  1
  Sn  Sn11  1  0.94362700  0.71887000  0.44562700  1
  Sn  Sn12  1  0.44362700  0.28113000  0.05437300  1
  Sn  Sn13  1  0.44362700  0.78113000  0.44562700  1
  Sn  Sn14  1  0.94362700  0.21887000  0.05437300  1
  Sn  Sn15  1  0.05637300  0.28113000  0.55437300  1
  Se  Se0  1  0.07072800  0.62065800  0.56453200  1
  Se  Se1  1  0.00216400  0.25192400  0.72062400  1
  Se  Se2  1  0.50216400  0.74807600  0.77937600  1
  Se  Se3  1  0.49783600  0.75192400  0.27937600  1
  Se  Se4  1  0.99783600  0.24807600  0.22062400  1
  Se  Se5  1  0.99783600  0.74807600  0.27937600  1
  Se  Se6  1  0.49783600  0.25192400  0.22062400  1
  Se  Se7  1  0.50216400  0.24807600  0.72062400  1
  Se  Se8  1  0.00216400  0.75192400  0.77937600  1
  Se  Se9  1  0.75921000  0.99903900  0.79960500  1
  Se  Se10  1  0.25921000  0.00096100  0.70039500  1
  Se  Se11  1  0.74079000  0.49903900  0.20039500  1
  Se  Se12  1  0.24079000  0.50096100  0.29960500  1
  Se  Se13  1  0.24079000  0.00096100  0.20039500  1
  Se  Se14  1  0.74079000  0.99903900  0.29960500  1
  Se  Se15  1  0.25921000  0.50096100  0.79960500  1
  Se  Se16  1  0.75704000  0.63789000  0.93016600  1
  Se  Se17  1  0.25704000  0.36211000  0.56983400  1
  Se  Se18  1  0.74296000  0.13789000  0.06983400  1
  Se  Se19  1  0.24296000  0.86211000  0.43016600  1
  Se  Se20  1  0.24296000  0.36211000  0.06983400  1
  Se  Se21  1  0.74296000  0.63789000  0.43016600  1
  Se  Se22  1  0.25704000  0.86211000  0.93016600  1
  Se  Se23  1  0.75704000  0.13789000  0.56983400  1
  Se  Se24  1  0.90620700  0.87882300  0.55414700  1
  Se  Se25  1  0.40620700  0.12117700  0.94585300  1
  Se  Se26  1  0.59379300  0.37882300  0.44585300  1
  Se  Se27  1  0.09379300  0.62117700  0.05414700  1
  Se  Se28  1  0.57072800  0.37934200  0.93546800  1
  Se  Se29  1  0.59379300  0.87882300  0.05414700  1
  Se  Se30  1  0.40620700  0.62117700  0.55414700  1
  Se  Se31  1  0.90620700  0.37882300  0.94585300  1
  Se  Se32  1  0.57072800  0.87934200  0.56453200  1
  Se  Se33  1  0.07072800  0.12065800  0.93546800  1
  Se  Se34  1  0.92927200  0.37934200  0.43546800  1
  Se  Se35  1  0.42927200  0.62065800  0.06453200  1
  Se  Se36  1  0.42927200  0.12065800  0.43546800  1
  Se  Se37  1  0.92927200  0.87934200  0.06453200  1
  Se  Se38  1  0.75921000  0.49903900  0.70039500  1
  Se  Se39  1  0.09379300  0.12117700  0.44585300  1
loop_
_geom_bond_atom_site_label_1
_geom_bond_atom_site_label_2
_geom_bond_distance
_geom_bond_site_symmetry_2
Na0 Se2 3.095199 1_555
Na0 Se8 3.139552 1_655
Na0 Se38 3.251801 1_555
Na0 Se24 3.329709 1_555
Na0 Se9 3.350282 1_555
Na0 Se32 3.400152 1_555
Na0 Se16 3.445474 1_555
Na1 Se1 3.095199 1_555
Na1 Se7 3.139552 1_555
Na1 Se15 3.251801 1_555
Na1 Se25 3.329709 1_555
Na1 Se10 3.350282 1_555
Na1 Se33 3.400152 1_555
Na1 Se17 3.445474 1_555
Na2 Se4 3.095199 1_555
Na2 Se6 3.139552 1_555
Na2 Se14 3.251801 1_545
Na2 Se26 3.329709 1_555
Na2 Se11 3.350282 1_555
Na2 Se34 3.400152 1_555
Na2 Se18 3.445474 1_555
Na3 Se3 3.095199 1_555
Na3 Se5 3.139552 1_455
Na3 Se13 3.251801 1_565
Na3 Se27 3.329709 1_555
Na3 Se12 3.350282 1_555
Na3 Se35 3.400152 1_555
Na3 Se19 3.445474 1_555
Na4 Se6 3.095199 1_555
Na4 Se4 3.139552 1_455
Na4 Se12 3.251801 1_555
Na4 Se39 3.329709 1_555
Na4 Se13 3.350282 1_555
Na4 Se36 3.400152 1_555
Na4 Se20 3.445474 1_555
Na5 Se5 3.095199 1_555
Na5 Se3 3.139552 1_555
Na5 Se11 3.251801 1_555
Na5 Se29 3.329709 1_555
Na5 Se14 3.350282 1_555
Na5 Se37 3.400152 1_555
Na5 Se21 3.445474 1_555
Na6 Se8 3.095199 1_555
Na6 Se2 3.139552 1_555
Na6 Se10 3.251801 1_565
Na6 Se30 3.329709 1_555
Na6 Se15 3.350282 1_555
Na6 Se0 3.400152 1_555
Na6 Se22 3.445474 1_555
Na7 Se7 3.095199 1_555
Na7 Se1 3.139552 1_655
Na7 Se9 3.251801 1_545
Na7 Se31 3.329709 1_555
Na7 Se38 3.350282 1_555
Na7 Se28 3.400152 1_555
Na7 Se23 3.445474 1_555
Na8 Se38 3.049438 1_455
Na8 Se15 3.062791 1_555
Na8 Se8 3.197206 1_555
Na8 Se1 3.221774 1_555
Na8 Se31 3.281609 1_455
Na8 Se0 3.292954 1_555
Na9 Se15 3.049438 1_555
Na9 Se38 3.062791 1_555
Na9 Se7 3.197206 1_555
Na9 Se2 3.221774 1_555
Na9 Se30 3.281609 1_555
Na9 Se28 3.292954 1_555
Na10 Se14 3.049438 1_545
Na10 Se13 3.062791 1_555
Na10 Se6 3.197206 1_555
Na10 Se3 3.221774 1_545
Na10 Se29 3.281609 1_545
Na10 Se36 3.292954 1_555
Na11 Se13 3.049438 1_665
Na11 Se14 3.062791 1_555
Na11 Se5 3.197206 1_555
Na11 Se4 3.221774 1_565
Na11 Se39 3.281609 1_665
Na11 Se37 3.292954 1_555
Na12 Se12 3.049438 1_655
Na12 Se11 3.062791 1_555
Na12 Se4 3.197206 1_555
Na12 Se5 3.221774 1_555
Na12 Se27 3.281609 1_655
Na12 Se34 3.292954 1_555
Na13 Se11 3.049438 1_555
Na13 Se12 3.062791 1_555
Na13 Se3 3.197206 1_555
Na13 Se6 3.221774 1_555
Na13 Se26 3.281609 1_555
Na13 Se35 3.292954 1_555
Na14 Se10 3.049438 1_565
Na14 Se9 3.062791 1_555
Na14 Se2 3.197206 1_555
Na14 Se7 3.221774 1_565
Na14 Se25 3.281609 1_565
Na14 Se32 3.292954 1_555
Na15 Se9 3.049438 1_445
Na15 Se10 3.062791 1_555
Na15 Se1 3.197206 1_555
Na15 Se8 3.221774 1_545
Na15 Se24 3.281609 1_445
Na15 Se33 3.292954 1_555
Se0 Sn11 2.594065 1_455
Se0 Sn5 2.610838 1_555
Se1 Sn15 2.492130 1_555
Se2 Sn0 2.492130 1_555
Se3 Sn13 2.492130 1_555
Se4 Sn14 2.492130 1_555
Se5 Sn11 2.492130 1_555
Se6 Sn12 2.492130 1_555
Se7 Sn9 2.492130 1_555
Se8 Sn10 2.492130 1_555
Se9 Sn8 2.499616 1_555
Se10 Sn7 2.499616 1_555
Se11 Sn6 2.499616 1_555
Se12 Sn5 2.499616 1_555
Se13 Sn4 2.499616 1_555
Se14 Sn3 2.499616 1_555
Se15 Sn2 2.499616 1_555
Se16 Sn6 2.584330 1_556
Se16 Sn0 2.604298 1_555
Se17 Sn5 2.584330 1_555
Se17 Sn15 2.604298 1_555
Se18 Sn8 2.584330 1_544
Se18 Sn14 2.604298 1_555
Se19 Sn7 2.584330 1_565
Se19 Sn13 2.604298 1_555
Se20 Sn2 2.584330 1_554
Se20 Sn12 2.604298 1_555
Se21 Sn1 2.584330 1_555
Se21 Sn11 2.604298 1_555
Se22 Sn4 2.584330 1_566
Se22 Sn10 2.604298 1_555
Se23 Sn3 2.584330 1_545
Se23 Sn9 2.604298 1_555
Se24 Sn11 2.596417 1_555
Se24 Sn3 2.610133 1_555
Se25 Sn12 2.596417 1_556
Se25 Sn4 2.610133 1_556
Se26 Sn9 2.596417 1_555
Se26 Sn1 2.610133 1_555
Se27 Sn10 2.596417 1_554
Se27 Sn2 2.610133 1_554
Se28 Sn12 2.594065 1_556
Se28 Sn6 2.610838 1_556
Se29 Sn0 2.596417 1_554
Se29 Sn8 2.610133 1_554
Se30 Sn13 2.596417 1_555
Se30 Sn5 2.610133 1_555
Se31 Sn14 2.596417 1_556
Se31 Sn6 2.610133 1_556
Se32 Sn13 2.594065 1_555
Se32 Sn3 2.610838 1_555
Se33 Sn14 2.594065 1_456
Se33 Sn4 2.610838 1_556
Se34 Sn15 2.594065 1_655
Se34 Sn1 2.610838 1_555
Se35 Sn0 2.594065 1_554
Se35 Sn2 2.610838 1_554
Se36 Sn9 2.594065 1_555
Se36 Sn7 2.610838 1_555
Se37 Sn10 2.594065 1_654
Se37 Sn8 2.610838 1_554
Se38 Sn1 2.499616 1_555
Se39 Sn15 2.596417 1_555
Se39 Sn7 2.610133 1_555
