# generated using pymatgen
data_Rb2Cd2(MoO4)3
_symmetry_space_group_name_H-M   'P 1'
_cell_length_a   11.48461600
_cell_length_b   11.48461600
_cell_length_c   11.48461600
_cell_angle_alpha   90.00000000
_cell_angle_beta   90.00000000
_cell_angle_gamma   90.00000000
_symmetry_Int_Tables_number   1
_chemical_formula_structural   Rb2Cd2(MoO4)3
_chemical_formula_sum   'Rb8 Cd8 Mo12 O48'
_cell_volume   1514.77955939
_cell_formula_units_Z   4
loop_
 _symmetry_equiv_pos_site_id
 _symmetry_equiv_pos_as_xyz
  1  'x, y, z'
loop_
 _atom_site_type_symbol
 _atom_site_label
 _atom_site_symmetry_multiplicity
 _atom_site_fract_x
 _atom_site_fract_y
 _atom_site_fract_z
 _atom_site_occupancy
  Rb  Rb0  1  0.05260700  0.05260700  0.05260700  1
  Rb  Rb1  1  0.44739300  0.94739300  0.55260700  1
  Rb  Rb2  1  0.94739300  0.55260700  0.44739300  1
  Rb  Rb3  1  0.55260700  0.44739300  0.94739300  1
  Rb  Rb4  1  0.81880600  0.81880600  0.81880600  1
  Rb  Rb5  1  0.68119400  0.18119400  0.31880600  1
  Rb  Rb6  1  0.18119400  0.31880600  0.68119400  1
  Rb  Rb7  1  0.31880600  0.68119400  0.18119400  1
  Cd  Cd0  1  0.33512800  0.33512800  0.33512800  1
  Cd  Cd1  1  0.16487200  0.66487200  0.83512800  1
  Cd  Cd2  1  0.66487200  0.83512800  0.16487200  1
  Cd  Cd3  1  0.83512800  0.16487200  0.66487200  1
  Cd  Cd4  1  0.59995300  0.59995300  0.59995300  1
  Cd  Cd5  1  0.90004700  0.40004700  0.09995300  1
  Cd  Cd6  1  0.40004700  0.09995300  0.90004700  1
  Cd  Cd7  1  0.09995300  0.90004700  0.40004700  1
  Mo  Mo0  1  0.01957400  0.21430100  0.37654500  1
  Mo  Mo1  1  0.48042600  0.78569900  0.87654500  1
  Mo  Mo2  1  0.98042600  0.71430100  0.12345500  1
  Mo  Mo3  1  0.37654500  0.01957400  0.21430100  1
  Mo  Mo4  1  0.51957400  0.28569900  0.62345500  1
  Mo  Mo5  1  0.87654500  0.48042600  0.78569900  1
  Mo  Mo6  1  0.12345500  0.98042600  0.71430100  1
  Mo  Mo7  1  0.62345500  0.51957400  0.28569900  1
  Mo  Mo8  1  0.21430100  0.37654500  0.01957400  1
  Mo  Mo9  1  0.71430100  0.12345500  0.98042600  1
  Mo  Mo10  1  0.28569900  0.62345500  0.51957400  1
  Mo  Mo11  1  0.78569900  0.87654500  0.48042600  1
  O  O0  1  0.01274300  0.06575000  0.32504600  1
  O  O1  1  0.48725700  0.93425000  0.82504600  1
  O  O2  1  0.98725700  0.56575000  0.17495400  1
  O  O3  1  0.32504600  0.01274300  0.06575000  1
  O  O4  1  0.51274300  0.43425000  0.67495400  1
  O  O5  1  0.82504600  0.48725700  0.93425000  1
  O  O6  1  0.17495400  0.98725700  0.56575000  1
  O  O7  1  0.67495400  0.51274300  0.43425000  1
  O  O8  1  0.06575000  0.32504600  0.01274300  1
  O  O9  1  0.56575000  0.17495400  0.98725700  1
  O  O10  1  0.43425000  0.67495400  0.51274300  1
  O  O11  1  0.93425000  0.82504600  0.48725700  1
  O  O12  1  0.26661200  0.49207600  0.43781000  1
  O  O13  1  0.23338800  0.50792400  0.93781000  1
  O  O14  1  0.73338800  0.99207600  0.06219000  1
  O  O15  1  0.43781000  0.26661200  0.49207600  1
  O  O16  1  0.76661200  0.00792400  0.56219000  1
  O  O17  1  0.93781000  0.23338800  0.50792400  1
  O  O18  1  0.06219000  0.73338800  0.99207600  1
  O  O19  1  0.56219000  0.76661200  0.00792400  1
  O  O20  1  0.49207600  0.43781000  0.26661200  1
  O  O21  1  0.99207600  0.06219000  0.73338800  1
  O  O22  1  0.00792400  0.56219000  0.76661200  1
  O  O23  1  0.50792400  0.93781000  0.23338800  1
  O  O24  1  0.04684600  0.80688500  0.23012200  1
  O  O25  1  0.45315400  0.19311500  0.73012200  1
  O  O26  1  0.95315400  0.30688500  0.26987800  1
  O  O27  1  0.23012200  0.04684600  0.80688500  1
  O  O28  1  0.54684600  0.69311500  0.76987800  1
  O  O29  1  0.73012200  0.45315400  0.19311500  1
  O  O30  1  0.26987800  0.95315400  0.30688500  1
  O  O31  1  0.76987800  0.54684600  0.69311500  1
  O  O32  1  0.80688500  0.23012200  0.04684600  1
  O  O33  1  0.30688500  0.26987800  0.95315400  1
  O  O34  1  0.69311500  0.76987800  0.54684600  1
  O  O35  1  0.19311500  0.73012200  0.45315400  1
  O  O36  1  0.16665300  0.25719600  0.40613200  1
  O  O37  1  0.33334700  0.74280400  0.90613200  1
  O  O38  1  0.83334700  0.75719600  0.09386800  1
  O  O39  1  0.40613200  0.16665300  0.25719600  1
  O  O40  1  0.66665300  0.24280400  0.59386800  1
  O  O41  1  0.90613200  0.33334700  0.74280400  1
  O  O42  1  0.09386800  0.83334700  0.75719600  1
  O  O43  1  0.59386800  0.66665300  0.24280400  1
  O  O44  1  0.25719600  0.40613200  0.16665300  1
  O  O45  1  0.75719600  0.09386800  0.83334700  1
  O  O46  1  0.24280400  0.59386800  0.66665300  1
  O  O47  1  0.74280400  0.90613200  0.33334700  1
loop_
_geom_bond_atom_site_label_1
_geom_bond_atom_site_label_2
_geom_bond_distance
_geom_bond_site_symmetry_2
Cd0 O39 2.282487 1_555
Cd0 O44 2.282487 1_555
Cd0 O36 2.282487 1_555
Cd0 O15 2.293208 1_555
Cd0 O12 2.293208 1_555
Cd0 O20 2.293208 1_555
Cd1 O42 2.282487 1_555
Cd1 O46 2.282487 1_555
Cd1 O37 2.282487 1_555
Cd1 O18 2.293208 1_555
Cd1 O13 2.293208 1_555
Cd1 O22 2.293208 1_555
Cd2 O38 2.282487 1_555
Cd2 O43 2.282487 1_555
Cd2 O47 2.282487 1_555
Cd2 O14 2.293208 1_555
Cd2 O19 2.293208 1_555
Cd2 O23 2.293208 1_555
Cd3 O45 2.282487 1_555
Cd3 O40 2.282487 1_555
Cd3 O41 2.282487 1_555
Cd3 O21 2.293208 1_555
Cd3 O17 2.293208 1_555
Cd3 O16 2.293208 1_555
Cd4 O28 2.307637 1_555
Cd4 O34 2.307637 1_555
Cd4 O31 2.307637 1_555
Cd4 O4 2.316599 1_555
Cd4 O10 2.316599 1_555
Cd4 O7 2.316599 1_555
Cd5 O26 2.307637 1_555
Cd5 O29 2.307637 1_555
Cd5 O32 2.307637 1_555
Cd5 O8 2.316599 1_655
Cd5 O2 2.316599 1_555
Cd5 O5 2.316599 1_554
Cd6 O33 2.307637 1_555
Cd6 O25 2.307637 1_555
Cd6 O27 2.307637 1_555
Cd6 O3 2.316599 1_556
Cd6 O9 2.316599 1_555
Cd6 O1 2.316599 1_545
Cd7 O30 2.307637 1_555
Cd7 O35 2.307637 1_555
Cd7 O24 2.307637 1_555
Cd7 O0 2.316599 1_565
Cd7 O6 2.316599 1_555
Cd7 O11 2.316599 1_455
Mo0 O17 1.790647 1_455
Mo0 O36 1.792027 1_555
Mo0 O26 1.792530 1_455
Mo0 O0 1.807367 1_555
Mo1 O19 1.790647 1_556
Mo1 O37 1.792027 1_555
Mo1 O28 1.792530 1_555
Mo1 O1 1.807367 1_555
Mo2 O18 1.790647 1_654
Mo2 O38 1.792027 1_555
Mo2 O24 1.792530 1_655
Mo2 O2 1.807367 1_555
Mo3 O23 1.790647 1_545
Mo3 O39 1.792027 1_555
Mo3 O30 1.792530 1_545
Mo3 O3 1.807367 1_555
Mo4 O15 1.790647 1_555
Mo4 O40 1.792027 1_555
Mo4 O25 1.792530 1_555
Mo4 O4 1.807367 1_555
Mo5 O22 1.790647 1_655
Mo5 O41 1.792027 1_555
Mo5 O31 1.792530 1_555
Mo5 O5 1.807367 1_555
Mo6 O21 1.790647 1_465
Mo6 O42 1.792027 1_555
Mo6 O27 1.792530 1_565
Mo6 O6 1.807367 1_555
Mo7 O20 1.790647 1_555
Mo7 O43 1.792027 1_555
Mo7 O29 1.792530 1_555
Mo7 O7 1.807367 1_555
Mo8 O13 1.790647 1_554
Mo8 O44 1.792027 1_555
Mo8 O33 1.792530 1_554
Mo8 O8 1.807367 1_555
Mo9 O14 1.790647 1_546
Mo9 O45 1.792027 1_555
Mo9 O32 1.792530 1_556
Mo9 O9 1.807367 1_555
Mo10 O12 1.790647 1_555
Mo10 O46 1.792027 1_555
Mo10 O35 1.792530 1_555
Mo10 O10 1.807367 1_555
Mo11 O16 1.790647 1_565
Mo11 O47 1.792027 1_555
Mo11 O34 1.792530 1_555
Mo11 O11 1.807367 1_555
O0 Rb0 3.165775 1_555
O1 Rb1 3.165775 1_555
O2 Rb2 3.165775 1_555
O3 Rb0 3.165775 1_555
O4 Rb3 3.165775 1_555
O5 Rb3 3.165775 1_555
O6 Rb1 3.165775 1_555
O7 Rb2 3.165775 1_555
O8 Rb0 3.165775 1_555
O9 Rb3 3.165775 1_555
O10 Rb1 3.165775 1_555
O11 Rb2 3.165775 1_555
O12 Rb6 3.568640 1_555
O13 Rb7 3.568640 1_556
O14 Rb4 3.568640 1_554
O15 Rb5 3.568640 1_555
O16 Rb5 3.568640 1_555
O17 Rb6 3.568640 1_655
O18 Rb4 3.568640 1_455
O19 Rb7 3.568640 1_555
O20 Rb7 3.568640 1_555
O21 Rb4 3.568640 1_545
O22 Rb6 3.568640 1_555
O23 Rb5 3.568640 1_565
O24 Rb0 3.482019 1_565
O24 Rb7 3.486379 1_555
O25 Rb1 3.482019 1_545
O25 Rb6 3.486379 1_555
O26 Rb2 3.482019 1_555
O26 Rb5 3.486379 1_555
O27 Rb0 3.482019 1_556
O27 Rb6 3.486379 1_555
O28 Rb3 3.482019 1_555
O28 Rb4 3.486379 1_555
O29 Rb3 3.482019 1_554
O29 Rb5 3.486379 1_555
O30 Rb1 3.482019 1_555
O30 Rb7 3.486379 1_555
O31 Rb2 3.482019 1_555
O31 Rb4 3.486379 1_555
O32 Rb0 3.482019 1_655
O32 Rb5 3.486379 1_555
O33 Rb3 3.482019 1_555
O33 Rb6 3.486379 1_555
O34 Rb1 3.482019 1_555
O34 Rb4 3.486379 1_555
O35 Rb2 3.482019 1_455
O35 Rb7 3.486379 1_555
O36 Rb6 3.241559 1_555
O37 Rb7 3.241559 1_556
O38 Rb4 3.241559 1_554
O39 Rb5 3.241559 1_555
O40 Rb5 3.241559 1_555
O41 Rb6 3.241559 1_655
O42 Rb4 3.241559 1_455
O43 Rb7 3.241559 1_555
O44 Rb7 3.241559 1_555
O45 Rb4 3.241559 1_545
O46 Rb6 3.241559 1_555
O47 Rb5 3.241559 1_565
