# generated using pymatgen
data_K2Li(H2N)3
_symmetry_space_group_name_H-M   'P 1'
_cell_length_a   7.00413800
_cell_length_b   7.00413800
_cell_length_c   12.00583500
_cell_angle_alpha   90.00000000
_cell_angle_beta   90.00000000
_cell_angle_gamma   90.00000000
_symmetry_Int_Tables_number   1
_chemical_formula_structural   K2Li(H2N)3
_chemical_formula_sum   'K8 Li4 H24 N12'
_cell_volume   588.98164261
_cell_formula_units_Z   4
loop_
 _symmetry_equiv_pos_site_id
 _symmetry_equiv_pos_as_xyz
  1  'x, y, z'
loop_
 _atom_site_type_symbol
 _atom_site_label
 _atom_site_symmetry_multiplicity
 _atom_site_fract_x
 _atom_site_fract_y
 _atom_site_fract_z
 _atom_site_occupancy
  K  K0  1  0.00000000  0.50000000  0.34736800  1
  K  K1  1  0.50000000  0.00000000  0.84736800  1
  K  K2  1  0.00000000  0.50000000  0.65263200  1
  K  K3  1  0.50000000  0.00000000  0.15263200  1
  K  K4  1  0.00000000  0.00000000  0.50000000  1
  K  K5  1  0.00000000  0.00000000  0.00000000  1
  K  K6  1  0.50000000  0.50000000  0.25000000  1
  K  K7  1  0.50000000  0.50000000  0.75000000  1
  Li  Li0  1  0.64326400  0.35216200  0.50000000  1
  Li  Li1  1  0.35673600  0.64783800  0.50000000  1
  Li  Li2  1  0.35216200  0.35673600  0.00000000  1
  Li  Li3  1  0.64783800  0.64326400  0.00000000  1
  H  H0  1  0.67917600  0.72497800  0.43303400  1
  H  H1  1  0.32082400  0.27502200  0.43303400  1
  H  H2  1  0.72497800  0.32082400  0.93303400  1
  H  H3  1  0.27502200  0.67917600  0.93303400  1
  H  H4  1  0.32082400  0.27502200  0.56696600  1
  H  H5  1  0.67917600  0.72497800  0.56696600  1
  H  H6  1  0.27502200  0.67917600  0.06696600  1
  H  H7  1  0.72497800  0.32082400  0.06696600  1
  H  H8  1  0.81815300  0.16099200  0.29283500  1
  H  H9  1  0.18184700  0.83900800  0.29283500  1
  H  H10  1  0.16099200  0.18184700  0.79283500  1
  H  H11  1  0.83900800  0.81815300  0.79283500  1
  H  H12  1  0.18184700  0.83900800  0.70716500  1
  H  H13  1  0.81815300  0.16099200  0.70716500  1
  H  H14  1  0.83900800  0.81815300  0.20716500  1
  H  H15  1  0.16099200  0.18184700  0.20716500  1
  H  H16  1  0.65327400  0.08201000  0.37346000  1
  H  H17  1  0.34672600  0.91799000  0.37346000  1
  H  H18  1  0.08201000  0.34672600  0.87346000  1
  H  H19  1  0.91799000  0.65327400  0.87346000  1
  H  H20  1  0.34672600  0.91799000  0.62654000  1
  H  H21  1  0.65327400  0.08201000  0.62654000  1
  H  H22  1  0.91799000  0.65327400  0.12654000  1
  H  H23  1  0.08201000  0.34672600  0.12654000  1
  N  N0  1  0.70669900  0.63795100  0.50000000  1
  N  N1  1  0.29330100  0.36204900  0.50000000  1
  N  N2  1  0.63795100  0.29330100  0.00000000  1
  N  N3  1  0.36204900  0.70669900  0.00000000  1
  N  N4  1  0.72055900  0.20660500  0.35104200  1
  N  N5  1  0.27944100  0.79339500  0.35104200  1
  N  N6  1  0.20660500  0.27944100  0.85104200  1
  N  N7  1  0.79339500  0.72055900  0.85104200  1
  N  N8  1  0.27944100  0.79339500  0.64895800  1
  N  N9  1  0.72055900  0.20660500  0.64895800  1
  N  N10  1  0.79339500  0.72055900  0.14895800  1
  N  N11  1  0.20660500  0.27944100  0.14895800  1
loop_
_geom_bond_atom_site_label_1
_geom_bond_atom_site_label_2
_geom_bond_distance
_geom_bond_site_symmetry_2
K0 N5 2.838254 1_555
K0 N4 2.838254 1_455
K0 N1 2.917498 1_555
K0 N0 2.917498 1_455
K1 N6 2.838254 1_555
K1 N7 2.838254 1_545
K1 N3 2.917498 1_546
K1 N2 2.917498 1_556
K2 N8 2.838254 1_555
K2 N9 2.838254 1_455
K2 N1 2.917498 1_555
K2 N0 2.917498 1_455
K3 N11 2.838254 1_555
K3 N10 2.838254 1_545
K3 N2 2.917498 1_555
K3 N3 2.917498 1_545
K4 N8 3.020450 1_545
K4 N4 3.020450 1_455
K4 N5 3.020450 1_545
K4 N9 3.020450 1_455
K5 N11 3.020450 1_555
K5 N6 3.020450 1_554
K5 N10 3.020450 1_445
K5 N7 3.020450 1_444
K6 N4 2.842714 1_555
K6 N10 2.842714 1_555
K6 N11 2.842714 1_555
K6 N5 2.842714 1_555
K7 N9 2.842714 1_555
K7 N6 2.842714 1_555
K7 N7 2.842714 1_555
K7 N8 2.842714 1_555
Li0 N0 2.050423 1_555
Li0 N4 2.128551 1_555
Li0 N9 2.128551 1_555
Li1 N1 2.050423 1_555
Li1 N5 2.128551 1_555
Li1 N8 2.128551 1_555
Li2 N2 2.050423 1_555
Li2 N11 2.128551 1_555
Li2 N6 2.128551 1_554
Li3 N3 2.050423 1_555
Li3 N10 2.128551 1_555
Li3 N7 2.128551 1_554
H0 N0 1.027181 1_555
H0 K0 2.930923 1_655
H0 K6 2.981096 1_555
H0 K4 3.066990 1_665
H1 N1 1.027181 1_555
H1 K0 2.930923 1_555
H1 K6 2.981096 1_555
H1 K4 3.066990 1_555
H2 N2 1.027181 1_556
H2 K1 2.930923 1_555
H2 K7 2.981096 1_555
H2 K5 3.066990 1_656
H3 N3 1.027181 1_556
H3 K1 2.930923 1_565
H3 K7 2.981096 1_555
H3 K5 3.066990 1_566
H4 N1 1.027181 1_555
H4 K2 2.930923 1_555
H4 K7 2.981096 1_555
H4 K4 3.066990 1_555
H5 N0 1.027181 1_555
H5 K2 2.930923 1_655
H5 K7 2.981096 1_555
H5 K4 3.066990 1_665
H6 N3 1.027181 1_555
H6 K3 2.930923 1_565
H6 K6 2.981096 1_555
H6 K5 3.066990 1_565
H7 N2 1.027181 1_555
H7 K3 2.930923 1_555
H7 K6 2.981096 1_555
H7 K5 3.066990 1_655
H8 N4 1.028435 1_555
H8 K0 2.772899 1_655
H8 K3 3.011737 1_555
H8 K4 3.013283 1_655
H9 N5 1.028435 1_555
H9 K0 2.772899 1_555
H9 K3 3.011737 1_565
H9 K4 3.013283 1_565
H10 N6 1.028435 1_555
H10 K1 2.772899 1_555
H10 K2 3.011737 1_555
H10 K5 3.013283 1_556
H11 N7 1.028435 1_555
H11 K1 2.772899 1_565
H11 K2 3.011737 1_655
H11 K5 3.013283 1_666
H12 N8 1.028435 1_555
H12 K2 2.772899 1_555
H12 K1 3.011737 1_565
H12 K4 3.013283 1_565
H13 N9 1.028435 1_555
H13 K2 2.772899 1_655
H13 K1 3.011737 1_555
H13 K4 3.013283 1_655
H14 N10 1.028435 1_555
H14 K3 2.772899 1_565
H14 K0 3.011737 1_655
H14 K5 3.013283 1_665
H15 N11 1.028435 1_555
H15 K3 2.772899 1_555
H15 K0 3.011737 1_555
H15 K5 3.013283 1_555
H16 N4 1.027672 1_555
H16 K3 2.917439 1_555
H16 K4 2.921586 1_655
H17 N5 1.027672 1_555
H17 K3 2.917439 1_565
H17 K4 2.921586 1_565
H18 N6 1.027672 1_555
H18 K2 2.917439 1_555
H18 K5 2.921586 1_556
H19 N7 1.027672 1_555
H19 K2 2.917439 1_655
H19 K5 2.921586 1_666
H20 N8 1.027672 1_555
H20 K1 2.917439 1_565
H20 K4 2.921586 1_565
H21 N9 1.027672 1_555
H21 K1 2.917439 1_555
H21 K4 2.921586 1_655
H22 N10 1.027672 1_555
H22 K0 2.917439 1_655
H22 K5 2.921586 1_665
H23 N11 1.027672 1_555
H23 K0 2.917439 1_555
H23 K5 2.921586 1_555
