# generated using pymatgen
data_Mn2NiSb2Pt
_symmetry_space_group_name_H-M   'P 1'
_cell_length_a   7.40693888
_cell_length_b   7.40693888
_cell_length_c   7.40693810
_cell_angle_alpha   33.56658591
_cell_angle_beta   33.56658591
_cell_angle_gamma   33.56658374
_symmetry_Int_Tables_number   1
_chemical_formula_structural   Mn2NiSb2Pt
_chemical_formula_sum   'Mn2 Ni1 Sb2 Pt1'
_cell_volume   110.65420517
_cell_formula_units_Z   1
loop_
 _symmetry_equiv_pos_site_id
 _symmetry_equiv_pos_as_xyz
  1  'x, y, z'
loop_
 _atom_site_type_symbol
 _atom_site_label
 _atom_site_symmetry_multiplicity
 _atom_site_fract_x
 _atom_site_fract_y
 _atom_site_fract_z
 _atom_site_occupancy
  Mn  Mn0  1  0.24619600  0.24619600  0.24619600  1
  Mn  Mn1  1  0.75422600  0.75422600  0.75422600  1
  Ni  Ni0  1  0.87412000  0.87412000  0.87412000  1
  Sb  Sb0  1  0.99455200  0.99455200  0.99455200  1
  Sb  Sb1  1  0.50490700  0.50490700  0.50490700  1
  Pt  Pt0  1  0.37599800  0.37599800  0.37599800  1
loop_
_geom_bond_atom_site_label_1
_geom_bond_atom_site_label_2
_geom_bond_distance
_geom_bond_site_symmetry_2
Mn0 Ni0 2.599592 1_454
Mn0 Ni0 2.599592 1_544
Mn0 Ni0 2.599592 1_445
Mn0 Pt0 2.719259 1_555
Mn0 Sb1 2.922839 1_554
Mn0 Sb1 2.922840 1_455
Mn0 Sb1 2.922840 1_545
Mn0 Sb0 3.004628 1_445
Mn0 Sb0 3.004629 1_544
Mn0 Sb0 3.004629 1_454
Mn1 Ni0 2.511693 1_555
Mn1 Pt0 2.642668 1_655
Mn1 Pt0 2.642668 1_565
Mn1 Pt0 2.642668 1_556
Mn1 Sb1 3.032635 1_556
Mn1 Sb1 3.032635 1_565
Mn1 Sb1 3.032635 1_655
Mn1 Sb0 3.145717 1_554
Mn1 Sb0 3.145718 1_545
Mn1 Sb0 3.145718 1_455
Ni0 Sb0 2.522964 1_555
Ni0 Sb1 2.581495 1_565
Ni0 Sb1 2.581495 1_655
Ni0 Sb1 2.581495 1_556
Pt0 Sb0 2.667405 1_454
Pt0 Sb0 2.667405 1_544
Pt0 Sb0 2.667405 1_445
Pt0 Sb1 2.700551 1_555
