# generated using pymatgen
data_MgZn5
_symmetry_space_group_name_H-M   'P 1'
_cell_length_a   10.91501274
_cell_length_b   10.91501274
_cell_length_c   13.15844573
_cell_angle_alpha   75.30846462
_cell_angle_beta   75.30846462
_cell_angle_gamma   30.43774978
_symmetry_Int_Tables_number   1
_chemical_formula_structural   MgZn5
_chemical_formula_sum   'Mg8 Zn40'
_cell_volume   766.25952042
_cell_formula_units_Z   8
loop_
 _symmetry_equiv_pos_site_id
 _symmetry_equiv_pos_as_xyz
  1  'x, y, z'
loop_
 _atom_site_type_symbol
 _atom_site_label
 _atom_site_symmetry_multiplicity
 _atom_site_fract_x
 _atom_site_fract_y
 _atom_site_fract_z
 _atom_site_occupancy
  Mg  Mg0_0  1  0.30633950  0.30633950  0.13713350  1
  Mg  Mg0_1  1  0.30633950  0.30633950  0.63713350  1
  Mg  Mg0_2  1  0.30633950  0.80633950  0.13713350  1
  Mg  Mg0_3  1  0.30633950  0.80633950  0.63713350  1
  Mg  Mg0_4  1  0.80633950  0.30633950  0.13713350  1
  Mg  Mg0_5  1  0.80633950  0.30633950  0.63713350  1
  Mg  Mg0_6  1  0.80633950  0.80633950  0.13713350  1
  Mg  Mg0_7  1  0.80633950  0.80633950  0.63713350  1
  Zn  Zn0_0  1  0.49882450  0.49882450  0.49745050  1
  Zn  Zn0_1  1  0.49882450  0.49882450  0.99745050  1
  Zn  Zn0_2  1  0.49882450  0.99882450  0.49745050  1
  Zn  Zn0_3  1  0.49882450  0.99882450  0.99745050  1
  Zn  Zn0_4  1  0.99882450  0.49882450  0.49745050  1
  Zn  Zn0_5  1  0.99882450  0.49882450  0.99745050  1
  Zn  Zn0_6  1  0.99882450  0.99882450  0.49745050  1
  Zn  Zn0_7  1  0.99882450  0.99882450  0.99745050  1
  Zn  Zn1_0  1  0.16776100  0.16776100  0.16821200  1
  Zn  Zn1_1  1  0.16776100  0.16776100  0.66821200  1
  Zn  Zn1_2  1  0.16776100  0.66776100  0.16821200  1
  Zn  Zn1_3  1  0.16776100  0.66776100  0.66821200  1
  Zn  Zn1_4  1  0.66776100  0.16776100  0.16821200  1
  Zn  Zn1_5  1  0.66776100  0.16776100  0.66821200  1
  Zn  Zn1_6  1  0.66776100  0.66776100  0.16821200  1
  Zn  Zn1_7  1  0.66776100  0.66776100  0.66821200  1
  Zn  Zn2_0  1  0.47043200  0.47043200  0.30952750  1
  Zn  Zn2_1  1  0.47043200  0.47043200  0.80952750  1
  Zn  Zn2_2  1  0.47043200  0.97043200  0.30952750  1
  Zn  Zn2_3  1  0.47043200  0.97043200  0.80952750  1
  Zn  Zn2_4  1  0.97043200  0.47043200  0.30952750  1
  Zn  Zn2_5  1  0.97043200  0.47043200  0.80952750  1
  Zn  Zn2_6  1  0.97043200  0.97043200  0.30952750  1
  Zn  Zn2_7  1  0.97043200  0.97043200  0.80952750  1
  Zn  Zn3_0  1  0.33329750  0.33329750  0.33428200  1
  Zn  Zn3_1  1  0.33329750  0.33329750  0.83428200  1
  Zn  Zn3_2  1  0.33329750  0.83329750  0.33428200  1
  Zn  Zn3_3  1  0.33329750  0.83329750  0.83428200  1
  Zn  Zn3_4  1  0.83329750  0.33329750  0.33428200  1
  Zn  Zn3_5  1  0.83329750  0.33329750  0.83428200  1
  Zn  Zn3_6  1  0.83329750  0.83329750  0.33428200  1
  Zn  Zn3_7  1  0.83329750  0.83329750  0.83428200  1
  Zn  Zn4_0  1  0.14001200  0.14001200  0.47006150  1
  Zn  Zn4_1  1  0.14001200  0.14001200  0.97006150  1
  Zn  Zn4_2  1  0.14001200  0.64001200  0.47006150  1
  Zn  Zn4_3  1  0.14001200  0.64001200  0.97006150  1
  Zn  Zn4_4  1  0.64001200  0.14001200  0.47006150  1
  Zn  Zn4_5  1  0.64001200  0.14001200  0.97006150  1
  Zn  Zn4_6  1  0.64001200  0.64001200  0.47006150  1
  Zn  Zn4_7  1  0.64001200  0.64001200  0.97006150  1
loop_
_geom_bond_atom_site_label_1
_geom_bond_atom_site_label_2
_geom_bond_distance
_geom_bond_site_symmetry_2
Mg0_0 Zn3_0 2.797594 1_555
Mg0_0 Zn4_5 2.820476 1_554
Mg0_0 Zn4_3 2.820476 1_554
Mg0_0 Zn1_0 2.839147 1_555
Mg0_0 Zn0_5 2.840608 1_454
Mg0_0 Zn0_3 2.840608 1_544
Mg0_0 Mg0_6 2.865268 1_545
Mg0_0 Mg0_6 2.865268 1_455
Mg0_0 Zn1_4 2.869281 1_555
Mg0_0 Zn1_2 2.869281 1_555
Mg0_0 Zn2_2 2.883583 1_545
Mg0_0 Zn2_4 2.883583 1_455
Mg0_1 Zn3_1 2.797594 1_555
Mg0_1 Zn4_4 2.820476 1_555
Mg0_1 Zn4_2 2.820476 1_555
Mg0_1 Zn1_1 2.839147 1_555
Mg0_1 Zn0_2 2.840608 1_545
Mg0_1 Zn0_4 2.840608 1_455
Mg0_1 Mg0_7 2.865268 1_545
Mg0_1 Mg0_7 2.865268 1_455
Mg0_1 Zn1_3 2.869281 1_555
Mg0_1 Zn1_5 2.869281 1_555
Mg0_1 Zn2_3 2.883583 1_545
Mg0_1 Zn2_5 2.883583 1_455
Mg0_2 Zn3_2 2.797594 1_555
Mg0_2 Zn4_7 2.820476 1_554
Mg0_2 Zn4_1 2.820476 1_564
Mg0_2 Zn1_2 2.839147 1_555
Mg0_2 Zn0_1 2.840608 1_554
Mg0_2 Zn0_7 2.840608 1_454
Mg0_2 Mg0_4 2.865268 1_465
Mg0_2 Mg0_4 2.865268 1_555
Mg0_2 Zn1_6 2.869281 1_555
Mg0_2 Zn1_0 2.869281 1_565
Mg0_2 Zn2_0 2.883583 1_555
Mg0_2 Zn2_6 2.883583 1_455
Mg0_3 Zn3_3 2.797594 1_555
Mg0_3 Zn4_6 2.820476 1_555
Mg0_3 Zn4_0 2.820476 1_565
Mg0_3 Zn1_3 2.839147 1_555
Mg0_3 Zn0_0 2.840608 1_555
Mg0_3 Zn0_6 2.840608 1_455
Mg0_3 Mg0_5 2.865268 1_555
Mg0_3 Mg0_5 2.865268 1_465
Mg0_3 Zn1_7 2.869281 1_555
Mg0_3 Zn1_1 2.869281 1_565
Mg0_3 Zn2_1 2.883583 1_555
Mg0_3 Zn2_7 2.883583 1_455
Mg0_4 Zn3_4 2.797594 1_555
Mg0_4 Zn4_7 2.820476 1_554
Mg0_4 Zn4_1 2.820476 1_654
Mg0_4 Zn1_4 2.839147 1_555
Mg0_4 Zn0_1 2.840608 1_554
Mg0_4 Zn0_7 2.840608 1_544
Mg0_4 Zn1_6 2.869281 1_555
Mg0_4 Zn1_0 2.869281 1_655
Mg0_4 Zn2_0 2.883583 1_555
Mg0_4 Zn2_6 2.883583 1_545
Mg0_5 Zn3_5 2.797594 1_555
Mg0_5 Zn4_6 2.820476 1_555
Mg0_5 Zn4_0 2.820476 1_655
Mg0_5 Zn1_5 2.839147 1_555
Mg0_5 Zn0_0 2.840608 1_555
Mg0_5 Zn0_6 2.840608 1_545
Mg0_5 Zn1_7 2.869281 1_555
Mg0_5 Zn1_1 2.869281 1_655
Mg0_5 Zn2_1 2.883583 1_555
Mg0_5 Zn2_7 2.883583 1_545
Mg0_6 Zn3_6 2.797594 1_555
Mg0_6 Zn4_3 2.820476 1_654
Mg0_6 Zn4_5 2.820476 1_564
Mg0_6 Zn1_6 2.839147 1_555
Mg0_6 Zn0_5 2.840608 1_554
Mg0_6 Zn0_3 2.840608 1_554
Mg0_6 Zn1_2 2.869281 1_655
Mg0_6 Zn1_4 2.869281 1_565
Mg0_6 Zn2_4 2.883583 1_555
Mg0_6 Zn2_2 2.883583 1_555
Mg0_7 Zn3_7 2.797594 1_555
Mg0_7 Zn4_2 2.820476 1_655
Mg0_7 Zn4_4 2.820476 1_565
Mg0_7 Zn1_7 2.839147 1_555
Mg0_7 Zn0_4 2.840608 1_555
Mg0_7 Zn0_2 2.840608 1_555
Mg0_7 Zn1_3 2.869281 1_655
Mg0_7 Zn1_5 2.869281 1_565
Mg0_7 Zn2_5 2.883583 1_555
Mg0_7 Zn2_3 2.883583 1_555
Zn0_0 Zn2_0 2.692529 1_555
Zn0_0 Zn3_2 2.796457 1_555
Zn0_0 Zn3_4 2.796457 1_555
Zn0_0 Zn4_4 2.805381 1_555
Zn0_0 Zn4_2 2.805381 1_555
Zn0_0 Zn1_3 2.828450 1_555
Zn0_0 Zn1_5 2.828450 1_555
Zn0_0 Zn0_6 2.865268 1_455
Zn0_0 Zn0_6 2.865268 1_545
Zn0_0 Zn4_6 2.900234 1_555
Zn0_1 Zn2_1 2.692529 1_555
Zn0_1 Zn3_3 2.796457 1_555
Zn0_1 Zn3_5 2.796457 1_555
Zn0_1 Zn4_3 2.805381 1_555
Zn0_1 Zn4_5 2.805381 1_555
Zn0_1 Zn1_4 2.828450 1_556
Zn0_1 Zn1_2 2.828450 1_556
Zn0_1 Zn0_7 2.865268 1_545
Zn0_1 Zn0_7 2.865268 1_455
Zn0_1 Zn4_7 2.900234 1_555
Zn0_2 Zn2_2 2.692529 1_555
Zn0_2 Zn3_6 2.796457 1_555
Zn0_2 Zn3_0 2.796457 1_565
Zn0_2 Zn4_0 2.805381 1_565
Zn0_2 Zn4_6 2.805381 1_555
Zn0_2 Zn1_7 2.828450 1_555
Zn0_2 Zn1_1 2.828450 1_565
Zn0_2 Zn0_4 2.865268 1_555
Zn0_2 Zn0_4 2.865268 1_465
Zn0_2 Zn4_4 2.900234 1_565
Zn0_3 Zn2_3 2.692529 1_555
Zn0_3 Zn3_7 2.796457 1_555
Zn0_3 Zn3_1 2.796457 1_565
Zn0_3 Zn4_1 2.805381 1_565
Zn0_3 Zn4_7 2.805381 1_555
Zn0_3 Zn1_0 2.828450 1_566
Zn0_3 Zn1_6 2.828450 1_556
Zn0_3 Zn0_5 2.865268 1_555
Zn0_3 Zn0_5 2.865268 1_465
Zn0_3 Zn4_5 2.900234 1_565
Zn0_4 Zn2_4 2.692529 1_555
Zn0_4 Zn3_6 2.796457 1_555
Zn0_4 Zn3_0 2.796457 1_655
Zn0_4 Zn4_0 2.805381 1_655
Zn0_4 Zn4_6 2.805381 1_555
Zn0_4 Zn1_1 2.828450 1_655
Zn0_4 Zn1_7 2.828450 1_555
Zn0_4 Zn4_2 2.900234 1_655
Zn0_5 Zn2_5 2.692529 1_555
Zn0_5 Zn3_7 2.796457 1_555
Zn0_5 Zn3_1 2.796457 1_655
Zn0_5 Zn4_1 2.805381 1_655
Zn0_5 Zn4_7 2.805381 1_555
Zn0_5 Zn1_0 2.828450 1_656
Zn0_5 Zn1_6 2.828450 1_556
Zn0_5 Zn4_3 2.900234 1_655
Zn0_6 Zn2_6 2.692529 1_555
Zn0_6 Zn3_2 2.796457 1_655
Zn0_6 Zn3_4 2.796457 1_565
Zn0_6 Zn4_4 2.805381 1_565
Zn0_6 Zn4_2 2.805381 1_655
Zn0_6 Zn1_3 2.828450 1_655
Zn0_6 Zn1_5 2.828450 1_565
Zn0_6 Zn4_0 2.900234 1_665
Zn0_7 Zn2_7 2.692529 1_555
Zn0_7 Zn3_3 2.796457 1_655
Zn0_7 Zn3_5 2.796457 1_565
Zn0_7 Zn4_3 2.805381 1_655
Zn0_7 Zn4_5 2.805381 1_565
Zn0_7 Zn1_2 2.828450 1_656
Zn0_7 Zn1_4 2.828450 1_566
Zn0_7 Zn4_1 2.900234 1_665
Zn1_0 Zn2_4 2.797427 1_455
Zn1_0 Zn2_2 2.797427 1_545
Zn1_0 Zn4_1 2.817993 1_554
Zn1_0 Zn3_4 2.819464 1_455
Zn1_0 Zn3_2 2.819464 1_545
Zn1_0 Zn1_6 2.865268 1_545
Zn1_0 Zn1_6 2.865268 1_455
Zn1_1 Zn2_3 2.797427 1_545
Zn1_1 Zn2_5 2.797427 1_455
Zn1_1 Zn4_0 2.817993 1_555
Zn1_1 Zn3_3 2.819464 1_545
Zn1_1 Zn3_5 2.819464 1_455
Zn1_1 Zn1_7 2.865268 1_455
Zn1_1 Zn1_7 2.865268 1_545
Zn1_2 Zn2_6 2.797427 1_455
Zn1_2 Zn2_0 2.797427 1_555
Zn1_2 Zn4_3 2.817993 1_554
Zn1_2 Zn3_6 2.819464 1_455
Zn1_2 Zn3_0 2.819464 1_555
Zn1_2 Zn1_4 2.865268 1_555
Zn1_2 Zn1_4 2.865268 1_465
Zn1_3 Zn2_7 2.797427 1_455
Zn1_3 Zn2_1 2.797427 1_555
Zn1_3 Zn4_2 2.817993 1_555
Zn1_3 Zn3_7 2.819464 1_455
Zn1_3 Zn3_1 2.819464 1_555
Zn1_3 Zn1_5 2.865268 1_555
Zn1_3 Zn1_5 2.865268 1_465
Zn1_4 Zn2_6 2.797427 1_545
Zn1_4 Zn2_0 2.797427 1_555
Zn1_4 Zn4_5 2.817993 1_554
Zn1_4 Zn3_0 2.819464 1_555
Zn1_4 Zn3_6 2.819464 1_545
Zn1_5 Zn2_7 2.797427 1_545
Zn1_5 Zn2_1 2.797427 1_555
Zn1_5 Zn4_4 2.817993 1_555
Zn1_5 Zn3_7 2.819464 1_545
Zn1_5 Zn3_1 2.819464 1_555
Zn1_6 Zn2_2 2.797427 1_555
Zn1_6 Zn2_4 2.797427 1_555
Zn1_6 Zn4_7 2.817993 1_554
Zn1_6 Zn3_2 2.819464 1_555
Zn1_6 Zn3_4 2.819464 1_555
Zn1_7 Zn2_5 2.797427 1_555
Zn1_7 Zn2_3 2.797427 1_555
Zn1_7 Zn4_6 2.817993 1_555
Zn1_7 Zn3_5 2.819464 1_555
Zn1_7 Zn3_3 2.819464 1_555
Zn2_0 Zn4_4 2.739197 1_555
Zn2_0 Zn4_2 2.739197 1_555
Zn2_0 Zn3_0 2.820613 1_555
Zn2_0 Zn2_6 2.865268 1_545
Zn2_0 Zn2_6 2.865268 1_455
Zn2_0 Zn3_2 2.866686 1_555
Zn2_0 Zn3_4 2.866686 1_555
Zn2_1 Zn4_5 2.739197 1_555
Zn2_1 Zn4_3 2.739197 1_555
Zn2_1 Zn3_1 2.820613 1_555
Zn2_1 Zn2_7 2.865268 1_545
Zn2_1 Zn2_7 2.865268 1_455
Zn2_1 Zn3_5 2.866686 1_555
Zn2_1 Zn3_3 2.866686 1_555
Zn2_2 Zn4_0 2.739197 1_565
Zn2_2 Zn4_6 2.739197 1_555
Zn2_2 Zn3_2 2.820613 1_555
Zn2_2 Zn2_4 2.865268 1_465
Zn2_2 Zn2_4 2.865268 1_555
Zn2_2 Zn3_6 2.866686 1_555
Zn2_2 Zn3_0 2.866686 1_565
Zn2_3 Zn4_7 2.739197 1_555
Zn2_3 Zn4_1 2.739197 1_565
Zn2_3 Zn3_3 2.820613 1_555
Zn2_3 Zn2_5 2.865268 1_555
Zn2_3 Zn2_5 2.865268 1_465
Zn2_3 Zn3_1 2.866686 1_565
Zn2_3 Zn3_7 2.866686 1_555
Zn2_4 Zn4_0 2.739197 1_655
Zn2_4 Zn4_6 2.739197 1_555
Zn2_4 Zn3_4 2.820613 1_555
Zn2_4 Zn3_6 2.866686 1_555
Zn2_4 Zn3_0 2.866686 1_655
Zn2_5 Zn4_7 2.739197 1_555
Zn2_5 Zn4_1 2.739197 1_655
Zn2_5 Zn3_5 2.820613 1_555
Zn2_5 Zn3_7 2.866686 1_555
Zn2_5 Zn3_1 2.866686 1_655
Zn2_6 Zn4_2 2.739197 1_655
Zn2_6 Zn4_4 2.739197 1_565
Zn2_6 Zn3_6 2.820613 1_555
Zn2_6 Zn3_4 2.866686 1_565
Zn2_6 Zn3_2 2.866686 1_655
Zn2_7 Zn4_3 2.739197 1_655
Zn2_7 Zn4_5 2.739197 1_565
Zn2_7 Zn3_7 2.820613 1_555
Zn2_7 Zn3_5 2.866686 1_565
Zn2_7 Zn3_3 2.866686 1_655
Zn3_0 Zn4_2 2.791730 1_555
Zn3_0 Zn4_4 2.791730 1_555
Zn3_0 Zn3_6 2.865268 1_455
Zn3_0 Zn3_6 2.865268 1_545
Zn3_1 Zn4_3 2.791730 1_555
Zn3_1 Zn4_5 2.791730 1_555
Zn3_1 Zn3_7 2.865268 1_545
Zn3_1 Zn3_7 2.865268 1_455
Zn3_2 Zn4_6 2.791730 1_555
Zn3_2 Zn4_0 2.791730 1_565
Zn3_2 Zn3_4 2.865268 1_465
Zn3_2 Zn3_4 2.865268 1_555
Zn3_3 Zn4_7 2.791730 1_555
Zn3_3 Zn4_1 2.791730 1_565
Zn3_3 Zn3_5 2.865268 1_465
Zn3_3 Zn3_5 2.865268 1_555
Zn3_4 Zn4_6 2.791730 1_555
Zn3_4 Zn4_0 2.791730 1_655
Zn3_5 Zn4_7 2.791730 1_555
Zn3_5 Zn4_1 2.791730 1_655
Zn3_6 Zn4_2 2.791730 1_655
Zn3_6 Zn4_4 2.791730 1_565
Zn3_7 Zn4_3 2.791730 1_655
Zn3_7 Zn4_5 2.791730 1_565
Zn4_0 Zn4_6 2.865268 1_545
Zn4_0 Zn4_6 2.865268 1_455
Zn4_1 Zn4_7 2.865268 1_455
Zn4_1 Zn4_7 2.865268 1_545
Zn4_2 Zn4_4 2.865268 1_555
Zn4_2 Zn4_4 2.865268 1_465
Zn4_3 Zn4_5 2.865268 1_555
Zn4_3 Zn4_5 2.865268 1_465
