# generated using pymatgen
data_YCoC6N6O5
_symmetry_space_group_name_H-M   'P 1'
_cell_length_a   7.57012786
_cell_length_b   7.57012786
_cell_length_c   12.85938100
_cell_angle_alpha   90.00000000
_cell_angle_beta   90.00000000
_cell_angle_gamma   119.99999880
_symmetry_Int_Tables_number   1
_chemical_formula_structural   YCoC6N6O5
_chemical_formula_sum   'Y2 Co2 C12 N12 O10'
_cell_volume   638.20048635
_cell_formula_units_Z   2
loop_
 _symmetry_equiv_pos_site_id
 _symmetry_equiv_pos_as_xyz
  1  'x, y, z'
loop_
 _atom_site_type_symbol
 _atom_site_label
 _atom_site_symmetry_multiplicity
 _atom_site_fract_x
 _atom_site_fract_y
 _atom_site_fract_z
 _atom_site_occupancy
  Y  Y0  1  0.33333300  0.66666700  0.75000000  1
  Y  Y1  1  0.66666700  0.33333300  0.25000000  1
  Co  Co0  1  0.00000000  0.00000000  0.00000000  1
  Co  Co1  1  0.00000000  0.00000000  0.50000000  1
  C  C0  1  0.76573600  0.89610700  0.91756000  1
  C  C1  1  0.23426400  0.10389300  0.08244000  1
  C  C2  1  0.13037100  0.23426400  0.91756000  1
  C  C3  1  0.23426400  0.10389300  0.41756000  1
  C  C4  1  0.86962900  0.76573600  0.08244000  1
  C  C5  1  0.76573600  0.89610700  0.58244000  1
  C  C6  1  0.10389300  0.86962900  0.91756000  1
  C  C7  1  0.86962900  0.76573600  0.41756000  1
  C  C8  1  0.89610700  0.13037100  0.08244000  1
  C  C9  1  0.13037100  0.23426400  0.58244000  1
  C  C10  1  0.89610700  0.13037100  0.41756000  1
  C  C11  1  0.10389300  0.86962900  0.58244000  1
  N  N0  1  0.61596500  0.82697300  0.86776100  1
  N  N1  1  0.38403500  0.17302700  0.13223900  1
  N  N2  1  0.21100700  0.38403500  0.86776100  1
  N  N3  1  0.38403500  0.17302700  0.36776100  1
  N  N4  1  0.78899300  0.61596500  0.13223900  1
  N  N5  1  0.61596500  0.82697300  0.63223900  1
  N  N6  1  0.17302700  0.78899300  0.86776100  1
  N  N7  1  0.78899300  0.61596500  0.36776100  1
  N  N8  1  0.82697300  0.21100700  0.13223900  1
  N  N9  1  0.21100700  0.38403500  0.63223900  1
  N  N10  1  0.82697300  0.21100700  0.36776100  1
  N  N11  1  0.17302700  0.78899300  0.63223900  1
  O  O0  1  0.66666700  0.33333300  0.84337900  1
  O  O1  1  0.33333300  0.66666700  0.15662100  1
  O  O2  1  0.33333300  0.66666700  0.34337900  1
  O  O3  1  0.66666700  0.33333300  0.65662100  1
  O  O4  1  0.92694200  0.44066400  0.75000000  1
  O  O5  1  0.07305800  0.55933600  0.25000000  1
  O  O6  1  0.51372300  0.07305800  0.75000000  1
  O  O7  1  0.48627700  0.92694200  0.25000000  1
  O  O8  1  0.55933600  0.48627700  0.75000000  1
  O  O9  1  0.44066400  0.51372300  0.25000000  1
loop_
_geom_bond_atom_site_label_1
_geom_bond_atom_site_label_2
_geom_bond_distance
_geom_bond_site_symmetry_2
C0 N0 1.173069 1_555
C0 Co0 1.868863 1_666
C1 N1 1.173069 1_555
C1 Co0 1.868863 1_555
C2 N2 1.173068 1_555
C2 Co0 1.868863 1_556
C3 N3 1.173069 1_555
C3 Co1 1.868863 1_555
C4 N4 1.173068 1_555
C4 Co0 1.868863 1_665
C5 N5 1.173069 1_555
C5 Co1 1.868863 1_665
C6 N6 1.173063 1_555
C6 Co0 1.868863 1_566
C7 N7 1.173068 1_555
C7 Co1 1.868863 1_665
C8 N8 1.173063 1_555
C8 Co0 1.868863 1_655
C9 N9 1.173068 1_555
C9 Co1 1.868863 1_555
C10 N10 1.173063 1_555
C10 Co1 1.868863 1_655
C11 N11 1.173063 1_555
C11 Co1 1.868863 1_565
N0 Y0 2.397324 1_555
N1 Y1 2.397324 1_555
N2 Y0 2.397324 1_555
N3 Y1 2.397324 1_555
N4 Y1 2.397324 1_555
N5 Y0 2.397324 1_555
N6 Y0 2.397324 1_555
N7 Y1 2.397324 1_555
N8 Y1 2.397324 1_555
N9 Y0 2.397324 1_555
N10 Y1 2.397324 1_555
N11 Y0 2.397324 1_555
O0 O8 2.093639 1_555
O0 O4 2.093639 1_555
O0 O6 2.093639 1_555
O1 O9 2.093639 1_555
O1 O5 2.093639 1_555
O1 O7 2.093639 1_555
O2 O9 2.093639 1_555
O2 O5 2.093639 1_555
O2 O7 2.093639 1_555
O3 O8 2.093639 1_555
O3 O4 2.093639 1_555
O3 O6 2.093639 1_555
O4 Y0 2.669857 1_655
O5 Y1 2.669857 1_455
O6 Y0 2.669856 1_545
O7 Y1 2.669856 1_565
O8 Y0 2.669869 1_555
O9 Y1 2.669869 1_555
