# generated using pymatgen
data_Tb11(In3Si2)2
_symmetry_space_group_name_H-M   'P 1'
_cell_length_a   11.53485944
_cell_length_b   11.53485944
_cell_length_c   11.53485944
_cell_angle_alpha   119.83609709
_cell_angle_beta   119.83609709
_cell_angle_gamma   90.28412338
_symmetry_Int_Tables_number   1
_chemical_formula_structural   Tb11(In3Si2)2
_chemical_formula_sum   'Tb22 In12 Si8'
_cell_volume   1087.90438312
_cell_formula_units_Z   2
loop_
 _symmetry_equiv_pos_site_id
 _symmetry_equiv_pos_as_xyz
  1  'x, y, z'
loop_
 _atom_site_type_symbol
 _atom_site_label
 _atom_site_symmetry_multiplicity
 _atom_site_fract_x
 _atom_site_fract_y
 _atom_site_fract_z
 _atom_site_occupancy
  Tb  Tb0  1  0.68462100  0.93476000  0.25013800  1
  Tb  Tb1  1  0.68462100  0.43448300  0.74986200  1
  Tb  Tb2  1  0.93476000  0.68462100  0.25013800  1
  Tb  Tb3  1  0.43448300  0.68462100  0.74986200  1
  Tb  Tb4  1  0.31537900  0.06524000  0.74986200  1
  Tb  Tb5  1  0.31537900  0.56551700  0.25013800  1
  Tb  Tb6  1  0.06524000  0.31537900  0.74986200  1
  Tb  Tb7  1  0.56551700  0.31537900  0.25013800  1
  Tb  Tb8  1  0.89923400  0.24652600  0.34729200  1
  Tb  Tb9  1  0.89923400  0.55194100  0.65270800  1
  Tb  Tb10  1  0.24652600  0.89923400  0.34729200  1
  Tb  Tb11  1  0.55194100  0.89923400  0.65270800  1
  Tb  Tb12  1  0.10076600  0.75347400  0.65270800  1
  Tb  Tb13  1  0.10076600  0.44805900  0.34729200  1
  Tb  Tb14  1  0.75347400  0.10076600  0.65270800  1
  Tb  Tb15  1  0.44805900  0.10076600  0.34729200  1
  Tb  Tb16  1  0.33274300  0.33274300  0.66548500  1
  Tb  Tb17  1  0.66725700  0.66725700  0.33451500  1
  Tb  Tb18  1  0.33274300  0.66725700  0.00000000  1
  Tb  Tb19  1  0.66725700  0.33274300  0.00000000  1
  Tb  Tb20  1  0.83200800  0.83200800  0.00000000  1
  Tb  Tb21  1  0.16799200  0.16799200  0.00000000  1
  In  In0  1  0.03377300  0.03377300  0.41059300  1
  In  In1  1  0.62318000  0.62318000  0.58940700  1
  In  In2  1  0.03377300  0.62318000  0.00000000  1
  In  In3  1  0.62318000  0.03377300  0.00000000  1
  In  In4  1  0.96622700  0.96622700  0.58940700  1
  In  In5  1  0.37682000  0.37682000  0.41059300  1
  In  In6  1  0.96622700  0.37682000  0.00000000  1
  In  In7  1  0.37682000  0.96622700  0.00000000  1
  In  In8  1  0.12929000  0.12929000  0.25858000  1
  In  In9  1  0.87071000  0.87071000  0.74142000  1
  In  In10  1  0.12929000  0.87071000  0.00000000  1
  In  In11  1  0.87071000  0.12929000  0.00000000  1
  Si  Si0  1  0.15361000  0.50000000  0.65361000  1
  Si  Si1  1  0.84639000  0.50000000  0.34639000  1
  Si  Si2  1  0.50000000  0.84639000  0.34639000  1
  Si  Si3  1  0.50000000  0.15361000  0.65361000  1
  Si  Si4  1  0.61705400  0.61705400  0.00000000  1
  Si  Si5  1  0.38294600  0.38294600  0.00000000  1
  Si  Si6  1  0.75000000  0.25000000  0.50000000  1
  Si  Si7  1  0.25000000  0.75000000  0.50000000  1
loop_
_geom_bond_atom_site_label_1
_geom_bond_atom_site_label_2
_geom_bond_distance
_geom_bond_site_symmetry_2
In0 In4 2.942874 1_445
In0 In8 3.055325 1_555
In0 Tb8 3.107611 1_455
In0 Tb10 3.107611 1_545
In0 Tb20 3.357736 1_445
In0 Tb2 3.374019 1_445
In0 Tb0 3.374019 1_445
In0 Tb6 3.453114 1_555
In0 Tb4 3.453114 1_555
In0 Tb16 3.483360 1_555
In1 In5 2.942874 1_555
In1 In9 3.055325 1_555
In1 Tb11 3.107615 1_555
In1 Tb9 3.107615 1_555
In1 Tb20 3.357736 1_556
In1 Tb3 3.374019 1_555
In1 Tb1 3.374019 1_555
In1 Tb7 3.453109 1_555
In1 Tb5 3.453109 1_555
In1 Tb17 3.483347 1_555
In2 In6 2.942874 1_455
In2 Tb9 3.107606 1_454
In2 Tb10 3.107611 1_555
In2 Tb20 3.357736 1_455
In2 Tb2 3.374011 1_455
In2 Tb1 3.374019 1_454
In2 Tb6 3.453103 1_554
In2 Tb5 3.453109 1_555
In2 Tb18 3.483359 1_555
In3 In7 2.942874 1_545
In3 Tb11 3.107606 1_544
In3 Tb8 3.107611 1_555
In3 Tb20 3.357736 1_545
In3 Tb0 3.374011 1_545
In3 Tb3 3.374019 1_544
In3 Tb4 3.453103 1_554
In3 Tb7 3.453109 1_555
In3 Tb19 3.483359 1_555
In4 In9 3.055325 1_555
In4 Tb14 3.107611 1_565
In4 Tb12 3.107611 1_655
In4 Tb21 3.357736 1_666
In4 Tb4 3.374019 1_665
In4 Tb6 3.374019 1_665
In4 Tb2 3.453114 1_555
In4 Tb0 3.453114 1_555
In4 Tb17 3.483360 1_555
In5 In8 3.055325 1_555
In5 Tb15 3.107615 1_555
In5 Tb13 3.107615 1_555
In5 Tb21 3.357736 1_555
In5 Tb7 3.374019 1_555
In5 Tb5 3.374019 1_555
In5 Tb3 3.453109 1_555
In5 Tb1 3.453109 1_555
In5 Tb16 3.483347 1_555
In6 Tb13 3.107606 1_655
In6 Tb14 3.107611 1_554
In6 Tb21 3.357736 1_655
In6 Tb6 3.374011 1_654
In6 Tb5 3.374019 1_655
In6 Tb2 3.453103 1_555
In6 Tb1 3.453109 1_554
In6 Tb19 3.483359 1_555
In7 Tb15 3.107606 1_565
In7 Tb12 3.107611 1_554
In7 Tb21 3.357736 1_565
In7 Tb4 3.374011 1_564
In7 Tb7 3.374019 1_565
In7 Tb0 3.453103 1_555
In7 Tb3 3.453109 1_554
In7 Tb18 3.483359 1_555
In8 Tb16 3.327089 1_555
In8 Tb10 3.358332 1_545
In8 Tb8 3.358332 1_455
In8 Tb15 3.358343 1_555
In8 Tb13 3.358343 1_555
In8 Tb21 3.455847 1_555
In8 Tb20 3.455847 1_445
In9 Tb17 3.327089 1_555
In9 Tb12 3.358332 1_655
In9 Tb14 3.358332 1_565
In9 Tb11 3.358343 1_555
In9 Tb9 3.358343 1_555
In9 Tb21 3.455847 1_666
In9 Tb20 3.455847 1_556
In10 In9 2.990070 1_454
In10 In8 2.990070 1_565
In10 In7 3.055325 1_555
In10 In2 3.055325 1_555
In10 Tb18 3.327098 1_555
In10 Tb12 3.358332 1_554
In10 Tb10 3.358332 1_555
In10 Tb15 3.358338 1_565
In10 Tb9 3.358338 1_454
In10 Tb21 3.455847 1_565
In10 Tb20 3.455847 1_455
In11 In9 2.990070 1_544
In11 In8 2.990070 1_655
In11 In6 3.055325 1_555
In11 In3 3.055325 1_555
In11 Tb19 3.327098 1_555
In11 Tb14 3.358332 1_554
In11 Tb8 3.358332 1_555
In11 Tb13 3.358338 1_655
In11 Tb11 3.358338 1_544
In11 Tb21 3.455847 1_655
In11 Tb20 3.455847 1_545
Si0 Tb16 2.833948 1_555
Si0 Tb18 2.833948 1_556
Si0 Tb9 2.993628 1_455
Si0 Tb12 2.993630 1_555
Si0 Tb8 2.993630 1_455
Si0 Tb13 2.993635 1_555
Si0 Tb3 3.203747 1_555
Si0 Tb6 3.203753 1_555
Si1 Tb17 2.833948 1_555
Si1 Tb19 2.833948 1_555
Si1 Tb13 2.993628 1_655
Si1 Tb12 2.993630 1_655
Si1 Tb8 2.993630 1_555
Si1 Tb9 2.993635 1_555
Si1 Tb7 3.203747 1_555
Si1 Tb2 3.203753 1_555
Si2 Tb17 2.833948 1_555
Si2 Tb18 2.833948 1_555
Si2 Tb15 2.993628 1_565
Si2 Tb14 2.993630 1_565
Si2 Tb10 2.993630 1_555
Si2 Tb11 2.993635 1_555
Si2 Tb5 3.203747 1_555
Si2 Tb0 3.203753 1_555
Si3 Tb16 2.833948 1_555
Si3 Tb19 2.833948 1_556
Si3 Tb11 2.993628 1_545
Si3 Tb14 2.993630 1_555
Si3 Tb10 2.993630 1_545
Si3 Tb15 2.993635 1_555
Si3 Tb1 3.203747 1_555
Si3 Tb4 3.203753 1_555
Si4 Tb1 3.094367 1_554
Si4 Tb3 3.094367 1_554
Si4 Tb0 3.094375 1_555
Si4 Tb2 3.094375 1_555
Si4 Tb18 3.333048 1_555
Si4 Tb19 3.333048 1_555
Si4 Tb16 3.333050 1_554
Si4 Tb17 3.333060 1_555
Si4 Tb20 3.497787 1_555
Si5 Tb5 3.094367 1_555
Si5 Tb7 3.094367 1_555
Si5 Tb6 3.094375 1_554
Si5 Tb4 3.094375 1_554
Si5 Tb18 3.333048 1_555
Si5 Tb19 3.333048 1_555
Si5 Tb17 3.333050 1_555
Si5 Tb16 3.333060 1_554
Si5 Tb21 3.497787 1_555
Si6 Tb15 3.002514 1_555
Si6 Tb9 3.002514 1_555
Si6 Tb14 3.002523 1_555
Si6 Tb8 3.002523 1_555
Si6 Tb6 3.078893 1_655
Si6 Tb0 3.078893 1_545
Si6 Tb1 3.078901 1_555
Si6 Tb7 3.078901 1_555
Si7 Tb13 3.002514 1_555
Si7 Tb11 3.002514 1_555
Si7 Tb12 3.002523 1_555
Si7 Tb10 3.002523 1_555
Si7 Tb2 3.078893 1_455
Si7 Tb4 3.078893 1_565
Si7 Tb3 3.078901 1_555
Si7 Tb5 3.078901 1_555
