# generated using pymatgen
data_Pu2Si5Pt3
_symmetry_space_group_name_H-M   'P 1'
_cell_length_a   8.15079908
_cell_length_b   8.15079908
_cell_length_c   8.15079908
_cell_angle_alpha   136.43975373
_cell_angle_beta   104.44519084
_cell_angle_gamma   91.48390154
_symmetry_Int_Tables_number   1
_chemical_formula_structural   Pu2Si5Pt3
_chemical_formula_sum   'Pu4 Si10 Pt6'
_cell_volume   343.59698448
_cell_formula_units_Z   2
loop_
 _symmetry_equiv_pos_site_id
 _symmetry_equiv_pos_as_xyz
  1  'x, y, z'
loop_
 _atom_site_type_symbol
 _atom_site_label
 _atom_site_symmetry_multiplicity
 _atom_site_fract_x
 _atom_site_fract_y
 _atom_site_fract_z
 _atom_site_occupancy
  Pu  Pu0  1  0.09841200  0.86946900  0.22894300  1
  Pu  Pu1  1  0.90158800  0.13053100  0.77105700  1
  Pu  Pu2  1  0.64052600  0.36946900  0.27105700  1
  Pu  Pu3  1  0.35947400  0.63053100  0.72894300  1
  Si  Si0  1  0.00000000  0.75000000  0.75000000  1
  Si  Si1  1  0.00000000  0.25000000  0.25000000  1
  Si  Si2  1  0.27390600  0.02390600  0.75000000  1
  Si  Si3  1  0.72609400  0.47609400  0.75000000  1
  Si  Si4  1  0.72609400  0.97609400  0.25000000  1
  Si  Si5  1  0.27390600  0.52390600  0.25000000  1
  Si  Si6  1  0.76455000  0.61158900  0.15296100  1
  Si  Si7  1  0.23545000  0.38841100  0.84703900  1
  Si  Si8  1  0.45862800  0.11158900  0.34703900  1
  Si  Si9  1  0.54137200  0.88841100  0.65296100  1
  Pt  Pt0  1  0.50000000  0.75000000  0.25000000  1
  Pt  Pt1  1  0.50000000  0.25000000  0.75000000  1
  Pt  Pt2  1  0.02739200  0.63836700  0.38902400  1
  Pt  Pt3  1  0.97260800  0.36163300  0.61097600  1
  Pt  Pt4  1  0.24934300  0.13836700  0.11097600  1
  Pt  Pt5  1  0.75065700  0.86163300  0.88902400  1
loop_
_geom_bond_atom_site_label_1
_geom_bond_atom_site_label_2
_geom_bond_distance
_geom_bond_site_symmetry_2
Pu0 Si8 2.996383 1_565
Pu0 Si6 3.030367 1_455
Pu0 Si0 3.117535 1_554
Pu0 Si1 3.117535 1_565
Pu0 Si3 3.189728 1_454
Pu0 Si4 3.189728 1_455
Pu0 Si7 3.253273 1_554
Pu0 Si7 3.253273 1_565
Pu0 Si5 3.285676 1_555
Pu0 Si2 3.285676 1_565
Pu1 Si9 2.996383 1_545
Pu1 Si7 3.030367 1_655
Pu1 Si0 3.117535 1_645
Pu1 Si1 3.117535 1_656
Pu1 Si2 3.189728 1_655
Pu1 Si5 3.189728 1_656
Pu1 Si6 3.253273 1_556
Pu1 Si6 3.253273 1_545
Pu1 Si3 3.285676 1_555
Pu1 Si4 3.285676 1_545
Pu2 Si6 2.996383 1_555
Pu2 Si8 3.030367 1_555
Pu2 Si0 3.117535 1_655
Pu2 Si1 3.117535 1_655
Pu2 Si3 3.189728 1_555
Pu2 Si4 3.189728 1_545
Pu2 Si9 3.253273 1_555
Pu2 Si9 3.253273 1_544
Pu2 Si5 3.285676 1_555
Pu2 Si2 3.285676 1_554
Pu3 Si7 2.996383 1_555
Pu3 Si9 3.030367 1_555
Pu3 Si0 3.117535 1_555
Pu3 Si1 3.117535 1_555
Pu3 Si2 3.189728 1_565
Pu3 Si5 3.189728 1_555
Pu3 Si8 3.253273 1_566
Pu3 Si8 3.253273 1_555
Pu3 Si4 3.285676 1_556
Pu3 Si3 3.285676 1_555
Si2 Si9 2.513350 1_545
Si2 Si7 2.513350 1_555
Si3 Si6 2.513350 1_556
Si3 Si8 2.513350 1_555
Si4 Si6 2.513350 1_555
Si4 Si8 2.513350 1_565
Si5 Si9 2.513350 1_555
Si5 Si7 2.513350 1_554
Pt0 Si8 2.496317 1_565
Pt0 Si7 2.496317 1_554
Pt0 Si9 2.496317 1_555
Pt0 Si6 2.496317 1_555
Pt0 Si4 2.572213 1_555
Pt0 Si5 2.572213 1_555
Pt0 Pu0 3.437870 1_555
Pt0 Pu2 3.437870 1_555
Pt0 Pu3 3.437870 1_554
Pt0 Pu1 3.437870 1_565
Pt1 Si6 2.496317 1_556
Pt1 Si7 2.496317 1_555
Pt1 Si8 2.496317 1_555
Pt1 Si9 2.496317 1_545
Pt1 Si3 2.572213 1_555
Pt1 Si2 2.572213 1_555
Pt1 Pu2 3.437870 1_556
Pt1 Pu0 3.437870 1_545
Pt1 Pu3 3.437870 1_555
Pt1 Pu1 3.437870 1_555
Pt2 Si6 2.377001 1_455
Pt2 Si5 2.427451 1_555
Pt2 Si2 2.427455 1_565
Pt2 Si1 2.448022 1_555
Pt2 Si0 2.448026 1_555
Pt2 Pu0 3.077041 1_555
Pt2 Pu1 3.246884 1_454
Pt2 Pu1 3.246889 1_465
Pt2 Pu2 3.278178 1_455
Pt2 Pu3 3.395693 1_555
Pt3 Si7 2.377001 1_655
Pt3 Si3 2.427451 1_555
Pt3 Si4 2.427455 1_545
Pt3 Si0 2.448022 1_655
Pt3 Si1 2.448026 1_655
Pt3 Pu1 3.077041 1_555
Pt3 Pu0 3.246884 1_656
Pt3 Pu0 3.246889 1_645
Pt3 Pu3 3.278178 1_655
Pt3 Pu2 3.395693 1_555
Pt4 Si8 2.376995 1_555
Pt4 Si5 2.427459 1_555
Pt4 Si2 2.427459 1_554
Pt4 Si1 2.448022 1_555
Pt4 Si0 2.448022 1_544
Pt4 Pu2 3.077043 1_555
Pt4 Pu3 3.246885 1_544
Pt4 Pu3 3.246885 1_555
Pt4 Pu0 3.278171 1_545
Pt4 Pu1 3.395698 1_454
Pt5 Si9 2.376995 1_555
Pt5 Si4 2.427459 1_556
Pt5 Si3 2.427459 1_555
Pt5 Si0 2.448022 1_655
Pt5 Si1 2.448022 1_666
Pt5 Pu3 3.077043 1_555
Pt5 Pu2 3.246885 1_555
Pt5 Pu2 3.246885 1_566
Pt5 Pu1 3.278171 1_565
Pt5 Pu0 3.395698 1_656
