# generated using pymatgen
data_Y2Ga3(Fe7C)2
_symmetry_space_group_name_H-M   'P 1'
_cell_length_a   6.57895653
_cell_length_b   6.57895653
_cell_length_c   6.60395748
_cell_angle_alpha   83.64889842
_cell_angle_beta   83.64889842
_cell_angle_gamma   82.86064230
_symmetry_Int_Tables_number   1
_chemical_formula_structural   Y2Ga3(Fe7C)2
_chemical_formula_sum   'Y2 Ga3 Fe14 C2'
_cell_volume   280.51677646
_cell_formula_units_Z   1
loop_
 _symmetry_equiv_pos_site_id
 _symmetry_equiv_pos_as_xyz
  1  'x, y, z'
loop_
 _atom_site_type_symbol
 _atom_site_label
 _atom_site_symmetry_multiplicity
 _atom_site_fract_x
 _atom_site_fract_y
 _atom_site_fract_z
 _atom_site_occupancy
  Y  Y0  1  0.34673100  0.34673100  0.33964600  1
  Y  Y1  1  0.65326900  0.65326900  0.66035400  1
  Ga  Ga0  1  0.00000000  0.00000000  0.50000000  1
  Ga  Ga1  1  0.00000000  0.50000000  0.00000000  1
  Ga  Ga2  1  0.50000000  0.00000000  0.00000000  1
  Fe  Fe0  1  0.09264400  0.09264400  0.09485500  1
  Fe  Fe1  1  0.90735600  0.90735600  0.90514500  1
  Fe  Fe2  1  0.65440600  0.65440600  0.15179700  1
  Fe  Fe3  1  0.65341700  0.15114100  0.65585200  1
  Fe  Fe4  1  0.15114100  0.65341700  0.65585200  1
  Fe  Fe5  1  0.34559400  0.34559400  0.84820300  1
  Fe  Fe6  1  0.34658300  0.84885900  0.34414800  1
  Fe  Fe7  1  0.84885900  0.34658300  0.34414800  1
  Fe  Fe8  1  0.70909500  0.29090500  0.00000000  1
  Fe  Fe9  1  0.28605600  0.00007800  0.71407100  1
  Fe  Fe10  1  0.99992200  0.71394400  0.28592900  1
  Fe  Fe11  1  0.71394400  0.99992200  0.28592900  1
  Fe  Fe12  1  0.00007800  0.28605600  0.71407100  1
  Fe  Fe13  1  0.29090500  0.70909500  0.00000000  1
  C  C0  1  0.50000000  0.00000000  0.50000000  1
  C  C1  1  0.00000000  0.50000000  0.50000000  1
loop_
_geom_bond_atom_site_label_1
_geom_bond_atom_site_label_2
_geom_bond_distance
_geom_bond_site_symmetry_2
Ga0 Y0 3.428273 1_555
Ga0 Y1 3.428273 1_445
Ga1 Y1 3.363222 1_454
Ga1 Y0 3.363222 1_555
Ga2 Y1 3.363222 1_544
Ga2 Y0 3.363222 1_555
Fe0 Fe1 2.363611 1_444
Fe0 Ga1 2.693177 1_555
Fe0 Ga2 2.693177 1_555
Fe0 Ga0 2.696732 1_555
Fe0 Fe7 2.726187 1_455
Fe0 Fe6 2.726187 1_545
Fe0 Fe5 2.771454 1_554
Fe0 Fe11 2.771936 1_445
Fe0 Fe10 2.771936 1_445
Fe0 Fe12 2.784220 1_554
Fe0 Fe9 2.784220 1_554
Fe0 Fe8 2.794971 1_455
Fe0 Fe13 2.794971 1_545
Fe0 Y0 3.176846 1_555
Fe1 Ga2 2.693177 1_566
Fe1 Ga1 2.693177 1_656
Fe1 Ga0 2.696732 1_665
Fe1 Fe3 2.726187 1_565
Fe1 Fe4 2.726187 1_655
Fe1 Fe2 2.771454 1_556
Fe1 Fe12 2.771936 1_665
Fe1 Fe9 2.771936 1_665
Fe1 Fe11 2.784220 1_556
Fe1 Fe10 2.784220 1_556
Fe1 Fe13 2.794971 1_656
Fe1 Fe8 2.794971 1_566
Fe1 Y1 3.176846 1_555
Fe2 Ga2 2.520565 1_565
Fe2 Ga1 2.520565 1_655
Fe2 Fe6 2.549091 1_555
Fe2 Fe7 2.549091 1_555
Fe2 Fe8 2.662737 1_555
Fe2 Y0 3.104981 1_555
Fe2 Y1 3.247143 1_554
Fe2 Y1 3.356852 1_555
Fe3 Ga0 2.528006 1_655
Fe3 Ga2 2.532741 1_556
Fe3 Fe5 2.549091 1_555
Fe3 Fe8 2.622071 1_556
Fe4 Ga0 2.528006 1_565
Fe4 Ga1 2.532741 1_556
Fe4 Fe5 2.549091 1_555
Fe5 Ga2 2.520565 1_556
Fe5 Ga1 2.520565 1_556
Fe5 Fe9 2.617017 1_555
Fe5 Fe8 2.662737 1_556
Fe5 Y1 3.104981 1_555
Fe5 Y0 3.247143 1_556
Fe5 Y0 3.356852 1_555
Fe6 Ga0 2.528006 1_565
Fe6 Ga2 2.532741 1_565
Fe7 Ga0 2.528006 1_655
Fe7 Ga1 2.532741 1_655
Fe7 Fe8 2.622071 1_555
Fe8 Ga2 2.491904 1_555
Fe8 Ga1 2.491904 1_655
Fe8 Y1 3.103370 1_554
Fe8 Y0 3.103370 1_555
Fe9 Ga0 2.475753 1_555
Fe9 Ga2 2.476750 1_556
Fe10 Ga0 2.475753 1_665
Fe10 Ga1 2.476750 1_655
Fe10 Fe13 2.535694 1_655
Fe10 Fe2 2.617017 1_555
Fe11 Ga0 2.475753 1_665
Fe11 Ga2 2.476750 1_565
Fe11 Fe8 2.535694 1_565
Fe11 Fe2 2.617017 1_555
Fe12 Ga0 2.475753 1_555
Fe12 Ga1 2.476750 1_556
Fe12 Fe8 2.535694 1_456
Fe12 Fe5 2.617017 1_555
Fe13 Ga2 2.491904 1_565
Fe13 Ga1 2.491904 1_555
Fe13 Fe9 2.535694 1_564
Fe13 Fe4 2.622071 1_554
Fe13 Fe6 2.622071 1_555
Fe13 Fe5 2.662737 1_554
Fe13 Fe2 2.662737 1_555
Fe13 Y1 3.103370 1_554
Fe13 Y0 3.103370 1_555
C0 Fe9 1.881349 1_555
C0 Fe11 1.881349 1_545
C0 Fe6 1.942299 1_545
C0 Fe3 1.942299 1_555
C0 Y0 2.543972 1_555
C0 Y1 2.543972 1_545
C1 Fe12 1.881349 1_555
C1 Fe10 1.881349 1_455
C1 Fe7 1.942299 1_455
C1 Fe4 1.942299 1_555
C1 Y0 2.543972 1_555
C1 Y1 2.543972 1_455
