# generated using pymatgen
data_Pr12Ge5S28
_symmetry_space_group_name_H-M   'P 1'
_cell_length_a   10.23934301
_cell_length_b   11.73205680
_cell_length_c   11.78907201
_cell_angle_alpha   119.78250946
_cell_angle_beta   115.74137462
_cell_angle_gamma   90.00303110
_symmetry_Int_Tables_number   1
_chemical_formula_structural   Pr12Ge5S28
_chemical_formula_sum   'Pr12 Ge5 S28'
_cell_volume   1064.16452250
_cell_formula_units_Z   1
loop_
 _symmetry_equiv_pos_site_id
 _symmetry_equiv_pos_as_xyz
  1  'x, y, z'
loop_
 _atom_site_type_symbol
 _atom_site_label
 _atom_site_symmetry_multiplicity
 _atom_site_fract_x
 _atom_site_fract_y
 _atom_site_fract_z
 _atom_site_occupancy
  Pr  Pr0  1  0.13074575  0.29729413  0.36708841  1
  Pr  Pr1  1  0.12466865  0.80951552  0.34803665  1
  Pr  Pr2  1  0.22658080  0.57305165  0.87835724  1
  Pr  Pr3  1  0.23273814  0.05013012  0.86830201  1
  Pr  Pr4  1  0.65375296  0.52327738  0.77971152  1
  Pr  Pr5  1  0.63400605  0.99406983  0.75933512  1
  Pr  Pr6  1  0.87965268  0.69300021  0.65436081  1
  Pr  Pr7  1  0.86285235  0.20038647  0.63293039  1
  Pr  Pr8  1  0.76873605  0.45004667  0.13563513  1
  Pr  Pr9  1  0.77728634  0.92897916  0.12063369  1
  Pr  Pr10  1  0.36461034  0.49640401  0.22988738  1
  Pr  Pr11  1  0.34635343  0.98135941  0.22343803  1
  Ge  Ge0  1  0.34075318  0.25134763  0.67399964  1
  Ge  Ge1  1  0.32645689  0.74395760  0.66143983  1
  Ge  Ge2  1  0.66882820  0.83644248  0.33556764  1
  Ge  Ge3  1  0.66379606  0.33119509  0.32999562  1
  Ge  Ge4  1  0.99814908  0.23371295  -0.00040120  1
  S  S0  1  0.09572584  0.00397927  0.26771349  1
  S  S1  1  0.08476166  0.45759768  0.22810547  1
  S  S2  1  0.14095758  0.30247450  0.91392818  1
  S  S3  1  0.17146446  0.82105130  0.90571647  1
  S  S4  1  0.76897882  0.27403260  0.85608384  1
  S  S5  1  0.73620364  0.78067935  0.82691196  1
  S  S6  1  0.91629714  0.00433924  0.76345718  1
  S  S7  1  0.90669400  0.48601264  0.73956046  1
  S  S8  1  0.83478595  0.66395912  0.09594274  1
  S  S9  1  0.84617766  0.16236910  0.08141970  1
  S  S10  1  0.26130325  0.69989667  0.16738777  1
  S  S11  1  0.23666166  0.19800035  0.15310954  1
  S  S12  1  0.33557220  0.06262545  0.66866605  1
  S  S13  1  0.33262889  0.56081149  0.66604765  1
  S  S14  1  0.65844660  0.13985538  0.31847912  1
  S  S15  1  0.67403866  0.65577526  0.34749651  1
  S  S16  1  0.42862964  0.25639310  0.53284458  1
  S  S17  1  0.39846506  0.74345209  0.50817072  1
  S  S18  1  0.11475965  0.29071822  0.60277119  1
  S  S19  1  0.09817792  0.77625297  0.57185101  1
  S  S20  1  0.48162564  0.44196000  0.90001283  1
  S  S21  1  0.47932173  0.93299732  0.88938728  1
  S  S22  1  0.58547524  0.98435820  0.48061208  1
  S  S23  1  0.58074570  0.47793262  0.47415451  1
  S  S24  1  0.89586429  0.95499966  0.41998723  1
  S  S25  1  0.89252188  0.44562592  0.41159853  1
  S  S26  1  0.52449956  0.79756155  0.10842749  1
  S  S27  1  0.51925470  0.29411762  0.10183652  1
loop_
_geom_bond_atom_site_label_1
_geom_bond_atom_site_label_2
_geom_bond_distance
_geom_bond_site_symmetry_2
Pr0 S11 2.890324 1_555
Pr0 S18 2.891487 1_555
Pr0 S9 2.918497 1_455
Pr0 S1 2.972285 1_555
Pr0 S0 2.995475 1_555
Pr0 S13 3.016508 1_555
Pr0 S16 3.017709 1_555
Pr0 S25 3.075522 1_455
Pr1 S8 2.802542 1_455
Pr1 S10 2.830941 1_555
Pr1 S0 2.844654 1_565
Pr1 S19 2.971941 1_555
Pr1 S17 2.980068 1_555
Pr1 S24 3.067543 1_455
Pr1 S12 3.086682 1_565
Pr1 S1 3.593223 1_555
Pr2 S10 2.803870 1_556
Pr2 S3 2.848509 1_555
Pr2 S7 2.851837 1_455
Pr2 S18 2.985925 1_555
Pr2 S20 3.010282 1_555
Pr2 S26 3.052063 1_556
Pr2 S13 3.077031 1_555
Pr2 S2 3.558507 1_555
Pr3 S21 2.849505 1_545
Pr3 S6 2.859433 1_455
Pr3 S11 2.895014 1_556
Pr3 S2 2.965568 1_555
Pr3 S19 3.016304 1_545
Pr3 S12 3.027304 1_555
Pr3 S3 3.037932 1_545
Pr3 S27 3.087836 1_556
Pr4 S8 2.818345 1_556
Pr4 S7 2.825322 1_555
Pr4 S5 2.839760 1_555
Pr4 S16 2.950727 1_555
Pr4 S20 3.089178 1_555
Pr4 S13 3.091968 1_555
Pr4 S23 3.094366 1_555
Pr4 S4 3.527952 1_555
Pr5 S6 2.871213 1_565
Pr5 S17 2.894259 1_555
Pr5 S9 2.902136 1_566
Pr5 S21 2.928006 1_555
Pr5 S4 2.984596 1_565
Pr5 S12 3.023953 1_565
Pr5 S5 3.042162 1_555
Pr5 S22 3.044129 1_555
Pr6 S3 2.802139 1_655
Pr6 S5 2.805423 1_555
Pr6 S25 2.950801 1_555
Pr6 S7 3.027242 1_555
Pr6 S23 3.045209 1_555
Pr6 S15 3.086294 1_555
Pr6 S19 3.121051 1_655
Pr6 S6 3.170260 1_565
Pr7 S24 2.874365 1_545
Pr7 S7 2.887179 1_555
Pr7 S2 2.895095 1_655
Pr7 S4 2.920599 1_555
Pr7 S22 2.960164 1_545
Pr7 S18 3.012193 1_655
Pr7 S14 3.045071 1_555
Pr7 S6 3.277526 1_555
Pr8 S4 2.893431 1_554
Pr8 S8 2.901025 1_555
Pr8 S27 2.902103 1_555
Pr8 S1 2.916706 1_655
Pr8 S25 2.962992 1_555
Pr8 S20 3.002074 1_554
Pr8 S15 3.019801 1_555
Pr8 S9 3.275026 1_555
Pr9 S5 2.818529 1_554
Pr9 S0 2.825860 1_665
Pr9 S26 2.924578 1_555
Pr9 S24 3.038041 1_555
Pr9 S8 3.057555 1_555
Pr9 S21 3.105740 1_554
Pr9 S9 3.122387 1_565
Pr9 S14 3.126462 1_565
Pr10 S23 2.884714 1_555
Pr10 S1 2.890794 1_555
Pr10 S10 2.903824 1_555
Pr10 S2 2.909720 1_554
Pr10 S17 2.974845 1_555
Pr10 S27 2.989340 1_555
Pr10 S15 3.010815 1_555
Pr10 S11 3.257826 1_555
Pr11 S3 2.819391 1_554
Pr11 S0 2.820383 1_565
Pr11 S22 2.938403 1_555
Pr11 S26 3.009938 1_555
Pr11 S10 3.071052 1_555
Pr11 S11 3.113476 1_565
Pr11 S14 3.121640 1_565
Pr11 S16 3.172483 1_565
Ge0 S12 2.183527 1_555
Ge0 S20 2.218779 1_555
Ge0 S18 2.229523 1_555
Ge0 S16 2.231769 1_555
Ge1 S13 2.176409 1_555
Ge1 S17 2.226014 1_555
Ge1 S19 2.230666 1_555
Ge1 S21 2.239539 1_555
Ge2 S15 2.192016 1_555
Ge2 S26 2.216220 1_555
Ge2 S24 2.223558 1_555
Ge2 S22 2.232437 1_555
Ge3 S14 2.179761 1_555
Ge3 S23 2.219040 1_555
Ge3 S25 2.229885 1_555
Ge3 S27 2.234790 1_555
Ge4 S1 2.416192 1_655
Ge4 S2 2.429231 1_654
Ge4 S4 2.437058 1_554
Ge4 S9 2.481561 1_555
Ge4 S6 2.494990 1_554
Ge4 S11 2.515828 1_655
