# generated using pymatgen
data_DyRu2
_symmetry_space_group_name_H-M   'P 1'
_cell_length_a   5.26089021
_cell_length_b   5.26089021
_cell_length_c   8.96529300
_cell_angle_alpha   90.00000000
_cell_angle_beta   90.00000000
_cell_angle_gamma   119.91882240
_symmetry_Int_Tables_number   1
_chemical_formula_structural   DyRu2
_chemical_formula_sum   'Dy4 Ru8'
_cell_volume   215.06427221
_cell_formula_units_Z   4
loop_
 _symmetry_equiv_pos_site_id
 _symmetry_equiv_pos_as_xyz
  1  'x, y, z'
loop_
 _atom_site_type_symbol
 _atom_site_label
 _atom_site_symmetry_multiplicity
 _atom_site_fract_x
 _atom_site_fract_y
 _atom_site_fract_z
 _atom_site_occupancy
  Dy  Dy0  1  0.66672900  0.33327100  0.56664400  1
  Dy  Dy1  1  0.33327100  0.66672900  0.43335600  1
  Dy  Dy2  1  0.33327100  0.66672900  0.06664400  1
  Dy  Dy3  1  0.66672900  0.33327100  0.93335600  1
  Ru  Ru0  1  0.00000000  0.00000000  0.50000000  1
  Ru  Ru1  1  0.00000000  0.00000000  0.00000000  1
  Ru  Ru2  1  0.17127000  0.34227500  0.75000000  1
  Ru  Ru3  1  0.17100200  0.82899800  0.75000000  1
  Ru  Ru4  1  0.65772500  0.82873000  0.75000000  1
  Ru  Ru5  1  0.82873000  0.65772500  0.25000000  1
  Ru  Ru6  1  0.82899800  0.17100200  0.25000000  1
  Ru  Ru7  1  0.34227500  0.17127000  0.25000000  1
loop_
_geom_bond_atom_site_label_1
_geom_bond_atom_site_label_2
_geom_bond_distance
_geom_bond_site_symmetry_2
Dy0 Ru0 3.093807 1_655
Dy0 Ru0 3.098300 1_555
Dy0 Ru0 3.098300 1_665
Dy0 Ru2 3.101895 1_555
Dy0 Ru4 3.101895 1_555
Dy0 Ru4 3.102342 1_545
Dy0 Ru2 3.102342 1_655
Dy0 Ru3 3.104827 1_655
Dy0 Ru3 3.104827 1_545
Dy0 Ru6 3.200521 1_555
Dy0 Ru7 3.201182 1_555
Dy0 Ru5 3.201182 1_555
Dy0 Dy1 3.263885 1_555
Dy0 Dy1 3.265770 1_655
Dy0 Dy1 3.265770 1_545
Dy0 Dy3 3.287681 1_555
Dy1 Ru0 3.093807 1_565
Dy1 Ru0 3.098300 1_665
Dy1 Ru0 3.098300 1_555
Dy1 Ru7 3.101895 1_555
Dy1 Ru5 3.101895 1_555
Dy1 Ru5 3.102342 1_455
Dy1 Ru7 3.102342 1_565
Dy1 Ru6 3.104827 1_455
Dy1 Ru6 3.104827 1_565
Dy1 Ru3 3.200521 1_555
Dy1 Ru4 3.201182 1_555
Dy1 Ru2 3.201182 1_555
Dy1 Dy2 3.287681 1_555
Dy2 Ru1 3.093807 1_565
Dy2 Ru1 3.098300 1_665
Dy2 Ru1 3.098300 1_555
Dy2 Ru7 3.101895 1_555
Dy2 Ru5 3.101895 1_555
Dy2 Ru5 3.102342 1_455
Dy2 Ru7 3.102342 1_565
Dy2 Ru6 3.104827 1_455
Dy2 Ru6 3.104827 1_565
Dy2 Ru3 3.200521 1_554
Dy2 Ru4 3.201182 1_554
Dy2 Ru2 3.201182 1_554
Dy2 Dy3 3.263885 1_554
Dy2 Dy3 3.265770 1_564
Dy2 Dy3 3.265770 1_454
Dy3 Ru1 3.093807 1_656
Dy3 Ru1 3.098300 1_666
Dy3 Ru1 3.098300 1_556
Dy3 Ru2 3.101895 1_555
Dy3 Ru4 3.101895 1_555
Dy3 Ru4 3.102342 1_545
Dy3 Ru2 3.102342 1_655
Dy3 Ru3 3.104827 1_545
Dy3 Ru3 3.104827 1_655
Dy3 Ru6 3.200521 1_556
Dy3 Ru5 3.201182 1_556
Dy3 Ru7 3.201182 1_556
Ru0 Ru6 2.729378 1_455
Ru0 Ru3 2.729378 1_545
Ru0 Ru2 2.731177 1_555
Ru0 Ru5 2.731177 1_445
Ru0 Ru4 2.731177 1_445
Ru0 Ru7 2.731177 1_555
Ru1 Ru6 2.729378 1_455
Ru1 Ru3 2.729378 1_544
Ru1 Ru5 2.731177 1_445
Ru1 Ru2 2.731177 1_554
Ru1 Ru4 2.731177 1_444
Ru1 Ru7 2.731177 1_555
Ru2 Ru3 2.561300 1_555
Ru2 Ru4 2.562326 1_555
Ru2 Ru3 2.699591 1_545
Ru2 Ru4 2.705018 1_445
Ru3 Ru4 2.561300 1_555
Ru3 Ru4 2.699591 1_455
Ru5 Ru6 2.561300 1_555
Ru5 Ru7 2.562326 1_555
Ru5 Ru6 2.699591 1_565
Ru5 Ru7 2.705018 1_665
Ru6 Ru7 2.561300 1_555
Ru6 Ru7 2.699591 1_655
