# generated using pymatgen
data_LaCePd6
_symmetry_space_group_name_H-M   'P 1'
_cell_length_a   4.17094715
_cell_length_b   4.17094715
_cell_length_c   8.31650571
_cell_angle_alpha   90.00000000
_cell_angle_beta   90.00000000
_cell_angle_gamma   90.00000000
_symmetry_Int_Tables_number   1
_chemical_formula_structural   LaCePd6
_chemical_formula_sum   'La1 Ce1 Pd6'
_cell_volume   144.68058760
_cell_formula_units_Z   1
loop_
 _symmetry_equiv_pos_site_id
 _symmetry_equiv_pos_as_xyz
  1  'x, y, z'
loop_
 _atom_site_type_symbol
 _atom_site_label
 _atom_site_symmetry_multiplicity
 _atom_site_fract_x
 _atom_site_fract_y
 _atom_site_fract_z
 _atom_site_occupancy
  La  La0  1  0.00000000  -0.00000000  0.50000000  1
  Ce  Ce0  1  0.00000000  -0.00000000  0.00000000  1
  Pd  Pd0  1  0.50000000  0.50000000  0.00000000  1
  Pd  Pd1  1  0.50000000  0.50000000  0.50000000  1
  Pd  Pd2  1  0.50000000  0.00000000  0.24155975  1
  Pd  Pd3  1  0.50000000  -0.00000000  0.75844025  1
  Pd  Pd4  1  -0.00000000  0.50000000  0.24155975  1
  Pd  Pd5  1  0.00000000  0.50000000  0.75844025  1
loop_
_geom_bond_atom_site_label_1
_geom_bond_atom_site_label_2
_geom_bond_distance
_geom_bond_site_symmetry_2
La0 Pd1 2.949305 1_545
La0 Pd1 2.949305 1_445
La0 Pd1 2.949305 1_455
La0 Pd1 2.949305 1_555
La0 Pd4 2.994791 1_545
La0 Pd4 2.994791 1_555
La0 Pd2 2.994791 1_455
La0 Pd2 2.994791 1_555
La0 Pd3 2.994791 1_555
La0 Pd5 2.994791 1_555
La0 Pd3 2.994791 1_455
La0 Pd5 2.994791 1_545
Ce0 Pd5 2.895689 1_554
Ce0 Pd3 2.895689 1_554
Ce0 Pd5 2.895689 1_544
Ce0 Pd3 2.895689 1_454
Ce0 Pd4 2.895689 1_545
Ce0 Pd4 2.895689 1_555
Ce0 Pd2 2.895689 1_455
Ce0 Pd2 2.895689 1_555
Ce0 Pd0 2.949305 1_545
Ce0 Pd0 2.949305 1_455
Ce0 Pd0 2.949305 1_555
Ce0 Pd0 2.949305 1_445
Pd0 Pd3 2.895689 1_564
Pd0 Pd5 2.895689 1_654
Pd0 Pd5 2.895689 1_554
Pd0 Pd3 2.895689 1_554
Pd0 Pd2 2.895689 1_565
Pd0 Pd4 2.895689 1_555
Pd0 Pd4 2.895689 1_655
Pd0 Pd2 2.895689 1_555
