# generated using pymatgen
data_Cs2Hg3H2I8O
_symmetry_space_group_name_H-M   'P 1'
_cell_length_a   7.79957455
_cell_length_b   8.09170250
_cell_length_c   11.99197844
_cell_angle_alpha   84.20170175
_cell_angle_beta   71.02232843
_cell_angle_gamma   71.90094909
_symmetry_Int_Tables_number   1
_chemical_formula_structural   Cs2Hg3H2I8O
_chemical_formula_sum   'Cs2 Hg3 H2 I8 O1'
_cell_volume   680.28614292
_cell_formula_units_Z   1
loop_
 _symmetry_equiv_pos_site_id
 _symmetry_equiv_pos_as_xyz
  1  'x, y, z'
loop_
 _atom_site_type_symbol
 _atom_site_label
 _atom_site_symmetry_multiplicity
 _atom_site_fract_x
 _atom_site_fract_y
 _atom_site_fract_z
 _atom_site_occupancy
  Cs  Cs0  1  0.30268300  0.71053800  0.24856100  1
  Cs  Cs1  1  0.55124400  0.71053800  0.75143900  1
  Hg  Hg0  1  0.87512200  0.34165000  0.38882900  1
  Hg  Hg1  1  0.26395100  0.34165000  0.61117100  1
  Hg  Hg2  1  0.18048600  0.26784800  0.00000000  1
  H  H0  1  0.72771200  0.49237900  0.00000000  1
  H  H1  1  0.58779700  0.39360400  0.00000000  1
  I  I0  1  0.06515000  0.62538000  0.00000000  1
  I  I1  1  0.26689100  0.21000800  0.39009700  1
  I  I2  1  0.65698800  0.21000800  0.60990300  1
  I  I3  1  0.72864700  0.69890200  0.38983800  1
  I  I4  1  0.11848500  0.69890200  0.61016200  1
  I  I5  1  0.88192700  0.15622400  0.19709500  1
  I  I6  1  0.07902100  0.15622400  0.80290500  1
  I  I7  1  0.52678800  0.04244100  0.00000000  1
  O  O0  1  0.59756800  0.51122500  0.00000000  1
loop_
_geom_bond_atom_site_label_1
_geom_bond_atom_site_label_2
_geom_bond_distance
_geom_bond_site_symmetry_2
Cs0 O0 3.314134 1_555
Cs0 I4 4.101968 1_555
Cs0 I7 4.130782 1_565
Cs0 I3 4.165498 1_555
Cs0 I0 4.194263 1_555
Cs0 I5 4.203645 1_465
Cs0 I3 4.268608 1_455
Cs0 I1 4.285759 1_555
Cs0 I1 4.435068 1_565
Cs1 O0 3.314134 1_556
Cs1 I3 4.101968 1_555
Cs1 I7 4.130782 1_566
Cs1 I4 4.165498 1_655
Cs1 I0 4.194263 1_556
Cs1 I6 4.203650 1_565
Cs1 I4 4.268608 1_555
Cs1 I2 4.285759 1_555
Cs1 I2 4.435068 1_565
Hg0 I3 2.758269 1_555
Hg0 I5 2.847613 1_555
Hg0 I1 2.911426 1_655
Hg0 I2 2.946096 1_555
Hg1 I4 2.758269 1_555
Hg1 I6 2.847616 1_555
Hg1 I2 2.911426 1_555
Hg1 I1 2.946096 1_555
Hg2 I7 2.749773 1_555
Hg2 I0 2.749897 1_555
Hg2 I5 3.020020 1_455
Hg2 I6 3.020025 1_554
H0 O0 0.978489 1_555
H1 O0 0.978116 1_555
