# generated using pymatgen
data_NaMg2Fe3P4(H9O13)2
_symmetry_space_group_name_H-M   'P 1'
_cell_length_a   13.26476904
_cell_length_b   10.69463257
_cell_length_c   9.54239929
_cell_angle_alpha   102.82260303
_cell_angle_beta   90.00000000
_cell_angle_gamma   90.00000000
_symmetry_Int_Tables_number   1
_chemical_formula_structural   NaMg2Fe3P4(H9O13)2
_chemical_formula_sum   'Na2 Mg4 Fe6 P8 H36 O52'
_cell_volume   1319.94344388
_cell_formula_units_Z   2
loop_
 _symmetry_equiv_pos_site_id
 _symmetry_equiv_pos_as_xyz
  1  'x, y, z'
loop_
 _atom_site_type_symbol
 _atom_site_label
 _atom_site_symmetry_multiplicity
 _atom_site_fract_x
 _atom_site_fract_y
 _atom_site_fract_z
 _atom_site_occupancy
  Na  Na0  1  0.86287780  0.75000000  0.75000000  1
  Na  Na1  1  0.13712220  0.25000000  0.25000000  1
  Mg  Mg0  1  0.00000000  0.00000000  0.50000000  1
  Mg  Mg1  1  0.00000000  0.50000000  0.00000000  1
  Mg  Mg2  1  0.47972879  0.25000000  0.75000000  1
  Mg  Mg3  1  0.52027121  0.75000000  0.25000000  1
  Fe  Fe0  1  0.00000000  0.00000000  0.00000000  1
  Fe  Fe1  1  0.00000000  0.50000000  0.50000000  1
  Fe  Fe2  1  0.40530574  0.25000000  0.25000000  1
  Fe  Fe3  1  0.50000000  0.50000000  0.50000000  1
  Fe  Fe4  1  0.50000000  0.00000000  0.00000000  1
  Fe  Fe5  1  0.59469426  0.75000000  0.75000000  1
  P  P0  1  0.67553266  0.04871025  0.76151472  1
  P  P1  1  0.67553266  0.45128975  0.73848528  1
  P  P2  1  0.71211894  0.36818509  0.42418693  1
  P  P3  1  0.71211894  0.13181491  0.07581307  1
  P  P4  1  0.28788106  0.86818509  0.92418693  1
  P  P5  1  0.28788106  0.63181491  0.57581307  1
  P  P6  1  0.32446734  0.54871025  0.26151472  1
  P  P7  1  0.32446734  0.95128975  0.23848528  1
  H  H0  1  0.10203718  0.80610216  0.37483928  1
  H  H1  1  0.10203718  0.69389784  0.12516072  1
  H  H2  1  0.25402238  0.60761261  0.18539514  1
  H  H3  1  0.25402238  0.89238739  0.31460486  1
  H  H4  1  0.65358554  0.84089716  0.00779852  1
  H  H5  1  0.65358554  0.65910284  0.49220148  1
  H  H6  1  0.24654907  0.66385395  0.83712727  1
  H  H7  1  0.24654907  0.83614605  0.66287273  1
  H  H8  1  0.29670334  0.32423790  0.85499693  1
  H  H9  1  0.29670334  0.17576210  0.64500307  1
  H  H10  1  0.87301152  0.03886305  0.20765210  1
  H  H11  1  0.87301152  0.46113695  0.29234790  1
  H  H12  1  0.62609319  0.87521672  0.48472806  1
  H  H13  1  0.62609319  0.62478328  0.01527194  1
  H  H14  1  0.93903644  0.17672196  0.36928461  1
  H  H15  1  0.93903644  0.32327804  0.13071539  1
  H  H16  1  0.90430224  0.69020804  0.45081436  1
  H  H17  1  0.90430224  0.80979196  0.04918564  1
  H  H18  1  0.09569776  0.19020804  0.95081436  1
  H  H19  1  0.09569776  0.30979196  0.54918564  1
  H  H20  1  0.06096356  0.67672196  0.86928461  1
  H  H21  1  0.06096356  0.82327804  0.63071539  1
  H  H22  1  0.37390681  0.37521672  0.98472806  1
  H  H23  1  0.37390681  0.12478328  0.51527194  1
  H  H24  1  0.12698848  0.53886305  0.70765210  1
  H  H25  1  0.12698848  0.96113695  0.79234790  1
  H  H26  1  0.70329666  0.82423790  0.35499693  1
  H  H27  1  0.70329666  0.67576210  0.14500307  1
  H  H28  1  0.75345093  0.16385395  0.33712727  1
  H  H29  1  0.75345093  0.33614605  0.16287273  1
  H  H30  1  0.34641446  0.34089716  0.50779852  1
  H  H31  1  0.34641446  0.15910284  0.99220148  1
  H  H32  1  0.74597762  0.10761261  0.68539514  1
  H  H33  1  0.74597762  0.39238739  0.81460486  1
  H  H34  1  0.89796282  0.30610216  0.87483928  1
  H  H35  1  0.89796282  0.19389784  0.62516072  1
  O  O0  1  0.94819552  0.01268921  0.21961489  1
  O  O1  1  0.94819552  0.48731079  0.28038511  1
  O  O2  1  0.26450216  0.55443328  0.41287468  1
  O  O3  1  0.26450216  0.94556672  0.08712532  1
  O  O4  1  0.07128926  0.33912104  0.46531140  1
  O  O5  1  0.07128926  0.16087896  0.03468860  1
  O  O6  1  0.23921112  0.73383152  0.92745235  1
  O  O7  1  0.23921112  0.76616848  0.57254765  1
  O  O8  1  0.76874250  0.43423463  0.32185316  1
  O  O9  1  0.76874250  0.06576537  0.17814684  1
  O  O10  1  0.89598545  0.39899126  0.89423993  1
  O  O11  1  0.89598545  0.10100874  0.60576007  1
  O  O12  1  0.42482879  0.61931964  0.29336378  1
  O  O13  1  0.42482879  0.88068036  0.20663622  1
  O  O14  1  0.40712250  0.15232865  0.04693509  1
  O  O15  1  0.40712250  0.34767135  0.45306491  1
  O  O16  1  0.81167012  0.71558512  0.18166838  1
  O  O17  1  0.81167012  0.78441488  0.31833162  1
  O  O18  1  0.66690671  0.59240992  0.81425696  1
  O  O19  1  0.66690671  0.90759008  0.68574304  1
  O  O20  1  0.99482697  0.11727210  0.33187665  1
  O  O21  1  0.99482697  0.38272790  0.16812335  1
  O  O22  1  0.60045891  0.13906483  0.10485594  1
  O  O23  1  0.60045891  0.36093517  0.39514406  1
  O  O24  1  0.62720384  0.65423335  0.12053795  1
  O  O25  1  0.62720384  0.84576665  0.37946205  1
  O  O26  1  0.37279616  0.15423335  0.62053795  1
  O  O27  1  0.37279616  0.34576665  0.87946205  1
  O  O28  1  0.39954109  0.63906483  0.60485594  1
  O  O29  1  0.39954109  0.86093517  0.89514406  1
  O  O30  1  0.00517303  0.61727210  0.83187665  1
  O  O31  1  0.00517303  0.88272790  0.66812335  1
  O  O32  1  0.33309329  0.09240992  0.31425696  1
  O  O33  1  0.33309329  0.40759008  0.18574304  1
  O  O34  1  0.18832988  0.21558512  0.68166838  1
  O  O35  1  0.18832988  0.28441488  0.81833162  1
  O  O36  1  0.59287750  0.65232865  0.54693509  1
  O  O37  1  0.59287750  0.84767135  0.95306491  1
  O  O38  1  0.57517121  0.11931964  0.79336378  1
  O  O39  1  0.57517121  0.38068036  0.70663622  1
  O  O40  1  0.10401455  0.89899126  0.39423993  1
  O  O41  1  0.10401455  0.60100874  0.10576007  1
  O  O42  1  0.23125750  0.93423463  0.82185316  1
  O  O43  1  0.23125750  0.56576537  0.67814684  1
  O  O44  1  0.76078888  0.23383152  0.42745235  1
  O  O45  1  0.76078888  0.26616848  0.07254765  1
  O  O46  1  0.92871074  0.83912104  0.96531140  1
  O  O47  1  0.92871074  0.66087896  0.53468860  1
  O  O48  1  0.73549784  0.05443328  0.91287468  1
  O  O49  1  0.73549784  0.44556672  0.58712532  1
  O  O50  1  0.05180448  0.51268921  0.71961489  1
  O  O51  1  0.05180448  0.98731079  0.78038511  1
loop_
_geom_bond_atom_site_label_1
_geom_bond_atom_site_label_2
_geom_bond_distance
_geom_bond_site_symmetry_2
Na0 O46 2.241235 1_555
Na0 O47 2.241235 1_555
Na0 O30 2.584630 1_655
Na0 O31 2.584630 1_655
Na1 O4 2.241235 1_555
Na1 O5 2.241235 1_555
Na1 O21 2.584630 1_455
Na1 O20 2.584630 1_455
Mg0 O11 1.898733 1_455
Mg0 O40 1.898733 1_545
Mg0 O20 2.246009 1_455
Mg0 O31 2.246009 1_545
Mg1 O10 1.898733 1_454
Mg1 O41 1.898733 1_555
Mg1 O30 2.246009 1_554
Mg1 O21 2.246009 1_455
Mg2 O38 1.995985 1_555
Mg2 O39 1.995985 1_555
Mg2 O26 2.006360 1_555
Mg2 O27 2.006360 1_555
Mg3 O12 1.995985 1_555
Mg3 O13 1.995985 1_555
Mg3 O24 2.006360 1_555
Mg3 O25 2.006360 1_555
Fe0 O46 1.926465 1_444
Fe0 O5 1.926465 1_555
Fe0 O0 2.180861 1_455
Fe0 O51 2.180861 1_544
Fe1 O47 1.926465 1_455
Fe1 O4 1.926465 1_555
Fe1 O1 2.180861 1_455
Fe1 O50 2.180861 1_555
Fe2 O14 1.986971 1_555
Fe2 O15 1.986971 1_555
Fe2 O32 2.143052 1_555
Fe2 O33 2.143052 1_555
Fe3 O36 2.012092 1_555
Fe3 O15 2.012092 1_555
Fe3 O28 2.080449 1_555
Fe3 O23 2.080449 1_555
Fe4 O37 2.012092 1_544
Fe4 O14 2.012092 1_555
Fe4 O29 2.080449 1_544
Fe4 O22 2.080449 1_555
Fe5 O36 1.986971 1_555
Fe5 O37 1.986971 1_555
Fe5 O19 2.143052 1_555
Fe5 O18 2.143052 1_555
H0 O40 0.969640 1_555
H1 O41 0.969640 1_555
H2 P6 1.414459 1_555
H3 P7 1.414459 1_555
H4 O37 0.971238 1_554
H5 O36 0.971238 1_555
H6 O6 1.012987 1_555
H6 O43 1.654287 1_555
H7 O7 1.012987 1_555
H7 O42 1.654287 1_555
H8 O27 1.049976 1_555
H8 O35 1.517960 1_555
H9 O26 1.049976 1_555
H9 O34 1.517960 1_555
H10 O0 1.048892 1_555
H10 O9 1.452922 1_555
H11 O1 1.048892 1_555
H11 O8 1.452922 1_555
H12 O25 0.983864 1_555
H13 O24 0.983864 1_555
H14 O20 0.989237 1_555
H15 O21 0.989237 1_555
H16 O47 0.977355 1_555
H17 O46 0.977355 1_554
H18 O5 0.977355 1_556
H19 O4 0.977355 1_555
H20 O30 0.989237 1_555
H21 O31 0.989237 1_555
H22 O27 0.983864 1_555
H23 O26 0.983864 1_555
H24 O50 1.048892 1_555
H24 O43 1.452922 1_555
H25 O51 1.048892 1_555
H25 O42 1.452922 1_555
H26 O25 1.049976 1_555
H26 O17 1.517960 1_555
H27 O24 1.049976 1_555
H27 O16 1.517960 1_555
H28 O44 1.012987 1_555
H28 O9 1.654287 1_555
H29 O45 1.012987 1_555
H29 O8 1.654287 1_555
H30 O15 0.971238 1_555
H31 O14 0.971238 1_556
H32 P0 1.414459 1_555
H33 P1 1.414459 1_555
H34 O10 0.969640 1_555
H35 O11 0.969640 1_555
O2 P5 1.620920 1_555
O2 P6 1.638083 1_555
O3 P4 1.620920 1_554
O3 P7 1.638083 1_555
O6 P4 1.581838 1_555
O7 P5 1.581838 1_555
O8 P2 1.524092 1_555
O9 P3 1.524092 1_555
O12 P6 1.527423 1_555
O13 P7 1.527423 1_555
O16 O17 1.347749 1_555
O18 P1 1.526201 1_555
O19 P0 1.526201 1_565
O22 P3 1.505679 1_555
O23 P2 1.505679 1_555
O28 P5 1.505679 1_555
O29 P4 1.505679 1_555
O32 P7 1.526201 1_545
O33 P6 1.526201 1_555
O34 O35 1.347749 1_555
O38 P0 1.527423 1_555
O39 P1 1.527423 1_555
O42 P4 1.524092 1_555
O43 P5 1.524092 1_555
O44 P2 1.581838 1_555
O45 P3 1.581838 1_555
O48 P3 1.620920 1_556
O48 P0 1.638083 1_555
O49 P2 1.620920 1_555
O49 P1 1.638083 1_555
