# generated using pymatgen
data_Sm2NiRuO6
_symmetry_space_group_name_H-M   'P 1'
_cell_length_a   5.78638400
_cell_length_b   5.38883400
_cell_length_c   9.42088000
_cell_angle_alpha   55.46220148
_cell_angle_beta   90.00000000
_cell_angle_gamma   90.00000000
_symmetry_Int_Tables_number   1
_chemical_formula_structural   Sm2NiRuO6
_chemical_formula_sum   'Sm4 Ni2 Ru2 O12'
_cell_volume   241.98597345
_cell_formula_units_Z   2
loop_
 _symmetry_equiv_pos_site_id
 _symmetry_equiv_pos_as_xyz
  1  'x, y, z'
loop_
 _atom_site_type_symbol
 _atom_site_label
 _atom_site_symmetry_multiplicity
 _atom_site_fract_x
 _atom_site_fract_y
 _atom_site_fract_z
 _atom_site_occupancy
  Sm  Sm0  1  0.42864900  0.22885200  0.74916900  1
  Sm  Sm1  1  0.57135100  0.77114800  0.25083100  1
  Sm  Sm2  1  0.92864900  0.77114800  0.75083100  1
  Sm  Sm3  1  0.07135100  0.22885200  0.24916900  1
  Ni  Ni0  1  0.00000000  0.50000000  0.50000000  1
  Ni  Ni1  1  0.50000000  0.50000000  0.00000000  1
  Ru  Ru0  1  0.00000000  0.00000000  0.00000000  1
  Ru  Ru1  1  0.50000000  0.00000000  0.50000000  1
  O  O0  1  0.03654100  0.35535200  0.75380100  1
  O  O1  1  0.96345900  0.64464800  0.24619900  1
  O  O2  1  0.53654100  0.64464800  0.74619900  1
  O  O3  1  0.46345900  0.35535200  0.25380100  1
  O  O4  1  0.70203100  0.86900900  0.94228900  1
  O  O5  1  0.29796900  0.13099100  0.05771100  1
  O  O6  1  0.20203100  0.13099100  0.55771100  1
  O  O7  1  0.79796900  0.86900900  0.44228900  1
  O  O8  1  0.19371800  0.74761300  0.94821000  1
  O  O9  1  0.80628200  0.25238700  0.05179000  1
  O  O10  1  0.69371800  0.25238700  0.55179000  1
  O  O11  1  0.30628200  0.74761300  0.44821000  1
loop_
_geom_bond_atom_site_label_1
_geom_bond_atom_site_label_2
_geom_bond_distance
_geom_bond_site_symmetry_2
Ni0 O0 2.063006 1_555
Ni0 O1 2.063006 1_455
Ni0 O7 2.095368 1_455
Ni0 O6 2.095368 1_555
Ni0 O11 2.102676 1_555
Ni0 O10 2.102676 1_455
Ni1 O2 2.063006 1_554
Ni1 O3 2.063006 1_555
Ni1 O4 2.095368 1_554
Ni1 O5 2.095368 1_555
Ni1 O9 2.102676 1_555
Ni1 O8 2.102676 1_554
O0 Ru0 2.013730 1_556
O0 Sm2 2.310842 1_455
O0 Sm0 2.376591 1_555
O1 Ru0 2.013730 1_665
O1 Sm3 2.310842 1_655
O1 Sm1 2.376591 1_555
O2 Ru1 2.013730 1_565
O2 Sm0 2.310842 1_555
O2 Sm2 2.376591 1_555
O3 Ru1 2.013730 1_555
O3 Sm1 2.310842 1_555
O3 Sm3 2.376591 1_555
O4 Ru0 2.049826 1_666
O4 Sm0 2.360576 1_565
O4 Sm2 2.515852 1_555
O4 Sm1 2.749704 1_556
O5 Ru0 2.049826 1_555
O5 Sm1 2.360576 1_545
O5 Sm3 2.515852 1_555
O5 Sm0 2.749704 1_554
O6 Ru1 2.049826 1_555
O6 Sm2 2.360576 1_445
O6 Sm0 2.515852 1_555
O6 Sm3 2.749704 1_555
O7 Ru1 2.049826 1_565
O7 Sm3 2.360576 1_665
O7 Sm1 2.515852 1_555
O7 Sm2 2.749704 1_555
O8 Ru0 2.024048 1_566
O8 Sm2 2.357726 1_455
O8 Sm0 2.564264 1_565
O8 Sm3 2.714361 1_556
O9 Ru0 2.024048 1_655
O9 Sm3 2.357726 1_655
O9 Sm1 2.564264 1_545
O9 Sm2 2.714361 1_554
O10 Ru1 2.024048 1_555
O10 Sm0 2.357726 1_555
O10 Sm2 2.564264 1_545
O10 Sm1 2.714361 1_555
O11 Ru1 2.024048 1_565
O11 Sm1 2.357726 1_555
O11 Sm3 2.564264 1_565
O11 Sm0 2.714361 1_555
