# generated using pymatgen
data_SmGdCo17
_symmetry_space_group_name_H-M   'P 1'
_cell_length_a   6.26059970
_cell_length_b   6.26059982
_cell_length_c   6.26059970
_cell_angle_alpha   82.99545181
_cell_angle_beta   82.99544942
_cell_angle_gamma   82.99545181
_symmetry_Int_Tables_number   1
_chemical_formula_structural   SmGdCo17
_chemical_formula_sum   'Sm1 Gd1 Co17'
_cell_volume   240.30348403
_cell_formula_units_Z   1
loop_
 _symmetry_equiv_pos_site_id
 _symmetry_equiv_pos_as_xyz
  1  'x, y, z'
loop_
 _atom_site_type_symbol
 _atom_site_label
 _atom_site_symmetry_multiplicity
 _atom_site_fract_x
 _atom_site_fract_y
 _atom_site_fract_z
 _atom_site_occupancy
  Sm  Sm0  1  0.34424381  0.34424381  0.34424381  1
  Gd  Gd0  1  0.65611802  0.65611802  0.65611802  1
  Co  Co0  1  0.71161374  0.99955315  0.28830210  1
  Co  Co1  1  0.99955315  0.28830210  0.71161374  1
  Co  Co2  1  0.28830210  0.71161374  0.99955315  1
  Co  Co3  1  0.99955315  0.71161374  0.28830210  1
  Co  Co4  1  0.71161374  0.28830210  0.99955315  1
  Co  Co5  1  0.28830210  0.99955315  0.71161374  1
  Co  Co6  1  0.34255559  0.84768399  0.34255559  1
  Co  Co7  1  0.84768399  0.34255559  0.34255559  1
  Co  Co8  1  0.34255559  0.34255559  0.84768399  1
  Co  Co9  1  0.65813279  0.15264414  0.65813279  1
  Co  Co10  1  0.15264414  0.65813279  0.65813279  1
  Co  Co11  1  0.65813279  0.65813279  0.15264414  1
  Co  Co12  1  0.99954495  0.50015021  0.99954495  1
  Co  Co13  1  0.50015021  0.99954495  0.99954495  1
  Co  Co14  1  0.99954495  0.99954495  0.50015021  1
  Co  Co15  1  0.90552283  0.90552283  0.90552283  1
  Co  Co16  1  0.09423034  0.09423034  0.09423034  1
loop_
_geom_bond_atom_site_label_1
_geom_bond_atom_site_label_2
_geom_bond_distance
_geom_bond_site_symmetry_2
Co0 Co14 2.364652 1_555
Co0 Co13 2.367394 1_554
Co0 Co3 2.388868 1_555
Co0 Co4 2.395584 1_564
Co0 Co11 2.467586 1_555
Co0 Co7 2.479321 1_565
Co0 Co6 2.573621 1_555
Co0 Co9 2.581765 1_565
Co0 Co15 2.650171 1_554
Co0 Co16 2.650729 1_665
Co0 Gd0 2.970830 1_555
Co0 Sm0 2.974332 1_565
Co1 Co12 2.364652 1_555
Co1 Co14 2.367394 1_545
Co1 Co4 2.388868 1_555
Co1 Co5 2.395584 1_645
Co1 Co9 2.467586 1_555
Co1 Co8 2.479321 1_655
Co1 Co7 2.573621 1_555
Co1 Co10 2.581765 1_655
Co1 Co15 2.650171 1_545
Co1 Co16 2.650729 1_656
Co1 Gd0 2.970830 1_555
Co1 Sm0 2.974332 1_655
Co2 Co5 2.388868 1_555
Co2 Co3 2.395584 1_456
Co2 Co6 2.479321 1_556
Co2 Co8 2.573621 1_555
Co2 Gd0 2.970830 1_555
Co2 Sm0 2.974332 1_556
Co3 Co6 2.479321 1_655
Co3 Co7 2.573621 1_555
Co3 Gd0 2.970830 1_555
Co3 Sm0 2.974332 1_655
Co4 Co9 2.467586 1_555
Co4 Co7 2.479321 1_556
Co4 Co8 2.573621 1_555
Co4 Gd0 2.970830 1_555
Co4 Sm0 2.974332 1_556
Co5 Co8 2.479321 1_565
Co5 Co6 2.573621 1_555
Co5 Co9 2.581765 1_565
Co5 Gd0 2.970830 1_555
Co5 Sm0 2.974332 1_565
Co6 Gd0 2.989526 1_555
Co6 Sm0 3.111379 1_565
Co6 Sm0 3.149298 1_555
Co7 Co9 2.434063 1_555
Co7 Gd0 2.989526 1_555
Co7 Sm0 3.111379 1_655
Co7 Sm0 3.149298 1_555
Co8 Co9 2.434063 1_555
Co8 Gd0 2.989526 1_555
Co8 Sm0 3.111379 1_556
Co8 Sm0 3.149298 1_555
Co9 Sm0 2.992389 1_555
Co9 Gd0 3.111684 1_545
Co9 Gd0 3.149027 1_555
Co10 Co12 2.383601 1_455
Co10 Co14 2.383601 1_455
Co10 Co6 2.434063 1_555
Co10 Co8 2.434063 1_555
Co10 Co2 2.467586 1_555
Co10 Co5 2.467586 1_555
Co10 Co15 2.570494 1_455
Co10 Co3 2.581765 1_455
Co10 Sm0 2.992389 1_555
Co10 Gd0 3.111684 1_455
Co10 Gd0 3.149027 1_555
Co11 Co12 2.383601 1_554
Co11 Co13 2.383601 1_554
Co11 Co6 2.434063 1_555
Co11 Co7 2.434063 1_555
Co11 Co3 2.467586 1_555
Co11 Co15 2.570494 1_554
Co11 Co4 2.581765 1_554
Co11 Co2 2.581765 1_554
Co11 Sm0 2.992389 1_555
Co11 Gd0 3.111684 1_554
Co11 Gd0 3.149027 1_555
Co12 Co4 2.364652 1_555
Co12 Co3 2.367394 1_556
Co12 Co2 2.367394 1_655
Co12 Co8 2.388092 1_655
Co12 Co7 2.388092 1_556
Co12 Co15 2.547469 1_555
Co12 Co16 2.551838 1_656
Co12 Gd0 3.209727 1_555
Co12 Sm0 3.221054 1_656
Co13 Co2 2.364652 1_555
Co13 Co5 2.364652 1_555
Co13 Co4 2.367394 1_565
Co13 Co9 2.383601 1_565
Co13 Co6 2.388092 1_556
Co13 Co8 2.388092 1_565
Co13 Co15 2.547469 1_555
Co13 Co16 2.551838 1_566
Co13 Gd0 3.209727 1_555
Co13 Sm0 3.221054 1_566
Co14 Co3 2.364652 1_555
Co14 Co5 2.367394 1_655
Co14 Co9 2.383601 1_565
Co14 Co6 2.388092 1_655
Co14 Co7 2.388092 1_565
Co14 Co15 2.547469 1_555
Co14 Co16 2.551838 1_665
Co14 Gd0 3.209727 1_555
Co14 Sm0 3.221054 1_665
Co15 Co16 2.282222 1_666
Co15 Co9 2.570494 1_565
Co15 Co5 2.650171 1_655
Co15 Co4 2.650171 1_565
Co15 Co2 2.650171 1_655
Co15 Co3 2.650171 1_556
Co15 Gd0 3.016293 1_555
Co16 Co7 2.575927 1_455
Co16 Co8 2.575927 1_554
Co16 Co6 2.575927 1_545
Co16 Co5 2.650729 1_544
Co16 Co3 2.650729 1_445
Co16 Co2 2.650729 1_544
Co16 Co4 2.650729 1_454
Co16 Sm0 3.023654 1_555
