# generated using pymatgen
data_In2FeSbO7
_symmetry_space_group_name_H-M   'P 1'
_cell_length_a   7.22129715
_cell_length_b   7.22129715
_cell_length_c   7.22129715
_cell_angle_alpha   120.13143761
_cell_angle_beta   119.57426610
_cell_angle_gamma   90.25573185
_symmetry_Int_Tables_number   1
_chemical_formula_structural   In2FeSbO7
_chemical_formula_sum   'In4 Fe2 Sb2 O14'
_cell_volume   266.85666922
_cell_formula_units_Z   2
loop_
 _symmetry_equiv_pos_site_id
 _symmetry_equiv_pos_as_xyz
  1  'x, y, z'
loop_
 _atom_site_type_symbol
 _atom_site_label
 _atom_site_symmetry_multiplicity
 _atom_site_fract_x
 _atom_site_fract_y
 _atom_site_fract_z
 _atom_site_occupancy
  In  In0  1  0.00000000  0.00000000  0.50000000  1
  In  In1  1  0.00000000  0.50000000  0.00000000  1
  In  In2  1  0.00000000  0.00000000  0.00000000  1
  In  In3  1  0.50000000  0.00000000  0.50000000  1
  Fe  Fe0  1  0.50000000  0.50000000  0.50000000  1
  Fe  Fe1  1  0.50000000  0.00000000  0.00000000  1
  Sb  Sb0  1  0.50000000  0.50000000  0.00000000  1
  Sb  Sb1  1  0.00000000  0.50000000  0.50000000  1
  O  O0  1  0.11731000  0.86731000  0.25000000  1
  O  O1  1  0.88269000  0.13269000  0.75000000  1
  O  O2  1  0.82660300  0.57660300  0.25000000  1
  O  O3  1  0.39832600  0.14832600  0.25000000  1
  O  O4  1  0.83854500  0.16668900  0.26215000  1
  O  O5  1  0.40453900  0.57639500  0.23785000  1
  O  O6  1  0.83854500  0.57639500  0.67185600  1
  O  O7  1  0.40453900  0.16668900  0.82814400  1
  O  O8  1  0.17339700  0.42339700  0.75000000  1
  O  O9  1  0.60167400  0.85167400  0.75000000  1
  O  O10  1  0.16145500  0.83331100  0.73785000  1
  O  O11  1  0.59546100  0.42360500  0.76215000  1
  O  O12  1  0.16145500  0.42360500  0.32814400  1
  O  O13  1  0.59546100  0.83331100  0.17185600  1
loop_
_geom_bond_atom_site_label_1
_geom_bond_atom_site_label_2
_geom_bond_distance
_geom_bond_site_symmetry_2
In0 O1 2.162200 1_455
In0 O0 2.162200 1_545
In0 O4 2.422779 1_455
In0 O7 2.422779 1_555
In0 O13 2.422779 1_445
In0 O10 2.422779 1_545
In0 O8 2.523494 1_555
In0 O2 2.523494 1_445
In1 O1 2.162200 1_454
In1 O0 2.162200 1_555
In1 O11 2.422779 1_454
In1 O6 2.422779 1_454
In1 O5 2.422779 1_555
In1 O12 2.422779 1_555
In1 O8 2.523494 1_554
In1 O2 2.523494 1_455
In2 O0 2.264797 1_545
In2 O1 2.264797 1_454
In2 O3 2.363372 1_555
In2 O9 2.363372 1_444
In2 O12 2.509069 1_555
In2 O6 2.509069 1_444
In2 O4 2.509069 1_455
In2 O10 2.509069 1_544
In3 O0 2.264797 1_545
In3 O1 2.264797 1_555
In3 O3 2.363372 1_555
In3 O9 2.363372 1_545
In3 O11 2.509069 1_555
In3 O7 2.509069 1_555
In3 O5 2.509069 1_545
In3 O13 2.509069 1_545
Fe0 O12 2.031494 1_555
Fe0 O5 2.031494 1_555
Fe0 O6 2.031494 1_555
Fe0 O11 2.031494 1_555
Fe0 O9 2.078364 1_555
Fe0 O3 2.078364 1_555
Fe1 O4 2.031494 1_555
Fe1 O7 2.031494 1_554
Fe1 O10 2.031494 1_544
Fe1 O13 2.031494 1_545
Fe1 O9 2.078364 1_544
Fe1 O3 2.078364 1_555
O2 Sb1 1.977498 1_655
O2 Sb0 1.977498 1_555
O4 Sb1 1.987584 1_655
O5 Sb0 1.987584 1_555
O6 Sb1 1.987584 1_655
O7 Sb0 1.987584 1_556
O8 Sb0 1.977498 1_556
O8 Sb1 1.977498 1_555
O10 Sb1 1.987584 1_555
O11 Sb0 1.987584 1_556
O12 Sb1 1.987584 1_555
O13 Sb0 1.987584 1_555
