# generated using pymatgen
data_Rb2Cd3Se4
_symmetry_space_group_name_H-M   'P 1'
_cell_length_a   6.86574491
_cell_length_b   11.10268949
_cell_length_c   14.77745728
_cell_angle_alpha   90.00000000
_cell_angle_beta   90.00000000
_cell_angle_gamma   90.00000000
_symmetry_Int_Tables_number   1
_chemical_formula_structural   Rb2Cd3Se4
_chemical_formula_sum   'Rb8 Cd12 Se16'
_cell_volume   1126.45946930
_cell_formula_units_Z   4
loop_
 _symmetry_equiv_pos_site_id
 _symmetry_equiv_pos_as_xyz
  1  'x, y, z'
loop_
 _atom_site_type_symbol
 _atom_site_label
 _atom_site_symmetry_multiplicity
 _atom_site_fract_x
 _atom_site_fract_y
 _atom_site_fract_z
 _atom_site_occupancy
  Rb  Rb0  1  0.02168063  0.25000000  0.53778830  1
  Rb  Rb1  1  0.52168063  0.75000000  0.96221170  1
  Rb  Rb2  1  0.97831937  0.75000000  0.46221170  1
  Rb  Rb3  1  0.47831937  0.25000000  0.03778830  1
  Rb  Rb4  1  0.50000000  0.50000000  0.50000000  1
  Rb  Rb5  1  0.00000000  -0.00000000  -0.00000000  1
  Rb  Rb6  1  0.50000000  -0.00000000  0.50000000  1
  Rb  Rb7  1  0.00000000  0.50000000  -0.00000000  1
  Cd  Cd0  1  0.81472116  0.59462405  0.75494541  1
  Cd  Cd1  1  0.31472116  0.40537595  0.74505459  1
  Cd  Cd2  1  0.18527884  0.09462405  0.24505459  1
  Cd  Cd3  1  0.68527884  0.90537595  0.25494541  1
  Cd  Cd4  1  0.18527884  0.40537595  0.24505459  1
  Cd  Cd5  1  0.68527884  0.59462405  0.25494541  1
  Cd  Cd6  1  0.81472116  0.90537595  0.75494541  1
  Cd  Cd7  1  0.31472116  0.09462405  0.74505459  1
  Cd  Cd8  1  0.75313850  0.25000000  0.29337748  1
  Cd  Cd9  1  0.25313850  0.75000000  0.20662252  1
  Cd  Cd10  1  0.24686150  0.75000000  0.70662252  1
  Cd  Cd11  1  0.74686150  0.25000000  0.79337748  1
  Se  Se0  1  0.09604601  0.53748430  0.63799445  1
  Se  Se1  1  0.59604601  0.46251570  0.86200555  1
  Se  Se2  1  0.90395399  0.03748430  0.36200555  1
  Se  Se3  1  0.40395399  0.96251570  0.13799445  1
  Se  Se4  1  0.90395399  0.46251570  0.36200555  1
  Se  Se5  1  0.40395399  0.53748430  0.13799445  1
  Se  Se6  1  0.09604601  0.96251570  0.63799445  1
  Se  Se7  1  0.59604601  0.03748430  0.86200555  1
  Se  Se8  1  0.96067893  0.25000000  0.13964853  1
  Se  Se9  1  0.46067893  0.75000000  0.36035147  1
  Se  Se10  1  0.03932107  0.75000000  0.86035147  1
  Se  Se11  1  0.53932107  0.25000000  0.63964853  1
  Se  Se12  1  0.89115529  0.75000000  0.15255258  1
  Se  Se13  1  0.60884471  0.75000000  0.65255258  1
  Se  Se14  1  0.10884471  0.25000000  0.84744742  1
  Se  Se15  1  0.39115529  0.25000000  0.34744742  1
loop_
_geom_bond_atom_site_label_1
_geom_bond_atom_site_label_2
_geom_bond_distance
_geom_bond_site_symmetry_2
Rb0 Se0 3.555465 1_555
Rb0 Se6 3.555465 1_545
Rb0 Se4 3.601136 1_455
Rb0 Se2 3.601136 1_455
Rb0 Se11 3.637784 1_455
Rb0 Se15 3.787681 1_555
Rb0 Se11 3.859606 1_555
Rb1 Se7 3.555465 1_565
Rb1 Se1 3.555465 1_555
Rb1 Se5 3.601136 1_556
Rb1 Se3 3.601136 1_556
Rb1 Se10 3.637784 1_555
Rb1 Se12 3.787681 1_556
Rb1 Se10 3.859606 1_655
Rb2 Se2 3.555465 1_565
Rb2 Se4 3.555465 1_555
Rb2 Se0 3.601136 1_655
Rb2 Se6 3.601136 1_655
Rb2 Se9 3.637784 1_655
Rb2 Se13 3.787681 1_555
Rb2 Se9 3.859606 1_555
Rb3 Se5 3.555465 1_555
Rb3 Se3 3.555465 1_545
Rb3 Se1 3.601136 1_554
Rb3 Se7 3.601136 1_554
Rb3 Se8 3.637784 1_555
Rb3 Se14 3.787681 1_554
Rb3 Se8 3.859606 1_455
Rb4 Se0 3.467501 1_555
Rb4 Se4 3.467501 1_555
Rb4 Se9 3.469278 1_555
Rb4 Se11 3.469278 1_555
Rb4 Se15 3.653062 1_555
Rb4 Se13 3.653062 1_555
Rb5 Se7 3.467501 1_454
Rb5 Se3 3.467501 1_545
Rb5 Se10 3.469278 1_544
Rb5 Se8 3.469278 1_455
Rb5 Se14 3.653062 1_554
Rb5 Se12 3.653062 1_445
Rb6 Se2 3.467501 1_555
Rb6 Se6 3.467501 1_545
Rb6 Se9 3.469278 1_545
Rb6 Se11 3.469278 1_555
Rb6 Se15 3.653062 1_555
Rb6 Se13 3.653062 1_545
Rb7 Se5 3.467501 1_555
Rb7 Se1 3.467501 1_454
Rb7 Se8 3.469278 1_455
Rb7 Se10 3.469278 1_554
Rb7 Se14 3.653062 1_554
Rb7 Se12 3.653062 1_455
Cd0 Se1 2.628393 1_555
Cd0 Se0 2.668330 1_655
Cd0 Se13 2.695069 1_555
Cd0 Se10 2.789277 1_655
Cd1 Se0 2.628393 1_555
Cd1 Se1 2.668330 1_555
Cd1 Se14 2.695069 1_555
Cd1 Se11 2.789277 1_555
Cd2 Se3 2.628393 1_545
Cd2 Se2 2.668330 1_455
Cd2 Se15 2.695069 1_555
Cd2 Se8 2.789277 1_455
Cd3 Se2 2.628393 1_565
Cd3 Se3 2.668330 1_555
Cd3 Se12 2.695069 1_555
Cd3 Se9 2.789277 1_555
Cd4 Se5 2.628393 1_555
Cd4 Se4 2.668330 1_455
Cd4 Se15 2.695069 1_555
Cd4 Se8 2.789277 1_455
Cd5 Se4 2.628393 1_555
Cd5 Se5 2.668330 1_555
Cd5 Se12 2.695069 1_555
Cd5 Se9 2.789277 1_555
Cd6 Se7 2.628393 1_565
Cd6 Se6 2.668330 1_655
Cd6 Se13 2.695069 1_555
Cd6 Se10 2.789277 1_655
Cd7 Se6 2.628393 1_545
Cd7 Se7 2.668330 1_555
Cd7 Se14 2.695069 1_555
Cd7 Se11 2.789277 1_555
Cd8 Se15 2.610568 1_555
Cd8 Se8 2.681627 1_555
Cd8 Se2 2.769097 1_555
Cd8 Se4 2.769097 1_555
Cd9 Se12 2.610568 1_455
Cd9 Se9 2.681627 1_555
Cd9 Se5 2.769097 1_555
Cd9 Se3 2.769097 1_555
Cd10 Se13 2.610568 1_555
Cd10 Se10 2.681627 1_555
Cd10 Se0 2.769097 1_555
Cd10 Se6 2.769097 1_555
Cd11 Se14 2.610568 1_655
Cd11 Se11 2.681627 1_555
Cd11 Se1 2.769097 1_555
Cd11 Se7 2.769097 1_555
