# generated using pymatgen
data_Mg14GaBi
_symmetry_space_group_name_H-M   'P 1'
_cell_length_a   6.39574354
_cell_length_b   6.39574302
_cell_length_c   10.33507588
_cell_angle_alpha   90.00000000
_cell_angle_beta   90.00000000
_cell_angle_gamma   120.00000270
_symmetry_Int_Tables_number   1
_chemical_formula_structural   Mg14GaBi
_chemical_formula_sum   'Mg14 Ga1 Bi1'
_cell_volume   366.12242967
_cell_formula_units_Z   1
loop_
 _symmetry_equiv_pos_site_id
 _symmetry_equiv_pos_as_xyz
  1  'x, y, z'
loop_
 _atom_site_type_symbol
 _atom_site_label
 _atom_site_symmetry_multiplicity
 _atom_site_fract_x
 _atom_site_fract_y
 _atom_site_fract_z
 _atom_site_occupancy
  Mg  Mg0  1  0.16586214  0.83293057  0.12500000  1
  Mg  Mg1  1  0.16609465  0.83304683  0.62500000  1
  Mg  Mg2  1  0.66706943  0.33413786  0.12500000  1
  Mg  Mg3  1  0.66695317  0.33390535  0.62500000  1
  Mg  Mg4  1  0.66706943  0.83293057  0.12500000  1
  Mg  Mg5  1  0.66695317  0.83304683  0.62500000  1
  Mg  Mg6  1  0.33543437  0.16456563  0.36967863  1
  Mg  Mg7  1  0.33543437  0.16456563  0.88032137  1
  Mg  Mg8  1  0.33543437  0.67086974  0.36967863  1
  Mg  Mg9  1  0.33543437  0.67086974  0.88032137  1
  Mg  Mg10  1  0.82913026  0.16456563  0.36967863  1
  Mg  Mg11  1  0.82913026  0.16456563  0.88032137  1
  Mg  Mg12  1  0.83333300  0.66666700  0.37576048  1
  Mg  Mg13  1  0.83333300  0.66666700  0.87423952  1
  Ga  Ga0  1  0.16666700  0.33333300  0.12500000  1
  Bi  Bi0  1  0.16666700  0.33333300  0.62500000  1
loop_
_geom_bond_atom_site_label_1
_geom_bond_atom_site_label_2
_geom_bond_distance
_geom_bond_site_symmetry_2
Mg0 Mg9 3.125600 1_554
Mg0 Mg8 3.125600 1_555
Mg0 Mg7 3.125606 1_564
Mg0 Mg6 3.125606 1_565
Mg0 Mg12 3.179450 1_455
Mg0 Mg13 3.179450 1_454
Mg0 Mg2 3.190150 1_455
Mg0 Mg4 3.190150 1_455
Mg0 Mg2 3.205593 1_565
Mg0 Mg4 3.205593 1_555
Mg1 Mg12 3.167400 1_455
Mg1 Mg13 3.167400 1_455
Mg1 Mg3 3.192381 1_455
Mg1 Mg5 3.192381 1_455
Mg1 Mg3 3.203362 1_565
Mg1 Mg5 3.203363 1_555
Mg1 Mg8 3.214864 1_555
Mg1 Mg9 3.214864 1_555
Mg1 Mg6 3.214870 1_565
Mg1 Mg7 3.214870 1_565
Mg2 Mg7 3.125606 1_554
Mg2 Mg6 3.125606 1_555
Mg2 Mg4 3.190150 1_555
Mg2 Mg4 3.205593 1_545
Mg3 Mg5 3.192381 1_555
Mg3 Mg5 3.203362 1_545
Mg3 Mg6 3.214870 1_555
Mg3 Mg7 3.214870 1_555
Mg4 Mg9 3.125606 1_554
Mg4 Mg8 3.125606 1_555
Mg5 Mg8 3.214871 1_555
Mg5 Mg9 3.214871 1_555
Mg6 Mg8 3.157552 1_545
Mg6 Mg8 3.238191 1_555
Mg7 Mg9 3.157552 1_545
Mg7 Mg9 3.238191 1_555
Mg10 Mg2 3.125600 1_555
Mg10 Mg4 3.125606 1_545
Mg10 Mg8 3.157552 1_545
Mg10 Mg6 3.157552 1_555
Mg10 Mg12 3.198574 1_555
Mg10 Mg12 3.198574 1_545
Mg10 Mg3 3.214864 1_555
Mg10 Mg5 3.214870 1_545
Mg10 Mg8 3.238191 1_655
Mg10 Mg6 3.238191 1_655
Mg11 Mg2 3.125600 1_556
Mg11 Mg4 3.125606 1_546
Mg11 Mg9 3.157552 1_545
Mg11 Mg7 3.157552 1_555
Mg11 Mg13 3.198574 1_555
Mg11 Mg13 3.198574 1_545
Mg11 Mg3 3.214864 1_555
Mg11 Mg5 3.214870 1_545
Mg11 Mg9 3.238191 1_655
Mg11 Mg7 3.238191 1_655
Mg12 Mg5 3.167393 1_555
Mg12 Mg3 3.167400 1_555
Mg12 Mg4 3.179444 1_555
Mg12 Mg2 3.179450 1_555
Mg12 Mg6 3.198574 1_555
Mg12 Mg6 3.198574 1_665
Mg12 Mg8 3.198574 1_655
Mg12 Mg8 3.198574 1_555
Mg13 Mg5 3.167393 1_555
Mg13 Mg3 3.167400 1_555
Mg13 Mg4 3.179444 1_556
Mg13 Mg2 3.179450 1_556
Mg13 Mg7 3.198574 1_555
Mg13 Mg7 3.198574 1_665
Mg13 Mg9 3.198574 1_555
Mg13 Mg9 3.198574 1_655
Ga0 Mg7 3.144830 1_554
Ga0 Mg6 3.144830 1_555
Ga0 Mg9 3.144836 1_554
Ga0 Mg8 3.144836 1_555
Ga0 Mg10 3.144837 1_455
Ga0 Mg11 3.144837 1_454
Ga0 Mg0 3.197875 1_545
Ga0 Mg4 3.197875 1_445
Ga0 Mg4 3.197875 1_555
Ga0 Mg0 3.197875 1_555
Ga0 Mg2 3.197875 1_555
Ga0 Mg2 3.197875 1_455
Bi0 Mg1 3.197873 1_545
Bi0 Mg5 3.197873 1_445
Bi0 Mg5 3.197873 1_555
Bi0 Mg1 3.197873 1_555
Bi0 Mg3 3.197873 1_555
Bi0 Mg3 3.197873 1_455
Bi0 Mg7 3.233937 1_555
Bi0 Mg6 3.233937 1_555
Bi0 Mg8 3.233944 1_555
Bi0 Mg9 3.233944 1_555
Bi0 Mg11 3.233944 1_455
Bi0 Mg10 3.233944 1_455
