# generated using pymatgen
data_Al(CN)3
_symmetry_space_group_name_H-M   'P 1'
_cell_length_a   5.22437886
_cell_length_b   5.22437886
_cell_length_c   5.22437849
_cell_angle_alpha   89.96039785
_cell_angle_beta   89.96039785
_cell_angle_gamma   89.96040377
_symmetry_Int_Tables_number   1
_chemical_formula_structural   Al(CN)3
_chemical_formula_sum   'Al1 C3 N3'
_cell_volume   142.59478712
_cell_formula_units_Z   1
loop_
 _symmetry_equiv_pos_site_id
 _symmetry_equiv_pos_as_xyz
  1  'x, y, z'
loop_
 _atom_site_type_symbol
 _atom_site_label
 _atom_site_symmetry_multiplicity
 _atom_site_fract_x
 _atom_site_fract_y
 _atom_site_fract_z
 _atom_site_occupancy
  Al  Al0  1  0.99543400  0.99543400  0.99543400  1
  C  C0  1  0.39418900  0.99811300  0.99811300  1
  C  C1  1  0.99811300  0.99811300  0.39418900  1
  C  C2  1  0.99811300  0.39418900  0.99811300  1
  N  N0  1  0.61773300  0.99820900  0.99820900  1
  N  N1  1  0.99820900  0.99820900  0.61773300  1
  N  N2  1  0.99820900  0.61773300  0.99820900  1
loop_
_geom_bond_atom_site_label_1
_geom_bond_atom_site_label_2
_geom_bond_distance
_geom_bond_site_symmetry_2
Al0 N1 1.973340 1_555
Al0 N0 1.973340 1_555
Al0 N2 1.973340 1_555
Al0 C1 2.083360 1_556
Al0 C2 2.083361 1_565
Al0 C0 2.083361 1_655
C0 N0 1.167879 1_555
C1 N1 1.167879 1_555
C2 N2 1.167879 1_555
