# generated using pymatgen
data_Mg2TiB2Ir5
_symmetry_space_group_name_H-M   'P 1'
_cell_length_a   9.53688600
_cell_length_b   9.53688600
_cell_length_c   2.95724300
_cell_angle_alpha   90.00000000
_cell_angle_beta   90.00000000
_cell_angle_gamma   90.00000000
_symmetry_Int_Tables_number   1
_chemical_formula_structural   Mg2TiB2Ir5
_chemical_formula_sum   'Mg4 Ti2 B4 Ir10'
_cell_volume   268.96774075
_cell_formula_units_Z   2
loop_
 _symmetry_equiv_pos_site_id
 _symmetry_equiv_pos_as_xyz
  1  'x, y, z'
loop_
 _atom_site_type_symbol
 _atom_site_label
 _atom_site_symmetry_multiplicity
 _atom_site_fract_x
 _atom_site_fract_y
 _atom_site_fract_z
 _atom_site_occupancy
  Mg  Mg0  1  0.82377700  0.32377700  0.00000000  1
  Mg  Mg1  1  0.17622300  0.67622300  0.00000000  1
  Mg  Mg2  1  0.32377700  0.17622300  0.00000000  1
  Mg  Mg3  1  0.67622300  0.82377700  0.00000000  1
  Ti  Ti0  1  0.50000000  0.50000000  0.00000000  1
  Ti  Ti1  1  0.00000000  0.00000000  0.00000000  1
  B  B0  1  0.62375800  0.12375800  0.00000000  1
  B  B1  1  0.37624200  0.87624200  0.00000000  1
  B  B2  1  0.12375800  0.37624200  0.00000000  1
  B  B3  1  0.87624200  0.62375800  0.00000000  1
  Ir  Ir0  1  0.50000000  0.00000000  0.50000000  1
  Ir  Ir1  1  0.00000000  0.50000000  0.50000000  1
  Ir  Ir2  1  0.71566700  0.57199100  0.50000000  1
  Ir  Ir3  1  0.28433300  0.42800900  0.50000000  1
  Ir  Ir4  1  0.21566700  0.92800900  0.50000000  1
  Ir  Ir5  1  0.78433300  0.07199100  0.50000000  1
  Ir  Ir6  1  0.42800900  0.71566700  0.50000000  1
  Ir  Ir7  1  0.57199100  0.28433300  0.50000000  1
  Ir  Ir8  1  0.07199100  0.21566700  0.50000000  1
  Ir  Ir9  1  0.92800900  0.78433300  0.50000000  1
loop_
_geom_bond_atom_site_label_1
_geom_bond_atom_site_label_2
_geom_bond_distance
_geom_bond_site_symmetry_2
B0 Ir5 2.185223 1_554
B0 Ir5 2.185223 1_555
B0 Ir7 2.185223 1_554
B0 Ir7 2.185223 1_555
B0 Ir0 2.229883 1_554
B0 Ir0 2.229883 1_555
B0 Mg0 2.697695 1_555
B0 Mg3 2.904309 1_545
B0 Mg2 2.904309 1_555
B1 Ir6 2.185223 1_554
B1 Ir6 2.185223 1_555
B1 Ir4 2.185223 1_555
B1 Ir4 2.185223 1_554
B1 Ir0 2.229883 1_564
B1 Ir0 2.229883 1_565
B1 Mg1 2.697695 1_555
B1 Mg3 2.904309 1_555
B1 Mg2 2.904309 1_565
B2 Ir3 2.185223 1_555
B2 Ir3 2.185223 1_554
B2 Ir8 2.185223 1_555
B2 Ir8 2.185223 1_554
B2 Ir1 2.229883 1_555
B2 Ir1 2.229883 1_554
B2 Mg2 2.697695 1_555
B2 Mg1 2.904309 1_555
B2 Mg0 2.904309 1_455
B3 Ir2 2.185223 1_555
B3 Ir9 2.185223 1_555
B3 Ir2 2.185223 1_554
B3 Ir9 2.185223 1_554
B3 Ir1 2.229883 1_654
B3 Ir1 2.229883 1_655
B3 Mg3 2.697695 1_555
B3 Mg0 2.904309 1_555
B3 Mg1 2.904309 1_655
Ir0 Mg2 2.799157 1_555
Ir0 Mg3 2.799157 1_545
Ir0 Mg2 2.799157 1_556
Ir0 Mg3 2.799157 1_546
Ir1 Mg0 2.799157 1_455
Ir1 Mg1 2.799157 1_556
Ir1 Mg0 2.799157 1_456
Ir1 Mg1 2.799157 1_555
Ir2 Ti0 2.624517 1_556
Ir2 Ti0 2.624517 1_555
Ir2 Mg3 2.844969 1_556
Ir2 Mg3 2.844969 1_555
Ir2 Mg0 2.975388 1_555
Ir2 Mg0 2.975388 1_556
Ir3 Ti0 2.624517 1_556
Ir3 Ti0 2.624517 1_555
Ir3 Mg2 2.844969 1_555
Ir3 Mg2 2.844969 1_556
Ir3 Mg1 2.975388 1_556
Ir3 Mg1 2.975388 1_555
Ir4 Ti1 2.624517 1_565
Ir4 Ti1 2.624517 1_566
Ir4 Mg1 2.844969 1_556
Ir4 Mg1 2.844969 1_555
Ir4 Mg2 2.975388 1_566
Ir4 Mg2 2.975388 1_565
Ir5 Ti1 2.624517 1_655
Ir5 Ti1 2.624517 1_656
Ir5 Mg0 2.844969 1_555
Ir5 Mg0 2.844969 1_556
Ir5 Mg3 2.975388 1_545
Ir5 Mg3 2.975388 1_546
Ir6 Ti0 2.624517 1_556
Ir6 Ti0 2.624517 1_555
Ir6 Mg1 2.844969 1_556
Ir6 Mg1 2.844969 1_555
Ir6 Mg3 2.975388 1_556
Ir6 Mg3 2.975388 1_555
Ir7 Ti0 2.624517 1_556
Ir7 Ti0 2.624517 1_555
Ir7 Mg0 2.844969 1_555
Ir7 Mg0 2.844969 1_556
Ir7 Mg2 2.975388 1_556
Ir7 Mg2 2.975388 1_555
Ir8 Ti1 2.624517 1_555
Ir8 Ti1 2.624517 1_556
Ir8 Mg2 2.844969 1_555
Ir8 Mg2 2.844969 1_556
Ir8 Mg0 2.975388 1_456
Ir8 Mg0 2.975388 1_455
Ir9 Ti1 2.624517 1_665
Ir9 Ti1 2.624517 1_666
Ir9 Mg3 2.844969 1_555
Ir9 Mg3 2.844969 1_556
Ir9 Mg1 2.975388 1_656
Ir9 Mg1 2.975388 1_655
