# generated using pymatgen
data_Sr2LiTeO6
_symmetry_space_group_name_H-M   'P 1'
_cell_length_a   5.67966500
_cell_length_b   5.67929352
_cell_length_c   8.07000717
_cell_angle_alpha   90.08535325
_cell_angle_beta   90.00000000
_cell_angle_gamma   90.00000000
_symmetry_Int_Tables_number   1
_chemical_formula_structural   Sr2LiTeO6
_chemical_formula_sum   'Sr4 Li2 Te2 O12'
_cell_volume   260.30977334
_cell_formula_units_Z   2
loop_
 _symmetry_equiv_pos_site_id
 _symmetry_equiv_pos_as_xyz
  1  'x, y, z'
loop_
 _atom_site_type_symbol
 _atom_site_label
 _atom_site_symmetry_multiplicity
 _atom_site_fract_x
 _atom_site_fract_y
 _atom_site_fract_z
 _atom_site_occupancy
  Sr  Sr0  1  0.50098500  0.00228000  0.74994400  1
  Sr  Sr1  1  0.49901500  0.99772000  0.25005600  1
  Sr  Sr2  1  0.00098500  0.49772000  0.75005600  1
  Sr  Sr3  1  0.99901500  0.50228000  0.24994400  1
  Li  Li0  1  0.00000000  0.00000000  0.50000000  1
  Li  Li1  1  0.50000000  0.50000000  0.00000000  1
  Te  Te0  1  0.00000000  0.00000000  0.00000000  1
  Te  Te1  1  0.50000000  0.50000000  0.50000000  1
  O  O0  1  0.77644900  0.74318700  0.99588300  1
  O  O1  1  0.22355100  0.25681300  0.00411700  1
  O  O2  1  0.27644900  0.75681300  0.50411700  1
  O  O3  1  0.72355100  0.24318700  0.49588300  1
  O  O4  1  0.25640600  0.77607700  0.99671300  1
  O  O5  1  0.74359400  0.22392300  0.00328700  1
  O  O6  1  0.75640600  0.72392300  0.50328700  1
  O  O7  1  0.24359400  0.27607700  0.49671300  1
  O  O8  1  0.99989700  0.00868900  0.76055900  1
  O  O9  1  0.00010300  0.99131100  0.23944100  1
  O  O10  1  0.49989700  0.49131100  0.73944100  1
  O  O11  1  0.50010300  0.50868900  0.26055900  1
loop_
_geom_bond_atom_site_label_1
_geom_bond_atom_site_label_2
_geom_bond_distance
_geom_bond_site_symmetry_2
Li0 O7 2.091260 1_555
Li0 O6 2.091260 1_445
Li0 O2 2.091433 1_545
Li0 O3 2.091433 1_455
Li0 O9 2.103219 1_545
Li0 O8 2.103219 1_455
Li1 O4 2.091260 1_554
Li1 O5 2.091260 1_555
Li1 O0 2.091433 1_554
Li1 O1 2.091433 1_555
Li1 O11 2.103219 1_555
Li1 O10 2.103219 1_554
O0 Te0 1.934000 1_666
O0 Sr2 2.738091 1_655
O0 Sr3 2.771615 1_556
O0 Sr0 2.925894 1_565
O0 Sr1 2.961603 1_556
O1 Te0 1.934000 1_555
O1 Sr3 2.738091 1_455
O1 Sr2 2.771615 1_554
O1 Sr1 2.925894 1_545
O1 Sr0 2.961603 1_554
O2 Te1 1.934000 1_555
O2 Sr0 2.738091 1_565
O2 Sr1 2.771615 1_555
O2 Sr2 2.925894 1_555
O2 Sr3 2.961603 1_455
O3 Te1 1.934000 1_555
O3 Sr1 2.738091 1_545
O3 Sr0 2.771615 1_555
O3 Sr3 2.925894 1_555
O3 Sr2 2.961603 1_655
O4 Te0 1.933571 1_566
O4 Sr0 2.748357 1_565
O4 Sr1 2.766850 1_556
O4 Sr2 2.925151 1_555
O4 Sr3 2.956476 1_456
O5 Te0 1.933571 1_655
O5 Sr1 2.748357 1_545
O5 Sr0 2.766850 1_554
O5 Sr3 2.925151 1_555
O5 Sr2 2.956476 1_654
O6 Te1 1.933571 1_555
O6 Sr2 2.748357 1_655
O6 Sr3 2.766850 1_555
O6 Sr0 2.925151 1_565
O6 Sr1 2.956476 1_555
O7 Te1 1.933571 1_555
O7 Sr3 2.748357 1_455
O7 Sr2 2.766850 1_555
O7 Sr1 2.925151 1_545
O7 Sr0 2.956476 1_555
O8 Te0 1.932994 1_656
O8 Sr2 2.778777 1_655
O8 Sr0 2.835180 1_555
O8 Sr0 2.847532 1_655
O8 Sr2 2.903061 1_645
O9 Te0 1.932994 1_565
O9 Sr3 2.778777 1_455
O9 Sr1 2.835180 1_555
O9 Sr1 2.847532 1_455
O9 Sr3 2.903061 1_465
O10 Te1 1.932994 1_555
O10 Sr0 2.778777 1_555
O10 Sr2 2.835180 1_555
O10 Sr2 2.847532 1_655
O10 Sr0 2.903061 1_565
O11 Te1 1.932994 1_555
O11 Sr1 2.778777 1_555
O11 Sr3 2.835180 1_555
O11 Sr3 2.847532 1_455
O11 Sr1 2.903061 1_545
