# generated using pymatgen
data_Cr4Se3N2
_symmetry_space_group_name_H-M   'P 1'
_cell_length_a   6.50093100
_cell_length_b   13.08088900
_cell_length_c   3.36453000
_cell_angle_alpha   90.00000000
_cell_angle_beta   90.00000000
_cell_angle_gamma   90.00000000
_symmetry_Int_Tables_number   1
_chemical_formula_structural   Cr4Se3N2
_chemical_formula_sum   'Cr8 Se6 N4'
_cell_volume   286.11275682
_cell_formula_units_Z   2
loop_
 _symmetry_equiv_pos_site_id
 _symmetry_equiv_pos_as_xyz
  1  'x, y, z'
loop_
 _atom_site_type_symbol
 _atom_site_label
 _atom_site_symmetry_multiplicity
 _atom_site_fract_x
 _atom_site_fract_y
 _atom_site_fract_z
 _atom_site_occupancy
  Cr  Cr0  1  0.68539700  0.93617700  0.50000000  1
  Cr  Cr1  1  0.31460300  0.06382300  0.50000000  1
  Cr  Cr2  1  0.18539700  0.56382300  0.00000000  1
  Cr  Cr3  1  0.81460300  0.43617700  0.00000000  1
  Cr  Cr4  1  0.79843900  0.64219500  0.50000000  1
  Cr  Cr5  1  0.20156100  0.35780500  0.50000000  1
  Cr  Cr6  1  0.29843900  0.85780500  0.00000000  1
  Cr  Cr7  1  0.70156100  0.14219500  0.00000000  1
  Se  Se0  1  0.50000000  0.50000000  0.50000000  1
  Se  Se1  1  0.00000000  0.00000000  0.00000000  1
  Se  Se2  1  0.84368300  0.28155400  0.50000000  1
  Se  Se3  1  0.15631700  0.71844600  0.50000000  1
  Se  Se4  1  0.34368300  0.21844600  0.00000000  1
  Se  Se5  1  0.65631700  0.78155400  0.00000000  1
  N  N0  1  0.61613800  0.07856100  0.50000000  1
  N  N1  1  0.38386200  0.92143900  0.50000000  1
  N  N2  1  0.11613800  0.42143900  0.00000000  1
  N  N3  1  0.88386200  0.57856100  0.00000000  1
loop_
_geom_bond_atom_site_label_1
_geom_bond_atom_site_label_2
_geom_bond_distance
_geom_bond_site_symmetry_2
Cr0 N0 1.916159 1_565
Cr0 N1 1.969715 1_555
Cr0 Se5 2.637554 1_555
Cr0 Se5 2.637554 1_556
Cr0 Se1 2.776671 1_666
Cr0 Se1 2.776671 1_665
Cr1 N1 1.916159 1_545
Cr1 N0 1.969715 1_555
Cr1 Se4 2.637554 1_556
Cr1 Se4 2.637554 1_555
Cr1 Se1 2.776671 1_555
Cr1 Se1 2.776671 1_556
Cr2 N2 1.916159 1_555
Cr2 N3 1.969715 1_455
Cr2 Se3 2.637554 1_555
Cr2 Se3 2.637554 1_554
Cr2 Se0 2.776671 1_555
Cr2 Se0 2.776671 1_554
Cr3 N3 1.916159 1_555
Cr3 N2 1.969715 1_655
Cr3 Se2 2.637554 1_555
Cr3 Se2 2.637554 1_554
Cr3 Se0 2.776671 1_555
Cr3 Se0 2.776671 1_554
Cr4 N3 1.957365 1_555
Cr4 N3 1.957365 1_556
Cr4 Se3 2.531335 1_655
Cr4 Se5 2.647029 1_555
Cr4 Se5 2.647029 1_556
Cr4 Se0 2.687722 1_555
Cr5 N2 1.957365 1_555
Cr5 N2 1.957365 1_556
Cr5 Se2 2.531335 1_455
Cr5 Se4 2.647029 1_555
Cr5 Se4 2.647029 1_556
Cr5 Se0 2.687722 1_555
Cr6 N1 1.957365 1_554
Cr6 N1 1.957365 1_555
Cr6 Se5 2.531335 1_555
Cr6 Se3 2.647029 1_555
Cr6 Se3 2.647029 1_554
Cr6 Se1 2.687722 1_565
Cr7 N0 1.957365 1_555
Cr7 N0 1.957365 1_554
Cr7 Se4 2.531335 1_555
Cr7 Se2 2.647029 1_555
Cr7 Se2 2.647029 1_554
Cr7 Se1 2.687722 1_655
