# generated using pymatgen
data_HgNCl3O
_symmetry_space_group_name_H-M   'P 1'
_cell_length_a   3.24493800
_cell_length_b   8.62434800
_cell_length_c   21.69511800
_cell_angle_alpha   90.00000000
_cell_angle_beta   90.00000000
_cell_angle_gamma   90.00000000
_symmetry_Int_Tables_number   1
_chemical_formula_structural   HgNCl3O
_chemical_formula_sum   'Hg4 N4 Cl12 O4'
_cell_volume   607.14817266
_cell_formula_units_Z   4
loop_
 _symmetry_equiv_pos_site_id
 _symmetry_equiv_pos_as_xyz
  1  'x, y, z'
loop_
 _atom_site_type_symbol
 _atom_site_label
 _atom_site_symmetry_multiplicity
 _atom_site_fract_x
 _atom_site_fract_y
 _atom_site_fract_z
 _atom_site_occupancy
  Hg  Hg0  1  0.25000000  0.03516400  0.08516000  1
  Hg  Hg1  1  0.25000000  0.53516400  0.41484000  1
  Hg  Hg2  1  0.75000000  0.96483600  0.91484000  1
  Hg  Hg3  1  0.75000000  0.46483600  0.58516000  1
  N  N0  1  0.75000000  0.51752400  0.12872500  1
  N  N1  1  0.75000000  0.01752400  0.37127500  1
  N  N2  1  0.25000000  0.48247600  0.87127500  1
  N  N3  1  0.25000000  0.98247600  0.62872500  1
  Cl  Cl0  1  0.25000000  0.94420800  0.18495200  1
  Cl  Cl1  1  0.25000000  0.44420800  0.31504800  1
  Cl  Cl2  1  0.75000000  0.05579200  0.81504800  1
  Cl  Cl3  1  0.75000000  0.55579200  0.68495200  1
  Cl  Cl4  1  0.75000000  0.35002400  0.16740200  1
  Cl  Cl5  1  0.75000000  0.85002400  0.33259800  1
  Cl  Cl6  1  0.25000000  0.64997600  0.83259800  1
  Cl  Cl7  1  0.25000000  0.14997600  0.66740200  1
  Cl  Cl8  1  0.25000000  0.19372600  0.99664000  1
  Cl  Cl9  1  0.25000000  0.69372600  0.50336000  1
  Cl  Cl10  1  0.75000000  0.80627400  0.00336000  1
  Cl  Cl11  1  0.75000000  0.30627400  0.49664000  1
  O  O0  1  0.25000000  0.56484500  0.11773600  1
  O  O1  1  0.25000000  0.06484500  0.38226400  1
  O  O2  1  0.75000000  0.43515500  0.88226400  1
  O  O3  1  0.75000000  0.93515500  0.61773600  1
loop_
_geom_bond_atom_site_label_1
_geom_bond_atom_site_label_2
_geom_bond_distance
_geom_bond_site_symmetry_2
N0 O0 1.689911 1_555
N0 O0 1.689911 1_655
N1 O1 1.689911 1_555
N1 O1 1.689911 1_655
N2 O2 1.689911 1_555
N2 O2 1.689911 1_455
N3 O3 1.689911 1_455
N3 O3 1.689911 1_555
Cl0 Hg0 2.302729 1_565
Cl1 Hg1 2.302729 1_555
Cl2 Hg2 2.302729 1_545
Cl3 Hg3 2.302729 1_555
Cl4 N0 1.670598 1_555
Cl5 N1 1.670598 1_565
Cl6 N2 1.670598 1_555
Cl7 N3 1.670598 1_545
Cl8 Hg0 2.357578 1_556
Cl9 Hg1 2.357578 1_555
Cl10 Hg2 2.357578 1_554
Cl11 Hg3 2.357578 1_555
