# generated using pymatgen
data_La3Al11
_symmetry_space_group_name_H-M   'P 1'
_cell_length_a   4.42075613
_cell_length_b   8.57268929
_cell_length_c   8.57266561
_cell_angle_alpha   72.19591737
_cell_angle_beta   75.04604250
_cell_angle_gamma   75.04606951
_symmetry_Int_Tables_number   1
_chemical_formula_structural   La3Al11
_chemical_formula_sum   'La3 Al11'
_cell_volume   293.12758067
_cell_formula_units_Z   1
loop_
 _symmetry_equiv_pos_site_id
 _symmetry_equiv_pos_as_xyz
  1  'x, y, z'
loop_
 _atom_site_type_symbol
 _atom_site_label
 _atom_site_symmetry_multiplicity
 _atom_site_fract_x
 _atom_site_fract_y
 _atom_site_fract_z
 _atom_site_occupancy
  La  La0  1  0.00000045  -0.00000035  -0.00000026  1
  La  La1  1  0.31665860  0.68329912  0.68329857  1
  La  La2  1  0.68334132  0.31670087  0.31670157  1
  Al  Al0  1  -0.00000005  0.50000006  0.50000001  1
  Al  Al1  1  0.50000152  0.71621238  0.28378674  1
  Al  Al2  1  0.49999837  0.28378764  0.71621327  1
  Al  Al3  1  0.33435615  0.03280393  0.29849254  1
  Al  Al4  1  0.66564379  0.96719608  0.70150750  1
  Al  Al5  1  0.66564360  0.70151081  0.96719482  1
  Al  Al6  1  0.33435626  0.29848904  0.03280523  1
  Al  Al7  1  0.13650495  0.13741111  0.58938819  1
  Al  Al8  1  0.86349495  0.86258897  0.41061190  1
  Al  Al9  1  0.86349125  0.41061340  0.86259142  1
  Al  Al10  1  0.13650883  0.58938593  0.13740850  1
loop_
_geom_bond_atom_site_label_1
_geom_bond_atom_site_label_2
_geom_bond_distance
_geom_bond_site_symmetry_2
Al0 Al8 2.902977 1_455
Al0 Al7 2.902977 1_555
Al0 Al9 2.902989 1_455
Al0 Al10 2.902989 1_555
Al0 Al1 3.107396 1_455
Al0 Al2 3.107397 1_555
Al0 Al1 3.107404 1_555
Al0 Al2 3.107405 1_455
Al0 La1 3.267179 1_455
Al0 La2 3.267179 1_555
Al0 La1 3.267786 1_555
Al0 La2 3.267786 1_455
Al1 Al5 2.655932 1_554
Al1 Al3 2.655947 1_565
Al1 Al8 2.847383 1_455
Al1 Al10 2.847392 1_655
Al1 Al8 2.848766 1_555
Al1 Al10 2.848781 1_555
Al1 La1 3.249742 1_555
Al1 La2 3.249747 1_555
Al2 Al6 2.655932 1_556
Al2 Al4 2.655947 1_545
Al2 Al7 2.847382 1_655
Al2 Al9 2.847389 1_455
Al2 Al7 2.848766 1_555
Al2 Al9 2.848777 1_555
Al2 La2 3.249741 1_555
Al2 La1 3.249747 1_555
Al3 Al8 2.657694 1_445
Al3 Al8 2.658195 1_545
Al3 Al6 2.683826 1_555
Al3 Al7 2.761358 1_555
Al3 La2 3.258216 1_455
Al3 La2 3.259157 1_555
Al3 La0 3.378322 1_655
Al3 La0 3.379099 1_555
Al4 Al7 2.657694 1_665
Al4 Al7 2.658195 1_565
Al4 Al5 2.683827 1_555
Al4 Al8 2.761357 1_555
Al4 La1 3.258216 1_655
Al4 La1 3.259157 1_555
Al4 La0 3.378316 1_566
Al4 La0 3.379095 1_666
Al5 Al9 2.761360 1_555
Al5 La1 3.258210 1_655
Al5 La1 3.259155 1_555
Al5 La0 3.378305 1_566
Al5 La0 3.379080 1_666
Al6 Al9 2.657700 1_454
Al6 Al9 2.658196 1_554
Al6 La2 3.258210 1_455
Al6 La2 3.259156 1_555
Al6 La0 3.378311 1_655
Al6 La0 3.379083 1_555
Al7 La2 3.235875 1_455
Al7 La2 3.236487 1_555
Al7 La0 3.298081 1_556
Al8 La1 3.235875 1_655
Al8 La1 3.236487 1_555
Al8 La0 3.298085 1_665
Al9 La1 3.235886 1_655
Al9 La1 3.236486 1_555
Al9 La0 3.298105 1_656
Al10 Al5 2.657700 1_454
Al10 Al5 2.658197 1_554
Al10 Al6 2.761356 1_555
Al10 La2 3.235882 1_455
Al10 La2 3.236484 1_555
Al10 La0 3.298105 1_565
