# generated using pymatgen
data_Mg14MnMo
_symmetry_space_group_name_H-M   'P 1'
_cell_length_a   6.28184987
_cell_length_b   6.28184937
_cell_length_c   9.88625736
_cell_angle_alpha   90.00000000
_cell_angle_beta   90.00000000
_cell_angle_gamma   120.00000256
_symmetry_Int_Tables_number   1
_chemical_formula_structural   Mg14MnMo
_chemical_formula_sum   'Mg14 Mn1 Mo1'
_cell_volume   337.86064280
_cell_formula_units_Z   1
loop_
 _symmetry_equiv_pos_site_id
 _symmetry_equiv_pos_as_xyz
  1  'x, y, z'
loop_
 _atom_site_type_symbol
 _atom_site_label
 _atom_site_symmetry_multiplicity
 _atom_site_fract_x
 _atom_site_fract_y
 _atom_site_fract_z
 _atom_site_occupancy
  Mg  Mg0  1  0.16820272  0.83410086  0.12500000  1
  Mg  Mg1  1  0.16852705  0.83426303  0.62500000  1
  Mg  Mg2  1  0.66589914  0.33179728  0.12500000  1
  Mg  Mg3  1  0.66573697  0.33147295  0.62500000  1
  Mg  Mg4  1  0.66589914  0.83410086  0.12500000  1
  Mg  Mg5  1  0.66573697  0.83426303  0.62500000  1
  Mg  Mg6  1  0.32576819  0.17423181  0.37879964  1
  Mg  Mg7  1  0.32576819  0.17423181  0.87120036  1
  Mg  Mg8  1  0.32576819  0.65153739  0.37879964  1
  Mg  Mg9  1  0.32576819  0.65153739  0.87120036  1
  Mg  Mg10  1  0.84846261  0.17423181  0.37879964  1
  Mg  Mg11  1  0.84846261  0.17423181  0.87120036  1
  Mg  Mg12  1  0.83333300  0.66666700  0.37559526  1
  Mg  Mg13  1  0.83333300  0.66666700  0.87440474  1
  Mn  Mn0  1  0.16666700  0.33333300  0.12500000  1
  Mo  Mo0  1  0.16666700  0.33333300  0.62500000  1
loop_
_geom_bond_atom_site_label_1
_geom_bond_atom_site_label_2
_geom_bond_distance
_geom_bond_site_symmetry_2
Mg0 Mg12 3.075160 1_455
Mg0 Mg13 3.075160 1_454
Mg0 Mg9 3.118623 1_554
Mg0 Mg8 3.118623 1_555
Mg0 Mg6 3.118630 1_565
Mg0 Mg7 3.118630 1_564
Mg0 Mg2 3.126454 1_565
Mg0 Mg4 3.126454 1_555
Mg0 Mn0 3.140936 1_555
Mg0 Mn0 3.140936 1_565
Mg0 Mg2 3.155395 1_455
Mg0 Mg4 3.155396 1_455
Mg1 Mg8 3.058009 1_555
Mg1 Mg9 3.058009 1_555
Mg1 Mg7 3.058016 1_565
Mg1 Mg6 3.058016 1_565
Mg1 Mg13 3.066735 1_455
Mg1 Mg12 3.066735 1_455
Mg1 Mg3 3.123398 1_565
Mg1 Mg5 3.123398 1_555
Mg1 Mo0 3.140941 1_565
Mg1 Mo0 3.140941 1_555
Mg1 Mg3 3.158452 1_455
Mg1 Mg5 3.158452 1_455
Mg2 Mg6 3.118630 1_555
Mg2 Mg7 3.118630 1_554
Mg2 Mg4 3.126454 1_545
Mg2 Mn0 3.140936 1_555
Mg2 Mn0 3.140936 1_655
Mg2 Mg4 3.155395 1_555
Mg3 Mg6 3.058016 1_555
Mg3 Mg7 3.058016 1_555
Mg3 Mg5 3.123398 1_545
Mg3 Mo0 3.140941 1_555
Mg3 Mo0 3.140941 1_655
Mg3 Mg5 3.158452 1_555
Mg4 Mg8 3.118629 1_555
Mg4 Mg9 3.118629 1_554
Mg4 Mn0 3.140936 1_555
Mg4 Mn0 3.140936 1_665
Mg5 Mg9 3.058015 1_555
Mg5 Mg8 3.058015 1_555
Mg5 Mo0 3.140941 1_555
Mg5 Mo0 3.140941 1_665
Mg6 Mo0 2.986814 1_555
Mg6 Mg8 2.998362 1_555
Mg6 Mn0 3.048348 1_555
Mg6 Mg8 3.283488 1_545
Mg7 Mo0 2.986814 1_555
Mg7 Mg9 2.998362 1_555
Mg7 Mn0 3.048348 1_556
Mg7 Mg9 3.283488 1_545
Mg8 Mo0 2.986820 1_555
Mg8 Mn0 3.048354 1_555
Mg9 Mo0 2.986820 1_555
Mg9 Mn0 3.048354 1_556
Mg10 Mo0 2.986820 1_655
Mg10 Mg8 2.998362 1_655
Mg10 Mg6 2.998362 1_655
Mg10 Mn0 3.048354 1_655
Mg10 Mg3 3.058009 1_555
Mg10 Mg5 3.058015 1_545
Mg10 Mg2 3.118623 1_555
Mg10 Mg4 3.118629 1_545
Mg10 Mg12 3.142163 1_555
Mg10 Mg12 3.142163 1_545
Mg10 Mg8 3.283488 1_545
Mg10 Mg6 3.283488 1_555
Mg11 Mo0 2.986820 1_655
Mg11 Mg9 2.998362 1_655
Mg11 Mg7 2.998362 1_655
Mg11 Mn0 3.048354 1_656
Mg11 Mg3 3.058009 1_555
Mg11 Mg5 3.058015 1_545
Mg11 Mg2 3.118623 1_556
Mg11 Mg4 3.118629 1_546
Mg11 Mg13 3.142163 1_555
Mg11 Mg13 3.142163 1_545
Mg11 Mg9 3.283488 1_545
Mg11 Mg7 3.283488 1_555
Mg12 Mg5 3.066728 1_555
Mg12 Mg3 3.066734 1_555
Mg12 Mg4 3.075153 1_555
Mg12 Mg2 3.075160 1_555
Mg12 Mg6 3.142163 1_665
Mg12 Mg6 3.142163 1_555
Mg12 Mg8 3.142163 1_655
Mg12 Mg8 3.142163 1_555
Mg13 Mg5 3.066728 1_555
Mg13 Mg3 3.066734 1_555
Mg13 Mg4 3.075153 1_556
Mg13 Mg2 3.075160 1_556
Mg13 Mg7 3.142163 1_665
Mg13 Mg7 3.142163 1_555
Mg13 Mg9 3.142163 1_655
Mg13 Mg9 3.142163 1_555
