# generated using pymatgen
data_UMnC2
_symmetry_space_group_name_H-M   'P 1'
_cell_length_a   3.20962691
_cell_length_b   5.49971484
_cell_length_c   10.72081233
_cell_angle_alpha   90.00246890
_cell_angle_beta   90.00000000
_cell_angle_gamma   90.00000000
_symmetry_Int_Tables_number   1
_chemical_formula_structural   UMnC2
_chemical_formula_sum   'U4 Mn4 C8'
_cell_volume   189.24413024
_cell_formula_units_Z   4
loop_
 _symmetry_equiv_pos_site_id
 _symmetry_equiv_pos_as_xyz
  1  'x, y, z'
loop_
 _atom_site_type_symbol
 _atom_site_label
 _atom_site_symmetry_multiplicity
 _atom_site_fract_x
 _atom_site_fract_y
 _atom_site_fract_z
 _atom_site_occupancy
  U  U0  1  0.25000000  0.58419381  0.85748008  1
  U  U1  1  0.75000000  0.41580619  0.14251992  1
  U  U2  1  0.75000000  0.91579583  0.35747824  1
  U  U3  1  0.25000000  0.08420417  0.64252176  1
  Mn  Mn0  1  0.25000000  0.91686717  0.10217458  1
  Mn  Mn1  1  0.75000000  0.08313283  0.89782542  1
  Mn  Mn2  1  0.75000000  0.58309139  0.60218712  1
  Mn  Mn3  1  0.25000000  0.41690861  0.39781288  1
  C  C0  1  0.25000000  0.66107993  0.24773205  1
  C  C1  1  0.75000000  0.33892007  0.75226795  1
  C  C2  1  0.75000000  0.83894123  0.74771669  1
  C  C3  1  0.25000000  0.16105877  0.25228331  1
  C  C4  1  0.25000000  0.72606728  0.51073481  1
  C  C5  1  0.75000000  0.27393272  0.48926519  1
  C  C6  1  0.75000000  0.77388295  0.01070512  1
  C  C7  1  0.25000000  0.22611705  0.98929488  1
loop_
_geom_bond_atom_site_label_1
_geom_bond_atom_site_label_2
_geom_bond_distance
_geom_bond_site_symmetry_2
C0 Mn3 2.095790 1_555
C0 Mn0 2.101023 1_555
C0 U1 2.380591 1_455
C0 U1 2.380591 1_555
C0 U2 2.433520 1_455
C0 U2 2.433520 1_555
C1 Mn2 2.095790 1_555
C1 Mn1 2.101023 1_555
C1 U0 2.380591 1_555
C1 U0 2.380591 1_655
C1 U3 2.433520 1_655
C1 U3 2.433520 1_555
C2 Mn1 2.096003 1_565
C2 Mn2 2.100941 1_555
C2 U3 2.380525 1_665
C2 U3 2.380525 1_565
C2 U0 2.433767 1_655
C2 U0 2.433767 1_555
C3 Mn0 2.096003 1_545
C3 Mn3 2.100941 1_555
C3 U2 2.380525 1_545
C3 U2 2.380525 1_445
C3 U1 2.433767 1_555
C3 U1 2.433767 1_455
C4 Mn2 2.038399 1_555
C4 Mn2 2.038399 1_455
C4 Mn3 2.087194 1_555
C4 U3 2.423936 1_565
C4 U2 2.522683 1_555
C4 U2 2.522683 1_455
C5 Mn3 2.038399 1_555
C5 Mn3 2.038399 1_655
C5 Mn2 2.087194 1_555
C5 U2 2.423936 1_545
C5 U3 2.522683 1_655
C5 U3 2.522683 1_555
C6 Mn0 2.038473 1_655
C6 Mn0 2.038473 1_555
C6 Mn1 2.087425 1_564
C6 U1 2.423940 1_555
C6 U0 2.522315 1_654
C6 U0 2.522315 1_554
C7 Mn1 2.038473 1_455
C7 Mn1 2.038473 1_555
C7 Mn0 2.087425 1_546
C7 U0 2.423940 1_555
C7 U1 2.522315 1_456
C7 U1 2.522315 1_556
