# generated using pymatgen
data_YTa(WO4)2
_symmetry_space_group_name_H-M   'P 1'
_cell_length_a   5.11245400
_cell_length_b   5.60490292
_cell_length_c   6.17543237
_cell_angle_alpha   104.46868141
_cell_angle_beta   90.82656100
_cell_angle_gamma   105.51147682
_symmetry_Int_Tables_number   1
_chemical_formula_structural   YTa(WO4)2
_chemical_formula_sum   'Y1 Ta1 W2 O8'
_cell_volume   164.47558089
_cell_formula_units_Z   1
loop_
 _symmetry_equiv_pos_site_id
 _symmetry_equiv_pos_as_xyz
  1  'x, y, z'
loop_
 _atom_site_type_symbol
 _atom_site_label
 _atom_site_symmetry_multiplicity
 _atom_site_fract_x
 _atom_site_fract_y
 _atom_site_fract_z
 _atom_site_occupancy
  Y  Y0  1  0.45539200  0.08774000  0.70065000  1
  Ta  Ta0  1  0.96952100  0.10325300  0.20924600  1
  W  W0  1  0.72812000  0.58672400  0.38803700  1
  W  W1  1  0.22856200  0.61891700  0.07228000  1
  O  O0  1  0.67502000  0.80469200  0.65934700  1
  O  O1  1  0.77850000  0.26766800  0.46905000  1
  O  O2  1  0.65017700  0.79637900  0.16837000  1
  O  O3  1  0.82750200  0.32316000  0.05712400  1
  O  O4  1  0.16999100  0.92786600  0.97363100  1
  O  O5  1  0.28993600  0.40325800  0.80340800  1
  O  O6  1  0.30288100  0.40137100  0.29012700  1
  O  O7  1  0.12449900  0.87506900  0.38722500  1
loop_
_geom_bond_atom_site_label_1
_geom_bond_atom_site_label_2
_geom_bond_distance
_geom_bond_site_symmetry_2
O0 W0 1.881769 1_555
O0 Y0 2.145110 1_565
O1 Ta0 2.040782 1_555
O1 W0 2.050432 1_555
O1 Y0 2.385199 1_555
O2 Ta0 1.989169 1_565
O2 W0 2.100296 1_555
O2 W1 2.123445 1_555
O3 Ta0 1.991596 1_555
O3 W1 2.249402 1_655
O3 W0 2.353581 1_555
O3 Y0 2.700246 1_554
O4 Ta0 2.000252 1_466
O4 W1 2.063624 1_556
O4 Y0 2.429045 1_565
O5 W1 1.879213 1_556
O5 Y0 2.121423 1_555
O6 Ta0 1.995321 1_455
O6 W1 2.119830 1_555
O6 W0 2.147413 1_555
O7 Ta0 2.165823 1_465
O7 W0 2.229610 1_455
O7 W1 2.273780 1_555
O7 Y0 2.388101 1_565
