# generated using pymatgen
data_Sm3(GeRh)2
_symmetry_space_group_name_H-M   'P 1'
_cell_length_a   5.62728843
_cell_length_b   7.95831999
_cell_length_c   13.37768758
_cell_angle_alpha   90.00000000
_cell_angle_beta   90.00000000
_cell_angle_gamma   90.00000000
_symmetry_Int_Tables_number   1
_chemical_formula_structural   Sm3(GeRh)2
_chemical_formula_sum   'Sm12 Ge8 Rh8'
_cell_volume   599.10317672
_cell_formula_units_Z   4
loop_
 _symmetry_equiv_pos_site_id
 _symmetry_equiv_pos_as_xyz
  1  'x, y, z'
loop_
 _atom_site_type_symbol
 _atom_site_label
 _atom_site_symmetry_multiplicity
 _atom_site_fract_x
 _atom_site_fract_y
 _atom_site_fract_z
 _atom_site_occupancy
  Sm  Sm0  1  0.14566588  0.39369005  0.09939632  1
  Sm  Sm1  1  0.85433412  0.60630995  0.90060368  1
  Sm  Sm2  1  0.85433412  0.60630995  0.59939632  1
  Sm  Sm3  1  0.85433412  0.89369005  0.40060368  1
  Sm  Sm4  1  0.14566588  0.39369005  0.40060368  1
  Sm  Sm5  1  0.14566588  0.10630995  0.59939632  1
  Sm  Sm6  1  0.14566588  0.10630995  0.90060368  1
  Sm  Sm7  1  0.85433412  0.89369005  0.09939632  1
  Sm  Sm8  1  0.63516782  0.25625856  0.25000000  1
  Sm  Sm9  1  0.36483218  0.74374144  0.75000000  1
  Sm  Sm10  1  0.36483218  0.75625856  0.25000000  1
  Sm  Sm11  1  0.63516782  0.24374144  0.75000000  1
  Ge  Ge0  1  0.13851534  0.10891459  0.25000000  1
  Ge  Ge1  1  0.86148466  0.89108541  0.75000000  1
  Ge  Ge2  1  0.86148466  0.60891459  0.25000000  1
  Ge  Ge3  1  0.13851534  0.39108541  0.75000000  1
  Ge  Ge4  1  0.65410601  0.25000000  0.00000000  1
  Ge  Ge5  1  0.34589399  0.75000000  0.00000000  1
  Ge  Ge6  1  0.34589399  0.75000000  0.50000000  1
  Ge  Ge7  1  0.65410601  0.25000000  0.50000000  1
  Rh  Rh0  1  0.37690058  0.04036289  0.09185257  1
  Rh  Rh1  1  0.62309942  0.95963711  0.90814743  1
  Rh  Rh2  1  0.62309942  0.95963711  0.59185257  1
  Rh  Rh3  1  0.62309942  0.54036289  0.40814743  1
  Rh  Rh4  1  0.37690058  0.04036289  0.40814743  1
  Rh  Rh5  1  0.37690058  0.45963711  0.59185257  1
  Rh  Rh6  1  0.37690058  0.45963711  0.90814743  1
  Rh  Rh7  1  0.62309942  0.54036289  0.09185257  1
loop_
_geom_bond_atom_site_label_1
_geom_bond_atom_site_label_2
_geom_bond_distance
_geom_bond_site_symmetry_2
Ge0 Rh0 2.563809 1_555
Ge0 Rh4 2.563809 1_555
Ge0 Sm8 3.030835 1_555
Ge0 Sm0 3.032659 1_555
Ge0 Sm4 3.032659 1_555
Ge0 Sm8 3.065610 1_455
Ge0 Sm10 3.081988 1_545
Ge0 Sm3 3.090348 1_445
Ge0 Sm7 3.090348 1_445
Ge1 Rh2 2.563809 1_555
Ge1 Rh1 2.563809 1_555
Ge1 Sm9 3.030835 1_555
Ge1 Sm2 3.032659 1_555
Ge1 Sm1 3.032659 1_555
Ge1 Sm9 3.065610 1_655
Ge1 Sm11 3.081988 1_565
Ge1 Sm6 3.090348 1_665
Ge1 Sm5 3.090348 1_665
Ge2 Rh7 2.563809 1_555
Ge2 Rh3 2.563809 1_555
Ge2 Sm10 3.030835 1_555
Ge2 Sm7 3.032659 1_555
Ge2 Sm3 3.032659 1_555
Ge2 Sm10 3.065610 1_655
Ge2 Sm8 3.081988 1_555
Ge2 Sm0 3.090348 1_655
Ge2 Sm4 3.090348 1_655
Ge3 Rh5 2.563809 1_555
Ge3 Rh6 2.563809 1_555
Ge3 Sm11 3.030835 1_555
Ge3 Sm6 3.032659 1_555
Ge3 Sm5 3.032659 1_555
Ge3 Sm11 3.065610 1_455
Ge3 Sm9 3.081988 1_555
Ge3 Sm2 3.090348 1_455
Ge3 Sm1 3.090348 1_455
Ge4 Rh0 2.593578 1_555
Ge4 Rh6 2.593578 1_554
Ge4 Rh1 2.623001 1_544
Ge4 Rh7 2.623001 1_555
Ge4 Sm6 3.275260 1_654
Ge4 Sm0 3.275260 1_655
Ge4 Sm7 3.328426 1_545
Ge4 Sm1 3.328426 1_554
Ge4 Sm11 3.346490 1_554
Ge4 Sm8 3.346490 1_555
Ge4 Sm0 3.355870 1_555
Ge4 Sm6 3.355870 1_554
Ge5 Rh7 2.593578 1_555
Ge5 Rh1 2.593578 1_554
Ge5 Rh0 2.623001 1_565
Ge5 Rh6 2.623001 1_554
Ge5 Sm7 3.275260 1_455
Ge5 Sm1 3.275260 1_454
Ge5 Sm0 3.328426 1_555
Ge5 Sm6 3.328426 1_564
Ge5 Sm9 3.346490 1_554
Ge5 Sm10 3.346490 1_555
Ge5 Sm7 3.355870 1_555
Ge5 Sm1 3.355870 1_554
Ge6 Rh3 2.593578 1_555
Ge6 Rh2 2.593578 1_555
Ge6 Rh4 2.623001 1_565
Ge6 Rh5 2.623001 1_555
Ge6 Sm2 3.275260 1_455
Ge6 Sm3 3.275260 1_455
Ge6 Sm4 3.328426 1_555
Ge6 Sm5 3.328426 1_565
Ge6 Sm9 3.346490 1_555
Ge6 Sm10 3.346490 1_555
Ge6 Sm2 3.355870 1_555
Ge6 Sm3 3.355870 1_555
Ge7 Rh4 2.593578 1_555
Ge7 Rh5 2.593578 1_555
Ge7 Rh2 2.623001 1_545
Ge7 Rh3 2.623001 1_555
Ge7 Sm4 3.275260 1_655
Ge7 Sm5 3.275260 1_655
Ge7 Sm2 3.328426 1_555
Ge7 Sm3 3.328426 1_545
Ge7 Sm11 3.346490 1_555
Ge7 Sm8 3.346490 1_555
Ge7 Sm4 3.355870 1_555
Ge7 Sm5 3.355870 1_555
Rh0 Sm6 2.917942 1_554
Rh0 Sm7 2.931011 1_545
Rh0 Sm8 3.088733 1_555
Rh0 Sm10 3.097203 1_545
Rh0 Sm0 3.100016 1_555
Rh0 Sm7 3.165442 1_445
Rh1 Sm7 2.917942 1_556
Rh1 Sm6 2.931011 1_565
Rh1 Sm9 3.088733 1_555
Rh1 Sm11 3.097203 1_565
Rh1 Sm1 3.100016 1_555
Rh1 Sm6 3.165442 1_665
Rh2 Sm3 2.917942 1_555
Rh2 Sm5 2.931011 1_565
Rh2 Sm9 3.088733 1_555
Rh2 Sm11 3.097203 1_565
Rh2 Sm2 3.100016 1_555
Rh2 Sm5 3.165442 1_665
Rh3 Sm2 2.917942 1_555
Rh3 Sm4 2.931011 1_555
Rh3 Sm10 3.088733 1_555
Rh3 Sm8 3.097203 1_555
Rh3 Sm3 3.100016 1_555
Rh3 Sm4 3.165442 1_655
Rh4 Sm5 2.917942 1_555
Rh4 Sm3 2.931011 1_545
Rh4 Sm8 3.088733 1_555
Rh4 Sm10 3.097203 1_545
Rh4 Sm4 3.100016 1_555
Rh4 Sm3 3.165442 1_445
Rh5 Sm4 2.917942 1_555
Rh5 Sm2 2.931011 1_555
Rh5 Sm11 3.088733 1_555
Rh5 Sm9 3.097203 1_555
Rh5 Sm5 3.100016 1_555
Rh5 Sm2 3.165442 1_455
Rh6 Sm0 2.917942 1_556
Rh6 Sm1 2.931011 1_555
Rh6 Sm11 3.088733 1_555
Rh6 Sm9 3.097203 1_555
Rh6 Sm6 3.100016 1_555
Rh6 Sm1 3.165442 1_455
Rh7 Sm1 2.917942 1_554
Rh7 Sm0 2.931011 1_555
Rh7 Sm10 3.088733 1_555
Rh7 Sm8 3.097203 1_555
Rh7 Sm7 3.100016 1_555
Rh7 Sm0 3.165442 1_655
