# generated using pymatgen
data_SmGePd
_symmetry_space_group_name_H-M   'P 1'
_cell_length_a   4.44582792
_cell_length_b   7.63380230
_cell_length_c   21.53013232
_cell_angle_alpha   90.00000000
_cell_angle_beta   90.00000000
_cell_angle_gamma   90.00000000
_symmetry_Int_Tables_number   1
_chemical_formula_structural   SmGePd
_chemical_formula_sum   'Sm12 Ge12 Pd12'
_cell_volume   730.70193302
_cell_formula_units_Z   12
loop_
 _symmetry_equiv_pos_site_id
 _symmetry_equiv_pos_as_xyz
  1  'x, y, z'
loop_
 _atom_site_type_symbol
 _atom_site_label
 _atom_site_symmetry_multiplicity
 _atom_site_fract_x
 _atom_site_fract_y
 _atom_site_fract_z
 _atom_site_occupancy
  Sm  Sm0  1  0.25000000  0.70927159  0.33297088  1
  Sm  Sm1  1  0.75000000  0.29072841  0.66702912  1
  Sm  Sm2  1  0.75000000  0.20927159  0.16702912  1
  Sm  Sm3  1  0.25000000  0.79072841  0.83297088  1
  Sm  Sm4  1  0.25000000  0.79094470  0.16597612  1
  Sm  Sm5  1  0.75000000  0.20905530  0.83402388  1
  Sm  Sm6  1  0.75000000  0.29094470  0.33402388  1
  Sm  Sm7  1  0.25000000  0.70905530  0.66597612  1
  Sm  Sm8  1  0.25000000  0.71667127  0.00119537  1
  Sm  Sm9  1  0.75000000  0.28332873  0.99880463  1
  Sm  Sm10  1  0.75000000  0.21667127  0.49880463  1
  Sm  Sm11  1  0.25000000  0.78332873  0.50119537  1
  Ge  Ge0  1  0.25000000  0.09148755  0.07288145  1
  Ge  Ge1  1  0.75000000  0.90851245  0.92711855  1
  Ge  Ge2  1  0.75000000  0.59148755  0.42711855  1
  Ge  Ge3  1  0.25000000  0.40851245  0.57288145  1
  Ge  Ge4  1  0.25000000  0.08630874  0.26898001  1
  Ge  Ge5  1  0.75000000  0.91369126  0.73101999  1
  Ge  Ge6  1  0.75000000  0.58630874  0.23101999  1
  Ge  Ge7  1  0.25000000  0.41369126  0.76898001  1
  Ge  Ge8  1  0.25000000  0.08752871  0.39735226  1
  Ge  Ge9  1  0.75000000  0.91247129  0.60264774  1
  Ge  Ge10  1  0.75000000  0.58752871  0.10264774  1
  Ge  Ge11  1  0.25000000  0.41247129  0.89735226  1
  Pd  Pd0  1  0.25000000  0.41773195  0.23727588  1
  Pd  Pd1  1  0.75000000  0.58226805  0.76272412  1
  Pd  Pd2  1  0.75000000  0.91773195  0.26272412  1
  Pd  Pd3  1  0.25000000  0.08226805  0.73727588  1
  Pd  Pd4  1  0.25000000  0.41701300  0.43585162  1
  Pd  Pd5  1  0.75000000  0.58298700  0.56414838  1
  Pd  Pd6  1  0.75000000  0.91701300  0.06414838  1
  Pd  Pd7  1  0.25000000  0.08298700  0.93585162  1
  Pd  Pd8  1  0.25000000  0.42167011  0.09362335  1
  Pd  Pd9  1  0.75000000  0.57832989  0.90637665  1
  Pd  Pd10  1  0.75000000  0.92167011  0.40637665  1
  Pd  Pd11  1  0.25000000  0.07832989  0.59362335  1
loop_
_geom_bond_atom_site_label_1
_geom_bond_atom_site_label_2
_geom_bond_distance
_geom_bond_site_symmetry_2
Ge0 Pd8 2.559804 1_555
Ge0 Pd6 2.598205 1_545
Ge0 Pd6 2.598205 1_445
Ge0 Pd7 2.950984 1_554
Ge0 Sm4 3.046494 1_545
Ge0 Sm9 3.103175 1_454
Ge0 Sm9 3.103175 1_554
Ge0 Sm2 3.139837 1_455
Ge0 Sm2 3.139837 1_555
Ge0 Sm8 3.251000 1_545
Ge1 Pd9 2.559804 1_555
Ge1 Pd7 2.598205 1_565
Ge1 Pd7 2.598205 1_665
Ge1 Pd6 2.950984 1_556
Ge1 Sm5 3.046494 1_565
Ge1 Sm8 3.103175 1_556
Ge1 Sm8 3.103175 1_656
Ge1 Sm3 3.139837 1_555
Ge1 Sm3 3.139837 1_655
Ge1 Sm9 3.251000 1_565
Ge2 Pd10 2.559804 1_555
Ge2 Pd4 2.598205 1_555
Ge2 Pd4 2.598205 1_655
Ge2 Pd5 2.950984 1_555
Ge2 Sm6 3.046494 1_555
Ge2 Sm11 3.103175 1_555
Ge2 Sm11 3.103175 1_655
Ge2 Sm0 3.139837 1_655
Ge2 Sm0 3.139837 1_555
Ge2 Sm10 3.251000 1_555
Ge3 Pd11 2.559804 1_555
Ge3 Pd5 2.598205 1_455
Ge3 Pd5 2.598205 1_555
Ge3 Pd4 2.950984 1_555
Ge3 Sm7 3.046494 1_555
Ge3 Sm10 3.103175 1_455
Ge3 Sm10 3.103175 1_555
Ge3 Sm1 3.139837 1_555
Ge3 Sm1 3.139837 1_455
Ge3 Sm11 3.251000 1_555
Ge4 Pd2 2.572072 1_545
Ge4 Pd2 2.572072 1_445
Ge4 Pd0 2.620483 1_555
Ge4 Ge8 2.763887 1_555
Ge4 Sm6 3.056598 1_455
Ge4 Sm6 3.056598 1_555
Ge4 Sm4 3.162600 1_545
Ge4 Sm0 3.190977 1_545
Ge4 Sm2 3.261986 1_455
Ge4 Sm2 3.261986 1_555
Ge5 Pd3 2.572072 1_665
Ge5 Pd3 2.572072 1_565
Ge5 Pd1 2.620483 1_555
Ge5 Ge9 2.763887 1_555
Ge5 Sm7 3.056598 1_555
Ge5 Sm7 3.056598 1_655
Ge5 Sm5 3.162600 1_565
Ge5 Sm1 3.190977 1_565
Ge5 Sm3 3.261986 1_655
Ge5 Sm3 3.261986 1_555
Ge6 Pd0 2.572072 1_555
Ge6 Pd0 2.572072 1_655
Ge6 Pd2 2.620483 1_555
Ge6 Sm4 3.056598 1_555
Ge6 Sm4 3.056598 1_655
Ge6 Sm6 3.162600 1_555
Ge6 Sm2 3.190977 1_555
Ge6 Sm0 3.261986 1_655
Ge6 Sm0 3.261986 1_555
Ge7 Pd1 2.572072 1_555
Ge7 Pd1 2.572072 1_455
Ge7 Pd3 2.620483 1_555
Ge7 Sm5 3.056598 1_455
Ge7 Sm5 3.056598 1_555
Ge7 Sm7 3.162600 1_555
Ge7 Sm3 3.190977 1_555
Ge7 Sm1 3.261986 1_555
Ge7 Sm1 3.261986 1_455
Ge8 Pd10 2.565577 1_545
Ge8 Pd10 2.565577 1_445
Ge8 Pd4 2.648281 1_555
Ge8 Sm6 3.035078 1_455
Ge8 Sm6 3.035078 1_555
Ge8 Sm0 3.203010 1_545
Ge8 Sm11 3.223543 1_545
Ge8 Sm10 3.268690 1_455
Ge8 Sm10 3.268690 1_555
Ge9 Pd11 2.565577 1_665
Ge9 Pd11 2.565577 1_565
Ge9 Pd5 2.648281 1_555
Ge9 Sm7 3.035078 1_655
Ge9 Sm7 3.035078 1_555
Ge9 Sm1 3.203010 1_565
Ge9 Sm10 3.223543 1_565
Ge9 Sm11 3.268690 1_555
Ge9 Sm11 3.268690 1_655
Ge10 Pd8 2.565577 1_555
Ge10 Pd8 2.565577 1_655
Ge10 Pd6 2.648281 1_555
Ge10 Ge6 2.763887 1_555
Ge10 Sm4 3.035078 1_555
Ge10 Sm4 3.035078 1_655
Ge10 Sm2 3.203010 1_555
Ge10 Sm9 3.223543 1_554
Ge10 Sm8 3.268690 1_555
Ge10 Sm8 3.268690 1_655
Ge11 Pd9 2.565577 1_455
Ge11 Pd9 2.565577 1_555
Ge11 Pd7 2.648281 1_555
Ge11 Ge7 2.763887 1_555
Ge11 Sm5 3.035078 1_455
Ge11 Sm5 3.035078 1_555
Ge11 Sm3 3.203010 1_555
Ge11 Sm8 3.223543 1_556
Ge11 Sm9 3.268690 1_455
Ge11 Sm9 3.268690 1_555
Pd0 Sm0 3.032828 1_555
Pd0 Pd8 3.093004 1_555
Pd0 Sm2 3.124283 1_455
Pd0 Sm2 3.124283 1_555
Pd0 Sm6 3.196403 1_455
Pd0 Sm6 3.196403 1_555
Pd0 Sm4 3.236278 1_555
Pd1 Sm1 3.032828 1_555
Pd1 Pd9 3.093004 1_555
Pd1 Sm3 3.124283 1_655
Pd1 Sm3 3.124283 1_555
Pd1 Sm7 3.196403 1_555
Pd1 Sm7 3.196403 1_655
Pd1 Sm5 3.236278 1_555
Pd2 Sm2 3.032828 1_565
Pd2 Sm0 3.124283 1_655
Pd2 Sm0 3.124283 1_555
Pd2 Sm4 3.196403 1_655
Pd2 Sm4 3.196403 1_555
Pd2 Sm6 3.236278 1_565
Pd3 Sm3 3.032828 1_545
Pd3 Sm1 3.124283 1_555
Pd3 Sm1 3.124283 1_455
Pd3 Sm5 3.196403 1_455
Pd3 Sm5 3.196403 1_555
Pd3 Sm7 3.236278 1_545
Pd4 Sm10 3.019502 1_455
Pd4 Sm10 3.019502 1_555
Pd4 Sm11 3.130336 1_555
Pd4 Sm0 3.143874 1_555
Pd4 Sm6 3.267107 1_455
Pd4 Sm6 3.267107 1_555
Pd5 Sm11 3.019502 1_655
Pd5 Sm11 3.019502 1_555
Pd5 Sm10 3.130336 1_555
Pd5 Sm1 3.143874 1_555
Pd5 Sm7 3.267107 1_555
Pd5 Sm7 3.267107 1_655
Pd6 Sm8 3.019502 1_555
Pd6 Sm8 3.019502 1_655
Pd6 Sm9 3.130336 1_564
Pd6 Sm2 3.143874 1_565
Pd6 Sm4 3.267107 1_555
Pd6 Sm4 3.267107 1_655
Pd7 Sm9 3.019502 1_455
Pd7 Sm9 3.019502 1_555
Pd7 Sm8 3.130336 1_546
Pd7 Sm3 3.143874 1_545
Pd7 Sm5 3.267107 1_455
Pd7 Sm5 3.267107 1_555
Pd8 Sm8 3.005239 1_555
Pd8 Sm2 3.173025 1_555
Pd8 Sm2 3.173025 1_455
Pd8 Sm9 3.197529 1_554
Pd8 Sm9 3.197529 1_454
Pd8 Sm4 3.220748 1_555
Pd9 Sm9 3.005239 1_555
Pd9 Sm3 3.173025 1_555
Pd9 Sm3 3.173025 1_655
Pd9 Sm8 3.197529 1_656
Pd9 Sm8 3.197529 1_556
Pd9 Sm5 3.220748 1_555
Pd10 Sm10 3.005239 1_565
Pd10 Pd2 3.093004 1_555
Pd10 Sm0 3.173025 1_555
Pd10 Sm0 3.173025 1_655
Pd10 Sm11 3.197529 1_655
Pd10 Sm11 3.197529 1_555
Pd10 Sm6 3.220748 1_565
Pd11 Sm11 3.005239 1_545
Pd11 Pd3 3.093004 1_555
Pd11 Sm1 3.173025 1_555
Pd11 Sm1 3.173025 1_455
Pd11 Sm10 3.197529 1_455
Pd11 Sm10 3.197529 1_555
Pd11 Sm7 3.220748 1_545
