# generated using pymatgen
data_MgCr(PO3)4
_symmetry_space_group_name_H-M   'P 1'
_cell_length_a   7.45035178
_cell_length_b   7.45035178
_cell_length_c   10.12250723
_cell_angle_alpha   66.18242641
_cell_angle_beta   66.18242641
_cell_angle_gamma   68.50722553
_symmetry_Int_Tables_number   1
_chemical_formula_structural   MgCr(PO3)4
_chemical_formula_sum   'Mg2 Cr2 P8 O24'
_cell_volume   456.16305176
_cell_formula_units_Z   2
loop_
 _symmetry_equiv_pos_site_id
 _symmetry_equiv_pos_as_xyz
  1  'x, y, z'
loop_
 _atom_site_type_symbol
 _atom_site_label
 _atom_site_symmetry_multiplicity
 _atom_site_fract_x
 _atom_site_fract_y
 _atom_site_fract_z
 _atom_site_occupancy
  Mg  Mg0  1  0.95451100  0.04548900  0.75000000  1
  Mg  Mg1  1  0.04548900  0.95451100  0.25000000  1
  Cr  Cr0  1  0.00000000  0.50000000  0.50000000  1
  Cr  Cr1  1  0.50000000  0.00000000  0.00000000  1
  P  P0  1  0.70108300  0.68564000  0.80629200  1
  P  P1  1  0.31436000  0.29891700  0.69370800  1
  P  P2  1  0.29891700  0.31436000  0.19370800  1
  P  P3  1  0.68564000  0.70108300  0.30629200  1
  P  P4  1  0.74878400  0.27207400  0.02066300  1
  P  P5  1  0.72792600  0.25121600  0.47933700  1
  P  P6  1  0.25121600  0.72792600  0.97933700  1
  P  P7  1  0.27207400  0.74878400  0.52066300  1
  O  O0  1  0.46728100  0.69035400  0.85005000  1
  O  O1  1  0.30964600  0.53271900  0.64995000  1
  O  O2  1  0.53271900  0.30964600  0.14995000  1
  O  O3  1  0.69035400  0.46728100  0.35005000  1
  O  O4  1  0.77964500  0.49853600  0.93723100  1
  O  O5  1  0.50146400  0.22035500  0.56276900  1
  O  O6  1  0.22035500  0.50146400  0.06276900  1
  O  O7  1  0.49853600  0.77964500  0.43723100  1
  O  O8  1  0.80486100  0.65048000  0.65576800  1
  O  O9  1  0.34952000  0.19513900  0.84423200  1
  O  O10  1  0.19513900  0.34952000  0.34423200  1
  O  O11  1  0.65048000  0.80486100  0.15576800  1
  O  O12  1  0.71857000  0.87166200  0.82342100  1
  O  O13  1  0.12833800  0.28143000  0.67657900  1
  O  O14  1  0.28143000  0.12833800  0.17657900  1
  O  O15  1  0.87166200  0.71857000  0.32342100  1
  O  O16  1  0.73049400  0.19330200  0.91123300  1
  O  O17  1  0.80669800  0.26950600  0.58876700  1
  O  O18  1  0.26950600  0.80669800  0.08876700  1
  O  O19  1  0.19330200  0.73049400  0.41123300  1
  O  O20  1  0.90581100  0.15763200  0.09799600  1
  O  O21  1  0.84236800  0.09418900  0.40200400  1
  O  O22  1  0.09418900  0.84236800  0.90200400  1
  O  O23  1  0.15763200  0.90581100  0.59799600  1
loop_
_geom_bond_atom_site_label_1
_geom_bond_atom_site_label_2
_geom_bond_distance
_geom_bond_site_symmetry_2
Mg0 O23 1.999799 1_645
Mg0 O22 1.999799 1_645
Mg0 O17 2.137015 1_555
Mg0 O16 2.137015 1_555
Mg0 O12 2.270514 1_545
Mg0 O13 2.270514 1_655
Mg1 O20 1.999799 1_465
Mg1 O21 1.999799 1_465
Mg1 O18 2.137015 1_555
Mg1 O19 2.137015 1_555
Mg1 O15 2.270514 1_455
Mg1 O14 2.270514 1_565
Cr0 O8 2.058811 1_455
Cr0 O10 2.058811 1_555
Cr0 O15 2.156260 1_455
Cr0 O13 2.156260 1_555
Cr0 O19 2.313290 1_555
Cr0 O17 2.313290 1_455
Cr1 O11 2.058811 1_545
Cr1 O9 2.058811 1_554
Cr1 O12 2.156260 1_544
Cr1 O14 2.156260 1_555
Cr1 O16 2.313290 1_554
Cr1 O18 2.313290 1_545
O0 P0 1.605071 1_555
O0 P6 1.626837 1_555
O1 P1 1.605071 1_555
O1 P7 1.626837 1_555
O2 P2 1.605071 1_555
O2 P4 1.626837 1_555
O3 P3 1.605071 1_555
O3 P5 1.626837 1_555
O4 P0 1.605930 1_555
O4 P4 1.609168 1_556
O5 P1 1.605930 1_555
O5 P5 1.609168 1_555
O6 P2 1.605930 1_555
O6 P6 1.609168 1_554
O7 P3 1.605930 1_555
O7 P7 1.609168 1_555
O8 P0 1.486775 1_555
O9 P1 1.486775 1_555
O10 P2 1.486775 1_555
O11 P3 1.486775 1_555
O12 P0 1.520683 1_555
O13 P1 1.520683 1_555
O14 P2 1.520683 1_555
O15 P3 1.520683 1_555
O16 P4 1.515112 1_556
O17 P5 1.515112 1_555
O18 P6 1.515112 1_554
O19 P7 1.515112 1_555
O20 P4 1.475839 1_555
O21 P5 1.475839 1_555
O22 P6 1.475839 1_555
O23 P7 1.475839 1_555
