# generated using pymatgen
data_K2Be2Co(O3F4)2
_symmetry_space_group_name_H-M   'P 1'
_cell_length_a   5.97908944
_cell_length_b   8.13559489
_cell_length_c   11.40081900
_cell_angle_alpha   90.00000000
_cell_angle_beta   90.00000000
_cell_angle_gamma   105.43502383
_symmetry_Int_Tables_number   1
_chemical_formula_structural   K2Be2Co(O3F4)2
_chemical_formula_sum   'K4 Be4 Co2 O12 F16'
_cell_volume   534.57324228
_cell_formula_units_Z   2
loop_
 _symmetry_equiv_pos_site_id
 _symmetry_equiv_pos_as_xyz
  1  'x, y, z'
loop_
 _atom_site_type_symbol
 _atom_site_label
 _atom_site_symmetry_multiplicity
 _atom_site_fract_x
 _atom_site_fract_y
 _atom_site_fract_z
 _atom_site_occupancy
  K  K0  1  0.85658400  0.61523300  0.14955800  1
  K  K1  1  0.14341600  0.38476700  0.85044200  1
  K  K2  1  0.14341600  0.88476700  0.64955800  1
  K  K3  1  0.85658400  0.11523300  0.35044200  1
  Be  Be0  1  0.74778000  0.60002900  0.85024400  1
  Be  Be1  1  0.25222000  0.39997100  0.14975600  1
  Be  Be2  1  0.25222000  0.89997100  0.35024400  1
  Be  Be3  1  0.74778000  0.10002900  0.64975600  1
  Co  Co0  1  0.50000000  0.00000000  0.00000000  1
  Co  Co1  1  0.50000000  0.50000000  0.50000000  1
  O  O0  1  0.77717400  0.99582200  0.93554300  1
  O  O1  1  0.22282600  0.00417800  0.06445700  1
  O  O2  1  0.22282600  0.50417800  0.43554300  1
  O  O3  1  0.77717400  0.49582200  0.56445700  1
  O  O4  1  0.45517700  0.65166900  0.60604000  1
  O  O5  1  0.54482300  0.34833100  0.39396000  1
  O  O6  1  0.54482300  0.84833100  0.10604000  1
  O  O7  1  0.45517700  0.15166900  0.89396000  1
  O  O8  1  0.33983700  0.85203200  0.89723300  1
  O  O9  1  0.66016300  0.14796800  0.10276700  1
  O  O10  1  0.66016300  0.64796800  0.39723300  1
  O  O11  1  0.33983700  0.35203200  0.60276700  1
  F  F0  1  0.91572200  0.59240400  0.74713900  1
  F  F1  1  0.08427800  0.40759600  0.25286100  1
  F  F2  1  0.08427800  0.90759600  0.24713900  1
  F  F3  1  0.91572200  0.09240400  0.75286100  1
  F  F4  1  0.87151100  0.75469800  0.93489600  1
  F  F5  1  0.12848900  0.24530200  0.06510400  1
  F  F6  1  0.12848900  0.74530200  0.43489600  1
  F  F7  1  0.87151100  0.25469800  0.56510400  1
  F  F8  1  0.71687800  0.94069900  0.57072800  1
  F  F9  1  0.28312200  0.05930100  0.42927200  1
  F  F10  1  0.28312200  0.55930100  0.07072800  1
  F  F11  1  0.71687800  0.44069900  0.92927200  1
  F  F12  1  0.51743800  0.62776500  0.80255800  1
  F  F13  1  0.48256200  0.37223500  0.19744200  1
  F  F14  1  0.48256200  0.87223500  0.30255800  1
  F  F15  1  0.51743800  0.12776500  0.69744200  1
loop_
_geom_bond_atom_site_label_1
_geom_bond_atom_site_label_2
_geom_bond_distance
_geom_bond_site_symmetry_2
K0 O6 3.032945 1_555
K0 O10 3.096763 1_555
K1 O7 3.032945 1_555
K1 O11 3.096763 1_555
K2 O4 3.032945 1_555
K2 O8 3.096763 1_555
K3 O5 3.032945 1_555
K3 O9 3.096763 1_555
Be0 F11 1.548766 1_555
Be0 F12 1.551993 1_555
Be0 F0 1.557902 1_555
Be0 F4 1.602058 1_555
Be1 F10 1.548766 1_555
Be1 F13 1.551993 1_555
Be1 F1 1.557902 1_555
Be1 F5 1.602058 1_555
Be2 F9 1.548766 1_565
Be2 F14 1.551993 1_555
Be2 F2 1.557902 1_555
Be2 F6 1.602058 1_555
Be3 F8 1.548766 1_545
Be3 F15 1.551993 1_555
Be3 F3 1.557902 1_555
Be3 F7 1.602058 1_555
Co0 O9 1.767850 1_555
Co0 O8 1.767850 1_544
Co0 O7 1.797761 1_554
Co0 O6 1.797761 1_545
Co0 O1 1.821437 1_555
Co0 O0 1.821437 1_544
Co1 O11 1.767850 1_555
Co1 O10 1.767850 1_555
Co1 O4 1.797761 1_555
Co1 O5 1.797761 1_555
Co1 O3 1.821437 1_555
Co1 O2 1.821437 1_555
F0 K2 2.650457 1_655
F0 K1 2.705215 1_655
F1 K3 2.650457 1_455
F1 K0 2.705215 1_455
F2 K0 2.650457 1_455
F2 K3 2.705215 1_465
F3 K1 2.650457 1_655
F3 K2 2.705215 1_645
F4 K0 2.689022 1_556
F5 K1 2.689022 1_554
F6 K2 2.689022 1_555
F7 K3 2.689022 1_555
F8 K2 2.852467 1_655
F8 K3 2.896543 1_565
F9 K3 2.852467 1_455
F9 K2 2.896543 1_545
F10 K0 2.852467 1_455
F10 K1 2.896543 1_554
F11 K1 2.852467 1_655
F11 K0 2.896543 1_556
F12 K1 2.618034 1_555
F13 K0 2.618034 1_555
F14 K3 2.618034 1_565
F15 K2 2.618034 1_545
