# generated using pymatgen
data_LiBe2Rh
_symmetry_space_group_name_H-M   'P 1'
_cell_length_a   8.92528651
_cell_length_b   5.06294640
_cell_length_c   5.06294591
_cell_angle_alpha   30.00974894
_cell_angle_beta   28.18439783
_cell_angle_gamma   28.18440150
_symmetry_Int_Tables_number   1
_chemical_formula_structural   LiBe2Rh
_chemical_formula_sum   'Li1 Be2 Rh1'
_cell_volume   46.79737340
_cell_formula_units_Z   1
loop_
 _symmetry_equiv_pos_site_id
 _symmetry_equiv_pos_as_xyz
  1  'x, y, z'
loop_
 _atom_site_type_symbol
 _atom_site_label
 _atom_site_symmetry_multiplicity
 _atom_site_fract_x
 _atom_site_fract_y
 _atom_site_fract_z
 _atom_site_occupancy
  Li  Li0  1  0.00000000  0.00000000  0.00000000  1
  Be  Be0  1  0.25353900  0.00000000  0.00000000  1
  Be  Be1  1  0.74646100  0.00000000  0.00000000  1
  Rh  Rh0  1  0.50000000  0.00000000  0.00000000  1
loop_
_geom_bond_atom_site_label_1
_geom_bond_atom_site_label_2
_geom_bond_distance
_geom_bond_site_symmetry_2
Li0 Rh0 2.391284 1_456
Li0 Rh0 2.391284 1_554
Li0 Rh0 2.391284 1_465
Li0 Rh0 2.391284 1_545
Be0 Rh0 2.199735 1_555
Be0 Li0 2.262908 1_555
Be1 Rh0 2.199735 1_555
Be1 Li0 2.262908 1_655
