# generated using pymatgen
data_Sb8Cl2O11
_symmetry_space_group_name_H-M   'P 1'
_cell_length_a   7.45205137
_cell_length_b   20.53139495
_cell_length_c   7.57572252
_cell_angle_alpha   108.25466517
_cell_angle_beta   106.36498210
_cell_angle_gamma   93.99333214
_symmetry_Int_Tables_number   1
_chemical_formula_structural   Sb8Cl2O11
_chemical_formula_sum   'Sb16 Cl4 O22'
_cell_volume   1040.18636322
_cell_formula_units_Z   2
loop_
 _symmetry_equiv_pos_site_id
 _symmetry_equiv_pos_as_xyz
  1  'x, y, z'
loop_
 _atom_site_type_symbol
 _atom_site_label
 _atom_site_symmetry_multiplicity
 _atom_site_fract_x
 _atom_site_fract_y
 _atom_site_fract_z
 _atom_site_occupancy
  Sb  Sb0  1  0.11943800  0.58162100  0.02247900  1
  Sb  Sb1  1  0.24854900  0.80404600  0.05743200  1
  Sb  Sb2  1  0.39697200  0.77840500  0.64099700  1
  Sb  Sb3  1  0.16254600  0.06958200  0.10826400  1
  Sb  Sb4  1  0.56815300  0.98121300  0.24358500  1
  Sb  Sb5  1  0.27366600  0.31484500  0.09726400  1
  Sb  Sb6  1  0.50275700  0.31358900  0.75581200  1
  Sb  Sb7  1  0.60307000  0.49489200  0.26806800  1
  Sb  Sb8  1  0.39693000  0.50510800  0.73193200  1
  Sb  Sb9  1  0.49724300  0.68641100  0.24418800  1
  Sb  Sb10  1  0.72633400  0.68515500  0.90273600  1
  Sb  Sb11  1  0.43184700  0.01878700  0.75641500  1
  Sb  Sb12  1  0.83745400  0.93041800  0.89173600  1
  Sb  Sb13  1  0.60302800  0.22159500  0.35900300  1
  Sb  Sb14  1  0.75145100  0.19595400  0.94256800  1
  Sb  Sb15  1  0.88056200  0.41837900  0.97752100  1
  Cl  Cl0  1  0.13579000  0.67680500  0.43773200  1
  Cl  Cl1  1  0.87849400  0.15142200  0.35567800  1
  Cl  Cl2  1  0.12150600  0.84857800  0.64432200  1
  Cl  Cl3  1  0.86421000  0.32319500  0.56226800  1
  O  O0  1  0.96832500  0.64375600  0.92632400  1
  O  O1  1  0.40464100  0.75829200  0.88781300  1
  O  O2  1  0.41628900  0.77782700  0.27886300  1
  O  O3  1  0.16059100  0.53640900  0.76785800  1
  O  O4  1  0.35282700  0.90208900  0.15767900  1
  O  O5  1  0.25356500  0.08520300  0.90900500  1
  O  O6  1  0.27036200  0.30170800  0.82184000  1
  O  O7  1  0.42210600  0.29984000  0.48009900  1
  O  O8  1  0.45696200  0.40373400  0.21452900  1
  O  O9  1  0.35880300  0.04924000  0.30019300  1
  O  O10  1  0.50000000  0.50000000  0.00000000  1
  O  O11  1  0.64119700  0.95076000  0.69980700  1
  O  O12  1  0.54303800  0.59626600  0.78547100  1
  O  O13  1  0.57789400  0.70016000  0.51990100  1
  O  O14  1  0.72963800  0.69829200  0.17816000  1
  O  O15  1  0.50000000  0.00000000  0.00000000  1
  O  O16  1  0.74643500  0.91479700  0.09099500  1
  O  O17  1  0.64717300  0.09791100  0.84232100  1
  O  O18  1  0.83940900  0.46359100  0.23214200  1
  O  O19  1  0.58371100  0.22217300  0.72113700  1
  O  O20  1  0.59535900  0.24170800  0.11218700  1
  O  O21  1  0.03167500  0.35624400  0.07367600  1
loop_
_geom_bond_atom_site_label_1
_geom_bond_atom_site_label_2
_geom_bond_distance
_geom_bond_site_symmetry_2
Cl0 Sb2 2.498811 1_555
Cl1 Sb13 2.590108 1_555
Cl2 Sb2 2.590108 1_555
Cl3 Sb13 2.498811 1_555
O0 Sb0 1.935514 1_656
O0 Sb10 2.033088 1_555
O1 Sb2 2.024050 1_555
O1 Sb1 2.030995 1_556
O2 Sb9 1.973275 1_555
O2 Sb1 2.035715 1_555
O3 Sb8 1.976644 1_555
O3 Sb0 1.981859 1_556
O4 Sb1 1.929890 1_555
O4 Sb4 2.005880 1_555
O5 Sb3 1.921348 1_556
O5 Sb11 2.256336 1_555
O6 Sb6 1.953118 1_555
O6 Sb5 2.011104 1_556
O7 Sb6 1.924385 1_555
O7 Sb13 2.305536 1_555
O8 Sb7 1.960775 1_555
O8 Sb5 1.984677 1_555
O9 Sb3 1.922164 1_555
O9 Sb4 2.207663 1_545
O10 Sb7 1.997699 1_555
O10 Sb8 1.997699 1_554
O11 Sb12 1.922164 1_555
O11 Sb11 2.207663 1_565
O12 Sb8 1.960775 1_555
O12 Sb10 1.984677 1_555
O13 Sb9 1.924385 1_555
O13 Sb2 2.305536 1_555
O14 Sb9 1.953118 1_555
O14 Sb10 2.011104 1_554
O15 Sb4 1.938313 1_545
O15 Sb11 1.938313 1_554
O16 Sb12 1.921348 1_554
O16 Sb4 2.256336 1_555
O17 Sb14 1.929890 1_555
O17 Sb11 2.005880 1_555
O18 Sb7 1.976644 1_555
O18 Sb15 1.981859 1_554
O19 Sb6 1.973275 1_555
O19 Sb14 2.035715 1_555
O20 Sb13 2.024050 1_555
O20 Sb14 2.030995 1_554
O21 Sb15 1.935514 1_454
O21 Sb5 2.033088 1_555
