# generated using pymatgen
data_Sm(GaSe2)2
_symmetry_space_group_name_H-M   'P 1'
_cell_length_a   12.19464106
_cell_length_b   12.19464106
_cell_length_c   12.41227274
_cell_angle_alpha   106.94533655
_cell_angle_beta   106.94533655
_cell_angle_gamma   113.99635600
_symmetry_Int_Tables_number   1
_chemical_formula_structural   Sm(GaSe2)2
_chemical_formula_sum   'Sm8 Ga16 Se32'
_cell_volume   1424.54046091
_cell_formula_units_Z   8
loop_
 _symmetry_equiv_pos_site_id
 _symmetry_equiv_pos_as_xyz
  1  'x, y, z'
loop_
 _atom_site_type_symbol
 _atom_site_label
 _atom_site_symmetry_multiplicity
 _atom_site_fract_x
 _atom_site_fract_y
 _atom_site_fract_z
 _atom_site_occupancy
  Sm  Sm0  1  0.87366480  0.62366480  0.74732960  1
  Sm  Sm1  1  0.37633520  0.12633520  0.75267040  1
  Sm  Sm2  1  0.12633520  0.37633520  0.25267040  1
  Sm  Sm3  1  0.62366480  0.87366480  0.24732960  1
  Sm  Sm4  1  0.62500000  0.37500000  0.25000000  1
  Sm  Sm5  1  0.37500000  0.62500000  0.75000000  1
  Sm  Sm6  1  0.12500000  0.87500000  0.25000000  1
  Sm  Sm7  1  0.87500000  0.12500000  0.75000000  1
  Ga  Ga0  1  0.13506908  0.60650740  0.99868248  1
  Ga  Ga1  1  0.86361340  0.89217508  0.99868248  1
  Ga  Ga2  1  0.39349260  0.86493092  0.50131752  1
  Ga  Ga3  1  0.10782492  0.13638660  0.50131752  1
  Ga  Ga4  1  0.86493092  0.39349260  0.00131752  1
  Ga  Ga5  1  0.13638660  0.10782492  0.00131752  1
  Ga  Ga6  1  0.60650740  0.13506908  0.49868248  1
  Ga  Ga7  1  0.89217508  0.86361340  0.49868248  1
  Ga  Ga8  1  0.64108809  0.53951457  0.99979140  1
  Ga  Ga9  1  0.35870331  0.96027683  0.99979140  1
  Ga  Ga10  1  0.46048543  0.35891191  0.50020860  1
  Ga  Ga11  1  0.03972317  0.64129669  0.50020860  1
  Ga  Ga12  1  0.35891191  0.46048543  0.00020860  1
  Ga  Ga13  1  0.64129669  0.03972317  0.00020860  1
  Ga  Ga14  1  0.53951457  0.64108809  0.49979140  1
  Ga  Ga15  1  0.96027683  0.35870331  0.49979140  1
  Se  Se0  1  0.66807977  0.35493792  0.49852987  1
  Se  Se1  1  0.83045010  0.64359195  0.49852987  1
  Se  Se2  1  0.64506208  0.33192023  0.00147013  1
  Se  Se3  1  0.35640805  0.16954990  0.00147013  1
  Se  Se4  1  0.33192023  0.64506208  0.50147013  1
  Se  Se5  1  0.16954990  0.35640805  0.50147013  1
  Se  Se6  1  0.35493792  0.66807977  0.99852987  1
  Se  Se7  1  0.64359195  0.83045010  0.99852987  1
  Se  Se8  1  0.13839338  0.81579875  0.99839049  1
  Se  Se9  1  0.85999711  0.68259175  0.99839049  1
  Se  Se10  1  0.18420125  0.86160662  0.50160951  1
  Se  Se11  1  0.31740825  0.14000289  0.50160951  1
  Se  Se12  1  0.86160662  0.18420125  0.00160951  1
  Se  Se13  1  0.14000289  0.31740825  0.00160951  1
  Se  Se14  1  0.81579875  0.13839338  0.49839049  1
  Se  Se15  1  0.68259175  0.85999711  0.49839049  1
  Se  Se16  1  0.91027869  0.90944970  0.31651187  1
  Se  Se17  1  0.40623318  0.90706217  0.31651187  1
  Se  Se18  1  0.09055030  0.08972131  0.18348813  1
  Se  Se19  1  0.09293783  0.59376682  0.18348813  1
  Se  Se20  1  0.08972131  0.09055030  0.68348813  1
  Se  Se21  1  0.59376682  0.09293783  0.68348813  1
  Se  Se22  1  0.90944970  0.91027869  0.81651187  1
  Se  Se23  1  0.90706217  0.40623318  0.81651187  1
  Se  Se24  1  0.09266876  0.59357418  0.68883338  1
  Se  Se25  1  0.59616462  0.59525920  0.68883338  1
  Se  Se26  1  0.40642582  0.90733124  0.81116662  1
  Se  Se27  1  0.40474080  0.40383538  0.81116662  1
  Se  Se28  1  0.90733124  0.40642582  0.31116662  1
  Se  Se29  1  0.40383538  0.40474080  0.31116662  1
  Se  Se30  1  0.59357418  0.09266876  0.18883338  1
  Se  Se31  1  0.59525920  0.59616462  0.18883338  1
loop_
_geom_bond_atom_site_label_1
_geom_bond_atom_site_label_2
_geom_bond_distance
_geom_bond_site_symmetry_2
Ga0 Se6 2.473675 1_555
Ga0 Se19 2.525806 1_556
Ga0 Se23 2.530086 1_455
Ga0 Se8 2.537099 1_555
Ga1 Se7 2.473675 1_555
Ga1 Se18 2.525806 1_666
Ga1 Se22 2.530086 1_555
Ga1 Se9 2.537099 1_555
Ga2 Se4 2.473675 1_555
Ga2 Se17 2.525806 1_555
Ga2 Se21 2.530086 1_565
Ga2 Se10 2.537099 1_555
Ga3 Se5 2.473675 1_555
Ga3 Se16 2.525806 1_445
Ga3 Se20 2.530086 1_555
Ga3 Se11 2.537099 1_555
Ga4 Se2 2.473675 1_555
Ga4 Se23 2.525806 1_554
Ga4 Se19 2.530086 1_655
Ga4 Se12 2.537099 1_555
Ga5 Se3 2.473675 1_555
Ga5 Se22 2.525806 1_444
Ga5 Se18 2.530086 1_555
Ga5 Se13 2.537099 1_555
Ga6 Se0 2.473675 1_555
Ga6 Se21 2.525806 1_555
Ga6 Se17 2.530086 1_545
Ga6 Se14 2.537099 1_555
Ga7 Se1 2.473675 1_555
Ga7 Se20 2.525806 1_665
Ga7 Se16 2.530086 1_555
Ga7 Se15 2.537099 1_555
Ga8 Se9 2.535198 1_555
Ga8 Se31 2.535525 1_556
Ga8 Se27 2.540815 1_555
Ga8 Se2 2.557619 1_556
Ga9 Se8 2.535198 1_555
Ga9 Se30 2.535525 1_566
Ga9 Se26 2.540815 1_555
Ga9 Se3 2.557619 1_566
Ga10 Se11 2.535198 1_555
Ga10 Se29 2.535525 1_555
Ga10 Se25 2.540815 1_555
Ga10 Se0 2.557619 1_555
Ga11 Se10 2.535198 1_555
Ga11 Se28 2.535525 1_455
Ga11 Se24 2.540815 1_555
Ga11 Se1 2.557619 1_455
Ga12 Se13 2.535198 1_555
Ga12 Se27 2.535525 1_554
Ga12 Se31 2.540815 1_555
Ga12 Se6 2.557619 1_554
Ga13 Se12 2.535198 1_555
Ga13 Se26 2.535525 1_544
Ga13 Se30 2.540815 1_555
Ga13 Se7 2.557619 1_544
Ga14 Se15 2.535198 1_555
Ga14 Se25 2.535525 1_555
Ga14 Se29 2.540815 1_555
Ga14 Se4 2.557619 1_555
Ga15 Se14 2.535198 1_555
Ga15 Se24 2.535525 1_655
Ga15 Se28 2.540815 1_555
Ga15 Se5 2.557619 1_655
Se0 Sm4 3.074370 1_555
Se0 Sm0 3.076769 1_555
Se1 Sm4 3.074370 1_555
Se1 Sm0 3.076769 1_555
Se2 Sm4 3.074370 1_555
Se2 Sm1 3.076769 1_554
Se3 Sm4 3.074370 1_555
Se3 Sm1 3.076769 1_554
Se4 Sm5 3.074370 1_555
Se4 Sm2 3.076769 1_555
Se5 Sm5 3.074370 1_555
Se5 Sm2 3.076769 1_555
Se6 Sm5 3.074370 1_555
Se6 Sm3 3.076769 1_556
Se7 Sm5 3.074370 1_555
Se7 Sm3 3.076769 1_556
Se8 Sm0 3.057765 1_455
Se8 Sm6 3.062720 1_556
Se9 Sm0 3.057765 1_555
Se9 Sm6 3.062720 1_656
Se10 Sm1 3.057765 1_565
Se10 Sm6 3.062720 1_555
Se11 Sm1 3.057765 1_555
Se11 Sm6 3.062720 1_545
Se12 Sm2 3.057765 1_655
Se12 Sm7 3.062720 1_554
Se13 Sm2 3.057765 1_555
Se13 Sm7 3.062720 1_454
Se14 Sm3 3.057765 1_545
Se14 Sm7 3.062720 1_555
Se15 Sm3 3.057765 1_555
Se15 Sm7 3.062720 1_565
Se16 Sm6 3.109171 1_655
Se16 Sm3 3.152046 1_555
Se17 Sm6 3.109171 1_555
Se17 Sm3 3.152046 1_555
Se18 Sm6 3.109171 1_545
Se18 Sm2 3.152046 1_555
Se19 Sm6 3.109171 1_555
Se19 Sm2 3.152046 1_555
Se20 Sm7 3.109171 1_455
Se20 Sm1 3.152046 1_555
Se21 Sm7 3.109171 1_555
Se21 Sm1 3.152046 1_555
Se22 Sm7 3.109171 1_565
Se22 Sm0 3.152046 1_555
Se23 Sm7 3.109171 1_555
Se23 Sm0 3.152046 1_555
Se24 Sm0 3.092967 1_455
Se24 Sm5 3.132181 1_555
Se25 Sm0 3.092967 1_555
Se25 Sm5 3.132181 1_555
Se26 Sm1 3.092967 1_565
Se26 Sm5 3.132181 1_555
Se27 Sm1 3.092967 1_555
Se27 Sm5 3.132181 1_555
Se28 Sm2 3.092967 1_655
Se28 Sm4 3.132181 1_555
Se29 Sm2 3.092967 1_555
Se29 Sm4 3.132181 1_555
Se30 Sm3 3.092967 1_545
Se30 Sm4 3.132181 1_555
Se31 Sm3 3.092967 1_555
Se31 Sm4 3.132181 1_555
