# generated using pymatgen
data_Nd6Fe13Cu
_symmetry_space_group_name_H-M   'P 1'
_cell_length_a   12.76427183
_cell_length_b   12.76427183
_cell_length_c   12.76427183
_cell_angle_alpha   143.31321434
_cell_angle_beta   143.31321434
_cell_angle_gamma   52.85552556
_symmetry_Int_Tables_number   1
_chemical_formula_structural   Nd6Fe13Cu
_chemical_formula_sum   'Nd12 Fe26 Cu2'
_cell_volume   737.79695009
_cell_formula_units_Z   2
loop_
 _symmetry_equiv_pos_site_id
 _symmetry_equiv_pos_as_xyz
  1  'x, y, z'
loop_
 _atom_site_type_symbol
 _atom_site_label
 _atom_site_symmetry_multiplicity
 _atom_site_fract_x
 _atom_site_fract_y
 _atom_site_fract_z
 _atom_site_occupancy
  Nd  Nd0  1  0.60801400  0.60801400  0.00000000  1
  Nd  Nd1  1  0.10801400  0.10801400  0.00000000  1
  Nd  Nd2  1  0.39198600  0.39198600  0.00000000  1
  Nd  Nd3  1  0.89198600  0.89198600  0.00000000  1
  Nd  Nd4  1  0.47695100  0.97695100  0.82880600  1
  Nd  Nd5  1  0.14814500  0.64814500  0.17119400  1
  Nd  Nd6  1  0.97695100  0.14814500  0.50000000  1
  Nd  Nd7  1  0.64814500  0.47695100  0.50000000  1
  Nd  Nd8  1  0.52304900  0.02304900  0.17119400  1
  Nd  Nd9  1  0.85185500  0.35185500  0.82880600  1
  Nd  Nd10  1  0.02304900  0.85185500  0.50000000  1
  Nd  Nd11  1  0.35185500  0.52304900  0.50000000  1
  Fe  Fe0  1  0.50000000  0.00000000  0.50000000  1
  Fe  Fe1  1  0.00000000  0.50000000  0.50000000  1
  Fe  Fe2  1  0.56754600  0.71056600  0.27811100  1
  Fe  Fe3  1  0.43245400  0.28943400  0.72188900  1
  Fe  Fe4  1  0.06754600  0.78943400  0.85698000  1
  Fe  Fe5  1  0.93245400  0.21056600  0.14302000  1
  Fe  Fe6  1  0.28943400  0.56754600  0.85698000  1
  Fe  Fe7  1  0.71056600  0.43245400  0.14302000  1
  Fe  Fe8  1  0.21056600  0.06754600  0.27811100  1
  Fe  Fe9  1  0.78943400  0.93245400  0.72188900  1
  Fe  Fe10  1  0.61920600  0.11920600  0.85756000  1
  Fe  Fe11  1  0.26164600  0.76164600  0.14244000  1
  Fe  Fe12  1  0.11920600  0.26164600  0.50000000  1
  Fe  Fe13  1  0.76164600  0.61920600  0.50000000  1
  Fe  Fe14  1  0.38079400  0.88079400  0.14244000  1
  Fe  Fe15  1  0.73835400  0.23835400  0.85756000  1
  Fe  Fe16  1  0.88079400  0.73835400  0.50000000  1
  Fe  Fe17  1  0.23835400  0.38079400  0.50000000  1
  Fe  Fe18  1  0.79038000  0.29038000  0.27227400  1
  Fe  Fe19  1  0.01810600  0.51810600  0.72772600  1
  Fe  Fe20  1  0.29038000  0.01810600  0.50000000  1
  Fe  Fe21  1  0.51810600  0.79038000  0.50000000  1
  Fe  Fe22  1  0.20962000  0.70962000  0.72772600  1
  Fe  Fe23  1  0.98189400  0.48189400  0.27227400  1
  Fe  Fe24  1  0.70962000  0.98189400  0.50000000  1
  Fe  Fe25  1  0.48189400  0.20962000  0.50000000  1
  Cu  Cu0  1  0.25000000  0.25000000  0.00000000  1
  Cu  Cu1  1  0.75000000  0.75000000  0.00000000  1
loop_
_geom_bond_atom_site_label_1
_geom_bond_atom_site_label_2
_geom_bond_distance
_geom_bond_site_symmetry_2
Fe0 Fe3 2.387835 1_555
Fe0 Fe8 2.387835 1_555
Fe0 Fe9 2.387835 1_545
Fe0 Fe2 2.387835 1_545
Fe0 Fe14 2.445594 1_545
Fe0 Fe15 2.445594 1_555
Fe0 Fe11 2.445594 1_545
Fe0 Fe10 2.445594 1_555
Fe0 Fe24 2.542778 1_545
Fe0 Fe21 2.542778 1_545
Fe0 Fe20 2.542778 1_555
Fe0 Fe25 2.542778 1_555
Fe1 Fe6 2.387832 1_555
Fe1 Fe5 2.387832 1_455
Fe1 Fe4 2.387832 1_555
Fe1 Fe7 2.387832 1_455
Fe1 Fe17 2.445594 1_555
Fe1 Fe16 2.445594 1_455
Fe1 Fe12 2.445594 1_555
Fe1 Fe13 2.445594 1_455
Fe1 Fe18 2.542778 1_455
Fe1 Fe19 2.542778 1_555
Fe1 Fe22 2.542778 1_555
Fe1 Fe23 2.542778 1_455
Fe2 Fe6 2.512518 1_554
Fe2 Fe7 2.512522 1_555
Fe2 Fe9 2.521096 1_555
Fe2 Fe24 2.630619 1_555
Fe2 Fe21 2.630638 1_555
Fe2 Nd0 3.041980 1_555
Fe2 Nd2 3.041999 1_555
Fe3 Fe7 2.512518 1_556
Fe3 Fe6 2.512522 1_555
Fe3 Fe8 2.521096 1_555
Fe3 Nd2 3.041980 1_556
Fe3 Nd0 3.041999 1_556
Fe4 Fe8 2.512518 1_566
Fe4 Fe9 2.512522 1_455
Fe4 Fe6 2.521084 1_555
Fe4 Nd3 3.041992 1_456
Fe4 Nd1 3.041992 1_566
Fe5 Fe9 2.512518 1_544
Fe5 Fe8 2.512522 1_655
Fe5 Fe7 2.521084 1_555
Fe5 Nd1 3.041992 1_655
Fe5 Nd3 3.041992 1_545
Fe6 Nd2 3.041992 1_556
Fe6 Nd0 3.041992 1_556
Fe7 Nd2 3.041992 1_555
Fe7 Nd0 3.041992 1_555
Fe8 Nd1 3.041980 1_555
Fe8 Nd3 3.041999 1_445
Fe9 Nd3 3.041980 1_556
Fe9 Nd1 3.041999 1_666
Fe10 Fe7 2.464475 1_556
Fe10 Fe5 2.464475 1_556
Fe10 Fe18 2.496972 1_556
Fe10 Fe21 2.546377 1_545
Fe10 Fe20 2.546377 1_555
Fe10 Fe3 2.561557 1_555
Fe10 Fe9 2.561557 1_545
Fe10 Fe15 2.723808 1_555
Fe10 Nd4 2.927943 1_545
Fe10 Nd2 3.154278 1_556
Fe10 Nd3 3.154278 1_546
Fe11 Fe6 2.464475 1_554
Fe11 Fe4 2.464475 1_554
Fe11 Fe19 2.496972 1_554
Fe11 Fe21 2.546377 1_555
Fe11 Fe20 2.546377 1_565
Fe11 Fe2 2.561569 1_555
Fe11 Fe8 2.561569 1_565
Fe11 Fe14 2.723808 1_555
Fe11 Nd5 2.927943 1_555
Fe11 Nd2 3.154278 1_555
Fe11 Nd3 3.154278 1_455
Fe12 Fe3 2.464472 1_555
Fe12 Fe8 2.464485 1_555
Fe12 Fe20 2.496972 1_555
Fe12 Fe18 2.546377 1_455
Fe12 Fe19 2.546377 1_555
Fe12 Fe6 2.561565 1_555
Fe12 Fe5 2.561565 1_455
Fe12 Fe17 2.723808 1_555
Fe12 Nd6 2.927943 1_455
Fe12 Nd2 3.154278 1_556
Fe12 Nd3 3.154278 1_445
Fe13 Fe9 2.464472 1_555
Fe13 Fe2 2.464485 1_555
Fe13 Fe21 2.496972 1_555
Fe13 Fe18 2.546377 1_555
Fe13 Fe19 2.546377 1_655
Fe13 Fe7 2.561565 1_555
Fe13 Fe4 2.561565 1_655
Fe13 Fe16 2.723808 1_555
Fe13 Nd7 2.927943 1_555
Fe13 Nd2 3.154278 1_555
Fe13 Nd3 3.154278 1_556
Fe14 Fe4 2.464475 1_554
Fe14 Fe6 2.464475 1_554
Fe14 Fe22 2.496972 1_554
Fe14 Fe25 2.546377 1_565
Fe14 Fe24 2.546377 1_555
Fe14 Fe8 2.561557 1_565
Fe14 Fe2 2.561557 1_555
Fe14 Nd8 2.927943 1_565
Fe14 Nd1 3.154278 1_565
Fe14 Nd0 3.154278 1_555
Fe15 Fe5 2.464475 1_556
Fe15 Fe7 2.464475 1_556
Fe15 Fe23 2.496972 1_556
Fe15 Fe24 2.546377 1_545
Fe15 Fe25 2.546377 1_555
Fe15 Fe9 2.561569 1_545
Fe15 Fe3 2.561569 1_555
Fe15 Nd9 2.927943 1_555
Fe15 Nd1 3.154278 1_656
Fe15 Nd0 3.154278 1_556
Fe16 Fe2 2.464472 1_555
Fe16 Fe9 2.464485 1_555
Fe16 Fe24 2.496972 1_555
Fe16 Fe23 2.546377 1_555
Fe16 Fe22 2.546377 1_655
Fe16 Fe4 2.561565 1_655
Fe16 Fe7 2.561565 1_555
Fe16 Nd10 2.927943 1_655
Fe16 Nd0 3.154278 1_555
Fe16 Nd1 3.154278 1_666
Fe17 Fe8 2.464472 1_555
Fe17 Fe3 2.464485 1_555
Fe17 Fe25 2.496972 1_555
Fe17 Fe22 2.546377 1_555
Fe17 Fe23 2.546377 1_455
Fe17 Fe5 2.561565 1_455
Fe17 Fe6 2.561565 1_555
Fe17 Nd11 2.927943 1_555
Fe17 Nd0 3.154278 1_556
Fe17 Nd1 3.154278 1_555
Fe18 Fe19 2.587415 1_655
Fe18 Fe7 2.630625 1_555
Fe18 Fe5 2.630625 1_555
Fe18 Nd6 3.091439 1_555
Fe18 Nd7 3.091439 1_555
Fe18 Nd3 3.246452 1_545
Fe18 Nd2 3.246452 1_555
Fe18 Nd4 3.277370 1_544
Fe19 Fe6 2.630625 1_555
Fe19 Fe4 2.630625 1_555
Fe19 Nd6 3.091439 1_455
Fe19 Nd7 3.091439 1_455
Fe19 Nd2 3.246452 1_556
Fe19 Nd3 3.246452 1_456
Fe19 Nd5 3.277370 1_556
Fe20 Fe21 2.587415 1_545
Fe20 Fe3 2.630619 1_555
Fe20 Fe8 2.630638 1_555
Fe20 Nd5 3.091439 1_545
Fe20 Nd4 3.091439 1_545
Fe20 Nd2 3.246452 1_556
Fe20 Nd3 3.246452 1_445
Fe20 Nd6 3.277370 1_455
Fe21 Fe9 2.630619 1_555
Fe21 Nd5 3.091439 1_555
Fe21 Nd4 3.091439 1_555
Fe21 Nd2 3.246452 1_555
Fe21 Nd3 3.246452 1_556
Fe21 Nd7 3.277370 1_555
Fe22 Fe23 2.587415 1_455
Fe22 Fe4 2.630625 1_555
Fe22 Fe6 2.630625 1_555
Fe22 Nd10 3.091439 1_555
Fe22 Nd11 3.091439 1_555
Fe22 Nd0 3.246452 1_556
Fe22 Nd1 3.246452 1_566
Fe22 Nd8 3.277370 1_566
Fe23 Fe5 2.630625 1_555
Fe23 Fe7 2.630625 1_555
Fe23 Nd10 3.091439 1_655
Fe23 Nd11 3.091439 1_655
Fe23 Nd0 3.246452 1_555
Fe23 Nd1 3.246452 1_655
Fe23 Nd9 3.277370 1_554
Fe24 Fe25 2.587415 1_565
Fe24 Fe9 2.630638 1_555
Fe24 Nd9 3.091439 1_565
Fe24 Nd8 3.091439 1_565
Fe24 Nd0 3.246452 1_555
Fe24 Nd1 3.246452 1_666
Fe24 Nd10 3.277370 1_655
Fe25 Fe8 2.630619 1_555
Fe25 Fe3 2.630638 1_555
Fe25 Nd9 3.091439 1_555
Fe25 Nd8 3.091439 1_555
Fe25 Nd0 3.246452 1_556
Fe25 Nd1 3.246452 1_555
Fe25 Nd11 3.277370 1_555
Cu0 Nd1 3.245901 1_555
Cu0 Nd2 3.245901 1_555
Cu0 Nd8 3.325483 1_555
Cu0 Nd4 3.325483 1_544
Cu0 Nd7 3.325483 1_555
Cu0 Nd6 3.325483 1_454
Cu0 Nd11 3.325483 1_555
Cu0 Nd5 3.325483 1_555
Cu0 Nd9 3.325483 1_454
Cu0 Nd10 3.325483 1_544
Cu1 Nd3 3.245901 1_555
Cu1 Nd0 3.245901 1_555
Cu1 Nd8 3.325483 1_565
Cu1 Nd7 3.325483 1_554
Cu1 Nd6 3.325483 1_565
Cu1 Nd9 3.325483 1_554
Cu1 Nd4 3.325483 1_554
Cu1 Nd11 3.325483 1_554
Cu1 Nd5 3.325483 1_655
Cu1 Nd10 3.325483 1_655
