# generated using pymatgen
data_CoH24C4S4N8(ClO4)2
_symmetry_space_group_name_H-M   'P 1'
_cell_length_a   8.59530400
_cell_length_b   8.98725841
_cell_length_c   9.14609237
_cell_angle_alpha   74.34534348
_cell_angle_beta   76.70136562
_cell_angle_gamma   64.90872108
_symmetry_Int_Tables_number   1
_chemical_formula_structural   CoH24C4S4N8(ClO4)2
_chemical_formula_sum   'Co1 H24 C4 S4 N8 Cl2 O8'
_cell_volume   610.67543307
_cell_formula_units_Z   1
loop_
 _symmetry_equiv_pos_site_id
 _symmetry_equiv_pos_as_xyz
  1  'x, y, z'
loop_
 _atom_site_type_symbol
 _atom_site_label
 _atom_site_symmetry_multiplicity
 _atom_site_fract_x
 _atom_site_fract_y
 _atom_site_fract_z
 _atom_site_occupancy
  Co  Co0  1  0.00000000  0.00000000  0.00000000  1
  H  H0  1  0.60106000  0.60680200  0.38545900  1
  H  H1  1  0.39894000  0.39319800  0.61454100  1
  H  H2  1  0.73347200  0.38627900  0.40706200  1
  H  H3  1  0.26652800  0.61372100  0.59293800  1
  H  H4  1  0.82359400  0.53990800  0.29794500  1
  H  H5  1  0.17640600  0.46009200  0.70205500  1
  H  H6  1  0.82541000  0.37623000  0.97788400  1
  H  H7  1  0.17459000  0.62377000  0.02211600  1
  H  H8  1  0.66841700  0.19874400  0.13328300  1
  H  H9  1  0.33158300  0.80125600  0.86671700  1
  H  H10  1  0.81385900  0.13673300  0.25038400  1
  H  H11  1  0.18614100  0.86326700  0.74961600  1
  H  H12  1  0.64755300  0.76752900  0.58815500  1
  H  H13  1  0.35244700  0.23247100  0.41184500  1
  H  H14  1  0.76871100  0.68916400  0.74698500  1
  H  H15  1  0.23128900  0.31083600  0.25301500  1
  H  H16  1  0.86777400  0.75511600  0.55576000  1
  H  H17  1  0.13222600  0.24488400  0.44424000  1
  H  H18  1  0.84975900  0.08571700  0.71072300  1
  H  H19  1  0.15024100  0.91428300  0.28927700  1
  H  H20  1  0.67618600  0.02031600  0.95858000  1
  H  H21  1  0.32381400  0.97968400  0.04142000  1
  H  H22  1  0.82192300  0.82814300  0.96133100  1
  H  H23  1  0.17807700  0.17185700  0.03866900  1
  C  C0  1  0.70812400  0.50926600  0.33112400  1
  C  C1  1  0.29187600  0.49073400  0.66887600  1
  C  C2  1  0.74814700  0.77619900  0.63657200  1
  C  C3  1  0.25185300  0.22380100  0.36342800  1
  S  S0  1  0.63855100  0.50823000  0.16324600  1
  S  S1  1  0.36144900  0.49177000  0.83675400  1
  S  S2  1  0.66750300  0.98278300  0.66966800  1
  S  S3  1  0.33249700  0.01721700  0.33033200  1
  N  N0  1  0.80445100  0.34585400  0.09589300  1
  N  N1  1  0.19554900  0.65414600  0.90410700  1
  N  N2  1  0.79187500  0.18610400  0.13865800  1
  N  N3  1  0.20812500  0.81389600  0.86134200  1
  N  N4  1  0.82418500  0.97862600  0.75483700  1
  N  N5  1  0.17581500  0.02137400  0.24516300  1
  N  N6  1  0.80180400  0.95151500  0.91785400  1
  N  N7  1  0.19819600  0.04848500  0.08214600  1
  Cl  Cl0  1  0.01045300  0.77816100  0.21798400  1
  Cl  Cl1  1  0.98954700  0.22183900  0.78201600  1
  O  O0  1  0.48274800  0.47254600  0.20822000  1
  O  O1  1  0.51725200  0.52745400  0.79178000  1
  O  O2  1  0.63913100  0.65549000  0.04899600  1
  O  O3  1  0.36086900  0.34451000  0.95100400  1
  O  O4  1  0.50816300  0.01125600  0.77551000  1
  O  O5  1  0.49183700  0.98874400  0.22449000  1
  O  O6  1  0.66924600  0.09895800  0.52438600  1
  O  O7  1  0.33075400  0.90104200  0.47561400  1
loop_
_geom_bond_atom_site_label_1
_geom_bond_atom_site_label_2
_geom_bond_distance
_geom_bond_site_symmetry_2
Co0 N7 2.247562 1_555
Co0 N6 2.247562 1_444
Co0 N2 2.273609 1_455
Co0 N3 2.273609 1_544
H6 N0 1.032065 1_556
H7 N1 1.032065 1_554
H8 N2 1.029625 1_555
H9 N3 1.029625 1_555
H10 N2 1.024599 1_555
H11 N3 1.024599 1_555
H18 N4 1.032709 1_545
H19 N5 1.032709 1_565
H20 N6 1.029528 1_545
H21 N7 1.029528 1_565
H22 N6 1.023955 1_555
H23 N7 1.023955 1_555
C0 H4 1.095962 1_555
C0 H2 1.096651 1_555
C0 H0 1.096703 1_555
C0 S0 1.774847 1_555
C1 H5 1.095962 1_555
C1 H3 1.096651 1_555
C1 H1 1.096703 1_555
C1 S1 1.774847 1_555
C2 H16 1.095518 1_555
C2 H14 1.096103 1_555
C2 H12 1.096207 1_555
C2 S2 1.770434 1_555
C3 H17 1.095518 1_555
C3 H15 1.096103 1_555
C3 H13 1.096207 1_555
C3 S3 1.770434 1_555
N0 N2 1.426555 1_555
N0 S0 1.690737 1_555
N1 N3 1.426555 1_555
N1 S1 1.690737 1_555
N4 S2 1.687039 1_555
N5 S3 1.687039 1_555
Cl0 Co0 2.396494 1_565
Cl1 Co0 2.396494 1_656
O0 S0 1.450886 1_555
O1 S1 1.450886 1_555
O2 S0 1.449255 1_555
O3 S1 1.449255 1_555
O4 S2 1.450803 1_545
O5 S3 1.450803 1_565
O6 S2 1.453050 1_545
O7 S3 1.453050 1_565
