# generated using pymatgen
data_CaCr(GeO3)2
_symmetry_space_group_name_H-M   'P 1'
_cell_length_a   6.83035315
_cell_length_b   8.10479425
_cell_length_c   9.95593408
_cell_angle_alpha   73.98580375
_cell_angle_beta   79.74280738
_cell_angle_gamma   91.73117158
_symmetry_Int_Tables_number   1
_chemical_formula_structural   CaCr(GeO3)2
_chemical_formula_sum   'Ca4 Cr4 Ge8 O24'
_cell_volume   519.45507200
_cell_formula_units_Z   4
loop_
 _symmetry_equiv_pos_site_id
 _symmetry_equiv_pos_as_xyz
  1  'x, y, z'
loop_
 _atom_site_type_symbol
 _atom_site_label
 _atom_site_symmetry_multiplicity
 _atom_site_fract_x
 _atom_site_fract_y
 _atom_site_fract_z
 _atom_site_occupancy
  Ca  Ca0  1  0.30720500  0.97623300  0.72353000  1
  Ca  Ca1  1  0.30700400  0.47614900  0.22361700  1
  Ca  Ca2  1  0.69297000  0.02367500  0.27637500  1
  Ca  Ca3  1  0.69280800  0.52394100  0.77657700  1
  Cr  Cr0  1  0.90627700  0.16858100  0.92445900  1
  Cr  Cr1  1  0.09353900  0.33160400  0.57545000  1
  Cr  Cr2  1  0.90623400  0.66787900  0.42523200  1
  Cr  Cr3  1  0.09367600  0.83202600  0.07507000  1
  Ge  Ge0  1  0.38060800  0.70488200  0.48774400  1
  Ge  Ge1  1  0.38061900  0.20494600  0.98772900  1
  Ge  Ge2  1  0.81702300  0.94658000  0.66959900  1
  Ge  Ge3  1  0.81719100  0.44654800  0.16948300  1
  Ge  Ge4  1  0.61931300  0.29507500  0.51218800  1
  Ge  Ge5  1  0.61944700  0.79506700  0.01230500  1
  Ge  Ge6  1  0.18283500  0.05335800  0.33042200  1
  Ge  Ge7  1  0.18302700  0.55354000  0.83045400  1
  O  O0  1  0.32534200  0.93030800  0.45793500  1
  O  O1  1  0.32514800  0.43029000  0.95803000  1
  O  O2  1  0.60884800  0.86197800  0.82449100  1
  O  O3  1  0.60888900  0.36192900  0.32440900  1
  O  O4  1  0.67478000  0.06971800  0.54203600  1
  O  O5  1  0.67498200  0.56971100  0.04180400  1
  O  O6  1  0.39113200  0.13805700  0.17549100  1
  O  O7  1  0.39119200  0.63810400  0.67555600  1
  O  O8  1  0.11469600  0.23614000  0.37704600  1
  O  O9  1  0.11490700  0.73630200  0.87700200  1
  O  O10  1  0.37920600  0.27392000  0.61212400  1
  O  O11  1  0.37926800  0.77382900  0.11222100  1
  O  O12  1  0.88524800  0.76380300  0.62306400  1
  O  O13  1  0.88513100  0.26369000  0.12290700  1
  O  O14  1  0.62084300  0.72591200  0.38793100  1
  O  O15  1  0.62067000  0.22626000  0.88765800  1
  O  O16  1  0.20009900  0.58019400  0.44260100  1
  O  O17  1  0.20021500  0.08051200  0.94228400  1
  O  O18  1  0.99282800  0.08258800  0.70417200  1
  O  O19  1  0.99290800  0.58269500  0.20393800  1
  O  O20  1  0.79973000  0.41940200  0.55776400  1
  O  O21  1  0.79988500  0.91989800  0.05739800  1
  O  O22  1  0.00711700  0.91708300  0.29606900  1
  O  O23  1  0.00716000  0.41759300  0.79583800  1
loop_
_geom_bond_atom_site_label_1
_geom_bond_atom_site_label_2
_geom_bond_distance
_geom_bond_site_symmetry_2
Ca0 O9 2.309292 1_555
Ca0 O10 2.355992 1_565
Ca0 O18 2.357677 1_465
Ca0 O2 2.540089 1_555
Ca0 O17 2.545129 1_565
Ca0 O0 2.752290 1_555
Ca0 O4 2.767054 1_565
Ca0 O7 2.964283 1_555
Ca1 O8 2.309587 1_555
Ca1 O11 2.356096 1_555
Ca1 O19 2.356913 1_455
Ca1 O3 2.540746 1_555
Ca1 O16 2.546005 1_555
Ca1 O1 2.751990 1_554
Ca1 O5 2.770571 1_555
Ca1 O6 2.964754 1_555
Ca2 O13 2.309318 1_555
Ca2 O14 2.356846 1_545
Ca2 O22 2.357399 1_645
Ca2 O6 2.541229 1_555
Ca2 O21 2.544702 1_545
Ca2 O4 2.753280 1_555
Ca2 O0 2.767548 1_545
Ca2 O3 2.965622 1_555
Ca3 O12 2.309480 1_555
Ca3 O15 2.355550 1_555
Ca3 O23 2.357358 1_655
Ca3 O7 2.539978 1_555
Ca3 O20 2.546805 1_555
Ca3 O5 2.748418 1_556
Ca3 O1 2.767428 1_555
Ca3 O2 2.963292 1_555
Cr0 O23 2.088898 1_655
Cr0 O15 2.091298 1_555
Cr0 O21 2.106959 1_546
Cr0 O17 2.171502 1_655
Cr0 O13 2.294338 1_556
Cr0 O18 2.460025 1_555
Cr1 O18 2.088988 1_455
Cr1 O10 2.091351 1_555
Cr1 O16 2.106340 1_555
Cr1 O20 2.169717 1_455
Cr1 O8 2.295576 1_555
Cr1 O23 2.460834 1_555
Cr2 O22 2.091680 1_655
Cr2 O14 2.091847 1_555
Cr2 O20 2.104601 1_555
Cr2 O16 2.169287 1_655
Cr2 O12 2.292457 1_555
Cr2 O19 2.465889 1_555
Cr3 O19 2.091491 1_455
Cr3 O11 2.093031 1_555
Cr3 O17 2.105470 1_564
Cr3 O21 2.169779 1_455
Cr3 O9 2.293599 1_554
Cr3 O22 2.462544 1_555
Ge0 O14 1.737242 1_555
Ge0 O16 1.765235 1_555
Ge0 O7 1.812897 1_555
Ge0 O0 1.830577 1_555
Ge1 O15 1.736954 1_555
Ge1 O17 1.765052 1_555
Ge1 O6 1.812322 1_556
Ge1 O1 1.830395 1_555
Ge2 O12 1.723298 1_555
Ge2 O18 1.747025 1_565
Ge2 O4 1.830732 1_565
Ge2 O2 1.856560 1_555
Ge3 O13 1.723621 1_555
Ge3 O19 1.746772 1_555
Ge3 O5 1.831388 1_555
Ge3 O3 1.857303 1_555
Ge4 O10 1.736880 1_555
Ge4 O20 1.765280 1_555
Ge4 O3 1.812339 1_555
Ge4 O4 1.830376 1_555
Ge5 O11 1.737159 1_555
Ge5 O21 1.765337 1_555
Ge5 O2 1.812957 1_554
Ge5 O5 1.830759 1_555
Ge6 O8 1.723597 1_555
Ge6 O22 1.746967 1_545
Ge6 O0 1.831361 1_545
Ge6 O6 1.857388 1_555
Ge7 O9 1.723065 1_555
Ge7 O23 1.747206 1_555
Ge7 O1 1.830591 1_555
Ge7 O7 1.856518 1_555
