# generated using pymatgen
data_K3TaS4
_symmetry_space_group_name_H-M   'P 1'
_cell_length_a   9.31281233
_cell_length_b   9.47018223
_cell_length_c   10.75642669
_cell_angle_alpha   90.00000000
_cell_angle_beta   90.00000000
_cell_angle_gamma   90.00000000
_symmetry_Int_Tables_number   1
_chemical_formula_structural   K3TaS4
_chemical_formula_sum   'K12 Ta4 S16'
_cell_volume   948.65261646
_cell_formula_units_Z   4
loop_
 _symmetry_equiv_pos_site_id
 _symmetry_equiv_pos_as_xyz
  1  'x, y, z'
loop_
 _atom_site_type_symbol
 _atom_site_label
 _atom_site_symmetry_multiplicity
 _atom_site_fract_x
 _atom_site_fract_y
 _atom_site_fract_z
 _atom_site_occupancy
  K  K0  1  0.55961569  0.28699590  0.04447328  1
  K  K1  1  0.13394656  0.42227355  0.75000000  1
  K  K2  1  0.86605344  0.57772645  0.25000000  1
  K  K3  1  0.36605344  0.92227355  0.25000000  1
  K  K4  1  0.44038431  0.71300410  0.95552672  1
  K  K5  1  0.94038431  0.78699590  0.54447328  1
  K  K6  1  0.05961569  0.21300410  0.04447328  1
  K  K7  1  0.55961569  0.28699590  0.45552672  1
  K  K8  1  0.44038431  0.71300410  0.54447328  1
  K  K9  1  0.05961569  0.21300410  0.45552672  1
  K  K10  1  0.94038431  0.78699590  0.95552672  1
  K  K11  1  0.63394656  0.07772645  0.75000000  1
  Ta  Ta0  1  0.71282337  0.51230889  0.75000000  1
  Ta  Ta1  1  0.21282337  0.98769111  0.75000000  1
  Ta  Ta2  1  0.78717663  0.01230889  0.25000000  1
  Ta  Ta3  1  0.28717663  0.48769111  0.25000000  1
  S  S0  1  0.16653746  0.55194649  0.07550576  1
  S  S1  1  0.66653746  0.94805351  0.42449424  1
  S  S2  1  0.33346254  0.05194649  0.92449424  1
  S  S3  1  0.83346254  0.44805351  0.57550576  1
  S  S4  1  0.83346254  0.44805351  0.92449424  1
  S  S5  1  0.33346254  0.05194649  0.57550576  1
  S  S6  1  0.66653746  0.94805351  0.07550576  1
  S  S7  1  0.16653746  0.55194649  0.42449424  1
  S  S8  1  0.68852296  0.75135840  0.75000000  1
  S  S9  1  0.18852296  0.74864160  0.75000000  1
  S  S10  1  0.81147704  0.25135840  0.25000000  1
  S  S11  1  0.31147704  0.24864160  0.25000000  1
  S  S12  1  0.49040376  0.41206622  0.75000000  1
  S  S13  1  0.50959624  0.58793378  0.25000000  1
  S  S14  1  0.00959624  0.91206622  0.25000000  1
  S  S15  1  0.99040376  0.08793378  0.75000000  1
loop_
_geom_bond_atom_site_label_1
_geom_bond_atom_site_label_2
_geom_bond_distance
_geom_bond_site_symmetry_2
K0 S11 3.218600 1_555
K0 S4 3.239727 1_554
K0 S10 3.240801 1_555
K0 S2 3.325080 1_554
K0 S6 3.377282 1_545
K0 S12 3.442569 1_554
K0 S13 3.636821 1_555
K1 S9 3.132276 1_555
K1 S12 3.321026 1_555
K1 S3 3.378351 1_455
K1 S4 3.378351 1_455
K1 S15 3.436887 1_455
K1 S0 3.722784 1_556
K1 S7 3.722784 1_555
K2 S10 3.132276 1_555
K2 S13 3.321026 1_555
K2 S0 3.378351 1_655
K2 S7 3.378351 1_655
K2 S14 3.436887 1_655
K2 S4 3.722784 1_554
K2 S3 3.722784 1_555
K3 S11 3.132276 1_565
K3 S14 3.321026 1_555
K3 S6 3.378351 1_555
K3 S1 3.378351 1_555
K3 S13 3.436887 1_555
K3 S2 3.722784 1_564
K3 S5 3.722784 1_565
K4 S8 3.218600 1_555
K4 S0 3.239727 1_556
K4 S9 3.240801 1_555
K4 S6 3.325080 1_556
K4 S2 3.377282 1_565
K4 S13 3.442569 1_556
K4 S12 3.636821 1_555
K5 S9 3.218600 1_655
K5 S1 3.239727 1_555
K5 S8 3.240801 1_555
K5 S7 3.325080 1_655
K5 S3 3.377282 1_555
K5 S14 3.442569 1_655
K5 S15 3.636821 1_565
K6 S10 3.218600 1_455
K6 S2 3.239727 1_554
K6 S11 3.240801 1_555
K6 S4 3.325080 1_454
K6 S0 3.377282 1_555
K6 S15 3.442569 1_454
K6 S14 3.636821 1_545
K7 S11 3.218600 1_555
K7 S3 3.239727 1_555
K7 S10 3.240801 1_555
K7 S5 3.325080 1_555
K7 S1 3.377282 1_545
K7 S12 3.442569 1_555
K7 S13 3.636821 1_555
K8 S8 3.218600 1_555
K8 S7 3.239727 1_555
K8 S9 3.240801 1_555
K8 S1 3.325080 1_555
K8 S5 3.377282 1_565
K8 S13 3.442569 1_555
K8 S12 3.636821 1_555
K9 S10 3.218600 1_455
K9 S5 3.239727 1_555
K9 S11 3.240801 1_555
K9 S3 3.325080 1_455
K9 S7 3.377282 1_555
K9 S15 3.442569 1_455
K9 S14 3.636821 1_545
K10 S9 3.218600 1_655
K10 S6 3.239727 1_556
K10 S8 3.240801 1_555
K10 S0 3.325080 1_656
K10 S4 3.377282 1_555
K10 S14 3.442569 1_656
K10 S15 3.636821 1_565
K11 S8 3.132276 1_545
K11 S15 3.321026 1_555
K11 S5 3.378351 1_555
K11 S2 3.378351 1_555
K11 S12 3.436887 1_555
K11 S6 3.722784 1_546
K11 S1 3.722784 1_545
S0 Ta3 2.270550 1_555
S1 Ta2 2.270550 1_565
S2 Ta1 2.270550 1_545
S3 Ta0 2.270550 1_555
S4 Ta0 2.270550 1_555
S5 Ta1 2.270550 1_545
S6 Ta2 2.270550 1_565
S7 Ta3 2.270550 1_555
S8 Ta0 2.275126 1_555
S9 Ta1 2.275126 1_555
S10 Ta2 2.275126 1_555
S11 Ta3 2.275126 1_555
S12 Ta0 2.278530 1_555
S13 Ta3 2.278530 1_555
S14 Ta2 2.278530 1_465
S15 Ta1 2.278530 1_645
