# generated using pymatgen
data_Nd3O2F5
_symmetry_space_group_name_H-M   'P 1'
_cell_length_a   3.73862000
_cell_length_b   5.26294908
_cell_length_c   16.72500338
_cell_angle_alpha   87.23181752
_cell_angle_beta   90.00000000
_cell_angle_gamma   90.00000000
_symmetry_Int_Tables_number   1
_chemical_formula_structural   Nd3O2F5
_chemical_formula_sum   'Nd6 O4 F10'
_cell_volume   328.69994947
_cell_formula_units_Z   2
loop_
 _symmetry_equiv_pos_site_id
 _symmetry_equiv_pos_as_xyz
  1  'x, y, z'
loop_
 _atom_site_type_symbol
 _atom_site_label
 _atom_site_symmetry_multiplicity
 _atom_site_fract_x
 _atom_site_fract_y
 _atom_site_fract_z
 _atom_site_occupancy
  Nd  Nd0  1  0.25000000  0.18603600  0.07011000  1
  Nd  Nd1  1  0.25000000  0.17600000  0.39824600  1
  Nd  Nd2  1  0.25000000  0.23338500  0.72373600  1
  Nd  Nd3  1  0.75000000  0.69802600  0.25122300  1
  Nd  Nd4  1  0.75000000  0.76328400  0.58153700  1
  Nd  Nd5  1  0.75000000  0.69358800  0.91579000  1
  O  O0  1  0.25000000  0.89544300  0.64688500  1
  O  O1  1  0.75000000  0.00240300  0.33807900  1
  O  O2  1  0.75000000  0.40537100  0.66655600  1
  O  O3  1  0.75000000  0.34757700  0.99086700  1
  F  F0  1  0.25000000  0.91171300  0.19106000  1
  F  F1  1  0.25000000  0.75686500  0.48427000  1
  F  F2  1  0.25000000  0.43913600  0.27143900  1
  F  F3  1  0.25000000  0.90701700  0.95735900  1
  F  F4  1  0.25000000  0.53516500  0.84190600  1
  F  F5  1  0.75000000  0.35630900  0.14931200  1
  F  F6  1  0.75000000  0.48926800  0.38038600  1
  F  F7  1  0.75000000  0.87669600  0.07289200  1
  F  F8  1  0.75000000  0.16764900  0.50207500  1
  F  F9  1  0.75000000  0.02506900  0.80494000  1
loop_
_geom_bond_atom_site_label_1
_geom_bond_atom_site_label_2
_geom_bond_distance
_geom_bond_site_symmetry_2
Nd0 O3 2.421739 1_454
Nd0 O3 2.421739 1_554
Nd1 O1 2.330338 1_455
Nd1 O1 2.330338 1_555
Nd2 O0 2.244150 1_545
Nd2 O2 2.268169 1_455
Nd2 O2 2.268169 1_555
Nd3 O1 2.213857 1_565
Nd4 O0 2.290428 1_655
Nd4 O0 2.290428 1_555
Nd4 O2 2.304658 1_555
Nd5 O3 2.161482 1_555
F0 Nd3 2.379556 1_555
F0 Nd3 2.379556 1_455
F0 Nd0 2.427837 1_565
F1 Nd4 2.479358 1_455
F1 Nd4 2.479358 1_555
F1 Nd1 2.574760 1_565
F2 Nd3 2.328222 1_555
F2 Nd3 2.328222 1_455
F2 Nd1 2.476321 1_555
F3 Nd5 2.305393 1_555
F3 Nd5 2.305393 1_455
F3 Nd0 2.445394 1_566
F4 Nd5 2.411637 1_555
F4 Nd5 2.411637 1_455
F4 Nd2 2.594586 1_555
F5 Nd0 2.483294 1_655
F5 Nd0 2.483294 1_555
F5 Nd3 2.536860 1_555
F6 Nd3 2.375824 1_555
F6 Nd1 2.500847 1_555
F6 Nd1 2.500847 1_655
F7 Nd0 2.477839 1_565
F7 Nd0 2.477839 1_665
F7 Nd5 2.842041 1_554
F7 Nd3 3.083690 1_555
F8 Nd4 2.453995 1_545
F8 Nd1 2.550383 1_655
F8 Nd1 2.550383 1_555
F9 Nd5 2.483606 1_545
F9 Nd2 2.529235 1_655
F9 Nd2 2.529235 1_555
