# generated using pymatgen
data_CsKMg6
_symmetry_space_group_name_H-M   'P 1'
_cell_length_a   5.46477200
_cell_length_b   7.83791300
_cell_length_c   12.35411000
_cell_angle_alpha   90.00000000
_cell_angle_beta   90.00000000
_cell_angle_gamma   90.00000000
_symmetry_Int_Tables_number   1
_chemical_formula_structural   CsKMg6
_chemical_formula_sum   'Cs2 K2 Mg12'
_cell_volume   529.15627383
_cell_formula_units_Z   2
loop_
 _symmetry_equiv_pos_site_id
 _symmetry_equiv_pos_as_xyz
  1  'x, y, z'
loop_
 _atom_site_type_symbol
 _atom_site_label
 _atom_site_symmetry_multiplicity
 _atom_site_fract_x
 _atom_site_fract_y
 _atom_site_fract_z
 _atom_site_occupancy
  Cs  Cs0  1  0.50000000  0.50000000  0.17254500  1
  Cs  Cs1  1  0.50000000  0.00000000  0.67254500  1
  K  K0  1  0.00000000  0.50000000  0.33657800  1
  K  K1  1  0.00000000  0.00000000  0.83657800  1
  Mg  Mg0  1  0.00000000  0.79748700  0.07924800  1
  Mg  Mg1  1  0.00000000  0.20251300  0.07924800  1
  Mg  Mg2  1  0.00000000  0.50000000  0.83140600  1
  Mg  Mg3  1  0.50000000  0.70181600  0.91845200  1
  Mg  Mg4  1  0.50000000  0.29818400  0.91845200  1
  Mg  Mg5  1  0.50000000  0.50000000  0.66407100  1
  Mg  Mg6  1  0.00000000  0.29748700  0.57924800  1
  Mg  Mg7  1  0.00000000  0.70251300  0.57924800  1
  Mg  Mg8  1  0.00000000  0.00000000  0.33140600  1
  Mg  Mg9  1  0.50000000  0.20181600  0.41845200  1
  Mg  Mg10  1  0.50000000  0.79818400  0.41845200  1
  Mg  Mg11  1  0.50000000  0.00000000  0.16407100  1
loop_
_geom_bond_atom_site_label_1
_geom_bond_atom_site_label_2
_geom_bond_distance
_geom_bond_site_symmetry_2
Cs0 K0 3.401847 1_655
Cs0 K0 3.401847 1_555
Cs0 Mg3 3.515117 1_554
Cs0 Mg4 3.515117 1_554
Cs0 Mg1 3.772419 1_655
Cs0 Mg0 3.772419 1_655
Cs0 Mg1 3.772419 1_555
Cs0 Mg0 3.772419 1_555
Cs0 Mg9 3.832941 1_555
Cs0 Mg10 3.832941 1_555
Cs0 Mg11 3.920355 1_555
Cs0 Mg11 3.920355 1_565
Cs1 K1 3.401847 1_555
Cs1 K1 3.401847 1_655
Cs1 Mg10 3.515117 1_545
Cs1 Mg9 3.515117 1_555
Cs1 Mg6 3.772419 1_555
Cs1 Mg6 3.772419 1_655
Cs1 Mg7 3.772419 1_545
Cs1 Mg7 3.772419 1_645
Cs1 Mg4 3.832941 1_555
Cs1 Mg3 3.832941 1_545
Cs1 Mg5 3.920355 1_555
Cs1 Mg5 3.920355 1_545
K0 Mg7 3.392240 1_555
K0 Mg6 3.392240 1_555
K0 Mg10 3.735137 1_455
K0 Mg10 3.735137 1_555
K0 Mg9 3.735137 1_455
K0 Mg9 3.735137 1_555
K0 Mg8 3.919477 1_565
K0 Mg8 3.919477 1_555
K0 Mg0 3.942498 1_555
K0 Mg1 3.942498 1_555
K1 Mg1 3.392240 1_556
K1 Mg0 3.392240 1_546
K1 Mg3 3.735137 1_545
K1 Mg4 3.735137 1_455
K1 Mg3 3.735137 1_445
K1 Mg4 3.735137 1_555
K1 Mg2 3.919477 1_555
K1 Mg2 3.919477 1_545
K1 Mg6 3.942498 1_555
K1 Mg7 3.942498 1_545
Mg0 Mg1 3.174559 1_565
Mg0 Mg11 3.329191 1_565
Mg0 Mg11 3.329191 1_465
Mg0 Mg3 3.460401 1_554
Mg0 Mg3 3.460401 1_454
Mg0 Mg8 3.496262 1_565
Mg1 Mg11 3.329191 1_555
Mg1 Mg11 3.329191 1_455
Mg1 Mg4 3.460401 1_554
Mg1 Mg4 3.460401 1_454
Mg1 Mg8 3.496262 1_555
Mg2 Mg4 3.335342 1_455
Mg2 Mg3 3.335342 1_455
Mg2 Mg3 3.335342 1_555
Mg2 Mg4 3.335342 1_555
Mg2 Mg5 3.426304 1_455
Mg2 Mg5 3.426304 1_555
Mg2 Mg7 3.496262 1_555
Mg2 Mg6 3.496262 1_555
Mg3 Mg4 3.163633 1_555
Mg3 Mg5 3.518295 1_555
Mg4 Mg5 3.518295 1_555
Mg5 Mg7 3.329191 1_555
Mg5 Mg7 3.329191 1_655
Mg5 Mg6 3.329191 1_555
Mg5 Mg6 3.329191 1_655
Mg6 Mg7 3.174559 1_555
Mg6 Mg9 3.460401 1_455
Mg6 Mg9 3.460401 1_555
Mg8 Mg9 3.335342 1_555
Mg8 Mg9 3.335342 1_455
Mg10 Mg9 3.163633 1_565
Mg10 Mg8 3.335342 1_565
Mg10 Mg8 3.335342 1_665
Mg10 Mg7 3.460401 1_555
Mg10 Mg7 3.460401 1_655
Mg10 Mg11 3.518295 1_565
Mg11 Mg8 3.426304 1_555
Mg11 Mg8 3.426304 1_655
Mg11 Mg9 3.518295 1_555
