# generated using pymatgen
data_Mg6Si5
_symmetry_space_group_name_H-M   'P 1'
_cell_length_a   4.17999400
_cell_length_b   7.11260300
_cell_length_c   14.02295619
_cell_angle_alpha   83.13444533
_cell_angle_beta   90.00000000
_cell_angle_gamma   90.00000000
_symmetry_Int_Tables_number   1
_chemical_formula_structural   Mg6Si5
_chemical_formula_sum   'Mg12 Si10'
_cell_volume   413.92192179
_cell_formula_units_Z   2
loop_
 _symmetry_equiv_pos_site_id
 _symmetry_equiv_pos_as_xyz
  1  'x, y, z'
loop_
 _atom_site_type_symbol
 _atom_site_label
 _atom_site_symmetry_multiplicity
 _atom_site_fract_x
 _atom_site_fract_y
 _atom_site_fract_z
 _atom_site_occupancy
  Mg  Mg0  1  0.50000000  0.38911400  0.06429000  1
  Mg  Mg1  1  0.50000000  0.78744300  0.43626700  1
  Mg  Mg2  1  0.00000000  0.26743400  0.73871300  1
  Mg  Mg3  1  0.50000000  0.96774100  0.21461500  1
  Mg  Mg4  1  0.50000000  0.46176400  0.28969700  1
  Mg  Mg5  1  0.50000000  0.56005300  0.82427500  1
  Mg  Mg6  1  0.00000000  0.00155900  0.56763700  1
  Mg  Mg7  1  0.00000000  0.46098600  0.48782100  1
  Mg  Mg8  1  0.00000000  0.64860100  0.13176700  1
  Mg  Mg9  1  0.50000000  0.14153500  0.89519400  1
  Mg  Mg10  1  0.00000000  0.81716500  0.88345100  1
  Mg  Mg11  1  0.00000000  0.05753600  0.05202900  1
  Si  Si0  1  0.50000000  0.17258000  0.43924500  1
  Si  Si1  1  0.50000000  0.24357900  0.60383700  1
  Si  Si2  1  0.00000000  0.38300900  0.92471800  1
  Si  Si3  1  0.00000000  0.26895600  0.19838200  1
  Si  Si4  1  0.00000000  0.73731900  0.32023300  1
  Si  Si5  1  0.50000000  0.57908700  0.61615000  1
  Si  Si6  1  0.00000000  0.70012000  0.69559300  1
  Si  Si7  1  0.00000000  0.07659300  0.35408200  1
  Si  Si8  1  0.50000000  0.81317700  0.02659200  1
  Si  Si9  1  0.50000000  0.96830800  0.73188200  1
loop_
_geom_bond_atom_site_label_1
_geom_bond_atom_site_label_2
_geom_bond_distance
_geom_bond_site_symmetry_2
Mg0 Si2 2.867224 1_654
Mg0 Si2 2.867224 1_554
Mg0 Si3 2.872292 1_655
Mg0 Si3 2.872292 1_555
Mg0 Si8 2.999277 1_555
Mg1 Si4 2.698418 1_655
Mg1 Si4 2.698418 1_555
Mg1 Si0 2.744632 1_565
Mg1 Si5 2.768649 1_555
Mg1 Si7 3.059292 1_565
Mg1 Si7 3.059292 1_665
Mg2 Si2 2.826979 1_555
Mg2 Si1 2.837401 1_455
Mg2 Si1 2.837401 1_555
Mg2 Si9 2.992076 1_445
Mg2 Si9 2.992076 1_545
Mg2 Si6 3.064617 1_555
Mg3 Si4 2.944035 1_655
Mg3 Si4 2.944035 1_555
Mg3 Si8 2.975472 1_555
Mg3 Si3 2.982161 1_565
Mg3 Si3 2.982161 1_665
Mg3 Si7 3.025629 1_565
Mg3 Si7 3.025629 1_665
Mg4 Si0 2.756307 1_555
Mg4 Si3 2.882406 1_555
Mg4 Si3 2.882406 1_655
Mg4 Si4 2.931442 1_655
Mg4 Si4 2.931442 1_555
Mg5 Si2 2.741100 1_655
Mg5 Si2 2.741100 1_555
Mg5 Si6 2.861296 1_555
Mg5 Si6 2.861296 1_655
Mg5 Si5 2.905455 1_555
Mg5 Si9 3.034959 1_555
Mg6 Si6 2.626145 1_545
Mg6 Si1 2.792469 1_555
Mg6 Si1 2.792469 1_455
Mg6 Si0 2.926721 1_555
Mg6 Si0 2.926721 1_455
Mg6 Si7 2.978386 1_555
Mg6 Si9 3.098148 1_445
Mg6 Si9 3.098148 1_545
Mg7 Si4 2.877769 1_555
Mg7 Si5 2.945078 1_555
Mg7 Si5 2.945078 1_455
Mg7 Si1 2.967243 1_555
Mg7 Si1 2.967243 1_455
Mg7 Si0 3.061710 1_555
Mg7 Si0 3.061710 1_455
Mg8 Si8 2.738755 1_455
Mg8 Si8 2.738755 1_555
Mg8 Si3 2.749724 1_555
Mg8 Si4 2.789543 1_555
Mg9 Si9 2.727140 1_545
Mg9 Si2 2.767550 1_555
Mg9 Si2 2.767550 1_655
Mg9 Si8 2.796562 1_546
Mg10 Si6 2.856051 1_555
Mg10 Si8 2.895578 1_456
Mg10 Si8 2.895578 1_556
Mg10 Si2 3.072989 1_555
Mg10 Si9 3.081396 1_455
Mg10 Si9 3.081396 1_555
Mg11 Si3 2.685336 1_555
Mg11 Si2 2.749213 1_554
Mg11 Si8 2.768445 1_545
Mg11 Si8 2.768445 1_445
Si0 Si1 2.420918 1_555
Si0 Si7 2.540732 1_655
Si0 Si7 2.540732 1_555
Si1 Si5 2.413072 1_555
Si1 Si9 2.493376 1_545
Si3 Si7 2.434111 1_555
Si4 Si7 2.514420 1_565
Si5 Si6 2.565054 1_555
Si5 Si6 2.565054 1_655
