# generated using pymatgen
data_KEr(SeO4)2
_symmetry_space_group_name_H-M   'P 1'
_cell_length_a   5.69218400
_cell_length_b   9.06367300
_cell_length_c   27.75380600
_cell_angle_alpha   90.00000000
_cell_angle_beta   90.00000000
_cell_angle_gamma   90.00000000
_symmetry_Int_Tables_number   1
_chemical_formula_structural   KEr(SeO4)2
_chemical_formula_sum   'K8 Er8 Se16 O64'
_cell_volume   1431.87697999
_cell_formula_units_Z   8
loop_
 _symmetry_equiv_pos_site_id
 _symmetry_equiv_pos_as_xyz
  1  'x, y, z'
loop_
 _atom_site_type_symbol
 _atom_site_label
 _atom_site_symmetry_multiplicity
 _atom_site_fract_x
 _atom_site_fract_y
 _atom_site_fract_z
 _atom_site_occupancy
  K  K0  1  0.75517800  0.33985800  0.08135800  1
  K  K1  1  0.24482200  0.83985800  0.91864200  1
  K  K2  1  0.74482200  0.33985800  0.58135800  1
  K  K3  1  0.25517800  0.83985800  0.41864200  1
  K  K4  1  0.28690600  0.00100800  0.16762700  1
  K  K5  1  0.71309400  0.50100800  0.83237300  1
  K  K6  1  0.21309400  0.00100800  0.66762700  1
  K  K7  1  0.78690600  0.50100800  0.33237300  1
  Er  Er0  1  0.27606200  0.36819300  0.44721600  1
  Er  Er1  1  0.72393800  0.86819300  0.55278400  1
  Er  Er2  1  0.22393800  0.36819300  0.94721600  1
  Er  Er3  1  0.77606200  0.86819300  0.05278400  1
  Er  Er4  1  0.32324300  0.46321100  0.19896900  1
  Er  Er5  1  0.67675700  0.96321100  0.80103100  1
  Er  Er6  1  0.17675700  0.46321100  0.69896900  1
  Er  Er7  1  0.82324300  0.96321100  0.30103100  1
  Se  Se0  1  0.79071200  0.26438300  0.20747200  1
  Se  Se1  1  0.20928800  0.76438300  0.79252800  1
  Se  Se2  1  0.70928800  0.26438300  0.70747200  1
  Se  Se3  1  0.29071200  0.76438300  0.29252800  1
  Se  Se4  1  0.26559100  0.59779600  0.06658000  1
  Se  Se5  1  0.73440900  0.09779600  0.93342000  1
  Se  Se6  1  0.23440900  0.59779600  0.56658000  1
  Se  Se7  1  0.76559100  0.09779600  0.43342000  1
  Se  Se8  1  0.30959700  0.22946800  0.31721500  1
  Se  Se9  1  0.69040300  0.72946800  0.68278500  1
  Se  Se10  1  0.19040300  0.22946800  0.81721500  1
  Se  Se11  1  0.80959700  0.72946800  0.18278500  1
  Se  Se12  1  0.23661200  0.06947000  0.04396100  1
  Se  Se13  1  0.76338800  0.56947000  0.95603900  1
  Se  Se14  1  0.26338800  0.06947000  0.54396100  1
  Se  Se15  1  0.73661200  0.56947000  0.45603900  1
  O  O0  1  0.57837900  0.15574300  0.31758900  1
  O  O1  1  0.42162100  0.65574300  0.68241100  1
  O  O2  1  0.92162100  0.15574300  0.81758900  1
  O  O3  1  0.07837900  0.65574300  0.18241100  1
  O  O4  1  0.45985400  0.73213600  0.07647000  1
  O  O5  1  0.54014600  0.23213600  0.92353000  1
  O  O6  1  0.04014600  0.73213600  0.57647000  1
  O  O7  1  0.95985400  0.23213600  0.42353000  1
  O  O8  1  0.30937800  0.53386900  0.01083300  1
  O  O9  1  0.69062200  0.03386900  0.98916700  1
  O  O10  1  0.19062200  0.53386900  0.51083300  1
  O  O11  1  0.80937800  0.03386900  0.48916700  1
  O  O12  1  0.11286500  0.10023400  0.33115800  1
  O  O13  1  0.88713500  0.60023400  0.66884200  1
  O  O14  1  0.38713500  0.10023400  0.83115800  1
  O  O15  1  0.61286500  0.60023400  0.16884200  1
  O  O16  1  0.72892300  0.40060700  0.24544300  1
  O  O17  1  0.27107700  0.90060700  0.75455700  1
  O  O18  1  0.77107700  0.40060700  0.74544300  1
  O  O19  1  0.22892300  0.90060700  0.25455700  1
  O  O20  1  0.25249900  0.23242300  0.01676000  1
  O  O21  1  0.74750100  0.73242300  0.98324000  1
  O  O22  1  0.24750100  0.23242300  0.51676000  1
  O  O23  1  0.75249900  0.73242300  0.48324000  1
  O  O24  1  0.33018200  0.59622400  0.26976100  1
  O  O25  1  0.66981800  0.09622400  0.73023900  1
  O  O26  1  0.16981800  0.59622400  0.76976100  1
  O  O27  1  0.83018200  0.09622400  0.23023900  1
  O  O28  1  0.24620800  0.29529900  0.26245800  1
  O  O29  1  0.75379200  0.79529900  0.73754200  1
  O  O30  1  0.25379200  0.29529900  0.76245800  1
  O  O31  1  0.74620800  0.79529900  0.23754200  1
  O  O32  1  0.29649500  0.46213800  0.10681500  1
  O  O33  1  0.70350500  0.96213800  0.89318500  1
  O  O34  1  0.20350500  0.46213800  0.60681500  1
  O  O35  1  0.79649500  0.96213800  0.39318500  1
  O  O36  1  0.29615000  0.36423300  0.35812000  1
  O  O37  1  0.70385000  0.86423300  0.64188000  1
  O  O38  1  0.20385000  0.36423300  0.85812000  1
  O  O39  1  0.79615000  0.86423300  0.14188000  1
  O  O40  1  0.55300500  0.26118000  0.17094100  1
  O  O41  1  0.44699500  0.76118000  0.82905900  1
  O  O42  1  0.94699500  0.26118000  0.67094100  1
  O  O43  1  0.05300500  0.76118000  0.32905900  1
  O  O44  1  0.48389000  0.04600600  0.07606600  1
  O  O45  1  0.51611000  0.54600600  0.92393400  1
  O  O46  1  0.01611000  0.04600600  0.57606600  1
  O  O47  1  0.98389000  0.54600600  0.42393400  1
  O  O48  1  0.49259800  0.16490500  0.42803800  1
  O  O49  1  0.50740200  0.66490500  0.57196200  1
  O  O50  1  0.00740200  0.16490500  0.92803800  1
  O  O51  1  0.99259800  0.66490500  0.07196200  1
  O  O52  1  0.00818400  0.07009700  0.08290300  1
  O  O53  1  0.99181600  0.57009700  0.91709700  1
  O  O54  1  0.49181600  0.07009700  0.58290300  1
  O  O55  1  0.50818400  0.57009700  0.41709700  1
  O  O56  1  0.66765100  0.42375800  0.49021700  1
  O  O57  1  0.33234900  0.92375800  0.50978300  1
  O  O58  1  0.83234900  0.42375800  0.99021700  1
  O  O59  1  0.16765100  0.92375800  0.00978300  1
  O  O60  1  0.02446200  0.30646000  0.17318800  1
  O  O61  1  0.97553800  0.80646000  0.82681200  1
  O  O62  1  0.47553800  0.30646000  0.67318800  1
  O  O63  1  0.52446200  0.80646000  0.32681200  1
loop_
_geom_bond_atom_site_label_1
_geom_bond_atom_site_label_2
_geom_bond_distance
_geom_bond_site_symmetry_2
K0 O58 2.677620 1_554
K0 O40 2.830975 1_555
K0 O52 2.837964 1_655
K0 O32 2.923075 1_555
K0 O60 2.989427 1_655
K0 O44 3.082171 1_555
K0 O51 3.251770 1_555
K0 O32 3.349893 1_655
K1 O59 2.677620 1_556
K1 O41 2.830975 1_555
K1 O53 2.837964 1_455
K1 O33 2.923075 1_555
K1 O61 2.989427 1_455
K1 O45 3.082171 1_555
K1 O50 3.251770 1_565
K1 O33 3.349893 1_455
K2 O56 2.677620 1_555
K2 O42 2.830975 1_555
K2 O54 2.837964 1_555
K2 O34 2.923075 1_655
K2 O62 2.989427 1_555
K2 O46 3.082171 1_655
K2 O49 3.251770 1_555
K2 O34 3.349893 1_555
K3 O57 2.677620 1_555
K3 O43 2.830975 1_555
K3 O55 2.837964 1_555
K3 O35 2.923075 1_455
K3 O63 2.989427 1_555
K3 O47 3.082171 1_455
K3 O48 3.251770 1_565
K3 O35 3.349893 1_555
K4 O19 2.599588 1_545
K4 O40 2.804181 1_555
K4 O44 2.807331 1_555
K4 O52 2.904887 1_555
K4 O39 3.138619 1_445
K4 O60 3.149632 1_555
K4 O39 3.232640 1_545
K4 O27 3.243947 1_455
K4 O3 3.371975 1_545
K5 O18 2.599588 1_555
K5 O41 2.804181 1_555
K5 O45 2.807331 1_555
K5 O53 2.904887 1_555
K5 O38 3.138619 1_655
K5 O61 3.149632 1_555
K5 O38 3.232640 1_555
K5 O26 3.243947 1_655
K5 O2 3.371975 1_555
K6 O17 2.599588 1_545
K6 O42 2.804181 1_455
K6 O46 2.807331 1_555
K6 O54 2.904887 1_555
K6 O37 3.138619 1_545
K6 O62 3.149632 1_555
K6 O37 3.232640 1_445
K6 O25 3.243947 1_555
K6 O1 3.371975 1_545
K7 O16 2.599588 1_555
K7 O43 2.804181 1_655
K7 O47 2.807331 1_555
K7 O55 2.904887 1_555
K7 O36 3.138619 1_555
K7 O63 3.149632 1_555
K7 O36 3.232640 1_655
K7 O24 3.243947 1_555
K7 O0 3.371975 1_555
Er0 O7 2.278719 1_455
Er0 O48 2.279792 1_555
Er0 O22 2.294792 1_555
Er0 O10 2.368295 1_555
Er0 O47 2.404329 1_455
Er0 O55 2.406951 1_555
Er0 O36 2.475656 1_555
Er0 O56 2.578054 1_555
Er1 O6 2.278719 1_655
Er1 O49 2.279792 1_555
Er1 O23 2.294792 1_555
Er1 O11 2.368295 1_565
Er1 O46 2.404329 1_665
Er1 O54 2.406951 1_565
Er1 O37 2.475656 1_555
Er1 O57 2.578054 1_555
Er2 O5 2.278719 1_555
Er2 O50 2.279792 1_555
Er2 O20 2.294792 1_556
Er2 O8 2.368295 1_556
Er2 O45 2.404329 1_555
Er2 O53 2.406951 1_455
Er2 O38 2.475656 1_555
Er2 O58 2.578054 1_455
Er3 O4 2.278719 1_555
Er3 O51 2.279792 1_555
Er3 O21 2.294792 1_554
Er3 O9 2.368295 1_564
Er3 O44 2.404329 1_565
Er3 O52 2.406951 1_665
Er3 O39 2.475656 1_555
Er3 O59 2.578054 1_655
Er4 O15 2.226959 1_555
Er4 O3 2.280150 1_555
Er4 O24 2.305478 1_555
Er4 O60 2.328714 1_555
Er4 O28 2.369244 1_555
Er4 O40 2.380893 1_555
Er4 O32 2.562171 1_555
Er4 O16 2.705191 1_555
Er5 O14 2.226959 1_565
Er5 O2 2.280150 1_565
Er5 O25 2.305478 1_565
Er5 O61 2.328714 1_555
Er5 O29 2.369244 1_555
Er5 O41 2.380893 1_555
Er5 O33 2.562171 1_555
Er5 O17 2.705191 1_555
Er6 O13 2.226959 1_455
Er6 O1 2.280150 1_555
Er6 O26 2.305478 1_555
Er6 O62 2.328714 1_555
Er6 O30 2.369244 1_555
Er6 O42 2.380893 1_455
Er6 O34 2.562171 1_555
Er6 O18 2.705191 1_455
Er7 O12 2.226959 1_665
Er7 O0 2.280150 1_565
Er7 O27 2.305478 1_565
Er7 O63 2.328714 1_555
Er7 O31 2.369244 1_555
Er7 O43 2.380893 1_655
Er7 O35 2.562171 1_555
Er7 O19 2.705191 1_655
O0 Se8 1.669548 1_555
O1 Se9 1.669548 1_555
O2 Se10 1.669548 1_655
O3 Se11 1.669548 1_455
O4 Se4 1.667536 1_555
O5 Se5 1.667536 1_555
O6 Se6 1.667536 1_555
O7 Se7 1.667536 1_555
O8 Se4 1.670821 1_555
O9 Se5 1.670821 1_555
O10 Se6 1.670821 1_555
O11 Se7 1.670821 1_555
O12 Se8 1.666074 1_555
O13 Se9 1.666074 1_555
O14 Se10 1.666074 1_555
O15 Se11 1.666074 1_555
O16 Se0 1.660946 1_555
O17 Se1 1.660946 1_555
O18 Se2 1.660946 1_555
O19 Se3 1.660946 1_555
O20 Se12 1.661171 1_555
O21 Se13 1.661171 1_555
O22 Se14 1.661171 1_555
O23 Se15 1.661171 1_555
O24 Se3 1.665153 1_555
O25 Se2 1.665153 1_555
O26 Se1 1.665153 1_555
O27 Se0 1.665153 1_555
O28 Se8 1.672047 1_555
O29 Se9 1.672047 1_555
O30 Se10 1.672047 1_555
O31 Se11 1.672047 1_555
O32 Se4 1.670247 1_555
O33 Se5 1.670247 1_565
O34 Se6 1.670247 1_555
O35 Se7 1.670247 1_565
O36 Se8 1.669334 1_555
O37 Se9 1.669334 1_555
O38 Se10 1.669334 1_555
O39 Se11 1.669334 1_555
O40 Se0 1.691032 1_555
O41 Se1 1.691032 1_555
O42 Se2 1.691032 1_555
O43 Se3 1.691032 1_555
O44 Se12 1.679397 1_555
O45 Se13 1.679397 1_555
O46 Se14 1.679397 1_555
O47 Se15 1.679397 1_555
O48 Se7 1.675402 1_555
O49 Se6 1.675402 1_555
O50 Se5 1.675402 1_455
O51 Se4 1.675402 1_655
O52 Se12 1.690798 1_555
O53 Se13 1.690798 1_555
O54 Se14 1.690798 1_555
O55 Se15 1.690798 1_555
O56 Se15 1.672747 1_555
O57 Se14 1.672747 1_565
O58 Se13 1.672747 1_555
O59 Se12 1.672747 1_565
O60 Se0 1.679636 1_455
O61 Se1 1.679636 1_655
O62 Se2 1.679636 1_555
O63 Se3 1.679636 1_555
