# generated using pymatgen
data_Y4(Mo2O7)3
_symmetry_space_group_name_H-M   'P 1'
_cell_length_a   7.37747506
_cell_length_b   7.37747506
_cell_length_c   18.16397809
_cell_angle_alpha   89.91590310
_cell_angle_beta   89.91590310
_cell_angle_gamma   60.02651887
_symmetry_Int_Tables_number   1
_chemical_formula_structural   Y4(Mo2O7)3
_chemical_formula_sum   'Y8 Mo12 O42'
_cell_volume   856.39173793
_cell_formula_units_Z   2
loop_
 _symmetry_equiv_pos_site_id
 _symmetry_equiv_pos_as_xyz
  1  'x, y, z'
loop_
 _atom_site_type_symbol
 _atom_site_label
 _atom_site_symmetry_multiplicity
 _atom_site_fract_x
 _atom_site_fract_y
 _atom_site_fract_z
 _atom_site_occupancy
  Y  Y0  1  0.00000000  0.50000000  0.50000000  1
  Y  Y1  1  0.66176600  0.16711900  0.17627500  1
  Y  Y2  1  0.33823400  0.83288100  0.82372500  1
  Y  Y3  1  0.00000000  0.00000000  0.50000000  1
  Y  Y4  1  0.50000000  0.00000000  0.50000000  1
  Y  Y5  1  0.16711900  0.66176600  0.17627500  1
  Y  Y6  1  0.83288100  0.33823400  0.82372500  1
  Y  Y7  1  0.50000000  0.50000000  0.00000000  1
  Mo  Mo0  1  0.66665600  0.16415600  0.66650600  1
  Mo  Mo1  1  0.33334400  0.83584400  0.33349400  1
  Mo  Mo2  1  0.00000000  0.50000000  0.00000000  1
  Mo  Mo3  1  0.66745600  0.66745600  0.66497700  1
  Mo  Mo4  1  0.33254400  0.33254400  0.33502300  1
  Mo  Mo5  1  0.00000000  0.00000000  0.00000000  1
  Mo  Mo6  1  0.16415700  0.66665600  0.66650600  1
  Mo  Mo7  1  0.83584300  0.33334400  0.33349400  1
  Mo  Mo8  1  0.50000000  0.00000000  0.00000000  1
  Mo  Mo9  1  0.50000000  0.50000000  0.50000000  1
  Mo  Mo10  1  0.16744000  0.16744000  0.16545300  1
  Mo  Mo11  1  0.83256000  0.83256000  0.83454700  1
  O  O0  1  0.83342700  0.83342700  0.47271300  1
  O  O1  1  0.47595300  0.47595300  0.11912300  1
  O  O2  1  0.15010700  0.15010700  0.80770300  1
  O  O3  1  0.16657300  0.16657300  0.52728700  1
  O  O4  1  0.84989300  0.84989300  0.19229700  1
  O  O5  1  0.52404700  0.52404700  0.88087700  1
  O  O6  1  0.04339300  0.04339300  0.36364300  1
  O  O7  1  0.70072800  0.70072800  0.02054500  1
  O  O8  1  0.38071000  0.38071000  0.67774500  1
  O  O9  1  0.36539300  0.36539300  0.44434700  1
  O  O10  1  0.03719500  0.03719500  0.10316300  1
  O  O11  1  0.70126700  0.70126700  0.77262100  1
  O  O12  1  0.63658400  0.22869800  0.55433900  1
  O  O13  1  0.27397200  0.91200100  0.22894500  1
  O  O14  1  0.94894200  0.57959700  0.89372500  1
  O  O15  1  0.42223100  0.04173100  0.36410400  1
  O  O16  1  0.10532800  0.69619300  0.02378500  1
  O  O17  1  0.75269200  0.37556300  0.69335300  1
  O  O18  1  0.22869800  0.63658400  0.55433900  1
  O  O19  1  0.91200100  0.27397200  0.22894500  1
  O  O20  1  0.57959700  0.94894200  0.89372500  1
  O  O21  1  0.04173100  0.42223100  0.36410400  1
  O  O22  1  0.69619300  0.10532800  0.02378500  1
  O  O23  1  0.37556300  0.75269200  0.69335300  1
  O  O24  1  0.63460700  0.63460700  0.55565300  1
  O  O25  1  0.29873300  0.29873300  0.22737900  1
  O  O26  1  0.96280500  0.96280500  0.89683700  1
  O  O27  1  0.77130200  0.36341600  0.44566100  1
  O  O28  1  0.42040300  0.05105800  0.10627500  1
  O  O29  1  0.08799900  0.72602800  0.77105500  1
  O  O30  1  0.57776900  0.95826900  0.63589600  1
  O  O31  1  0.24730800  0.62443700  0.30664700  1
  O  O32  1  0.89467200  0.30380700  0.97621500  1
  O  O33  1  0.36341600  0.77130200  0.44566100  1
  O  O34  1  0.05105800  0.42040300  0.10627500  1
  O  O35  1  0.72602800  0.08799900  0.77105500  1
  O  O36  1  0.95826900  0.57776900  0.63589600  1
  O  O37  1  0.62443700  0.24730800  0.30664700  1
  O  O38  1  0.30380700  0.89467200  0.97621500  1
  O  O39  1  0.95660700  0.95660700  0.63635700  1
  O  O40  1  0.61929000  0.61929000  0.32225500  1
  O  O41  1  0.29927200  0.29927200  0.97945500  1
loop_
_geom_bond_atom_site_label_1
_geom_bond_atom_site_label_2
_geom_bond_distance
_geom_bond_site_symmetry_2
Mo0 O8 1.917402 1_555
Mo0 O35 1.966529 1_555
Mo0 O39 1.986575 1_545
Mo0 O30 2.011243 1_545
Mo0 O17 2.016306 1_555
Mo0 O12 2.078429 1_555
Mo1 O40 1.917402 1_555
Mo1 O13 1.966529 1_555
Mo1 O6 1.986575 1_565
Mo1 O15 2.011243 1_565
Mo1 O31 2.016306 1_555
Mo1 O33 2.078429 1_555
Mo2 O7 1.984738 1_455
Mo2 O41 1.984738 1_554
Mo2 O14 1.997715 1_454
Mo2 O34 1.997715 1_555
Mo2 O16 2.003021 1_555
Mo2 O32 2.003021 1_454
Mo3 O36 1.974615 1_555
Mo3 O30 1.974615 1_555
Mo3 O17 1.985699 1_555
Mo3 O23 1.985699 1_555
Mo3 O11 2.003110 1_555
Mo3 O24 2.030322 1_555
Mo4 O15 1.974615 1_555
Mo4 O21 1.974615 1_555
Mo4 O37 1.985699 1_555
Mo4 O31 1.985699 1_555
Mo4 O25 2.003110 1_555
Mo4 O9 2.030322 1_555
Mo5 O10 1.933952 1_555
Mo5 O26 1.933952 1_444
Mo5 O22 2.017900 1_455
Mo5 O16 2.017900 1_545
Mo5 O38 2.017900 1_544
Mo5 O32 2.017900 1_454
Mo6 O8 1.917400 1_555
Mo6 O29 1.966531 1_555
Mo6 O39 1.986577 1_455
Mo6 O36 2.011250 1_455
Mo6 O23 2.016299 1_555
Mo6 O18 2.078427 1_555
Mo7 O40 1.917400 1_555
Mo7 O19 1.966531 1_555
Mo7 O6 1.986577 1_655
Mo7 O21 2.011250 1_655
Mo7 O37 2.016299 1_555
Mo7 O27 2.078427 1_555
Mo8 O7 1.984738 1_545
Mo8 O41 1.984738 1_554
Mo8 O20 1.997715 1_544
Mo8 O28 1.997715 1_555
Mo8 O22 2.003021 1_555
Mo8 O38 2.003021 1_544
Mo9 O27 1.994380 1_555
Mo9 O33 1.994380 1_555
Mo9 O12 1.994380 1_555
Mo9 O18 1.994380 1_555
Mo9 O24 1.996368 1_555
Mo9 O9 1.996368 1_555
Mo10 O28 1.941955 1_555
Mo10 O34 1.941955 1_555
Mo10 O13 2.003851 1_545
Mo10 O19 2.003851 1_455
Mo10 O10 2.013865 1_555
Mo10 O25 2.021260 1_555
Mo11 O20 1.941955 1_555
Mo11 O14 1.941955 1_555
Mo11 O35 2.003851 1_565
Mo11 O29 2.003851 1_655
Mo11 O26 2.013865 1_555
Mo11 O11 2.021260 1_555
O0 Y3 2.185983 1_665
O0 Y4 2.187336 1_565
O0 Y0 2.187336 1_655
O1 Y7 2.184936 1_555
O1 Y1 2.241526 1_555
O1 Y5 2.241526 1_555
O2 Y6 2.059549 1_455
O2 Y2 2.059549 1_545
O3 Y3 2.185983 1_555
O3 Y0 2.187336 1_555
O3 Y4 2.187336 1_555
O4 Y5 2.059549 1_655
O4 Y1 2.059549 1_565
O5 Y7 2.184936 1_556
O5 Y6 2.241526 1_555
O5 Y2 2.241526 1_555
O6 Y3 2.537160 1_555
O7 Y7 2.592227 1_555
O9 Y0 2.568044 1_555
O9 Y4 2.568044 1_555
O10 Y5 2.773795 1_545
O10 Y1 2.773795 1_455
O11 Y2 2.524769 1_555
O11 Y6 2.524769 1_555
O12 Y3 2.546824 1_655
O12 Y4 2.557888 1_555
O13 Y5 2.531069 1_555
O14 Y6 2.655897 1_555
O15 Y4 2.518422 1_555
O16 Y7 2.558645 1_555
O16 Y5 2.798250 1_555
O17 Y6 2.423429 1_555
O18 Y3 2.546824 1_565
O18 Y0 2.557888 1_555
O19 Y1 2.531069 1_555
O20 Y2 2.655897 1_555
O21 Y0 2.518422 1_555
O22 Y7 2.558645 1_555
O22 Y1 2.798250 1_555
O23 Y2 2.423429 1_555
O24 Y0 2.568044 1_655
O24 Y4 2.568044 1_565
O25 Y1 2.524769 1_555
O25 Y5 2.524769 1_555
O26 Y6 2.773795 1_565
O26 Y2 2.773795 1_655
O27 Y3 2.546824 1_655
O27 Y0 2.557888 1_655
O28 Y1 2.655897 1_555
O29 Y2 2.531069 1_555
O30 Y4 2.518422 1_565
O31 Y5 2.423429 1_555
O32 Y7 2.558645 1_556
O32 Y6 2.798250 1_555
O33 Y3 2.546824 1_565
O33 Y4 2.557888 1_565
O34 Y5 2.655897 1_555
O35 Y6 2.531069 1_555
O36 Y0 2.518422 1_655
O37 Y1 2.423429 1_555
O38 Y7 2.558645 1_556
O38 Y2 2.798250 1_555
O39 Y3 2.537160 1_665
O41 Y7 2.592227 1_556
