# generated using pymatgen
data_SrC2(SN)2
_symmetry_space_group_name_H-M   'P 1'
_cell_length_a   6.12468575
_cell_length_b   6.12468575
_cell_length_c   8.23792559
_cell_angle_alpha   89.10308421
_cell_angle_beta   89.10308421
_cell_angle_gamma   65.28795150
_symmetry_Int_Tables_number   1
_chemical_formula_structural   SrC2(SN)2
_chemical_formula_sum   'Sr2 C4 S4 N4'
_cell_volume   280.67081302
_cell_formula_units_Z   2
loop_
 _symmetry_equiv_pos_site_id
 _symmetry_equiv_pos_as_xyz
  1  'x, y, z'
loop_
 _atom_site_type_symbol
 _atom_site_label
 _atom_site_symmetry_multiplicity
 _atom_site_fract_x
 _atom_site_fract_y
 _atom_site_fract_z
 _atom_site_occupancy
  Sr  Sr0  1  0.90597200  0.09402800  0.75000000  1
  Sr  Sr1  1  0.09402800  0.90597200  0.25000000  1
  C  C0  1  0.52099400  0.24052300  0.10363500  1
  C  C1  1  0.24052300  0.52099400  0.60363500  1
  C  C2  1  0.47900600  0.75947700  0.89636500  1
  C  C3  1  0.75947700  0.47900600  0.39636500  1
  S  S0  1  0.75223600  0.64938900  0.82564600  1
  S  S1  1  0.35061100  0.24776400  0.67435400  1
  S  S2  1  0.24776400  0.35061100  0.17435400  1
  S  S3  1  0.64938900  0.75223600  0.32564600  1
  N  N0  1  0.72249500  0.15615900  0.05317000  1
  N  N1  1  0.15615900  0.72249500  0.55317000  1
  N  N2  1  0.84384100  0.27750500  0.44683000  1
  N  N3  1  0.27750500  0.84384100  0.94683000  1
loop_
_geom_bond_atom_site_label_1
_geom_bond_atom_site_label_2
_geom_bond_distance
_geom_bond_site_symmetry_2
C0 N0 1.191796 1_555
C0 S2 1.622592 1_555
C1 N1 1.191796 1_555
C1 S1 1.622592 1_555
C2 N3 1.191796 1_555
C2 S0 1.622592 1_555
C3 N2 1.191796 1_555
C3 S3 1.622592 1_555
S0 Sr0 3.196039 1_555
S0 Sr0 3.280793 1_565
S1 Sr0 3.196039 1_555
S1 Sr0 3.280793 1_455
S2 Sr1 3.196039 1_555
S2 Sr1 3.280793 1_545
S3 Sr1 3.196039 1_555
S3 Sr1 3.280793 1_655
N0 Sr0 2.688756 1_554
N0 Sr1 2.697685 1_645
N1 Sr1 2.688756 1_555
N1 Sr0 2.697685 1_465
N2 Sr0 2.688756 1_555
N2 Sr1 2.697685 1_645
N3 Sr1 2.688756 1_556
N3 Sr0 2.697685 1_465
