# generated using pymatgen
data_Ba2Ho2Co4O11
_symmetry_space_group_name_H-M   'P 1'
_cell_length_a   7.63265200
_cell_length_b   7.84448600
_cell_length_c   7.84478300
_cell_angle_alpha   90.00000000
_cell_angle_beta   90.00000000
_cell_angle_gamma   90.00000000
_symmetry_Int_Tables_number   1
_chemical_formula_structural   Ba2Ho2Co4O11
_chemical_formula_sum   'Ba4 Ho4 Co8 O22'
_cell_volume   469.70035542
_cell_formula_units_Z   2
loop_
 _symmetry_equiv_pos_site_id
 _symmetry_equiv_pos_as_xyz
  1  'x, y, z'
loop_
 _atom_site_type_symbol
 _atom_site_label
 _atom_site_symmetry_multiplicity
 _atom_site_fract_x
 _atom_site_fract_y
 _atom_site_fract_z
 _atom_site_occupancy
  Ba  Ba0  1  0.00000000  0.76124600  0.00000000  1
  Ba  Ba1  1  0.00000000  0.23875400  0.00000000  1
  Ba  Ba2  1  0.00000000  0.23875400  0.50000000  1
  Ba  Ba3  1  0.00000000  0.76124600  0.50000000  1
  Ho  Ho0  1  0.50000000  0.73145800  0.50000000  1
  Ho  Ho1  1  0.50000000  0.26854200  0.00000000  1
  Ho  Ho2  1  0.50000000  0.26854200  0.50000000  1
  Ho  Ho3  1  0.50000000  0.73145800  0.00000000  1
  Co  Co0  1  0.74699700  0.50000000  0.75000000  1
  Co  Co1  1  0.25300300  0.50000000  0.25000000  1
  Co  Co2  1  0.25385200  0.50000000  0.75000000  1
  Co  Co3  1  0.74614800  0.50000000  0.25000000  1
  Co  Co4  1  0.70970000  0.00000000  0.75000000  1
  Co  Co5  1  0.72965800  0.00000000  0.25000000  1
  Co  Co6  1  0.27034200  0.00000000  0.75000000  1
  Co  Co7  1  0.29030000  0.00000000  0.25000000  1
  O  O0  1  0.70180400  0.76745300  0.75000000  1
  O  O1  1  0.70180400  0.23254700  0.75000000  1
  O  O2  1  0.29819600  0.23254700  0.25000000  1
  O  O3  1  0.29819600  0.76745300  0.25000000  1
  O  O4  1  0.31001200  0.76762100  0.75000000  1
  O  O5  1  0.31001200  0.23237900  0.75000000  1
  O  O6  1  0.68998800  0.23237900  0.25000000  1
  O  O7  1  0.68998800  0.76762100  0.25000000  1
  O  O8  1  0.28073000  0.50000000  0.99867600  1
  O  O9  1  0.28073000  0.50000000  0.50132400  1
  O  O10  1  0.71927000  0.50000000  0.49867600  1
  O  O11  1  0.71927000  0.50000000  0.00132400  1
  O  O12  1  0.31956800  0.00000000  0.00501300  1
  O  O13  1  0.31956800  0.00000000  0.49498700  1
  O  O14  1  0.68043200  0.00000000  0.50501300  1
  O  O15  1  0.68043200  0.00000000  0.99498700  1
  O  O16  1  0.98087200  0.00000000  0.25000000  1
  O  O17  1  0.01912800  0.00000000  0.75000000  1
  O  O18  1  0.01196500  0.50000000  0.25000000  1
  O  O19  1  0.50716800  0.50000000  0.75000000  1
  O  O20  1  0.49283200  0.50000000  0.25000000  1
  O  O21  1  0.98803500  0.50000000  0.75000000  1
loop_
_geom_bond_atom_site_label_1
_geom_bond_atom_site_label_2
_geom_bond_distance
_geom_bond_site_symmetry_2
Ba0 O16 2.715763 1_465
Ba0 O17 2.715763 1_564
Ba0 O18 2.838032 1_555
Ba0 O21 2.838032 1_454
Ba0 O11 2.964984 1_455
Ba0 O8 2.964984 1_554
Ba0 O3 3.004822 1_555
Ba0 O0 3.004822 1_454
Ba0 O4 3.073720 1_554
Ba0 O7 3.073720 1_455
Ba0 O12 3.075511 1_565
Ba0 O15 3.075511 1_464
Ba1 O17 2.715763 1_554
Ba1 O16 2.715763 1_455
Ba1 O18 2.838032 1_555
Ba1 O21 2.838032 1_454
Ba1 O11 2.964984 1_455
Ba1 O8 2.964984 1_554
Ba1 O2 3.004822 1_555
Ba1 O1 3.004822 1_454
Ba1 O5 3.073720 1_554
Ba1 O6 3.073720 1_455
Ba1 O12 3.075511 1_555
Ba1 O15 3.075511 1_454
Ba2 O17 2.715763 1_555
Ba2 O16 2.715763 1_455
Ba2 O21 2.838032 1_455
Ba2 O18 2.838032 1_555
Ba2 O10 2.964984 1_455
Ba2 O9 2.964984 1_555
Ba2 O2 3.004822 1_555
Ba2 O1 3.004822 1_455
Ba2 O5 3.073720 1_555
Ba2 O6 3.073720 1_455
Ba2 O13 3.075511 1_555
Ba2 O14 3.075511 1_455
Ba3 O17 2.715763 1_565
Ba3 O16 2.715763 1_465
Ba3 O21 2.838032 1_455
Ba3 O18 2.838032 1_555
Ba3 O10 2.964984 1_455
Ba3 O9 2.964984 1_555
Ba3 O3 3.004822 1_555
Ba3 O0 3.004822 1_455
Ba3 O4 3.073720 1_555
Ba3 O7 3.073720 1_455
Ba3 O13 3.075511 1_565
Ba3 O14 3.075511 1_465
Ho0 O7 2.455522 1_555
Ho0 O4 2.455522 1_555
Ho0 O9 2.469360 1_555
Ho0 O10 2.469360 1_555
Ho0 O0 2.509689 1_555
Ho0 O3 2.509689 1_555
Ho0 O14 2.517104 1_565
Ho0 O13 2.517104 1_565
Ho0 O19 2.673188 1_555
Ho0 O20 2.673188 1_555
Ho1 O6 2.455522 1_555
Ho1 O5 2.455522 1_554
Ho1 O8 2.469360 1_554
Ho1 O11 2.469360 1_555
Ho1 O1 2.509689 1_554
Ho1 O2 2.509689 1_555
Ho1 O15 2.517104 1_554
Ho1 O12 2.517104 1_555
Ho1 O19 2.673188 1_554
Ho1 O20 2.673188 1_555
Ho2 O6 2.455522 1_555
Ho2 O5 2.455522 1_555
Ho2 O9 2.469360 1_555
Ho2 O10 2.469360 1_555
Ho2 O1 2.509689 1_555
Ho2 O2 2.509689 1_555
Ho2 O14 2.517104 1_555
Ho2 O13 2.517104 1_555
Ho2 O19 2.673188 1_555
Ho2 O20 2.673188 1_555
Ho3 O7 2.455522 1_555
Ho3 O4 2.455522 1_554
Ho3 O8 2.469360 1_554
Ho3 O11 2.469360 1_555
Ho3 O0 2.509689 1_554
Ho3 O3 2.509689 1_555
Ho3 O15 2.517104 1_564
Ho3 O12 2.517104 1_565
Ho3 O19 2.673188 1_554
Ho3 O20 2.673188 1_555
Co0 O19 1.830531 1_555
Co0 O21 1.839759 1_555
Co0 O11 1.982908 1_556
Co0 O10 1.982908 1_555
Co0 O0 2.126199 1_555
Co0 O1 2.126199 1_555
Co1 O20 1.830531 1_555
Co1 O18 1.839759 1_555
Co1 O8 1.982908 1_554
Co1 O9 1.982908 1_555
Co1 O3 2.126199 1_555
Co1 O2 2.126199 1_555
Co2 O19 1.933473 1_555
Co2 O9 1.961567 1_555
Co2 O8 1.961567 1_555
Co2 O21 2.028889 1_455
Co2 O4 2.142664 1_555
Co2 O5 2.142664 1_555
Co3 O20 1.933473 1_555
Co3 O10 1.961567 1_555
Co3 O11 1.961567 1_555
Co3 O18 2.028889 1_655
Co3 O6 2.142664 1_555
Co3 O7 2.142664 1_555
Co4 O1 1.825207 1_555
Co4 O0 1.825207 1_545
Co4 O15 1.934810 1_555
Co4 O14 1.934810 1_555
Co4 O17 2.361756 1_655
Co5 O6 1.847870 1_555
Co5 O7 1.847870 1_545
Co5 O16 1.917429 1_555
Co5 O14 2.035499 1_555
Co5 O15 2.035499 1_554
Co6 O5 1.847870 1_555
Co6 O4 1.847870 1_545
Co6 O17 1.917429 1_555
Co6 O12 2.035499 1_556
Co6 O13 2.035499 1_555
Co7 O2 1.825207 1_555
Co7 O3 1.825207 1_545
Co7 O13 1.934810 1_555
Co7 O12 1.934810 1_555
Co7 O16 2.361756 1_455
