# generated using pymatgen
data_Ba(Cu2As)4
_symmetry_space_group_name_H-M   'P 1'
_cell_length_a   3.93316680
_cell_length_b   7.63778534
_cell_length_c   7.63778441
_cell_angle_alpha   86.19871039
_cell_angle_beta   75.07935601
_cell_angle_gamma   75.07937322
_symmetry_Int_Tables_number   1
_chemical_formula_structural   Ba(Cu2As)4
_chemical_formula_sum   'Ba1 Cu8 As4'
_cell_volume   214.23294287
_cell_formula_units_Z   1
loop_
 _symmetry_equiv_pos_site_id
 _symmetry_equiv_pos_as_xyz
  1  'x, y, z'
loop_
 _atom_site_type_symbol
 _atom_site_label
 _atom_site_symmetry_multiplicity
 _atom_site_fract_x
 _atom_site_fract_y
 _atom_site_fract_z
 _atom_site_occupancy
  Ba  Ba0  1  -0.00000000  0.00000000  -0.00000000  1
  Cu  Cu0  1  0.62526878  0.39198426  0.35747818  1
  Cu  Cu1  1  0.21433692  0.45676074  0.11456442  1
  Cu  Cu2  1  0.32890234  0.88543558  0.45676074  1
  Cu  Cu3  1  0.67109766  0.11456442  0.54323926  1
  Cu  Cu4  1  0.78566308  0.54323926  0.88543558  1
  Cu  Cu5  1  0.37473122  0.60801574  0.64252182  1
  Cu  Cu6  1  0.01725304  0.35747818  0.60801574  1
  Cu  Cu7  1  0.98274696  0.64252182  0.39198426  1
  As  As0  1  0.42771438  0.33077088  0.81379837  1
  As  As1  1  0.24151274  0.18620163  0.33077088  1
  As  As2  1  0.75848726  0.81379837  0.66922912  1
  As  As3  1  0.57228562  0.66922912  0.18620163  1
loop_
_geom_bond_atom_site_label_1
_geom_bond_atom_site_label_2
_geom_bond_distance
_geom_bond_site_symmetry_2
Cu0 Cu3 2.464047 1_555
Cu0 Cu1 2.703702 1_655
Cu0 Cu1 2.703706 1_555
Cu1 Cu7 2.464046 1_455
Cu1 Cu4 2.671023 1_454
Cu1 Cu4 2.671029 1_554
Cu2 Cu5 2.464047 1_555
Cu2 Cu3 2.671023 1_565
Cu2 Cu3 2.671029 1_465
Cu2 Cu7 2.703703 1_555
Cu2 Cu7 2.703705 1_455
Cu3 Cu6 2.703703 1_555
Cu3 Cu6 2.703705 1_655
Cu4 Cu6 2.464046 1_655
Cu4 Cu5 2.703702 1_655
Cu4 Cu5 2.703706 1_555
As0 Cu5 2.405110 1_555
As0 Cu1 2.406619 1_556
As0 Cu6 2.492555 1_555
As0 Cu6 2.492560 1_655
As0 Cu3 2.556039 1_555
As0 Cu4 2.570176 1_455
As0 Cu4 2.570185 1_555
As0 Ba0 3.422755 1_556
As0 Ba0 3.422760 1_656
As1 Cu6 2.405110 1_555
As1 Cu2 2.406619 1_545
As1 Cu0 2.492555 1_455
As1 Cu0 2.492561 1_555
As1 Cu1 2.556039 1_555
As1 Cu3 2.570179 1_455
As1 Cu3 2.570182 1_555
As1 Ba0 3.422755 1_555
As1 Ba0 3.422759 1_655
As2 Cu7 2.405110 1_555
As2 Cu3 2.406619 1_565
As2 Cu5 2.492555 1_655
As2 Cu5 2.492561 1_555
As2 Cu4 2.556039 1_555
As2 Cu2 2.570179 1_655
As2 Cu2 2.570182 1_555
As2 Ba0 3.422755 1_666
As2 Ba0 3.422759 1_566
As3 Cu0 2.405110 1_555
As3 Cu4 2.406619 1_554
As3 Cu7 2.492555 1_555
As3 Cu7 2.492560 1_455
As3 Cu2 2.556039 1_555
As3 Cu1 2.570176 1_655
As3 Cu1 2.570185 1_555
As3 Ba0 3.422755 1_665
As3 Ba0 3.422760 1_565
