# generated using pymatgen
data_NaSnPHO4F
_symmetry_space_group_name_H-M   'P 1'
_cell_length_a   4.97134100
_cell_length_b   5.31939600
_cell_length_c   19.36443800
_cell_angle_alpha   90.00000000
_cell_angle_beta   90.00000000
_cell_angle_gamma   90.00000000
_symmetry_Int_Tables_number   1
_chemical_formula_structural   NaSnPHO4F
_chemical_formula_sum   'Na4 Sn4 P4 H4 O16 F4'
_cell_volume   512.08348932
_cell_formula_units_Z   4
loop_
 _symmetry_equiv_pos_site_id
 _symmetry_equiv_pos_as_xyz
  1  'x, y, z'
loop_
 _atom_site_type_symbol
 _atom_site_label
 _atom_site_symmetry_multiplicity
 _atom_site_fract_x
 _atom_site_fract_y
 _atom_site_fract_z
 _atom_site_occupancy
  Na  Na0  1  0.25314900  0.25000000  0.50861700  1
  Na  Na1  1  0.75314900  0.25000000  0.99138300  1
  Na  Na2  1  0.74685100  0.75000000  0.49138300  1
  Na  Na3  1  0.24685100  0.75000000  0.00861700  1
  Sn  Sn0  1  0.70494100  0.25000000  0.36155600  1
  Sn  Sn1  1  0.20494100  0.25000000  0.13844400  1
  Sn  Sn2  1  0.29505900  0.75000000  0.63844400  1
  Sn  Sn3  1  0.79505900  0.75000000  0.86155600  1
  P  P0  1  0.27602700  0.75000000  0.37284000  1
  P  P1  1  0.77602700  0.75000000  0.12716000  1
  P  P2  1  0.72397300  0.25000000  0.62716000  1
  P  P3  1  0.22397300  0.25000000  0.87284000  1
  H  H0  1  0.20527000  0.75000000  0.26085100  1
  H  H1  1  0.70527000  0.75000000  0.23914900  1
  H  H2  1  0.79473000  0.25000000  0.73914900  1
  H  H3  1  0.29473000  0.25000000  0.76085100  1
  O  O0  1  0.40770400  0.98704800  0.40476700  1
  O  O1  1  0.90770400  0.51295200  0.09523300  1
  O  O2  1  0.59229600  0.48704800  0.59523300  1
  O  O3  1  0.09229600  0.01295200  0.90476700  1
  O  O4  1  0.59229600  0.01295200  0.59523300  1
  O  O5  1  0.09229600  0.48704800  0.90476700  1
  O  O6  1  0.40770400  0.51295200  0.40476700  1
  O  O7  1  0.90770400  0.98704800  0.09523300  1
  O  O8  1  0.97113500  0.75000000  0.37695600  1
  O  O9  1  0.47113500  0.75000000  0.12304400  1
  O  O10  1  0.02886500  0.25000000  0.62304400  1
  O  O11  1  0.52886500  0.25000000  0.87695600  1
  O  O12  1  0.36499200  0.75000000  0.29135400  1
  O  O13  1  0.86499200  0.75000000  0.20864600  1
  O  O14  1  0.63500800  0.25000000  0.70864600  1
  O  O15  1  0.13500800  0.25000000  0.79135400  1
  F  F0  1  0.83001200  0.25000000  0.46356600  1
  F  F1  1  0.33001200  0.25000000  0.03643400  1
  F  F2  1  0.16998800  0.75000000  0.53643400  1
  F  F3  1  0.66998800  0.75000000  0.96356600  1
loop_
_geom_bond_atom_site_label_1
_geom_bond_atom_site_label_2
_geom_bond_distance
_geom_bond_site_symmetry_2
Na0 O10 2.480533 1_555
Na0 O0 2.567285 1_545
Na0 O6 2.567285 1_555
Na0 O2 2.691818 1_555
Na0 O4 2.691818 1_555
Na1 O11 2.480533 1_555
Na1 O1 2.567285 1_556
Na1 O7 2.567285 1_546
Na1 O5 2.691818 1_655
Na1 O3 2.691818 1_655
Na2 O8 2.480533 1_555
Na2 O2 2.567285 1_555
Na2 O4 2.567285 1_565
Na2 O6 2.691818 1_555
Na2 O0 2.691818 1_555
Na3 O9 2.480533 1_555
Na3 O5 2.567285 1_554
Na3 O3 2.567285 1_564
Na3 O1 2.691818 1_455
Na3 O7 2.691818 1_455
H0 O12 0.989638 1_555
H1 O13 0.989638 1_555
H2 O14 0.989638 1_555
H3 O15 0.989638 1_555
O0 P0 1.549435 1_555
O0 Sn0 2.200034 1_565
O1 P1 1.549435 1_555
O1 Sn1 2.200034 1_655
O2 P2 1.549435 1_555
O2 Sn2 2.200034 1_555
O3 P3 1.549435 1_555
O3 Sn3 2.200034 1_445
O4 P2 1.549435 1_555
O4 Sn2 2.200034 1_545
O5 P3 1.549435 1_555
O5 Sn3 2.200034 1_455
O6 P0 1.549435 1_555
O6 Sn0 2.200034 1_555
O7 P1 1.549435 1_555
O7 Sn1 2.200034 1_665
O8 P0 1.517816 1_655
O9 P1 1.517816 1_555
O10 P2 1.517816 1_455
O11 P3 1.517816 1_555
O12 P0 1.638741 1_555
O13 P1 1.638741 1_555
O14 P2 1.638741 1_555
O15 P3 1.638741 1_555
F0 Sn0 2.070911 1_555
F0 Na0 2.277283 1_655
F0 Na2 2.745007 1_555
F0 Na2 2.745007 1_545
F1 Sn1 2.070911 1_555
F1 Na1 2.277283 1_554
F1 Na3 2.745007 1_555
F1 Na3 2.745007 1_545
F2 Sn2 2.070911 1_555
F2 Na2 2.277283 1_455
F2 Na0 2.745007 1_555
F2 Na0 2.745007 1_565
F3 Sn3 2.070911 1_555
F3 Na3 2.277283 1_556
F3 Na1 2.745007 1_565
F3 Na1 2.745007 1_555
