# generated using pymatgen
data_Rb2Sn4Se9O
_symmetry_space_group_name_H-M   'P 1'
_cell_length_a   12.69882355
_cell_length_b   13.70757094
_cell_length_c   12.75205778
_cell_angle_alpha   90.00000000
_cell_angle_beta   90.00000000
_cell_angle_gamma   90.00000000
_symmetry_Int_Tables_number   1
_chemical_formula_structural   Rb2Sn4Se9O
_chemical_formula_sum   'Rb8 Sn16 Se36 O4'
_cell_volume   2219.75101231
_cell_formula_units_Z   4
loop_
 _symmetry_equiv_pos_site_id
 _symmetry_equiv_pos_as_xyz
  1  'x, y, z'
loop_
 _atom_site_type_symbol
 _atom_site_label
 _atom_site_symmetry_multiplicity
 _atom_site_fract_x
 _atom_site_fract_y
 _atom_site_fract_z
 _atom_site_occupancy
  Rb  Rb0  1  0.75082097  0.42831150  0.56029871  1
  Rb  Rb1  1  0.75082097  0.92831150  0.93970129  1
  Rb  Rb2  1  0.25082097  0.57168850  0.43970129  1
  Rb  Rb3  1  0.25082097  0.07168850  0.06029871  1
  Rb  Rb4  1  0.16646198  0.93742907  0.54227592  1
  Rb  Rb5  1  0.66646198  0.06257093  0.45772408  1
  Rb  Rb6  1  0.66646198  0.56257093  0.04227592  1
  Rb  Rb7  1  0.16646198  0.43742907  0.95772408  1
  Sn  Sn0  1  0.08839529  0.32763598  0.62673877  1
  Sn  Sn1  1  0.41325892  0.82742340  0.87046925  1
  Sn  Sn2  1  0.58839529  0.67236402  0.37326123  1
  Sn  Sn3  1  0.91325892  0.17257660  0.12953075  1
  Sn  Sn4  1  0.91325892  0.67257660  0.37046925  1
  Sn  Sn5  1  0.58839529  0.17236402  0.12673877  1
  Sn  Sn6  1  0.41325892  0.32742340  0.62953075  1
  Sn  Sn7  1  0.08839529  0.82763598  0.87326123  1
  Sn  Sn8  1  0.89516389  0.23277772  0.81741995  1
  Sn  Sn9  1  0.60278955  0.73221868  0.68416527  1
  Sn  Sn10  1  0.39516389  0.76722228  0.18258005  1
  Sn  Sn11  1  0.10278955  0.26778132  0.31583473  1
  Sn  Sn12  1  0.10278955  0.76778132  0.18416527  1
  Sn  Sn13  1  0.39516389  0.26722228  0.31741995  1
  Sn  Sn14  1  0.60278955  0.23221868  0.81583473  1
  Sn  Sn15  1  0.89516389  0.73277772  0.68258005  1
  Se  Se0  1  0.74909872  0.30060869  0.95335332  1
  Se  Se1  1  0.74909872  0.80060869  0.54664668  1
  Se  Se2  1  0.24909872  0.69939131  0.04664668  1
  Se  Se3  1  0.24909872  0.19939131  0.45335332  1
  Se  Se4  1  0.95559677  0.40632026  0.76032267  1
  Se  Se5  1  0.54689378  0.90686241  0.74037319  1
  Se  Se6  1  0.45559677  0.59367974  0.23967733  1
  Se  Se7  1  0.04689378  0.09313759  0.25962681  1
  Se  Se8  1  0.04689378  0.59313759  0.24037319  1
  Se  Se9  1  0.45559677  0.09367974  0.26032267  1
  Se  Se10  1  0.54689378  0.40686241  0.75962681  1
  Se  Se11  1  0.95559677  0.90632026  0.73967733  1
  Se  Se12  1  0.99420085  0.12189080  0.95065519  1
  Se  Se13  1  0.50705867  0.62015841  0.54968988  1
  Se  Se14  1  0.49420085  0.87810920  0.04934481  1
  Se  Se15  1  0.00705867  0.37984159  0.45031012  1
  Se  Se16  1  0.00705867  0.87984159  0.04968988  1
  Se  Se17  1  0.49420085  0.37810920  0.45065519  1
  Se  Se18  1  0.50705867  0.12015841  0.95031012  1
  Se  Se19  1  0.99420085  0.62189080  0.54934481  1
  Se  Se20  1  0.05562237  0.15360002  0.68224406  1
  Se  Se21  1  0.44860520  0.65220248  0.82275264  1
  Se  Se22  1  0.55562237  0.84639998  0.31775594  1
  Se  Se23  1  0.94860520  0.34779752  0.17724736  1
  Se  Se24  1  0.94860520  0.84779752  0.32275264  1
  Se  Se25  1  0.55562237  0.34639998  0.18224406  1
  Se  Se26  1  0.44860520  0.15220248  0.67724736  1
  Se  Se27  1  0.05562237  0.65360002  0.81775594  1
  Se  Se28  1  0.75049110  0.14722587  0.70752425  1
  Se  Se29  1  0.75049110  0.64722587  0.79247575  1
  Se  Se30  1  0.25049110  0.85277413  0.29247575  1
  Se  Se31  1  0.25049110  0.35277413  0.20752425  1
  Se  Se32  1  0.25037477  0.43124774  0.67736740  1
  Se  Se33  1  0.25037477  0.93124774  0.82263260  1
  Se  Se34  1  0.75037477  0.56875226  0.32263260  1
  Se  Se35  1  0.75037477  0.06875226  0.17736740  1
  O  O0  1  0.73866719  0.27024804  0.40620767  1
  O  O1  1  0.73866719  0.77024804  0.09379233  1
  O  O2  1  0.23866719  0.72975196  0.59379233  1
  O  O3  1  0.23866719  0.22975196  0.90620767  1
loop_
_geom_bond_atom_site_label_1
_geom_bond_atom_site_label_2
_geom_bond_distance
_geom_bond_site_symmetry_2
Rb0 Se34 3.590457 1_555
Rb0 Se15 3.605086 1_655
Rb0 Se10 3.640553 1_555
Rb0 Se4 3.655020 1_555
Rb1 Se35 3.590457 1_566
Rb1 Se16 3.605086 1_656
Rb1 Se5 3.640553 1_555
Rb1 Se11 3.655020 1_555
Rb2 Se32 3.590457 1_555
Rb2 Se13 3.605086 1_555
Rb2 Se8 3.640553 1_555
Rb2 Se6 3.655020 1_555
Rb3 Se33 3.590457 1_544
Rb3 Se18 3.605086 1_554
Rb3 Se7 3.640553 1_555
Rb3 Se9 3.655020 1_555
Rb4 Se30 3.554208 1_555
Rb4 Se11 3.699838 1_455
Rb4 Se33 3.731512 1_555
Rb4 Se20 3.734619 1_565
Rb4 Se3 3.909139 1_565
Rb5 Se28 3.554208 1_555
Rb5 Se9 3.699838 1_555
Rb5 Se35 3.731512 1_555
Rb5 Se22 3.734619 1_545
Rb5 Se1 3.909139 1_545
Rb6 Se29 3.554208 1_554
Rb6 Se6 3.699838 1_555
Rb6 Se34 3.731512 1_555
Rb6 Se25 3.734619 1_555
Rb6 Se0 3.909139 1_554
Rb7 Se31 3.554208 1_556
Rb7 Se4 3.699838 1_455
Rb7 Se32 3.731512 1_555
Rb7 Se27 3.734619 1_555
Rb7 Se2 3.909139 1_556
Se0 Sn8 2.703663 1_555
Se0 Sn14 2.721415 1_555
Se1 Sn15 2.703663 1_555
Se1 Sn9 2.721415 1_555
Se2 Sn10 2.703663 1_555
Se2 Sn12 2.721415 1_555
Se3 Sn13 2.703663 1_555
Se3 Sn11 2.721415 1_555
Se4 Sn8 2.603458 1_555
Se4 Sn0 2.628501 1_655
Se5 Sn9 2.597795 1_555
Se5 Sn1 2.611096 1_555
Se6 Sn10 2.603458 1_555
Se6 Sn2 2.628501 1_555
Se7 Sn11 2.597795 1_555
Se7 Sn3 2.611096 1_455
Se8 Sn12 2.597795 1_555
Se8 Sn4 2.611096 1_455
Se9 Sn13 2.603458 1_555
Se9 Sn5 2.628501 1_555
Se10 Sn14 2.597795 1_555
Se10 Sn6 2.611096 1_555
Se11 Sn15 2.603458 1_555
Se11 Sn7 2.628501 1_655
Se12 Sn3 2.596600 1_556
Se12 Sn8 2.603602 1_555
Se13 Sn2 2.576949 1_555
Se13 Sn9 2.603468 1_555
Se14 Sn1 2.596600 1_554
Se14 Sn10 2.603602 1_555
Se15 Sn0 2.576949 1_555
Se15 Sn11 2.603468 1_555
Se16 Sn7 2.576949 1_554
Se16 Sn12 2.603468 1_555
Se17 Sn6 2.596600 1_555
Se17 Sn13 2.603602 1_555
Se18 Sn5 2.576949 1_556
Se18 Sn14 2.603468 1_555
Se19 Sn4 2.596600 1_555
Se19 Sn15 2.603602 1_555
Se20 Sn0 2.522961 1_555
Se20 Sn8 2.881195 1_455
Se21 Sn1 2.518060 1_555
Se21 Sn9 2.856553 1_555
Se22 Sn2 2.522961 1_555
Se22 Sn10 2.881195 1_555
Se23 Sn3 2.518060 1_555
Se23 Sn11 2.856553 1_655
Se24 Sn4 2.518060 1_555
Se24 Sn12 2.856553 1_655
Se25 Sn5 2.522961 1_555
Se25 Sn13 2.881195 1_555
Se26 Sn6 2.518060 1_555
Se26 Sn14 2.856553 1_555
Se27 Sn7 2.522961 1_555
Se27 Sn15 2.881195 1_455
Se28 Sn8 2.591209 1_555
Se28 Sn14 2.604420 1_555
Se29 Sn15 2.591209 1_555
Se29 Sn9 2.604420 1_555
Se30 Sn10 2.591209 1_555
Se30 Sn12 2.604420 1_555
Se31 Sn13 2.591209 1_555
Se31 Sn11 2.604420 1_555
Se32 Sn0 2.581669 1_555
Se32 Sn6 2.583794 1_555
Se33 Sn7 2.581669 1_555
Se33 Sn1 2.583794 1_555
Se34 Sn2 2.581669 1_555
Se34 Sn4 2.583794 1_555
Se35 Sn5 2.581669 1_555
Se35 Sn3 2.583794 1_555
O0 Rb0 2.929061 1_555
O0 Rb5 3.062073 1_555
O1 Rb1 2.929061 1_554
O1 Rb6 3.062073 1_555
O2 Rb2 2.929061 1_555
O2 Rb4 3.062073 1_555
O3 Rb3 2.929061 1_556
O3 Rb7 3.062073 1_555
