# generated using pymatgen
data_BaZr2SnO6
_symmetry_space_group_name_H-M   'P 1'
_cell_length_a   4.23561814
_cell_length_b   5.96085123
_cell_length_c   5.96085123
_cell_angle_alpha   89.61447479
_cell_angle_beta   90.00000000
_cell_angle_gamma   90.00000000
_symmetry_Int_Tables_number   1
_chemical_formula_structural   BaZr2SnO6
_chemical_formula_sum   'Ba1 Zr2 Sn1 O6'
_cell_volume   150.49550705
_cell_formula_units_Z   1
loop_
 _symmetry_equiv_pos_site_id
 _symmetry_equiv_pos_as_xyz
  1  'x, y, z'
loop_
 _atom_site_type_symbol
 _atom_site_label
 _atom_site_symmetry_multiplicity
 _atom_site_fract_x
 _atom_site_fract_y
 _atom_site_fract_z
 _atom_site_occupancy
  Ba  Ba0  1  0.50000000  -0.00000000  0.00000000  1
  Zr  Zr0  1  -0.00000000  -0.00000000  0.50000000  1
  Zr  Zr1  1  -0.00000000  0.50000000  0.00000000  1
  Sn  Sn0  1  0.50000000  0.50000000  0.50000000  1
  O  O0  1  0.50000000  -0.00000000  0.50000000  1
  O  O1  1  0.50000000  0.50000000  0.00000000  1
  O  O2  1  -0.00000000  0.27502868  0.72497132  1
  O  O3  1  0.00000000  0.72497132  0.27502868  1
  O  O4  1  0.00000000  0.77495152  0.77495152  1
  O  O5  1  0.00000000  0.22504848  0.22504848  1
loop_
_geom_bond_atom_site_label_1
_geom_bond_atom_site_label_2
_geom_bond_distance
_geom_bond_site_symmetry_2
Ba0 O4 2.847538 1_644
Ba0 O5 2.847538 1_555
Ba0 O4 2.847538 1_544
Ba0 O5 2.847538 1_655
Ba0 O1 2.980426 1_545
Ba0 O0 2.980426 1_555
Ba0 O0 2.980426 1_554
Ba0 O1 2.980426 1_555
Ba0 O2 3.134365 1_654
Ba0 O3 3.134365 1_545
Ba0 O2 3.134365 1_554
Ba0 O3 3.134365 1_645
O0 Zr0 2.117809 1_655
O0 Zr0 2.117809 1_555
O1 Zr1 2.117809 1_555
O1 Zr1 2.117809 1_655
O2 Zr0 2.124987 1_555
O2 Zr1 2.124987 1_556
O3 Zr0 2.124987 1_565
O3 Zr1 2.124987 1_555
O4 Zr0 2.110953 1_565
O4 Zr1 2.110953 1_556
O5 Zr1 2.110953 1_555
O5 Zr0 2.110953 1_555
