# generated using pymatgen
data_LaYMg14
_symmetry_space_group_name_H-M   'P 1'
_cell_length_a   6.69523931
_cell_length_b   6.69523871
_cell_length_c   10.32648904
_cell_angle_alpha   90.00000000
_cell_angle_beta   90.00000000
_cell_angle_gamma   120.00000290
_symmetry_Int_Tables_number   1
_chemical_formula_structural   LaYMg14
_chemical_formula_sum   'La1 Y1 Mg14'
_cell_volume   400.88100470
_cell_formula_units_Z   1
loop_
 _symmetry_equiv_pos_site_id
 _symmetry_equiv_pos_as_xyz
  1  'x, y, z'
loop_
 _atom_site_type_symbol
 _atom_site_label
 _atom_site_symmetry_multiplicity
 _atom_site_fract_x
 _atom_site_fract_y
 _atom_site_fract_z
 _atom_site_occupancy
  La  La0  1  0.16666700  0.33333300  0.62500000  1
  Y  Y0  1  0.16666700  0.33333300  0.12500000  1
  Mg  Mg0  1  0.17152874  0.83576387  0.12500000  1
  Mg  Mg1  1  0.17309344  0.83654622  0.62500000  1
  Mg  Mg2  1  0.66423613  0.32847126  0.12500000  1
  Mg  Mg3  1  0.66345378  0.32690656  0.62500000  1
  Mg  Mg4  1  0.66423613  0.83576387  0.12500000  1
  Mg  Mg5  1  0.66345378  0.83654622  0.62500000  1
  Mg  Mg6  1  0.33765973  0.16234027  0.37274304  1
  Mg  Mg7  1  0.33765973  0.16234027  0.87725696  1
  Mg  Mg8  1  0.33765973  0.67532045  0.37274304  1
  Mg  Mg9  1  0.33765973  0.67532045  0.87725696  1
  Mg  Mg10  1  0.82467955  0.16234027  0.37274304  1
  Mg  Mg11  1  0.82467955  0.16234027  0.87725696  1
  Mg  Mg12  1  0.83333300  0.66666700  0.37645188  1
  Mg  Mg13  1  0.83333300  0.66666700  0.87354812  1
loop_
_geom_bond_atom_site_label_1
_geom_bond_atom_site_label_2
_geom_bond_distance
_geom_bond_site_symmetry_2
La0 Mg7 3.273776 1_555
La0 Mg6 3.273776 1_555
La0 Mg8 3.273783 1_555
La0 Mg9 3.273783 1_555
La0 Mg11 3.273783 1_455
La0 Mg10 3.273783 1_455
La0 Mg1 3.347827 1_555
La0 Mg5 3.347827 1_555
La0 Mg1 3.347827 1_545
La0 Mg5 3.347827 1_445
La0 Mg3 3.347827 1_555
La0 Mg3 3.347827 1_455
Mg0 Mg8 3.182909 1_555
Mg0 Mg9 3.182909 1_554
Mg0 Mg7 3.182916 1_564
Mg0 Mg6 3.182916 1_565
Mg0 Mg12 3.253875 1_455
Mg0 Mg13 3.253875 1_454
Mg0 Mg2 3.298794 1_565
Mg0 Mg4 3.298794 1_555
Mg0 Y0 3.347738 1_555
Mg0 Y0 3.347738 1_565
Mg0 Mg2 3.396445 1_455
Mg0 Mg4 3.396445 1_455
Mg1 Mg9 3.217792 1_555
Mg1 Mg8 3.217792 1_555
Mg1 Mg7 3.217799 1_565
Mg1 Mg6 3.217799 1_565
Mg1 Mg12 3.235513 1_455
Mg1 Mg13 3.235513 1_455
Mg1 Mg3 3.283080 1_565
Mg1 Mg5 3.283080 1_555
Mg1 Mg3 3.412159 1_455
Mg1 Mg5 3.412159 1_455
Mg2 Mg7 3.182916 1_554
Mg2 Mg6 3.182916 1_555
Mg2 Mg4 3.298794 1_545
Mg2 Y0 3.347738 1_555
Mg2 Y0 3.347738 1_655
Mg2 Mg4 3.396445 1_555
Mg3 Mg6 3.217799 1_555
Mg3 Mg7 3.217799 1_555
Mg3 Mg5 3.283080 1_545
Mg3 Mg5 3.412159 1_555
Mg4 Mg8 3.182916 1_555
Mg4 Mg9 3.182916 1_554
Mg4 Y0 3.347738 1_555
Mg4 Y0 3.347738 1_665
Mg5 Mg8 3.217799 1_555
Mg5 Mg9 3.217799 1_555
Mg6 Y0 3.236810 1_555
Mg6 Mg8 3.260714 1_545
Mg6 Mg8 3.434525 1_555
Mg7 Y0 3.236810 1_556
Mg7 Mg9 3.260714 1_545
Mg7 Mg9 3.434525 1_555
Mg8 Y0 3.236817 1_555
Mg9 Y0 3.236817 1_556
Mg10 Mg2 3.182909 1_555
Mg10 Mg4 3.182916 1_545
Mg10 Mg3 3.217792 1_555
Mg10 Mg5 3.217799 1_545
Mg10 Y0 3.236817 1_655
Mg10 Mg8 3.260714 1_545
Mg10 Mg6 3.260714 1_555
Mg10 Mg12 3.348214 1_545
Mg10 Mg12 3.348214 1_555
Mg10 Mg8 3.434525 1_655
Mg10 Mg6 3.434525 1_655
Mg11 Mg2 3.182909 1_556
Mg11 Mg4 3.182916 1_546
Mg11 Mg3 3.217792 1_555
Mg11 Mg5 3.217799 1_545
Mg11 Y0 3.236817 1_656
Mg11 Mg9 3.260714 1_545
Mg11 Mg7 3.260714 1_555
Mg11 Mg13 3.348214 1_545
Mg11 Mg13 3.348214 1_555
Mg11 Mg9 3.434525 1_655
Mg11 Mg7 3.434525 1_655
Mg12 Mg5 3.235506 1_555
Mg12 Mg3 3.235513 1_555
Mg12 Mg4 3.253868 1_555
Mg12 Mg2 3.253875 1_555
Mg12 Mg6 3.348214 1_555
Mg12 Mg6 3.348214 1_665
Mg12 Mg8 3.348215 1_555
Mg12 Mg8 3.348215 1_655
Mg13 Mg5 3.235506 1_555
Mg13 Mg3 3.235513 1_555
Mg13 Mg4 3.253868 1_556
Mg13 Mg2 3.253875 1_556
Mg13 Mg7 3.348214 1_555
Mg13 Mg7 3.348214 1_665
Mg13 Mg9 3.348215 1_555
Mg13 Mg9 3.348215 1_655
