# generated using pymatgen
data_CsNb4Ag(PS10)2
_symmetry_space_group_name_H-M   'P 1'
_cell_length_a   12.95133700
_cell_length_b   7.89662900
_cell_length_c   14.98143199
_cell_angle_alpha   86.22420787
_cell_angle_beta   90.00000000
_cell_angle_gamma   90.00000000
_symmetry_Int_Tables_number   1
_chemical_formula_structural   CsNb4Ag(PS10)2
_chemical_formula_sum   'Cs2 Nb8 Ag2 P4 S40'
_cell_volume   1528.85378542
_cell_formula_units_Z   2
loop_
 _symmetry_equiv_pos_site_id
 _symmetry_equiv_pos_as_xyz
  1  'x, y, z'
loop_
 _atom_site_type_symbol
 _atom_site_label
 _atom_site_symmetry_multiplicity
 _atom_site_fract_x
 _atom_site_fract_y
 _atom_site_fract_z
 _atom_site_occupancy
  Cs  Cs0  1  0.52261900  0.99971500  0.73760600  1
  Cs  Cs1  1  0.02261900  0.00028500  0.26239400  1
  Nb  Nb0  1  0.53506600  0.57154300  0.49934100  1
  Nb  Nb1  1  0.03506600  0.42845700  0.50065900  1
  Nb  Nb2  1  0.46467900  0.42855200  0.00091100  1
  Nb  Nb3  1  0.96467900  0.57144800  0.99908900  1
  Nb  Nb4  1  0.82595500  0.56437100  0.50069200  1
  Nb  Nb5  1  0.32595500  0.43562900  0.49930800  1
  Nb  Nb6  1  0.17382900  0.43506000  0.99937500  1
  Nb  Nb7  1  0.67382900  0.56494000  0.00062500  1
  Ag  Ag0  1  0.50041400  0.00003100  0.24957700  1
  Ag  Ag1  1  0.00041400  0.99996900  0.75042300  1
  P  P0  1  0.68294900  0.87004600  0.39674600  1
  P  P1  1  0.18294900  0.12995400  0.60325400  1
  P  P2  1  0.31720100  0.13048600  0.10304500  1
  P  P3  1  0.81720100  0.86951400  0.89695500  1
  S  S0  1  0.68353700  0.02255600  0.28403000  1
  S  S1  1  0.18353700  0.97744400  0.71597000  1
  S  S2  1  0.31681700  0.97764600  0.21627300  1
  S  S3  1  0.81681700  0.02235400  0.78372700  1
  S  S4  1  0.97210600  0.65440300  0.59871000  1
  S  S5  1  0.47210600  0.34559700  0.40129000  1
  S  S6  1  0.02767400  0.34520600  0.90119900  1
  S  S7  1  0.52767400  0.65479400  0.09880100  1
  S  S8  1  0.67821000  0.37505300  0.56484300  1
  S  S9  1  0.17821000  0.62494700  0.43515700  1
  S  S10  1  0.32129100  0.62406900  0.93517800  1
  S  S11  1  0.82129100  0.37593100  0.06482200  1
  S  S12  1  0.88676600  0.33292000  0.40449600  1
  S  S13  1  0.38676600  0.66708000  0.59550400  1
  S  S14  1  0.11283200  0.66631900  0.09555900  1
  S  S15  1  0.61283200  0.33368100  0.90444100  1
  S  S16  1  0.91596700  0.41928300  0.63482700  1
  S  S17  1  0.41596700  0.58071700  0.36517300  1
  S  S18  1  0.08408200  0.58020800  0.86508500  1
  S  S19  1  0.58408200  0.41979200  0.13491500  1
  S  S20  1  0.68078300  0.61024200  0.37720100  1
  S  S21  1  0.18078300  0.38975800  0.62279900  1
  S  S22  1  0.31891600  0.38976600  0.12312500  1
  S  S23  1  0.81891600  0.61023400  0.87687500  1
  S  S24  1  0.55060500  0.89730700  0.47077400  1
  S  S25  1  0.05060500  0.10269300  0.52922600  1
  S  S26  1  0.44954300  0.10261100  0.02986800  1
  S  S27  1  0.94954300  0.89738900  0.97013200  1
  S  S28  1  0.81808900  0.89257600  0.46673000  1
  S  S29  1  0.31808900  0.10742400  0.53327000  1
  S  S30  1  0.18170400  0.10671200  0.03410000  1
  S  S31  1  0.68170400  0.89328800  0.96590000  1
  S  S32  1  0.68139700  0.60884700  0.61673400  1
  S  S33  1  0.18139700  0.39115300  0.38326600  1
  S  S34  1  0.31873900  0.38984400  0.88366700  1
  S  S35  1  0.81873900  0.61015600  0.11633300  1
  S  S36  1  0.94364900  0.56665100  0.36627400  1
  S  S37  1  0.44364900  0.43334900  0.63372600  1
  S  S38  1  0.05551200  0.43254100  0.13342000  1
  S  S39  1  0.55551200  0.56745900  0.86658000  1
loop_
_geom_bond_atom_site_label_1
_geom_bond_atom_site_label_2
_geom_bond_distance
_geom_bond_site_symmetry_2
Cs0 S37 3.806788 1_565
Cs0 S39 3.833714 1_555
Cs0 S3 3.878623 1_565
Cs0 S13 3.906911 1_555
Cs0 S15 3.928770 1_565
Cs0 S31 4.033658 1_555
Cs0 S29 4.094947 1_565
Cs0 S24 4.146240 1_555
Cs0 S32 4.215532 1_555
Cs1 S36 3.806788 1_445
Cs1 S38 3.833714 1_555
Cs1 S2 3.878623 1_545
Cs1 S12 3.906911 1_455
Cs1 S14 3.928770 1_545
Cs1 S30 4.033658 1_555
Cs1 S28 4.094947 1_445
Cs1 S25 4.146240 1_555
Cs1 S33 4.215532 1_555
Nb0 S5 2.520178 1_555
Nb0 S37 2.521228 1_555
Nb0 S17 2.530922 1_555
Nb0 S13 2.544959 1_555
Nb0 S8 2.570389 1_555
Nb0 S24 2.587682 1_555
Nb0 S32 2.615302 1_555
Nb0 S20 2.632425 1_555
Nb1 S4 2.520178 1_455
Nb1 S36 2.521228 1_455
Nb1 S16 2.530922 1_455
Nb1 S12 2.544959 1_455
Nb1 S9 2.570389 1_555
Nb1 S25 2.587682 1_555
Nb1 S33 2.615302 1_555
Nb1 S21 2.632425 1_555
Nb2 S39 2.519211 1_554
Nb2 S7 2.520553 1_555
Nb2 S19 2.531458 1_555
Nb2 S15 2.544471 1_554
Nb2 S10 2.569423 1_554
Nb2 S26 2.589246 1_555
Nb2 S34 2.611881 1_554
Nb2 S22 2.633663 1_555
Nb3 S38 2.519211 1_656
Nb3 S6 2.520553 1_655
Nb3 S18 2.531458 1_655
Nb3 S14 2.544471 1_656
Nb3 S11 2.569423 1_556
Nb3 S27 2.589246 1_555
Nb3 S35 2.611881 1_556
Nb3 S23 2.633663 1_555
Nb4 S36 2.524739 1_555
Nb4 S4 2.526297 1_555
Nb4 S12 2.526765 1_555
Nb4 S16 2.531141 1_555
Nb4 S8 2.575042 1_555
Nb4 S32 2.594468 1_555
Nb4 S28 2.610088 1_555
Nb4 S20 2.645895 1_555
Nb5 S37 2.524739 1_555
Nb5 S5 2.526297 1_555
Nb5 S13 2.526765 1_555
Nb5 S17 2.531141 1_555
Nb5 S9 2.575042 1_555
Nb5 S33 2.594468 1_555
Nb5 S29 2.610088 1_555
Nb5 S21 2.645895 1_555
Nb6 S38 2.525091 1_556
Nb6 S14 2.526253 1_556
Nb6 S6 2.527308 1_555
Nb6 S18 2.531528 1_555
Nb6 S10 2.571194 1_555
Nb6 S34 2.595424 1_555
Nb6 S30 2.612704 1_556
Nb6 S22 2.647383 1_556
Nb7 S39 2.525091 1_554
Nb7 S15 2.526253 1_554
Nb7 S7 2.527308 1_555
Nb7 S19 2.531528 1_555
Nb7 S11 2.571194 1_555
Nb7 S35 2.595424 1_555
Nb7 S31 2.612704 1_554
Nb7 S23 2.647383 1_554
Ag0 S0 2.436196 1_555
Ag0 S2 2.438414 1_545
Ag1 S1 2.436196 1_555
Ag1 S3 2.438414 1_465
P0 S0 2.008512 1_565
P0 S28 2.053982 1_555
P0 S24 2.060503 1_555
P0 S20 2.091556 1_555
P1 S1 2.008512 1_545
P1 S29 2.053982 1_555
P1 S25 2.060503 1_555
P1 S21 2.091556 1_555
P2 S2 2.016069 1_545
P2 S30 2.051149 1_555
P2 S26 2.054243 1_555
P2 S22 2.089046 1_555
P3 S3 2.016069 1_565
P3 S31 2.051149 1_555
P3 S27 2.054243 1_555
P3 S23 2.089046 1_555
S10 S34 2.050753 1_555
S11 S35 2.050753 1_555
S12 S36 2.034208 1_555
S13 S37 2.034208 1_555
S14 S38 2.035403 1_555
S15 S39 2.035403 1_555
S16 S4 2.033782 1_555
S17 S5 2.033782 1_555
S18 S6 2.034187 1_555
S19 S7 2.034187 1_555
S32 S8 2.050239 1_555
S33 S9 2.050239 1_555
