# generated using pymatgen
data_Ca2YMoO5
_symmetry_space_group_name_H-M   'P 1'
_cell_length_a   8.73374657
_cell_length_b   8.73374657
_cell_length_c   8.73374657
_cell_angle_alpha   141.09311128
_cell_angle_beta   140.07863106
_cell_angle_gamma   56.96894621
_symmetry_Int_Tables_number   1
_chemical_formula_structural   Ca2YMoO5
_chemical_formula_sum   'Ca4 Y2 Mo2 O10'
_cell_volume   266.28924511
_cell_formula_units_Z   2
loop_
 _symmetry_equiv_pos_site_id
 _symmetry_equiv_pos_as_xyz
  1  'x, y, z'
loop_
 _atom_site_type_symbol
 _atom_site_label
 _atom_site_symmetry_multiplicity
 _atom_site_fract_x
 _atom_site_fract_y
 _atom_site_fract_z
 _atom_site_occupancy
  Ca  Ca0  1  0.91450800  0.91650700  0.04412700  1
  Ca  Ca1  1  0.62762000  0.62962000  0.04412700  1
  Ca  Ca2  1  0.08549200  0.12962000  0.00200000  1
  Ca  Ca3  1  0.37238000  0.41650700  0.00200000  1
  Y  Y0  1  0.29799800  0.80434400  0.60234200  1
  Y  Y1  1  0.70200200  0.30434400  0.50634700  1
  Mo  Mo0  1  0.00000000  0.48416300  0.48416300  1
  Mo  Mo1  1  0.50000000  0.98416300  0.48416300  1
  O  O0  1  0.35428700  0.18162800  0.03591500  1
  O  O1  1  0.64571300  0.68162800  0.82734000  1
  O  O2  1  0.97700400  0.29858400  0.54576000  1
  O  O3  1  0.02299600  0.56875600  0.32158100  1
  O  O4  1  0.25282500  0.79858400  0.32158100  1
  O  O5  1  0.74717500  0.06875600  0.54576000  1
  O  O6  1  0.30075500  0.28164000  0.50725500  1
  O  O7  1  0.69924500  0.20650000  0.98088500  1
  O  O8  1  0.72561500  0.70650000  0.50725500  1
  O  O9  1  0.27438500  0.78164000  0.98088500  1
loop_
_geom_bond_atom_site_label_1
_geom_bond_atom_site_label_2
_geom_bond_distance
_geom_bond_site_symmetry_2
Ca0 O4 2.290730 1_655
Ca0 O7 2.376485 1_564
Ca0 O1 2.385730 1_554
Ca0 O8 2.473973 1_554
Ca0 O2 2.488408 1_565
Ca1 O3 2.290727 1_655
Ca1 O9 2.376484 1_554
Ca1 O1 2.385737 1_554
Ca1 O6 2.473976 1_554
Ca1 O5 2.488406 1_565
Ca2 O5 2.290726 1_454
Ca2 O6 2.376482 1_555
Ca2 O0 2.385737 1_555
Ca2 O9 2.473977 1_544
Ca2 O3 2.488403 1_555
Ca3 O2 2.290726 1_454
Ca3 O8 2.376484 1_555
Ca3 O0 2.385728 1_555
Ca3 O7 2.473976 1_554
Ca3 O4 2.488403 1_555
Mo0 O8 2.147762 1_455
Mo0 O9 2.147762 1_555
Mo0 O7 2.178629 1_454
Mo0 O6 2.178629 1_555
Mo0 O3 2.198717 1_555
Mo0 O2 2.198726 1_455
Mo1 O6 2.147762 1_565
Mo1 O7 2.147762 1_565
Mo1 O9 2.178629 1_554
Mo1 O8 2.178629 1_555
Mo1 O5 2.198717 1_565
Mo1 O4 2.198724 1_555
O0 Y1 2.192874 1_555
O0 Y0 2.220324 1_544
O1 Y0 2.192868 1_555
O1 Y1 2.220320 1_555
O2 Y1 2.125268 1_555
O3 Y0 2.125266 1_555
O4 Y0 2.125259 1_555
O5 Y1 2.125259 1_555
