# generated using pymatgen
data_Nd2Al3Ge4
_symmetry_space_group_name_H-M   'P 1'
_cell_length_a   8.16197814
_cell_length_b   8.16197814
_cell_length_c   8.18593900
_cell_angle_alpha   90.00000000
_cell_angle_beta   90.00000000
_cell_angle_gamma   137.44441416
_symmetry_Int_Tables_number   1
_chemical_formula_structural   Nd2Al3Ge4
_chemical_formula_sum   'Nd4 Al6 Ge8'
_cell_volume   368.80946844
_cell_formula_units_Z   2
loop_
 _symmetry_equiv_pos_site_id
 _symmetry_equiv_pos_as_xyz
  1  'x, y, z'
loop_
 _atom_site_type_symbol
 _atom_site_label
 _atom_site_symmetry_multiplicity
 _atom_site_fract_x
 _atom_site_fract_y
 _atom_site_fract_z
 _atom_site_occupancy
  Nd  Nd0  1  0.61496800  0.38503200  0.92023400  1
  Nd  Nd1  1  0.38503200  0.61496800  0.07976600  1
  Nd  Nd2  1  0.88503200  0.11496800  0.42023400  1
  Nd  Nd3  1  0.11496800  0.88503200  0.57976600  1
  Al  Al0  1  0.50000000  0.50000000  0.50000000  1
  Al  Al1  1  0.00000000  0.00000000  0.00000000  1
  Al  Al2  1  0.53201900  0.96798100  0.75000000  1
  Al  Al3  1  0.96798100  0.53201900  0.25000000  1
  Al  Al4  1  0.46798100  0.03201900  0.25000000  1
  Al  Al5  1  0.03201900  0.46798100  0.75000000  1
  Ge  Ge0  1  0.70126600  0.79873400  0.75000000  1
  Ge  Ge1  1  0.79873400  0.70126600  0.25000000  1
  Ge  Ge2  1  0.29873400  0.20126600  0.25000000  1
  Ge  Ge3  1  0.20126600  0.29873400  0.75000000  1
  Ge  Ge4  1  0.68507400  0.31492600  0.55221200  1
  Ge  Ge5  1  0.31492600  0.68507400  0.44778800  1
  Ge  Ge6  1  0.81492600  0.18507400  0.05221200  1
  Ge  Ge7  1  0.18507400  0.81492600  0.94778800  1
loop_
_geom_bond_atom_site_label_1
_geom_bond_atom_site_label_2
_geom_bond_distance
_geom_bond_site_symmetry_2
Al0 Ge0 2.632649 1_555
Al0 Ge1 2.632649 1_555
Al0 Ge2 2.632649 1_555
Al0 Ge3 2.632649 1_555
Al0 Ge4 2.847454 1_555
Al0 Ge5 2.847454 1_555
Al0 Nd3 3.501073 1_655
Al0 Nd2 3.501073 1_565
Al0 Nd2 3.501073 1_455
Al0 Nd3 3.501073 1_545
Al1 Ge0 2.632649 1_444
Al1 Ge1 2.632649 1_445
Al1 Ge2 2.632649 1_555
Al1 Ge3 2.632649 1_554
Al1 Ge6 2.847454 1_455
Al1 Ge7 2.847454 1_544
Al1 Nd1 3.501073 1_445
Al1 Nd1 3.501073 1_555
Al1 Nd0 3.501073 1_554
Al1 Nd0 3.501073 1_444
Al2 Ge0 2.574447 1_555
Al2 Ge7 2.643714 1_555
Al2 Ge4 2.643714 1_565
Al2 Ge6 2.926413 1_566
Al2 Ge5 2.926413 1_555
Al2 Nd3 3.254540 1_555
Al2 Nd0 3.254540 1_565
Al2 Nd1 3.454786 1_556
Al2 Nd2 3.454786 1_565
Al3 Ge1 2.574447 1_555
Al3 Ge5 2.643714 1_655
Al3 Ge6 2.643714 1_555
Al3 Ge4 2.926413 1_555
Al3 Ge7 2.926413 1_654
Al3 Nd2 3.254540 1_555
Al3 Nd1 3.254540 1_655
Al3 Nd3 3.454786 1_655
Al3 Nd0 3.454786 1_554
Al4 Ge2 2.574447 1_555
Al4 Ge5 2.643714 1_545
Al4 Ge6 2.643714 1_555
Al4 Ge4 2.926413 1_555
Al4 Ge7 2.926413 1_544
Al4 Nd2 3.254540 1_555
Al4 Nd1 3.254540 1_545
Al4 Nd3 3.454786 1_545
Al4 Nd0 3.454786 1_554
Al5 Ge3 2.574447 1_555
Al5 Ge7 2.643714 1_555
Al5 Ge4 2.643714 1_455
Al5 Ge6 2.926413 1_456
Al5 Ge5 2.926413 1_555
Al5 Nd3 3.254540 1_555
Al5 Nd0 3.254540 1_455
Al5 Nd1 3.454786 1_556
Al5 Nd2 3.454786 1_455
Ge0 Ge3 2.961901 1_555
Ge0 Ge3 2.961901 1_665
Ge0 Nd0 3.214923 1_555
Ge0 Nd3 3.214923 1_655
Ge0 Nd1 3.239640 1_556
Ge0 Nd2 3.239640 1_565
Ge1 Ge2 2.961901 1_555
Ge1 Ge2 2.961901 1_665
Ge1 Nd1 3.214923 1_555
Ge1 Nd2 3.214923 1_565
Ge1 Nd0 3.239640 1_554
Ge1 Nd3 3.239640 1_655
Ge2 Nd1 3.214923 1_555
Ge2 Nd2 3.214923 1_455
Ge2 Nd0 3.239640 1_554
Ge2 Nd3 3.239640 1_545
Ge3 Nd0 3.214923 1_555
Ge3 Nd3 3.214923 1_545
Ge3 Nd1 3.239640 1_556
Ge3 Nd2 3.239640 1_455
Ge4 Nd3 3.156094 1_655
Ge4 Nd3 3.156094 1_545
Ge4 Nd0 3.195777 1_555
Ge4 Nd2 3.227771 1_555
Ge5 Nd2 3.156094 1_565
Ge5 Nd2 3.156094 1_455
Ge5 Nd1 3.195777 1_555
Ge5 Nd3 3.227771 1_555
Ge6 Nd1 3.156094 1_545
Ge6 Nd1 3.156094 1_655
Ge6 Nd2 3.195777 1_555
Ge6 Nd0 3.227771 1_554
Ge7 Nd0 3.156094 1_455
Ge7 Nd0 3.156094 1_565
Ge7 Nd3 3.195777 1_555
Ge7 Nd1 3.227771 1_556
