# generated using pymatgen
data_ErAlGe
_symmetry_space_group_name_H-M   'P 1'
_cell_length_a   5.56288573
_cell_length_b   5.56288573
_cell_length_c   5.73181400
_cell_angle_alpha   90.00000000
_cell_angle_beta   90.00000000
_cell_angle_gamma   137.22698766
_symmetry_Int_Tables_number   1
_chemical_formula_structural   ErAlGe
_chemical_formula_sum   'Er2 Al2 Ge2'
_cell_volume   120.45457480
_cell_formula_units_Z   2
loop_
 _symmetry_equiv_pos_site_id
 _symmetry_equiv_pos_as_xyz
  1  'x, y, z'
loop_
 _atom_site_type_symbol
 _atom_site_label
 _atom_site_symmetry_multiplicity
 _atom_site_fract_x
 _atom_site_fract_y
 _atom_site_fract_z
 _atom_site_occupancy
  Er  Er0  1  0.68977300  0.31022700  0.25000000  1
  Er  Er1  1  0.31022700  0.68977300  0.75000000  1
  Al  Al0  1  0.00000000  0.00000000  0.00000000  1
  Al  Al1  1  0.00000000  0.00000000  0.50000000  1
  Ge  Ge0  1  0.39309300  0.60690700  0.25000000  1
  Ge  Ge1  1  0.60690700  0.39309300  0.75000000  1
loop_
_geom_bond_atom_site_label_1
_geom_bond_atom_site_label_2
_geom_bond_distance
_geom_bond_site_symmetry_2
Er0 Ge0 2.924316 1_655
Er0 Ge0 2.924316 1_545
Er0 Ge1 2.991719 1_555
Er0 Ge1 2.991719 1_554
Er0 Ge0 3.073507 1_555
Er1 Ge1 2.924316 1_565
Er1 Ge1 2.924316 1_455
Er1 Ge0 2.991719 1_556
Er1 Ge0 2.991719 1_555
Er1 Ge1 3.073507 1_555
Al0 Ge1 2.719369 1_554
Al0 Ge0 2.719369 1_555
Al0 Ge1 2.719369 1_444
Al0 Ge0 2.719369 1_445
Al0 Er0 3.167564 1_445
Al0 Er1 3.167564 1_444
Al0 Er1 3.167564 1_554
Al0 Er0 3.167564 1_555
Al1 Ge1 2.719369 1_555
Al1 Ge0 2.719369 1_555
Al1 Ge1 2.719369 1_445
Al1 Ge0 2.719369 1_445
Al1 Er0 3.167564 1_445
Al1 Er1 3.167564 1_445
Al1 Er1 3.167564 1_555
Al1 Er0 3.167564 1_555
