# generated using pymatgen
data_Rb2Hf3OF12
_symmetry_space_group_name_H-M   'P 1'
_cell_length_a   10.83720270
_cell_length_b   10.83720270
_cell_length_c   10.83720311
_cell_angle_alpha   41.33193428
_cell_angle_beta   41.33193428
_cell_angle_gamma   41.33193677
_symmetry_Int_Tables_number   1
_chemical_formula_structural   Rb2Hf3OF12
_chemical_formula_sum   'Rb4 Hf6 O2 F24'
_cell_volume   501.48468128
_cell_formula_units_Z   2
loop_
 _symmetry_equiv_pos_site_id
 _symmetry_equiv_pos_as_xyz
  1  'x, y, z'
loop_
 _atom_site_type_symbol
 _atom_site_label
 _atom_site_symmetry_multiplicity
 _atom_site_fract_x
 _atom_site_fract_y
 _atom_site_fract_z
 _atom_site_occupancy
  Rb  Rb0  1  -0.00000000  -0.00000000  -0.00000000  1
  Rb  Rb1  1  0.50000000  0.50000000  0.50000000  1
  Rb  Rb2  1  0.13753767  0.13753767  0.13753767  1
  Rb  Rb3  1  0.86246233  0.86246233  0.86246233  1
  Hf  Hf0  1  0.57552054  0.57552054  0.02853535  1
  Hf  Hf1  1  0.02853535  0.57552054  0.57552054  1
  Hf  Hf2  1  0.57552054  0.02853535  0.57552054  1
  Hf  Hf3  1  0.42447946  0.97146465  0.42447946  1
  Hf  Hf4  1  0.97146465  0.42447946  0.42447946  1
  Hf  Hf5  1  0.42447946  0.42447946  0.97146465  1
  O  O0  1  0.28800910  0.28800910  0.28800910  1
  O  O1  1  0.71199090  0.71199090  0.71199090  1
  F  F0  1  0.37167491  0.70695161  0.70695161  1
  F  F1  1  0.70695161  0.37167491  0.70695161  1
  F  F2  1  0.70695161  0.70695161  0.37167491  1
  F  F3  1  0.62832509  0.29304839  0.29304839  1
  F  F4  1  0.29304839  0.62832509  0.29304839  1
  F  F5  1  0.29304839  0.29304839  0.62832509  1
  F  F6  1  0.08971680  0.59910911  0.08971680  1
  F  F7  1  0.08971680  0.08971680  0.59910911  1
  F  F8  1  0.00000000  0.35175336  0.64824664  1
  F  F9  1  0.35175336  0.64824664  -0.00000000  1
  F  F10  1  0.64824664  1.00000000  0.35175336  1
  F  F11  1  1.00000000  0.64824664  0.35175336  1
  F  F12  1  0.64824664  0.35175336  -0.00000000  1
  F  F13  1  0.35175336  0.00000000  0.64824664  1
  F  F14  1  0.08059519  0.64894522  0.64894522  1
  F  F15  1  0.64894522  0.64894522  0.08059519  1
  F  F16  1  0.64894522  0.08059519  0.64894522  1
  F  F17  1  0.35105478  0.91940481  0.35105478  1
  F  F18  1  0.91940481  0.35105478  0.35105478  1
  F  F19  1  0.35105478  0.35105478  0.91940481  1
  F  F20  1  0.91028320  0.40089089  0.91028320  1
  F  F21  1  0.40089089  0.91028320  0.91028320  1
  F  F22  1  0.91028320  0.91028320  0.40089089  1
  F  F23  1  0.59910911  0.08971680  0.08971680  1
loop_
_geom_bond_atom_site_label_1
_geom_bond_atom_site_label_2
_geom_bond_distance
_geom_bond_site_symmetry_2
Hf0 O1 2.046673 1_554
Hf1 O1 2.046673 1_455
Hf2 O1 2.046673 1_545
Hf3 O0 2.046673 1_565
Hf4 O0 2.046673 1_655
Hf5 O0 2.046673 1_556
F0 Hf3 2.137747 1_555
F0 Hf5 2.137747 1_555
F1 Hf4 2.137747 1_555
F1 Hf5 2.137747 1_555
F2 Hf4 2.137747 1_555
F2 Hf3 2.137747 1_555
F3 Hf2 2.137747 1_555
F3 Hf0 2.137747 1_555
F4 Hf1 2.137747 1_555
F4 Hf0 2.137747 1_555
F5 Hf1 2.137747 1_555
F5 Hf2 2.137747 1_555
F6 Hf4 2.175906 1_455
F6 Hf5 2.175906 1_554
F6 Rb3 2.876342 1_454
F6 Rb0 3.081864 1_565
F7 Hf3 2.175906 1_545
F7 Hf4 2.175906 1_455
F7 Rb3 2.876342 1_445
F7 Rb0 3.081864 1_556
F8 Hf1 2.118336 1_555
F8 Hf4 2.118337 1_455
F8 Rb0 2.690671 1_556
F9 Hf5 2.118336 1_554
F9 Hf0 2.118336 1_555
F9 Rb0 2.690672 1_565
F10 Hf3 2.118336 1_555
F10 Hf2 2.118337 1_565
F10 Rb0 2.690671 1_665
F11 Hf4 2.118336 1_555
F11 Hf1 2.118337 1_655
F11 Rb0 2.690671 1_665
F12 Hf5 2.118336 1_554
F12 Hf0 2.118336 1_555
F12 Rb0 2.690672 1_655
F13 Hf2 2.118336 1_555
F13 Hf3 2.118337 1_545
F13 Rb0 2.690671 1_556
F14 Hf1 1.970767 1_555
F14 Rb1 2.783233 1_555
F14 Rb3 2.812142 1_455
F15 Hf0 1.970767 1_555
F15 Rb1 2.783233 1_555
F15 Rb3 2.812141 1_554
F16 Hf2 1.970767 1_555
F16 Rb1 2.783233 1_555
F16 Rb3 2.812142 1_545
F17 Hf3 1.970767 1_555
F17 Rb1 2.783233 1_555
F17 Rb2 2.812142 1_565
F18 Hf4 1.970767 1_555
F18 Rb1 2.783233 1_555
F18 Rb2 2.812142 1_655
F19 Hf5 1.970767 1_555
F19 Rb1 2.783233 1_555
F19 Rb2 2.812141 1_556
F20 Hf1 2.175906 1_655
F20 Hf0 2.175906 1_556
F20 Rb2 2.876342 1_656
F20 Rb0 3.081864 1_656
F21 Hf2 2.175906 1_565
F21 Hf0 2.175906 1_556
F21 Rb2 2.876342 1_566
F21 Rb0 3.081864 1_566
F22 Hf1 2.175906 1_655
F22 Hf2 2.175906 1_565
F22 Rb2 2.876342 1_665
F22 Rb0 3.081864 1_665
F23 Hf3 2.175906 1_545
F23 Hf5 2.175906 1_554
F23 Rb3 2.876342 1_544
F23 Rb0 3.081864 1_655
