# generated using pymatgen
data_Ho5Sb2Pd
_symmetry_space_group_name_H-M   'P 1'
_cell_length_a   7.92654200
_cell_length_b   8.93420500
_cell_length_c   12.12185100
_cell_angle_alpha   90.00000000
_cell_angle_beta   90.00000000
_cell_angle_gamma   90.00000000
_symmetry_Int_Tables_number   1
_chemical_formula_structural   Ho5Sb2Pd
_chemical_formula_sum   'Ho20 Sb8 Pd4'
_cell_volume   858.43737909
_cell_formula_units_Z   4
loop_
 _symmetry_equiv_pos_site_id
 _symmetry_equiv_pos_as_xyz
  1  'x, y, z'
loop_
 _atom_site_type_symbol
 _atom_site_label
 _atom_site_symmetry_multiplicity
 _atom_site_fract_x
 _atom_site_fract_y
 _atom_site_fract_z
 _atom_site_occupancy
  Ho  Ho0  1  0.16816400  0.75000000  0.21447100  1
  Ho  Ho1  1  0.33183600  0.75000000  0.71447100  1
  Ho  Ho2  1  0.83183600  0.25000000  0.78552900  1
  Ho  Ho3  1  0.66816400  0.25000000  0.28552900  1
  Ho  Ho4  1  0.46108300  0.75000000  0.00089900  1
  Ho  Ho5  1  0.03891700  0.75000000  0.50089900  1
  Ho  Ho6  1  0.53891700  0.25000000  0.99910100  1
  Ho  Ho7  1  0.96108300  0.25000000  0.49910100  1
  Ho  Ho8  1  0.63782700  0.75000000  0.29789900  1
  Ho  Ho9  1  0.86217300  0.75000000  0.79789900  1
  Ho  Ho10  1  0.36217300  0.25000000  0.70210100  1
  Ho  Ho11  1  0.13782700  0.25000000  0.20210100  1
  Ho  Ho12  1  0.81818600  0.54859700  0.06705300  1
  Ho  Ho13  1  0.68181400  0.95140300  0.56705300  1
  Ho  Ho14  1  0.18181400  0.04859700  0.93294700  1
  Ho  Ho15  1  0.31818600  0.45140300  0.43294700  1
  Ho  Ho16  1  0.18181400  0.45140300  0.93294700  1
  Ho  Ho17  1  0.31818600  0.04859700  0.43294700  1
  Ho  Ho18  1  0.81818600  0.95140300  0.06705300  1
  Ho  Ho19  1  0.68181400  0.54859700  0.56705300  1
  Sb  Sb0  1  0.93450200  0.50800000  0.32653900  1
  Sb  Sb1  1  0.56549800  0.99200000  0.82653900  1
  Sb  Sb2  1  0.06549800  0.00800000  0.67346100  1
  Sb  Sb3  1  0.43450200  0.49200000  0.17346100  1
  Sb  Sb4  1  0.06549800  0.49200000  0.67346100  1
  Sb  Sb5  1  0.43450200  0.00800000  0.17346100  1
  Sb  Sb6  1  0.93450200  0.99200000  0.32653900  1
  Sb  Sb7  1  0.56549800  0.50800000  0.82653900  1
  Pd  Pd0  1  0.41494100  0.75000000  0.48367000  1
  Pd  Pd1  1  0.08505900  0.75000000  0.98367000  1
  Pd  Pd2  1  0.58505900  0.25000000  0.51633000  1
  Pd  Pd3  1  0.91494100  0.25000000  0.01633000  1
loop_
_geom_bond_atom_site_label_1
_geom_bond_atom_site_label_2
_geom_bond_distance
_geom_bond_site_symmetry_2
Ho0 Pd1 2.874240 1_554
Ho0 Sb6 3.154428 1_455
Ho0 Sb0 3.154428 1_455
Ho0 Sb3 3.164992 1_555
Ho0 Sb5 3.164992 1_565
Ho1 Pd0 2.874240 1_555
Ho1 Sb1 3.154428 1_555
Ho1 Sb7 3.154428 1_555
Ho1 Sb4 3.164992 1_555
Ho1 Sb2 3.164992 1_565
Ho2 Pd3 2.874240 1_556
Ho2 Sb2 3.154428 1_655
Ho2 Sb4 3.154428 1_655
Ho2 Sb7 3.164992 1_555
Ho2 Sb1 3.164992 1_545
Ho3 Pd2 2.874240 1_555
Ho3 Sb5 3.154428 1_555
Ho3 Sb3 3.154428 1_555
Ho3 Sb0 3.164992 1_555
Ho3 Sb6 3.164992 1_545
Ho4 Pd1 2.987878 1_554
Ho4 Sb5 3.119782 1_565
Ho4 Sb3 3.119782 1_555
Ho4 Sb7 3.134764 1_554
Ho4 Sb1 3.134764 1_554
Ho5 Pd0 2.987878 1_555
Ho5 Sb2 3.119782 1_565
Ho5 Sb4 3.119782 1_555
Ho5 Sb0 3.134764 1_455
Ho5 Sb6 3.134764 1_455
Ho6 Pd3 2.987878 1_556
Ho6 Sb1 3.119782 1_545
Ho6 Sb7 3.119782 1_555
Ho6 Sb5 3.134764 1_556
Ho6 Sb3 3.134764 1_556
Ho7 Pd2 2.987878 1_555
Ho7 Sb6 3.119782 1_545
Ho7 Sb0 3.119782 1_555
Ho7 Sb4 3.134764 1_655
Ho7 Sb2 3.134764 1_655
Ho8 Pd0 2.862217 1_555
Ho8 Sb5 3.191540 1_565
Ho8 Sb3 3.191540 1_555
Ho8 Sb6 3.213279 1_555
Ho8 Sb0 3.213279 1_555
Ho9 Pd1 2.862217 1_655
Ho9 Sb4 3.191540 1_655
Ho9 Sb2 3.191540 1_665
Ho9 Sb1 3.213279 1_555
Ho9 Sb7 3.213279 1_555
Ho10 Pd2 2.862217 1_555
Ho10 Sb1 3.191540 1_545
Ho10 Sb7 3.191540 1_555
Ho10 Sb4 3.213279 1_555
Ho10 Sb2 3.213279 1_555
Ho11 Pd3 2.862217 1_455
Ho11 Sb6 3.191540 1_445
Ho11 Sb0 3.191540 1_455
Ho11 Sb5 3.213279 1_555
Ho11 Sb3 3.213279 1_555
Ho12 Pd3 2.843062 1_555
Ho12 Pd1 2.955370 1_654
Ho12 Sb0 3.297797 1_555
Ho12 Sb3 3.341983 1_555
Ho12 Sb7 3.555745 1_554
Ho13 Pd2 2.843062 1_565
Ho13 Pd0 2.955370 1_555
Ho13 Sb1 3.297797 1_555
Ho13 Sb2 3.341983 1_665
Ho13 Sb6 3.555745 1_555
Ho14 Pd1 2.843062 1_545
Ho14 Pd3 2.955370 1_456
Ho14 Sb2 3.297797 1_555
Ho14 Sb1 3.341983 1_545
Ho14 Sb5 3.555745 1_556
Ho15 Pd0 2.843062 1_555
Ho15 Pd2 2.955370 1_555
Ho15 Sb3 3.297797 1_555
Ho15 Sb0 3.341983 1_455
Ho15 Sb4 3.555745 1_555
Ho16 Pd1 2.843062 1_555
Ho16 Pd3 2.955370 1_456
Ho16 Sb4 3.297797 1_555
Ho16 Sb7 3.341983 1_555
Ho16 Sb3 3.555745 1_556
Ho17 Pd0 2.843062 1_545
Ho17 Pd2 2.955370 1_555
Ho17 Sb5 3.297797 1_555
Ho17 Sb6 3.341983 1_445
Ho17 Sb2 3.555745 1_555
Ho18 Pd3 2.843062 1_565
Ho18 Pd1 2.955370 1_654
Ho18 Sb6 3.297797 1_555
Ho18 Sb5 3.341983 1_565
Ho18 Sb1 3.555745 1_554
Ho19 Pd2 2.843062 1_555
Ho19 Pd0 2.955370 1_555
Ho19 Sb7 3.297797 1_555
Ho19 Sb4 3.341983 1_655
Ho19 Sb0 3.555745 1_555
