# generated using pymatgen
data_Ho4CoSn8
_symmetry_space_group_name_H-M   'P 1'
_cell_length_a   4.38318500
_cell_length_b   4.43398900
_cell_length_c   16.70875300
_cell_angle_alpha   90.00000000
_cell_angle_beta   90.00000000
_cell_angle_gamma   90.00000000
_symmetry_Int_Tables_number   1
_chemical_formula_structural   Ho4CoSn8
_chemical_formula_sum   'Ho4 Co1 Sn8'
_cell_volume   324.73451556
_cell_formula_units_Z   1
loop_
 _symmetry_equiv_pos_site_id
 _symmetry_equiv_pos_as_xyz
  1  'x, y, z'
loop_
 _atom_site_type_symbol
 _atom_site_label
 _atom_site_symmetry_multiplicity
 _atom_site_fract_x
 _atom_site_fract_y
 _atom_site_fract_z
 _atom_site_occupancy
  Ho  Ho0  1  0.25000000  0.00000000  0.09806700  1
  Ho  Ho1  1  0.25000000  0.50000000  0.60110700  1
  Ho  Ho2  1  0.75000000  0.50000000  0.39647300  1
  Ho  Ho3  1  0.75000000  0.00000000  0.89991300  1
  Co  Co0  1  0.25000000  0.00000000  0.30662600  1
  Sn  Sn0  1  0.25000000  0.00000000  0.45285700  1
  Sn  Sn1  1  0.25000000  0.50000000  0.93750700  1
  Sn  Sn2  1  0.75000000  0.50000000  0.06266600  1
  Sn  Sn3  1  0.75000000  0.00000000  0.57107000  1
  Sn  Sn4  1  0.25000000  0.50000000  0.23587200  1
  Sn  Sn5  1  0.25000000  0.00000000  0.74527000  1
  Sn  Sn6  1  0.75000000  0.00000000  0.23808700  1
  Sn  Sn7  1  0.75000000  0.50000000  0.75448500  1
loop_
_geom_bond_atom_site_label_1
_geom_bond_atom_site_label_2
_geom_bond_distance
_geom_bond_site_symmetry_2
Ho0 Sn2 3.173015 1_455
Ho0 Sn2 3.173015 1_445
Ho0 Sn2 3.173015 1_555
Ho0 Sn2 3.173015 1_545
Ho0 Sn4 3.196373 1_555
Ho0 Sn4 3.196373 1_545
Ho0 Sn6 3.205716 1_555
Ho0 Sn6 3.205716 1_455
Ho0 Sn1 3.480266 1_544
Ho0 Sn1 3.480266 1_554
Ho1 Sn3 3.157535 1_455
Ho1 Sn3 3.157535 1_555
Ho1 Sn3 3.157535 1_565
Ho1 Sn3 3.157535 1_465
Ho1 Sn5 3.273729 1_565
Ho1 Sn5 3.273729 1_555
Ho1 Sn0 3.324297 1_555
Ho1 Sn0 3.324297 1_565
Ho1 Sn7 3.372060 1_455
Ho1 Sn7 3.372060 1_555
Ho2 Sn0 3.256640 1_555
Ho2 Sn0 3.256640 1_565
Ho2 Sn0 3.256640 1_655
Ho2 Sn0 3.256640 1_665
Ho2 Sn6 3.452343 1_565
Ho2 Sn6 3.452343 1_555
Ho2 Sn4 3.464670 1_655
Ho2 Sn4 3.464670 1_555
Ho2 Sn3 3.664109 1_555
Ho2 Sn3 3.664109 1_565
Ho3 Sn1 3.180049 1_655
Ho3 Sn1 3.180049 1_545
Ho3 Sn1 3.180049 1_645
Ho3 Sn1 3.180049 1_555
Ho3 Sn7 3.289313 1_545
Ho3 Sn7 3.289313 1_555
Ho3 Sn5 3.388152 1_555
Ho3 Sn5 3.388152 1_655
Ho3 Sn2 3.508589 1_556
Ho3 Sn2 3.508589 1_546
Co0 Sn0 2.443338 1_555
Co0 Sn6 2.472764 1_555
Co0 Sn6 2.472764 1_455
Co0 Sn4 2.512506 1_545
Co0 Sn4 2.512506 1_555
Co0 Ho2 3.460034 1_455
Co0 Ho2 3.460034 1_555
Co0 Ho2 3.460034 1_545
Co0 Ho2 3.460034 1_445
Sn0 Sn3 2.950332 1_455
Sn0 Sn3 2.950332 1_555
Sn1 Sn2 3.029259 1_556
Sn1 Sn2 3.029259 1_456
Sn4 Sn6 3.117613 1_565
Sn4 Sn6 3.117613 1_455
Sn4 Sn6 3.117613 1_555
Sn4 Sn6 3.117613 1_465
Sn5 Sn7 3.121194 1_545
Sn5 Sn7 3.121194 1_455
Sn5 Sn7 3.121194 1_555
Sn5 Sn7 3.121194 1_445
