# generated using pymatgen
data_BaGa4Se7
_symmetry_space_group_name_H-M   'P 1'
_cell_length_a   6.59331972
_cell_length_b   7.69455763
_cell_length_c   14.83515140
_cell_angle_alpha   58.96791641
_cell_angle_beta   90.00000000
_cell_angle_gamma   90.00000000
_symmetry_Int_Tables_number   1
_chemical_formula_structural   BaGa4Se7
_chemical_formula_sum   'Ba2 Ga8 Se14'
_cell_volume   644.91006523
_cell_formula_units_Z   2
loop_
 _symmetry_equiv_pos_site_id
 _symmetry_equiv_pos_as_xyz
  1  'x, y, z'
loop_
 _atom_site_type_symbol
 _atom_site_label
 _atom_site_symmetry_multiplicity
 _atom_site_fract_x
 _atom_site_fract_y
 _atom_site_fract_z
 _atom_site_occupancy
  Ba  Ba0  1  0.35209107  0.56565644  0.45306186  1
  Ba  Ba1  1  0.64790893  0.56565644  0.95306186  1
  Ga  Ga0  1  0.16547962  0.00852739  0.75914597  1
  Ga  Ga1  1  0.83452038  0.00852739  0.25914597  1
  Ga  Ga2  1  0.01027022  -0.00031254  0.49966502  1
  Ga  Ga3  1  0.98972978  -0.00031254  -0.00033498  1
  Ga  Ga4  1  0.15802416  0.49125077  0.77254806  1
  Ga  Ga5  1  0.84197584  0.49125077  0.27254806  1
  Ga  Ga6  1  0.36279026  0.23686491  0.27535703  1
  Ga  Ga7  1  0.63720974  0.23686491  0.77535703  1
  Se  Se0  1  0.14913146  0.78649280  0.94493934  1
  Se  Se1  1  0.85086854  0.78649280  0.44493934  1
  Se  Se2  1  0.36226545  0.00457775  0.46028252  1
  Se  Se3  1  0.63773455  0.00457775  0.96028252  1
  Se  Se4  1  0.10636986  0.32735048  0.95685659  1
  Se  Se5  1  0.89363014  0.32735048  0.45685659  1
  Se  Se6  1  0.01927561  0.32822154  0.19153692  1
  Se  Se7  1  0.98072439  0.32822154  0.69153692  1
  Se  Se8  1  0.51127899  0.10034864  0.17741611  1
  Se  Se9  1  0.48872101  0.10034864  0.67741611  1
  Se  Se10  1  0.49667016  0.56563060  0.22216312  1
  Se  Se11  1  0.50332984  0.56563060  0.72216312  1
  Se  Se12  1  0.02459866  0.81731023  0.19498646  1
  Se  Se13  1  0.97540134  0.81731023  0.69498646  1
loop_
_geom_bond_atom_site_label_1
_geom_bond_atom_site_label_2
_geom_bond_distance
_geom_bond_site_symmetry_2
Ba0 Se2 3.434410 1_565
Ba0 Se5 3.520829 1_455
Ba0 Se9 3.524448 1_555
Ba0 Se10 3.555684 1_555
Ba0 Se1 3.675011 1_555
Ba0 Se1 3.689444 1_455
Ba0 Se7 3.896820 1_455
Ba0 Se12 3.927643 1_555
Ba0 Se5 4.000975 1_555
Ba1 Se3 3.434410 1_565
Ba1 Se4 3.520829 1_655
Ba1 Se8 3.524448 1_556
Ba1 Se11 3.555684 1_555
Ba1 Se0 3.675011 1_555
Ba1 Se0 3.689444 1_655
Ba1 Se6 3.896820 1_656
Ba1 Se13 3.927643 1_555
Ba1 Se4 4.000975 1_555
Ga0 Se9 2.372383 1_555
Ga0 Se0 2.381672 1_545
Ga0 Se7 2.448914 1_455
Ga0 Se13 2.466840 1_445
Ga1 Se8 2.372383 1_555
Ga1 Se1 2.381672 1_545
Ga1 Se6 2.448914 1_655
Ga1 Se12 2.466840 1_645
Ga2 Se5 2.387564 1_455
Ga2 Se2 2.388783 1_555
Ga2 Se1 2.414100 1_445
Ga2 Se13 2.495173 1_445
Ga3 Se4 2.387564 1_654
Ga3 Se3 2.388783 1_554
Ga3 Se0 2.414100 1_644
Ga3 Se12 2.495173 1_645
Ga4 Se4 2.372188 1_555
Ga4 Se11 2.372468 1_555
Ga4 Se7 2.436987 1_455
Ga4 Se13 2.468175 1_455
Ga5 Se5 2.372188 1_555
Ga5 Se10 2.372468 1_555
Ga5 Se6 2.436987 1_655
Ga5 Se12 2.468175 1_655
Ga6 Se2 2.380182 1_555
Ga6 Se10 2.396475 1_555
Ga6 Se8 2.397216 1_555
Ga6 Se6 2.503784 1_555
Ga7 Se3 2.380182 1_555
Ga7 Se11 2.396475 1_555
Ga7 Se9 2.397216 1_555
Ga7 Se7 2.503784 1_555
