# generated using pymatgen
data_Tb3OsO7
_symmetry_space_group_name_H-M   'P 1'
_cell_length_a   6.41116638
_cell_length_b   6.41116638
_cell_length_c   7.37883507
_cell_angle_alpha   90.00000000
_cell_angle_beta   90.00000000
_cell_angle_gamma   110.32739148
_symmetry_Int_Tables_number   1
_chemical_formula_structural   Tb3OsO7
_chemical_formula_sum   'Tb6 Os2 O14'
_cell_volume   284.40449253
_cell_formula_units_Z   2
loop_
 _symmetry_equiv_pos_site_id
 _symmetry_equiv_pos_as_xyz
  1  'x, y, z'
loop_
 _atom_site_type_symbol
 _atom_site_label
 _atom_site_symmetry_multiplicity
 _atom_site_fract_x
 _atom_site_fract_y
 _atom_site_fract_z
 _atom_site_occupancy
  Tb  Tb0  1  -0.00000000  -0.00000000  0.50000000  1
  Tb  Tb1  1  -0.00000000  -0.00000000  -0.00000000  1
  Tb  Tb2  1  0.51986414  0.06827997  0.25000000  1
  Tb  Tb3  1  0.93172003  0.48013586  0.75000000  1
  Tb  Tb4  1  0.48013586  0.93172003  0.75000000  1
  Tb  Tb5  1  0.06827997  0.51986414  0.25000000  1
  Os  Os0  1  0.50000000  0.50000000  0.50000000  1
  Os  Os1  1  0.50000000  0.50000000  -0.00000000  1
  O  O0  1  0.43698542  0.18087950  0.53815409  1
  O  O1  1  0.81912050  0.56301458  0.46184591  1
  O  O2  1  0.43698542  0.18087950  0.96184591  1
  O  O3  1  0.81912050  0.56301458  0.03815409  1
  O  O4  1  0.56301458  0.81912050  0.46184591  1
  O  O5  1  0.18087950  0.43698542  0.53815409  1
  O  O6  1  0.56301458  0.81912050  0.03815409  1
  O  O7  1  0.18087950  0.43698542  0.96184591  1
  O  O8  1  0.15551012  0.88925013  0.25000000  1
  O  O9  1  0.11074987  0.84448988  0.75000000  1
  O  O10  1  0.84448988  0.11074987  0.75000000  1
  O  O11  1  0.88925013  0.15551012  0.25000000  1
  O  O12  1  0.40808095  0.40808095  0.25000000  1
  O  O13  1  0.59191905  0.59191905  0.75000000  1
loop_
_geom_bond_atom_site_label_1
_geom_bond_atom_site_label_2
_geom_bond_distance
_geom_bond_site_symmetry_2
O0 Os0 1.963176 1_555
O0 Tb4 2.319218 1_545
O0 Tb2 2.364501 1_555
O0 Tb0 2.648722 1_555
O1 Os0 1.963176 1_555
O1 Tb5 2.319218 1_655
O1 Tb3 2.364501 1_555
O1 Tb0 2.648722 1_665
O2 Os1 1.963176 1_556
O2 Tb4 2.319218 1_545
O2 Tb2 2.364501 1_556
O2 Tb1 2.648722 1_556
O3 Os1 1.963176 1_555
O3 Tb5 2.319218 1_655
O3 Tb3 2.364501 1_554
O3 Tb1 2.648722 1_665
O4 Os0 1.963176 1_555
O4 Tb2 2.319218 1_565
O4 Tb4 2.364501 1_555
O4 Tb0 2.648722 1_665
O5 Os0 1.963176 1_555
O5 Tb3 2.319218 1_455
O5 Tb5 2.364501 1_555
O5 Tb0 2.648722 1_555
O6 Os1 1.963176 1_555
O6 Tb2 2.319218 1_565
O6 Tb4 2.364501 1_554
O6 Tb1 2.648722 1_665
O7 Os1 1.963176 1_556
O7 Tb3 2.319218 1_455
O7 Tb5 2.364501 1_556
O7 Tb1 2.648722 1_556
O8 Tb2 2.216128 1_565
O8 Tb5 2.236280 1_555
O8 Tb0 2.322271 1_565
O8 Tb1 2.322271 1_565
O9 Tb3 2.216128 1_455
O9 Tb4 2.236280 1_555
O9 Tb1 2.322271 1_566
O9 Tb0 2.322271 1_565
O10 Tb4 2.216128 1_545
O10 Tb3 2.236280 1_555
O10 Tb1 2.322271 1_656
O10 Tb0 2.322271 1_655
O11 Tb5 2.216128 1_655
O11 Tb2 2.236280 1_555
O11 Tb1 2.322271 1_655
O11 Tb0 2.322271 1_655
O12 Os1 1.963730 1_555
O12 Os0 1.963730 1_555
O12 Tb2 2.518783 1_555
O12 Tb5 2.518783 1_555
O13 Os1 1.963730 1_556
O13 Os0 1.963730 1_555
O13 Tb3 2.518783 1_555
O13 Tb4 2.518783 1_555
