# generated using pymatgen
data_Co5Sn(BO5)2
_symmetry_space_group_name_H-M   'P 1'
_cell_length_a   3.18324900
_cell_length_b   9.51803100
_cell_length_c   12.46535900
_cell_angle_alpha   90.00000000
_cell_angle_beta   90.00000000
_cell_angle_gamma   90.00000000
_symmetry_Int_Tables_number   1
_chemical_formula_structural   Co5Sn(BO5)2
_chemical_formula_sum   'Co10 Sn2 B4 O20'
_cell_volume   377.67872117
_cell_formula_units_Z   2
loop_
 _symmetry_equiv_pos_site_id
 _symmetry_equiv_pos_as_xyz
  1  'x, y, z'
loop_
 _atom_site_type_symbol
 _atom_site_label
 _atom_site_symmetry_multiplicity
 _atom_site_fract_x
 _atom_site_fract_y
 _atom_site_fract_z
 _atom_site_occupancy
  Co  Co0  1  0.00000000  0.73383100  0.49461100  1
  Co  Co1  1  0.00000000  0.26616900  0.99461100  1
  Co  Co2  1  0.50000000  0.26803300  0.21959700  1
  Co  Co3  1  0.50000000  0.26310900  0.78307100  1
  Co  Co4  1  0.50000000  0.73689100  0.28307100  1
  Co  Co5  1  0.50000000  0.73196700  0.71959700  1
  Co  Co6  1  0.50000000  0.26660400  0.49785000  1
  Co  Co7  1  0.50000000  0.73339600  0.99785000  1
  Co  Co8  1  0.00000000  0.48774800  0.38365500  1
  Co  Co9  1  0.00000000  0.51225200  0.88365500  1
  Sn  Sn0  1  0.00000000  0.00819600  0.61528800  1
  Sn  Sn1  1  0.00000000  0.99180400  0.11528800  1
  B  B0  1  0.00000000  0.52562800  0.13884000  1
  B  B1  1  0.00000000  0.98108700  0.86160600  1
  B  B2  1  0.00000000  0.01891300  0.36160600  1
  B  B3  1  0.00000000  0.47437200  0.63884000  1
  O  O0  1  0.50000000  0.35594500  0.35682700  1
  O  O1  1  0.50000000  0.14604800  0.64302500  1
  O  O2  1  0.50000000  0.85395200  0.14302500  1
  O  O3  1  0.50000000  0.64405500  0.85682700  1
  O  O4  1  0.00000000  0.37812500  0.13847900  1
  O  O5  1  0.00000000  0.12489200  0.85891300  1
  O  O6  1  0.00000000  0.87510800  0.35891300  1
  O  O7  1  0.00000000  0.62187500  0.63847900  1
  O  O8  1  0.00000000  0.59812100  0.23521500  1
  O  O9  1  0.00000000  0.90382100  0.76543100  1
  O  O10  1  0.00000000  0.09617900  0.26543100  1
  O  O11  1  0.00000000  0.40187900  0.73521500  1
  O  O12  1  0.00000000  0.39922500  0.54341500  1
  O  O13  1  0.00000000  0.09692600  0.45791800  1
  O  O14  1  0.00000000  0.90307400  0.95791800  1
  O  O15  1  0.00000000  0.60077500  0.04341500  1
  O  O16  1  0.50000000  0.64116200  0.42330300  1
  O  O17  1  0.50000000  0.86716600  0.58295600  1
  O  O18  1  0.50000000  0.13283400  0.08295600  1
  O  O19  1  0.50000000  0.35883800  0.92330300  1
loop_
_geom_bond_atom_site_label_1
_geom_bond_atom_site_label_2
_geom_bond_distance
_geom_bond_site_symmetry_2
Co0 O16 2.025178 1_455
Co0 O16 2.025178 1_555
Co0 O7 2.086065 1_555
Co0 O6 2.160883 1_555
Co0 O17 2.314434 1_455
Co0 O17 2.314434 1_555
Co1 O19 2.025178 1_455
Co1 O19 2.025178 1_555
Co1 O4 2.086065 1_556
Co1 O5 2.160883 1_555
Co1 O18 2.314434 1_456
Co1 O18 2.314434 1_556
Co2 O0 1.904304 1_555
Co2 O18 2.134733 1_555
Co2 O4 2.157251 1_555
Co2 O4 2.157251 1_655
Co2 O10 2.352711 1_555
Co2 O10 2.352711 1_655
Co3 O19 1.971256 1_555
Co3 O1 2.070983 1_555
Co3 O11 2.152601 1_555
Co3 O11 2.152601 1_655
Co3 O5 2.271063 1_555
Co3 O5 2.271063 1_655
Co4 O16 1.971256 1_555
Co4 O2 2.070983 1_555
Co4 O8 2.152601 1_555
Co4 O8 2.152601 1_655
Co4 O6 2.271063 1_655
Co4 O6 2.271063 1_555
Co5 O3 1.904304 1_555
Co5 O17 2.134733 1_555
Co5 O7 2.157251 1_655
Co5 O7 2.157251 1_555
Co5 O9 2.352711 1_655
Co5 O9 2.352711 1_555
Co6 O0 1.952771 1_555
Co6 O12 2.109325 1_655
Co6 O12 2.109325 1_555
Co6 O1 2.142783 1_555
Co6 O13 2.321479 1_655
Co6 O13 2.321479 1_555
Co7 O3 1.952771 1_555
Co7 O15 2.109325 1_656
Co7 O15 2.109325 1_556
Co7 O2 2.142783 1_556
Co7 O14 2.321479 1_655
Co7 O14 2.321479 1_555
Co8 O0 2.053993 1_555
Co8 O0 2.053993 1_455
Co8 O8 2.127779 1_555
Co8 O12 2.162372 1_555
Co8 O16 2.215787 1_455
Co8 O16 2.215787 1_555
Co9 O3 2.053993 1_455
Co9 O3 2.053993 1_555
Co9 O11 2.127779 1_555
Co9 O15 2.162372 1_556
Co9 O19 2.215787 1_455
Co9 O19 2.215787 1_555
B0 O8 1.385398 1_555
B0 O15 1.387988 1_555
B0 O4 1.403945 1_555
B1 O5 1.369152 1_565
B1 O9 1.406449 1_555
B1 O14 1.411632 1_555
B2 O6 1.369152 1_545
B2 O10 1.406449 1_555
B2 O13 1.411632 1_555
B3 O11 1.385398 1_555
B3 O12 1.387988 1_555
B3 O7 1.403945 1_555
O1 Sn0 2.091498 1_655
O1 Sn0 2.091498 1_555
O2 Sn1 2.091498 1_555
O2 Sn1 2.091498 1_655
O9 Sn0 2.118907 1_565
O10 Sn1 2.118907 1_545
O13 Sn0 2.135744 1_555
O14 Sn1 2.135744 1_556
O17 Sn0 2.120742 1_565
O17 Sn0 2.120742 1_665
O18 Sn1 2.120742 1_645
O18 Sn1 2.120742 1_545
