# generated using pymatgen
data_MgMnO2
_symmetry_space_group_name_H-M   'P 1'
_cell_length_a   3.03837500
_cell_length_b   5.31994500
_cell_length_c   5.34859100
_cell_angle_alpha   90.00000000
_cell_angle_beta   90.00000000
_cell_angle_gamma   90.00000000
_symmetry_Int_Tables_number   1
_chemical_formula_structural   MgMnO2
_chemical_formula_sum   'Mg2 Mn2 O4'
_cell_volume   86.45456015
_cell_formula_units_Z   2
loop_
 _symmetry_equiv_pos_site_id
 _symmetry_equiv_pos_as_xyz
  1  'x, y, z'
loop_
 _atom_site_type_symbol
 _atom_site_label
 _atom_site_symmetry_multiplicity
 _atom_site_fract_x
 _atom_site_fract_y
 _atom_site_fract_z
 _atom_site_occupancy
  Mg  Mg0  1  0.00000000  0.50000000  0.00000000  1
  Mg  Mg1  1  0.50000000  0.00000000  0.50000000  1
  Mn  Mn0  1  0.50000000  0.00000000  0.00000000  1
  Mn  Mn1  1  0.00000000  0.50000000  0.50000000  1
  O  O0  1  0.00000000  0.16366000  0.26503800  1
  O  O1  1  0.50000000  0.66366000  0.23496200  1
  O  O2  1  0.00000000  0.83634000  0.73496200  1
  O  O3  1  0.50000000  0.33634000  0.76503800  1
loop_
_geom_bond_atom_site_label_1
_geom_bond_atom_site_label_2
_geom_bond_distance
_geom_bond_site_symmetry_2
Mg0 O1 2.155300 1_455
Mg0 O1 2.155300 1_555
Mg0 O3 2.155300 1_454
Mg0 O3 2.155300 1_554
Mg0 O0 2.282797 1_555
Mg0 O2 2.282797 1_554
Mg1 O2 2.155300 1_645
Mg1 O2 2.155300 1_545
Mg1 O0 2.155300 1_655
Mg1 O0 2.155300 1_555
Mg1 O3 2.282797 1_555
Mg1 O1 2.282797 1_545
Mn0 O1 2.186542 1_545
Mn0 O3 2.186542 1_554
Mn0 O0 2.252891 1_655
Mn0 O2 2.252891 1_644
Mn0 O0 2.252891 1_555
Mn0 O2 2.252891 1_544
Mn1 O0 2.186542 1_555
Mn1 O2 2.186542 1_555
Mn1 O3 2.252891 1_555
Mn1 O3 2.252891 1_455
Mn1 O1 2.252891 1_455
Mn1 O1 2.252891 1_555
