# generated using pymatgen
data_CaH24C6(BrO3)2
_symmetry_space_group_name_H-M   'P 1'
_cell_length_a   7.29520600
_cell_length_b   8.60601704
_cell_length_c   8.60610384
_cell_angle_alpha   120.00013406
_cell_angle_beta   90.00004991
_cell_angle_gamma   89.99993558
_symmetry_Int_Tables_number   1
_chemical_formula_structural   CaH24C6(BrO3)2
_chemical_formula_sum   'Ca1 H24 C6 Br2 O6'
_cell_volume   467.92515007
_cell_formula_units_Z   1
loop_
 _symmetry_equiv_pos_site_id
 _symmetry_equiv_pos_as_xyz
  1  'x, y, z'
loop_
 _atom_site_type_symbol
 _atom_site_label
 _atom_site_symmetry_multiplicity
 _atom_site_fract_x
 _atom_site_fract_y
 _atom_site_fract_z
 _atom_site_occupancy
  Ca  Ca0  1  0.50000000  0.00000000  0.00000000  1
  H  H0  1  0.32345400  0.11674900  0.36269500  1
  H  H1  1  0.32345100  0.63731100  0.75405600  1
  H  H2  1  0.32345700  0.24595100  0.88325500  1
  H  H3  1  0.67654600  0.88325100  0.63730500  1
  H  H4  1  0.67654900  0.36268900  0.24594400  1
  H  H5  1  0.67654300  0.75404900  0.11674500  1
  H  H6  1  0.30817900  0.80636300  0.29258800  1
  H  H7  1  0.30818100  0.70741300  0.51377500  1
  H  H8  1  0.30818000  0.48622600  0.19363800  1
  H  H9  1  0.69182100  0.19363700  0.70741200  1
  H  H10  1  0.69181900  0.29258700  0.48622500  1
  H  H11  1  0.69182000  0.51377400  0.80636200  1
  H  H12  1  0.09420200  0.91762100  0.31161700  1
  H  H13  1  0.09420400  0.68838300  0.60600400  1
  H  H14  1  0.09420100  0.39399800  0.08238000  1
  H  H15  1  0.90579800  0.08237900  0.68838300  1
  H  H16  1  0.90579600  0.31161700  0.39399600  1
  H  H17  1  0.90579900  0.60600200  0.91762000  1
  H  H18  1  0.18963400  0.77105300  0.09595100  1
  H  H19  1  0.18963300  0.90405400  0.67510300  1
  H  H20  1  0.18963500  0.32489600  0.22894500  1
  H  H21  1  0.81036600  0.22894700  0.90404900  1
  H  H22  1  0.81036700  0.09594600  0.32489700  1
  H  H23  1  0.81036500  0.67510400  0.77105500  1
  C  C0  1  0.22207600  0.86964300  0.23564000  1
  C  C1  1  0.22207500  0.76436000  0.63400500  1
  C  C2  1  0.22207600  0.36599600  0.13035600  1
  C  C3  1  0.77792400  0.13035700  0.76436000  1
  C  C4  1  0.77792500  0.23564000  0.36599500  1
  C  C5  1  0.77792400  0.63400400  0.86964400  1
  Br  Br0  1  0.28300800  0.33333400  0.66666700  1
  Br  Br1  1  0.71699200  0.66666600  0.33333300  1
  O  O0  1  0.31971900  0.01675500  0.23670900  1
  O  O1  1  0.31971900  0.76329300  0.78004500  1
  O  O2  1  0.31971800  0.21995500  0.98324500  1
  O  O3  1  0.68028100  0.98324500  0.76329100  1
  O  O4  1  0.68028100  0.23670700  0.21995500  1
  O  O5  1  0.68028200  0.78004500  0.01675500  1
loop_
_geom_bond_atom_site_label_1
_geom_bond_atom_site_label_2
_geom_bond_distance
_geom_bond_site_symmetry_2
Ca0 O1 2.367832 1_544
Ca0 O4 2.367832 1_555
Ca0 O2 2.367844 1_554
Ca0 O5 2.367844 1_545
Ca0 O3 2.367851 1_544
Ca0 O0 2.367851 1_555
H0 O0 0.991882 1_555
H1 O1 0.991849 1_555
H2 O2 0.991875 1_555
H3 O3 0.991882 1_555
H4 O4 0.991849 1_555
H5 O5 0.991875 1_555
C0 H6 1.094640 1_555
C0 H12 1.094663 1_555
C0 H18 1.095960 1_555
C0 O0 1.448698 1_565
C1 H13 1.094640 1_555
C1 H7 1.094669 1_555
C1 H19 1.095994 1_555
C1 O1 1.448681 1_555
C2 H8 1.094653 1_555
C2 H14 1.094670 1_555
C2 H20 1.095959 1_555
C2 O2 1.448686 1_554
C3 H9 1.094640 1_555
C3 H15 1.094663 1_555
C3 H21 1.095960 1_555
C3 O3 1.448698 1_545
C4 H16 1.094640 1_555
C4 H10 1.094669 1_555
C4 H22 1.095994 1_555
C4 O4 1.448681 1_555
C5 H11 1.094653 1_555
C5 H17 1.094670 1_555
C5 H23 1.095959 1_555
C5 O5 1.448686 1_556
