# generated using pymatgen
data_FeHO2
_symmetry_space_group_name_H-M   'P 1'
_cell_length_a   12.84878800
_cell_length_b   2.97570500
_cell_length_c   4.69376025
_cell_angle_alpha   89.88028785
_cell_angle_beta   90.00000000
_cell_angle_gamma   90.00000000
_symmetry_Int_Tables_number   1
_chemical_formula_structural   FeHO2
_chemical_formula_sum   'Fe4 H4 O8'
_cell_volume   179.46178890
_cell_formula_units_Z   4
loop_
 _symmetry_equiv_pos_site_id
 _symmetry_equiv_pos_as_xyz
  1  'x, y, z'
loop_
 _atom_site_type_symbol
 _atom_site_label
 _atom_site_symmetry_multiplicity
 _atom_site_fract_x
 _atom_site_fract_y
 _atom_site_fract_z
 _atom_site_occupancy
  Fe  Fe0  1  0.66348900  0.90682300  0.30739600  1
  Fe  Fe1  1  0.16348900  0.09317700  0.69260400  1
  Fe  Fe2  1  0.33171300  0.59844300  0.23621200  1
  Fe  Fe3  1  0.83171300  0.40155700  0.76378800  1
  H  H0  1  0.35288800  0.08771500  0.75149100  1
  H  H1  1  0.85288800  0.91228500  0.24850900  1
  H  H2  1  0.51314700  0.33570500  0.19220300  1
  H  H3  1  0.01314700  0.66429500  0.80779700  1
  O  O0  1  0.30052000  0.08816700  0.91232400  1
  O  O1  1  0.80052000  0.91183300  0.08767600  1
  O  O2  1  0.70355100  0.40734400  0.55867200  1
  O  O3  1  0.20355100  0.59265600  0.44132800  1
  O  O4  1  0.40564400  0.09786400  0.39531300  1
  O  O5  1  0.90564400  0.90213600  0.60468700  1
  O  O6  1  0.58372900  0.40780200  0.11902800  1
  O  O7  1  0.08372900  0.59219800  0.88097200  1
loop_
_geom_bond_atom_site_label_1
_geom_bond_atom_site_label_2
_geom_bond_distance
_geom_bond_site_symmetry_2
Fe0 O2 1.964125 1_555
Fe0 O2 1.970198 1_565
Fe0 O6 2.010601 1_555
Fe0 O6 2.012177 1_565
Fe0 O1 2.040531 1_555
Fe1 O3 1.964125 1_555
Fe1 O3 1.970198 1_545
Fe1 O7 2.010601 1_555
Fe1 O7 2.012177 1_545
Fe1 O0 2.040531 1_555
Fe2 O3 1.907578 1_555
Fe2 O4 1.916574 1_565
Fe2 O4 1.916827 1_555
Fe2 O0 2.141540 1_564
Fe2 O0 2.187940 1_554
Fe3 O2 1.907578 1_555
Fe3 O5 1.916574 1_545
Fe3 O5 1.916827 1_555
Fe3 O1 2.141540 1_546
Fe3 O1 2.187940 1_556
H0 O0 1.011259 1_555
H1 O1 1.011259 1_555
H2 O6 0.993047 1_555
H3 O7 0.993047 1_555
