# generated using pymatgen
data_LiCu2BP2(HO5)2
_symmetry_space_group_name_H-M   'P 1'
_cell_length_a   4.82770100
_cell_length_b   8.15443100
_cell_length_c   9.79644568
_cell_angle_alpha   92.11332830
_cell_angle_beta   90.00000000
_cell_angle_gamma   107.21852967
_symmetry_Int_Tables_number   1
_chemical_formula_structural   LiCu2BP2(HO5)2
_chemical_formula_sum   'Li2 Cu4 B2 P4 H4 O20'
_cell_volume   368.09940091
_cell_formula_units_Z   2
loop_
 _symmetry_equiv_pos_site_id
 _symmetry_equiv_pos_as_xyz
  1  'x, y, z'
loop_
 _atom_site_type_symbol
 _atom_site_label
 _atom_site_symmetry_multiplicity
 _atom_site_fract_x
 _atom_site_fract_y
 _atom_site_fract_z
 _atom_site_occupancy
  Li  Li0  1  0.00000000  0.50000000  0.00000000  1
  Li  Li1  1  0.50000000  0.50000000  0.50000000  1
  Cu  Cu0  1  0.85393700  0.29307500  0.73036100  1
  Cu  Cu1  1  0.56086200  0.70692500  0.76963900  1
  Cu  Cu2  1  0.14606300  0.70692500  0.26963900  1
  Cu  Cu3  1  0.43913800  0.29307500  0.23036100  1
  B  B0  1  0.28219200  0.00000000  0.75000000  1
  B  B1  1  0.71780800  0.00000000  0.25000000  1
  P  P0  1  0.32368100  0.28522100  0.91147900  1
  P  P1  1  0.03846100  0.71477900  0.58852100  1
  P  P2  1  0.67631900  0.71477900  0.08852100  1
  P  P3  1  0.96153900  0.28522100  0.41147900  1
  H  H0  1  0.41785900  0.14842400  0.58886700  1
  H  H1  1  0.26943600  0.85157600  0.91113300  1
  H  H2  1  0.58214100  0.85157600  0.41113300  1
  H  H3  1  0.73056400  0.14842400  0.08886700  1
  O  O0  1  0.15536200  0.10462800  0.84239600  1
  O  O1  1  0.05073500  0.89537200  0.65760400  1
  O  O2  1  0.84463800  0.89537200  0.15760400  1
  O  O3  1  0.94926500  0.10462800  0.34239600  1
  O  O4  1  0.65481200  0.31621700  0.90353300  1
  O  O5  1  0.33859500  0.68378300  0.59646700  1
  O  O6  1  0.34518800  0.68378300  0.09646700  1
  O  O7  1  0.66140500  0.31621700  0.40353300  1
  O  O8  1  0.21896600  0.41983400  0.83359500  1
  O  O9  1  0.79913300  0.58016600  0.66640500  1
  O  O10  1  0.78103400  0.58016600  0.16640500  1
  O  O11  1  0.20086700  0.41983400  0.33359500  1
  O  O12  1  0.22495100  0.29275800  0.06019600  1
  O  O13  1  0.93219300  0.70724200  0.43980400  1
  O  O14  1  0.77504900  0.70724200  0.93980400  1
  O  O15  1  0.06780700  0.29275800  0.56019600  1
  O  O16  1  0.51240200  0.10611200  0.66256000  1
  O  O17  1  0.40629000  0.89388800  0.83744000  1
  O  O18  1  0.48759800  0.89388800  0.33744000  1
  O  O19  1  0.59371000  0.10611200  0.16256000  1
loop_
_geom_bond_atom_site_label_1
_geom_bond_atom_site_label_2
_geom_bond_distance
_geom_bond_site_symmetry_2
Li0 O6 2.081612 1_555
Li0 O4 2.081612 1_454
Li0 O10 2.129037 1_455
Li0 O8 2.129037 1_554
Li0 O12 2.354375 1_555
Li0 O14 2.354375 1_454
Li1 O5 2.081612 1_555
Li1 O7 2.081612 1_555
Li1 O9 2.129040 1_555
Li1 O11 2.129040 1_555
Li1 O15 2.354375 1_555
Li1 O13 2.354375 1_555
Cu0 O15 1.961187 1_655
Cu0 O16 1.980208 1_555
Cu0 O4 1.980288 1_555
Cu0 O8 2.010279 1_655
Cu0 O9 2.533380 1_555
Cu1 O14 1.961187 1_555
Cu1 O17 1.980208 1_555
Cu1 O5 1.980288 1_555
Cu1 O9 2.010282 1_555
Cu1 O8 2.533382 1_555
Cu2 O13 1.961187 1_455
Cu2 O18 1.980208 1_555
Cu2 O6 1.980288 1_555
Cu2 O10 2.010279 1_455
Cu2 O11 2.533380 1_555
Cu3 O12 1.961187 1_555
Cu3 O19 1.980208 1_555
Cu3 O7 1.980288 1_555
Cu3 O11 2.010282 1_555
Cu3 O10 2.533382 1_555
B0 O1 1.474599 1_545
B0 O0 1.474602 1_555
B0 O17 1.484246 1_545
B0 O16 1.484246 1_555
B1 O3 1.474599 1_555
B1 O2 1.474602 1_545
B1 O19 1.484246 1_555
B1 O18 1.484246 1_545
H0 O16 0.979876 1_555
H1 O17 0.979873 1_555
H2 O18 0.979876 1_555
H3 O19 0.979873 1_555
O0 P0 1.582722 1_555
O1 P1 1.582722 1_555
O2 P2 1.582722 1_555
O3 P3 1.582722 1_555
O4 P0 1.545221 1_555
O5 P1 1.545216 1_555
O6 P2 1.545221 1_555
O7 P3 1.545216 1_555
O8 P0 1.559789 1_555
O9 P1 1.559789 1_655
O10 P2 1.559789 1_555
O11 P3 1.559789 1_455
O12 P0 1.537613 1_554
O13 P1 1.537614 1_655
O14 P2 1.537613 1_556
O15 P3 1.537614 1_455
