# generated using pymatgen
data_Nd3Al
_symmetry_space_group_name_H-M   'P 1'
_cell_length_a   7.12975981
_cell_length_b   7.12975981
_cell_length_c   5.34628340
_cell_angle_alpha   90.00000000
_cell_angle_beta   90.00000000
_cell_angle_gamma   119.99999374
_symmetry_Int_Tables_number   1
_chemical_formula_structural   Nd3Al
_chemical_formula_sum   'Nd6 Al2'
_cell_volume   235.35987995
_cell_formula_units_Z   2
loop_
 _symmetry_equiv_pos_site_id
 _symmetry_equiv_pos_as_xyz
  1  'x, y, z'
loop_
 _atom_site_type_symbol
 _atom_site_label
 _atom_site_symmetry_multiplicity
 _atom_site_fract_x
 _atom_site_fract_y
 _atom_site_fract_z
 _atom_site_occupancy
  Nd  Nd0  1  0.82101775  0.17898225  0.25000000  1
  Nd  Nd1  1  0.82101775  0.64203450  0.25000000  1
  Nd  Nd2  1  0.35796550  0.17898225  0.25000000  1
  Nd  Nd3  1  0.17898225  0.82101775  0.75000000  1
  Nd  Nd4  1  0.17898225  0.35796550  0.75000000  1
  Nd  Nd5  1  0.64203450  0.82101775  0.75000000  1
  Al  Al0  1  0.33333300  0.66666700  0.25000000  1
  Al  Al1  1  0.66666700  0.33333300  0.75000000  1
loop_
_geom_bond_atom_site_label_1
_geom_bond_atom_site_label_2
_geom_bond_distance
_geom_bond_site_symmetry_2
Nd0 Nd1 3.301451 1_555
Nd0 Nd2 3.301451 1_555
Nd0 Nd4 3.468571 1_655
Nd0 Nd4 3.468571 1_654
Nd0 Nd5 3.468571 1_544
Nd0 Nd5 3.468571 1_545
Nd0 Nd2 3.828308 1_655
Nd0 Nd1 3.828308 1_545
Nd1 Nd2 3.301452 1_555
Nd1 Nd3 3.468571 1_655
Nd1 Nd3 3.468571 1_654
Nd1 Nd5 3.468579 1_554
Nd1 Nd5 3.468579 1_555
Nd1 Nd2 3.828309 1_665
Nd2 Nd3 3.468571 1_544
Nd2 Nd3 3.468571 1_545
Nd2 Nd4 3.468579 1_555
Nd2 Nd4 3.468579 1_554
Nd3 Nd5 3.301451 1_555
Nd3 Nd4 3.301451 1_555
Nd3 Nd4 3.828308 1_565
Nd3 Nd5 3.828308 1_455
Nd4 Nd5 3.301452 1_555
Nd4 Nd5 3.828309 1_445
Al0 Nd3 3.283120 1_554
Al0 Nd3 3.283120 1_555
Al0 Nd5 3.283121 1_555
Al0 Nd5 3.283121 1_554
Al0 Nd4 3.283121 1_554
Al0 Nd4 3.283121 1_555
Al0 Nd1 3.568116 1_455
Al0 Nd2 3.568116 1_565
Al0 Nd0 3.568123 1_455
Al0 Nd0 3.568123 1_565
Al0 Nd2 3.568130 1_555
Al0 Nd1 3.568130 1_555
Al1 Nd0 3.283120 1_555
Al1 Nd0 3.283120 1_556
Al1 Nd1 3.283121 1_555
Al1 Nd1 3.283121 1_556
Al1 Nd2 3.283121 1_555
Al1 Nd2 3.283121 1_556
Al1 Nd5 3.568116 1_545
Al1 Nd4 3.568116 1_655
Al1 Nd3 3.568123 1_545
Al1 Nd3 3.568123 1_655
Al1 Nd4 3.568130 1_555
Al1 Nd5 3.568130 1_555
