# generated using pymatgen
data_Fe2Cu3(Sn3Se8)2
_symmetry_space_group_name_H-M   'P 1'
_cell_length_a   7.72413000
_cell_length_b   7.67669800
_cell_length_c   10.88150342
_cell_angle_alpha   89.39660232
_cell_angle_beta   90.00000000
_cell_angle_gamma   90.00000000
_symmetry_Int_Tables_number   1
_chemical_formula_structural   Fe2Cu3(Sn3Se8)2
_chemical_formula_sum   'Fe2 Cu3 Sn6 Se16'
_cell_volume   645.19181518
_cell_formula_units_Z   1
loop_
 _symmetry_equiv_pos_site_id
 _symmetry_equiv_pos_as_xyz
  1  'x, y, z'
loop_
 _atom_site_type_symbol
 _atom_site_label
 _atom_site_symmetry_multiplicity
 _atom_site_fract_x
 _atom_site_fract_y
 _atom_site_fract_z
 _atom_site_occupancy
  Fe  Fe0  1  0.50000000  0.25406600  0.24705900  1
  Fe  Fe1  1  0.00000000  0.75324600  0.75008400  1
  Cu  Cu0  1  0.00000000  0.99171000  0.13056200  1
  Cu  Cu1  1  0.50000000  0.49005400  0.62742400  1
  Cu  Cu2  1  0.50000000  0.01038000  0.87008800  1
  Sn  Sn0  1  0.00000000  0.25106000  0.74354500  1
  Sn  Sn1  1  0.50000000  0.74327100  0.25180900  1
  Sn  Sn2  1  0.75939800  0.00277500  0.49976800  1
  Sn  Sn3  1  0.24885700  0.49987300  0.00251900  1
  Sn  Sn4  1  0.24060200  0.00277500  0.49976800  1
  Sn  Sn5  1  0.75114300  0.49987300  0.00251900  1
  Se  Se0  1  0.00000000  0.26338200  0.49350100  1
  Se  Se1  1  0.50000000  0.75371900  0.99862100  1
  Se  Se2  1  0.00000000  0.74984800  0.52941900  1
  Se  Se3  1  0.50000000  0.24827000  0.01975600  1
  Se  Se4  1  0.22764500  0.97802400  0.75086200  1
  Se  Se5  1  0.72546400  0.47139300  0.25065000  1
  Se  Se6  1  0.77235500  0.97802400  0.75086200  1
  Se  Se7  1  0.27453600  0.47139300  0.25065000  1
  Se  Se8  1  0.50000000  0.75117400  0.50232000  1
  Se  Se9  1  0.00000000  0.24581100  0.99919800  1
  Se  Se10  1  0.50000000  0.24952500  0.47734400  1
  Se  Se11  1  0.00000000  0.75092200  0.97821400  1
  Se  Se12  1  0.27079400  0.01982300  0.24892800  1
  Se  Se13  1  0.77301900  0.52489300  0.75030100  1
  Se  Se14  1  0.72920600  0.01982300  0.24892800  1
  Se  Se15  1  0.22698100  0.52489300  0.75030100  1
loop_
_geom_bond_atom_site_label_1
_geom_bond_atom_site_label_2
_geom_bond_distance
_geom_bond_site_symmetry_2
Fe0 Se7 2.412296 1_555
Fe0 Se5 2.412296 1_555
Fe0 Se3 2.474267 1_555
Fe0 Se10 2.505722 1_555
Fe0 Se14 2.523408 1_555
Fe0 Se12 2.523408 1_555
Fe1 Se2 2.401583 1_555
Fe1 Se4 2.463684 1_555
Fe1 Se6 2.463684 1_455
Fe1 Se13 2.479261 1_455
Fe1 Se15 2.479261 1_555
Fe1 Se11 2.482274 1_555
Cu0 Se9 2.406164 1_564
Cu0 Se12 2.467056 1_565
Cu0 Se14 2.467056 1_465
Cu0 Se11 2.495907 1_554
Cu1 Se8 2.411202 1_555
Cu1 Se10 2.477894 1_555
Cu1 Se13 2.512776 1_555
Cu1 Se15 2.512776 1_555
Cu2 Se1 2.404215 1_545
Cu2 Se3 2.459688 1_556
Cu2 Se6 2.485397 1_545
Cu2 Se4 2.485397 1_545
Se0 Sn0 2.721503 1_555
Se0 Sn4 2.730931 1_555
Se0 Sn2 2.730931 1_455
Se1 Sn5 2.749645 1_556
Se1 Sn3 2.749645 1_556
Se1 Sn1 2.755389 1_556
Se2 Sn4 2.704569 1_565
Se2 Sn2 2.704569 1_465
Se3 Sn3 2.742486 1_555
Se3 Sn5 2.742486 1_555
Se4 Sn0 2.736408 1_565
Se4 Sn4 2.738711 1_565
Se5 Sn5 2.713838 1_555
Se5 Sn1 2.718395 1_555
Se6 Sn0 2.736408 1_665
Se6 Sn2 2.738711 1_565
Se7 Sn3 2.713838 1_555
Se7 Sn1 2.718395 1_555
Se8 Sn1 2.727250 1_555
Se8 Sn2 2.782931 1_565
Se8 Sn4 2.782931 1_565
Se9 Sn3 2.738896 1_556
Se9 Sn5 2.738896 1_456
Se9 Sn0 2.781756 1_555
Se10 Sn2 2.766298 1_555
Se10 Sn4 2.766298 1_555
Se11 Sn3 2.732816 1_556
Se11 Sn5 2.732816 1_456
Se12 Sn4 2.741213 1_555
Se12 Sn1 2.764256 1_545
Se13 Sn0 2.738876 1_655
Se13 Sn5 2.754393 1_556
Se14 Sn2 2.741213 1_555
Se14 Sn1 2.764256 1_545
Se15 Sn0 2.738876 1_555
Se15 Sn3 2.754393 1_556
