# generated using pymatgen
data_Sc(Ga5Mo)8
_symmetry_space_group_name_H-M   'P 1'
_cell_length_a   9.63097526
_cell_length_b   9.63097526
_cell_length_c   9.63097527
_cell_angle_alpha   94.71946732
_cell_angle_beta   94.71946732
_cell_angle_gamma   94.71947299
_symmetry_Int_Tables_number   1
_chemical_formula_structural   Sc(Ga5Mo)8
_chemical_formula_sum   'Sc1 Ga40 Mo8'
_cell_volume   883.70722179
_cell_formula_units_Z   1
loop_
 _symmetry_equiv_pos_site_id
 _symmetry_equiv_pos_as_xyz
  1  'x, y, z'
loop_
 _atom_site_type_symbol
 _atom_site_label
 _atom_site_symmetry_multiplicity
 _atom_site_fract_x
 _atom_site_fract_y
 _atom_site_fract_z
 _atom_site_occupancy
  Sc  Sc0  1  0.00000000  0.00000000  0.00000000  1
  Ga  Ga0  1  0.50000000  0.50000000  0.50000000  1
  Ga  Ga1  1  0.00000000  0.50000000  0.50000000  1
  Ga  Ga2  1  0.50000000  0.00000000  0.50000000  1
  Ga  Ga3  1  0.50000000  0.50000000  0.00000000  1
  Ga  Ga4  1  0.26866500  0.63674700  0.61168100  1
  Ga  Ga5  1  0.61168100  0.26866500  0.63674700  1
  Ga  Ga6  1  0.63674700  0.61168100  0.26866500  1
  Ga  Ga7  1  0.73133500  0.36325300  0.38831900  1
  Ga  Ga8  1  0.38831900  0.73133500  0.36325300  1
  Ga  Ga9  1  0.36325300  0.38831900  0.73133500  1
  Ga  Ga10  1  0.67603900  0.77904000  0.53705800  1
  Ga  Ga11  1  0.53705800  0.67603900  0.77904000  1
  Ga  Ga12  1  0.77904000  0.53705800  0.67603900  1
  Ga  Ga13  1  0.32396100  0.22096000  0.46294200  1
  Ga  Ga14  1  0.46294200  0.32396100  0.22096000  1
  Ga  Ga15  1  0.22096000  0.46294200  0.32396100  1
  Ga  Ga16  1  0.78006000  0.07205600  0.45190200  1
  Ga  Ga17  1  0.45190200  0.78006000  0.07205600  1
  Ga  Ga18  1  0.07205600  0.45190200  0.78006000  1
  Ga  Ga19  1  0.21994000  0.92794400  0.54809800  1
  Ga  Ga20  1  0.54809800  0.21994000  0.92794400  1
  Ga  Ga21  1  0.92794400  0.54809800  0.21994000  1
  Ga  Ga22  1  0.96704600  0.78554400  0.59824400  1
  Ga  Ga23  1  0.59824400  0.96704600  0.78554400  1
  Ga  Ga24  1  0.78554400  0.59824400  0.96704600  1
  Ga  Ga25  1  0.03295400  0.21445600  0.40175600  1
  Ga  Ga26  1  0.40175600  0.03295400  0.21445600  1
  Ga  Ga27  1  0.21445600  0.40175600  0.03295400  1
  Ga  Ga28  1  0.05445400  0.73221100  0.87008000  1
  Ga  Ga29  1  0.87008000  0.05445400  0.73221100  1
  Ga  Ga30  1  0.73221100  0.87008000  0.05445400  1
  Ga  Ga31  1  0.94554600  0.26778900  0.12992000  1
  Ga  Ga32  1  0.12992000  0.94554600  0.26778900  1
  Ga  Ga33  1  0.26778900  0.12992000  0.94554600  1
  Ga  Ga34  1  0.12289200  0.17407700  0.68453200  1
  Ga  Ga35  1  0.68453200  0.12289200  0.17407700  1
  Ga  Ga36  1  0.17407700  0.68453200  0.12289200  1
  Ga  Ga37  1  0.87710800  0.82592300  0.31546800  1
  Ga  Ga38  1  0.31546800  0.87710800  0.82592300  1
  Ga  Ga39  1  0.82592300  0.31546800  0.87710800  1
  Mo  Mo0  1  0.79875300  0.79875300  0.79875300  1
  Mo  Mo1  1  0.20124700  0.20124700  0.20124700  1
  Mo  Mo2  1  0.29374800  0.61129400  0.88745800  1
  Mo  Mo3  1  0.88745800  0.29374800  0.61129400  1
  Mo  Mo4  1  0.61129400  0.88745800  0.29374800  1
  Mo  Mo5  1  0.70625200  0.38870600  0.11254200  1
  Mo  Mo6  1  0.11254200  0.70625200  0.38870600  1
  Mo  Mo7  1  0.38870600  0.11254200  0.70625200  1
loop_
_geom_bond_atom_site_label_1
_geom_bond_atom_site_label_2
_geom_bond_distance
_geom_bond_site_symmetry_2
Ga0 Ga6 2.915373 1_555
Ga0 Ga9 2.915373 1_555
Ga0 Ga5 2.915373 1_555
Ga0 Ga8 2.915373 1_555
Ga0 Ga4 2.915373 1_555
Ga0 Ga7 2.915373 1_555
Ga0 Ga13 3.035943 1_555
Ga0 Ga10 3.035943 1_555
Ga0 Ga15 3.035943 1_555
Ga0 Ga12 3.035943 1_555
Ga0 Ga14 3.035943 1_555
Ga0 Ga11 3.035943 1_555
Ga1 Mo6 2.541020 1_555
Ga1 Mo3 2.541020 1_455
Ga1 Ga21 2.814574 1_455
Ga1 Ga18 2.814574 1_555
Ga1 Ga12 2.854752 1_455
Ga1 Ga15 2.854752 1_555
Ga1 Ga22 2.885087 1_455
Ga1 Ga25 2.885087 1_555
Ga1 Ga4 2.886999 1_555
Ga1 Ga7 2.886999 1_455
Ga2 Mo7 2.541021 1_555
Ga2 Mo4 2.541021 1_545
Ga2 Ga23 2.885087 1_545
Ga2 Ga26 2.885087 1_555
Ga2 Ga5 2.886999 1_555
Ga2 Ga8 2.886999 1_545
Ga3 Mo5 2.541021 1_555
Ga3 Mo2 2.541021 1_554
Ga3 Ga6 2.886999 1_555
Ga3 Ga9 2.886999 1_554
Ga4 Mo2 2.680316 1_555
Ga4 Mo6 2.681681 1_555
Ga4 Ga8 2.919254 1_555
Ga4 Ga9 2.919254 1_555
Ga5 Mo3 2.680316 1_555
Ga5 Mo7 2.681680 1_555
Ga5 Ga7 2.919254 1_555
Ga5 Ga9 2.919254 1_555
Ga6 Mo4 2.680316 1_555
Ga6 Mo5 2.681681 1_555
Ga6 Ga7 2.919254 1_555
Ga6 Ga8 2.919254 1_555
Ga7 Mo5 2.680316 1_555
Ga7 Mo3 2.681681 1_555
Ga8 Mo6 2.680316 1_555
Ga8 Mo4 2.681680 1_555
Ga9 Mo7 2.680316 1_555
Ga9 Mo2 2.681681 1_555
Ga10 Mo0 2.679423 1_555
Ga10 Mo4 2.690643 1_555
Ga10 Ga22 2.810598 1_555
Ga10 Ga2 2.854752 1_565
Ga10 Ga6 2.911341 1_555
Ga10 Ga11 2.980318 1_555
Ga10 Ga12 2.980318 1_555
Ga10 Ga37 3.033664 1_555
Ga10 Ga23 3.061437 1_555
Ga10 Ga8 3.097146 1_555
Ga10 Ga16 3.113030 1_565
Ga11 Mo0 2.679423 1_555
Ga11 Mo2 2.690643 1_555
Ga11 Ga23 2.810598 1_555
Ga11 Ga3 2.854752 1_556
Ga11 Ga4 2.911341 1_555
Ga11 Ga12 2.980318 1_555
Ga11 Ga38 3.033664 1_555
Ga11 Ga24 3.061437 1_555
Ga11 Ga9 3.097146 1_555
Ga11 Ga17 3.113030 1_556
Ga12 Mo0 2.679423 1_555
Ga12 Mo3 2.690643 1_555
Ga12 Ga24 2.810598 1_555
Ga12 Ga5 2.911341 1_555
Ga12 Ga39 3.033664 1_555
Ga12 Ga22 3.061437 1_555
Ga12 Ga7 3.097146 1_555
Ga12 Ga18 3.113030 1_655
Ga13 Mo1 2.679423 1_555
Ga13 Mo7 2.690643 1_555
Ga13 Ga25 2.810598 1_555
Ga13 Ga2 2.854752 1_555
Ga13 Ga9 2.911341 1_555
Ga13 Ga14 2.980318 1_555
Ga13 Ga15 2.980318 1_555
Ga13 Ga34 3.033664 1_555
Ga13 Ga26 3.061437 1_555
Ga13 Ga5 3.097146 1_555
Ga13 Ga19 3.113030 1_545
Ga14 Mo1 2.679423 1_555
Ga14 Mo5 2.690643 1_555
Ga14 Ga26 2.810598 1_555
Ga14 Ga3 2.854752 1_555
Ga14 Ga7 2.911341 1_555
Ga14 Ga15 2.980318 1_555
Ga14 Ga35 3.033664 1_555
Ga14 Ga27 3.061437 1_555
Ga14 Ga6 3.097146 1_555
Ga14 Ga20 3.113030 1_554
Ga15 Mo1 2.679423 1_555
Ga15 Mo6 2.690643 1_555
Ga15 Ga27 2.810598 1_555
Ga15 Ga8 2.911341 1_555
Ga15 Ga36 3.033664 1_555
Ga15 Ga25 3.061437 1_555
Ga15 Ga4 3.097146 1_555
Ga15 Ga21 3.113030 1_455
Ga16 Mo4 2.606568 1_545
Ga16 Mo3 2.611717 1_555
Ga16 Ga29 2.789775 1_555
Ga16 Ga25 2.792712 1_655
Ga16 Ga2 2.814574 1_555
Ga16 Ga35 2.851363 1_555
Ga16 Ga37 2.876384 1_545
Ga16 Ga7 2.985359 1_555
Ga16 Ga5 3.132113 1_555
Ga17 Mo2 2.606568 1_554
Ga17 Mo4 2.611717 1_555
Ga17 Ga30 2.789775 1_555
Ga17 Ga26 2.792712 1_565
Ga17 Ga3 2.814574 1_555
Ga17 Ga36 2.851363 1_555
Ga17 Ga38 2.876384 1_554
Ga17 Ga8 2.985359 1_555
Ga17 Ga6 3.132113 1_555
Ga18 Mo3 2.606568 1_455
Ga18 Mo2 2.611717 1_555
Ga18 Ga28 2.789775 1_555
Ga18 Ga27 2.792712 1_556
Ga18 Ga34 2.851363 1_555
Ga18 Ga39 2.876384 1_455
Ga18 Ga9 2.985359 1_555
Ga18 Ga4 3.132113 1_555
Ga19 Mo7 2.606568 1_565
Ga19 Mo6 2.611717 1_555
Ga19 Ga32 2.789775 1_555
Ga19 Ga22 2.792712 1_455
Ga19 Ga2 2.814574 1_565
Ga19 Ga38 2.851363 1_555
Ga19 Ga34 2.876384 1_565
Ga19 Ga4 2.985359 1_555
Ga19 Ga8 3.132113 1_555
Ga20 Mo5 2.606568 1_556
Ga20 Mo7 2.611717 1_555
Ga20 Ga33 2.789775 1_555
Ga20 Ga23 2.792712 1_545
Ga20 Ga3 2.814574 1_556
Ga20 Ga39 2.851363 1_555
Ga20 Ga35 2.876384 1_556
Ga20 Ga5 2.985359 1_555
Ga20 Ga9 3.132113 1_555
Ga21 Mo6 2.606568 1_655
Ga21 Mo5 2.611717 1_555
Ga21 Ga31 2.789775 1_555
Ga21 Ga24 2.792712 1_554
Ga21 Ga37 2.851363 1_555
Ga21 Ga36 2.876384 1_655
Ga21 Ga6 2.985359 1_555
Ga21 Ga7 3.132113 1_555
Ga22 Mo0 2.623157 1_555
Ga22 Mo6 2.647093 1_655
Ga22 Ga28 2.785038 1_655
Ga22 Ga37 2.856572 1_555
Ga22 Ga29 3.048055 1_565
Ga23 Mo0 2.623157 1_555
Ga23 Mo7 2.647093 1_565
Ga23 Ga29 2.785038 1_565
Ga23 Ga38 2.856572 1_555
Ga23 Ga30 3.048055 1_556
Ga24 Mo0 2.623157 1_555
Ga24 Mo5 2.647093 1_556
Ga24 Ga30 2.785038 1_556
Ga24 Ga39 2.856572 1_555
Ga24 Ga3 2.885087 1_556
Ga24 Ga28 3.048054 1_655
Ga25 Mo1 2.623157 1_555
Ga25 Mo3 2.647093 1_455
Ga25 Ga31 2.785038 1_455
Ga25 Ga34 2.856572 1_555
Ga25 Ga32 3.048055 1_545
Ga26 Mo1 2.623157 1_555
Ga26 Mo4 2.647093 1_545
Ga26 Ga32 2.785038 1_545
Ga26 Ga35 2.856572 1_555
Ga26 Ga33 3.048055 1_554
Ga27 Mo1 2.623157 1_555
Ga27 Mo2 2.647093 1_554
Ga27 Ga33 2.785038 1_554
Ga27 Ga36 2.856572 1_555
Ga27 Ga3 2.885087 1_555
Ga27 Ga31 3.048054 1_455
Ga28 Mo0 2.645944 1_455
Ga28 Mo2 2.665665 1_555
Ga28 Ga36 2.697403 1_556
Ga28 Ga38 2.853748 1_555
Ga28 Sc0 2.879550 1_566
Ga29 Mo0 2.645944 1_545
Ga29 Mo3 2.665664 1_555
Ga29 Ga34 2.697403 1_655
Ga29 Ga39 2.853749 1_555
Ga29 Sc0 2.879550 1_656
Ga30 Mo0 2.645944 1_554
Ga30 Mo4 2.665665 1_555
Ga30 Ga35 2.697403 1_565
Ga30 Ga37 2.853749 1_555
Ga30 Sc0 2.879550 1_665
Ga31 Mo1 2.645944 1_655
Ga31 Mo5 2.665665 1_555
Ga31 Ga39 2.697403 1_554
Ga31 Ga35 2.853748 1_555
Ga31 Sc0 2.879550 1_655
Ga32 Mo1 2.645944 1_565
Ga32 Mo6 2.665664 1_555
Ga32 Ga37 2.697403 1_455
Ga32 Ga36 2.853749 1_555
Ga32 Sc0 2.879550 1_565
Ga33 Mo1 2.645944 1_556
Ga33 Mo7 2.665665 1_555
Ga33 Ga38 2.697403 1_545
Ga33 Ga34 2.853749 1_555
Ga33 Sc0 2.879550 1_556
Ga34 Mo7 2.670350 1_555
Ga34 Mo3 2.695903 1_455
Ga34 Ga9 2.951051 1_555
Ga35 Mo5 2.670350 1_555
Ga35 Mo4 2.695903 1_545
Ga35 Ga7 2.951051 1_555
Ga36 Mo6 2.670350 1_555
Ga36 Mo2 2.695903 1_554
Ga36 Ga8 2.951051 1_555
Ga37 Mo4 2.670350 1_555
Ga37 Mo6 2.695903 1_655
Ga37 Ga6 2.951051 1_555
Ga38 Mo2 2.670350 1_555
Ga38 Mo7 2.695903 1_565
Ga38 Ga4 2.951051 1_555
Ga39 Mo3 2.670350 1_555
Ga39 Mo5 2.695903 1_556
Ga39 Ga5 2.951051 1_555
Mo0 Sc0 3.068453 1_666
Mo1 Sc0 3.068453 1_555
