# generated using pymatgen
data_HoSnAu
_symmetry_space_group_name_H-M   'P 1'
_cell_length_a   4.71790425
_cell_length_b   4.71790425
_cell_length_c   7.39311800
_cell_angle_alpha   90.00000000
_cell_angle_beta   90.00000000
_cell_angle_gamma   120.00000344
_symmetry_Int_Tables_number   1
_chemical_formula_structural   HoSnAu
_chemical_formula_sum   'Ho2 Sn2 Au2'
_cell_volume   142.51366174
_cell_formula_units_Z   2
loop_
 _symmetry_equiv_pos_site_id
 _symmetry_equiv_pos_as_xyz
  1  'x, y, z'
loop_
 _atom_site_type_symbol
 _atom_site_label
 _atom_site_symmetry_multiplicity
 _atom_site_fract_x
 _atom_site_fract_y
 _atom_site_fract_z
 _atom_site_occupancy
  Ho  Ho0  1  0.00000000  0.00000000  0.50000000  1
  Ho  Ho1  1  0.00000000  0.00000000  0.00000000  1
  Sn  Sn0  1  0.33333300  0.66666700  0.75000000  1
  Sn  Sn1  1  0.66666700  0.33333300  0.25000000  1
  Au  Au0  1  0.33333300  0.66666700  0.25000000  1
  Au  Au1  1  0.66666700  0.33333300  0.75000000  1
loop_
_geom_bond_atom_site_label_1
_geom_bond_atom_site_label_2
_geom_bond_distance
_geom_bond_site_symmetry_2
Ho0 Sn1 3.291757 1_455
Ho0 Sn0 3.291757 1_545
Ho0 Sn0 3.291760 1_445
Ho0 Sn1 3.291760 1_555
Ho0 Sn1 3.291760 1_445
Ho0 Sn0 3.291760 1_555
Ho1 Sn1 3.291757 1_455
Ho1 Sn0 3.291757 1_544
Ho1 Sn0 3.291760 1_444
Ho1 Sn1 3.291760 1_555
Ho1 Sn0 3.291760 1_554
Ho1 Sn1 3.291760 1_445
Au0 Sn1 2.723880 1_455
Au0 Sn1 2.723880 1_565
Au0 Sn1 2.723889 1_555
Au0 Ho0 3.291757 1_565
Au0 Ho1 3.291757 1_565
Au0 Ho1 3.291760 1_665
Au0 Ho0 3.291760 1_665
Au0 Ho0 3.291760 1_555
Au0 Ho1 3.291760 1_555
Au1 Sn0 2.723880 1_545
Au1 Sn0 2.723880 1_655
Au1 Sn0 2.723889 1_555
Au1 Ho1 3.291757 1_656
Au1 Ho0 3.291757 1_655
Au1 Ho0 3.291760 1_555
Au1 Ho1 3.291760 1_556
Au1 Ho0 3.291760 1_665
Au1 Ho1 3.291760 1_666
