# generated using pymatgen
data_Y2Mg3Zn4
_symmetry_space_group_name_H-M   'P 1'
_cell_length_a   9.53350877
_cell_length_b   9.53350877
_cell_length_c   9.44318000
_cell_angle_alpha   90.00000000
_cell_angle_beta   90.00000000
_cell_angle_gamma   120.00000532
_symmetry_Int_Tables_number   1
_chemical_formula_structural   Y2Mg3Zn4
_chemical_formula_sum   'Y8 Mg12 Zn16'
_cell_volume   743.28337137
_cell_formula_units_Z   4
loop_
 _symmetry_equiv_pos_site_id
 _symmetry_equiv_pos_as_xyz
  1  'x, y, z'
loop_
 _atom_site_type_symbol
 _atom_site_label
 _atom_site_symmetry_multiplicity
 _atom_site_fract_x
 _atom_site_fract_y
 _atom_site_fract_z
 _atom_site_occupancy
  Y  Y0  1  0.00000000  0.00000000  0.25000000  1
  Y  Y1  1  0.00000000  0.00000000  0.75000000  1
  Y  Y2  1  0.21232500  0.42465000  0.25000000  1
  Y  Y3  1  0.78767500  0.57535000  0.75000000  1
  Y  Y4  1  0.57535000  0.78767500  0.25000000  1
  Y  Y5  1  0.42465000  0.21232500  0.75000000  1
  Y  Y6  1  0.21232500  0.78767500  0.25000000  1
  Y  Y7  1  0.78767500  0.21232500  0.75000000  1
  Mg  Mg0  1  0.16326500  0.32653100  0.58463200  1
  Mg  Mg1  1  0.83673500  0.67346900  0.41536800  1
  Mg  Mg2  1  0.67346900  0.83673500  0.58463200  1
  Mg  Mg3  1  0.83673500  0.67346900  0.08463200  1
  Mg  Mg4  1  0.32653100  0.16326500  0.41536800  1
  Mg  Mg5  1  0.16326500  0.32653100  0.91536800  1
  Mg  Mg6  1  0.16326500  0.83673500  0.58463200  1
  Mg  Mg7  1  0.32653100  0.16326500  0.08463200  1
  Mg  Mg8  1  0.83673500  0.16326500  0.41536800  1
  Mg  Mg9  1  0.67346900  0.83673500  0.91536800  1
  Mg  Mg10  1  0.83673500  0.16326500  0.08463200  1
  Mg  Mg11  1  0.16326500  0.83673500  0.91536800  1
  Zn  Zn0  1  0.56544800  0.13089600  0.25000000  1
  Zn  Zn1  1  0.43455200  0.86910400  0.75000000  1
  Zn  Zn2  1  0.86910400  0.43455200  0.25000000  1
  Zn  Zn3  1  0.13089600  0.56544800  0.75000000  1
  Zn  Zn4  1  0.56544800  0.43455200  0.25000000  1
  Zn  Zn5  1  0.43455200  0.56544800  0.75000000  1
  Zn  Zn6  1  0.33333300  0.66666700  0.00150500  1
  Zn  Zn7  1  0.66666700  0.33333300  0.99849500  1
  Zn  Zn8  1  0.66666700  0.33333300  0.50150500  1
  Zn  Zn9  1  0.33333300  0.66666700  0.49849500  1
  Zn  Zn10  1  0.50000000  0.00000000  0.00000000  1
  Zn  Zn11  1  0.00000000  0.50000000  0.00000000  1
  Zn  Zn12  1  0.50000000  0.00000000  0.50000000  1
  Zn  Zn13  1  0.50000000  0.50000000  0.00000000  1
  Zn  Zn14  1  0.00000000  0.50000000  0.50000000  1
  Zn  Zn15  1  0.50000000  0.50000000  0.50000000  1
loop_
_geom_bond_atom_site_label_1
_geom_bond_atom_site_label_2
_geom_bond_distance
_geom_bond_site_symmetry_2
Y0 Y4 3.506021 1_445
Y0 Y2 3.506021 1_555
Y0 Y6 3.506021 1_545
Y1 Y5 3.506021 1_555
Y1 Y3 3.506021 1_445
Y1 Y7 3.506021 1_455
Y2 Zn6 3.082057 1_555
Y2 Zn9 3.082057 1_555
Y2 Zn4 3.320307 1_555
Y2 Zn2 3.320307 1_455
Y2 Zn13 3.411870 1_555
Y2 Zn15 3.411870 1_555
Y2 Zn11 3.411870 1_555
Y2 Zn14 3.411870 1_555
Y2 Y4 3.460902 1_555
Y2 Y6 3.460902 1_555
Y3 Zn7 3.082057 1_555
Y3 Zn8 3.082057 1_555
Y3 Zn5 3.320307 1_555
Y3 Zn3 3.320307 1_655
Y3 Zn15 3.411870 1_555
Y3 Zn13 3.411870 1_556
Y3 Zn11 3.411870 1_656
Y3 Zn14 3.411870 1_655
Y3 Y5 3.460902 1_555
Y3 Y7 3.460902 1_555
Y4 Zn6 3.082057 1_555
Y4 Zn9 3.082057 1_555
Y4 Zn4 3.320307 1_555
Y4 Zn0 3.320307 1_565
Y4 Zn13 3.411870 1_555
Y4 Zn15 3.411870 1_555
Y4 Zn10 3.411870 1_565
Y4 Zn12 3.411870 1_565
Y4 Y6 3.460902 1_555
Y5 Zn7 3.082057 1_555
Y5 Zn8 3.082057 1_555
Y5 Zn5 3.320307 1_555
Y5 Zn1 3.320307 1_545
Y5 Zn13 3.411870 1_556
Y5 Zn15 3.411870 1_555
Y5 Zn12 3.411870 1_555
Y5 Zn10 3.411870 1_556
Y5 Y7 3.460902 1_555
Y6 Zn6 3.082052 1_555
Y6 Zn9 3.082052 1_555
Y6 Zn0 3.320307 1_565
Y6 Zn2 3.320307 1_455
Y6 Zn14 3.411870 1_555
Y6 Zn11 3.411870 1_555
Y6 Zn12 3.411870 1_565
Y6 Zn10 3.411870 1_565
Y7 Zn7 3.082052 1_555
Y7 Zn8 3.082052 1_555
Y7 Zn3 3.320307 1_655
Y7 Zn1 3.320307 1_545
Y7 Zn11 3.411870 1_656
Y7 Zn14 3.411870 1_655
Y7 Zn10 3.411870 1_556
Y7 Zn12 3.411870 1_555
Mg0 Zn14 2.893163 1_555
Mg0 Zn15 2.893170 1_555
Mg0 Zn3 2.902533 1_555
Mg0 Zn5 2.902538 1_555
Mg0 Zn9 2.923680 1_555
Mg0 Y1 3.115543 1_555
Mg0 Mg5 3.123200 1_555
Mg0 Mg8 3.134138 1_455
Mg0 Mg4 3.134152 1_555
Mg0 Y2 3.262176 1_555
Mg0 Y7 3.542145 1_455
Mg0 Y5 3.542153 1_555
Mg1 Zn14 2.893163 1_655
Mg1 Zn15 2.893170 1_555
Mg1 Zn2 2.902533 1_555
Mg1 Zn4 2.902538 1_555
Mg1 Zn8 2.923680 1_555
Mg1 Y0 3.115543 1_665
Mg1 Mg3 3.123200 1_555
Mg1 Mg6 3.134138 1_655
Mg1 Mg2 3.134152 1_555
Mg1 Y3 3.262176 1_555
Mg1 Y6 3.542145 1_655
Mg1 Y4 3.542153 1_555
Mg2 Zn12 2.893163 1_565
Mg2 Zn15 2.893170 1_555
Mg2 Zn1 2.902533 1_555
Mg2 Zn5 2.902538 1_555
Mg2 Zn9 2.923680 1_555
Mg2 Y1 3.115543 1_665
Mg2 Mg9 3.123200 1_555
Mg2 Mg8 3.134138 1_565
Mg2 Y4 3.262176 1_555
Mg2 Y7 3.542145 1_565
Mg2 Y3 3.542153 1_555
Mg3 Zn11 2.893163 1_655
Mg3 Zn13 2.893170 1_555
Mg3 Zn2 2.902533 1_555
Mg3 Zn4 2.902538 1_555
Mg3 Zn7 2.923680 1_554
Mg3 Y0 3.115543 1_665
Mg3 Mg9 3.134152 1_554
Mg3 Y3 3.262176 1_554
Mg3 Y6 3.542145 1_655
Mg3 Y4 3.542153 1_555
Mg4 Zn12 2.893163 1_555
Mg4 Zn15 2.893170 1_555
Mg4 Zn0 2.902533 1_555
Mg4 Zn4 2.902538 1_555
Mg4 Zn8 2.923680 1_555
Mg4 Y0 3.115543 1_555
Mg4 Mg7 3.123200 1_555
Mg4 Mg6 3.134138 1_545
Mg4 Y5 3.262176 1_555
Mg4 Y6 3.542145 1_545
Mg4 Y2 3.542153 1_555
Mg5 Zn11 2.893163 1_556
Mg5 Zn13 2.893170 1_556
Mg5 Zn3 2.902533 1_555
Mg5 Zn5 2.902538 1_555
Mg5 Zn6 2.923680 1_556
Mg5 Y1 3.115543 1_555
Mg5 Mg7 3.134152 1_556
Mg5 Y2 3.262176 1_556
Mg5 Y7 3.542145 1_455
Mg5 Y5 3.542153 1_555
Mg6 Zn14 2.893170 1_555
Mg6 Zn12 2.893170 1_565
Mg6 Zn1 2.902541 1_555
Mg6 Zn3 2.902541 1_555
Mg6 Zn9 2.923681 1_555
Mg6 Y1 3.115536 1_565
Mg6 Y6 3.262178 1_555
Mg6 Y3 3.542147 1_455
Mg6 Y5 3.542147 1_565
Mg7 Zn10 2.893163 1_555
Mg7 Zn13 2.893170 1_555
Mg7 Zn0 2.902533 1_555
Mg7 Zn4 2.902538 1_555
Mg7 Zn7 2.923680 1_554
Mg7 Y0 3.115543 1_555
Mg7 Y5 3.262176 1_554
Mg7 Y6 3.542145 1_545
Mg7 Y2 3.542153 1_555
Mg8 Zn14 2.893170 1_655
Mg8 Zn12 2.893170 1_555
Mg8 Zn0 2.902541 1_555
Mg8 Zn2 2.902541 1_555
Mg8 Zn8 2.923681 1_555
Mg8 Y0 3.115536 1_655
Mg8 Y7 3.262178 1_555
Mg8 Y4 3.542147 1_545
Mg8 Y2 3.542147 1_655
Mg9 Zn10 2.893163 1_566
Mg9 Zn13 2.893170 1_556
Mg9 Zn1 2.902533 1_555
Mg9 Zn5 2.902538 1_555
Mg9 Zn6 2.923680 1_556
Mg9 Y1 3.115543 1_665
Mg9 Y4 3.262176 1_556
Mg9 Y7 3.542145 1_565
Mg9 Y3 3.542153 1_555
Mg10 Zn11 2.893170 1_655
Mg10 Zn10 2.893170 1_555
Mg10 Zn0 2.902541 1_555
Mg10 Zn2 2.902541 1_555
Mg10 Zn7 2.923681 1_554
Mg10 Y0 3.115536 1_655
Mg10 Mg8 3.123200 1_555
Mg10 Mg9 3.134138 1_544
Mg10 Mg5 3.134138 1_654
Mg10 Y7 3.262178 1_554
Mg10 Y4 3.542147 1_545
Mg10 Y2 3.542147 1_655
Mg11 Zn11 2.893170 1_556
Mg11 Zn10 2.893170 1_566
Mg11 Zn1 2.902541 1_555
Mg11 Zn3 2.902541 1_555
Mg11 Zn6 2.923681 1_556
Mg11 Y1 3.115536 1_565
Mg11 Mg6 3.123200 1_555
Mg11 Mg7 3.134138 1_566
Mg11 Mg3 3.134138 1_456
Mg11 Y6 3.262178 1_556
Mg11 Y3 3.542147 1_455
Mg11 Y5 3.542147 1_565
Zn0 Zn12 2.596399 1_555
Zn0 Zn10 2.596399 1_555
Zn0 Zn2 2.894907 1_555
Zn0 Zn4 2.894907 1_555
Zn0 Zn8 2.904160 1_555
Zn0 Zn7 2.904160 1_554
Zn1 Zn10 2.596399 1_566
Zn1 Zn12 2.596399 1_565
Zn1 Zn3 2.894907 1_555
Zn1 Zn5 2.894907 1_555
Zn1 Zn9 2.904160 1_555
Zn1 Zn6 2.904160 1_556
Zn2 Zn4 2.894907 1_555
Zn2 Zn8 2.904160 1_555
Zn2 Zn7 2.904160 1_554
Zn3 Zn5 2.894907 1_555
Zn3 Zn9 2.904160 1_555
Zn3 Zn6 2.904160 1_556
Zn4 Zn8 2.904165 1_555
Zn4 Zn7 2.904165 1_554
Zn5 Zn9 2.904165 1_555
Zn5 Zn6 2.904165 1_556
Zn10 Zn7 2.752121 1_554
Zn10 Zn6 2.752121 1_545
Zn11 Zn2 2.596399 1_455
Zn11 Zn3 2.596399 1_554
Zn11 Zn6 2.752121 1_555
Zn11 Zn7 2.752121 1_454
Zn12 Zn8 2.752121 1_555
Zn12 Zn9 2.752121 1_545
Zn13 Zn5 2.596400 1_554
Zn13 Zn4 2.596400 1_555
Zn13 Zn6 2.752129 1_555
Zn13 Zn7 2.752129 1_554
Zn14 Zn3 2.596399 1_555
Zn14 Zn2 2.596399 1_455
Zn14 Zn9 2.752121 1_555
Zn14 Zn8 2.752121 1_455
Zn15 Zn5 2.596400 1_555
Zn15 Zn4 2.596400 1_555
Zn15 Zn9 2.752129 1_555
Zn15 Zn8 2.752129 1_555
