# generated using pymatgen
data_Na5MnO5
_symmetry_space_group_name_H-M   'P 1'
_cell_length_a   5.94408195
_cell_length_b   5.94408195
_cell_length_c   9.95069232
_cell_angle_alpha   81.25167422
_cell_angle_beta   81.25167422
_cell_angle_gamma   116.70860658
_symmetry_Int_Tables_number   1
_chemical_formula_structural   Na5MnO5
_chemical_formula_sum   'Na10 Mn2 O10'
_cell_volume   300.58092602
_cell_formula_units_Z   2
loop_
 _symmetry_equiv_pos_site_id
 _symmetry_equiv_pos_as_xyz
  1  'x, y, z'
loop_
 _atom_site_type_symbol
 _atom_site_label
 _atom_site_symmetry_multiplicity
 _atom_site_fract_x
 _atom_site_fract_y
 _atom_site_fract_z
 _atom_site_occupancy
  Na  Na0  1  0.67142300  0.98202600  0.58019800  1
  Na  Na1  1  0.55971600  0.78147400  0.94493800  1
  Na  Na2  1  0.66186300  0.33813700  0.75000000  1
  Na  Na3  1  0.98202600  0.67142300  0.08019800  1
  Na  Na4  1  0.78147400  0.55971600  0.44493800  1
  Na  Na5  1  0.21852600  0.44028400  0.55506200  1
  Na  Na6  1  0.01797400  0.32857700  0.91980200  1
  Na  Na7  1  0.33813700  0.66186300  0.25000000  1
  Na  Na8  1  0.44028400  0.21852600  0.05506200  1
  Na  Na9  1  0.32857700  0.01797400  0.41980200  1
  Mn  Mn0  1  0.09520600  0.90479400  0.75000000  1
  Mn  Mn1  1  0.90479400  0.09520600  0.25000000  1
  O  O0  1  0.29316500  0.94901000  0.87249600  1
  O  O1  1  0.40114400  0.18981700  0.60686200  1
  O  O2  1  0.94901000  0.29316500  0.37249600  1
  O  O3  1  0.18981700  0.40114400  0.10686200  1
  O  O4  1  0.91929700  0.08070300  0.75000000  1
  O  O5  1  0.08070300  0.91929700  0.25000000  1
  O  O6  1  0.81018300  0.59885600  0.89313800  1
  O  O7  1  0.05099000  0.70683500  0.62750400  1
  O  O8  1  0.59885600  0.81018300  0.39313800  1
  O  O9  1  0.70683500  0.05099000  0.12750400  1
loop_
_geom_bond_atom_site_label_1
_geom_bond_atom_site_label_2
_geom_bond_distance
_geom_bond_site_symmetry_2
Na0 O8 2.262890 1_555
Na0 O2 2.339091 1_565
Na0 O4 2.377332 1_565
Na0 O1 2.435303 1_565
Na1 O6 2.247215 1_555
Na1 O0 2.359879 1_555
Na1 O4 2.401390 1_565
Na1 O3 2.426409 1_556
Na1 O9 2.596281 1_566
Na2 O1 2.243411 1_555
Na2 O6 2.243411 1_555
Na2 O0 2.326341 1_545
Na2 O7 2.326341 1_655
Na2 O4 2.605360 1_555
Na3 O6 2.262890 1_554
Na3 O0 2.339091 1_654
Na3 O5 2.377332 1_655
Na3 O3 2.435303 1_655
Na4 O8 2.247215 1_555
Na4 O2 2.359879 1_555
Na4 O5 2.401390 1_655
Na4 O1 2.426409 1_555
Na4 O7 2.596281 1_655
Na5 O1 2.247215 1_555
Na5 O7 2.359879 1_555
Na5 O4 2.401390 1_455
Na5 O8 2.426409 1_555
Na5 O2 2.596281 1_455
Na6 O3 2.262890 1_556
Na6 O9 2.339091 1_456
Na6 O4 2.377332 1_455
Na6 O6 2.435303 1_455
Na7 O3 2.243411 1_555
Na7 O8 2.243411 1_555
Na7 O2 2.326341 1_455
Na7 O9 2.326341 1_565
Na7 O5 2.605360 1_555
Na8 O3 2.247215 1_555
Na8 O9 2.359879 1_555
Na8 O5 2.401390 1_545
Na8 O6 2.426409 1_554
Na8 O0 2.596281 1_544
Na9 O1 2.262890 1_555
Na9 O7 2.339091 1_545
Na9 O5 2.377332 1_545
Na9 O8 2.435303 1_545
Mn0 O4 1.780287 1_465
Mn0 O0 1.787506 1_555
Mn0 O7 1.787506 1_555
Mn0 O1 1.978539 1_565
Mn0 O6 1.978539 1_455
Mn1 O5 1.780287 1_645
Mn1 O9 1.787506 1_555
Mn1 O2 1.787506 1_555
Mn1 O3 1.978539 1_655
Mn1 O8 1.978539 1_545
