# generated using pymatgen
data_CuAsPbO5
_symmetry_space_group_name_H-M   'P 1'
_cell_length_a   6.04941300
_cell_length_b   8.47307300
_cell_length_c   8.95857100
_cell_angle_alpha   90.00000000
_cell_angle_beta   90.00000000
_cell_angle_gamma   90.00000000
_symmetry_Int_Tables_number   1
_chemical_formula_structural   CuAsPbO5
_chemical_formula_sum   'Cu4 As4 Pb4 O20'
_cell_volume   459.19053047
_cell_formula_units_Z   4
loop_
 _symmetry_equiv_pos_site_id
 _symmetry_equiv_pos_as_xyz
  1  'x, y, z'
loop_
 _atom_site_type_symbol
 _atom_site_label
 _atom_site_symmetry_multiplicity
 _atom_site_fract_x
 _atom_site_fract_y
 _atom_site_fract_z
 _atom_site_occupancy
  Cu  Cu0  1  0.74715900  0.74226700  0.99504800  1
  Cu  Cu1  1  0.24715900  0.75773300  0.00495200  1
  Cu  Cu2  1  0.25284100  0.24226700  0.50495200  1
  Cu  Cu3  1  0.75284100  0.25773300  0.49504800  1
  As  As0  1  0.98833300  0.63179000  0.29436300  1
  As  As1  1  0.48833300  0.86821000  0.70563700  1
  As  As2  1  0.01166700  0.13179000  0.20563700  1
  As  As3  1  0.51166700  0.36821000  0.79436300  1
  Pb  Pb0  1  0.03900700  0.62465900  0.66313700  1
  Pb  Pb1  1  0.53900700  0.87534100  0.33686300  1
  Pb  Pb2  1  0.96099300  0.12465900  0.83686300  1
  Pb  Pb3  1  0.46099300  0.37534100  0.16313700  1
  O  O0  1  0.00524700  0.64740200  0.93737300  1
  O  O1  1  0.50524700  0.85259800  0.06262700  1
  O  O2  1  0.99475300  0.14740200  0.56262700  1
  O  O3  1  0.49475300  0.35259800  0.43737300  1
  O  O4  1  0.73879700  0.84905300  0.80572200  1
  O  O5  1  0.23879700  0.65094700  0.19427800  1
  O  O6  1  0.26120300  0.34905300  0.69427800  1
  O  O7  1  0.76120300  0.15094700  0.30572200  1
  O  O8  1  0.25189000  0.87170800  0.82052900  1
  O  O9  1  0.75189000  0.62829200  0.17947100  1
  O  O10  1  0.74811000  0.37170800  0.67947100  1
  O  O11  1  0.24811000  0.12829200  0.32052900  1
  O  O12  1  0.01028600  0.46339600  0.39700600  1
  O  O13  1  0.51028600  0.03660400  0.60299400  1
  O  O14  1  0.98971400  0.96339600  0.10299400  1
  O  O15  1  0.48971400  0.53660400  0.89700600  1
  O  O16  1  0.94553100  0.78825900  0.41320000  1
  O  O17  1  0.44553100  0.71174100  0.58680000  1
  O  O18  1  0.05446900  0.28825900  0.08680000  1
  O  O19  1  0.55446900  0.21174100  0.91320000  1
loop_
_geom_bond_atom_site_label_1
_geom_bond_atom_site_label_2
_geom_bond_distance
_geom_bond_site_symmetry_2
Cu0 O0 1.830479 1_655
Cu0 O1 1.839040 1_556
Cu0 O9 1.913919 1_556
Cu0 O4 1.923007 1_555
Cu0 O15 2.496708 1_555
Cu0 O14 2.568797 1_556
Cu1 O1 1.830479 1_555
Cu1 O0 1.839040 1_554
Cu1 O8 1.913919 1_554
Cu1 O5 1.923007 1_555
Cu1 O14 2.496708 1_455
Cu1 O15 2.568797 1_554
Cu2 O2 1.830479 1_455
Cu2 O3 1.839040 1_555
Cu2 O11 1.913919 1_555
Cu2 O6 1.923007 1_555
Cu2 O13 2.496708 1_555
Cu2 O12 2.568797 1_555
Cu3 O3 1.830479 1_555
Cu3 O2 1.839040 1_555
Cu3 O10 1.913919 1_555
Cu3 O7 1.923007 1_555
Cu3 O12 2.496708 1_655
Cu3 O13 2.568797 1_555
As0 O12 1.702639 1_655
As0 O16 1.719916 1_555
As0 O9 1.762427 1_555
As0 O5 1.768045 1_655
As1 O13 1.702639 1_565
As1 O17 1.719916 1_555
As1 O8 1.762427 1_555
As1 O4 1.768045 1_555
As2 O14 1.702639 1_445
As2 O18 1.719916 1_555
As2 O11 1.762427 1_555
As2 O7 1.768045 1_455
As3 O15 1.702639 1_555
As3 O19 1.719916 1_555
As3 O10 1.762427 1_555
As3 O6 1.768045 1_555
O0 Pb0 2.472757 1_555
O1 Pb1 2.472757 1_555
O2 Pb2 2.472757 1_555
O3 Pb3 2.472757 1_555
O4 Pb2 2.708852 1_565
O5 Pb3 2.708852 1_555
O6 Pb0 2.708852 1_555
O7 Pb1 2.708852 1_545
O8 Pb2 2.777007 1_465
O9 Pb3 2.777007 1_555
O10 Pb0 2.777007 1_655
O11 Pb1 2.777007 1_545
O12 Pb0 2.753435 1_555
O13 Pb1 2.753435 1_545
O14 Pb2 2.753435 1_564
O15 Pb3 2.753435 1_556
O16 Pb1 2.657052 1_555
O16 Pb0 2.693468 1_655
O17 Pb0 2.657052 1_555
O17 Pb1 2.693468 1_555
O18 Pb3 2.657052 1_555
O18 Pb2 2.693468 1_454
O19 Pb2 2.657052 1_555
O19 Pb3 2.693468 1_556
