# generated using pymatgen
data_Na2(NbSe2)3
_symmetry_space_group_name_H-M   'P 1'
_cell_length_a   3.55843962
_cell_length_b   3.55843962
_cell_length_c   45.44959700
_cell_angle_alpha   90.00000000
_cell_angle_beta   90.00000000
_cell_angle_gamma   119.99999295
_symmetry_Int_Tables_number   1
_chemical_formula_structural   Na2(NbSe2)3
_chemical_formula_sum   'Na4 Nb6 Se12'
_cell_volume   498.40214366
_cell_formula_units_Z   2
loop_
 _symmetry_equiv_pos_site_id
 _symmetry_equiv_pos_as_xyz
  1  'x, y, z'
loop_
 _atom_site_type_symbol
 _atom_site_label
 _atom_site_symmetry_multiplicity
 _atom_site_fract_x
 _atom_site_fract_y
 _atom_site_fract_z
 _atom_site_occupancy
  Na  Na0  1  0.00000000  0.00000000  0.08320900  1
  Na  Na1  1  0.00000000  0.00000000  0.41680800  1
  Na  Na2  1  0.00000000  0.00000000  0.75000800  1
  Na  Na3  1  0.00000000  0.00000000  0.24998900  1
  Nb  Nb0  1  0.00000000  0.00000000  0.33333700  1
  Nb  Nb1  1  0.00000000  0.00000000  0.66622800  1
  Nb  Nb2  1  0.00000000  0.00000000  0.99960500  1
  Nb  Nb3  1  0.66666700  0.33333300  0.16668200  1
  Nb  Nb4  1  0.66666700  0.33333300  0.50038100  1
  Nb  Nb5  1  0.66666700  0.33333300  0.83378600  1
  Se  Se0  1  0.33333300  0.66666700  0.03644400  1
  Se  Se1  1  0.33333300  0.66666700  0.36978200  1
  Se  Se2  1  0.33333300  0.66666700  0.70312400  1
  Se  Se3  1  0.33333300  0.66666700  0.29686300  1
  Se  Se4  1  0.33333300  0.66666700  0.63036000  1
  Se  Se5  1  0.33333300  0.66666700  0.96367400  1
  Se  Se6  1  0.33333300  0.66666700  0.13022300  1
  Se  Se7  1  0.33333300  0.66666700  0.46351100  1
  Se  Se8  1  0.33333300  0.66666700  0.79688100  1
  Se  Se9  1  0.33333300  0.66666700  0.20317300  1
  Se  Se10  1  0.33333300  0.66666700  0.53629200  1
  Se  Se11  1  0.33333300  0.66666700  0.86964100  1
loop_
_geom_bond_atom_site_label_1
_geom_bond_atom_site_label_2
_geom_bond_distance
_geom_bond_site_symmetry_2
Na0 Se0 2.956072 1_545
Na0 Se0 2.956074 1_555
Na0 Se0 2.956074 1_445
Na0 Se6 2.964219 1_545
Na0 Se6 2.964222 1_555
Na0 Se6 2.964222 1_445
Na1 Se7 2.954047 1_545
Na1 Se7 2.954049 1_445
Na1 Se7 2.954049 1_555
Na1 Se1 2.964613 1_545
Na1 Se1 2.964615 1_445
Na1 Se1 2.964615 1_555
Na2 Se8 2.959603 1_545
Na2 Se8 2.959606 1_555
Na2 Se8 2.959606 1_445
Na2 Se2 2.959963 1_545
Na2 Se2 2.959965 1_555
Na2 Se2 2.959965 1_445
Na3 Se9 2.957739 1_545
Na3 Se9 2.957741 1_445
Na3 Se9 2.957741 1_555
Na3 Se3 2.959636 1_545
Na3 Se3 2.959638 1_555
Na3 Se3 2.959638 1_445
Nb0 Se1 2.639037 1_545
Nb0 Se1 2.639040 1_445
Nb0 Se1 2.639040 1_555
Nb0 Se3 2.639865 1_545
Nb0 Se3 2.639867 1_555
Nb0 Se3 2.639867 1_445
Nb1 Se4 2.622657 1_545
Nb1 Se4 2.622659 1_555
Nb1 Se4 2.622659 1_445
Nb1 Se2 2.651951 1_545
Nb1 Se2 2.651953 1_555
Nb1 Se2 2.651953 1_445
Nb2 Se5 2.624438 1_545
Nb2 Se5 2.624440 1_445
Nb2 Se5 2.624440 1_555
Nb2 Se0 2.650314 1_546
Nb2 Se0 2.650316 1_446
Nb2 Se0 2.650316 1_556
Nb3 Se6 2.639437 1_545
Nb3 Se6 2.639437 1_655
Nb3 Se6 2.639442 1_555
Nb3 Se9 2.640350 1_545
Nb3 Se9 2.640350 1_655
Nb3 Se9 2.640355 1_555
Nb4 Se10 2.623872 1_545
Nb4 Se10 2.623872 1_655
Nb4 Se10 2.623877 1_555
Nb4 Se7 2.651204 1_545
Nb4 Se7 2.651204 1_655
Nb4 Se7 2.651209 1_555
Nb5 Se11 2.622290 1_545
Nb5 Se11 2.622290 1_655
Nb5 Se11 2.622294 1_555
Nb5 Se8 2.652210 1_545
Nb5 Se8 2.652210 1_655
Nb5 Se8 2.652214 1_555
