# generated using pymatgen
data_Tb4Cu5P7
_symmetry_space_group_name_H-M   'P 1'
_cell_length_a   10.39261651
_cell_length_b   10.39261651
_cell_length_c   10.39261651
_cell_angle_alpha   150.19531635
_cell_angle_beta   150.19531635
_cell_angle_gamma   42.65477534
_symmetry_Int_Tables_number   1
_chemical_formula_structural   Tb4Cu5P7
_chemical_formula_sum   'Tb4 Cu5 P7'
_cell_volume   276.61393654
_cell_formula_units_Z   1
loop_
 _symmetry_equiv_pos_site_id
 _symmetry_equiv_pos_as_xyz
  1  'x, y, z'
loop_
 _atom_site_type_symbol
 _atom_site_label
 _atom_site_symmetry_multiplicity
 _atom_site_fract_x
 _atom_site_fract_y
 _atom_site_fract_z
 _atom_site_occupancy
  Tb  Tb0  1  0.88701000  0.88701000  0.00000000  1
  Tb  Tb1  1  0.38151900  0.38151900  0.00000000  1
  Tb  Tb2  1  0.11376600  0.61376600  0.50000000  1
  Tb  Tb3  1  0.61376600  0.11376600  0.50000000  1
  Cu  Cu0  1  0.00428500  0.00428500  0.50455800  1
  Cu  Cu1  1  0.49972600  0.49972600  0.49544200  1
  Cu  Cu2  1  0.49972600  0.00428500  0.00000000  1
  Cu  Cu3  1  0.00428500  0.49972600  0.00000000  1
  Cu  Cu4  1  0.67097800  0.67097800  0.00000000  1
  P  P0  1  0.27779300  0.27779300  0.55603400  1
  P  P1  1  0.72175900  0.72175900  0.44396600  1
  P  P2  1  0.72175900  0.27779300  0.00000000  1
  P  P3  1  0.27779300  0.72175900  0.00000000  1
  P  P4  1  0.17343100  0.17343100  0.00000000  1
  P  P5  1  0.32620300  0.82620300  0.50000000  1
  P  P6  1  0.82620300  0.32620300  0.50000000  1
loop_
_geom_bond_atom_site_label_1
_geom_bond_atom_site_label_2
_geom_bond_distance
_geom_bond_site_symmetry_2
Cu0 P5 2.373968 1_545
Cu0 P6 2.373968 1_455
Cu0 P4 2.412745 1_556
Cu0 Cu4 2.469483 1_445
Cu0 Tb1 3.129682 1_556
Cu1 P5 2.373980 1_555
Cu1 P6 2.373980 1_555
Cu1 P4 2.412733 1_555
Cu1 Cu4 2.469470 1_556
Cu1 Tb1 3.129698 1_555
Cu2 P5 2.373974 1_544
Cu2 P6 2.373974 1_555
Cu2 P4 2.412736 1_555
Cu2 Cu4 2.469479 1_545
Cu2 Tb1 3.129688 1_555
Cu3 P5 2.373974 1_555
Cu3 P6 2.373974 1_454
Cu3 P4 2.412736 1_555
Cu3 Cu4 2.469479 1_455
Cu3 Tb1 3.129688 1_555
Cu4 Tb3 2.893155 1_554
Cu4 Tb2 2.893155 1_655
Cu4 Tb3 2.893155 1_565
Cu4 Tb2 2.893155 1_554
P0 P3 2.373170 1_556
P0 P2 2.373170 1_556
P0 Tb1 2.838759 1_556
P0 Tb3 2.913345 1_555
P0 Tb2 2.913345 1_555
P0 Tb0 3.030523 1_445
P1 P2 2.373170 1_555
P1 P3 2.373170 1_555
P1 Tb1 2.838759 1_555
P1 Tb2 2.913345 1_655
P1 Tb3 2.913345 1_565
P1 Tb0 3.030523 1_556
P2 Tb1 2.838759 1_555
P2 Tb3 2.913345 1_554
P2 Tb2 2.913345 1_655
P2 Tb0 3.030523 1_545
P3 Tb1 2.838759 1_555
P3 Tb2 2.913345 1_554
P3 Tb3 2.913345 1_565
P3 Tb0 3.030523 1_455
P4 Tb3 2.911671 1_454
P4 Tb2 2.911671 1_544
P4 Tb2 2.911671 1_555
P4 Tb3 2.911671 1_555
P5 Tb1 2.879300 1_566
P5 Tb1 2.879300 1_555
P5 Tb0 2.920514 1_455
P5 Tb0 2.920514 1_556
P6 Tb1 2.879300 1_656
P6 Tb1 2.879300 1_555
P6 Tb0 2.920514 1_556
P6 Tb0 2.920514 1_545
