# generated using pymatgen
data_Sb2Te3
_symmetry_space_group_name_H-M   'P 1'
_cell_length_a   8.17341690
_cell_length_b   8.17341690
_cell_length_c   10.51214026
_cell_angle_alpha   84.73112948
_cell_angle_beta   84.73112948
_cell_angle_gamma   30.20520214
_symmetry_Int_Tables_number   1
_chemical_formula_structural   Sb2Te3
_chemical_formula_sum   'Sb4 Te6'
_cell_volume   351.70453432
_cell_formula_units_Z   2
loop_
 _symmetry_equiv_pos_site_id
 _symmetry_equiv_pos_as_xyz
  1  'x, y, z'
loop_
 _atom_site_type_symbol
 _atom_site_label
 _atom_site_symmetry_multiplicity
 _atom_site_fract_x
 _atom_site_fract_y
 _atom_site_fract_z
 _atom_site_occupancy
  Sb  Sb0  1  0.97912189  0.97912189  0.78991337  1
  Sb  Sb1  1  0.02087811  0.02087811  0.21008663  1
  Sb  Sb2  1  0.23668937  0.23668937  0.82113192  1
  Sb  Sb3  1  0.76331063  0.76331063  0.17886808  1
  Te  Te0  1  0.83084364  0.83084364  0.65513008  1
  Te  Te1  1  0.16915636  0.16915636  0.34486992  1
  Te  Te2  1  0.43129794  0.43129794  0.35203019  1
  Te  Te3  1  0.56870206  0.56870206  0.64796981  1
  Te  Te4  1  0.63897604  0.63897604  0.00166884  1
  Te  Te5  1  0.36102396  0.36102396  -0.00166884  1
loop_
_geom_bond_atom_site_label_1
_geom_bond_atom_site_label_2
_geom_bond_distance
_geom_bond_site_symmetry_2
Sb0 Te0 2.848612 1_555
Sb0 Te3 2.891191 1_565
Sb0 Te3 2.891191 1_655
Sb0 Te5 3.468762 1_566
Sb0 Te5 3.468762 1_656
Sb1 Te1 2.848612 1_555
Sb1 Te2 2.891191 1_545
Sb1 Te2 2.891191 1_455
Sb1 Te4 3.468762 1_455
Sb1 Te4 3.468762 1_545
Sb2 Te5 2.831196 1_556
Sb2 Te0 3.048775 1_545
Sb2 Te0 3.048775 1_455
Sb2 Te4 3.155671 1_456
Sb2 Te4 3.155671 1_546
Sb3 Te4 2.831196 1_555
Sb3 Te1 3.048775 1_655
Sb3 Te1 3.048775 1_565
Sb3 Te5 3.155671 1_655
Sb3 Te5 3.155671 1_565
