# generated using pymatgen
data_NaPr(CO3)2
_symmetry_space_group_name_H-M   'P 1'
_cell_length_a   5.18763700
_cell_length_b   6.43406600
_cell_length_c   7.20147100
_cell_angle_alpha   90.00000000
_cell_angle_beta   90.00000000
_cell_angle_gamma   90.00000000
_symmetry_Int_Tables_number   1
_chemical_formula_structural   NaPr(CO3)2
_chemical_formula_sum   'Na2 Pr2 C4 O12'
_cell_volume   240.36781011
_cell_formula_units_Z   2
loop_
 _symmetry_equiv_pos_site_id
 _symmetry_equiv_pos_as_xyz
  1  'x, y, z'
loop_
 _atom_site_type_symbol
 _atom_site_label
 _atom_site_symmetry_multiplicity
 _atom_site_fract_x
 _atom_site_fract_y
 _atom_site_fract_z
 _atom_site_occupancy
  Na  Na0  1  0.00000000  0.48221300  0.02772900  1
  Na  Na1  1  0.00000000  0.51778700  0.52772900  1
  Pr  Pr0  1  0.50000000  0.12912900  0.32777900  1
  Pr  Pr1  1  0.50000000  0.87087100  0.82777900  1
  C  C0  1  0.50000000  0.58088400  0.24304300  1
  C  C1  1  0.50000000  0.41911600  0.74304300  1
  C  C2  1  0.00000000  0.03694700  0.99851900  1
  C  C3  1  0.00000000  0.96305300  0.49851900  1
  O  O0  1  0.00000000  0.14149000  0.41526100  1
  O  O1  1  0.00000000  0.85851000  0.91526100  1
  O  O2  1  0.28736800  0.48422000  0.28025200  1
  O  O3  1  0.71263200  0.51578000  0.78025200  1
  O  O4  1  0.28736800  0.51578000  0.78025200  1
  O  O5  1  0.71263200  0.48422000  0.28025200  1
  O  O6  1  0.21981300  0.12567600  0.03392400  1
  O  O7  1  0.78018700  0.87432400  0.53392400  1
  O  O8  1  0.21981300  0.87432400  0.53392400  1
  O  O9  1  0.78018700  0.12567600  0.03392400  1
  O  O10  1  0.50000000  0.23588900  0.66531900  1
  O  O11  1  0.50000000  0.76411100  0.16531900  1
loop_
_geom_bond_atom_site_label_1
_geom_bond_atom_site_label_2
_geom_bond_distance
_geom_bond_site_symmetry_2
Na0 O3 2.333505 1_454
Na0 O4 2.333505 1_554
Na0 O5 2.351513 1_455
Na0 O2 2.351513 1_555
Na0 O1 2.553001 1_554
Na0 O9 2.562158 1_455
Na0 O6 2.562158 1_555
Na1 O2 2.333505 1_555
Na1 O5 2.333505 1_455
Na1 O4 2.351513 1_555
Na1 O3 2.351513 1_455
Na1 O0 2.553001 1_555
Na1 O8 2.562158 1_555
Na1 O7 2.562158 1_455
C0 O2 1.294354 1_555
C0 O5 1.294354 1_555
C0 O11 1.305024 1_555
C1 O3 1.294354 1_555
C1 O4 1.294354 1_555
C1 O10 1.305024 1_555
C2 O1 1.295212 1_545
C2 O6 1.300473 1_556
C2 O9 1.300473 1_456
C3 O0 1.295212 1_565
C3 O8 1.300473 1_555
C3 O7 1.300473 1_455
O0 Pr0 2.670415 1_555
O0 Pr0 2.670415 1_455
O1 Pr1 2.670415 1_455
O1 Pr1 2.670415 1_555
O2 Pr0 2.560008 1_555
O3 Pr1 2.560008 1_555
O4 Pr1 2.560008 1_555
O5 Pr0 2.560008 1_555
O6 Pr0 2.567379 1_555
O6 Pr1 2.646565 1_544
O7 Pr1 2.567379 1_555
O7 Pr0 2.646565 1_565
O8 Pr1 2.567379 1_555
O8 Pr0 2.646565 1_565
O9 Pr0 2.567379 1_555
O9 Pr1 2.646565 1_544
O10 Pr0 2.525974 1_555
O10 Pr1 2.623828 1_545
O11 Pr1 2.525974 1_554
O11 Pr0 2.623828 1_565
