# generated using pymatgen
data_Sr(C4N3)2
_symmetry_space_group_name_H-M   'P 1'
_cell_length_a   5.81254700
_cell_length_b   8.42230000
_cell_length_c   11.51224200
_cell_angle_alpha   90.00000000
_cell_angle_beta   90.00000000
_cell_angle_gamma   90.00000000
_symmetry_Int_Tables_number   1
_chemical_formula_structural   Sr(C4N3)2
_chemical_formula_sum   'Sr2 C16 N12'
_cell_volume   563.58197517
_cell_formula_units_Z   2
loop_
 _symmetry_equiv_pos_site_id
 _symmetry_equiv_pos_as_xyz
  1  'x, y, z'
loop_
 _atom_site_type_symbol
 _atom_site_label
 _atom_site_symmetry_multiplicity
 _atom_site_fract_x
 _atom_site_fract_y
 _atom_site_fract_z
 _atom_site_occupancy
  Sr  Sr0  1  0.00000000  0.50000000  0.50000000  1
  Sr  Sr1  1  0.00000000  0.00000000  0.00000000  1
  C  C0  1  0.40890300  0.00000000  0.74191400  1
  C  C1  1  0.40890300  0.50000000  0.75808600  1
  C  C2  1  0.59109700  0.00000000  0.25808600  1
  C  C3  1  0.59109700  0.50000000  0.24191400  1
  C  C4  1  0.58881300  0.00000000  0.66057500  1
  C  C5  1  0.58881300  0.50000000  0.83942500  1
  C  C6  1  0.41118700  0.00000000  0.33942500  1
  C  C7  1  0.41118700  0.50000000  0.16057500  1
  C  C8  1  0.68320900  0.14320600  0.62068300  1
  C  C9  1  0.68320900  0.35679400  0.87931700  1
  C  C10  1  0.31679100  0.14320600  0.37931700  1
  C  C11  1  0.68320900  0.64320600  0.87931700  1
  C  C12  1  0.31679100  0.85679400  0.37931700  1
  C  C13  1  0.31679100  0.64320600  0.12068300  1
  C  C14  1  0.68320900  0.85679400  0.62068300  1
  C  C15  1  0.31679100  0.35679400  0.12068300  1
  N  N0  1  0.76398600  0.26169400  0.58632000  1
  N  N1  1  0.76398600  0.23830600  0.91368000  1
  N  N2  1  0.23601400  0.26169400  0.41368000  1
  N  N3  1  0.76398600  0.76169400  0.91368000  1
  N  N4  1  0.23601400  0.73830600  0.41368000  1
  N  N5  1  0.23601400  0.76169400  0.08632000  1
  N  N6  1  0.76398600  0.73830600  0.58632000  1
  N  N7  1  0.23601400  0.23830600  0.08632000  1
  N  N8  1  0.25994900  0.00000000  0.81057100  1
  N  N9  1  0.25994900  0.50000000  0.68942900  1
  N  N10  1  0.74005100  0.00000000  0.18942900  1
  N  N11  1  0.74005100  0.50000000  0.31057100  1
loop_
_geom_bond_atom_site_label_1
_geom_bond_atom_site_label_2
_geom_bond_distance
_geom_bond_site_symmetry_2
C0 N8 1.172322 1_555
C0 C4 1.403708 1_555
C1 N9 1.172322 1_555
C1 C5 1.403708 1_555
C2 N10 1.172322 1_555
C2 C6 1.403708 1_555
C3 N11 1.172322 1_555
C3 C7 1.403708 1_555
C4 C8 1.402388 1_555
C5 C9 1.402388 1_555
C8 N0 1.171679 1_555
C9 N1 1.171679 1_555
C10 N2 1.171679 1_555
C10 C6 1.402388 1_555
C11 N3 1.171679 1_555
C11 C5 1.402388 1_555
C12 N4 1.171679 1_555
C12 C6 1.402388 1_565
C13 N5 1.171679 1_555
C13 C7 1.402388 1_555
C14 N6 1.171679 1_555
C14 C4 1.402388 1_565
C15 N7 1.171679 1_555
C15 C7 1.402388 1_555
N0 Sr0 2.626376 1_655
N1 Sr1 2.626376 1_656
N2 Sr0 2.626376 1_555
N3 Sr1 2.626376 1_666
N4 Sr0 2.626376 1_555
N5 Sr1 2.626376 1_565
N6 Sr0 2.626376 1_655
N7 Sr1 2.626376 1_555
N8 Sr1 2.653055 1_556
N9 Sr0 2.653055 1_555
N10 Sr1 2.653055 1_655
N11 Sr0 2.653055 1_655
