# generated using pymatgen
data_GdCo9Si4
_symmetry_space_group_name_H-M   'P 1'
_cell_length_a   7.90499736
_cell_length_b   7.90499736
_cell_length_c   7.90499736
_cell_angle_alpha   121.62233964
_cell_angle_beta   121.62233964
_cell_angle_gamma   87.21226789
_symmetry_Int_Tables_number   1
_chemical_formula_structural   GdCo9Si4
_chemical_formula_sum   'Gd2 Co18 Si8'
_cell_volume   340.29009421
_cell_formula_units_Z   2
loop_
 _symmetry_equiv_pos_site_id
 _symmetry_equiv_pos_as_xyz
  1  'x, y, z'
loop_
 _atom_site_type_symbol
 _atom_site_label
 _atom_site_symmetry_multiplicity
 _atom_site_fract_x
 _atom_site_fract_y
 _atom_site_fract_z
 _atom_site_occupancy
  Gd  Gd0  1  0.75000000  0.75000000  0.00000000  1
  Gd  Gd1  1  0.25000000  0.25000000  0.00000000  1
  Co  Co0  1  0.06995100  0.19945300  0.26940300  1
  Co  Co1  1  0.93004900  0.80054700  0.73059700  1
  Co  Co2  1  0.56995100  0.30054700  0.87049800  1
  Co  Co3  1  0.43004900  0.69945300  0.12950200  1
  Co  Co4  1  0.80054700  0.06995100  0.87049800  1
  Co  Co5  1  0.19945300  0.93004900  0.12950200  1
  Co  Co6  1  0.69945300  0.56995100  0.26940300  1
  Co  Co7  1  0.30054700  0.43004900  0.73059700  1
  Co  Co8  1  0.44841100  0.94841100  0.75793600  1
  Co  Co9  1  0.19047400  0.69047400  0.24206400  1
  Co  Co10  1  0.94841100  0.19047400  0.50000000  1
  Co  Co11  1  0.69047400  0.44841100  0.50000000  1
  Co  Co12  1  0.55158900  0.05158900  0.24206400  1
  Co  Co13  1  0.80952600  0.30952600  0.75793600  1
  Co  Co14  1  0.05158900  0.80952600  0.50000000  1
  Co  Co15  1  0.30952600  0.55158900  0.50000000  1
  Co  Co16  1  0.00000000  0.50000000  0.50000000  1
  Co  Co17  1  0.50000000  0.00000000  0.50000000  1
  Si  Si0  1  0.04753300  0.54753300  0.83882600  1
  Si  Si1  1  0.70870600  0.20870600  0.16117400  1
  Si  Si2  1  0.54753300  0.70870600  0.50000000  1
  Si  Si3  1  0.20870600  0.04753300  0.50000000  1
  Si  Si4  1  0.95246700  0.45246700  0.16117400  1
  Si  Si5  1  0.29129400  0.79129400  0.83882600  1
  Si  Si6  1  0.45246700  0.29129400  0.50000000  1
  Si  Si7  1  0.79129400  0.95246700  0.50000000  1
loop_
_geom_bond_atom_site_label_1
_geom_bond_atom_site_label_2
_geom_bond_distance
_geom_bond_site_symmetry_2
Gd0 Si5 3.217858 1_554
Gd0 Si1 3.217858 1_565
Gd0 Si2 3.217859 1_554
Gd0 Si3 3.217859 1_665
Gd0 Si6 3.217859 1_554
Gd0 Si7 3.217859 1_555
Gd0 Si0 3.217863 1_654
Gd0 Si4 3.217863 1_555
Gd1 Si1 3.217858 1_555
Gd1 Si5 3.217858 1_544
Gd1 Si2 3.217859 1_555
Gd1 Si3 3.217859 1_554
Gd1 Si6 3.217859 1_555
Gd1 Si7 3.217859 1_444
Gd1 Si0 3.217863 1_554
Gd1 Si4 3.217863 1_455
Co0 Co4 2.304728 1_454
Co0 Co5 2.304731 1_545
Co0 Co16 2.379269 1_555
Co0 Si6 2.457426 1_555
Co0 Si3 2.457432 1_555
Co0 Co15 2.495953 1_555
Co0 Co10 2.495962 1_455
Co0 Co7 2.514454 1_555
Co0 Si4 2.524930 1_455
Co0 Si1 2.524943 1_455
Co0 Gd1 3.293459 1_555
Co0 Gd0 3.293469 1_445
Co1 Co5 2.304728 1_656
Co1 Co4 2.304731 1_565
Co1 Co16 2.379269 1_655
Co1 Si2 2.457426 1_555
Co1 Si7 2.457432 1_555
Co1 Co11 2.495953 1_555
Co1 Co14 2.495962 1_655
Co1 Co6 2.514454 1_555
Co1 Si0 2.524930 1_655
Co1 Si5 2.524943 1_655
Co1 Gd0 3.293459 1_556
Co1 Gd1 3.293469 1_666
Co2 Co6 2.304728 1_556
Co2 Co7 2.304731 1_555
Co2 Si4 2.457427 1_556
Co2 Si1 2.457433 1_556
Co2 Co8 2.495951 1_545
Co2 Co4 2.514443 1_555
Co2 Si6 2.524939 1_555
Co2 Si3 2.524939 1_555
Co2 Gd0 3.293466 1_556
Co2 Gd1 3.293466 1_556
Co3 Co7 2.304728 1_554
Co3 Co6 2.304731 1_555
Co3 Si0 2.457427 1_554
Co3 Si5 2.457433 1_554
Co3 Co9 2.495961 1_555
Co3 Co5 2.514443 1_555
Co3 Si7 2.524939 1_555
Co3 Si2 2.524939 1_555
Co3 Gd1 3.293466 1_555
Co3 Gd0 3.293466 1_555
Co4 Si4 2.457427 1_556
Co4 Si1 2.457433 1_556
Co4 Co8 2.495951 1_545
Co4 Si7 2.524939 1_545
Co4 Si2 2.524939 1_545
Co4 Gd0 3.293466 1_546
Co4 Gd1 3.293466 1_656
Co5 Si0 2.457427 1_554
Co5 Si5 2.457433 1_554
Co5 Co9 2.495961 1_555
Co5 Si3 2.524939 1_565
Co5 Si6 2.524939 1_565
Co5 Gd0 3.293466 1_455
Co5 Gd1 3.293466 1_565
Co6 Si7 2.457426 1_555
Co6 Si2 2.457432 1_555
Co6 Si4 2.524930 1_555
Co6 Si1 2.524943 1_555
Co6 Gd0 3.293459 1_555
Co6 Gd1 3.293469 1_555
Co7 Si3 2.457426 1_555
Co7 Si6 2.457432 1_555
Co7 Si0 2.524930 1_555
Co7 Si5 2.524943 1_555
Co7 Gd1 3.293459 1_556
Co7 Gd0 3.293469 1_556
Co8 Si1 2.298805 1_566
Co8 Si5 2.304284 1_555
Co8 Si2 2.416893 1_555
Co8 Si3 2.416893 1_565
Co8 Gd1 3.131285 1_566
Co8 Gd0 3.131285 1_556
Co9 Si0 2.298811 1_554
Co9 Si4 2.304284 1_455
Co9 Si2 2.416896 1_555
Co9 Si3 2.416896 1_565
Co9 Gd1 3.131282 1_555
Co9 Gd0 3.131282 1_455
Co10 Si3 2.298798 1_655
Co10 Si7 2.304284 1_545
Co10 Si1 2.416892 1_555
Co10 Si0 2.416895 1_655
Co10 Co7 2.495953 1_655
Co10 Co16 2.500042 1_655
Co10 Co13 2.546213 1_555
Co10 Co12 2.546220 1_555
Co10 Gd0 3.131282 1_545
Co10 Gd1 3.131282 1_656
Co11 Si2 2.298798 1_555
Co11 Si6 2.304284 1_555
Co11 Si1 2.416892 1_555
Co11 Si0 2.416895 1_655
Co11 Co6 2.495962 1_555
Co11 Co16 2.500042 1_655
Co11 Co13 2.546213 1_555
Co11 Co12 2.546220 1_555
Co11 Gd0 3.131282 1_556
Co11 Gd1 3.131282 1_555
Co12 Si5 2.298805 1_544
Co12 Si1 2.304284 1_555
Co12 Si7 2.416893 1_545
Co12 Si6 2.416893 1_555
Co12 Co3 2.495951 1_545
Co12 Co5 2.495951 1_545
Co12 Co17 2.500035 1_555
Co12 Gd0 3.131285 1_545
Co12 Gd1 3.131285 1_555
Co13 Si4 2.298811 1_556
Co13 Si0 2.304284 1_655
Co13 Si7 2.416896 1_545
Co13 Si6 2.416896 1_555
Co13 Co4 2.495961 1_555
Co13 Co2 2.495961 1_555
Co13 Co17 2.500044 1_555
Co13 Gd1 3.131282 1_656
Co13 Gd0 3.131282 1_556
Co14 Si7 2.298798 1_455
Co14 Si3 2.304284 1_565
Co14 Si5 2.416892 1_555
Co14 Si4 2.416895 1_455
Co14 Co6 2.495953 1_455
Co14 Co16 2.500042 1_555
Co14 Co9 2.546213 1_555
Co14 Co8 2.546220 1_555
Co14 Gd0 3.131282 1_455
Co14 Gd1 3.131282 1_566
Co15 Si6 2.298798 1_555
Co15 Si2 2.304284 1_555
Co15 Si5 2.416892 1_555
Co15 Si4 2.416895 1_455
Co15 Co7 2.495962 1_555
Co15 Co16 2.500042 1_555
Co15 Co9 2.546213 1_555
Co15 Co8 2.546220 1_555
Co15 Gd0 3.131282 1_556
Co15 Gd1 3.131282 1_555
Co16 Si0 2.315020 1_555
Co16 Si4 2.315020 1_455
Co16 Si5 2.315026 1_555
Co16 Si1 2.315026 1_455
Co16 Co6 2.379269 1_455
Co16 Co7 2.379269 1_555
Co17 Si7 2.315027 1_545
Co17 Si2 2.315027 1_545
Co17 Si3 2.315027 1_555
Co17 Si6 2.315027 1_555
Co17 Co5 2.379266 1_545
Co17 Co3 2.379266 1_545
Co17 Co2 2.379266 1_555
Co17 Co4 2.379266 1_555
Co17 Co8 2.500035 1_545
Co17 Co9 2.500044 1_545
Si0 Si5 2.790573 1_555
Si1 Si4 2.790573 1_555
Si2 Si7 2.790573 1_555
Si3 Si6 2.790573 1_555
