# generated using pymatgen
data_V4Zn3Cu3O22
_symmetry_space_group_name_H-M   'P 1'
_cell_length_a   5.90357600
_cell_length_b   5.94460401
_cell_length_c   14.66544118
_cell_angle_alpha   89.50130672
_cell_angle_beta   89.62604082
_cell_angle_gamma   60.51493847
_symmetry_Int_Tables_number   1
_chemical_formula_structural   V4Zn3Cu3O22
_chemical_formula_sum   'V4 Zn3 Cu3 O22'
_cell_volume   447.99807597
_cell_formula_units_Z   1
loop_
 _symmetry_equiv_pos_site_id
 _symmetry_equiv_pos_as_xyz
  1  'x, y, z'
loop_
 _atom_site_type_symbol
 _atom_site_label
 _atom_site_symmetry_multiplicity
 _atom_site_fract_x
 _atom_site_fract_y
 _atom_site_fract_z
 _atom_site_occupancy
  V  V0  1  0.00095200  0.99516100  0.87182000  1
  V  V1  1  0.00363000  0.99716300  0.37327500  1
  V  V2  1  0.99637000  0.00283700  0.62672500  1
  V  V3  1  0.99904800  0.00483900  0.12818000  1
  Zn  Zn0  1  0.00000000  0.50000000  0.00000000  1
  Zn  Zn1  1  0.00000000  0.50000000  0.50000000  1
  Zn  Zn2  1  0.50000000  0.50000000  0.00000000  1
  Cu  Cu0  1  0.50000000  0.50000000  0.50000000  1
  Cu  Cu1  1  0.50000000  0.00000000  0.50000000  1
  Cu  Cu2  1  0.50000000  0.00000000  0.00000000  1
  O  O0  1  0.33457500  0.33579100  0.76705700  1
  O  O1  1  0.33216300  0.33335300  0.26387800  1
  O  O2  1  0.66783700  0.66664700  0.73612200  1
  O  O3  1  0.66542500  0.66420900  0.23294300  1
  O  O4  1  0.35121600  0.32219700  0.55334800  1
  O  O5  1  0.34209500  0.31393600  0.05601700  1
  O  O6  1  0.65790500  0.68606400  0.94398300  1
  O  O7  1  0.64878400  0.67780300  0.44665200  1
  O  O8  1  0.99887500  0.00103800  0.74883900  1
  O  O9  1  0.00112500  0.99896200  0.25116100  1
  O  O10  1  0.31447200  0.84634200  0.58311300  1
  O  O11  1  0.31562500  0.85296100  0.08413700  1
  O  O12  1  0.83989300  0.84453000  0.58548400  1
  O  O13  1  0.83844200  0.85015900  0.08554500  1
  O  O14  1  0.83638300  0.31652100  0.58419900  1
  O  O15  1  0.84124300  0.31751000  0.08794000  1
  O  O16  1  0.68437500  0.14703900  0.91586300  1
  O  O17  1  0.68552800  0.15365800  0.41688700  1
  O  O18  1  0.16155800  0.14984100  0.91445500  1
  O  O19  1  0.16010700  0.15547000  0.41451600  1
  O  O20  1  0.15875700  0.68249000  0.91206000  1
  O  O21  1  0.16361700  0.68347900  0.41580100  1
loop_
_geom_bond_atom_site_label_1
_geom_bond_atom_site_label_2
_geom_bond_distance
_geom_bond_site_symmetry_2
Cu0 O7 1.841560 1_555
Cu0 O4 1.841560 1_555
Cu0 O14 2.129422 1_555
Cu0 O21 2.129422 1_555
Cu0 O10 2.175011 1_555
Cu0 O17 2.175011 1_555
Cu1 O4 1.847470 1_555
Cu1 O7 1.847470 1_545
Cu1 O17 2.113702 1_555
Cu1 O10 2.113702 1_545
Cu1 O12 2.153907 1_545
Cu1 O19 2.153907 1_555
Cu2 O5 1.825055 1_555
Cu2 O6 1.825055 1_544
Cu2 O11 2.090835 1_545
Cu2 O16 2.090835 1_554
Cu2 O13 2.149588 1_545
Cu2 O18 2.149588 1_554
O4 Zn1 1.969222 1_555
O5 Zn2 1.938164 1_555
O5 Zn0 1.945224 1_555
O6 Zn2 1.938164 1_556
O6 Zn0 1.945224 1_656
O7 Zn1 1.969222 1_655
O8 V2 1.790909 1_555
O8 V0 1.803610 1_645
O9 V1 1.790909 1_555
O9 V3 1.803610 1_465
O10 V2 1.753877 1_465
O11 V3 1.748891 1_465
O11 Zn2 2.211137 1_555
O12 V2 1.725616 1_565
O12 Zn1 2.187085 1_655
O13 V3 1.735343 1_565
O13 Zn0 2.211778 1_655
O14 V2 1.735494 1_555
O14 Zn1 2.155346 1_655
O15 V3 1.718855 1_555
O15 Zn0 2.163164 1_655
O15 Zn2 2.181003 1_555
O16 V0 1.748891 1_645
O16 Zn2 2.211137 1_556
O17 V1 1.753877 1_645
O18 V0 1.735343 1_545
O18 Zn0 2.211778 1_556
O19 V1 1.725616 1_545
O19 Zn1 2.187085 1_555
O20 V0 1.718855 1_555
O20 Zn0 2.163164 1_556
O20 Zn2 2.181003 1_556
O21 V1 1.735494 1_555
O21 Zn1 2.155346 1_555
