# generated using pymatgen
data_Ge7PbN10
_symmetry_space_group_name_H-M   'P 1'
_cell_length_a   7.32333198
_cell_length_b   7.12962200
_cell_length_c   10.34353365
_cell_angle_alpha   90.00000000
_cell_angle_beta   105.58202788
_cell_angle_gamma   90.00000000
_symmetry_Int_Tables_number   1
_chemical_formula_structural   Ge7PbN10
_chemical_formula_sum   'Ge14 Pb2 N20'
_cell_volume   520.21367673
_cell_formula_units_Z   2
loop_
 _symmetry_equiv_pos_site_id
 _symmetry_equiv_pos_as_xyz
  1  'x, y, z'
loop_
 _atom_site_type_symbol
 _atom_site_label
 _atom_site_symmetry_multiplicity
 _atom_site_fract_x
 _atom_site_fract_y
 _atom_site_fract_z
 _atom_site_occupancy
  Ge  Ge0  1  0.54245600  0.97118000  0.82753500  1
  Ge  Ge1  1  0.54245600  0.02882000  0.32753500  1
  Ge  Ge2  1  0.35371300  0.02679900  0.01893500  1
  Ge  Ge3  1  0.35371300  0.97320100  0.51893500  1
  Ge  Ge4  1  0.11035200  0.39559100  0.07953700  1
  Ge  Ge5  1  0.11035200  0.60440900  0.57953700  1
  Ge  Ge6  1  0.66621300  0.36904800  0.99506300  1
  Ge  Ge7  1  0.66621300  0.63095200  0.49506300  1
  Ge  Ge8  1  0.85334500  0.62762200  0.81291400  1
  Ge  Ge9  1  0.85334500  0.37237800  0.31291400  1
  Ge  Ge10  1  0.29728200  0.61928900  0.88748900  1
  Ge  Ge11  1  0.29728200  0.38071100  0.38748900  1
  Ge  Ge12  1  0.48667500  0.37013500  0.69165000  1
  Ge  Ge13  1  0.48667500  0.62986500  0.19165000  1
  Pb  Pb0  1  0.92319900  0.04978100  0.58761100  1
  Pb  Pb1  1  0.92319900  0.95021900  0.08761100  1
  N  N0  1  0.76944000  0.85359800  0.85665000  1
  N  N1  1  0.76944000  0.14640200  0.35665000  1
  N  N2  1  0.57423200  0.12808300  0.97968600  1
  N  N3  1  0.57423200  0.87191700  0.47968600  1
  N  N4  1  0.32326300  0.87183200  0.86769400  1
  N  N5  1  0.32326300  0.12816800  0.36769400  1
  N  N6  1  0.14401700  0.15701700  0.02486900  1
  N  N7  1  0.14401700  0.84298300  0.52486900  1
  N  N8  1  0.28467100  0.49940800  0.72804500  1
  N  N9  1  0.28467100  0.50059200  0.22804500  1
  N  N10  1  0.45250500  0.11446800  0.67451700  1
  N  N11  1  0.45250500  0.88553200  0.17451700  1
  N  N12  1  0.88542900  0.37519200  0.13512000  1
  N  N13  1  0.88542900  0.62480800  0.63512000  1
  N  N14  1  0.07975200  0.58569000  0.94614100  1
  N  N15  1  0.07975200  0.41431000  0.44614100  1
  N  N16  1  0.70443000  0.41935800  0.82750000  1
  N  N17  1  0.70443000  0.58064200  0.32750000  1
  N  N18  1  0.49132800  0.53111200  0.02834300  1
  N  N19  1  0.49132800  0.46888800  0.52834300  1
loop_
_geom_bond_atom_site_label_1
_geom_bond_atom_site_label_2
_geom_bond_distance
_geom_bond_site_symmetry_2
Ge0 N0 1.813201 1_555
Ge0 N10 1.850011 1_565
Ge0 N2 1.893563 1_565
Ge0 N4 1.899794 1_555
Ge1 N1 1.813201 1_555
Ge1 N11 1.850011 1_545
Ge1 N3 1.893563 1_545
Ge1 N5 1.899794 1_555
Ge2 N6 1.809595 1_555
Ge2 N11 1.871388 1_545
Ge2 N4 1.878900 1_544
Ge2 N2 1.909581 1_554
Ge3 N7 1.809595 1_555
Ge3 N10 1.871388 1_565
Ge3 N5 1.878900 1_565
Ge3 N3 1.909581 1_555
Ge4 N6 1.829926 1_555
Ge4 N9 1.869817 1_555
Ge4 N12 1.890417 1_455
Ge4 N14 1.903902 1_554
Ge5 N7 1.829926 1_555
Ge5 N8 1.869817 1_555
Ge5 N13 1.890417 1_455
Ge5 N15 1.903902 1_555
Ge6 N18 1.825027 1_556
Ge6 N2 1.836566 1_555
Ge6 N12 1.851604 1_556
Ge6 N16 1.863210 1_555
Ge7 N19 1.825027 1_555
Ge7 N3 1.836566 1_555
Ge7 N13 1.851604 1_555
Ge7 N17 1.863210 1_555
Ge8 N0 1.824082 1_555
Ge8 N16 1.872224 1_555
Ge8 N14 1.873499 1_655
Ge8 N13 1.915656 1_555
Ge9 N1 1.824082 1_555
Ge9 N17 1.872224 1_555
Ge9 N15 1.873499 1_655
Ge9 N12 1.915656 1_555
Ge10 N4 1.827836 1_555
Ge10 N8 1.837698 1_555
Ge10 N18 1.850675 1_556
Ge10 N14 1.866128 1_555
Ge11 N5 1.827836 1_555
Ge11 N9 1.837698 1_555
Ge11 N19 1.850675 1_555
Ge11 N15 1.866128 1_555
Ge12 N19 1.838777 1_555
Ge12 N10 1.841964 1_555
Ge12 N16 1.853877 1_555
Ge12 N8 1.865162 1_555
Ge13 N18 1.838777 1_555
Ge13 N11 1.841964 1_555
Ge13 N17 1.853877 1_555
Ge13 N9 1.865162 1_555
N0 Pb1 2.450388 1_556
N1 Pb0 2.450388 1_555
N2 Pb1 2.802266 1_546
N3 Pb0 2.802266 1_565
N6 Pb1 2.402894 1_445
N7 Pb0 2.402894 1_465
