# generated using pymatgen
data_Sr2MnNbO6
_symmetry_space_group_name_H-M   'P 1'
_cell_length_a   5.76883097
_cell_length_b   7.93809600
_cell_length_c   11.45277874
_cell_angle_alpha   90.00036882
_cell_angle_beta   89.99822443
_cell_angle_gamma   89.99926504
_symmetry_Int_Tables_number   1
_chemical_formula_structural   Sr2MnNbO6
_chemical_formula_sum   'Sr8 Mn4 Nb4 O24'
_cell_volume   524.46321338
_cell_formula_units_Z   4
loop_
 _symmetry_equiv_pos_site_id
 _symmetry_equiv_pos_as_xyz
  1  'x, y, z'
loop_
 _atom_site_type_symbol
 _atom_site_label
 _atom_site_symmetry_multiplicity
 _atom_site_fract_x
 _atom_site_fract_y
 _atom_site_fract_z
 _atom_site_occupancy
  Sr  Sr0  1  0.49463800  0.25103100  0.49885900  1
  Sr  Sr1  1  0.00533500  0.75108400  0.75109000  1
  Sr  Sr2  1  0.50447400  0.24998700  0.99934800  1
  Sr  Sr3  1  0.99562400  0.75002600  0.25064500  1
  Sr  Sr4  1  0.49463900  0.74898300  0.49885600  1
  Sr  Sr5  1  0.00531800  0.24893500  0.75107300  1
  Sr  Sr6  1  0.50447700  0.75003700  0.99934800  1
  Sr  Sr7  1  0.99561500  0.24999400  0.25065800  1
  Mn  Mn0  1  0.99336000  0.99989300  0.50010700  1
  Mn  Mn1  1  0.50650700  0.49995800  0.74993000  1
  Mn  Mn2  1  0.00629100  0.00001800  0.00011600  1
  Mn  Mn3  1  0.49374700  0.49996200  0.24982000  1
  Nb  Nb0  1  0.98360000  0.49997800  0.50028400  1
  Nb  Nb1  1  0.51626200  0.99997900  0.74975000  1
  Nb  Nb2  1  0.01608100  0.50001300  0.99958800  1
  Nb  Nb3  1  0.48402400  0.99997300  0.25036800  1
  O  O0  1  0.98231800  0.24686800  0.49942600  1
  O  O1  1  0.51760900  0.74685000  0.75062400  1
  O  O2  1  0.01752000  0.24692900  0.99920000  1
  O  O3  1  0.48237600  0.74691700  0.25073400  1
  O  O4  1  0.20821900  0.49998700  0.62714700  1
  O  O5  1  0.78552600  0.99997900  0.87242000  1
  O  O6  1  0.28112900  0.49999000  0.11921300  1
  O  O7  1  0.69852000  0.00001200  0.38121900  1
  O  O8  1  0.20457700  0.49998800  0.37198600  1
  O  O9  1  0.78687600  0.00000900  0.63340200  1
  O  O10  1  0.29166100  0.49999400  0.88037400  1
  O  O11  1  0.71462500  0.99999600  0.12612200  1
  O  O12  1  0.98234600  0.75313000  0.49942000  1
  O  O13  1  0.51767000  0.25313700  0.75063600  1
  O  O14  1  0.01764200  0.75310100  0.99919000  1
  O  O15  1  0.48240700  0.25305400  0.25071500  1
  O  O16  1  0.71474800  0.49998700  0.37742000  1
  O  O17  1  0.29079200  0.00001600  0.62325500  1
  O  O18  1  0.80191400  0.50004900  0.86858000  1
  O  O19  1  0.21901000  0.00001800  0.13075100  1
  O  O20  1  0.71225000  0.50000500  0.61631500  1
  O  O21  1  0.29580100  0.00003400  0.87825600  1
  O  O22  1  0.78559700  0.50006700  0.12387900  1
  O  O23  1  0.20887200  0.00003100  0.36987300  1
loop_
_geom_bond_atom_site_label_1
_geom_bond_atom_site_label_2
_geom_bond_distance
_geom_bond_site_symmetry_2
Mn0 O9 1.936306 1_565
Mn0 O23 1.941715 1_665
Mn0 O12 1.959875 1_555
Mn0 O0 1.961561 1_565
Mn0 O7 2.178783 1_565
Mn0 O17 2.221133 1_665
Mn1 O20 1.936573 1_555
Mn1 O10 1.941108 1_555
Mn1 O13 1.960363 1_555
Mn1 O1 1.960915 1_555
Mn1 O18 2.179637 1_555
Mn1 O4 2.222302 1_555
Mn2 O19 1.935046 1_555
Mn2 O5 1.939302 1_444
Mn2 O2 1.961102 1_554
Mn2 O14 1.961172 1_544
Mn2 O21 2.176466 1_554
Mn2 O11 2.216639 1_445
Mn3 O6 1.934428 1_555
Mn3 O16 1.939367 1_555
Mn3 O15 1.961099 1_555
Mn3 O3 1.961477 1_555
Mn3 O8 2.177211 1_555
Mn3 O22 2.216961 1_555
Nb0 O8 1.945248 1_655
Nb0 O4 1.946844 1_655
Nb0 O0 2.009249 1_555
Nb0 O12 2.009582 1_555
Nb0 O20 2.053333 1_555
Nb0 O16 2.094193 1_555
Nb1 O21 1.945100 1_565
Nb1 O17 1.946977 1_565
Nb1 O1 2.009402 1_555
Nb1 O13 2.009635 1_565
Nb1 O9 2.052453 1_565
Nb1 O5 2.094463 1_555
Nb2 O18 1.943650 1_455
Nb2 O22 1.947837 1_456
Nb2 O2 2.009027 1_555
Nb2 O14 2.009062 1_555
Nb2 O6 2.053054 1_556
Nb2 O10 2.095562 1_555
Nb3 O7 1.943470 1_565
Nb3 O11 1.947921 1_555
Nb3 O3 2.008810 1_555
Nb3 O15 2.009007 1_565
Nb3 O19 2.052846 1_565
Nb3 O23 2.095864 1_565
O0 Sr0 2.813545 1_555
O0 Sr7 2.850223 1_555
O0 Sr5 2.885161 1_655
O0 Sr0 2.955680 1_655
O1 Sr1 2.813815 1_655
O1 Sr6 2.849698 1_555
O1 Sr4 2.886540 1_555
O1 Sr1 2.955417 1_555
O2 Sr2 2.809261 1_555
O2 Sr5 2.842662 1_555
O2 Sr7 2.882762 1_456
O2 Sr2 2.959775 1_455
O3 Sr3 2.808098 1_455
O3 Sr4 2.842616 1_555
O3 Sr6 2.881993 1_554
O3 Sr3 2.960944 1_555
O4 Sr5 2.712199 1_555
O4 Sr1 2.712485 1_555
O4 Sr0 2.965477 1_555
O4 Sr4 2.965749 1_555
O5 Sr1 2.728041 1_655
O5 Sr5 2.728482 1_665
O5 Sr6 2.945905 1_555
O5 Sr2 2.946227 1_565
O6 Sr2 2.735478 1_554
O6 Sr6 2.735777 1_554
O6 Sr7 2.986188 1_455
O6 Sr3 2.986254 1_455
O7 Sr0 2.677480 1_555
O7 Sr4 2.677554 1_545
O7 Sr7 3.018450 1_555
O7 Sr3 3.018532 1_545
O8 Sr7 2.705966 1_455
O8 Sr3 2.706266 1_455
O8 Sr0 2.969338 1_555
O8 Sr4 2.969542 1_555
O9 Sr5 2.703495 1_655
O9 Sr1 2.703621 1_645
O9 Sr0 3.031043 1_555
O9 Sr4 3.031094 1_545
O10 Sr2 2.702308 1_555
O10 Sr6 2.702536 1_555
O10 Sr1 2.982205 1_555
O10 Sr5 2.982207 1_555
O11 Sr6 2.741336 1_554
O11 Sr2 2.741519 1_564
O11 Sr3 2.932423 1_555
O11 Sr7 2.932633 1_565
O12 Sr4 2.813700 1_555
O12 Sr3 2.850298 1_555
O12 Sr1 2.885420 1_655
O12 Sr4 2.955521 1_655
O13 Sr5 2.813361 1_655
O13 Sr2 2.849568 1_555
O13 Sr0 2.886658 1_555
O13 Sr5 2.955865 1_555
O14 Sr6 2.808574 1_555
O14 Sr1 2.842368 1_555
O14 Sr3 2.882758 1_456
O14 Sr6 2.960463 1_455
O15 Sr7 2.808326 1_455
O15 Sr0 2.842862 1_555
O15 Sr2 2.881763 1_554
O15 Sr7 2.960710 1_555
O16 Sr0 2.729872 1_555
O16 Sr4 2.730045 1_555
O16 Sr7 2.944621 1_555
O16 Sr3 2.945010 1_555
O17 Sr0 2.717159 1_555
O17 Sr4 2.717248 1_545
O17 Sr5 2.959581 1_555
O17 Sr1 2.959732 1_545
O18 Sr1 2.675578 1_655
O18 Sr5 2.676065 1_655
O18 Sr6 3.020735 1_555
O18 Sr2 3.021172 1_555
O19 Sr7 2.735700 1_455
O19 Sr3 2.735730 1_445
O19 Sr2 2.985644 1_554
O19 Sr6 2.985676 1_544
O20 Sr0 2.700317 1_555
O20 Sr4 2.700344 1_555
O20 Sr5 3.035211 1_655
O20 Sr1 3.035427 1_655
O21 Sr2 2.703598 1_555
O21 Sr6 2.703852 1_545
O21 Sr5 2.972154 1_555
O21 Sr1 2.972278 1_545
O22 Sr3 2.740979 1_555
O22 Sr7 2.741681 1_555
O22 Sr6 2.932853 1_554
O22 Sr2 2.933469 1_554
O23 Sr7 2.704608 1_455
O23 Sr3 2.704915 1_445
O23 Sr0 2.978260 1_555
O23 Sr4 2.978486 1_545
