# generated using pymatgen
data_NaZnAs(H2O3)2
_symmetry_space_group_name_H-M   'P 1'
_cell_length_a   6.00560000
_cell_length_b   6.22227235
_cell_length_c   8.06767840
_cell_angle_alpha   84.63390980
_cell_angle_beta   83.35707367
_cell_angle_gamma   88.61556334
_symmetry_Int_Tables_number   1
_chemical_formula_structural   NaZnAs(H2O3)2
_chemical_formula_sum   'Na2 Zn2 As2 H8 O12'
_cell_volume   298.11337566
_cell_formula_units_Z   2
loop_
 _symmetry_equiv_pos_site_id
 _symmetry_equiv_pos_as_xyz
  1  'x, y, z'
loop_
 _atom_site_type_symbol
 _atom_site_label
 _atom_site_symmetry_multiplicity
 _atom_site_fract_x
 _atom_site_fract_y
 _atom_site_fract_z
 _atom_site_occupancy
  Na  Na0  1  0.00000000  0.00000000  0.00000000  1
  Na  Na1  1  0.50000000  0.50000000  0.00000000  1
  Zn  Zn0  1  0.69932500  0.76812200  0.39407800  1
  Zn  Zn1  1  0.30067500  0.23187800  0.60592200  1
  As  As0  1  0.18099400  0.73946000  0.60639600  1
  As  As1  1  0.81900600  0.26054000  0.39360400  1
  H  H0  1  0.80993700  0.64756400  0.89927300  1
  H  H1  1  0.19006300  0.35243600  0.10072700  1
  H  H2  1  0.75644000  0.82996500  0.77308900  1
  H  H3  1  0.24356000  0.17003500  0.22691100  1
  H  H4  1  0.98512900  0.39882900  0.84490300  1
  H  H5  1  0.01487100  0.60117100  0.15509700  1
  H  H6  1  0.87363500  0.35492000  0.03894500  1
  H  H7  1  0.12636500  0.64508000  0.96105500  1
  O  O0  1  0.37008400  0.74296800  0.43067500  1
  O  O1  1  0.62991600  0.25703200  0.56932500  1
  O  O2  1  0.90387000  0.75339300  0.57145800  1
  O  O3  1  0.09613000  0.24660700  0.42854200  1
  O  O4  1  0.22831100  0.94214600  0.73090100  1
  O  O5  1  0.77168900  0.05785400  0.26909900  1
  O  O6  1  0.21103800  0.49646000  0.73630700  1
  O  O7  1  0.78896200  0.50354000  0.26369300  1
  O  O8  1  0.73681300  0.79101200  0.89616300  1
  O  O9  1  0.26318700  0.20898800  0.10383700  1
  O  O10  1  0.84673600  0.34809700  0.92177100  1
  O  O11  1  0.15326400  0.65190300  0.07822900  1
loop_
_geom_bond_atom_site_label_1
_geom_bond_atom_site_label_2
_geom_bond_distance
_geom_bond_site_symmetry_2
Na0 O8 2.345308 1_444
Na0 O9 2.345308 1_555
Na0 O11 2.391502 1_545
Na0 O10 2.391502 1_454
Na0 O4 2.481229 1_544
Na0 O5 2.481229 1_455
Na1 O11 2.310910 1_555
Na1 O10 2.310910 1_554
Na1 O9 2.359736 1_555
Na1 O8 2.359736 1_554
Na1 O6 2.898728 1_554
Na1 O7 2.898728 1_555
As0 O0 1.709609 1_555
As0 O2 1.718674 1_455
As0 O4 1.732208 1_555
As0 O6 1.775212 1_555
As1 O1 1.709609 1_555
As1 O3 1.718674 1_655
As1 O5 1.732208 1_555
As1 O7 1.775212 1_555
H0 O8 0.984678 1_555
H0 Na1 2.135686 1_556
H1 O9 0.984678 1_555
H1 Na1 2.135686 1_555
H2 O8 0.993893 1_555
H3 O9 0.993893 1_555
H4 O10 1.015787 1_555
H4 O6 1.625601 1_655
H5 O11 1.015787 1_555
H5 O7 1.625601 1_455
H6 O10 0.982193 1_554
H6 Na0 2.354855 1_655
H6 Na1 2.441499 1_555
H7 O11 0.982193 1_556
H7 Na0 2.354855 1_566
H7 Na1 2.441499 1_556
O0 Zn0 1.972964 1_555
O1 Zn1 1.972964 1_555
O2 Zn0 1.985457 1_555
O3 Zn1 1.985457 1_555
O4 Zn1 2.012974 1_565
O5 Zn0 2.012974 1_545
O6 Zn1 2.063170 1_555
O7 Zn0 2.063170 1_555
