# generated using pymatgen
data_MnZnO2
_symmetry_space_group_name_H-M   'P 1'
_cell_length_a   3.13149600
_cell_length_b   8.16517795
_cell_length_c   8.51877681
_cell_angle_alpha   91.26358696
_cell_angle_beta   94.96948170
_cell_angle_gamma   91.94989909
_symmetry_Int_Tables_number   1
_chemical_formula_structural   MnZnO2
_chemical_formula_sum   'Mn4 Zn4 O8'
_cell_volume   216.80568867
_cell_formula_units_Z   4
loop_
 _symmetry_equiv_pos_site_id
 _symmetry_equiv_pos_as_xyz
  1  'x, y, z'
loop_
 _atom_site_type_symbol
 _atom_site_label
 _atom_site_symmetry_multiplicity
 _atom_site_fract_x
 _atom_site_fract_y
 _atom_site_fract_z
 _atom_site_occupancy
  Mn  Mn0  1  0.48233200  0.74731000  0.92785100  1
  Mn  Mn1  1  0.21555800  0.91155300  0.28420000  1
  Mn  Mn2  1  0.78444200  0.08844700  0.71580000  1
  Mn  Mn3  1  0.51766800  0.25269000  0.07214900  1
  Zn  Zn0  1  0.85315500  0.58471100  0.24791900  1
  Zn  Zn1  1  0.14684500  0.41528900  0.75208100  1
  Zn  Zn2  1  0.25938600  0.24719800  0.38511400  1
  Zn  Zn3  1  0.74061400  0.75280200  0.61488600  1
  O  O0  1  0.97767200  0.24744800  0.91470800  1
  O  O1  1  0.28714800  0.89081400  0.72995900  1
  O  O2  1  0.71285200  0.10918600  0.27004100  1
  O  O3  1  0.02232800  0.75255200  0.08529200  1
  O  O4  1  0.66467200  0.56830400  0.75617200  1
  O  O5  1  0.73565900  0.77213400  0.39258400  1
  O  O6  1  0.33532800  0.43169600  0.24382800  1
  O  O7  1  0.26434100  0.22786600  0.60741600  1
loop_
_geom_bond_atom_site_label_1
_geom_bond_atom_site_label_2
_geom_bond_distance
_geom_bond_site_symmetry_2
Mn0 O3 2.052337 1_556
Mn0 O3 2.063915 1_656
Mn0 O1 2.132090 1_555
Mn0 O4 2.169895 1_555
Mn1 O5 2.139424 1_455
Mn1 O3 2.143527 1_555
Mn1 O5 2.170953 1_555
Mn1 O2 2.216714 1_565
Mn1 O2 2.290271 1_465
Mn2 O7 2.139424 1_655
Mn2 O0 2.143527 1_555
Mn2 O7 2.170953 1_555
Mn2 O1 2.216714 1_545
Mn2 O1 2.290271 1_645
Mn3 O0 2.052337 1_554
Mn3 O0 2.063915 1_454
Mn3 O2 2.132090 1_555
Mn3 O6 2.169895 1_555
O0 Zn1 2.059018 1_655
O1 Zn3 2.132759 1_555
O1 Zn3 2.165487 1_455
O2 Zn2 2.132759 1_555
O2 Zn2 2.165487 1_655
O3 Zn0 2.059018 1_455
O4 Zn3 1.969712 1_555
O4 Zn1 1.994403 1_655
O4 Zn1 2.010502 1_555
O5 Zn3 1.902544 1_555
O5 Zn0 2.007425 1_555
O6 Zn2 1.969712 1_555
O6 Zn0 1.994403 1_455
O6 Zn0 2.010502 1_555
O7 Zn2 1.902544 1_555
O7 Zn1 2.007425 1_555
