# generated using pymatgen
data_Tc6BiO18
_symmetry_space_group_name_H-M   'P 1'
_cell_length_a   7.23939826
_cell_length_b   7.23939826
_cell_length_c   16.17961670
_cell_angle_alpha   77.13625307
_cell_angle_beta   77.13625307
_cell_angle_gamma   89.94441701
_symmetry_Int_Tables_number   1
_chemical_formula_structural   Tc6BiO18
_chemical_formula_sum   'Tc12 Bi2 O36'
_cell_volume   804.87214591
_cell_formula_units_Z   2
loop_
 _symmetry_equiv_pos_site_id
 _symmetry_equiv_pos_as_xyz
  1  'x, y, z'
loop_
 _atom_site_type_symbol
 _atom_site_label
 _atom_site_symmetry_multiplicity
 _atom_site_fract_x
 _atom_site_fract_y
 _atom_site_fract_z
 _atom_site_occupancy
  Tc  Tc0  1  0.00000000  0.50000000  0.00000000  1
  Tc  Tc1  1  0.50000000  0.50000000  0.00000000  1
  Tc  Tc2  1  0.16356900  0.16544700  0.66780700  1
  Tc  Tc3  1  0.83499100  0.33453100  0.83365200  1
  Tc  Tc4  1  0.83643100  0.83455300  0.33219300  1
  Tc  Tc5  1  0.66547000  0.16500900  0.66634800  1
  Tc  Tc6  1  0.50000000  0.50000000  0.50000000  1
  Tc  Tc7  1  0.50000000  0.00000000  0.50000000  1
  Tc  Tc8  1  0.33453100  0.83499100  0.33365200  1
  Tc  Tc9  1  0.16544700  0.16356900  0.16780700  1
  Tc  Tc10  1  0.16500900  0.66547000  0.16634800  1
  Tc  Tc11  1  0.83455300  0.83643100  0.83219300  1
  Bi  Bi0  1  0.00000000  0.50000000  0.50000000  1
  Bi  Bi1  1  0.50000000  0.00000000  0.00000000  1
  O  O0  1  0.70107800  0.29892200  0.75000000  1
  O  O1  1  0.24968100  0.41162300  0.57899900  1
  O  O2  1  0.35271100  0.97430900  0.41829500  1
  O  O3  1  0.05290500  0.30287800  0.74900900  1
  O  O4  1  0.15434200  0.40050000  0.19866200  1
  O  O5  1  0.94760300  0.20122500  0.60667100  1
  O  O6  1  0.94599900  0.05400100  0.25000000  1
  O  O7  1  0.02655800  0.27834900  0.08077000  1
  O  O8  1  0.02569100  0.64728900  0.08170500  1
  O  O9  1  0.72165100  0.97344200  0.41923000  1
  O  O10  1  0.67170300  0.41226500  0.58069000  1
  O  O11  1  0.52049600  0.27621500  0.46250500  1
  O  O12  1  0.59950000  0.84565800  0.30133800  1
  O  O13  1  0.72378500  0.47950400  0.03749500  1
  O  O14  1  0.79877500  0.05239700  0.89332900  1
  O  O15  1  0.58773500  0.32829700  0.91931000  1
  O  O16  1  0.58837700  0.75031900  0.92100100  1
  O  O17  1  0.69712200  0.94709500  0.75099100  1
  O  O18  1  0.41226500  0.67170300  0.08069000  1
  O  O19  1  0.30287800  0.05290500  0.24900900  1
  O  O20  1  0.41162300  0.24968100  0.07899900  1
  O  O21  1  0.20122500  0.94760300  0.10667100  1
  O  O22  1  0.40050000  0.15434200  0.69866200  1
  O  O23  1  0.47950400  0.72378500  0.53749500  1
  O  O24  1  0.27621500  0.52049600  0.96250500  1
  O  O25  1  0.27834900  0.02655800  0.58077000  1
  O  O26  1  0.32829700  0.58773500  0.41931000  1
  O  O27  1  0.05400100  0.94599900  0.75000000  1
  O  O28  1  0.97430900  0.35271100  0.91829500  1
  O  O29  1  0.97344200  0.72165100  0.91923000  1
  O  O30  1  0.84565800  0.59950000  0.80133800  1
  O  O31  1  0.05239700  0.79877500  0.39332900  1
  O  O32  1  0.94709500  0.69712200  0.25099100  1
  O  O33  1  0.75031900  0.58837700  0.42100100  1
  O  O34  1  0.64728900  0.02569100  0.58170500  1
  O  O35  1  0.29892200  0.70107800  0.25000000  1
loop_
_geom_bond_atom_site_label_1
_geom_bond_atom_site_label_2
_geom_bond_distance
_geom_bond_site_symmetry_2
Bi0 O5 2.418441 1_455
Bi0 O31 2.418441 1_555
Bi0 O1 2.443895 1_555
Bi0 O33 2.443895 1_455
Bi0 O26 2.451230 1_555
Bi0 O10 2.451230 1_455
Bi1 O21 2.418441 1_545
Bi1 O14 2.418441 1_554
Bi1 O16 2.443895 1_544
Bi1 O20 2.443895 1_555
Bi1 O15 2.451230 1_554
Bi1 O18 2.451230 1_545
O0 Tc5 1.891614 1_555
O0 Tc3 1.891616 1_555
O1 Tc6 1.983371 1_555
O1 Tc2 2.022981 1_555
O2 Tc8 1.898840 1_555
O2 Tc7 1.912229 1_565
O3 Tc2 1.862691 1_555
O3 Tc3 1.895727 1_455
O4 Tc10 1.869397 1_555
O4 Tc9 1.887025 1_555
O5 Tc2 2.015858 1_655
O5 Tc5 2.045221 1_555
O6 Tc4 1.874460 1_545
O6 Tc9 1.874460 1_655
O7 Tc0 1.870064 1_555
O7 Tc9 1.947396 1_555
O8 Tc10 1.898841 1_555
O8 Tc0 1.912229 1_555
O9 Tc7 1.870064 1_565
O9 Tc4 1.947396 1_555
O10 Tc5 1.998636 1_555
O10 Tc6 2.001194 1_555
O11 Tc6 1.847090 1_555
O11 Tc7 1.951645 1_555
O12 Tc8 1.869390 1_555
O12 Tc4 1.887025 1_555
O13 Tc1 1.847090 1_555
O13 Tc0 1.951645 1_655
O14 Tc11 2.015858 1_545
O14 Tc3 2.045227 1_555
O15 Tc3 1.998635 1_555
O15 Tc1 2.001194 1_556
O16 Tc1 1.983371 1_556
O16 Tc11 2.022981 1_555
O17 Tc11 1.862691 1_555
O17 Tc5 1.895725 1_565
O18 Tc10 1.998636 1_555
O18 Tc1 2.001194 1_555
O19 Tc9 1.862691 1_555
O19 Tc8 1.895727 1_545
O20 Tc1 1.983371 1_555
O20 Tc9 2.022981 1_555
O21 Tc9 2.015858 1_565
O21 Tc10 2.045221 1_555
O22 Tc5 1.869397 1_555
O22 Tc2 1.887025 1_555
O23 Tc6 1.847090 1_555
O23 Tc7 1.951645 1_565
O24 Tc1 1.847090 1_556
O24 Tc0 1.951645 1_556
O25 Tc7 1.870064 1_555
O25 Tc2 1.947396 1_555
O26 Tc8 1.998635 1_555
O26 Tc6 2.001194 1_555
O27 Tc11 1.874460 1_455
O27 Tc2 1.874460 1_565
O28 Tc3 1.898840 1_555
O28 Tc0 1.912229 1_656
O29 Tc0 1.870064 1_656
O29 Tc11 1.947396 1_555
O30 Tc3 1.869390 1_555
O30 Tc11 1.887025 1_555
O31 Tc4 2.015858 1_455
O31 Tc8 2.045227 1_555
O32 Tc4 1.862691 1_555
O32 Tc10 1.895725 1_655
O33 Tc6 1.983371 1_555
O33 Tc4 2.022981 1_555
O34 Tc5 1.898841 1_555
O34 Tc7 1.912229 1_555
O35 Tc10 1.891614 1_555
O35 Tc8 1.891616 1_555
