# generated using pymatgen
data_BaYNbSnO6
_symmetry_space_group_name_H-M   'P 1'
_cell_length_a   5.93346305
_cell_length_b   5.97835233
_cell_length_c   8.49516718
_cell_angle_alpha   89.56768977
_cell_angle_beta   90.18496635
_cell_angle_gamma   89.39588939
_symmetry_Int_Tables_number   1
_chemical_formula_structural   BaYNbSnO6
_chemical_formula_sum   'Ba2 Y2 Nb2 Sn2 O12'
_cell_volume   301.31641994
_cell_formula_units_Z   2
loop_
 _symmetry_equiv_pos_site_id
 _symmetry_equiv_pos_as_xyz
  1  'x, y, z'
loop_
 _atom_site_type_symbol
 _atom_site_label
 _atom_site_symmetry_multiplicity
 _atom_site_fract_x
 _atom_site_fract_y
 _atom_site_fract_z
 _atom_site_occupancy
  Ba  Ba0  1  0.99478501  0.01973928  0.25108442  1
  Ba  Ba1  1  0.00521499  0.98026072  0.74891558  1
  Y  Y0  1  0.50000000  -0.00000000  0.00000000  1
  Y  Y1  1  0.00000000  0.50000000  0.50000000  1
  Nb  Nb0  1  0.00000000  0.50000000  0.00000000  1
  Nb  Nb1  1  0.50000000  -0.00000000  0.50000000  1
  Sn  Sn0  1  0.49543786  0.51425320  0.25258777  1
  Sn  Sn1  1  0.50456214  0.48574680  0.74741223  1
  O  O0  1  0.19592728  0.22897922  0.97541393  1
  O  O1  1  0.30512405  0.72382957  0.54443630  1
  O  O2  1  0.80407272  0.77102078  0.02458607  1
  O  O3  1  0.69487595  0.27617043  0.45556370  1
  O  O4  1  0.26772714  0.69941792  0.94833603  1
  O  O5  1  0.22469913  0.19619471  0.51719711  1
  O  O6  1  0.73227286  0.30058208  0.05166397  1
  O  O7  1  0.77530087  0.80380529  0.48280289  1
  O  O8  1  0.44640078  0.96782566  0.26499671  1
  O  O9  1  0.09159169  0.50610616  0.23528903  1
  O  O10  1  0.55359922  0.03217434  0.73500329  1
  O  O11  1  0.90840831  0.49389384  0.76471097  1
loop_
_geom_bond_atom_site_label_1
_geom_bond_atom_site_label_2
_geom_bond_distance
_geom_bond_site_symmetry_2
Ba0 O7 2.692784 1_545
Ba0 O2 2.694133 1_545
Ba0 O8 2.696415 1_645
Ba0 O6 2.828428 1_555
Ba0 O5 2.851474 1_655
Ba0 O0 2.911839 1_654
Ba0 O3 2.921798 1_555
Ba0 O9 2.971923 1_655
Ba0 O9 3.121944 1_645
Ba0 O8 3.274270 1_545
Ba1 O5 2.692784 1_565
Ba1 O0 2.694133 1_565
Ba1 O10 2.696415 1_465
Ba1 O4 2.828428 1_555
Ba1 O7 2.851474 1_455
Ba1 O2 2.911839 1_456
Ba1 O1 2.921798 1_555
Ba1 O11 2.971923 1_455
Ba1 O11 3.121944 1_465
Ba1 O10 3.274270 1_565
Nb0 O2 1.996818 1_455
Nb0 O0 1.996818 1_554
Nb0 O4 2.043031 1_554
Nb0 O6 2.043031 1_455
Nb0 O9 2.070377 1_555
Nb0 O11 2.070377 1_454
Nb1 O5 2.007260 1_555
Nb1 O7 2.007260 1_545
Nb1 O8 2.031430 1_545
Nb1 O10 2.031430 1_555
Nb1 O1 2.058913 1_545
Nb1 O3 2.058913 1_555
O0 Y0 2.261390 1_556
O1 Y1 2.294580 1_555
O1 Sn1 2.512722 1_555
O2 Y0 2.261390 1_565
O3 Y1 2.294580 1_655
O3 Sn0 2.512722 1_555
O4 Y0 2.319783 1_566
O4 Sn1 2.555478 1_555
O5 Y1 2.245293 1_555
O6 Y0 2.319783 1_555
O6 Sn0 2.555478 1_555
O7 Y1 2.245293 1_655
O8 Y0 2.281530 1_565
O8 Sn0 2.726996 1_555
O9 Y1 2.315316 1_555
O9 Sn0 2.401264 1_555
O10 Y0 2.281530 1_556
O10 Sn1 2.726996 1_555
O11 Y1 2.315316 1_655
O11 Sn1 2.401264 1_555
