# generated using pymatgen
data_Li9Mn2Co5O16
_symmetry_space_group_name_H-M   'P 1'
_cell_length_a   11.56489600
_cell_length_b   5.15551300
_cell_length_c   5.15870802
_cell_angle_alpha   68.86868021
_cell_angle_beta   90.00000000
_cell_angle_gamma   90.00000000
_symmetry_Int_Tables_number   1
_chemical_formula_structural   Li9Mn2Co5O16
_chemical_formula_sum   'Li9 Mn2 Co5 O16'
_cell_volume   286.89494793
_cell_formula_units_Z   1
loop_
 _symmetry_equiv_pos_site_id
 _symmetry_equiv_pos_as_xyz
  1  'x, y, z'
loop_
 _atom_site_type_symbol
 _atom_site_label
 _atom_site_symmetry_multiplicity
 _atom_site_fract_x
 _atom_site_fract_y
 _atom_site_fract_z
 _atom_site_occupancy
  Li  Li0  1  0.87227900  0.00000000  0.50000000  1
  Li  Li1  1  0.74910900  0.50000000  0.50000000  1
  Li  Li2  1  0.61778100  0.00000000  0.50000000  1
  Li  Li3  1  0.50396300  0.50000000  0.50000000  1
  Li  Li4  1  0.37827300  0.00000000  0.50000000  1
  Li  Li5  1  0.25463400  0.50000000  0.50000000  1
  Li  Li6  1  0.12975800  0.00000000  0.50000000  1
  Li  Li7  1  0.99372300  0.50000000  0.50000000  1
  Li  Li8  1  0.49879100  0.00000000  0.00000000  1
  Mn  Mn0  1  0.99718100  0.00000000  0.00000000  1
  Mn  Mn1  1  0.12721700  0.50000000  0.00000000  1
  Co  Co0  1  0.87473500  0.50000000  0.00000000  1
  Co  Co1  1  0.74339700  0.00000000  0.00000000  1
  Co  Co2  1  0.62471300  0.50000000  0.00000000  1
  Co  Co3  1  0.37953500  0.50000000  0.00000000  1
  Co  Co4  1  0.25387900  0.00000000  0.00000000  1
  O  O0  1  0.87745100  0.77202000  0.23271800  1
  O  O1  1  0.75045000  0.27007900  0.21753500  1
  O  O2  1  0.62970700  0.73381500  0.21459000  1
  O  O3  1  0.50824300  0.27916800  0.23490400  1
  O  O4  1  0.36661800  0.75153100  0.21448200  1
  O  O5  1  0.24145300  0.26651800  0.24141800  1
  O  O6  1  0.12578300  0.75226200  0.20794200  1
  O  O7  1  0.00081100  0.28155900  0.23278400  1
  O  O8  1  0.87745100  0.22798000  0.76728200  1
  O  O9  1  0.75045000  0.72992100  0.78246500  1
  O  O10  1  0.62970700  0.26618500  0.78541000  1
  O  O11  1  0.50824300  0.72083200  0.76509600  1
  O  O12  1  0.36661800  0.24846900  0.78551800  1
  O  O13  1  0.24145300  0.73348200  0.75858200  1
  O  O14  1  0.12578300  0.24773800  0.79205800  1
  O  O15  1  0.00081100  0.71844100  0.76721600  1
loop_
_geom_bond_atom_site_label_1
_geom_bond_atom_site_label_2
_geom_bond_distance
_geom_bond_site_symmetry_2
Li0 O0 2.110614 1_545
Li0 O8 2.110614 1_555
Li0 O1 2.141095 1_555
Li0 O9 2.141095 1_545
Li0 O15 2.184981 1_645
Li0 O7 2.184981 1_655
Li1 O2 2.061072 1_555
Li1 O10 2.061072 1_555
Li1 O8 2.162575 1_555
Li1 O0 2.162575 1_555
Li1 O1 2.184947 1_555
Li1 O9 2.184947 1_555
Li2 O11 2.031572 1_545
Li2 O3 2.031572 1_555
Li2 O9 2.225592 1_545
Li2 O1 2.225592 1_555
Li2 O2 2.350940 1_545
Li2 O10 2.350940 1_555
Li3 O3 2.071576 1_555
Li3 O11 2.071576 1_555
Li3 O10 2.110914 1_555
Li3 O2 2.110914 1_555
Li3 O4 2.235367 1_555
Li3 O12 2.235367 1_555
Li4 O11 2.186731 1_545
Li4 O3 2.186731 1_555
Li4 O5 2.202171 1_555
Li4 O13 2.202171 1_545
Li4 O12 2.277921 1_555
Li4 O4 2.277921 1_545
Li5 O4 2.037438 1_555
Li5 O12 2.037438 1_555
Li5 O13 2.099840 1_555
Li5 O5 2.099840 1_555
Li5 O14 2.183833 1_555
Li5 O6 2.183833 1_555
Li6 O13 2.003609 1_545
Li6 O5 2.003609 1_555
Li6 O7 2.188249 1_555
Li6 O15 2.188249 1_545
Li6 O6 2.300178 1_545
Li6 O14 2.300178 1_555
Li7 O8 2.069262 1_555
Li7 O0 2.069262 1_555
Li7 O7 2.072327 1_655
Li7 O15 2.072327 1_655
Li7 O14 2.209323 1_655
Li7 O6 2.209323 1_655
Li8 O12 2.044443 1_554
Li8 O4 2.044443 1_545
Li8 O10 2.075012 1_554
Li8 O2 2.075012 1_545
Li8 O11 2.193029 1_544
Li8 O3 2.193029 1_555
Mn0 O8 1.929413 1_554
Mn0 O0 1.929413 1_545
Mn0 O14 2.001527 1_654
Mn0 O6 2.001527 1_645
Mn0 O7 2.192661 1_655
Mn0 O15 2.192661 1_644
Mn1 O13 1.914280 1_554
Mn1 O5 1.914280 1_555
Mn1 O6 1.961703 1_555
Mn1 O14 1.961703 1_554
Mn1 O15 1.967824 1_554
Mn1 O7 1.967824 1_555
Co0 O1 1.941975 1_555
Co0 O9 1.941975 1_554
Co0 O15 1.964990 1_654
Co0 O7 1.964990 1_655
Co0 O8 2.150091 1_554
Co0 O0 2.150091 1_555
Co1 O10 1.934456 1_554
Co1 O2 1.934456 1_545
Co1 O8 2.051543 1_554
Co1 O0 2.051543 1_545
Co1 O9 2.081194 1_544
Co1 O1 2.081194 1_555
Co2 O3 1.893204 1_555
Co2 O11 1.893204 1_554
Co2 O10 1.908931 1_554
Co2 O2 1.908931 1_555
Co2 O9 1.954436 1_554
Co2 O1 1.954436 1_555
Co3 O12 1.990649 1_554
Co3 O4 1.990649 1_555
Co3 O3 1.996379 1_555
Co3 O11 1.996379 1_554
Co3 O13 2.114046 1_554
Co3 O5 2.114046 1_555
Co4 O12 1.882329 1_554
Co4 O4 1.882329 1_545
Co4 O14 1.997183 1_554
Co4 O6 1.997183 1_545
Co4 O5 2.166445 1_555
Co4 O13 2.166445 1_544
