# generated using pymatgen
data_BaYMn2O5
_symmetry_space_group_name_H-M   'P 1'
_cell_length_a   3.97661371
_cell_length_b   3.97661371
_cell_length_c   7.78664800
_cell_angle_alpha   89.99999480
_cell_angle_beta   89.99999480
_cell_angle_gamma   89.98567550
_symmetry_Int_Tables_number   1
_chemical_formula_structural   BaYMn2O5
_chemical_formula_sum   'Ba1 Y1 Mn2 O5'
_cell_volume   123.13381648
_cell_formula_units_Z   1
loop_
 _symmetry_equiv_pos_site_id
 _symmetry_equiv_pos_as_xyz
  1  'x, y, z'
loop_
 _atom_site_type_symbol
 _atom_site_label
 _atom_site_symmetry_multiplicity
 _atom_site_fract_x
 _atom_site_fract_y
 _atom_site_fract_z
 _atom_site_occupancy
  Ba  Ba0  1  0.00000000  0.50000000  0.99996600  1
  Y  Y0  1  0.00000000  0.50000000  0.50000300  1
  Mn  Mn0  1  0.50000000  0.00000000  0.26711300  1
  Mn  Mn1  1  0.50000000  0.00000000  0.73295200  1
  O  O0  1  0.50000000  0.00000000  0.99999500  1
  O  O1  1  0.00000000  0.00000000  0.31837900  1
  O  O2  1  0.50000000  0.50000000  0.31837900  1
  O  O3  1  0.00000000  0.00000000  0.68160700  1
  O  O4  1  0.50000000  0.50000000  0.68160700  1
loop_
_geom_bond_atom_site_label_1
_geom_bond_atom_site_label_2
_geom_bond_distance
_geom_bond_site_symmetry_2
Ba0 O0 2.811539 1_465
Ba0 O0 2.811539 1_555
Ba0 O0 2.812242 1_455
Ba0 O0 2.812242 1_565
Ba0 O3 3.177822 1_565
Ba0 O4 3.177822 1_555
Ba0 O4 3.177822 1_455
Ba0 O3 3.177822 1_555
Ba0 O1 3.178150 1_556
Ba0 O2 3.178150 1_456
Ba0 O1 3.178150 1_566
Ba0 O2 3.178150 1_556
Mn0 O2 2.027983 1_545
Mn0 O1 2.027983 1_555
Mn0 O1 2.027984 1_655
Mn0 O2 2.027984 1_555
Mn0 O0 2.079954 1_554
Mn1 O3 2.028105 1_655
Mn1 O4 2.028105 1_555
Mn1 O4 2.028105 1_545
Mn1 O3 2.028105 1_555
Mn1 O0 2.079370 1_555
O1 Y0 2.439968 1_545
O1 Y0 2.439968 1_555
O2 Y0 2.439968 1_555
O2 Y0 2.439968 1_655
O3 Y0 2.439878 1_555
O3 Y0 2.439878 1_545
O4 Y0 2.439878 1_655
O4 Y0 2.439878 1_555
