# generated using pymatgen
data_DyMg2Cu9
_symmetry_space_group_name_H-M   'P 1'
_cell_length_a   4.94687098
_cell_length_b   4.94687096
_cell_length_c   16.05981737
_cell_angle_alpha   89.99999467
_cell_angle_beta   90.00000232
_cell_angle_gamma   119.99835596
_symmetry_Int_Tables_number   1
_chemical_formula_structural   DyMg2Cu9
_chemical_formula_sum   'Dy2 Mg4 Cu18'
_cell_volume   340.36084591
_cell_formula_units_Z   2
loop_
 _symmetry_equiv_pos_site_id
 _symmetry_equiv_pos_as_xyz
  1  'x, y, z'
loop_
 _atom_site_type_symbol
 _atom_site_label
 _atom_site_symmetry_multiplicity
 _atom_site_fract_x
 _atom_site_fract_y
 _atom_site_fract_z
 _atom_site_occupancy
  Dy  Dy0  1  0.66666692  0.33333309  0.25001292  1
  Dy  Dy1  1  0.33333300  0.66666704  0.74998844  1
  Mg  Mg0  1  0.33333371  0.66666691  0.53222265  1
  Mg  Mg1  1  0.66666662  0.33333345  0.46777079  1
  Mg  Mg2  1  0.66666723  0.33333356  0.03223374  1
  Mg  Mg3  1  0.33333320  0.66666679  0.96776741  1
  Cu  Cu0  1  0.33576505  0.16788280  0.62338309  1
  Cu  Cu1  1  0.16788652  0.33577195  0.12344049  1
  Cu  Cu2  1  0.83211476  0.66422979  0.87654560  1
  Cu  Cu3  1  -0.00000110  -0.00000143  0.25005733  1
  Cu  Cu4  1  0.16788277  0.33576599  0.37662964  1
  Cu  Cu5  1  0.66423408  0.83211696  0.37662944  1
  Cu  Cu6  1  0.83211536  0.16788449  0.87654553  1
  Cu  Cu7  1  0.83211811  0.16788214  0.62338309  1
  Cu  Cu8  1  -0.00000091  -0.00000058  0.50000519  1
  Cu  Cu9  1  0.16788551  0.83211474  0.12344051  1
  Cu  Cu10  1  0.33333451  0.66666845  0.25005656  1
  Cu  Cu11  1  0.83211765  0.66423485  0.62338321  1
  Cu  Cu12  1  -0.00000129  -0.00000096  -0.00001436  1
  Cu  Cu13  1  0.16788265  0.83211756  0.37662968  1
  Cu  Cu14  1  0.66666827  0.33333399  0.74995159  1
  Cu  Cu15  1  0.66422798  0.83211398  0.12344064  1
  Cu  Cu16  1  0.33577049  0.16788537  0.87654568  1
  Cu  Cu17  1  -0.00000109  -0.00000091  0.74995114  1
loop_
_geom_bond_atom_site_label_1
_geom_bond_atom_site_label_2
_geom_bond_distance
_geom_bond_site_symmetry_2
Dy0 Mg1 3.497152 1_555
Dy0 Mg2 3.497494 1_555
Dy1 Mg0 3.497279 1_555
Dy1 Mg3 3.497490 1_555
Mg0 Mg1 3.037834 1_555
Mg0 Mg1 3.037901 1_565
Mg0 Mg1 3.037904 1_455
Mg2 Mg3 3.037917 1_554
Mg2 Mg3 3.037978 1_654
Mg2 Mg3 3.037982 1_544
Cu0 Cu8 2.448528 1_555
Cu0 Cu7 2.455396 1_555
Cu0 Cu11 2.455452 1_555
Cu0 Cu14 2.478199 1_555
Cu0 Cu17 2.490170 1_555
Cu0 Cu7 2.491475 1_455
Cu0 Cu11 2.491542 1_445
Cu0 Mg1 2.873194 1_555
Cu0 Mg0 2.874254 1_555
Cu0 Mg0 2.874257 1_545
Cu0 Dy1 3.201894 1_545
Cu0 Dy1 3.201896 1_555
Cu1 Cu12 2.449545 1_555
Cu1 Cu9 2.455346 1_555
Cu1 Cu15 2.455400 1_555
Cu1 Cu10 2.478809 1_555
Cu1 Cu3 2.490827 1_555
Cu1 Cu9 2.491525 1_545
Cu1 Cu15 2.491594 1_445
Cu1 Mg3 2.874028 1_554
Cu1 Mg2 2.874634 1_555
Cu1 Mg2 2.874635 1_455
Cu1 Dy0 3.201559 1_555
Cu1 Dy0 3.201561 1_455
Cu2 Cu6 2.455358 1_555
Cu2 Cu6 2.491513 1_565
Cu2 Mg2 2.874242 1_556
Cu2 Mg3 2.874758 1_655
Cu2 Mg3 2.874758 1_555
Cu2 Dy1 3.201403 1_655
Cu2 Dy1 3.201405 1_555
Cu3 Cu5 2.490220 1_445
Cu3 Cu4 2.490229 1_555
Cu3 Cu9 2.490799 1_545
Cu3 Dy0 2.856053 1_455
Cu3 Dy0 2.856120 1_445
Cu3 Dy0 2.856130 1_555
Cu4 Cu8 2.448499 1_555
Cu4 Cu5 2.455446 1_555
Cu4 Cu5 2.491548 1_445
Cu4 Mg0 2.872923 1_555
Cu4 Mg1 2.874098 1_455
Cu4 Mg1 2.874098 1_555
Cu4 Dy0 3.202009 1_455
Cu4 Dy0 3.202013 1_555
Cu5 Cu8 2.448497 1_665
Cu5 Mg0 2.872924 1_555
Cu5 Mg1 2.874098 1_555
Cu5 Mg1 2.874101 1_565
Cu5 Dy0 3.202008 1_565
Cu5 Dy0 3.202010 1_555
Cu6 Mg2 2.874228 1_556
Cu6 Mg3 2.874811 1_545
Cu6 Mg3 2.874812 1_655
Cu6 Dy1 3.201450 1_545
Cu6 Dy1 3.201451 1_655
Cu7 Cu8 2.448501 1_655
Cu7 Mg1 2.873179 1_555
Cu7 Mg0 2.874308 1_545
Cu7 Mg0 2.874309 1_655
Cu7 Dy1 3.201942 1_655
Cu7 Dy1 3.201943 1_545
Cu8 Mg0 2.902544 1_545
Cu8 Mg1 2.902590 1_455
Cu8 Mg0 2.902607 1_445
Cu8 Mg0 2.902616 1_555
Cu8 Mg1 2.902658 1_445
Cu8 Mg1 2.902664 1_555
Cu9 Mg3 2.874013 1_554
Cu9 Mg2 2.874687 1_455
Cu9 Mg2 2.874689 1_565
Cu9 Dy0 3.201606 1_565
Cu9 Dy0 3.201607 1_455
Cu10 Cu13 2.478234 1_555
Cu10 Cu5 2.478248 1_555
Cu10 Cu4 2.478257 1_555
Cu10 Cu9 2.478786 1_555
Cu10 Cu15 2.478800 1_555
Cu10 Cu3 2.856050 1_565
Cu10 Dy0 2.856058 1_555
Cu10 Cu3 2.856115 1_665
Cu10 Dy0 2.856116 1_565
Cu10 Dy0 2.856129 1_455
Cu10 Cu3 2.856138 1_555
Cu11 Cu8 2.448526 1_665
Cu11 Cu7 2.455394 1_555
Cu11 Cu14 2.478192 1_555
Cu11 Cu17 2.490163 1_665
Cu11 Cu7 2.491477 1_565
Cu11 Mg1 2.873195 1_555
Cu11 Mg0 2.874256 1_555
Cu11 Mg0 2.874257 1_655
Cu11 Dy1 3.201891 1_655
Cu11 Dy1 3.201897 1_555
Cu12 Cu6 2.449322 1_454
Cu12 Cu2 2.449344 1_444
Cu12 Cu16 2.449349 1_554
Cu12 Cu9 2.449520 1_545
Cu12 Cu15 2.449542 1_445
Cu12 Mg3 2.902545 1_544
Cu12 Mg3 2.902609 1_444
Cu12 Mg3 2.902619 1_554
Cu12 Mg2 2.902627 1_455
Cu12 Mg2 2.902695 1_445
Cu12 Mg2 2.902708 1_555
Cu13 Cu8 2.448474 1_565
Cu13 Cu4 2.455387 1_555
Cu13 Cu5 2.455388 1_555
Cu13 Cu3 2.490202 1_565
Cu13 Cu5 2.491483 1_455
Cu13 Cu4 2.491483 1_565
Cu13 Mg0 2.872906 1_555
Cu13 Mg1 2.874150 1_565
Cu13 Mg1 2.874151 1_455
Cu13 Dy0 3.202059 1_565
Cu13 Dy0 3.202060 1_455
Cu14 Cu7 2.478175 1_555
Cu14 Cu6 2.478498 1_555
Cu14 Cu2 2.478517 1_555
Cu14 Cu16 2.478523 1_555
Cu14 Cu17 2.856049 1_655
Cu14 Dy1 2.856061 1_555
Cu14 Dy1 2.856116 1_655
Cu14 Cu17 2.856118 1_665
Cu14 Dy1 2.856126 1_545
Cu14 Cu17 2.856136 1_555
Cu15 Cu9 2.455344 1_555
Cu15 Cu3 2.490819 1_665
Cu15 Cu9 2.491527 1_655
Cu15 Mg3 2.874030 1_554
Cu15 Mg2 2.874636 1_565
Cu15 Mg2 2.874636 1_555
Cu15 Dy0 3.201557 1_565
Cu15 Dy0 3.201559 1_555
Cu16 Cu6 2.455356 1_555
Cu16 Cu2 2.455412 1_555
Cu16 Cu17 2.490530 1_555
Cu16 Cu6 2.491515 1_455
Cu16 Cu2 2.491581 1_445
Cu16 Mg2 2.874242 1_556
Cu16 Mg3 2.874757 1_545
Cu16 Mg3 2.874757 1_555
Cu16 Dy1 3.201404 1_545
Cu16 Dy1 3.201406 1_555
Cu17 Cu7 2.490143 1_455
Cu17 Cu6 2.490501 1_455
Cu17 Cu2 2.490524 1_445
Cu17 Dy1 2.856051 1_545
Cu17 Dy1 2.856121 1_445
Cu17 Dy1 2.856130 1_555
