# generated using pymatgen
data_Rb3Sb2I9
_symmetry_space_group_name_H-M   'P 1'
_cell_length_a   8.44735200
_cell_length_b   15.03963500
_cell_length_c   25.87042706
_cell_angle_alpha   54.48855570
_cell_angle_beta   90.00000000
_cell_angle_gamma   90.00000000
_symmetry_Int_Tables_number   1
_chemical_formula_structural   Rb3Sb2I9
_chemical_formula_sum   'Rb12 Sb8 I36'
_cell_volume   2675.38095021
_cell_formula_units_Z   4
loop_
 _symmetry_equiv_pos_site_id
 _symmetry_equiv_pos_as_xyz
  1  'x, y, z'
loop_
 _atom_site_type_symbol
 _atom_site_label
 _atom_site_symmetry_multiplicity
 _atom_site_fract_x
 _atom_site_fract_y
 _atom_site_fract_z
 _atom_site_occupancy
  Rb  Rb0  1  0.51746900  0.75669500  0.77251500  1
  Rb  Rb1  1  0.98253100  0.75669500  0.27251500  1
  Rb  Rb2  1  0.48253100  0.24330500  0.22748500  1
  Rb  Rb3  1  0.01746900  0.24330500  0.72748500  1
  Rb  Rb4  1  0.51042000  0.74949400  0.43194700  1
  Rb  Rb5  1  0.98958000  0.74949400  0.93194700  1
  Rb  Rb6  1  0.48958000  0.25050600  0.56805300  1
  Rb  Rb7  1  0.01042000  0.25050600  0.06805300  1
  Rb  Rb8  1  0.47481300  0.25782900  0.89419200  1
  Rb  Rb9  1  0.02518700  0.25782900  0.39419200  1
  Rb  Rb10  1  0.52518700  0.74217100  0.10580800  1
  Rb  Rb11  1  0.97481300  0.74217100  0.60580800  1
  Sb  Sb0  1  0.50746200  0.00401200  0.15816300  1
  Sb  Sb1  1  0.99253800  0.00401200  0.65816300  1
  Sb  Sb2  1  0.49253800  0.99598800  0.84183700  1
  Sb  Sb3  1  0.00746200  0.99598800  0.34183700  1
  Sb  Sb4  1  0.49131500  0.50740100  0.65894100  1
  Sb  Sb5  1  0.00868500  0.50740100  0.15894100  1
  Sb  Sb6  1  0.50868500  0.49259900  0.34105900  1
  Sb  Sb7  1  0.99131500  0.49259900  0.84105900  1
  I  I0  1  0.06858500  0.74885800  0.74820300  1
  I  I1  1  0.43141500  0.74885800  0.24820300  1
  I  I2  1  0.93141500  0.25114200  0.25179700  1
  I  I3  1  0.56858500  0.25114200  0.75179700  1
  I  I4  1  0.05730400  0.75864000  0.41822900  1
  I  I5  1  0.44269600  0.75864000  0.91822900  1
  I  I6  1  0.94269600  0.24136000  0.58177100  1
  I  I7  1  0.55730400  0.24136000  0.08177100  1
  I  I8  1  0.93338600  0.25736900  0.92024800  1
  I  I9  1  0.56661400  0.25736900  0.42024800  1
  I  I10  1  0.06661400  0.74263100  0.07975200  1
  I  I11  1  0.43338600  0.74263100  0.57975200  1
  I  I12  1  0.80689000  0.97703400  0.43941600  1
  I  I13  1  0.69311000  0.97703400  0.93941600  1
  I  I14  1  0.19311000  0.02296600  0.56058400  1
  I  I15  1  0.30689000  0.02296600  0.06058400  1
  I  I16  1  0.79426300  0.52648200  0.92140400  1
  I  I17  1  0.70573700  0.52648200  0.42140400  1
  I  I18  1  0.20573700  0.47351800  0.07859600  1
  I  I19  1  0.29426300  0.47351800  0.57859600  1
  I  I20  1  0.79308700  0.96591300  0.10968900  1
  I  I21  1  0.70691300  0.96591300  0.60968900  1
  I  I22  1  0.20691300  0.03408700  0.89031100  1
  I  I23  1  0.29308700  0.03408700  0.39031100  1
  I  I24  1  0.77761500  0.53250800  0.58762400  1
  I  I25  1  0.72238500  0.53250800  0.08762400  1
  I  I26  1  0.22238500  0.46749200  0.41237600  1
  I  I27  1  0.27761500  0.46749200  0.91237600  1
  I  I28  1  0.79790200  0.96727300  0.77742400  1
  I  I29  1  0.70209800  0.96727300  0.27742400  1
  I  I30  1  0.20209800  0.03272700  0.22257600  1
  I  I31  1  0.29790200  0.03272700  0.72257600  1
  I  I32  1  0.81694600  0.53859600  0.25555300  1
  I  I33  1  0.68305400  0.53859600  0.75555300  1
  I  I34  1  0.18305400  0.46140400  0.74444700  1
  I  I35  1  0.31694600  0.46140400  0.24444700  1
loop_
_geom_bond_atom_site_label_1
_geom_bond_atom_site_label_2
_geom_bond_distance
_geom_bond_site_symmetry_2
I0 Sb1 3.190611 1_465
I0 Sb7 3.208543 1_455
I0 Rb11 3.826030 1_455
I0 Rb0 3.856679 1_555
I1 Sb0 3.190611 1_565
I1 Sb6 3.208543 1_555
I1 Rb10 3.826030 1_555
I1 Rb1 3.856679 1_455
I2 Sb3 3.190611 1_645
I2 Sb5 3.208543 1_655
I2 Rb9 3.826030 1_655
I2 Rb2 3.856679 1_555
I3 Sb2 3.190611 1_545
I3 Sb4 3.208543 1_555
I3 Rb8 3.826030 1_555
I3 Rb3 3.856679 1_655
I4 Sb3 2.937628 1_555
I4 Rb1 3.839067 1_455
I4 Rb4 3.839129 1_555
I5 Sb2 2.937628 1_555
I5 Rb0 3.839067 1_555
I5 Rb5 3.839129 1_455
I6 Sb1 2.937628 1_555
I6 Rb3 3.839067 1_655
I6 Rb6 3.839129 1_555
I7 Sb0 2.937628 1_555
I7 Rb2 3.839067 1_555
I7 Rb7 3.839129 1_655
I8 Sb7 2.921033 1_555
I8 Rb7 3.820586 1_656
I8 Rb8 3.931257 1_555
I9 Sb6 2.921033 1_555
I9 Rb6 3.820586 1_555
I9 Rb9 3.931257 1_655
I10 Sb5 2.921033 1_555
I10 Rb5 3.820586 1_454
I10 Rb10 3.931257 1_555
I11 Sb4 2.921033 1_555
I11 Rb4 3.820586 1_555
I11 Rb11 3.931257 1_455
I12 Sb3 2.913516 1_655
I12 Rb11 3.918501 1_555
I12 Rb9 4.106525 1_665
I13 Sb2 2.913516 1_555
I13 Rb10 3.918501 1_556
I13 Rb8 4.106525 1_565
I14 Sb1 2.913516 1_455
I14 Rb9 3.918501 1_555
I14 Rb11 4.106525 1_445
I15 Sb0 2.913516 1_555
I15 Rb8 3.918501 1_554
I15 Rb10 4.106525 1_545
I16 Sb7 2.929401 1_555
I16 Rb5 3.887006 1_555
I16 Rb7 4.081834 1_656
I16 Rb0 4.098553 1_555
I17 Sb6 2.929401 1_555
I17 Rb4 3.887006 1_555
I17 Rb6 4.081834 1_555
I17 Rb1 4.098553 1_555
I18 Sb5 2.929401 1_555
I18 Rb7 3.887006 1_555
I18 Rb5 4.081834 1_454
I18 Rb2 4.098553 1_555
I19 Sb4 2.929401 1_555
I19 Rb6 3.887006 1_555
I19 Rb4 4.081834 1_555
I19 Rb3 4.098553 1_555
I20 Sb0 2.925270 1_565
I20 Rb1 3.848086 1_555
I20 Rb10 4.104530 1_555
I20 Rb7 4.182658 1_665
I21 Sb1 2.925270 1_565
I21 Rb0 3.848086 1_555
I21 Rb11 4.104530 1_555
I21 Rb6 4.182658 1_565
I22 Sb2 2.925270 1_545
I22 Rb3 3.848086 1_555
I22 Rb8 4.104530 1_555
I22 Rb5 4.182658 1_445
I23 Sb3 2.925270 1_545
I23 Rb2 3.848086 1_555
I23 Rb9 4.104530 1_555
I23 Rb4 4.182658 1_545
I24 Sb4 2.930238 1_555
I24 Rb11 3.829164 1_555
I24 Rb4 4.086031 1_555
I24 Rb3 4.222833 1_655
I25 Sb5 2.930238 1_655
I25 Rb10 3.829164 1_555
I25 Rb5 4.086031 1_554
I25 Rb2 4.222833 1_555
I26 Sb6 2.930238 1_555
I26 Rb9 3.829164 1_555
I26 Rb6 4.086031 1_555
I26 Rb1 4.222833 1_455
I27 Sb7 2.930238 1_455
I27 Rb8 3.829164 1_555
I27 Rb7 4.086031 1_556
I27 Rb0 4.222833 1_555
I28 Sb2 3.233159 1_555
I28 Sb1 3.247669 1_565
I28 Rb5 3.757540 1_555
I28 Rb3 4.014065 1_665
I28 Rb0 4.015612 1_555
I29 Sb3 3.233159 1_655
I29 Sb0 3.247669 1_565
I29 Rb4 3.757540 1_555
I29 Rb2 4.014065 1_565
I29 Rb1 4.015612 1_555
I30 Sb0 3.233159 1_555
I30 Sb3 3.247669 1_545
I30 Rb7 3.757540 1_555
I30 Rb1 4.014065 1_445
I30 Rb2 4.015612 1_555
I31 Sb1 3.233159 1_455
I31 Sb2 3.247669 1_545
I31 Rb6 3.757540 1_555
I31 Rb0 4.014065 1_545
I31 Rb3 4.015612 1_555
I32 Sb6 3.221000 1_555
I32 Sb5 3.233069 1_655
I32 Rb1 3.818439 1_555
I32 Rb9 4.024242 1_655
I32 Rb10 4.083702 1_555
I33 Sb7 3.221000 1_555
I33 Sb4 3.233069 1_555
I33 Rb0 3.818439 1_555
I33 Rb8 4.024242 1_555
I33 Rb11 4.083702 1_555
I34 Sb4 3.221000 1_555
I34 Sb7 3.233069 1_455
I34 Rb3 3.818439 1_555
I34 Rb11 4.024242 1_455
I34 Rb8 4.083702 1_555
I35 Sb5 3.221000 1_555
I35 Sb6 3.233069 1_555
I35 Rb2 3.818439 1_555
I35 Rb10 4.024242 1_555
I35 Rb9 4.083702 1_555
