# generated using pymatgen
data_NaZn2Se2O7
_symmetry_space_group_name_H-M   'P 1'
_cell_length_a   6.27324700
_cell_length_b   13.56423100
_cell_length_c   8.35324300
_cell_angle_alpha   90.00000000
_cell_angle_beta   90.00000000
_cell_angle_gamma   90.00000000
_symmetry_Int_Tables_number   1
_chemical_formula_structural   NaZn2Se2O7
_chemical_formula_sum   'Na4 Zn8 Se8 O28'
_cell_volume   710.79224404
_cell_formula_units_Z   4
loop_
 _symmetry_equiv_pos_site_id
 _symmetry_equiv_pos_as_xyz
  1  'x, y, z'
loop_
 _atom_site_type_symbol
 _atom_site_label
 _atom_site_symmetry_multiplicity
 _atom_site_fract_x
 _atom_site_fract_y
 _atom_site_fract_z
 _atom_site_occupancy
  Na  Na0  1  0.75000000  0.75263100  0.36400400  1
  Na  Na1  1  0.25000000  0.24736900  0.63599600  1
  Na  Na2  1  0.25000000  0.74736900  0.86400400  1
  Na  Na3  1  0.75000000  0.25263100  0.13599600  1
  Zn  Zn0  1  0.75000000  0.88779000  0.72136000  1
  Zn  Zn1  1  0.25000000  0.11221000  0.27864000  1
  Zn  Zn2  1  0.25000000  0.61221000  0.22136000  1
  Zn  Zn3  1  0.75000000  0.38779000  0.77864000  1
  Zn  Zn4  1  0.00000000  0.00000000  0.00000000  1
  Zn  Zn5  1  0.00000000  0.50000000  0.50000000  1
  Zn  Zn6  1  0.50000000  0.00000000  0.00000000  1
  Zn  Zn7  1  0.50000000  0.50000000  0.50000000  1
  Se  Se0  1  0.75000000  0.67242400  0.72816000  1
  Se  Se1  1  0.25000000  0.32757600  0.27184000  1
  Se  Se2  1  0.25000000  0.82757600  0.22816000  1
  Se  Se3  1  0.75000000  0.17242400  0.77184000  1
  Se  Se4  1  0.75000000  0.52455400  0.11431900  1
  Se  Se5  1  0.25000000  0.47544600  0.88568100  1
  Se  Se6  1  0.25000000  0.97544600  0.61431900  1
  Se  Se7  1  0.75000000  0.02455400  0.38568100  1
  O  O0  1  0.75000000  0.91009200  0.47550500  1
  O  O1  1  0.25000000  0.08990800  0.52449500  1
  O  O2  1  0.25000000  0.58990800  0.97550500  1
  O  O3  1  0.75000000  0.41009200  0.02449500  1
  O  O4  1  0.95231100  0.75655100  0.70514100  1
  O  O5  1  0.04768900  0.24344900  0.29485900  1
  O  O6  1  0.04768900  0.74344900  0.20514100  1
  O  O7  1  0.45231100  0.24344900  0.29485900  1
  O  O8  1  0.95231100  0.25655100  0.79485900  1
  O  O9  1  0.54768900  0.75655100  0.70514100  1
  O  O10  1  0.54768900  0.25655100  0.79485900  1
  O  O11  1  0.45231100  0.74344900  0.20514100  1
  O  O12  1  0.46607000  0.98425900  0.74397000  1
  O  O13  1  0.53393000  0.01574100  0.25603000  1
  O  O14  1  0.53393000  0.51574100  0.24397000  1
  O  O15  1  0.96607000  0.01574100  0.25603000  1
  O  O16  1  0.46607000  0.48425900  0.75603000  1
  O  O17  1  0.03393000  0.98425900  0.74397000  1
  O  O18  1  0.03393000  0.48425900  0.75603000  1
  O  O19  1  0.96607000  0.51574100  0.24397000  1
  O  O20  1  0.75000000  0.61423100  0.53730200  1
  O  O21  1  0.25000000  0.38576900  0.46269800  1
  O  O22  1  0.25000000  0.88576900  0.03730200  1
  O  O23  1  0.75000000  0.11423100  0.96269800  1
  O  O24  1  0.75000000  0.91780000  0.95872100  1
  O  O25  1  0.25000000  0.08220000  0.04127900  1
  O  O26  1  0.25000000  0.58220000  0.45872100  1
  O  O27  1  0.75000000  0.41780000  0.54127900  1
loop_
_geom_bond_atom_site_label_1
_geom_bond_atom_site_label_2
_geom_bond_distance
_geom_bond_site_symmetry_2
Na0 O6 2.294334 1_655
Na0 O11 2.294334 1_555
Na0 O0 2.330085 1_555
Na0 O20 2.370604 1_555
Na1 O10 2.294334 1_555
Na1 O8 2.294334 1_455
Na1 O1 2.330085 1_555
Na1 O21 2.370604 1_555
Na2 O9 2.294334 1_555
Na2 O4 2.294334 1_455
Na2 O2 2.330085 1_555
Na2 O22 2.370604 1_556
Na3 O5 2.294334 1_655
Na3 O7 2.294334 1_555
Na3 O3 2.330085 1_555
Na3 O23 2.370604 1_554
O0 Se7 1.724388 1_565
O0 Zn0 2.075847 1_555
O1 Se6 1.724388 1_545
O1 Zn1 2.075847 1_555
O2 Se5 1.724388 1_555
O2 Zn2 2.075847 1_556
O3 Se4 1.724388 1_555
O3 Zn3 2.075847 1_554
O4 Se0 1.717515 1_555
O4 Zn0 2.190444 1_555
O5 Se1 1.717515 1_555
O5 Zn1 2.190444 1_555
O6 Se2 1.717515 1_555
O6 Zn2 2.190444 1_555
O7 Se1 1.717515 1_555
O7 Zn1 2.190444 1_555
O8 Se3 1.717515 1_555
O8 Zn3 2.190444 1_555
O9 Se0 1.717515 1_555
O9 Zn0 2.190444 1_555
O10 Se3 1.717515 1_555
O10 Zn3 2.190444 1_555
O11 Se2 1.717515 1_555
O11 Zn2 2.190444 1_555
O12 Se6 1.739099 1_555
O12 Zn6 2.159826 1_566
O12 Zn0 2.218210 1_555
O13 Se7 1.739099 1_555
O13 Zn6 2.159826 1_555
O13 Zn1 2.218210 1_555
O14 Se4 1.739099 1_555
O14 Zn7 2.159826 1_555
O14 Zn2 2.218210 1_555
O15 Se7 1.739099 1_555
O15 Zn4 2.159826 1_655
O15 Zn1 2.218210 1_655
O16 Se5 1.739099 1_555
O16 Zn7 2.159826 1_555
O16 Zn3 2.218210 1_555
O17 Se6 1.739099 1_555
O17 Zn4 2.159826 1_566
O17 Zn0 2.218210 1_455
O18 Se5 1.739099 1_555
O18 Zn5 2.159826 1_555
O18 Zn3 2.218210 1_455
O19 Se4 1.739099 1_555
O19 Zn5 2.159826 1_655
O19 Zn2 2.218210 1_655
O20 Se0 1.778989 1_555
O20 Zn7 2.226545 1_555
O20 Zn5 2.226545 1_655
O21 Se1 1.778989 1_555
O21 Zn5 2.226545 1_555
O21 Zn7 2.226545 1_555
O22 Se2 1.778989 1_555
O22 Zn6 2.226545 1_565
O22 Zn4 2.226545 1_565
O23 Se3 1.778989 1_555
O23 Zn6 2.226545 1_556
O23 Zn4 2.226545 1_656
O24 Zn6 1.954911 1_566
O24 Zn4 1.954911 1_666
O24 Zn0 2.024089 1_555
O25 Zn4 1.954911 1_555
O25 Zn6 1.954911 1_555
O25 Zn1 2.024089 1_555
O26 Zn5 1.954911 1_555
O26 Zn7 1.954911 1_555
O26 Zn2 2.024089 1_555
O27 Zn5 1.954911 1_655
O27 Zn7 1.954911 1_555
O27 Zn3 2.024089 1_555
