# generated using pymatgen
data_MgTiMnS4
_symmetry_space_group_name_H-M   'P 1'
_cell_length_a   7.19852129
_cell_length_b   7.37247860
_cell_length_c   7.37415355
_cell_angle_alpha   59.69463380
_cell_angle_beta   60.78367497
_cell_angle_gamma   60.77938940
_symmetry_Int_Tables_number   1
_chemical_formula_structural   MgTiMnS4
_chemical_formula_sum   'Mg2 Ti2 Mn2 S8'
_cell_volume   279.28613788
_cell_formula_units_Z   2
loop_
 _symmetry_equiv_pos_site_id
 _symmetry_equiv_pos_as_xyz
  1  'x, y, z'
loop_
 _atom_site_type_symbol
 _atom_site_label
 _atom_site_symmetry_multiplicity
 _atom_site_fract_x
 _atom_site_fract_y
 _atom_site_fract_z
 _atom_site_occupancy
  Mg  Mg0  1  0.87963500  0.87060300  0.87039700  1
  Mg  Mg1  1  0.12041400  0.12936100  0.12951400  1
  Ti  Ti0  1  0.50006200  0.50007200  0.49987400  1
  Ti  Ti1  1  0.00000300  0.49997300  0.49987100  1
  Mn  Mn0  1  0.49993900  0.49990900  0.00004900  1
  Mn  Mn1  1  0.49987500  0.00018700  0.50038700  1
  S  S0  1  0.74421100  0.73381400  0.73398700  1
  S  S1  1  0.25515300  0.26582000  0.72380500  1
  S  S2  1  0.25518600  0.72385000  0.26567700  1
  S  S3  1  0.71197100  0.26604900  0.26601100  1
  S  S4  1  0.74482200  0.27612600  0.73421100  1
  S  S5  1  0.28804100  0.73395700  0.73391500  1
  S  S6  1  0.25589200  0.26597500  0.26616900  1
  S  S7  1  0.74480100  0.73429900  0.27613300  1
loop_
_geom_bond_atom_site_label_1
_geom_bond_atom_site_label_2
_geom_bond_distance
_geom_bond_site_symmetry_2
Mg0 S5 2.431879 1_655
Mg0 S0 2.433134 1_555
Mg0 S4 2.444836 1_565
Mg0 S7 2.446781 1_556
Mg1 S3 2.432107 1_455
Mg1 S6 2.433869 1_555
Mg1 S2 2.444765 1_545
Mg1 S1 2.446602 1_554
Mn0 S6 2.467546 1_555
Mn0 S3 2.467611 1_555
Mn0 S5 2.467907 1_554
Mn0 S0 2.468445 1_554
Mn0 S2 2.592583 1_555
Mn0 S4 2.592937 1_554
Mn1 S3 2.467172 1_555
Mn1 S0 2.467558 1_545
Mn1 S5 2.467960 1_545
Mn1 S6 2.468402 1_555
Mn1 S1 2.589876 1_555
Mn1 S7 2.595507 1_545
S0 Ti1 2.478754 1_655
S1 Ti1 2.463464 1_555
S1 Ti0 2.463756 1_555
S2 Ti1 2.463260 1_555
S2 Ti0 2.463465 1_555
S3 Ti0 2.478477 1_555
S4 Ti1 2.463098 1_655
S4 Ti0 2.463549 1_555
S5 Ti0 2.478646 1_555
S6 Ti1 2.477501 1_555
S7 Ti1 2.462753 1_655
S7 Ti0 2.462776 1_555
