# generated using pymatgen
data_Ta4Fe4Si7
_symmetry_space_group_name_H-M   'P 1'
_cell_length_a   9.22762901
_cell_length_b   9.22762901
_cell_length_c   9.22762901
_cell_angle_alpha   94.22080954
_cell_angle_beta   94.22080954
_cell_angle_gamma   148.51744115
_symmetry_Int_Tables_number   1
_chemical_formula_structural   Ta4Fe4Si7
_chemical_formula_sum   'Ta8 Fe8 Si14'
_cell_volume   394.94702610
_cell_formula_units_Z   2
loop_
 _symmetry_equiv_pos_site_id
 _symmetry_equiv_pos_as_xyz
  1  'x, y, z'
loop_
 _atom_site_type_symbol
 _atom_site_label
 _atom_site_symmetry_multiplicity
 _atom_site_fract_x
 _atom_site_fract_y
 _atom_site_fract_z
 _atom_site_occupancy
  Ta  Ta0  1  0.13526200  0.13526200  0.27052400  1
  Ta  Ta1  1  0.86473800  0.86473800  0.72947600  1
  Ta  Ta2  1  0.86473800  0.13526200  0.00000000  1
  Ta  Ta3  1  0.13526200  0.86473800  0.00000000  1
  Ta  Ta4  1  0.50000000  0.69227000  0.19227000  1
  Ta  Ta5  1  0.50000000  0.30773000  0.80773000  1
  Ta  Ta6  1  0.30773000  0.50000000  0.80773000  1
  Ta  Ta7  1  0.69227000  0.50000000  0.19227000  1
  Fe  Fe0  1  0.39994200  0.89994200  0.79988500  1
  Fe  Fe1  1  0.10005800  0.60005800  0.20011500  1
  Fe  Fe2  1  0.10005800  0.89994200  0.50000000  1
  Fe  Fe3  1  0.39994200  0.60005800  0.50000000  1
  Fe  Fe4  1  0.60005800  0.39994200  0.50000000  1
  Fe  Fe5  1  0.89994200  0.10005800  0.50000000  1
  Fe  Fe6  1  0.89994200  0.39994200  0.79988500  1
  Fe  Fe7  1  0.60005800  0.10005800  0.20011500  1
  Si  Si0  1  0.29098200  0.29098200  0.58196400  1
  Si  Si1  1  0.70901800  0.70901800  0.41803600  1
  Si  Si2  1  0.70901800  0.29098200  0.00000000  1
  Si  Si3  1  0.29098200  0.70901800  0.00000000  1
  Si  Si4  1  0.00000000  0.29776200  0.29776200  1
  Si  Si5  1  0.00000000  0.70223800  0.70223800  1
  Si  Si6  1  0.70223800  0.00000000  0.70223800  1
  Si  Si7  1  0.29776200  0.00000000  0.29776200  1
  Si  Si8  1  0.50000000  0.90609300  0.40609300  1
  Si  Si9  1  0.50000000  0.09390700  0.59390700  1
  Si  Si10  1  0.09390700  0.50000000  0.59390700  1
  Si  Si11  1  0.90609300  0.50000000  0.40609300  1
  Si  Si12  1  0.75072700  0.75072700  0.00000000  1
  Si  Si13  1  0.24927300  0.24927300  0.00000000  1
loop_
_geom_bond_atom_site_label_1
_geom_bond_atom_site_label_2
_geom_bond_distance
_geom_bond_site_symmetry_2
Fe0 Si3 2.292509 1_556
Fe0 Si2 2.292512 1_566
Fe0 Si5 2.354820 1_555
Fe0 Si6 2.354823 1_565
Fe0 Si10 2.368353 1_555
Fe0 Si9 2.368356 1_565
Fe1 Si3 2.292509 1_555
Fe1 Si2 2.292512 1_455
Fe1 Si7 2.354820 1_565
Fe1 Si4 2.354823 1_555
Fe1 Si8 2.368353 1_555
Fe1 Si11 2.368356 1_455
Fe2 Si0 2.292518 1_565
Fe2 Si1 2.292518 1_455
Fe2 Si5 2.354818 1_555
Fe2 Si7 2.354818 1_565
Fe2 Si11 2.368348 1_455
Fe2 Si9 2.368348 1_565
Fe3 Si0 2.292518 1_555
Fe3 Si1 2.292518 1_555
Fe3 Si6 2.354818 1_565
Fe3 Si4 2.354818 1_555
Fe3 Si8 2.368348 1_555
Fe3 Si10 2.368348 1_555
Fe4 Si0 2.292518 1_555
Fe4 Si1 2.292518 1_555
Fe4 Si5 2.354818 1_655
Fe4 Si7 2.354818 1_555
Fe4 Si11 2.368348 1_555
Fe4 Si9 2.368348 1_555
Fe5 Si0 2.292518 1_655
Fe5 Si1 2.292518 1_545
Fe5 Si6 2.354818 1_555
Fe5 Si4 2.354818 1_655
Fe5 Si8 2.368348 1_545
Fe5 Si10 2.368348 1_655
Fe6 Si2 2.292509 1_556
Fe6 Si3 2.292512 1_656
Fe6 Si6 2.354820 1_555
Fe6 Si5 2.354823 1_655
Fe6 Si9 2.368353 1_555
Fe6 Si10 2.368356 1_655
Fe7 Si2 2.292509 1_555
Fe7 Si3 2.292512 1_545
Fe7 Si4 2.354820 1_655
Fe7 Si7 2.354823 1_555
Fe7 Si11 2.368353 1_555
Fe7 Si8 2.368356 1_545
Si0 Ta5 2.633769 1_555
Si0 Ta6 2.633769 1_555
Si0 Ta0 2.766073 1_555
Si0 Ta1 2.825504 1_445
Si0 Ta1 2.825504 1_555
Si1 Ta7 2.633769 1_555
Si1 Ta4 2.633769 1_555
Si1 Ta1 2.766073 1_555
Si1 Ta0 2.825504 1_555
Si1 Ta0 2.825504 1_665
Si2 Ta5 2.633769 1_554
Si2 Ta7 2.633769 1_555
Si2 Ta2 2.766073 1_555
Si2 Ta3 2.825504 1_545
Si2 Ta3 2.825504 1_655
Si3 Ta6 2.633769 1_554
Si3 Ta4 2.633769 1_555
Si3 Ta3 2.766073 1_555
Si3 Ta2 2.825504 1_455
Si3 Ta2 2.825504 1_565
Si4 Ta0 2.655633 1_555
Si4 Ta2 2.655633 1_455
Si4 Ta4 2.832437 1_445
Si4 Ta4 2.832437 1_555
Si5 Ta3 2.655633 1_556
Si5 Ta1 2.655633 1_455
Si5 Ta5 2.832437 1_455
Si5 Ta5 2.832437 1_565
Si6 Ta1 2.655633 1_545
Si6 Ta2 2.655633 1_556
Si6 Ta6 2.832437 1_545
Si6 Ta6 2.832437 1_655
Si7 Ta3 2.655633 1_545
Si7 Ta0 2.655633 1_555
Si7 Ta7 2.832437 1_445
Si7 Ta7 2.832437 1_555
Si8 Si9 2.359023 1_565
Si8 Ta4 2.685708 1_555
Si9 Ta5 2.685708 1_555
Si10 Si11 2.359023 1_455
Si10 Ta6 2.685708 1_555
Si11 Ta7 2.685708 1_555
Si12 Si13 2.496120 1_665
Si12 Si13 2.510680 1_555
Si12 Ta0 2.707490 1_665
Si12 Ta2 2.707490 1_565
Si12 Ta1 2.707490 1_554
Si12 Ta3 2.707490 1_655
Si12 Ta6 2.721777 1_554
Si12 Ta5 2.721777 1_554
Si12 Ta7 2.721777 1_555
Si12 Ta4 2.721777 1_555
Si13 Ta2 2.707490 1_455
Si13 Ta1 2.707490 1_444
Si13 Ta3 2.707490 1_545
Si13 Ta0 2.707490 1_555
Si13 Ta6 2.721777 1_554
Si13 Ta5 2.721777 1_554
Si13 Ta7 2.721777 1_555
Si13 Ta4 2.721777 1_555
