# generated using pymatgen
data_Rb3Pu
_symmetry_space_group_name_H-M   'P 1'
_cell_length_a   6.35730770
_cell_length_b   6.35730770
_cell_length_c   6.35730755
_cell_angle_alpha   95.62038269
_cell_angle_beta   95.62038269
_cell_angle_gamma   95.62037564
_symmetry_Int_Tables_number   1
_chemical_formula_structural   Rb3Pu
_chemical_formula_sum   'Rb3 Pu1'
_cell_volume   252.96426428
_cell_formula_units_Z   1
loop_
 _symmetry_equiv_pos_site_id
 _symmetry_equiv_pos_as_xyz
  1  'x, y, z'
loop_
 _atom_site_type_symbol
 _atom_site_label
 _atom_site_symmetry_multiplicity
 _atom_site_fract_x
 _atom_site_fract_y
 _atom_site_fract_z
 _atom_site_occupancy
  Rb  Rb0  1  0.50000000  0.00000000  0.50000000  1
  Rb  Rb1  1  0.00000000  0.50000000  0.50000000  1
  Rb  Rb2  1  0.50000000  0.50000000  0.00000000  1
  Pu  Pu0  1  0.00000000  0.00000000  0.00000000  1
loop_
_geom_bond_atom_site_label_1
_geom_bond_atom_site_label_2
_geom_bond_distance
_geom_bond_site_symmetry_2
Rb0 Rb2 4.269497 1_556
Rb0 Rb2 4.269497 1_545
Rb0 Rb1 4.269497 1_655
Rb0 Rb1 4.269497 1_545
Rb0 Rb1 4.710282 1_555
Rb0 Rb1 4.710282 1_645
Rb0 Rb2 4.710282 1_555
Rb0 Rb2 4.710282 1_546
Rb1 Rb2 4.269497 1_455
Rb1 Rb2 4.269497 1_556
Rb1 Rb2 4.710282 1_456
Rb1 Rb2 4.710282 1_555
Pu0 Rb1 4.269497 1_555
Pu0 Rb0 4.269497 1_454
Pu0 Rb1 4.269497 1_544
Pu0 Rb0 4.269497 1_555
Pu0 Rb2 4.269497 1_445
Pu0 Rb2 4.269497 1_555
Pu0 Rb2 4.710282 1_545
Pu0 Rb2 4.710282 1_455
Pu0 Rb1 4.710282 1_545
Pu0 Rb0 4.710282 1_554
Pu0 Rb0 4.710282 1_455
Pu0 Rb1 4.710282 1_554
