# generated using pymatgen
data_USnPd2
_symmetry_space_group_name_H-M   'P 1'
_cell_length_a   8.09726000
_cell_length_b   5.12873000
_cell_length_c   7.72341500
_cell_angle_alpha   90.00000000
_cell_angle_beta   90.00000000
_cell_angle_gamma   90.00000000
_symmetry_Int_Tables_number   1
_chemical_formula_structural   USnPd2
_chemical_formula_sum   'U4 Sn4 Pd8'
_cell_volume   320.74307773
_cell_formula_units_Z   4
loop_
 _symmetry_equiv_pos_site_id
 _symmetry_equiv_pos_as_xyz
  1  'x, y, z'
loop_
 _atom_site_type_symbol
 _atom_site_label
 _atom_site_symmetry_multiplicity
 _atom_site_fract_x
 _atom_site_fract_y
 _atom_site_fract_z
 _atom_site_occupancy
  U  U0  1  0.77362700  0.75000000  0.12457800  1
  U  U1  1  0.72637300  0.75000000  0.62457800  1
  U  U2  1  0.22637300  0.25000000  0.87542200  1
  U  U3  1  0.27362700  0.25000000  0.37542200  1
  Sn  Sn0  1  0.16498900  0.75000000  0.12087600  1
  Sn  Sn1  1  0.33501100  0.75000000  0.62087600  1
  Sn  Sn2  1  0.83501100  0.25000000  0.87912400  1
  Sn  Sn3  1  0.66498900  0.25000000  0.37912400  1
  Pd  Pd0  1  0.03199500  0.75000000  0.43652900  1
  Pd  Pd1  1  0.46800500  0.75000000  0.93652900  1
  Pd  Pd2  1  0.96800500  0.25000000  0.56347100  1
  Pd  Pd3  1  0.53199500  0.25000000  0.06347100  1
  Pd  Pd4  1  0.46107900  0.75000000  0.29590500  1
  Pd  Pd5  1  0.03892100  0.75000000  0.79590500  1
  Pd  Pd6  1  0.53892100  0.25000000  0.70409500  1
  Pd  Pd7  1  0.96107900  0.25000000  0.20409500  1
loop_
_geom_bond_atom_site_label_1
_geom_bond_atom_site_label_2
_geom_bond_distance
_geom_bond_site_symmetry_2
Sn0 U0 3.169089 1_455
Sn0 U2 3.227516 1_554
Sn0 U2 3.227516 1_564
Sn0 U3 3.348851 1_565
Sn0 U3 3.348851 1_555
Sn1 U1 3.169089 1_555
Sn1 U3 3.227516 1_565
Sn1 U3 3.227516 1_555
Sn1 U2 3.348851 1_555
Sn1 U2 3.348851 1_565
Sn2 U2 3.169089 1_655
Sn2 U0 3.227516 1_556
Sn2 U0 3.227516 1_546
Sn2 U1 3.348851 1_555
Sn2 U1 3.348851 1_545
Sn3 U3 3.169089 1_555
Sn3 U1 3.227516 1_545
Sn3 U1 3.227516 1_555
Sn3 U0 3.348851 1_555
Sn3 U0 3.348851 1_545
Pd0 Sn0 2.665171 1_555
Pd0 Pd5 2.776177 1_555
Pd0 Pd2 2.793864 1_455
Pd0 Pd2 2.793864 1_465
Pd0 Sn1 2.836780 1_555
Pd0 U1 2.869417 1_455
Pd0 Pd7 3.182513 1_465
Pd0 Pd7 3.182513 1_455
Pd0 U0 3.190866 1_455
Pd0 U3 3.259881 1_565
Pd0 U3 3.259881 1_555
Pd1 Sn1 2.665171 1_555
Pd1 Pd4 2.776177 1_556
Pd1 Pd3 2.793864 1_566
Pd1 Pd3 2.793864 1_556
Pd1 Sn0 2.836780 1_556
Pd1 U0 2.869417 1_556
Pd1 Pd6 3.182513 1_565
Pd1 Pd6 3.182513 1_555
Pd1 U1 3.190866 1_555
Pd1 U2 3.259881 1_565
Pd1 U2 3.259881 1_555
Pd2 Sn2 2.665171 1_555
Pd2 Pd7 2.776177 1_555
Pd2 Sn3 2.836780 1_555
Pd2 U3 2.869417 1_655
Pd2 Pd5 3.182513 1_645
Pd2 Pd5 3.182513 1_655
Pd2 U2 3.190866 1_655
Pd2 U1 3.259881 1_545
Pd2 U1 3.259881 1_555
Pd3 Sn3 2.665171 1_555
Pd3 Pd6 2.776177 1_554
Pd3 Sn2 2.836780 1_554
Pd3 U2 2.869417 1_554
Pd3 Pd4 3.182513 1_555
Pd3 Pd4 3.182513 1_545
Pd3 U3 3.190866 1_555
Pd3 U0 3.259881 1_545
Pd3 U0 3.259881 1_555
Pd4 Sn1 2.709533 1_555
Pd4 Sn0 2.752365 1_555
Pd4 U0 2.855835 1_555
Pd4 U3 3.042532 1_565
Pd4 U3 3.042532 1_555
Pd4 Sn3 3.116929 1_555
Pd4 Sn3 3.116929 1_565
Pd4 U1 3.325423 1_555
Pd5 Sn0 2.709533 1_556
Pd5 Sn1 2.752365 1_555
Pd5 U1 2.855835 1_455
Pd5 U2 3.042532 1_555
Pd5 U2 3.042532 1_565
Pd5 Sn2 3.116929 1_455
Pd5 Sn2 3.116929 1_465
Pd5 U0 3.325423 1_456
Pd6 Sn3 2.709533 1_555
Pd6 Sn2 2.752365 1_555
Pd6 U2 2.855835 1_555
Pd6 U1 3.042532 1_545
Pd6 U1 3.042532 1_555
Pd6 Sn1 3.116929 1_555
Pd6 Sn1 3.116929 1_545
Pd6 U3 3.325423 1_555
Pd7 Sn2 2.709533 1_554
Pd7 Sn3 2.752365 1_555
Pd7 U3 2.855835 1_655
Pd7 U0 3.042532 1_545
Pd7 U0 3.042532 1_555
Pd7 Sn0 3.116929 1_655
Pd7 Sn0 3.116929 1_645
Pd7 U2 3.325423 1_654
