# generated using pymatgen
data_YCrO3
_symmetry_space_group_name_H-M   'P 1'
_cell_length_a   3.47908807
_cell_length_b   3.47908807
_cell_length_c   11.88555690
_cell_angle_alpha   90.00000000
_cell_angle_beta   90.00000000
_cell_angle_gamma   120.00000810
_symmetry_Int_Tables_number   1
_chemical_formula_structural   YCrO3
_chemical_formula_sum   'Y2 Cr2 O6'
_cell_volume   124.58936606
_cell_formula_units_Z   2
loop_
 _symmetry_equiv_pos_site_id
 _symmetry_equiv_pos_as_xyz
  1  'x, y, z'
loop_
 _atom_site_type_symbol
 _atom_site_label
 _atom_site_symmetry_multiplicity
 _atom_site_fract_x
 _atom_site_fract_y
 _atom_site_fract_z
 _atom_site_occupancy
  Y  Y0  1  0.00000000  -0.00000000  0.50000000  1
  Y  Y1  1  0.00000000  -0.00000000  0.00000000  1
  Cr  Cr0  1  0.66666700  0.33333300  0.75000000  1
  Cr  Cr1  1  0.33333300  0.66666700  0.25000000  1
  O  O0  1  0.33333300  0.66666700  0.41288915  1
  O  O1  1  0.66666700  0.33333300  0.91288915  1
  O  O2  1  0.66666700  0.33333300  0.58711085  1
  O  O3  1  0.33333300  0.66666700  0.08711085  1
  O  O4  1  0.00000000  -0.00000000  0.25000000  1
  O  O5  1  0.00000000  0.00000000  0.75000000  1
loop_
_geom_bond_atom_site_label_1
_geom_bond_atom_site_label_2
_geom_bond_distance
_geom_bond_site_symmetry_2
Cr0 O2 1.936028 1_555
Cr0 O1 1.936028 1_555
Cr0 O5 2.008651 1_655
Cr0 O5 2.008653 1_665
Cr0 O5 2.008653 1_555
Cr1 O3 1.936028 1_555
Cr1 O0 1.936028 1_555
Cr1 O4 2.008651 1_565
Cr1 O4 2.008653 1_555
Cr1 O4 2.008653 1_665
O0 Y0 2.259790 1_565
O0 Y0 2.259792 1_555
O0 Y0 2.259792 1_665
O1 Y1 2.259790 1_656
O1 Y1 2.259792 1_556
O1 Y1 2.259792 1_666
O2 Y0 2.259790 1_655
O2 Y0 2.259792 1_555
O2 Y0 2.259792 1_665
O3 Y1 2.259790 1_565
O3 Y1 2.259792 1_665
O3 Y1 2.259792 1_555
