# generated using pymatgen
data_Al2(FeO3)3
_symmetry_space_group_name_H-M   'P 1'
_cell_length_a   5.49300870
_cell_length_b   5.49300870
_cell_length_c   15.07786207
_cell_angle_alpha   88.90246737
_cell_angle_beta   88.90246737
_cell_angle_gamma   121.13535192
_symmetry_Int_Tables_number   1
_chemical_formula_structural   Al2(FeO3)3
_chemical_formula_sum   'Al4 Fe6 O18'
_cell_volume   389.11470631
_cell_formula_units_Z   2
loop_
 _symmetry_equiv_pos_site_id
 _symmetry_equiv_pos_as_xyz
  1  'x, y, z'
loop_
 _atom_site_type_symbol
 _atom_site_label
 _atom_site_symmetry_multiplicity
 _atom_site_fract_x
 _atom_site_fract_y
 _atom_site_fract_z
 _atom_site_occupancy
  Al  Al0  1  0.66668300  0.99435600  0.19162700  1
  Al  Al1  1  0.33331700  0.00564400  0.80837300  1
  Al  Al2  1  0.00564400  0.33331700  0.80837300  1
  Al  Al3  1  0.99435600  0.66668300  0.19162700  1
  Fe  Fe0  1  0.66105000  0.33895000  0.00000000  1
  Fe  Fe1  1  0.33895000  0.66105000  0.00000000  1
  Fe  Fe2  1  0.00000000  0.00000000  0.50000000  1
  Fe  Fe3  1  0.66666300  0.33333700  0.50000000  1
  Fe  Fe4  1  0.33333700  0.66666300  0.50000000  1
  Fe  Fe5  1  0.00000000  0.00000000  0.00000000  1
  O  O0  1  0.67329000  0.67329000  0.55908000  1
  O  O1  1  0.32671000  0.32671000  0.44092000  1
  O  O2  1  0.66012200  0.99336100  0.44104200  1
  O  O3  1  0.33987800  0.00663900  0.55895800  1
  O  O4  1  0.00663900  0.33987800  0.55895800  1
  O  O5  1  0.99336100  0.66012200  0.44104200  1
  O  O6  1  0.82967000  0.82967000  0.23396900  1
  O  O7  1  0.17033000  0.17033000  0.76603100  1
  O  O8  1  0.32636300  0.82468700  0.23250800  1
  O  O9  1  0.67363700  0.17531300  0.76749200  1
  O  O10  1  0.17531300  0.67363700  0.76749200  1
  O  O11  1  0.82468700  0.32636300  0.23250800  1
  O  O12  1  0.66219900  0.99784900  0.06897600  1
  O  O13  1  0.33780100  0.00215100  0.93102400  1
  O  O14  1  0.00215100  0.33780100  0.93102400  1
  O  O15  1  0.99784900  0.66219900  0.06897600  1
  O  O16  1  0.31290300  0.31290300  0.06010300  1
  O  O17  1  0.68709700  0.68709700  0.93989700  1
loop_
_geom_bond_atom_site_label_1
_geom_bond_atom_site_label_2
_geom_bond_distance
_geom_bond_site_symmetry_2
Al0 O6 1.692565 1_555
Al0 O8 1.695668 1_555
Al0 O11 1.698789 1_565
Al0 O12 1.849815 1_555
Al1 O7 1.692565 1_555
Al1 O9 1.695668 1_555
Al1 O10 1.698789 1_545
Al1 O13 1.849815 1_555
Al2 O7 1.692565 1_555
Al2 O10 1.695668 1_555
Al2 O9 1.698789 1_455
Al2 O14 1.849815 1_555
Al3 O6 1.692565 1_555
Al3 O11 1.695668 1_555
Al3 O8 1.698789 1_655
Al3 O15 1.849815 1_555
Fe0 O17 2.035824 1_554
Fe0 O16 2.035824 1_555
Fe0 O15 2.098683 1_555
Fe0 O13 2.098683 1_554
Fe0 O14 2.128411 1_654
Fe0 O12 2.128411 1_545
Fe1 O17 2.035824 1_554
Fe1 O16 2.035824 1_555
Fe1 O12 2.098683 1_555
Fe1 O14 2.098683 1_554
Fe1 O13 2.128411 1_564
Fe1 O15 2.128411 1_455
Fe2 O0 1.944686 1_445
Fe2 O1 1.944686 1_555
Fe2 O3 2.066762 1_555
Fe2 O4 2.066762 1_555
Fe2 O5 2.066762 1_445
Fe2 O2 2.066762 1_445
Fe3 O5 1.944061 1_555
Fe3 O3 1.944061 1_555
Fe3 O4 2.067486 1_655
Fe3 O2 2.067486 1_545
Fe3 O1 2.067988 1_555
Fe3 O0 2.067988 1_555
Fe4 O2 1.944061 1_555
Fe4 O4 1.944061 1_555
Fe4 O3 2.067486 1_565
Fe4 O5 2.067486 1_455
Fe4 O1 2.067988 1_555
Fe4 O0 2.067988 1_555
Fe5 O16 1.947813 1_555
Fe5 O17 1.947813 1_444
Fe5 O14 2.104218 1_554
Fe5 O13 2.104218 1_554
Fe5 O15 2.104218 1_445
Fe5 O12 2.104218 1_445
