# generated using pymatgen
data_MgTi3Fe2Co(PO4)6
_symmetry_space_group_name_H-M   'P 1'
_cell_length_a   8.65049116
_cell_length_b   8.80901656
_cell_length_c   8.80662176
_cell_angle_alpha   59.04826512
_cell_angle_beta   59.17904218
_cell_angle_gamma   59.45352065
_symmetry_Int_Tables_number   1
_chemical_formula_structural   MgTi3Fe2Co(PO4)6
_chemical_formula_sum   'Mg1 Ti3 Fe2 Co1 P6 O24'
_cell_volume   466.15973479
_cell_formula_units_Z   1
loop_
 _symmetry_equiv_pos_site_id
 _symmetry_equiv_pos_as_xyz
  1  'x, y, z'
loop_
 _atom_site_type_symbol
 _atom_site_label
 _atom_site_symmetry_multiplicity
 _atom_site_fract_x
 _atom_site_fract_y
 _atom_site_fract_z
 _atom_site_occupancy
  Mg  Mg0  1  0.03360700  0.98558100  0.98787100  1
  Ti  Ti0  1  0.08734600  0.64026000  0.63858300  1
  Ti  Ti1  1  0.46665700  0.84347400  0.84089800  1
  Ti  Ti2  1  0.93874400  0.36946600  0.34017200  1
  Fe  Fe0  1  0.63160100  0.12555100  0.11673000  1
  Fe  Fe1  1  0.51614200  0.49461000  0.49910900  1
  Co  Co0  1  0.27674500  0.19299200  0.28978300  1
  P  P0  1  0.27829500  0.24529200  0.54550300  1
  P  P1  1  0.27837400  0.93855500  0.23159600  1
  P  P2  1  0.25965900  0.54701000  0.95118900  1
  P  P3  1  0.77776400  0.44610900  0.03314600  1
  P  P4  1  0.78309000  0.03408500  0.73501800  1
  P  P5  1  0.78196800  0.74119700  0.44601000  1
  O  O0  1  0.10085600  0.10895400  0.28926000  1
  O  O1  1  0.06040000  0.53110400  0.09947400  1
  O  O2  1  0.10026400  0.31082700  0.49007700  1
  O  O3  1  0.25315800  0.08187600  0.73633300  1
  O  O4  1  0.45733100  0.18716500  0.38474400  1
  O  O5  1  0.28927700  0.40282200  0.56721700  1
  O  O6  1  0.25701100  0.92507400  0.07611400  1
  O  O7  1  0.28872900  0.74818100  0.39846700  1
  O  O8  1  0.59642400  0.59689400  0.98630000  1
  O  O9  1  0.29000600  0.55938200  0.75424800  1
  O  O10  1  0.82059500  0.25197900  0.03800900  1
  O  O11  1  0.60377500  0.98559200  0.80590400  1
  O  O12  1  0.45766900  0.98006800  0.17276600  1
  O  O13  1  0.25614900  0.73636400  0.92718700  1
  O  O14  1  0.74677100  0.43586500  0.23063800  1
  O  O15  1  0.41265200  0.37303200  0.02561000  1
  O  O16  1  0.75580300  0.23348000  0.57790700  1
  O  O17  1  0.82134000  0.03687600  0.88610800  1
  O  O18  1  0.75235500  0.58364100  0.43647000  1
  O  O19  1  0.59763400  0.81360300  0.59686500  1
  O  O20  1  0.82508400  0.88992300  0.24934400  1
  O  O21  1  0.95339000  0.65836000  0.50938000  1
  O  O22  1  0.95202800  0.50795900  0.88207700  1
  O  O23  1  0.96004700  0.88536700  0.65246300  1
loop_
_geom_bond_atom_site_label_1
_geom_bond_atom_site_label_2
_geom_bond_distance
_geom_bond_site_symmetry_2
Mg0 O20 2.135194 1_456
Mg0 O3 2.151113 1_565
Mg0 O13 2.160531 1_555
Mg0 O6 2.165323 1_556
Mg0 O17 2.192111 1_465
Mg0 O10 2.221279 1_466
Fe0 O10 2.070987 1_555
Fe0 O17 2.083716 1_554
Fe0 O20 2.109934 1_545
Fe0 O15 2.131842 1_555
Fe0 O12 2.167568 1_545
Fe0 O4 2.231172 1_555
Fe1 O5 2.184673 1_555
Fe1 O9 2.209306 1_555
Fe1 O7 2.220052 1_555
Fe1 O16 2.248503 1_555
Fe1 O18 2.263535 1_555
Fe1 O14 2.283340 1_555
Co0 O0 2.004673 1_555
Co0 O2 2.008155 1_555
Co0 O4 2.086954 1_555
Co0 O12 2.093120 1_545
Co0 O15 2.146427 1_555
O0 P1 1.584658 1_545
O0 Ti2 2.139358 1_455
O1 P2 1.564220 1_554
O1 Ti2 1.939276 1_455
O2 P0 1.587460 1_555
O2 Ti2 2.101653 1_455
O3 P0 1.548891 1_555
O3 Ti1 2.116669 1_545
O4 P0 1.535548 1_555
O5 P0 1.548172 1_555
O5 Ti0 2.081947 1_555
O6 P1 1.540137 1_555
O6 Ti1 2.110356 1_554
O7 P1 1.557937 1_555
O7 Ti0 2.061765 1_555
O8 P3 1.541684 1_556
O8 Ti1 1.936840 1_555
O9 P2 1.567474 1_555
O9 Ti0 2.105317 1_555
O10 P3 1.536364 1_555
O11 P4 1.544426 1_565
O11 Ti1 1.951199 1_555
O12 P1 1.538161 1_555
O13 P2 1.555738 1_555
O13 Ti1 2.091579 1_555
O14 P3 1.578068 1_555
O14 Ti2 2.025884 1_555
O15 P2 1.524400 1_554
O16 P4 1.571201 1_555
O16 Ti2 2.067543 1_555
O17 P4 1.540660 1_555
O18 P5 1.581890 1_555
O18 Ti2 2.007730 1_555
O19 P5 1.543210 1_555
O19 Ti1 1.937813 1_555
O20 P5 1.534905 1_555
O21 P5 1.540159 1_555
O21 Ti0 1.907766 1_655
O22 P3 1.540594 1_556
O22 Ti0 1.889611 1_655
O23 P4 1.545622 1_565
O23 Ti0 1.899010 1_655
