# generated using pymatgen
data_Li3MnV(PO4)3
_symmetry_space_group_name_H-M   'P 1'
_cell_length_a   8.64933900
_cell_length_b   8.69018034
_cell_length_c   12.44584379
_cell_angle_alpha   89.84387614
_cell_angle_beta   88.59947076
_cell_angle_gamma   89.75671813
_symmetry_Int_Tables_number   1
_chemical_formula_structural   Li3MnV(PO4)3
_chemical_formula_sum   'Li12 Mn4 V4 P12 O48'
_cell_volume   935.19222435
_cell_formula_units_Z   4
loop_
 _symmetry_equiv_pos_site_id
 _symmetry_equiv_pos_as_xyz
  1  'x, y, z'
loop_
 _atom_site_type_symbol
 _atom_site_label
 _atom_site_symmetry_multiplicity
 _atom_site_fract_x
 _atom_site_fract_y
 _atom_site_fract_z
 _atom_site_occupancy
  Li  Li0  1  0.91693100  0.90704000  0.69517500  1
  Li  Li1  1  0.92188200  0.29644100  0.75491900  1
  Li  Li2  1  0.79180900  0.22341100  0.17710100  1
  Li  Li3  1  0.71143100  0.72528900  0.32208400  1
  Li  Li4  1  0.58131900  0.80006400  0.74391300  1
  Li  Li5  1  0.57991300  0.40418600  0.80333200  1
  Li  Li6  1  0.41803800  0.59321500  0.19734200  1
  Li  Li7  1  0.41523800  0.20215300  0.25960300  1
  Li  Li8  1  0.28751700  0.27699300  0.67644600  1
  Li  Li9  1  0.20787500  0.77986300  0.82633300  1
  Li  Li10  1  0.08811500  0.69985300  0.24150700  1
  Li  Li11  1  0.08423500  0.09175300  0.30219400  1
  Mn  Mn0  1  0.74802200  0.96497800  0.89638000  1
  Mn  Mn1  1  0.25305800  0.03787400  0.10228800  1
  Mn  Mn2  1  0.24584300  0.45734700  0.89075600  1
  Mn  Mn3  1  0.24963800  0.53716100  0.39953100  1
  V  V0  1  0.75149600  0.46650700  0.60843800  1
  V  V1  1  0.75385200  0.54297500  0.11149300  1
  V  V2  1  0.74725200  0.04298300  0.38872400  1
  V  V3  1  0.25252000  0.95763600  0.61143400  1
  P  P0  1  0.96124500  0.75145000  0.49345000  1
  P  P1  1  0.89452700  0.61073400  0.85388400  1
  P  P2  1  0.90214600  0.90246600  0.15188500  1
  P  P3  1  0.60449700  0.11107800  0.64301700  1
  P  P4  1  0.60290000  0.40367100  0.35115700  1
  P  P5  1  0.53881900  0.25220200  0.00644200  1
  P  P6  1  0.46126700  0.75535600  0.99680100  1
  P  P7  1  0.39307900  0.59676600  0.65718100  1
  P  P8  1  0.39535300  0.88682500  0.35866000  1
  P  P9  1  0.09765200  0.09526700  0.84591000  1
  P  P10  1  0.10697100  0.38714000  0.13828700  1
  P  P11  1  0.04205900  0.24935200  0.50361900  1
  O  O0  1  0.95311200  0.13628400  0.43217100  1
  O  O1  1  0.93610300  0.32353600  0.59176800  1
  O  O2  1  0.93143000  0.40645400  0.16354900  1
  O  O3  1  0.91574200  0.10490400  0.84922200  1
  O  O4  1  0.88605600  0.63727200  0.57318700  1
  O  O5  1  0.84856800  0.58455400  0.97170500  1
  O  O6  1  0.85221300  0.77935900  0.81998200  1
  O  O7  1  0.85823000  0.02301600  0.24164200  1
  O  O8  1  0.85084100  0.73785200  0.18807000  1
  O  O9  1  0.83241000  0.83242300  0.43027500  1
  O  O10  1  0.83296200  0.95549700  0.04811600  1
  O  O11  1  0.80898200  0.49168600  0.78270600  1
  O  O12  1  0.69611700  0.98887100  0.70650100  1
  O  O13  1  0.66971200  0.45383400  0.45651600  1
  O  O14  1  0.66675100  0.33333200  0.06963500  1
  O  O15  1  0.65517100  0.24054300  0.31259800  1
  O  O16  1  0.64690900  0.27870500  0.67919200  1
  O  O17  1  0.64711400  0.52504500  0.26167800  1
  O  O18  1  0.64279600  0.09449700  0.52266300  1
  O  O19  1  0.61059300  0.13927100  0.92429400  1
  O  O20  1  0.57352600  0.60418500  0.65709100  1
  O  O21  1  0.57102100  0.90550500  0.33395100  1
  O  O22  1  0.56922100  0.82953100  0.90812100  1
  O  O23  1  0.54987100  0.63984300  0.06776600  1
  O  O24  1  0.44942200  0.36808500  0.93558500  1
  O  O25  1  0.43327100  0.17715800  0.09496600  1
  O  O26  1  0.42896600  0.09314200  0.66731000  1
  O  O27  1  0.42174800  0.39548300  0.35065700  1
  O  O28  1  0.39494000  0.87077500  0.08027600  1
  O  O29  1  0.35982200  0.90124000  0.47917600  1
  O  O30  1  0.35272600  0.47478400  0.74794200  1
  O  O31  1  0.35282000  0.71817000  0.32249600  1
  O  O32  1  0.34068700  0.76048100  0.69203000  1
  O  O33  1  0.33212000  0.67887400  0.93464800  1
  O  O34  1  0.32468700  0.53887600  0.55470900  1
  O  O35  1  0.30358600  0.00914400  0.29567700  1
  O  O36  1  0.20004600  0.50885500  0.19879600  1
  O  O37  1  0.16986900  0.04248800  0.94890500  1
  O  O38  1  0.17322200  0.16744500  0.56397400  1
  O  O39  1  0.14606800  0.25687900  0.80528500  1
  O  O40  1  0.13680100  0.97311200  0.75631500  1
  O  O41  1  0.14843700  0.21878900  0.17580200  1
  O  O42  1  0.13466800  0.39750800  0.01568200  1
  O  O43  1  0.11212000  0.36501200  0.42149500  1
  O  O44  1  0.08324600  0.89359000  0.15172000  1
  O  O45  1  0.07218900  0.59414400  0.83531000  1
  O  O46  1  0.06759300  0.67507600  0.40542900  1
  O  O47  1  0.04899500  0.86486400  0.56413400  1
loop_
_geom_bond_atom_site_label_1
_geom_bond_atom_site_label_2
_geom_bond_distance
_geom_bond_site_symmetry_2
Li0 O6 1.977548 1_555
Li0 O47 2.001907 1_655
Li0 O12 2.036939 1_555
Li0 O40 2.146550 1_655
Li1 O11 1.981068 1_555
Li1 O3 2.034191 1_555
Li1 O1 2.044295 1_555
Li1 O39 2.079345 1_655
Li2 O14 1.981510 1_555
Li2 O7 2.003606 1_555
Li2 O2 2.005483 1_555
Li2 O15 2.040880 1_555
Li3 O9 1.964392 1_555
Li3 O21 1.981351 1_555
Li3 O17 1.984595 1_555
Li3 O8 2.037068 1_555
Li4 O12 1.970253 1_555
Li4 O20 2.020967 1_555
Li4 O22 2.060445 1_555
Li4 O32 2.222638 1_555
Li4 O6 2.553924 1_555
Li5 O16 1.967748 1_555
Li5 O24 1.997747 1_555
Li5 O11 2.134594 1_555
Li5 O30 2.183255 1_555
Li5 O20 2.514635 1_555
Li6 O31 1.970956 1_555
Li6 O23 1.993896 1_555
Li6 O36 2.025544 1_555
Li6 O17 2.232233 1_555
Li7 O35 1.983915 1_555
Li7 O27 2.030851 1_555
Li7 O25 2.063156 1_555
Li7 O15 2.219691 1_555
Li7 O41 2.558897 1_555
Li8 O38 1.981397 1_555
Li8 O39 2.000748 1_555
Li8 O26 2.009967 1_555
Li8 O30 2.026183 1_555
Li9 O33 1.949027 1_555
Li9 O40 1.991740 1_555
Li9 O45 2.000818 1_555
Li9 O32 2.011953 1_555
Li10 O36 1.985147 1_555
Li10 O44 2.019037 1_555
Li10 O46 2.054337 1_555
Li10 O8 2.196113 1_455
Li10 O31 2.529832 1_555
Li11 O41 1.988630 1_555
Li11 O0 1.990696 1_455
Li11 O35 2.025511 1_555
Li11 O7 2.197807 1_455
Li11 O44 2.547819 1_545
Mn0 O19 1.948115 1_565
Mn0 O22 1.949869 1_555
Mn0 O3 1.974081 1_565
Mn0 O10 2.044349 1_556
Mn0 O6 2.066959 1_555
Mn0 O12 2.424416 1_555
Mn1 O28 1.913189 1_545
Mn1 O25 1.977745 1_555
Mn1 O44 2.018706 1_545
Mn1 O41 2.020648 1_555
Mn1 O37 2.056701 1_554
Mn1 O35 2.468535 1_555
Mn2 O42 1.881291 1_556
Mn2 O30 1.989044 1_555
Mn2 O24 2.011858 1_555
Mn2 O45 2.043633 1_555
Mn2 O33 2.144573 1_555
Mn2 O39 2.231366 1_555
Mn3 O43 1.929900 1_555
Mn3 O46 1.974811 1_555
Mn3 O27 2.011509 1_555
Mn3 O31 2.037625 1_555
Mn3 O34 2.052586 1_555
O0 P11 1.546833 1_655
O0 V2 2.044964 1_555
O1 P11 1.552023 1_655
O1 V0 2.025985 1_555
O2 P10 1.551479 1_655
O2 V1 2.053130 1_555
O3 P9 1.574812 1_655
O4 P0 1.536510 1_555
O4 V0 1.932716 1_555
O5 P1 1.526601 1_555
O5 V1 1.938542 1_556
O6 P1 1.568103 1_555
O7 P2 1.572235 1_545
O7 V2 2.053500 1_555
O8 P2 1.561489 1_555
O8 V1 2.130730 1_555
O9 P0 1.545403 1_555
O9 V2 2.039645 1_565
O10 P2 1.506853 1_555
O11 P1 1.563987 1_555
O11 V0 2.248446 1_555
O12 P3 1.548868 1_565
O13 P4 1.511864 1_555
O13 V0 2.038334 1_555
O14 P5 1.546684 1_555
O14 V1 2.047939 1_555
O15 P4 1.559483 1_555
O15 V2 2.120355 1_555
O16 P3 1.573360 1_555
O16 V0 2.055008 1_555
O17 P4 1.573268 1_555
O17 V1 2.070196 1_555
O18 P3 1.533211 1_555
O18 V2 1.929383 1_555
O19 P5 1.537235 1_556
O20 P7 1.562325 1_555
O20 V0 2.027414 1_555
O21 P8 1.551940 1_555
O21 V2 2.070307 1_565
O22 P6 1.567278 1_555
O23 P6 1.548156 1_554
O23 V1 2.037004 1_555
O24 P5 1.552932 1_556
O25 P5 1.557099 1_555
O26 P3 1.549205 1_555
O26 V3 2.066640 1_545
O27 P4 1.568927 1_555
O28 P6 1.544718 1_554
O29 P8 1.529075 1_555
O29 V3 1.933112 1_555
O30 P7 1.580775 1_555
O31 P8 1.581864 1_555
O32 P7 1.551084 1_555
O32 V3 2.130748 1_555
O33 P6 1.529457 1_555
O34 P7 1.507459 1_555
O35 P8 1.546959 1_545
O36 P10 1.541173 1_555
O37 P9 1.509038 1_555
O38 P11 1.545901 1_555
O38 V3 2.036415 1_545
O39 P9 1.547329 1_555
O40 P9 1.571592 1_565
O40 V3 2.045297 1_555
O41 P10 1.577026 1_555
O42 P10 1.541270 1_555
O43 P11 1.546429 1_555
O44 P2 1.567918 1_455
O45 P1 1.554503 1_455
O46 P0 1.560845 1_455
O47 P0 1.537875 1_455
O47 V3 2.039773 1_555
