# generated using pymatgen
data_Nd4Ga18Ni
_symmetry_space_group_name_H-M   'P 1'
_cell_length_a   23.94069406
_cell_length_b   23.94069406
_cell_length_c   23.94069406
_cell_angle_alpha   169.44401704
_cell_angle_beta   169.44401704
_cell_angle_gamma   14.94968109
_symmetry_Int_Tables_number   1
_chemical_formula_structural   Nd4Ga18Ni
_chemical_formula_sum   'Nd4 Ga18 Ni1'
_cell_volume   460.49736081
_cell_formula_units_Z   1
loop_
 _symmetry_equiv_pos_site_id
 _symmetry_equiv_pos_as_xyz
  1  'x, y, z'
loop_
 _atom_site_type_symbol
 _atom_site_label
 _atom_site_symmetry_multiplicity
 _atom_site_fract_x
 _atom_site_fract_y
 _atom_site_fract_z
 _atom_site_occupancy
  Nd  Nd0  1  0.30571800  0.30571800  0.00000000  1
  Nd  Nd1  1  0.69428200  0.69428200  0.00000000  1
  Nd  Nd2  1  0.07890600  0.07890600  0.00000000  1
  Nd  Nd3  1  0.92109400  0.92109400  0.00000000  1
  Ga  Ga0  1  0.39024300  0.39024300  0.00000000  1
  Ga  Ga1  1  0.60975700  0.60975700  0.00000000  1
  Ga  Ga2  1  0.52730100  0.02730100  0.50000000  1
  Ga  Ga3  1  0.47269900  0.97269900  0.50000000  1
  Ga  Ga4  1  0.02730100  0.52730100  0.50000000  1
  Ga  Ga5  1  0.97269900  0.47269900  0.50000000  1
  Ga  Ga6  1  0.63909400  0.13909400  0.50000000  1
  Ga  Ga7  1  0.36090600  0.86090600  0.50000000  1
  Ga  Ga8  1  0.13909400  0.63909400  0.50000000  1
  Ga  Ga9  1  0.86090600  0.36090600  0.50000000  1
  Ga  Ga10  1  0.44248300  0.44248300  0.00000000  1
  Ga  Ga11  1  0.55751700  0.55751700  0.00000000  1
  Ga  Ga12  1  0.16878100  0.16878100  0.00000000  1
  Ga  Ga13  1  0.83121900  0.83121900  0.00000000  1
  Ga  Ga14  1  0.22072800  0.22072800  0.00000000  1
  Ga  Ga15  1  0.77927200  0.77927200  0.00000000  1
  Ga  Ga16  1  0.75000000  0.25000000  0.50000000  1
  Ga  Ga17  1  0.25000000  0.75000000  0.50000000  1
  Ni  Ni0  1  0.00000000  0.00000000  0.00000000  1
loop_
_geom_bond_atom_site_label_1
_geom_bond_atom_site_label_2
_geom_bond_distance
_geom_bond_site_symmetry_2
Ga0 Ga10 2.480068 1_555
Ga0 Ga7 2.605710 1_555
Ga0 Ga9 2.605710 1_555
Ga0 Ga7 2.605710 1_544
Ga0 Ga9 2.605710 1_454
Ga0 Nd3 3.441663 1_444
Ga0 Nd3 3.441663 1_455
Ga0 Nd3 3.441663 1_545
Ga0 Nd3 3.441663 1_556
Ga1 Ga11 2.480068 1_555
Ga1 Ga6 2.605710 1_554
Ga1 Ga8 2.605710 1_554
Ga1 Ga6 2.605710 1_565
Ga1 Ga8 2.605710 1_655
Ga1 Nd2 3.441663 1_554
Ga1 Nd2 3.441663 1_565
Ga1 Nd2 3.441663 1_655
Ga1 Nd2 3.441663 1_666
Ga2 Ni0 2.555352 1_656
Ga2 Ni0 2.555352 1_555
Ga2 Ga3 2.592202 1_545
Ga2 Nd2 3.294246 1_656
Ga2 Nd2 3.294246 1_555
Ga3 Ni0 2.555352 1_565
Ga3 Ni0 2.555352 1_666
Ga3 Nd3 3.294246 1_455
Ga3 Nd3 3.294246 1_556
Ga4 Ni0 2.555352 1_566
Ga4 Ni0 2.555352 1_555
Ga4 Ga5 2.592202 1_455
Ga4 Nd2 3.294246 1_566
Ga4 Nd2 3.294246 1_555
Ga5 Ni0 2.555352 1_655
Ga5 Ni0 2.555352 1_666
Ga5 Nd3 3.294246 1_545
Ga5 Nd3 3.294246 1_556
Ga6 Nd1 3.422640 1_545
Ga6 Nd1 3.422640 1_556
Ga6 Nd2 3.607582 1_555
Ga6 Nd2 3.607582 1_656
Ga7 Nd0 3.422640 1_555
Ga7 Nd0 3.422640 1_566
Ga7 Nd3 3.607582 1_556
Ga7 Nd3 3.607582 1_455
Ga8 Nd1 3.422640 1_455
Ga8 Nd1 3.422640 1_556
Ga8 Nd2 3.607582 1_555
Ga8 Nd2 3.607582 1_566
Ga9 Nd0 3.422640 1_555
Ga9 Nd0 3.422640 1_656
Ga9 Nd3 3.607582 1_556
Ga9 Nd3 3.607582 1_545
Ga10 Ga3 2.628251 1_544
Ga10 Ga5 2.628251 1_454
Ga10 Ga5 2.628251 1_555
Ga10 Ga3 2.628251 1_555
Ga10 Nd3 3.275819 1_545
Ga10 Nd3 3.275819 1_556
Ga10 Nd3 3.275819 1_455
Ga10 Nd3 3.275819 1_444
Ga11 Ga4 2.628251 1_554
Ga11 Ga4 2.628251 1_655
Ga11 Ga2 2.628251 1_554
Ga11 Ga2 2.628251 1_565
Ga11 Nd2 3.275819 1_655
Ga11 Nd2 3.275819 1_666
Ga11 Nd2 3.275819 1_565
Ga11 Nd2 3.275819 1_554
Ga12 Ga14 2.466158 1_555
Ga12 Ga6 2.614629 1_454
Ga12 Ga8 2.614629 1_544
Ga12 Ga6 2.614629 1_555
Ga12 Ga8 2.614629 1_555
Ga12 Nd1 3.341490 1_444
Ga12 Nd1 3.341490 1_556
Ga12 Nd1 3.341490 1_545
Ga12 Nd1 3.341490 1_455
Ga13 Ga15 2.466158 1_555
Ga13 Ga7 2.614629 1_655
Ga13 Ga9 2.614629 1_554
Ga13 Ga7 2.614629 1_554
Ga13 Ga9 2.614629 1_565
Ga13 Nd0 3.341490 1_554
Ga13 Nd0 3.341490 1_565
Ga13 Nd0 3.341490 1_655
Ga13 Nd0 3.341490 1_666
Ga14 Ga16 2.604062 1_555
Ga14 Ga17 2.604062 1_544
Ga14 Ga17 2.604062 1_555
Ga14 Ga16 2.604062 1_454
Ga14 Nd1 3.358005 1_556
Ga14 Nd1 3.358005 1_444
Ga14 Nd1 3.358005 1_545
Ga14 Nd1 3.358005 1_455
Ga15 Ga16 2.604062 1_565
Ga15 Ga17 2.604062 1_554
Ga15 Ga17 2.604062 1_655
Ga15 Ga16 2.604062 1_554
Ga15 Nd0 3.358005 1_565
Ga15 Nd0 3.358005 1_666
Ga15 Nd0 3.358005 1_655
Ga15 Nd0 3.358005 1_554
Ga16 Nd0 3.441939 1_555
Ga16 Nd0 3.441939 1_656
Ga16 Nd1 3.441939 1_545
Ga16 Nd1 3.441939 1_556
Ga17 Nd0 3.441939 1_566
Ga17 Nd0 3.441939 1_555
Ga17 Nd1 3.441939 1_556
Ga17 Nd1 3.441939 1_455
