# generated using pymatgen
data_K4C2O9
_symmetry_space_group_name_H-M   'P 1'
_cell_length_a   8.72670978
_cell_length_b   8.72670978
_cell_length_c   7.24992997
_cell_angle_alpha   69.75967918
_cell_angle_beta   69.75967918
_cell_angle_gamma   93.36361517
_symmetry_Int_Tables_number   1
_chemical_formula_structural   K4C2O9
_chemical_formula_sum   'K8 C4 O18'
_cell_volume   475.95913934
_cell_formula_units_Z   2
loop_
 _symmetry_equiv_pos_site_id
 _symmetry_equiv_pos_as_xyz
  1  'x, y, z'
loop_
 _atom_site_type_symbol
 _atom_site_label
 _atom_site_symmetry_multiplicity
 _atom_site_fract_x
 _atom_site_fract_y
 _atom_site_fract_z
 _atom_site_occupancy
  K  K0  1  0.17668800  0.82331200  0.25000000  1
  K  K1  1  0.82331200  0.17668800  0.75000000  1
  K  K2  1  0.88984700  0.11015300  0.25000000  1
  K  K3  1  0.11015300  0.88984700  0.75000000  1
  K  K4  1  0.53152600  0.76099900  0.43791300  1
  K  K5  1  0.46847400  0.23900100  0.56208700  1
  K  K6  1  0.23900100  0.46847400  0.06208700  1
  K  K7  1  0.76099900  0.53152600  0.93791300  1
  C  C0  1  0.47311700  0.14176900  0.15230000  1
  C  C1  1  0.52688300  0.85823100  0.84770000  1
  C  C2  1  0.85823100  0.52688300  0.34770000  1
  C  C3  1  0.14176900  0.47311700  0.65230000  1
  O  O0  1  0.35180400  0.05380300  0.33412800  1
  O  O1  1  0.64819600  0.94619700  0.66587200  1
  O  O2  1  0.94619700  0.64819600  0.16587200  1
  O  O3  1  0.05380300  0.35180400  0.83412800  1
  O  O4  1  0.55229500  0.81584400  0.02491700  1
  O  O5  1  0.44770500  0.18415600  0.97508300  1
  O  O6  1  0.18415600  0.44770500  0.47508300  1
  O  O7  1  0.81584400  0.55229500  0.52491700  1
  O  O8  1  0.82095100  0.88802900  0.07590500  1
  O  O9  1  0.17904900  0.11197100  0.92409500  1
  O  O10  1  0.11197100  0.17904900  0.42409500  1
  O  O11  1  0.88802900  0.82095100  0.57590500  1
  O  O12  1  0.46615900  0.53384100  0.25000000  1
  O  O13  1  0.53384100  0.46615900  0.75000000  1
  O  O14  1  0.62009700  0.18243900  0.14322300  1
  O  O15  1  0.37990300  0.81756100  0.85677700  1
  O  O16  1  0.81756100  0.37990300  0.35677700  1
  O  O17  1  0.18243900  0.62009700  0.64322300  1
loop_
_geom_bond_atom_site_label_1
_geom_bond_atom_site_label_2
_geom_bond_distance
_geom_bond_site_symmetry_2
K0 O9 2.787603 1_564
K0 O11 2.787603 1_455
K0 O17 2.808216 1_555
K0 O15 2.808216 1_554
K0 O0 2.808251 1_565
K0 O2 2.808251 1_455
K0 O4 3.131914 1_555
K0 O6 3.131914 1_555
K1 O10 2.787603 1_655
K1 O8 2.787603 1_546
K1 O14 2.808216 1_556
K1 O16 2.808216 1_555
K1 O3 2.808251 1_655
K1 O1 2.808251 1_545
K1 O7 3.131914 1_555
K1 O5 3.131914 1_555
K2 O16 2.763317 1_555
K2 O14 2.763317 1_555
K2 O10 2.791627 1_655
K2 O8 2.791627 1_545
K2 O9 2.792104 1_654
K2 O11 2.792104 1_545
K2 O3 2.801162 1_654
K2 O1 2.801162 1_545
K3 O17 2.763317 1_555
K3 O15 2.763317 1_555
K3 O11 2.791627 1_455
K3 O9 2.791627 1_565
K3 O10 2.792104 1_565
K3 O8 2.792104 1_456
K3 O0 2.801162 1_565
K3 O2 2.801162 1_456
K4 O8 2.751019 1_555
K4 O13 2.783824 1_555
K4 O4 2.801763 1_555
K4 O17 2.857364 1_555
K4 O12 2.895643 1_555
K4 O1 3.033035 1_555
K4 O0 3.084089 1_565
K4 O15 3.090267 1_555
K5 O9 2.751019 1_555
K5 O12 2.783824 1_555
K5 O5 2.801763 1_555
K5 O16 2.857364 1_555
K5 O13 2.895643 1_555
K5 O0 3.033035 1_555
K5 O1 3.084089 1_545
K5 O14 3.090267 1_555
K6 O10 2.751019 1_555
K6 O13 2.783824 1_554
K6 O6 2.801763 1_555
K6 O15 2.857364 1_554
K6 O12 2.895643 1_555
K6 O3 3.033035 1_554
K6 O2 3.084089 1_455
K6 O17 3.090267 1_554
K7 O11 2.751019 1_555
K7 O12 2.783824 1_556
K7 O7 2.801763 1_555
K7 O14 2.857364 1_556
K7 O13 2.895643 1_555
K7 O2 3.033035 1_556
K7 O3 3.084089 1_655
K7 O16 3.090267 1_556
C0 O14 1.283553 1_555
C0 O0 1.298709 1_555
C0 O5 1.309457 1_554
C1 O15 1.283553 1_555
C1 O1 1.298709 1_555
C1 O4 1.309457 1_556
C2 O16 1.283553 1_555
C2 O2 1.298709 1_555
C2 O7 1.309457 1_555
C3 O17 1.283553 1_555
C3 O3 1.298709 1_555
C3 O6 1.309457 1_555
