# generated using pymatgen
data_LaCe(Mo3S4)4
_symmetry_space_group_name_H-M   'P 1'
_cell_length_a   6.51898800
_cell_length_b   6.52367968
_cell_length_c   13.06453237
_cell_angle_alpha   88.79840053
_cell_angle_beta   88.83063083
_cell_angle_gamma   88.87179298
_symmetry_Int_Tables_number   1
_chemical_formula_structural   LaCe(Mo3S4)4
_chemical_formula_sum   'La1 Ce1 Mo12 S16'
_cell_volume   555.26469557
_cell_formula_units_Z   1
loop_
 _symmetry_equiv_pos_site_id
 _symmetry_equiv_pos_as_xyz
  1  'x, y, z'
loop_
 _atom_site_type_symbol
 _atom_site_label
 _atom_site_symmetry_multiplicity
 _atom_site_fract_x
 _atom_site_fract_y
 _atom_site_fract_z
 _atom_site_occupancy
  La  La0  1  0.00000000  0.00000000  0.50000000  1
  Ce  Ce0  1  0.00000000  0.00000000  0.00000000  1
  Mo  Mo0  1  0.22585700  0.42021100  0.78211300  1
  Mo  Mo1  1  0.22557000  0.41885300  0.28077200  1
  Mo  Mo2  1  0.56343500  0.22637900  0.71034100  1
  Mo  Mo3  1  0.56296000  0.22502500  0.20927700  1
  Mo  Mo4  1  0.41953800  0.56400000  0.61317900  1
  Mo  Mo5  1  0.41902400  0.56306600  0.11150100  1
  Mo  Mo6  1  0.77443000  0.58114700  0.71922800  1
  Mo  Mo7  1  0.77414300  0.57978900  0.21788700  1
  Mo  Mo8  1  0.43704000  0.77497500  0.79072300  1
  Mo  Mo9  1  0.43656500  0.77362100  0.28965900  1
  Mo  Mo10  1  0.58097600  0.43693400  0.88849900  1
  Mo  Mo11  1  0.58046200  0.43600000  0.38682100  1
  S  S0  1  0.74972700  0.37645400  0.56341100  1
  S  S1  1  0.75181400  0.37285900  0.06272200  1
  S  S2  1  0.12650100  0.74937200  0.68810100  1
  S  S3  1  0.12610900  0.75231800  0.18620400  1
  S  S4  1  0.37329400  0.12653100  0.87686400  1
  S  S5  1  0.37631100  0.12583700  0.37454800  1
  S  S6  1  0.24818600  0.62714100  0.93727800  1
  S  S7  1  0.25027300  0.62354600  0.43658900  1
  S  S8  1  0.87389100  0.24768200  0.81379600  1
  S  S9  1  0.87349900  0.25062800  0.31189900  1
  S  S10  1  0.62368900  0.87416300  0.62545200  1
  S  S11  1  0.62670600  0.87346900  0.12313600  1
  S  S12  1  0.24395500  0.24457300  0.62224800  1
  S  S13  1  0.24137700  0.24230500  0.12038000  1
  S  S14  1  0.75862300  0.75769500  0.87962000  1
  S  S15  1  0.75604500  0.75542700  0.37775200  1
loop_
_geom_bond_atom_site_label_1
_geom_bond_atom_site_label_2
_geom_bond_distance
_geom_bond_site_symmetry_2
La0 S12 2.817106 1_555
La0 S15 2.817106 1_445
La0 S5 3.039232 1_555
La0 S10 3.039232 1_445
La0 S0 3.041683 1_455
La0 S7 3.041683 1_545
La0 S9 3.041959 1_455
La0 S2 3.041959 1_545
Ce0 S13 2.784119 1_555
Ce0 S14 2.784119 1_444
Ce0 S4 3.009130 1_554
Ce0 S11 3.009130 1_445
Ce0 S3 3.011477 1_545
Ce0 S8 3.011477 1_454
Ce0 S1 3.013350 1_455
Ce0 S6 3.013350 1_544
Mo0 S12 2.402887 1_555
Mo0 S4 2.450160 1_555
Mo0 S6 2.467279 1_555
Mo0 S2 2.531048 1_555
Mo0 S8 2.597323 1_455
Mo1 S13 2.411588 1_555
Mo1 S5 2.448993 1_555
Mo1 S7 2.467576 1_555
Mo1 S3 2.558067 1_555
Mo1 S9 2.584537 1_455
Mo2 S12 2.399708 1_555
Mo2 S0 2.447648 1_555
Mo2 S8 2.464289 1_555
Mo2 S4 2.560471 1_555
Mo2 S10 2.591801 1_545
Mo3 S13 2.416817 1_555
Mo3 S1 2.446401 1_555
Mo3 S9 2.461113 1_555
Mo3 S5 2.535051 1_555
Mo3 S11 2.598209 1_545
Mo4 S12 2.396795 1_555
Mo4 S2 2.439699 1_555
Mo4 S10 2.453450 1_555
Mo4 S0 2.534850 1_555
Mo4 S7 2.596240 1_555
Mo5 S13 2.411037 1_555
Mo5 S3 2.450437 1_555
Mo5 S11 2.466954 1_555
Mo5 S1 2.554033 1_555
Mo5 S6 2.577031 1_554
Mo6 S14 2.411588 1_555
Mo6 S10 2.448993 1_555
Mo6 S0 2.467576 1_555
Mo6 S8 2.558067 1_555
Mo6 S2 2.584537 1_655
Mo7 S15 2.402887 1_555
Mo7 S11 2.450160 1_555
Mo7 S1 2.467279 1_555
Mo7 S9 2.531048 1_555
Mo7 S3 2.597323 1_655
Mo8 S14 2.416817 1_555
Mo8 S6 2.446401 1_555
Mo8 S2 2.461113 1_555
Mo8 S10 2.535051 1_555
Mo8 S4 2.598209 1_565
Mo9 S15 2.399708 1_555
Mo9 S7 2.447648 1_555
Mo9 S3 2.464289 1_555
Mo9 S11 2.560471 1_555
Mo9 S5 2.591801 1_565
Mo10 S14 2.411037 1_555
Mo10 S8 2.450437 1_555
Mo10 S4 2.466954 1_555
Mo10 S6 2.554033 1_555
Mo10 S1 2.577031 1_556
Mo11 S15 2.396795 1_555
Mo11 S9 2.439699 1_555
Mo11 S5 2.453450 1_555
Mo11 S7 2.534850 1_555
Mo11 S0 2.596240 1_555
