# generated using pymatgen
data_SrFe12O19
_symmetry_space_group_name_H-M   'P 1'
_cell_length_a   6.01109974
_cell_length_b   6.01109974
_cell_length_c   23.35606200
_cell_angle_alpha   90.00000000
_cell_angle_beta   90.00000000
_cell_angle_gamma   119.99999710
_symmetry_Int_Tables_number   1
_chemical_formula_structural   SrFe12O19
_chemical_formula_sum   'Sr2 Fe24 O38'
_cell_volume   730.86662707
_cell_formula_units_Z   2
loop_
 _symmetry_equiv_pos_site_id
 _symmetry_equiv_pos_as_xyz
  1  'x, y, z'
loop_
 _atom_site_type_symbol
 _atom_site_label
 _atom_site_symmetry_multiplicity
 _atom_site_fract_x
 _atom_site_fract_y
 _atom_site_fract_z
 _atom_site_occupancy
  Sr  Sr0  1  0.33333300  0.66666700  0.74939800  1
  Sr  Sr1  1  0.66666700  0.33333300  0.24939800  1
  Fe  Fe0  1  0.66666700  0.33333300  0.52835700  1
  Fe  Fe1  1  0.33333300  0.66666700  0.47207600  1
  Fe  Fe2  1  0.33333300  0.66666700  0.02835700  1
  Fe  Fe3  1  0.66666700  0.33333300  0.97207600  1
  Fe  Fe4  1  0.00000000  0.00000000  0.50001200  1
  Fe  Fe5  1  0.00000000  0.00000000  0.00001200  1
  Fe  Fe6  1  0.66666700  0.33333300  0.69099400  1
  Fe  Fe7  1  0.33333300  0.66666700  0.30881900  1
  Fe  Fe8  1  0.33333300  0.66666700  0.19099400  1
  Fe  Fe9  1  0.66666700  0.33333300  0.80881900  1
  Fe  Fe10  1  0.83501800  0.67003600  0.39125300  1
  Fe  Fe11  1  0.83501800  0.16498200  0.39125300  1
  Fe  Fe12  1  0.32996400  0.16498200  0.39125300  1
  Fe  Fe13  1  0.17097700  0.34195300  0.60964800  1
  Fe  Fe14  1  0.17097700  0.82902300  0.60964800  1
  Fe  Fe15  1  0.65804700  0.82902300  0.60964800  1
  Fe  Fe16  1  0.16498200  0.32996400  0.89125300  1
  Fe  Fe17  1  0.16498200  0.83501800  0.89125300  1
  Fe  Fe18  1  0.67003600  0.83501800  0.89125300  1
  Fe  Fe19  1  0.82902300  0.65804700  0.10964800  1
  Fe  Fe20  1  0.82902300  0.17097700  0.10964800  1
  Fe  Fe21  1  0.34195300  0.17097700  0.10964800  1
  Fe  Fe22  1  0.00000000  0.00000000  0.75208000  1
  Fe  Fe23  1  0.00000000  0.00000000  0.25208000  1
  O  O0  1  0.33333300  0.66666700  0.55538600  1
  O  O1  1  0.66666700  0.33333300  0.44508000  1
  O  O2  1  0.66666700  0.33333300  0.05538600  1
  O  O3  1  0.33333300  0.66666700  0.94508000  1
  O  O4  1  0.00000000  0.00000000  0.65211700  1
  O  O5  1  0.00000000  0.00000000  0.34779500  1
  O  O6  1  0.00000000  0.00000000  0.15211700  1
  O  O7  1  0.00000000  0.00000000  0.84779500  1
  O  O8  1  0.82113400  0.64226700  0.75035900  1
  O  O9  1  0.82113400  0.17886600  0.75035900  1
  O  O10  1  0.35773300  0.17886600  0.75035900  1
  O  O11  1  0.17886600  0.35773300  0.25035900  1
  O  O12  1  0.17886600  0.82113400  0.25035900  1
  O  O13  1  0.64226700  0.82113400  0.25035900  1
  O  O14  1  0.84841500  0.69682900  0.55306200  1
  O  O15  1  0.84841500  0.15158500  0.55306200  1
  O  O16  1  0.30317100  0.15158500  0.55306200  1
  O  O17  1  0.15846700  0.31693400  0.44690900  1
  O  O18  1  0.15846700  0.84153300  0.44690900  1
  O  O19  1  0.68306600  0.84153300  0.44690900  1
  O  O20  1  0.15158500  0.30317100  0.05306200  1
  O  O21  1  0.15158500  0.84841500  0.05306200  1
  O  O22  1  0.69682900  0.84841500  0.05306200  1
  O  O23  1  0.84153300  0.68306600  0.94690900  1
  O  O24  1  0.84153300  0.15846700  0.94690900  1
  O  O25  1  0.31693400  0.15846700  0.94690900  1
  O  O26  1  0.49746800  0.99493700  0.65154600  1
  O  O27  1  0.49746800  0.50253200  0.65154600  1
  O  O28  1  0.00506300  0.50253200  0.65154600  1
  O  O29  1  0.50985200  0.01970400  0.34827400  1
  O  O30  1  0.50985200  0.49014800  0.34827400  1
  O  O31  1  0.98029600  0.49014800  0.34827400  1
  O  O32  1  0.50253200  0.00506300  0.15154600  1
  O  O33  1  0.50253200  0.49746800  0.15154600  1
  O  O34  1  0.99493700  0.49746800  0.15154600  1
  O  O35  1  0.49014800  0.98029600  0.84827400  1
  O  O36  1  0.49014800  0.50985200  0.84827400  1
  O  O37  1  0.01970400  0.50985200  0.84827400  1
loop_
_geom_bond_atom_site_label_1
_geom_bond_atom_site_label_2
_geom_bond_distance
_geom_bond_site_symmetry_2
Fe0 O1 1.945023 1_555
Fe0 O15 1.978294 1_555
Fe0 O14 1.978294 1_555
Fe0 O16 1.978294 1_555
Fe1 O18 1.913159 1_555
Fe1 O19 1.913164 1_555
Fe1 O17 1.913164 1_555
Fe1 O0 1.945794 1_555
Fe2 O3 1.945023 1_554
Fe2 O21 1.978294 1_555
Fe2 O22 1.978294 1_555
Fe2 O20 1.978294 1_555
Fe3 O24 1.913159 1_555
Fe3 O23 1.913164 1_555
Fe3 O25 1.913164 1_555
Fe3 O2 1.945794 1_556
Fe4 O15 2.006498 1_455
Fe4 O16 2.006502 1_555
Fe4 O14 2.006502 1_445
Fe4 O18 2.064075 1_545
Fe4 O19 2.064075 1_445
Fe4 O17 2.064075 1_555
Fe5 O21 2.006498 1_545
Fe5 O20 2.006502 1_555
Fe5 O22 2.006502 1_445
Fe5 O24 2.064075 1_454
Fe5 O25 2.064075 1_554
Fe5 O23 2.064075 1_444
Fe6 O26 1.988003 1_545
Fe6 O28 1.988003 1_655
Fe6 O27 1.988012 1_555
Fe6 O9 2.123417 1_555
Fe6 O8 2.123417 1_555
Fe6 O10 2.123417 1_555
Fe7 O29 2.055918 1_565
Fe7 O31 2.055918 1_455
Fe7 O30 2.055922 1_555
Fe7 O12 2.109676 1_555
Fe7 O13 2.109676 1_555
Fe7 O11 2.109676 1_555
Fe8 O34 1.988003 1_455
Fe8 O32 1.988003 1_565
Fe8 O33 1.988012 1_555
Fe8 O12 2.123417 1_555
Fe8 O13 2.123417 1_555
Fe8 O11 2.123417 1_555
Fe9 O37 2.055918 1_655
Fe9 O35 2.055918 1_545
Fe9 O36 2.055922 1_555
Fe9 O9 2.109676 1_555
Fe9 O8 2.109676 1_555
Fe9 O10 2.109676 1_555
Fe10 O31 1.970745 1_555
Fe10 O30 1.970745 1_555
Fe10 O5 1.995191 1_665
Fe10 O19 2.128000 1_555
Fe10 O18 2.128000 1_655
Fe10 O1 2.157038 1_555
Fe11 O29 1.970745 1_555
Fe11 O31 1.970745 1_555
Fe11 O5 1.995191 1_655
Fe11 O19 2.128000 1_545
Fe11 O17 2.128000 1_655
Fe11 O1 2.157034 1_555
Fe12 O29 1.970745 1_555
Fe12 O30 1.970745 1_555
Fe12 O5 1.995191 1_555
Fe12 O17 2.128000 1_555
Fe12 O18 2.128000 1_545
Fe12 O1 2.157038 1_555
Fe13 O27 1.961281 1_555
Fe13 O28 1.961290 1_555
Fe13 O4 2.037826 1_555
Fe13 O0 2.112716 1_555
Fe13 O16 2.144043 1_555
Fe13 O15 2.144043 1_455
Fe14 O26 1.961281 1_555
Fe14 O28 1.961281 1_555
Fe14 O4 2.037831 1_565
Fe14 O0 2.112708 1_555
Fe14 O16 2.144043 1_565
Fe14 O14 2.144043 1_455
Fe15 O27 1.961281 1_555
Fe15 O26 1.961290 1_555
Fe15 O4 2.037826 1_665
Fe15 O0 2.112716 1_555
Fe15 O14 2.144043 1_555
Fe15 O15 2.144043 1_565
Fe16 O37 1.970745 1_555
Fe16 O36 1.970745 1_555
Fe16 O7 1.995191 1_555
Fe16 O25 2.128000 1_555
Fe16 O24 2.128000 1_455
Fe16 O3 2.157038 1_555
Fe17 O37 1.970745 1_555
Fe17 O35 1.970745 1_555
Fe17 O7 1.995191 1_565
Fe17 O23 2.128000 1_455
Fe17 O25 2.128000 1_565
Fe17 O3 2.157034 1_555
Fe18 O35 1.970745 1_555
Fe18 O36 1.970745 1_555
Fe18 O7 1.995191 1_665
Fe18 O23 2.128000 1_555
Fe18 O24 2.128000 1_565
Fe18 O3 2.157038 1_555
Fe19 O33 1.961281 1_555
Fe19 O34 1.961290 1_555
Fe19 O6 2.037826 1_665
Fe19 O2 2.112716 1_555
Fe19 O22 2.144043 1_555
Fe19 O21 2.144043 1_655
Fe20 O34 1.961281 1_555
Fe20 O32 1.961281 1_555
Fe20 O6 2.037831 1_655
Fe20 O2 2.112708 1_555
Fe20 O20 2.144043 1_655
Fe20 O22 2.144043 1_545
Fe21 O33 1.961281 1_555
Fe21 O32 1.961290 1_555
Fe21 O6 2.037826 1_555
Fe21 O2 2.112716 1_555
Fe21 O20 2.144043 1_555
Fe21 O21 2.144043 1_545
Fe22 O9 1.862702 1_455
Fe22 O10 1.862708 1_555
Fe22 O8 1.862708 1_445
Fe22 O7 2.235525 1_555
Fe22 O4 2.334742 1_555
Fe23 O12 1.862702 1_545
Fe23 O11 1.862708 1_555
Fe23 O13 1.862708 1_445
Fe23 O5 2.235525 1_555
Fe23 O6 2.334742 1_555
O8 Sr0 3.008310 1_655
O8 Sr0 3.008322 1_555
O9 Sr0 3.008316 1_545
O9 Sr0 3.008316 1_655
O10 Sr0 3.008310 1_545
O10 Sr0 3.008322 1_555
O11 Sr1 3.008310 1_455
O11 Sr1 3.008322 1_555
O12 Sr1 3.008316 1_455
O12 Sr1 3.008316 1_565
O13 Sr1 3.008310 1_565
O13 Sr1 3.008322 1_555
O26 Sr0 2.853691 1_555
O27 Sr0 2.853691 1_555
O28 Sr0 2.853691 1_555
O29 Sr1 2.828207 1_555
O30 Sr1 2.828210 1_555
O31 Sr1 2.828207 1_555
O32 Sr1 2.853691 1_555
O33 Sr1 2.853691 1_555
O34 Sr1 2.853691 1_555
O35 Sr0 2.828207 1_555
O36 Sr0 2.828210 1_555
O37 Sr0 2.828207 1_555
