# generated using pymatgen
data_Mg(VS2)2
_symmetry_space_group_name_H-M   'P 1'
_cell_length_a   7.27238111
_cell_length_b   7.27238111
_cell_length_c   7.27238111
_cell_angle_alpha   60.00000000
_cell_angle_beta   60.00000000
_cell_angle_gamma   60.00000000
_symmetry_Int_Tables_number   1
_chemical_formula_structural   Mg(VS2)2
_chemical_formula_sum   'Mg2 V4 S8'
_cell_volume   271.96617470
_cell_formula_units_Z   2
loop_
 _symmetry_equiv_pos_site_id
 _symmetry_equiv_pos_as_xyz
  1  'x, y, z'
loop_
 _atom_site_type_symbol
 _atom_site_label
 _atom_site_symmetry_multiplicity
 _atom_site_fract_x
 _atom_site_fract_y
 _atom_site_fract_z
 _atom_site_occupancy
  Mg  Mg0  1  0.75000000  0.75000000  0.75000000  1
  Mg  Mg1  1  0.50000000  0.50000000  0.50000000  1
  V  V0  1  0.12500000  0.62500000  0.12500000  1
  V  V1  1  0.12500000  0.12500000  0.62500000  1
  V  V2  1  0.62500000  0.12500000  0.12500000  1
  V  V3  1  0.12500000  0.12500000  0.12500000  1
  S  S0  1  0.88639100  0.34082800  0.88639100  1
  S  S1  1  0.36360900  0.36360900  0.90917200  1
  S  S2  1  0.36360900  0.36360900  0.36360900  1
  S  S3  1  0.90917200  0.36360900  0.36360900  1
  S  S4  1  0.88639100  0.88639100  0.88639100  1
  S  S5  1  0.34082800  0.88639100  0.88639100  1
  S  S6  1  0.36360900  0.90917200  0.36360900  1
  S  S7  1  0.88639100  0.88639100  0.34082800  1
loop_
_geom_bond_atom_site_label_1
_geom_bond_atom_site_label_2
_geom_bond_distance
_geom_bond_site_symmetry_2
Mg0 S7 2.429612 1_555
Mg0 S5 2.429612 1_555
Mg0 S0 2.429612 1_555
Mg0 S4 2.429618 1_555
Mg1 S1 2.429612 1_555
Mg1 S6 2.429612 1_555
Mg1 S3 2.429612 1_555
Mg1 S2 2.429618 1_555
S0 V3 2.459608 1_656
S0 V1 2.459613 1_655
S0 V2 2.459613 1_556
S1 V3 2.459608 1_556
S1 V0 2.459613 1_556
S1 V2 2.459613 1_556
S2 V1 2.459608 1_555
S2 V0 2.459608 1_555
S2 V2 2.459608 1_555
S3 V3 2.459608 1_655
S3 V0 2.459613 1_655
S3 V1 2.459613 1_655
S4 V2 2.459608 1_566
S4 V0 2.459608 1_656
S4 V1 2.459608 1_665
S5 V3 2.459608 1_566
S5 V1 2.459613 1_565
S5 V0 2.459613 1_556
S6 V3 2.459608 1_565
S6 V1 2.459613 1_565
S6 V2 2.459613 1_565
S7 V3 2.459608 1_665
S7 V2 2.459613 1_565
S7 V0 2.459613 1_655
