# generated using pymatgen
data_Li4V3P8O29
_symmetry_space_group_name_H-M   'P 1'
_cell_length_a   9.78295881
_cell_length_b   9.78295881
_cell_length_c   14.25410848
_cell_angle_alpha   89.66653146
_cell_angle_beta   89.66653146
_cell_angle_gamma   60.17943670
_symmetry_Int_Tables_number   1
_chemical_formula_structural   Li4V3P8O29
_chemical_formula_sum   'Li8 V6 P16 O58'
_cell_volume   1183.54217325
_cell_formula_units_Z   2
loop_
 _symmetry_equiv_pos_site_id
 _symmetry_equiv_pos_as_xyz
  1  'x, y, z'
loop_
 _atom_site_type_symbol
 _atom_site_label
 _atom_site_symmetry_multiplicity
 _atom_site_fract_x
 _atom_site_fract_y
 _atom_site_fract_z
 _atom_site_occupancy
  Li  Li0  1  0.22803400  0.08849400  0.93861800  1
  Li  Li1  1  0.08849400  0.22803400  0.43861800  1
  Li  Li2  1  0.76935100  0.31584900  0.55983700  1
  Li  Li3  1  0.90741000  0.32041000  0.05603400  1
  Li  Li4  1  0.31584900  0.76935100  0.05983700  1
  Li  Li5  1  0.32041000  0.90741000  0.55603400  1
  Li  Li6  1  0.91503400  0.77805100  0.55885000  1
  Li  Li7  1  0.77805100  0.91503400  0.05885000  1
  V  V0  1  0.56966200  0.00202500  0.25275300  1
  V  V1  1  0.99740100  0.43474300  0.24576000  1
  V  V2  1  0.56497700  0.43298800  0.75273400  1
  V  V3  1  0.43298800  0.56497700  0.25273400  1
  V  V4  1  0.00202500  0.56966200  0.75275300  1
  V  V5  1  0.43474300  0.99740100  0.74576000  1
  P  P0  1  0.23342900  0.08780400  0.15738100  1
  P  P1  1  0.08780400  0.23342900  0.65738100  1
  P  P2  1  0.68487500  0.08762500  0.66315200  1
  P  P3  1  0.33242500  0.33060600  0.36950400  1
  P  P4  1  0.33060600  0.33242500  0.86950400  1
  P  P5  1  0.68563800  0.23011300  0.16172800  1
  P  P6  1  0.76827300  0.31875500  0.34307000  1
  P  P7  1  0.08762500  0.68487500  0.16315200  1
  P  P8  1  0.91123300  0.31787300  0.83809800  1
  P  P9  1  0.23011300  0.68563800  0.66172800  1
  P  P10  1  0.31875500  0.76827300  0.84307000  1
  P  P11  1  0.66204800  0.67056300  0.12998400  1
  P  P12  1  0.67056300  0.66204800  0.62998400  1
  P  P13  1  0.31787300  0.91123300  0.33809800  1
  P  P14  1  0.91227500  0.76592400  0.34331400  1
  P  P15  1  0.76592400  0.91227500  0.84331400  1
  O  O0  1  0.24006600  0.99822400  0.42671300  1
  O  O1  1  0.25197300  0.08395500  0.65668900  1
  O  O2  1  0.00017300  0.20971700  0.74843400  1
  O  O3  1  0.99822400  0.24006600  0.92671300  1
  O  O4  1  0.38287100  0.09728300  0.17708500  1
  O  O5  1  0.08395500  0.25197300  0.15668900  1
  O  O6  1  0.32733400  0.18507100  0.83250400  1
  O  O7  1  0.52131300  0.09844900  0.67725300  1
  O  O8  1  0.76780200  0.98136000  0.93451000  1
  O  O9  1  0.66078500  0.08493900  0.16069900  1
  O  O10  1  0.18507100  0.32733400  0.33250400  1
  O  O11  1  0.48222300  0.18359200  0.32241800  1
  O  O12  1  0.09728300  0.38287100  0.67708500  1
  O  O13  1  0.34366200  0.32608300  0.47305900  1
  O  O14  1  0.32608300  0.34366200  0.97305900  1
  O  O15  1  0.09844900  0.52131300  0.17725300  1
  O  O16  1  0.47815800  0.33614000  0.82353000  1
  O  O17  1  0.18359200  0.48222300  0.82241800  1
  O  O18  1  0.66052300  0.25780100  0.66293500  1
  O  O19  1  0.78311200  0.20537200  0.25800700  1
  O  O20  1  0.77459300  0.23553800  0.07869200  1
  O  O21  1  0.75782000  0.25421300  0.43526300  1
  O  O22  1  0.52485100  0.38304000  0.17784700  1
  O  O23  1  0.33614000  0.47815800  0.32353000  1
  O  O24  1  0.08493900  0.66078500  0.66069900  1
  O  O25  1  0.74371600  0.34053600  0.83398200  1
  O  O26  1  0.38304000  0.52485100  0.67784700  1
  O  O27  1  0.99742300  0.24591500  0.56961200  1
  O  O28  1  0.98136000  0.76780200  0.43451000  1
  O  O29  1  0.61871400  0.48074400  0.32007900  1
  O  O30  1  0.25780100  0.66052300  0.16293500  1
  O  O31  1  0.01466700  0.78183600  0.25915100  1
  O  O32  1  0.91801200  0.33523100  0.33384900  1
  O  O33  1  0.67211600  0.51068600  0.67283700  1
  O  O34  1  0.48074400  0.61871400  0.82007900  1
  O  O35  1  0.25421300  0.75782000  0.93526300  1
  O  O36  1  0.23553800  0.77459300  0.57869200  1
  O  O37  1  0.20537200  0.78311200  0.75800700  1
  O  O38  1  0.34053600  0.74371600  0.33398200  1
  O  O39  1  0.81100900  0.51513900  0.16614300  1
  O  O40  1  0.90351300  0.47876800  0.82208300  1
  O  O41  1  0.51068600  0.67211600  0.17283700  1
  O  O42  1  0.67625600  0.65437100  0.52554600  1
  O  O43  1  0.65437100  0.67625600  0.02554600  1
  O  O44  1  0.89726200  0.62043400  0.32185100  1
  O  O45  1  0.51513900  0.81100900  0.66614300  1
  O  O46  1  0.81818700  0.66578600  0.67153800  1
  O  O47  1  0.33523100  0.91801200  0.83384900  1
  O  O48  1  0.20971700  0.00017300  0.24843400  1
  O  O49  1  0.24591500  0.99742300  0.06961200  1
  O  O50  1  0.47876800  0.90351300  0.32208300  1
  O  O51  1  0.66578600  0.81818700  0.17153800  1
  O  O52  1  0.91531900  0.74540900  0.82727100  1
  O  O53  1  0.62043400  0.89726200  0.82185100  1
  O  O54  1  0.99456000  0.77411200  0.08058700  1
  O  O55  1  0.74540900  0.91531900  0.32727100  1
  O  O56  1  0.77411200  0.99456000  0.58058700  1
  O  O57  1  0.78183600  0.01466700  0.75915100  1
loop_
_geom_bond_atom_site_label_1
_geom_bond_atom_site_label_2
_geom_bond_distance
_geom_bond_site_symmetry_2
Li0 O3 1.991973 1_455
Li0 O49 2.034763 1_546
Li0 O47 2.093518 1_545
Li0 O6 2.236811 1_555
Li1 O0 1.991973 1_545
Li1 O27 2.034763 1_455
Li1 O32 2.093518 1_455
Li1 O10 2.236811 1_555
Li2 O21 1.900484 1_555
Li2 O27 1.987489 1_555
Li2 O18 2.046709 1_555
Li2 O33 2.312361 1_555
Li3 O20 1.883343 1_555
Li3 O3 2.026907 1_554
Li3 O5 2.087423 1_655
Li3 O39 2.283114 1_555
Li4 O35 1.900484 1_554
Li4 O49 1.987489 1_555
Li4 O30 2.046709 1_555
Li4 O41 2.312361 1_555
Li5 O36 1.883343 1_555
Li5 O0 2.026907 1_555
Li5 O1 2.087423 1_565
Li5 O45 2.283114 1_555
Li6 O28 1.869840 1_555
Li6 O56 1.892462 1_555
Li6 O24 2.073338 1_655
Li6 O46 2.383412 1_555
Li7 O8 1.869840 1_554
Li7 O54 1.892462 1_555
Li7 O9 2.073338 1_565
Li7 O51 2.383412 1_555
O0 P13 1.502062 1_555
O1 P1 1.543384 1_555
O1 V5 2.008510 1_545
O2 P8 1.611602 1_455
O2 P1 1.629289 1_555
O3 P8 1.502062 1_555
O4 P0 1.537792 1_555
O4 V0 1.920576 1_555
O5 P0 1.543384 1_555
O5 V1 2.008510 1_455
O6 P4 1.553128 1_555
O6 V5 2.023937 1_545
O7 P2 1.562045 1_555
O7 V5 1.860068 1_545
O8 P15 1.473010 1_555
O9 P5 1.555669 1_555
O9 V0 1.966606 1_555
O10 P3 1.553128 1_555
O10 V1 2.023937 1_455
O11 P3 1.603160 1_555
O11 V0 1.836401 1_555
O12 P1 1.537792 1_555
O12 V4 1.920576 1_555
O13 P3 1.479580 1_555
O14 P4 1.479580 1_555
O15 P7 1.562045 1_555
O15 V1 1.860068 1_455
O16 P4 1.598540 1_555
O16 V2 1.848423 1_555
O17 P4 1.603160 1_555
O17 V4 1.836401 1_555
O18 P2 1.560093 1_555
O18 V2 1.966653 1_555
O19 P6 1.604697 1_555
O19 P5 1.622690 1_555
O20 P5 1.481308 1_555
O21 P6 1.479550 1_555
O22 P5 1.557101 1_555
O22 V3 1.880197 1_555
O23 P3 1.598540 1_555
O23 V3 1.848423 1_555
O24 P9 1.555669 1_555
O24 V4 1.966606 1_555
O25 P8 1.542044 1_555
O25 V2 1.911885 1_555
O26 P9 1.557101 1_555
O26 V2 1.880197 1_555
O27 P1 1.505182 1_655
O28 P14 1.473010 1_555
O29 P6 1.566198 1_555
O29 V3 1.850357 1_555
O30 P7 1.560093 1_555
O30 V3 1.966653 1_555
O31 P14 1.614235 1_455
O31 P7 1.616185 1_555
O32 P6 1.556119 1_555
O32 V1 1.963151 1_555
O33 P12 1.591611 1_555
O33 V2 1.934368 1_555
O34 P10 1.566198 1_555
O34 V2 1.850357 1_555
O35 P10 1.479550 1_555
O36 P9 1.481308 1_555
O37 P10 1.604697 1_555
O37 P9 1.622690 1_555
O38 P13 1.542044 1_555
O38 V3 1.911885 1_555
O39 P11 1.580223 1_555
O39 V1 1.954191 1_555
O40 P8 1.553438 1_555
O40 V4 1.878059 1_655
O41 P11 1.591611 1_555
O41 V3 1.934368 1_555
O42 P12 1.490322 1_555
O43 P11 1.490322 1_555
O44 P14 1.534444 1_555
O44 V1 1.917484 1_555
O45 P12 1.580223 1_555
O45 V5 1.954191 1_555
O46 P12 1.581336 1_555
O46 V4 1.946402 1_655
O47 P10 1.556119 1_555
O47 V5 1.963151 1_555
O48 P13 1.611602 1_545
O48 P0 1.629289 1_555
O49 P0 1.505182 1_565
O50 P13 1.553438 1_555
O50 V0 1.878059 1_565
O51 P11 1.581336 1_555
O51 V0 1.946402 1_565
O52 P15 1.575047 1_555
O52 V4 1.834154 1_655
O53 P15 1.534444 1_555
O53 V5 1.917484 1_555
O54 P7 1.478556 1_655
O55 P14 1.575047 1_555
O55 V0 1.834154 1_565
O56 P2 1.478556 1_565
O57 P15 1.614235 1_545
O57 P2 1.616185 1_555
