# generated using pymatgen
data_LiMg5
_symmetry_space_group_name_H-M   'P 1'
_cell_length_a   5.47299395
_cell_length_b   5.47299395
_cell_length_c   5.06995606
_cell_angle_alpha   90.00000000
_cell_angle_beta   90.00000000
_cell_angle_gamma   119.99999648
_symmetry_Int_Tables_number   1
_chemical_formula_structural   LiMg5
_chemical_formula_sum   'Li1 Mg5'
_cell_volume   131.51787357
_cell_formula_units_Z   1
loop_
 _symmetry_equiv_pos_site_id
 _symmetry_equiv_pos_as_xyz
  1  'x, y, z'
loop_
 _atom_site_type_symbol
 _atom_site_label
 _atom_site_symmetry_multiplicity
 _atom_site_fract_x
 _atom_site_fract_y
 _atom_site_fract_z
 _atom_site_occupancy
  Li  Li0  1  -0.00000000  0.00000000  0.50000000  1
  Mg  Mg0  1  -0.00000000  0.67142125  0.00000000  1
  Mg  Mg1  1  0.67142125  -0.00000000  0.00000000  1
  Mg  Mg2  1  0.32857875  0.32857875  -0.00000000  1
  Mg  Mg3  1  0.66666700  0.33333300  0.50000000  1
  Mg  Mg4  1  0.33333300  0.66666700  0.50000000  1
loop_
_geom_bond_atom_site_label_1
_geom_bond_atom_site_label_2
_geom_bond_distance
_geom_bond_site_symmetry_2
Li0 Mg1 3.108059 1_456
Li0 Mg1 3.108059 1_455
Li0 Mg0 3.108059 1_545
Li0 Mg0 3.108059 1_546
Li0 Mg2 3.108059 1_556
Li0 Mg2 3.108059 1_555
Li0 Mg4 3.159831 1_545
Li0 Mg3 3.159831 1_455
Li0 Mg4 3.159836 1_445
Li0 Mg3 3.159836 1_555
Li0 Mg4 3.159836 1_555
Li0 Mg3 3.159836 1_445
Mg0 Mg1 3.114763 1_465
Mg0 Mg2 3.114764 1_565
Mg0 Mg4 3.130885 1_554
Mg0 Mg4 3.130885 1_555
Mg0 Mg3 3.130886 1_455
Mg0 Mg3 3.130886 1_454
Mg0 Mg2 3.182609 1_555
Mg0 Mg1 3.182610 1_455
Mg0 Mg1 3.182610 1_565
Mg0 Mg2 3.182610 1_455
Mg1 Mg2 3.114764 1_655
Mg1 Mg3 3.130885 1_555
Mg1 Mg3 3.130885 1_554
Mg1 Mg4 3.130886 1_545
Mg1 Mg4 3.130886 1_544
Mg1 Mg2 3.182609 1_555
Mg1 Mg2 3.182610 1_545
Mg2 Mg4 3.130888 1_555
Mg2 Mg4 3.130888 1_554
Mg2 Mg3 3.130888 1_555
Mg2 Mg3 3.130888 1_554
Mg3 Mg4 3.159831 1_545
Mg3 Mg4 3.159831 1_655
Mg3 Mg4 3.159841 1_555
