# generated using pymatgen
data_H12C4S2BrNO
_symmetry_space_group_name_H-M   'P 1'
_cell_length_a   8.04713000
_cell_length_b   9.86243200
_cell_length_c   12.03806800
_cell_angle_alpha   90.00000000
_cell_angle_beta   90.00000000
_cell_angle_gamma   90.00000000
_symmetry_Int_Tables_number   1
_chemical_formula_structural   H12C4S2BrNO
_chemical_formula_sum   'H48 C16 S8 Br4 N4 O4'
_cell_volume   955.39250816
_cell_formula_units_Z   4
loop_
 _symmetry_equiv_pos_site_id
 _symmetry_equiv_pos_as_xyz
  1  'x, y, z'
loop_
 _atom_site_type_symbol
 _atom_site_label
 _atom_site_symmetry_multiplicity
 _atom_site_fract_x
 _atom_site_fract_y
 _atom_site_fract_z
 _atom_site_occupancy
  H  H0  1  0.90845400  0.57953300  0.92367200  1
  H  H1  1  0.59154600  0.07953300  0.57632800  1
  H  H2  1  0.40845400  0.42046700  0.07632800  1
  H  H3  1  0.09154600  0.92046700  0.42367200  1
  H  H4  1  0.09154600  0.42046700  0.07632800  1
  H  H5  1  0.40845400  0.92046700  0.42367200  1
  H  H6  1  0.59154600  0.57953300  0.92367200  1
  H  H7  1  0.90845400  0.07953300  0.57632800  1
  H  H8  1  0.03532300  0.45096900  0.85638700  1
  H  H9  1  0.46467700  0.95096900  0.64361300  1
  H  H10  1  0.53532300  0.54903100  0.14361300  1
  H  H11  1  0.96467700  0.04903100  0.35638700  1
  H  H12  1  0.96467700  0.54903100  0.14361300  1
  H  H13  1  0.53532300  0.04903100  0.35638700  1
  H  H14  1  0.46467700  0.45096900  0.85638700  1
  H  H15  1  0.03532300  0.95096900  0.64361300  1
  H  H16  1  0.90795500  0.03244300  0.10573600  1
  H  H17  1  0.59204500  0.53244300  0.39426400  1
  H  H18  1  0.40795500  0.96755700  0.89426400  1
  H  H19  1  0.09204500  0.46755700  0.60573600  1
  H  H20  1  0.09204500  0.96755700  0.89426400  1
  H  H21  1  0.40795500  0.46755700  0.60573600  1
  H  H22  1  0.59204500  0.03244300  0.10573600  1
  H  H23  1  0.90795500  0.53244300  0.39426400  1
  H  H24  1  0.03504000  0.16175400  0.03948000  1
  H  H25  1  0.46496000  0.66175400  0.46052000  1
  H  H26  1  0.53504000  0.83824600  0.96052000  1
  H  H27  1  0.96496000  0.33824600  0.53948000  1
  H  H28  1  0.96496000  0.83824600  0.96052000  1
  H  H29  1  0.53504000  0.33824600  0.53948000  1
  H  H30  1  0.46496000  0.16175400  0.03948000  1
  H  H31  1  0.03504000  0.66175400  0.46052000  1
  H  H32  1  0.90912900  0.20184700  0.16241500  1
  H  H33  1  0.59087100  0.70184700  0.33758500  1
  H  H34  1  0.40912900  0.79815300  0.83758500  1
  H  H35  1  0.09087100  0.29815300  0.66241500  1
  H  H36  1  0.09087100  0.79815300  0.83758500  1
  H  H37  1  0.40912900  0.29815300  0.66241500  1
  H  H38  1  0.59087100  0.20184700  0.16241500  1
  H  H39  1  0.90912900  0.70184700  0.33758500  1
  H  H40  1  0.91393400  0.57022900  0.77389000  1
  H  H41  1  0.58606600  0.07022900  0.72611000  1
  H  H42  1  0.41393400  0.42977100  0.22611000  1
  H  H43  1  0.08606600  0.92977100  0.27389000  1
  H  H44  1  0.08606600  0.42977100  0.22611000  1
  H  H45  1  0.41393400  0.92977100  0.27389000  1
  H  H46  1  0.58606600  0.57022900  0.77389000  1
  H  H47  1  0.91393400  0.07022900  0.72611000  1
  C  C0  1  0.92015600  0.14122300  0.08617000  1
  C  C1  1  0.57984400  0.64122300  0.41383000  1
  C  C2  1  0.42015600  0.85877700  0.91383000  1
  C  C3  1  0.07984400  0.35877700  0.58617000  1
  C  C4  1  0.07984400  0.85877700  0.91383000  1
  C  C5  1  0.42015600  0.35877700  0.58617000  1
  C  C6  1  0.57984400  0.14122300  0.08617000  1
  C  C7  1  0.92015600  0.64122300  0.41383000  1
  C  C8  1  0.92107200  0.51225200  0.85162100  1
  C  C9  1  0.57892800  0.01225200  0.64837900  1
  C  C10  1  0.42107200  0.48774800  0.14837900  1
  C  C11  1  0.07892800  0.98774800  0.35162100  1
  C  C12  1  0.07892800  0.48774800  0.14837900  1
  C  C13  1  0.42107200  0.98774800  0.35162100  1
  C  C14  1  0.57892800  0.51225200  0.85162100  1
  C  C15  1  0.92107200  0.01225200  0.64837900  1
  S  S0  1  0.75000000  0.17541700  0.99463500  1
  S  S1  1  0.75000000  0.67541700  0.50536500  1
  S  S2  1  0.25000000  0.82458300  0.00536500  1
  S  S3  1  0.25000000  0.32458300  0.49463500  1
  S  S4  1  0.75000000  0.39933500  0.85681500  1
  S  S5  1  0.75000000  0.89933500  0.64318500  1
  S  S6  1  0.25000000  0.60066500  0.14318500  1
  S  S7  1  0.25000000  0.10066500  0.35681500  1
  Br  Br0  1  0.25000000  0.22754100  0.87159900  1
  Br  Br1  1  0.25000000  0.72754100  0.62840100  1
  Br  Br2  1  0.75000000  0.77245900  0.12840100  1
  Br  Br3  1  0.75000000  0.27245900  0.37159900  1
  N  N0  1  0.75000000  0.34048900  0.97964000  1
  N  N1  1  0.75000000  0.84048900  0.52036000  1
  N  N2  1  0.25000000  0.65951100  0.02036000  1
  N  N3  1  0.25000000  0.15951100  0.47964000  1
  O  O0  1  0.75000000  0.30611000  0.76318100  1
  O  O1  1  0.75000000  0.80611000  0.73681900  1
  O  O2  1  0.25000000  0.69389000  0.23681900  1
  O  O3  1  0.25000000  0.19389000  0.26318100  1
loop_
_geom_bond_atom_site_label_1
_geom_bond_atom_site_label_2
_geom_bond_distance
_geom_bond_site_symmetry_2
C0 H32 1.098997 1_555
C0 H24 1.100720 1_655
C0 H16 1.102766 1_555
C0 S0 1.789641 1_554
C1 H33 1.098997 1_555
C1 H25 1.100720 1_555
C1 H17 1.102766 1_555
C1 S1 1.789641 1_555
C2 H34 1.098997 1_555
C2 H26 1.100720 1_555
C2 H18 1.102766 1_555
C2 S2 1.789641 1_556
C3 H35 1.098997 1_555
C3 H27 1.100720 1_455
C3 H19 1.102766 1_555
C3 S3 1.789641 1_555
C4 H36 1.098997 1_555
C4 H28 1.100720 1_455
C4 H20 1.102766 1_555
C4 S2 1.789641 1_556
C5 H37 1.098997 1_555
C5 H29 1.100720 1_555
C5 H21 1.102766 1_555
C5 S3 1.789641 1_555
C6 H38 1.098997 1_555
C6 H30 1.100720 1_555
C6 H22 1.102766 1_555
C6 S0 1.789641 1_554
C7 H39 1.098997 1_555
C7 H31 1.100720 1_655
C7 H23 1.102766 1_555
C7 S1 1.789641 1_555
C8 H0 1.096777 1_555
C8 H40 1.098108 1_555
C8 H8 1.101759 1_655
C8 S4 1.771787 1_555
C9 H1 1.096777 1_555
C9 H41 1.098108 1_555
C9 H9 1.101759 1_545
C9 S5 1.771787 1_545
C10 H2 1.096777 1_555
C10 H42 1.098108 1_555
C10 H10 1.101759 1_555
C10 S6 1.771787 1_555
C11 H3 1.096777 1_555
C11 H43 1.098108 1_555
C11 H11 1.101759 1_465
C11 S7 1.771787 1_565
C12 H4 1.096777 1_555
C12 H44 1.098108 1_555
C12 H12 1.101759 1_455
C12 S6 1.771787 1_555
C13 H5 1.096777 1_555
C13 H45 1.098108 1_555
C13 H13 1.101759 1_565
C13 S7 1.771787 1_565
C14 H6 1.096777 1_555
C14 H46 1.098108 1_555
C14 H14 1.101759 1_555
C14 S4 1.771787 1_555
C15 H7 1.096777 1_555
C15 H47 1.098108 1_555
C15 H15 1.101759 1_645
C15 S5 1.771787 1_545
N0 S4 1.588398 1_555
N0 S0 1.637988 1_555
N1 S5 1.588398 1_555
N1 S1 1.637988 1_555
N2 S6 1.588398 1_555
N2 S2 1.637988 1_555
N3 S7 1.588398 1_555
N3 S3 1.637988 1_555
O0 S4 1.454600 1_555
O1 S5 1.454600 1_555
O2 S6 1.454600 1_555
O3 S7 1.454600 1_555
