# generated using pymatgen
data_Nd3Ge13Ru4
_symmetry_space_group_name_H-M   'P 1'
_cell_length_a   9.15758400
_cell_length_b   9.15758400
_cell_length_c   9.15758400
_cell_angle_alpha   90.00000000
_cell_angle_beta   90.00000000
_cell_angle_gamma   90.00000000
_symmetry_Int_Tables_number   1
_chemical_formula_structural   Nd3Ge13Ru4
_chemical_formula_sum   'Nd6 Ge26 Ru8'
_cell_volume   767.96730860
_cell_formula_units_Z   2
loop_
 _symmetry_equiv_pos_site_id
 _symmetry_equiv_pos_as_xyz
  1  'x, y, z'
loop_
 _atom_site_type_symbol
 _atom_site_label
 _atom_site_symmetry_multiplicity
 _atom_site_fract_x
 _atom_site_fract_y
 _atom_site_fract_z
 _atom_site_occupancy
  Nd  Nd0  1  0.00000000  0.50000000  0.75000000  1
  Nd  Nd1  1  0.50000000  0.25000000  0.00000000  1
  Nd  Nd2  1  0.75000000  0.00000000  0.50000000  1
  Nd  Nd3  1  0.00000000  0.50000000  0.25000000  1
  Nd  Nd4  1  0.50000000  0.75000000  0.00000000  1
  Nd  Nd5  1  0.25000000  0.00000000  0.50000000  1
  Ge  Ge0  1  0.50000000  0.50000000  0.50000000  1
  Ge  Ge1  1  0.00000000  0.00000000  0.00000000  1
  Ge  Ge2  1  0.79488100  0.35432700  0.50000000  1
  Ge  Ge3  1  0.64567300  0.50000000  0.79488100  1
  Ge  Ge4  1  0.50000000  0.20511900  0.64567300  1
  Ge  Ge5  1  0.20511900  0.64567300  0.50000000  1
  Ge  Ge6  1  0.35432700  0.50000000  0.20511900  1
  Ge  Ge7  1  0.50000000  0.79488100  0.35432700  1
  Ge  Ge8  1  0.79488100  0.64567300  0.50000000  1
  Ge  Ge9  1  0.64567300  0.50000000  0.20511900  1
  Ge  Ge10  1  0.20511900  0.35432700  0.50000000  1
  Ge  Ge11  1  0.35432700  0.50000000  0.79488100  1
  Ge  Ge12  1  0.50000000  0.79488100  0.64567300  1
  Ge  Ge13  1  0.50000000  0.20511900  0.35432700  1
  Ge  Ge14  1  0.29488100  0.00000000  0.85432700  1
  Ge  Ge15  1  0.14567300  0.29488100  0.00000000  1
  Ge  Ge16  1  0.00000000  0.14567300  0.70511900  1
  Ge  Ge17  1  0.70511900  0.00000000  0.14567300  1
  Ge  Ge18  1  0.85432700  0.70511900  0.00000000  1
  Ge  Ge19  1  0.00000000  0.85432700  0.29488100  1
  Ge  Ge20  1  0.29488100  0.00000000  0.14567300  1
  Ge  Ge21  1  0.14567300  0.70511900  0.00000000  1
  Ge  Ge22  1  0.70511900  0.00000000  0.85432700  1
  Ge  Ge23  1  0.85432700  0.29488100  0.00000000  1
  Ge  Ge24  1  0.00000000  0.14567300  0.29488100  1
  Ge  Ge25  1  0.00000000  0.85432700  0.70511900  1
  Ru  Ru0  1  0.75000000  0.25000000  0.75000000  1
  Ru  Ru1  1  0.25000000  0.75000000  0.25000000  1
  Ru  Ru2  1  0.75000000  0.75000000  0.25000000  1
  Ru  Ru3  1  0.25000000  0.25000000  0.75000000  1
  Ru  Ru4  1  0.25000000  0.75000000  0.75000000  1
  Ru  Ru5  1  0.75000000  0.25000000  0.25000000  1
  Ru  Ru6  1  0.25000000  0.25000000  0.25000000  1
  Ru  Ru7  1  0.75000000  0.75000000  0.75000000  1
loop_
_geom_bond_atom_site_label_1
_geom_bond_atom_site_label_2
_geom_bond_distance
_geom_bond_site_symmetry_2
Nd0 Ru7 3.237695 1_455
Nd0 Ru3 3.237695 1_555
Nd0 Ru0 3.237695 1_455
Nd0 Ru4 3.237695 1_555
Nd1 Ru5 3.237695 1_555
Nd1 Ru3 3.237695 1_554
Nd1 Ru6 3.237695 1_555
Nd1 Ru0 3.237695 1_554
Nd2 Ru2 3.237695 1_545
Nd2 Ru7 3.237695 1_545
Nd2 Ru0 3.237695 1_555
Nd2 Ru5 3.237695 1_555
Nd3 Ru2 3.237695 1_455
Nd3 Ru5 3.237695 1_455
Nd3 Ru6 3.237695 1_555
Nd3 Ru1 3.237695 1_555
Nd4 Ru2 3.237695 1_555
Nd4 Ru7 3.237695 1_554
Nd4 Ru4 3.237695 1_554
Nd4 Ru1 3.237695 1_555
Nd5 Ru4 3.237695 1_545
Nd5 Ru1 3.237695 1_545
Nd5 Ru3 3.237695 1_555
Nd5 Ru6 3.237695 1_555
Ge0 Ge11 3.011932 1_555
Ge0 Ge7 3.011932 1_555
Ge0 Ge2 3.011932 1_555
Ge0 Ge12 3.011932 1_555
Ge0 Ge3 3.011932 1_555
Ge0 Ge8 3.011932 1_555
Ge0 Ge13 3.011932 1_555
Ge0 Ge9 3.011932 1_555
Ge0 Ge10 3.011932 1_555
Ge0 Ge5 3.011932 1_555
Ge0 Ge6 3.011932 1_555
Ge0 Ge4 3.011932 1_555
Ge1 Ge16 3.011932 1_554
Ge1 Ge21 3.011932 1_545
Ge1 Ge17 3.011932 1_455
Ge1 Ge25 3.011932 1_544
Ge1 Ge18 3.011932 1_445
Ge1 Ge22 3.011932 1_454
Ge1 Ge14 3.011932 1_554
Ge1 Ge19 3.011932 1_545
Ge1 Ge24 3.011932 1_555
Ge1 Ge15 3.011932 1_555
Ge1 Ge23 3.011932 1_455
Ge1 Ge20 3.011932 1_555
Ge2 Ru0 2.514560 1_555
Ge2 Ru5 2.514560 1_555
Ge2 Nd0 3.247967 1_655
Ge2 Nd3 3.247967 1_655
Ge2 Nd2 3.270706 1_555
Ge3 Ru7 2.514560 1_555
Ge3 Ru0 2.514560 1_555
Ge3 Nd4 3.247967 1_556
Ge3 Nd1 3.247967 1_556
Ge3 Nd0 3.270706 1_655
Ge4 Ru0 2.514560 1_555
Ge4 Ru3 2.514560 1_555
Ge4 Nd2 3.247967 1_555
Ge4 Nd5 3.247967 1_555
Ge4 Nd1 3.270706 1_556
Ge5 Ru4 2.514560 1_555
Ge5 Ru1 2.514560 1_555
Ge5 Nd0 3.247967 1_555
Ge5 Nd3 3.247967 1_555
Ge5 Nd5 3.270706 1_565
Ge6 Ru6 2.514560 1_555
Ge6 Ru1 2.514560 1_555
Ge6 Nd1 3.247967 1_555
Ge6 Nd4 3.247967 1_555
Ge6 Nd3 3.270706 1_555
Ge7 Ru1 2.514560 1_555
Ge7 Ru2 2.514560 1_555
Ge7 Nd2 3.247967 1_565
Ge7 Nd5 3.247967 1_565
Ge7 Nd4 3.270706 1_555
Ge8 Ru7 2.514560 1_555
Ge8 Ru2 2.514560 1_555
Ge8 Nd0 3.247967 1_655
Ge8 Nd3 3.247967 1_655
Ge8 Nd2 3.270706 1_565
Ge9 Ru5 2.514560 1_555
Ge9 Ru2 2.514560 1_555
Ge9 Nd1 3.247967 1_555
Ge9 Nd4 3.247967 1_555
Ge9 Nd3 3.270706 1_655
Ge10 Ru3 2.514560 1_555
Ge10 Ru6 2.514560 1_555
Ge10 Nd0 3.247967 1_555
Ge10 Nd3 3.247967 1_555
Ge10 Nd5 3.270706 1_555
Ge11 Ru3 2.514560 1_555
Ge11 Ru4 2.514560 1_555
Ge11 Nd4 3.247967 1_556
Ge11 Nd1 3.247967 1_556
Ge11 Nd0 3.270706 1_555
Ge12 Ru7 2.514560 1_555
Ge12 Ru4 2.514560 1_555
Ge12 Nd2 3.247967 1_565
Ge12 Nd5 3.247967 1_565
Ge12 Nd4 3.270706 1_556
Ge13 Ru6 2.514560 1_555
Ge13 Ru5 2.514560 1_555
Ge13 Nd2 3.247967 1_555
Ge13 Nd5 3.247967 1_555
Ge13 Nd1 3.270706 1_555
Ge14 Ru4 2.514560 1_545
Ge14 Ru3 2.514560 1_555
Ge14 Nd4 3.247967 1_546
Ge14 Nd1 3.247967 1_556
Ge14 Nd5 3.270706 1_555
Ge15 Ru6 2.514560 1_555
Ge15 Ru3 2.514560 1_554
Ge15 Nd3 3.247967 1_555
Ge15 Nd0 3.247967 1_554
Ge15 Nd1 3.270706 1_555
Ge16 Ru3 2.514560 1_555
Ge16 Ru0 2.514560 1_455
Ge16 Nd2 3.247967 1_455
Ge16 Nd5 3.247967 1_555
Ge16 Nd0 3.270706 1_555
Ge17 Ru2 2.514560 1_545
Ge17 Ru5 2.514560 1_555
Ge17 Nd4 3.247967 1_545
Ge17 Nd1 3.247967 1_555
Ge17 Nd2 3.270706 1_555
Ge18 Ru2 2.514560 1_555
Ge18 Ru7 2.514560 1_554
Ge18 Nd0 3.247967 1_654
Ge18 Nd3 3.247967 1_655
Ge18 Nd4 3.270706 1_555
Ge19 Ru2 2.514560 1_455
Ge19 Ru1 2.514560 1_555
Ge19 Nd5 3.247967 1_565
Ge19 Nd2 3.247967 1_465
Ge19 Nd3 3.270706 1_555
Ge20 Ru6 2.514560 1_555
Ge20 Ru1 2.514560 1_545
Ge20 Nd4 3.247967 1_545
Ge20 Nd1 3.247967 1_555
Ge20 Nd5 3.270706 1_555
Ge21 Ru1 2.514560 1_555
Ge21 Ru4 2.514560 1_554
Ge21 Nd3 3.247967 1_555
Ge21 Nd0 3.247967 1_554
Ge21 Nd4 3.270706 1_555
Ge22 Ru7 2.514560 1_545
Ge22 Ru0 2.514560 1_555
Ge22 Nd4 3.247967 1_546
Ge22 Nd1 3.247967 1_556
Ge22 Nd2 3.270706 1_555
Ge23 Ru0 2.514560 1_554
Ge23 Ru5 2.514560 1_555
Ge23 Nd0 3.247967 1_654
Ge23 Nd3 3.247967 1_655
Ge23 Nd1 3.270706 1_555
Ge24 Ru5 2.514560 1_455
Ge24 Ru6 2.514560 1_555
Ge24 Nd2 3.247967 1_455
Ge24 Nd5 3.247967 1_555
Ge24 Nd3 3.270706 1_555
Ge25 Ru4 2.514560 1_555
Ge25 Ru7 2.514560 1_455
Ge25 Nd5 3.247967 1_565
Ge25 Nd2 3.247967 1_465
Ge25 Nd0 3.270706 1_555
