# generated using pymatgen
data_Ho3Ni7B2
_symmetry_space_group_name_H-M   'P 1'
_cell_length_a   5.02201176
_cell_length_b   5.02201176
_cell_length_c   14.14506998
_cell_angle_alpha   90.00000000
_cell_angle_beta   90.00000000
_cell_angle_gamma   119.99935420
_symmetry_Int_Tables_number   1
_chemical_formula_structural   Ho3Ni7B2
_chemical_formula_sum   'Ho6 Ni14 B4'
_cell_volume   308.95413260
_cell_formula_units_Z   2
loop_
 _symmetry_equiv_pos_site_id
 _symmetry_equiv_pos_as_xyz
  1  'x, y, z'
loop_
 _atom_site_type_symbol
 _atom_site_label
 _atom_site_symmetry_multiplicity
 _atom_site_fract_x
 _atom_site_fract_y
 _atom_site_fract_z
 _atom_site_occupancy
  Ho  Ho0  1  0.66664239  0.33335761  0.03202931  1
  Ho  Ho1  1  0.33335761  0.66664239  0.96797069  1
  Ho  Ho2  1  0.33335761  0.66664239  0.53202931  1
  Ho  Ho3  1  0.66664239  0.33335761  0.46797069  1
  Ho  Ho4  1  0.66667156  0.33332844  0.25000000  1
  Ho  Ho5  1  0.33332844  0.66667156  0.75000000  1
  Ni  Ni0  1  0.83471358  0.66939020  0.64848154  1
  Ni  Ni1  1  0.83470833  0.16529167  0.64849744  1
  Ni  Ni2  1  0.33060980  0.16528642  0.64848154  1
  Ni  Ni3  1  0.16528642  0.33060980  0.35151846  1
  Ni  Ni4  1  0.16529167  0.83470833  0.35150256  1
  Ni  Ni5  1  0.66939020  0.83471358  0.35151846  1
  Ni  Ni6  1  0.16528642  0.33060980  0.14848154  1
  Ni  Ni7  1  0.16529167  0.83470833  0.14849744  1
  Ni  Ni8  1  0.66939020  0.83471358  0.14848154  1
  Ni  Ni9  1  0.83471358  0.66939020  0.85151846  1
  Ni  Ni10  1  0.83470833  0.16529167  0.85150256  1
  Ni  Ni11  1  0.33060980  0.16528642  0.85151846  1
  Ni  Ni12  1  0.00000000  0.00000000  0.50000000  1
  Ni  Ni13  1  0.00000000  0.00000000  -0.00000000  1
  B  B0  1  0.66665377  0.33334623  0.75000000  1
  B  B1  1  0.33334623  0.66665377  0.25000000  1
  B  B2  1  0.00000162  -0.00000162  0.75000000  1
  B  B3  1  -0.00000162  0.00000162  0.25000000  1
loop_
_geom_bond_atom_site_label_1
_geom_bond_atom_site_label_2
_geom_bond_distance
_geom_bond_site_symmetry_2
Ho0 Ni13 2.934557 1_555
Ho0 Ni13 2.934557 1_665
Ho0 Ni13 2.934842 1_655
Ho0 Ni9 2.942016 1_554
Ho0 Ni11 2.942016 1_554
Ho0 Ni10 2.942419 1_554
Ho0 Ni6 3.003030 1_555
Ho0 Ni8 3.003030 1_555
Ho0 Ni8 3.003181 1_545
Ho0 Ni6 3.003181 1_655
Ho0 Ni7 3.003249 1_545
Ho0 Ni7 3.003249 1_655
Ho0 Ho4 3.083211 1_555
Ho1 Ni13 2.934557 1_556
Ho1 Ni13 2.934557 1_666
Ho1 Ni13 2.934842 1_566
Ho1 Ni8 2.942016 1_556
Ho1 Ni6 2.942016 1_556
Ho1 Ni7 2.942419 1_556
Ho1 Ni11 3.003030 1_555
Ho1 Ni9 3.003030 1_555
Ho1 Ni9 3.003181 1_455
Ho1 Ni11 3.003181 1_565
Ho1 Ni10 3.003249 1_565
Ho1 Ni10 3.003249 1_455
Ho1 Ho5 3.083211 1_555
Ho2 Ni12 2.934557 1_555
Ho2 Ni12 2.934557 1_665
Ho2 Ni12 2.934842 1_565
Ho2 Ni5 2.942016 1_555
Ho2 Ni3 2.942016 1_555
Ho2 Ni4 2.942419 1_555
Ho2 Ni2 3.003030 1_555
Ho2 Ni0 3.003030 1_555
Ho2 Ni0 3.003181 1_455
Ho2 Ni2 3.003181 1_565
Ho2 Ni1 3.003249 1_455
Ho2 Ni1 3.003249 1_565
Ho2 Ho5 3.083211 1_555
Ho3 Ni12 2.934557 1_555
Ho3 Ni12 2.934557 1_665
Ho3 Ni12 2.934842 1_655
Ho3 Ni0 2.942016 1_555
Ho3 Ni2 2.942016 1_555
Ho3 Ni1 2.942419 1_555
Ho3 Ni3 3.003030 1_555
Ho3 Ni5 3.003030 1_555
Ho3 Ni5 3.003181 1_545
Ho3 Ni3 3.003181 1_655
Ho3 Ni4 3.003249 1_655
Ho3 Ni4 3.003249 1_545
Ho3 Ho4 3.083211 1_555
Ho4 Ni8 2.892524 1_545
Ho4 Ni5 2.892524 1_545
Ho4 Ni6 2.892524 1_655
Ho4 Ni3 2.892524 1_655
Ho4 Ni4 2.892547 1_655
Ho4 Ni7 2.892547 1_655
Ho4 Ni4 2.892547 1_545
Ho4 Ni7 2.892547 1_545
Ho4 Ni6 2.892749 1_555
Ho4 Ni3 2.892749 1_555
Ho4 Ni5 2.892749 1_555
Ho4 Ni8 2.892749 1_555
Ho5 Ni9 2.892524 1_455
Ho5 Ni0 2.892524 1_455
Ho5 Ni2 2.892524 1_565
Ho5 Ni11 2.892524 1_565
Ho5 Ni10 2.892547 1_455
Ho5 Ni10 2.892547 1_565
Ho5 Ni1 2.892547 1_565
Ho5 Ni1 2.892547 1_455
Ho5 Ni2 2.892749 1_555
Ho5 Ni11 2.892749 1_555
Ho5 Ni0 2.892749 1_555
Ho5 Ni9 2.892749 1_555
Ni0 Ni12 2.545334 1_665
Ni1 Ni12 2.545446 1_655
Ni10 Ni13 2.545446 1_656
Ni11 Ni13 2.545334 1_556
Ni12 Ni3 2.545334 1_555
Ni12 Ni2 2.545334 1_555
Ni12 Ni5 2.545334 1_445
Ni12 Ni4 2.545446 1_545
Ni13 Ni6 2.545334 1_555
Ni13 Ni8 2.545334 1_445
Ni13 Ni9 2.545334 1_444
Ni13 Ni7 2.545446 1_545
B0 Ni0 2.048932 1_555
B0 Ni9 2.048932 1_555
B0 Ni11 2.048932 1_555
B0 Ni2 2.048932 1_555
B0 Ni1 2.048966 1_555
B0 Ni10 2.048966 1_555
B0 Ho5 2.899381 1_555
B0 Ho5 2.899514 1_655
B0 Ho5 2.899514 1_545
B1 Ni5 2.048932 1_555
B1 Ni8 2.048932 1_555
B1 Ni6 2.048932 1_555
B1 Ni3 2.048932 1_555
B1 Ni7 2.048966 1_555
B1 Ni4 2.048966 1_555
B1 Ho4 2.899381 1_555
B1 Ho4 2.899514 1_455
B1 Ho4 2.899514 1_565
B2 Ni1 2.031900 1_455
B2 Ni10 2.031900 1_455
B2 Ni11 2.032135 1_555
B2 Ni2 2.032135 1_555
B2 Ni0 2.032135 1_445
B2 Ni9 2.032135 1_445
B2 Ho5 2.899394 1_545
B2 Ho5 2.899507 1_445
B2 Ho5 2.899507 1_555
B3 Ni7 2.031900 1_545
B3 Ni4 2.031900 1_545
B3 Ni6 2.032135 1_555
B3 Ni3 2.032135 1_555
B3 Ni8 2.032135 1_445
B3 Ni5 2.032135 1_445
B3 Ho4 2.899394 1_455
B3 Ho4 2.899507 1_445
B3 Ho4 2.899507 1_555
