# generated using pymatgen
data_AuN2
_symmetry_space_group_name_H-M   'P 1'
_cell_length_a   5.64403800
_cell_length_b   5.64403800
_cell_length_c   5.64403800
_cell_angle_alpha   90.00000000
_cell_angle_beta   90.00000000
_cell_angle_gamma   90.00000000
_symmetry_Int_Tables_number   1
_chemical_formula_structural   AuN2
_chemical_formula_sum   'Au4 N8'
_cell_volume   179.79176145
_cell_formula_units_Z   4
loop_
 _symmetry_equiv_pos_site_id
 _symmetry_equiv_pos_as_xyz
  1  'x, y, z'
loop_
 _atom_site_type_symbol
 _atom_site_label
 _atom_site_symmetry_multiplicity
 _atom_site_fract_x
 _atom_site_fract_y
 _atom_site_fract_z
 _atom_site_occupancy
  Au  Au0  1  0.50000000  0.50000000  0.00000000  1
  Au  Au1  1  0.50000000  0.00000000  0.50000000  1
  Au  Au2  1  0.00000000  0.50000000  0.50000000  1
  Au  Au3  1  0.00000000  0.00000000  0.00000000  1
  N  N0  1  0.06023400  0.93976600  0.43976600  1
  N  N1  1  0.93976600  0.43976600  0.06023400  1
  N  N2  1  0.43976600  0.06023400  0.93976600  1
  N  N3  1  0.56023400  0.56023400  0.56023400  1
  N  N4  1  0.93976600  0.06023400  0.56023400  1
  N  N5  1  0.06023400  0.56023400  0.93976600  1
  N  N6  1  0.56023400  0.93976600  0.06023400  1
  N  N7  1  0.43976600  0.43976600  0.43976600  1
loop_
_geom_bond_atom_site_label_1
_geom_bond_atom_site_label_2
_geom_bond_distance
_geom_bond_site_symmetry_2
Au0 N1 2.528191 1_555
Au0 N6 2.528191 1_555
Au0 N7 2.528191 1_555
Au0 N3 2.528191 1_554
Au0 N5 2.528191 1_554
Au0 N2 2.528191 1_554
Au1 N4 2.528191 1_555
Au1 N2 2.528191 1_555
Au1 N3 2.528191 1_545
Au1 N7 2.528191 1_555
Au1 N0 2.528191 1_545
Au1 N6 2.528191 1_545
Au2 N0 2.528191 1_555
Au2 N5 2.528191 1_555
Au2 N7 2.528191 1_555
Au2 N3 2.528191 1_455
Au2 N1 2.528191 1_455
Au2 N4 2.528191 1_455
Au3 N0 2.528191 1_545
Au3 N5 2.528191 1_544
Au3 N1 2.528191 1_455
Au3 N2 2.528191 1_554
Au3 N4 2.528191 1_454
Au3 N6 2.528191 1_445
N0 N4 1.177666 1_465
N1 N5 1.177666 1_654
N2 N6 1.177666 1_546
N3 N7 1.177666 1_555
