# generated using pymatgen
data_Ti(PO5)2
_symmetry_space_group_name_H-M   'P 1'
_cell_length_a   6.39957900
_cell_length_b   5.29165700
_cell_length_c   24.18271658
_cell_angle_alpha   89.29155349
_cell_angle_beta   90.00000000
_cell_angle_gamma   90.00000000
_symmetry_Int_Tables_number   1
_chemical_formula_structural   Ti(PO5)2
_chemical_formula_sum   'Ti4 P8 O40'
_cell_volume   818.87003044
_cell_formula_units_Z   4
loop_
 _symmetry_equiv_pos_site_id
 _symmetry_equiv_pos_as_xyz
  1  'x, y, z'
loop_
 _atom_site_type_symbol
 _atom_site_label
 _atom_site_symmetry_multiplicity
 _atom_site_fract_x
 _atom_site_fract_y
 _atom_site_fract_z
 _atom_site_occupancy
  Ti  Ti0  1  0.78594000  0.75594300  0.93664500  1
  Ti  Ti1  1  0.28594000  0.24405700  0.06335500  1
  Ti  Ti2  1  0.80215400  0.25377200  0.43702500  1
  Ti  Ti3  1  0.30215400  0.74622800  0.56297500  1
  P  P0  1  0.28545800  0.74815000  0.97227800  1
  P  P1  1  0.78545800  0.25185000  0.02772200  1
  P  P2  1  0.24743400  0.74397400  0.15732800  1
  P  P3  1  0.74743400  0.25602600  0.84267200  1
  P  P4  1  0.79946700  0.75132400  0.52795300  1
  P  P5  1  0.29946700  0.24867600  0.47204700  1
  P  P6  1  0.16562500  0.25210300  0.63041800  1
  P  P7  1  0.66562500  0.74789700  0.36958200  1
  O  O0  1  0.48120100  0.75857700  0.93520300  1
  O  O1  1  0.98120100  0.24142300  0.06479700  1
  O  O2  1  0.28496200  0.50101200  0.00710300  1
  O  O3  1  0.78496200  0.49898800  0.99289700  1
  O  O4  1  0.09018600  0.75787400  0.93484200  1
  O  O5  1  0.59018600  0.24212600  0.06515800  1
  O  O6  1  0.28527400  0.97598100  0.01177600  1
  O  O7  1  0.78527400  0.02401900  0.98822400  1
  O  O8  1  0.28860400  0.51476900  0.12278700  1
  O  O9  1  0.78860400  0.48523100  0.87721300  1
  O  O10  1  0.27793800  0.99459500  0.12813900  1
  O  O11  1  0.77793800  0.00540500  0.87186100  1
  O  O12  1  0.69935000  0.27035200  0.78348700  1
  O  O13  1  0.19935000  0.72964800  0.21651300  1
  O  O14  1  0.35934200  0.33150000  0.87007200  1
  O  O15  1  0.85934200  0.66850000  0.12992800  1
  O  O16  1  0.99506300  0.74343700  0.56430800  1
  O  O17  1  0.49506300  0.25656300  0.43569200  1
  O  O18  1  0.29796400  0.00406400  0.50806300  1
  O  O19  1  0.79796400  0.99593600  0.49193700  1
  O  O20  1  0.10331700  0.25576400  0.43516100  1
  O  O21  1  0.60331700  0.74423600  0.56483900  1
  O  O22  1  0.29646600  0.47513000  0.51206200  1
  O  O23  1  0.79646600  0.52487000  0.48793800  1
  O  O24  1  0.29055800  0.01252000  0.62302300  1
  O  O25  1  0.79055800  0.98748000  0.37697700  1
  O  O26  1  0.29524000  0.49068800  0.62779600  1
  O  O27  1  0.79524000  0.50931200  0.37220400  1
  O  O28  1  0.43784800  0.74612500  0.36359600  1
  O  O29  1  0.93784800  0.25387500  0.63640400  1
  O  O30  1  0.20412400  0.19630700  0.73250600  1
  O  O31  1  0.70412400  0.80369300  0.26749400  1
  O  O32  1  0.21234300  0.22083900  0.84815500  1
  O  O33  1  0.71234300  0.77916100  0.15184500  1
  O  O34  1  0.68104400  0.90189300  0.68868800  1
  O  O35  1  0.18104400  0.09810700  0.31131200  1
  O  O36  1  0.16635300  0.31716700  0.29387900  1
  O  O37  1  0.66635300  0.68283300  0.70612100  1
  O  O38  1  0.66604500  0.02198400  0.25238900  1
  O  O39  1  0.16604500  0.97801600  0.74761100  1
loop_
_geom_bond_atom_site_label_1
_geom_bond_atom_site_label_2
_geom_bond_distance
_geom_bond_site_symmetry_2
O0 P0 1.541057 1_555
O0 Ti0 1.950560 1_555
O1 P1 1.541057 1_555
O1 Ti1 1.950560 1_655
O2 P0 1.546698 1_554
O2 Ti1 1.911444 1_555
O3 P1 1.546698 1_556
O3 Ti0 1.911444 1_555
O4 P0 1.543606 1_555
O4 Ti0 1.947558 1_455
O5 P1 1.543606 1_555
O5 Ti1 1.947558 1_555
O6 P0 1.547354 1_554
O6 Ti1 1.900503 1_565
O7 P1 1.547354 1_556
O7 Ti0 1.900503 1_545
O8 P2 1.504411 1_555
O8 Ti1 2.041795 1_555
O9 P3 1.504411 1_555
O9 Ti0 2.041795 1_555
O10 P2 1.507321 1_555
O10 Ti1 2.036777 1_565
O11 P3 1.507321 1_555
O11 Ti0 2.036777 1_545
O12 P3 1.465006 1_555
O13 P2 1.465006 1_555
O14 O32 1.231450 1_555
O15 O33 1.231450 1_555
O16 P4 1.529900 1_555
O16 Ti3 1.965570 1_655
O17 P5 1.529900 1_555
O17 Ti2 1.965570 1_555
O18 P5 1.551216 1_555
O18 Ti3 1.892306 1_545
O19 P4 1.551216 1_555
O19 Ti2 1.892306 1_565
O20 P5 1.540121 1_555
O20 Ti2 1.927869 1_455
O21 P4 1.540121 1_555
O21 Ti3 1.927869 1_555
O22 P5 1.549644 1_555
O22 Ti3 1.902327 1_555
O23 P4 1.549644 1_555
O23 Ti2 1.902327 1_555
O24 P6 1.511328 1_555
O24 Ti3 2.037255 1_545
O25 P7 1.511328 1_555
O25 Ti2 2.037255 1_565
O26 P6 1.511295 1_555
O26 Ti3 2.057978 1_555
O27 P7 1.511295 1_555
O27 Ti2 2.057978 1_555
O28 P7 1.464888 1_555
O29 P6 1.464888 1_655
O30 O39 1.231538 1_545
O31 O38 1.231538 1_565
O34 O37 1.232154 1_555
O35 O36 1.232154 1_555
