# generated using pymatgen
data_VCrO3
_symmetry_space_group_name_H-M   'P 1'
_cell_length_a   5.01581782
_cell_length_b   5.40185269
_cell_length_c   8.92349397
_cell_angle_alpha   85.22156065
_cell_angle_beta   73.50997017
_cell_angle_gamma   117.51382704
_symmetry_Int_Tables_number   1
_chemical_formula_structural   VCrO3
_chemical_formula_sum   'V4 Cr4 O12'
_cell_volume   198.97063809
_cell_formula_units_Z   4
loop_
 _symmetry_equiv_pos_site_id
 _symmetry_equiv_pos_as_xyz
  1  'x, y, z'
loop_
 _atom_site_type_symbol
 _atom_site_label
 _atom_site_symmetry_multiplicity
 _atom_site_fract_x
 _atom_site_fract_y
 _atom_site_fract_z
 _atom_site_occupancy
  V  V0  1  0.14736483  0.86940665  0.57933350  1
  V  V1  1  0.34813806  0.87640817  0.17726697  1
  V  V2  1  0.65184715  0.62366264  0.32274485  1
  V  V3  1  0.85262184  0.63054261  0.92063565  1
  Cr  Cr0  1  0.15187360  0.38035104  0.07343484  1
  Cr  Cr1  1  0.35083467  0.37179304  0.67296420  1
  Cr  Cr2  1  0.64920998  0.12818605  0.82701243  1
  Cr  Cr3  1  0.84819248  0.11975675  0.42654887  1
  O  O0  1  0.05529058  0.52244956  0.72153312  1
  O  O1  1  0.05765674  0.03298048  0.22181727  1
  O  O2  1  0.44625409  0.87644722  0.37717271  1
  O  O3  1  0.55381496  0.62363433  0.12283466  1
  O  O4  1  0.25133025  0.77880864  0.97250939  1
  O  O5  1  0.24941661  0.27611318  0.47279111  1
  O  O6  1  0.74860253  0.72113584  0.52747109  1
  O  O7  1  0.75047360  0.22381563  0.02724225  1
  O  O8  1  0.44463090  0.37500325  0.87335911  1
  O  O9  1  0.55534864  0.12490262  0.62671154  1
  O  O10  1  0.94458637  0.97737566  0.77839821  1
  O  O11  1  0.94250812  0.46722663  0.27821523  1
loop_
_geom_bond_atom_site_label_1
_geom_bond_atom_site_label_2
_geom_bond_distance
_geom_bond_site_symmetry_2
Cr0 O7 1.973514 1_455
Cr0 O8 1.975883 1_554
Cr0 O1 1.977148 1_555
Cr0 O4 2.030455 1_554
Cr0 O3 2.034462 1_555
Cr0 O11 2.042317 1_455
Cr1 O0 1.963749 1_555
Cr1 O6 1.967235 1_555
Cr1 O8 1.973476 1_555
Cr1 O9 2.028952 1_555
Cr1 O10 2.035485 1_445
Cr1 O5 2.035511 1_555
Cr2 O10 1.963672 1_545
Cr2 O4 1.967541 1_545
Cr2 O9 1.972809 1_555
Cr2 O8 2.028935 1_555
Cr2 O0 2.034743 1_655
Cr2 O7 2.035648 1_556
Cr3 O5 1.972998 1_655
Cr3 O9 1.976164 1_555
Cr3 O11 1.977147 1_555
Cr3 O6 2.031002 1_545
Cr3 O2 2.034363 1_545
Cr3 O1 2.041874 1_655
O0 V0 1.951277 1_555
O0 V3 2.055938 1_455
O1 V1 1.965195 1_545
O1 V2 2.076643 1_445
O2 V0 1.975824 1_555
O2 V1 1.980577 1_555
O2 V2 2.071492 1_555
O3 V3 1.976150 1_554
O3 V2 1.980406 1_555
O3 V1 2.071754 1_555
O4 V3 1.990620 1_455
O4 V1 2.068782 1_556
O5 V2 1.984299 1_555
O5 V0 2.080695 1_545
O6 V0 1.990803 1_655
O6 V2 2.068264 1_555
O7 V1 1.983733 1_545
O7 V3 2.080786 1_554
O8 V3 2.061170 1_555
O9 V0 2.061581 1_545
O10 V3 1.951128 1_555
O10 V0 2.055503 1_655
O11 V2 1.965404 1_555
O11 V1 2.075902 1_655
