# generated using pymatgen
data_MgFe6Sb10(IO3)6
_symmetry_space_group_name_H-M   'P 1'
_cell_length_a   8.20327850
_cell_length_b   9.29631621
_cell_length_c   12.99351090
_cell_angle_alpha   76.71213381
_cell_angle_beta   87.40652653
_cell_angle_gamma   73.34003142
_symmetry_Int_Tables_number   1
_chemical_formula_structural   MgFe6Sb10(IO3)6
_chemical_formula_sum   'Mg1 Fe6 Sb10 I6 O18'
_cell_volume   923.65273978
_cell_formula_units_Z   1
loop_
 _symmetry_equiv_pos_site_id
 _symmetry_equiv_pos_as_xyz
  1  'x, y, z'
loop_
 _atom_site_type_symbol
 _atom_site_label
 _atom_site_symmetry_multiplicity
 _atom_site_fract_x
 _atom_site_fract_y
 _atom_site_fract_z
 _atom_site_occupancy
  Mg  Mg0  1  0.74246721  0.30485728  0.73384628  1
  Fe  Fe0  1  0.73914641  0.95873742  0.33468261  1
  Fe  Fe1  1  0.27559299  0.02173104  0.65465159  1
  Fe  Fe2  1  0.03071539  0.95006076  0.12883432  1
  Fe  Fe3  1  0.99899344  0.00899163  0.88389520  1
  Fe  Fe4  1  0.62074578  0.09321412  0.05757511  1
  Fe  Fe5  1  0.38633719  0.92709661  0.94426901  1
  Sb  Sb0  1  0.88059468  0.15090988  0.48956023  1
  Sb  Sb1  1  0.12263346  0.80048877  0.51733099  1
  Sb  Sb2  1  0.27634034  0.12228464  0.25834897  1
  Sb  Sb3  1  0.71979212  0.91648148  0.74240683  1
  Sb  Sb4  1  0.40560774  0.28231917  0.76490945  1
  Sb  Sb5  1  0.48257040  0.77484991  0.22951453  1
  Sb  Sb6  1  0.19798396  0.26203833  0.99547352  1
  Sb  Sb7  1  0.80137839  0.74872685  0.00779140  1
  Sb  Sb8  1  0.82145706  0.29518139  0.20196283  1
  Sb  Sb9  1  0.18127992  0.69761833  0.80465969  1
  I  I0  1  0.73318585  0.38254050  0.93294524  1
  I  I1  1  0.28747604  0.64797418  0.06234747  1
  I  I2  1  0.92670804  0.67658522  0.28984786  1
  I  I3  1  0.01758629  0.36632026  0.61038354  1
  I  I4  1  0.50778793  0.28190948  0.38711575  1
  I  I5  1  0.50232028  0.70891795  0.61920200  1
  O  O0  1  0.14957573  0.06246841  0.98532056  1
  O  O1  1  0.85370754  0.94665666  0.01703131  1
  O  O2  1  0.87994369  0.93849088  0.46299088  1
  O  O3  1  0.13716360  0.01265520  0.53151251  1
  O  O4  1  0.79630784  0.09118867  0.18881971  1
  O  O5  1  0.21321064  0.90679394  0.80529527  1
  O  O6  1  0.43438256  0.15612945  0.92222380  1
  O  O7  1  0.56254983  0.86566853  0.08609217  1
  O  O8  1  0.81581720  0.07969889  0.76841742  1
  O  O9  1  0.23974476  0.92589310  0.21894131  1
  O  O10  1  0.46408109  0.08158140  0.71035525  1
  O  O11  1  0.51725421  0.94097903  0.29473799  1
  O  O12  1  0.05928418  0.23600680  0.14383977  1
  O  O13  1  0.94612796  0.76994943  0.86308772  1
  O  O14  1  0.05053687  0.75899700  0.66548966  1
  O  O15  1  0.94993534  0.21422018  0.34209803  1
  O  O16  1  0.62469617  0.84554816  0.88856984  1
  O  O17  1  0.38135488  0.18723809  0.11508037  1
loop_
_geom_bond_atom_site_label_1
_geom_bond_atom_site_label_2
_geom_bond_distance
_geom_bond_site_symmetry_2
Mg0 O8 1.953247 1_555
Fe0 O11 1.976641 1_555
Fe0 O2 2.013526 1_555
Fe0 O4 2.122716 1_565
Fe0 I2 2.809627 1_555
Fe0 I4 3.262908 1_565
Fe1 O10 2.000977 1_555
Fe1 O3 2.034232 1_555
Fe1 O5 2.120468 1_545
Fe1 I5 3.092723 1_545
Fe1 I3 3.232318 1_555
Fe2 O9 2.049737 1_555
Fe2 O1 2.111443 1_455
Fe2 O4 2.216810 1_465
Fe2 O0 2.245861 1_564
Fe2 I2 3.194606 1_455
Fe2 I1 3.260095 1_555
Fe3 O8 2.031187 1_555
Fe3 O0 2.076157 1_655
Fe3 O5 2.088068 1_645
Fe3 O1 2.120711 1_546
Fe3 O13 2.457388 1_545
Fe4 O17 2.088541 1_555
Fe4 O1 2.128804 1_545
Fe4 O6 2.242777 1_554
Fe4 O7 2.245567 1_545
Fe4 O4 2.274771 1_555
Fe4 I0 3.161108 1_554
Fe5 O16 2.048413 1_555
Fe5 O0 2.110406 1_565
Fe5 O6 2.227399 1_565
Fe5 O7 2.257319 1_556
Fe5 O5 2.419879 1_555
Fe5 I1 3.001435 1_556
I0 Mg0 2.833605 1_555
I1 Sb5 3.353368 1_555
I1 Sb9 3.392038 1_554
I3 Mg0 2.825574 1_455
I3 Sb0 3.260796 1_455
I4 Sb0 3.177341 1_555
I4 Sb2 3.413275 1_555
I4 Sb8 3.450988 1_555
I5 Sb1 3.242345 1_555
O0 Sb6 2.038820 1_555
O1 Sb7 2.035550 1_555
O2 Sb0 2.082859 1_565
O2 Sb1 2.086680 1_655
O3 Sb1 2.059672 1_545
O3 Sb0 2.146983 1_455
O4 Sb8 2.011063 1_555
O5 Sb9 2.037065 1_555
O6 Sb4 2.095876 1_555
O6 Sb6 2.192000 1_555
O7 Sb5 2.024803 1_555
O7 Sb7 2.272035 1_555
O8 Sb3 1.995528 1_545
O9 Sb5 2.071415 1_555
O9 Sb2 2.107954 1_565
O10 Sb4 2.068579 1_555
O10 Sb3 2.206474 1_545
O11 Sb5 2.014881 1_555
O11 Sb2 2.185952 1_565
O12 Sb8 2.030146 1_455
O12 Sb6 2.194188 1_554
O12 Sb2 2.222434 1_555
O13 Sb9 2.026822 1_655
O13 Sb7 2.178494 1_556
O13 Sb3 2.364982 1_555
O14 Sb1 1.972564 1_555
O14 Sb9 2.023899 1_555
O15 Sb0 1.978924 1_555
O15 Sb8 2.020302 1_555
O16 Sb7 2.030958 1_556
O16 Sb3 2.058015 1_555
O17 Sb2 2.051476 1_555
O17 Sb6 2.067989 1_554
