# generated using pymatgen
data_CaMnZnAs2H3O10
_symmetry_space_group_name_H-M   'P 1'
_cell_length_a   5.55785943
_cell_length_b   10.74325374
_cell_length_c   7.49955706
_cell_angle_alpha   77.17986790
_cell_angle_beta   68.72944267
_cell_angle_gamma   99.61339239
_symmetry_Int_Tables_number   1
_chemical_formula_structural   CaMnZnAs2H3O10
_chemical_formula_sum   'Ca2 Mn2 Zn2 As4 H6 O20'
_cell_volume   391.50330761
_cell_formula_units_Z   2
loop_
 _symmetry_equiv_pos_site_id
 _symmetry_equiv_pos_as_xyz
  1  'x, y, z'
loop_
 _atom_site_type_symbol
 _atom_site_label
 _atom_site_symmetry_multiplicity
 _atom_site_fract_x
 _atom_site_fract_y
 _atom_site_fract_z
 _atom_site_occupancy
  Ca  Ca0  1  0.50146800  0.49989400  0.99915400  1
  Ca  Ca1  1  0.00146000  0.99989200  0.99917000  1
  Mn  Mn0  1  0.50615800  0.99979100  0.50079700  1
  Mn  Mn1  1  0.00590400  0.49968100  0.50093200  1
  Zn  Zn0  1  0.25584100  0.25561800  0.50345800  1
  Zn  Zn1  1  0.75581300  0.75560000  0.50348200  1
  As  As0  1  0.88122600  0.29503300  0.20179100  1
  As  As1  1  0.38127400  0.79505400  0.20178800  1
  As  As2  1  0.62336500  0.20557400  0.79808000  1
  As  As3  1  0.12344200  0.70557400  0.79801200  1
  H  H0  1  0.31051500  0.10009000  0.25360700  1
  H  H1  1  0.81041200  0.60007800  0.25357800  1
  H  H2  1  0.19902100  0.40568100  0.73414500  1
  H  H3  1  0.69899700  0.90562400  0.73426600  1
  H  H4  1  0.04320800  0.01307100  0.48004200  1
  H  H5  1  0.54296800  0.51304900  0.48006000  1
  O  O0  1  0.59116200  0.34293000  0.23605600  1
  O  O1  1  0.09115200  0.84292800  0.23609700  1
  O  O2  1  0.80098100  0.12184300  0.25084200  1
  O  O3  1  0.30087000  0.62183500  0.25081200  1
  O  O4  1  0.91189900  0.15680900  0.76330500  1
  O  O5  1  0.41188300  0.65678600  0.76331100  1
  O  O6  1  0.70312600  0.37893400  0.74710000  1
  O  O7  1  0.20318500  0.87891300  0.74709200  1
  O  O8  1  0.02628500  0.34185600  0.35568000  1
  O  O9  1  0.52625400  0.84182100  0.35574800  1
  O  O10  1  0.47214300  0.15738800  0.64780900  1
  O  O11  1  0.97212900  0.65736900  0.64781600  1
  O  O12  1  0.12825800  0.37163700  0.96865300  1
  O  O13  1  0.62828800  0.87161700  0.96868100  1
  O  O14  1  0.37600000  0.12924500  0.03214200  1
  O  O15  1  0.87602200  0.62921000  0.03211500  1
  O  O16  1  0.24417900  0.07304400  0.40896000  1
  O  O17  1  0.74396700  0.57304500  0.40895600  1
  O  O18  1  0.26551100  0.43176500  0.58219600  1
  O  O19  1  0.76563300  0.93171800  0.58227000  1
loop_
_geom_bond_atom_site_label_1
_geom_bond_atom_site_label_2
_geom_bond_distance
_geom_bond_site_symmetry_2
Ca0 O12 2.404778 1_555
Ca0 O5 2.411123 1_555
Ca0 O0 2.417117 1_556
Ca0 O15 2.425809 1_556
Ca0 O6 2.560765 1_555
Ca0 O3 2.565072 1_556
Ca0 O11 2.861880 1_555
Ca0 O8 2.893268 1_556
Ca1 O13 2.404647 1_455
Ca1 O4 2.411306 1_465
Ca1 O1 2.417233 1_556
Ca1 O14 2.425971 1_566
Ca1 O7 2.561136 1_555
Ca1 O2 2.565057 1_466
Ca1 O10 2.862070 1_565
Ca1 O9 2.893591 1_456
Mn0 O19 1.944523 1_555
Mn0 O2 1.970082 1_565
Mn0 O7 1.970316 1_555
Mn0 O16 2.020774 1_565
Mn0 O9 2.206901 1_555
Mn0 O10 2.214043 1_565
Mn1 O18 1.943688 1_555
Mn1 O6 1.968985 1_455
Mn1 O3 1.971348 1_555
Mn1 O17 2.021617 1_455
Mn1 O8 2.206503 1_555
Mn1 O11 2.214259 1_455
As0 O12 1.691653 1_654
As0 O0 1.721910 1_555
As0 O8 1.741334 1_655
As0 O2 1.759605 1_555
As1 O13 1.691417 1_554
As1 O1 1.722049 1_555
As1 O9 1.741307 1_555
As1 O3 1.759932 1_555
As2 O14 1.696337 1_556
As2 O4 1.718113 1_555
As2 O10 1.745061 1_555
As2 O6 1.759739 1_555
As3 O15 1.696684 1_456
As3 O5 1.717821 1_555
As3 O11 1.744973 1_455
As3 O7 1.759570 1_555
H0 O16 1.039276 1_555
H0 O14 1.510496 1_555
H1 O17 1.039395 1_555
H1 O15 1.510367 1_555
H2 O18 1.015788 1_555
H2 O12 1.595665 1_555
H3 O19 1.016040 1_555
H3 O13 1.595074 1_555
H4 O16 1.059300 1_555
H4 O19 1.458011 1_445
H5 O17 1.059496 1_555
H5 O18 1.457275 1_555
O0 Zn0 2.060200 1_555
O1 Zn1 2.060193 1_455
O4 Zn0 2.068819 1_655
O5 Zn1 2.068727 1_555
O8 Zn0 2.163196 1_555
O9 Zn1 2.162927 1_555
O10 Zn0 2.142860 1_555
O11 Zn1 2.142853 1_555
O16 Zn0 2.227429 1_555
O17 Zn1 2.227343 1_555
O18 Zn0 2.101830 1_555
O19 Zn1 2.101697 1_555
