# generated using pymatgen
data_KLaTiO4
_symmetry_space_group_name_H-M   'P 1'
_cell_length_a   5.44867900
_cell_length_b   5.46568800
_cell_length_c   13.61461200
_cell_angle_alpha   90.00000000
_cell_angle_beta   90.00000000
_cell_angle_gamma   90.00000000
_symmetry_Int_Tables_number   1
_chemical_formula_structural   KLaTiO4
_chemical_formula_sum   'K4 La4 Ti4 O16'
_cell_volume   405.45375694
_cell_formula_units_Z   4
loop_
 _symmetry_equiv_pos_site_id
 _symmetry_equiv_pos_as_xyz
  1  'x, y, z'
loop_
 _atom_site_type_symbol
 _atom_site_label
 _atom_site_symmetry_multiplicity
 _atom_site_fract_x
 _atom_site_fract_y
 _atom_site_fract_z
 _atom_site_occupancy
  K  K0  1  0.75000000  0.99380900  0.59082600  1
  K  K1  1  0.25000000  0.00619100  0.40917400  1
  K  K2  1  0.75000000  0.49380900  0.40917400  1
  K  K3  1  0.25000000  0.50619100  0.59082600  1
  La  La0  1  0.75000000  0.49002800  0.10492100  1
  La  La1  1  0.25000000  0.50997200  0.89507900  1
  La  La2  1  0.75000000  0.99002800  0.89507900  1
  La  La3  1  0.25000000  0.00997200  0.10492100  1
  Ti  Ti0  1  0.75000000  0.99785600  0.26003000  1
  Ti  Ti1  1  0.25000000  0.00214400  0.73997000  1
  Ti  Ti2  1  0.75000000  0.49785600  0.73997000  1
  Ti  Ti3  1  0.25000000  0.50214400  0.26003000  1
  O  O0  1  0.75000000  0.03097400  0.06655600  1
  O  O1  1  0.25000000  0.96902600  0.93344400  1
  O  O2  1  0.75000000  0.53097400  0.93344400  1
  O  O3  1  0.25000000  0.46902600  0.06655600  1
  O  O4  1  0.50000000  0.25000000  0.23213500  1
  O  O5  1  0.50000000  0.75000000  0.76786500  1
  O  O6  1  0.00000000  0.75000000  0.76786500  1
  O  O7  1  0.00000000  0.25000000  0.23213500  1
  O  O8  1  0.75000000  0.49107400  0.61082300  1
  O  O9  1  0.25000000  0.50892600  0.38917700  1
  O  O10  1  0.75000000  0.99107400  0.38917700  1
  O  O11  1  0.25000000  0.00892600  0.61082300  1
  O  O12  1  0.50000000  0.25000000  0.77588000  1
  O  O13  1  0.50000000  0.75000000  0.22412000  1
  O  O14  1  0.00000000  0.75000000  0.22412000  1
  O  O15  1  0.00000000  0.25000000  0.77588000  1
loop_
_geom_bond_atom_site_label_1
_geom_bond_atom_site_label_2
_geom_bond_distance
_geom_bond_site_symmetry_2
K0 O8 2.731497 1_565
K0 O11 2.739156 1_565
K0 O11 2.739156 1_665
K0 O10 2.745414 1_555
K0 O8 2.761247 1_555
K0 O5 3.072607 1_555
K0 O6 3.072607 1_655
K0 O12 3.188072 1_565
K0 O15 3.188072 1_665
K1 O9 2.731497 1_545
K1 O10 2.739156 1_445
K1 O10 2.739156 1_545
K1 O11 2.745414 1_555
K1 O9 2.761247 1_555
K1 O4 3.072607 1_555
K1 O7 3.072607 1_555
K1 O14 3.188072 1_545
K1 O13 3.188072 1_545
K2 O10 2.731497 1_555
K2 O9 2.739156 1_555
K2 O9 2.739156 1_655
K2 O8 2.745414 1_555
K2 O10 2.761247 1_545
K2 O4 3.072607 1_555
K2 O7 3.072607 1_655
K2 O14 3.188072 1_655
K2 O13 3.188072 1_555
K3 O11 2.731497 1_555
K3 O8 2.739156 1_555
K3 O8 2.739156 1_455
K3 O9 2.745414 1_555
K3 O11 2.761247 1_565
K3 O6 3.072607 1_555
K3 O5 3.072607 1_555
K3 O15 3.188072 1_555
K3 O12 3.188072 1_555
La0 O2 2.345295 1_554
La0 O14 2.551112 1_655
La0 O13 2.551112 1_555
La0 O0 2.562837 1_555
La0 O7 2.564440 1_655
La0 O4 2.564440 1_555
La0 O3 2.776333 1_555
La0 O3 2.776333 1_655
La0 O0 3.002425 1_565
La1 O3 2.345295 1_556
La1 O15 2.551112 1_555
La1 O12 2.551112 1_555
La1 O1 2.562837 1_555
La1 O6 2.564440 1_555
La1 O5 2.564440 1_555
La1 O2 2.776333 1_455
La1 O2 2.776333 1_555
La1 O1 3.002425 1_545
La2 O0 2.345295 1_566
La2 O12 2.551112 1_565
La2 O15 2.551112 1_665
La2 O2 2.562837 1_555
La2 O6 2.564440 1_655
La2 O5 2.564440 1_555
La2 O1 2.776333 1_655
La2 O1 2.776333 1_555
La2 O2 3.002425 1_565
La3 O1 2.345295 1_544
La3 O13 2.551112 1_545
La3 O14 2.551112 1_545
La3 O3 2.562837 1_555
La3 O4 2.564440 1_555
La3 O7 2.564440 1_555
La3 O0 2.776333 1_455
La3 O0 2.776333 1_555
La3 O3 3.002425 1_545
O0 Ti0 2.640286 1_545
O1 Ti1 2.640286 1_565
O2 Ti2 2.640286 1_555
O3 Ti3 2.640286 1_555
O4 Ti0 1.974591 1_545
O4 Ti3 1.974591 1_555
O5 Ti1 1.974591 1_565
O5 Ti2 1.974591 1_555
O6 Ti1 1.974591 1_565
O6 Ti2 1.974591 1_455
O7 Ti3 1.974591 1_555
O7 Ti0 1.974591 1_445
O8 Ti2 1.758677 1_555
O9 Ti3 1.758677 1_555
O10 Ti0 1.758677 1_555
O11 Ti1 1.758677 1_555
O12 Ti2 1.982360 1_555
O12 Ti1 1.982360 1_555
O13 Ti3 1.982360 1_555
O13 Ti0 1.982360 1_555
O14 Ti0 1.982360 1_455
O14 Ti3 1.982360 1_555
O15 Ti2 1.982360 1_455
O15 Ti1 1.982360 1_555
