# generated using pymatgen
data_Li2FeP2O7
_symmetry_space_group_name_H-M   'P 1'
_cell_length_a   5.13948491
_cell_length_b   8.80890545
_cell_length_c   13.32619558
_cell_angle_alpha   103.04016377
_cell_angle_beta   88.84229945
_cell_angle_gamma   91.02845118
_symmetry_Int_Tables_number   1
_chemical_formula_structural   Li2FeP2O7
_chemical_formula_sum   'Li8 Fe4 P8 O28'
_cell_volume   587.58616172
_cell_formula_units_Z   4
loop_
 _symmetry_equiv_pos_site_id
 _symmetry_equiv_pos_as_xyz
  1  'x, y, z'
loop_
 _atom_site_type_symbol
 _atom_site_label
 _atom_site_symmetry_multiplicity
 _atom_site_fract_x
 _atom_site_fract_y
 _atom_site_fract_z
 _atom_site_occupancy
  Li  Li0  1  0.03892200  0.16925300  0.41058400  1
  Li  Li1  1  0.53857900  0.66915700  0.41026000  1
  Li  Li2  1  0.52186100  0.89191700  0.09138500  1
  Li  Li3  1  0.02264600  0.39232800  0.09243200  1
  Li  Li4  1  0.97737800  0.60776600  0.90746500  1
  Li  Li5  1  0.47832900  0.10806200  0.90867500  1
  Li  Li6  1  0.46132600  0.33076600  0.58969500  1
  Li  Li7  1  0.96111300  0.83077500  0.58933800  1
  Fe  Fe0  1  0.99957500  0.50011300  0.50022300  1
  Fe  Fe1  1  0.00017100  0.99998200  0.00005500  1
  Fe  Fe2  1  0.50032100  0.99992100  0.49995100  1
  Fe  Fe3  1  0.50016900  0.49987300  0.99998700  1
  P  P0  1  0.96998800  0.18601200  0.63110400  1
  P  P1  1  0.46998000  0.68636100  0.63089300  1
  P  P2  1  0.98697400  0.26978500  0.86847400  1
  P  P3  1  0.48666200  0.76914000  0.86805300  1
  P  P4  1  0.51323700  0.23086300  0.13195800  1
  P  P5  1  0.01315100  0.73026400  0.13153700  1
  P  P6  1  0.53000000  0.31367200  0.36911500  1
  P  P7  1  0.03005000  0.81392100  0.36885600  1
  O  O0  1  0.02611200  0.27195500  0.74868200  1
  O  O1  1  0.52627900  0.77267400  0.74838500  1
  O  O2  1  0.47376500  0.22734400  0.25160300  1
  O  O3  1  0.97389100  0.72793100  0.25131500  1
  O  O4  1  0.10400500  0.11826300  0.88549300  1
  O  O5  1  0.60408300  0.61762000  0.88470400  1
  O  O6  1  0.67405300  0.16005600  0.61949800  1
  O  O7  1  0.17405100  0.66039700  0.61928600  1
  O  O8  1  0.82591700  0.33965600  0.38076000  1
  O  O9  1  0.32592300  0.83991300  0.38048000  1
  O  O10  1  0.39582200  0.38236800  0.11527700  1
  O  O11  1  0.89604400  0.88173800  0.11455100  1
  O  O12  1  0.14337800  0.41420700  0.92250100  1
  O  O13  1  0.64226000  0.91320700  0.92309000  1
  O  O14  1  0.07441200  0.30500000  0.57154900  1
  O  O15  1  0.57401800  0.80475400  0.57071300  1
  O  O16  1  0.42598800  0.19520900  0.42927200  1
  O  O17  1  0.92552200  0.69503200  0.42847700  1
  O  O18  1  0.35767100  0.08670800  0.07709000  1
  O  O19  1  0.85671500  0.58593300  0.07742200  1
  O  O20  1  0.87673600  0.96571700  0.39654400  1
  O  O21  1  0.37659200  0.46543400  0.39652500  1
  O  O22  1  0.80335000  0.21604600  0.10347800  1
  O  O23  1  0.30297000  0.71483200  0.10244200  1
  O  O24  1  0.69703800  0.28520800  0.89755100  1
  O  O25  1  0.19640700  0.78407600  0.89640900  1
  O  O26  1  0.62334500  0.53455700  0.60347100  1
  O  O27  1  0.12322200  0.03423300  0.60338900  1
loop_
_geom_bond_atom_site_label_1
_geom_bond_atom_site_label_2
_geom_bond_distance
_geom_bond_site_symmetry_2
Li0 O20 1.935377 1_445
Li0 O8 1.988816 1_455
Li0 O16 2.012384 1_555
Li0 O14 2.216953 1_555
Li1 O21 1.936856 1_555
Li1 O9 1.990094 1_555
Li1 O17 2.010978 1_555
Li1 O15 2.210725 1_555
Li2 O23 1.937705 1_555
Li2 O11 1.960704 1_555
Li2 O18 1.974501 1_565
Li2 O13 2.361669 1_554
Li3 O22 1.933111 1_455
Li3 O10 1.954618 1_555
Li3 O19 1.972024 1_455
Li3 O12 2.384567 1_554
Li4 O25 1.932566 1_655
Li4 O5 1.954922 1_555
Li4 O12 1.971926 1_655
Li4 O19 2.384698 1_556
Li5 O24 1.937834 1_555
Li5 O4 1.961477 1_555
Li5 O13 1.974898 1_545
Li5 O18 2.363692 1_556
Li6 O26 1.937404 1_555
Li6 O6 1.990089 1_555
Li6 O14 2.010656 1_555
Li6 O16 2.210226 1_555
Li7 O27 1.934581 1_665
Li7 O7 1.989073 1_655
Li7 O15 2.012471 1_555
Li7 O17 2.215815 1_555
Fe0 O7 2.077549 1_655
Fe0 O8 2.079792 1_555
Fe0 O14 2.186586 1_655
Fe0 O17 2.187724 1_555
Fe0 O26 2.334363 1_555
Fe0 O21 2.340959 1_655
Fe1 O11 2.088914 1_455
Fe1 O4 2.089516 1_564
Fe1 O18 2.164564 1_565
Fe1 O13 2.166080 1_454
Fe1 O25 2.317163 1_554
Fe1 O22 2.318255 1_465
Fe2 O6 2.079238 1_565
Fe2 O9 2.079535 1_555
Fe2 O15 2.181230 1_555
Fe2 O16 2.182144 1_565
Fe2 O20 2.336270 1_555
Fe2 O27 2.339383 1_565
Fe3 O10 2.093776 1_556
Fe3 O5 2.094580 1_555
Fe3 O19 2.161248 1_556
Fe3 O12 2.161815 1_555
Fe3 O24 2.304549 1_555
Fe3 O23 2.307199 1_556
O0 P0 1.608273 1_455
O0 P2 1.609312 1_455
O1 P1 1.608257 1_555
O1 P3 1.610779 1_555
O2 P6 1.608460 1_555
O2 P4 1.610365 1_555
O3 P7 1.607980 1_655
O3 P5 1.609529 1_655
O4 P2 1.538081 1_455
O5 P3 1.537172 1_555
O6 P0 1.539663 1_555
O7 P1 1.539641 1_555
O8 P6 1.539644 1_555
O9 P7 1.539404 1_555
O10 P4 1.537179 1_555
O11 P5 1.537702 1_655
O12 P2 1.535039 1_455
O13 P3 1.534672 1_555
O14 P0 1.534442 1_455
O15 P1 1.535193 1_555
O16 P6 1.535432 1_555
O17 P7 1.534509 1_655
O18 P4 1.534459 1_555
O19 P5 1.534896 1_655
O20 P7 1.532460 1_655
O21 P6 1.532346 1_555
O22 P4 1.531672 1_555
O23 P5 1.532197 1_555
O24 P2 1.532725 1_555
O25 P3 1.532085 1_555
O26 P1 1.532541 1_555
O27 P0 1.532132 1_455
