# generated using pymatgen
data_U6Al43V4
_symmetry_space_group_name_H-M   'P 1'
_cell_length_a   10.97672551
_cell_length_b   10.97672551
_cell_length_c   17.42622200
_cell_angle_alpha   90.00000000
_cell_angle_beta   90.00000000
_cell_angle_gamma   119.99999704
_symmetry_Int_Tables_number   1
_chemical_formula_structural   U6Al43V4
_chemical_formula_sum   'U12 Al86 V8'
_cell_volume   1818.35843401
_cell_formula_units_Z   2
loop_
 _symmetry_equiv_pos_site_id
 _symmetry_equiv_pos_as_xyz
  1  'x, y, z'
loop_
 _atom_site_type_symbol
 _atom_site_label
 _atom_site_symmetry_multiplicity
 _atom_site_fract_x
 _atom_site_fract_y
 _atom_site_fract_z
 _atom_site_occupancy
  U  U0  1  0.47429200  0.47429200  0.91020000  1
  U  U1  1  0.52570800  0.52570800  0.08980000  1
  U  U2  1  0.00000000  0.52570800  0.91020000  1
  U  U3  1  0.52570800  0.52570800  0.41020000  1
  U  U4  1  0.00000000  0.52570800  0.58980000  1
  U  U5  1  0.00000000  0.47429200  0.08980000  1
  U  U6  1  0.47429200  0.47429200  0.58980000  1
  U  U7  1  0.00000000  0.47429200  0.41020000  1
  U  U8  1  0.52570800  0.00000000  0.91020000  1
  U  U9  1  0.47429200  0.00000000  0.08980000  1
  U  U10  1  0.47429200  0.00000000  0.41020000  1
  U  U11  1  0.52570800  0.00000000  0.58980000  1
  Al  Al0  1  0.85689900  0.45166800  0.75000000  1
  Al  Al1  1  0.14310100  0.54833200  0.25000000  1
  Al  Al2  1  0.59476900  0.14310100  0.75000000  1
  Al  Al3  1  0.40523100  0.54833200  0.75000000  1
  Al  Al4  1  0.40523100  0.85689900  0.25000000  1
  Al  Al5  1  0.59476900  0.45166800  0.25000000  1
  Al  Al6  1  0.54833200  0.40523100  0.75000000  1
  Al  Al7  1  0.45166800  0.85689900  0.75000000  1
  Al  Al8  1  0.45166800  0.59476900  0.25000000  1
  Al  Al9  1  0.54833200  0.14310100  0.25000000  1
  Al  Al10  1  0.14310100  0.59476900  0.75000000  1
  Al  Al11  1  0.85689900  0.40523100  0.25000000  1
  Al  Al12  1  0.84197800  0.84197800  0.38478800  1
  Al  Al13  1  0.15802200  0.15802200  0.61521200  1
  Al  Al14  1  0.00000000  0.15802200  0.38478800  1
  Al  Al15  1  0.15802200  0.15802200  0.88478800  1
  Al  Al16  1  0.00000000  0.15802200  0.11521200  1
  Al  Al17  1  0.00000000  0.84197800  0.61521200  1
  Al  Al18  1  0.84197800  0.84197800  0.11521200  1
  Al  Al19  1  0.00000000  0.84197800  0.88478800  1
  Al  Al20  1  0.15802200  0.00000000  0.38478800  1
  Al  Al21  1  0.84197800  0.00000000  0.61521200  1
  Al  Al22  1  0.84197800  0.00000000  0.88478800  1
  Al  Al23  1  0.15802200  0.00000000  0.11521200  1
  Al  Al24  1  0.75316000  0.24684000  0.00000000  1
  Al  Al25  1  0.24684000  0.75316000  0.00000000  1
  Al  Al26  1  0.49368000  0.24684000  0.00000000  1
  Al  Al27  1  0.24684000  0.75316000  0.50000000  1
  Al  Al28  1  0.50632000  0.75316000  0.50000000  1
  Al  Al29  1  0.50632000  0.75316000  0.00000000  1
  Al  Al30  1  0.75316000  0.24684000  0.50000000  1
  Al  Al31  1  0.49368000  0.24684000  0.50000000  1
  Al  Al32  1  0.75316000  0.50632000  0.00000000  1
  Al  Al33  1  0.24684000  0.49368000  0.00000000  1
  Al  Al34  1  0.24684000  0.49368000  0.50000000  1
  Al  Al35  1  0.75316000  0.50632000  0.50000000  1
  Al  Al36  1  0.85501100  0.85501100  0.75000000  1
  Al  Al37  1  0.14498900  0.14498900  0.25000000  1
  Al  Al38  1  0.00000000  0.14498900  0.75000000  1
  Al  Al39  1  0.00000000  0.85501100  0.25000000  1
  Al  Al40  1  0.14498900  0.00000000  0.75000000  1
  Al  Al41  1  0.85501100  0.00000000  0.25000000  1
  Al  Al42  1  0.66666700  0.33333300  0.87208800  1
  Al  Al43  1  0.33333300  0.66666700  0.12791200  1
  Al  Al44  1  0.33333300  0.66666700  0.37208800  1
  Al  Al45  1  0.33333300  0.66666700  0.62791200  1
  Al  Al46  1  0.66666700  0.33333300  0.62791200  1
  Al  Al47  1  0.66666700  0.33333300  0.37208800  1
  Al  Al48  1  0.66666700  0.33333300  0.12791200  1
  Al  Al49  1  0.33333300  0.66666700  0.87208800  1
  Al  Al50  1  0.74664900  0.74664900  0.97032700  1
  Al  Al51  1  0.25335100  0.25335100  0.02967300  1
  Al  Al52  1  0.00000000  0.25335100  0.97032700  1
  Al  Al53  1  0.25335100  0.25335100  0.47032700  1
  Al  Al54  1  0.00000000  0.25335100  0.52967300  1
  Al  Al55  1  0.00000000  0.74664900  0.02967300  1
  Al  Al56  1  0.74664900  0.74664900  0.52967300  1
  Al  Al57  1  0.00000000  0.74664900  0.47032700  1
  Al  Al58  1  0.25335100  0.00000000  0.97032700  1
  Al  Al59  1  0.74664900  0.00000000  0.02967300  1
  Al  Al60  1  0.74664900  0.00000000  0.47032700  1
  Al  Al61  1  0.25335100  0.00000000  0.52967300  1
  Al  Al62  1  0.84102300  0.23395200  0.83525600  1
  Al  Al63  1  0.15897700  0.76604800  0.16474400  1
  Al  Al64  1  0.39292900  0.15897700  0.83525600  1
  Al  Al65  1  0.15897700  0.76604800  0.33525600  1
  Al  Al66  1  0.60707100  0.76604800  0.66474400  1
  Al  Al67  1  0.60707100  0.84102300  0.16474400  1
  Al  Al68  1  0.84102300  0.23395200  0.66474400  1
  Al  Al69  1  0.39292900  0.23395200  0.33525600  1
  Al  Al70  1  0.76604800  0.60707100  0.83525600  1
  Al  Al71  1  0.60707100  0.84102300  0.33525600  1
  Al  Al72  1  0.23395200  0.84102300  0.66474400  1
  Al  Al73  1  0.23395200  0.39292900  0.16474400  1
  Al  Al74  1  0.39292900  0.15897700  0.66474400  1
  Al  Al75  1  0.76604800  0.15897700  0.33525600  1
  Al  Al76  1  0.39292900  0.23395200  0.16474400  1
  Al  Al77  1  0.60707100  0.76604800  0.83525600  1
  Al  Al78  1  0.23395200  0.39292900  0.33525600  1
  Al  Al79  1  0.76604800  0.15897700  0.16474400  1
  Al  Al80  1  0.76604800  0.60707100  0.66474400  1
  Al  Al81  1  0.23395200  0.84102300  0.83525600  1
  Al  Al82  1  0.15897700  0.39292900  0.66474400  1
  Al  Al83  1  0.84102300  0.60707100  0.33525600  1
  Al  Al84  1  0.84102300  0.60707100  0.16474400  1
  Al  Al85  1  0.15897700  0.39292900  0.83525600  1
  V  V0  1  0.00000000  0.00000000  0.00000000  1
  V  V1  1  0.00000000  0.00000000  0.50000000  1
  V  V2  1  0.27011900  0.27011900  0.75000000  1
  V  V3  1  0.72988100  0.72988100  0.25000000  1
  V  V4  1  0.00000000  0.72988100  0.75000000  1
  V  V5  1  0.00000000  0.27011900  0.25000000  1
  V  V6  1  0.72988100  0.00000000  0.75000000  1
  V  V7  1  0.27011900  0.00000000  0.25000000  1
loop_
_geom_bond_atom_site_label_1
_geom_bond_atom_site_label_2
_geom_bond_distance
_geom_bond_site_symmetry_2
U0 U1 3.180229 1_556
U0 V2 3.579978 1_555
U1 V3 3.579978 1_555
U2 U5 3.180229 1_556
U2 V4 3.579978 1_555
U3 U6 3.180229 1_555
U3 V3 3.579978 1_555
U4 U7 3.180229 1_555
U4 V4 3.579978 1_555
U5 V5 3.579978 1_555
U6 V2 3.579978 1_555
U7 V5 3.579978 1_555
U8 U9 3.180229 1_556
U8 V6 3.579978 1_555
U9 V7 3.579978 1_555
U10 U11 3.180229 1_555
U10 V7 3.579978 1_555
U11 V6 3.579978 1_555
Al0 V4 2.645091 1_655
Al0 Al10 2.720672 1_655
Al0 Al62 2.744516 1_555
Al0 Al68 2.744516 1_555
Al0 Al70 2.795121 1_555
Al0 Al80 2.795121 1_555
Al0 Al46 2.803846 1_555
Al0 Al42 2.803846 1_555
Al0 U2 3.105598 1_655
Al0 U4 3.105598 1_655
Al1 V5 2.645091 1_555
Al1 Al11 2.720672 1_455
Al1 Al65 2.744516 1_555
Al1 Al63 2.744516 1_555
Al1 Al78 2.795121 1_555
Al1 Al73 2.795121 1_555
Al1 Al44 2.803846 1_555
Al1 Al43 2.803846 1_555
Al1 U7 3.105598 1_555
Al1 U5 3.105598 1_555
Al2 V6 2.645090 1_555
Al2 Al7 2.720672 1_545
Al2 Al64 2.744516 1_555
Al2 Al74 2.744516 1_555
Al2 Al68 2.795121 1_555
Al2 Al62 2.795121 1_555
Al2 Al42 2.803845 1_555
Al2 Al46 2.803845 1_555
Al2 U11 3.105598 1_555
Al2 U8 3.105598 1_555
Al3 V2 2.645091 1_555
Al3 Al6 2.720671 1_555
Al3 Al77 2.744516 1_555
Al3 Al66 2.744516 1_555
Al3 Al85 2.795121 1_555
Al3 Al82 2.795121 1_555
Al3 Al49 2.803851 1_555
Al3 Al45 2.803851 1_555
Al3 U6 3.105598 1_555
Al3 U0 3.105598 1_555
Al4 V7 2.645090 1_565
Al4 Al9 2.720672 1_565
Al4 Al67 2.744516 1_555
Al4 Al71 2.744516 1_555
Al4 Al63 2.795121 1_555
Al4 Al65 2.795121 1_555
Al4 Al44 2.803845 1_555
Al4 Al43 2.803845 1_555
Al4 U10 3.105598 1_565
Al4 U9 3.105598 1_565
Al5 V3 2.645091 1_555
Al5 Al8 2.720671 1_555
Al5 Al69 2.744516 1_555
Al5 Al76 2.744516 1_555
Al5 Al83 2.795121 1_555
Al5 Al84 2.795121 1_555
Al5 U1 3.105598 1_555
Al5 U3 3.105598 1_555
Al6 V2 2.645091 1_555
Al6 Al80 2.744516 1_555
Al6 Al70 2.744516 1_555
Al6 Al74 2.795121 1_555
Al6 Al64 2.795121 1_555
Al6 U0 3.105598 1_555
Al6 U6 3.105598 1_555
Al7 V6 2.645091 1_565
Al7 Al81 2.744516 1_555
Al7 Al72 2.744516 1_555
Al7 Al77 2.795121 1_555
Al7 U8 3.105598 1_565
Al7 U11 3.105598 1_565
Al8 V3 2.645091 1_555
Al8 U1 3.105598 1_555
Al8 U3 3.105598 1_555
Al9 V7 2.645091 1_555
Al9 U9 3.105598 1_555
Al9 U10 3.105598 1_555
Al10 V4 2.645090 1_555
Al10 Al85 2.744516 1_555
Al10 Al82 2.744516 1_555
Al10 Al72 2.795121 1_555
Al10 Al81 2.795121 1_555
Al10 Al45 2.803845 1_555
Al10 Al49 2.803845 1_555
Al10 U4 3.105598 1_555
Al10 U2 3.105598 1_555
Al11 V5 2.645090 1_655
Al11 Al84 2.744516 1_555
Al11 Al83 2.744516 1_555
Al11 Al75 2.795121 1_555
Al11 Al79 2.795121 1_555
Al11 Al47 2.803845 1_555
Al11 Al48 2.803845 1_555
Al11 U7 3.105598 1_655
Al11 U5 3.105598 1_655
Al12 V3 2.651623 1_555
Al12 V1 2.653227 1_665
Al12 Al83 2.714190 1_555
Al12 Al71 2.714190 1_555
Al12 Al56 2.733049 1_555
Al12 Al57 2.853185 1_655
Al12 Al60 2.853185 1_565
Al12 Al41 2.880644 1_565
Al12 Al39 2.880644 1_655
Al12 Al14 3.004353 1_665
Al12 Al20 3.004353 1_665
Al12 U3 3.499739 1_555
Al13 V2 2.651623 1_555
Al13 V1 2.653227 1_555
Al13 Al74 2.714190 1_555
Al13 Al82 2.714190 1_555
Al13 Al53 2.733049 1_555
Al13 Al54 2.853185 1_555
Al13 Al61 2.853185 1_555
Al13 Al40 2.880644 1_555
Al13 Al38 2.880644 1_555
Al13 Al21 3.004353 1_455
Al13 Al17 3.004353 1_545
Al13 U6 3.499739 1_555
Al14 V5 2.651623 1_555
Al14 V1 2.653227 1_555
Al14 Al75 2.714190 1_455
Al14 Al78 2.714191 1_555
Al14 Al54 2.733049 1_555
Al14 Al53 2.853186 1_555
Al14 Al60 2.853186 1_455
Al14 Al37 2.880644 1_555
Al14 Al41 2.880644 1_455
Al14 Al20 3.004353 1_555
Al14 U7 3.499739 1_555
Al15 V2 2.651623 1_555
Al15 V0 2.653227 1_556
Al15 Al64 2.714190 1_555
Al15 Al85 2.714190 1_555
Al15 Al51 2.733049 1_556
Al15 Al52 2.853185 1_555
Al15 Al58 2.853185 1_555
Al15 Al40 2.880644 1_555
Al15 Al38 2.880644 1_555
Al15 Al19 3.004353 1_545
Al15 Al22 3.004353 1_455
Al15 U0 3.499739 1_555
Al16 V5 2.651623 1_555
Al16 V0 2.653227 1_555
Al16 Al79 2.714190 1_455
Al16 Al73 2.714191 1_555
Al16 Al52 2.733049 1_554
Al16 Al51 2.853186 1_555
Al16 Al59 2.853186 1_455
Al16 Al37 2.880644 1_555
Al16 Al41 2.880644 1_455
Al16 Al23 3.004353 1_555
Al16 Al18 3.004353 1_445
Al16 U5 3.499739 1_555
Al17 V4 2.651623 1_555
Al17 V1 2.653227 1_565
Al17 Al72 2.714190 1_555
Al17 Al80 2.714191 1_455
Al17 Al57 2.733049 1_555
Al17 Al56 2.853186 1_455
Al17 Al61 2.853186 1_565
Al17 Al36 2.880644 1_455
Al17 Al40 2.880644 1_565
Al17 Al21 3.004353 1_465
Al17 U4 3.499739 1_555
Al18 V3 2.651623 1_555
Al18 V0 2.653227 1_665
Al18 Al84 2.714190 1_555
Al18 Al67 2.714190 1_555
Al18 Al50 2.733049 1_554
Al18 Al55 2.853185 1_655
Al18 Al59 2.853185 1_565
Al18 Al39 2.880644 1_655
Al18 Al41 2.880644 1_565
Al18 Al23 3.004353 1_665
Al18 U1 3.499739 1_555
Al19 V4 2.651623 1_555
Al19 V0 2.653227 1_566
Al19 Al81 2.714190 1_555
Al19 Al70 2.714191 1_455
Al19 Al55 2.733049 1_556
Al19 Al50 2.853186 1_455
Al19 Al58 2.853186 1_565
Al19 Al36 2.880644 1_455
Al19 Al40 2.880644 1_565
Al19 Al22 3.004353 1_465
Al19 U2 3.499739 1_555
Al20 V7 2.651623 1_555
Al20 V1 2.653227 1_555
Al20 Al65 2.714190 1_545
Al20 Al69 2.714191 1_555
Al20 Al61 2.733049 1_555
Al20 Al53 2.853186 1_555
Al20 Al57 2.853186 1_545
Al20 Al37 2.880644 1_555
Al20 Al39 2.880644 1_545
Al20 U10 3.499739 1_555
Al21 V6 2.651623 1_555
Al21 V1 2.653227 1_655
Al21 Al68 2.714190 1_555
Al21 Al66 2.714191 1_545
Al21 Al60 2.733049 1_555
Al21 Al56 2.853186 1_545
Al21 Al54 2.853186 1_655
Al21 Al36 2.880644 1_545
Al21 Al38 2.880644 1_655
Al21 U11 3.499739 1_555
Al22 V6 2.651623 1_555
Al22 V0 2.653227 1_656
Al22 Al62 2.714190 1_555
Al22 Al77 2.714191 1_545
Al22 Al59 2.733049 1_556
Al22 Al50 2.853186 1_545
Al22 Al52 2.853186 1_655
Al22 Al36 2.880644 1_545
Al22 Al38 2.880644 1_655
Al22 U8 3.499739 1_555
Al23 V7 2.651623 1_555
Al23 V0 2.653227 1_555
Al23 Al63 2.714190 1_545
Al23 Al76 2.714191 1_555
Al23 Al58 2.733049 1_554
Al23 Al51 2.853186 1_555
Al23 Al55 2.853186 1_545
Al23 Al37 2.880644 1_555
Al23 Al39 2.880644 1_545
Al23 U9 3.499739 1_555
Al24 Al52 2.724005 1_654
Al24 Al59 2.724005 1_555
Al24 Al48 2.769960 1_555
Al24 Al42 2.769960 1_554
Al24 Al32 2.848241 1_555
Al24 Al26 2.848241 1_555
Al24 U5 3.042838 1_655
Al24 U8 3.042838 1_554
Al24 Al62 3.054256 1_554
Al24 Al79 3.054256 1_555
Al24 U2 3.296415 1_654
Al24 U9 3.296415 1_555
Al25 Al58 2.724005 1_564
Al25 Al55 2.724005 1_555
Al25 Al43 2.769960 1_555
Al25 Al49 2.769960 1_554
Al25 Al29 2.848241 1_555
Al25 Al33 2.848241 1_555
Al25 U9 3.042838 1_565
Al25 U2 3.042838 1_554
Al25 Al81 3.054256 1_554
Al25 Al63 3.054256 1_555
Al25 U8 3.296415 1_564
Al25 U5 3.296415 1_555
Al26 Al51 2.724005 1_555
Al26 Al58 2.724005 1_554
Al26 Al48 2.769966 1_555
Al26 Al42 2.769966 1_554
Al26 Al32 2.848241 1_555
Al26 U0 3.042838 1_554
Al26 U9 3.042838 1_555
Al26 Al76 3.054256 1_555
Al26 Al64 3.054256 1_554
Al26 U8 3.296415 1_554
Al26 U1 3.296415 1_555
Al27 Al61 2.724005 1_565
Al27 Al57 2.724005 1_555
Al27 Al45 2.769960 1_555
Al27 Al44 2.769960 1_555
Al27 Al28 2.848241 1_555
Al27 Al34 2.848241 1_555
Al27 U10 3.042838 1_565
Al27 U4 3.042838 1_555
Al27 Al72 3.054256 1_555
Al27 Al65 3.054256 1_555
Al27 U11 3.296415 1_565
Al27 U7 3.296415 1_555
Al28 Al56 2.724005 1_555
Al28 Al60 2.724005 1_565
Al28 Al44 2.769966 1_555
Al28 Al45 2.769966 1_555
Al28 Al34 2.848241 1_555
Al28 U3 3.042838 1_555
Al28 U11 3.042838 1_565
Al28 Al66 3.054256 1_555
Al28 Al71 3.054256 1_555
Al28 U10 3.296415 1_565
Al28 U6 3.296415 1_555
Al29 Al50 2.724005 1_554
Al29 Al59 2.724005 1_565
Al29 Al43 2.769966 1_555
Al29 Al49 2.769966 1_554
Al29 Al33 2.848241 1_555
Al29 U1 3.042838 1_555
Al29 U8 3.042838 1_564
Al29 Al77 3.054256 1_554
Al29 Al67 3.054256 1_555
Al29 U9 3.296415 1_565
Al29 U0 3.296415 1_554
Al30 Al54 2.724005 1_655
Al30 Al60 2.724005 1_555
Al30 Al47 2.769960 1_555
Al30 Al46 2.769960 1_555
Al30 Al35 2.848241 1_555
Al30 Al31 2.848241 1_555
Al30 U7 3.042838 1_655
Al30 U11 3.042838 1_555
Al30 Al68 3.054256 1_555
Al30 Al75 3.054256 1_555
Al30 U4 3.296415 1_655
Al30 U10 3.296415 1_555
Al31 Al53 2.724005 1_555
Al31 Al61 2.724005 1_555
Al31 Al46 2.769966 1_555
Al31 Al47 2.769966 1_555
Al31 Al35 2.848241 1_555
Al31 U6 3.042838 1_555
Al31 U10 3.042838 1_555
Al31 Al69 3.054256 1_555
Al31 Al74 3.054256 1_555
Al31 U11 3.296415 1_555
Al31 U3 3.296415 1_555
Al32 Al50 2.724005 1_554
Al32 Al55 2.724005 1_655
Al32 Al48 2.769966 1_555
Al32 Al42 2.769966 1_554
Al32 U1 3.042838 1_555
Al32 U2 3.042838 1_654
Al32 Al70 3.054256 1_554
Al32 Al84 3.054256 1_555
Al32 U5 3.296415 1_655
Al32 U0 3.296415 1_554
Al33 Al51 2.724005 1_555
Al33 Al52 2.724005 1_554
Al33 Al43 2.769966 1_555
Al33 Al49 2.769966 1_554
Al33 U0 3.042838 1_554
Al33 U5 3.042838 1_555
Al33 Al73 3.054256 1_555
Al33 Al85 3.054256 1_554
Al33 U2 3.296415 1_554
Al33 U1 3.296415 1_555
Al34 Al53 2.724005 1_555
Al34 Al54 2.724005 1_555
Al34 Al45 2.769966 1_555
Al34 Al44 2.769966 1_555
Al34 U6 3.042838 1_555
Al34 U7 3.042838 1_555
Al34 Al78 3.054256 1_555
Al34 Al82 3.054256 1_555
Al34 U4 3.296415 1_555
Al34 U3 3.296415 1_555
Al35 Al56 2.724005 1_555
Al35 Al57 2.724005 1_655
Al35 Al46 2.769966 1_555
Al35 Al47 2.769966 1_555
Al35 U3 3.042838 1_555
Al35 U4 3.042838 1_655
Al35 Al80 3.054256 1_555
Al35 Al83 3.054256 1_555
Al35 U7 3.296415 1_655
Al35 U6 3.296415 1_555
Al36 V4 2.570097 1_655
Al36 V6 2.570097 1_565
Al36 Al38 2.756567 1_665
Al36 Al40 2.756567 1_665
Al36 Al66 2.812497 1_555
Al36 Al77 2.812497 1_555
Al36 Al80 2.812497 1_555
Al36 Al70 2.812497 1_555
Al37 V5 2.570097 1_555
Al37 V7 2.570097 1_555
Al37 Al41 2.756567 1_455
Al37 Al39 2.756567 1_545
Al37 Al78 2.812497 1_555
Al37 Al69 2.812497 1_555
Al37 Al76 2.812497 1_555
Al37 Al73 2.812497 1_555
Al38 V2 2.570097 1_555
Al38 V6 2.570097 1_455
Al38 Al40 2.756567 1_555
Al38 Al68 2.812497 1_455
Al38 Al62 2.812497 1_455
Al38 Al85 2.812497 1_555
Al38 Al82 2.812497 1_555
Al39 V3 2.570097 1_455
Al39 V7 2.570097 1_565
Al39 Al41 2.756567 1_465
Al39 Al65 2.812497 1_555
Al39 Al63 2.812497 1_555
Al39 Al83 2.812497 1_455
Al39 Al84 2.812497 1_455
Al40 V2 2.570097 1_555
Al40 V4 2.570097 1_545
Al40 Al81 2.812497 1_545
Al40 Al72 2.812497 1_545
Al40 Al64 2.812497 1_555
Al40 Al74 2.812497 1_555
Al41 V3 2.570097 1_545
Al41 V5 2.570097 1_655
Al41 Al75 2.812497 1_555
Al41 Al79 2.812497 1_555
Al41 Al71 2.812497 1_545
Al41 Al67 2.812497 1_545
Al42 Al62 2.711570 1_555
Al42 Al64 2.711579 1_555
Al42 Al70 2.711580 1_555
Al42 Al6 2.803851 1_555
Al42 U8 3.249832 1_555
Al42 U2 3.249833 1_655
Al42 U0 3.249842 1_555
Al43 Al63 2.711570 1_555
Al43 Al67 2.711579 1_555
Al43 Al73 2.711580 1_555
Al43 Al8 2.803851 1_555
Al43 U9 3.249832 1_565
Al43 U5 3.249833 1_555
Al43 U1 3.249842 1_555
Al44 Al65 2.711570 1_555
Al44 Al71 2.711579 1_555
Al44 Al78 2.711580 1_555
Al44 Al8 2.803851 1_555
Al44 U10 3.249832 1_565
Al44 U7 3.249833 1_555
Al44 U3 3.249842 1_555
Al45 Al72 2.711570 1_555
Al45 Al82 2.711579 1_555
Al45 Al66 2.711580 1_555
Al45 Al7 2.803846 1_555
Al45 U4 3.249832 1_555
Al45 U11 3.249833 1_565
Al45 U6 3.249842 1_555
Al46 Al68 2.711570 1_555
Al46 Al74 2.711579 1_555
Al46 Al80 2.711580 1_555
Al46 Al6 2.803851 1_555
Al46 U11 3.249832 1_555
Al46 U4 3.249833 1_655
Al46 U6 3.249842 1_555
Al47 Al75 2.711570 1_555
Al47 Al83 2.711579 1_555
Al47 Al69 2.711580 1_555
Al47 Al9 2.803846 1_555
Al47 Al5 2.803851 1_555
Al47 U7 3.249832 1_655
Al47 U10 3.249833 1_555
Al47 U3 3.249842 1_555
Al48 Al79 2.711570 1_555
Al48 Al84 2.711579 1_555
Al48 Al76 2.711580 1_555
Al48 Al9 2.803846 1_555
Al48 Al5 2.803851 1_555
Al48 U5 3.249832 1_655
Al48 U9 3.249833 1_555
Al48 U1 3.249842 1_555
Al49 Al81 2.711570 1_555
Al49 Al85 2.711579 1_555
Al49 Al77 2.711580 1_555
Al49 Al7 2.803846 1_555
Al49 U2 3.249832 1_555
Al49 U8 3.249833 1_565
Al49 U0 3.249842 1_555
Al50 V0 2.828629 1_666
Al50 Al70 2.873885 1_555
Al50 Al77 2.873885 1_555
Al50 Al59 2.967033 1_566
Al50 Al55 2.967033 1_656
Al50 U0 3.167885 1_555
Al50 U1 3.196280 1_556
Al51 V0 2.828629 1_555
Al51 Al73 2.873885 1_555
Al51 Al76 2.873885 1_555
Al51 Al52 2.967033 1_554
Al51 Al58 2.967033 1_554
Al51 U1 3.167885 1_555
Al51 U0 3.196280 1_554
Al52 V0 2.828629 1_556
Al52 Al62 2.873885 1_455
Al52 Al85 2.873885 1_555
Al52 Al59 2.967033 1_456
Al52 U2 3.167885 1_555
Al52 U5 3.196280 1_556
Al53 V1 2.828629 1_555
Al53 Al78 2.873885 1_555
Al53 Al69 2.873885 1_555
Al53 Al61 2.967033 1_555
Al53 Al54 2.967033 1_555
Al53 U3 3.167885 1_555
Al53 U6 3.196280 1_555
Al54 V1 2.828629 1_555
Al54 Al68 2.873885 1_455
Al54 Al82 2.873885 1_555
Al54 Al60 2.967033 1_455
Al54 U4 3.167885 1_555
Al54 U7 3.196280 1_555
Al55 V0 2.828629 1_565
Al55 Al63 2.873885 1_555
Al55 Al84 2.873885 1_455
Al55 Al58 2.967033 1_564
Al55 U5 3.167885 1_555
Al55 U2 3.196280 1_554
Al56 V1 2.828629 1_665
Al56 Al66 2.873885 1_555
Al56 Al80 2.873885 1_555
Al56 Al57 2.967033 1_655
Al56 Al60 2.967033 1_565
Al56 U6 3.167885 1_555
Al56 U3 3.196280 1_555
Al57 V1 2.828629 1_565
Al57 Al65 2.873885 1_555
Al57 Al83 2.873885 1_455
Al57 Al61 2.967033 1_565
Al57 U7 3.167885 1_555
Al57 U4 3.196280 1_555
Al58 V0 2.828629 1_556
Al58 Al81 2.873885 1_545
Al58 Al64 2.873885 1_555
Al58 U8 3.167885 1_555
Al58 U9 3.196280 1_556
Al59 V0 2.828629 1_655
Al59 Al79 2.873885 1_555
Al59 Al67 2.873885 1_545
Al59 U9 3.167885 1_555
Al59 U8 3.196280 1_554
Al60 V1 2.828629 1_655
Al60 Al75 2.873885 1_555
Al60 Al71 2.873885 1_545
Al60 U10 3.167885 1_555
Al60 U11 3.196280 1_555
Al61 V1 2.828629 1_555
Al61 Al72 2.873885 1_545
Al61 Al74 2.873885 1_555
Al61 U11 3.167885 1_555
Al61 U10 3.196280 1_555
Al62 V6 2.675341 1_555
Al62 Al68 2.971380 1_555
Al62 Al85 3.022510 1_655
Al62 U2 3.068943 1_655
Al62 U8 3.375130 1_555
Al63 V7 2.675341 1_565
Al63 Al65 2.971380 1_555
Al63 Al84 3.022510 1_455
Al63 U5 3.068943 1_555
Al63 U9 3.375130 1_565
Al64 V2 2.675341 1_555
Al64 Al74 2.971380 1_555
Al64 Al81 3.022510 1_545
Al64 U8 3.068943 1_555
Al64 U0 3.375130 1_555
Al65 V7 2.675341 1_565
Al65 Al83 3.022510 1_455
Al65 U7 3.068943 1_555
Al65 U10 3.375130 1_565
Al66 V6 2.675341 1_565
Al66 Al7 2.795121 1_555
Al66 Al77 2.971380 1_555
Al66 Al80 3.022510 1_555
Al66 U6 3.068943 1_555
Al66 U11 3.375130 1_565
Al67 V3 2.675341 1_555
Al67 Al8 2.795121 1_555
Al67 Al71 2.971380 1_555
Al67 Al79 3.022510 1_565
Al67 U9 3.068943 1_565
Al67 U1 3.375130 1_555
Al68 V6 2.675341 1_555
Al68 Al82 3.022510 1_655
Al68 U4 3.068943 1_655
Al68 U11 3.375130 1_555
Al69 V7 2.675341 1_555
Al69 Al9 2.795121 1_555
Al69 Al76 2.971380 1_555
Al69 Al78 3.022510 1_555
Al69 U3 3.068943 1_555
Al69 U10 3.375130 1_555
Al70 V4 2.675341 1_655
Al70 Al80 2.971380 1_555
Al70 Al77 3.022510 1_555
Al70 U0 3.068943 1_555
Al70 U2 3.375130 1_655
Al71 V3 2.675341 1_555
Al71 Al8 2.795121 1_555
Al71 Al75 3.022510 1_565
Al71 U10 3.068943 1_565
Al71 U3 3.375130 1_555
Al72 V4 2.675341 1_555
Al72 Al81 2.971380 1_555
Al72 Al74 3.022510 1_565
Al72 U11 3.068943 1_565
Al72 U4 3.375130 1_555
Al73 V5 2.675341 1_555
Al73 Al8 2.744516 1_555
Al73 Al78 2.971380 1_555
Al73 Al76 3.022510 1_555
Al73 U1 3.068943 1_555
Al73 U5 3.375130 1_555
Al74 V2 2.675341 1_555
Al74 U11 3.068943 1_555
Al74 U6 3.375130 1_555
Al75 V5 2.675341 1_655
Al75 Al9 2.744516 1_555
Al75 Al79 2.971380 1_555
Al75 U10 3.068943 1_555
Al75 U7 3.375130 1_655
Al76 V7 2.675341 1_555
Al76 Al9 2.795121 1_555
Al76 U1 3.068943 1_555
Al76 U9 3.375130 1_555
Al77 V6 2.675341 1_565
Al77 U0 3.068943 1_555
Al77 U8 3.375130 1_565
Al78 V5 2.675341 1_555
Al78 Al8 2.744516 1_555
Al78 U3 3.068943 1_555
Al78 U7 3.375130 1_555
Al79 V5 2.675341 1_655
Al79 Al9 2.744516 1_555
Al79 U9 3.068943 1_555
Al79 U5 3.375130 1_655
Al80 V4 2.675341 1_655
Al80 U6 3.068943 1_555
Al80 U4 3.375130 1_655
Al81 V4 2.675341 1_555
Al81 U8 3.068943 1_565
Al81 U2 3.375130 1_555
Al82 V2 2.675341 1_555
Al82 Al85 2.971380 1_555
Al82 U4 3.068943 1_555
Al82 U6 3.375130 1_555
Al83 V3 2.675341 1_555
Al83 Al84 2.971380 1_555
Al83 U7 3.068943 1_655
Al83 U3 3.375130 1_555
Al84 V3 2.675341 1_555
Al84 U5 3.068943 1_655
Al84 U1 3.375130 1_555
Al85 V2 2.675341 1_555
Al85 U2 3.068943 1_555
Al85 U0 3.375130 1_555
