# generated using pymatgen
data_Ir3Pb
_symmetry_space_group_name_H-M   'P 1'
_cell_length_a   4.05202500
_cell_length_b   4.05202500
_cell_length_c   4.05202500
_cell_angle_alpha   90.00000000
_cell_angle_beta   90.00000000
_cell_angle_gamma   90.00000000
_symmetry_Int_Tables_number   1
_chemical_formula_structural   Ir3Pb
_chemical_formula_sum   'Ir3 Pb1'
_cell_volume   66.52982002
_cell_formula_units_Z   1
loop_
 _symmetry_equiv_pos_site_id
 _symmetry_equiv_pos_as_xyz
  1  'x, y, z'
loop_
 _atom_site_type_symbol
 _atom_site_label
 _atom_site_symmetry_multiplicity
 _atom_site_fract_x
 _atom_site_fract_y
 _atom_site_fract_z
 _atom_site_occupancy
  Ir  Ir0  1  0.00000000  0.50000000  0.50000000  1
  Ir  Ir1  1  0.50000000  0.00000000  0.50000000  1
  Ir  Ir2  1  0.50000000  0.50000000  0.00000000  1
  Pb  Pb0  1  0.00000000  0.00000000  0.00000000  1
loop_
_geom_bond_atom_site_label_1
_geom_bond_atom_site_label_2
_geom_bond_distance
_geom_bond_site_symmetry_2
Ir0 Ir1 2.865214 1_565
Ir0 Pb0 2.865214 1_565
Ir0 Ir2 2.865214 1_456
Ir0 Ir2 2.865214 1_455
Ir0 Ir1 2.865214 1_555
Ir0 Ir2 2.865214 1_556
Ir0 Ir1 2.865214 1_465
Ir0 Pb0 2.865214 1_555
Ir0 Pb0 2.865214 1_566
Ir0 Pb0 2.865214 1_556
Ir0 Ir1 2.865214 1_455
Ir0 Ir2 2.865214 1_555
Ir1 Pb0 2.865214 1_656
Ir1 Ir2 2.865214 1_556
Ir1 Pb0 2.865214 1_555
Ir1 Pb0 2.865214 1_556
Ir1 Ir2 2.865214 1_546
Ir1 Ir2 2.865214 1_555
Ir1 Ir2 2.865214 1_545
Ir1 Pb0 2.865214 1_655
Ir2 Pb0 2.865214 1_565
Ir2 Pb0 2.865214 1_555
Ir2 Pb0 2.865214 1_665
Ir2 Pb0 2.865214 1_655
