# generated using pymatgen
data_Ca3LaFe2(MoO6)2
_symmetry_space_group_name_H-M   'P 1'
_cell_length_a   5.65791390
_cell_length_b   5.48310964
_cell_length_c   9.89535426
_cell_angle_alpha   95.54986344
_cell_angle_beta   80.52355144
_cell_angle_gamma   88.40213548
_symmetry_Int_Tables_number   1
_chemical_formula_structural   Ca3LaFe2(MoO6)2
_chemical_formula_sum   'Ca3 La1 Fe2 Mo2 O12'
_cell_volume   301.07434554
_cell_formula_units_Z   1
loop_
 _symmetry_equiv_pos_site_id
 _symmetry_equiv_pos_as_xyz
  1  'x, y, z'
loop_
 _atom_site_type_symbol
 _atom_site_label
 _atom_site_symmetry_multiplicity
 _atom_site_fract_x
 _atom_site_fract_y
 _atom_site_fract_z
 _atom_site_occupancy
  Ca  Ca0  1  0.45160900  0.60868200  0.79252500  1
  Ca  Ca1  1  0.01937800  0.95566300  0.25489600  1
  Ca  Ca2  1  0.51934000  0.45256400  0.21666400  1
  La  La0  1  0.94089900  0.07706800  0.69834200  1
  Fe  Fe0  1  0.91746200  0.47056500  0.45740400  1
  Fe  Fe1  1  0.60250100  0.92531700  0.04116600  1
  Mo  Mo0  1  0.08473500  0.41885200  0.06355100  1
  Mo  Mo1  1  0.48755400  0.02537500  0.48608200  1
  O  O0  1  0.17540700  0.19579100  0.46519200  1
  O  O1  1  0.82629600  0.18590600  0.10586400  1
  O  O2  1  0.79486300  0.81957600  0.48164700  1
  O  O3  1  0.36993100  0.64886700  0.03807000  1
  O  O4  1  0.33579800  0.88360400  0.64169700  1
  O  O5  1  0.81995200  0.69199700  0.11297000  1
  O  O6  1  0.67847000  0.25293300  0.38553700  1
  O  O7  1  0.12152700  0.36771900  0.87269300  1
  O  O8  1  0.31847900  0.15265500  0.11196000  1
  O  O9  1  0.75990700  0.41337400  0.64292400  1
  O  O10  1  0.67465000  0.91824300  0.85188000  1
  O  O11  1  0.10124300  0.53524800  0.27893700  1
loop_
_geom_bond_atom_site_label_1
_geom_bond_atom_site_label_2
_geom_bond_distance
_geom_bond_site_symmetry_2
Ca0 O10 2.233648 1_555
Ca0 O9 2.262706 1_555
Ca0 O4 2.373046 1_555
Ca0 O3 2.384711 1_556
Ca0 O7 2.390666 1_555
Ca1 O5 2.357038 1_455
Ca1 O8 2.374936 1_565
Ca1 O11 2.380715 1_555
Ca1 O1 2.403269 1_465
Ca1 O2 2.577427 1_455
Ca1 O6 2.577668 1_465
Ca1 O0 2.642545 1_565
Ca2 O8 2.287258 1_555
Ca2 O1 2.297264 1_555
Ca2 O5 2.340868 1_555
Ca2 O11 2.363742 1_555
Ca2 O6 2.365472 1_555
Ca2 O3 2.409445 1_555
La0 O10 2.216174 1_545
La0 O9 2.241633 1_555
La0 O4 2.402497 1_645
La0 O7 2.588506 1_655
La0 O0 2.614887 1_655
La0 O2 2.708660 1_545
Fe0 O9 1.962440 1_555
Fe0 O11 1.965398 1_655
Fe0 O2 1.995796 1_555
Fe0 O6 2.000156 1_555
Fe0 O0 2.083899 1_655
Fe1 O10 1.846553 1_554
Fe1 O8 1.993894 1_565
Fe1 O5 2.007756 1_555
Fe1 O3 2.036080 1_555
Fe1 O1 2.060494 1_565
Mo0 O7 1.858399 1_554
Mo0 O1 1.987669 1_455
Mo0 O5 2.053906 1_455
Mo0 O3 2.073397 1_555
Mo0 O8 2.084482 1_555
Mo0 O11 2.182736 1_555
Mo1 O4 1.883101 1_545
Mo1 O6 1.917003 1_555
Mo1 O0 2.024971 1_555
Mo1 O2 2.038211 1_545
