# generated using pymatgen
data_CsSm2I5
_symmetry_space_group_name_H-M   'P 1'
_cell_length_a   9.17317400
_cell_length_b   9.99396400
_cell_length_c   13.86498899
_cell_angle_alpha   87.53812961
_cell_angle_beta   90.00000000
_cell_angle_gamma   90.00000000
_symmetry_Int_Tables_number   1
_chemical_formula_structural   CsSm2I5
_chemical_formula_sum   'Cs4 Sm8 I20'
_cell_volume   1269.91868910
_cell_formula_units_Z   4
loop_
 _symmetry_equiv_pos_site_id
 _symmetry_equiv_pos_as_xyz
  1  'x, y, z'
loop_
 _atom_site_type_symbol
 _atom_site_label
 _atom_site_symmetry_multiplicity
 _atom_site_fract_x
 _atom_site_fract_y
 _atom_site_fract_z
 _atom_site_occupancy
  Cs  Cs0  1  0.41820300  0.49370700  0.83142200  1
  Cs  Cs1  1  0.58179700  0.50629300  0.16857800  1
  Cs  Cs2  1  0.91820300  0.50629300  0.66857800  1
  Cs  Cs3  1  0.08179700  0.49370700  0.33142200  1
  Sm  Sm0  1  0.39638500  0.99712100  0.81468100  1
  Sm  Sm1  1  0.60361500  0.00287900  0.18531900  1
  Sm  Sm2  1  0.89638500  0.00287900  0.68531900  1
  Sm  Sm3  1  0.10361500  0.99712100  0.31468100  1
  Sm  Sm4  1  0.39839300  0.77701000  0.49862300  1
  Sm  Sm5  1  0.60160700  0.22299000  0.50137700  1
  Sm  Sm6  1  0.89839300  0.22299000  0.00137700  1
  Sm  Sm7  1  0.10160700  0.77701000  0.99862300  1
  I  I0  1  0.31747000  0.47238000  0.56390700  1
  I  I1  1  0.68253000  0.52762000  0.43609300  1
  I  I2  1  0.81747000  0.52762000  0.93609300  1
  I  I3  1  0.18253000  0.47238000  0.06390700  1
  I  I4  1  0.61747100  0.79637100  0.69085900  1
  I  I5  1  0.38252900  0.20362900  0.30914100  1
  I  I6  1  0.11747100  0.20362900  0.80914100  1
  I  I7  1  0.88252900  0.79637100  0.19085900  1
  I  I8  1  0.15298300  0.78262900  0.77339800  1
  I  I9  1  0.84701700  0.21737100  0.22660200  1
  I  I10  1  0.65298300  0.21737100  0.72660200  1
  I  I11  1  0.34701700  0.78262900  0.27339800  1
  I  I12  1  0.04443100  0.80318600  0.50105500  1
  I  I13  1  0.95556900  0.19681400  0.49894500  1
  I  I14  1  0.54443100  0.19681400  0.99894500  1
  I  I15  1  0.45556900  0.80318600  0.00105500  1
  I  I16  1  0.83387000  0.94265300  0.91240800  1
  I  I17  1  0.16613000  0.05734700  0.08759200  1
  I  I18  1  0.33387000  0.05734700  0.58759200  1
  I  I19  1  0.66613000  0.94265300  0.41240800  1
loop_
_geom_bond_atom_site_label_1
_geom_bond_atom_site_label_2
_geom_bond_distance
_geom_bond_site_symmetry_2
Cs0 I8 3.834609 1_555
Cs0 I10 3.836957 1_555
Cs0 I0 3.837260 1_555
Cs0 I14 3.866207 1_555
Cs0 I3 3.879485 1_556
Cs0 I2 3.959486 1_555
Cs0 I4 3.972729 1_555
Cs0 I15 3.979988 1_556
Cs0 I6 4.023305 1_555
Cs1 I9 3.834609 1_555
Cs1 I11 3.836957 1_555
Cs1 I1 3.837260 1_555
Cs1 I15 3.866207 1_555
Cs1 I2 3.879485 1_554
Cs1 I3 3.959486 1_555
Cs1 I5 3.972729 1_555
Cs1 I14 3.979988 1_554
Cs1 I7 4.023305 1_555
Cs2 I10 3.834609 1_555
Cs2 I8 3.836957 1_655
Cs2 I2 3.837260 1_555
Cs2 I12 3.866207 1_655
Cs2 I1 3.879485 1_555
Cs2 I0 3.959486 1_655
Cs2 I6 3.972729 1_655
Cs2 I13 3.979988 1_555
Cs2 I4 4.023305 1_555
Cs3 I11 3.834609 1_555
Cs3 I9 3.836957 1_455
Cs3 I3 3.837260 1_555
Cs3 I13 3.866207 1_455
Cs3 I0 3.879485 1_555
Cs3 I1 3.959486 1_455
Cs3 I7 3.972729 1_455
Cs3 I12 3.979988 1_555
Cs3 I5 4.023305 1_555
I0 Sm4 3.225269 1_555
I0 Sm5 3.734011 1_555
I1 Sm5 3.225269 1_555
I1 Sm4 3.734011 1_555
I2 Sm6 3.225269 1_556
I2 Sm7 3.734011 1_655
I3 Sm7 3.225269 1_554
I3 Sm6 3.734011 1_455
I4 Sm2 3.285993 1_565
I4 Sm4 3.350297 1_555
I4 Sm0 3.373647 1_555
I5 Sm3 3.285993 1_545
I5 Sm5 3.350297 1_555
I5 Sm1 3.373647 1_555
I6 Sm0 3.285993 1_545
I6 Sm6 3.350297 1_456
I6 Sm2 3.373647 1_455
I7 Sm1 3.285993 1_565
I7 Sm7 3.350297 1_654
I7 Sm3 3.373647 1_655
I8 Sm7 3.156218 1_555
I8 Sm0 3.164399 1_555
I8 Sm2 3.412630 1_465
I9 Sm6 3.156218 1_555
I9 Sm1 3.164399 1_555
I9 Sm3 3.412630 1_645
I10 Sm5 3.156218 1_555
I10 Sm2 3.164399 1_555
I10 Sm0 3.412630 1_545
I11 Sm4 3.156218 1_555
I11 Sm3 3.164399 1_555
I11 Sm1 3.412630 1_565
I12 Sm3 3.209120 1_555
I12 Sm4 3.257767 1_555
I12 Sm2 3.576639 1_465
I13 Sm2 3.209120 1_555
I13 Sm5 3.257767 1_555
I13 Sm3 3.576639 1_645
I14 Sm1 3.209120 1_556
I14 Sm6 3.257767 1_556
I14 Sm0 3.576639 1_545
I15 Sm0 3.209120 1_554
I15 Sm7 3.257767 1_554
I15 Sm1 3.576639 1_565
I16 Sm6 3.165167 1_566
I16 Sm7 3.167220 1_655
I16 Sm2 3.231397 1_565
I17 Sm7 3.165167 1_544
I17 Sm6 3.167220 1_455
I17 Sm3 3.231397 1_545
I18 Sm4 3.165167 1_545
I18 Sm5 3.167220 1_555
I18 Sm0 3.231397 1_545
I19 Sm5 3.165167 1_565
I19 Sm4 3.167220 1_555
I19 Sm1 3.231397 1_565
