# generated using pymatgen
data_MnGaN2
_symmetry_space_group_name_H-M   'P 1'
_cell_length_a   2.91898957
_cell_length_b   5.27643000
_cell_length_c   5.55990895
_cell_angle_alpha   90.00000000
_cell_angle_beta   89.99999476
_cell_angle_gamma   90.00000000
_symmetry_Int_Tables_number   1
_chemical_formula_structural   MnGaN2
_chemical_formula_sum   'Mn2 Ga2 N4'
_cell_volume   85.63285104
_cell_formula_units_Z   2
loop_
 _symmetry_equiv_pos_site_id
 _symmetry_equiv_pos_as_xyz
  1  'x, y, z'
loop_
 _atom_site_type_symbol
 _atom_site_label
 _atom_site_symmetry_multiplicity
 _atom_site_fract_x
 _atom_site_fract_y
 _atom_site_fract_z
 _atom_site_occupancy
  Mn  Mn0  1  0.00000000  0.50000000  0.50000000  1
  Mn  Mn1  1  0.00000000  0.00000000  0.50000000  1
  Ga  Ga0  1  0.00000000  0.25000000  0.09137200  1
  Ga  Ga1  1  0.00000000  0.75000000  0.90862800  1
  N  N0  1  0.00000000  0.25000000  0.76013400  1
  N  N1  1  0.00000000  0.75000000  0.23986600  1
  N  N2  1  0.50000000  0.25000000  0.33474800  1
  N  N3  1  0.50000000  0.75000000  0.66525200  1
loop_
_geom_bond_atom_site_label_1
_geom_bond_atom_site_label_2
_geom_bond_distance
_geom_bond_site_symmetry_2
Mn0 N0 1.957521 1_555
Mn0 N1 1.957521 1_555
Mn0 N3 2.171252 1_455
Mn0 N2 2.171252 1_555
Mn0 N2 2.171253 1_455
Mn0 N3 2.171253 1_555
Mn1 N0 1.957521 1_555
Mn1 N1 1.957521 1_545
Mn1 N3 2.171252 1_445
Mn1 N2 2.171252 1_555
Mn1 N2 2.171253 1_455
Mn1 N3 2.171253 1_545
Ga0 N0 1.841653 1_554
Ga0 N2 1.990260 1_455
Ga0 N2 1.990260 1_555
Ga1 N1 1.841653 1_556
Ga1 N3 1.990260 1_555
Ga1 N3 1.990260 1_455
