# generated using pymatgen
data_CsHoCoSe3
_symmetry_space_group_name_H-M   'P 1'
_cell_length_a   4.10803000
_cell_length_b   8.38403111
_cell_length_c   10.86332600
_cell_angle_alpha   90.00000000
_cell_angle_beta   90.00000000
_cell_angle_gamma   104.18132184
_symmetry_Int_Tables_number   1
_chemical_formula_structural   CsHoCoSe3
_chemical_formula_sum   'Cs2 Ho2 Co2 Se6'
_cell_volume   362.75084435
_cell_formula_units_Z   2
loop_
 _symmetry_equiv_pos_site_id
 _symmetry_equiv_pos_as_xyz
  1  'x, y, z'
loop_
 _atom_site_type_symbol
 _atom_site_label
 _atom_site_symmetry_multiplicity
 _atom_site_fract_x
 _atom_site_fract_y
 _atom_site_fract_z
 _atom_site_occupancy
  Cs  Cs0  1  0.74036300  0.48072600  0.75000000  1
  Cs  Cs1  1  0.25963700  0.51927400  0.25000000  1
  Ho  Ho0  1  0.00000000  0.00000000  0.50000000  1
  Ho  Ho1  1  0.00000000  0.00000000  0.00000000  1
  Co  Co0  1  0.53383800  0.06767600  0.25000000  1
  Co  Co1  1  0.46616200  0.93232400  0.75000000  1
  Se  Se0  1  0.05289100  0.10578200  0.75000000  1
  Se  Se1  1  0.94710900  0.89421800  0.25000000  1
  Se  Se2  1  0.38568700  0.77137400  0.93481000  1
  Se  Se3  1  0.61431300  0.22862600  0.06519000  1
  Se  Se4  1  0.61431300  0.22862600  0.43481000  1
  Se  Se5  1  0.38568700  0.77137400  0.56519000  1
loop_
_geom_bond_atom_site_label_1
_geom_bond_atom_site_label_2
_geom_bond_distance
_geom_bond_site_symmetry_2
Cs0 Se0 3.675285 1_655
Cs0 Se0 3.675285 1_555
Cs0 Se5 3.719038 1_655
Cs0 Se2 3.719038 1_655
Cs0 Se5 3.719038 1_555
Cs0 Se2 3.719038 1_555
Cs0 Se4 3.990374 1_555
Cs0 Se3 3.990374 1_556
Cs1 Se1 3.675285 1_555
Cs1 Se1 3.675285 1_455
Cs1 Se4 3.719038 1_455
Cs1 Se4 3.719038 1_555
Cs1 Se3 3.719038 1_455
Cs1 Se3 3.719038 1_555
Cs1 Se5 3.990374 1_555
Cs1 Se2 3.990374 1_554
Ho0 Se0 2.848699 1_555
Ho0 Se1 2.848699 1_445
Ho0 Se5 2.859042 1_445
Ho0 Se5 2.859042 1_545
Ho0 Se4 2.859042 1_455
Ho0 Se4 2.859042 1_555
Ho1 Se1 2.848699 1_445
Ho1 Se0 2.848699 1_554
Ho1 Se2 2.859042 1_444
Ho1 Se2 2.859042 1_544
Ho1 Se3 2.859042 1_555
Ho1 Se3 2.859042 1_455
Co0 Se3 2.396305 1_555
Co0 Se4 2.396305 1_555
Co0 Se1 2.491377 1_445
Co0 Se1 2.491377 1_545
Co1 Se2 2.396305 1_555
Co1 Se5 2.396305 1_555
Co1 Se0 2.491377 1_565
Co1 Se0 2.491377 1_665
