# generated using pymatgen
data_Li2Ti2V3O10
_symmetry_space_group_name_H-M   'P 1'
_cell_length_a   6.43496192
_cell_length_b   8.16988019
_cell_length_c   8.16775422
_cell_angle_alpha   102.96311166
_cell_angle_beta   89.26995136
_cell_angle_gamma   111.57145445
_symmetry_Int_Tables_number   1
_chemical_formula_structural   Li2Ti2V3O10
_chemical_formula_sum   'Li4 Ti4 V6 O20'
_cell_volume   387.99611464
_cell_formula_units_Z   2
loop_
 _symmetry_equiv_pos_site_id
 _symmetry_equiv_pos_as_xyz
  1  'x, y, z'
loop_
 _atom_site_type_symbol
 _atom_site_label
 _atom_site_symmetry_multiplicity
 _atom_site_fract_x
 _atom_site_fract_y
 _atom_site_fract_z
 _atom_site_occupancy
  Li  Li0  1  0.31470500  0.39469900  0.87052400  1
  Li  Li1  1  0.81567200  0.39548800  0.36253300  1
  Li  Li2  1  0.18428400  0.60437800  0.63744200  1
  Li  Li3  1  0.68538500  0.60536600  0.12958100  1
  Ti  Ti0  1  0.77907800  0.68538300  0.78310600  1
  Ti  Ti1  1  0.26699900  0.68617300  0.28221900  1
  Ti  Ti2  1  0.73277400  0.31370900  0.71774800  1
  Ti  Ti3  1  0.22084800  0.31458700  0.21694900  1
  V  V0  1  0.24541800  0.99614000  0.74909900  1
  V  V1  1  0.11961500  0.89623100  0.08304200  1
  V  V2  1  0.38011500  0.11150900  0.42039900  1
  V  V3  1  0.75464200  0.00385900  0.25083800  1
  V  V4  1  0.61985400  0.88847800  0.57959900  1
  V  V5  1  0.88040000  0.10381900  0.91685400  1
  O  O0  1  0.79347900  0.86181900  0.00776500  1
  O  O1  1  0.30315100  0.86134700  0.51211200  1
  O  O2  1  0.69689700  0.13865100  0.48784700  1
  O  O3  1  0.20653700  0.13827800  0.99228200  1
  O  O4  1  0.34607600  0.51485100  0.11755600  1
  O  O5  1  0.83977000  0.50922800  0.61213300  1
  O  O6  1  0.16023500  0.49076000  0.38792600  1
  O  O7  1  0.65397600  0.48518300  0.88248000  1
  O  O8  1  0.42026100  0.93828600  0.21306300  1
  O  O9  1  0.91131300  0.93561600  0.69725700  1
  O  O10  1  0.08870900  0.06449100  0.30280700  1
  O  O11  1  0.57966300  0.06159700  0.78687500  1
  O  O12  1  0.35596100  0.21021800  0.63827300  1
  O  O13  1  0.87384000  0.21878400  0.15523100  1
  O  O14  1  0.12611800  0.78130600  0.84480900  1
  O  O15  1  0.64420200  0.78987800  0.36176400  1
  O  O16  1  0.52148000  0.68914700  0.68024400  1
  O  O17  1  0.01496300  0.68222700  0.18387500  1
  O  O18  1  0.98504300  0.31780100  0.81616100  1
  O  O19  1  0.47853400  0.31071500  0.31960800  1
loop_
_geom_bond_atom_site_label_1
_geom_bond_atom_site_label_2
_geom_bond_distance
_geom_bond_site_symmetry_2
Li0 O18 2.002720 1_455
Li0 O4 2.012836 1_556
Li0 O7 2.026983 1_555
Li0 O12 2.222443 1_555
Li0 O3 2.388945 1_555
Li1 O5 2.023831 1_555
Li1 O19 2.028493 1_555
Li1 O6 2.057988 1_655
Li1 O13 2.091809 1_555
Li1 O2 2.408134 1_555
Li2 O6 2.023030 1_555
Li2 O16 2.028739 1_555
Li2 O5 2.057712 1_455
Li2 O14 2.093201 1_555
Li2 O1 2.409126 1_555
Li3 O17 2.002153 1_655
Li3 O7 2.013381 1_554
Li3 O4 2.027192 1_555
Li3 O15 2.222021 1_555
Li3 O0 2.389476 1_555
O0 Ti0 2.042768 1_554
O0 V1 2.093555 1_655
O0 V3 2.125494 1_565
O0 V5 2.146645 1_564
O1 V4 2.036650 1_555
O1 Ti1 2.046650 1_555
O1 V0 2.103252 1_555
O1 V2 2.217347 1_565
O2 V2 2.037029 1_555
O2 Ti2 2.046506 1_555
O2 V3 2.103420 1_555
O2 V4 2.217541 1_545
O3 Ti3 2.042428 1_556
O3 V5 2.093787 1_455
O3 V0 2.126612 1_545
O3 V1 2.146314 1_546
O4 Ti3 1.896076 1_555
O4 Ti1 1.920570 1_555
O5 Ti2 1.887893 1_555
O5 Ti0 1.916136 1_555
O6 Ti1 1.887599 1_555
O6 Ti3 1.916013 1_555
O7 Ti0 1.895477 1_555
O7 Ti2 1.920762 1_555
O8 V3 2.026638 1_565
O8 V2 2.029742 1_565
O8 V1 2.094893 1_555
O8 Ti1 2.132668 1_555
O9 V4 1.984493 1_555
O9 V0 2.047838 1_655
O9 V5 2.056974 1_565
O9 Ti0 2.178065 1_555
O10 V2 1.984206 1_555
O10 V3 2.047607 1_455
O10 V1 2.058185 1_545
O10 Ti3 2.177108 1_555
O11 V0 2.025945 1_545
O11 V4 2.029045 1_545
O11 V5 2.094843 1_555
O11 Ti2 2.132447 1_555
O12 V2 1.811779 1_555
O12 V0 2.040444 1_545
O12 Ti2 2.302637 1_555
O13 V5 1.970129 1_554
O13 V3 1.972539 1_555
O13 Ti3 2.102249 1_655
O14 V1 1.968939 1_556
O14 V0 1.972452 1_555
O14 Ti0 2.102349 1_455
O15 V4 1.811566 1_555
O15 V3 2.040285 1_565
O15 Ti1 2.304926 1_555
O16 Ti0 1.881253 1_555
O16 V4 1.886222 1_555
O17 Ti1 1.805479 1_555
O17 V1 1.988657 1_555
O18 Ti2 1.806588 1_555
O18 V5 1.987810 1_555
O19 Ti3 1.881383 1_555
O19 V2 1.886117 1_555
