# generated using pymatgen
data_Ga4Bi3As
_symmetry_space_group_name_H-M   'P 1'
_cell_length_a   14.57386920
_cell_length_b   14.57386920
_cell_length_c   14.57386905
_cell_angle_alpha   17.76254845
_cell_angle_beta   17.76254845
_cell_angle_gamma   17.76254816
_symmetry_Int_Tables_number   1
_chemical_formula_structural   Ga4Bi3As
_chemical_formula_sum   'Ga4 Bi3 As1'
_cell_volume   251.49322312
_cell_formula_units_Z   1
loop_
 _symmetry_equiv_pos_site_id
 _symmetry_equiv_pos_as_xyz
  1  'x, y, z'
loop_
 _atom_site_type_symbol
 _atom_site_label
 _atom_site_symmetry_multiplicity
 _atom_site_fract_x
 _atom_site_fract_y
 _atom_site_fract_z
 _atom_site_occupancy
  Ga  Ga0  1  0.05791200  0.05791200  0.05791200  1
  Ga  Ga1  1  0.81208000  0.81208000  0.81208000  1
  Ga  Ga2  1  0.56396300  0.56396300  0.56396300  1
  Ga  Ga3  1  0.31738900  0.31738900  0.31738900  1
  Bi  Bi0  1  0.74755100  0.74755100  0.74755100  1
  Bi  Bi1  1  0.49961700  0.49961700  0.49961700  1
  Bi  Bi2  1  0.25197400  0.25197400  0.25197400  1
  As  As0  1  0.99951400  0.99951400  0.99951400  1
loop_
_geom_bond_atom_site_label_1
_geom_bond_atom_site_label_2
_geom_bond_distance
_geom_bond_site_symmetry_2
Bi0 Ga1 2.776118 1_555
Bi0 Ga0 2.779725 1_665
Bi0 Ga0 2.779725 1_656
Bi0 Ga0 2.779725 1_566
Bi1 Ga1 2.748873 1_554
Bi1 Ga1 2.748873 1_545
Bi1 Ga1 2.748873 1_455
Bi1 Ga2 2.768245 1_555
Bi2 Ga2 2.755601 1_554
Bi2 Ga2 2.755601 1_455
Bi2 Ga2 2.755601 1_545
Bi2 Ga3 2.814235 1_555
As0 Ga0 2.512355 1_666
As0 Ga3 2.681867 1_665
As0 Ga3 2.681867 1_566
As0 Ga3 2.681867 1_656
