# generated using pymatgen
data_Ba4Ge2Pb(S4Br)2
_symmetry_space_group_name_H-M   'P 1'
_cell_length_a   9.04818300
_cell_length_b   9.34903000
_cell_length_c   12.15722300
_cell_angle_alpha   90.00000000
_cell_angle_beta   90.00000000
_cell_angle_gamma   90.00000000
_symmetry_Int_Tables_number   1
_chemical_formula_structural   Ba4Ge2Pb(S4Br)2
_chemical_formula_sum   'Ba8 Ge4 Pb2 S16 Br4'
_cell_volume   1028.40057799
_cell_formula_units_Z   2
loop_
 _symmetry_equiv_pos_site_id
 _symmetry_equiv_pos_as_xyz
  1  'x, y, z'
loop_
 _atom_site_type_symbol
 _atom_site_label
 _atom_site_symmetry_multiplicity
 _atom_site_fract_x
 _atom_site_fract_y
 _atom_site_fract_z
 _atom_site_occupancy
  Ba  Ba0  1  0.89046800  0.00884200  0.16958300  1
  Ba  Ba1  1  0.60086900  0.49279900  0.67311100  1
  Ba  Ba2  1  0.10086900  0.50720100  0.82688900  1
  Ba  Ba3  1  0.39046800  0.99115800  0.33041700  1
  Ba  Ba4  1  0.10086900  0.99279900  0.82688900  1
  Ba  Ba5  1  0.39046800  0.50884200  0.33041700  1
  Ba  Ba6  1  0.89046800  0.49115800  0.16958300  1
  Ba  Ba7  1  0.60086900  0.00720100  0.67311100  1
  Ge  Ge0  1  0.19447100  0.75000000  0.10114800  1
  Ge  Ge1  1  0.30146100  0.75000000  0.59012600  1
  Ge  Ge2  1  0.80146100  0.25000000  0.90987400  1
  Ge  Ge3  1  0.69447100  0.25000000  0.39885200  1
  Pb  Pb0  1  0.53434000  0.75000000  0.98159100  1
  Pb  Pb1  1  0.03434000  0.25000000  0.51840900  1
  S  S0  1  0.82464000  0.05433800  0.44060200  1
  S  S1  1  0.70193900  0.46243300  0.93552300  1
  S  S2  1  0.20193900  0.53756700  0.56447700  1
  S  S3  1  0.32464000  0.94566200  0.05939800  1
  S  S4  1  0.20193900  0.96243300  0.56447700  1
  S  S5  1  0.32464000  0.55433800  0.05939800  1
  S  S6  1  0.82464000  0.44566200  0.44060200  1
  S  S7  1  0.70193900  0.03756700  0.93552300  1
  S  S8  1  0.01559600  0.25000000  0.00277900  1
  S  S9  1  0.48693800  0.25000000  0.49750900  1
  S  S10  1  0.98693800  0.75000000  0.00249100  1
  S  S11  1  0.51559600  0.75000000  0.49722100  1
  S  S12  1  0.63217100  0.25000000  0.22197600  1
  S  S13  1  0.86636600  0.25000000  0.72527500  1
  S  S14  1  0.36636600  0.75000000  0.77472500  1
  S  S15  1  0.13217100  0.75000000  0.27802400  1
  Br  Br0  1  0.64573900  0.75000000  0.22409700  1
  Br  Br1  1  0.85283700  0.75000000  0.71624500  1
  Br  Br2  1  0.35283700  0.25000000  0.78375500  1
  Br  Br3  1  0.14573900  0.25000000  0.27590300  1
loop_
_geom_bond_atom_site_label_1
_geom_bond_atom_site_label_2
_geom_bond_distance
_geom_bond_site_symmetry_2
Ba0 S8 3.236865 1_655
Ba0 S10 3.277868 1_545
Ba0 S12 3.309233 1_555
Ba0 S7 3.328514 1_554
Ba0 Br0 3.346431 1_545
Ba0 S0 3.375151 1_555
Ba0 Br3 3.476893 1_655
Ba0 S15 3.518081 1_645
Ba1 S9 3.282195 1_555
Ba1 S11 3.309047 1_555
Ba1 S1 3.330809 1_555
Ba1 Br1 3.354805 1_555
Ba1 S13 3.365361 1_555
Ba1 S14 3.436601 1_555
Ba1 Br2 3.463895 1_555
Ba1 S6 3.504815 1_555
Ba2 S10 3.282195 1_456
Ba2 S8 3.309047 1_556
Ba2 S2 3.330809 1_555
Ba2 Br2 3.354805 1_555
Ba2 S14 3.365361 1_555
Ba2 S13 3.436601 1_455
Ba2 Br1 3.463895 1_455
Ba2 S5 3.504815 1_556
Ba3 S11 3.236865 1_555
Ba3 S9 3.277868 1_565
Ba3 S15 3.309233 1_555
Ba3 S4 3.328514 1_555
Ba3 Br3 3.346431 1_565
Ba3 S3 3.375151 1_555
Ba3 Br0 3.476893 1_555
Ba3 S12 3.518081 1_565
Ba4 S10 3.282195 1_456
Ba4 S8 3.309047 1_566
Ba4 S4 3.330809 1_555
Ba4 Br2 3.354805 1_565
Ba4 S14 3.365361 1_555
Ba4 S13 3.436601 1_465
Ba4 Br1 3.463895 1_455
Ba4 S3 3.504815 1_556
Ba5 S11 3.236865 1_555
Ba5 S9 3.277868 1_555
Ba5 S15 3.309233 1_555
Ba5 S2 3.328514 1_555
Ba5 Br3 3.346431 1_555
Ba5 S5 3.375151 1_555
Ba5 Br0 3.476893 1_555
Ba5 S12 3.518081 1_555
Ba6 S8 3.236865 1_655
Ba6 S10 3.277868 1_555
Ba6 S12 3.309233 1_555
Ba6 S1 3.328514 1_554
Ba6 Br0 3.346431 1_555
Ba6 S6 3.375151 1_555
Ba6 Br3 3.476893 1_655
Ba6 S15 3.518081 1_655
Ba7 S9 3.282195 1_555
Ba7 S11 3.309047 1_545
Ba7 S7 3.330809 1_555
Ba7 Br1 3.354805 1_545
Ba7 S13 3.365361 1_555
Ba7 S14 3.436601 1_545
Ba7 Br2 3.463895 1_555
Ba7 S0 3.504815 1_555
Ge0 S15 2.222980 1_555
Ge0 S10 2.228154 1_455
Ge0 S5 2.234048 1_555
Ge0 S3 2.234048 1_555
Ge1 S4 2.202836 1_555
Ge1 S2 2.202836 1_555
Ge1 S11 2.242706 1_555
Ge1 S14 2.319779 1_555
Ge2 S1 2.202836 1_555
Ge2 S7 2.202836 1_555
Ge2 S8 2.242706 1_656
Ge2 S13 2.319779 1_555
Ge3 S12 2.222980 1_555
Ge3 S9 2.228154 1_555
Ge3 S6 2.234048 1_555
Ge3 S0 2.234048 1_555
Pb0 S3 2.800189 1_556
Pb0 S5 2.800189 1_556
Pb0 S14 2.938499 1_555
Pb0 S7 3.137072 1_565
Pb0 S1 3.137072 1_555
Pb1 S6 2.800189 1_455
Pb1 S0 2.800189 1_455
Pb1 S13 2.938499 1_455
Pb1 S2 3.137072 1_555
Pb1 S4 3.137072 1_545
Br0 Pb0 3.115744 1_554
Br3 Pb1 3.115744 1_555
