# generated using pymatgen
data_Sr2H8PtO8
_symmetry_space_group_name_H-M   'P 1'
_cell_length_a   6.06000991
_cell_length_b   6.07155895
_cell_length_c   11.18768000
_cell_angle_alpha   90.00000000
_cell_angle_beta   90.00000000
_cell_angle_gamma   113.53442794
_symmetry_Int_Tables_number   1
_chemical_formula_structural   Sr2H8PtO8
_chemical_formula_sum   'Sr4 H16 Pt2 O16'
_cell_volume   377.39644977
_cell_formula_units_Z   2
loop_
 _symmetry_equiv_pos_site_id
 _symmetry_equiv_pos_as_xyz
  1  'x, y, z'
loop_
 _atom_site_type_symbol
 _atom_site_label
 _atom_site_symmetry_multiplicity
 _atom_site_fract_x
 _atom_site_fract_y
 _atom_site_fract_z
 _atom_site_occupancy
  Sr  Sr0  1  0.72911900  0.39466900  0.87126600  1
  Sr  Sr1  1  0.27088100  0.10533100  0.37126600  1
  Sr  Sr2  1  0.27088100  0.60533100  0.12873400  1
  Sr  Sr3  1  0.72911900  0.89466900  0.62873400  1
  H  H0  1  0.14588800  0.22517600  0.80676500  1
  H  H1  1  0.85411200  0.27482400  0.30676500  1
  H  H2  1  0.85411200  0.77482400  0.19323500  1
  H  H3  1  0.14588800  0.72517600  0.69323500  1
  H  H4  1  0.75420900  0.16272300  0.12212600  1
  H  H5  1  0.24579100  0.33727700  0.62212600  1
  H  H6  1  0.24579100  0.83727700  0.87787400  1
  H  H7  1  0.75420900  0.66272300  0.37787400  1
  H  H8  1  0.58922700  0.33065200  0.58400100  1
  H  H9  1  0.41077300  0.16934800  0.08400100  1
  H  H10  1  0.41077300  0.66934800  0.41599900  1
  H  H11  1  0.58922700  0.83065200  0.91599900  1
  H  H12  1  0.36496300  0.56344800  0.75900300  1
  H  H13  1  0.63503700  0.93655200  0.25900300  1
  H  H14  1  0.63503700  0.43655200  0.24099700  1
  H  H15  1  0.36496300  0.06344800  0.74099700  1
  Pt  Pt0  1  0.00000000  0.50000000  0.50000000  1
  Pt  Pt1  1  0.00000000  0.00000000  0.00000000  1
  O  O0  1  0.98035200  0.12201200  0.83100200  1
  O  O1  1  0.01964800  0.37798800  0.33100200  1
  O  O2  1  0.01964800  0.87798800  0.16899800  1
  O  O3  1  0.98035200  0.62201200  0.66899800  1
  O  O4  1  0.87939100  0.25053800  0.05943000  1
  O  O5  1  0.12060900  0.24946200  0.55943000  1
  O  O6  1  0.12060900  0.74946200  0.94057000  1
  O  O7  1  0.87939100  0.75053800  0.44057000  1
  O  O8  1  0.65432600  0.25610500  0.52347400  1
  O  O9  1  0.34567400  0.24389500  0.02347400  1
  O  O10  1  0.34567400  0.74389500  0.47652600  1
  O  O11  1  0.65432600  0.75610500  0.97652600  1
  O  O12  1  0.44616400  0.46724800  0.72568000  1
  O  O13  1  0.55383600  0.03275200  0.22568000  1
  O  O14  1  0.55383600  0.53275200  0.27432000  1
  O  O15  1  0.44616400  0.96724800  0.77432000  1
loop_
_geom_bond_atom_site_label_1
_geom_bond_atom_site_label_2
_geom_bond_distance
_geom_bond_site_symmetry_2
H0 O0 0.985078 1_455
H1 O1 0.985078 1_655
H2 O2 0.985078 1_655
H3 O3 0.985078 1_455
H4 O4 1.014268 1_555
H4 O13 1.635273 1_555
H5 O5 1.014268 1_555
H5 O12 1.635273 1_555
H6 O6 1.014268 1_555
H6 O15 1.635273 1_555
H7 O7 1.014268 1_555
H7 O14 1.635273 1_555
H8 O8 0.980627 1_555
H9 O9 0.980627 1_555
H10 O10 0.980627 1_555
H11 O11 0.980627 1_555
H12 O12 0.975608 1_555
H12 Sr3 2.737530 1_555
H13 O13 0.975608 1_565
H13 Sr2 2.737530 1_555
H14 O14 0.975608 1_555
H14 Sr1 2.737530 1_555
H15 O15 0.975608 1_545
H15 Sr0 2.737530 1_555
O0 Pt1 2.051374 1_656
O0 Sr0 2.697063 1_555
O0 Sr3 2.768704 1_545
O1 Pt0 2.051374 1_555
O1 Sr1 2.697063 1_555
O1 Sr2 2.768704 1_555
O2 Pt1 2.051374 1_565
O2 Sr2 2.697063 1_555
O2 Sr1 2.768704 1_565
O3 Pt0 2.051374 1_655
O3 Sr3 2.697063 1_555
O3 Sr0 2.768704 1_555
O4 Pt1 2.044034 1_655
O4 Sr0 2.581282 1_554
O4 Sr2 2.605505 1_655
O5 Pt0 2.044034 1_555
O5 Sr1 2.581282 1_555
O5 Sr3 2.605505 1_445
O6 Pt1 2.044034 1_566
O6 Sr2 2.581282 1_556
O6 Sr0 2.605505 1_455
O7 Pt0 2.044034 1_655
O7 Sr3 2.581282 1_555
O7 Sr1 2.605505 1_665
O8 Pt0 2.042713 1_655
O8 Sr3 2.683705 1_545
O8 Sr1 2.727354 1_555
O9 Pt1 2.042713 1_555
O9 Sr2 2.683705 1_555
O9 Sr0 2.727354 1_554
O10 Pt0 2.042713 1_555
O10 Sr1 2.683705 1_565
O10 Sr3 2.727354 1_555
O11 Pt1 2.042713 1_666
O11 Sr0 2.683705 1_555
O11 Sr2 2.727354 1_556
O12 Sr0 2.527992 1_555
O12 Sr3 2.701395 1_555
O13 Sr1 2.527992 1_555
O13 Sr2 2.701395 1_545
O14 Sr2 2.527992 1_555
O14 Sr1 2.701395 1_555
O15 Sr3 2.527992 1_555
O15 Sr0 2.701395 1_565
