# generated using pymatgen
data_Te4MoW3S4
_symmetry_space_group_name_H-M   'P 1'
_cell_length_a   3.36251439
_cell_length_b   3.36251439
_cell_length_c   40.30637500
_cell_angle_alpha   90.00000000
_cell_angle_beta   90.00000000
_cell_angle_gamma   120.00000776
_symmetry_Int_Tables_number   1
_chemical_formula_structural   Te4MoW3S4
_chemical_formula_sum   'Te4 Mo1 W3 S4'
_cell_volume   394.66866187
_cell_formula_units_Z   1
loop_
 _symmetry_equiv_pos_site_id
 _symmetry_equiv_pos_as_xyz
  1  'x, y, z'
loop_
 _atom_site_type_symbol
 _atom_site_label
 _atom_site_symmetry_multiplicity
 _atom_site_fract_x
 _atom_site_fract_y
 _atom_site_fract_z
 _atom_site_occupancy
  Te  Te0  1  0.00000000  0.00000000  0.32714200  1
  Te  Te1  1  0.33333300  0.66666700  0.42422800  1
  Te  Te2  1  0.33333300  0.66666700  0.51852100  1
  Te  Te3  1  0.00000000  0.00000000  0.23287700  1
  Mo  Mo0  1  0.00000000  0.00000000  0.09379900  1
  W  W0  1  0.00000000  0.00000000  0.47135400  1
  W  W1  1  0.33333300  0.66666700  0.27995800  1
  W  W2  1  0.33333300  0.66666700  0.65772800  1
  S  S0  1  0.00000000  0.00000000  0.69541200  1
  S  S1  1  0.33333300  0.66666700  0.05633200  1
  S  S2  1  0.33333300  0.66666700  0.13132600  1
  S  S3  1  0.00000000  0.00000000  0.62007000  1
loop_
_geom_bond_atom_site_label_1
_geom_bond_atom_site_label_2
_geom_bond_distance
_geom_bond_site_symmetry_2
Te0 W1 2.717670 1_545
Te0 W1 2.717672 1_555
Te0 W1 2.717672 1_445
Te1 W0 2.716035 1_565
Te1 W0 2.716037 1_555
Te1 W0 2.716037 1_665
Te2 W0 2.717191 1_565
Te2 W0 2.717193 1_555
Te2 W0 2.717193 1_665
Te3 W1 2.714767 1_545
Te3 W1 2.714768 1_445
Te3 W1 2.714768 1_555
Mo0 S1 2.459554 1_545
Mo0 S1 2.459556 1_555
Mo0 S1 2.459556 1_445
Mo0 S2 2.461040 1_545
Mo0 S2 2.461042 1_445
Mo0 S2 2.461042 1_555
S0 W2 2.464934 1_545
S0 W2 2.464936 1_445
S0 W2 2.464936 1_555
S3 W2 2.464289 1_545
S3 W2 2.464291 1_445
S3 W2 2.464291 1_555
