# generated using pymatgen
data_Ho2SO2
_symmetry_space_group_name_H-M   'P 1'
_cell_length_a   3.76174493
_cell_length_b   3.76174399
_cell_length_c   6.55446067
_cell_angle_alpha   90.00000000
_cell_angle_beta   90.00000000
_cell_angle_gamma   119.99999028
_symmetry_Int_Tables_number   1
_chemical_formula_structural   Ho2SO2
_chemical_formula_sum   'Ho2 S1 O2'
_cell_volume   80.32416432
_cell_formula_units_Z   1
loop_
 _symmetry_equiv_pos_site_id
 _symmetry_equiv_pos_as_xyz
  1  'x, y, z'
loop_
 _atom_site_type_symbol
 _atom_site_label
 _atom_site_symmetry_multiplicity
 _atom_site_fract_x
 _atom_site_fract_y
 _atom_site_fract_z
 _atom_site_occupancy
  Ho  Ho0  1  0.66666700  0.33333300  0.71658143  1
  Ho  Ho1  1  0.33333300  0.66666700  0.28341857  1
  S  S0  1  0.00000000  -0.00000000  -0.00000000  1
  O  O0  1  0.66666700  0.33333300  0.37094721  1
  O  O1  1  0.33333300  0.66666700  0.62905279  1
loop_
_geom_bond_atom_site_label_1
_geom_bond_atom_site_label_2
_geom_bond_distance
_geom_bond_site_symmetry_2
Ho0 O1 2.246338 1_545
Ho0 O1 2.246338 1_655
Ho0 O1 2.246344 1_555
Ho0 O0 2.265446 1_555
Ho0 S0 2.857933 1_656
Ho0 S0 2.857936 1_666
Ho0 S0 2.857936 1_556
Ho1 O0 2.246338 1_565
Ho1 O0 2.246338 1_455
Ho1 O0 2.246344 1_555
Ho1 O1 2.265446 1_555
Ho1 S0 2.857933 1_565
Ho1 S0 2.857936 1_555
Ho1 S0 2.857936 1_665
