# generated using pymatgen
data_Co3W9C4
_symmetry_space_group_name_H-M   'P 1'
_cell_length_a   7.87442740
_cell_length_b   7.87442740
_cell_length_c   7.66393700
_cell_angle_alpha   90.00000000
_cell_angle_beta   90.00000000
_cell_angle_gamma   119.99999499
_symmetry_Int_Tables_number   1
_chemical_formula_structural   Co3W9C4
_chemical_formula_sum   'Co6 W18 C8'
_cell_volume   411.54804848
_cell_formula_units_Z   2
loop_
 _symmetry_equiv_pos_site_id
 _symmetry_equiv_pos_as_xyz
  1  'x, y, z'
loop_
 _atom_site_type_symbol
 _atom_site_label
 _atom_site_symmetry_multiplicity
 _atom_site_fract_x
 _atom_site_fract_y
 _atom_site_fract_z
 _atom_site_occupancy
  Co  Co0  1  0.55429000  0.44571000  0.75000000  1
  Co  Co1  1  0.55429000  0.10857900  0.75000000  1
  Co  Co2  1  0.89142100  0.44571000  0.75000000  1
  Co  Co3  1  0.44571000  0.55429000  0.25000000  1
  Co  Co4  1  0.44571000  0.89142100  0.25000000  1
  Co  Co5  1  0.10857900  0.55429000  0.25000000  1
  W  W0  1  0.20742900  0.79257100  0.93253400  1
  W  W1  1  0.20742900  0.41485900  0.93253400  1
  W  W2  1  0.58514100  0.79257100  0.93253400  1
  W  W3  1  0.79257100  0.20742900  0.06746600  1
  W  W4  1  0.79257100  0.58514100  0.06746600  1
  W  W5  1  0.41485900  0.20742900  0.06746600  1
  W  W6  1  0.79257100  0.20742900  0.43253400  1
  W  W7  1  0.79257100  0.58514100  0.43253400  1
  W  W8  1  0.41485900  0.20742900  0.43253400  1
  W  W9  1  0.20742900  0.79257100  0.56746600  1
  W  W10  1  0.20742900  0.41485900  0.56746600  1
  W  W11  1  0.58514100  0.79257100  0.56746600  1
  W  W12  1  0.89132700  0.10867300  0.75000000  1
  W  W13  1  0.89132700  0.78265500  0.75000000  1
  W  W14  1  0.21734500  0.10867300  0.75000000  1
  W  W15  1  0.10867300  0.89132700  0.25000000  1
  W  W16  1  0.10867300  0.21734500  0.25000000  1
  W  W17  1  0.78265500  0.89132700  0.25000000  1
  C  C0  1  0.33333300  0.66666700  0.75000000  1
  C  C1  1  0.66666700  0.33333300  0.25000000  1
  C  C2  1  0.50000000  0.50000000  0.00000000  1
  C  C3  1  0.50000000  0.00000000  0.00000000  1
  C  C4  1  0.00000000  0.50000000  0.00000000  1
  C  C5  1  0.50000000  0.50000000  0.50000000  1
  C  C6  1  0.50000000  0.00000000  0.50000000  1
  C  C7  1  0.00000000  0.50000000  0.50000000  1
loop_
_geom_bond_atom_site_label_1
_geom_bond_atom_site_label_2
_geom_bond_distance
_geom_bond_site_symmetry_2
Co0 W13 2.653611 1_555
Co0 W14 2.653611 1_555
Co1 W12 2.653603 1_555
Co1 W14 2.653619 1_555
Co2 W12 2.653603 1_555
Co2 W13 2.653619 1_555
Co3 W17 2.653611 1_555
Co3 W16 2.653611 1_555
Co4 W15 2.653603 1_555
Co4 W17 2.653619 1_555
Co5 W15 2.653603 1_555
Co5 W16 2.653619 1_555
W0 W15 2.780986 1_556
W0 W14 2.822140 1_565
W0 W13 2.822140 1_455
W1 W16 2.780993 1_556
W1 W14 2.822139 1_555
W1 W12 2.822140 1_455
W10 W16 2.780993 1_555
W10 W14 2.822139 1_555
W10 W12 2.822140 1_455
W11 W17 2.780993 1_555
W11 W13 2.822139 1_555
W11 W12 2.822140 1_565
W12 W13 2.567205 1_545
W12 W14 2.567205 1_655
W12 W3 2.780986 1_556
W12 W6 2.780986 1_555
W12 W2 2.822140 1_545
W13 W14 2.567205 1_665
W13 W4 2.780993 1_556
W13 W7 2.780993 1_555
W13 W2 2.822139 1_555
W13 W9 2.822140 1_655
W14 W5 2.780993 1_556
W14 W8 2.780993 1_555
W14 W9 2.822140 1_545
W15 W16 2.567205 1_565
W15 W17 2.567205 1_455
W15 W9 2.780986 1_555
W15 W4 2.822140 1_455
W15 W7 2.822140 1_455
W15 W8 2.822140 1_565
W15 W5 2.822140 1_565
W16 W17 2.567205 1_445
W16 W8 2.822139 1_555
W16 W5 2.822139 1_555
W16 W6 2.822140 1_455
W16 W3 2.822140 1_455
W17 W2 2.780993 1_554
W17 W7 2.822139 1_555
W17 W4 2.822139 1_555
W17 W6 2.822140 1_565
W17 W3 2.822140 1_565
C0 W9 2.214894 1_555
C0 W0 2.214894 1_555
C0 W11 2.214894 1_555
C0 W2 2.214894 1_555
C0 W10 2.214894 1_555
C0 W1 2.214894 1_555
C1 W3 2.214894 1_555
C1 W6 2.214894 1_555
C1 W8 2.214894 1_555
C1 W7 2.214894 1_555
C1 W4 2.214894 1_555
C1 W5 2.214894 1_555
C2 Co0 2.054086 1_554
C2 Co3 2.054086 1_555
C2 W2 2.116575 1_554
C2 W4 2.116575 1_555
C2 W5 2.116575 1_555
C2 W1 2.116575 1_554
C3 Co1 2.054084 1_554
C3 Co4 2.054084 1_545
C3 W5 2.116567 1_555
C3 W2 2.116567 1_544
C3 W3 2.116573 1_555
C3 W0 2.116573 1_544
C4 Co5 2.054084 1_555
C4 Co2 2.054084 1_454
C4 W1 2.116567 1_554
C4 W4 2.116567 1_455
C4 W0 2.116573 1_554
C4 W3 2.116573 1_455
C5 Co0 2.054086 1_555
C5 Co3 2.054086 1_555
C5 W7 2.116575 1_555
C5 W11 2.116575 1_555
C5 W8 2.116575 1_555
C5 W10 2.116575 1_555
C6 Co1 2.054084 1_555
C6 Co4 2.054084 1_545
C6 W8 2.116567 1_555
C6 W11 2.116567 1_545
C6 W6 2.116573 1_555
C6 W9 2.116573 1_545
C7 Co5 2.054084 1_555
C7 Co2 2.054084 1_455
C7 W10 2.116567 1_555
C7 W7 2.116567 1_455
C7 W9 2.116573 1_555
C7 W6 2.116573 1_455
