# generated using pymatgen
data_MgTiF5
_symmetry_space_group_name_H-M   'P 1'
_cell_length_a   5.34868871
_cell_length_b   5.34868871
_cell_length_c   7.49087048
_cell_angle_alpha   69.36801644
_cell_angle_beta   69.36801644
_cell_angle_gamma   72.65218629
_symmetry_Int_Tables_number   1
_chemical_formula_structural   MgTiF5
_chemical_formula_sum   'Mg2 Ti2 F10'
_cell_volume   183.95270244
_cell_formula_units_Z   2
loop_
 _symmetry_equiv_pos_site_id
 _symmetry_equiv_pos_as_xyz
  1  'x, y, z'
loop_
 _atom_site_type_symbol
 _atom_site_label
 _atom_site_symmetry_multiplicity
 _atom_site_fract_x
 _atom_site_fract_y
 _atom_site_fract_z
 _atom_site_occupancy
  Mg  Mg0  1  0.52319900  0.47680100  0.75000000  1
  Mg  Mg1  1  0.47680100  0.52319900  0.25000000  1
  Ti  Ti0  1  0.00000000  0.00000000  0.00000000  1
  Ti  Ti1  1  0.00000000  0.00000000  0.50000000  1
  F  F0  1  0.13658700  0.86341300  0.25000000  1
  F  F1  1  0.86341300  0.13658700  0.75000000  1
  F  F2  1  0.22107400  0.26995700  0.37192800  1
  F  F3  1  0.73004300  0.77892600  0.12807200  1
  F  F4  1  0.70208600  0.31924400  0.05048500  1
  F  F5  1  0.68075600  0.29791400  0.44951500  1
  F  F6  1  0.29791400  0.68075600  0.94951500  1
  F  F7  1  0.31924400  0.70208600  0.55048500  1
  F  F8  1  0.26995700  0.22107400  0.87192800  1
  F  F9  1  0.77892600  0.73004300  0.62807200  1
loop_
_geom_bond_atom_site_label_1
_geom_bond_atom_site_label_2
_geom_bond_distance
_geom_bond_site_symmetry_2
F0 Ti1 2.063063 1_565
F0 Ti0 2.063063 1_565
F0 Mg1 2.155907 1_555
F1 Ti1 2.063063 1_655
F1 Ti0 2.063063 1_656
F1 Mg0 2.155907 1_555
F2 Ti1 1.909446 1_555
F2 Mg1 1.972915 1_555
F3 Ti0 1.909446 1_665
F3 Mg1 1.972915 1_555
F4 Mg1 1.992892 1_555
F4 Ti0 2.001402 1_655
F4 Mg0 2.528304 1_554
F5 Mg1 1.992892 1_555
F5 Ti1 2.001402 1_655
F5 Mg0 2.528304 1_555
F6 Mg0 1.992892 1_555
F6 Ti0 2.001402 1_566
F6 Mg1 2.528304 1_556
F7 Mg0 1.992892 1_555
F7 Ti1 2.001402 1_565
F7 Mg1 2.528304 1_555
F8 Ti0 1.909446 1_556
F8 Mg0 1.972915 1_555
F9 Ti1 1.909446 1_665
F9 Mg0 1.972915 1_555
