# generated using pymatgen
data_Cd5(S2Cl)2
_symmetry_space_group_name_H-M   'P 1'
_cell_length_a   10.18278173
_cell_length_b   10.18278173
_cell_length_c   10.18278173
_cell_angle_alpha   141.38390184
_cell_angle_beta   101.28680269
_cell_angle_gamma   91.31416984
_symmetry_Int_Tables_number   1
_chemical_formula_structural   Cd5(S2Cl)2
_chemical_formula_sum   'Cd10 S8 Cl4'
_cell_volume   618.95523501
_cell_formula_units_Z   2
loop_
 _symmetry_equiv_pos_site_id
 _symmetry_equiv_pos_as_xyz
  1  'x, y, z'
loop_
 _atom_site_type_symbol
 _atom_site_label
 _atom_site_symmetry_multiplicity
 _atom_site_fract_x
 _atom_site_fract_y
 _atom_site_fract_z
 _atom_site_occupancy
  Cd  Cd0  1  0.75000000  0.75000000  0.00000000  1
  Cd  Cd1  1  0.25000000  0.25000000  0.00000000  1
  Cd  Cd2  1  0.45332100  0.75000000  0.70332100  1
  Cd  Cd3  1  0.04667900  0.75000000  0.29667900  1
  Cd  Cd4  1  0.54667900  0.25000000  0.29667900  1
  Cd  Cd5  1  0.95332100  0.25000000  0.70332100  1
  Cd  Cd6  1  0.90183400  0.69504700  0.59688000  1
  Cd  Cd7  1  0.09816600  0.30495300  0.40312000  1
  Cd  Cd8  1  0.59816600  0.19504700  0.79321300  1
  Cd  Cd9  1  0.40183400  0.80495300  0.20678700  1
  S  S0  1  0.02171000  0.96622600  0.66121900  1
  S  S1  1  0.30500800  0.36049200  0.33878100  1
  S  S2  1  0.47829000  0.13950800  0.94451600  1
  S  S3  1  0.19499200  0.53377400  0.05548400  1
  S  S4  1  0.97829000  0.03377400  0.33878100  1
  S  S5  1  0.69499200  0.63950800  0.66121900  1
  S  S6  1  0.52171000  0.86049200  0.05548400  1
  S  S7  1  0.80500800  0.46622600  0.94451600  1
  Cl  Cl0  1  0.60576600  0.80754600  0.41331200  1
  Cl  Cl1  1  0.39423400  0.19245400  0.58668800  1
  Cl  Cl2  1  0.89423400  0.30754600  0.20178000  1
  Cl  Cl3  1  0.10576600  0.69245400  0.79822000  1
loop_
_geom_bond_atom_site_label_1
_geom_bond_atom_site_label_2
_geom_bond_distance
_geom_bond_site_symmetry_2
Cd0 S5 2.574811 1_554
Cd0 S4 2.574818 1_565
Cd0 S7 2.574821 1_554
Cd0 S6 2.574821 1_555
Cd1 S1 2.574811 1_555
Cd1 S0 2.574818 1_544
Cd1 S3 2.574821 1_555
Cd1 S2 2.574821 1_554
Cd2 S2 2.512915 1_565
Cd2 S1 2.512917 1_555
Cd2 S5 2.700340 1_555
Cd2 S6 2.700340 1_556
Cd3 S3 2.512915 1_555
Cd3 S0 2.512924 1_555
Cd3 S7 2.700340 1_454
Cd3 S4 2.700346 1_465
Cd4 S6 2.512915 1_545
Cd4 S5 2.512917 1_555
Cd4 S1 2.700340 1_555
Cd4 S2 2.700340 1_554
Cd5 S7 2.512915 1_555
Cd5 S4 2.512924 1_555
Cd5 S3 2.700340 1_656
Cd5 S0 2.700346 1_645
Cd6 S0 2.499925 1_655
Cd6 S5 2.499952 1_555
Cd6 Cl2 2.611201 1_555
Cd6 Cl3 2.633789 1_655
Cd7 S4 2.499925 1_455
Cd7 S1 2.499952 1_555
Cd7 Cl3 2.611201 1_555
Cd7 Cl2 2.633789 1_455
Cd8 S7 2.499940 1_555
Cd8 S2 2.499940 1_555
Cd8 Cl0 2.611204 1_545
Cd8 Cl1 2.633783 1_555
Cd9 S6 2.499940 1_555
Cd9 S3 2.499940 1_555
Cd9 Cl1 2.611204 1_565
Cd9 Cl0 2.633783 1_555
