# generated using pymatgen
data_Er5(GeSb)2
_symmetry_space_group_name_H-M   'P 1'
_cell_length_a   8.42555446
_cell_length_b   8.42555398
_cell_length_c   7.85565028
_cell_angle_alpha   90.00000000
_cell_angle_beta   90.00000000
_cell_angle_gamma   124.56971243
_symmetry_Int_Tables_number   1
_chemical_formula_structural   Er5(GeSb)2
_chemical_formula_sum   'Er10 Ge4 Sb4'
_cell_volume   459.20771018
_cell_formula_units_Z   2
loop_
 _symmetry_equiv_pos_site_id
 _symmetry_equiv_pos_as_xyz
  1  'x, y, z'
loop_
 _atom_site_type_symbol
 _atom_site_label
 _atom_site_symmetry_multiplicity
 _atom_site_fract_x
 _atom_site_fract_y
 _atom_site_fract_z
 _atom_site_occupancy
  Er  Er0  1  0.03525819  0.28663543  0.33918885  1
  Er  Er1  1  0.96474181  0.71336457  0.66081115  1
  Er  Er2  1  0.46474181  0.21336557  0.83918985  1
  Er  Er3  1  0.78663443  0.53525819  0.16081015  1
  Er  Er4  1  0.53525819  0.78663443  0.16081015  1
  Er  Er5  1  0.21336557  0.46474181  0.83918985  1
  Er  Er6  1  0.71336557  0.96474181  0.66081115  1
  Er  Er7  1  0.28663443  0.03525819  0.33918885  1
  Er  Er8  1  -0.00000000  -0.00000000  -0.00000000  1
  Er  Er9  1  0.50000000  0.50000000  0.50000000  1
  Ge  Ge0  1  0.35695913  0.35695913  0.14155885  1
  Ge  Ge1  1  0.64304087  0.64304087  0.85844115  1
  Ge  Ge2  1  0.14304087  0.14304087  0.64155885  1
  Ge  Ge3  1  0.85695913  0.85695913  0.35844115  1
  Sb  Sb0  1  0.79575528  0.20424472  -0.00000000  1
  Sb  Sb1  1  0.20424472  0.79575528  -0.00000000  1
  Sb  Sb2  1  0.70424472  0.29575528  0.50000000  1
  Sb  Sb3  1  0.29575528  0.70424472  0.50000000  1
loop_
_geom_bond_atom_site_label_1
_geom_bond_atom_site_label_2
_geom_bond_distance
_geom_bond_site_symmetry_2
Er0 Ge0 2.878487 1_555
Er0 Ge2 3.029425 1_555
Er0 Ge3 3.035482 1_445
Er0 Sb2 3.102150 1_455
Er0 Sb3 3.166980 1_555
Er0 Sb0 3.172401 1_455
Er1 Ge1 2.878487 1_555
Er1 Ge3 3.029425 1_555
Er1 Ge2 3.035482 1_665
Er1 Sb3 3.102150 1_655
Er1 Sb2 3.166980 1_555
Er1 Sb1 3.172401 1_656
Er2 Ge2 2.878489 1_555
Er2 Ge0 3.029414 1_556
Er2 Ge1 3.035474 1_555
Er2 Sb0 3.102151 1_556
Er2 Sb1 3.166983 1_546
Er2 Sb2 3.172409 1_555
Er3 Ge3 2.878488 1_555
Er3 Ge1 3.029414 1_554
Er3 Ge0 3.035474 1_555
Er3 Sb0 3.102151 1_555
Er3 Sb1 3.166983 1_655
Er3 Sb2 3.172409 1_555
Er4 Ge3 2.878489 1_555
Er4 Ge1 3.029414 1_554
Er4 Ge0 3.035474 1_555
Er4 Sb1 3.102151 1_555
Er4 Sb0 3.166983 1_565
Er4 Sb3 3.172409 1_555
Er5 Ge2 2.878488 1_555
Er5 Ge0 3.029414 1_556
Er5 Ge1 3.035474 1_555
Er5 Sb1 3.102151 1_556
Er5 Sb0 3.166983 1_456
Er5 Sb3 3.172409 1_555
Er6 Ge1 2.878484 1_555
Er6 Ge3 3.029420 1_555
Er6 Ge2 3.035475 1_665
Er6 Sb2 3.102154 1_565
Er6 Sb3 3.166986 1_555
Er6 Sb0 3.172403 1_566
Er7 Ge0 2.878484 1_555
Er7 Ge2 3.029420 1_555
Er7 Ge3 3.035475 1_445
Er7 Sb3 3.102154 1_545
Er7 Sb2 3.166986 1_555
Er7 Sb1 3.172403 1_545
Er8 Ge0 3.010426 1_555
Er8 Ge1 3.010426 1_444
Er8 Ge2 3.030733 1_554
Er8 Ge3 3.030733 1_445
Er8 Sb1 3.046880 1_545
Er8 Sb0 3.046880 1_455
Er9 Ge2 3.010426 1_555
Er9 Ge3 3.010426 1_555
Er9 Ge0 3.030733 1_555
Er9 Ge1 3.030733 1_555
Er9 Sb3 3.046880 1_555
Er9 Sb2 3.046880 1_555
