# generated using pymatgen
data_CsGaH4
_symmetry_space_group_name_H-M   'P 1'
_cell_length_a   6.10486700
_cell_length_b   8.11170400
_cell_length_c   10.19638200
_cell_angle_alpha   90.00000000
_cell_angle_beta   90.00000000
_cell_angle_gamma   90.00000000
_symmetry_Int_Tables_number   1
_chemical_formula_structural   CsGaH4
_chemical_formula_sum   'Cs4 Ga4 H16'
_cell_volume   504.93374892
_cell_formula_units_Z   4
loop_
 _symmetry_equiv_pos_site_id
 _symmetry_equiv_pos_as_xyz
  1  'x, y, z'
loop_
 _atom_site_type_symbol
 _atom_site_label
 _atom_site_symmetry_multiplicity
 _atom_site_fract_x
 _atom_site_fract_y
 _atom_site_fract_z
 _atom_site_occupancy
  Cs  Cs0  1  0.25000000  0.33572400  0.68455500  1
  Cs  Cs1  1  0.25000000  0.16427500  0.18455500  1
  Cs  Cs2  1  0.75000000  0.66427600  0.31544500  1
  Cs  Cs3  1  0.75000000  0.83572400  0.81544500  1
  Ga  Ga0  1  0.25000000  0.69632400  0.06000500  1
  Ga  Ga1  1  0.25000000  0.80367600  0.56000500  1
  Ga  Ga2  1  0.75000000  0.30367600  0.93999500  1
  Ga  Ga3  1  0.75000000  0.19632400  0.43999500  1
  H  H0  1  0.25000000  0.62068400  0.91640500  1
  H  H1  1  0.25000000  0.87931600  0.41640500  1
  H  H2  1  0.75000000  0.37931600  0.08359500  1
  H  H3  1  0.75000000  0.12068400  0.58359500  1
  H  H4  1  0.25000000  0.55823000  0.17129700  1
  H  H5  1  0.25000000  0.94177000  0.67129700  1
  H  H6  1  0.75000000  0.44177000  0.82870300  1
  H  H7  1  0.75000000  0.05823000  0.32870300  1
  H  H8  1  0.96188800  0.18888000  0.92069500  1
  H  H9  1  0.53811200  0.31112000  0.42069500  1
  H  H10  1  0.46188800  0.81112000  0.07930500  1
  H  H11  1  0.03811200  0.68888000  0.57930500  1
  H  H12  1  0.03811200  0.81112000  0.07930500  1
  H  H13  1  0.46188800  0.68888000  0.57930500  1
  H  H14  1  0.53811200  0.18888000  0.92069500  1
  H  H15  1  0.96188800  0.31112000  0.42069500  1
loop_
_geom_bond_atom_site_label_1
_geom_bond_atom_site_label_2
_geom_bond_distance
_geom_bond_site_symmetry_2
Cs0 H5 3.198496 1_545
Cs0 H14 3.210904 1_555
Cs0 H8 3.210904 1_455
Cs0 H9 3.220537 1_555
Cs0 H15 3.220537 1_455
Cs0 H0 3.306316 1_555
Cs0 H13 3.321362 1_555
Cs0 H11 3.321362 1_555
Cs1 H4 3.198504 1_555
Cs1 H9 3.210907 1_555
Cs1 H15 3.210907 1_455
Cs1 H14 3.220537 1_554
Cs1 H8 3.220537 1_454
Cs1 H1 3.306311 1_545
Cs1 H10 3.321355 1_545
Cs1 H12 3.321355 1_545
Cs2 H7 3.198496 1_565
Cs2 H12 3.210904 1_655
Cs2 H10 3.210904 1_555
Cs2 H11 3.220537 1_655
Cs2 H13 3.220537 1_555
Cs2 H2 3.306316 1_555
Cs2 H15 3.321362 1_555
Cs2 H9 3.321362 1_555
Cs3 H6 3.198496 1_555
Cs3 H11 3.210904 1_655
Cs3 H13 3.210904 1_555
Cs3 H12 3.220537 1_656
Cs3 H10 3.220537 1_556
Cs3 H3 3.306316 1_565
Cs3 H8 3.321362 1_565
Cs3 H14 3.321362 1_565
Ga0 H0 1.587561 1_554
Ga0 H4 1.594526 1_555
Ga0 H10 1.605961 1_555
Ga0 H12 1.605961 1_555
Ga1 H1 1.587561 1_555
Ga1 H5 1.594526 1_555
Ga1 H13 1.605961 1_555
Ga1 H11 1.605961 1_555
Ga2 H2 1.587561 1_556
Ga2 H6 1.594526 1_555
Ga2 H8 1.605961 1_555
Ga2 H14 1.605961 1_555
Ga3 H3 1.587561 1_555
Ga3 H7 1.594526 1_555
Ga3 H15 1.605961 1_555
Ga3 H9 1.605961 1_555
