# generated using pymatgen
data_Ba2MgMo4(P2O7)4
_symmetry_space_group_name_H-M   'P 1'
_cell_length_a   8.01064987
_cell_length_b   8.01065002
_cell_length_c   10.50800940
_cell_angle_alpha   76.67594532
_cell_angle_beta   76.67594835
_cell_angle_gamma   84.90371332
_symmetry_Int_Tables_number   1
_chemical_formula_structural   Ba2MgMo4(P2O7)4
_chemical_formula_sum   'Ba2 Mg1 Mo4 P8 O28'
_cell_volume   638.03692643
_cell_formula_units_Z   1
loop_
 _symmetry_equiv_pos_site_id
 _symmetry_equiv_pos_as_xyz
  1  'x, y, z'
loop_
 _atom_site_type_symbol
 _atom_site_label
 _atom_site_symmetry_multiplicity
 _atom_site_fract_x
 _atom_site_fract_y
 _atom_site_fract_z
 _atom_site_occupancy
  Ba  Ba0  1  0.00681684  0.47202976  0.04648525  1
  Ba  Ba1  1  0.52796924  0.99318316  0.45351575  1
  Mg  Mg0  1  0.09627318  0.90372682  0.75000000  1
  Mo  Mo0  1  0.98671361  0.98982544  0.48208337  1
  Mo  Mo1  1  0.01017356  0.01328639  0.01791663  1
  Mo  Mo2  1  0.44551664  0.55448436  0.25000000  1
  Mo  Mo3  1  0.54757220  0.45242880  0.75000000  1
  P  P0  1  0.79881125  0.72194957  0.28218836  1
  P  P1  1  0.27805143  0.20118975  0.21781264  1
  P  P2  1  0.19973497  0.27106910  0.72660220  1
  P  P3  1  0.72893090  0.80026503  0.77339880  1
  P  P4  1  0.72792903  0.36349864  0.43877637  1
  P  P5  1  0.63650136  0.27207197  0.06122363  1
  P  P6  1  0.25585091  0.62855850  0.55795687  1
  P  P7  1  0.37144050  0.74415009  0.94204313  1
  O  O0  1  0.92683424  0.76211481  0.14660357  1
  O  O1  1  0.23788519  0.07316676  0.35339543  1
  O  O2  1  0.07389858  0.25762724  0.86261042  1
  O  O3  1  0.74237176  0.92610142  0.63738958  1
  O  O4  1  0.60999976  0.74110258  0.26918666  1
  O  O5  1  0.25889642  0.39000024  0.23081434  1
  O  O6  1  0.38759540  0.26684491  0.73290526  1
  O  O7  1  0.73315509  0.61240460  0.76709474  1
  O  O8  1  0.82355694  0.81937568  0.38300236  1
  O  O9  1  0.18062532  0.17644206  0.11699664  1
  O  O10  1  0.17054694  0.13427812  0.65363036  1
  O  O11  1  0.86572188  0.82945306  0.84636864  1
  O  O12  1  0.84073794  0.51538818  0.32974220  1
  O  O13  1  0.48461182  0.15926206  0.17025880  1
  O  O14  1  0.35770875  0.73183464  0.08974573  1
  O  O15  1  0.26816536  0.64229225  0.41025427  1
  O  O16  1  0.61808341  0.27506838  0.92053625  1
  O  O17  1  0.72493062  0.38191759  0.57946375  1
  O  O18  1  0.36667458  0.57357055  0.89910208  1
  O  O19  1  0.42642945  0.63332442  0.60089692  1
  O  O20  1  0.62857479  0.45087202  0.09622604  1
  O  O21  1  0.15297686  0.46074272  0.64184887  1
  O  O22  1  0.21591298  0.85861886  0.90015466  1
  O  O23  1  0.14138114  0.78408702  0.59984534  1
  O  O24  1  0.79989363  0.17717175  0.09713242  1
  O  O25  1  0.82282725  0.20010637  0.40286658  1
  O  O26  1  0.53925728  0.84702314  0.85815113  1
  O  O27  1  0.54912798  0.37142521  0.40377296  1
loop_
_geom_bond_atom_site_label_1
_geom_bond_atom_site_label_2
_geom_bond_distance
_geom_bond_site_symmetry_2
Ba0 O9 2.678691 1_555
Ba0 O0 2.732915 1_455
Ba0 O2 2.803362 1_554
Ba0 O24 2.884350 1_455
Ba0 O20 2.966995 1_455
Ba0 O18 3.024608 1_554
Ba0 O5 3.039992 1_555
Ba0 O12 3.052734 1_455
Ba0 O11 3.412142 1_454
Ba1 O8 2.678691 1_555
Ba1 O1 2.732920 1_565
Ba1 O3 2.803353 1_555
Ba1 O25 2.884347 1_565
Ba1 O27 2.966994 1_565
Ba1 O19 3.024609 1_555
Ba1 O4 3.039998 1_555
Ba1 O13 3.052731 1_565
Ba1 O10 3.412126 1_565
Mg0 O11 1.961088 1_455
Mg0 O10 1.961090 1_565
Mg0 O22 1.977700 1_555
Mg0 O23 1.977700 1_555
Mo0 O25 2.172203 1_565
Mo0 O1 2.211587 1_665
Mo0 O3 2.253059 1_555
Mo0 O23 2.277382 1_655
Mo0 O8 2.501208 1_555
Mo1 O24 2.172189 1_455
Mo1 O0 2.211579 1_445
Mo1 O2 2.253054 1_554
Mo1 O22 2.277387 1_544
Mo1 O9 2.501207 1_555
Mo2 O14 2.148152 1_555
Mo2 O15 2.148156 1_555
Mo2 O4 2.150092 1_555
Mo2 O5 2.150105 1_555
Mo2 O27 2.181748 1_555
Mo2 O20 2.181755 1_555
Mo3 O7 2.110045 1_555
Mo3 O6 2.110057 1_555
Mo3 O17 2.167792 1_555
Mo3 O16 2.167799 1_555
Mo3 O18 2.213793 1_555
Mo3 O19 2.213797 1_555
O0 P0 1.535902 1_555
O1 P1 1.535887 1_555
O2 P2 1.534469 1_555
O3 P3 1.534478 1_555
O4 P0 1.540852 1_555
O5 P1 1.540844 1_555
O6 P2 1.518575 1_555
O7 P3 1.518577 1_555
O8 P0 1.508632 1_555
O9 P1 1.508655 1_555
O10 P2 1.535842 1_555
O11 P3 1.535828 1_555
O12 P4 1.638704 1_555
O12 P0 1.642564 1_555
O13 P5 1.638712 1_555
O13 P1 1.642558 1_555
O14 P7 1.511088 1_554
O15 P6 1.511087 1_555
O16 P5 1.513735 1_556
O17 P4 1.513734 1_555
O18 P7 1.540667 1_555
O19 P6 1.540654 1_555
O20 P5 1.551355 1_555
O21 P6 1.605980 1_555
O21 P2 1.634318 1_555
O22 P7 1.565423 1_555
O23 P6 1.565434 1_555
O24 P5 1.533659 1_555
O25 P4 1.533657 1_555
O26 P7 1.605982 1_555
O26 P3 1.634314 1_555
O27 P4 1.551367 1_555
