# generated using pymatgen
data_Al2O3
_symmetry_space_group_name_H-M   'P 1'
_cell_length_a   10.06535268
_cell_length_b   10.08909970
_cell_length_c   10.89402302
_cell_angle_alpha   87.28621678
_cell_angle_beta   91.04183555
_cell_angle_gamma   86.34672573
_symmetry_Int_Tables_number   1
_chemical_formula_structural   Al2O3
_chemical_formula_sum   'Al40 O60'
_cell_volume   1102.55616027
_cell_formula_units_Z   20
loop_
 _symmetry_equiv_pos_site_id
 _symmetry_equiv_pos_as_xyz
  1  'x, y, z'
loop_
 _atom_site_type_symbol
 _atom_site_label
 _atom_site_symmetry_multiplicity
 _atom_site_fract_x
 _atom_site_fract_y
 _atom_site_fract_z
 _atom_site_occupancy
  Al  Al0  1  0.76294700  0.44935500  0.61606000  1
  Al  Al1  1  0.87204200  0.68010500  0.60420400  1
  Al  Al2  1  0.18159900  0.98523500  0.47909000  1
  Al  Al3  1  0.56838500  0.55094000  0.92256800  1
  Al  Al4  1  0.80427900  0.55592800  0.30794100  1
  Al  Al5  1  0.18873300  0.70786800  0.56157800  1
  Al  Al6  1  0.32950400  0.30285400  0.48102300  1
  Al  Al7  1  0.89888600  0.30322900  0.27425500  1
  Al  Al8  1  0.36556400  0.51777700  0.14464200  1
  Al  Al9  1  0.91028400  0.26791700  0.81078300  1
  Al  Al10  1  0.49098400  0.57900800  0.42405000  1
  Al  Al11  1  0.34957100  0.76671900  0.99059900  1
  Al  Al12  1  0.60933800  0.27038600  0.46285000  1
  Al  Al13  1  0.93748700  0.92918200  0.63882900  1
  Al  Al14  1  0.63102000  0.83869900  0.85278800  1
  Al  Al15  1  0.08769500  0.72820300  0.83071200  1
  Al  Al16  1  0.45451700  0.02882200  0.39129900  1
  Al  Al17  1  0.15873500  0.31487600  0.74667800  1
  Al  Al18  1  0.34665700  0.89036700  0.74407600  1
  Al  Al19  1  0.65914700  0.95079900  0.60372800  1
  Al  Al20  1  0.67097700  0.16219400  0.75781600  1
  Al  Al21  1  0.99959200  0.64771100  0.13470000  1
  Al  Al22  1  0.02096400  0.44566600  0.50185500  1
  Al  Al23  1  0.98194000  0.92388600  0.27166300  1
  Al  Al24  1  0.26339000  0.79829000  0.27203000  1
  Al  Al25  1  0.89488300  0.17193100  0.49754400  1
  Al  Al26  1  0.80306000  0.06465200  0.01951200  1
  Al  Al27  1  0.65046500  0.34729000  0.11840700  1
  Al  Al28  1  0.37546700  0.16465400  0.90473600  1
  Al  Al29  1  0.49207000  0.63225000  0.66266400  1
  Al  Al30  1  0.72846900  0.05926100  0.26382500  1
  Al  Al31  1  0.55941700  0.95732900  0.05957100  1
  Al  Al32  1  0.71391900  0.79220900  0.27485000  1
  Al  Al33  1  0.46558300  0.34217400  0.71719800  1
  Al  Al34  1  0.28096800  0.03088500  0.12865500  1
  Al  Al35  1  0.12959200  0.01592800  0.85148200  1
  Al  Al36  1  0.11895800  0.25607300  0.02922700  1
  Al  Al37  1  0.14713300  0.21592600  0.28553600  1
  Al  Al38  1  0.84933200  0.54073800  0.89705100  1
  Al  Al39  1  0.16598500  0.52388500  0.30806500  1
  O  O0  1  0.10384800  0.04280200  0.31816500  1
  O  O1  1  0.23030400  0.35598500  0.34911100  1
  O  O2  1  0.02054000  0.37231700  0.64992000  1
  O  O3  1  0.77769900  0.82140800  0.65016700  1
  O  O4  1  0.76880000  0.32177700  0.50000800  1
  O  O5  1  0.81629400  0.13758400  0.87393300  1
  O  O6  1  0.00624600  0.29535000  0.41547100  1
  O  O7  1  0.02751600  0.04923000  0.54741000  1
  O  O8  1  0.58404500  0.14159100  0.35893900  1
  O  O9  1  0.14141500  0.55963700  0.46665200  1
  O  O10  1  0.24262900  0.29745900  0.90068300  1
  O  O11  1  0.24215300  0.88833700  0.61898700  1
  O  O12  1  0.79262200  0.07062900  0.60689400  1
  O  O13  1  0.97206500  0.37636300  0.91926800  1
  O  O14  1  0.15955700  0.63117000  0.71853300  1
  O  O15  1  0.51825800  0.23317000  0.84409400  1
  O  O16  1  0.54028500  0.91991000  0.49674900  1
  O  O17  1  0.24919200  0.20470000  0.15556200  1
  O  O18  1  0.75541600  0.32344100  0.73617100  1
  O  O19  1  0.19867700  0.81912600  0.41874800  1
  O  O20  1  0.84103700  0.15309700  0.34147500  1
  O  O21  1  0.06122800  0.17004800  0.78024700  1
  O  O22  1  0.98313300  0.65092500  0.95899100  1
  O  O23  1  0.01035000  0.89999500  0.79431700  1
  O  O24  1  0.55500500  0.23194400  0.61638100  1
  O  O25  1  0.61481500  0.92929400  0.21248200  1
  O  O26  1  0.61635200  0.55433700  0.57239300  1
  O  O27  1  0.84812200  0.55928100  0.72533600  1
  O  O28  1  0.07292200  0.77413400  0.22190900  1
  O  O29  1  0.35781300  0.95820200  0.27833900  1
  O  O30  1  0.70659800  0.93563200  0.97509400  1
  O  O31  1  0.35657200  0.62158300  0.28928000  1
  O  O32  1  0.47425500  0.39470800  0.43491400  1
  O  O33  1  0.00425400  0.77791600  0.57004400  1
  O  O34  1  0.86368500  0.55299800  0.48670800  1
  O  O35  1  0.01454900  0.27090900  0.16367800  1
  O  O36  1  0.82025400  0.68649600  0.18600300  1
  O  O37  1  0.37638000  0.64257800  0.54070700  1
  O  O38  1  0.18633100  0.54016600  0.14105000  1
  O  O39  1  0.63812500  0.64715600  0.34073600  1
  O  O40  1  0.27961700  0.84527500  0.11167400  1
  O  O41  1  0.70338400  0.44297500  0.98544800  1
  O  O42  1  0.41934900  0.60257500  0.00639100  1
  O  O43  1  0.69687800  0.17192800  0.11667500  1
  O  O44  1  0.30649600  0.04799700  0.80568600  1
  O  O45  1  0.23682400  0.81612600  0.87049600  1
  O  O46  1  0.49488100  0.84226500  0.96235000  1
  O  O47  1  0.82321700  0.89555100  0.35200600  1
  O  O48  1  0.48742700  0.39122400  0.14694600  1
  O  O49  1  0.75172500  0.40484400  0.24461100  1
  O  O50  1  0.13889300  0.06967900  0.00548000  1
  O  O51  1  0.49140200  0.77945100  0.74160400  1
  O  O52  1  0.49036600  0.50034600  0.78034500  1
  O  O53  1  0.60905700  0.99431800  0.75402800  1
  O  O54  1  0.30181400  0.33157700  0.64562800  1
  O  O55  1  0.98335000  0.51332200  0.26942500  1
  O  O56  1  0.42634400  0.07594700  0.04127300  1
  O  O57  1  0.69276500  0.66795600  0.88731300  1
  O  O58  1  0.31112900  0.12524500  0.45987100  1
  O  O59  1  0.88933300  0.99980900  0.14766400  1
loop_
_geom_bond_atom_site_label_1
_geom_bond_atom_site_label_2
_geom_bond_distance
_geom_bond_site_symmetry_2
Al0 O18 1.786108 1_555
Al0 O26 1.803590 1_555
Al0 O4 1.845466 1_555
Al0 O27 1.895060 1_555
Al0 O34 2.038338 1_555
Al1 O33 1.741787 1_655
Al1 O3 1.759890 1_555
Al1 O27 1.783803 1_555
Al1 O34 1.858841 1_555
Al2 O7 1.826467 1_565
Al2 O19 1.828116 1_555
Al2 O11 1.843670 1_555
Al2 O0 1.954220 1_565
Al2 O58 1.988875 1_565
Al3 O41 1.791368 1_555
Al3 O57 1.808734 1_555
Al3 O42 1.830530 1_556
Al3 O52 1.832906 1_555
Al4 O49 1.807862 1_555
Al4 O36 1.842514 1_555
Al4 O55 1.885570 1_555
Al4 O39 1.904840 1_555
Al4 O34 2.025113 1_555
Al5 O14 1.878993 1_555
Al5 O19 1.883007 1_555
Al5 O9 1.937042 1_555
Al5 O33 1.949617 1_555
Al5 O37 1.980951 1_555
Al5 O11 2.053247 1_555
Al6 O1 1.776541 1_555
Al6 O58 1.837947 1_555
Al6 O32 1.840787 1_555
Al6 O54 1.853200 1_555
Al7 O35 1.718316 1_655
Al7 O49 1.762697 1_555
Al7 O20 1.786748 1_555
Al7 O6 1.859510 1_655
Al7 O55 2.332202 1_555
Al8 O48 1.712209 1_555
Al8 O38 1.803273 1_555
Al8 O42 1.805558 1_555
Al8 O31 1.933189 1_555
Al9 O13 1.778473 1_555
Al9 O5 1.787146 1_555
Al9 O18 1.789939 1_555
Al9 O21 1.803395 1_655
Al9 O2 2.336019 1_655
Al10 O37 1.842087 1_555
Al10 O32 1.876058 1_555
Al10 O39 1.899870 1_555
Al10 O31 1.991086 1_555
Al10 O26 2.028208 1_555
Al11 O40 1.710355 1_556
Al11 O46 1.717862 1_555
Al11 O45 1.749403 1_555
Al11 O42 1.756654 1_556
Al12 O4 1.763846 1_555
Al12 O8 1.790456 1_555
Al12 O24 1.801627 1_555
Al12 O32 1.801672 1_555
Al13 O33 1.827060 1_655
Al13 O7 1.827134 1_665
Al13 O23 1.836820 1_655
Al13 O12 1.988226 1_565
Al13 O3 2.000410 1_555
Al14 O57 1.813538 1_555
Al14 O46 1.833263 1_555
Al14 O53 1.859746 1_555
Al14 O30 1.868623 1_555
Al14 O51 1.978134 1_555
Al15 O14 1.740763 1_555
Al15 O45 1.846691 1_555
Al15 O23 1.875925 1_555
Al15 O22 1.929599 1_455
Al16 O16 1.730860 1_545
Al16 O29 1.759906 1_545
Al16 O8 1.812799 1_555
Al16 O58 1.875233 1_555
Al17 O2 1.779855 1_555
Al17 O21 1.837724 1_555
Al17 O54 1.839907 1_555
Al17 O10 1.860208 1_555
Al18 O11 1.707959 1_555
Al18 O51 1.781034 1_555
Al18 O44 1.781040 1_565
Al18 O45 1.934718 1_555
Al19 O16 1.708186 1_555
Al19 O3 1.760964 1_555
Al19 O53 1.788252 1_555
Al19 O12 1.864667 1_565
Al20 O53 1.843645 1_545
Al20 O18 1.889897 1_555
Al20 O5 1.912567 1_555
Al20 O15 1.932643 1_555
Al20 O24 1.989747 1_555
Al20 O12 2.264661 1_555
Al21 O28 1.812042 1_655
Al21 O22 1.916893 1_554
Al21 O36 1.921264 1_555
Al21 O55 1.966663 1_555
Al21 O38 2.107895 1_655
Al22 O2 1.742733 1_555
Al22 O9 1.758391 1_555
Al22 O6 1.834720 1_555
Al22 O34 1.860400 1_455
Al23 O59 1.745173 1_555
Al23 O28 1.826033 1_655
Al23 O0 1.850473 1_665
Al23 O47 1.866948 1_555
Al24 O19 1.753684 1_555
Al24 O40 1.801375 1_555
Al24 O29 1.927297 1_555
Al24 O31 1.960151 1_555
Al24 O28 2.016677 1_555
Al25 O20 1.797443 1_555
Al25 O7 1.819112 1_655
Al25 O12 1.893802 1_555
Al25 O4 1.912437 1_555
Al25 O6 1.927495 1_655
Al26 O59 1.711184 1_545
Al26 O5 1.727440 1_554
Al26 O30 1.753533 1_544
Al26 O43 1.853722 1_555
Al27 O48 1.710274 1_555
Al27 O43 1.801937 1_555
Al27 O41 1.809660 1_554
Al27 O49 1.834750 1_555
Al28 O56 1.750293 1_556
Al28 O15 1.760069 1_555
Al28 O44 1.796854 1_555
Al28 O10 1.830004 1_555
Al29 O37 1.745617 1_555
Al29 O51 1.750736 1_555
Al29 O26 1.772708 1_555
Al29 O52 1.804724 1_555
Al30 O20 1.753087 1_555
Al30 O25 1.891621 1_545
Al30 O43 1.930247 1_555
Al30 O8 1.964483 1_555
Al30 O47 2.043551 1_545
Al30 O59 2.146031 1_545
Al31 O56 1.740526 1_565
Al31 O25 1.751391 1_555
Al31 O46 1.754674 1_554
Al31 O30 1.765452 1_554
Al32 O25 1.755020 1_555
Al32 O47 1.788682 1_555
Al32 O36 1.791606 1_555
Al32 O39 1.817034 1_555
Al33 O15 1.776707 1_555
Al33 O52 1.797367 1_555
Al33 O24 1.810317 1_555
Al33 O54 1.822129 1_555
Al34 O17 1.801130 1_555
Al34 O56 1.829882 1_555
Al34 O29 1.887769 1_545
Al34 O40 1.891332 1_545
Al34 O50 1.951401 1_555
Al35 O50 1.790055 1_556
Al35 O21 1.795411 1_555
Al35 O23 1.848550 1_545
Al35 O44 1.901201 1_555
Al35 O45 2.224063 1_545
Al36 O35 1.824526 1_555
Al36 O50 1.908800 1_555
Al36 O17 1.913485 1_555
Al36 O10 1.938846 1_554
Al36 O13 2.159429 1_454
Al37 O17 1.768115 1_555
Al37 O1 1.843799 1_555
Al37 O0 1.846842 1_555
Al37 O35 1.903273 1_555
Al37 O6 2.166178 1_555
Al38 O27 1.870905 1_555
Al38 O22 1.932278 1_555
Al38 O57 1.966060 1_555
Al38 O13 2.006237 1_555
Al38 O41 2.050463 1_555
Al39 O9 1.799784 1_555
Al39 O1 1.807362 1_555
Al39 O38 1.835459 1_555
Al39 O55 1.889159 1_455
Al39 O31 2.220263 1_555
