# generated using pymatgen
data_ThRe2SiC
_symmetry_space_group_name_H-M   'P 1'
_cell_length_a   5.91006826
_cell_length_b   5.91006826
_cell_length_c   7.32325000
_cell_angle_alpha   90.00000000
_cell_angle_beta   90.00000000
_cell_angle_gamma   140.02072354
_symmetry_Int_Tables_number   1
_chemical_formula_structural   ThRe2SiC
_chemical_formula_sum   'Th2 Re4 Si2 C2'
_cell_volume   164.34976201
_cell_formula_units_Z   2
loop_
 _symmetry_equiv_pos_site_id
 _symmetry_equiv_pos_as_xyz
  1  'x, y, z'
loop_
 _atom_site_type_symbol
 _atom_site_label
 _atom_site_symmetry_multiplicity
 _atom_site_fract_x
 _atom_site_fract_y
 _atom_site_fract_z
 _atom_site_occupancy
  Th  Th0  1  0.54582600  0.45417400  0.25000000  1
  Th  Th1  1  0.45417400  0.54582600  0.75000000  1
  Re  Re0  1  0.82741200  0.17258800  0.06289000  1
  Re  Re1  1  0.17258800  0.82741200  0.93711000  1
  Re  Re2  1  0.17258800  0.82741200  0.56289000  1
  Re  Re3  1  0.82741200  0.17258800  0.43711000  1
  Si  Si0  1  0.26566500  0.73433500  0.25000000  1
  Si  Si1  1  0.73433500  0.26566500  0.75000000  1
  C  C0  1  0.00000000  0.00000000  0.00000000  1
  C  C1  1  0.00000000  0.00000000  0.50000000  1
loop_
_geom_bond_atom_site_label_1
_geom_bond_atom_site_label_2
_geom_bond_distance
_geom_bond_site_symmetry_2
Re0 Si1 2.513829 1_554
Re0 Si0 2.535721 1_655
Re0 Si0 2.535721 1_545
Re1 Si0 2.513829 1_556
Re1 Si1 2.535721 1_565
Re1 Si1 2.535721 1_455
Re2 Si0 2.513829 1_555
Re2 Si1 2.535721 1_455
Re2 Si1 2.535721 1_565
Re3 Si1 2.513829 1_555
Re3 Si0 2.535721 1_655
Re3 Si0 2.535721 1_545
Si0 Th0 3.112036 1_555
Si0 Th0 3.169401 1_455
Si0 Th0 3.169401 1_565
Si1 Th1 3.112036 1_555
Si1 Th1 3.169401 1_545
Si1 Th1 3.169401 1_655
C0 Re1 1.971657 1_544
C0 Re0 1.971657 1_455
C0 Th1 2.773597 1_444
C0 Th0 2.773597 1_555
C0 Th0 2.773597 1_445
C0 Th1 2.773597 1_554
C1 Re3 1.971657 1_455
C1 Re2 1.971657 1_545
C1 Th1 2.773597 1_445
C1 Th0 2.773597 1_555
C1 Th1 2.773597 1_555
C1 Th0 2.773597 1_445
