# generated using pymatgen
data_Li3Ti2NbO6
_symmetry_space_group_name_H-M   'P 1'
_cell_length_a   6.79469397
_cell_length_b   6.79469397
_cell_length_c   6.10248120
_cell_angle_alpha   73.40320150
_cell_angle_beta   73.40320150
_cell_angle_gamma   24.91551918
_symmetry_Int_Tables_number   1
_chemical_formula_structural   Li3Ti2NbO6
_chemical_formula_sum   'Li3 Ti2 Nb1 O6'
_cell_volume   113.49952384
_cell_formula_units_Z   1
loop_
 _symmetry_equiv_pos_site_id
 _symmetry_equiv_pos_as_xyz
  1  'x, y, z'
loop_
 _atom_site_type_symbol
 _atom_site_label
 _atom_site_symmetry_multiplicity
 _atom_site_fract_x
 _atom_site_fract_y
 _atom_site_fract_z
 _atom_site_occupancy
  Li  Li0  1  0.50000000  0.50000000  0.50000000  1
  Li  Li1  1  0.16849900  0.16849900  0.17575100  1
  Li  Li2  1  0.83150100  0.83150100  0.82424900  1
  Ti  Ti0  1  0.15848100  0.15848100  0.68168500  1
  Ti  Ti1  1  0.84151900  0.84151900  0.31831500  1
  Nb  Nb0  1  0.50000000  0.50000000  0.00000000  1
  O  O0  1  0.67150400  0.67150400  0.90600500  1
  O  O1  1  0.32506400  0.32506400  0.56267700  1
  O  O2  1  0.32849600  0.32849600  0.09399500  1
  O  O3  1  0.00092600  0.00092600  0.26416400  1
  O  O4  1  0.99907400  0.99907400  0.73583600  1
  O  O5  1  0.67493600  0.67493600  0.43732300  1
loop_
_geom_bond_atom_site_label_1
_geom_bond_atom_site_label_2
_geom_bond_distance
_geom_bond_site_symmetry_2
Li0 O4 2.051702 1_455
Li0 O3 2.051702 1_565
Li0 O3 2.051702 1_655
Li0 O4 2.051702 1_545
Li0 O1 2.239485 1_555
Li0 O5 2.239485 1_555
Li1 O2 2.033873 1_555
Li1 O3 2.129226 1_555
Li1 O5 2.187113 1_545
Li1 O5 2.187113 1_455
Li1 O0 2.195751 1_544
Li1 O0 2.195751 1_454
Li2 O0 2.033873 1_555
Li2 O4 2.129226 1_555
Li2 O1 2.187113 1_655
Li2 O1 2.187113 1_565
Li2 O2 2.195751 1_566
Li2 O2 2.195751 1_656
Nb0 O2 2.178164 1_555
Nb0 O0 2.178164 1_554
Nb0 O4 2.181487 1_544
Nb0 O4 2.181487 1_454
Nb0 O3 2.181487 1_655
Nb0 O3 2.181487 1_565
O0 Ti0 2.047094 1_655
O0 Ti0 2.047094 1_565
O1 Ti1 2.056533 1_455
O1 Ti1 2.056533 1_545
O1 Ti0 2.115273 1_555
O2 Ti1 2.047094 1_455
O2 Ti1 2.047094 1_545
O3 Ti1 2.043159 1_445
O4 Ti0 2.043159 1_665
O5 Ti0 2.056533 1_655
O5 Ti0 2.056533 1_565
O5 Ti1 2.115273 1_555
