# generated using pymatgen
data_Mn2Nb2O9
_symmetry_space_group_name_H-M   'P 1'
_cell_length_a   4.96343989
_cell_length_b   4.96343989
_cell_length_c   14.34221200
_cell_angle_alpha   90.00000000
_cell_angle_beta   90.00000000
_cell_angle_gamma   119.99999850
_symmetry_Int_Tables_number   1
_chemical_formula_structural   Mn2Nb2O9
_chemical_formula_sum   'Mn4 Nb4 O18'
_cell_volume   305.99357594
_cell_formula_units_Z   2
loop_
 _symmetry_equiv_pos_site_id
 _symmetry_equiv_pos_as_xyz
  1  'x, y, z'
loop_
 _atom_site_type_symbol
 _atom_site_label
 _atom_site_symmetry_multiplicity
 _atom_site_fract_x
 _atom_site_fract_y
 _atom_site_fract_z
 _atom_site_occupancy
  Mn  Mn0  1  0.33333300  0.66666700  0.00000000  1
  Mn  Mn1  1  0.33333300  0.66666700  0.50000000  1
  Mn  Mn2  1  0.66666700  0.33333300  0.00000000  1
  Mn  Mn3  1  0.66666700  0.33333300  0.50000000  1
  Nb  Nb0  1  0.00000000  0.00000000  0.66020200  1
  Nb  Nb1  1  0.00000000  0.00000000  0.16020200  1
  Nb  Nb2  1  0.00000000  0.00000000  0.83979800  1
  Nb  Nb3  1  0.00000000  0.00000000  0.33979800  1
  O  O0  1  0.65121500  0.65121500  0.57578900  1
  O  O1  1  0.00000000  0.70656100  0.75000000  1
  O  O2  1  0.65121500  0.00000000  0.42421100  1
  O  O3  1  0.34878500  0.34878500  0.42421100  1
  O  O4  1  0.00000000  0.34878500  0.57578900  1
  O  O5  1  0.70656100  0.70656100  0.25000000  1
  O  O6  1  0.00000000  0.34878500  0.92421100  1
  O  O7  1  0.34878500  0.00000000  0.57578900  1
  O  O8  1  0.34878500  0.34878500  0.07578900  1
  O  O9  1  0.00000000  0.65121500  0.42421100  1
  O  O10  1  0.65121500  0.65121500  0.92421100  1
  O  O11  1  0.65121500  0.00000000  0.07578900  1
  O  O12  1  0.70656100  0.00000000  0.75000000  1
  O  O13  1  0.29343900  0.29343900  0.75000000  1
  O  O14  1  0.29343900  0.00000000  0.25000000  1
  O  O15  1  0.00000000  0.65121500  0.07578900  1
  O  O16  1  0.00000000  0.29343900  0.25000000  1
  O  O17  1  0.34878500  0.00000000  0.92421100  1
loop_
_geom_bond_atom_site_label_1
_geom_bond_atom_site_label_2
_geom_bond_distance
_geom_bond_site_symmetry_2
Mn0 O15 1.948800 1_555
Mn0 O17 1.948800 1_564
Mn0 O11 1.948802 1_565
Mn0 O6 1.948802 1_554
Mn0 O10 1.948804 1_554
Mn0 O8 1.948804 1_555
Mn1 O7 1.948800 1_565
Mn1 O9 1.948800 1_555
Mn1 O2 1.948802 1_565
Mn1 O4 1.948802 1_555
Mn1 O3 1.948804 1_555
Mn1 O0 1.948804 1_555
Mn2 O6 1.948800 1_654
Mn2 O11 1.948800 1_555
Mn2 O15 1.948802 1_655
Mn2 O17 1.948802 1_554
Mn2 O10 1.948804 1_554
Mn2 O8 1.948804 1_555
Mn3 O4 1.948800 1_655
Mn3 O2 1.948800 1_555
Mn3 O9 1.948802 1_655
Mn3 O7 1.948802 1_555
Mn3 O3 1.948804 1_555
Mn3 O0 1.948804 1_555
Nb0 O1 1.944219 1_545
Nb0 O12 1.944219 1_455
Nb0 O13 1.944219 1_555
Nb0 O7 2.112506 1_555
Nb0 O4 2.112506 1_555
Nb0 O0 2.112506 1_445
Nb1 O14 1.944219 1_555
Nb1 O16 1.944219 1_555
Nb1 O5 1.944219 1_445
Nb1 O15 2.112506 1_545
Nb1 O11 2.112506 1_455
Nb1 O8 2.112506 1_555
Nb2 O1 1.944219 1_545
Nb2 O12 1.944219 1_455
Nb2 O13 1.944219 1_555
Nb2 O17 2.112506 1_555
Nb2 O6 2.112506 1_555
Nb2 O10 2.112506 1_445
Nb3 O16 1.944219 1_555
Nb3 O14 1.944219 1_555
Nb3 O5 1.944219 1_445
Nb3 O2 2.112506 1_455
Nb3 O9 2.112506 1_545
Nb3 O3 2.112506 1_555
