# generated using pymatgen
data_In5AgSe8
_symmetry_space_group_name_H-M   'P 1'
_cell_length_a   7.18584672
_cell_length_b   7.18584672
_cell_length_c   8.36073279
_cell_angle_alpha   89.76935222
_cell_angle_beta   90.23064778
_cell_angle_gamma   70.99023953
_symmetry_Int_Tables_number   1
_chemical_formula_structural   In5AgSe8
_chemical_formula_sum   'In5 Ag1 Se8'
_cell_volume   408.16370868
_cell_formula_units_Z   1
loop_
 _symmetry_equiv_pos_site_id
 _symmetry_equiv_pos_as_xyz
  1  'x, y, z'
loop_
 _atom_site_type_symbol
 _atom_site_label
 _atom_site_symmetry_multiplicity
 _atom_site_fract_x
 _atom_site_fract_y
 _atom_site_fract_z
 _atom_site_occupancy
  In  In0  1  0.01165823  0.01165823  0.50000000  1
  In  In1  1  0.48788051  0.48788051  0.00000000  1
  In  In2  1  0.49802817  0.49802817  0.50000000  1
  In  In3  1  0.01315122  0.48493056  0.75668660  1
  In  In4  1  0.48493056  0.01315122  0.24331340  1
  Ag  Ag0  1  0.00347585  0.00347585  0.00000000  1
  Se  Se0  1  0.61550838  0.11069522  0.98118840  1
  Se  Se1  1  0.11256412  0.62184438  0.48362069  1
  Se  Se2  1  0.11069522  0.61550838  0.01881160  1
  Se  Se3  1  0.62184438  0.11256412  0.51637931  1
  Se  Se4  1  0.10929725  0.16630861  0.25126757  1
  Se  Se5  1  0.62107747  0.64358104  0.75149855  1
  Se  Se6  1  0.16630861  0.10929725  0.74873243  1
  Se  Se7  1  0.64358104  0.62107747  0.24850145  1
loop_
_geom_bond_atom_site_label_1
_geom_bond_atom_site_label_2
_geom_bond_distance
_geom_bond_site_symmetry_2
In0 Se6 2.559884 1_555
In0 Se4 2.559884 1_555
In0 Se1 2.659254 1_545
In0 Se3 2.659254 1_455
In1 Se0 2.568524 1_554
In1 Se2 2.568524 1_555
In1 Se5 2.679456 1_554
In1 Se7 2.679456 1_555
In2 Se3 2.621663 1_555
In2 Se1 2.621663 1_555
In2 Se5 2.627242 1_555
In2 Se7 2.627242 1_555
In3 Se6 2.562876 1_555
In3 Se2 2.570470 1_556
In3 Se1 2.672714 1_555
In3 Se5 2.673087 1_455
In4 Se4 2.562876 1_555
In4 Se0 2.570470 1_554
In4 Se3 2.672714 1_555
In4 Se7 2.673087 1_545
Ag0 Se4 2.635753 1_555
Ag0 Se6 2.635753 1_554
Ag0 Se0 2.643253 1_454
Ag0 Se2 2.643253 1_545
