# generated using pymatgen
data_TeMoWSeS2
_symmetry_space_group_name_H-M   'P 1'
_cell_length_a   3.30428770
_cell_length_b   3.30428770
_cell_length_c   37.59602700
_cell_angle_alpha   90.00000000
_cell_angle_beta   90.00000000
_cell_angle_gamma   119.99999394
_symmetry_Int_Tables_number   1
_chemical_formula_structural   TeMoWSeS2
_chemical_formula_sum   'Te2 Mo2 W2 Se2 S4'
_cell_volume   355.49076075
_cell_formula_units_Z   2
loop_
 _symmetry_equiv_pos_site_id
 _symmetry_equiv_pos_as_xyz
  1  'x, y, z'
loop_
 _atom_site_type_symbol
 _atom_site_label
 _atom_site_symmetry_multiplicity
 _atom_site_fract_x
 _atom_site_fract_y
 _atom_site_fract_z
 _atom_site_occupancy
  Te  Te0  1  0.33333300  0.66666700  0.04309400  1
  Te  Te1  1  0.33333300  0.66666700  0.14472100  1
  Mo  Mo0  1  0.00000000  0.00000000  0.09389000  1
  Mo  Mo1  1  0.00000000  0.00000000  0.46963200  1
  W  W0  1  0.33333300  0.66666700  0.28179300  1
  W  W1  1  0.33333300  0.66666700  0.65755500  1
  Se  Se0  1  0.33333300  0.66666700  0.42501700  1
  Se  Se1  1  0.33333300  0.66666700  0.51432400  1
  S  S0  1  0.00000000  0.00000000  0.32260300  1
  S  S1  1  0.00000000  0.00000000  0.69834000  1
  S  S2  1  0.00000000  0.00000000  0.24102300  1
  S  S3  1  0.00000000  0.00000000  0.61675500  1
loop_
_geom_bond_atom_site_label_1
_geom_bond_atom_site_label_2
_geom_bond_distance
_geom_bond_site_symmetry_2
Mo0 Te0 2.699350 1_545
Mo0 Te0 2.699352 1_445
Mo0 Te0 2.699352 1_555
Mo0 Te1 2.700281 1_545
Mo0 Te1 2.700283 1_445
Mo0 Te1 2.700283 1_555
Mo1 Se0 2.540261 1_545
Mo1 Se0 2.540263 1_555
Mo1 Se0 2.540263 1_445
Mo1 Se1 2.542173 1_545
Mo1 Se1 2.542175 1_445
Mo1 Se1 2.542175 1_555
S0 W0 2.448160 1_545
S0 W0 2.448163 1_445
S0 W0 2.448163 1_555
S1 W1 2.447571 1_545
S1 W1 2.447574 1_445
S1 W1 2.447574 1_555
S2 W0 2.447218 1_545
S2 W0 2.447221 1_445
S2 W0 2.447221 1_555
S3 W1 2.447925 1_545
S3 W1 2.447927 1_445
S3 W1 2.447927 1_555
