# generated using pymatgen
data_Er4BClO7
_symmetry_space_group_name_H-M   'P 1'
_cell_length_a   7.92638122
_cell_length_b   8.45155153
_cell_length_c   12.03556699
_cell_angle_alpha   60.74184630
_cell_angle_beta   90.00000000
_cell_angle_gamma   90.00000000
_symmetry_Int_Tables_number   1
_chemical_formula_structural   Er4BClO7
_chemical_formula_sum   'Er16 B4 Cl4 O28'
_cell_volume   703.40715980
_cell_formula_units_Z   4
loop_
 _symmetry_equiv_pos_site_id
 _symmetry_equiv_pos_as_xyz
  1  'x, y, z'
loop_
 _atom_site_type_symbol
 _atom_site_label
 _atom_site_symmetry_multiplicity
 _atom_site_fract_x
 _atom_site_fract_y
 _atom_site_fract_z
 _atom_site_occupancy
  Er  Er0  1  0.62439892  0.79598830  0.22241924  1
  Er  Er1  1  0.87560108  0.79598830  0.72241924  1
  Er  Er2  1  0.37560108  0.20401170  0.77758076  1
  Er  Er3  1  0.12439892  0.20401170  0.27758076  1
  Er  Er4  1  0.61717087  0.42629922  0.90757348  1
  Er  Er5  1  0.88282913  0.42629922  0.40757348  1
  Er  Er6  1  0.38282913  0.57370078  0.09242652  1
  Er  Er7  1  0.11717087  0.57370078  0.59242652  1
  Er  Er8  1  0.63979285  0.56833757  0.58130717  1
  Er  Er9  1  0.86020715  0.56833757  0.08130717  1
  Er  Er10  1  0.36020715  0.43166243  0.41869283  1
  Er  Er11  1  0.13979285  0.43166243  0.91869283  1
  Er  Er12  1  0.61434079  0.18197669  0.27852053  1
  Er  Er13  1  0.88565921  0.18197669  0.77852053  1
  Er  Er14  1  0.38565921  0.81802331  0.72147947  1
  Er  Er15  1  0.11434079  0.81802331  0.22147947  1
  B  B0  1  0.86908875  0.87022971  0.41387182  1
  B  B1  1  0.63091125  0.87022971  0.91387182  1
  B  B2  1  0.13091125  0.12977029  0.58612818  1
  B  B3  1  0.36908875  0.12977029  0.08612818  1
  Cl  Cl0  1  0.84736831  0.11858426  0.03113113  1
  Cl  Cl1  1  0.65263169  0.11858426  0.53113113  1
  Cl  Cl2  1  0.15263169  0.88141574  0.96886887  1
  Cl  Cl3  1  0.34736831  0.88141574  0.46886887  1
  O  O0  1  0.62234589  0.53977518  0.40275173  1
  O  O1  1  0.87765411  0.53977518  0.90275173  1
  O  O2  1  0.37765411  0.46022482  0.59724827  1
  O  O3  1  0.12234589  0.46022482  0.09724827  1
  O  O4  1  0.63767909  0.31108021  0.77238019  1
  O  O5  1  0.86232091  0.31108021  0.27238019  1
  O  O6  1  0.36232091  0.68891979  0.22761981  1
  O  O7  1  0.13767909  0.68891979  0.72761981  1
  O  O8  1  0.61746228  0.68009291  0.71766558  1
  O  O9  1  0.88253772  0.68009291  0.21766558  1
  O  O10  1  0.38253772  0.31990709  0.28233442  1
  O  O11  1  0.11746228  0.31990709  0.78233442  1
  O  O12  1  0.62076669  0.42469203  0.09270234  1
  O  O13  1  0.87923331  0.42469203  0.59270234  1
  O  O14  1  0.37923331  0.57530797  0.90729766  1
  O  O15  1  0.12076669  0.57530797  0.40729766  1
  O  O16  1  0.89080734  0.77251564  0.54375354  1
  O  O17  1  0.60919266  0.77251564  0.04375354  1
  O  O18  1  0.10919266  0.22748436  0.45624646  1
  O  O19  1  0.39080734  0.22748436  0.95624646  1
  O  O20  1  0.00326057  0.93956359  0.33325637  1
  O  O21  1  0.49673943  0.93956359  0.83325637  1
  O  O22  1  0.99673943  0.06043641  0.66674363  1
  O  O23  1  0.50326057  0.06043641  0.16674363  1
  O  O24  1  0.70904982  0.88663682  0.36622098  1
  O  O25  1  0.79095018  0.88663682  0.86622098  1
  O  O26  1  0.29095018  0.11336318  0.63377902  1
  O  O27  1  0.20904982  0.11336318  0.13377902  1
loop_
_geom_bond_atom_site_label_1
_geom_bond_atom_site_label_2
_geom_bond_distance
_geom_bond_site_symmetry_2
Er0 O0 2.192229 1_555
Er0 O23 2.214104 1_565
Er0 O6 2.254482 1_555
Er0 O17 2.257175 1_555
Er0 O9 2.281231 1_555
Er0 O24 2.308398 1_555
Er1 O1 2.192229 1_555
Er1 O22 2.214104 1_565
Er1 O7 2.254482 1_655
Er1 O16 2.257175 1_555
Er1 O8 2.281231 1_555
Er1 O25 2.308398 1_555
Er2 O2 2.192229 1_555
Er2 O21 2.214104 1_545
Er2 O4 2.254482 1_555
Er2 O19 2.257175 1_555
Er2 O11 2.281231 1_555
Er2 O26 2.308398 1_555
Er3 O3 2.192229 1_555
Er3 O20 2.214104 1_545
Er3 O5 2.254482 1_455
Er3 O18 2.257175 1_555
Er3 O10 2.281231 1_555
Er3 O27 2.308398 1_555
Er4 O12 2.221706 1_556
Er4 O8 2.243381 1_555
Er4 O1 2.265321 1_555
Er4 O14 2.266900 1_555
Er4 O4 2.273986 1_555
Er4 O19 2.328883 1_555
Er5 O13 2.221706 1_555
Er5 O9 2.243381 1_555
Er5 O0 2.265321 1_555
Er5 O15 2.266900 1_655
Er5 O5 2.273986 1_555
Er5 O18 2.328883 1_655
Er6 O14 2.221706 1_554
Er6 O10 2.243381 1_555
Er6 O3 2.265321 1_555
Er6 O12 2.266900 1_555
Er6 O6 2.273986 1_555
Er6 O17 2.328883 1_555
Er7 O15 2.221706 1_555
Er7 O11 2.243381 1_555
Er7 O2 2.265321 1_555
Er7 O13 2.266900 1_455
Er7 O7 2.273986 1_555
Er7 O16 2.328883 1_455
Er8 O13 2.220795 1_555
Er8 O2 2.240008 1_555
Er8 O4 2.264634 1_555
Er8 O8 2.265388 1_555
Er8 O0 2.280955 1_555
Er8 O16 2.525533 1_555
Er8 O24 2.726219 1_555
Er9 O12 2.220795 1_555
Er9 O3 2.240008 1_655
Er9 O5 2.264634 1_555
Er9 O9 2.265388 1_555
Er9 O1 2.280955 1_554
Er9 O17 2.525533 1_555
Er9 O25 2.726219 1_554
Er10 O15 2.220795 1_555
Er10 O0 2.240008 1_555
Er10 O6 2.264634 1_555
Er10 O10 2.265388 1_555
Er10 O2 2.280955 1_555
Er10 O18 2.525533 1_555
Er10 O26 2.726219 1_555
Er11 O14 2.220795 1_555
Er11 O1 2.240008 1_455
Er11 O7 2.264634 1_555
Er11 O11 2.265388 1_555
Er11 O3 2.280955 1_556
Er11 O19 2.525533 1_555
Er11 O27 2.726219 1_556
Er12 O12 2.174340 1_555
Er12 O10 2.188428 1_555
Er12 O5 2.231752 1_555
Er12 O23 2.234051 1_555
Er12 O24 2.309270 1_545
Er13 O13 2.174340 1_555
Er13 O11 2.188428 1_655
Er13 O4 2.231752 1_555
Er13 O22 2.234051 1_555
Er13 O25 2.309270 1_545
Er14 O14 2.174340 1_555
Er14 O8 2.188428 1_555
Er14 O7 2.231752 1_555
Er14 O21 2.234051 1_555
Er14 O26 2.309270 1_565
Er15 O15 2.174340 1_555
Er15 O9 2.188428 1_455
Er15 O6 2.231752 1_555
Er15 O20 2.234051 1_555
Er15 O27 2.309270 1_565
B0 O20 1.363832 1_655
B0 O24 1.370973 1_555
B0 O16 1.375989 1_555
B1 O21 1.363832 1_555
B1 O25 1.370973 1_555
B1 O17 1.375989 1_556
B2 O22 1.363832 1_455
B2 O26 1.370973 1_555
B2 O18 1.375989 1_555
B3 O23 1.363832 1_555
B3 O27 1.370973 1_555
B3 O19 1.375989 1_554
Cl0 Er13 2.833801 1_554
Cl0 Er4 2.919559 1_554
Cl0 Er0 3.117960 1_545
Cl0 Er15 3.238919 1_645
Cl0 Er11 3.271850 1_654
Cl1 Er12 2.833801 1_555
Cl1 Er5 2.919559 1_555
Cl1 Er1 3.117960 1_545
Cl1 Er14 3.238919 1_545
Cl1 Er10 3.271850 1_555
Cl2 Er15 2.833801 1_556
Cl2 Er6 2.919559 1_556
Cl2 Er2 3.117960 1_565
Cl2 Er13 3.238919 1_465
Cl2 Er9 3.271850 1_456
Cl3 Er14 2.833801 1_555
Cl3 Er7 2.919559 1_555
Cl3 Er3 3.117960 1_565
Cl3 Er12 3.238919 1_565
Cl3 Er8 3.271850 1_555
