# generated using pymatgen
data_Mn3V2(SiO4)3
_symmetry_space_group_name_H-M   'P 1'
_cell_length_a   10.38617685
_cell_length_b   10.38617685
_cell_length_c   10.38617685
_cell_angle_alpha   109.47122063
_cell_angle_beta   109.47122063
_cell_angle_gamma   109.47122063
_symmetry_Int_Tables_number   1
_chemical_formula_structural   Mn3V2(SiO4)3
_chemical_formula_sum   'Mn12 V8 Si12 O48'
_cell_volume   862.47248508
_cell_formula_units_Z   4
loop_
 _symmetry_equiv_pos_site_id
 _symmetry_equiv_pos_as_xyz
  1  'x, y, z'
loop_
 _atom_site_type_symbol
 _atom_site_label
 _atom_site_symmetry_multiplicity
 _atom_site_fract_x
 _atom_site_fract_y
 _atom_site_fract_z
 _atom_site_occupancy
  Mn  Mn0  1  0.87500000  0.62500000  0.25000000  1
  Mn  Mn1  1  0.62500000  0.25000000  0.87500000  1
  Mn  Mn2  1  0.87500000  0.75000000  0.62500000  1
  Mn  Mn3  1  0.75000000  0.62500000  0.87500000  1
  Mn  Mn4  1  0.25000000  0.87500000  0.62500000  1
  Mn  Mn5  1  0.62500000  0.87500000  0.75000000  1
  Mn  Mn6  1  0.12500000  0.37500000  0.75000000  1
  Mn  Mn7  1  0.37500000  0.75000000  0.12500000  1
  Mn  Mn8  1  0.12500000  0.25000000  0.37500000  1
  Mn  Mn9  1  0.25000000  0.37500000  0.12500000  1
  Mn  Mn10  1  0.75000000  0.12500000  0.37500000  1
  Mn  Mn11  1  0.37500000  0.12500000  0.25000000  1
  V  V0  1  0.50000000  0.50000000  0.50000000  1
  V  V1  1  0.50000000  0.00000000  0.50000000  1
  V  V2  1  0.00000000  0.50000000  0.50000000  1
  V  V3  1  0.50000000  0.50000000  0.00000000  1
  V  V4  1  0.00000000  0.00000000  0.50000000  1
  V  V5  1  0.00000000  0.50000000  0.00000000  1
  V  V6  1  0.50000000  0.00000000  0.00000000  1
  V  V7  1  0.00000000  0.00000000  0.00000000  1
  Si  Si0  1  0.12500000  0.87500000  0.25000000  1
  Si  Si1  1  0.87500000  0.12500000  0.75000000  1
  Si  Si2  1  0.25000000  0.62500000  0.37500000  1
  Si  Si3  1  0.37500000  0.25000000  0.62500000  1
  Si  Si4  1  0.75000000  0.87500000  0.12500000  1
  Si  Si5  1  0.12500000  0.75000000  0.87500000  1
  Si  Si6  1  0.37500000  0.62500000  0.75000000  1
  Si  Si7  1  0.62500000  0.75000000  0.37500000  1
  Si  Si8  1  0.87500000  0.25000000  0.12500000  1
  Si  Si9  1  0.25000000  0.12500000  0.87500000  1
  Si  Si10  1  0.75000000  0.37500000  0.62500000  1
  Si  Si11  1  0.62500000  0.37500000  0.25000000  1
  O  O0  1  0.69373100  0.08806300  0.70908900  1
  O  O1  1  0.10566800  0.98464200  0.69373100  1
  O  O2  1  0.70908900  0.51535800  0.62102600  1
  O  O3  1  0.62102600  0.70908900  0.51535800  1
  O  O4  1  0.87897400  0.39433200  0.08806300  1
  O  O5  1  0.08806300  0.87897400  0.39433200  1
  O  O6  1  0.98464200  0.69373100  0.10566800  1
  O  O7  1  0.41193700  0.10566800  0.62102600  1
  O  O8  1  0.39433200  0.80626900  0.51535800  1
  O  O9  1  0.98464200  0.79091100  0.87897400  1
  O  O10  1  0.10566800  0.62102600  0.41193700  1
  O  O11  1  0.51535800  0.39433200  0.80626900  1
  O  O12  1  0.79091100  0.87897400  0.98464200  1
  O  O13  1  0.70908900  0.69373100  0.08806300  1
  O  O14  1  0.08806300  0.70908900  0.69373100  1
  O  O15  1  0.62102600  0.41193700  0.10566800  1
  O  O16  1  0.79091100  0.41193700  0.80626900  1
  O  O17  1  0.80626900  0.51535800  0.39433200  1
  O  O18  1  0.80626900  0.79091100  0.41193700  1
  O  O19  1  0.87897400  0.98464200  0.79091100  1
  O  O20  1  0.48464200  0.37897400  0.29091100  1
  O  O21  1  0.39433200  0.08806300  0.87897400  1
  O  O22  1  0.69373100  0.10566800  0.98464200  1
  O  O23  1  0.51535800  0.62102600  0.70908900  1
  O  O24  1  0.30626900  0.91193700  0.29091100  1
  O  O25  1  0.89433200  0.01535800  0.30626900  1
  O  O26  1  0.29091100  0.48464200  0.37897400  1
  O  O27  1  0.37897400  0.29091100  0.48464200  1
  O  O28  1  0.12102600  0.60566800  0.91193700  1
  O  O29  1  0.91193700  0.12102600  0.60566800  1
  O  O30  1  0.01535800  0.30626900  0.89433200  1
  O  O31  1  0.58806300  0.89433200  0.37897400  1
  O  O32  1  0.60566800  0.19373100  0.48464200  1
  O  O33  1  0.01535800  0.20908900  0.12102600  1
  O  O34  1  0.89433200  0.37897400  0.58806300  1
  O  O35  1  0.48464200  0.60566800  0.19373100  1
  O  O36  1  0.20908900  0.12102600  0.01535800  1
  O  O37  1  0.29091100  0.30626900  0.91193700  1
  O  O38  1  0.91193700  0.29091100  0.30626900  1
  O  O39  1  0.37897400  0.58806300  0.89433200  1
  O  O40  1  0.20908900  0.58806300  0.19373100  1
  O  O41  1  0.19373100  0.48464200  0.60566800  1
  O  O42  1  0.19373100  0.20908900  0.58806300  1
  O  O43  1  0.12102600  0.01535800  0.20908900  1
  O  O44  1  0.58806300  0.19373100  0.20908900  1
  O  O45  1  0.60566800  0.91193700  0.12102600  1
  O  O46  1  0.30626900  0.89433200  0.01535800  1
  O  O47  1  0.41193700  0.80626900  0.79091100  1
loop_
_geom_bond_atom_site_label_1
_geom_bond_atom_site_label_2
_geom_bond_distance
_geom_bond_site_symmetry_2
Mn0 O15 2.315825 1_555
Mn0 O5 2.315825 1_655
Mn0 O6 2.315825 1_555
Mn0 O17 2.315825 1_555
Mn0 O18 2.448690 1_555
Mn0 O4 2.448690 1_555
Mn0 O13 2.448690 1_555
Mn0 O10 2.448690 1_655
Mn1 O22 2.315825 1_555
Mn1 O7 2.315825 1_555
Mn1 O11 2.315825 1_555
Mn1 O4 2.315825 1_556
Mn1 O21 2.448690 1_555
Mn1 O0 2.448690 1_555
Mn1 O16 2.448690 1_555
Mn1 O15 2.448690 1_556
Mn2 O3 2.315825 1_555
Mn2 O14 2.315825 1_655
Mn2 O9 2.315825 1_555
Mn2 O18 2.315825 1_555
Mn2 O17 2.448690 1_555
Mn2 O19 2.448690 1_555
Mn2 O2 2.448690 1_555
Mn2 O1 2.448690 1_655
Mn3 O12 2.315825 1_555
Mn3 O2 2.315825 1_555
Mn3 O16 2.315825 1_555
Mn3 O13 2.315825 1_556
Mn3 O11 2.448690 1_555
Mn3 O23 2.448690 1_555
Mn3 O9 2.448690 1_555
Mn3 O6 2.448690 1_556
Mn4 O8 2.315825 1_555
Mn4 O21 2.315825 1_565
Mn4 O10 2.315825 1_555
Mn4 O1 2.315825 1_555
Mn4 O5 2.448690 1_555
Mn4 O47 2.448690 1_555
Mn4 O14 2.448690 1_555
Mn4 O7 2.448690 1_565
Mn5 O19 2.315825 1_555
Mn5 O23 2.315825 1_555
Mn5 O47 2.315825 1_555
Mn5 O0 2.315825 1_565
Mn5 O8 2.448690 1_555
Mn5 O3 2.448690 1_555
Mn5 O12 2.448690 1_555
Mn5 O22 2.448690 1_565
Mn6 O39 2.315825 1_555
Mn6 O29 2.315825 1_455
Mn6 O41 2.315825 1_555
Mn6 O30 2.315825 1_555
Mn6 O34 2.448690 1_455
Mn6 O37 2.448690 1_555
Mn6 O28 2.448690 1_555
Mn6 O42 2.448690 1_555
Mn7 O31 2.315825 1_555
Mn7 O46 2.315825 1_555
Mn7 O28 2.315825 1_554
Mn7 O35 2.315825 1_555
Mn7 O39 2.448690 1_554
Mn7 O24 2.448690 1_555
Mn7 O40 2.448690 1_555
Mn7 O45 2.448690 1_555
Mn8 O27 2.315825 1_555
Mn8 O38 2.315825 1_455
Mn8 O42 2.315825 1_555
Mn8 O33 2.315825 1_555
Mn8 O25 2.448690 1_455
Mn8 O43 2.448690 1_555
Mn8 O41 2.448690 1_555
Mn8 O26 2.448690 1_555
Mn9 O26 2.315825 1_555
Mn9 O37 2.315825 1_554
Mn9 O40 2.315825 1_555
Mn9 O36 2.315825 1_555
Mn9 O33 2.448690 1_555
Mn9 O35 2.448690 1_555
Mn9 O30 2.448690 1_554
Mn9 O20 2.448690 1_555
Mn10 O32 2.315825 1_555
Mn10 O34 2.315825 1_555
Mn10 O25 2.315825 1_555
Mn10 O45 2.315825 1_545
Mn10 O38 2.448690 1_555
Mn10 O29 2.448690 1_555
Mn10 O44 2.448690 1_555
Mn10 O31 2.448690 1_545
Mn11 O20 2.315825 1_555
Mn11 O44 2.315825 1_555
Mn11 O24 2.315825 1_545
Mn11 O43 2.315825 1_555
Mn11 O36 2.448690 1_555
Mn11 O46 2.448690 1_545
Mn11 O32 2.448690 1_555
Mn11 O27 2.448690 1_555
O0 Si1 1.657937 1_555
O0 V1 2.033976 1_555
O1 Si9 1.657937 1_565
O1 V4 2.033976 1_565
O2 Si10 1.657937 1_555
O2 V0 2.033976 1_555
O3 Si7 1.657937 1_555
O3 V0 2.033976 1_555
O4 Si8 1.657937 1_555
O4 V5 2.033976 1_655
O5 Si0 1.657937 1_555
O5 V4 2.033976 1_565
O6 Si0 1.657937 1_655
O6 V5 2.033976 1_655
O7 Si3 1.657937 1_555
O7 V1 2.033976 1_555
O8 Si2 1.657937 1_555
O8 V1 2.033976 1_565
O9 Si5 1.657937 1_655
O9 V7 2.033976 1_666
O10 Si2 1.657937 1_555
O10 V2 2.033976 1_555
O11 Si3 1.657937 1_555
O11 V3 2.033976 1_556
O12 Si4 1.657937 1_556
O12 V7 2.033976 1_666
O13 Si4 1.657937 1_555
O13 V3 2.033976 1_555
O14 Si5 1.657937 1_555
O14 V2 2.033976 1_555
O15 Si11 1.657937 1_555
O15 V3 2.033976 1_555
O16 Si10 1.657937 1_555
O16 V5 2.033976 1_656
O17 Si11 1.657937 1_555
O17 V2 2.033976 1_655
O18 Si7 1.657937 1_555
O18 V4 2.033976 1_665
O19 Si1 1.657937 1_565
O19 V7 2.033976 1_666
O20 Si11 1.657937 1_555
O20 V0 2.033976 1_555
O21 Si9 1.657937 1_555
O21 V6 2.033976 1_556
O22 Si8 1.657937 1_556
O22 V6 2.033976 1_556
O23 Si6 1.657937 1_555
O23 V0 2.033976 1_555
O24 Si0 1.657937 1_555
O24 V1 2.033976 1_565
O25 Si4 1.657937 1_545
O25 V4 2.033976 1_655
O26 Si2 1.657937 1_555
O26 V0 2.033976 1_555
O27 Si3 1.657937 1_555
O27 V0 2.033976 1_555
O28 Si5 1.657937 1_555
O28 V5 2.033976 1_556
O29 Si1 1.657937 1_555
O29 V4 2.033976 1_655
O30 Si1 1.657937 1_455
O30 V5 2.033976 1_556
O31 Si7 1.657937 1_555
O31 V1 2.033976 1_565
O32 Si10 1.657937 1_555
O32 V1 2.033976 1_555
O33 Si8 1.657937 1_455
O33 V7 2.033976 1_555
O34 Si10 1.657937 1_555
O34 V2 2.033976 1_655
O35 Si7 1.657937 1_555
O35 V3 2.033976 1_555
O36 Si9 1.657937 1_554
O36 V7 2.033976 1_555
O37 Si9 1.657937 1_555
O37 V3 2.033976 1_556
O38 Si8 1.657937 1_555
O38 V2 2.033976 1_655
O39 Si6 1.657937 1_555
O39 V3 2.033976 1_556
O40 Si2 1.657937 1_555
O40 V5 2.033976 1_555
O41 Si6 1.657937 1_555
O41 V2 2.033976 1_555
O42 Si3 1.657937 1_555
O42 V4 2.033976 1_555
O43 Si0 1.657937 1_545
O43 V7 2.033976 1_555
O44 Si11 1.657937 1_555
O44 V6 2.033976 1_555
O45 Si4 1.657937 1_555
O45 V6 2.033976 1_565
O46 Si5 1.657937 1_554
O46 V6 2.033976 1_565
O47 Si6 1.657937 1_555
O47 V6 2.033976 1_566
