# generated using pymatgen
data_K3SnSb3
_symmetry_space_group_name_H-M   'P 1'
_cell_length_a   9.20612927
_cell_length_b   9.20612927
_cell_length_c   7.04304959
_cell_angle_alpha   84.42511683
_cell_angle_beta   84.42511683
_cell_angle_gamma   27.76196383
_symmetry_Int_Tables_number   1
_chemical_formula_structural   K3SnSb3
_chemical_formula_sum   'K3 Sn1 Sb3'
_cell_volume   276.64847904
_cell_formula_units_Z   1
loop_
 _symmetry_equiv_pos_site_id
 _symmetry_equiv_pos_as_xyz
  1  'x, y, z'
loop_
 _atom_site_type_symbol
 _atom_site_label
 _atom_site_symmetry_multiplicity
 _atom_site_fract_x
 _atom_site_fract_y
 _atom_site_fract_z
 _atom_site_occupancy
  K  K0  1  0.00254300  0.00254300  0.99904600  1
  K  K1  1  0.70591200  0.70591200  0.74949600  1
  K  K2  1  0.28990400  0.28990400  0.25208700  1
  Sn  Sn0  1  0.08433500  0.08433500  0.50794400  1
  Sb  Sb0  1  0.37242600  0.37242600  0.74707800  1
  Sb  Sb1  1  0.62555300  0.62555300  0.24819600  1
  Sb  Sb2  1  0.91932600  0.91932600  0.49615300  1
loop_
_geom_bond_atom_site_label_1
_geom_bond_atom_site_label_2
_geom_bond_distance
_geom_bond_site_symmetry_2
K0 Sn0 3.617879 1_555
K0 Sb2 3.664467 1_446
K0 Sb1 3.682914 1_546
K0 Sb1 3.682914 1_456
K0 Sb0 3.776577 1_545
K0 Sb0 3.776577 1_455
K0 Sb2 3.976435 1_445
K1 Sn0 3.637948 1_655
K1 Sn0 3.637948 1_565
K1 Sb1 3.659263 1_556
K1 Sb0 3.704971 1_565
K1 Sb0 3.704971 1_655
K1 Sb1 3.942572 1_555
K1 Sb2 4.046391 1_555
K2 Sb1 3.677618 1_545
K2 Sb1 3.677618 1_455
K2 Sb0 3.711683 1_554
K2 Sb2 3.739022 1_455
K2 Sb2 3.739022 1_545
K2 Sb0 3.919037 1_555
K2 Sn0 3.927297 1_555
Sb0 Sb2 2.899563 1_455
Sb0 Sb2 2.899563 1_545
Sb1 Sn0 2.915091 1_565
Sb1 Sn0 2.915091 1_655
Sb2 Sn0 2.958926 1_665
