# generated using pymatgen
data_RbCr(SO4)2
_symmetry_space_group_name_H-M   'P 1'
_cell_length_a   4.90082033
_cell_length_b   4.90082000
_cell_length_c   34.33077800
_cell_angle_alpha   90.00000000
_cell_angle_beta   90.00000000
_cell_angle_gamma   60.00000222
_symmetry_Int_Tables_number   1
_chemical_formula_structural   RbCr(SO4)2
_chemical_formula_sum   'Rb4 Cr4 S8 O32'
_cell_volume   714.08813934
_cell_formula_units_Z   4
loop_
 _symmetry_equiv_pos_site_id
 _symmetry_equiv_pos_as_xyz
  1  'x, y, z'
loop_
 _atom_site_type_symbol
 _atom_site_label
 _atom_site_symmetry_multiplicity
 _atom_site_fract_x
 _atom_site_fract_y
 _atom_site_fract_z
 _atom_site_occupancy
  Rb  Rb0  1  0.00000000  0.00000000  0.00000000  1
  Rb  Rb1  1  0.00000000  0.00000000  0.50000000  1
  Rb  Rb2  1  0.00000000  0.00000000  0.25000000  1
  Rb  Rb3  1  0.00000000  0.00000000  0.75000000  1
  Cr  Cr0  1  0.00000000  0.00000000  0.87500000  1
  Cr  Cr1  1  0.00000000  0.00000000  0.62500000  1
  Cr  Cr2  1  0.00000000  0.00000000  0.37500000  1
  Cr  Cr3  1  0.00000000  0.00000000  0.12500000  1
  S  S0  1  0.33333400  0.33333300  0.42453500  1
  S  S1  1  0.33333400  0.33333300  0.92453500  1
  S  S2  1  0.66666600  0.66666700  0.07546500  1
  S  S3  1  0.66666600  0.66666700  0.57546500  1
  S  S4  1  0.33333400  0.33333300  0.17453500  1
  S  S5  1  0.33333400  0.33333300  0.67453500  1
  S  S6  1  0.66666600  0.66666700  0.32546500  1
  S  S7  1  0.66666600  0.66666700  0.82546500  1
  O  O0  1  0.33333400  0.33333300  0.46713600  1
  O  O1  1  0.33333400  0.33333300  0.96713600  1
  O  O2  1  0.66666600  0.66666700  0.03286400  1
  O  O3  1  0.66666600  0.66666700  0.53286400  1
  O  O4  1  0.33333400  0.33333300  0.21713600  1
  O  O5  1  0.33333400  0.33333300  0.71713600  1
  O  O6  1  0.66666600  0.66666700  0.28286400  1
  O  O7  1  0.66666600  0.66666700  0.78286400  1
  O  O8  1  0.71190400  0.92973700  0.33994100  1
  O  O9  1  0.71190400  0.92973700  0.83994100  1
  O  O10  1  0.92973700  0.35835900  0.33994100  1
  O  O11  1  0.92973700  0.35835900  0.83994100  1
  O  O12  1  0.64164100  0.07026300  0.16005900  1
  O  O13  1  0.64164100  0.07026300  0.66005900  1
  O  O14  1  0.35835900  0.71190400  0.33994100  1
  O  O15  1  0.35835900  0.71190400  0.83994100  1
  O  O16  1  0.28809600  0.64164100  0.16005900  1
  O  O17  1  0.28809600  0.64164100  0.66005900  1
  O  O18  1  0.07026300  0.28809600  0.16005900  1
  O  O19  1  0.07026300  0.28809600  0.66005900  1
  O  O20  1  0.64164100  0.28809600  0.41005900  1
  O  O21  1  0.64164100  0.28809600  0.91005900  1
  O  O22  1  0.28809600  0.07026300  0.41005900  1
  O  O23  1  0.28809600  0.07026300  0.91005900  1
  O  O24  1  0.92973700  0.71190400  0.08994100  1
  O  O25  1  0.92973700  0.71190400  0.58994100  1
  O  O26  1  0.07026300  0.64164100  0.41005900  1
  O  O27  1  0.07026300  0.64164100  0.91005900  1
  O  O28  1  0.35835900  0.92973700  0.08994100  1
  O  O29  1  0.35835900  0.92973700  0.58994100  1
  O  O30  1  0.71190400  0.35835900  0.08994100  1
  O  O31  1  0.71190400  0.35835900  0.58994100  1
loop_
_geom_bond_atom_site_label_1
_geom_bond_atom_site_label_2
_geom_bond_distance
_geom_bond_site_symmetry_2
Cr0 O27 2.011691 1_545
Cr0 O11 2.011691 1_455
Cr0 O23 2.011691 1_555
Cr0 O9 2.011691 1_445
Cr0 O21 2.011691 1_455
Cr0 O15 2.011691 1_545
Cr1 O19 2.011691 1_555
Cr1 O25 2.011691 1_445
Cr1 O17 2.011691 1_545
Cr1 O31 2.011691 1_455
Cr1 O13 2.011691 1_455
Cr1 O29 2.011691 1_545
Cr2 O10 2.011691 1_455
Cr2 O26 2.011691 1_545
Cr2 O22 2.011691 1_555
Cr2 O8 2.011691 1_445
Cr2 O20 2.011691 1_455
Cr2 O14 2.011691 1_545
Cr3 O18 2.011691 1_555
Cr3 O24 2.011691 1_445
Cr3 O16 2.011691 1_545
Cr3 O30 2.011691 1_455
Cr3 O12 2.011691 1_455
Cr3 O28 2.011691 1_545
O0 S0 1.462525 1_555
O0 Rb1 3.046135 1_655
O0 Rb1 3.046139 1_555
O0 Rb1 3.046139 1_565
O1 S1 1.462525 1_555
O1 Rb0 3.046135 1_656
O1 Rb0 3.046139 1_556
O1 Rb0 3.046139 1_566
O2 S2 1.462525 1_555
O2 Rb0 3.046135 1_565
O2 Rb0 3.046139 1_665
O2 Rb0 3.046139 1_655
O3 S3 1.462525 1_555
O3 Rb1 3.046135 1_565
O3 Rb1 3.046139 1_655
O3 Rb1 3.046139 1_665
O4 S4 1.462525 1_555
O4 Rb2 3.046135 1_655
O4 Rb2 3.046139 1_555
O4 Rb2 3.046139 1_565
O5 S5 1.462525 1_555
O5 Rb3 3.046135 1_655
O5 Rb3 3.046139 1_555
O5 Rb3 3.046139 1_565
O6 S6 1.462525 1_555
O6 Rb2 3.046135 1_565
O6 Rb2 3.046139 1_655
O6 Rb2 3.046139 1_665
O7 S7 1.462525 1_555
O7 Rb3 3.046135 1_565
O7 Rb3 3.046139 1_665
O7 Rb3 3.046139 1_655
O8 S6 1.498050 1_555
O9 S7 1.498050 1_555
O10 S6 1.498052 1_555
O11 S7 1.498052 1_555
O12 S4 1.498048 1_555
O13 S5 1.498048 1_555
O14 S6 1.498048 1_555
O15 S7 1.498048 1_555
O16 S4 1.498050 1_555
O17 S5 1.498050 1_555
O18 S4 1.498052 1_555
O19 S5 1.498052 1_555
O20 S0 1.498048 1_555
O21 S1 1.498048 1_555
O22 S0 1.498050 1_555
O23 S1 1.498050 1_555
O24 S2 1.498052 1_555
O25 S3 1.498052 1_555
O26 S0 1.498052 1_555
O27 S1 1.498052 1_555
O28 S2 1.498048 1_555
O29 S3 1.498048 1_555
O30 S2 1.498050 1_555
O31 S3 1.498050 1_555
