# generated using pymatgen
data_Ca3Cd5(P2O7)4
_symmetry_space_group_name_H-M   'P 1'
_cell_length_a   6.75713600
_cell_length_b   6.75805544
_cell_length_c   13.41947802
_cell_angle_alpha   87.16352370
_cell_angle_beta   84.10881290
_cell_angle_gamma   65.74827767
_symmetry_Int_Tables_number   1
_chemical_formula_structural   Ca3Cd5(P2O7)4
_chemical_formula_sum   'Ca3 Cd5 P8 O28'
_cell_volume   555.75289601
_cell_formula_units_Z   1
loop_
 _symmetry_equiv_pos_site_id
 _symmetry_equiv_pos_as_xyz
  1  'x, y, z'
loop_
 _atom_site_type_symbol
 _atom_site_label
 _atom_site_symmetry_multiplicity
 _atom_site_fract_x
 _atom_site_fract_y
 _atom_site_fract_z
 _atom_site_occupancy
  Ca  Ca0  1  0.76343000  0.68739700  0.18863100  1
  Ca  Ca1  1  0.23616900  0.31295300  0.81089400  1
  Ca  Ca2  1  0.23665500  0.31246800  0.31129400  1
  Cd  Cd0  1  0.61129400  0.25929300  0.57503900  1
  Cd  Cd1  1  0.61115200  0.25918800  0.07435400  1
  Cd  Cd2  1  0.38929200  0.74064500  0.92533900  1
  Cd  Cd3  1  0.38886600  0.74087700  0.42567600  1
  Cd  Cd4  1  0.76603000  0.68612400  0.68856300  1
  P  P0  1  0.13489100  0.19029400  0.56598800  1
  P  P1  1  0.13476900  0.18976500  0.06583100  1
  P  P2  1  0.86561000  0.81053700  0.93373400  1
  P  P3  1  0.86549800  0.80899900  0.43474300  1
  P  P4  1  0.26206800  0.76905700  0.67556000  1
  P  P5  1  0.26188800  0.76910400  0.17621700  1
  P  P6  1  0.73732100  0.23174000  0.82355700  1
  P  P7  1  0.73794200  0.23078000  0.32395000  1
  O  O0  1  0.37288700  0.83415400  0.75557000  1
  O  O1  1  0.37162600  0.83493100  0.25595200  1
  O  O2  1  0.62742000  0.16652800  0.74402800  1
  O  O3  1  0.62854800  0.16488000  0.24408600  1
  O  O4  1  0.24086600  0.10902100  0.95996600  1
  O  O5  1  0.24040500  0.10940200  0.46006900  1
  O  O6  1  0.75878700  0.88991900  0.54123800  1
  O  O7  1  0.75911700  0.89064200  0.03962300  1
  O  O8  1  0.90102300  0.36529000  0.56700000  1
  O  O9  1  0.90143900  0.36491700  0.06725500  1
  O  O10  1  0.09863800  0.63522000  0.93272800  1
  O  O11  1  0.09884200  0.63464300  0.43281100  1
  O  O12  1  0.09958700  0.98354600  0.62182400  1
  O  O13  1  0.09961400  0.98317400  0.12184400  1
  O  O14  1  0.90032100  0.01750300  0.87791000  1
  O  O15  1  0.89955200  0.01660400  0.37895500  1
  O  O16  1  0.28316000  0.24322100  0.62805100  1
  O  O17  1  0.28288400  0.24304700  0.12802300  1
  O  O18  1  0.71657400  0.75704300  0.87179300  1
  O  O19  1  0.71704500  0.75701500  0.37225700  1
  O  O20  1  0.11816100  0.65401700  0.71715200  1
  O  O21  1  0.11862600  0.65371000  0.21687700  1
  O  O22  1  0.88198700  0.34664400  0.78306200  1
  O  O23  1  0.88141400  0.34600900  0.28322800  1
  O  O24  1  0.44478700  0.63966300  0.59413900  1
  O  O25  1  0.44608900  0.64021100  0.09497700  1
  O  O26  1  0.55391500  0.35998800  0.90515400  1
  O  O27  1  0.55381300  0.35983800  0.40505900  1
loop_
_geom_bond_atom_site_label_1
_geom_bond_atom_site_label_2
_geom_bond_distance
_geom_bond_site_symmetry_2
Ca0 O7 2.364985 1_555
Ca0 O21 2.384401 1_655
Ca0 O23 2.444743 1_555
Ca0 O19 2.495347 1_555
Ca0 O1 2.499817 1_555
Ca0 O9 2.577231 1_555
Ca0 O25 2.726519 1_555
Ca0 O3 3.078879 1_565
Ca1 O4 2.367806 1_555
Ca1 O22 2.376225 1_455
Ca1 O20 2.437235 1_555
Ca1 O16 2.484939 1_555
Ca1 O2 2.495096 1_555
Ca1 O10 2.580267 1_555
Ca1 O26 2.732919 1_555
Ca1 O0 3.084805 1_545
Ca2 O5 2.362315 1_555
Ca2 O23 2.384401 1_455
Ca2 O21 2.442746 1_555
Ca2 O17 2.490469 1_555
Ca2 O3 2.499913 1_555
Ca2 O11 2.577003 1_555
Ca2 O27 2.726821 1_555
Ca2 O1 3.078728 1_545
Cd0 O16 2.302272 1_555
Cd0 O2 2.324104 1_555
Cd0 O6 2.325039 1_545
Cd0 O8 2.336357 1_555
Cd0 O24 2.359973 1_555
Cd0 O27 2.372211 1_555
Cd1 O17 2.305179 1_555
Cd1 O7 2.322448 1_545
Cd1 O3 2.336182 1_555
Cd1 O9 2.339529 1_555
Cd1 O26 2.362181 1_554
Cd1 O25 2.366206 1_555
Cd2 O18 2.299246 1_555
Cd2 O4 2.321024 1_565
Cd2 O0 2.335313 1_555
Cd2 O10 2.340347 1_555
Cd2 O26 2.363229 1_555
Cd2 O25 2.366992 1_556
Cd3 O19 2.303892 1_555
Cd3 O5 2.321274 1_565
Cd3 O1 2.335688 1_555
Cd3 O11 2.340007 1_555
Cd3 O24 2.351880 1_555
Cd3 O27 2.366284 1_555
Cd4 O6 2.345818 1_555
Cd4 O20 2.368718 1_655
Cd4 O22 2.434101 1_555
Cd4 O18 2.490725 1_555
Cd4 O0 2.506382 1_555
Cd4 O8 2.571820 1_555
Cd4 O24 2.753170 1_555
O0 P4 1.545800 1_555
O1 P5 1.540656 1_555
O2 P6 1.537138 1_555
O3 P7 1.540668 1_555
O4 P1 1.541512 1_556
O5 P0 1.541487 1_555
O6 P3 1.550231 1_555
O7 P2 1.541512 1_554
O8 P0 1.535574 1_655
O9 P1 1.533044 1_655
O10 P2 1.532305 1_455
O11 P3 1.530875 1_455
O12 P4 1.605689 1_555
O12 P0 1.644402 1_565
O13 P5 1.607570 1_555
O13 P1 1.643960 1_565
O14 P6 1.609881 1_555
O14 P2 1.643855 1_545
O15 P7 1.610477 1_555
O15 P3 1.645521 1_545
O16 P0 1.523315 1_555
O17 P1 1.524834 1_555
O18 P2 1.528538 1_555
O19 P3 1.524506 1_555
O20 P4 1.525840 1_555
O21 P5 1.520719 1_555
O22 P6 1.525329 1_555
O23 P7 1.521249 1_555
O24 P4 1.553574 1_555
O25 P5 1.556045 1_555
O26 P6 1.555324 1_555
O27 P7 1.554964 1_555
