# generated using pymatgen
data_Ho12Si5S28
_symmetry_space_group_name_H-M   'P 1'
_cell_length_a   9.76773600
_cell_length_b   11.30671879
_cell_length_c   11.31105108
_cell_angle_alpha   60.72923562
_cell_angle_beta   64.42095454
_cell_angle_gamma   64.41317617
_symmetry_Int_Tables_number   1
_chemical_formula_structural   Ho12Si5S28
_chemical_formula_sum   'Ho12 Si5 S28'
_cell_volume   943.41689511
_cell_formula_units_Z   1
loop_
 _symmetry_equiv_pos_site_id
 _symmetry_equiv_pos_as_xyz
  1  'x, y, z'
loop_
 _atom_site_type_symbol
 _atom_site_label
 _atom_site_symmetry_multiplicity
 _atom_site_fract_x
 _atom_site_fract_y
 _atom_site_fract_z
 _atom_site_occupancy
  Ho  Ho0  1  0.77053100  0.57098900  0.79524200  1
  Ho  Ho1  1  0.78344900  0.04161400  0.30636600  1
  Ho  Ho2  1  0.34911500  0.80224900  0.06664000  1
  Ho  Ho3  1  0.36455700  0.31835600  0.54423200  1
  Ho  Ho4  1  0.86747300  0.75995800  0.02454300  1
  Ho  Ho5  1  0.86599900  0.27164600  0.49690200  1
  Ho  Ho6  1  0.21770100  0.46235200  0.19155000  1
  Ho  Ho7  1  0.22713600  0.93610300  0.69535500  1
  Ho  Ho8  1  0.63228500  0.19020100  0.94904400  1
  Ho  Ho9  1  0.65372400  0.69973800  0.42957000  1
  Ho  Ho10  1  0.13942500  0.23463400  0.99273400  1
  Ho  Ho11  1  0.12979000  0.74334100  0.47391900  1
  Si  Si0  1  0.66564100  0.41993400  0.24500200  1
  Si  Si1  1  0.66737900  0.92134100  0.74759000  1
  Si  Si2  1  0.33296600  0.50185600  0.83242200  1
  Si  Si3  1  0.33364100  0.00008000  0.33256600  1
  Si  Si4  1  0.99951800  0.27430400  0.72588900  1
  S  S0  1  0.58300900  0.46047900  0.43554700  1
  S  S1  1  0.57768900  0.96051200  0.93811200  1
  S  S2  1  0.89435300  0.26887800  0.24494000  1
  S  S3  1  0.89876500  0.77690800  0.75435100  1
  S  S4  1  0.52890000  0.29635800  0.27452900  1
  S  S5  1  0.51549900  0.80790100  0.78360000  1
  S  S6  1  0.41919400  0.31095200  0.79199200  1
  S  S7  1  0.42140700  0.81080100  0.29206500  1
  S  S8  1  0.10299300  0.49802000  0.97774000  1
  S  S9  1  0.10270900  0.99774300  0.47992400  1
  S  S10  1  0.47858700  0.46905100  0.94974400  1
  S  S11  1  0.47528800  0.97012900  0.45160800  1
  S  S12  1  0.66734000  0.60408200  0.06128000  1
  S  S13  1  0.66621700  0.10524700  0.56281500  1
  S  S14  1  0.32790100  0.19098600  0.15390400  1
  S  S15  1  0.33872900  0.68002900  0.64230500  1
  S  S16  1  0.76287500  0.43026600  0.65776500  1
  S  S17  1  0.74270200  0.94675000  0.15256400  1
  S  S18  1  0.08802600  0.46124600  0.68803500  1
  S  S19  1  0.09970600  0.97558000  0.18226600  1
  S  S20  1  0.15845700  0.76805700  0.97433700  1
  S  S21  1  0.14881800  0.26769600  0.49486200  1
  S  S22  1  0.25875900  0.59224300  0.30974400  1
  S  S23  1  0.22893300  0.12023600  0.78934400  1
  S  S24  1  0.90343900  0.56127800  0.27791100  1
  S  S25  1  0.90975300  0.09521100  0.76490800  1
  S  S26  1  0.86048100  0.28037800  0.94882000  1
  S  S27  1  0.83914300  0.77048800  0.48922200  1
loop_
_geom_bond_atom_site_label_1
_geom_bond_atom_site_label_2
_geom_bond_distance
_geom_bond_site_symmetry_2
Ho0 S18 2.743694 1_655
Ho0 S5 2.751883 1_555
Ho0 S16 2.752806 1_555
Ho0 S26 2.798044 1_555
Ho0 S3 2.858201 1_555
Ho0 S12 2.892618 1_556
Ho0 S10 3.013354 1_555
Ho0 S27 3.030859 1_555
Ho1 S17 2.669572 1_545
Ho1 S27 2.702279 1_545
Ho1 S19 2.712706 1_645
Ho1 S4 2.860244 1_555
Ho1 S2 2.875364 1_555
Ho1 S13 2.950250 1_555
Ho1 S11 2.990888 1_545
Ho2 S19 2.667851 1_555
Ho2 S22 2.703330 1_555
Ho2 S20 2.720873 1_554
Ho2 S5 2.879511 1_554
Ho2 S1 2.899049 1_554
Ho2 S12 2.939422 1_555
Ho2 S7 2.977286 1_555
Ho3 S0 2.722387 1_555
Ho3 S21 2.729855 1_555
Ho3 S18 2.749245 1_555
Ho3 S23 2.788921 1_555
Ho3 S4 2.848418 1_555
Ho3 S13 2.905036 1_555
Ho3 S6 3.028015 1_555
Ho3 S22 3.043577 1_555
Ho4 S20 2.681321 1_654
Ho4 S24 2.697258 1_555
Ho4 S17 2.699288 1_555
Ho4 S3 2.853325 1_554
Ho4 S12 2.942555 1_555
Ho4 S1 2.964346 1_554
Ho4 S8 2.990066 1_654
Ho5 S21 2.733740 1_655
Ho5 S16 2.754974 1_555
Ho5 S2 2.756462 1_555
Ho5 S0 2.791186 1_555
Ho5 S25 2.796527 1_555
Ho5 S13 2.906359 1_555
Ho5 S9 2.997844 1_645
Ho5 S24 3.051815 1_555
Ho6 S22 2.645135 1_555
Ho6 S24 2.672346 1_455
Ho6 S10 2.815274 1_554
Ho6 S8 2.874468 1_554
Ho6 S14 2.963659 1_555
Ho6 S21 2.994829 1_555
Ho6 S4 3.075149 1_555
Ho6 S20 3.084534 1_554
Ho7 S20 2.725400 1_555
Ho7 S11 2.760814 1_555
Ho7 S23 2.770748 1_565
Ho7 S25 2.815441 1_465
Ho7 S9 2.840000 1_555
Ho7 S15 2.887805 1_555
Ho7 S5 2.918435 1_555
Ho7 S21 3.239003 1_565
Ho8 S17 2.724464 1_546
Ho8 S25 2.763271 1_555
Ho8 S6 2.778229 1_555
Ho8 S26 2.821964 1_555
Ho8 S10 2.849602 1_555
Ho8 S14 2.873552 1_556
Ho8 S1 2.934528 1_545
Ho8 S16 3.235156 1_555
Ho9 S24 2.656641 1_555
Ho9 S27 2.685106 1_555
Ho9 S7 2.796728 1_555
Ho9 S11 2.866027 1_555
Ho9 S16 2.993713 1_555
Ho9 S15 2.996862 1_555
Ho9 S0 3.032291 1_555
Ho9 S17 3.092047 1_555
Ho10 S19 2.729234 1_546
Ho10 S26 2.763722 1_455
Ho10 S8 2.768920 1_555
Ho10 S23 2.815355 1_555
Ho10 S6 2.851452 1_555
Ho10 S14 2.861751 1_556
Ho10 S2 2.898435 1_456
Ho10 S18 3.231561 1_555
Ho11 S27 2.656846 1_455
Ho11 S22 2.679071 1_555
Ho11 S9 2.804797 1_555
Ho11 S7 2.865215 1_555
Ho11 S18 2.987000 1_555
Ho11 S15 3.011064 1_555
Ho11 S3 3.091000 1_455
Ho11 S19 3.092579 1_555
S0 Si0 2.156667 1_555
S1 Si1 2.139071 1_555
S2 Si0 2.147544 1_555
S3 Si1 2.149406 1_555
S4 Si0 2.149004 1_555
S5 Si1 2.150073 1_555
S6 Si2 2.154061 1_555
S7 Si3 2.135369 1_565
S8 Si2 2.139085 1_555
S9 Si3 2.151464 1_565
S10 Si2 2.148181 1_555
S11 Si3 2.144778 1_565
S12 Si0 2.103069 1_555
S13 Si1 2.107696 1_545
S14 Si3 2.115176 1_555
S15 Si2 2.107852 1_555
S16 Si4 2.394743 1_555
S18 Si4 2.402541 1_455
S21 Si4 2.401457 1_455
S23 Si4 2.316386 1_455
S25 Si4 2.321530 1_555
S26 Si4 2.310661 1_555
