# generated using pymatgen
data_Cr2NiO4
_symmetry_space_group_name_H-M   'P 1'
_cell_length_a   5.97375323
_cell_length_b   6.01396580
_cell_length_c   5.97098394
_cell_angle_alpha   60.50543486
_cell_angle_beta   90.07965713
_cell_angle_gamma   120.30107231
_symmetry_Int_Tables_number   1
_chemical_formula_structural   Cr2NiO4
_chemical_formula_sum   'Cr4 Ni2 O8'
_cell_volume   152.24770525
_cell_formula_units_Z   2
loop_
 _symmetry_equiv_pos_site_id
 _symmetry_equiv_pos_as_xyz
  1  'x, y, z'
loop_
 _atom_site_type_symbol
 _atom_site_label
 _atom_site_symmetry_multiplicity
 _atom_site_fract_x
 _atom_site_fract_y
 _atom_site_fract_z
 _atom_site_occupancy
  Cr  Cr0  1  0.50025200  0.99925000  0.00058300  1
  Cr  Cr1  1  0.00085800  0.50067300  0.49923600  1
  Cr  Cr2  1  0.99990600  0.49889500  0.00008800  1
  Cr  Cr3  1  0.99981700  0.00065900  0.99993400  1
  Ni  Ni0  1  0.62909900  0.74908800  0.62584400  1
  Ni  Ni1  1  0.37329800  0.24885200  0.37918800  1
  O  O0  1  0.75852600  0.47049500  0.76314800  1
  O  O1  1  0.76154800  0.02766500  0.75572100  1
  O  O2  1  0.76105300  0.02523900  0.21725800  1
  O  O3  1  0.24179700  0.52476500  0.23610100  1
  O  O4  1  0.78298300  0.52667400  0.23497200  1
  O  O5  1  0.23833200  0.97847500  0.23942400  1
  O  O6  1  0.21819800  0.47818400  0.76005400  1
  O  O7  1  0.23433300  0.97108800  0.78844900  1
loop_
_geom_bond_atom_site_label_1
_geom_bond_atom_site_label_2
_geom_bond_distance
_geom_bond_site_symmetry_2
Cr0 O0 2.014858 1_564
Cr0 O2 2.018238 1_565
Cr0 O7 2.022544 1_554
Cr0 O1 2.023479 1_564
Cr0 O3 2.028042 1_555
Cr0 O5 2.032492 1_555
Cr1 O0 2.017766 1_455
Cr1 O6 2.023226 1_555
Cr1 O1 2.023328 1_455
Cr1 O3 2.032952 1_555
Cr1 O4 2.040822 1_455
Cr1 O5 2.044328 1_555
Cr2 O7 2.020055 1_654
Cr2 O3 2.020278 1_655
Cr2 O0 2.023285 1_554
Cr2 O2 2.024398 1_555
Cr2 O6 2.028557 1_654
Cr2 O4 2.031826 1_555
Cr3 O7 2.016510 1_645
Cr3 O5 2.022649 1_646
Cr3 O4 2.028030 1_546
Cr3 O2 2.036390 1_556
Cr3 O1 2.042781 1_555
Cr3 O6 2.043306 1_655
Ni0 O1 1.993546 1_565
Ni0 O6 2.001529 1_555
Ni0 O2 2.006523 1_565
Ni0 O0 2.007461 1_555
Ni1 O4 1.996395 1_555
Ni1 O5 2.000472 1_545
Ni1 O3 2.004478 1_555
Ni1 O7 2.009467 1_545
