# generated using pymatgen
data_Li4V3P8O29
_symmetry_space_group_name_H-M   'P 1'
_cell_length_a   9.78970800
_cell_length_b   9.82595807
_cell_length_c   14.23299037
_cell_angle_alpha   89.76044165
_cell_angle_beta   89.74925099
_cell_angle_gamma   60.21690049
_symmetry_Int_Tables_number   1
_chemical_formula_structural   Li4V3P8O29
_chemical_formula_sum   'Li8 V6 P16 O58'
_cell_volume   1188.25917620
_cell_formula_units_Z   2
loop_
 _symmetry_equiv_pos_site_id
 _symmetry_equiv_pos_as_xyz
  1  'x, y, z'
loop_
 _atom_site_type_symbol
 _atom_site_label
 _atom_site_symmetry_multiplicity
 _atom_site_fract_x
 _atom_site_fract_y
 _atom_site_fract_z
 _atom_site_occupancy
  Li  Li0  1  0.22563800  0.08328800  0.55489500  1
  Li  Li1  1  0.08636500  0.68780300  0.55616000  1
  Li  Li2  1  0.23049200  0.67603900  0.06264700  1
  Li  Li3  1  0.68664600  0.08692700  0.06376200  1
  Li  Li4  1  0.68590300  0.21982700  0.55169100  1
  Li  Li5  1  0.30940000  0.91631800  0.94410300  1
  Li  Li6  1  0.77680400  0.31327200  0.94776700  1
  Li  Li7  1  0.90647700  0.32224700  0.43432500  1
  V  V0  1  0.43297200  0.57244200  0.25669300  1
  V  V1  1  0.56539900  0.43364900  0.74866100  1
  V  V2  1  0.43258900  0.00181600  0.74770500  1
  V  V3  1  0.56936200  0.99796600  0.25186500  1
  V  V4  1  0.00597900  0.43046600  0.24323600  1
  V  V5  1  0.99643900  0.56938600  0.75459000  1
  P  P0  1  0.08517700  0.23007600  0.83882100  1
  P  P1  1  0.22900300  0.09049300  0.33951600  1
  P  P2  1  0.08503600  0.68002800  0.34222200  1
  P  P3  1  0.33885400  0.33704000  0.12930000  1
  P  P4  1  0.32947600  0.33779500  0.63102100  1
  P  P5  1  0.23189200  0.68044800  0.84113000  1
  P  P6  1  0.31647600  0.76981400  0.65957400  1
  P  P7  1  0.67778800  0.09024600  0.84379800  1
  P  P8  1  0.31942900  0.91191900  0.16019500  1
  P  P9  1  0.67927600  0.23075500  0.33938500  1
  P  P10  1  0.76660800  0.32290200  0.16083900  1
  P  P11  1  0.67530700  0.66081000  0.37055500  1
  P  P12  1  0.66352100  0.66412700  0.86960000  1
  P  P13  1  0.91289300  0.32117400  0.65706100  1
  P  P14  1  0.77130100  0.91416700  0.66352800  1
  P  P15  1  0.91527300  0.77032100  0.16062900  1
  O  O0  1  0.99617500  0.24830400  0.56693100  1
  O  O1  1  0.07861300  0.25745700  0.33158500  1
  O  O2  1  0.24472400  0.98582700  0.06951000  1
  O  O3  1  0.25300000  0.08528500  0.83762600  1
  O  O4  1  0.09459800  0.38265200  0.82127600  1
  O  O5  1  0.18706300  0.33679100  0.17473900  1
  O  O6  1  0.09354500  0.52098500  0.32094400  1
  O  O7  1  0.01261800  0.75837700  0.07793900  1
  O  O8  1  0.08691800  0.65765100  0.83324700  1
  O  O9  1  0.32565100  0.18889100  0.66819700  1
  O  O10  1  0.37596600  0.10428200  0.32107400  1
  O  O11  1  0.18164600  0.48733700  0.67281000  1
  O  O12  1  0.32647100  0.34688300  0.02509800  1
  O  O13  1  0.33612700  0.34316800  0.52681300  1
  O  O14  1  0.33363100  0.48785000  0.17101100  1
  O  O15  1  0.51862300  0.10249700  0.82232100  1
  O  O16  1  0.48803400  0.18680400  0.16603300  1
  O  O17  1  0.25429400  0.65648900  0.33107500  1
  O  O18  1  0.21529400  0.79356100  0.75559600  1
  O  O19  1  0.23332000  0.75582400  0.57730500  1
  O  O20  1  0.24412600  0.75061700  0.93128100  1
  O  O21  1  0.38261400  0.51998100  0.82116000  1
  O  O22  1  0.48315300  0.33402900  0.67355300  1
  O  O23  1  0.34148000  0.74287400  0.16647400  1
  O  O24  1  0.51962200  0.38245900  0.32253700  1
  O  O25  1  0.65696900  0.08727800  0.33573200  1
  O  O26  1  0.21022300  0.99915200  0.25006200  1
  O  O27  1  0.22602900  0.01660200  0.43002300  1
  O  O28  1  0.76795700  0.00536200  0.57977200  1
  O  O29  1  0.33705100  0.91594900  0.65899500  1
  O  O30  1  0.47792900  0.61841400  0.67914800  1
  O  O31  1  0.66192500  0.25769800  0.83195900  1
  O  O32  1  0.52285000  0.65972700  0.32578600  1
  O  O33  1  0.61542300  0.47991600  0.17828700  1
  O  O34  1  0.75839500  0.24424800  0.07282800  1
  O  O35  1  0.75602200  0.24319000  0.42750100  1
  O  O36  1  0.78934900  0.21174900  0.25013800  1
  O  O37  1  0.74557400  0.33968400  0.66020500  1
  O  O38  1  0.51491100  0.81210500  0.83238100  1
  O  O39  1  0.47861800  0.90543300  0.17722000  1
  O  O40  1  0.66799200  0.51251900  0.82499300  1
  O  O41  1  0.67426800  0.64714700  0.97327300  1
  O  O42  1  0.66991800  0.64851500  0.47430800  1
  O  O43  1  0.82094900  0.50876500  0.32878100  1
  O  O44  1  0.61842500  0.90408200  0.67791700  1
  O  O45  1  0.67182000  0.80722800  0.32798500  1
  O  O46  1  0.91176200  0.34542300  0.16414100  1
  O  O47  1  0.00626000  0.20819000  0.74375900  1
  O  O48  1  0.99058600  0.24057900  0.92233500  1
  O  O49  1  0.90471600  0.47950600  0.67790700  1
  O  O50  1  0.81456500  0.66260400  0.82440400  1
  O  O51  1  0.90516500  0.61780500  0.17727700  1
  O  O52  1  0.74854700  0.91486600  0.15980000  1
  O  O53  1  0.74918800  0.02220700  0.93576200  1
  O  O54  1  0.79352500  0.99130200  0.75836200  1
  O  O55  1  0.91631100  0.74476300  0.66516300  1
  O  O56  1  0.01234500  0.74767600  0.43368200  1
  O  O57  1  0.99043100  0.79368800  0.25649500  1
loop_
_geom_bond_atom_site_label_1
_geom_bond_atom_site_label_2
_geom_bond_distance
_geom_bond_site_symmetry_2
Li0 O27 1.896144 1_555
Li0 O0 2.021168 1_455
Li0 O29 2.073808 1_545
Li0 O9 2.381810 1_555
Li1 O56 1.867891 1_555
Li1 O19 1.888838 1_555
Li1 O55 2.133241 1_455
Li1 O11 2.380652 1_555
Li2 O7 1.879997 1_555
Li2 O20 2.033281 1_554
Li2 O23 2.127600 1_555
Li2 O14 2.225442 1_555
Li3 O53 1.926510 1_554
Li3 O34 1.995178 1_555
Li3 O52 2.015969 1_545
Li3 O16 2.225759 1_555
Li4 O28 1.886775 1_555
Li4 O35 1.947006 1_555
Li4 O37 2.195501 1_555
Li4 O22 2.445548 1_555
Li5 O2 1.903679 1_556
Li5 O20 2.032162 1_555
Li5 O3 2.105619 1_565
Li5 O38 2.358768 1_555
Li6 O48 1.879296 1_555
Li6 O34 1.941486 1_556
Li6 O31 2.216688 1_555
Li6 O40 2.436615 1_555
Li7 O35 1.980121 1_555
Li7 O0 2.056795 1_555
Li7 O1 2.074564 1_655
Li7 O43 2.186339 1_555
O0 P13 1.497203 1_555
O1 P1 1.572328 1_555
O1 V4 1.940583 1_555
O2 P8 1.483578 1_555
O3 P0 1.549682 1_555
O3 V2 1.989540 1_555
O4 P0 1.566050 1_555
O4 V5 1.852765 1_455
O5 P3 1.619142 1_555
O5 V4 1.819813 1_555
O6 P2 1.554110 1_555
O6 V4 1.877026 1_555
O7 P15 1.478961 1_455
O8 P5 1.547410 1_555
O8 V5 1.889462 1_455
O9 P4 1.571588 1_555
O9 V2 1.958762 1_555
O10 P1 1.532069 1_555
O10 V3 1.916666 1_545
O11 P4 1.579403 1_555
O11 V5 1.956894 1_455
O12 P3 1.487407 1_555
O13 P4 1.486203 1_555
O14 P3 1.575680 1_555
O14 V0 1.986403 1_555
O15 P7 1.534072 1_555
O15 V2 1.913192 1_555
O16 P3 1.563290 1_555
O16 V3 2.022668 1_545
O17 P2 1.562544 1_555
O17 V0 1.848933 1_555
O18 P5 1.598370 1_555
O18 P6 1.632372 1_555
O19 P6 1.474300 1_555
O20 P5 1.492278 1_555
O21 P5 1.559776 1_555
O21 V1 1.862671 1_555
O22 P4 1.607384 1_555
O22 V1 1.883747 1_555
O23 P8 1.567264 1_555
O23 V0 1.938446 1_555
O24 P9 1.551816 1_555
O24 V0 1.871320 1_555
O25 P9 1.531172 1_555
O25 V3 1.922497 1_545
O26 P8 1.612620 1_555
O26 P1 1.623543 1_565
O27 P1 1.483330 1_555
O28 P14 1.478984 1_545
O29 P6 1.545869 1_555
O29 V2 1.995999 1_565
O30 P6 1.566340 1_555
O30 V1 1.859066 1_555
O31 P7 1.582354 1_555
O31 V1 1.912396 1_555
O32 P11 1.630300 1_555
O32 V0 1.800320 1_555
O33 P10 1.537542 1_555
O33 V0 1.907887 1_555
O34 P10 1.497875 1_555
O35 P9 1.501014 1_555
O36 P9 1.612353 1_555
O36 P10 1.614672 1_555
O37 P13 1.556150 1_555
O37 V1 1.980190 1_555
O38 P12 1.552482 1_555
O38 V2 2.018442 1_565
O39 P8 1.547883 1_555
O39 V3 1.887687 1_555
O40 P12 1.602211 1_555
O40 V1 1.891951 1_555
O41 P12 1.482597 1_555
O42 P11 1.483990 1_555
O43 P11 1.581856 1_555
O43 V4 1.989866 1_655
O44 P14 1.560797 1_555
O44 V2 1.864178 1_565
O45 P11 1.543447 1_555
O45 V3 1.953825 1_555
O46 P10 1.543868 1_555
O46 V4 1.897101 1_655
O47 P13 1.606541 1_455
O47 P0 1.628007 1_555
O48 P0 1.475639 1_655
O49 P13 1.547504 1_555
O49 V5 1.892601 1_555
O50 P12 1.603210 1_555
O50 V5 1.835340 1_555
O51 P15 1.567142 1_555
O51 V4 1.852758 1_655
O52 P15 1.542235 1_555
O52 V3 2.006682 1_555
O53 P7 1.478265 1_555
O54 P7 1.615906 1_565
O54 P14 1.618212 1_555
O55 P14 1.561740 1_555
O55 V5 1.962771 1_555
O56 P2 1.473773 1_555
O57 P2 1.601485 1_655
O57 P15 1.623289 1_555
