# generated using pymatgen
data_BaCa2Tm10O18
_symmetry_space_group_name_H-M   'P 1'
_cell_length_a   3.34108319
_cell_length_b   17.62517011
_cell_length_c   17.61012752
_cell_angle_alpha   60.04974517
_cell_angle_beta   89.97169562
_cell_angle_gamma   90.00865041
_symmetry_Int_Tables_number   1
_chemical_formula_structural   BaCa2Tm10O18
_chemical_formula_sum   'Ba2 Ca4 Tm20 O36'
_cell_volume   898.52697291
_cell_formula_units_Z   2
loop_
 _symmetry_equiv_pos_site_id
 _symmetry_equiv_pos_as_xyz
  1  'x, y, z'
loop_
 _atom_site_type_symbol
 _atom_site_label
 _atom_site_symmetry_multiplicity
 _atom_site_fract_x
 _atom_site_fract_y
 _atom_site_fract_z
 _atom_site_occupancy
  Ba  Ba0  1  0.34135300  0.33577600  0.33060600  1
  Ba  Ba1  1  0.84250700  0.66728900  0.66892600  1
  Ca  Ca0  1  0.78461500  0.67450400  0.32873500  1
  Ca  Ca1  1  0.78401700  0.99440400  0.67470000  1
  Ca  Ca2  1  0.78259900  0.33271600  0.99429300  1
  Ca  Ca3  1  0.28354200  0.67211900  0.00361300  1
  Tm  Tm0  1  0.28630400  0.43665700  0.77945400  1
  Tm  Tm1  1  0.28578900  0.78363900  0.43742200  1
  Tm  Tm2  1  0.28625600  0.77960900  0.78594200  1
  Tm  Tm3  1  0.78655400  0.56590900  0.22022800  1
  Tm  Tm4  1  0.78666000  0.21388400  0.56433500  1
  Tm  Tm5  1  0.78710100  0.22198900  0.21317800  1
  Tm  Tm6  1  0.28126100  0.10189700  0.44634900  1
  Tm  Tm7  1  0.28028100  0.45317200  0.10032900  1
  Tm  Tm8  1  0.28062100  0.44785100  0.45058300  1
  Tm  Tm9  1  0.77877900  0.89894500  0.55236300  1
  Tm  Tm10  1  0.78109500  0.54881500  0.89988000  1
  Tm  Tm11  1  0.77868800  0.55244700  0.54910100  1
  Tm  Tm12  1  0.28234900  0.76843800  0.11708200  1
  Tm  Tm13  1  0.28105900  0.11054700  0.76917500  1
  Tm  Tm14  1  0.28065700  0.11909000  0.11078400  1
  Tm  Tm15  1  0.78253200  0.23235700  0.88166200  1
  Tm  Tm16  1  0.78298100  0.88452400  0.23260900  1
  Tm  Tm17  1  0.78171600  0.88142000  0.88636600  1
  Tm  Tm18  1  0.28630900  0.32282400  0.67183400  1
  Tm  Tm19  1  0.28598200  0.00435900  0.32233400  1
  O  O0  1  0.28309200  0.78341400  0.31272400  1
  O  O1  1  0.28316700  0.90843700  0.77952600  1
  O  O2  1  0.28251900  0.31070200  0.90526500  1
  O  O3  1  0.78472600  0.22764300  0.68424000  1
  O  O4  1  0.78466600  0.08809300  0.22637200  1
  O  O5  1  0.78321700  0.68766200  0.09373600  1
  O  O6  1  0.28629500  0.30501500  0.50857800  1
  O  O7  1  0.28641100  0.18759200  0.30408400  1
  O  O8  1  0.28612600  0.50081100  0.19486900  1
  O  O9  1  0.78501100  0.69581900  0.49678700  1
  O  O10  1  0.78581100  0.80836200  0.69399400  1
  O  O11  1  0.78590200  0.49445000  0.80909400  1
  O  O12  1  0.28222400  0.44673800  0.97497900  1
  O  O13  1  0.28006000  0.57448200  0.45052700  1
  O  O14  1  0.28035300  0.97706400  0.57329900  1
  O  O15  1  0.78211700  0.55106100  0.02577700  1
  O  O16  1  0.77968900  0.41649200  0.56160900  1
  O  O17  1  0.78096500  0.02355500  0.41526700  1
  O  O18  1  0.28335300  0.97631000  0.19602000  1
  O  O19  1  0.28162200  0.84159300  0.97468900  1
  O  O20  1  0.28282400  0.19500800  0.82810100  1
  O  O21  1  0.78116300  0.02608100  0.81948600  1
  O  O22  1  0.78118900  0.15160500  0.02470300  1
  O  O23  1  0.78236600  0.81864600  0.15751800  1
  O  O24  1  0.28440900  0.63703600  0.81842400  1
  O  O25  1  0.28103900  0.54097300  0.63873100  1
  O  O26  1  0.28093000  0.82139700  0.54055900  1
  O  O27  1  0.78344000  0.36096400  0.18141700  1
  O  O28  1  0.78265800  0.45574000  0.36485000  1
  O  O29  1  0.78351700  0.17945300  0.45707800  1
  O  O30  1  0.28396400  0.11355700  0.63927300  1
  O  O31  1  0.28411100  0.24661100  0.11188300  1
  O  O32  1  0.28392800  0.63683100  0.25210500  1
  O  O33  1  0.78298200  0.89540000  0.36162800  1
  O  O34  1  0.78335400  0.74959400  0.88712900  1
  O  O35  1  0.78319700  0.36063100  0.74379600  1
loop_
_geom_bond_atom_site_label_1
_geom_bond_atom_site_label_2
_geom_bond_distance
_geom_bond_site_symmetry_2
Ba0 O8 2.695706 1_555
Ba0 O27 2.848248 1_555
Ba0 O28 2.877730 1_555
Ba0 O7 2.879430 1_555
Ba0 O6 2.907434 1_555
Ba0 O29 2.934511 1_555
Ba0 O27 3.068319 1_455
Ba0 O28 3.097076 1_455
Ba0 O29 3.145227 1_455
Ba1 O10 2.740287 1_555
Ba1 O11 2.810679 1_555
Ba1 O9 2.820932 1_555
Ba1 O24 2.827998 1_655
Ba1 O26 2.915150 1_655
Ba1 O25 2.927171 1_655
Ba1 O24 3.047199 1_555
Ba1 O26 3.143732 1_555
Ba1 O25 3.152801 1_555
Ca0 O32 2.436757 1_655
Ca0 O32 2.440677 1_555
Ca0 O0 2.448691 1_655
Ca0 O0 2.456208 1_555
Ca0 O13 2.583994 1_655
Ca0 O13 2.601895 1_555
Ca0 O23 2.810152 1_555
Ca1 O1 2.386568 1_655
Ca1 O1 2.388946 1_555
Ca1 O30 2.505875 1_665
Ca1 O30 2.506945 1_565
Ca1 O14 2.564016 1_655
Ca1 O14 2.581001 1_555
Ca2 O2 2.450171 1_655
Ca2 O2 2.451511 1_555
Ca2 O31 2.494602 1_556
Ca2 O12 2.501371 1_655
Ca2 O31 2.503030 1_656
Ca2 O12 2.503673 1_555
Ca3 O5 2.411959 1_555
Ca3 O5 2.412435 1_455
Ca3 O34 2.461732 1_554
Ca3 O34 2.464238 1_454
Ca3 O15 2.578736 1_555
Ca3 O15 2.584232 1_455
Ca3 O19 2.768131 1_554
O0 Tm1 2.197953 1_555
O0 Tm16 2.332825 1_555
O0 Tm16 2.334739 1_455
O1 Tm2 2.216396 1_555
O1 Tm17 2.376965 1_555
O1 Tm17 2.382366 1_455
O2 Tm0 2.219462 1_555
O2 Tm15 2.333053 1_455
O2 Tm15 2.333120 1_555
O3 Tm4 2.242485 1_555
O3 Tm18 2.295719 1_555
O3 Tm18 2.302880 1_655
O3 Tm13 2.483491 1_655
O3 Tm13 2.498515 1_555
O4 Tm5 2.252966 1_555
O4 Tm19 2.305666 1_555
O4 Tm19 2.313557 1_655
O4 Tm14 2.464540 1_655
O4 Tm14 2.484096 1_555
O5 Tm3 2.189549 1_555
O5 Tm12 2.358250 1_655
O5 Tm12 2.362372 1_555
O6 Tm4 2.180241 1_455
O6 Tm4 2.183223 1_555
O6 Tm8 2.194091 1_555
O7 Tm5 2.178807 1_455
O7 Tm5 2.180988 1_555
O7 Tm6 2.186271 1_555
O8 Tm3 2.193914 1_455
O8 Tm3 2.196163 1_555
O8 Tm7 2.207480 1_555
O9 Tm1 2.158134 1_555
O9 Tm1 2.160995 1_655
O9 Tm11 2.215888 1_555
O10 Tm9 2.189587 1_555
O10 Tm2 2.200490 1_555
O10 Tm2 2.204075 1_655
O11 Tm0 2.151155 1_555
O11 Tm0 2.153078 1_655
O11 Tm10 2.236960 1_555
O12 Tm7 2.266182 1_556
O12 Tm10 2.320589 1_555
O12 Tm10 2.327341 1_455
O13 Tm8 2.231402 1_555
O13 Tm11 2.295537 1_555
O13 Tm11 2.300870 1_455
O14 Tm6 2.219783 1_565
O14 Tm9 2.304732 1_555
O14 Tm9 2.312306 1_455
O15 Tm10 2.237093 1_554
O15 Tm7 2.282959 1_655
O15 Tm7 2.290593 1_555
O16 Tm11 2.294217 1_555
O16 Tm8 2.415164 1_555
O16 Tm8 2.418019 1_655
O16 Tm18 2.450894 1_555
O16 Tm18 2.482489 1_655
O17 Tm9 2.314724 1_545
O17 Tm6 2.397506 1_555
O17 Tm6 2.398970 1_655
O17 Tm19 2.466407 1_555
O17 Tm19 2.487994 1_655
O18 Tm16 2.186298 1_555
O18 Tm16 2.187337 1_455
O18 Tm14 2.194168 1_565
O18 Tm19 2.508086 1_565
O19 Tm17 2.147235 1_555
O19 Tm17 2.148107 1_455
O19 Tm12 2.173024 1_556
O20 Tm15 2.175232 1_555
O20 Tm15 2.176168 1_455
O20 Tm13 2.198937 1_555
O20 Tm18 2.541241 1_555
O21 Tm13 2.114618 1_655
O21 Tm13 2.116213 1_555
O21 Tm17 2.211239 1_545
O22 Tm14 2.132253 1_655
O22 Tm14 2.133729 1_555
O22 Tm15 2.188866 1_554
O23 Tm16 2.151726 1_555
O23 Tm12 2.170054 1_655
O23 Tm12 2.170478 1_555
O24 Tm10 2.237247 1_555
O24 Tm10 2.252323 1_455
O24 Tm2 2.281782 1_555
O25 Tm0 2.229922 1_555
O25 Tm11 2.230548 1_555
O25 Tm11 2.243489 1_455
O26 Tm1 2.224586 1_555
O26 Tm9 2.227428 1_555
O26 Tm9 2.238337 1_455
O27 Tm5 2.223710 1_555
O27 Tm7 2.261746 1_655
O27 Tm7 2.278678 1_555
O28 Tm8 2.204471 1_655
O28 Tm8 2.213605 1_555
O28 Tm3 2.306282 1_555
O29 Tm6 2.219922 1_655
O29 Tm6 2.231068 1_555
O29 Tm4 2.253997 1_555
O30 Tm13 2.261588 1_555
O30 Tm4 2.302619 1_455
O30 Tm4 2.314326 1_555
O31 Tm14 2.257332 1_555
O31 Tm5 2.313367 1_455
O31 Tm5 2.329109 1_555
O32 Tm3 2.310859 1_455
O32 Tm3 2.323382 1_555
O32 Tm12 2.350999 1_555
O33 Tm19 2.366301 1_565
O33 Tm16 2.373561 1_555
O33 Tm19 2.379525 1_665
O33 Tm1 2.406809 1_555
O33 Tm1 2.421114 1_655
O34 Tm2 2.296831 1_555
O34 Tm2 2.309504 1_655
O34 Tm17 2.316784 1_555
O35 Tm15 2.350557 1_555
O35 Tm18 2.377178 1_555
O35 Tm18 2.391013 1_655
O35 Tm0 2.405362 1_555
O35 Tm0 2.419887 1_655
