# generated using pymatgen
data_NaH8C2S2NO5
_symmetry_space_group_name_H-M   'P 1'
_cell_length_a   9.49198017
_cell_length_b   13.20679653
_cell_length_c   15.62705473
_cell_angle_alpha   107.34909592
_cell_angle_beta   90.00000000
_cell_angle_gamma   111.06087656
_symmetry_Int_Tables_number   1
_chemical_formula_structural   NaH8C2S2NO5
_chemical_formula_sum   'Na8 H64 C16 S16 N8 O40'
_cell_volume   1732.28206673
_cell_formula_units_Z   8
loop_
 _symmetry_equiv_pos_site_id
 _symmetry_equiv_pos_as_xyz
  1  'x, y, z'
loop_
 _atom_site_type_symbol
 _atom_site_label
 _atom_site_symmetry_multiplicity
 _atom_site_fract_x
 _atom_site_fract_y
 _atom_site_fract_z
 _atom_site_occupancy
  Na  Na0  1  0.65626053  0.29506043  0.38049530  1
  Na  Na1  1  0.36120010  0.70493957  0.11950470  1
  Na  Na2  1  0.34373947  0.70493957  0.61950470  1
  Na  Na3  1  0.63879990  0.29506043  0.88049530  1
  Na  Na4  1  0.63876171  -0.00000000  0.25000000  1
  Na  Na5  1  0.36123829  -0.00000000  0.75000000  1
  Na  Na6  1  0.50000000  0.50000000  0.50000000  1
  Na  Na7  1  -0.00000000  0.50000000  -0.00000000  1
  H  H0  1  0.57364254  0.12235350  0.45979662  1
  H  H1  1  0.45128904  0.87764650  0.04020338  1
  H  H2  1  0.42635746  0.87764650  0.54020338  1
  H  H3  1  0.54871096  0.12235350  0.95979662  1
  H  H4  1  0.43105942  0.07819721  0.39151794  1
  H  H5  1  0.35286221  0.92180279  0.10848206  1
  H  H6  1  0.56894058  0.92180279  0.60848206  1
  H  H7  1  0.64713779  0.07819721  0.89151794  1
  H  H8  1  0.79292627  0.57185085  0.48738873  1
  H  H9  1  0.22107542  0.42814915  0.01261127  1
  H  H10  1  0.20707373  0.42814915  0.51261127  1
  H  H11  1  0.77892458  0.57185085  0.98738873  1
  H  H12  1  0.75232332  0.52545629  0.38249140  1
  H  H13  1  0.22686702  0.47454371  0.11750860  1
  H  H14  1  0.24767668  0.47454371  0.61750860  1
  H  H15  1  0.77313298  0.52545629  0.88249140  1
  H  H16  1  0.10632173  0.10712032  0.23932486  1
  H  H17  1  0.99920141  0.89287968  0.26067514  1
  H  H18  1  0.89367827  0.89287968  0.76067514  1
  H  H19  1  0.00079859  0.10712032  0.73932486  1
  H  H20  1  0.23880878  0.24874324  0.24636910  1
  H  H21  1  0.99006554  0.75125676  0.25363090  1
  H  H22  1  0.76119122  0.75125676  0.75363090  1
  H  H23  1  0.00993446  0.24874324  0.74636910  1
  H  H24  1  0.30655162  0.13433336  0.23675852  1
  H  H25  1  0.17221826  0.86566664  0.26324148  1
  H  H26  1  0.69344838  0.86566664  0.76324148  1
  H  H27  1  0.82778174  0.13433336  0.73675852  1
  H  H28  1  0.00700369  0.09682977  0.50821352  1
  H  H29  1  0.91017392  0.90317023  0.99178648  1
  H  H30  1  0.99299631  0.90317023  0.49178648  1
  H  H31  1  0.08982608  0.09682977  0.00821352  1
  H  H32  1  0.99688989  0.23040129  0.57547544  1
  H  H33  1  0.76648859  0.76959871  0.92452456  1
  H  H34  1  0.00311011  0.76959871  0.42452456  1
  H  H35  1  0.23351141  0.23040129  0.07547544  1
  H  H36  1  0.82419562  0.10954865  0.52336658  1
  H  H37  1  0.71464696  0.89045135  0.97663342  1
  H  H38  1  0.17580438  0.89045135  0.47663342  1
  H  H39  1  0.28535304  0.10954865  0.02336658  1
  H  H40  1  0.54365504  0.39257711  0.08359063  1
  H  H41  1  0.15107793  0.60742289  0.41640937  1
  H  H42  1  0.45634496  0.60742289  0.91640937  1
  H  H43  1  0.84892207  0.39257711  0.58359063  1
  H  H44  1  0.50606837  0.46637353  0.19261571  1
  H  H45  1  0.03969484  0.53362647  0.30738429  1
  H  H46  1  0.49393163  0.53362647  0.80738429  1
  H  H47  1  0.96030516  0.46637353  0.69261571  1
  H  H48  1  0.61875929  0.54676151  0.12417453  1
  H  H49  1  0.07199778  0.45323849  0.37582547  1
  H  H50  1  0.38124071  0.45323849  0.87582547  1
  H  H51  1  0.92800222  0.54676151  0.62417453  1
  H  H52  1  0.90151850  0.28709752  0.09820387  1
  H  H53  1  0.61442097  0.71290248  0.40179613  1
  H  H54  1  0.09848150  0.71290248  0.90179613  1
  H  H55  1  0.38557903  0.28709752  0.59820387  1
  H  H56  1  0.92985174  0.25628962  0.20020555  1
  H  H57  1  0.67356212  0.74371038  0.29979445  1
  H  H58  1  0.07014826  0.74371038  0.79979445  1
  H  H59  1  0.32643788  0.25628962  0.70020555  1
  H  H60  1  0.83029407  0.14064473  0.09787244  1
  H  H61  1  0.68964935  0.85935527  0.40212756  1
  H  H62  1  0.16970593  0.85935527  0.90212756  1
  H  H63  1  0.31035065  0.14064473  0.59787244  1
  C  C0  1  0.22213500  0.17064168  0.26325870  1
  C  C1  1  0.05149333  0.82935832  0.23674130  1
  C  C2  1  0.77786500  0.82935832  0.73674130  1
  C  C3  1  0.94850667  0.17064168  0.76325870  1
  C  C4  1  0.94384040  0.15349338  0.51686941  1
  C  C5  1  0.79034703  0.84650662  0.98313059  1
  C  C6  1  0.05615960  0.84650662  0.48313059  1
  C  C7  1  0.20965297  0.15349338  0.01686941  1
  C  C8  1  0.58829606  0.46888612  0.14343622  1
  C  C9  1  0.11940995  0.53111388  0.35656378  1
  C  C10  1  0.41170394  0.53111388  0.85656378  1
  C  C11  1  0.88059005  0.46888612  0.64343622  1
  C  C12  1  0.85415500  0.22980899  0.13800466  1
  C  C13  1  0.62434601  0.77019101  0.36199534  1
  C  C14  1  0.14584500  0.77019101  0.86199534  1
  C  C15  1  0.37565399  0.22980899  0.63800466  1
  S  S0  1  0.24921401  0.20826953  0.38260004  1
  S  S1  1  0.04094448  0.79173047  0.11739996  1
  S  S2  1  0.75078599  0.79173047  0.61739996  1
  S  S3  1  0.95905552  0.20826953  0.88260004  1
  S  S4  1  0.95386944  0.19717402  0.41908483  1
  S  S5  1  0.75669542  0.80282598  0.08091517  1
  S  S6  1  0.04613056  0.80282598  0.58091517  1
  S  S7  1  0.24330458  0.19717402  0.91908483  1
  S  S8  1  0.75711219  0.47242754  0.19453855  1
  S  S9  1  0.28468465  0.52757246  0.30546145  1
  S  S10  1  0.24288781  0.52757246  0.80546145  1
  S  S11  1  0.71531535  0.47242754  0.69453855  1
  S  S12  1  0.67732588  0.23795336  0.16813129  1
  S  S13  1  0.43937252  0.76204664  0.33186871  1
  S  S14  1  0.32267412  0.76204664  0.83186871  1
  S  S15  1  0.56062748  0.23795336  0.66813129  1
  N  N0  1  0.13172772  0.26874013  0.41980830  1
  N  N1  1  0.86298759  0.73125987  0.08019170  1
  N  N2  1  0.86827228  0.73125987  0.58019170  1
  N  N3  1  0.13701241  0.26874013  0.91980830  1
  N  N4  1  0.71073313  0.36533386  0.23253488  1
  N  N5  1  0.34539928  0.63466614  0.26746512  1
  N  N6  1  0.28926687  0.63466614  0.76746512  1
  N  N7  1  0.65460072  0.36533386  0.73253488  1
  O  O0  1  0.54147008  0.09911929  0.39470549  1
  O  O1  1  0.44235079  0.90088071  0.10529451  1
  O  O2  1  0.45852992  0.90088071  0.60529451  1
  O  O3  1  0.55764921  0.09911929  0.89470549  1
  O  O4  1  0.72944874  0.50373813  0.43744331  1
  O  O5  1  0.22571061  0.49626187  0.06255669  1
  O  O6  1  0.27055126  0.49626187  0.56255669  1
  O  O7  1  0.77428939  0.50373813  0.93744331  1
  O  O8  1  0.40148854  0.29801709  0.41375895  1
  O  O9  1  0.10347146  0.70198291  0.08624105  1
  O  O10  1  0.59851146  0.70198291  0.58624105  1
  O  O11  1  0.89652854  0.29801709  0.91375895  1
  O  O12  1  0.22586439  0.10367511  0.40512531  1
  O  O13  1  0.12218928  0.89632489  0.09487469  1
  O  O14  1  0.77413561  0.89632489  0.59487469  1
  O  O15  1  0.87781072  0.10367511  0.90512531  1
  O  O16  1  0.88045779  0.27980712  0.43317054  1
  O  O17  1  0.60065067  0.72019288  0.06682946  1
  O  O18  1  0.11954221  0.72019288  0.56682946  1
  O  O19  1  0.39934933  0.27980712  0.93317054  1
  O  O20  1  0.88802786  0.09390599  0.34047976  1
  O  O21  1  0.79412187  0.90609401  0.15952024  1
  O  O22  1  0.11197214  0.90609401  0.65952024  1
  O  O23  1  0.20587813  0.09390599  0.84047976  1
  O  O24  1  0.81170519  0.57372327  0.27552540  1
  O  O25  1  0.23798192  0.42627673  0.22447460  1
  O  O26  1  0.18829481  0.42627673  0.72447460  1
  O  O27  1  0.76201808  0.57372327  0.77552540  1
  O  O28  1  0.86115177  0.46781216  0.12577241  1
  O  O29  1  0.39333961  0.53218784  0.37422759  1
  O  O30  1  0.13884823  0.53218784  0.87422759  1
  O  O31  1  0.60666039  0.46781216  0.62577241  1
  O  O32  1  0.62367436  0.16693019  0.22704064  1
  O  O33  1  0.45674417  0.83306981  0.27295936  1
  O  O34  1  0.37632564  0.83306981  0.77295936  1
  O  O35  1  0.54325583  0.16693019  0.72704064  1
  O  O36  1  0.57701729  0.20326189  0.08490692  1
  O  O37  1  0.37375540  0.79673811  0.41509308  1
  O  O38  1  0.42298271  0.79673811  0.91509308  1
  O  O39  1  0.62624460  0.20326189  0.58490692  1
loop_
_geom_bond_atom_site_label_1
_geom_bond_atom_site_label_2
_geom_bond_distance
_geom_bond_site_symmetry_2
Na0 O16 2.377790 1_555
Na0 O32 2.431771 1_555
Na0 O4 2.455846 1_555
Na0 O8 2.485080 1_555
Na0 O0 2.499842 1_555
Na1 O17 2.377790 1_555
Na1 O33 2.431771 1_555
Na1 O5 2.455846 1_555
Na1 O9 2.485080 1_555
Na1 O1 2.499842 1_555
Na2 O18 2.377790 1_555
Na2 O34 2.431771 1_555
Na2 O6 2.455846 1_555
Na2 O10 2.485080 1_555
Na2 O2 2.499842 1_555
Na3 O19 2.377790 1_555
Na3 O35 2.431771 1_555
Na3 O7 2.455846 1_555
Na3 O11 2.485080 1_555
Na3 O3 2.499842 1_555
Na4 O32 2.389185 1_555
Na4 O33 2.389185 1_545
Na4 O21 2.445531 1_545
Na4 O20 2.445531 1_555
Na4 O0 2.604508 1_555
Na4 O1 2.604508 1_545
Na5 O34 2.389185 1_545
Na5 O35 2.389185 1_555
Na5 O23 2.445531 1_555
Na5 O22 2.445531 1_545
Na5 O2 2.604508 1_545
Na5 O3 2.604508 1_555
Na6 O6 2.377593 1_555
Na6 O4 2.377593 1_555
Na6 O8 2.422742 1_555
Na6 O10 2.422742 1_555
Na6 O29 2.424110 1_555
Na6 O31 2.424110 1_555
Na7 O5 2.377593 1_555
Na7 O7 2.377593 1_454
Na7 O9 2.422742 1_555
Na7 O11 2.422742 1_454
Na7 O30 2.424110 1_554
Na7 O28 2.424110 1_455
H0 O0 0.984165 1_555
H1 O1 0.984165 1_555
H2 O2 0.984165 1_555
H3 O3 0.984165 1_555
H4 O0 0.980220 1_555
H5 O1 0.980220 1_555
H6 O2 0.980220 1_555
H7 O3 0.980220 1_555
H8 O4 0.986479 1_555
H9 O5 0.986479 1_555
H10 O6 0.986479 1_555
H11 O7 0.986479 1_555
H12 O4 0.984366 1_555
H13 O5 0.984366 1_555
H14 O6 0.984366 1_555
H15 O7 0.984366 1_555
C0 H24 1.095995 1_555
C0 H16 1.096439 1_555
C0 H20 1.097121 1_555
C0 S0 1.773852 1_555
C1 H25 1.095995 1_555
C1 H17 1.096439 1_455
C1 H21 1.097121 1_455
C1 S1 1.773852 1_555
C2 H26 1.095995 1_555
C2 H18 1.096439 1_555
C2 H22 1.097121 1_555
C2 S2 1.773852 1_555
C3 H27 1.095995 1_555
C3 H19 1.096439 1_655
C3 H23 1.097121 1_655
C3 S3 1.773852 1_555
C4 H36 1.094671 1_555
C4 H28 1.095384 1_655
C4 H32 1.096182 1_555
C4 S4 1.778527 1_555
C5 H37 1.094671 1_555
C5 H29 1.095384 1_555
C5 H33 1.096182 1_555
C5 S5 1.778527 1_556
C6 H38 1.094671 1_555
C6 H30 1.095384 1_455
C6 H34 1.096182 1_555
C6 S6 1.778527 1_555
C7 H39 1.094671 1_555
C7 H31 1.095384 1_555
C7 H35 1.096182 1_555
C7 S7 1.778527 1_554
C8 H44 1.094313 1_555
C8 H40 1.095814 1_555
C8 H48 1.096759 1_555
C8 S8 1.769593 1_555
C9 H45 1.094313 1_555
C9 H41 1.095814 1_555
C9 H49 1.096759 1_555
C9 S9 1.769593 1_555
C10 H46 1.094313 1_555
C10 H42 1.095814 1_555
C10 H50 1.096759 1_555
C10 S10 1.769593 1_555
C11 H47 1.094313 1_555
C11 H43 1.095814 1_555
C11 H51 1.096759 1_555
C11 S11 1.769593 1_555
C12 H52 1.094340 1_555
C12 H60 1.095065 1_555
C12 H56 1.095467 1_555
C12 S12 1.774821 1_555
C13 H53 1.094340 1_555
C13 H61 1.095065 1_555
C13 H57 1.095467 1_555
C13 S13 1.774821 1_555
C14 H54 1.094340 1_555
C14 H62 1.095065 1_555
C14 H58 1.095467 1_555
C14 S14 1.774821 1_555
C15 H55 1.094340 1_555
C15 H63 1.095065 1_555
C15 H59 1.095467 1_555
C15 S15 1.774821 1_555
N0 S0 1.607068 1_555
N0 S4 1.609463 1_455
N1 S1 1.607068 1_655
N1 S5 1.609463 1_555
N2 S2 1.607068 1_555
N2 S6 1.609463 1_655
N3 S3 1.607068 1_455
N3 S7 1.609463 1_555
N4 S12 1.597000 1_555
N4 S8 1.612493 1_555
N4 Na0 2.722093 1_555
N5 S13 1.597000 1_555
N5 S9 1.612493 1_555
N5 Na1 2.722093 1_555
N6 S14 1.597000 1_555
N6 S10 1.612493 1_555
N6 Na2 2.722093 1_555
N7 S15 1.597000 1_555
N7 S11 1.612493 1_555
N7 Na3 2.722093 1_555
O8 S0 1.468204 1_555
O9 S1 1.468204 1_555
O10 S2 1.468204 1_555
O11 S3 1.468204 1_555
O12 S0 1.466671 1_555
O13 S1 1.466671 1_555
O14 S2 1.466671 1_555
O15 S3 1.466671 1_555
O16 S4 1.458862 1_555
O17 S5 1.458862 1_555
O18 S6 1.458862 1_555
O19 S7 1.458862 1_555
O20 S4 1.465537 1_555
O21 S5 1.465537 1_555
O22 S6 1.465537 1_555
O23 S7 1.465537 1_555
O24 S8 1.466950 1_555
O25 S9 1.466950 1_555
O26 S10 1.466950 1_555
O27 S11 1.466950 1_555
O28 S8 1.462171 1_555
O29 S9 1.462171 1_555
O30 S10 1.462171 1_555
O31 S11 1.462171 1_555
O32 S12 1.469113 1_555
O33 S13 1.469113 1_555
O34 S14 1.469113 1_555
O35 S15 1.469113 1_555
O36 S12 1.462533 1_555
O37 S13 1.462533 1_555
O38 S14 1.462533 1_555
O39 S15 1.462533 1_555
