# generated using pymatgen
data_Sr2V2O7
_symmetry_space_group_name_H-M   'P 1'
_cell_length_a   7.04383390
_cell_length_b   7.04383390
_cell_length_c   25.67630528
_cell_angle_alpha   90.00000000
_cell_angle_beta   90.00000000
_cell_angle_gamma   90.00000000
_symmetry_Int_Tables_number   1
_chemical_formula_structural   Sr2V2O7
_chemical_formula_sum   'Sr16 V16 O56'
_cell_volume   1273.94518986
_cell_formula_units_Z   8
loop_
 _symmetry_equiv_pos_site_id
 _symmetry_equiv_pos_as_xyz
  1  'x, y, z'
loop_
 _atom_site_type_symbol
 _atom_site_label
 _atom_site_symmetry_multiplicity
 _atom_site_fract_x
 _atom_site_fract_y
 _atom_site_fract_z
 _atom_site_occupancy
  Sr  Sr0  1  0.21932887  0.08843589  0.39286713  1
  Sr  Sr1  1  0.08843589  0.78067113  0.14286713  1
  Sr  Sr2  1  0.83630391  0.49532045  0.40229291  1
  Sr  Sr3  1  0.31465516  0.93555430  0.00269826  1
  Sr  Sr4  1  0.72132782  0.30809353  -0.00027662  1
  Sr  Sr5  1  0.91156411  0.21932887  0.64286713  1
  Sr  Sr6  1  0.93555430  0.68534484  0.75269826  1
  Sr  Sr7  1  0.16369609  0.50467955  0.90229291  1
  Sr  Sr8  1  0.49532045  0.16369609  0.15229291  1
  Sr  Sr9  1  0.06444570  0.31465516  0.25269826  1
  Sr  Sr10  1  0.27867218  0.69190647  0.49972338  1
  Sr  Sr11  1  0.30809353  0.27867218  0.74972338  1
  Sr  Sr12  1  0.50467955  0.83630391  0.65229291  1
  Sr  Sr13  1  0.68534484  0.06444570  0.50269826  1
  Sr  Sr14  1  0.78067113  0.91156411  0.89286713  1
  Sr  Sr15  1  0.69190647  0.72132782  0.24972338  1
  V  V0  1  0.43410985  0.29797694  0.61647525  1
  V  V1  1  0.82666334  0.77302682  0.01721758  1
  V  V2  1  0.17333666  0.22697318  0.51721758  1
  V  V3  1  0.23256091  0.39243222  0.02933858  1
  V  V4  1  0.29797694  0.56589015  0.36647525  1
  V  V5  1  0.22697318  0.82666334  0.26721758  1
  V  V6  1  0.69538984  0.96629892  0.37698428  1
  V  V7  1  0.76743909  0.60756778  0.52933858  1
  V  V8  1  0.96629892  0.30461016  0.12698428  1
  V  V9  1  0.77302682  0.17333666  0.76721758  1
  V  V10  1  0.03370108  0.69538984  0.62698428  1
  V  V11  1  0.30461016  0.03370108  0.87698428  1
  V  V12  1  0.70202306  0.43410985  0.86647525  1
  V  V13  1  0.56589015  0.70202306  0.11647525  1
  V  V14  1  0.60756778  0.23256091  0.27933858  1
  V  V15  1  0.39243222  0.76743909  0.77933858  1
  O  O0  1  0.69154763  0.95049478  0.99136649  1
  O  O1  1  0.80134926  0.78869024  0.34461232  1
  O  O2  1  0.04950522  0.69154763  0.24136649  1
  O  O3  1  0.31796191  0.57643706  0.99460422  1
  O  O4  1  0.24665571  0.58799868  0.79851311  1
  O  O5  1  0.39953330  0.86523989  0.09804042  1
  O  O6  1  0.13476011  0.39953330  0.34804042  1
  O  O7  1  0.38240566  0.68944326  0.30860628  1
  O  O8  1  0.87726796  0.44225530  0.17471043  1
  O  O9  1  0.27673548  0.18120022  0.65501189  1
  O  O10  1  0.19865074  0.21130976  0.84461232  1
  O  O11  1  0.58799868  0.75334429  0.54851311  1
  O  O12  1  0.12273204  0.55774470  0.67471043  1
  O  O13  1  0.52915862  0.54690575  0.89827972  1
  O  O14  1  0.11778530  0.14701661  0.15632918  1
  O  O15  1  0.53211727  0.09311219  0.33497448  1
  O  O16  1  0.63556235  0.10726436  0.71652278  1
  O  O17  1  0.90487328  0.74030113  0.48968826  1
  O  O18  1  0.55774470  0.87726796  0.42471043  1
  O  O19  1  0.36443765  0.89273564  0.21652278  1
  O  O20  1  0.44225530  0.12273204  0.92471043  1
  O  O21  1  0.68203809  0.42356294  0.49460422  1
  O  O22  1  0.47084138  0.45309425  0.39827972  1
  O  O23  1  0.61759434  0.31055674  0.80860628  1
  O  O24  1  0.98496596  0.13738828  0.54894503  1
  O  O25  1  0.74030113  0.09512672  0.23968826  1
  O  O26  1  0.85298339  0.11778530  0.40632918  1
  O  O27  1  0.86523989  0.60046670  0.84804042  1
  O  O28  1  0.78869024  0.19865074  0.09461232  1
  O  O29  1  0.21130976  0.80134926  0.59461232  1
  O  O30  1  0.09512672  0.25969887  0.98968826  1
  O  O31  1  0.54690575  0.47084138  0.64827972  1
  O  O32  1  0.30845237  0.04950522  0.49136649  1
  O  O33  1  0.18120022  0.72326452  0.40501189  1
  O  O34  1  0.88221470  0.85298339  0.65632918  1
  O  O35  1  0.14701661  0.88221470  0.90632918  1
  O  O36  1  0.89273564  0.63556235  0.96652278  1
  O  O37  1  0.72326452  0.81879978  0.15501189  1
  O  O38  1  0.13738828  0.01503404  0.29894503  1
  O  O39  1  0.31055674  0.38240566  0.55860628  1
  O  O40  1  0.60046670  0.13476011  0.59804042  1
  O  O41  1  0.75334429  0.41200132  0.29851311  1
  O  O42  1  0.45309425  0.52915862  0.14827972  1
  O  O43  1  0.42356294  0.31796191  0.24460422  1
  O  O44  1  0.41200132  0.24665571  0.04851311  1
  O  O45  1  0.81879978  0.27673548  0.90501189  1
  O  O46  1  0.90688781  0.53211727  0.58497448  1
  O  O47  1  0.57643706  0.68203809  0.74460422  1
  O  O48  1  0.10726436  0.36443765  0.46652278  1
  O  O49  1  0.01503404  0.86261172  0.04894503  1
  O  O50  1  0.86261172  0.98496596  0.79894503  1
  O  O51  1  0.46788273  0.90688781  0.83497448  1
  O  O52  1  0.68944326  0.61759434  0.05860628  1
  O  O53  1  0.95049478  0.30845237  0.74136649  1
  O  O54  1  0.09311219  0.46788273  0.08497448  1
  O  O55  1  0.25969887  0.90487328  0.73968826  1
loop_
_geom_bond_atom_site_label_1
_geom_bond_atom_site_label_2
_geom_bond_distance
_geom_bond_site_symmetry_2
O0 V1 1.705582 1_556
O0 Sr4 2.536677 1_566
O0 Sr14 2.620236 1_555
O0 Sr3 2.672737 1_556
O1 V6 1.677215 1_555
O1 Sr2 2.554264 1_555
O1 Sr15 2.599126 1_555
O2 V5 1.705582 1_555
O2 Sr15 2.536677 1_455
O2 Sr1 2.620236 1_555
O2 Sr9 2.672737 1_555
O3 V3 1.684379 1_556
O3 Sr3 2.538192 1_556
O3 Sr7 2.655963 1_555
O4 V15 1.701272 1_555
O4 Sr11 2.550294 1_555
O4 Sr6 2.579920 1_455
O4 Sr7 2.790418 1_555
O5 V13 1.708475 1_555
O5 Sr1 2.545876 1_555
O5 Sr3 2.568195 1_555
O5 Sr8 2.610604 1_565
O6 V4 1.708475 1_555
O6 Sr0 2.545876 1_555
O6 Sr9 2.568195 1_555
O6 Sr2 2.610604 1_455
O7 V5 1.806172 1_555
O7 V4 1.821772 1_555
O7 Sr15 2.662514 1_555
O8 V8 1.683742 1_555
O8 Sr9 2.560450 1_655
O8 Sr1 2.926293 1_655
O8 Sr15 3.046073 1_555
O9 V0 1.698376 1_555
O9 Sr11 2.536538 1_555
O9 Sr5 2.604922 1_455
O9 Sr12 2.912863 1_545
O10 V11 1.677215 1_555
O10 Sr7 2.554264 1_555
O10 Sr11 2.599126 1_555
O11 V7 1.701272 1_555
O11 Sr10 2.550294 1_555
O11 Sr13 2.579920 1_565
O11 Sr12 2.790418 1_555
O12 V10 1.683742 1_555
O12 Sr6 2.560450 1_455
O12 Sr5 2.926293 1_455
O12 Sr11 3.046073 1_555
O13 V12 1.667556 1_555
O13 Sr7 2.593431 1_555
O13 Sr14 3.123395 1_555
O14 V8 1.714217 1_455
O14 Sr1 2.611719 1_545
O14 Sr8 2.663906 1_555
O14 Sr9 2.767338 1_555
O15 V6 1.812194 1_545
O15 V14 1.813272 1_555
O15 Sr0 2.657987 1_555
O16 V9 1.687740 1_555
O16 Sr12 2.685610 1_545
O16 Sr11 2.739527 1_555
O16 Sr5 2.824769 1_555
O17 V7 1.687530 1_555
O17 Sr10 2.667426 1_655
O17 Sr13 2.777732 1_565
O17 Sr2 2.871668 1_555
O18 V6 1.683742 1_555
O18 Sr13 2.560450 1_565
O18 Sr0 2.926293 1_565
O18 Sr10 3.046073 1_555
O19 V5 1.687740 1_555
O19 Sr8 2.685610 1_565
O19 Sr15 2.739527 1_555
O19 Sr1 2.824769 1_555
O20 V11 1.683742 1_555
O20 Sr3 2.560450 1_546
O20 Sr14 2.926293 1_545
O20 Sr4 3.046073 1_556
O21 V7 1.684379 1_555
O21 Sr13 2.538192 1_555
O21 Sr2 2.655963 1_555
O22 V4 1.667556 1_555
O22 Sr2 2.593431 1_555
O22 Sr0 3.123395 1_555
O23 V9 1.806172 1_555
O23 V12 1.821772 1_555
O23 Sr11 2.662514 1_555
O24 V2 1.679990 1_655
O24 Sr13 2.475509 1_555
O24 Sr5 2.533009 1_555
O25 V14 1.687530 1_555
O25 Sr15 2.667426 1_545
O25 Sr9 2.777732 1_655
O25 Sr8 2.871668 1_555
O26 V6 1.714217 1_545
O26 Sr0 2.611719 1_655
O26 Sr2 2.663906 1_555
O26 Sr13 2.767338 1_555
O27 V12 1.708475 1_555
O27 Sr14 2.545876 1_555
O27 Sr6 2.568195 1_555
O27 Sr7 2.610604 1_655
O28 V8 1.677215 1_555
O28 Sr8 2.554264 1_555
O28 Sr4 2.599126 1_555
O29 V10 1.677215 1_555
O29 Sr12 2.554264 1_555
O29 Sr10 2.599126 1_555
O30 V3 1.687530 1_556
O30 Sr4 2.667426 1_456
O30 Sr3 2.777732 1_546
O30 Sr7 2.871668 1_555
O31 V0 1.667556 1_555
O31 Sr12 2.593431 1_555
O31 Sr5 3.123395 1_555
O32 V2 1.705582 1_555
O32 Sr10 2.536677 1_545
O32 Sr0 2.620236 1_555
O32 Sr13 2.672737 1_555
O33 V4 1.698376 1_555
O33 Sr10 2.536538 1_555
O33 Sr0 2.604922 1_565
O33 Sr2 2.912863 1_455
O34 V10 1.714217 1_655
O34 Sr5 2.611719 1_565
O34 Sr12 2.663906 1_555
O34 Sr6 2.767338 1_555
O35 V11 1.714217 1_565
O35 Sr14 2.611719 1_455
O35 Sr7 2.663906 1_555
O35 Sr3 2.767338 1_556
O36 V1 1.687740 1_556
O36 Sr7 2.685610 1_655
O36 Sr4 2.739527 1_556
O36 Sr14 2.824769 1_555
O37 V13 1.698376 1_555
O37 Sr15 2.536538 1_555
O37 Sr1 2.604922 1_655
O37 Sr8 2.912863 1_565
O38 V5 1.679990 1_545
O38 Sr9 2.475509 1_555
O38 Sr0 2.533009 1_555
O39 V2 1.806172 1_555
O39 V0 1.821772 1_555
O39 Sr10 2.662514 1_555
O40 V0 1.708475 1_555
O40 Sr5 2.545876 1_555
O40 Sr13 2.568195 1_555
O40 Sr12 2.610604 1_545
O41 V14 1.701272 1_555
O41 Sr15 2.550294 1_555
O41 Sr9 2.579920 1_655
O41 Sr2 2.790418 1_555
O42 V13 1.667556 1_555
O42 Sr8 2.593431 1_555
O42 Sr1 3.123395 1_555
O43 V14 1.684379 1_555
O43 Sr9 2.538192 1_555
O43 Sr8 2.655963 1_555
O44 V3 1.701272 1_555
O44 Sr4 2.550294 1_555
O44 Sr3 2.579920 1_545
O44 Sr8 2.790418 1_555
O45 V12 1.698376 1_555
O45 Sr4 2.536538 1_556
O45 Sr14 2.604922 1_545
O45 Sr7 2.912863 1_655
O46 V10 1.812194 1_655
O46 V7 1.813272 1_555
O46 Sr5 2.657987 1_555
O47 V15 1.684379 1_555
O47 Sr6 2.538192 1_555
O47 Sr12 2.655963 1_555
O48 V2 1.687740 1_555
O48 Sr2 2.685610 1_455
O48 Sr10 2.739527 1_555
O48 Sr0 2.824769 1_555
O49 V1 1.679990 1_455
O49 Sr3 2.475509 1_555
O49 Sr1 2.533009 1_555
O50 V9 1.679990 1_565
O50 Sr6 2.475509 1_555
O50 Sr14 2.533009 1_555
O51 V11 1.812194 1_565
O51 V15 1.813272 1_555
O51 Sr14 2.657987 1_555
O52 V1 1.806172 1_555
O52 V13 1.821772 1_555
O52 Sr4 2.662514 1_555
O53 V9 1.705582 1_555
O53 Sr11 2.536677 1_655
O53 Sr5 2.620236 1_555
O53 Sr6 2.672737 1_555
O54 V8 1.812194 1_455
O54 V3 1.813272 1_555
O54 Sr1 2.657987 1_555
O55 V15 1.687530 1_555
O55 Sr11 2.667426 1_565
O55 Sr6 2.777732 1_455
O55 Sr12 2.871668 1_555
