# generated using pymatgen
data_LuAgSn
_symmetry_space_group_name_H-M   'P 1'
_cell_length_a   4.64517257
_cell_length_b   4.64517350
_cell_length_c   7.29994294
_cell_angle_alpha   90.00000000
_cell_angle_beta   90.00000000
_cell_angle_gamma   119.99998616
_symmetry_Int_Tables_number   1
_chemical_formula_structural   LuAgSn
_chemical_formula_sum   'Lu2 Ag2 Sn2'
_cell_volume   136.41243168
_cell_formula_units_Z   2
loop_
 _symmetry_equiv_pos_site_id
 _symmetry_equiv_pos_as_xyz
  1  'x, y, z'
loop_
 _atom_site_type_symbol
 _atom_site_label
 _atom_site_symmetry_multiplicity
 _atom_site_fract_x
 _atom_site_fract_y
 _atom_site_fract_z
 _atom_site_occupancy
  Lu  Lu0  1  -0.00000000  -0.00000000  0.50263370  1
  Lu  Lu1  1  -0.00000000  -0.00000000  0.00263370  1
  Ag  Ag0  1  0.66666700  0.33333300  0.17931903  1
  Ag  Ag1  1  0.33333300  0.66666700  0.67931903  1
  Sn  Sn0  1  0.33333300  0.66666700  0.28204627  1
  Sn  Sn1  1  0.66666700  0.33333300  0.78204627  1
loop_
_geom_bond_atom_site_label_1
_geom_bond_atom_site_label_2
_geom_bond_distance
_geom_bond_site_symmetry_2
Lu0 Sn0 3.128181 1_545
Lu0 Sn0 3.128185 1_445
Lu0 Sn0 3.128185 1_555
Lu0 Sn1 3.369405 1_455
Lu0 Sn1 3.369408 1_555
Lu0 Sn1 3.369409 1_445
Lu1 Sn1 3.128181 1_454
Lu1 Sn1 3.128185 1_554
Lu1 Sn1 3.128185 1_444
Lu1 Sn0 3.369405 1_545
Lu1 Sn0 3.369408 1_445
Lu1 Sn0 3.369409 1_555
Ag0 Sn0 2.784759 1_655
Ag0 Sn0 2.784760 1_545
Ag0 Sn0 2.784767 1_555
Ag0 Sn1 2.900068 1_554
Ag0 Lu1 2.975919 1_655
Ag0 Lu1 2.975923 1_555
Ag0 Lu1 2.975923 1_665
Ag0 Lu0 3.572530 1_655
Ag0 Lu0 3.572533 1_555
Ag0 Lu0 3.572534 1_665
Ag1 Sn1 2.784759 1_455
Ag1 Sn1 2.784760 1_565
Ag1 Sn1 2.784767 1_555
Ag1 Sn0 2.900068 1_555
Ag1 Lu0 2.975919 1_565
Ag1 Lu0 2.975923 1_665
Ag1 Lu0 2.975923 1_555
Ag1 Lu1 3.572530 1_566
Ag1 Lu1 3.572533 1_666
Ag1 Lu1 3.572534 1_556
