# generated using pymatgen
data_Rb(Nb2Cl5)3
_symmetry_space_group_name_H-M   'P 1'
_cell_length_a   9.53976658
_cell_length_b   13.61891051
_cell_length_c   18.17021306
_cell_angle_alpha   90.00000000
_cell_angle_beta   90.00000000
_cell_angle_gamma   90.00000000
_symmetry_Int_Tables_number   1
_chemical_formula_structural   Rb(Nb2Cl5)3
_chemical_formula_sum   'Rb4 Nb24 Cl60'
_cell_volume   2360.69638177
_cell_formula_units_Z   4
loop_
 _symmetry_equiv_pos_site_id
 _symmetry_equiv_pos_as_xyz
  1  'x, y, z'
loop_
 _atom_site_type_symbol
 _atom_site_label
 _atom_site_symmetry_multiplicity
 _atom_site_fract_x
 _atom_site_fract_y
 _atom_site_fract_z
 _atom_site_occupancy
  Rb  Rb0  1  0.81494542  0.25340631  0.75000000  1
  Rb  Rb1  1  0.18505458  0.74659369  0.25000000  1
  Rb  Rb2  1  0.81494542  0.74659369  0.75000000  1
  Rb  Rb3  1  0.18505458  0.25340631  0.25000000  1
  Nb  Nb0  1  0.07952368  0.50000000  0.10495263  1
  Nb  Nb1  1  0.92047632  0.50000000  0.89504737  1
  Nb  Nb2  1  0.07952368  0.50000000  0.39504737  1
  Nb  Nb3  1  0.92047632  0.50000000  0.60495263  1
  Nb  Nb4  1  0.14374537  0.39184273  0.52958031  1
  Nb  Nb5  1  0.85625463  0.60815727  0.47041969  1
  Nb  Nb6  1  0.14374537  0.60815727  0.97041969  1
  Nb  Nb7  1  0.85625463  0.39184273  0.47041969  1
  Nb  Nb8  1  0.85625463  0.39184273  0.02958031  1
  Nb  Nb9  1  0.14374537  0.60815727  0.52958031  1
  Nb  Nb10  1  0.85625463  0.60815727  0.02958031  1
  Nb  Nb11  1  0.14374537  0.39184273  0.97041969  1
  Nb  Nb12  1  0.32347689  0.10849414  0.66871982  1
  Nb  Nb13  1  0.67652311  0.89150586  0.33128018  1
  Nb  Nb14  1  0.32347689  0.89150586  0.83128018  1
  Nb  Nb15  1  0.67652311  0.10849414  0.33128018  1
  Nb  Nb16  1  0.67652311  0.10849414  0.16871982  1
  Nb  Nb17  1  0.32347689  0.89150586  0.66871982  1
  Nb  Nb18  1  0.67652311  0.89150586  0.16871982  1
  Nb  Nb19  1  0.32347689  0.10849414  0.83128018  1
  Nb  Nb20  1  0.53803351  0.00000000  0.75000000  1
  Nb  Nb21  1  0.46196649  0.00000000  0.25000000  1
  Nb  Nb22  1  0.11034061  0.00000000  0.75000000  1
  Nb  Nb23  1  0.88965939  0.00000000  0.25000000  1
  Cl  Cl0  1  0.32554686  0.25004981  0.56631887  1
  Cl  Cl1  1  0.67445314  0.74995019  0.43368113  1
  Cl  Cl2  1  0.32554686  0.74995019  0.93368113  1
  Cl  Cl3  1  0.67445314  0.25004981  0.43368113  1
  Cl  Cl4  1  0.67445314  0.25004981  0.06631887  1
  Cl  Cl5  1  0.32554686  0.74995019  0.56631887  1
  Cl  Cl6  1  0.67445314  0.74995019  0.06631887  1
  Cl  Cl7  1  0.32554686  0.25004981  0.93368113  1
  Cl  Cl8  1  0.07582642  0.37593358  0.65959320  1
  Cl  Cl9  1  0.92417358  0.62406642  0.34040680  1
  Cl  Cl10  1  0.07582642  0.62406642  0.84040680  1
  Cl  Cl11  1  0.92417358  0.37593358  0.34040680  1
  Cl  Cl12  1  0.92417358  0.37593358  0.15959320  1
  Cl  Cl13  1  0.07582642  0.62406642  0.65959320  1
  Cl  Cl14  1  0.92417358  0.62406642  0.15959320  1
  Cl  Cl15  1  0.07582642  0.37593358  0.84040680  1
  Cl  Cl16  1  0.58041868  0.12513660  0.65281392  1
  Cl  Cl17  1  0.41958132  0.87486340  0.34718608  1
  Cl  Cl18  1  0.58041868  0.87486340  0.84718608  1
  Cl  Cl19  1  0.41958132  0.12513660  0.34718608  1
  Cl  Cl20  1  0.41958132  0.12513660  0.15281392  1
  Cl  Cl21  1  0.58041868  0.87486340  0.65281392  1
  Cl  Cl22  1  0.41958132  0.87486340  0.15281392  1
  Cl  Cl23  1  0.58041868  0.12513660  0.84718608  1
  Cl  Cl24  1  0.33718199  0.50000000  0.56938820  1
  Cl  Cl25  1  0.66281801  0.50000000  0.43061180  1
  Cl  Cl26  1  0.33718199  0.50000000  0.93061180  1
  Cl  Cl27  1  0.66281801  0.50000000  0.06938820  1
  Cl  Cl28  1  0.33247309  0.25323677  0.75000000  1
  Cl  Cl29  1  0.66752691  0.74676323  0.25000000  1
  Cl  Cl30  1  0.33247309  0.74676323  0.75000000  1
  Cl  Cl31  1  0.66752691  0.25323677  0.25000000  1
  Cl  Cl32  1  0.32281740  0.00000000  0.55987153  1
  Cl  Cl33  1  0.67718260  0.00000000  0.44012847  1
  Cl  Cl34  1  0.32281740  0.00000000  0.94012847  1
  Cl  Cl35  1  0.67718260  0.00000000  0.05987153  1
  Cl  Cl36  1  0.81713842  0.50000000  0.75000000  1
  Cl  Cl37  1  0.18286158  0.50000000  0.25000000  1
  Cl  Cl38  1  0.82272871  0.00000000  0.75000000  1
  Cl  Cl39  1  0.17727129  0.00000000  0.25000000  1
  Cl  Cl40  1  0.26540358  0.37361144  0.09099477  1
  Cl  Cl41  1  0.73459642  0.62638856  0.90900523  1
  Cl  Cl42  1  0.26540358  0.62638856  0.40900523  1
  Cl  Cl43  1  0.73459642  0.37361144  0.90900523  1
  Cl  Cl44  1  0.73459642  0.37361144  0.59099477  1
  Cl  Cl45  1  0.26540358  0.62638856  0.09099477  1
  Cl  Cl46  1  0.73459642  0.62638856  0.59099477  1
  Cl  Cl47  1  0.26540358  0.37361144  0.40900523  1
  Cl  Cl48  1  0.06663222  0.12453301  0.65444154  1
  Cl  Cl49  1  0.93336778  0.87546699  0.34555846  1
  Cl  Cl50  1  0.06663222  0.87546699  0.84555846  1
  Cl  Cl51  1  0.93336778  0.12453301  0.34555846  1
  Cl  Cl52  1  0.93336778  0.12453301  0.15444154  1
  Cl  Cl53  1  0.06663222  0.87546699  0.65444154  1
  Cl  Cl54  1  0.93336778  0.87546699  0.15444154  1
  Cl  Cl55  1  0.06663222  0.12453301  0.84555846  1
  Cl  Cl56  1  0.00000000  0.24733208  0.50000000  1
  Cl  Cl57  1  0.00000000  0.75266792  0.50000000  1
  Cl  Cl58  1  0.00000000  0.75266792  -0.00000000  1
  Cl  Cl59  1  0.00000000  0.24733208  -0.00000000  1
loop_
_geom_bond_atom_site_label_1
_geom_bond_atom_site_label_2
_geom_bond_distance
_geom_bond_site_symmetry_2
Cl0 Nb12 2.679355 1_555
Cl0 Nb4 2.680034 1_555
Cl1 Nb13 2.679355 1_555
Cl1 Nb5 2.680034 1_555
Cl2 Nb14 2.679355 1_555
Cl2 Nb6 2.680034 1_555
Cl3 Nb15 2.679355 1_555
Cl3 Nb7 2.680034 1_555
Cl4 Nb16 2.679355 1_555
Cl4 Nb8 2.680034 1_555
Cl5 Nb17 2.679355 1_555
Cl5 Nb9 2.680034 1_555
Cl6 Nb18 2.679355 1_555
Cl6 Nb10 2.680034 1_555
Cl7 Nb19 2.679355 1_555
Cl7 Nb11 2.680034 1_555
Cl8 Nb3 2.457023 1_455
Cl8 Nb4 2.459169 1_555
Cl8 Rb0 3.417143 1_455
Cl9 Nb2 2.457023 1_655
Cl9 Nb5 2.459169 1_555
Cl9 Rb1 3.417143 1_655
Cl10 Nb1 2.457023 1_455
Cl10 Nb6 2.459169 1_555
Cl10 Rb2 3.417143 1_455
Cl11 Nb2 2.457023 1_655
Cl11 Nb7 2.459169 1_555
Cl11 Rb3 3.417143 1_655
Cl12 Nb0 2.457023 1_655
Cl12 Nb8 2.459169 1_555
Cl12 Rb3 3.417143 1_655
Cl13 Nb3 2.457023 1_455
Cl13 Nb9 2.459169 1_555
Cl13 Rb2 3.417143 1_455
Cl14 Nb0 2.457023 1_655
Cl14 Nb10 2.459169 1_555
Cl14 Rb1 3.417143 1_655
Cl15 Nb1 2.457023 1_455
Cl15 Nb11 2.459169 1_555
Cl15 Rb0 3.417143 1_455
Cl16 Nb12 2.478529 1_555
Cl16 Nb20 2.487217 1_555
Cl16 Rb0 3.343001 1_555
Cl17 Nb13 2.478529 1_555
Cl17 Nb21 2.487217 1_565
Cl17 Rb1 3.343001 1_555
Cl18 Nb14 2.478529 1_555
Cl18 Nb20 2.487217 1_565
Cl18 Rb2 3.343001 1_555
Cl19 Nb15 2.478529 1_555
Cl19 Nb21 2.487217 1_555
Cl19 Rb3 3.343001 1_555
Cl20 Nb16 2.478529 1_555
Cl20 Nb21 2.487217 1_555
Cl20 Rb3 3.343001 1_555
Cl21 Nb17 2.478529 1_555
Cl21 Nb20 2.487217 1_565
Cl21 Rb2 3.343001 1_555
Cl22 Nb18 2.478529 1_555
Cl22 Nb21 2.487217 1_565
Cl22 Rb1 3.343001 1_555
Cl23 Nb19 2.478529 1_555
Cl23 Nb20 2.487217 1_555
Cl23 Rb0 3.343001 1_555
Cl24 Nb9 2.469444 1_555
Cl24 Nb4 2.469444 1_555
Cl25 Nb5 2.469444 1_555
Cl25 Nb7 2.469444 1_555
Cl26 Nb6 2.469444 1_555
Cl26 Nb11 2.469444 1_555
Cl27 Nb8 2.469444 1_555
Cl27 Nb10 2.469444 1_555
Cl28 Nb12 2.464611 1_555
Cl28 Nb19 2.464611 1_555
Cl29 Nb13 2.464611 1_555
Cl29 Nb18 2.464611 1_555
Cl30 Nb17 2.464611 1_555
Cl30 Nb14 2.464611 1_555
Cl31 Nb15 2.464611 1_555
Cl31 Nb16 2.464611 1_555
Cl32 Nb17 2.468793 1_545
Cl32 Nb12 2.468793 1_555
Cl33 Nb15 2.468793 1_555
Cl33 Nb13 2.468793 1_545
Cl34 Nb14 2.468793 1_545
Cl34 Nb19 2.468793 1_555
Cl35 Nb18 2.468793 1_545
Cl35 Nb16 2.468793 1_555
Cl36 Nb3 2.813880 1_555
Cl36 Nb1 2.813880 1_555
Cl36 Rb2 3.358403 1_555
Cl36 Rb0 3.358403 1_555
Cl37 Nb2 2.813880 1_555
Cl37 Nb0 2.813880 1_555
Cl37 Rb1 3.358403 1_555
Cl37 Rb3 3.358403 1_555
Cl38 Nb20 2.715926 1_555
Cl38 Nb22 2.743750 1_655
Cl38 Rb0 3.451917 1_555
Cl38 Rb2 3.451917 1_545
Cl39 Nb21 2.715926 1_555
Cl39 Nb23 2.743750 1_455
Cl39 Rb1 3.451917 1_545
Cl39 Rb3 3.451917 1_555
Cl40 Nb0 2.484256 1_555
Cl40 Nb11 2.491697 1_554
Cl40 Rb3 3.408042 1_555
Cl41 Nb1 2.484256 1_555
Cl41 Nb10 2.491697 1_556
Cl41 Rb2 3.408042 1_555
Cl42 Nb2 2.484256 1_555
Cl42 Nb9 2.491697 1_555
Cl42 Rb1 3.408042 1_555
Cl43 Nb1 2.484256 1_555
Cl43 Nb8 2.491697 1_556
Cl43 Rb0 3.408042 1_555
Cl44 Nb3 2.484256 1_555
Cl44 Nb7 2.491697 1_555
Cl44 Rb0 3.408042 1_555
Cl45 Nb0 2.484256 1_555
Cl45 Nb6 2.491697 1_554
Cl45 Rb1 3.408042 1_555
Cl46 Nb3 2.484256 1_555
Cl46 Nb5 2.491697 1_555
Cl46 Rb2 3.408042 1_555
Cl47 Nb2 2.484256 1_555
Cl47 Nb4 2.491697 1_555
Cl47 Rb3 3.408042 1_555
Cl48 Nb22 2.462740 1_555
Cl48 Nb12 2.473598 1_555
Cl48 Rb0 3.443862 1_455
Cl49 Nb23 2.462740 1_565
Cl49 Nb13 2.473598 1_555
Cl49 Rb1 3.443862 1_655
Cl50 Nb22 2.462740 1_565
Cl50 Nb14 2.473598 1_555
Cl50 Rb2 3.443862 1_455
Cl51 Nb23 2.462740 1_555
Cl51 Nb15 2.473598 1_555
Cl51 Rb3 3.443862 1_655
Cl52 Nb23 2.462740 1_555
Cl52 Nb16 2.473598 1_555
Cl52 Rb3 3.443862 1_655
Cl53 Nb22 2.462740 1_565
Cl53 Nb17 2.473598 1_555
Cl53 Rb2 3.443862 1_455
Cl54 Nb23 2.462740 1_565
Cl54 Nb18 2.473598 1_555
Cl54 Rb1 3.443862 1_655
Cl55 Nb22 2.462740 1_555
Cl55 Nb19 2.473598 1_555
Cl55 Rb0 3.443862 1_455
Cl56 Nb7 2.458184 1_455
Cl56 Nb4 2.458184 1_555
Cl57 Nb5 2.458184 1_455
Cl57 Nb9 2.458184 1_555
Cl58 Nb10 2.458184 1_455
Cl58 Nb6 2.458184 1_554
Cl59 Nb8 2.458184 1_455
Cl59 Nb11 2.458184 1_554
