# generated using pymatgen
data_DyMgMoS4
_symmetry_space_group_name_H-M   'P 1'
_cell_length_a   7.70563270
_cell_length_b   7.64605717
_cell_length_c   7.64611955
_cell_angle_alpha   59.98179032
_cell_angle_beta   59.74132955
_cell_angle_gamma   59.74257670
_symmetry_Int_Tables_number   1
_chemical_formula_structural   DyMgMoS4
_chemical_formula_sum   'Dy2 Mg2 Mo2 S8'
_cell_volume   317.25438145
_cell_formula_units_Z   2
loop_
 _symmetry_equiv_pos_site_id
 _symmetry_equiv_pos_as_xyz
  1  'x, y, z'
loop_
 _atom_site_type_symbol
 _atom_site_label
 _atom_site_symmetry_multiplicity
 _atom_site_fract_x
 _atom_site_fract_y
 _atom_site_fract_z
 _atom_site_occupancy
  Dy  Dy0  1  0.50000200  0.50001800  0.49997900  1
  Dy  Dy1  1  0.99999700  0.49999100  0.50001600  1
  Mg  Mg0  1  0.87323200  0.87677000  0.87676900  1
  Mg  Mg1  1  0.12677200  0.12323200  0.12322900  1
  Mo  Mo0  1  0.50000200  0.49999400  0.00000000  1
  Mo  Mo1  1  0.50000000  0.99999800  0.50000500  1
  S  S0  1  0.71829900  0.75346500  0.75346300  1
  S  S1  1  0.26532400  0.23713000  0.73222800  1
  S  S2  1  0.26532100  0.73223000  0.23712300  1
  S  S3  1  0.72522600  0.24653700  0.24653200  1
  S  S4  1  0.73466100  0.26776900  0.76287200  1
  S  S5  1  0.27477600  0.75345600  0.75346900  1
  S  S6  1  0.28169800  0.24652700  0.24654700  1
  S  S7  1  0.73469400  0.76287900  0.26776900  1
loop_
_geom_bond_atom_site_label_1
_geom_bond_atom_site_label_2
_geom_bond_distance
_geom_bond_site_symmetry_2
Dy0 S2 2.705321 1_555
Dy0 S7 2.705350 1_555
Dy0 S4 2.705398 1_555
Dy0 S1 2.705413 1_555
Dy0 S5 2.739054 1_555
Dy0 S3 2.739055 1_555
Dy1 S1 2.705334 1_655
Dy1 S4 2.705370 1_555
Dy1 S7 2.705387 1_555
Dy1 S2 2.705400 1_655
Dy1 S0 2.739015 1_555
Dy1 S6 2.739078 1_655
Mg0 S7 2.439548 1_556
Mg0 S4 2.439551 1_565
Mg0 S5 2.522118 1_655
Mg0 S0 2.522124 1_555
Mg1 S1 2.439552 1_554
Mg1 S2 2.439571 1_545
Mg1 S6 2.522091 1_555
Mg1 S3 2.522134 1_455
Mo0 S4 2.528082 1_554
Mo0 S2 2.528113 1_555
Mo0 S3 2.563850 1_555
Mo0 S5 2.563857 1_554
Mo0 S0 2.563859 1_554
Mo0 S6 2.563875 1_555
Mo1 S7 2.528092 1_555
Mo1 S1 2.528093 1_565
Mo1 S3 2.563845 1_565
Mo1 S5 2.563847 1_555
Mo1 S0 2.563856 1_555
Mo1 S6 2.563870 1_565
