# generated using pymatgen
data_Li4MnCo2O7
_symmetry_space_group_name_H-M   'P 1'
_cell_length_a   5.92739300
_cell_length_b   6.50318272
_cell_length_c   7.64568759
_cell_angle_alpha   104.74750042
_cell_angle_beta   110.95541346
_cell_angle_gamma   103.17313859
_symmetry_Int_Tables_number   1
_chemical_formula_structural   Li4MnCo2O7
_chemical_formula_sum   'Li8 Mn2 Co4 O14'
_cell_volume   249.00779370
_cell_formula_units_Z   2
loop_
 _symmetry_equiv_pos_site_id
 _symmetry_equiv_pos_as_xyz
  1  'x, y, z'
loop_
 _atom_site_type_symbol
 _atom_site_label
 _atom_site_symmetry_multiplicity
 _atom_site_fract_x
 _atom_site_fract_y
 _atom_site_fract_z
 _atom_site_occupancy
  Li  Li0  1  0.57159400  0.07428600  0.35846300  1
  Li  Li1  1  0.72406900  0.22081200  0.07222600  1
  Li  Li2  1  0.27593100  0.77918800  0.92777400  1
  Li  Li3  1  0.42840600  0.92571400  0.64153700  1
  Li  Li4  1  0.00000000  0.50000000  0.50000000  1
  Li  Li5  1  0.14339500  0.63839400  0.21314300  1
  Li  Li6  1  0.85660500  0.36160600  0.78685700  1
  Li  Li7  1  0.50000000  0.50000000  0.50000000  1
  Mn  Mn0  1  0.92442900  0.92525600  0.63992800  1
  Mn  Mn1  1  0.07557100  0.07474400  0.36007200  1
  Co  Co0  1  0.22897300  0.22676400  0.08524900  1
  Co  Co1  1  0.35552500  0.36024800  0.78626000  1
  Co  Co2  1  0.64447500  0.63975200  0.21374000  1
  Co  Co3  1  0.77102700  0.77323600  0.91475100  1
  O  O0  1  0.95979300  0.19330300  0.56041400  1
  O  O1  1  0.09610500  0.33347000  0.28168000  1
  O  O2  1  0.71096600  0.91958100  0.15886000  1
  O  O3  1  0.83159400  0.06060800  0.84682900  1
  O  O4  1  0.41465000  0.63961500  0.73644400  1
  O  O5  1  0.57275500  0.78411800  0.43183700  1
  O  O6  1  0.25535500  0.49157600  0.99119000  1
  O  O7  1  0.16840600  0.93939200  0.15317100  1
  O  O8  1  0.28903400  0.08041900  0.84114000  1
  O  O9  1  0.90389500  0.66653000  0.71832000  1
  O  O10  1  0.04020700  0.80669700  0.43958600  1
  O  O11  1  0.58535000  0.36038500  0.26355600  1
  O  O12  1  0.74464500  0.50842400  0.00881000  1
  O  O13  1  0.42724500  0.21588200  0.56816300  1
loop_
_geom_bond_atom_site_label_1
_geom_bond_atom_site_label_2
_geom_bond_distance
_geom_bond_site_symmetry_2
Li0 O0 2.077573 1_555
Li0 O5 2.101834 1_545
Li0 O2 2.126628 1_545
Li0 O7 2.145908 1_545
Li0 O11 2.157631 1_555
Li0 O13 2.176983 1_555
Li1 O1 2.025963 1_655
Li1 O12 2.036754 1_555
Li1 O11 2.040684 1_555
Li1 O3 2.153053 1_554
Li1 O2 2.215935 1_545
Li1 O8 2.334821 1_554
Li2 O9 2.025963 1_455
Li2 O6 2.036754 1_555
Li2 O4 2.040684 1_555
Li2 O7 2.153053 1_556
Li2 O8 2.215935 1_565
Li2 O2 2.334821 1_556
Li3 O10 2.077573 1_555
Li3 O13 2.101834 1_565
Li3 O8 2.126628 1_565
Li3 O3 2.145908 1_565
Li3 O4 2.157631 1_555
Li3 O5 2.176983 1_555
Li4 O9 2.079561 1_455
Li4 O1 2.079561 1_555
Li4 O0 2.139939 1_455
Li4 O10 2.139939 1_555
Li4 O11 2.258829 1_455
Li4 O4 2.258829 1_555
Li5 O7 2.106449 1_555
Li5 O6 2.121603 1_554
Li5 O12 2.125429 1_455
Li5 O1 2.160116 1_555
Li5 O10 2.160392 1_555
Li5 O5 2.284956 1_555
Li6 O3 2.106449 1_555
Li6 O12 2.121603 1_556
Li6 O6 2.125429 1_655
Li6 O9 2.160116 1_555
Li6 O0 2.160392 1_555
Li6 O13 2.284956 1_555
Li7 O13 2.039433 1_555
Li7 O5 2.039433 1_555
Li7 O11 2.091945 1_555
Li7 O4 2.091945 1_555
Li7 O9 2.174878 1_555
Li7 O1 2.174878 1_555
Mn0 O9 1.917618 1_555
Mn0 O3 1.927299 1_565
Mn0 O5 1.931630 1_555
Mn0 O10 1.950248 1_655
Mn0 O8 1.973089 1_665
Mn0 O0 1.978957 1_565
Mn1 O1 1.917618 1_555
Mn1 O7 1.927299 1_545
Mn1 O13 1.931630 1_555
Mn1 O0 1.950248 1_455
Mn1 O2 1.973089 1_445
Mn1 O10 1.978957 1_545
Co0 O11 1.891082 1_555
Co0 O1 1.980373 1_555
Co0 O6 2.023744 1_554
Co0 O7 2.052501 1_545
Co0 O8 2.059426 1_554
Co0 O3 2.191906 1_454
Co1 O4 1.930318 1_555
Co1 O13 1.932517 1_555
Co1 O6 1.937052 1_555
Co1 O8 1.955281 1_555
Co1 O12 2.118644 1_556
Co1 O0 2.156420 1_455
Co2 O11 1.930318 1_555
Co2 O5 1.932517 1_555
Co2 O12 1.937052 1_555
Co2 O2 1.955281 1_555
Co2 O6 2.118644 1_554
Co2 O10 2.156420 1_655
Co3 O4 1.891082 1_555
Co3 O9 1.980373 1_555
Co3 O12 2.023744 1_556
Co3 O3 2.052501 1_565
Co3 O2 2.059426 1_556
Co3 O7 2.191906 1_656
