# generated using pymatgen
data_NaNdTiNbO6F
_symmetry_space_group_name_H-M   'P 1'
_cell_length_a   7.36431509
_cell_length_b   7.36431509
_cell_length_c   7.36431509
_cell_angle_alpha   121.22805564
_cell_angle_beta   117.88568492
_cell_angle_gamma   90.79329786
_symmetry_Int_Tables_number   1
_chemical_formula_structural   NaNdTiNbO6F
_chemical_formula_sum   'Na2 Nd2 Ti2 Nb2 O12 F2'
_cell_volume   283.97609555
_cell_formula_units_Z   2
loop_
 _symmetry_equiv_pos_site_id
 _symmetry_equiv_pos_as_xyz
  1  'x, y, z'
loop_
 _atom_site_type_symbol
 _atom_site_label
 _atom_site_symmetry_multiplicity
 _atom_site_fract_x
 _atom_site_fract_y
 _atom_site_fract_z
 _atom_site_occupancy
  Na  Na0  1  0.50000000  0.00000000  0.00000000  1
  Na  Na1  1  0.50000000  0.50000000  0.50000000  1
  Nd  Nd0  1  0.50000000  0.00000000  0.50000000  1
  Nd  Nd1  1  0.00000000  0.00000000  0.00000000  1
  Ti  Ti0  1  0.00000000  0.50000000  0.00000000  1
  Ti  Ti1  1  0.00000000  0.00000000  0.50000000  1
  Nb  Nb0  1  0.00000000  0.50000000  0.50000000  1
  Nb  Nb1  1  0.50000000  0.50000000  0.00000000  1
  O  O0  1  0.92132200  0.17132200  0.75000000  1
  O  O1  1  0.31652900  0.56652900  0.75000000  1
  O  O2  1  0.93673500  0.58252000  0.76530600  1
  O  O3  1  0.31721400  0.17142900  0.73469400  1
  O  O4  1  0.93673500  0.17142900  0.35421600  1
  O  O5  1  0.31721400  0.58252000  0.14578400  1
  O  O6  1  0.07867800  0.82867800  0.25000000  1
  O  O7  1  0.68347100  0.43347100  0.25000000  1
  O  O8  1  0.06326500  0.41748000  0.23469400  1
  O  O9  1  0.68278700  0.82857100  0.26530600  1
  O  O10  1  0.06326500  0.82857100  0.64578400  1
  O  O11  1  0.68278700  0.41748000  0.85421600  1
  F  F0  1  0.62251800  0.87251800  0.75000000  1
  F  F1  1  0.37748300  0.12748300  0.25000000  1
loop_
_geom_bond_atom_site_label_1
_geom_bond_atom_site_label_2
_geom_bond_distance
_geom_bond_site_symmetry_2
Na0 O7 2.620138 1_555
Na0 O1 2.620138 1_544
Na0 O3 2.714329 1_554
Na0 O4 2.714330 1_555
Na0 O10 2.714330 1_544
Na0 O9 2.714330 1_545
Na1 O1 2.620138 1_555
Na1 O7 2.620138 1_555
Na1 O8 2.714329 1_555
Na1 O2 2.714329 1_555
Na1 O5 2.714336 1_555
Na1 O11 2.714336 1_555
Nd0 O3 2.520686 1_555
Nd0 O5 2.520687 1_545
Nd0 O11 2.520687 1_555
Nd0 O9 2.520692 1_545
Nd0 O0 2.597695 1_555
Nd0 O6 2.597695 1_545
Nd1 O2 2.520686 1_444
Nd1 O8 2.520686 1_555
Nd1 O10 2.520692 1_544
Nd1 O4 2.520692 1_455
Nd1 O6 2.597695 1_545
Nd1 O0 2.597695 1_454
Nb0 O8 2.007958 1_555
Nb0 O2 2.007958 1_455
Nb0 O10 2.007959 1_555
Nb0 O4 2.007959 1_455
Nb0 O7 2.020374 1_455
Nb0 O1 2.020374 1_555
Nb1 O5 2.007952 1_555
Nb1 O3 2.007958 1_554
Nb1 O9 2.007959 1_555
Nb1 O11 2.007959 1_554
Nb1 O1 2.020374 1_554
Nb1 O7 2.020374 1_555
O0 Ti1 1.981580 1_655
O0 Ti0 1.981580 1_656
O2 Ti0 1.979210 1_656
O3 Ti1 1.979210 1_555
O4 Ti1 1.979205 1_655
O5 Ti0 1.979212 1_555
O6 Ti1 1.981580 1_565
O6 Ti0 1.981580 1_555
O8 Ti0 1.979210 1_555
O9 Ti1 1.979205 1_665
O10 Ti1 1.979205 1_565
O11 Ti0 1.979205 1_656
F0 Na0 2.206838 1_566
F0 Na1 2.206838 1_555
F0 Nd0 2.312321 1_565
F0 Nd1 2.312321 1_666
F1 Na0 2.206832 1_555
F1 Na1 2.206832 1_555
F1 Nd1 2.312327 1_555
F1 Nd0 2.312327 1_555
