# generated using pymatgen
data_Tb14(P8Ir11)3
_symmetry_space_group_name_H-M   'P 1'
_cell_length_a   12.03746646
_cell_length_b   12.03746646
_cell_length_c   26.82213765
_cell_angle_alpha   68.46793398
_cell_angle_beta   68.46793398
_cell_angle_gamma   18.88260359
_symmetry_Int_Tables_number   1
_chemical_formula_structural   Tb14(P8Ir11)3
_chemical_formula_sum   'Tb14 P24 Ir33'
_cell_volume   1167.50253882
_cell_formula_units_Z   1
loop_
 _symmetry_equiv_pos_site_id
 _symmetry_equiv_pos_as_xyz
  1  'x, y, z'
loop_
 _atom_site_type_symbol
 _atom_site_label
 _atom_site_symmetry_multiplicity
 _atom_site_fract_x
 _atom_site_fract_y
 _atom_site_fract_z
 _atom_site_occupancy
  Tb  Tb0  1  0.58095800  0.58095800  0.37267800  1
  Tb  Tb1  1  0.58288400  0.58288400  0.87260500  1
  Tb  Tb2  1  0.41700700  0.41700700  0.12745400  1
  Tb  Tb3  1  0.41733000  0.41733000  0.62733900  1
  Tb  Tb4  1  0.77017700  0.77017700  0.34622800  1
  Tb  Tb5  1  0.76619000  0.76619000  0.84416300  1
  Tb  Tb6  1  0.23422600  0.23422600  0.15575200  1
  Tb  Tb7  1  0.23408600  0.23408600  0.65549800  1
  Tb  Tb8  1  0.49864900  0.49864900  0.25151200  1
  Tb  Tb9  1  0.49996200  0.49996200  0.74996100  1
  Tb  Tb10  1  0.63167700  0.63167700  0.00160200  1
  Tb  Tb11  1  0.63301400  0.63301400  0.50109000  1
  Tb  Tb12  1  0.36918600  0.36918600  0.49660400  1
  Tb  Tb13  1  0.36854300  0.36854300  0.99829800  1
  P  P0  1  0.63315100  0.63315100  0.21112500  1
  P  P1  1  0.63395800  0.63395800  0.71060700  1
  P  P2  1  0.36661400  0.36661400  0.28975900  1
  P  P3  1  0.36612500  0.36612500  0.78935100  1
  P  P4  1  0.11484300  0.11484300  0.08445500  1
  P  P5  1  0.11527000  0.11527000  0.58421600  1
  P  P6  1  0.88230300  0.88230300  0.41315900  1
  P  P7  1  0.88508800  0.88508800  0.91574200  1
  P  P8  1  0.98561500  0.98561500  0.16594900  1
  P  P9  1  0.98525900  0.98525900  0.66540600  1
  P  P10  1  0.01152400  0.01152400  0.33733300  1
  P  P11  1  0.01482300  0.01482300  0.83452700  1
  P  P12  1  0.76608200  0.76608200  0.05823400  1
  P  P13  1  0.76668000  0.76668000  0.55717000  1
  P  P14  1  0.23928800  0.23928800  0.44171500  1
  P  P15  1  0.23377700  0.23377700  0.94197900  1
  P  P16  1  0.93807500  0.93807500  0.03776000  1
  P  P17  1  0.93849600  0.93849600  0.53656000  1
  P  P18  1  0.06386900  0.06386900  0.46189100  1
  P  P19  1  0.06166000  0.06166000  0.96258200  1
  P  P20  1  0.81116400  0.81116400  0.18950100  1
  P  P21  1  0.81192800  0.81192800  0.68900000  1
  P  P22  1  0.18813000  0.18813000  0.31042400  1
  P  P23  1  0.18806900  0.18806900  0.81095700  1
  Ir  Ir0  1  0.77953300  0.77953300  0.46203700  1
  Ir  Ir1  1  0.78081500  0.78081500  0.96386900  1
  Ir  Ir2  1  0.21911500  0.21911500  0.03623500  1
  Ir  Ir3  1  0.22072700  0.22072700  0.53713300  1
  Ir  Ir4  1  0.09088400  0.09088400  0.17568100  1
  Ir  Ir5  1  0.09099500  0.09099500  0.67538600  1
  Ir  Ir6  1  0.90541000  0.90541000  0.32175200  1
  Ir  Ir7  1  0.90867000  0.90867000  0.82477900  1
  Ir  Ir8  1  0.44893000  0.44893000  0.37362000  1
  Ir  Ir9  1  0.45879500  0.45879500  0.86946000  1
  Ir  Ir10  1  0.54105700  0.54105700  0.13076500  1
  Ir  Ir11  1  0.54118500  0.54118500  0.63046300  1
  Ir  Ir12  1  0.16605700  0.16605700  0.40311500  1
  Ir  Ir13  1  0.16164700  0.16164700  0.90393400  1
  Ir  Ir14  1  0.83802500  0.83802500  0.09644800  1
  Ir  Ir15  1  0.83856800  0.83856800  0.59578000  1
  Ir  Ir16  1  0.11063100  0.11063100  0.27347700  1
  Ir  Ir17  1  0.11197700  0.11197700  0.77182400  1
  Ir  Ir18  1  0.88815500  0.88815500  0.22653300  1
  Ir  Ir19  1  0.88806300  0.88806300  0.72800900  1
  Ir  Ir20  1  0.70546300  0.70546300  0.25705900  1
  Ir  Ir21  1  0.70455500  0.70455500  0.75749400  1
  Ir  Ir22  1  0.29646100  0.29646100  0.24362900  1
  Ir  Ir23  1  0.29523600  0.29523600  0.74287700  1
  Ir  Ir24  1  0.50023900  0.50023900  0.99983800  1
  Ir  Ir25  1  0.50152900  0.50152900  0.49906900  1
  Ir  Ir26  1  0.97422300  0.97422300  0.43658600  1
  Ir  Ir27  1  0.97288200  0.97288200  0.93788200  1
  Ir  Ir28  1  0.02716700  0.02716700  0.06209400  1
  Ir  Ir29  1  0.02709300  0.02709300  0.56205400  1
  Ir  Ir30  1  0.33437700  0.33437700  0.88711900  1
  Ir  Ir31  1  0.66536900  0.66536900  0.11319700  1
  Ir  Ir32  1  0.66560900  0.66560900  0.61299200  1
loop_
_geom_bond_atom_site_label_1
_geom_bond_atom_site_label_2
_geom_bond_distance
_geom_bond_site_symmetry_2
P0 Tb8 2.966807 1_555
P0 Tb6 3.035451 1_655
P0 Tb6 3.035451 1_565
P1 Tb9 2.956578 1_555
P1 Tb7 3.020414 1_655
P1 Tb7 3.020414 1_565
P2 Tb8 2.913962 1_555
P2 Tb4 2.976091 1_455
P2 Tb4 2.976091 1_545
P3 Tb9 2.952974 1_555
P3 Tb5 3.016081 1_455
P3 Tb5 3.016081 1_545
P4 Tb10 2.887269 1_545
P4 Tb10 2.887269 1_455
P5 Tb11 2.889400 1_455
P5 Tb11 2.889400 1_545
P6 Tb12 2.913186 1_565
P6 Tb12 2.913186 1_655
P7 Tb13 2.882571 1_565
P7 Tb13 2.882571 1_655
P8 Tb2 2.978554 1_565
P8 Tb2 2.978554 1_655
P8 Tb8 3.128960 1_565
P8 Tb8 3.128960 1_655
P9 Tb3 2.961377 1_655
P9 Tb3 2.961377 1_565
P9 Tb9 3.123107 1_655
P9 Tb9 3.123107 1_565
P10 Tb0 2.946211 1_455
P10 Tb0 2.946211 1_545
P10 Tb8 3.132891 1_455
P10 Tb8 3.132891 1_545
P11 Tb1 2.963649 1_545
P11 Tb1 2.963649 1_455
P11 Tb9 3.124769 1_545
P11 Tb9 3.124769 1_455
P12 Tb13 3.081170 1_564
P12 Tb13 3.081170 1_654
P12 Tb6 3.136948 1_655
P12 Tb6 3.136948 1_565
P13 Tb12 3.085699 1_655
P13 Tb12 3.085699 1_565
P13 Tb7 3.151946 1_565
P13 Tb7 3.151946 1_655
P14 Tb4 3.098168 1_455
P14 Tb4 3.098168 1_545
P14 Tb11 3.132776 1_455
P14 Tb11 3.132776 1_545
P15 Tb10 3.074157 1_456
P15 Tb10 3.074157 1_546
P15 Tb5 3.142003 1_545
P15 Tb5 3.142003 1_455
P16 Tb2 3.006899 1_565
P16 Tb2 3.006899 1_655
P16 Tb13 3.007780 1_564
P16 Tb13 3.007780 1_654
P17 Tb12 3.011587 1_655
P17 Tb12 3.011587 1_565
P17 Tb3 3.028134 1_565
P17 Tb3 3.028134 1_655
P18 Tb11 2.997620 1_455
P18 Tb11 2.997620 1_545
P18 Tb0 3.011140 1_545
P18 Tb0 3.011140 1_455
P19 Tb10 3.009046 1_456
P19 Tb10 3.009046 1_546
P19 Tb1 3.012020 1_455
P19 Tb1 3.012020 1_545
P20 Tb6 3.047594 1_655
P20 Tb6 3.047594 1_565
P20 Tb2 3.142326 1_655
P20 Tb2 3.142326 1_565
P21 Tb7 3.059435 1_655
P21 Tb7 3.059435 1_565
P21 Tb3 3.133619 1_565
P21 Tb3 3.133619 1_655
P22 Tb0 3.162719 1_545
P22 Tb0 3.162719 1_455
P22 Tb4 3.163925 1_545
P22 Tb4 3.163925 1_455
P23 Tb5 3.060057 1_455
P23 Tb5 3.060057 1_545
P23 Tb1 3.130437 1_455
P23 Tb1 3.130437 1_545
Ir0 P6 2.301000 1_555
Ir0 P14 2.344629 1_565
Ir0 P14 2.344629 1_655
Ir0 P13 2.454508 1_555
Ir0 Ir3 2.795233 1_565
Ir0 Ir3 2.795233 1_655
Ir0 Tb4 3.195577 1_555
Ir0 Tb11 3.239285 1_555
Ir0 Tb12 3.280378 1_565
Ir0 Tb12 3.280378 1_655
Ir1 P7 2.328089 1_555
Ir1 P12 2.422756 1_556
Ir1 P15 2.445344 1_565
Ir1 P15 2.445344 1_655
Ir1 Ir2 2.774388 1_566
Ir1 Ir2 2.774388 1_656
Ir1 Ir30 2.793983 1_655
Ir1 Ir30 2.793983 1_565
Ir1 Tb13 3.244097 1_655
Ir1 Tb13 3.244097 1_565
Ir1 Tb10 3.301758 1_556
Ir1 Tb5 3.355521 1_555
Ir2 P4 2.328465 1_555
Ir2 P15 2.420271 1_554
Ir2 P12 2.445623 1_545
Ir2 P12 2.445623 1_455
Ir2 Ir31 2.798004 1_455
Ir2 Ir31 2.798004 1_545
Ir2 Tb10 3.241816 1_545
Ir2 Tb10 3.241816 1_455
Ir2 Tb13 3.307855 1_554
Ir2 Tb6 3.355796 1_555
Ir3 P5 2.348130 1_555
Ir3 P13 2.411491 1_545
Ir3 P13 2.411491 1_455
Ir3 P14 2.430003 1_555
Ir3 Ir32 2.787574 1_455
Ir3 Ir32 2.787574 1_545
Ir3 Tb11 3.266706 1_455
Ir3 Tb11 3.266706 1_545
Ir3 Tb12 3.280313 1_555
Ir3 Tb7 3.305985 1_555
Ir4 P4 2.296724 1_555
Ir4 P0 2.553530 1_545
Ir4 P0 2.553530 1_455
Ir4 P8 2.608412 1_445
Ir4 Tb8 3.085260 1_455
Ir4 Tb8 3.085260 1_545
Ir4 Tb6 3.243496 1_555
Ir5 P5 2.294160 1_555
Ir5 P1 2.559255 1_455
Ir5 P1 2.559255 1_545
Ir5 P9 2.622497 1_445
Ir5 Tb9 3.058771 1_545
Ir5 Tb9 3.058771 1_455
Ir5 Tb7 3.237853 1_555
Ir6 P6 2.304554 1_555
Ir6 P2 2.464268 1_565
Ir6 P2 2.464268 1_655
Ir6 P10 2.703547 1_665
Ir6 Ir8 2.823590 1_565
Ir6 Ir8 2.823590 1_655
Ir6 Tb4 3.029288 1_555
Ir6 Tb8 3.040941 1_655
Ir6 Tb8 3.040941 1_565
Ir7 P7 2.291202 1_555
Ir7 P3 2.556823 1_565
Ir7 P3 2.556823 1_655
Ir7 P11 2.629512 1_665
Ir7 Ir9 2.795342 1_565
Ir7 Ir9 2.795342 1_655
Ir7 Tb9 3.064173 1_565
Ir7 Tb9 3.064173 1_655
Ir7 Tb5 3.226584 1_555
Ir8 P10 2.445296 1_655
Ir8 P10 2.445296 1_565
Ir8 P6 2.505740 1_545
Ir8 P6 2.505740 1_455
Ir8 Tb8 3.040300 1_555
Ir8 Tb0 3.126196 1_555
Ir8 Tb12 3.133577 1_555
Ir9 P11 2.370591 1_655
Ir9 P11 2.370591 1_565
Ir9 P7 2.624340 1_455
Ir9 P7 2.624340 1_545
Ir9 Tb1 2.979382 1_555
Ir9 Tb9 2.982859 1_555
Ir9 Tb13 3.320295 1_555
Ir10 P8 2.366142 1_455
Ir10 P8 2.366142 1_545
Ir10 P4 2.625431 1_565
Ir10 P4 2.625431 1_655
Ir10 Ir4 2.794910 1_565
Ir10 Ir4 2.794910 1_655
Ir10 Ir28 2.802241 1_565
Ir10 Ir28 2.802241 1_655
Ir10 Ir31 2.811177 1_555
Ir10 Tb2 2.980223 1_555
Ir10 Tb8 3.012684 1_555
Ir10 Tb10 3.329533 1_555
Ir11 P9 2.369638 1_455
Ir11 P9 2.369638 1_545
Ir11 P5 2.628550 1_655
Ir11 P5 2.628550 1_565
Ir11 Ir5 2.794785 1_565
Ir11 Ir5 2.794785 1_655
Ir11 Ir29 2.799059 1_565
Ir11 Ir29 2.799059 1_655
Ir11 Ir32 2.814387 1_555
Ir11 Tb3 2.973603 1_555
Ir11 Tb9 2.982738 1_555
Ir11 Tb11 3.341572 1_555
Ir12 P14 2.331615 1_555
Ir12 P22 2.342231 1_555
Ir12 P18 2.351163 1_555
Ir12 Tb4 3.087717 1_545
Ir12 Tb4 3.087717 1_455
Ir12 Tb0 3.142878 1_545
Ir12 Tb0 3.142878 1_455
Ir12 Tb11 3.144223 1_455
Ir12 Tb11 3.144223 1_545
Ir13 P15 2.297051 1_555
Ir13 P19 2.309451 1_555
Ir13 P23 2.334211 1_555
Ir13 Tb1 3.045265 1_455
Ir13 Tb1 3.045265 1_545
Ir13 Tb5 3.109904 1_545
Ir13 Tb5 3.109904 1_455
Ir13 Tb10 3.143372 1_456
Ir13 Tb10 3.143372 1_546
Ir14 P12 2.296282 1_555
Ir14 P16 2.310930 1_555
Ir14 P20 2.334864 1_555
Ir14 Tb2 3.044634 1_655
Ir14 Tb2 3.044634 1_565
Ir14 Tb6 3.096471 1_655
Ir14 Tb6 3.096471 1_565
Ir14 Tb13 3.151990 1_564
Ir14 Tb13 3.151990 1_654
Ir15 P13 2.302788 1_555
Ir15 P17 2.312998 1_555
Ir15 P21 2.339859 1_555
Ir15 Tb3 3.048365 1_565
Ir15 Tb3 3.048365 1_655
Ir15 Tb7 3.108715 1_655
Ir15 Tb7 3.108715 1_565
Ir15 Tb12 3.172475 1_565
Ir15 Tb12 3.172475 1_655
Ir16 P10 2.339562 1_555
Ir16 P22 2.393071 1_555
Ir16 P0 2.513252 1_545
Ir16 P0 2.513252 1_455
Ir16 Ir4 2.831246 1_555
Ir16 Ir20 2.902947 1_545
Ir16 Ir20 2.902947 1_455
Ir16 Tb0 3.174918 1_455
Ir16 Tb0 3.174918 1_545
Ir16 Tb6 3.418981 1_555
Ir17 P11 2.294471 1_555
Ir17 P23 2.403905 1_555
Ir17 P1 2.495949 1_545
Ir17 P1 2.495949 1_455
Ir17 Ir5 2.810392 1_555
Ir17 Ir21 2.872600 1_545
Ir17 Ir21 2.872600 1_455
Ir17 Tb1 3.208377 1_455
Ir17 Tb1 3.208377 1_545
Ir17 Tb7 3.378141 1_555
Ir17 Tb9 3.532776 1_455
Ir17 Tb9 3.532776 1_545
Ir18 P8 2.280139 1_555
Ir18 P20 2.383538 1_555
Ir18 P2 2.528058 1_655
Ir18 P2 2.528058 1_565
Ir18 Ir6 2.733041 1_555
Ir18 Ir22 2.847504 1_565
Ir18 Ir22 2.847504 1_655
Ir18 Tb2 3.174252 1_655
Ir18 Tb2 3.174252 1_565
Ir18 Tb4 3.385836 1_555
Ir19 P9 2.294242 1_555
Ir19 P21 2.402457 1_555
Ir19 P3 2.497933 1_655
Ir19 P3 2.497933 1_565
Ir19 Ir7 2.814562 1_555
Ir19 Ir23 2.874684 1_565
Ir19 Ir23 2.874684 1_655
Ir19 Tb3 3.205706 1_655
Ir19 Tb3 3.205706 1_565
Ir19 Tb5 3.372468 1_555
Ir19 Tb9 3.531597 1_655
Ir19 Tb9 3.531597 1_565
Ir20 P22 2.383027 1_655
Ir20 P22 2.383027 1_565
Ir20 P0 2.457963 1_555
Ir20 P20 2.490015 1_555
Ir20 Ir22 2.849530 1_655
Ir20 Ir22 2.849530 1_565
Ir20 Tb6 3.219935 1_655
Ir20 Tb6 3.219935 1_565
Ir20 Tb4 3.288992 1_555
Ir20 Tb0 3.396577 1_555
Ir21 P23 2.385551 1_565
Ir21 P23 2.385551 1_655
Ir21 P1 2.441626 1_555
Ir21 P21 2.528150 1_555
Ir21 Ir23 2.839417 1_655
Ir21 Ir23 2.839417 1_565
Ir21 Tb5 3.174685 1_555
Ir21 Tb7 3.232257 1_565
Ir21 Tb7 3.232257 1_655
Ir21 Tb1 3.353138 1_555
Ir22 P20 2.398231 1_455
Ir22 P20 2.398231 1_545
Ir22 P2 2.416732 1_555
Ir22 P22 2.529598 1_555
Ir22 Tb6 3.214423 1_555
Ir22 Tb4 3.253228 1_455
Ir22 Tb4 3.253228 1_545
Ir22 Tb2 3.356706 1_555
Ir23 P21 2.391272 1_455
Ir23 P21 2.391272 1_545
Ir23 P3 2.439203 1_555
Ir23 P23 2.520646 1_555
Ir23 Tb7 3.183488 1_555
Ir23 Tb5 3.218827 1_545
Ir23 Tb5 3.218827 1_455
Ir23 Tb3 3.365227 1_555
Ir24 P19 2.437346 1_655
Ir24 P19 2.437346 1_565
Ir24 P16 2.448616 1_546
Ir24 P16 2.448616 1_456
Ir24 Ir27 2.808215 1_545
Ir24 Ir27 2.808215 1_455
Ir24 Ir28 2.809088 1_566
Ir24 Ir28 2.809088 1_656
Ir24 Tb10 3.139408 1_556
Ir24 Tb13 3.143227 1_555
Ir24 Tb1 3.242578 1_555
Ir24 Tb2 3.254065 1_556
Ir25 P18 2.446774 1_565
Ir25 P18 2.446774 1_655
Ir25 P17 2.455801 1_545
Ir25 P17 2.455801 1_455
Ir25 Ir29 2.807999 1_565
Ir25 Ir29 2.807999 1_655
Ir25 Ir26 2.817268 1_545
Ir25 Ir26 2.817268 1_455
Ir25 Tb11 3.143185 1_555
Ir25 Tb12 3.168184 1_555
Ir25 Tb0 3.208170 1_555
Ir25 Tb3 3.273539 1_555
Ir26 P18 2.463440 1_665
Ir26 P10 2.473269 1_665
Ir26 P6 2.486164 1_555
Ir26 P17 2.493474 1_555
Ir26 Ir8 2.804825 1_565
Ir26 Ir8 2.804825 1_655
Ir26 Tb12 3.118476 1_655
Ir26 Tb12 3.118476 1_565
Ir26 Tb0 3.166924 1_655
Ir26 Tb0 3.166924 1_565
Ir27 P7 2.370914 1_555
Ir27 P19 2.433834 1_665
Ir27 P16 2.492426 1_556
Ir27 P11 2.573423 1_665
Ir27 Ir9 2.799259 1_655
Ir27 Ir9 2.799259 1_565
Ir27 Tb13 3.110807 1_655
Ir27 Tb13 3.110807 1_565
Ir27 Tb1 3.222678 1_565
Ir27 Tb1 3.222678 1_655
Ir28 P4 2.371619 1_555
Ir28 P16 2.435233 1_445
Ir28 P19 2.483599 1_554
Ir28 P8 2.586104 1_445
Ir28 Tb10 3.113714 1_455
Ir28 Tb10 3.113714 1_545
Ir28 Tb2 3.225500 1_455
Ir28 Tb2 3.225500 1_545
Ir29 P5 2.380102 1_555
Ir29 P17 2.442405 1_445
Ir29 P18 2.496901 1_555
Ir29 P9 2.573384 1_445
Ir29 Tb11 3.136840 1_455
Ir29 Tb11 3.136840 1_545
Ir29 Tb3 3.219280 1_455
Ir29 Tb3 3.219280 1_545
Ir30 P15 2.292852 1_555
Ir30 P3 2.444158 1_555
Ir30 P7 2.574264 1_545
Ir30 P7 2.574264 1_455
Ir30 Ir7 2.759094 1_545
Ir30 Ir7 2.759094 1_455
Ir30 Ir9 2.813120 1_555
Ir30 Tb5 3.039278 1_545
Ir30 Tb5 3.039278 1_455
Ir30 Tb13 3.369208 1_555
Ir31 P12 2.295710 1_555
Ir31 P0 2.447278 1_555
Ir31 P4 2.573232 1_565
Ir31 P4 2.573232 1_655
Ir31 Ir4 2.762406 1_565
Ir31 Ir4 2.762406 1_655
Ir31 Tb6 3.043827 1_655
Ir31 Tb6 3.043827 1_565
Ir31 Tb10 3.373686 1_555
Ir32 P13 2.308465 1_555
Ir32 P1 2.440436 1_555
Ir32 P5 2.571100 1_655
Ir32 P5 2.571100 1_565
Ir32 Ir5 2.762790 1_655
Ir32 Ir5 2.762790 1_565
Ir32 Tb7 3.036971 1_565
Ir32 Tb7 3.036971 1_655
Ir32 Tb11 3.367020 1_555
