# generated using pymatgen
data_Ba2CoWO6
_symmetry_space_group_name_H-M   'P 1'
_cell_length_a   5.75646056
_cell_length_b   5.86129804
_cell_length_c   5.86177834
_cell_angle_alpha   87.94667655
_cell_angle_beta   60.59830105
_cell_angle_gamma   119.39824690
_symmetry_Int_Tables_number   1
_chemical_formula_structural   Ba2CoWO6
_chemical_formula_sum   'Ba2 Co1 W1 O6'
_cell_volume   139.77699294
_cell_formula_units_Z   1
loop_
 _symmetry_equiv_pos_site_id
 _symmetry_equiv_pos_as_xyz
  1  'x, y, z'
loop_
 _atom_site_type_symbol
 _atom_site_label
 _atom_site_symmetry_multiplicity
 _atom_site_fract_x
 _atom_site_fract_y
 _atom_site_fract_z
 _atom_site_occupancy
  Ba  Ba0  1  0.49998800  0.75005700  0.74993600  1
  Ba  Ba1  1  0.50001200  0.24994300  0.25006400  1
  Co  Co0  1  0.00000000  0.00000000  0.00000000  1
  W  W0  1  0.00000000  0.50000000  0.50000000  1
  O  O0  1  0.99999500  0.25849900  0.74146700  1
  O  O1  1  0.99989200  0.26789200  0.26799500  1
  O  O2  1  0.48278500  0.74134900  0.25855800  1
  O  O3  1  0.51721500  0.25865100  0.74144200  1
  O  O4  1  0.00010800  0.73210800  0.73200400  1
  O  O5  1  0.00000500  0.74150100  0.25853300  1
loop_
_geom_bond_atom_site_label_1
_geom_bond_atom_site_label_2
_geom_bond_distance
_geom_bond_site_symmetry_2
Ba0 O1 2.881452 1_565
Ba0 O4 2.881478 1_555
Ba0 O1 2.882755 1_456
Ba0 O4 2.882936 1_655
Ba0 O3 2.931398 1_565
Ba0 O3 2.931579 1_555
Ba0 O2 2.931630 1_555
Ba0 O2 2.931821 1_556
Ba0 O5 2.931894 1_655
Ba0 O0 2.931905 1_565
Ba0 O0 2.932041 1_455
Ba0 O5 2.932051 1_556
Ba1 O4 2.881449 1_545
Ba1 O1 2.881475 1_555
Ba1 O4 2.882758 1_654
Ba1 O1 2.882939 1_455
Ba1 O2 2.931398 1_545
Ba1 O2 2.931579 1_555
Ba1 O3 2.931630 1_555
Ba1 O3 2.931821 1_554
Ba1 O0 2.931894 1_455
Ba1 O5 2.931905 1_545
Ba1 O5 2.932041 1_655
Ba1 O0 2.932051 1_554
Co0 O5 2.104239 1_545
Co0 O0 2.104239 1_454
Co0 O3 2.105535 1_554
Co0 O2 2.105535 1_445
Co0 O1 2.260549 1_455
Co0 O4 2.260554 1_544
O0 W0 1.965565 1_655
O1 W0 1.957783 1_655
O2 W0 1.965374 1_555
O3 W0 1.965374 1_655
O4 W0 1.957779 1_555
O5 W0 1.965565 1_555
