# generated using pymatgen
data_H13C4S2NO6
_symmetry_space_group_name_H-M   'P 1'
_cell_length_a   7.26269100
_cell_length_b   15.40056700
_cell_length_c   12.62973352
_cell_angle_alpha   90.00000000
_cell_angle_beta   124.43713323
_cell_angle_gamma   90.00000000
_symmetry_Int_Tables_number   1
_chemical_formula_structural   H13C4S2NO6
_chemical_formula_sum   'H52 C16 S8 N4 O24'
_cell_volume   1165.06270345
_cell_formula_units_Z   4
loop_
 _symmetry_equiv_pos_site_id
 _symmetry_equiv_pos_as_xyz
  1  'x, y, z'
loop_
 _atom_site_type_symbol
 _atom_site_label
 _atom_site_symmetry_multiplicity
 _atom_site_fract_x
 _atom_site_fract_y
 _atom_site_fract_z
 _atom_site_occupancy
  H  H0  1  0.38912000  0.95145100  0.52684700  1
  H  H1  1  0.38912000  0.54854900  0.02684700  1
  H  H2  1  0.61088000  0.04854900  0.47315300  1
  H  H3  1  0.61088000  0.45145100  0.97315300  1
  H  H4  1  0.81267300  0.79444000  0.46430800  1
  H  H5  1  0.81267300  0.70556000  0.96430800  1
  H  H6  1  0.18732700  0.20556000  0.53569200  1
  H  H7  1  0.18732700  0.29444000  0.03569200  1
  H  H8  1  0.04926000  0.73778100  0.59694000  1
  H  H9  1  0.04926000  0.76221900  0.09694000  1
  H  H10  1  0.95074000  0.26221900  0.40306000  1
  H  H11  1  0.95074000  0.23778100  0.90306000  1
  H  H12  1  0.08435300  0.80408700  0.49323800  1
  H  H13  1  0.08435300  0.69591300  0.99323800  1
  H  H14  1  0.91564700  0.19591300  0.50676200  1
  H  H15  1  0.91564700  0.30408700  0.00676200  1
  H  H16  1  0.66357900  0.74978100  0.24600100  1
  H  H17  1  0.66357900  0.75021900  0.74600100  1
  H  H18  1  0.33642100  0.25021900  0.75399900  1
  H  H19  1  0.33642100  0.24978100  0.25399900  1
  H  H20  1  0.77668900  0.65682700  0.21569500  1
  H  H21  1  0.77668900  0.84317300  0.71569500  1
  H  H22  1  0.22331100  0.34317300  0.78430500  1
  H  H23  1  0.22331100  0.15682700  0.28430500  1
  H  H24  1  0.93551900  0.75552400  0.27477400  1
  H  H25  1  0.93551900  0.74447600  0.77477400  1
  H  H26  1  0.06448100  0.24447600  0.72522600  1
  H  H27  1  0.06448100  0.25552400  0.22522600  1
  H  H28  1  0.72454200  0.56858900  0.35445100  1
  H  H29  1  0.72454200  0.93141100  0.85445100  1
  H  H30  1  0.27545800  0.43141100  0.64554900  1
  H  H31  1  0.27545800  0.06858900  0.14554900  1
  H  H32  1  0.60593100  0.66025400  0.38360100  1
  H  H33  1  0.60593100  0.83974600  0.88360100  1
  H  H34  1  0.39406900  0.33974600  0.61639900  1
  H  H35  1  0.39406900  0.16025400  0.11639900  1
  H  H36  1  0.83759600  0.60261500  0.51651300  1
  H  H37  1  0.83759600  0.89738500  0.01651300  1
  H  H38  1  0.16240400  0.39738500  0.48348700  1
  H  H39  1  0.16240400  0.10261500  0.98348700  1
  H  H40  1  0.20679900  0.61576300  0.55864300  1
  H  H41  1  0.20679900  0.88423700  0.05864300  1
  H  H42  1  0.79320100  0.38423700  0.44135700  1
  H  H43  1  0.79320100  0.11576300  0.94135700  1
  H  H44  1  0.24574200  0.67901500  0.45337900  1
  H  H45  1  0.24574200  0.82098500  0.95337900  1
  H  H46  1  0.75425800  0.32098500  0.54662100  1
  H  H47  1  0.75425800  0.17901500  0.04662100  1
  H  H48  1  0.09315000  0.57881700  0.39777400  1
  H  H49  1  0.09315000  0.92118300  0.89777400  1
  H  H50  1  0.90685000  0.42118300  0.60222600  1
  H  H51  1  0.90685000  0.07881700  0.10222600  1
  C  C0  1  0.96973800  0.76087500  0.49821800  1
  C  C1  1  0.96973800  0.73912500  0.99821800  1
  C  C2  1  0.03026200  0.23912500  0.50178200  1
  C  C3  1  0.03026200  0.26087500  0.00178200  1
  C  C4  1  0.81607100  0.71363200  0.27717100  1
  C  C5  1  0.81607100  0.78636800  0.77717100  1
  C  C6  1  0.18392900  0.28636800  0.72282900  1
  C  C7  1  0.18392900  0.21363200  0.22282900  1
  C  C8  1  0.75964000  0.62423300  0.41723800  1
  C  C9  1  0.75964000  0.87576700  0.91723800  1
  C  C10  1  0.24036000  0.37576700  0.58276200  1
  C  C11  1  0.24036000  0.12423300  0.08276200  1
  C  C12  1  0.13232900  0.63561300  0.45912500  1
  C  C13  1  0.13232900  0.86438700  0.95912500  1
  C  C14  1  0.86767100  0.36438700  0.54087500  1
  C  C15  1  0.86767100  0.13561300  0.04087500  1
  S  S0  1  0.81418100  0.97460000  0.29155700  1
  S  S1  1  0.81418100  0.52540000  0.79155700  1
  S  S2  1  0.18581900  0.02540000  0.70844300  1
  S  S3  1  0.18581900  0.47460000  0.20844300  1
  S  S4  1  0.36615100  0.90469800  0.35708100  1
  S  S5  1  0.36615100  0.59530200  0.85708100  1
  S  S6  1  0.63384900  0.09530200  0.64291900  1
  S  S7  1  0.63384900  0.40469800  0.14291900  1
  N  N0  1  0.91953200  0.68365200  0.41284200  1
  N  N1  1  0.91953200  0.81634800  0.91284200  1
  N  N2  1  0.08046800  0.31634800  0.58715800  1
  N  N3  1  0.08046800  0.18365200  0.08715800  1
  O  O0  1  0.64262700  0.94498800  0.16251800  1
  O  O1  1  0.64262700  0.55501200  0.66251800  1
  O  O2  1  0.35737300  0.05501200  0.83748200  1
  O  O3  1  0.35737300  0.44498800  0.33748200  1
  O  O4  1  0.84063200  0.06781200  0.31114500  1
  O  O5  1  0.84063200  0.43218800  0.81114500  1
  O  O6  1  0.15936800  0.93218800  0.68885500  1
  O  O7  1  0.15936800  0.56781200  0.18885500  1
  O  O8  1  0.36085800  0.89303200  0.48093800  1
  O  O9  1  0.36085800  0.60696800  0.98093800  1
  O  O10  1  0.63914200  0.10696800  0.51906200  1
  O  O11  1  0.63914200  0.39303200  0.01906200  1
  O  O12  1  0.39587400  0.81705500  0.32637000  1
  O  O13  1  0.39587400  0.68294500  0.82637000  1
  O  O14  1  0.60412600  0.18294500  0.67363000  1
  O  O15  1  0.60412600  0.31705500  0.17363000  1
  O  O16  1  0.15465400  0.94615500  0.25689000  1
  O  O17  1  0.15465400  0.55384500  0.75689000  1
  O  O18  1  0.84534600  0.05384500  0.74311000  1
  O  O19  1  0.84534600  0.44615500  0.24311000  1
  O  O20  1  0.56108900  0.96199900  0.39751200  1
  O  O21  1  0.56108900  0.53800100  0.89751200  1
  O  O22  1  0.43891100  0.03800100  0.60248800  1
  O  O23  1  0.43891100  0.46199900  0.10248800  1
loop_
_geom_bond_atom_site_label_1
_geom_bond_atom_site_label_2
_geom_bond_distance
_geom_bond_site_symmetry_2
H0 O8 1.026232 1_555
H0 O22 1.558643 1_565
H1 O9 1.026232 1_554
H1 O23 1.558643 1_555
H2 O10 1.026232 1_555
H2 O20 1.558643 1_545
H3 O11 1.026232 1_556
H3 O21 1.558643 1_555
C0 H12 1.094969 1_655
C0 H4 1.095133 1_555
C0 H8 1.095540 1_655
C0 N0 1.505104 1_555
C1 H13 1.094969 1_655
C1 H5 1.095133 1_555
C1 H9 1.095540 1_656
C1 N1 1.505104 1_555
C2 H14 1.094969 1_455
C2 H6 1.095133 1_555
C2 H10 1.095540 1_455
C2 N2 1.505104 1_555
C3 H15 1.094969 1_455
C3 H7 1.095133 1_555
C3 H11 1.095540 1_454
C3 N3 1.505104 1_555
C4 H16 1.094698 1_555
C4 H20 1.094899 1_555
C4 H24 1.095186 1_555
C4 N0 1.502542 1_555
C5 H17 1.094698 1_555
C5 H21 1.094899 1_555
C5 H25 1.095186 1_555
C5 N1 1.502542 1_555
C6 H18 1.094698 1_555
C6 H22 1.094899 1_555
C6 H26 1.095186 1_555
C6 N2 1.502542 1_555
C7 H19 1.094698 1_555
C7 H23 1.094899 1_555
C7 H27 1.095186 1_555
C7 N3 1.502542 1_555
C8 H32 1.094557 1_555
C8 H28 1.095237 1_555
C8 H36 1.095709 1_555
C8 N0 1.503954 1_555
C9 H33 1.094557 1_555
C9 H29 1.095237 1_555
C9 H37 1.095709 1_556
C9 N1 1.503954 1_555
C10 H34 1.094557 1_555
C10 H30 1.095237 1_555
C10 H38 1.095709 1_555
C10 N2 1.503954 1_555
C11 H35 1.094557 1_555
C11 H31 1.095237 1_555
C11 H39 1.095709 1_554
C11 N3 1.503954 1_555
C12 H40 1.094026 1_555
C12 H48 1.094109 1_555
C12 H44 1.094580 1_555
C12 N0 1.501930 1_455
C13 H41 1.094026 1_556
C13 H49 1.094109 1_555
C13 H45 1.094580 1_555
C13 N1 1.501930 1_455
C14 H42 1.094026 1_555
C14 H50 1.094109 1_555
C14 H46 1.094580 1_555
C14 N2 1.501930 1_655
C15 H43 1.094026 1_554
C15 H51 1.094109 1_555
C15 H47 1.094580 1_555
C15 N3 1.501930 1_655
O0 S0 1.455955 1_555
O1 S1 1.455955 1_555
O2 S2 1.455955 1_555
O3 S3 1.455955 1_555
O4 S0 1.450885 1_545
O5 S1 1.450885 1_555
O6 S2 1.450885 1_565
O7 S3 1.450885 1_555
O8 S4 1.596478 1_555
O9 S5 1.596478 1_555
O10 S6 1.596478 1_555
O11 S7 1.596478 1_555
O12 S4 1.453813 1_555
O13 S5 1.453813 1_555
O14 S6 1.453813 1_555
O15 S7 1.453813 1_555
O16 S4 1.473070 1_555
O17 S5 1.473070 1_555
O18 S6 1.473070 1_555
O19 S7 1.473070 1_555
O20 S4 1.492067 1_555
O21 S5 1.492067 1_555
O22 S6 1.492067 1_555
O23 S7 1.492067 1_555
