# generated using pymatgen
data_Sr4Mg(SO4)4
_symmetry_space_group_name_H-M   'P 1'
_cell_length_a   5.22465367
_cell_length_b   4.68794138
_cell_length_c   17.49813761
_cell_angle_alpha   88.16037897
_cell_angle_beta   90.00000000
_cell_angle_gamma   90.00000000
_symmetry_Int_Tables_number   1
_chemical_formula_structural   Sr4Mg(SO4)4
_chemical_formula_sum   'Sr4 Mg1 S4 O16'
_cell_volume   428.35872271
_cell_formula_units_Z   1
loop_
 _symmetry_equiv_pos_site_id
 _symmetry_equiv_pos_as_xyz
  1  'x, y, z'
loop_
 _atom_site_type_symbol
 _atom_site_label
 _atom_site_symmetry_multiplicity
 _atom_site_fract_x
 _atom_site_fract_y
 _atom_site_fract_z
 _atom_site_occupancy
  Sr  Sr0  1  0.25000000  0.27831382  0.58103378  1
  Sr  Sr1  1  0.25000000  0.26760426  0.17925142  1
  Sr  Sr2  1  0.75000000  0.72438018  0.41848179  1
  Sr  Sr3  1  0.75000000  0.75116251  0.82067102  1
  Mg  Mg0  1  0.25000000  0.77334237  0.99810505  1
  S  S0  1  0.25000000  0.31376797  0.80182107  1
  S  S1  1  0.25000000  0.16707020  0.39363533  1
  S  S2  1  0.75000000  0.70446980  0.19671184  1
  S  S3  1  0.75000000  0.83541758  0.60570259  1
  O  O0  1  0.75000000  0.38633162  0.19042100  1
  O  O1  1  0.75000000  0.15242283  0.60626970  1
  O  O2  1  0.25000000  0.63339159  0.80724748  1
  O  O3  1  0.25000000  0.85019280  0.39241532  1
  O  O4  1  0.75000000  0.70742655  0.68329387  1
  O  O5  1  0.75000000  0.78615655  0.27748661  1
  O  O6  1  0.25000000  0.29732029  0.31625136  1
  O  O7  1  0.25000000  0.23059274  0.72112427  1
  O  O8  1  0.01285941  0.20755353  0.84128580  1
  O  O9  1  0.48268867  0.25744146  0.43738425  1
  O  O10  1  0.51246124  0.81259060  0.15749701  1
  O  O11  1  0.98252202  0.74412158  0.56192668  1
  O  O12  1  0.98753876  0.81259060  0.15749701  1
  O  O13  1  0.51747798  0.74412158  0.56192668  1
  O  O14  1  0.48714059  0.20755353  0.84128580  1
  O  O15  1  0.01731133  0.25744146  0.43738425  1
loop_
_geom_bond_atom_site_label_1
_geom_bond_atom_site_label_2
_geom_bond_distance
_geom_bond_site_symmetry_2
O0 S2 1.498990 1_555
O0 Sr1 2.679407 1_655
O0 Sr1 2.679407 1_555
O1 S3 1.486454 1_545
O1 Sr0 2.711238 1_555
O1 Sr0 2.711238 1_655
O2 S0 1.504421 1_555
O2 Sr3 2.681896 1_555
O2 Sr3 2.681896 1_455
O3 S1 1.486341 1_565
O3 Sr2 2.713464 1_455
O3 Sr2 2.713464 1_555
O4 S3 1.466653 1_555
O4 Sr3 2.419122 1_555
O5 S2 1.476184 1_555
O5 Sr2 2.474842 1_555
O6 S1 1.467404 1_555
O6 Sr1 2.405748 1_555
O7 S0 1.476907 1_555
O7 Sr0 2.454347 1_555
O8 S0 1.495925 1_555
O8 Sr3 2.577473 1_445
O8 Sr3 2.907158 1_455
O9 S1 1.504760 1_555
O9 Sr2 2.608653 1_555
O9 Sr0 2.796697 1_555
O9 Sr2 2.890984 1_545
O10 S2 1.498552 1_555
O10 Sr1 2.574380 1_565
O10 Sr1 2.913790 1_555
O11 S3 1.505599 1_555
O11 Sr0 2.605055 1_655
O11 Sr2 2.792763 1_555
O11 Sr0 2.896518 1_665
O12 S2 1.498552 1_555
O12 Sr1 2.574380 1_665
O12 Sr1 2.913790 1_655
O13 S3 1.505599 1_555
O13 Sr0 2.605055 1_555
O13 Sr2 2.792763 1_555
O13 Sr0 2.896518 1_565
O14 S0 1.495925 1_555
O14 Sr3 2.577473 1_545
O14 Sr3 2.907158 1_555
O15 S1 1.504760 1_555
O15 Sr2 2.608653 1_455
O15 Sr0 2.796697 1_555
O15 Sr2 2.890984 1_445
