# generated using pymatgen
data_ZrTi(CrFe)2
_symmetry_space_group_name_H-M   'P 1'
_cell_length_a   4.95219594
_cell_length_b   4.90368670
_cell_length_c   7.92879010
_cell_angle_alpha   90.00763685
_cell_angle_beta   89.92521822
_cell_angle_gamma   119.68625824
_symmetry_Int_Tables_number   1
_chemical_formula_structural   ZrTi(CrFe)2
_chemical_formula_sum   'Zr2 Ti2 Cr4 Fe4'
_cell_volume   167.27151387
_cell_formula_units_Z   2
loop_
 _symmetry_equiv_pos_site_id
 _symmetry_equiv_pos_as_xyz
  1  'x, y, z'
loop_
 _atom_site_type_symbol
 _atom_site_label
 _atom_site_symmetry_multiplicity
 _atom_site_fract_x
 _atom_site_fract_y
 _atom_site_fract_z
 _atom_site_occupancy
  Zr  Zr0  1  0.33244000  0.66616400  0.07115500  1
  Zr  Zr1  1  0.66675500  0.33337900  0.93416400  1
  Ti  Ti0  1  0.66711000  0.33353800  0.55695100  1
  Ti  Ti1  1  0.33187000  0.66590200  0.44257300  1
  Cr  Cr0  1  0.99818400  0.99920500  0.50049800  1
  Cr  Cr1  1  0.99910700  0.99963500  0.99808000  1
  Cr  Cr2  1  0.17251900  0.34195000  0.74015900  1
  Cr  Cr3  1  0.17248700  0.83045700  0.74015500  1
  Fe  Fe0  1  0.65731700  0.82863600  0.74245000  1
  Fe  Fe1  1  0.83124700  0.66198500  0.25798900  1
  Fe  Fe2  1  0.83127500  0.16929500  0.25799600  1
  Fe  Fe3  1  0.33968900  0.16985500  0.25783100  1
loop_
_geom_bond_atom_site_label_1
_geom_bond_atom_site_label_2
_geom_bond_distance
_geom_bond_site_symmetry_2
Zr0 Zr1 3.042147 1_554
Zr0 Zr1 3.042440 1_564
Zr0 Zr1 3.064427 1_454
Ti0 Ti1 2.986042 1_545
Ti0 Ti1 2.986515 1_555
Ti0 Zr1 2.990841 1_555
Ti0 Ti1 2.999053 1_655
Ti1 Zr0 2.944893 1_555
Cr0 Cr2 2.397329 1_665
Cr0 Cr3 2.398485 1_655
Cr0 Fe2 2.400683 1_565
Cr0 Fe1 2.400897 1_555
Cr0 Fe0 2.413040 1_555
Cr0 Fe3 2.419207 1_665
Cr0 Ti0 2.869952 1_565
Cr0 Ti0 2.870728 1_555
Cr0 Ti1 2.876995 1_665
Cr0 Ti1 2.878528 1_655
Cr0 Ti1 2.903836 1_555
Cr0 Ti0 2.913100 1_665
Cr1 Fe0 2.505756 1_555
Cr1 Cr2 2.511120 1_665
Cr1 Cr3 2.511594 1_655
Cr1 Fe2 2.511951 1_566
Cr1 Fe1 2.512440 1_556
Cr1 Fe3 2.529265 1_666
Cr1 Zr1 2.883488 1_565
Cr1 Zr1 2.883626 1_555
Cr1 Zr0 2.898497 1_666
Cr1 Zr0 2.900182 1_656
Cr1 Zr1 2.916021 1_665
Cr1 Zr0 2.925276 1_556
Cr2 Cr3 2.395564 1_555
Cr2 Fe0 2.405149 1_555
Cr2 Cr3 2.508123 1_545
Cr2 Fe0 2.546480 1_445
Cr2 Ti1 2.732753 1_555
Cr2 Ti0 2.863861 1_555
Cr2 Ti0 2.878097 1_455
Cr2 Zr1 2.910354 1_555
Cr2 Zr1 2.920073 1_455
Cr2 Zr0 2.966387 1_556
Cr3 Fe0 2.405501 1_555
Cr3 Fe0 2.546853 1_455
Cr3 Ti1 2.732522 1_555
Cr3 Ti0 2.863932 1_565
Cr3 Ti0 2.877381 1_455
Cr3 Zr1 2.910191 1_565
Cr3 Zr1 2.919652 1_455
Cr3 Zr0 2.966856 1_556
Fe0 Ti1 2.761011 1_555
Fe0 Ti0 2.859244 1_555
Fe0 Ti0 2.859614 1_565
Fe0 Zr1 2.885046 1_565
Fe0 Zr1 2.885203 1_555
Fe0 Zr0 2.955605 1_556
Fe1 Fe2 2.416066 1_555
Fe1 Fe3 2.435326 1_555
Fe1 Fe2 2.487621 1_565
Fe1 Fe3 2.516147 1_665
Fe1 Ti0 2.751879 1_555
Fe1 Ti1 2.872443 1_655
Fe1 Zr0 2.880148 1_655
Fe1 Ti1 2.880220 1_555
Fe1 Zr0 2.890745 1_555
Fe1 Zr1 2.925163 1_554
Fe2 Fe3 2.435793 1_555
Fe2 Fe3 2.516406 1_655
Fe2 Ti0 2.751576 1_555
Fe2 Ti1 2.871676 1_655
Fe2 Zr0 2.879675 1_655
Fe2 Ti1 2.880314 1_545
Fe2 Zr0 2.890655 1_545
Fe2 Zr1 2.925591 1_554
Fe3 Ti0 2.760174 1_555
Fe3 Ti1 2.855895 1_555
Fe3 Ti1 2.856586 1_545
Fe3 Zr0 2.864049 1_555
Fe3 Zr0 2.864260 1_545
Fe3 Zr1 2.924977 1_554
