# generated using pymatgen
data_KBe2BO3F2
_symmetry_space_group_name_H-M   'P 1'
_cell_length_a   4.42142006
_cell_length_b   4.42142006
_cell_length_c   12.41094501
_cell_angle_alpha   79.73938650
_cell_angle_beta   79.73938650
_cell_angle_gamma   60.00000839
_symmetry_Int_Tables_number   1
_chemical_formula_structural   KBe2BO3F2
_chemical_formula_sum   'K2 Be4 B2 O6 F4'
_cell_volume   205.62346120
_cell_formula_units_Z   2
loop_
 _symmetry_equiv_pos_site_id
 _symmetry_equiv_pos_as_xyz
  1  'x, y, z'
loop_
 _atom_site_type_symbol
 _atom_site_label
 _atom_site_symmetry_multiplicity
 _atom_site_fract_x
 _atom_site_fract_y
 _atom_site_fract_z
 _atom_site_occupancy
  K  K0  1  0.50000000  0.50000000  0.50000000  1
  K  K1  1  0.00000000  0.00000000  0.00000000  1
  Be  Be0  1  0.90096515  0.90096415  0.29710655  1
  Be  Be1  1  0.40096515  0.40096415  0.79710655  1
  Be  Be2  1  0.09903485  0.09903585  0.70289345  1
  Be  Be3  1  0.59903485  0.59903585  0.20289345  1
  B  B0  1  0.25000000  0.25000000  0.25000000  1
  B  B1  1  0.75000000  0.75000000  0.75000000  1
  O  O0  1  0.94047547  0.25000000  0.25000000  1
  O  O1  1  0.25000000  0.55952353  0.25000000  1
  O  O2  1  0.55952353  0.94047547  0.25000000  1
  O  O3  1  0.44047547  0.05952353  0.75000000  1
  O  O4  1  0.05952353  0.75000000  0.75000000  1
  O  O5  1  0.75000000  0.44047547  0.75000000  1
  F  F0  1  0.85917336  0.85917236  0.42248192  1
  F  F1  1  0.35917336  0.35917236  0.92248192  1
  F  F2  1  0.14082664  0.14082764  0.57751808  1
  F  F3  1  0.64082664  0.64082764  0.07751808  1
loop_
_geom_bond_atom_site_label_1
_geom_bond_atom_site_label_2
_geom_bond_distance
_geom_bond_site_symmetry_2
Be0 F0 1.522757 1_555
Be0 O0 1.632689 1_565
Be0 O1 1.632690 1_655
Be0 O2 1.632695 1_555
Be1 F1 1.522757 1_555
Be1 O5 1.632687 1_555
Be1 O3 1.632693 1_555
Be1 O4 1.632694 1_555
Be2 F2 1.522757 1_555
Be2 O5 1.632687 1_455
Be2 O3 1.632689 1_555
Be2 O4 1.632691 1_545
Be3 F3 1.522757 1_555
Be3 O2 1.632687 1_555
Be3 O1 1.632689 1_555
Be3 O0 1.632691 1_555
B0 O1 1.368534 1_555
B0 O2 1.368536 1_545
B0 O0 1.368538 1_455
B1 O4 1.368534 1_655
B1 O3 1.368536 1_565
B1 O5 1.368538 1_555
F0 K0 2.720796 1_655
F0 K0 2.720800 1_555
F0 K0 2.720800 1_565
F1 K1 2.720796 1_656
F1 K1 2.720800 1_556
F1 K1 2.720800 1_566
F2 K0 2.720796 1_455
F2 K0 2.720800 1_555
F2 K0 2.720800 1_545
F3 K1 2.720796 1_565
F3 K1 2.720800 1_665
F3 K1 2.720800 1_655
