# generated using pymatgen
data_Li4Mn3Cr2Sn(PO4)6
_symmetry_space_group_name_H-M   'P 1'
_cell_length_a   8.62050300
_cell_length_b   8.77859546
_cell_length_c   8.90712680
_cell_angle_alpha   61.30258075
_cell_angle_beta   61.77538940
_cell_angle_gamma   62.21722447
_symmetry_Int_Tables_number   1
_chemical_formula_structural   Li4Mn3Cr2Sn(PO4)6
_chemical_formula_sum   'Li4 Mn3 Cr2 Sn1 P6 O24'
_cell_volume   495.41811427
_cell_formula_units_Z   1
loop_
 _symmetry_equiv_pos_site_id
 _symmetry_equiv_pos_as_xyz
  1  'x, y, z'
loop_
 _atom_site_type_symbol
 _atom_site_label
 _atom_site_symmetry_multiplicity
 _atom_site_fract_x
 _atom_site_fract_y
 _atom_site_fract_z
 _atom_site_occupancy
  Li  Li0  1  0.74723700  0.14912300  0.35022300  1
  Li  Li1  1  0.29620400  0.84448400  0.64136300  1
  Li  Li2  1  0.63722900  0.30763100  0.84639100  1
  Li  Li3  1  0.85989200  0.63173100  0.31842800  1
  Mn  Mn0  1  0.15292400  0.15088700  0.14968200  1
  Mn  Mn1  1  0.34725400  0.35365500  0.34852200  1
  Mn  Mn2  1  0.65333300  0.65791000  0.65965100  1
  Cr  Cr0  1  0.01460000  0.99790100  0.00367400  1
  Cr  Cr1  1  0.49379500  0.49979500  0.50035100  1
  Sn  Sn0  1  0.85012100  0.84662000  0.85119800  1
  P  P0  1  0.24396800  0.55647500  0.94899100  1
  P  P1  1  0.57274400  0.95589400  0.24724600  1
  P  P2  1  0.92412700  0.24328200  0.53859800  1
  P  P3  1  0.06356300  0.74155800  0.44989200  1
  P  P4  1  0.43564200  0.04911300  0.75071600  1
  P  P5  1  0.74753500  0.43701600  0.05286900  1
  O  O0  1  0.10073700  0.28266200  0.48279100  1
  O  O1  1  0.28756900  0.53754300  0.10439100  1
  O  O2  1  0.06683900  0.90354700  0.27184500  1
  O  O3  1  0.57952000  0.09314100  0.30093400  1
  O  O4  1  0.01443000  0.80364000  0.61026900  1
  O  O5  1  0.25490000  0.59310600  0.44057600  1
  O  O6  1  0.24866100  0.07004900  0.90522500  1
  O  O7  1  0.44852300  0.23130700  0.59421900  1
  O  O8  1  0.16159400  0.41686100  0.99139700  1
  O  O9  1  0.60235000  0.42386500  0.24347700  1
  O  O10  1  0.10357100  0.76672500  0.89444200  1
  O  O11  1  0.41859200  0.03230700  0.17034800  1
  O  O12  1  0.59569700  0.98355500  0.82624800  1
  O  O13  1  0.90122400  0.24814800  0.07393000  1
  O  O14  1  0.40910400  0.56282200  0.76553800  1
  O  O15  1  0.81078200  0.60107500  0.00109700  1
  O  O16  1  0.56787700  0.76792500  0.40382500  1
  O  O17  1  0.77586400  0.90345200  0.09701400  1
  O  O18  1  0.74543500  0.41617200  0.55434100  1
  O  O19  1  0.92698700  0.17351100  0.41078200  1
  O  O20  1  0.45811300  0.90531500  0.68412700  1
  O  O21  1  0.88656800  0.10613000  0.74398400  1
  O  O22  1  0.67861500  0.46701700  0.90750800  1
  O  O23  1  0.91628200  0.66405100  0.48690000  1
loop_
_geom_bond_atom_site_label_1
_geom_bond_atom_site_label_2
_geom_bond_distance
_geom_bond_site_symmetry_2
Li0 O19 1.987109 1_555
Li0 O3 1.998644 1_555
Li0 O9 2.096116 1_555
Li0 O13 2.122611 1_555
Li0 O7 2.520952 1_555
Li0 O2 2.610488 1_645
Li1 O20 1.942003 1_555
Li1 O10 2.084058 1_555
Li1 O14 2.105386 1_555
Li1 O16 2.371598 1_555
Li2 O22 1.939564 1_555
Li2 O18 2.167474 1_555
Li2 O21 2.175239 1_555
Li2 O14 2.255600 1_555
Li3 O23 1.948340 1_555
Li3 O16 2.145091 1_555
Li3 O18 2.220504 1_555
Li3 O17 2.307933 1_555
Mn0 O8 2.084845 1_554
Mn0 O11 2.086796 1_555
Mn0 O2 2.217794 1_545
Mn0 O13 2.235317 1_455
Mn0 O19 2.245030 1_455
Mn0 O6 2.272458 1_554
Mn1 O0 2.109431 1_555
Mn1 O1 2.124125 1_555
Mn1 O9 2.203346 1_555
Mn1 O5 2.280875 1_555
Mn1 O3 2.297441 1_555
Mn1 O7 2.319620 1_555
Mn2 O23 2.060079 1_555
Mn2 O22 2.071540 1_555
Mn2 O20 2.072923 1_555
Mn2 O14 2.241212 1_555
Mn2 O16 2.340683 1_555
Mn2 O18 2.377008 1_555
Cr0 O6 2.055658 1_564
Cr0 O13 2.216525 1_465
Cr0 O17 2.219117 1_455
Cr0 O2 2.316042 1_555
Cr0 O10 2.322223 1_554
Cr0 O21 2.607266 1_464
Cr1 O5 2.059419 1_555
Cr1 O18 2.153833 1_555
Cr1 O7 2.250092 1_555
Cr1 O9 2.326578 1_555
Cr1 O16 2.371901 1_555
Cr1 O14 2.380305 1_555
O0 P2 1.514699 1_455
O1 P0 1.515830 1_554
O2 P3 1.538599 1_555
O3 P1 1.526131 1_545
O4 P3 1.573916 1_555
O4 Sn0 2.039167 1_455
O5 P3 1.548007 1_555
O6 P4 1.547402 1_555
O7 P4 1.546462 1_555
O8 P0 1.504032 1_555
O9 P5 1.548808 1_555
O10 P0 1.649239 1_555
O10 Sn0 2.126480 1_455
O11 P1 1.507869 1_545
O12 P4 1.566354 1_565
O12 Sn0 2.012815 1_555
O13 P5 1.558211 1_555
O14 P0 1.576705 1_555
O15 P5 1.562214 1_555
O15 Sn0 2.008301 1_554
O16 P1 1.571228 1_555
O17 P1 1.640871 1_555
O17 Sn0 2.208686 1_554
O18 P2 1.586382 1_555
O19 P2 1.516878 1_555
O20 P4 1.537932 1_565
O21 P2 1.609041 1_555
O21 Sn0 2.120076 1_545
O22 P5 1.533938 1_556
O23 P3 1.541966 1_655
