# generated using pymatgen
data_Cs6Cr2O7
_symmetry_space_group_name_H-M   'P 1'
_cell_length_a   7.24551940
_cell_length_b   9.81900027
_cell_length_c   9.89226206
_cell_angle_alpha   89.99825766
_cell_angle_beta   90.89857345
_cell_angle_gamma   90.00020682
_symmetry_Int_Tables_number   1
_chemical_formula_structural   Cs6Cr2O7
_chemical_formula_sum   'Cs12 Cr4 O14'
_cell_volume   703.68614002
_cell_formula_units_Z   2
loop_
 _symmetry_equiv_pos_site_id
 _symmetry_equiv_pos_as_xyz
  1  'x, y, z'
loop_
 _atom_site_type_symbol
 _atom_site_label
 _atom_site_symmetry_multiplicity
 _atom_site_fract_x
 _atom_site_fract_y
 _atom_site_fract_z
 _atom_site_occupancy
  Cs  Cs0  1  0.62270908  0.28560469  0.71989631  1
  Cs  Cs1  1  0.87733602  0.78559683  0.78010133  1
  Cs  Cs2  1  0.37730028  0.71440224  0.28010023  1
  Cs  Cs3  1  0.12266573  0.21440196  0.21989779  1
  Cs  Cs4  1  0.25245448  0.97351628  0.54924947  1
  Cs  Cs5  1  0.24754231  0.47350030  0.95074070  1
  Cs  Cs6  1  0.74755482  0.02649908  0.45074255  1
  Cs  Cs7  1  0.75246713  0.52649047  0.04925730  1
  Cs  Cs8  1  0.37372464  0.85485186  0.91562600  1
  Cs  Cs9  1  0.12628692  0.35484479  0.58438739  1
  Cs  Cs10  1  0.62628956  0.14514647  0.08437580  1
  Cs  Cs11  1  0.87370741  0.64515837  0.41562001  1
  Cr  Cr0  1  0.04534078  0.13357728  0.87233064  1
  Cr  Cr1  1  0.54531856  0.36643434  0.37234131  1
  Cr  Cr2  1  0.45467021  0.63358006  0.62766112  1
  Cr  Cr3  1  0.95466523  0.86640382  0.12767423  1
  O  O0  1  0.49996158  0.50000664  0.49999760  1
  O  O1  1  0.00003202  0.99997718  0.00000160  1
  O  O2  1  0.55097324  0.58335469  0.78420196  1
  O  O3  1  0.94903864  0.08336457  0.71579044  1
  O  O4  1  0.44901325  0.41664754  0.21580610  1
  O  O5  1  0.05096203  0.91663258  0.28421509  1
  O  O6  1  0.56679650  0.78170048  0.56963891  1
  O  O7  1  0.93321113  0.28170177  0.93035850  1
  O  O8  1  0.43320210  0.21830836  0.43035284  1
  O  O9  1  0.06680294  0.71829420  0.06963666  1
  O  O10  1  0.21465201  0.66105689  0.63822470  1
  O  O11  1  0.28535525  0.16105585  0.86177940  1
  O  O12  1  0.78532739  0.33895039  0.36177968  1
  O  O13  1  0.71463777  0.83894001  0.13821435  1
loop_
_geom_bond_atom_site_label_1
_geom_bond_atom_site_label_2
_geom_bond_distance
_geom_bond_site_symmetry_2
Cs0 O2 3.038550 1_555
Cs0 O7 3.041452 1_555
Cs0 O3 3.088463 1_555
Cs0 O11 3.089924 1_555
Cs0 O0 3.145452 1_555
Cs0 O8 3.225306 1_555
Cs1 O3 3.038646 1_565
Cs1 O6 3.041652 1_555
Cs1 O2 3.088646 1_555
Cs1 O10 3.089682 1_655
Cs1 O1 3.145303 1_656
Cs1 O9 3.225095 1_656
Cs2 O4 3.038542 1_555
Cs2 O9 3.041435 1_555
Cs2 O5 3.088451 1_555
Cs2 O13 3.089799 1_555
Cs2 O0 3.145231 1_555
Cs2 O6 3.225236 1_555
Cs3 O5 3.038676 1_545
Cs3 O8 3.041587 1_555
Cs3 O4 3.088581 1_555
Cs3 O12 3.089868 1_455
Cs3 O1 3.145445 1_545
Cs3 O7 3.225087 1_454
Cs4 O6 2.959891 1_555
Cs4 O3 2.970561 1_465
Cs4 O8 2.987289 1_565
Cs4 O5 3.032678 1_555
Cs4 O10 3.204679 1_555
Cs4 O11 3.603215 1_565
Cs5 O7 2.959716 1_455
Cs5 O2 2.970610 1_555
Cs5 O9 2.987340 1_556
Cs5 O4 3.032785 1_556
Cs5 O11 3.204560 1_555
Cs5 O10 3.603083 1_555
Cs6 O8 2.959910 1_555
Cs6 O5 2.970504 1_645
Cs6 O6 2.987374 1_545
Cs6 O3 3.032731 1_555
Cs6 O12 3.204550 1_555
Cs6 O13 3.603305 1_545
Cs7 O9 2.959773 1_655
Cs7 O4 2.970750 1_555
Cs7 O7 2.987325 1_554
Cs7 O2 3.032798 1_554
Cs7 O13 3.204607 1_555
Cs7 O12 3.603043 1_555
Cs8 O9 3.028273 1_556
Cs8 O11 3.118118 1_565
Cs8 O1 3.182659 1_556
Cs8 O2 3.240183 1_555
Cs8 O13 3.286873 1_556
Cs8 O10 3.518616 1_555
Cs9 O8 3.028315 1_555
Cs9 O10 3.118200 1_555
Cs9 O0 3.182715 1_555
Cs9 O3 3.239888 1_455
Cs9 O12 3.287245 1_455
Cs9 O11 3.518417 1_555
Cs10 O7 3.028296 1_554
Cs10 O13 3.118097 1_545
Cs10 O1 3.183157 1_645
Cs10 O4 3.240321 1_555
Cs10 O11 3.287038 1_554
Cs10 O12 3.518604 1_555
Cs11 O6 3.028237 1_555
Cs11 O12 3.118188 1_555
Cs11 O0 3.183078 1_555
Cs11 O5 3.239866 1_655
Cs11 O10 3.287148 1_655
Cs11 O13 3.518486 1_555
Cr0 O3 1.758998 1_455
Cr0 O11 1.764541 1_555
Cr0 O7 1.766247 1_455
Cr0 O1 1.853806 1_546
Cr1 O4 1.758940 1_555
Cr1 O12 1.764519 1_555
Cr1 O8 1.766127 1_555
Cr1 O0 1.853635 1_555
Cr2 O2 1.759016 1_555
Cr2 O10 1.764577 1_555
Cr2 O6 1.766150 1_555
Cr2 O0 1.853603 1_555
Cr3 O5 1.759033 1_655
Cr3 O13 1.764603 1_555
Cr3 O9 1.766186 1_655
Cr3 O1 1.853710 1_655
