# generated using pymatgen
data_La2Cu2O5
_symmetry_space_group_name_H-M   'P 1'
_cell_length_a   3.76801600
_cell_length_b   7.21676780
_cell_length_c   13.90774098
_cell_angle_alpha   100.50637984
_cell_angle_beta   96.84372414
_cell_angle_gamma   104.99903054
_symmetry_Int_Tables_number   1
_chemical_formula_structural   La2Cu2O5
_chemical_formula_sum   'La6 Cu6 O15'
_cell_volume   353.62954872
_cell_formula_units_Z   3
loop_
 _symmetry_equiv_pos_site_id
 _symmetry_equiv_pos_as_xyz
  1  'x, y, z'
loop_
 _atom_site_type_symbol
 _atom_site_label
 _atom_site_symmetry_multiplicity
 _atom_site_fract_x
 _atom_site_fract_y
 _atom_site_fract_z
 _atom_site_occupancy
  La  La0  1  0.85871600  0.22355100  0.46272600  1
  La  La1  1  0.28655600  0.74966100  0.80462700  1
  La  La2  1  0.92514700  0.19202500  0.73054100  1
  La  La3  1  0.71344400  0.25033900  0.19537300  1
  La  La4  1  0.07485300  0.80797500  0.26945900  1
  La  La5  1  0.14128400  0.77644900  0.53727400  1
  Cu  Cu0  1  0.29690000  0.52440400  0.07928600  1
  Cu  Cu1  1  0.44557400  0.51426400  0.36180800  1
  Cu  Cu2  1  0.83451900  0.86905400  0.05791900  1
  Cu  Cu3  1  0.55442600  0.48573600  0.63819200  1
  Cu  Cu4  1  0.16548100  0.13094600  0.94208100  1
  Cu  Cu5  1  0.70310000  0.47559600  0.92071400  1
  O  O0  1  0.27894700  0.15590900  0.32521900  1
  O  O1  1  0.17609900  0.41312400  0.92859200  1
  O  O2  1  0.90750200  0.84111600  0.92198800  1
  O  O3  1  0.37691900  0.52405100  0.22117700  1
  O  O4  1  0.94740400  0.51625700  0.36203800  1
  O  O5  1  0.33092000  0.12434100  0.58296300  1
  O  O6  1  0.50000000  0.50000000  0.50000000  1
  O  O7  1  0.59601500  0.90773800  0.17501700  1
  O  O8  1  0.05259600  0.48374300  0.63796200  1
  O  O9  1  0.40398500  0.09226200  0.82498300  1
  O  O10  1  0.62308100  0.47594900  0.77882300  1
  O  O11  1  0.66908000  0.87565900  0.41703700  1
  O  O12  1  0.09249800  0.15888400  0.07801200  1
  O  O13  1  0.82390100  0.58687600  0.07140800  1
  O  O14  1  0.72105300  0.84409100  0.67478100  1
loop_
_geom_bond_atom_site_label_1
_geom_bond_atom_site_label_2
_geom_bond_distance
_geom_bond_site_symmetry_2
La0 O11 2.366252 1_545
La0 O0 2.603822 1_555
La0 O5 2.619483 1_655
La0 O6 2.629996 1_655
La0 O0 2.680337 1_655
La0 O8 2.682529 1_655
La0 O6 2.694734 1_555
La0 O4 2.712886 1_555
La0 O5 2.785005 1_555
La1 O9 2.353223 1_565
La1 O2 2.406330 1_455
La1 O2 2.543972 1_555
La1 O10 2.604798 1_555
La1 O8 2.616847 1_555
La1 O14 2.642325 1_555
La1 O10 2.692986 1_455
La1 O14 2.923925 1_455
La1 O1 3.196738 1_555
La2 O14 2.376120 1_545
La2 O9 2.439551 1_655
La2 O9 2.515482 1_555
La2 O10 2.613876 1_555
La2 O8 2.633093 1_655
La2 O5 2.727209 1_555
La2 O5 2.749147 1_655
La2 O10 2.802422 1_655
La2 O1 2.832415 1_655
La3 O7 2.353223 1_545
La3 O12 2.406330 1_655
La3 O12 2.543972 1_555
La3 O3 2.604798 1_555
La3 O4 2.616847 1_555
La3 O0 2.642325 1_555
La3 O3 2.692986 1_655
La3 O0 2.923925 1_655
La3 O13 3.196738 1_555
La4 O0 2.376120 1_565
La4 O7 2.439551 1_455
La4 O7 2.515482 1_555
La4 O3 2.613876 1_555
La4 O4 2.633093 1_455
La4 O11 2.727209 1_555
La4 O11 2.749147 1_455
La4 O3 2.802422 1_455
La4 O13 2.832415 1_455
La5 O5 2.366252 1_565
La5 O14 2.603822 1_555
La5 O11 2.619483 1_455
La5 O6 2.629996 1_455
La5 O14 2.680337 1_455
La5 O4 2.682529 1_455
La5 O6 2.694734 1_555
La5 O8 2.712886 1_555
La5 O11 2.785005 1_555
Cu0 O13 1.940344 1_555
Cu0 O13 1.943999 1_455
Cu0 O3 1.961017 1_555
Cu0 O1 2.052848 1_554
Cu0 O12 2.545581 1_555
Cu1 O4 1.881265 1_455
Cu1 O4 1.886849 1_555
Cu1 O6 1.932782 1_555
Cu1 O3 1.958711 1_555
Cu1 O0 2.438209 1_555
Cu1 O11 2.465724 1_555
Cu2 O2 1.924535 1_554
Cu2 O7 1.962312 1_555
Cu2 O12 2.016840 1_665
Cu2 O13 2.069472 1_555
Cu3 O8 1.881265 1_655
Cu3 O8 1.886849 1_555
Cu3 O6 1.932782 1_555
Cu3 O10 1.958711 1_555
Cu3 O14 2.438209 1_555
Cu3 O5 2.465724 1_555
Cu4 O12 1.924535 1_556
Cu4 O9 1.962312 1_555
Cu4 O2 2.016840 1_445
Cu4 O1 2.069472 1_555
Cu5 O1 1.940344 1_555
Cu5 O1 1.943999 1_655
Cu5 O10 1.961017 1_555
Cu5 O13 2.052848 1_556
Cu5 O2 2.545581 1_555
