# generated using pymatgen
data_MgFe8(O7F)2
_symmetry_space_group_name_H-M   'P 1'
_cell_length_a   5.13219807
_cell_length_b   5.15319265
_cell_length_c   11.65962132
_cell_angle_alpha   90.62163831
_cell_angle_beta   89.28558119
_cell_angle_gamma   103.36943695
_symmetry_Int_Tables_number   1
_chemical_formula_structural   MgFe8(O7F)2
_chemical_formula_sum   'Mg1 Fe8 O14 F2'
_cell_volume   299.97414699
_cell_formula_units_Z   1
loop_
 _symmetry_equiv_pos_site_id
 _symmetry_equiv_pos_as_xyz
  1  'x, y, z'
loop_
 _atom_site_type_symbol
 _atom_site_label
 _atom_site_symmetry_multiplicity
 _atom_site_fract_x
 _atom_site_fract_y
 _atom_site_fract_z
 _atom_site_occupancy
  Mg  Mg0  1  0.68505600  0.30470900  0.00763300  1
  Fe  Fe0  1  0.03013000  0.96520600  0.00871000  1
  Fe  Fe1  1  0.99690500  0.00194100  0.25296800  1
  Fe  Fe2  1  0.01173800  0.03694800  0.49745200  1
  Fe  Fe3  1  0.00016300  0.98946400  0.74215500  1
  Fe  Fe4  1  0.41322900  0.59518600  0.14133000  1
  Fe  Fe5  1  0.57459300  0.40436300  0.63243100  1
  Fe  Fe6  1  0.40754400  0.58698700  0.86419500  1
  Fe  Fe7  1  0.58105200  0.40301600  0.36419200  1
  O  O0  1  0.17633300  0.82000600  0.13814800  1
  O  O1  1  0.15318500  0.86406900  0.61103800  1
  O  O2  1  0.17123500  0.82201800  0.87454900  1
  O  O3  1  0.14773800  0.87054100  0.37704100  1
  O  O4  1  0.30137800  0.32041900  0.99920600  1
  O  O5  1  0.30805300  0.29928100  0.24731300  1
  O  O6  1  0.34315600  0.30374400  0.49733100  1
  O  O7  1  0.30063100  0.30436900  0.75225300  1
  O  O8  1  0.67687500  0.68962900  0.99987100  1
  O  O9  1  0.69828800  0.69261400  0.25431400  1
  O  O10  1  0.68704300  0.68995900  0.74815600  1
  O  O11  1  0.85019300  0.13844300  0.12208000  1
  O  O12  1  0.83287800  0.17715300  0.37307400  1
  O  O13  1  0.82630600  0.18002400  0.61946100  1
  F  F0  1  0.70996400  0.66999500  0.49857100  1
  F  F1  1  0.82466500  0.16158900  0.87652700  1
loop_
_geom_bond_atom_site_label_1
_geom_bond_atom_site_label_2
_geom_bond_distance
_geom_bond_site_symmetry_2
Mg0 O11 1.903119 1_555
Mg0 O4 1.993070 1_554
Mg0 O8 1.996746 1_554
Fe0 O2 1.926044 1_554
Fe0 O0 1.926901 1_555
Fe0 O11 1.929314 1_465
Fe0 O4 2.030515 1_564
Fe0 O8 2.031015 1_454
Fe1 O3 1.855292 1_645
Fe1 O11 1.920319 1_555
Fe1 O9 1.939094 1_545
Fe1 O5 1.941691 1_655
Fe1 O12 1.944133 1_555
Fe1 O0 1.964824 1_645
Fe2 O3 1.849279 1_545
Fe2 O1 1.850205 1_545
Fe2 O6 1.924011 1_555
Fe2 O13 1.934165 1_455
Fe2 O12 1.957130 1_455
Fe3 O1 1.885411 1_555
Fe3 O10 1.954983 1_455
Fe3 O7 1.966802 1_565
Fe3 O13 2.067484 1_465
Fe3 O2 2.076381 1_555
Fe4 O0 1.864191 1_555
Fe4 O5 1.946064 1_555
Fe4 O9 1.954947 1_555
Fe4 O8 2.108389 1_554
Fe4 O4 2.162710 1_554
Fe5 O13 1.926186 1_555
Fe5 O7 1.955977 1_555
Fe5 O10 1.975659 1_555
Fe5 O6 1.976131 1_555
Fe6 O2 1.903890 1_555
Fe6 O7 1.932028 1_555
Fe6 O10 1.945484 1_555
Fe6 O4 2.083578 1_555
Fe6 O8 2.095514 1_555
Fe7 O12 1.933233 1_555
Fe7 O5 1.947143 1_555
Fe7 O9 1.958944 1_555
Fe7 O6 1.960429 1_555
F0 Fe7 2.084118 1_555
F0 Fe5 2.090912 1_555
F0 Fe2 2.149484 1_665
F1 Mg0 1.893853 1_556
F1 Fe3 2.087283 1_645
F1 Fe0 2.253724 1_646
