# generated using pymatgen
data_Li2MnV3O8
_symmetry_space_group_name_H-M   'P 1'
_cell_length_a   5.94871470
_cell_length_b   10.28847926
_cell_length_c   5.94850396
_cell_angle_alpha   90.70239792
_cell_angle_beta   119.48703459
_cell_angle_gamma   106.34408106
_symmetry_Int_Tables_number   1
_chemical_formula_structural   Li2MnV3O8
_chemical_formula_sum   'Li4 Mn2 V6 O16'
_cell_volume   299.10717661
_cell_formula_units_Z   2
loop_
 _symmetry_equiv_pos_site_id
 _symmetry_equiv_pos_as_xyz
  1  'x, y, z'
loop_
 _atom_site_type_symbol
 _atom_site_label
 _atom_site_symmetry_multiplicity
 _atom_site_fract_x
 _atom_site_fract_y
 _atom_site_fract_z
 _atom_site_occupancy
  Li  Li0  1  0.12937400  0.19093700  0.06154700  1
  Li  Li1  1  0.12938500  0.69095300  0.56156500  1
  Li  Li2  1  0.87062200  0.30907900  0.43849600  1
  Li  Li3  1  0.87063900  0.80908600  0.93844200  1
  Mn  Mn0  1  0.49984900  0.25008000  0.74967500  1
  Mn  Mn1  1  0.50013800  0.75010800  0.25010800  1
  V  V0  1  0.49901200  0.49913700  0.49958800  1
  V  V1  1  0.50097200  0.00084900  0.00043200  1
  V  V2  1  0.49936100  0.49924100  0.99995800  1
  V  V3  1  0.50067300  0.00072800  0.50006200  1
  V  V4  1  0.99956500  0.49911600  0.00013800  1
  V  V5  1  0.00041900  0.00085800  0.49987300  1
  O  O0  1  0.27186400  0.39460500  0.12281600  1
  O  O1  1  0.27273900  0.89624600  0.62349200  1
  O  O2  1  0.72818700  0.10544400  0.37726700  1
  O  O3  1  0.72726500  0.60379800  0.87652400  1
  O  O4  1  0.71396800  0.62379300  0.34916700  1
  O  O5  1  0.71539300  0.12614400  0.85051500  1
  O  O6  1  0.26770600  0.62237800  0.35473600  1
  O  O7  1  0.26970900  0.12513100  0.85533300  1
  O  O8  1  0.27455900  0.62376200  0.90982500  1
  O  O9  1  0.27577900  0.12620200  0.41082300  1
  O  O10  1  0.72524900  0.87613800  0.59002700  1
  O  O11  1  0.72427600  0.37378600  0.08920000  1
  O  O12  1  0.73239500  0.87759800  0.14535000  1
  O  O13  1  0.73018300  0.37483100  0.64464800  1
  O  O14  1  0.28607600  0.87619100  0.15077300  1
  O  O15  1  0.28464300  0.37378500  0.64961900  1
loop_
_geom_bond_atom_site_label_1
_geom_bond_atom_site_label_2
_geom_bond_distance
_geom_bond_site_symmetry_2
Li0 O0 1.979815 1_555
Li0 O7 1.991448 1_554
Li0 O5 2.024121 1_454
Li0 O9 2.024311 1_555
Li1 O1 1.995508 1_555
Li1 O6 1.997644 1_555
Li1 O4 2.030875 1_455
Li1 O8 2.031057 1_555
Li2 O2 1.979494 1_555
Li2 O13 1.991402 1_555
Li2 O11 2.024270 1_555
Li2 O15 2.024344 1_655
Li3 O3 1.995467 1_555
Li3 O12 1.997355 1_556
Li3 O14 2.030970 1_656
Li3 O10 2.031158 1_555
Mn0 O13 1.946205 1_555
Mn0 O7 1.948910 1_555
Mn0 O15 1.948973 1_555
Mn0 O9 1.949336 1_555
Mn0 O11 1.951286 1_556
Mn0 O5 1.952318 1_555
Mn1 O10 1.963653 1_555
Mn1 O14 1.964981 1_555
Mn1 O12 1.966060 1_555
Mn1 O4 1.966072 1_555
Mn1 O8 1.966591 1_554
Mn1 O6 1.967409 1_555
O0 V2 1.922887 1_554
O0 V0 2.036483 1_555
O0 V4 2.036756 1_455
O1 V3 1.926712 1_565
O1 V1 2.037325 1_566
O1 V5 2.037496 1_565
O2 V3 1.922988 1_555
O2 V1 2.036973 1_555
O2 V5 2.037045 1_655
O3 V2 1.926880 1_555
O3 V0 2.037499 1_555
O3 V4 2.037950 1_556
O4 V2 1.997571 1_554
O4 V0 2.076563 1_555
O5 V3 2.006844 1_555
O5 V1 2.075234 1_556
O6 V0 2.021141 1_555
O6 V4 2.021268 1_455
O7 V5 2.029357 1_555
O7 V1 2.029957 1_556
O8 V2 1.998076 1_555
O8 V4 2.076201 1_456
O9 V3 2.006931 1_555
O9 V5 2.075788 1_555
O10 V3 1.997756 1_565
O10 V5 2.076663 1_665
O11 V2 2.006856 1_554
O11 V4 2.075464 1_555
O12 V5 2.020902 1_665
O12 V1 2.021715 1_565
O13 V4 2.029575 1_556
O13 V0 2.029784 1_555
O14 V3 1.997846 1_565
O14 V1 2.075986 1_565
O15 V2 2.006544 1_555
O15 V0 2.075800 1_555
