# generated using pymatgen
data_Li2H6Pt
_symmetry_space_group_name_H-M   'P 1'
_cell_length_a   4.70215708
_cell_length_b   4.70215708
_cell_length_c   4.70215708
_cell_angle_alpha   60.00000000
_cell_angle_beta   60.00000000
_cell_angle_gamma   60.00000000
_symmetry_Int_Tables_number   1
_chemical_formula_structural   Li2H6Pt
_chemical_formula_sum   'Li2 H6 Pt1'
_cell_volume   73.51507461
_cell_formula_units_Z   1
loop_
 _symmetry_equiv_pos_site_id
 _symmetry_equiv_pos_as_xyz
  1  'x, y, z'
loop_
 _atom_site_type_symbol
 _atom_site_label
 _atom_site_symmetry_multiplicity
 _atom_site_fract_x
 _atom_site_fract_y
 _atom_site_fract_z
 _atom_site_occupancy
  Li  Li0  1  0.75000000  0.75000000  0.75000000  1
  Li  Li1  1  0.25000000  0.25000000  0.25000000  1
  H  H0  1  0.75478788  0.75478788  0.24521212  1
  H  H1  1  0.24521212  0.75478788  0.24521212  1
  H  H2  1  0.75478788  0.24521212  0.24521212  1
  H  H3  1  0.24521212  0.24521212  0.75478788  1
  H  H4  1  0.75478788  0.24521212  0.75478788  1
  H  H5  1  0.24521212  0.75478788  0.75478788  1
  Pt  Pt0  1  -0.00000000  0.00000000  0.00000000  1
loop_
_geom_bond_atom_site_label_1
_geom_bond_atom_site_label_2
_geom_bond_distance
_geom_bond_site_symmetry_2
H0 Pt0 1.630625 1_665
H0 Li0 2.351294 1_555
H0 Li0 2.351294 1_554
H0 Li1 2.351294 1_565
H0 Li1 2.351294 1_655
H1 Pt0 1.630625 1_565
H1 Li1 2.351294 1_555
H1 Li0 2.351294 1_554
H1 Li0 2.351294 1_455
H1 Li1 2.351294 1_565
H2 Pt0 1.630625 1_655
H2 Li0 2.351294 1_545
H2 Li1 2.351294 1_555
H2 Li0 2.351294 1_554
H2 Li1 2.351294 1_655
H3 Pt0 1.630625 1_556
H3 Li0 2.351294 1_545
H3 Li1 2.351294 1_555
H3 Li1 2.351294 1_556
H3 Li0 2.351294 1_455
H4 Pt0 1.630625 1_656
H4 Li0 2.351294 1_545
H4 Li0 2.351294 1_555
H4 Li1 2.351294 1_556
H4 Li1 2.351294 1_655
H5 Pt0 1.630625 1_566
H5 Li0 2.351294 1_555
H5 Li1 2.351294 1_556
H5 Li0 2.351294 1_455
H5 Li1 2.351294 1_565
