# generated using pymatgen
data_Ca3(RuN2)2
_symmetry_space_group_name_H-M   'P 1'
_cell_length_a   6.97520584
_cell_length_b   8.60375253
_cell_length_c   5.36275290
_cell_angle_alpha   90.00000491
_cell_angle_beta   90.60262711
_cell_angle_gamma   128.07832735
_symmetry_Int_Tables_number   1
_chemical_formula_structural   Ca3(RuN2)2
_chemical_formula_sum   'Ca6 Ru4 N8'
_cell_volume   253.31539656
_cell_formula_units_Z   2
loop_
 _symmetry_equiv_pos_site_id
 _symmetry_equiv_pos_as_xyz
  1  'x, y, z'
loop_
 _atom_site_type_symbol
 _atom_site_label
 _atom_site_symmetry_multiplicity
 _atom_site_fract_x
 _atom_site_fract_y
 _atom_site_fract_z
 _atom_site_occupancy
  Ca  Ca0  1  0.23100300  0.97518900  0.04127100  1
  Ca  Ca1  1  0.76899700  0.74418500  0.45872900  1
  Ca  Ca2  1  0.76899700  0.02481100  0.95872900  1
  Ca  Ca3  1  0.23100300  0.25581500  0.54127100  1
  Ca  Ca4  1  0.00000000  0.59934900  0.75000000  1
  Ca  Ca5  1  0.00000000  0.40065100  0.25000000  1
  Ru  Ru0  1  0.57684200  0.17043800  0.58756300  1
  Ru  Ru1  1  0.42315800  0.59359600  0.91243700  1
  Ru  Ru2  1  0.42315800  0.82956200  0.41243700  1
  Ru  Ru3  1  0.57684200  0.40640400  0.08756300  1
  N  N0  1  0.22464400  0.93682800  0.52370300  1
  N  N1  1  0.77535600  0.71218300  0.97629700  1
  N  N2  1  0.77535600  0.06317200  0.47629700  1
  N  N3  1  0.22464400  0.28781700  0.02370300  1
  N  N4  1  0.68837200  0.26530100  0.93094500  1
  N  N5  1  0.31162800  0.57692900  0.56905500  1
  N  N6  1  0.31162800  0.73469900  0.06905500  1
  N  N7  1  0.68837200  0.42307100  0.43094500  1
loop_
_geom_bond_atom_site_label_1
_geom_bond_atom_site_label_2
_geom_bond_distance
_geom_bond_site_symmetry_2
Ca0 N6 2.460335 1_555
Ca0 N1 2.539442 1_454
Ca0 N0 2.605508 1_555
Ca0 N4 2.641116 1_564
Ca0 N3 2.718970 1_565
Ca0 N0 2.791800 1_554
Ca1 N7 2.460326 1_555
Ca1 N0 2.539439 1_655
Ca1 N1 2.605508 1_554
Ca1 N5 2.641118 1_555
Ca1 N2 2.718970 1_565
Ca1 N1 2.791800 1_555
Ca2 N4 2.460335 1_555
Ca2 N3 2.539442 1_656
Ca2 N2 2.605508 1_555
Ca2 N6 2.641116 1_546
Ca2 N1 2.718970 1_545
Ca2 N2 2.791800 1_556
Ca3 N5 2.460326 1_555
Ca3 N2 2.539439 1_455
Ca3 N3 2.605508 1_556
Ca3 N7 2.641118 1_555
Ca3 N0 2.718970 1_545
Ca3 N3 2.791800 1_555
Ca4 N6 2.409980 1_556
Ca4 N7 2.409980 1_455
Ca4 N5 2.503040 1_555
Ca4 N4 2.503040 1_455
Ca4 N1 2.605156 1_455
Ca4 N0 2.605163 1_555
Ca5 N4 2.409980 1_454
Ca5 N5 2.409980 1_555
Ca5 N7 2.503040 1_455
Ca5 N6 2.503040 1_555
Ca5 N3 2.605156 1_555
Ca5 N2 2.605163 1_455
N0 Ru0 2.020892 1_565
N0 Ru2 2.172266 1_555
N1 Ru1 2.020894 1_555
N1 Ru3 2.172259 1_556
N2 Ru2 2.020892 1_545
N2 Ru0 2.172266 1_555
N3 Ru3 2.020894 1_555
N3 Ru1 2.172259 1_554
N4 Ru0 1.961899 1_555
N4 Ru3 1.990767 1_556
N5 Ru1 1.961899 1_555
N5 Ru2 1.990767 1_555
N6 Ru2 1.961899 1_555
N6 Ru1 1.990767 1_554
N7 Ru3 1.961899 1_555
N7 Ru0 1.990767 1_555
