# generated using pymatgen
data_Li7Mn2(CoO4)3
_symmetry_space_group_name_H-M   'P 1'
_cell_length_a   2.89892800
_cell_length_b   8.32295600
_cell_length_c   9.83968245
_cell_angle_alpha   65.41497727
_cell_angle_beta   90.00000000
_cell_angle_gamma   90.00000000
_symmetry_Int_Tables_number   1
_chemical_formula_structural   Li7Mn2(CoO4)3
_chemical_formula_sum   'Li7 Mn2 Co3 O12'
_cell_volume   215.88613115
_cell_formula_units_Z   1
loop_
 _symmetry_equiv_pos_site_id
 _symmetry_equiv_pos_as_xyz
  1  'x, y, z'
loop_
 _atom_site_type_symbol
 _atom_site_label
 _atom_site_symmetry_multiplicity
 _atom_site_fract_x
 _atom_site_fract_y
 _atom_site_fract_z
 _atom_site_occupancy
  Li  Li0  1  0.00000000  0.33825000  0.32143200  1
  Li  Li1  1  0.00000000  0.66175000  0.67856800  1
  Li  Li2  1  0.00000000  0.00000000  0.00000000  1
  Li  Li3  1  0.50000000  0.81245300  0.84538700  1
  Li  Li4  1  0.50000000  0.18754700  0.15461300  1
  Li  Li5  1  0.50000000  0.50000000  0.50000000  1
  Li  Li6  1  0.00000000  0.50000000  0.00000000  1
  Mn  Mn0  1  0.00000000  0.16550500  0.66944100  1
  Mn  Mn1  1  0.00000000  0.83449500  0.33055900  1
  Co  Co0  1  0.50000000  0.64841800  0.15852000  1
  Co  Co1  1  0.50000000  0.00000000  0.50000000  1
  Co  Co2  1  0.50000000  0.35158200  0.84148000  1
  O  O0  1  0.00000000  0.93450200  0.65870600  1
  O  O1  1  0.00000000  0.24811400  0.98595100  1
  O  O2  1  0.00000000  0.60833700  0.32434600  1
  O  O3  1  0.50000000  0.42670600  0.17258300  1
  O  O4  1  0.50000000  0.76197300  0.48059500  1
  O  O5  1  0.50000000  0.09322200  0.81159500  1
  O  O6  1  0.00000000  0.75188600  0.01404900  1
  O  O7  1  0.00000000  0.06549800  0.34129400  1
  O  O8  1  0.00000000  0.39166300  0.67565400  1
  O  O9  1  0.50000000  0.23802700  0.51940500  1
  O  O10  1  0.50000000  0.57329400  0.82741700  1
  O  O11  1  0.50000000  0.90677800  0.18840500  1
loop_
_geom_bond_atom_site_label_1
_geom_bond_atom_site_label_2
_geom_bond_distance
_geom_bond_site_symmetry_2
Li0 O3 1.972528 1_555
Li0 O3 1.972528 1_455
Li0 O7 2.195996 1_555
Li0 O2 2.260002 1_555
Li0 O9 2.288963 1_455
Li0 O9 2.288963 1_555
Li1 O10 1.972528 1_555
Li1 O10 1.972528 1_455
Li1 O0 2.195996 1_555
Li1 O8 2.260002 1_555
Li1 O4 2.288963 1_455
Li1 O4 2.288963 1_555
Li2 O1 2.011461 1_554
Li2 O6 2.011461 1_545
Li2 O11 2.223249 1_445
Li2 O11 2.223249 1_545
Li2 O5 2.223249 1_454
Li2 O5 2.223249 1_554
Li3 O10 2.070327 1_555
Li3 O6 2.100751 1_656
Li3 O6 2.100751 1_556
Li3 O5 2.219187 1_565
Li3 O0 2.225835 1_555
Li3 O0 2.225835 1_655
Li4 O3 2.070327 1_555
Li4 O1 2.100751 1_654
Li4 O1 2.100751 1_554
Li4 O11 2.219187 1_545
Li4 O7 2.225835 1_655
Li4 O7 2.225835 1_555
Li5 O9 2.108113 1_555
Li5 O4 2.108113 1_555
Li5 O8 2.145812 1_555
Li5 O8 2.145812 1_655
Li5 O2 2.145812 1_655
Li5 O2 2.145812 1_555
Li6 O3 2.120107 1_555
Li6 O3 2.120107 1_455
Li6 O10 2.120107 1_554
Li6 O10 2.120107 1_454
Li6 O6 2.157614 1_555
Li6 O1 2.157614 1_554
Mn0 O8 1.908547 1_555
Mn0 O5 1.928518 1_555
Mn0 O5 1.928518 1_455
Mn0 O0 1.968918 1_545
Mn0 O9 1.975674 1_455
Mn0 O9 1.975674 1_555
Mn1 O2 1.908547 1_555
Mn1 O11 1.928518 1_555
Mn1 O11 1.928518 1_455
Mn1 O7 1.968918 1_565
Mn1 O4 1.975674 1_455
Mn1 O4 1.975674 1_555
Co0 O3 1.792152 1_555
Co0 O6 1.960796 1_655
Co0 O6 1.960796 1_555
Co0 O2 2.102778 1_655
Co0 O2 2.102778 1_555
Co0 O11 2.288337 1_555
Co1 O0 2.031850 1_645
Co1 O0 2.031850 1_545
Co1 O7 2.031850 1_555
Co1 O7 2.031850 1_655
Co1 O4 2.067830 1_545
Co1 O9 2.067830 1_555
Co2 O10 1.792152 1_555
Co2 O1 1.960796 1_655
Co2 O1 1.960796 1_555
Co2 O8 2.102778 1_555
Co2 O8 2.102778 1_655
Co2 O5 2.288337 1_555
