# generated using pymatgen
data_Mg4Si3
_symmetry_space_group_name_H-M   'P 1'
_cell_length_a   7.31697003
_cell_length_b   12.73071102
_cell_length_c   7.24986029
_cell_angle_alpha   118.43140696
_cell_angle_beta   65.47652944
_cell_angle_gamma   110.40474006
_symmetry_Int_Tables_number   1
_chemical_formula_structural   Mg4Si3
_chemical_formula_sum   'Mg16 Si12'
_cell_volume   530.58620293
_cell_formula_units_Z   4
loop_
 _symmetry_equiv_pos_site_id
 _symmetry_equiv_pos_as_xyz
  1  'x, y, z'
loop_
 _atom_site_type_symbol
 _atom_site_label
 _atom_site_symmetry_multiplicity
 _atom_site_fract_x
 _atom_site_fract_y
 _atom_site_fract_z
 _atom_site_occupancy
  Mg  Mg0  1  0.03774600  0.12689200  0.71430600  1
  Mg  Mg1  1  0.34645600  0.07037600  0.83415800  1
  Mg  Mg2  1  0.25706500  0.64589500  0.80244400  1
  Mg  Mg3  1  0.47337000  0.75459300  0.15664200  1
  Mg  Mg4  1  0.87388500  0.95741200  0.02449600  1
  Mg  Mg5  1  0.62765700  0.14029800  0.10043300  1
  Mg  Mg6  1  0.00427600  0.63775600  0.24764600  1
  Mg  Mg7  1  0.70101600  0.49283300  0.93303700  1
  Mg  Mg8  1  0.10237100  0.37983700  0.60031500  1
  Mg  Mg9  1  0.46332800  0.27609600  0.61969900  1
  Mg  Mg10  1  0.22546800  0.79751000  0.62985600  1
  Mg  Mg11  1  0.74901300  0.65834400  0.69643100  1
  Mg  Mg12  1  0.54565200  0.44300700  0.35495700  1
  Mg  Mg13  1  0.20365300  0.30645400  0.09815600  1
  Mg  Mg14  1  0.75063000  0.95200600  0.46695400  1
  Mg  Mg15  1  0.21067100  0.91341800  0.17391300  1
  Si  Si0  1  0.93029500  0.39031900  0.03251800  1
  Si  Si1  1  0.32264100  0.49125000  0.91320000  1
  Si  Si2  1  0.82052700  0.18265100  0.39414000  1
  Si  Si3  1  0.56984200  0.85497900  0.78812400  1
  Si  Si4  1  0.16113900  0.14647600  0.29537300  1
  Si  Si5  1  0.71119600  0.24073200  0.80308700  1
  Si  Si6  1  0.60470800  0.68911700  0.40685100  1
  Si  Si7  1  0.88159000  0.74535800  0.06573100  1
  Si  Si8  1  0.25337500  0.54883800  0.37031700  1
  Si  Si9  1  0.85984100  0.40977400  0.42069500  1
  Si  Si10  1  0.49319800  0.01153000  0.38925200  1
  Si  Si11  1  0.96255300  0.87211900  0.58409400  1
loop_
_geom_bond_atom_site_label_1
_geom_bond_atom_site_label_2
_geom_bond_distance
_geom_bond_site_symmetry_2
Mg0 Si11 2.825786 1_445
Mg0 Si4 2.896489 1_555
Mg0 Si5 2.910907 1_455
Mg0 Si0 3.186359 1_456
Mg1 Si10 2.739157 1_555
Mg1 Si5 2.794080 1_555
Mg1 Si4 2.832916 1_556
Mg2 Si1 2.689746 1_555
Mg2 Si8 2.775468 1_555
Mg2 Si3 2.855108 1_555
Mg2 Si7 2.926720 1_456
Mg2 Si6 3.077205 1_555
Mg3 Si7 2.811909 1_555
Mg3 Si10 2.860764 1_565
Mg3 Si6 2.890385 1_555
Mg3 Si1 2.995703 1_554
Mg3 Si3 3.213434 1_554
Mg3 Si8 3.271983 1_555
Mg4 Si11 2.695304 1_554
Mg4 Si2 2.855051 1_565
Mg4 Si7 2.875581 1_555
Mg4 Si3 2.932623 1_554
Mg4 Si10 2.952140 1_565
Mg4 Si4 3.076611 1_665
Mg5 Si5 2.764291 1_554
Mg5 Si2 2.772551 1_555
Mg5 Si10 2.910921 1_555
Mg5 Si4 3.119637 1_555
Mg5 Si3 3.223609 1_544
Mg6 Si0 2.735320 1_455
Mg6 Si7 2.825298 1_455
Mg6 Si11 2.834070 1_455
Mg6 Si6 2.849636 1_455
Mg6 Si1 2.969646 1_554
Mg6 Si8 3.022799 1_555
Mg7 Si1 2.823981 1_555
Mg7 Si7 2.855637 1_556
Mg7 Si5 2.902209 1_555
Mg7 Si0 2.909501 1_556
Mg7 Si6 3.096039 1_556
Mg7 Si9 3.130342 1_555
Mg8 Si4 2.783165 1_555
Mg8 Si9 2.802270 1_455
Mg8 Si0 2.804517 1_456
Mg8 Si1 2.851693 1_555
Mg8 Si2 2.857427 1_455
Mg8 Si8 2.976448 1_555
Mg8 Si5 2.990170 1_455
Mg9 Si1 2.772698 1_555
Mg9 Si2 2.772723 1_555
Mg9 Si5 2.898393 1_555
Mg9 Si9 2.969076 1_555
Mg9 Si10 3.005857 1_555
Mg10 Si11 2.610942 1_455
Mg10 Si8 2.839716 1_555
Mg10 Si3 2.918282 1_555
Mg10 Si6 3.006578 1_555
Mg11 Si7 2.814081 1_556
Mg11 Si3 2.899568 1_555
Mg11 Si6 2.930472 1_555
Mg11 Si11 2.932626 1_555
Mg11 Si9 3.014583 1_555
Mg12 Si9 2.733289 1_555
Mg12 Si8 2.840730 1_555
Mg12 Si0 2.863077 1_555
Mg12 Si6 2.865901 1_555
Mg13 Si8 2.750055 1_555
Mg13 Si9 2.832296 1_455
Mg13 Si0 2.851305 1_455
Mg13 Si4 2.872418 1_555
Mg13 Si1 2.949096 1_554
Mg13 Si2 3.176988 1_455
Mg14 Si10 2.592730 1_565
Mg14 Si11 2.678671 1_555
Mg14 Si3 2.782028 1_555
Mg14 Si7 2.908196 1_555
Mg14 Si6 3.006090 1_555
Mg14 Si2 3.060497 1_565
Mg15 Si10 2.700503 1_565
Mg15 Si7 2.714432 1_455
Mg15 Si4 2.776131 1_565
Mg15 Si3 2.926259 1_554
Mg15 Si11 2.959239 1_455
Si0 Si5 2.455992 1_554
Si0 Si9 2.543222 1_555
Si0 Si1 2.658093 1_654
Si1 Si8 2.885903 1_556
Si2 Si4 2.437420 1_655
Si2 Si5 2.516526 1_555
Si2 Si9 2.723262 1_555
Si3 Si6 2.529197 1_555
Si6 Si8 2.604129 1_555
Si6 Si7 2.692314 1_555
Si8 Si9 2.783349 1_455
Si10 Si2 2.615739 1_555
Si11 Si3 2.614213 1_555
