# generated using pymatgen
data_LiHfMg6O7
_symmetry_space_group_name_H-M   'P 1'
_cell_length_a   8.94461099
_cell_length_b   4.31122615
_cell_length_c   4.31122615
_cell_angle_alpha   90.00000000
_cell_angle_beta   90.00000000
_cell_angle_gamma   90.00000000
_symmetry_Int_Tables_number   1
_chemical_formula_structural   LiHfMg6O7
_chemical_formula_sum   'Li1 Hf1 Mg6 O7'
_cell_volume   166.25054095
_cell_formula_units_Z   1
loop_
 _symmetry_equiv_pos_site_id
 _symmetry_equiv_pos_as_xyz
  1  'x, y, z'
loop_
 _atom_site_type_symbol
 _atom_site_label
 _atom_site_symmetry_multiplicity
 _atom_site_fract_x
 _atom_site_fract_y
 _atom_site_fract_z
 _atom_site_occupancy
  Li  Li0  1  0.99102229  0.00000000  0.00000000  1
  Hf  Hf0  1  0.49943466  0.00000000  -0.00000000  1
  Mg  Mg0  1  0.98932965  0.50000000  0.50000000  1
  Mg  Mg1  1  0.51149093  0.50000000  0.50000000  1
  Mg  Mg2  1  0.22133030  0.00000000  0.50000000  1
  Mg  Mg3  1  0.76717384  0.00000000  0.50000000  1
  Mg  Mg4  1  0.22133030  0.50000000  0.00000000  1
  Mg  Mg5  1  0.76717384  0.50000000  0.00000000  1
  O  O0  1  0.26564174  0.00000000  -0.00000000  1
  O  O1  1  0.73775313  0.00000000  0.00000000  1
  O  O2  1  0.75186362  0.50000000  0.50000000  1
  O  O3  1  0.99453887  0.00000000  0.50000000  1
  O  O4  1  0.51868898  0.00000000  0.50000000  1
  O  O5  1  0.99453887  0.50000000  0.00000000  1
  O  O6  1  0.51868898  0.50000000  -0.00000000  1
loop_
_geom_bond_atom_site_label_1
_geom_bond_atom_site_label_2
_geom_bond_distance
_geom_bond_site_symmetry_2
Li0 O3 2.155843 1_555
Li0 O3 2.155843 1_554
Li0 O5 2.155843 1_545
Li0 O5 2.155843 1_555
Li0 O1 2.265394 1_555
Li0 O0 2.456364 1_655
Hf0 O0 2.091187 1_555
Hf0 O1 2.131666 1_555
Hf0 O4 2.162482 1_555
Hf0 O4 2.162482 1_554
Hf0 O6 2.162482 1_545
Hf0 O6 2.162482 1_555
Mg0 O2 2.124041 1_555
Mg0 O5 2.156117 1_556
Mg0 O5 2.156117 1_555
Mg0 O3 2.156117 1_555
Mg0 O3 2.156117 1_565
Mg1 O2 2.150040 1_555
Mg1 O4 2.156574 1_565
Mg1 O6 2.156574 1_556
Mg1 O6 2.156574 1_555
Mg1 O4 2.156574 1_555
Mg2 O3 2.028561 1_455
Mg2 O0 2.191748 1_556
Mg2 O0 2.191748 1_555
Mg2 O4 2.659758 1_555
Mg3 O3 2.033692 1_555
Mg3 O2 2.159959 1_555
Mg3 O2 2.159959 1_545
Mg3 O1 2.171617 1_555
Mg3 O1 2.171617 1_556
Mg3 O4 2.222600 1_555
Mg4 O5 2.028561 1_455
Mg4 O0 2.191748 1_555
Mg4 O0 2.191748 1_565
Mg4 O6 2.659758 1_555
Mg5 O5 2.033692 1_555
Mg5 O2 2.159959 1_555
Mg5 O2 2.159959 1_554
Mg5 O1 2.171617 1_555
Mg5 O1 2.171617 1_565
Mg5 O6 2.222600 1_555
