# generated using pymatgen
data_PrBPt3
_symmetry_space_group_name_H-M   'P 1'
_cell_length_a   4.03625293
_cell_length_b   4.03625293
_cell_length_c   5.10236568
_cell_angle_alpha   90.00000000
_cell_angle_beta   90.00000000
_cell_angle_gamma   90.00000000
_symmetry_Int_Tables_number   1
_chemical_formula_structural   PrBPt3
_chemical_formula_sum   'Pr1 B1 Pt3'
_cell_volume   83.12436244
_cell_formula_units_Z   1
loop_
 _symmetry_equiv_pos_site_id
 _symmetry_equiv_pos_as_xyz
  1  'x, y, z'
loop_
 _atom_site_type_symbol
 _atom_site_label
 _atom_site_symmetry_multiplicity
 _atom_site_fract_x
 _atom_site_fract_y
 _atom_site_fract_z
 _atom_site_occupancy
  Pr  Pr0  1  0.00000000  0.00000000  0.98389405  1
  B  B0  1  0.50000000  0.50000000  0.68721551  1
  Pt  Pt0  1  0.00000000  0.50000000  0.50067650  1
  Pt  Pt1  1  0.50000000  0.50000000  0.10013644  1
  Pt  Pt2  1  0.50000000  -0.00000000  0.50067650  1
loop_
_geom_bond_atom_site_label_1
_geom_bond_atom_site_label_2
_geom_bond_distance
_geom_bond_site_symmetry_2
Pr0 Pt1 2.915039 1_446
Pr0 Pt1 2.915039 1_556
Pr0 Pt1 2.915039 1_456
Pr0 Pt1 2.915039 1_546
Pr0 Pt2 3.186186 1_555
Pr0 Pt0 3.186186 1_545
Pr0 Pt0 3.186186 1_555
Pr0 Pt2 3.186186 1_455
Pr0 Pt0 3.320485 1_556
Pr0 Pt2 3.320485 1_456
Pr0 Pt2 3.320485 1_556
Pr0 Pt0 3.320485 1_546
B0 Pt1 2.106874 1_556
B0 Pt0 2.231309 1_655
B0 Pt2 2.231309 1_555
B0 Pt2 2.231309 1_565
B0 Pt0 2.231309 1_555
B0 Pr0 3.230657 1_565
B0 Pr0 3.230657 1_655
B0 Pr0 3.230657 1_665
B0 Pr0 3.230657 1_555
