# generated using pymatgen
data_Mg14CrB
_symmetry_space_group_name_H-M   'P 1'
_cell_length_a   6.20175945
_cell_length_b   6.25016669
_cell_length_c   10.00703497
_cell_angle_alpha   90.00000000
_cell_angle_beta   90.00000000
_cell_angle_gamma   120.25854339
_symmetry_Int_Tables_number   1
_chemical_formula_structural   Mg14CrB
_chemical_formula_sum   'Mg14 Cr1 B1'
_cell_volume   335.04659786
_cell_formula_units_Z   1
loop_
 _symmetry_equiv_pos_site_id
 _symmetry_equiv_pos_as_xyz
  1  'x, y, z'
loop_
 _atom_site_type_symbol
 _atom_site_label
 _atom_site_symmetry_multiplicity
 _atom_site_fract_x
 _atom_site_fract_y
 _atom_site_fract_z
 _atom_site_occupancy
  Mg  Mg0  1  0.17192161  0.33596031  0.62500000  1
  Mg  Mg1  1  0.16869709  0.83434804  0.62500000  1
  Mg  Mg2  1  0.67535095  0.33334814  0.12500000  1
  Mg  Mg3  1  0.66459537  0.33489216  0.62500000  1
  Mg  Mg4  1  0.67535095  0.84200182  0.12500000  1
  Mg  Mg5  1  0.66459537  0.82970220  0.62500000  1
  Mg  Mg6  1  0.32315705  0.15481735  0.35455863  1
  Mg  Mg7  1  0.32315705  0.15481735  0.89544137  1
  Mg  Mg8  1  0.32315705  0.66834070  0.35455863  1
  Mg  Mg9  1  0.32315705  0.66834070  0.89544137  1
  Mg  Mg10  1  0.83660298  0.16830199  0.37404867  1
  Mg  Mg11  1  0.83660298  0.16830199  0.87595133  1
  Mg  Mg12  1  0.84372278  0.67186189  0.36149532  1
  Mg  Mg13  1  0.84372278  0.67186189  0.88850468  1
  Cr  Cr0  1  0.16027769  0.33013835  0.12500000  1
  B  B0  1  0.16593124  0.83296512  0.12500000  1
loop_
_geom_bond_atom_site_label_1
_geom_bond_atom_site_label_2
_geom_bond_distance
_geom_bond_site_symmetry_2
Mg0 Mg5 3.058813 1_555
Mg0 Mg3 3.058814 1_555
Mg0 Mg10 3.087559 1_455
Mg0 Mg11 3.087559 1_455
Mg0 Mg1 3.125131 1_555
Mg0 Mg1 3.125131 1_545
Mg0 Mg5 3.142956 1_445
Mg0 Mg3 3.142956 1_455
Mg0 Mg7 3.248977 1_555
Mg0 Mg6 3.248977 1_555
Mg0 Mg8 3.248983 1_555
Mg0 Mg9 3.248983 1_555
Mg1 Mg3 3.090175 1_565
Mg1 Mg5 3.090176 1_555
Mg1 Mg3 3.111786 1_455
Mg1 Mg5 3.111787 1_455
Mg1 Mg12 3.159707 1_455
Mg1 Mg13 3.159707 1_455
Mg1 Mg8 3.212475 1_555
Mg1 Mg9 3.212475 1_555
Mg1 Mg7 3.212481 1_565
Mg1 Mg6 3.212481 1_565
Mg2 Mg6 2.972674 1_555
Mg2 Mg7 2.972674 1_554
Mg2 Mg4 3.070996 1_545
Mg2 Mg4 3.179170 1_555
Mg3 Mg5 3.092645 1_555
Mg3 Mg5 3.157521 1_545
Mg3 Mg7 3.266942 1_555
Mg3 Mg6 3.266942 1_555
Mg4 Mg8 2.972674 1_555
Mg4 Mg9 2.972674 1_554
Mg5 Mg8 3.266943 1_555
Mg5 Mg9 3.266943 1_555
Mg10 Mg2 3.052072 1_555
Mg10 Mg4 3.052078 1_545
Mg10 Mg8 3.067034 1_655
Mg10 Mg6 3.067034 1_655
Mg10 Mg3 3.106122 1_555
Mg10 Mg5 3.106128 1_545
Mg10 Mg12 3.127840 1_555
Mg10 Mg12 3.127840 1_545
Mg10 Mg8 3.148688 1_545
Mg10 Mg6 3.148688 1_555
Mg11 Mg2 3.052072 1_556
Mg11 Mg4 3.052078 1_546
Mg11 Mg9 3.067034 1_655
Mg11 Mg7 3.067034 1_655
Mg11 Mg3 3.106122 1_555
Mg11 Mg5 3.106128 1_545
Mg11 Mg13 3.127840 1_555
Mg11 Mg13 3.127840 1_545
Mg11 Mg9 3.148688 1_545
Mg11 Mg7 3.148688 1_555
Mg12 Mg6 2.985293 1_665
Mg12 Mg8 2.985294 1_655
Mg12 Mg4 2.990173 1_555
Mg12 Mg2 2.990179 1_555
Mg12 Mg5 3.203917 1_555
Mg12 Mg3 3.203923 1_555
Mg12 Mg6 3.218138 1_555
Mg12 Mg8 3.218138 1_555
Mg13 Mg7 2.985293 1_665
Mg13 Mg9 2.985294 1_655
Mg13 Mg4 2.990173 1_556
Mg13 Mg2 2.990179 1_556
Mg13 Mg5 3.203917 1_555
Mg13 Mg3 3.203923 1_555
Mg13 Mg7 3.218138 1_555
Mg13 Mg9 3.218138 1_555
Cr0 Mg6 2.934927 1_555
Cr0 Mg7 2.934927 1_554
Cr0 Mg9 2.934933 1_554
Cr0 Mg8 2.934933 1_555
Cr0 Mg4 3.017558 1_445
Cr0 Mg2 3.017558 1_455
Cr0 Mg11 3.036044 1_454
Cr0 Mg10 3.036044 1_455
Cr0 Mg4 3.184298 1_555
Cr0 Mg2 3.184298 1_555
B0 Mg9 2.880577 1_554
B0 Mg8 2.880577 1_555
B0 Mg7 2.880583 1_564
B0 Mg6 2.880583 1_565
B0 Mg12 2.929166 1_455
B0 Mg13 2.929166 1_454
B0 Mg2 3.071309 1_455
B0 Mg4 3.071309 1_455
