# generated using pymatgen
data_BaMnBi2
_symmetry_space_group_name_H-M   'P 1'
_cell_length_a   4.76239000
_cell_length_b   4.76239000
_cell_length_c   12.31361485
_cell_angle_alpha   101.15004706
_cell_angle_beta   101.15004706
_cell_angle_gamma   90.00000000
_symmetry_Int_Tables_number   1
_chemical_formula_structural   BaMnBi2
_chemical_formula_sum   'Ba2 Mn2 Bi4'
_cell_volume   268.63056621
_cell_formula_units_Z   2
loop_
 _symmetry_equiv_pos_site_id
 _symmetry_equiv_pos_as_xyz
  1  'x, y, z'
loop_
 _atom_site_type_symbol
 _atom_site_label
 _atom_site_symmetry_multiplicity
 _atom_site_fract_x
 _atom_site_fract_y
 _atom_site_fract_z
 _atom_site_occupancy
  Ba  Ba0  1  0.88086100  0.88086100  0.76172200  1
  Ba  Ba1  1  0.11913900  0.11913900  0.23827800  1
  Mn  Mn0  1  0.25000000  0.75000000  0.50000000  1
  Mn  Mn1  1  0.75000000  0.25000000  0.50000000  1
  Bi  Bi0  1  0.50000000  0.00000000  0.00000000  1
  Bi  Bi1  1  0.00000000  0.50000000  0.00000000  1
  Bi  Bi2  1  0.68362200  0.68362200  0.36724400  1
  Bi  Bi3  1  0.31637800  0.31637800  0.63275600  1
loop_
_geom_bond_atom_site_label_1
_geom_bond_atom_site_label_2
_geom_bond_distance
_geom_bond_site_symmetry_2
Ba0 Bi1 3.692555 1_666
Ba0 Bi0 3.692555 1_566
Ba0 Bi0 3.692555 1_666
Ba0 Bi1 3.692555 1_656
Ba0 Bi3 3.697760 1_555
Ba0 Bi3 3.697760 1_655
Ba0 Bi3 3.697760 1_565
Ba0 Bi3 3.697760 1_665
Ba0 Mn0 3.908885 1_655
Ba0 Mn0 3.908885 1_555
Ba0 Mn1 3.908885 1_565
Ba0 Mn1 3.908885 1_555
Ba1 Bi1 3.692555 1_555
Ba1 Bi0 3.692555 1_555
Ba1 Bi1 3.692555 1_545
Ba1 Bi0 3.692555 1_455
Ba1 Bi2 3.697760 1_555
Ba1 Bi2 3.697760 1_545
Ba1 Bi2 3.697760 1_455
Ba1 Bi2 3.697760 1_445
Ba1 Mn0 3.908885 1_555
Ba1 Mn1 3.908885 1_455
Ba1 Mn1 3.908885 1_555
Ba1 Mn0 3.908885 1_545
Bi0 Bi1 3.367518 1_545
Bi0 Bi1 3.367518 1_655
Bi0 Bi1 3.367518 1_555
Bi0 Bi1 3.367518 1_645
Bi2 Mn0 2.853505 1_555
Bi2 Mn1 2.853505 1_555
Bi2 Mn0 2.853505 1_655
Bi2 Mn1 2.853505 1_565
Bi3 Mn0 2.853505 1_555
Bi3 Mn1 2.853505 1_555
Bi3 Mn1 2.853505 1_455
Bi3 Mn0 2.853505 1_545
