# generated using pymatgen
data_Cd(NO4)2
_symmetry_space_group_name_H-M   'P 1'
_cell_length_a   8.50206900
_cell_length_b   6.14872300
_cell_length_c   12.75071809
_cell_angle_alpha   81.49111353
_cell_angle_beta   90.00000000
_cell_angle_gamma   90.00000000
_symmetry_Int_Tables_number   1
_chemical_formula_structural   Cd(NO4)2
_chemical_formula_sum   'Cd4 N8 O32'
_cell_volume   659.23063793
_cell_formula_units_Z   4
loop_
 _symmetry_equiv_pos_site_id
 _symmetry_equiv_pos_as_xyz
  1  'x, y, z'
loop_
 _atom_site_type_symbol
 _atom_site_label
 _atom_site_symmetry_multiplicity
 _atom_site_fract_x
 _atom_site_fract_y
 _atom_site_fract_z
 _atom_site_occupancy
  Cd  Cd0  1  0.68924400  0.77631200  0.76943800  1
  Cd  Cd1  1  0.18924400  0.22368800  0.73056200  1
  Cd  Cd2  1  0.31075600  0.22368800  0.23056200  1
  Cd  Cd3  1  0.81075600  0.77631200  0.26943800  1
  N  N0  1  0.00073000  0.87838000  0.86962900  1
  N  N1  1  0.50073000  0.12162000  0.63037100  1
  N  N2  1  0.99927000  0.12162000  0.13037100  1
  N  N3  1  0.49927000  0.87838000  0.36962900  1
  N  N4  1  0.41688700  0.53488900  0.82311100  1
  N  N5  1  0.91688700  0.46511100  0.67688900  1
  N  N6  1  0.58311300  0.46511100  0.17688900  1
  N  N7  1  0.08311300  0.53488900  0.32311100  1
  O  O0  1  0.91889900  0.95185000  0.78454900  1
  O  O1  1  0.41889900  0.04815000  0.71545100  1
  O  O2  1  0.08110100  0.04815000  0.21545100  1
  O  O3  1  0.58110100  0.95185000  0.28454900  1
  O  O4  1  0.94187600  0.75609300  0.94419900  1
  O  O5  1  0.44187600  0.24390700  0.55580100  1
  O  O6  1  0.05812400  0.24390700  0.05580100  1
  O  O7  1  0.55812400  0.75609300  0.44419900  1
  O  O8  1  0.14364000  0.94235200  0.86911600  1
  O  O9  1  0.64364000  0.05764800  0.63088400  1
  O  O10  1  0.85636000  0.05764800  0.13088400  1
  O  O11  1  0.35636000  0.94235200  0.36911600  1
  O  O12  1  0.29325100  0.43330600  0.85580900  1
  O  O13  1  0.79325100  0.56669400  0.64419100  1
  O  O14  1  0.70674900  0.56669400  0.14419100  1
  O  O15  1  0.20674900  0.43330600  0.35580900  1
  O  O16  1  0.46514700  0.53761100  0.72885600  1
  O  O17  1  0.96514700  0.46238900  0.77114400  1
  O  O18  1  0.53485300  0.46238900  0.27114400  1
  O  O19  1  0.03485300  0.53761100  0.22885600  1
  O  O20  1  0.49609900  0.63718500  0.88602600  1
  O  O21  1  0.99609900  0.36281500  0.61397400  1
  O  O22  1  0.50390100  0.36281500  0.11397400  1
  O  O23  1  0.00390100  0.63718500  0.38602600  1
  O  O24  1  0.63613700  0.09803100  0.92756000  1
  O  O25  1  0.13613700  0.90196900  0.57244000  1
  O  O26  1  0.36386300  0.90196900  0.07244000  1
  O  O27  1  0.86386300  0.09803100  0.42756000  1
  O  O28  1  0.72400700  0.25908600  0.92315000  1
  O  O29  1  0.22400700  0.74091400  0.57685000  1
  O  O30  1  0.27599300  0.74091400  0.07685000  1
  O  O31  1  0.77599300  0.25908600  0.42315000  1
loop_
_geom_bond_atom_site_label_1
_geom_bond_atom_site_label_2
_geom_bond_distance
_geom_bond_site_symmetry_2
Cd0 O0 2.253009 1_555
Cd0 O20 2.293903 1_555
Cd0 O9 2.315052 1_565
Cd0 O13 2.366992 1_555
Cd0 O16 2.505351 1_555
Cd1 O1 2.253009 1_555
Cd1 O21 2.293903 1_455
Cd1 O8 2.315052 1_545
Cd1 O12 2.366992 1_555
Cd1 O17 2.505351 1_455
Cd2 O2 2.253009 1_555
Cd2 O22 2.293903 1_555
Cd2 O11 2.315052 1_545
Cd2 O15 2.366992 1_555
Cd2 O18 2.505351 1_555
Cd3 O3 2.253009 1_555
Cd3 O23 2.293903 1_655
Cd3 O10 2.315052 1_565
Cd3 O14 2.366992 1_555
Cd3 O19 2.505351 1_655
N0 O4 1.228105 1_455
N0 O8 1.276833 1_555
N0 O0 1.311470 1_455
N1 O5 1.228105 1_555
N1 O9 1.276833 1_555
N1 O1 1.311470 1_555
N2 O6 1.228105 1_655
N2 O10 1.276833 1_555
N2 O2 1.311470 1_655
N3 O7 1.228105 1_555
N3 O11 1.276833 1_555
N3 O3 1.311470 1_555
N4 O12 1.261680 1_555
N4 O16 1.267695 1_555
N4 O20 1.281424 1_555
N5 O13 1.261680 1_555
N5 O17 1.267695 1_555
N5 O21 1.281424 1_555
N6 O14 1.261680 1_555
N6 O18 1.267695 1_555
N6 O22 1.281424 1_555
N7 O15 1.261680 1_555
N7 O19 1.267695 1_555
N7 O23 1.281424 1_555
O24 O28 1.235098 1_555
O25 O29 1.235098 1_555
O26 O30 1.235098 1_555
O27 O31 1.235098 1_555
