# generated using pymatgen
data_Ho4(B2O5)3
_symmetry_space_group_name_H-M   'P 1'
_cell_length_a   6.25543909
_cell_length_b   6.25543909
_cell_length_c   18.88972277
_cell_angle_alpha   83.97780698
_cell_angle_beta   83.97780698
_cell_angle_gamma   41.16663488
_symmetry_Int_Tables_number   1
_chemical_formula_structural   Ho4(B2O5)3
_chemical_formula_sum   'Ho8 B12 O30'
_cell_volume   483.49097517
_cell_formula_units_Z   2
loop_
 _symmetry_equiv_pos_site_id
 _symmetry_equiv_pos_as_xyz
  1  'x, y, z'
loop_
 _atom_site_type_symbol
 _atom_site_label
 _atom_site_symmetry_multiplicity
 _atom_site_fract_x
 _atom_site_fract_y
 _atom_site_fract_z
 _atom_site_occupancy
  Ho  Ho0  1  0.06462200  0.66772200  0.09906000  1
  Ho  Ho1  1  0.33227800  0.93537800  0.40094000  1
  Ho  Ho2  1  0.93537800  0.33227800  0.90094000  1
  Ho  Ho3  1  0.66772200  0.06462200  0.59906000  1
  Ho  Ho4  1  0.34722600  0.92709300  0.19707900  1
  Ho  Ho5  1  0.07290700  0.65277400  0.30292100  1
  Ho  Ho6  1  0.65277400  0.07290700  0.80292100  1
  Ho  Ho7  1  0.92709300  0.34722600  0.69707900  1
  B  B0  1  0.36046200  0.97815400  0.02583400  1
  B  B1  1  0.02184600  0.63953800  0.47416600  1
  B  B2  1  0.63953800  0.02184600  0.97416600  1
  B  B3  1  0.97815400  0.36046200  0.52583400  1
  B  B4  1  0.79489700  0.34075800  0.30571300  1
  B  B5  1  0.65924200  0.20510300  0.19428700  1
  B  B6  1  0.20510300  0.65924200  0.69428700  1
  B  B7  1  0.34075800  0.79489700  0.80571300  1
  B  B8  1  0.80333400  0.39078000  0.08748800  1
  B  B9  1  0.60922000  0.19666600  0.41251200  1
  B  B10  1  0.19666600  0.60922000  0.91251200  1
  B  B11  1  0.39078000  0.80333400  0.58748800  1
  O  O0  1  0.07684800  0.56155100  0.86122800  1
  O  O1  1  0.92315200  0.43844900  0.13877200  1
  O  O2  1  0.08854500  0.49445500  0.54926000  1
  O  O3  1  0.50554500  0.91145500  0.95074000  1
  O  O4  1  0.91145500  0.50554500  0.45074000  1
  O  O5  1  0.49445500  0.08854500  0.04926000  1
  O  O6  1  0.16197300  0.80984800  0.62150500  1
  O  O7  1  0.19015200  0.83802700  0.87849500  1
  O  O8  1  0.56155100  0.07684800  0.36122800  1
  O  O9  1  0.80984800  0.16197300  0.12150500  1
  O  O10  1  0.66475900  0.46655100  0.80318300  1
  O  O11  1  0.53344900  0.33524100  0.69681700  1
  O  O12  1  0.33524100  0.53344900  0.19681700  1
  O  O13  1  0.46655100  0.66475900  0.30318300  1
  O  O14  1  0.71181200  0.45882800  0.57062600  1
  O  O15  1  0.54117200  0.28818800  0.92937400  1
  O  O16  1  0.28818800  0.54117200  0.42937400  1
  O  O17  1  0.45882800  0.71181200  0.07062600  1
  O  O18  1  0.75292100  0.99258000  0.47896700  1
  O  O19  1  0.00742000  0.24707900  0.02103300  1
  O  O20  1  0.24707900  0.00742000  0.52103300  1
  O  O21  1  0.99258000  0.75292100  0.97896700  1
  O  O22  1  0.95133400  0.68564900  0.70347100  1
  O  O23  1  0.31435100  0.04866600  0.79652900  1
  O  O24  1  0.04866600  0.31435100  0.29652900  1
  O  O25  1  0.68564900  0.95133400  0.20347100  1
  O  O26  1  0.86668800  0.13331200  0.25000000  1
  O  O27  1  0.13331200  0.86668800  0.75000000  1
  O  O28  1  0.83802700  0.19015200  0.37849500  1
  O  O29  1  0.43844900  0.92315200  0.63877200  1
loop_
_geom_bond_atom_site_label_1
_geom_bond_atom_site_label_2
_geom_bond_distance
_geom_bond_site_symmetry_2
Ho0 O1 2.224564 1_455
Ho0 O9 2.234560 1_465
Ho0 O12 2.273948 1_555
Ho0 O21 2.287475 1_454
Ho0 O25 2.465417 1_455
Ho0 O5 2.565933 1_465
Ho0 O5 2.599678 1_555
Ho0 O17 2.675883 1_555
Ho1 O8 2.224564 1_565
Ho1 O28 2.234560 1_465
Ho1 O13 2.273948 1_555
Ho1 O20 2.287475 1_565
Ho1 O24 2.465417 1_565
Ho1 O4 2.565933 1_465
Ho1 O4 2.599678 1_555
Ho1 O16 2.675883 1_555
Ho2 O0 2.224564 1_655
Ho2 O7 2.234560 1_645
Ho2 O10 2.273948 1_555
Ho2 O19 2.287475 1_656
Ho2 O23 2.465417 1_655
Ho2 O3 2.565933 1_645
Ho2 O3 2.599678 1_555
Ho2 O15 2.675883 1_555
Ho3 O29 2.224564 1_545
Ho3 O6 2.234560 1_645
Ho3 O11 2.273948 1_555
Ho3 O18 2.287475 1_545
Ho3 O22 2.465417 1_545
Ho3 O2 2.565933 1_645
Ho3 O2 2.599678 1_555
Ho3 O14 2.675883 1_555
Ho4 O13 2.246503 1_555
Ho4 O25 2.249443 1_555
Ho4 O26 2.345449 1_465
Ho4 O1 2.362266 1_465
Ho4 O24 2.508474 1_565
Ho4 O12 2.519866 1_555
Ho4 O1 2.613329 1_555
Ho4 O17 2.629868 1_555
Ho5 O12 2.246503 1_555
Ho5 O24 2.249443 1_555
Ho5 O26 2.345449 1_465
Ho5 O8 2.362266 1_465
Ho5 O25 2.508474 1_455
Ho5 O13 2.519866 1_555
Ho5 O8 2.613329 1_555
Ho5 O16 2.629868 1_555
Ho6 O11 2.246503 1_555
Ho6 O23 2.249443 1_555
Ho6 O27 2.345449 1_645
Ho6 O0 2.362266 1_645
Ho6 O22 2.508474 1_545
Ho6 O10 2.519866 1_555
Ho6 O0 2.613329 1_555
Ho6 O15 2.629868 1_555
Ho7 O10 2.246503 1_555
Ho7 O22 2.249443 1_555
Ho7 O27 2.345449 1_645
Ho7 O29 2.362266 1_645
Ho7 O23 2.508474 1_655
Ho7 O11 2.519866 1_555
Ho7 O29 2.613329 1_555
Ho7 O14 2.629868 1_555
B0 O19 1.460096 1_565
B0 O17 1.462979 1_555
B0 O3 1.514545 1_554
B0 O5 1.545513 1_565
B1 O18 1.460096 1_455
B1 O16 1.462979 1_555
B1 O2 1.514545 1_555
B1 O4 1.545513 1_455
B2 O21 1.460096 1_545
B2 O15 1.462979 1_555
B2 O5 1.514545 1_556
B2 O3 1.545513 1_545
B3 O20 1.460096 1_655
B3 O14 1.462979 1_555
B3 O4 1.514545 1_555
B3 O2 1.545513 1_655
B4 O13 1.435770 1_555
B4 O24 1.459713 1_655
B4 O28 1.507940 1_555
B4 O26 1.517613 1_555
B5 O12 1.435770 1_555
B5 O25 1.459713 1_545
B5 O9 1.507940 1_555
B5 O26 1.517613 1_555
B6 O11 1.435770 1_555
B6 O22 1.459713 1_455
B6 O6 1.507940 1_555
B6 O27 1.517613 1_555
B7 O10 1.435770 1_555
B7 O23 1.459713 1_565
B7 O7 1.507940 1_555
B7 O27 1.517613 1_555
B8 O1 1.462399 1_555
B8 O19 1.478642 1_655
B8 O9 1.479138 1_555
B8 O17 1.507474 1_555
B9 O8 1.462399 1_555
B9 O18 1.478642 1_545
B9 O28 1.479138 1_555
B9 O16 1.507474 1_555
B10 O0 1.462399 1_555
B10 O21 1.478642 1_455
B10 O7 1.479138 1_555
B10 O15 1.507474 1_555
B11 O29 1.462399 1_555
B11 O20 1.478642 1_565
B11 O6 1.479138 1_555
B11 O14 1.507474 1_555
