# generated using pymatgen
data_YTa3O9
_symmetry_space_group_name_H-M   'P 1'
_cell_length_a   11.85828485
_cell_length_b   8.84359517
_cell_length_c   8.86476109
_cell_angle_alpha   66.17304675
_cell_angle_beta   63.27568285
_cell_angle_gamma   26.54898592
_symmetry_Int_Tables_number   1
_chemical_formula_structural   YTa3O9
_chemical_formula_sum   'Y2 Ta6 O18'
_cell_volume   371.12866348
_cell_formula_units_Z   2
loop_
 _symmetry_equiv_pos_site_id
 _symmetry_equiv_pos_as_xyz
  1  'x, y, z'
loop_
 _atom_site_type_symbol
 _atom_site_label
 _atom_site_symmetry_multiplicity
 _atom_site_fract_x
 _atom_site_fract_y
 _atom_site_fract_z
 _atom_site_occupancy
  Y  Y0  1  0.31517900  0.04703900  0.00742400  1
  Y  Y1  1  0.68482100  0.95296100  0.99257600  1
  Ta  Ta0  1  0.07411700  0.52090400  0.25674400  1
  Ta  Ta1  1  0.24914000  0.51629100  0.73628700  1
  Ta  Ta2  1  0.41730300  0.50003700  0.24805300  1
  Ta  Ta3  1  0.75086000  0.48370900  0.26371300  1
  Ta  Ta4  1  0.58269700  0.49996300  0.75194700  1
  Ta  Ta5  1  0.92588300  0.47909600  0.74325600  1
  O  O0  1  0.09680100  0.00500800  0.23303300  1
  O  O1  1  0.17191400  0.48464700  0.99961200  1
  O  O2  1  0.00000000  0.50000000  0.50000000  1
  O  O3  1  0.43102400  0.00154800  0.20937000  1
  O  O4  1  0.07296500  0.49446300  0.79063000  1
  O  O5  1  0.26554900  0.48526200  0.23466100  1
  O  O6  1  0.50000000  0.50000000  0.00000000  1
  O  O7  1  0.33674700  0.49195500  0.49780400  1
  O  O8  1  0.74898000  0.00183000  0.23466100  1
  O  O9  1  0.43164300  0.46654800  0.76696700  1
  O  O10  1  0.56835700  0.53345200  0.23303300  1
  O  O11  1  0.25102000  0.99817000  0.76533900  1
  O  O12  1  0.82808600  0.51535300  0.00038800  1
  O  O13  1  0.66325300  0.50804500  0.50219600  1
  O  O14  1  0.73445100  0.51473800  0.76533900  1
  O  O15  1  0.92703500  0.50553700  0.20937000  1
  O  O16  1  0.56897600  0.99845200  0.79063000  1
  O  O17  1  0.90319900  0.99499200  0.76696700  1
loop_
_geom_bond_atom_site_label_1
_geom_bond_atom_site_label_2
_geom_bond_distance
_geom_bond_site_symmetry_2
O0 Ta3 1.918468 1_455
O0 Ta2 2.003574 1_545
O0 Y0 2.703229 1_555
O1 Ta0 2.047237 1_556
O1 Ta1 2.091421 1_555
O1 Y0 2.448375 1_556
O1 Y1 2.799258 1_545
O1 Y1 2.799263 1_455
O2 Ta5 1.928922 1_455
O2 Ta0 1.928922 1_555
O3 Ta0 2.089462 1_555
O3 Ta3 2.091660 1_545
O3 Y0 2.427957 1_555
O3 Y1 2.467234 1_544
O4 Ta5 2.089454 1_455
O4 Ta1 2.091657 1_555
O4 Y1 2.427954 1_455
O4 Y0 2.467237 1_556
O5 Ta0 1.913333 1_555
O5 Ta2 1.973544 1_555
O5 Y1 2.859572 1_544
O6 Ta2 1.964061 1_555
O6 Ta4 1.964061 1_554
O6 Y0 3.061034 1_565
O6 Y1 3.061034 1_544
O7 Ta1 1.894003 1_555
O7 Ta2 1.977749 1_555
O8 Ta0 1.913321 1_645
O8 Ta2 1.973556 1_555
O8 Y1 2.859569 1_544
O9 Ta1 1.918476 1_555
O9 Ta4 2.003578 1_555
O9 Y1 2.703229 1_545
O10 Ta3 1.918476 1_555
O10 Ta2 2.003578 1_555
O10 Y0 2.703229 1_565
O11 Ta5 1.913321 1_465
O11 Ta4 1.973556 1_555
O11 Y0 2.859569 1_566
O12 Ta5 2.047237 1_554
O12 Ta3 2.091421 1_555
O12 Y1 2.448375 1_554
O12 Y0 2.799258 1_565
O12 Y0 2.799263 1_655
O13 Ta3 1.894003 1_555
O13 Ta4 1.977749 1_555
O14 Ta5 1.913333 1_555
O14 Ta4 1.973544 1_555
O14 Y0 2.859572 1_566
O15 Ta0 2.089454 1_655
O15 Ta3 2.091657 1_555
O15 Y0 2.427954 1_655
O15 Y1 2.467237 1_554
O16 Ta5 2.089462 1_555
O16 Ta1 2.091660 1_565
O16 Y1 2.427957 1_555
O16 Y0 2.467234 1_566
O17 Ta1 1.918468 1_655
O17 Ta4 2.003574 1_565
O17 Y1 2.703229 1_555
