# generated using pymatgen
data_TlP
_symmetry_space_group_name_H-M   'P 1'
_cell_length_a   4.31895770
_cell_length_b   4.31895770
_cell_length_c   7.08706200
_cell_angle_alpha   90.00000000
_cell_angle_beta   90.00000000
_cell_angle_gamma   119.99999541
_symmetry_Int_Tables_number   1
_chemical_formula_structural   TlP
_chemical_formula_sum   'Tl2 P2'
_cell_volume   114.48663353
_cell_formula_units_Z   2
loop_
 _symmetry_equiv_pos_site_id
 _symmetry_equiv_pos_as_xyz
  1  'x, y, z'
loop_
 _atom_site_type_symbol
 _atom_site_label
 _atom_site_symmetry_multiplicity
 _atom_site_fract_x
 _atom_site_fract_y
 _atom_site_fract_z
 _atom_site_occupancy
  Tl  Tl0  1  0.66666700  0.33333300  0.87501500  1
  Tl  Tl1  1  0.33333300  0.66666700  0.37501500  1
  P  P0  1  0.66666700  0.33333300  0.49998300  1
  P  P1  1  0.33333300  0.66666700  0.99998300  1
loop_
_geom_bond_atom_site_label_1
_geom_bond_atom_site_label_2
_geom_bond_distance
_geom_bond_site_symmetry_2
P0 Tl1 2.646162 1_545
P0 Tl1 2.646162 1_655
P0 Tl1 2.646169 1_555
P0 Tl0 2.657875 1_555
P1 Tl0 2.646162 1_455
P1 Tl0 2.646162 1_565
P1 Tl0 2.646169 1_555
P1 Tl1 2.657875 1_556
