# generated using pymatgen
data_BaGe4O9
_symmetry_space_group_name_H-M   'P 1'
_cell_length_a   11.82416452
_cell_length_b   11.82416452
_cell_length_c   4.81020000
_cell_angle_alpha   90.00000000
_cell_angle_beta   90.00000000
_cell_angle_gamma   120.00000290
_symmetry_Int_Tables_number   1
_chemical_formula_structural   BaGe4O9
_chemical_formula_sum   'Ba3 Ge12 O27'
_cell_volume   582.41785488
_cell_formula_units_Z   3
loop_
 _symmetry_equiv_pos_site_id
 _symmetry_equiv_pos_as_xyz
  1  'x, y, z'
loop_
 _atom_site_type_symbol
 _atom_site_label
 _atom_site_symmetry_multiplicity
 _atom_site_fract_x
 _atom_site_fract_y
 _atom_site_fract_z
 _atom_site_occupancy
  Ba  Ba0  1  0.33124100  0.33098200  0.99992800  1
  Ba  Ba1  1  0.99974100  0.66875900  0.99992800  1
  Ba  Ba2  1  0.66901800  0.00025900  0.99992800  1
  Ge  Ge0  1  0.33333300  0.66666700  0.89317300  1
  Ge  Ge1  1  0.66666700  0.33333300  0.10375000  1
  Ge  Ge2  1  0.00000000  0.00000000  0.99478500  1
  Ge  Ge3  1  0.33820000  0.85072700  0.40391600  1
  Ge  Ge4  1  0.51252700  0.66180000  0.40391600  1
  Ge  Ge5  1  0.14927300  0.48747300  0.40391600  1
  Ge  Ge6  1  0.18084400  0.00111300  0.49763500  1
  Ge  Ge7  1  0.82026900  0.81915600  0.49763500  1
  Ge  Ge8  1  0.99888700  0.17973100  0.49763500  1
  Ge  Ge9  1  0.48744200  0.14949500  0.59267300  1
  Ge  Ge10  1  0.66205300  0.51255800  0.59267300  1
  Ge  Ge11  1  0.85050500  0.33794700  0.59267300  1
  O  O0  1  0.41169800  0.81912800  0.11826100  1
  O  O1  1  0.40743000  0.58830200  0.11826100  1
  O  O2  1  0.18087200  0.59257000  0.11826100  1
  O  O3  1  0.15403000  0.08608000  0.22509000  1
  O  O4  1  0.93205000  0.84597000  0.22509000  1
  O  O5  1  0.91392000  0.06795000  0.22509000  1
  O  O6  1  0.21321100  0.88805200  0.30770600  1
  O  O7  1  0.67484100  0.78678900  0.30770600  1
  O  O8  1  0.11194800  0.32515900  0.30770600  1
  O  O9  1  0.32526200  0.11284200  0.69205500  1
  O  O10  1  0.78758000  0.67473800  0.69205500  1
  O  O11  1  0.88715800  0.21242000  0.69205500  1
  O  O12  1  0.59167200  0.18057600  0.87959600  1
  O  O13  1  0.58890400  0.40832800  0.87959600  1
  O  O14  1  0.81942400  0.41109600  0.87959600  1
  O  O15  1  0.25013100  0.73620500  0.66791100  1
  O  O16  1  0.48607400  0.74986900  0.66791100  1
  O  O17  1  0.26379500  0.51392600  0.66791100  1
  O  O18  1  0.48246700  0.00058200  0.49608600  1
  O  O19  1  0.51811500  0.51753300  0.49608600  1
  O  O20  1  0.99941800  0.48188500  0.49608600  1
  O  O21  1  0.51387800  0.26427200  0.32935500  1
  O  O22  1  0.75039400  0.48612200  0.32935500  1
  O  O23  1  0.73572800  0.24960600  0.32935500  1
  O  O24  1  0.06302500  0.91114500  0.75722200  1
  O  O25  1  0.84812000  0.93697500  0.75722200  1
  O  O26  1  0.08885500  0.15188000  0.75722200  1
loop_
_geom_bond_atom_site_label_1
_geom_bond_atom_site_label_2
_geom_bond_distance
_geom_bond_site_symmetry_2
Ba0 O1 2.766217 1_556
Ba0 O13 2.768970 1_555
Ba0 O3 2.807378 1_556
Ba0 O26 2.827073 1_555
Ba0 O9 2.944268 1_555
Ba0 O8 2.956592 1_556
Ba0 O21 3.082233 1_556
Ba0 O17 3.096932 1_555
Ba0 O19 3.251152 1_556
Ba0 O19 3.278381 1_555
Ba1 O2 2.766217 1_656
Ba1 O14 2.768970 1_555
Ba1 O4 2.807378 1_556
Ba1 O24 2.827073 1_655
Ba1 O10 2.944268 1_555
Ba1 O6 2.956592 1_656
Ba1 O22 3.082233 1_556
Ba1 O15 3.096932 1_655
Ba1 O20 3.251152 1_556
Ba1 O20 3.278381 1_555
Ba2 O0 2.766217 1_546
Ba2 O12 2.768970 1_555
Ba2 O5 2.807378 1_556
Ba2 O25 2.827073 1_545
Ba2 O11 2.944268 1_555
Ba2 O7 2.956592 1_546
Ba2 O23 3.082233 1_556
Ba2 O16 3.096932 1_545
Ba2 O18 3.251152 1_556
Ba2 O18 3.278381 1_555
Ge0 O2 1.900072 1_556
Ge0 O0 1.900073 1_556
Ge0 O1 1.900081 1_556
Ge0 O15 1.904444 1_555
Ge0 O16 1.904452 1_555
Ge0 O17 1.904453 1_555
Ge1 O12 1.899914 1_554
Ge1 O14 1.899914 1_554
Ge1 O13 1.899922 1_554
Ge1 O23 1.906047 1_555
Ge1 O22 1.906055 1_555
Ge1 O21 1.906056 1_555
Ge2 O3 1.930421 1_556
Ge2 O4 1.930421 1_446
Ge2 O5 1.930421 1_456
Ge2 O26 1.935965 1_555
Ge2 O25 1.935965 1_445
Ge2 O24 1.935965 1_545
Ge3 O0 1.762837 1_555
Ge3 O15 1.766497 1_555
Ge3 O18 1.795416 1_565
Ge3 O6 1.801488 1_555
Ge4 O1 1.762837 1_555
Ge4 O16 1.766497 1_555
Ge4 O19 1.795416 1_555
Ge4 O7 1.801488 1_555
Ge5 O2 1.762837 1_555
Ge5 O17 1.766497 1_555
Ge5 O20 1.795416 1_455
Ge5 O8 1.801488 1_555
Ge6 O3 1.774011 1_555
Ge6 O24 1.774711 1_545
Ge6 O6 1.811058 1_545
Ge6 O9 1.811060 1_555
Ge7 O4 1.774011 1_555
Ge7 O25 1.774711 1_555
Ge7 O7 1.811058 1_555
Ge7 O10 1.811060 1_555
Ge8 O5 1.774011 1_555
Ge8 O26 1.774711 1_655
Ge8 O8 1.811058 1_655
Ge8 O11 1.811060 1_555
Ge9 O12 1.762344 1_555
Ge9 O21 1.766247 1_555
Ge9 O18 1.793336 1_555
Ge9 O9 1.806273 1_555
Ge10 O13 1.762344 1_555
Ge10 O22 1.766247 1_555
Ge10 O19 1.793336 1_555
Ge10 O10 1.806273 1_555
Ge11 O14 1.762344 1_555
Ge11 O23 1.766247 1_555
Ge11 O20 1.793336 1_555
Ge11 O11 1.806273 1_555
