# generated using pymatgen
data_SrV4SnO12
_symmetry_space_group_name_H-M   'P 1'
_cell_length_a   5.36224741
_cell_length_b   5.36224741
_cell_length_c   7.58944439
_cell_angle_alpha   90.00000000
_cell_angle_beta   90.00000000
_cell_angle_gamma   90.00000000
_symmetry_Int_Tables_number   1
_chemical_formula_structural   SrV4SnO12
_chemical_formula_sum   'Sr1 V4 Sn1 O12'
_cell_volume   218.22458656
_cell_formula_units_Z   1
loop_
 _symmetry_equiv_pos_site_id
 _symmetry_equiv_pos_as_xyz
  1  'x, y, z'
loop_
 _atom_site_type_symbol
 _atom_site_label
 _atom_site_symmetry_multiplicity
 _atom_site_fract_x
 _atom_site_fract_y
 _atom_site_fract_z
 _atom_site_occupancy
  Sr  Sr0  1  -0.00000000  -0.00000000  0.50000000  1
  V  V0  1  -0.00000000  0.50000000  0.74956933  1
  V  V1  1  0.00000000  0.50000000  0.25043067  1
  V  V2  1  0.50000000  -0.00000000  0.74956933  1
  V  V3  1  0.50000000  -0.00000000  0.25043067  1
  Sn  Sn0  1  0.50000000  0.50000000  -0.00000000  1
  O  O0  1  0.25017100  0.25017100  0.24973526  1
  O  O1  1  0.25017100  0.25017100  0.75026474  1
  O  O2  1  0.74982900  0.74982900  0.75026474  1
  O  O3  1  0.74982900  0.74982900  0.24973526  1
  O  O4  1  0.74982900  0.25017100  0.75026474  1
  O  O5  1  0.74982900  0.25017100  0.24973526  1
  O  O6  1  0.25017100  0.74982900  0.75026474  1
  O  O7  1  0.25017100  0.74982900  0.24973526  1
  O  O8  1  -0.00000000  0.50000000  0.50000000  1
  O  O9  1  -0.00000000  0.50000000  -0.00000000  1
  O  O10  1  0.50000000  -0.00000000  0.50000000  1
  O  O11  1  0.50000000  -0.00000000  -0.00000000  1
loop_
_geom_bond_atom_site_label_1
_geom_bond_atom_site_label_2
_geom_bond_distance
_geom_bond_site_symmetry_2
O0 V1 1.895849 1_555
O0 V3 1.895849 1_555
O0 Sn0 2.679861 1_555
O0 Sr0 2.684537 1_555
O1 V2 1.895849 1_555
O1 V0 1.895849 1_555
O1 Sn0 2.679861 1_556
O1 Sr0 2.684537 1_555
O2 V0 1.895849 1_655
O2 V2 1.895849 1_565
O2 Sn0 2.679861 1_556
O2 Sr0 2.684537 1_665
O3 V1 1.895849 1_655
O3 V3 1.895849 1_565
O3 Sn0 2.679861 1_555
O3 Sr0 2.684537 1_665
O4 V2 1.895849 1_555
O4 V0 1.895849 1_655
O4 Sn0 2.679861 1_556
O4 Sr0 2.684537 1_655
O5 V3 1.895849 1_555
O5 V1 1.895849 1_655
O5 Sn0 2.679861 1_555
O5 Sr0 2.684537 1_655
O6 V0 1.895849 1_555
O6 V2 1.895849 1_565
O6 Sn0 2.679861 1_556
O6 Sr0 2.684537 1_565
O7 V1 1.895849 1_555
O7 V3 1.895849 1_565
O7 Sn0 2.679861 1_555
O7 Sr0 2.684537 1_565
O8 V1 1.894093 1_555
O8 V0 1.894093 1_555
O8 Sr0 2.681124 1_555
O8 Sr0 2.681124 1_565
O9 V0 1.900630 1_554
O9 V1 1.900630 1_555
O9 Sn0 2.681124 1_455
O9 Sn0 2.681124 1_555
O10 V3 1.894093 1_555
O10 V2 1.894093 1_555
O10 Sr0 2.681124 1_555
O10 Sr0 2.681124 1_655
O11 V2 1.900630 1_554
O11 V3 1.900630 1_555
O11 Sn0 2.681124 1_545
O11 Sn0 2.681124 1_555
