# generated using pymatgen
data_Ba3ZnRu2O9
_symmetry_space_group_name_H-M   'P 1'
_cell_length_a   5.86141723
_cell_length_b   5.86141723
_cell_length_c   14.43185600
_cell_angle_alpha   90.00000000
_cell_angle_beta   90.00000000
_cell_angle_gamma   119.99999130
_symmetry_Int_Tables_number   1
_chemical_formula_structural   Ba3ZnRu2O9
_chemical_formula_sum   'Ba6 Zn2 Ru4 O18'
_cell_volume   429.39613373
_cell_formula_units_Z   2
loop_
 _symmetry_equiv_pos_site_id
 _symmetry_equiv_pos_as_xyz
  1  'x, y, z'
loop_
 _atom_site_type_symbol
 _atom_site_label
 _atom_site_symmetry_multiplicity
 _atom_site_fract_x
 _atom_site_fract_y
 _atom_site_fract_z
 _atom_site_occupancy
  Ba  Ba0  1  0.33333300  0.66666700  0.59001700  1
  Ba  Ba1  1  0.66666700  0.33333300  0.09001700  1
  Ba  Ba2  1  0.66666700  0.33333300  0.40998300  1
  Ba  Ba3  1  0.33333300  0.66666700  0.90998300  1
  Ba  Ba4  1  0.00000000  0.00000000  0.75000000  1
  Ba  Ba5  1  0.00000000  0.00000000  0.25000000  1
  Zn  Zn0  1  0.00000000  0.00000000  0.00000000  1
  Zn  Zn1  1  0.00000000  0.00000000  0.50000000  1
  Ru  Ru0  1  0.66666700  0.33333300  0.65409400  1
  Ru  Ru1  1  0.33333300  0.66666700  0.15409400  1
  Ru  Ru2  1  0.66666700  0.33333300  0.84590600  1
  Ru  Ru3  1  0.33333300  0.66666700  0.34590600  1
  O  O0  1  0.17103500  0.82896500  0.08433500  1
  O  O1  1  0.17103500  0.34207000  0.08433500  1
  O  O2  1  0.65793000  0.82896500  0.08433500  1
  O  O3  1  0.34207000  0.17103500  0.58433500  1
  O  O4  1  0.82896500  0.65793000  0.91566500  1
  O  O5  1  0.82896500  0.17103500  0.58433500  1
  O  O6  1  0.82896500  0.65793000  0.58433500  1
  O  O7  1  0.17103500  0.82896500  0.41566500  1
  O  O8  1  0.65793000  0.82896500  0.41566500  1
  O  O9  1  0.34207000  0.17103500  0.91566500  1
  O  O10  1  0.82896500  0.17103500  0.91566500  1
  O  O11  1  0.17103500  0.34207000  0.41566500  1
  O  O12  1  0.48413400  0.96826800  0.25000000  1
  O  O13  1  0.51586600  0.48413400  0.75000000  1
  O  O14  1  0.96826800  0.48413400  0.75000000  1
  O  O15  1  0.03173200  0.51586600  0.25000000  1
  O  O16  1  0.48413400  0.51586600  0.25000000  1
  O  O17  1  0.51586600  0.03173200  0.75000000  1
loop_
_geom_bond_atom_site_label_1
_geom_bond_atom_site_label_2
_geom_bond_distance
_geom_bond_site_symmetry_2
Ba0 O6 2.932188 1_455
Ba0 O3 2.932188 1_565
Ba0 O5 2.932191 1_565
Ba0 O5 2.932191 1_455
Ba0 O3 2.932194 1_555
Ba0 O6 2.932194 1_555
Ba0 O14 2.960549 1_455
Ba0 O17 2.960549 1_565
Ba0 O13 2.960552 1_555
Ba0 O7 3.007702 1_555
Ba0 O11 3.007705 1_555
Ba0 O8 3.007705 1_555
Ba1 O2 2.932188 1_545
Ba1 O1 2.932188 1_655
Ba1 O0 2.932191 1_545
Ba1 O0 2.932191 1_655
Ba1 O2 2.932194 1_555
Ba1 O1 2.932194 1_555
Ba1 O12 2.960549 1_545
Ba1 O15 2.960549 1_655
Ba1 O16 2.960552 1_555
Ba1 O10 3.007702 1_554
Ba1 O4 3.007705 1_554
Ba1 O9 3.007705 1_554
Ba2 O8 2.932188 1_545
Ba2 O11 2.932188 1_655
Ba2 O7 2.932191 1_655
Ba2 O7 2.932191 1_545
Ba2 O8 2.932194 1_555
Ba2 O11 2.932194 1_555
Ba2 O12 2.960549 1_545
Ba2 O15 2.960549 1_655
Ba2 O16 2.960552 1_555
Ba2 O5 3.007702 1_555
Ba2 O6 3.007705 1_555
Ba2 O3 3.007705 1_555
Ba3 O9 2.932188 1_565
Ba3 O4 2.932188 1_455
Ba3 O10 2.932191 1_565
Ba3 O10 2.932191 1_455
Ba3 O9 2.932194 1_555
Ba3 O4 2.932194 1_555
Ba3 O14 2.960549 1_455
Ba3 O17 2.960549 1_565
Ba3 O13 2.960552 1_555
Ba3 O0 3.007702 1_556
Ba3 O1 3.007705 1_556
Ba3 O2 3.007705 1_556
Ba4 O17 2.935132 1_455
Ba4 O14 2.935132 1_455
Ba4 O14 2.935132 1_445
Ba4 O17 2.935132 1_555
Ba4 O13 2.935132 1_445
Ba4 O13 2.935132 1_555
Ba4 O5 2.954868 1_455
Ba4 O10 2.954868 1_455
Ba4 O6 2.954868 1_445
Ba4 O9 2.954868 1_555
Ba4 O4 2.954868 1_445
Ba4 O3 2.954868 1_555
Ba5 O15 2.935132 1_545
Ba5 O12 2.935132 1_545
Ba5 O12 2.935132 1_445
Ba5 O15 2.935132 1_555
Ba5 O16 2.935132 1_445
Ba5 O16 2.935132 1_555
Ba5 O0 2.954868 1_545
Ba5 O7 2.954868 1_545
Ba5 O8 2.954868 1_445
Ba5 O2 2.954868 1_445
Ba5 O11 2.954868 1_555
Ba5 O1 2.954868 1_555
O0 Ru1 1.930918 1_555
O0 Zn0 2.120477 1_565
O1 Ru1 1.930922 1_555
O1 Zn0 2.120477 1_555
O2 Ru1 1.930922 1_555
O2 Zn0 2.120477 1_665
O3 Ru0 1.930922 1_555
O3 Zn1 2.120477 1_555
O4 Ru2 1.930922 1_555
O4 Zn0 2.120477 1_666
O5 Ru0 1.930918 1_555
O5 Zn1 2.120477 1_655
O6 Ru0 1.930922 1_555
O6 Zn1 2.120477 1_665
O7 Ru3 1.930918 1_555
O7 Zn1 2.120477 1_565
O8 Ru3 1.930922 1_555
O8 Zn1 2.120477 1_665
O9 Ru2 1.930922 1_555
O9 Zn0 2.120477 1_556
O10 Ru2 1.930918 1_555
O10 Zn0 2.120477 1_656
O11 Ru3 1.930922 1_555
O11 Zn1 2.120477 1_555
O12 Ru3 2.063880 1_555
O12 Ru1 2.063880 1_555
O13 Ru0 2.063883 1_555
O13 Ru2 2.063883 1_555
O14 Ru2 2.063880 1_555
O14 Ru0 2.063880 1_555
O15 Ru3 2.063880 1_555
O15 Ru1 2.063880 1_555
O16 Ru3 2.063883 1_555
O16 Ru1 2.063883 1_555
O17 Ru2 2.063880 1_555
O17 Ru0 2.063880 1_555
