# generated using pymatgen
data_Ce2Ge5Rh3
_symmetry_space_group_name_H-M   'P 1'
_cell_length_a   8.43307766
_cell_length_b   8.43307766
_cell_length_c   8.43307695
_cell_angle_alpha   137.64103885
_cell_angle_beta   106.00433202
_cell_angle_gamma   89.16068729
_symmetry_Int_Tables_number   1
_chemical_formula_structural   Ce2Ge5Rh3
_chemical_formula_sum   'Ce4 Ge10 Rh6'
_cell_volume   371.50013174
_cell_formula_units_Z   2
loop_
 _symmetry_equiv_pos_site_id
 _symmetry_equiv_pos_as_xyz
  1  'x, y, z'
loop_
 _atom_site_type_symbol
 _atom_site_label
 _atom_site_symmetry_multiplicity
 _atom_site_fract_x
 _atom_site_fract_y
 _atom_site_fract_z
 _atom_site_occupancy
  Ce  Ce0  1  0.86534000  0.13353800  0.73180200  1
  Ce  Ce1  1  0.13466000  0.86646200  0.26819800  1
  Ce  Ce2  1  0.40173600  0.63353800  0.76819800  1
  Ce  Ce3  1  0.59826400  0.36646200  0.23180200  1
  Ge  Ge0  1  0.50000000  0.25000000  0.75000000  1
  Ge  Ge1  1  0.50000000  0.75000000  0.25000000  1
  Ge  Ge2  1  0.22356600  0.47356600  0.25000000  1
  Ge  Ge3  1  0.77643400  0.02643400  0.25000000  1
  Ge  Ge4  1  0.77643400  0.52643400  0.75000000  1
  Ge  Ge5  1  0.22356600  0.97356600  0.75000000  1
  Ge  Ge6  1  0.05877500  0.39944500  0.65933000  1
  Ge  Ge7  1  0.94122500  0.60055500  0.34067000  1
  Ge  Ge8  1  0.74011500  0.89944500  0.84067000  1
  Ge  Ge9  1  0.25988500  0.10055500  0.15933000  1
  Rh  Rh0  1  0.00000000  0.25000000  0.25000000  1
  Rh  Rh1  1  0.00000000  0.75000000  0.75000000  1
  Rh  Rh2  1  0.25188800  0.35981900  0.89206900  1
  Rh  Rh3  1  0.74811200  0.64018100  0.10793100  1
  Rh  Rh4  1  0.46775100  0.85981900  0.60793100  1
  Rh  Rh5  1  0.53224900  0.14018100  0.39206900  1
loop_
_geom_bond_atom_site_label_1
_geom_bond_atom_site_label_2
_geom_bond_distance
_geom_bond_site_symmetry_2
Ce0 Ge8 3.021507 1_545
Ce0 Rh2 3.167895 1_655
Ce0 Ge0 3.229498 1_555
Ce0 Ge1 3.229498 1_545
Ce0 Ge7 3.265109 1_556
Ce0 Ge7 3.265109 1_545
Ce0 Ge6 3.277992 1_655
Ce0 Ge3 3.286789 1_555
Ce0 Ge4 3.286789 1_555
Ce0 Rh3 3.296972 1_545
Ce0 Rh3 3.296972 1_556
Ce0 Ge5 3.301599 1_645
Ce0 Ge2 3.301600 1_656
Ce0 Rh5 3.449149 1_555
Ce0 Rh0 3.507760 1_656
Ce0 Rh1 3.507760 1_645
Ce0 Rh4 3.520398 1_545
Ce1 Ge9 3.021507 1_565
Ce1 Rh3 3.167895 1_455
Ce1 Ge1 3.229498 1_555
Ce1 Ge0 3.229498 1_565
Ce1 Ge6 3.265109 1_554
Ce1 Ge6 3.265109 1_565
Ce1 Ge7 3.277992 1_455
Ce1 Ge5 3.286789 1_555
Ce1 Ge2 3.286789 1_555
Ce1 Rh2 3.296972 1_565
Ce1 Rh2 3.296972 1_554
Ce1 Ge3 3.301599 1_465
Ce1 Ge4 3.301600 1_454
Ce1 Rh4 3.449149 1_555
Ce1 Rh1 3.507760 1_554
Ce1 Rh0 3.507760 1_565
Ce1 Rh5 3.520398 1_565
Ce2 Ge6 3.021507 1_555
Ce2 Rh4 3.167898 1_555
Ce2 Ge1 3.229497 1_556
Ce2 Ge0 3.229498 1_555
Ce2 Ge9 3.265109 1_566
Ce2 Ge9 3.265109 1_555
Ce2 Ge8 3.277992 1_555
Ce2 Ge4 3.286789 1_555
Ce2 Ge3 3.286790 1_566
Ce2 Rh5 3.296967 1_555
Ce2 Rh5 3.296973 1_566
Ce2 Ge2 3.301599 1_555
Ce2 Ge5 3.301599 1_555
Ce2 Rh3 3.449144 1_556
Ce2 Rh1 3.507760 1_555
Ce2 Rh0 3.507761 1_555
Ce2 Rh2 3.520405 1_555
Ce3 Ge7 3.021507 1_555
Ce3 Rh5 3.167898 1_555
Ce3 Ge0 3.229497 1_554
Ce3 Ge1 3.229498 1_555
Ce3 Ge8 3.265109 1_544
Ce3 Ge8 3.265109 1_555
Ce3 Ge9 3.277992 1_555
Ce3 Ge2 3.286789 1_555
Ce3 Ge5 3.286790 1_544
Ce3 Rh4 3.296967 1_555
Ce3 Rh4 3.296973 1_544
Ce3 Ge4 3.301599 1_555
Ce3 Ge3 3.301599 1_555
Ce3 Rh2 3.449144 1_554
Ce3 Rh0 3.507760 1_655
Ce3 Rh1 3.507761 1_655
Ce3 Rh3 3.520405 1_555
Ge0 Rh5 2.521254 1_555
Ge0 Rh2 2.521258 1_555
Ge0 Rh4 2.521258 1_545
Ge0 Rh3 2.521258 1_556
Ge1 Rh4 2.521254 1_555
Ge1 Rh3 2.521258 1_555
Ge1 Rh5 2.521258 1_565
Ge1 Rh2 2.521258 1_554
Ge2 Rh2 2.489987 1_554
Ge2 Rh4 2.489992 1_555
Ge2 Ge7 2.668282 1_455
Ge2 Ge9 2.668282 1_555
Ge2 Rh0 2.685744 1_555
Ge3 Rh3 2.489987 1_545
Ge3 Rh5 2.489995 1_555
Ge3 Ge8 2.668282 1_544
Ge3 Ge6 2.668282 1_655
Ge3 Rh0 2.685744 1_655
Ge4 Rh3 2.489987 1_556
Ge4 Rh5 2.489992 1_555
Ge4 Ge6 2.668282 1_655
Ge4 Ge8 2.668282 1_555
Ge4 Rh1 2.685744 1_655
Ge5 Rh2 2.489987 1_565
Ge5 Rh4 2.489995 1_555
Ge5 Ge9 2.668282 1_566
Ge5 Ge7 2.668282 1_455
Ge5 Rh1 2.685744 1_555
Ge6 Rh2 2.409741 1_555
Ge6 Rh0 2.528873 1_555
Ge6 Rh1 2.528873 1_555
Ge7 Rh3 2.409741 1_555
Ge7 Rh1 2.528873 1_655
Ge7 Rh0 2.528873 1_655
Ge8 Rh4 2.409735 1_555
Ge8 Rh1 2.528873 1_655
Ge8 Rh0 2.528873 1_666
Ge9 Rh5 2.409735 1_555
Ge9 Rh0 2.528873 1_555
Ge9 Rh1 2.528873 1_544
