# generated using pymatgen
data_Dy5SbPt2
_symmetry_space_group_name_H-M   'P 1'
_cell_length_a   8.71246549
_cell_length_b   8.71246549
_cell_length_c   8.71246549
_cell_angle_alpha   127.24178377
_cell_angle_beta   127.24178377
_cell_angle_gamma   77.85656935
_symmetry_Int_Tables_number   1
_chemical_formula_structural   Dy5SbPt2
_chemical_formula_sum   'Dy10 Sb2 Pt4'
_cell_volume   406.25129526
_cell_formula_units_Z   2
loop_
 _symmetry_equiv_pos_site_id
 _symmetry_equiv_pos_as_xyz
  1  'x, y, z'
loop_
 _atom_site_type_symbol
 _atom_site_label
 _atom_site_symmetry_multiplicity
 _atom_site_fract_x
 _atom_site_fract_y
 _atom_site_fract_z
 _atom_site_occupancy
  Dy  Dy0  1  -0.00000000  -0.00000000  -0.00000000  1
  Dy  Dy1  1  0.50000000  0.50000000  -0.00000000  1
  Dy  Dy2  1  0.79488714  0.29488714  0.81340260  1
  Dy  Dy3  1  0.20511286  0.70511286  0.18659740  1
  Dy  Dy4  1  0.48148554  0.98148554  0.18659740  1
  Dy  Dy5  1  0.29488714  0.48148554  0.50000000  1
  Dy  Dy6  1  0.01851446  0.20511286  0.50000000  1
  Dy  Dy7  1  0.51851446  0.01851446  0.81340260  1
  Dy  Dy8  1  0.70511286  0.51851446  0.50000000  1
  Dy  Dy9  1  0.98148554  0.79488714  0.50000000  1
  Sb  Sb0  1  0.25000000  0.25000000  -0.00000000  1
  Sb  Sb1  1  0.75000000  0.75000000  -0.00000000  1
  Pt  Pt0  1  0.13867546  0.63867546  0.77735193  1
  Pt  Pt1  1  0.86132454  0.36132454  0.22264807  1
  Pt  Pt2  1  0.63867546  0.86132454  0.50000000  1
  Pt  Pt3  1  0.36132454  0.13867546  0.50000000  1
loop_
_geom_bond_atom_site_label_1
_geom_bond_atom_site_label_2
_geom_bond_distance
_geom_bond_site_symmetry_2
Dy0 Pt0 2.996343 1_544
Dy0 Pt1 2.996343 1_455
Dy0 Pt3 2.996345 1_555
Dy0 Pt2 2.996345 1_444
Dy0 Sb1 3.388857 1_445
Dy0 Sb0 3.388857 1_555
Dy1 Pt0 2.996343 1_554
Dy1 Pt1 2.996343 1_555
Dy1 Pt2 2.996345 1_555
Dy1 Pt3 2.996345 1_554
Dy1 Sb1 3.388857 1_555
Dy1 Sb0 3.388857 1_555
Dy2 Pt1 2.920292 1_556
Dy2 Pt3 2.959355 1_555
Dy2 Pt2 2.959355 1_545
Dy2 Sb1 3.291386 1_556
Dy2 Sb0 3.291386 1_656
Dy3 Pt0 2.920292 1_554
Dy3 Pt3 2.959355 1_565
Dy3 Pt2 2.959355 1_555
Dy3 Sb1 3.291386 1_455
Dy3 Sb0 3.291386 1_555
Dy4 Pt0 2.920309 1_554
Dy4 Pt2 2.959364 1_555
Dy4 Pt3 2.959364 1_565
Dy4 Sb1 3.291380 1_555
Dy4 Sb0 3.291380 1_565
Dy5 Pt3 2.920309 1_555
Dy5 Pt1 2.959355 1_455
Dy5 Pt0 2.959364 1_555
Dy5 Sb1 3.291385 1_556
Dy5 Sb0 3.291385 1_555
Dy6 Pt3 2.920309 1_555
Dy6 Pt0 2.959355 1_555
Dy6 Pt1 2.959364 1_455
Dy6 Sb1 3.291385 1_445
Dy6 Sb0 3.291385 1_556
Dy7 Pt1 2.920309 1_556
Dy7 Pt2 2.959364 1_545
Dy7 Pt3 2.959364 1_555
Dy7 Sb1 3.291380 1_546
Dy7 Sb0 3.291380 1_556
Dy8 Pt2 2.920309 1_555
Dy8 Pt0 2.959355 1_655
Dy8 Pt1 2.959364 1_555
Dy8 Sb0 3.291385 1_555
Dy8 Sb1 3.291385 1_556
Dy9 Pt2 2.920309 1_555
Dy9 Pt1 2.959355 1_555
Dy9 Pt0 2.959364 1_655
Dy9 Sb1 3.291385 1_555
Dy9 Sb0 3.291385 1_666
