# generated using pymatgen
data_ThZr2
_symmetry_space_group_name_H-M   'P 1'
_cell_length_a   6.71813562
_cell_length_b   6.71813562
_cell_length_c   15.95102400
_cell_angle_alpha   90.00000000
_cell_angle_beta   90.00000000
_cell_angle_gamma   119.99999623
_symmetry_Int_Tables_number   1
_chemical_formula_structural   ThZr2
_chemical_formula_sum   'Th8 Zr16'
_cell_volume   623.47170663
_cell_formula_units_Z   8
loop_
 _symmetry_equiv_pos_site_id
 _symmetry_equiv_pos_as_xyz
  1  'x, y, z'
loop_
 _atom_site_type_symbol
 _atom_site_label
 _atom_site_symmetry_multiplicity
 _atom_site_fract_x
 _atom_site_fract_y
 _atom_site_fract_z
 _atom_site_occupancy
  Th  Th0_0  1  0.00000000  0.00000000  0.00000000  1
  Th  Th0_1  1  0.00000000  0.00000000  0.50000000  1
  Th  Th0_2  1  0.00000000  0.50000000  0.00000000  1
  Th  Th0_3  1  0.00000000  0.50000000  0.50000000  1
  Th  Th0_4  1  0.50000000  0.00000000  0.00000000  1
  Th  Th0_5  1  0.50000000  0.00000000  0.50000000  1
  Th  Th0_6  1  0.50000000  0.50000000  0.00000000  1
  Th  Th0_7  1  0.50000000  0.50000000  0.50000000  1
  Zr  Zr0_0  1  0.16666650  0.33333350  0.33070300  1
  Zr  Zr0_1  1  0.16666650  0.33333350  0.83070300  1
  Zr  Zr0_2  1  0.16666650  0.83333350  0.33070300  1
  Zr  Zr0_3  1  0.16666650  0.83333350  0.83070300  1
  Zr  Zr0_4  1  0.66666650  0.33333350  0.33070300  1
  Zr  Zr0_5  1  0.66666650  0.33333350  0.83070300  1
  Zr  Zr0_6  1  0.66666650  0.83333350  0.33070300  1
  Zr  Zr0_7  1  0.66666650  0.83333350  0.83070300  1
  Zr  Zr1_0  1  0.33333350  0.16666650  0.16929700  1
  Zr  Zr1_1  1  0.33333350  0.16666650  0.66929700  1
  Zr  Zr1_2  1  0.33333350  0.66666650  0.16929700  1
  Zr  Zr1_3  1  0.33333350  0.66666650  0.66929700  1
  Zr  Zr1_4  1  0.83333350  0.16666650  0.16929700  1
  Zr  Zr1_5  1  0.83333350  0.16666650  0.66929700  1
  Zr  Zr1_6  1  0.83333350  0.66666650  0.16929700  1
  Zr  Zr1_7  1  0.83333350  0.66666650  0.66929700  1
loop_
_geom_bond_atom_site_label_1
_geom_bond_atom_site_label_2
_geom_bond_distance
_geom_bond_site_symmetry_2
Th0_0 Zr1_4 3.324694 1_455
Th0_0 Zr0_3 3.324694 1_544
Th0_0 Zr1_0 3.324696 1_555
Th0_0 Zr1_6 3.324696 1_445
Th0_0 Zr0_7 3.324696 1_444
Th0_0 Zr0_1 3.324696 1_554
Th0_0 Th0_2 3.359068 1_555
Th0_0 Th0_4 3.359068 1_555
Th0_0 Th0_4 3.359068 1_455
Th0_0 Th0_2 3.359068 1_545
Th0_0 Th0_6 3.359068 1_555
Th0_0 Th0_6 3.359068 1_445
Th0_1 Zr1_5 3.324694 1_455
Th0_1 Zr0_2 3.324694 1_545
Th0_1 Zr1_1 3.324696 1_555
Th0_1 Zr1_7 3.324696 1_445
Th0_1 Zr0_6 3.324696 1_445
Th0_1 Zr0_0 3.324696 1_555
Th0_1 Th0_3 3.359068 1_555
Th0_1 Th0_3 3.359068 1_545
Th0_1 Th0_5 3.359068 1_455
Th0_1 Th0_5 3.359068 1_555
Th0_1 Th0_7 3.359068 1_555
Th0_1 Th0_7 3.359068 1_445
Th0_2 Zr1_6 3.324694 1_455
Th0_2 Zr0_1 3.324694 1_554
Th0_2 Zr1_2 3.324696 1_555
Th0_2 Zr1_4 3.324696 1_455
Th0_2 Zr0_3 3.324696 1_554
Th0_2 Zr0_5 3.324696 1_454
Th0_2 Th0_6 3.359068 1_455
Th0_2 Th0_6 3.359068 1_555
Th0_2 Th0_4 3.359068 1_565
Th0_2 Th0_4 3.359068 1_455
Th0_3 Zr1_7 3.324694 1_455
Th0_3 Zr0_0 3.324694 1_555
Th0_3 Zr1_3 3.324696 1_555
Th0_3 Zr1_5 3.324696 1_455
Th0_3 Zr0_2 3.324696 1_555
Th0_3 Zr0_4 3.324696 1_455
Th0_3 Th0_7 3.359068 1_455
Th0_3 Th0_7 3.359068 1_555
Th0_3 Th0_5 3.359068 1_565
Th0_3 Th0_5 3.359068 1_455
Th0_4 Zr1_0 3.324694 1_555
Th0_4 Zr0_7 3.324694 1_544
Th0_4 Zr1_4 3.324696 1_555
Th0_4 Zr1_2 3.324696 1_545
Th0_4 Zr0_5 3.324696 1_554
Th0_4 Zr0_3 3.324696 1_544
Th0_4 Th0_6 3.359068 1_555
Th0_4 Th0_6 3.359068 1_545
Th0_5 Zr1_1 3.324694 1_555
Th0_5 Zr0_6 3.324694 1_545
Th0_5 Zr1_5 3.324696 1_555
Th0_5 Zr1_3 3.324696 1_545
Th0_5 Zr0_4 3.324696 1_555
Th0_5 Zr0_2 3.324696 1_545
Th0_5 Th0_7 3.359068 1_555
Th0_5 Th0_7 3.359068 1_545
Th0_6 Zr1_2 3.324694 1_555
Th0_6 Zr0_5 3.324694 1_554
Th0_6 Zr1_6 3.324696 1_555
Th0_6 Zr1_0 3.324696 1_555
Th0_6 Zr0_7 3.324696 1_554
Th0_6 Zr0_1 3.324696 1_554
Th0_7 Zr1_3 3.324694 1_555
Th0_7 Zr0_4 3.324694 1_555
Th0_7 Zr1_7 3.324696 1_555
Th0_7 Zr1_1 3.324696 1_555
Th0_7 Zr0_6 3.324696 1_555
Th0_7 Zr0_0 3.324696 1_555
Zr0_0 Zr1_2 3.223294 1_555
Zr0_0 Zr1_4 3.223294 1_455
Zr0_0 Zr1_0 3.223297 1_555
Zr0_0 Zr0_2 3.359068 1_555
Zr0_0 Zr0_4 3.359068 1_555
Zr0_0 Zr0_2 3.359068 1_545
Zr0_0 Zr0_4 3.359068 1_455
Zr0_0 Zr0_6 3.359068 1_555
Zr0_0 Zr0_6 3.359068 1_445
Zr0_1 Zr1_3 3.223294 1_555
Zr0_1 Zr1_5 3.223294 1_455
Zr0_1 Zr1_1 3.223297 1_555
Zr0_1 Zr0_3 3.359068 1_555
Zr0_1 Zr0_5 3.359068 1_555
Zr0_1 Zr0_5 3.359068 1_455
Zr0_1 Zr0_3 3.359068 1_545
Zr0_1 Zr0_7 3.359068 1_555
Zr0_1 Zr0_7 3.359068 1_445
Zr0_2 Zr1_0 3.223294 1_565
Zr0_2 Zr1_6 3.223294 1_455
Zr0_2 Zr1_2 3.223297 1_555
Zr0_2 Zr0_6 3.359068 1_455
Zr0_2 Zr0_6 3.359068 1_555
Zr0_2 Zr0_4 3.359068 1_455
Zr0_2 Zr0_4 3.359068 1_565
Zr0_3 Zr1_7 3.223294 1_455
Zr0_3 Zr1_1 3.223294 1_565
Zr0_3 Zr1_3 3.223297 1_555
Zr0_3 Zr0_7 3.359068 1_455
Zr0_3 Zr0_7 3.359068 1_555
Zr0_3 Zr0_5 3.359068 1_455
Zr0_3 Zr0_5 3.359068 1_565
Zr0_4 Zr1_0 3.223294 1_555
Zr0_4 Zr1_6 3.223294 1_555
Zr0_4 Zr1_4 3.223297 1_555
Zr0_4 Zr0_6 3.359068 1_555
Zr0_4 Zr0_6 3.359068 1_545
Zr0_5 Zr1_1 3.223294 1_555
Zr0_5 Zr1_7 3.223294 1_555
Zr0_5 Zr1_5 3.223297 1_555
Zr0_5 Zr0_7 3.359068 1_555
Zr0_5 Zr0_7 3.359068 1_545
Zr0_6 Zr1_4 3.223294 1_565
Zr0_6 Zr1_2 3.223294 1_555
Zr0_6 Zr1_6 3.223297 1_555
Zr0_7 Zr1_3 3.223294 1_555
Zr0_7 Zr1_5 3.223294 1_565
Zr0_7 Zr1_7 3.223297 1_555
Zr1_0 Zr1_2 3.359068 1_555
Zr1_0 Zr1_4 3.359068 1_455
Zr1_0 Zr1_4 3.359068 1_555
Zr1_0 Zr1_2 3.359068 1_545
Zr1_0 Zr1_6 3.359068 1_555
Zr1_0 Zr1_6 3.359068 1_445
Zr1_1 Zr1_3 3.359068 1_555
Zr1_1 Zr1_5 3.359068 1_455
Zr1_1 Zr1_5 3.359068 1_555
Zr1_1 Zr1_3 3.359068 1_545
Zr1_1 Zr1_7 3.359068 1_445
Zr1_1 Zr1_7 3.359068 1_555
Zr1_2 Zr1_6 3.359068 1_555
Zr1_2 Zr1_6 3.359068 1_455
Zr1_2 Zr1_4 3.359068 1_455
Zr1_2 Zr1_4 3.359068 1_565
Zr1_3 Zr1_7 3.359068 1_555
Zr1_3 Zr1_7 3.359068 1_455
Zr1_3 Zr1_5 3.359068 1_455
Zr1_3 Zr1_5 3.359068 1_565
Zr1_4 Zr1_6 3.359068 1_545
Zr1_4 Zr1_6 3.359068 1_555
Zr1_5 Zr1_7 3.359068 1_545
Zr1_5 Zr1_7 3.359068 1_555
