# generated using pymatgen
data_YB4W3
_symmetry_space_group_name_H-M   'P 1'
_cell_length_a   3.12864900
_cell_length_b   3.23020500
_cell_length_c   9.45171800
_cell_angle_alpha   90.00000000
_cell_angle_beta   90.00000000
_cell_angle_gamma   90.00000000
_symmetry_Int_Tables_number   1
_chemical_formula_structural   YB4W3
_chemical_formula_sum   'Y1 B4 W3'
_cell_volume   95.52074114
_cell_formula_units_Z   1
loop_
 _symmetry_equiv_pos_site_id
 _symmetry_equiv_pos_as_xyz
  1  'x, y, z'
loop_
 _atom_site_type_symbol
 _atom_site_label
 _atom_site_symmetry_multiplicity
 _atom_site_fract_x
 _atom_site_fract_y
 _atom_site_fract_z
 _atom_site_occupancy
  Y  Y0  1  0.25000000  0.00000000  0.15024300  1
  B  B0  1  0.25000000  0.00000000  0.46207000  1
  B  B1  1  0.25000000  0.50000000  0.91870700  1
  B  B2  1  0.75000000  0.50000000  0.00487300  1
  B  B3  1  0.75000000  0.00000000  0.57386400  1
  W  W0  1  0.25000000  0.50000000  0.65264300  1
  W  W1  1  0.75000000  0.50000000  0.39837400  1
  W  W2  1  0.75000000  0.00000000  0.83922600  1
loop_
_geom_bond_atom_site_label_1
_geom_bond_atom_site_label_2
_geom_bond_distance
_geom_bond_site_symmetry_2
B0 B3 1.887753 1_455
B0 B3 1.887753 1_555
B0 W1 2.327685 1_545
B0 W1 2.327685 1_445
B0 W1 2.327685 1_555
B0 W1 2.327685 1_455
B0 W0 2.419304 1_545
B0 W0 2.419304 1_555
B0 Y0 2.947301 1_555
B1 B2 1.763629 1_456
B1 B2 1.763629 1_556
B1 W2 2.370657 1_555
B1 W2 2.370657 1_465
B1 W2 2.370657 1_565
B1 W2 2.370657 1_455
B1 W0 2.514762 1_555
B1 Y0 2.719873 1_556
B1 Y0 2.719873 1_566
B2 W2 2.249403 1_564
B2 W2 2.249403 1_554
B2 Y0 2.635058 1_555
B2 Y0 2.635058 1_565
B2 Y0 2.635058 1_665
B2 Y0 2.635058 1_655
B3 W1 2.315120 1_545
B3 W1 2.315120 1_555
B3 W0 2.368563 1_555
B3 W0 2.368563 1_545
B3 W0 2.368563 1_655
B3 W0 2.368563 1_645
B3 W2 2.508127 1_555
W1 Y0 3.248989 1_565
W1 Y0 3.248989 1_665
W1 Y0 3.248989 1_655
W1 Y0 3.248989 1_555
