# generated using pymatgen
data_Mg(B3O8)2
_symmetry_space_group_name_H-M   'P 1'
_cell_length_a   9.95677625
_cell_length_b   10.89260484
_cell_length_c   10.92902712
_cell_angle_alpha   90.53578425
_cell_angle_beta   90.00000000
_cell_angle_gamma   90.00000000
_symmetry_Int_Tables_number   1
_chemical_formula_structural   Mg(B3O8)2
_chemical_formula_sum   'Mg4 B24 O64'
_cell_volume   1185.25831657
_cell_formula_units_Z   4
loop_
 _symmetry_equiv_pos_site_id
 _symmetry_equiv_pos_as_xyz
  1  'x, y, z'
loop_
 _atom_site_type_symbol
 _atom_site_label
 _atom_site_symmetry_multiplicity
 _atom_site_fract_x
 _atom_site_fract_y
 _atom_site_fract_z
 _atom_site_occupancy
  Mg  Mg0  1  0.50000000  0.00000000  0.50000000  1
  Mg  Mg1  1  -0.00000000  0.50000000  0.50000000  1
  Mg  Mg2  1  0.50000000  0.50000000  0.00000000  1
  Mg  Mg3  1  -0.00000000  0.00000000  0.00000000  1
  B  B0  1  0.61558946  0.20529623  0.71189674  1
  B  B1  1  0.11558946  0.29470377  0.28810326  1
  B  B2  1  0.38441054  0.79470377  0.28810326  1
  B  B3  1  0.88441054  0.70529623  0.71189674  1
  B  B4  1  0.39261016  0.26759322  0.61718769  1
  B  B5  1  0.89261016  0.23240678  0.38281231  1
  B  B6  1  0.60738984  0.73240678  0.38281231  1
  B  B7  1  0.10738984  0.76759322  0.61718769  1
  B  B8  1  0.40379145  0.09872981  0.77600786  1
  B  B9  1  0.90379145  0.40127019  0.22399214  1
  B  B10  1  0.59620855  0.90127019  0.22399214  1
  B  B11  1  0.09620855  0.59872981  0.77600786  1
  B  B12  1  0.59722987  0.39299305  0.59309498  1
  B  B13  1  0.09722987  0.10700695  0.40690502  1
  B  B14  1  0.40277013  0.60700695  0.40690502  1
  B  B15  1  0.90277013  0.89299305  0.59309498  1
  B  B16  1  0.60123898  0.10355798  0.91036745  1
  B  B17  1  0.10123898  0.39644202  0.08963255  1
  B  B18  1  0.39876102  0.89644202  0.08963255  1
  B  B19  1  0.89876102  0.60355798  0.91036745  1
  B  B20  1  0.19665871  0.19943534  0.72321292  1
  B  B21  1  0.69665871  0.30056466  0.27678708  1
  B  B22  1  0.80334129  0.80056466  0.27678708  1
  B  B23  1  0.30334129  0.69943534  0.72321292  1
  O  O0  1  0.61784331  0.10973723  0.61375189  1
  O  O1  1  0.11784331  0.39026277  0.38624811  1
  O  O2  1  0.38215669  0.89026277  0.38624811  1
  O  O3  1  0.88215669  0.60973723  0.61375189  1
  O  O4  1  0.41531289  0.16752094  0.52824898  1
  O  O5  1  0.91531289  0.33247906  0.47175102  1
  O  O6  1  0.58468711  0.83247906  0.47175102  1
  O  O7  1  0.08468711  0.66752094  0.52824898  1
  O  O8  1  0.43196503  0.01280446  0.67529981  1
  O  O9  1  0.93196503  0.48719554  0.32470019  1
  O  O10  1  0.56803497  0.98719554  0.32470019  1
  O  O11  1  0.06803497  0.51280446  0.67529981  1
  O  O12  1  0.67037088  0.48086160  0.53385693  1
  O  O13  1  0.17037088  0.01913840  0.46614307  1
  O  O14  1  0.32962912  0.51913840  0.46614307  1
  O  O15  1  0.82962912  0.98086160  0.53385693  1
  O  O16  1  0.65562353  0.09660892  0.02653051  1
  O  O17  1  0.15562353  0.40339108  0.97346949  1
  O  O18  1  0.34437647  0.90339108  0.97346949  1
  O  O19  1  0.84437647  0.59660892  0.02653051  1
  O  O20  1  0.04737727  0.20659423  0.73300019  1
  O  O21  1  0.54737727  0.29340577  0.26699981  1
  O  O22  1  0.95262273  0.79340577  0.26699981  1
  O  O23  1  0.45262273  0.70659423  0.73300019  1
  O  O24  1  0.38756944  0.38826055  0.89009147  1
  O  O25  1  0.88756944  0.11173945  0.10990853  1
  O  O26  1  0.61243056  0.61173945  0.10990853  1
  O  O27  1  0.11243056  0.88826055  0.89009147  1
  O  O28  1  0.66148138  0.39189574  0.00777389  1
  O  O29  1  0.16148138  0.10810426  0.99222611  1
  O  O30  1  0.33851862  0.60810426  0.99222611  1
  O  O31  1  0.83851862  0.89189574  0.00777389  1
  O  O32  1  0.51098475  0.64899675  0.82305252  1
  O  O33  1  0.01098475  0.85100325  0.17694748  1
  O  O34  1  0.48901525  0.35100325  0.17694748  1
  O  O35  1  0.98901525  0.14899675  0.82305252  1
  O  O36  1  0.46285349  0.22267380  0.73529197  1
  O  O37  1  0.96285349  0.27732620  0.26470803  1
  O  O38  1  0.53714651  0.77732620  0.26470803  1
  O  O39  1  0.03714651  0.72267380  0.73529197  1
  O  O40  1  0.67720956  0.15966247  0.82202683  1
  O  O41  1  0.17720956  0.34033753  0.17797317  1
  O  O42  1  0.32279044  0.84033753  0.17797317  1
  O  O43  1  0.82279044  0.65966247  0.82202683  1
  O  O44  1  0.67091541  0.31800108  0.66900294  1
  O  O45  1  0.17091541  0.18199892  0.33099706  1
  O  O46  1  0.32908459  0.68199892  0.33099706  1
  O  O47  1  0.82908459  0.81800108  0.66900294  1
  O  O48  1  0.45980053  0.37842429  0.57834900  1
  O  O49  1  0.95980053  0.12157571  0.42165100  1
  O  O50  1  0.54019947  0.62157571  0.42165100  1
  O  O51  1  0.04019947  0.87842429  0.57834900  1
  O  O52  1  0.24883213  0.27845706  0.64288845  1
  O  O53  1  0.74883213  0.22154294  0.35711155  1
  O  O54  1  0.75116787  0.72154294  0.35711155  1
  O  O55  1  0.25116787  0.77845706  0.64288845  1
  O  O56  1  0.47074564  0.06596938  0.88801843  1
  O  O57  1  0.97074564  0.43403062  0.11198157  1
  O  O58  1  0.52925436  0.93403062  0.11198157  1
  O  O59  1  0.02925436  0.56596938  0.88801843  1
  O  O60  1  0.25879459  0.11250822  0.78875696  1
  O  O61  1  0.75879459  0.38749178  0.21124304  1
  O  O62  1  0.74120541  0.88749178  0.21124304  1
  O  O63  1  0.24120541  0.61250822  0.78875696  1
loop_
_geom_bond_atom_site_label_1
_geom_bond_atom_site_label_2
_geom_bond_distance
_geom_bond_site_symmetry_2
Mg0 O6 2.031122 1_545
Mg0 O4 2.031122 1_555
Mg0 O8 2.035643 1_555
Mg0 O10 2.035643 1_545
Mg0 O2 2.079248 1_545
Mg0 O0 2.079248 1_555
Mg1 O7 2.031122 1_555
Mg1 O5 2.031122 1_455
Mg1 O11 2.035643 1_555
Mg1 O9 2.035643 1_455
Mg1 O3 2.079248 1_455
Mg1 O1 2.079248 1_555
Mg2 O30 1.995197 1_554
Mg2 O28 1.995197 1_555
Mg2 O26 2.037178 1_555
Mg2 O24 2.037178 1_554
Mg2 O34 2.538602 1_555
Mg2 O32 2.538602 1_554
Mg3 O31 1.995197 1_445
Mg3 O29 1.995197 1_554
Mg3 O27 2.037178 1_544
Mg3 O25 2.037178 1_455
Mg3 O33 2.538602 1_545
Mg3 O35 2.538602 1_454
B0 O44 1.428672 1_555
B0 O40 1.443394 1_555
B0 O0 1.487816 1_555
B0 O36 1.553385 1_555
B1 O45 1.428672 1_555
B1 O41 1.443394 1_555
B1 O1 1.487816 1_555
B1 O37 1.553385 1_455
B2 O46 1.428672 1_555
B2 O42 1.443394 1_555
B2 O2 1.487816 1_555
B2 O38 1.553385 1_555
B3 O47 1.428672 1_555
B3 O43 1.443394 1_555
B3 O3 1.487816 1_555
B3 O39 1.553385 1_655
B4 O48 1.447323 1_555
B4 O52 1.463440 1_555
B4 O4 1.471155 1_555
B4 O36 1.551272 1_555
B5 O49 1.447323 1_555
B5 O53 1.463440 1_555
B5 O5 1.471155 1_555
B5 O37 1.551272 1_555
B6 O50 1.447323 1_555
B6 O54 1.463440 1_555
B6 O6 1.471155 1_555
B6 O38 1.551272 1_555
B7 O51 1.447323 1_555
B7 O55 1.463440 1_555
B7 O7 1.471155 1_555
B7 O39 1.551272 1_555
B8 O56 1.441705 1_555
B8 O60 1.458020 1_555
B8 O8 1.465210 1_555
B8 O36 1.542001 1_555
B9 O57 1.441705 1_555
B9 O61 1.458020 1_555
B9 O9 1.465210 1_555
B9 O37 1.542001 1_555
B10 O58 1.441705 1_555
B10 O62 1.458020 1_555
B10 O10 1.465210 1_555
B10 O38 1.542001 1_555
B11 O59 1.441705 1_555
B11 O63 1.458020 1_555
B11 O11 1.465210 1_555
B11 O39 1.542001 1_555
B12 O12 1.370093 1_555
B12 O44 1.380739 1_555
B12 O48 1.386747 1_555
B13 O13 1.370093 1_555
B13 O45 1.380739 1_555
B13 O49 1.386747 1_455
B14 O14 1.370093 1_555
B14 O46 1.380739 1_555
B14 O50 1.386747 1_555
B15 O15 1.370093 1_555
B15 O47 1.380739 1_555
B15 O51 1.386747 1_655
B16 O40 1.374346 1_555
B16 O16 1.382931 1_556
B16 O56 1.383326 1_555
B17 O41 1.374346 1_555
B17 O17 1.382931 1_554
B17 O57 1.383326 1_455
B18 O42 1.374346 1_555
B18 O18 1.382931 1_554
B18 O58 1.383326 1_555
B19 O43 1.374346 1_555
B19 O19 1.382931 1_556
B19 O59 1.383326 1_655
B20 O52 1.339977 1_555
B20 O60 1.343549 1_555
B20 O20 1.492192 1_555
B21 O53 1.339977 1_555
B21 O61 1.343549 1_555
B21 O21 1.492192 1_555
B22 O54 1.339977 1_555
B22 O62 1.343549 1_555
B22 O22 1.492192 1_555
B23 O55 1.339977 1_555
B23 O63 1.343549 1_555
B23 O23 1.492192 1_555
O20 O35 1.308226 1_455
O21 O34 1.308226 1_555
O22 O33 1.308226 1_655
O23 O32 1.308226 1_555
