# generated using pymatgen
data_SbN2Cl3F2
_symmetry_space_group_name_H-M   'P 1'
_cell_length_a   7.95677300
_cell_length_b   16.09442000
_cell_length_c   17.89760441
_cell_angle_alpha   58.02660688
_cell_angle_beta   90.00000000
_cell_angle_gamma   90.00000000
_symmetry_Int_Tables_number   1
_chemical_formula_structural   SbN2Cl3F2
_chemical_formula_sum   'Sb8 N16 Cl24 F16'
_cell_volume   1944.25687503
_cell_formula_units_Z   8
loop_
 _symmetry_equiv_pos_site_id
 _symmetry_equiv_pos_as_xyz
  1  'x, y, z'
loop_
 _atom_site_type_symbol
 _atom_site_label
 _atom_site_symmetry_multiplicity
 _atom_site_fract_x
 _atom_site_fract_y
 _atom_site_fract_z
 _atom_site_occupancy
  Sb  Sb0  1  0.85753600  0.54003800  0.13325800  1
  Sb  Sb1  1  0.35753600  0.45996200  0.36674200  1
  Sb  Sb2  1  0.14246400  0.45996200  0.86674200  1
  Sb  Sb3  1  0.64246400  0.54003800  0.63325800  1
  Sb  Sb4  1  0.84777500  0.97374900  0.16443100  1
  Sb  Sb5  1  0.34777500  0.02625100  0.33556900  1
  Sb  Sb6  1  0.15222500  0.02625100  0.83556900  1
  Sb  Sb7  1  0.65222500  0.97374900  0.66443100  1
  N  N0  1  0.73179300  0.64886500  0.36888100  1
  N  N1  1  0.23179300  0.35113500  0.13111900  1
  N  N2  1  0.26820700  0.35113500  0.63111900  1
  N  N3  1  0.76820700  0.64886500  0.86888100  1
  N  N4  1  0.78026000  0.20440100  0.28740500  1
  N  N5  1  0.28026000  0.79559900  0.21259500  1
  N  N6  1  0.21974000  0.79559900  0.71259500  1
  N  N7  1  0.71974000  0.20440100  0.78740500  1
  N  N8  1  0.81244100  0.30858500  0.49207200  1
  N  N9  1  0.31244100  0.69141500  0.00792800  1
  N  N10  1  0.18755900  0.69141500  0.50792800  1
  N  N11  1  0.68755900  0.30858500  0.99207200  1
  N  N12  1  0.74613200  0.86117300  0.00979800  1
  N  N13  1  0.24613200  0.13882700  0.49020200  1
  N  N14  1  0.25386800  0.13882700  0.99020200  1
  N  N15  1  0.75386800  0.86117300  0.50979800  1
  Cl  Cl0  1  0.95078700  0.40859200  0.27166300  1
  Cl  Cl1  1  0.45078700  0.59140800  0.22833700  1
  Cl  Cl2  1  0.04921300  0.59140800  0.72833700  1
  Cl  Cl3  1  0.54921300  0.40859200  0.77166300  1
  Cl  Cl4  1  0.94119600  0.65091400  0.17212100  1
  Cl  Cl5  1  0.44119600  0.34908600  0.32787900  1
  Cl  Cl6  1  0.05880400  0.34908600  0.82787900  1
  Cl  Cl7  1  0.55880400  0.65091400  0.67212100  1
  Cl  Cl8  1  0.67340200  0.43592600  0.12090400  1
  Cl  Cl9  1  0.17340200  0.56407400  0.37909600  1
  Cl  Cl10  1  0.32659800  0.56407400  0.87909600  1
  Cl  Cl11  1  0.82659800  0.43592600  0.62090400  1
  Cl  Cl12  1  0.93005900  0.11371200  0.16578600  1
  Cl  Cl13  1  0.43005900  0.88628800  0.33421400  1
  Cl  Cl14  1  0.06994100  0.88628800  0.83421400  1
  Cl  Cl15  1  0.56994100  0.11371200  0.66578600  1
  Cl  Cl16  1  0.82262400  0.06886500  0.54241200  1
  Cl  Cl17  1  0.32262400  0.93113500  0.95758800  1
  Cl  Cl18  1  0.17737600  0.93113500  0.45758800  1
  Cl  Cl19  1  0.67737600  0.06886500  0.04241200  1
  Cl  Cl20  1  0.92610800  0.87520400  0.31230500  1
  Cl  Cl21  1  0.42610800  0.12479600  0.18769500  1
  Cl  Cl22  1  0.07389200  0.12479600  0.68769500  1
  Cl  Cl23  1  0.57389200  0.87520400  0.81230500  1
  F  F0  1  0.53737900  0.45161500  0.43924900  1
  F  F1  1  0.03737900  0.54838500  0.06075100  1
  F  F2  1  0.46262100  0.54838500  0.56075100  1
  F  F3  1  0.96262100  0.45161500  0.93924900  1
  F  F4  1  0.72240000  0.64507200  0.04512300  1
  F  F5  1  0.22240000  0.35492800  0.45487700  1
  F  F6  1  0.27760000  0.35492800  0.95487700  1
  F  F7  1  0.77760000  0.64507200  0.54512300  1
  F  F8  1  0.53506300  0.04562900  0.38933200  1
  F  F9  1  0.03506300  0.95437100  0.11066800  1
  F  F10  1  0.46493700  0.95437100  0.61066800  1
  F  F11  1  0.96493700  0.04562900  0.88933200  1
  F  F12  1  0.71357700  0.86420900  0.18535300  1
  F  F13  1  0.21357700  0.13579100  0.31464700  1
  F  F14  1  0.28642300  0.13579100  0.81464700  1
  F  F15  1  0.78642300  0.86420900  0.68535300  1
loop_
_geom_bond_atom_site_label_1
_geom_bond_atom_site_label_2
_geom_bond_distance
_geom_bond_site_symmetry_2
Cl0 Sb0 2.369023 1_555
Cl1 Sb1 2.369023 1_555
Cl2 Sb2 2.369023 1_555
Cl3 Sb3 2.369023 1_555
Cl4 Sb0 2.329333 1_555
Cl5 Sb1 2.329333 1_555
Cl6 Sb2 2.329333 1_555
Cl7 Sb3 2.329333 1_555
Cl8 Sb0 2.322826 1_555
Cl9 Sb1 2.322826 1_555
Cl10 Sb2 2.322826 1_555
Cl11 Sb3 2.322826 1_555
Cl12 Sb4 2.358263 1_545
Cl13 Sb5 2.358263 1_565
Cl14 Sb6 2.358263 1_565
Cl15 Sb7 2.358263 1_545
Cl16 Sb7 2.326024 1_545
Cl17 Sb6 2.326024 1_565
Cl18 Sb5 2.326024 1_565
Cl19 Sb4 2.326024 1_545
Cl20 Sb4 2.337298 1_555
Cl21 Sb5 2.337298 1_555
Cl22 Sb6 2.337298 1_555
Cl23 Sb7 2.337298 1_555
F0 Sb1 1.888154 1_555
F1 Sb0 1.888154 1_455
F2 Sb3 1.888154 1_555
F3 Sb2 1.888154 1_655
F4 Sb0 1.917816 1_555
F5 Sb1 1.917816 1_555
F6 Sb2 1.917816 1_555
F7 Sb3 1.917816 1_555
F8 Sb5 1.887244 1_555
F9 Sb4 1.887244 1_455
F10 Sb7 1.887244 1_555
F11 Sb6 1.887244 1_655
F12 Sb4 1.920767 1_555
F13 Sb5 1.920767 1_555
F14 Sb6 1.920767 1_555
F15 Sb7 1.920767 1_555
