# generated using pymatgen
data_BaSrI4
_symmetry_space_group_name_H-M   'P 1'
_cell_length_a   10.26861000
_cell_length_b   11.21715500
_cell_length_c   11.21841200
_cell_angle_alpha   90.00000000
_cell_angle_beta   90.00000000
_cell_angle_gamma   90.00000000
_symmetry_Int_Tables_number   1
_chemical_formula_structural   BaSrI4
_chemical_formula_sum   'Ba4 Sr4 I16'
_cell_volume   1292.18818672
_cell_formula_units_Z   4
loop_
 _symmetry_equiv_pos_site_id
 _symmetry_equiv_pos_as_xyz
  1  'x, y, z'
loop_
 _atom_site_type_symbol
 _atom_site_label
 _atom_site_symmetry_multiplicity
 _atom_site_fract_x
 _atom_site_fract_y
 _atom_site_fract_z
 _atom_site_occupancy
  Ba  Ba0  1  0.23426400  0.24897100  0.25000000  1
  Ba  Ba1  1  0.26573600  0.74897100  0.75000000  1
  Ba  Ba2  1  0.73426400  0.25102900  0.25000000  1
  Ba  Ba3  1  0.76573600  0.75102900  0.75000000  1
  Sr  Sr0  1  0.01038200  0.75926600  0.25000000  1
  Sr  Sr1  1  0.48961800  0.25926600  0.75000000  1
  Sr  Sr2  1  0.51038200  0.74073400  0.25000000  1
  Sr  Sr3  1  0.98961800  0.24073400  0.75000000  1
  I  I0  1  0.01497300  0.76864600  0.95528700  1
  I  I1  1  0.01497300  0.76864600  0.54471300  1
  I  I2  1  0.23074500  0.43915200  0.75000000  1
  I  I3  1  0.25069100  0.56033500  0.25000000  1
  I  I4  1  0.24930900  0.06033500  0.75000000  1
  I  I5  1  0.26925500  0.93915200  0.25000000  1
  I  I6  1  0.48502700  0.26864600  0.04471300  1
  I  I7  1  0.48502700  0.26864600  0.45528700  1
  I  I8  1  0.51497300  0.73135400  0.95528700  1
  I  I9  1  0.51497300  0.73135400  0.54471300  1
  I  I10  1  0.73074500  0.06084800  0.75000000  1
  I  I11  1  0.75069100  0.93966500  0.25000000  1
  I  I12  1  0.74930900  0.43966500  0.75000000  1
  I  I13  1  0.76925500  0.56084800  0.25000000  1
  I  I14  1  0.98502700  0.23135400  0.45528700  1
  I  I15  1  0.98502700  0.23135400  0.04471300  1
loop_
_geom_bond_atom_site_label_1
_geom_bond_atom_site_label_2
_geom_bond_distance
_geom_bond_site_symmetry_2
Ba0 I14 3.448614 1_455
Ba0 I15 3.448614 1_455
Ba0 I7 3.461654 1_555
Ba0 I6 3.461654 1_555
Ba0 I5 3.493813 1_545
Ba0 I3 3.496689 1_555
Ba1 I8 3.448614 1_555
Ba1 I9 3.448614 1_555
Ba1 I0 3.461654 1_555
Ba1 I1 3.461654 1_555
Ba1 I2 3.493813 1_555
Ba1 I4 3.496689 1_565
Ba2 I7 3.448614 1_555
Ba2 I6 3.448614 1_555
Ba2 I14 3.461654 1_555
Ba2 I15 3.461654 1_555
Ba2 I13 3.493813 1_555
Ba2 I11 3.496689 1_545
Ba3 I0 3.448614 1_655
Ba3 I1 3.448614 1_655
Ba3 I9 3.461654 1_555
Ba3 I8 3.461654 1_555
Ba3 I10 3.493813 1_565
Ba3 I12 3.496689 1_555
I0 Sr0 3.308222 1_556
I1 Sr0 3.308222 1_555
I2 Sr3 3.329331 1_455
I2 Sr1 3.337354 1_555
I3 Sr0 3.326946 1_555
I3 Sr2 3.347524 1_555
I4 Sr1 3.326946 1_555
I4 Sr3 3.347524 1_455
I5 Sr2 3.329331 1_555
I5 Sr0 3.337354 1_555
I6 Sr1 3.308222 1_554
I7 Sr1 3.308222 1_555
I8 Sr2 3.308222 1_556
I9 Sr2 3.308222 1_555
I10 Sr1 3.329331 1_555
I10 Sr3 3.337354 1_555
I11 Sr2 3.326946 1_555
I11 Sr0 3.347524 1_655
I12 Sr3 3.326946 1_555
I12 Sr1 3.347524 1_555
I13 Sr0 3.329331 1_655
I13 Sr2 3.337354 1_555
I14 Sr3 3.308222 1_555
I15 Sr3 3.308222 1_554
