# generated using pymatgen
data_Cu3P4(SBr)3
_symmetry_space_group_name_H-M   'P 1'
_cell_length_a   6.65795200
_cell_length_b   9.93680400
_cell_length_c   18.88676800
_cell_angle_alpha   90.00000000
_cell_angle_beta   90.00000000
_cell_angle_gamma   90.00000000
_symmetry_Int_Tables_number   1
_chemical_formula_structural   Cu3P4(SBr)3
_chemical_formula_sum   'Cu12 P16 S12 Br12'
_cell_volume   1249.52522807
_cell_formula_units_Z   4
loop_
 _symmetry_equiv_pos_site_id
 _symmetry_equiv_pos_as_xyz
  1  'x, y, z'
loop_
 _atom_site_type_symbol
 _atom_site_label
 _atom_site_symmetry_multiplicity
 _atom_site_fract_x
 _atom_site_fract_y
 _atom_site_fract_z
 _atom_site_occupancy
  Cu  Cu0  1  0.00014000  0.25000000  0.63343500  1
  Cu  Cu1  1  0.49986000  0.25000000  0.13343500  1
  Cu  Cu2  1  0.99986000  0.75000000  0.36656500  1
  Cu  Cu3  1  0.50014000  0.75000000  0.86656500  1
  Cu  Cu4  1  0.50870700  0.51903200  0.31682100  1
  Cu  Cu5  1  0.99129300  0.98096800  0.81682100  1
  Cu  Cu6  1  0.49129300  0.01903200  0.68317900  1
  Cu  Cu7  1  0.00870700  0.48096800  0.18317900  1
  Cu  Cu8  1  0.49129300  0.48096800  0.68317900  1
  Cu  Cu9  1  0.00870700  0.01903200  0.18317900  1
  Cu  Cu10  1  0.50870700  0.98096800  0.31682100  1
  Cu  Cu11  1  0.99129300  0.51903200  0.81682100  1
  P  P0  1  0.90304800  0.25000000  0.52203500  1
  P  P1  1  0.59695200  0.25000000  0.02203500  1
  P  P2  1  0.09695200  0.75000000  0.47796500  1
  P  P3  1  0.40304800  0.75000000  0.97796500  1
  P  P4  1  0.65133500  0.36558400  0.38625200  1
  P  P5  1  0.84866500  0.13441600  0.88625200  1
  P  P6  1  0.34866500  0.86558400  0.61374800  1
  P  P7  1  0.15133500  0.63441600  0.11374800  1
  P  P8  1  0.34866500  0.63441600  0.61374800  1
  P  P9  1  0.15133500  0.86558400  0.11374800  1
  P  P10  1  0.65133500  0.13441600  0.38625200  1
  P  P11  1  0.84866500  0.36558400  0.88625200  1
  P  P12  1  0.92231000  0.25000000  0.34802700  1
  P  P13  1  0.57769000  0.25000000  0.84802700  1
  P  P14  1  0.07769000  0.75000000  0.65197300  1
  P  P15  1  0.42231000  0.75000000  0.15197300  1
  S  S0  1  0.11193300  0.25000000  0.43676400  1
  S  S1  1  0.38806700  0.25000000  0.93676400  1
  S  S2  1  0.88806700  0.75000000  0.56323600  1
  S  S3  1  0.61193300  0.75000000  0.06323600  1
  S  S4  1  0.71813800  0.41402800  0.49201500  1
  S  S5  1  0.78186200  0.08597200  0.99201500  1
  S  S6  1  0.28186200  0.91402800  0.50798500  1
  S  S7  1  0.21813800  0.58597200  0.00798500  1
  S  S8  1  0.28186200  0.58597200  0.50798500  1
  S  S9  1  0.21813800  0.91402800  0.00798500  1
  S  S10  1  0.71813800  0.08597200  0.49201500  1
  S  S11  1  0.78186200  0.41402800  0.99201500  1
  Br  Br0  1  0.85978800  0.45287800  0.69560200  1
  Br  Br1  1  0.64021200  0.04712200  0.19560200  1
  Br  Br2  1  0.14021200  0.95287800  0.30439800  1
  Br  Br3  1  0.35978800  0.54712200  0.80439800  1
  Br  Br4  1  0.14021200  0.54712200  0.30439800  1
  Br  Br5  1  0.35978800  0.95287800  0.80439800  1
  Br  Br6  1  0.85978800  0.04712200  0.69560200  1
  Br  Br7  1  0.64021200  0.45287800  0.19560200  1
  Br  Br8  1  0.63287300  0.75000000  0.35045800  1
  Br  Br9  1  0.86712700  0.75000000  0.85045800  1
  Br  Br10  1  0.36712700  0.25000000  0.64954200  1
  Br  Br11  1  0.13287300  0.25000000  0.14954200  1
loop_
_geom_bond_atom_site_label_1
_geom_bond_atom_site_label_2
_geom_bond_distance
_geom_bond_site_symmetry_2
Cu0 P0 2.201053 1_455
Cu1 P1 2.201053 1_555
Cu2 P2 2.201053 1_655
Cu3 P3 2.201053 1_555
Cu4 P4 2.224028 1_555
Cu5 P5 2.224028 1_565
Cu6 P6 2.224028 1_545
Cu7 P7 2.224028 1_555
Cu8 P8 2.224028 1_555
Cu9 P9 2.224028 1_545
Cu10 P10 2.224028 1_565
Cu11 P11 2.224028 1_555
P0 S4 2.119846 1_555
P0 S10 2.119846 1_555
P0 S0 2.127878 1_655
P1 S11 2.119846 1_554
P1 S5 2.119846 1_554
P1 S1 2.127878 1_554
P2 S6 2.119846 1_555
P2 S8 2.119846 1_555
P2 S2 2.127878 1_455
P3 S9 2.119846 1_556
P3 S7 2.119846 1_556
P3 S3 2.127878 1_556
P4 S4 2.102293 1_555
P5 S5 2.102293 1_555
P6 S6 2.102293 1_555
P6 P8 2.297071 1_555
P7 S7 2.102293 1_555
P7 P9 2.297071 1_555
P8 S8 2.102293 1_555
P9 S9 2.102293 1_555
P10 S10 2.102293 1_555
P10 P12 2.257268 1_555
P10 P4 2.297071 1_555
P11 S11 2.102293 1_555
P11 P13 2.257268 1_555
P11 P5 2.297071 1_555
P12 S0 2.098269 1_655
P12 P4 2.257268 1_555
P13 S1 2.098269 1_555
P13 P5 2.257268 1_555
P14 S2 2.098269 1_455
P14 P6 2.257268 1_555
P14 P8 2.257268 1_555
P15 S3 2.098269 1_555
P15 P9 2.257268 1_555
P15 P7 2.257268 1_555
Br0 Cu8 2.480371 1_555
Br0 Cu0 2.513143 1_655
Br0 Cu11 2.537761 1_555
Br1 Cu9 2.480371 1_655
Br1 Cu1 2.513143 1_555
Br1 Cu10 2.537761 1_545
Br2 Cu10 2.480371 1_555
Br2 Cu2 2.513143 1_455
Br2 Cu9 2.537761 1_565
Br3 Cu11 2.480371 1_455
Br3 Cu3 2.513143 1_555
Br3 Cu8 2.537761 1_555
Br4 Cu4 2.480371 1_555
Br4 Cu2 2.513143 1_455
Br4 Cu7 2.537761 1_555
Br5 Cu5 2.480371 1_455
Br5 Cu3 2.513143 1_555
Br5 Cu6 2.537761 1_565
Br6 Cu6 2.480371 1_555
Br6 Cu0 2.513143 1_655
Br6 Cu5 2.537761 1_545
Br7 Cu7 2.480371 1_655
Br7 Cu1 2.513143 1_555
Br7 Cu4 2.537761 1_555
Br8 Cu2 2.462247 1_555
Br8 Cu10 2.520799 1_555
Br8 Cu4 2.520799 1_555
Br9 Cu3 2.462247 1_555
Br9 Cu5 2.520799 1_555
Br9 Cu11 2.520799 1_555
Br10 Cu0 2.462247 1_555
Br10 Cu8 2.520799 1_555
Br10 Cu6 2.520799 1_555
Br11 Cu1 2.462247 1_555
Br11 Cu7 2.520799 1_555
Br11 Cu9 2.520799 1_555
