# generated using pymatgen
data_KC4(OF)2
_symmetry_space_group_name_H-M   'P 1'
_cell_length_a   10.84945800
_cell_length_b   7.16727700
_cell_length_c   7.17851512
_cell_angle_alpha   68.04998958
_cell_angle_beta   90.00000000
_cell_angle_gamma   90.00000000
_symmetry_Int_Tables_number   1
_chemical_formula_structural   KC4(OF)2
_chemical_formula_sum   'K4 C16 O8 F8'
_cell_volume   517.74464017
_cell_formula_units_Z   4
loop_
 _symmetry_equiv_pos_site_id
 _symmetry_equiv_pos_as_xyz
  1  'x, y, z'
loop_
 _atom_site_type_symbol
 _atom_site_label
 _atom_site_symmetry_multiplicity
 _atom_site_fract_x
 _atom_site_fract_y
 _atom_site_fract_z
 _atom_site_occupancy
  K  K0  1  0.88599900  0.76411100  0.03035400  1
  K  K1  1  0.11400100  0.23588900  0.96964600  1
  K  K2  1  0.88599900  0.23588900  0.46964600  1
  K  K3  1  0.11400100  0.76411100  0.53035400  1
  C  C0  1  0.70435400  0.59434000  0.66982400  1
  C  C1  1  0.29564600  0.40566000  0.33017600  1
  C  C2  1  0.70435400  0.40566000  0.83017600  1
  C  C3  1  0.29564600  0.59434000  0.16982400  1
  C  C4  1  0.47965700  0.59496200  0.67309200  1
  C  C5  1  0.52034300  0.40503800  0.32690800  1
  C  C6  1  0.47965700  0.40503800  0.82690800  1
  C  C7  1  0.52034300  0.59496200  0.17309200  1
  C  C8  1  0.59200500  0.68646700  0.59638200  1
  C  C9  1  0.40799500  0.31353300  0.40361800  1
  C  C10  1  0.59200500  0.31353300  0.90361800  1
  C  C11  1  0.40799500  0.68646700  0.09638200  1
  C  C12  1  0.82391200  0.69728900  0.56997300  1
  C  C13  1  0.17608800  0.30271100  0.43002700  1
  C  C14  1  0.82391200  0.30271100  0.93002700  1
  C  C15  1  0.17608800  0.69728900  0.06997300  1
  O  O0  1  0.86648800  0.83325200  0.62480700  1
  O  O1  1  0.13351200  0.16674800  0.37519300  1
  O  O2  1  0.86648800  0.16674800  0.87519300  1
  O  O3  1  0.13351200  0.83325200  0.12480700  1
  O  O4  1  0.87100500  0.36439900  0.05770100  1
  O  O5  1  0.12899500  0.63560100  0.94229900  1
  O  O6  1  0.87100500  0.63560100  0.44229900  1
  O  O7  1  0.12899500  0.36439900  0.55770100  1
  F  F0  1  0.41077600  0.86791900  0.94191800  1
  F  F1  1  0.58922400  0.13208100  0.05808200  1
  F  F2  1  0.41077600  0.13208100  0.55808200  1
  F  F3  1  0.58922400  0.86791900  0.44191800  1
  F  F4  1  0.37169300  0.68688200  0.59690400  1
  F  F5  1  0.62830700  0.31311800  0.40309600  1
  F  F6  1  0.37169300  0.31311800  0.90309600  1
  F  F7  1  0.62830700  0.68688200  0.09690400  1
loop_
_geom_bond_atom_site_label_1
_geom_bond_atom_site_label_2
_geom_bond_distance
_geom_bond_site_symmetry_2
K0 O2 2.685207 1_564
K0 O6 2.753785 1_555
K0 O0 2.772559 1_554
K0 O4 2.802124 1_555
K0 O3 2.857931 1_655
K0 O5 2.938307 1_654
K1 O3 2.685207 1_546
K1 O7 2.753785 1_555
K1 O1 2.772559 1_556
K1 O5 2.802124 1_555
K1 O2 2.857931 1_455
K1 O4 2.938307 1_456
K2 O0 2.685207 1_545
K2 O4 2.753785 1_555
K2 O2 2.772559 1_555
K2 O6 2.802124 1_555
K2 O1 2.857931 1_655
K2 O7 2.938307 1_655
K3 O1 2.685207 1_565
K3 O5 2.753785 1_555
K3 O3 2.772559 1_555
K3 O7 2.802124 1_555
K3 O0 2.857931 1_455
K3 O6 2.938307 1_455
C0 C8 1.392650 1_555
C0 C2 1.410689 1_555
C0 C12 1.531469 1_555
C1 C9 1.392650 1_555
C1 C3 1.410689 1_555
C1 C13 1.531469 1_555
C4 F4 1.354935 1_555
C5 F5 1.354935 1_555
C6 F6 1.354935 1_555
C7 F7 1.354935 1_555
C8 F3 1.357821 1_555
C9 F2 1.357821 1_555
C10 F1 1.357821 1_556
C10 C2 1.392650 1_555
C11 F0 1.357821 1_554
C11 C3 1.392650 1_555
C12 O6 1.264701 1_555
C12 O0 1.266769 1_555
C13 O7 1.264701 1_555
C13 O1 1.266769 1_555
C14 O4 1.264701 1_556
C14 O2 1.266769 1_555
C14 C2 1.531469 1_555
C15 O5 1.264701 1_554
C15 O3 1.266769 1_555
C15 C3 1.531469 1_555
F4 K3 2.855438 1_555
F5 K2 2.855438 1_555
F6 K1 2.855438 1_555
F7 K0 2.855438 1_555
