# generated using pymatgen
data_InGe2SbTe5
_symmetry_space_group_name_H-M   'P 1'
_cell_length_a   4.26454722
_cell_length_b   4.26454722
_cell_length_c   17.83096700
_cell_angle_alpha   90.00000000
_cell_angle_beta   90.00000000
_cell_angle_gamma   119.99998786
_symmetry_Int_Tables_number   1
_chemical_formula_structural   InGe2SbTe5
_chemical_formula_sum   'In1 Ge2 Sb1 Te5'
_cell_volume   280.83513158
_cell_formula_units_Z   1
loop_
 _symmetry_equiv_pos_site_id
 _symmetry_equiv_pos_as_xyz
  1  'x, y, z'
loop_
 _atom_site_type_symbol
 _atom_site_label
 _atom_site_symmetry_multiplicity
 _atom_site_fract_x
 _atom_site_fract_y
 _atom_site_fract_z
 _atom_site_occupancy
  In  In0  1  0.33333300  0.66666700  0.11355800  1
  Ge  Ge0  1  0.00000000  0.00000000  0.33071000  1
  Ge  Ge1  1  0.00000000  0.00000000  0.66917800  1
  Sb  Sb0  1  0.66666700  0.33333300  0.89020000  1
  Te  Te0  1  0.33333300  0.66666700  0.41063600  1
  Te  Te1  1  0.66666700  0.33333300  0.58870900  1
  Te  Te2  1  0.00000000  0.00000000  0.00334500  1
  Te  Te3  1  0.33333300  0.66666700  0.79200700  1
  Te  Te4  1  0.66666700  0.33333300  0.20165800  1
loop_
_geom_bond_atom_site_label_1
_geom_bond_atom_site_label_2
_geom_bond_distance
_geom_bond_site_symmetry_2
In0 Te4 2.920593 1_455
In0 Te4 2.920593 1_565
In0 Te4 2.920599 1_555
In0 Te2 3.150260 1_565
In0 Te2 3.150263 1_665
In0 Te2 3.150263 1_555
Ge0 Te0 2.844852 1_545
Ge0 Te0 2.844856 1_555
Ge0 Te0 2.844856 1_445
Ge1 Te1 2.849715 1_455
Ge1 Te1 2.849718 1_555
Ge1 Te1 2.849718 1_445
Ge1 Te3 3.295286 1_545
Ge1 Te3 3.295289 1_445
Ge1 Te3 3.295289 1_555
Sb0 Te3 3.021205 1_545
Sb0 Te3 3.021205 1_655
Sb0 Te3 3.021210 1_555
Sb0 Te2 3.183136 1_656
Sb0 Te2 3.183139 1_666
Sb0 Te2 3.183139 1_556
