# generated using pymatgen
data_Mg48Si34H62O147
_symmetry_space_group_name_H-M   'P 1'
_cell_length_a   7.36798555
_cell_length_b   9.34321245
_cell_length_c   43.94046695
_cell_angle_alpha   90.00000000
_cell_angle_beta   91.34670533
_cell_angle_gamma   90.00000000
_symmetry_Int_Tables_number   1
_chemical_formula_structural   Mg48Si34H62O147
_chemical_formula_sum   'Mg48 Si34 H62 O147'
_cell_volume   3024.05497148
_cell_formula_units_Z   1
loop_
 _symmetry_equiv_pos_site_id
 _symmetry_equiv_pos_as_xyz
  1  'x, y, z'
loop_
 _atom_site_type_symbol
 _atom_site_label
 _atom_site_symmetry_multiplicity
 _atom_site_fract_x
 _atom_site_fract_y
 _atom_site_fract_z
 _atom_site_occupancy
  Mg  Mg0  1  0.88264012  -0.00000000  0.96937406  1
  Mg  Mg1  1  0.88225713  0.33452308  0.96987672  1
  Mg  Mg2  1  0.88225713  0.66547692  0.96987672  1
  Mg  Mg3  1  0.92441449  0.50000000  0.90664846  1
  Mg  Mg4  1  0.91947432  0.16597138  0.90704379  1
  Mg  Mg5  1  0.91947432  0.83402862  0.90704379  1
  Mg  Mg6  1  0.94570504  -0.00000000  0.84415090  1
  Mg  Mg7  1  0.94203372  0.33428704  0.84459924  1
  Mg  Mg8  1  0.94203372  0.66571296  0.84459924  1
  Mg  Mg9  1  0.95394403  0.50000000  0.78179079  1
  Mg  Mg10  1  0.95292685  0.16581073  0.78220869  1
  Mg  Mg11  1  0.95292685  0.83418927  0.78220869  1
  Mg  Mg12  1  0.95324236  -0.00000000  0.71957446  1
  Mg  Mg13  1  0.95324394  0.33434410  0.71997440  1
  Mg  Mg14  1  0.95324394  0.66565590  0.71997440  1
  Mg  Mg15  1  0.94537320  0.50000000  0.65739817  1
  Mg  Mg16  1  0.94602676  0.16557566  0.65778540  1
  Mg  Mg17  1  0.94602676  0.83442434  0.65778540  1
  Mg  Mg18  1  0.92831150  -0.00000000  0.59520446  1
  Mg  Mg19  1  0.92985919  0.33459392  0.59556195  1
  Mg  Mg20  1  0.92985919  0.66540608  0.59556195  1
  Mg  Mg21  1  0.89962591  0.50000000  0.53277572  1
  Mg  Mg22  1  0.90006948  0.16621843  0.53333923  1
  Mg  Mg23  1  0.90006948  0.83378157  0.53333923  1
  Mg  Mg24  1  0.86140521  -0.00000000  0.47041789  1
  Mg  Mg25  1  0.86214855  0.33574790  0.47038271  1
  Mg  Mg26  1  0.86214855  0.66425210  0.47038271  1
  Mg  Mg27  1  0.82476924  0.50000000  0.40805986  1
  Mg  Mg28  1  0.82426500  0.16614819  0.40748039  1
  Mg  Mg29  1  0.82426500  0.83385181  0.40748039  1
  Mg  Mg30  1  0.79621628  -0.00000000  0.34566067  1
  Mg  Mg31  1  0.79480866  0.33457283  0.34533833  1
  Mg  Mg32  1  0.79480866  0.66542717  0.34533833  1
  Mg  Mg33  1  0.78118238  0.50000000  0.28341886  1
  Mg  Mg34  1  0.78086185  0.16570110  0.28309933  1
  Mg  Mg35  1  0.78086185  0.83429890  0.28309933  1
  Mg  Mg36  1  0.77507358  -0.00000000  0.22123204  1
  Mg  Mg37  1  0.77742149  0.33423891  0.22078080  1
  Mg  Mg38  1  0.77742149  0.66576109  0.22078080  1
  Mg  Mg39  1  0.77904590  0.50000000  0.15880698  1
  Mg  Mg40  1  0.78104180  0.16558210  0.15834228  1
  Mg  Mg41  1  0.78104180  0.83441790  0.15834228  1
  Mg  Mg42  1  0.79299189  -0.00000000  0.09611527  1
  Mg  Mg43  1  0.79775631  0.33416108  0.09588941  1
  Mg  Mg44  1  0.79775631  0.66583892  0.09588941  1
  Mg  Mg45  1  0.83184770  0.50000000  0.03358238  1
  Mg  Mg46  1  0.82872884  0.16637393  0.03290311  1
  Mg  Mg47  1  0.82872884  0.83362607  0.03290311  1
  Si  Si0  1  0.48954344  0.16626294  0.97805258  1
  Si  Si1  1  0.48954344  0.83373706  0.97805258  1
  Si  Si2  1  0.53659051  0.33591674  0.91867356  1
  Si  Si3  1  0.53659051  0.66408326  0.91867356  1
  Si  Si4  1  0.55902759  0.16506155  0.85920593  1
  Si  Si5  1  0.55902759  0.83493845  0.85920593  1
  Si  Si6  1  0.57113655  0.33446971  0.79915851  1
  Si  Si7  1  0.57113655  0.66553029  0.79915851  1
  Si  Si8  1  0.57369409  0.16578816  0.73885375  1
  Si  Si9  1  0.57369409  0.83421184  0.73885375  1
  Si  Si10  1  0.56883402  0.33420813  0.67845109  1
  Si  Si11  1  0.56883402  0.66579187  0.67845109  1
  Si  Si12  1  0.55583365  0.16558116  0.61815277  1
  Si  Si13  1  0.55583365  0.83441884  0.61815277  1
  Si  Si14  1  0.53421268  0.33538712  0.55830425  1
  Si  Si15  1  0.53421268  0.66461288  0.55830425  1
  Si  Si16  1  0.49348844  0.16450138  0.49885665  1
  Si  Si17  1  0.49348844  0.83549862  0.49885665  1
  Si  Si18  1  0.23021803  0.16424548  0.44251176  1
  Si  Si19  1  0.23021803  0.83575452  0.44251176  1
  Si  Si20  1  0.19048567  0.33568587  0.38317434  1
  Si  Si21  1  0.19048567  0.66431413  0.38317434  1
  Si  Si22  1  0.16963805  0.16538450  0.32346513  1
  Si  Si23  1  0.16963805  0.83461550  0.32346513  1
  Si  Si24  1  0.15920030  0.33419157  0.26323369  1
  Si  Si25  1  0.15920030  0.66580843  0.26323369  1
  Si  Si26  1  0.15710796  0.16577545  0.20294253  1
  Si  Si27  1  0.15710796  0.83422455  0.20294253  1
  Si  Si28  1  0.16345284  0.33451390  0.14285150  1
  Si  Si29  1  0.16345284  0.66548610  0.14285150  1
  Si  Si30  1  0.18076151  0.16462566  0.08320637  1
  Si  Si31  1  0.18076151  0.83537434  0.08320637  1
  Si  Si32  1  0.22304536  0.33404151  0.02382022  1
  Si  Si33  1  0.22304536  0.66595849  0.02382022  1
  H  H0  1  0.60036428  0.50000000  0.98840153  1
  H  H1  1  0.62765984  -0.00000000  0.92362312  1
  H  H2  1  0.65373488  0.50000000  0.86199494  1
  H  H3  1  0.66892626  -0.00000000  0.80056644  1
  H  H4  1  0.67093690  0.50000000  0.73910505  1
  H  H5  1  0.66603988  -0.00000000  0.67808299  1
  H  H6  1  0.65235351  0.50000000  0.61710366  1
  H  H7  1  0.62945419  -0.00000000  0.55536212  1
  H  H8  1  0.59834297  0.50000000  0.49256278  1
  H  H9  1  0.12747983  0.50000000  0.44850218  1
  H  H10  1  0.09603381  -0.00000000  0.38553853  1
  H  H11  1  0.07304959  0.50000000  0.32413397  1
  H  H12  1  0.06197352  -0.00000000  0.26290132  1
  H  H13  1  0.06143762  0.50000000  0.20155857  1
  H  H14  1  0.06705753  -0.00000000  0.14054181  1
  H  H15  1  0.08820191  0.50000000  0.07977432  1
  H  H16  1  0.11044472  -0.00000000  0.01468866  1
  H  H17  1  0.16135682  0.50000000  0.95169076  1
  H  H18  1  0.15446321  0.17373420  0.95200625  1
  H  H19  1  0.15446321  0.82626580  0.95200625  1
  H  H20  1  0.19295490  -0.00000000  0.88790691  1
  H  H21  1  0.19251475  0.32648570  0.88762165  1
  H  H22  1  0.19251475  0.67351430  0.88762165  1
  H  H23  1  0.21066302  0.50000000  0.82407822  1
  H  H24  1  0.21141633  0.17351266  0.82478252  1
  H  H25  1  0.21141633  0.82648734  0.82478252  1
  H  H26  1  0.21748713  -0.00000000  0.76071350  1
  H  H27  1  0.21771680  0.32728465  0.76206764  1
  H  H28  1  0.21771680  0.67271535  0.76206764  1
  H  H29  1  0.21502836  0.50000000  0.69795311  1
  H  H30  1  0.21508000  0.17180249  0.69955445  1
  H  H31  1  0.21508000  0.82819751  0.69955445  1
  H  H32  1  0.20439780  -0.00000000  0.63493406  1
  H  H33  1  0.20441420  0.32886862  0.63677193  1
  H  H34  1  0.20441420  0.67113138  0.63677193  1
  H  H35  1  0.18356618  0.50000000  0.57176905  1
  H  H36  1  0.18375360  0.17006474  0.57356638  1
  H  H37  1  0.18375360  0.82993526  0.57356638  1
  H  H38  1  0.14821027  -0.00000000  0.50975211  1
  H  H39  1  0.14891273  0.32830330  0.51004583  1
  H  H40  1  0.14891273  0.67169670  0.51004583  1
  H  H41  1  0.57538287  -0.00000000  0.43094671  1
  H  H42  1  0.57521111  0.32870949  0.43056479  1
  H  H43  1  0.57521111  0.67129051  0.43056479  1
  H  H44  1  0.54067826  0.50000000  0.36907630  1
  H  H45  1  0.54042174  0.17087419  0.36707074  1
  H  H46  1  0.54042174  0.82912581  0.36707074  1
  H  H47  1  0.52132403  -0.00000000  0.30579050  1
  H  H48  1  0.52104287  0.32863131  0.30384821  1
  H  H49  1  0.52104287  0.67136869  0.30384821  1
  H  H50  1  0.51451787  0.50000000  0.24245155  1
  H  H51  1  0.51346729  0.17353990  0.24121336  1
  H  H52  1  0.51346729  0.82646010  0.24121336  1
  H  H53  1  0.51489893  -0.00000000  0.17944837  1
  H  H54  1  0.51522217  0.32682364  0.17862424  1
  H  H55  1  0.51522217  0.67317636  0.17862424  1
  H  H56  1  0.52700645  0.50000000  0.11580073  1
  H  H57  1  0.52684643  0.17356865  0.11558842  1
  H  H58  1  0.52684643  0.82643135  0.11558842  1
  H  H59  1  0.55259817  -0.00000000  0.05127567  1
  H  H60  1  0.55932578  0.32797660  0.05134488  1
  H  H61  1  0.55932578  0.67202340  0.05134488  1
  O  O0  1  0.70338948  0.17291894  0.98738464  1
  O  O1  1  0.70338948  0.82708106  0.98738464  1
  O  O2  1  0.75350512  0.33590169  0.92406493  1
  O  O3  1  0.75350512  0.66409831  0.92406493  1
  O  O4  1  0.77692328  0.16557426  0.86283758  1
  O  O5  1  0.77692328  0.83442574  0.86283758  1
  O  O6  1  0.78942009  0.33395260  0.80130593  1
  O  O7  1  0.78942009  0.66604740  0.80130593  1
  O  O8  1  0.79206391  0.16604793  0.73987293  1
  O  O9  1  0.79206391  0.83395207  0.73987293  1
  O  O10  1  0.78716850  0.33387825  0.67842884  1
  O  O11  1  0.78716850  0.66612175  0.67842884  1
  O  O12  1  0.77393895  0.16615177  0.61696611  1
  O  O13  1  0.77393895  0.83384823  0.61696611  1
  O  O14  1  0.75171411  0.33353770  0.55573073  1
  O  O15  1  0.75171411  0.66646230  0.55573073  1
  O  O16  1  0.70872280  0.16759939  0.49246138  1
  O  O17  1  0.70872280  0.83240061  0.49246138  1
  O  O18  1  0.01448613  0.16746254  0.44849913  1
  O  O19  1  0.01448613  0.83253746  0.44849913  1
  O  O20  1  0.97279286  0.33382565  0.38539228  1
  O  O21  1  0.97279286  0.66617435  0.38539228  1
  O  O22  1  0.95127165  0.16626921  0.32423001  1
  O  O23  1  0.95127165  0.83373079  0.32423001  1
  O  O24  1  0.94067506  0.33376499  0.26276432  1
  O  O25  1  0.94067506  0.66623501  0.26276432  1
  O  O26  1  0.93861674  0.16584379  0.20132937  1
  O  O27  1  0.93861674  0.83415621  0.20132937  1
  O  O28  1  0.94521813  0.33421631  0.13978515  1
  O  O29  1  0.94521813  0.66578369  0.13978515  1
  O  O30  1  0.96334431  0.16485410  0.07834674  1
  O  O31  1  0.96334431  0.83514590  0.07834674  1
  O  O32  1  0.00757323  0.32797898  0.01571541  1
  O  O33  1  0.00757323  0.67202102  0.01571541  1
  O  O34  1  0.41878183  -0.00000000  0.97527792  1
  O  O35  1  0.43812494  0.24224000  0.94515746  1
  O  O36  1  0.43812494  0.75776000  0.94515746  1
  O  O37  1  0.45218937  0.50000000  0.91891875  1
  O  O38  1  0.46650317  0.26042679  0.88648182  1
  O  O39  1  0.46650317  0.73957321  0.88648182  1
  O  O40  1  0.47539174  -0.00000000  0.86042049  1
  O  O41  1  0.48331674  0.23954641  0.82712887  1
  O  O42  1  0.48331674  0.76045359  0.82712887  1
  O  O43  1  0.48812622  0.50000000  0.80081614  1
  O  O44  1  0.48992969  0.25978611  0.76738428  1
  O  O45  1  0.48992969  0.74021389  0.76738428  1
  O  O46  1  0.49089549  -0.00000000  0.74073322  1
  O  O47  1  0.48859153  0.24086824  0.70738692  1
  O  O48  1  0.48859153  0.75913176  0.70738692  1
  O  O49  1  0.48656404  0.50000000  0.68068271  1
  O  O50  1  0.47943306  0.25930604  0.64729715  1
  O  O51  1  0.47943306  0.74069396  0.64729715  1
  O  O52  1  0.47406525  -0.00000000  0.62098484  1
  O  O53  1  0.46171662  0.23921937  0.58729813  1
  O  O54  1  0.46171662  0.76078063  0.58729813  1
  O  O55  1  0.45387745  0.50000000  0.56251331  1
  O  O56  1  0.43521056  0.26782818  0.52750366  1
  O  O57  1  0.43521056  0.73217182  0.52750366  1
  O  O58  1  0.42538434  -0.00000000  0.50716630  1
  O  O59  1  0.36132590  0.22228607  0.47072064  1
  O  O60  1  0.36132590  0.77771393  0.47072064  1
  O  O61  1  0.29924100  -0.00000000  0.43446708  1
  O  O62  1  0.28945854  0.26601536  0.41372419  1
  O  O63  1  0.28945854  0.73398464  0.41372419  1
  O  O64  1  0.27202571  0.50000000  0.37956274  1
  O  O65  1  0.26352514  0.24186368  0.35394736  1
  O  O66  1  0.26352514  0.75813632  0.35394736  1
  O  O67  1  0.25206312  -0.00000000  0.32165418  1
  O  O68  1  0.24738239  0.25576383  0.29401479  1
  O  O69  1  0.24738239  0.74423617  0.29401479  1
  O  O70  1  0.24206214  0.50000000  0.26188804  1
  O  O71  1  0.24120430  0.24291530  0.23420254  1
  O  O72  1  0.24120430  0.75708470  0.23420254  1
  O  O73  1  0.24022295  -0.00000000  0.20139338  1
  O  O74  1  0.24263450  0.25987940  0.17466371  1
  O  O75  1  0.24263450  0.74012060  0.17466371  1
  O  O76  1  0.24658254  0.50000000  0.14139000  1
  O  O77  1  0.25370556  0.23799733  0.11549620  1
  O  O78  1  0.25370556  0.76200267  0.11549620  1
  O  O79  1  0.26489417  -0.00000000  0.08205600  1
  O  O80  1  0.27734791  0.26223382  0.05706411  1
  O  O81  1  0.27734791  0.73776618  0.05706411  1
  O  O82  1  0.29766381  0.50000000  0.02452324  1
  O  O83  1  0.35337174  0.24698452  0.00094952  1
  O  O84  1  0.35337174  0.75301548  0.00094952  1
  O  O85  1  0.73212319  0.50000000  0.98848471  1
  O  O86  1  0.75886557  -0.00000000  0.92569789  1
  O  O87  1  0.78519981  0.50000000  0.86342143  1
  O  O88  1  0.80028274  -0.00000000  0.80174679  1
  O  O89  1  0.80219707  0.50000000  0.74004700  1
  O  O90  1  0.79731924  -0.00000000  0.67840369  1
  O  O91  1  0.78365919  0.50000000  0.61688090  1
  O  O92  1  0.76091855  -0.00000000  0.55495336  1
  O  O93  1  0.72970421  0.50000000  0.49315512  1
  O  O94  1  0.99594919  0.50000000  0.44763741  1
  O  O95  1  0.96451320  -0.00000000  0.38585876  1
  O  O96  1  0.94157068  0.50000000  0.32415263  1
  O  O97  1  0.93057321  -0.00000000  0.26266567  1
  O  O98  1  0.93000360  0.50000000  0.20086837  1
  O  O99  1  0.93557642  -0.00000000  0.13907127  1
  O  O100  1  0.95727127  0.50000000  0.07721157  1
  O  O101  1  0.97870770  -0.00000000  0.01421972  1
  O  O102  1  0.02970125  0.50000000  0.95179579  1
  O  O103  1  0.02284603  0.16861083  0.95160782  1
  O  O104  1  0.02284603  0.83138917  0.95160782  1
  O  O105  1  0.06121414  -0.00000000  0.88804118  1
  O  O106  1  0.06078990  0.33192544  0.88791287  1
  O  O107  1  0.06078990  0.66807456  0.88791287  1
  O  O108  1  0.07905906  0.50000000  0.82468963  1
  O  O109  1  0.07959785  0.16802328  0.82477490  1
  O  O110  1  0.07959785  0.83197672  0.82477490  1
  O  O111  1  0.08602550  -0.00000000  0.76164190  1
  O  O112  1  0.08603489  0.33249116  0.76180741  1
  O  O113  1  0.08603489  0.66750884  0.76180741  1
  O  O114  1  0.08346180  0.50000000  0.69887210  1
  O  O115  1  0.08336124  0.16730729  0.69911540  1
  O  O116  1  0.08336124  0.83269271  0.69911540  1
  O  O117  1  0.07273097  -0.00000000  0.63605949  1
  O  O118  1  0.07261270  0.33277065  0.63634256  1
  O  O119  1  0.07261270  0.66722935  0.63634256  1
  O  O120  1  0.05199758  0.50000000  0.57302650  1
  O  O121  1  0.05190400  0.16681883  0.57336769  1
  O  O122  1  0.05190400  0.83318117  0.57336769  1
  O  O123  1  0.01596002  -0.00000000  0.50982833  1
  O  O124  1  0.01722812  0.33174955  0.51037050  1
  O  O125  1  0.01722812  0.66825045  0.51037050  1
  O  O126  1  0.70767221  -0.00000000  0.43085608  1
  O  O127  1  0.70699727  0.33194589  0.43038033  1
  O  O128  1  0.70699727  0.66805411  0.43038033  1
  O  O129  1  0.67239508  0.50000000  0.36770819  1
  O  O130  1  0.67229561  0.16689718  0.36738617  1
  O  O131  1  0.67229561  0.83310282  0.36738617  1
  O  O132  1  0.65289916  -0.00000000  0.30455203  1
  O  O133  1  0.65287918  0.33285923  0.30428863  1
  O  O134  1  0.65287918  0.66714077  0.30428863  1
  O  O135  1  0.64603444  0.50000000  0.24153913  1
  O  O136  1  0.64517393  0.16775653  0.24146140  1
  O  O137  1  0.64517393  0.83224347  0.24146140  1
  O  O138  1  0.64641937  -0.00000000  0.17863156  1
  O  O139  1  0.64695973  0.33230519  0.17853809  1
  O  O140  1  0.64695973  0.66769481  0.17853809  1
  O  O141  1  0.65870458  0.50000000  0.11529795  1
  O  O142  1  0.65854032  0.16788319  0.11525830  1
  O  O143  1  0.65854032  0.83211681  0.11525830  1
  O  O144  1  0.68430097  -0.00000000  0.05112568  1
  O  O145  1  0.69102236  0.33266558  0.05164403  1
  O  O146  1  0.69102236  0.66733442  0.05164403  1
loop_
_geom_bond_atom_site_label_1
_geom_bond_atom_site_label_2
_geom_bond_distance
_geom_bond_site_symmetry_2
Mg0 O103 2.048481 1_655
Mg0 O104 2.048481 1_645
Mg0 O101 2.078095 1_556
Mg0 O86 2.105365 1_555
Mg0 O1 2.242754 1_545
Mg0 O0 2.242754 1_555
Mg1 O103 2.039475 1_655
Mg1 O102 2.059696 1_655
Mg1 O85 2.079683 1_555
Mg1 O0 2.157808 1_555
Mg1 O32 2.196759 1_656
Mg1 O2 2.205099 1_555
Mg2 O104 2.039475 1_655
Mg2 O102 2.059696 1_655
Mg2 O85 2.079683 1_555
Mg2 O1 2.157808 1_555
Mg2 O33 2.196759 1_656
Mg2 O3 2.205099 1_555
Mg3 O107 2.047508 1_655
Mg3 O106 2.047508 1_655
Mg3 O102 2.113030 1_655
Mg3 O3 2.137151 1_555
Mg3 O2 2.137151 1_555
Mg3 O87 2.137365 1_555
Mg4 O105 2.057550 1_655
Mg4 O106 2.058177 1_655
Mg4 O103 2.084469 1_655
Mg4 O86 2.126614 1_555
Mg4 O2 2.149076 1_555
Mg4 O4 2.186402 1_555
Mg5 O105 2.057550 1_665
Mg5 O107 2.058177 1_655
Mg5 O104 2.084469 1_655
Mg5 O86 2.126614 1_565
Mg5 O3 2.149076 1_555
Mg5 O5 2.186402 1_555
Mg6 O110 2.049898 1_645
Mg6 O109 2.049898 1_655
Mg6 O105 2.089620 1_655
Mg6 O88 2.127423 1_555
Mg6 O4 2.159142 1_555
Mg6 O5 2.159142 1_545
Mg7 O108 2.055081 1_655
Mg7 O109 2.059319 1_655
Mg7 O106 2.076072 1_655
Mg7 O87 2.112213 1_555
Mg7 O4 2.157035 1_555
Mg7 O6 2.186942 1_555
Mg8 O108 2.055081 1_655
Mg8 O110 2.059319 1_655
Mg8 O107 2.076072 1_655
Mg8 O87 2.112213 1_555
Mg8 O5 2.157035 1_555
Mg8 O7 2.186942 1_555
Mg9 O112 2.051302 1_655
Mg9 O113 2.051302 1_655
Mg9 O108 2.078780 1_655
Mg9 O89 2.125588 1_555
Mg9 O7 2.158824 1_555
Mg9 O6 2.158824 1_555
Mg10 O111 2.054289 1_655
Mg10 O112 2.057197 1_655
Mg10 O109 2.070691 1_655
Mg10 O88 2.108879 1_555
Mg10 O6 2.161252 1_555
Mg10 O8 2.182130 1_555
Mg11 O111 2.054289 1_665
Mg11 O113 2.057197 1_655
Mg11 O110 2.070691 1_655
Mg11 O88 2.108879 1_565
Mg11 O7 2.161252 1_555
Mg11 O9 2.182130 1_555
Mg12 O115 2.052161 1_655
Mg12 O116 2.052161 1_645
Mg12 O111 2.070982 1_655
Mg12 O90 2.120106 1_555
Mg12 O9 2.159288 1_545
Mg12 O8 2.159288 1_555
Mg13 O114 2.053701 1_655
Mg13 O115 2.058190 1_655
Mg13 O112 2.062007 1_655
Mg13 O89 2.111442 1_555
Mg13 O8 2.167060 1_555
Mg13 O10 2.173680 1_555
Mg14 O114 2.053701 1_655
Mg14 O116 2.058190 1_655
Mg14 O113 2.062007 1_655
Mg14 O89 2.111442 1_555
Mg14 O9 2.167060 1_555
Mg14 O11 2.173680 1_555
Mg15 O118 2.053518 1_655
Mg15 O119 2.053518 1_655
Mg15 O114 2.066181 1_655
Mg15 O91 2.118871 1_555
Mg15 O11 2.161568 1_555
Mg15 O10 2.161568 1_555
Mg16 O117 2.053777 1_655
Mg16 O115 2.058119 1_655
Mg16 O118 2.058941 1_655
Mg16 O90 2.112154 1_555
Mg16 O10 2.171499 1_555
Mg16 O12 2.172066 1_555
Mg17 O117 2.053777 1_665
Mg17 O116 2.058119 1_655
Mg17 O119 2.058941 1_655
Mg17 O90 2.112154 1_565
Mg17 O11 2.171499 1_555
Mg17 O13 2.172066 1_555
Mg18 O122 2.054336 1_645
Mg18 O121 2.054336 1_655
Mg18 O117 2.065232 1_655
Mg18 O92 2.132310 1_555
Mg18 O12 2.160811 1_555
Mg18 O13 2.160811 1_545
Mg19 O120 2.054410 1_655
Mg19 O118 2.056445 1_655
Mg19 O121 2.063524 1_655
Mg19 O91 2.115101 1_555
Mg19 O14 2.162907 1_555
Mg19 O12 2.175303 1_555
Mg20 O120 2.054410 1_655
Mg20 O119 2.056445 1_655
Mg20 O122 2.063524 1_655
Mg20 O91 2.115101 1_555
Mg20 O15 2.162907 1_555
Mg20 O13 2.175303 1_555
Mg21 O124 2.057017 1_655
Mg21 O125 2.057017 1_655
Mg21 O120 2.072472 1_655
Mg21 O93 2.120354 1_555
Mg21 O15 2.162331 1_555
Mg21 O14 2.162331 1_555
Mg22 O124 2.048573 1_655
Mg22 O123 2.061476 1_655
Mg22 O121 2.062204 1_655
Mg22 O92 2.100186 1_555
Mg22 O14 2.158084 1_555
Mg22 O16 2.257230 1_555
Mg23 O125 2.048573 1_655
Mg23 O123 2.061476 1_665
Mg23 O122 2.062204 1_655
Mg23 O92 2.100186 1_565
Mg23 O15 2.158084 1_555
Mg23 O17 2.257230 1_555
Mg24 O123 2.050099 1_655
Mg24 O126 2.052406 1_555
Mg24 O19 2.167697 1_645
Mg24 O18 2.167697 1_655
Mg24 O16 2.169572 1_555
Mg24 O17 2.169572 1_545
Mg25 O124 2.073633 1_655
Mg25 O127 2.074416 1_555
Mg25 O93 2.086760 1_555
Mg25 O94 2.090981 1_555
Mg25 O18 2.169653 1_655
Mg25 O16 2.176882 1_555
Mg26 O125 2.073633 1_655
Mg26 O128 2.074416 1_555
Mg26 O93 2.086760 1_555
Mg26 O94 2.090981 1_555
Mg26 O19 2.169653 1_655
Mg26 O17 2.176882 1_555
Mg27 O127 2.054340 1_555
Mg27 O128 2.054340 1_555
Mg27 O129 2.076210 1_555
Mg27 O94 2.124140 1_555
Mg27 O20 2.154805 1_555
Mg27 O21 2.154805 1_555
Mg28 O127 2.049286 1_555
Mg28 O126 2.060165 1_555
Mg28 O130 2.065155 1_555
Mg28 O95 2.103899 1_555
Mg28 O20 2.154971 1_555
Mg28 O18 2.257062 1_655
Mg29 O128 2.049286 1_555
Mg29 O126 2.060165 1_565
Mg29 O131 2.065155 1_555
Mg29 O95 2.103899 1_565
Mg29 O21 2.154971 1_555
Mg29 O19 2.257062 1_655
Mg30 O130 2.053662 1_555
Mg30 O131 2.053662 1_545
Mg30 O132 2.070804 1_555
Mg30 O95 2.134143 1_555
Mg30 O22 2.157736 1_555
Mg30 O23 2.157736 1_545
Mg31 O129 2.051899 1_555
Mg31 O130 2.061265 1_555
Mg31 O133 2.063648 1_555
Mg31 O96 2.114746 1_555
Mg31 O20 2.169989 1_555
Mg31 O22 2.170775 1_555
Mg32 O129 2.051899 1_555
Mg32 O131 2.061265 1_555
Mg32 O134 2.063648 1_555
Mg32 O96 2.114746 1_555
Mg32 O21 2.169989 1_555
Mg32 O23 2.170775 1_555
Mg33 O133 2.052813 1_555
Mg33 O134 2.052813 1_555
Mg33 O135 2.071669 1_555
Mg33 O96 2.121482 1_555
Mg33 O25 2.160348 1_555
Mg33 O24 2.160348 1_555
Mg34 O132 2.053323 1_555
Mg34 O133 2.058290 1_555
Mg34 O136 2.064288 1_555
Mg34 O97 2.113373 1_555
Mg34 O24 2.167964 1_555
Mg34 O22 2.176276 1_555
Mg35 O132 2.053323 1_565
Mg35 O134 2.058290 1_555
Mg35 O137 2.064288 1_555
Mg35 O97 2.113373 1_565
Mg35 O25 2.167964 1_555
Mg35 O23 2.176276 1_555
Mg36 O136 2.050084 1_555
Mg36 O137 2.050084 1_545
Mg36 O138 2.078246 1_555
Mg36 O97 2.128205 1_555
Mg36 O26 2.160398 1_555
Mg36 O27 2.160398 1_545
Mg37 O135 2.051639 1_555
Mg37 O136 2.058241 1_555
Mg37 O139 2.070215 1_555
Mg37 O98 2.115247 1_555
Mg37 O26 2.159691 1_555
Mg37 O24 2.178477 1_555
Mg38 O135 2.051639 1_555
Mg38 O137 2.058241 1_555
Mg38 O140 2.070215 1_555
Mg38 O98 2.115247 1_555
Mg38 O27 2.159691 1_555
Mg38 O25 2.178477 1_555
Mg39 O140 2.047770 1_555
Mg39 O139 2.047770 1_555
Mg39 O141 2.088424 1_555
Mg39 O98 2.134553 1_555
Mg39 O29 2.155228 1_555
Mg39 O28 2.155228 1_555
Mg40 O138 2.052719 1_555
Mg40 O139 2.056990 1_555
Mg40 O142 2.078161 1_555
Mg40 O99 2.110024 1_555
Mg40 O28 2.158002 1_555
Mg40 O26 2.193789 1_555
Mg41 O138 2.052719 1_565
Mg41 O140 2.056990 1_555
Mg41 O143 2.078161 1_555
Mg41 O99 2.110024 1_565
Mg41 O29 2.158002 1_555
Mg41 O27 2.193789 1_555
Mg42 O142 2.046577 1_555
Mg42 O143 2.046577 1_545
Mg42 O144 2.115398 1_555
Mg42 O99 2.138493 1_555
Mg42 O31 2.145572 1_545
Mg42 O30 2.145572 1_555
Mg43 O141 2.053993 1_555
Mg43 O142 2.056962 1_555
Mg43 O145 2.080035 1_555
Mg43 O100 2.121580 1_555
Mg43 O30 2.151564 1_555
Mg43 O28 2.191401 1_555
Mg44 O141 2.053993 1_555
Mg44 O143 2.056962 1_555
Mg44 O146 2.080035 1_555
Mg44 O100 2.121580 1_555
Mg44 O31 2.151564 1_555
Mg44 O29 2.191401 1_555
Mg45 O145 2.046833 1_555
Mg45 O146 2.046833 1_555
Mg45 O85 2.097197 1_554
Mg45 O100 2.108541 1_555
Mg45 O33 2.218937 1_655
Mg45 O32 2.218937 1_655
Mg46 O145 2.039812 1_555
Mg46 O144 2.056685 1_555
Mg46 O101 2.086648 1_555
Mg46 O32 2.152529 1_655
Mg46 O0 2.184074 1_554
Mg46 O30 2.208649 1_555
Mg47 O146 2.039812 1_555
Mg47 O144 2.056685 1_565
Mg47 O101 2.086648 1_565
Mg47 O33 2.152529 1_655
Mg47 O1 2.184074 1_554
Mg47 O31 2.208649 1_555
H0 O85 0.970719 1_555
H1 O86 0.968876 1_555
H2 O87 0.969186 1_555
H3 O88 0.968003 1_555
H4 O89 0.967036 1_555
H5 O90 0.967036 1_555
H6 O91 0.967738 1_555
H7 O92 0.969216 1_555
H8 O93 0.967606 1_555
H9 O94 0.968968 1_455
H10 O95 0.969475 1_455
H11 O96 0.968754 1_455
H12 O97 0.967968 1_455
H13 O98 0.968166 1_455
H14 O99 0.969387 1_455
H15 O100 0.968613 1_455
H16 O101 0.970371 1_455
H17 O102 0.970156 1_555
H18 O103 0.970681 1_555
H19 O104 0.970681 1_555
H20 O105 0.970821 1_555
H21 O106 0.972261 1_555
H22 O107 0.972261 1_555
H23 O108 0.970659 1_555
H24 O109 0.972582 1_555
H25 O110 0.972582 1_555
H26 O111 0.970424 1_555
H27 O112 0.971248 1_555
H28 O113 0.971248 1_555
H29 O114 0.971169 1_555
H30 O115 0.971149 1_555
H31 O116 0.971149 1_555
H32 O117 0.972539 1_555
H33 O118 0.971536 1_555
H34 O119 0.971536 1_555
H35 O120 0.972265 1_555
H36 O121 0.971773 1_555
H37 O122 0.971773 1_555
H38 O123 0.974502 1_555
H39 O124 0.971224 1_555
H40 O125 0.971224 1_555
H41 O126 0.974808 1_555
H42 O127 0.971693 1_555
H43 O128 0.971693 1_555
H44 O129 0.973757 1_555
H45 O130 0.972128 1_555
H46 O131 0.972128 1_555
H47 O132 0.972246 1_555
H48 O133 0.971909 1_555
H49 O134 0.971909 1_555
H50 O135 0.970782 1_555
H51 O136 0.971721 1_555
H52 O137 0.971721 1_555
H53 O138 0.970548 1_555
H54 O139 0.972087 1_555
H55 O140 0.972087 1_555
H56 O141 0.971120 1_555
H57 O142 0.972220 1_555
H58 O143 0.972220 1_555
H59 O144 0.970562 1_555
H60 O145 0.971107 1_555
H61 O146 0.971107 1_555
O0 Si0 1.619940 1_555
O1 Si1 1.619940 1_555
O2 Si2 1.610169 1_555
O3 Si3 1.610169 1_555
O4 Si4 1.609634 1_555
O5 Si5 1.609634 1_555
O6 Si6 1.608867 1_555
O7 Si7 1.608867 1_555
O8 Si8 1.608518 1_555
O9 Si9 1.608518 1_555
O10 Si10 1.608712 1_555
O11 Si11 1.608712 1_555
O12 Si12 1.609076 1_555
O13 Si13 1.609076 1_555
O14 Si14 1.609274 1_555
O15 Si15 1.609274 1_555
O16 Si16 1.617298 1_555
O17 Si17 1.617298 1_555
O18 Si18 1.617503 1_555
O19 Si19 1.617503 1_555
O20 Si20 1.609294 1_655
O21 Si21 1.609294 1_655
O22 Si22 1.610082 1_655
O23 Si23 1.610082 1_655
O24 Si24 1.609743 1_655
O25 Si25 1.609743 1_655
O26 Si26 1.609735 1_655
O27 Si27 1.609735 1_655
O28 Si28 1.610429 1_655
O29 Si29 1.610429 1_655
O30 Si30 1.611115 1_655
O31 Si31 1.611115 1_655
O32 Si32 1.619852 1_555
O33 Si33 1.619852 1_555
O34 Si1 1.642208 1_545
O34 Si0 1.642208 1_555
O35 Si2 1.638995 1_555
O35 Si0 1.646500 1_555
O36 Si3 1.638995 1_555
O36 Si1 1.646500 1_555
O37 Si3 1.654520 1_555
O37 Si2 1.654520 1_555
O38 Si2 1.652476 1_555
O38 Si4 1.653329 1_555
O39 Si3 1.652476 1_555
O39 Si5 1.653329 1_555
O40 Si5 1.662085 1_545
O40 Si4 1.662085 1_555
O41 Si4 1.656857 1_555
O41 Si6 1.659261 1_555
O42 Si5 1.656857 1_555
O42 Si7 1.659261 1_555
O43 Si7 1.665353 1_555
O43 Si6 1.665353 1_555
O44 Si6 1.659801 1_555
O44 Si8 1.661388 1_555
O45 Si7 1.659801 1_555
O45 Si9 1.661388 1_555
O46 Si9 1.667556 1_545
O46 Si8 1.667556 1_555
O47 Si8 1.660204 1_555
O47 Si10 1.661934 1_555
O48 Si9 1.660204 1_555
O48 Si11 1.661934 1_555
O49 Si11 1.667133 1_555
O49 Si10 1.667133 1_555
O50 Si10 1.659880 1_555
O50 Si12 1.660596 1_555
O51 Si11 1.659880 1_555
O51 Si13 1.660596 1_555
O52 Si12 1.665945 1_555
O52 Si13 1.665945 1_545
O53 Si14 1.657625 1_555
O53 Si12 1.657757 1_555
O54 Si15 1.657625 1_555
O54 Si13 1.657757 1_555
O55 Si15 1.659877 1_555
O55 Si14 1.659877 1_555
O56 Si14 1.647967 1_555
O56 Si16 1.651143 1_555
O57 Si15 1.647967 1_555
O57 Si17 1.651143 1_555
O58 Si16 1.660122 1_555
O58 Si17 1.660122 1_545
O59 Si18 1.645399 1_555
O59 Si16 1.646691 1_555
O60 Si19 1.645399 1_555
O60 Si17 1.646691 1_555
O61 Si18 1.657400 1_555
O61 Si19 1.657400 1_545
O62 Si20 1.646653 1_555
O62 Si18 1.649446 1_555
O63 Si21 1.646653 1_555
O63 Si19 1.649446 1_555
O64 Si21 1.657563 1_555
O64 Si20 1.657563 1_555
O65 Si22 1.655167 1_555
O65 Si20 1.655239 1_555
O66 Si23 1.655167 1_555
O66 Si21 1.655239 1_555
O67 Si22 1.662870 1_555
O67 Si23 1.662870 1_545
O68 Si24 1.657449 1_555
O68 Si22 1.658502 1_555
O69 Si25 1.657449 1_555
O69 Si23 1.658502 1_555
O70 Si24 1.666704 1_555
O70 Si25 1.666704 1_555
O71 Si26 1.658343 1_555
O71 Si24 1.660074 1_555
O72 Si27 1.658343 1_555
O72 Si25 1.660074 1_555
O73 Si26 1.667522 1_555
O73 Si27 1.667522 1_545
O74 Si28 1.655978 1_555
O74 Si26 1.658606 1_555
O75 Si29 1.655978 1_555
O75 Si27 1.658606 1_555
O76 Si29 1.664865 1_555
O76 Si28 1.664865 1_555
O77 Si30 1.654097 1_555
O77 Si28 1.654625 1_555
O78 Si31 1.654097 1_555
O78 Si29 1.654625 1_555
O79 Si30 1.659560 1_555
O79 Si31 1.659560 1_545
O80 Si30 1.641975 1_555
O80 Si32 1.648190 1_555
O81 Si31 1.641975 1_555
O81 Si33 1.648190 1_555
O82 Si33 1.645217 1_555
O82 Si32 1.645217 1_555
O83 Si0 1.623311 1_554
O83 Si32 1.624486 1_555
O84 Si1 1.623311 1_554
O84 Si33 1.624486 1_555
