# generated using pymatgen
data_Be12Fe
_symmetry_space_group_name_H-M   'P 1'
_cell_length_a   4.12413039
_cell_length_b   5.47316319
_cell_length_c   5.47316319
_cell_angle_alpha   81.83944837
_cell_angle_beta   67.86692086
_cell_angle_gamma   67.86692086
_symmetry_Int_Tables_number   1
_chemical_formula_structural   Be12Fe
_chemical_formula_sum   'Be12 Fe1'
_cell_volume   106.00420086
_cell_formula_units_Z   1
loop_
 _symmetry_equiv_pos_site_id
 _symmetry_equiv_pos_as_xyz
  1  'x, y, z'
loop_
 _atom_site_type_symbol
 _atom_site_label
 _atom_site_symmetry_multiplicity
 _atom_site_fract_x
 _atom_site_fract_y
 _atom_site_fract_z
 _atom_site_occupancy
  Be  Be0  1  0.00000000  -0.00000000  0.50000000  1
  Be  Be1  1  0.50000000  -0.00000000  0.50000000  1
  Be  Be2  1  0.50000000  0.50000000  -0.00000000  1
  Be  Be3  1  0.00000000  0.50000000  -0.00000000  1
  Be  Be4  1  0.00000000  0.34667066  0.65332934  1
  Be  Be5  1  0.00000000  0.65332934  0.34667066  1
  Be  Be6  1  0.65332934  0.34667066  0.34667066  1
  Be  Be7  1  0.34667066  0.65332934  0.65332934  1
  Be  Be8  1  0.50000000  0.78646760  0.21353240  1
  Be  Be9  1  0.50000000  0.21353240  0.78646760  1
  Be  Be10  1  0.71353240  0.78646760  0.78646760  1
  Be  Be11  1  0.28646760  0.21353240  0.21353240  1
  Fe  Fe0  1  0.00000000  -0.00000000  -0.00000000  1
loop_
_geom_bond_atom_site_label_1
_geom_bond_atom_site_label_2
_geom_bond_distance
_geom_bond_site_symmetry_2
Be0 Be1 2.062065 1_555
Be0 Be1 2.062065 1_455
Be0 Be11 2.084303 1_555
Be0 Be10 2.084303 1_445
Be0 Be9 2.084303 1_455
Be0 Be8 2.084303 1_545
Be0 Be4 2.180908 1_555
Be0 Be5 2.180908 1_545
Be0 Be6 2.180909 1_455
Be0 Be7 2.180909 1_545
Be0 Fe0 2.736582 1_556
Be0 Fe0 2.736582 1_555
Be1 Be9 2.084303 1_555
Be1 Be8 2.084303 1_545
Be1 Be10 2.084303 1_545
Be1 Be11 2.084303 1_555
Be1 Be6 2.180908 1_555
Be1 Be7 2.180908 1_545
Be1 Be5 2.180909 1_645
Be1 Be4 2.180909 1_555
Be1 Fe0 2.736582 1_556
Be1 Fe0 2.736582 1_655
Be2 Be3 2.062065 1_555
Be2 Be3 2.062065 1_655
Be2 Be8 2.084303 1_555
Be2 Be9 2.084303 1_554
Be2 Be6 2.180908 1_555
Be2 Be7 2.180908 1_554
Be2 Be4 2.180909 1_654
Be2 Be5 2.180909 1_555
Be2 Fe0 2.736582 1_565
Be2 Fe0 2.736582 1_655
Be3 Be8 2.084303 1_455
Be3 Be9 2.084303 1_554
Be3 Be4 2.180908 1_554
Be3 Be5 2.180908 1_555
Be3 Be7 2.180909 1_554
Be3 Be6 2.180909 1_455
Be3 Fe0 2.736582 1_555
Be3 Fe0 2.736582 1_565
Be4 Be5 2.198698 1_555
Be4 Be9 2.272298 1_555
Be4 Be9 2.272298 1_455
Be4 Fe0 2.485578 1_556
Be5 Be8 2.272298 1_555
Be5 Be8 2.272298 1_455
Be5 Fe0 2.485578 1_565
Be6 Be7 2.198698 1_555
Be6 Be8 2.329635 1_555
Be6 Be9 2.329635 1_555
Be6 Fe0 2.485578 1_655
Be7 Be8 2.329635 1_555
Be7 Be9 2.329635 1_555
Be7 Fe0 2.485578 1_566
Be8 Fe0 2.568280 1_565
Be8 Fe0 2.568280 1_665
Be9 Fe0 2.568280 1_556
Be9 Fe0 2.568280 1_656
Be10 Be2 2.084303 1_556
Be10 Be3 2.084303 1_656
Be10 Be9 2.165156 1_565
Be10 Be8 2.165156 1_556
Be10 Be7 2.272298 1_555
Be10 Be7 2.272299 1_655
Be10 Be4 2.329635 1_655
Be10 Be5 2.329635 1_655
Be10 Fe0 2.568280 1_666
Be10 Fe0 2.568280 1_566
Be11 Be2 2.084303 1_555
Be11 Be3 2.084303 1_555
Be11 Be9 2.165156 1_554
Be11 Be8 2.165156 1_545
Be11 Be6 2.272298 1_555
Be11 Be6 2.272299 1_455
Be11 Be5 2.329635 1_555
Be11 Be4 2.329635 1_555
Be11 Fe0 2.568280 1_555
Be11 Fe0 2.568280 1_655
