# generated using pymatgen
data_Y2Mn3Fe
_symmetry_space_group_name_H-M   'P 1'
_cell_length_a   5.08285110
_cell_length_b   5.08285110
_cell_length_c   5.08285127
_cell_angle_alpha   63.18420905
_cell_angle_beta   63.18420905
_cell_angle_gamma   63.18421589
_symmetry_Int_Tables_number   1
_chemical_formula_structural   Y2Mn3Fe
_chemical_formula_sum   'Y2 Mn3 Fe1'
_cell_volume   99.41004596
_cell_formula_units_Z   1
loop_
 _symmetry_equiv_pos_site_id
 _symmetry_equiv_pos_as_xyz
  1  'x, y, z'
loop_
 _atom_site_type_symbol
 _atom_site_label
 _atom_site_symmetry_multiplicity
 _atom_site_fract_x
 _atom_site_fract_y
 _atom_site_fract_z
 _atom_site_occupancy
  Y  Y0  1  0.62711900  0.62711900  0.62711900  1
  Y  Y1  1  0.37288100  0.37288100  0.37288100  1
  Mn  Mn0  1  0.00000000  0.50000000  0.00000000  1
  Mn  Mn1  1  0.50000000  0.00000000  0.00000000  1
  Mn  Mn2  1  0.00000000  0.00000000  0.50000000  1
  Fe  Fe0  1  0.00000000  0.00000000  0.00000000  1
loop_
_geom_bond_atom_site_label_1
_geom_bond_atom_site_label_2
_geom_bond_distance
_geom_bond_site_symmetry_2
Y0 Y1 3.087038 1_555
Y0 Y1 3.221178 1_556
Y0 Y1 3.221178 1_565
Y0 Y1 3.221178 1_655
Mn0 Mn2 2.662746 1_564
Mn0 Mn2 2.662746 1_555
Mn0 Mn1 2.662746 1_555
Mn0 Mn1 2.662746 1_465
Mn0 Y1 2.938200 1_555
Mn0 Y0 2.938200 1_454
Mn0 Y0 3.077769 1_554
Mn0 Y1 3.077769 1_455
Mn0 Y0 3.077770 1_455
Mn0 Y1 3.077770 1_554
Mn1 Mn2 2.662746 1_654
Mn1 Mn2 2.662746 1_555
Mn1 Y1 2.938200 1_555
Mn1 Y0 2.938200 1_544
Mn1 Y0 3.077769 1_554
Mn1 Y1 3.077769 1_545
Mn1 Y0 3.077770 1_545
Mn1 Y1 3.077770 1_554
Mn2 Y1 2.938199 1_555
Mn2 Y0 2.938199 1_445
Mn2 Y0 3.077770 1_545
Mn2 Y0 3.077770 1_455
Mn2 Y1 3.077770 1_455
Mn2 Y1 3.077770 1_545
Fe0 Mn1 2.541426 1_455
Fe0 Mn1 2.541426 1_555
Fe0 Mn0 2.541426 1_545
Fe0 Mn0 2.541426 1_555
Fe0 Mn2 2.541426 1_554
Fe0 Mn2 2.541426 1_555
Fe0 Y1 3.111947 1_554
Fe0 Y0 3.111947 1_445
Fe0 Y1 3.111947 1_455
Fe0 Y1 3.111947 1_545
Fe0 Y0 3.111947 1_544
Fe0 Y0 3.111947 1_454
