# generated using pymatgen
data_Ba8Sr3Ca(WO6)4
_symmetry_space_group_name_H-M   'P 1'
_cell_length_a   6.15513800
_cell_length_b   10.52763000
_cell_length_c   10.63543080
_cell_angle_alpha   99.00109091
_cell_angle_beta   106.80861200
_cell_angle_gamma   89.99981496
_symmetry_Int_Tables_number   1
_chemical_formula_structural   Ba8Sr3Ca(WO6)4
_chemical_formula_sum   'Ba8 Sr3 Ca1 W4 O24'
_cell_volume   650.85103116
_cell_formula_units_Z   1
loop_
 _symmetry_equiv_pos_site_id
 _symmetry_equiv_pos_as_xyz
  1  'x, y, z'
loop_
 _atom_site_type_symbol
 _atom_site_label
 _atom_site_symmetry_multiplicity
 _atom_site_fract_x
 _atom_site_fract_y
 _atom_site_fract_z
 _atom_site_occupancy
  Ba  Ba0  1  0.31346900  0.93455000  0.12624500  1
  Ba  Ba1  1  0.06145800  0.18818600  0.62408800  1
  Ba  Ba2  1  0.81633700  0.43529800  0.13097400  1
  Ba  Ba3  1  0.56106100  0.68196700  0.62345600  1
  Ba  Ba4  1  0.43893900  0.31803300  0.37654400  1
  Ba  Ba5  1  0.18366300  0.56470200  0.86902600  1
  Ba  Ba6  1  0.93854200  0.81181400  0.37591200  1
  Ba  Ba7  1  0.68653100  0.06545000  0.87375500  1
  Sr  Sr0  1  0.75099000  0.74999100  0.00116400  1
  Sr  Sr1  1  0.50000000  0.00000000  0.50000000  1
  Sr  Sr2  1  0.24901000  0.25000900  0.99883600  1
  Ca  Ca0  1  0.00000000  0.50000000  0.50000000  1
  W  W0  1  0.37735100  0.62321400  0.25301300  1
  W  W1  1  0.12320600  0.87243500  0.74791800  1
  W  W2  1  0.87679400  0.12756500  0.25208200  1
  W  W3  1  0.62264900  0.37678600  0.74698700  1
  O  O0  1  0.82588500  0.44676000  0.65740500  1
  O  O1  1  0.58090600  0.69580300  0.16802600  1
  O  O2  1  0.33200500  0.94366000  0.66609100  1
  O  O3  1  0.08118800  0.19878200  0.16665700  1
  O  O4  1  0.35243900  0.42240700  0.61077400  1
  O  O5  1  0.11355000  0.66680400  0.11467900  1
  O  O6  1  0.86330900  0.91843800  0.61022000  1
  O  O7  1  0.61464900  0.17252500  0.11236700  1
  O  O8  1  0.62511100  0.54494900  0.85548300  1
  O  O9  1  0.37753000  0.79157400  0.36138600  1
  O  O10  1  0.12355300  0.04101700  0.85810000  1
  O  O11  1  0.88262300  0.29794500  0.36273700  1
  O  O12  1  0.41909400  0.30419700  0.83197400  1
  O  O13  1  0.17411500  0.55324000  0.34259500  1
  O  O14  1  0.91881200  0.80121800  0.83334300  1
  O  O15  1  0.66799500  0.05634000  0.33390900  1
  O  O16  1  0.88645000  0.33319600  0.88532100  1
  O  O17  1  0.64756100  0.57759300  0.38922600  1
  O  O18  1  0.38535100  0.82747500  0.88763300  1
  O  O19  1  0.13669100  0.08156200  0.38978000  1
  O  O20  1  0.62247000  0.20842600  0.63861400  1
  O  O21  1  0.37488900  0.45505100  0.14451700  1
  O  O22  1  0.11737700  0.70205500  0.63726300  1
  O  O23  1  0.87644700  0.95898300  0.14190000  1
loop_
_geom_bond_atom_site_label_1
_geom_bond_atom_site_label_2
_geom_bond_distance
_geom_bond_site_symmetry_2
Ba0 O23 2.752314 1_455
Ba0 O15 2.758661 1_565
Ba0 O18 2.767820 1_554
Ba0 O1 3.025050 1_555
Ba0 O5 3.046073 1_555
Ba0 O9 3.046765 1_555
Ba0 O10 3.134946 1_564
Ba0 O3 3.154069 1_565
Ba0 O7 3.163693 1_565
Ba1 O19 2.734310 1_555
Ba1 O12 2.750623 1_555
Ba1 O20 2.757058 1_455
Ba1 O6 3.055927 1_445
Ba1 O10 3.065482 1_555
Ba1 O11 3.083562 1_455
Ba1 O2 3.086927 1_545
Ba1 O4 3.092559 1_555
Ba1 O0 3.103793 1_455
Ba2 O21 2.768392 1_555
Ba2 O13 2.777746 1_655
Ba2 O16 2.817942 1_554
Ba2 O11 2.977709 1_555
Ba2 O7 2.986597 1_555
Ba2 O3 2.989861 1_655
Ba2 O5 3.103584 1_655
Ba2 O1 3.125474 1_555
Ba2 O8 3.219695 1_554
Ba2 O17 3.351111 1_555
Ba2 O21 3.404090 1_655
Ba2 O12 3.482169 1_554
Ba3 O17 2.758112 1_555
Ba3 O14 2.772746 1_555
Ba3 O22 2.783255 1_555
Ba3 O0 2.976261 1_555
Ba3 O8 2.979413 1_555
Ba3 O4 2.986380 1_555
Ba3 O9 3.092185 1_555
Ba3 O2 3.124456 1_555
Ba3 O6 3.152694 1_555
Ba3 O13 3.324224 1_555
Ba3 O22 3.389827 1_655
Ba3 O18 3.438167 1_555
Ba4 O4 2.758112 1_555
Ba4 O3 2.772746 1_555
Ba4 O11 2.783255 1_555
Ba4 O13 2.976261 1_555
Ba4 O21 2.979413 1_555
Ba4 O17 2.986380 1_555
Ba4 O20 3.092185 1_555
Ba4 O15 3.124456 1_555
Ba4 O19 3.152694 1_555
Ba4 O0 3.324224 1_555
Ba4 O11 3.389827 1_455
Ba4 O7 3.438167 1_555
Ba5 O8 2.768392 1_555
Ba5 O0 2.777746 1_455
Ba5 O5 2.817942 1_556
Ba5 O22 2.977709 1_555
Ba5 O18 2.986597 1_555
Ba5 O14 2.989861 1_455
Ba5 O16 3.103584 1_455
Ba5 O12 3.125474 1_555
Ba5 O21 3.219695 1_556
Ba5 O4 3.351111 1_555
Ba5 O8 3.404090 1_455
Ba5 O1 3.482169 1_556
Ba6 O6 2.734310 1_555
Ba6 O1 2.750623 1_555
Ba6 O9 2.757058 1_655
Ba6 O19 3.055927 1_665
Ba6 O23 3.065482 1_555
Ba6 O22 3.083562 1_655
Ba6 O15 3.086927 1_565
Ba6 O17 3.092559 1_555
Ba6 O13 3.103793 1_655
Ba7 O10 2.752314 1_655
Ba7 O2 2.758661 1_545
Ba7 O7 2.767820 1_556
Ba7 O12 3.025050 1_555
Ba7 O16 3.046073 1_555
Ba7 O20 3.046765 1_555
Ba7 O23 3.134946 1_546
Ba7 O14 3.154069 1_545
Ba7 O18 3.163693 1_545
Ca0 O4 2.363089 1_555
Ca0 O17 2.363089 1_455
Ca0 O22 2.365646 1_555
Ca0 O11 2.365646 1_455
Ca0 O0 2.365678 1_455
Ca0 O13 2.365678 1_555
O0 W3 1.980951 1_555
O1 W0 1.960067 1_555
O1 Sr0 2.441737 1_555
O2 W1 1.955087 1_555
O2 Sr1 2.434257 1_565
O3 W2 1.960740 1_455
O3 Sr2 2.431265 1_554
O4 W3 1.979833 1_555
O5 W0 1.959917 1_555
O5 Sr0 2.444830 1_455
O6 W1 1.950716 1_655
O6 Sr1 2.431247 1_565
O7 W2 1.966962 1_555
O7 Sr2 2.434113 1_554
O8 W3 1.953602 1_555
O8 Sr0 2.433040 1_556
O9 W0 1.957043 1_555
O9 Sr1 2.429265 1_565
O10 W1 1.967433 1_545
O10 Sr2 2.445114 1_555
O11 W2 1.979571 1_555
O12 W3 1.960067 1_555
O12 Sr2 2.441737 1_555
O13 W0 1.980951 1_555
O14 W1 1.960740 1_655
O14 Sr0 2.431265 1_556
O15 W2 1.955087 1_555
O15 Sr1 2.434257 1_555
O16 W3 1.959917 1_555
O16 Sr2 2.444830 1_655
O17 W0 1.979833 1_555
O18 W1 1.966962 1_555
O18 Sr0 2.434113 1_556
O19 W2 1.950716 1_455
O19 Sr1 2.431247 1_555
O20 W3 1.957043 1_555
O20 Sr1 2.429265 1_555
O21 W0 1.953602 1_555
O21 Sr2 2.433040 1_554
O22 W1 1.979571 1_555
O23 W2 1.967433 1_565
O23 Sr0 2.445114 1_555
