# generated using pymatgen
data_La3BeGaS7
_symmetry_space_group_name_H-M   'P 1'
_cell_length_a   10.25714823
_cell_length_b   10.25714823
_cell_length_c   5.87923200
_cell_angle_alpha   90.00000000
_cell_angle_beta   90.00000000
_cell_angle_gamma   120.00000146
_symmetry_Int_Tables_number   1
_chemical_formula_structural   La3BeGaS7
_chemical_formula_sum   'La6 Be2 Ga2 S14'
_cell_volume   535.67883398
_cell_formula_units_Z   2
loop_
 _symmetry_equiv_pos_site_id
 _symmetry_equiv_pos_as_xyz
  1  'x, y, z'
loop_
 _atom_site_type_symbol
 _atom_site_label
 _atom_site_symmetry_multiplicity
 _atom_site_fract_x
 _atom_site_fract_y
 _atom_site_fract_z
 _atom_site_occupancy
  La  La0  1  0.36883200  0.12967600  0.73409400  1
  La  La1  1  0.87032400  0.23915600  0.73409400  1
  La  La2  1  0.63116800  0.87032400  0.23409400  1
  La  La3  1  0.76084400  0.63116800  0.73409400  1
  La  La4  1  0.12967600  0.76084400  0.23409400  1
  La  La5  1  0.23915600  0.36883200  0.23409400  1
  Be  Be0  1  0.00000000  0.00000000  0.50105300  1
  Be  Be1  1  0.00000000  0.00000000  0.00105300  1
  Ga  Ga0  1  0.33333300  0.66666700  0.65232000  1
  Ga  Ga1  1  0.66666700  0.33333300  0.15232000  1
  S  S0  1  0.33333300  0.66666700  0.03080600  1
  S  S1  1  0.66666700  0.33333300  0.53080600  1
  S  S2  1  0.09981700  0.51306600  0.50092800  1
  S  S3  1  0.48693400  0.58675100  0.50092800  1
  S  S4  1  0.90018300  0.48693400  0.00092800  1
  S  S5  1  0.41324900  0.90018300  0.50092800  1
  S  S6  1  0.51306600  0.41324900  0.00092800  1
  S  S7  1  0.58675100  0.09981700  0.00092800  1
  S  S8  1  0.14042400  0.21566000  0.74725200  1
  S  S9  1  0.78434000  0.92476400  0.74725200  1
  S  S10  1  0.85957600  0.78434000  0.24725200  1
  S  S11  1  0.07523600  0.85957600  0.74725200  1
  S  S12  1  0.21566000  0.07523600  0.24725200  1
  S  S13  1  0.92476400  0.14042400  0.24725200  1
loop_
_geom_bond_atom_site_label_1
_geom_bond_atom_site_label_2
_geom_bond_distance
_geom_bond_site_symmetry_2
La0 S7 2.869789 1_556
La0 S8 2.887707 1_555
La0 S11 2.899513 1_545
La0 S5 2.949618 1_545
La0 S1 2.956887 1_555
La0 S6 2.967639 1_556
La0 S12 3.177326 1_555
La0 S12 3.317382 1_556
La1 S4 2.869789 1_556
La1 S9 2.887707 1_545
La1 S8 2.899513 1_655
La1 S2 2.949618 1_655
La1 S1 2.956880 1_555
La1 S7 2.967639 1_556
La1 S13 3.177326 1_555
La1 S13 3.317382 1_556
La2 S5 2.869789 1_555
La2 S10 2.887707 1_555
La2 S13 2.899513 1_565
La2 S7 2.949618 1_565
La2 S0 2.956887 1_555
La2 S3 2.967639 1_555
La2 S9 3.177326 1_554
La2 S9 3.317382 1_555
La3 S6 2.869789 1_556
La3 S11 2.887706 1_655
La3 S9 2.899513 1_555
La3 S3 2.949618 1_555
La3 S1 2.956889 1_555
La3 S4 2.967639 1_556
La3 S10 3.177326 1_555
La3 S10 3.317382 1_556
La4 S2 2.869789 1_555
La4 S12 2.887707 1_565
La4 S10 2.899513 1_455
La4 S4 2.949618 1_455
La4 S0 2.956880 1_555
La4 S5 2.967639 1_555
La4 S11 3.177326 1_554
La4 S11 3.317382 1_555
La5 S3 2.869789 1_555
La5 S13 2.887706 1_455
La5 S12 2.899513 1_555
La5 S6 2.949618 1_555
La5 S0 2.956889 1_555
La5 S2 2.967639 1_555
La5 S8 3.177326 1_554
La5 S8 3.317382 1_555
Be0 S8 2.424213 1_555
Be0 S9 2.424213 1_445
Be0 S11 2.424213 1_545
Be0 S10 2.451162 1_445
Be0 S12 2.451162 1_555
Be0 S13 2.451162 1_455
Be1 S10 2.424213 1_445
Be1 S12 2.424213 1_555
Be1 S13 2.424213 1_455
Be1 S8 2.451162 1_554
Be1 S9 2.451162 1_444
Be1 S11 2.451162 1_544
Ga0 S0 2.225207 1_556
Ga0 S5 2.288622 1_555
Ga0 S2 2.288624 1_555
Ga0 S3 2.288631 1_555
Ga1 S1 2.225207 1_555
Ga1 S7 2.288622 1_555
Ga1 S4 2.288624 1_555
Ga1 S6 2.288631 1_555
