# generated using pymatgen
data_Li3Fe2P2(CO7)2
_symmetry_space_group_name_H-M   'P 1'
_cell_length_a   8.18528400
_cell_length_b   8.19191392
_cell_length_c   9.38028080
_cell_angle_alpha   106.66229865
_cell_angle_beta   106.85769797
_cell_angle_gamma   102.88108859
_symmetry_Int_Tables_number   1
_chemical_formula_structural   Li3Fe2P2(CO7)2
_chemical_formula_sum   'Li6 Fe4 P4 C4 O28'
_cell_volume   543.58997568
_cell_formula_units_Z   2
loop_
 _symmetry_equiv_pos_site_id
 _symmetry_equiv_pos_as_xyz
  1  'x, y, z'
loop_
 _atom_site_type_symbol
 _atom_site_label
 _atom_site_symmetry_multiplicity
 _atom_site_fract_x
 _atom_site_fract_y
 _atom_site_fract_z
 _atom_site_occupancy
  Li  Li0  1  0.93917000  0.18993500  0.89631800  1
  Li  Li1  1  0.44337700  0.68783500  0.89978200  1
  Li  Li2  1  0.00381300  0.46474500  0.71896800  1
  Li  Li3  1  0.28581900  0.25296500  0.27904700  1
  Li  Li4  1  0.06418700  0.80988600  0.10686300  1
  Li  Li5  1  0.55828900  0.30919700  0.10162700  1
  Fe  Fe0  1  0.05993900  0.81678000  0.66866300  1
  Fe  Fe1  1  0.56278000  0.31374800  0.67625700  1
  Fe  Fe2  1  0.93464000  0.18864400  0.33109300  1
  Fe  Fe3  1  0.44271300  0.69573600  0.32871700  1
  P  P0  1  0.30389900  0.54664300  0.57613300  1
  P  P1  1  0.79830100  0.05598000  0.57835800  1
  P  P2  1  0.69777700  0.44759700  0.42432800  1
  P  P3  1  0.20394000  0.95301600  0.42250400  1
  C  C0  1  0.75737400  0.50343300  0.95523400  1
  C  C1  1  0.24817000  0.00334400  0.96024800  1
  C  C2  1  0.74892600  0.99508200  0.03896600  1
  C  C3  1  0.24185800  0.49595700  0.04118700  1
  O  O0  1  0.11100100  0.86001900  0.92525000  1
  O  O1  1  0.61165200  0.36735300  0.91880000  1
  O  O2  1  0.64094300  0.88538400  0.90123700  1
  O  O3  1  0.78146000  0.51799400  0.82491600  1
  O  O4  1  0.12122700  0.40364200  0.90145100  1
  O  O5  1  0.28167700  0.02082200  0.83681100  1
  O  O6  1  0.91436900  0.98372600  0.69142200  1
  O  O7  1  0.72458300  0.16833700  0.69512100  1
  O  O8  1  0.21258700  0.64173900  0.68369100  1
  O  O9  1  0.42131900  0.47900500  0.69621900  1
  O  O10  1  0.85510700  0.58369000  0.58006000  1
  O  O11  1  0.92407100  0.19485800  0.53789800  1
  O  O12  1  0.42079600  0.67617100  0.52711600  1
  O  O13  1  0.35370200  0.09880900  0.57688400  1
  O  O14  1  0.65420500  0.91051500  0.42444800  1
  O  O15  1  0.55648300  0.32655200  0.46783800  1
  O  O16  1  0.07491700  0.83565900  0.47415400  1
  O  O17  1  0.16421200  0.38771000  0.42108000  1
  O  O18  1  0.59093400  0.52840700  0.31522600  1
  O  O19  1  0.76490300  0.32751700  0.30859600  1
  O  O20  1  0.26982700  0.83228400  0.30746000  1
  O  O21  1  0.09601000  0.03367800  0.30904400  1
  O  O22  1  0.72578300  0.97198300  0.16529400  1
  O  O23  1  0.86238500  0.61015600  0.09282000  1
  O  O24  1  0.23326500  0.45827500  0.16586700  1
  O  O25  1  0.34272900  0.12103900  0.10089800  1
  O  O26  1  0.38030700  0.63686100  0.07440500  1
  O  O27  1  0.88656300  0.13530600  0.07170300  1
loop_
_geom_bond_atom_site_label_1
_geom_bond_atom_site_label_2
_geom_bond_distance
_geom_bond_site_symmetry_2
Li0 O27 1.959439 1_556
Li0 O4 2.008658 1_655
Li0 O6 2.085122 1_545
Li0 O7 2.103712 1_555
Li1 O26 1.977509 1_556
Li1 O2 2.010457 1_555
Li1 O9 2.096267 1_555
Li1 O8 2.200468 1_555
Li2 O4 1.963658 1_555
Li2 O10 2.113247 1_455
Li2 O8 2.151841 1_555
Li2 O11 2.181535 1_455
Li2 O3 2.375897 1_455
Li3 O25 1.953913 1_555
Li3 O17 2.097607 1_555
Li3 O15 2.219148 1_555
Li3 O21 2.240316 1_555
Li3 O24 2.285291 1_555
Li4 O0 1.981752 1_554
Li4 O23 1.992006 1_455
Li4 O20 2.057880 1_555
Li4 O21 2.128916 1_565
Li5 O1 2.041834 1_554
Li5 O25 2.064812 1_555
Li5 O19 2.113587 1_555
Li5 O18 2.173209 1_555
Fe0 O16 1.910766 1_555
Fe0 O10 2.000537 1_455
Fe0 O6 2.010553 1_455
Fe0 O5 2.012715 1_565
Fe0 O8 2.109441 1_555
Fe0 O0 2.225931 1_555
Fe1 O13 1.920417 1_555
Fe1 O3 1.956275 1_555
Fe1 O9 1.971741 1_555
Fe1 O7 1.972979 1_555
Fe1 O15 1.974172 1_555
Fe1 O1 2.085648 1_555
Fe2 O11 1.953436 1_555
Fe2 O17 1.956342 1_655
Fe2 O19 1.985286 1_555
Fe2 O22 2.003412 1_545
Fe2 O21 2.038255 1_655
Fe2 O27 2.241501 1_555
Fe3 O14 1.932142 1_555
Fe3 O12 1.968046 1_555
Fe3 O20 1.990875 1_555
Fe3 O18 2.024335 1_555
Fe3 O24 2.084895 1_555
Fe3 O26 2.169760 1_555
C0 O23 1.242296 1_556
C0 O1 1.316986 1_555
C0 O3 1.326770 1_555
C1 O25 1.270768 1_556
C1 O5 1.303126 1_555
C1 O0 1.313140 1_545
C2 O2 1.255257 1_554
C2 O27 1.305031 1_565
C2 O22 1.310990 1_555
C3 O4 1.270013 1_554
C3 O24 1.308856 1_555
C3 O26 1.311263 1_555
O6 P1 1.550505 1_565
O7 P1 1.569619 1_555
O8 P0 1.558739 1_555
O9 P0 1.570687 1_555
O10 P2 1.539526 1_555
O11 P1 1.565302 1_555
O12 P0 1.528108 1_555
O13 P3 1.533627 1_545
O14 P1 1.514800 1_565
O15 P2 1.575414 1_555
O16 P3 1.544505 1_555
O17 P0 1.550378 1_555
O18 P2 1.542059 1_555
O19 P2 1.556467 1_555
O20 P3 1.548186 1_555
O21 P3 1.570996 1_545
