# generated using pymatgen
data_Nd3Br
_symmetry_space_group_name_H-M   'P 1'
_cell_length_a   7.16975168
_cell_length_b   7.16975168
_cell_length_c   5.60145200
_cell_angle_alpha   90.00000000
_cell_angle_beta   90.00000000
_cell_angle_gamma   119.99999704
_symmetry_Int_Tables_number   1
_chemical_formula_structural   Nd3Br
_chemical_formula_sum   'Nd6 Br2'
_cell_volume   249.36729372
_cell_formula_units_Z   2
loop_
 _symmetry_equiv_pos_site_id
 _symmetry_equiv_pos_as_xyz
  1  'x, y, z'
loop_
 _atom_site_type_symbol
 _atom_site_label
 _atom_site_symmetry_multiplicity
 _atom_site_fract_x
 _atom_site_fract_y
 _atom_site_fract_z
 _atom_site_occupancy
  Nd  Nd0  1  0.16945300  0.33890500  0.25000000  1
  Nd  Nd1  1  0.66109500  0.83054700  0.25000000  1
  Nd  Nd2  1  0.16945300  0.83054700  0.25000000  1
  Nd  Nd3  1  0.83054700  0.66109500  0.75000000  1
  Nd  Nd4  1  0.33890500  0.16945300  0.75000000  1
  Nd  Nd5  1  0.83054700  0.16945300  0.75000000  1
  Br  Br0  1  0.33333300  0.66666700  0.75000000  1
  Br  Br1  1  0.66666700  0.33333300  0.25000000  1
loop_
_geom_bond_atom_site_label_1
_geom_bond_atom_site_label_2
_geom_bond_distance
_geom_bond_site_symmetry_2
Br0 Nd2 3.462050 1_555
Br0 Nd2 3.462050 1_556
Br0 Nd0 3.462058 1_555
Br0 Nd0 3.462058 1_556
Br0 Nd1 3.462058 1_555
Br0 Nd1 3.462058 1_556
Br0 Nd3 3.585043 1_555
Br0 Nd4 3.585043 1_555
Br0 Nd3 3.585043 1_455
Br0 Nd4 3.585043 1_565
Br0 Nd5 3.585043 1_455
Br0 Nd5 3.585043 1_565
Br1 Nd5 3.462050 1_554
Br1 Nd5 3.462050 1_555
Br1 Nd4 3.462058 1_554
Br1 Nd3 3.462058 1_555
Br1 Nd3 3.462058 1_554
Br1 Nd4 3.462058 1_555
Br1 Nd1 3.585043 1_555
Br1 Nd0 3.585043 1_555
Br1 Nd1 3.585043 1_545
Br1 Nd0 3.585043 1_655
Br1 Nd2 3.585043 1_545
Br1 Nd2 3.585043 1_655
