# generated using pymatgen
data_MnBe4Al
_symmetry_space_group_name_H-M   'P 1'
_cell_length_a   4.29322672
_cell_length_b   4.29321081
_cell_length_c   4.29321081
_cell_angle_alpha   60.00000000
_cell_angle_beta   60.00012259
_cell_angle_gamma   60.00012259
_symmetry_Int_Tables_number   1
_chemical_formula_structural   MnBe4Al
_chemical_formula_sum   'Mn1 Be4 Al1'
_cell_volume   55.95437644
_cell_formula_units_Z   1
loop_
 _symmetry_equiv_pos_site_id
 _symmetry_equiv_pos_as_xyz
  1  'x, y, z'
loop_
 _atom_site_type_symbol
 _atom_site_label
 _atom_site_symmetry_multiplicity
 _atom_site_fract_x
 _atom_site_fract_y
 _atom_site_fract_z
 _atom_site_occupancy
  Mn  Mn0  1  0.99999900  -0.00000000  -0.00000000  1
  Be  Be0  1  0.62671925  0.62671825  0.11984424  1
  Be  Be1  1  0.62671925  0.11984424  0.62671825  1
  Be  Be2  1  0.11984524  0.62671825  0.62671825  1
  Be  Be3  1  0.62671925  0.62671825  0.62671825  1
  Al  Al0  1  0.25000000  0.25000000  0.25000000  1
loop_
_geom_bond_atom_site_label_1
_geom_bond_atom_site_label_2
_geom_bond_distance
_geom_bond_site_symmetry_2
Be0 Be3 2.117094 1_554
Be0 Be1 2.117094 1_564
Be0 Be2 2.117102 1_654
Be0 Be1 2.176117 1_555
Be0 Be3 2.176117 1_555
Be0 Be2 2.176125 1_555
Be0 Mn0 2.514034 1_565
Be0 Mn0 2.514037 1_555
Be0 Mn0 2.514052 1_465
Be1 Be3 2.117094 1_545
Be1 Be2 2.117102 1_645
Be1 Be3 2.176117 1_555
Be1 Be2 2.176125 1_555
Be1 Mn0 2.514034 1_556
Be1 Mn0 2.514037 1_555
Be1 Mn0 2.514052 1_456
Be2 Be3 2.117102 1_455
Be2 Be3 2.176125 1_555
Be2 Mn0 2.514034 1_466
Be2 Mn0 2.514038 1_456
Be2 Mn0 2.514038 1_465
Be3 Mn0 2.514036 1_565
Be3 Mn0 2.514036 1_556
Be3 Mn0 2.514050 1_466
Al0 Be2 2.520327 1_555
Al0 Be2 2.520327 1_545
Al0 Be2 2.520327 1_554
Al0 Be1 2.520332 1_555
Al0 Be0 2.520332 1_555
Al0 Be3 2.520332 1_554
Al0 Be3 2.520332 1_545
Al0 Be0 2.520332 1_545
Al0 Be1 2.520332 1_554
Al0 Be3 2.520335 1_455
Al0 Be1 2.520335 1_455
Al0 Be0 2.520335 1_455
Al0 Mn0 2.629046 1_465
Al0 Mn0 2.629046 1_456
Al0 Mn0 2.629049 1_455
Al0 Mn0 2.629055 1_555
