# generated using pymatgen
data_CeCuGe2
_symmetry_space_group_name_H-M   'P 1'
_cell_length_a   8.76378932
_cell_length_b   8.76378932
_cell_length_c   4.23455083
_cell_angle_alpha   90.00000000
_cell_angle_beta   90.00000000
_cell_angle_gamma   151.31839518
_symmetry_Int_Tables_number   1
_chemical_formula_structural   CeCuGe2
_chemical_formula_sum   'Ce2 Cu2 Ge4'
_cell_volume   156.09170955
_cell_formula_units_Z   2
loop_
 _symmetry_equiv_pos_site_id
 _symmetry_equiv_pos_as_xyz
  1  'x, y, z'
loop_
 _atom_site_type_symbol
 _atom_site_label
 _atom_site_symmetry_multiplicity
 _atom_site_fract_x
 _atom_site_fract_y
 _atom_site_fract_z
 _atom_site_occupancy
  Ce  Ce0  1  0.89372992  0.10627008  0.75000000  1
  Ce  Ce1  1  0.10626836  0.89373164  0.25000000  1
  Cu  Cu0  1  0.67826422  0.32173578  0.75000000  1
  Cu  Cu1  1  0.32170901  0.67829099  0.25000000  1
  Ge  Ge0  1  0.53896769  0.46103231  0.75000000  1
  Ge  Ge1  1  0.46110016  0.53889984  0.25000000  1
  Ge  Ge2  1  0.24863272  0.75136728  0.75000000  1
  Ge  Ge3  1  0.75132892  0.24867108  0.25000000  1
loop_
_geom_bond_atom_site_label_1
_geom_bond_atom_site_label_2
_geom_bond_distance
_geom_bond_site_symmetry_2
Ce0 Ge3 3.214094 1_555
Ce0 Ge3 3.214094 1_556
Ce0 Ge1 3.240926 1_655
Ce0 Ge1 3.240926 1_656
Ce0 Ge1 3.240926 1_545
Ce0 Ge1 3.240926 1_546
Ce0 Cu1 3.269639 1_656
Ce0 Cu1 3.269639 1_655
Ce0 Cu1 3.269639 1_546
Ce0 Cu1 3.269639 1_545
Ce0 Ge2 3.283746 1_655
Ce0 Ge2 3.283746 1_545
Ce0 Ge0 3.285538 1_655
Ce0 Ge0 3.285538 1_545
Ce1 Ge2 3.213626 1_555
Ce1 Ge2 3.213626 1_554
Ce1 Ge0 3.240509 1_565
Ce1 Ge0 3.240509 1_564
Ce1 Ge0 3.240509 1_454
Ce1 Ge0 3.240509 1_455
Ce1 Cu0 3.269480 1_565
Ce1 Cu0 3.269480 1_564
Ce1 Cu0 3.269480 1_455
Ce1 Cu0 3.269480 1_454
Ce1 Ge3 3.283280 1_565
Ce1 Ge3 3.283280 1_455
Ce1 Ge1 3.284651 1_565
Ce1 Ge1 3.284651 1_455
Cu0 Ge0 2.365452 1_555
Cu0 Ge3 2.454037 1_555
Cu0 Ge3 2.454037 1_556
Cu0 Ge2 2.477869 1_655
Cu0 Ge2 2.477869 1_545
Cu1 Ge1 2.367059 1_555
Cu1 Ge2 2.454136 1_554
Cu1 Ge2 2.454136 1_555
Cu1 Ge3 2.477964 1_455
Cu1 Ge3 2.477964 1_565
Ge0 Ge1 2.496264 1_555
Ge0 Ge1 2.496264 1_556
