# generated using pymatgen
data_Mg14AlCo
_symmetry_space_group_name_H-M   'P 1'
_cell_length_a   6.26322115
_cell_length_b   6.26322066
_cell_length_c   9.84164182
_cell_angle_alpha   90.00000000
_cell_angle_beta   90.00000000
_cell_angle_gamma   120.00000263
_symmetry_Int_Tables_number   1
_chemical_formula_structural   Mg14AlCo
_chemical_formula_sum   'Mg14 Al1 Co1'
_cell_volume   334.34407763
_cell_formula_units_Z   1
loop_
 _symmetry_equiv_pos_site_id
 _symmetry_equiv_pos_as_xyz
  1  'x, y, z'
loop_
 _atom_site_type_symbol
 _atom_site_label
 _atom_site_symmetry_multiplicity
 _atom_site_fract_x
 _atom_site_fract_y
 _atom_site_fract_z
 _atom_site_occupancy
  Mg  Mg0  1  0.16815026  0.83407463  0.12500000  1
  Mg  Mg1  1  0.16289966  0.83144933  0.62500000  1
  Mg  Mg2  1  0.66592537  0.33184974  0.12500000  1
  Mg  Mg3  1  0.66855067  0.33710034  0.62500000  1
  Mg  Mg4  1  0.66592537  0.83407463  0.12500000  1
  Mg  Mg5  1  0.66855067  0.83144933  0.62500000  1
  Mg  Mg6  1  0.32505015  0.17494985  0.38539404  1
  Mg  Mg7  1  0.32505015  0.17494985  0.86460596  1
  Mg  Mg8  1  0.32505015  0.65010130  0.38539404  1
  Mg  Mg9  1  0.32505015  0.65010130  0.86460596  1
  Mg  Mg10  1  0.84989870  0.17494985  0.38539404  1
  Mg  Mg11  1  0.84989870  0.17494985  0.86460596  1
  Mg  Mg12  1  0.83333300  0.66666700  0.37281034  1
  Mg  Mg13  1  0.83333300  0.66666700  0.87718966  1
  Al  Al0  1  0.16666700  0.33333300  0.12500000  1
  Co  Co0  1  0.16666700  0.33333300  0.62500000  1
loop_
_geom_bond_atom_site_label_1
_geom_bond_atom_site_label_2
_geom_bond_distance
_geom_bond_site_symmetry_2
Mg0 Mg13 3.040758 1_454
Mg0 Mg12 3.040758 1_455
Mg0 Mg2 3.117675 1_565
Mg0 Mg4 3.117676 1_555
Mg0 Mg2 3.145545 1_455
Mg0 Mg4 3.145546 1_455
Mg0 Mg8 3.161202 1_555
Mg0 Mg9 3.161202 1_554
Mg0 Mg7 3.161209 1_564
Mg0 Mg6 3.161209 1_565
Mg1 Mg9 3.005951 1_555
Mg1 Mg8 3.005951 1_555
Mg1 Mg6 3.005958 1_565
Mg1 Mg7 3.005958 1_565
Mg1 Mg12 3.058702 1_455
Mg1 Mg13 3.058702 1_455
Mg1 Mg3 3.096217 1_455
Mg1 Mg5 3.096217 1_455
Mg1 Mg3 3.167004 1_565
Mg1 Mg5 3.167004 1_555
Mg2 Mg4 3.117675 1_545
Mg2 Mg4 3.145545 1_555
Mg2 Mg7 3.161209 1_554
Mg2 Mg6 3.161209 1_555
Mg3 Mg7 3.005958 1_555
Mg3 Mg6 3.005958 1_555
Mg3 Mg5 3.096217 1_555
Mg3 Mg5 3.167004 1_545
Mg4 Mg9 3.161208 1_554
Mg4 Mg8 3.161208 1_555
Mg5 Mg9 3.005957 1_555
Mg5 Mg8 3.005957 1_555
Mg6 Mg8 2.975978 1_555
Mg6 Mg8 3.287242 1_545
Mg7 Mg9 2.975978 1_555
Mg7 Mg9 3.287242 1_545
Mg10 Mg8 2.975978 1_655
Mg10 Mg6 2.975979 1_655
Mg10 Mg3 3.005951 1_555
Mg10 Mg5 3.005957 1_545
Mg10 Mg12 3.135346 1_545
Mg10 Mg12 3.135346 1_555
Mg10 Mg2 3.161202 1_555
Mg10 Mg4 3.161208 1_545
Mg10 Mg8 3.287242 1_545
Mg10 Mg6 3.287243 1_555
Mg11 Mg9 2.975978 1_655
Mg11 Mg7 2.975979 1_655
Mg11 Mg3 3.005951 1_555
Mg11 Mg5 3.005957 1_545
Mg11 Mg13 3.135346 1_545
Mg11 Mg13 3.135346 1_555
Mg11 Mg2 3.161202 1_556
Mg11 Mg4 3.161208 1_546
Mg11 Mg9 3.287242 1_545
Mg11 Mg7 3.287243 1_555
Mg12 Mg4 3.040751 1_555
Mg12 Mg2 3.040757 1_555
Mg12 Mg5 3.058696 1_555
Mg12 Mg3 3.058702 1_555
Mg12 Mg6 3.135346 1_665
Mg12 Mg6 3.135346 1_555
Mg12 Mg8 3.135346 1_555
Mg12 Mg8 3.135346 1_655
Mg13 Mg4 3.040751 1_556
Mg13 Mg2 3.040757 1_556
Mg13 Mg5 3.058696 1_555
Mg13 Mg3 3.058702 1_555
Mg13 Mg7 3.135346 1_665
Mg13 Mg7 3.135346 1_555
Mg13 Mg9 3.135346 1_555
Mg13 Mg9 3.135346 1_655
Al0 Mg7 3.085382 1_554
Al0 Mg6 3.085382 1_555
Al0 Mg9 3.085388 1_554
Al0 Mg8 3.085388 1_555
Al0 Mg10 3.085388 1_455
Al0 Mg11 3.085388 1_454
Al0 Mg4 3.131621 1_555
Al0 Mg4 3.131621 1_445
Al0 Mg0 3.131621 1_555
Al0 Mg0 3.131621 1_545
Al0 Mg2 3.131621 1_455
Al0 Mg2 3.131621 1_555
Co0 Mg7 2.917676 1_555
Co0 Mg6 2.917676 1_555
Co0 Mg8 2.917683 1_555
Co0 Mg9 2.917683 1_555
Co0 Mg11 2.917683 1_455
Co0 Mg10 2.917683 1_455
Co0 Mg5 3.131677 1_445
Co0 Mg1 3.131677 1_545
Co0 Mg5 3.131677 1_555
Co0 Mg1 3.131677 1_555
Co0 Mg3 3.131677 1_555
Co0 Mg3 3.131677 1_455
