# generated using pymatgen
data_TeMoS
_symmetry_space_group_name_H-M   'P 1'
_cell_length_a   3.36181508
_cell_length_b   3.36181508
_cell_length_c   39.73002700
_cell_angle_alpha   90.00000000
_cell_angle_beta   90.00000000
_cell_angle_gamma   119.99998195
_symmetry_Int_Tables_number   1
_chemical_formula_structural   TeMoS
_chemical_formula_sum   'Te4 Mo4 S4'
_cell_volume   388.86352937
_cell_formula_units_Z   4
loop_
 _symmetry_equiv_pos_site_id
 _symmetry_equiv_pos_as_xyz
  1  'x, y, z'
loop_
 _atom_site_type_symbol
 _atom_site_label
 _atom_site_symmetry_multiplicity
 _atom_site_fract_x
 _atom_site_fract_y
 _atom_site_fract_z
 _atom_site_occupancy
  Te  Te0  1  0.33333300  0.66666700  0.70681700  1
  Te  Te1  1  0.66666700  0.33333300  0.42035200  1
  Te  Te2  1  0.66666700  0.33333300  0.51544600  1
  Te  Te3  1  0.33333300  0.66666700  0.61186400  1
  Mo  Mo0  1  0.33333300  0.66666700  0.09396600  1
  Mo  Mo1  1  0.33333300  0.66666700  0.46792300  1
  Mo  Mo2  1  0.66666700  0.33333300  0.28169500  1
  Mo  Mo3  1  0.66666700  0.33333300  0.65937700  1
  S  S0  1  0.33333300  0.66666700  0.31979400  1
  S  S1  1  0.66666700  0.33333300  0.05584700  1
  S  S2  1  0.66666700  0.33333300  0.13208000  1
  S  S3  1  0.33333300  0.66666700  0.24358900  1
loop_
_geom_bond_atom_site_label_1
_geom_bond_atom_site_label_2
_geom_bond_distance
_geom_bond_site_symmetry_2
Mo0 S2 2.461763 1_565
Mo0 S2 2.461763 1_455
Mo0 S2 2.461767 1_555
Mo0 S1 2.461885 1_455
Mo0 S1 2.461885 1_565
Mo0 S1 2.461889 1_555
Mo1 Te2 2.707793 1_455
Mo1 Te2 2.707793 1_565
Mo1 Te2 2.707797 1_555
Mo1 Te1 2.709123 1_455
Mo1 Te1 2.709123 1_565
Mo1 Te1 2.709127 1_555
Mo2 S0 2.461396 1_545
Mo2 S0 2.461396 1_655
Mo2 S0 2.461400 1_555
Mo2 S3 2.461567 1_545
Mo2 S3 2.461567 1_655
Mo2 S3 2.461571 1_555
Mo3 Te0 2.705495 1_545
Mo3 Te0 2.705495 1_655
Mo3 Te0 2.705499 1_555
Mo3 Te3 2.707516 1_545
Mo3 Te3 2.707516 1_655
Mo3 Te3 2.707520 1_555
