# generated using pymatgen
data_Ni3Ag
_symmetry_space_group_name_H-M   'P 1'
_cell_length_a   4.51267736
_cell_length_b   4.51267736
_cell_length_c   4.51267736
_cell_angle_alpha   131.83979410
_cell_angle_beta   131.83979410
_cell_angle_gamma   70.48217268
_symmetry_Int_Tables_number   1
_chemical_formula_structural   Ni3Ag
_chemical_formula_sum   'Ni3 Ag1'
_cell_volume   49.97939483
_cell_formula_units_Z   1
loop_
 _symmetry_equiv_pos_site_id
 _symmetry_equiv_pos_as_xyz
  1  'x, y, z'
loop_
 _atom_site_type_symbol
 _atom_site_label
 _atom_site_symmetry_multiplicity
 _atom_site_fract_x
 _atom_site_fract_y
 _atom_site_fract_z
 _atom_site_occupancy
  Ni  Ni0  1  0.75000000  0.25000000  0.50000000  1
  Ni  Ni1  1  0.25000000  0.75000000  0.50000000  1
  Ni  Ni2  1  0.50000000  0.50000000  0.00000000  1
  Ag  Ag0  1  0.00000000  0.00000000  0.00000000  1
loop_
_geom_bond_atom_site_label_1
_geom_bond_atom_site_label_2
_geom_bond_distance
_geom_bond_site_symmetry_2
Ni0 Ni1 2.603897 1_645
Ni0 Ni1 2.603897 1_656
Ni0 Ni1 2.603897 1_555
Ni0 Ni1 2.603897 1_544
Ni0 Ni2 2.605021 1_656
Ni0 Ni2 2.605021 1_555
Ni0 Ni2 2.605021 1_545
Ni0 Ni2 2.605021 1_556
Ni1 Ni2 2.605021 1_455
Ni1 Ni2 2.605021 1_555
Ni1 Ni2 2.605021 1_566
Ni1 Ni2 2.605021 1_556
Ag0 Ni2 2.603897 1_545
Ag0 Ni2 2.603897 1_556
Ag0 Ni2 2.603897 1_455
Ag0 Ni2 2.603897 1_444
Ag0 Ni1 2.605021 1_444
Ag0 Ni1 2.605021 1_555
Ag0 Ni1 2.605021 1_544
Ag0 Ni1 2.605021 1_545
Ag0 Ni0 2.605021 1_555
Ag0 Ni0 2.605021 1_455
Ag0 Ni0 2.605021 1_454
Ag0 Ni0 2.605021 1_444
