# generated using pymatgen
data_Hf5NiSb3
_symmetry_space_group_name_H-M   'P 1'
_cell_length_a   8.51809313
_cell_length_b   8.51809313
_cell_length_c   5.69191537
_cell_angle_alpha   90.00000000
_cell_angle_beta   90.00000000
_cell_angle_gamma   119.99999293
_symmetry_Int_Tables_number   1
_chemical_formula_structural   Hf5NiSb3
_chemical_formula_sum   'Hf10 Ni2 Sb6'
_cell_volume   357.66287630
_cell_formula_units_Z   2
loop_
 _symmetry_equiv_pos_site_id
 _symmetry_equiv_pos_as_xyz
  1  'x, y, z'
loop_
 _atom_site_type_symbol
 _atom_site_label
 _atom_site_symmetry_multiplicity
 _atom_site_fract_x
 _atom_site_fract_y
 _atom_site_fract_z
 _atom_site_occupancy
  Hf  Hf0  1  0.66666700  0.33333300  0.50000000  1
  Hf  Hf1  1  0.33333300  0.66666700  0.50000000  1
  Hf  Hf2  1  0.33333300  0.66666700  0.00000000  1
  Hf  Hf3  1  0.66666700  0.33333300  0.00000000  1
  Hf  Hf4  1  0.74505017  0.74505017  0.25000000  1
  Hf  Hf5  1  0.25494983  -0.00000000  0.25000000  1
  Hf  Hf6  1  -0.00000000  0.25494983  0.25000000  1
  Hf  Hf7  1  0.25494983  0.25494983  0.75000000  1
  Hf  Hf8  1  0.74505017  0.00000000  0.75000000  1
  Hf  Hf9  1  0.00000000  0.74505017  0.75000000  1
  Ni  Ni0  1  0.00000000  0.00000000  0.00000000  1
  Ni  Ni1  1  0.00000000  0.00000000  0.50000000  1
  Sb  Sb0  1  0.38896321  0.38896321  0.25000000  1
  Sb  Sb1  1  0.61103679  -0.00000000  0.25000000  1
  Sb  Sb2  1  -0.00000000  0.61103679  0.25000000  1
  Sb  Sb3  1  0.61103679  0.61103679  0.75000000  1
  Sb  Sb4  1  0.38896321  0.00000000  0.75000000  1
  Sb  Sb5  1  0.00000000  0.38896321  0.75000000  1
loop_
_geom_bond_atom_site_label_1
_geom_bond_atom_site_label_2
_geom_bond_distance
_geom_bond_site_symmetry_2
Hf0 Hf3 2.845958 1_555
Hf0 Hf3 2.845958 1_556
Hf0 Sb1 2.994315 1_555
Hf0 Sb5 2.994315 1_655
Hf0 Sb4 2.994318 1_555
Hf0 Sb2 2.994318 1_655
Hf0 Sb3 2.994322 1_555
Hf0 Sb0 2.994322 1_555
Hf1 Hf2 2.845958 1_556
Hf1 Hf2 2.845958 1_555
Hf1 Sb4 2.994315 1_565
Hf1 Sb2 2.994315 1_555
Hf1 Sb1 2.994318 1_565
Hf1 Sb5 2.994318 1_555
Hf1 Sb0 2.994322 1_555
Hf1 Sb3 2.994322 1_555
Hf2 Sb4 2.994315 1_564
Hf2 Sb2 2.994315 1_555
Hf2 Sb1 2.994318 1_565
Hf2 Sb5 2.994318 1_554
Hf2 Sb0 2.994322 1_555
Hf2 Sb3 2.994322 1_554
Hf3 Sb1 2.994315 1_555
Hf3 Sb5 2.994315 1_654
Hf3 Sb4 2.994318 1_554
Hf3 Sb2 2.994318 1_655
Hf3 Sb3 2.994322 1_554
Hf3 Sb0 2.994322 1_555
Hf4 Ni1 2.596361 1_665
Hf4 Ni0 2.596361 1_665
Hf4 Sb1 2.915201 1_565
Hf4 Sb2 2.915201 1_655
Hf4 Sb0 3.033182 1_555
Hf4 Sb3 3.066364 1_555
Hf4 Sb3 3.066364 1_554
Hf5 Ni0 2.596361 1_555
Hf5 Ni1 2.596361 1_555
Hf5 Sb0 2.915201 1_555
Hf5 Sb2 2.915201 1_545
Hf5 Sb1 3.033182 1_555
Hf5 Sb4 3.066364 1_555
Hf5 Sb4 3.066364 1_554
Hf6 Ni0 2.596361 1_555
Hf6 Ni1 2.596361 1_555
Hf6 Sb0 2.915201 1_555
Hf6 Sb1 2.915201 1_455
Hf6 Sb2 3.033182 1_555
Hf6 Sb5 3.066364 1_554
Hf6 Sb5 3.066364 1_555
Hf7 Ni1 2.596361 1_555
Hf7 Ni0 2.596361 1_556
Hf7 Sb4 2.915201 1_555
Hf7 Sb5 2.915201 1_555
Hf7 Sb3 3.033182 1_555
Hf7 Sb0 3.066364 1_555
Hf7 Sb0 3.066364 1_556
Hf8 Ni1 2.596361 1_655
Hf8 Ni0 2.596361 1_656
Hf8 Sb3 2.915201 1_545
Hf8 Sb5 2.915201 1_655
Hf8 Sb4 3.033182 1_555
Hf8 Sb1 3.066364 1_556
Hf8 Sb1 3.066364 1_555
Hf9 Ni0 2.596361 1_566
Hf9 Ni1 2.596361 1_565
Hf9 Sb3 2.915201 1_455
Hf9 Sb4 2.915201 1_565
Hf9 Sb5 3.033182 1_555
Hf9 Sb2 3.066364 1_555
Hf9 Sb2 3.066364 1_556
