# generated using pymatgen
data_Dy2Al6Si4Au
_symmetry_space_group_name_H-M   'P 1'
_cell_length_a   16.95644266
_cell_length_b   16.95644266
_cell_length_c   16.95644290
_cell_angle_alpha   14.25651126
_cell_angle_beta   14.25651126
_cell_angle_gamma   14.25651051
_symmetry_Int_Tables_number   1
_chemical_formula_structural   Dy2Al6Si4Au
_chemical_formula_sum   'Dy2 Al6 Si4 Au1'
_cell_volume   257.37687324
_cell_formula_units_Z   1
loop_
 _symmetry_equiv_pos_site_id
 _symmetry_equiv_pos_as_xyz
  1  'x, y, z'
loop_
 _atom_site_type_symbol
 _atom_site_label
 _atom_site_symmetry_multiplicity
 _atom_site_fract_x
 _atom_site_fract_y
 _atom_site_fract_z
 _atom_site_occupancy
  Dy  Dy0  1  0.56546600  0.56546600  0.56546600  1
  Dy  Dy1  1  0.43453400  0.43453400  0.43453400  1
  Al  Al0  1  0.18548000  0.18548000  0.18548000  1
  Al  Al1  1  0.81452000  0.81452000  0.81452000  1
  Al  Al2  1  0.94772100  0.94772100  0.94772100  1
  Al  Al3  1  0.68315100  0.68315100  0.68315100  1
  Al  Al4  1  0.31684900  0.31684900  0.31684900  1
  Al  Al5  1  0.05227900  0.05227900  0.05227900  1
  Si  Si0  1  0.26567100  0.26567100  0.26567100  1
  Si  Si1  1  0.13512500  0.13512500  0.13512500  1
  Si  Si2  1  0.86487500  0.86487500  0.86487500  1
  Si  Si3  1  0.73432900  0.73432900  0.73432900  1
  Au  Au0  1  0.00000000  0.00000000  0.00000000  1
loop_
_geom_bond_atom_site_label_1
_geom_bond_atom_site_label_2
_geom_bond_distance
_geom_bond_site_symmetry_2
Dy0 Si0 2.958737 1_655
Dy0 Si0 2.958737 1_565
Dy0 Si0 2.958737 1_556
Dy0 Si2 2.969870 1_455
Dy0 Si2 2.969870 1_545
Dy0 Si2 2.969870 1_554
Dy1 Si3 2.958737 1_455
Dy1 Si3 2.958737 1_545
Dy1 Si3 2.958737 1_554
Dy1 Si1 2.969870 1_565
Dy1 Si1 2.969870 1_655
Dy1 Si1 2.969870 1_556
Al0 Si2 2.512733 1_454
Al0 Si2 2.512733 1_544
Al0 Si2 2.512733 1_445
Al0 Si1 2.535093 1_555
Al1 Si1 2.512733 1_566
Al1 Si1 2.512733 1_656
Al1 Si1 2.512733 1_665
Al1 Si2 2.535093 1_555
Al2 Si0 2.550097 1_566
Al2 Si0 2.550097 1_656
Al2 Si0 2.550098 1_665
Al2 Au0 2.631955 1_666
Al3 Au0 2.567475 1_566
Al3 Au0 2.567475 1_656
Al3 Au0 2.567475 1_665
Al3 Si3 2.576526 1_555
Al4 Au0 2.567475 1_565
Al4 Au0 2.567475 1_655
Al4 Au0 2.567475 1_556
Al4 Si0 2.576526 1_555
Al5 Si3 2.550097 1_544
Al5 Si3 2.550097 1_454
Al5 Si3 2.550098 1_445
Al5 Au0 2.631955 1_555
