# generated using pymatgen
data_HoAlSi
_symmetry_space_group_name_H-M   'P 1'
_cell_length_a   5.49869910
_cell_length_b   5.49869910
_cell_length_c   5.66636672
_cell_angle_alpha   90.00000000
_cell_angle_beta   90.00000000
_cell_angle_gamma   137.76466623
_symmetry_Int_Tables_number   1
_chemical_formula_structural   HoAlSi
_chemical_formula_sum   'Ho2 Al2 Si2'
_cell_volume   115.16179742
_cell_formula_units_Z   2
loop_
 _symmetry_equiv_pos_site_id
 _symmetry_equiv_pos_as_xyz
  1  'x, y, z'
loop_
 _atom_site_type_symbol
 _atom_site_label
 _atom_site_symmetry_multiplicity
 _atom_site_fract_x
 _atom_site_fract_y
 _atom_site_fract_z
 _atom_site_occupancy
  Ho  Ho0  1  0.69464728  0.30535272  0.25000000  1
  Ho  Ho1  1  0.30535272  0.69464728  0.75000000  1
  Al  Al0  1  -0.00000000  0.00000000  0.00000000  1
  Al  Al1  1  -0.00000000  0.00000000  0.50000000  1
  Si  Si0  1  0.40040815  0.59959185  0.25000000  1
  Si  Si1  1  0.59959185  0.40040815  0.75000000  1
loop_
_geom_bond_atom_site_label_1
_geom_bond_atom_site_label_2
_geom_bond_distance
_geom_bond_site_symmetry_2
Ho0 Si0 2.894910 1_545
Ho0 Si0 2.894910 1_655
Ho0 Si1 2.996308 1_555
Ho0 Si1 2.996308 1_554
Ho0 Si0 3.018552 1_555
Ho1 Si1 2.894910 1_455
Ho1 Si1 2.894910 1_565
Ho1 Si0 2.996308 1_556
Ho1 Si0 2.996308 1_555
Ho1 Si1 3.018552 1_555
Al0 Si1 2.641086 1_554
Al0 Si0 2.641086 1_445
Al0 Si1 2.641086 1_444
Al0 Si0 2.641086 1_555
Al0 Ho1 3.149429 1_444
Al0 Ho0 3.149429 1_445
Al0 Ho0 3.149429 1_555
Al0 Ho1 3.149429 1_554
Al1 Si1 2.641086 1_555
Al1 Si1 2.641086 1_445
Al1 Si0 2.641086 1_445
Al1 Si0 2.641086 1_555
Al1 Ho0 3.149429 1_445
Al1 Ho0 3.149429 1_555
Al1 Ho1 3.149429 1_445
Al1 Ho1 3.149429 1_555
