# generated using pymatgen
data_In4Ag3(GeSe4)4
_symmetry_space_group_name_H-M   'P 1'
_cell_length_a   12.59495279
_cell_length_b   12.59495279
_cell_length_c   12.59495279
_cell_angle_alpha   141.69210730
_cell_angle_beta   141.69210730
_cell_angle_gamma   55.29285994
_symmetry_Int_Tables_number   1
_chemical_formula_structural   In4Ag3(GeSe4)4
_chemical_formula_sum   'In4 Ag3 Ge4 Se16'
_cell_volume   762.13371022
_cell_formula_units_Z   1
loop_
 _symmetry_equiv_pos_site_id
 _symmetry_equiv_pos_as_xyz
  1  'x, y, z'
loop_
 _atom_site_type_symbol
 _atom_site_label
 _atom_site_symmetry_multiplicity
 _atom_site_fract_x
 _atom_site_fract_y
 _atom_site_fract_z
 _atom_site_occupancy
  In  In0  1  0.12707300  0.62260700  0.99491600  1
  In  In1  1  0.62769000  0.13215700  0.00508400  1
  In  In2  1  0.37739300  0.37231000  0.50446700  1
  In  In3  1  0.86784300  0.87292700  0.49553300  1
  Ag  Ag0  1  0.24975200  0.24975200  0.00000000  1
  Ag  Ag1  1  0.75024800  0.75024800  0.00000000  1
  Ag  Ag2  1  0.00000000  0.00000000  0.00000000  1
  Ge  Ge0  1  0.75000000  0.25000000  0.50000000  1
  Ge  Ge1  1  0.25000000  0.75000000  0.50000000  1
  Ge  Ge2  1  0.50340900  0.00340900  0.50000000  1
  Ge  Ge3  1  0.99659100  0.49659100  0.50000000  1
  Se  Se0  1  0.28844200  0.04933500  0.70875400  1
  Se  Se1  1  0.78796700  0.54859200  0.70702300  1
  Se  Se2  1  0.34058100  0.57968800  0.29124600  1
  Se  Se3  1  0.84156900  0.08094400  0.29297700  1
  Se  Se4  1  0.69415900  0.46300600  0.27297600  1
  Se  Se5  1  0.20344200  0.96193000  0.29294500  1
  Se  Se6  1  0.19003000  0.42118300  0.72702400  1
  Se  Se7  1  0.66898400  0.91049700  0.70705500  1
  Se  Se8  1  0.45140800  0.15843100  0.23937500  1
  Se  Se9  1  0.95066500  0.65941900  0.23910700  1
  Se  Se10  1  0.91905600  0.21203300  0.76062500  1
  Se  Se11  1  0.42031200  0.71155800  0.76089300  1
  Se  Se12  1  0.03807000  0.33101600  0.24151300  1
  Se  Se13  1  0.53699400  0.80997000  0.23115300  1
  Se  Se14  1  0.08950300  0.79655800  0.75848700  1
  Se  Se15  1  0.57881700  0.30584100  0.76884700  1
loop_
_geom_bond_atom_site_label_1
_geom_bond_atom_site_label_2
_geom_bond_distance
_geom_bond_site_symmetry_2
In0 Se6 2.631279 1_555
In0 Se5 2.668087 1_556
In0 Se1 2.680132 1_455
In0 Se2 2.685733 1_556
In1 Se4 2.631282 1_555
In1 Se7 2.668087 1_544
In1 Se3 2.680130 1_555
In1 Se0 2.685724 1_554
In2 Se15 2.631280 1_555
In2 Se12 2.668087 1_555
In2 Se8 2.680139 1_555
In2 Se11 2.685726 1_555
In3 Se13 2.631282 1_555
In3 Se14 2.668087 1_655
In3 Se10 2.680130 1_565
In3 Se9 2.685724 1_555
Ag0 Se2 2.634015 1_555
Ag0 Se0 2.634015 1_554
Ag0 Se8 2.638473 1_555
Ag0 Se10 2.638473 1_454
Ag1 Se9 2.634015 1_555
Ag1 Se11 2.634015 1_554
Ag1 Se3 2.638473 1_565
Ag1 Se1 2.638473 1_554
Ag2 Se5 2.636122 1_545
Ag2 Se12 2.636129 1_555
Ag2 Se7 2.636131 1_444
Ag2 Se14 2.636131 1_544
Ge0 Se8 2.423328 1_555
Ge0 Se1 2.423328 1_555
Ge0 Se3 2.423328 1_555
Ge0 Se10 2.423328 1_555
Ge1 Se2 2.425976 1_555
Ge1 Se0 2.425976 1_565
Ge1 Se9 2.425976 1_455
Ge1 Se11 2.425976 1_555
Ge2 Se13 2.389093 1_545
Ge2 Se15 2.389093 1_555
Ge2 Se5 2.448383 1_545
Ge2 Se7 2.448387 1_545
Ge3 Se4 2.389093 1_555
Ge3 Se6 2.389093 1_655
Ge3 Se12 2.448377 1_655
Ge3 Se14 2.448387 1_655
