# generated using pymatgen
data_Zn(BiO2)2
_symmetry_space_group_name_H-M   'P 1'
_cell_length_a   6.73852126
_cell_length_b   6.73852126
_cell_length_c   6.73852140
_cell_angle_alpha   62.12318625
_cell_angle_beta   62.12318625
_cell_angle_gamma   62.12318093
_symmetry_Int_Tables_number   1
_chemical_formula_structural   Zn(BiO2)2
_chemical_formula_sum   'Zn2 Bi4 O8'
_cell_volume   226.62679161
_cell_formula_units_Z   2
loop_
 _symmetry_equiv_pos_site_id
 _symmetry_equiv_pos_as_xyz
  1  'x, y, z'
loop_
 _atom_site_type_symbol
 _atom_site_label
 _atom_site_symmetry_multiplicity
 _atom_site_fract_x
 _atom_site_fract_y
 _atom_site_fract_z
 _atom_site_occupancy
  Zn  Zn0  1  0.99823500  0.99823500  0.99823500  1
  Zn  Zn1  1  0.37619600  0.37619600  0.37619600  1
  Bi  Bi0  1  0.75699700  0.75699700  0.75699700  1
  Bi  Bi1  1  0.88256500  0.37332900  0.37332900  1
  Bi  Bi2  1  0.37332900  0.37332900  0.88256500  1
  Bi  Bi3  1  0.37332900  0.88256500  0.37332900  1
  O  O0  1  0.59982000  0.16166400  0.59982000  1
  O  O1  1  0.59982000  0.59982000  0.16166400  1
  O  O2  1  0.16166400  0.59982000  0.59982000  1
  O  O3  1  0.62197200  0.62197200  0.62197200  1
  O  O4  1  0.12430800  0.12430800  0.12430800  1
  O  O5  1  0.62218300  0.12978900  0.12978900  1
  O  O6  1  0.12978900  0.12978900  0.62218300  1
  O  O7  1  0.12978900  0.62218300  0.12978900  1
loop_
_geom_bond_atom_site_label_1
_geom_bond_atom_site_label_2
_geom_bond_distance
_geom_bond_site_symmetry_2
Bi0 O3 2.192280 1_555
Bi0 O0 2.307966 1_565
Bi0 O2 2.307966 1_655
Bi0 O1 2.307966 1_556
Bi1 O6 2.400588 1_655
Bi1 O7 2.400589 1_655
Bi1 O1 2.404187 1_555
Bi1 O0 2.404188 1_555
Bi1 O4 2.409552 1_655
Bi1 O3 2.412583 1_555
Bi2 O7 2.400588 1_556
Bi2 O5 2.400588 1_556
Bi2 O2 2.404187 1_555
Bi2 O0 2.404187 1_555
Bi2 O4 2.409552 1_556
Bi2 O3 2.412584 1_555
Bi3 O6 2.400588 1_565
Bi3 O5 2.400589 1_565
Bi3 O1 2.404187 1_555
Bi3 O2 2.404188 1_555
Bi3 O4 2.409552 1_565
Bi3 O3 2.412583 1_555
O0 Zn1 2.163449 1_555
O1 Zn1 2.163450 1_555
O2 Zn1 2.163449 1_555
O4 Zn0 2.046935 1_444
O5 Zn0 2.127567 1_544
O5 Zn1 2.385830 1_555
O6 Zn0 2.127567 1_445
O6 Zn1 2.385830 1_555
O7 Zn0 2.127567 1_454
O7 Zn1 2.385830 1_555
