# generated using pymatgen
data_NaMg14Zr
_symmetry_space_group_name_H-M   'P 1'
_cell_length_a   6.50587651
_cell_length_b   6.50587596
_cell_length_c   10.18690320
_cell_angle_alpha   90.00000000
_cell_angle_beta   90.00000000
_cell_angle_gamma   120.00000274
_symmetry_Int_Tables_number   1
_chemical_formula_structural   NaMg14Zr
_chemical_formula_sum   'Na1 Mg14 Zr1'
_cell_volume   373.40866660
_cell_formula_units_Z   1
loop_
 _symmetry_equiv_pos_site_id
 _symmetry_equiv_pos_as_xyz
  1  'x, y, z'
loop_
 _atom_site_type_symbol
 _atom_site_label
 _atom_site_symmetry_multiplicity
 _atom_site_fract_x
 _atom_site_fract_y
 _atom_site_fract_z
 _atom_site_occupancy
  Na  Na0  1  0.16666700  0.33333300  0.62500000  1
  Mg  Mg0  1  0.17173613  0.83586757  0.12500000  1
  Mg  Mg1  1  0.16980452  0.83490176  0.62500000  1
  Mg  Mg2  1  0.66413243  0.32826387  0.12500000  1
  Mg  Mg3  1  0.66509824  0.33019548  0.62500000  1
  Mg  Mg4  1  0.66413243  0.83586757  0.12500000  1
  Mg  Mg5  1  0.66509824  0.83490176  0.62500000  1
  Mg  Mg6  1  0.33259017  0.16740983  0.37175649  1
  Mg  Mg7  1  0.33259017  0.16740983  0.87824351  1
  Mg  Mg8  1  0.33259017  0.66518134  0.37175649  1
  Mg  Mg9  1  0.33259017  0.66518134  0.87824351  1
  Mg  Mg10  1  0.83481866  0.16740983  0.37175649  1
  Mg  Mg11  1  0.83481866  0.16740983  0.87824351  1
  Mg  Mg12  1  0.83333300  0.66666700  0.37408346  1
  Mg  Mg13  1  0.83333300  0.66666700  0.87591654  1
  Zr  Zr0  1  0.16666700  0.33333300  0.12500000  1
loop_
_geom_bond_atom_site_label_1
_geom_bond_atom_site_label_2
_geom_bond_distance
_geom_bond_site_symmetry_2
Mg0 Mg8 3.131931 1_555
Mg0 Mg9 3.131931 1_554
Mg0 Mg6 3.131937 1_565
Mg0 Mg7 3.131937 1_564
Mg0 Mg12 3.173902 1_455
Mg0 Mg13 3.173902 1_454
Mg0 Mg2 3.203469 1_565
Mg0 Mg4 3.203470 1_555
Mg0 Zr0 3.253063 1_565
Mg0 Zr0 3.253063 1_555
Mg0 Mg2 3.302407 1_455
Mg0 Mg4 3.302407 1_455
Mg1 Mg13 3.182355 1_455
Mg1 Mg12 3.182355 1_455
Mg1 Mg8 3.188326 1_555
Mg1 Mg9 3.188326 1_555
Mg1 Mg7 3.188333 1_565
Mg1 Mg6 3.188333 1_565
Mg1 Mg3 3.222320 1_565
Mg1 Mg5 3.222320 1_555
Mg1 Na0 3.252986 1_555
Mg1 Na0 3.252986 1_565
Mg1 Mg3 3.283556 1_455
Mg1 Mg5 3.283557 1_455
Mg2 Mg7 3.131937 1_554
Mg2 Mg6 3.131937 1_555
Mg2 Mg4 3.203469 1_545
Mg2 Zr0 3.253064 1_555
Mg2 Zr0 3.253064 1_655
Mg2 Mg4 3.302407 1_555
Mg3 Mg6 3.188333 1_555
Mg3 Mg7 3.188333 1_555
Mg3 Mg5 3.222320 1_545
Mg3 Na0 3.252986 1_555
Mg3 Na0 3.252986 1_655
Mg3 Mg5 3.283556 1_555
Mg4 Mg9 3.131937 1_554
Mg4 Mg8 3.131937 1_555
Mg4 Zr0 3.253063 1_555
Mg4 Zr0 3.253063 1_665
Mg5 Mg8 3.188333 1_555
Mg5 Mg9 3.188333 1_555
Mg5 Na0 3.252986 1_555
Mg5 Na0 3.252986 1_665
Mg6 Zr0 3.132796 1_555
Mg6 Na0 3.186064 1_555
Mg6 Mg8 3.238440 1_555
Mg6 Mg8 3.267436 1_545
Mg7 Zr0 3.132796 1_556
Mg7 Na0 3.186064 1_555
Mg7 Mg9 3.238440 1_555
Mg7 Mg9 3.267436 1_545
Mg8 Zr0 3.132803 1_555
Mg8 Na0 3.186070 1_555
Mg9 Zr0 3.132803 1_556
Mg9 Na0 3.186070 1_555
Mg10 Mg2 3.131931 1_555
Mg10 Mg4 3.131937 1_545
Mg10 Zr0 3.132803 1_655
Mg10 Na0 3.186070 1_655
Mg10 Mg3 3.188326 1_555
Mg10 Mg5 3.188333 1_545
Mg10 Mg8 3.238440 1_655
Mg10 Mg6 3.238440 1_655
Mg10 Mg12 3.253035 1_545
Mg10 Mg12 3.253035 1_555
Mg10 Mg8 3.267436 1_545
Mg10 Mg6 3.267437 1_555
Mg11 Mg2 3.131931 1_556
Mg11 Mg4 3.131937 1_546
Mg11 Zr0 3.132803 1_656
Mg11 Na0 3.186070 1_655
Mg11 Mg3 3.188326 1_555
Mg11 Mg5 3.188333 1_545
Mg11 Mg9 3.238440 1_655
Mg11 Mg7 3.238440 1_655
Mg11 Mg13 3.253035 1_545
Mg11 Mg13 3.253035 1_555
Mg11 Mg9 3.267436 1_545
Mg11 Mg7 3.267437 1_555
Mg12 Mg4 3.173895 1_555
Mg12 Mg2 3.173902 1_555
Mg12 Mg5 3.182348 1_555
Mg12 Mg3 3.182355 1_555
Mg12 Mg6 3.253035 1_665
Mg12 Mg6 3.253035 1_555
Mg12 Mg8 3.253035 1_655
Mg12 Mg8 3.253035 1_555
Mg13 Mg4 3.173895 1_556
Mg13 Mg2 3.173902 1_556
Mg13 Mg5 3.182348 1_555
Mg13 Mg3 3.182355 1_555
Mg13 Mg7 3.253035 1_665
Mg13 Mg7 3.253035 1_555
Mg13 Mg9 3.253035 1_655
Mg13 Mg9 3.253035 1_555
