# generated using pymatgen
data_Tb3TaO7
_symmetry_space_group_name_H-M   'P 1'
_cell_length_a   6.47015615
_cell_length_b   6.47015615
_cell_length_c   7.45982022
_cell_angle_alpha   90.00000000
_cell_angle_beta   90.00000000
_cell_angle_gamma   108.87107442
_symmetry_Int_Tables_number   1
_chemical_formula_structural   Tb3TaO7
_chemical_formula_sum   'Tb6 Ta2 O14'
_cell_volume   295.50389635
_cell_formula_units_Z   2
loop_
 _symmetry_equiv_pos_site_id
 _symmetry_equiv_pos_as_xyz
  1  'x, y, z'
loop_
 _atom_site_type_symbol
 _atom_site_label
 _atom_site_symmetry_multiplicity
 _atom_site_fract_x
 _atom_site_fract_y
 _atom_site_fract_z
 _atom_site_occupancy
  Tb  Tb0  1  0.46491789  0.00037108  0.25786336  1
  Tb  Tb1  1  0.99962892  0.53508211  0.24213664  1
  Tb  Tb2  1  0.46722405  0.46722405  0.00000000  1
  Tb  Tb3  1  0.53277595  0.53277595  0.50000000  1
  Tb  Tb4  1  0.53508211  0.99962892  0.75786336  1
  Tb  Tb5  1  0.00037108  0.46491789  0.74213664  1
  Ta  Ta0  1  0.00192937  0.00192937  0.50000000  1
  Ta  Ta1  1  0.99807063  0.99807063  0.00000000  1
  O  O0  1  0.93331713  0.06668287  0.75000000  1
  O  O1  1  0.63882400  0.36117600  0.75000000  1
  O  O2  1  0.30853690  0.05226337  0.54239348  1
  O  O3  1  0.94773663  0.69146310  0.95760652  1
  O  O4  1  0.62890472  0.37109528  0.25000000  1
  O  O5  1  0.91811422  0.67306640  0.52473462  1
  O  O6  1  0.32693360  0.08188578  0.97526538  1
  O  O7  1  0.08188578  0.32693360  0.02473462  1
  O  O8  1  0.67306640  0.91811422  0.47526538  1
  O  O9  1  0.37109528  0.62890472  0.75000000  1
  O  O10  1  0.69146310  0.94773663  0.04239348  1
  O  O11  1  0.05226337  0.30853690  0.45760652  1
  O  O12  1  0.36117600  0.63882400  0.25000000  1
  O  O13  1  0.06668287  0.93331713  0.25000000  1
loop_
_geom_bond_atom_site_label_1
_geom_bond_atom_site_label_2
_geom_bond_distance
_geom_bond_site_symmetry_2
O0 Ta1 1.992732 1_546
O0 Ta0 1.992732 1_655
O0 Tb5 2.471361 1_655
O0 Tb4 2.471361 1_545
O1 Tb4 2.215950 1_545
O1 Tb5 2.215950 1_655
O1 Tb2 2.382095 1_556
O1 Tb3 2.382095 1_555
O2 Ta0 1.929665 1_555
O2 Tb4 2.273990 1_545
O2 Tb0 2.421040 1_555
O2 Tb3 2.992148 1_555
O3 Ta1 1.929665 1_556
O3 Tb5 2.273990 1_655
O3 Tb1 2.421040 1_556
O3 Tb2 2.992148 1_556
O4 Tb0 2.288314 1_555
O4 Tb1 2.288314 1_555
O4 Tb3 2.319507 1_555
O4 Tb2 2.319507 1_555
O5 Ta0 2.027119 1_665
O5 Tb5 2.278338 1_655
O5 Tb3 2.368558 1_555
O5 Tb1 2.413302 1_555
O6 Ta1 2.027119 1_446
O6 Tb4 2.278338 1_545
O6 Tb2 2.368558 1_556
O6 Tb0 2.413302 1_556
O7 Ta1 2.027119 1_445
O7 Tb1 2.278338 1_455
O7 Tb2 2.368558 1_555
O7 Tb5 2.413302 1_554
O8 Ta0 2.027119 1_665
O8 Tb0 2.278338 1_565
O8 Tb3 2.368558 1_555
O8 Tb4 2.413302 1_555
O9 Tb5 2.288314 1_555
O9 Tb4 2.288314 1_555
O9 Tb3 2.319507 1_555
O9 Tb2 2.319507 1_556
O10 Ta1 1.929665 1_555
O10 Tb0 2.273990 1_565
O10 Tb4 2.421040 1_554
O10 Tb2 2.992148 1_555
O11 Ta0 1.929665 1_555
O11 Tb1 2.273990 1_455
O11 Tb5 2.421040 1_555
O11 Tb3 2.992148 1_555
O12 Tb1 2.215950 1_455
O12 Tb0 2.215950 1_565
O12 Tb2 2.382095 1_555
O12 Tb3 2.382095 1_555
O13 Ta1 1.992732 1_455
O13 Ta0 1.992732 1_565
O13 Tb1 2.471361 1_455
O13 Tb0 2.471361 1_565
