# generated using pymatgen
data_CeMgS3
_symmetry_space_group_name_H-M   'P 1'
_cell_length_a   6.68376168
_cell_length_b   6.68376168
_cell_length_c   6.82207241
_cell_angle_alpha   73.54189177
_cell_angle_beta   73.54189177
_cell_angle_gamma   109.63636125
_symmetry_Int_Tables_number   1
_chemical_formula_structural   CeMgS3
_chemical_formula_sum   'Ce2 Mg2 S6'
_cell_volume   249.93858953
_cell_formula_units_Z   2
loop_
 _symmetry_equiv_pos_site_id
 _symmetry_equiv_pos_as_xyz
  1  'x, y, z'
loop_
 _atom_site_type_symbol
 _atom_site_label
 _atom_site_symmetry_multiplicity
 _atom_site_fract_x
 _atom_site_fract_y
 _atom_site_fract_z
 _atom_site_occupancy
  Ce  Ce0  1  0.80480300  0.80480300  0.26277400  1
  Ce  Ce1  1  0.19519700  0.19519700  0.73722600  1
  Mg  Mg0  1  0.32613000  0.67387000  0.00000000  1
  Mg  Mg1  1  0.67387000  0.32613000  0.00000000  1
  S  S0  1  0.24786100  0.94414000  0.17647900  1
  S  S1  1  0.75213900  0.05586000  0.82352100  1
  S  S2  1  0.05586000  0.75213900  0.82352100  1
  S  S3  1  0.94414000  0.24786100  0.17647900  1
  S  S4  1  0.55594800  0.55594800  0.71521600  1
  S  S5  1  0.44405200  0.44405200  0.28478400  1
loop_
_geom_bond_atom_site_label_1
_geom_bond_atom_site_label_2
_geom_bond_distance
_geom_bond_site_symmetry_2
Ce0 S3 2.613642 1_565
Ce0 S0 2.613642 1_655
Ce0 S5 2.707832 1_555
Ce0 S4 2.717114 1_555
Ce0 S2 3.172500 1_654
Ce0 S1 3.172500 1_564
Ce1 S2 2.613642 1_545
Ce1 S1 2.613642 1_455
Ce1 S4 2.707832 1_555
Ce1 S5 2.717114 1_555
Ce1 S0 3.172500 1_546
Ce1 S3 3.172500 1_456
Mg0 S2 2.548902 1_554
Mg0 S0 2.548902 1_555
Mg0 S4 2.597220 1_554
Mg0 S5 2.597220 1_555
Mg0 S3 2.739572 1_455
Mg0 S1 2.739572 1_564
Mg1 S1 2.548902 1_554
Mg1 S3 2.548902 1_555
Mg1 S4 2.597220 1_554
Mg1 S5 2.597220 1_555
Mg1 S0 2.739572 1_545
Mg1 S2 2.739572 1_654
