# generated using pymatgen
data_Si3N4
_symmetry_space_group_name_H-M   'P 1'
_cell_length_a   11.32069715
_cell_length_b   10.89753967
_cell_length_c   10.43716926
_cell_angle_alpha   89.09564910
_cell_angle_beta   88.75446133
_cell_angle_gamma   90.51747231
_symmetry_Int_Tables_number   1
_chemical_formula_structural   Si3N4
_chemical_formula_sum   'Si45 N60'
_cell_volume   1287.08886521
_cell_formula_units_Z   15
loop_
 _symmetry_equiv_pos_site_id
 _symmetry_equiv_pos_as_xyz
  1  'x, y, z'
loop_
 _atom_site_type_symbol
 _atom_site_label
 _atom_site_symmetry_multiplicity
 _atom_site_fract_x
 _atom_site_fract_y
 _atom_site_fract_z
 _atom_site_occupancy
  Si  Si0  1  0.67975200  0.75037200  0.68361000  1
  Si  Si1  1  0.55458700  0.55431100  0.31980100  1
  Si  Si2  1  0.87307200  0.56021300  0.68586700  1
  Si  Si3  1  0.12342700  0.59223900  0.55600800  1
  Si  Si4  1  0.22315000  0.07095900  0.56828100  1
  Si  Si5  1  0.50248400  0.53334100  0.65320200  1
  Si  Si6  1  0.35999800  0.41877100  0.15592100  1
  Si  Si7  1  0.88913200  0.21278600  0.70403900  1
  Si  Si8  1  0.41482800  0.75069400  0.83835700  1
  Si  Si9  1  0.01452600  0.17826200  0.43810500  1
  Si  Si10  1  0.25194700  0.64686100  0.04265600  1
  Si  Si11  1  0.61777000  0.71771800  0.88493400  1
  Si  Si12  1  0.70533300  0.38386000  0.08868600  1
  Si  Si13  1  0.42111600  0.29385700  0.38642900  1
  Si  Si14  1  0.55166600  0.28521400  0.60346700  1
  Si  Si15  1  0.14881300  0.31939100  0.22490200  1
  Si  Si16  1  0.84589900  0.52285300  0.26715600  1
  Si  Si17  1  0.57253900  0.01316300  0.74554500  1
  Si  Si18  1  0.08853800  0.62841800  0.26233700  1
  Si  Si19  1  0.20980700  0.06340400  0.05550100  1
  Si  Si20  1  0.10646100  0.92800700  0.48142700  1
  Si  Si21  1  0.48174200  0.54206100  0.02803800  1
  Si  Si22  1  0.63941600  0.81602100  0.34205600  1
  Si  Si23  1  0.09246000  0.36823400  0.85710900  1
  Si  Si24  1  0.79317000  0.96003400  0.78685700  1
  Si  Si25  1  0.06064300  0.64175900  0.85960500  1
  Si  Si26  1  0.84496100  0.79540200  0.25228200  1
  Si  Si27  1  0.66471300  0.84116000  0.05699500  1
  Si  Si28  1  0.49429800  0.05830000  0.47289400  1
  Si  Si29  1  0.11337100  0.33293200  0.61987500  1
  Si  Si30  1  0.86841200  0.98481800  0.34570600  1
  Si  Si31  1  0.04421200  0.97122600  0.75672100  1
  Si  Si32  1  0.85993100  0.20453000  0.19296300  1
  Si  Si33  1  0.29008400  0.96389600  0.84239600  1
  Si  Si34  1  0.66393600  0.22493000  0.34560600  1
  Si  Si35  1  0.88762000  0.54549600  0.96280900  1
  Si  Si36  1  0.23758800  0.84592300  0.24915300  1
  Si  Si37  1  0.92216400  0.40187800  0.45745200  1
  Si  Si38  1  0.77005600  0.18851700  0.90991300  1
  Si  Si39  1  0.93261000  0.78617700  0.67994500  1
  Si  Si40  1  0.28612600  0.52676400  0.67097400  1
  Si  Si41  1  0.73332600  0.58949000  0.50317200  1
  Si  Si42  1  0.66523800  0.44202900  0.84145100  1
  Si  Si43  1  0.44668200  0.82765200  0.30065000  1
  Si  Si44  1  0.90081500  0.85254400  0.93920200  1
  N  N0  1  0.68536300  0.06099800  0.85806600  1
  N  N1  1  0.67733200  0.90782200  0.68131500  1
  N  N2  1  0.19057600  0.03092200  0.73359600  1
  N  N3  1  0.18232100  0.72092600  0.16785400  1
  N  N4  1  0.85998400  0.17007000  0.03846600  1
  N  N5  1  0.57364700  0.84154200  0.18341400  1
  N  N6  1  0.37280500  0.17343200  0.83818100  1
  N  N7  1  0.12739400  0.67941800  0.41621500  1
  N  N8  1  0.91273800  0.05514300  0.72742600  1
  N  N9  1  0.71459900  0.57379300  0.34085800  1
  N  N10  1  0.11882900  0.23724200  0.97592400  1
  N  N11  1  0.60900500  0.56195100  0.93599900  1
  N  N12  1  0.12608600  0.48040900  0.19788800  1
  N  N13  1  0.38671000  0.27443700  0.82141800  1
  N  N14  1  0.35438400  0.06691900  0.50618500  1
  N  N15  1  0.19177900  0.23796800  0.08258500  1
  N  N16  1  0.81439900  0.49619800  0.10123600  1
  N  N17  1  0.01381800  0.63342000  0.69458500  1
  N  N18  1  0.46256700  0.53948500  0.19675800  1
  N  N19  1  0.52565200  0.70165000  0.36851400  1
  N  N20  1  0.61360600  0.63029000  0.59749600  1
  N  N21  1  0.83050300  0.48318100  0.55740300  1
  N  N22  1  0.39305100  0.45720800  0.56976000  1
  N  N23  1  0.46172400  0.11039200  0.07483400  1
  N  N24  1  0.68602700  0.31983200  0.94486300  1
  N  N25  1  0.51899700  0.16961000  0.35238100  1
  N  N26  1  0.90375900  0.25157900  0.52529700  1
  N  N27  1  0.93253700  0.66152900  0.26081100  1
  N  N28  1  0.81214400  0.84405600  0.09634900  1
  N  N29  1  0.22935100  0.49676900  0.10524800  1
  N  N30  1  0.58161500  0.40440300  0.71339800  1
  N  N31  1  0.08952200  0.12771900  0.94795500  1
  N  N32  1  0.63526500  0.34207700  0.46252900  1
  N  N33  1  0.01096800  0.29854200  0.74343300  1
  N  N34  1  0.19004800  0.70643100  0.89670400  1
  N  N35  1  0.26517600  0.80055000  0.84167500  1
  N  N36  1  0.14122500  0.20485400  0.52738700  1
  N  N37  1  0.78317700  0.10935000  0.31665600  1
  N  N38  1  0.56674900  0.12477100  0.61861700  1
  N  N39  1  0.39736100  0.62055600  0.73178800  1
  N  N40  1  0.55781700  0.10083700  0.09232800  1
  N  N41  1  0.39553100  0.66909100  0.99306000  1
  N  N42  1  0.80981100  0.50597200  0.82347000  1
  N  N43  1  0.99347700  0.02177300  0.41613000  1
  N  N44  1  0.93646200  0.69610800  0.94102600  1
  N  N45  1  0.16501700  0.80749600  0.39702100  1
  N  N46  1  0.30389500  0.32649700  0.28303200  1
  N  N47  1  0.40430400  0.32364100  0.55446000  1
  N  N48  1  0.43951500  0.39089400  0.01907800  1
  N  N49  1  0.20072900  0.40635900  0.74002300  1
  N  N50  1  0.20751200  0.98385300  0.19066300  1
  N  N51  1  0.81461200  0.70660200  0.60500600  1
  N  N52  1  0.01018100  0.25024200  0.28290900  1
  N  N53  1  0.44132500  0.93214100  0.80107600  1
  N  N54  1  0.06639200  0.44860500  0.51173500  1
  N  N55  1  0.04315700  0.87013400  0.61831600  1
  N  N56  1  0.54719800  0.40093700  0.37314700  1
  N  N57  1  0.73593600  0.30520100  0.22259900  1
  N  N58  1  0.03306100  0.49522200  0.92757000  1
  N  N59  1  0.53891200  0.92155600  0.40930900  1
loop_
_geom_bond_atom_site_label_1
_geom_bond_atom_site_label_2
_geom_bond_distance
_geom_bond_site_symmetry_2
N0 Si38 1.779166 1_555
N0 Si24 1.806400 1_545
N0 Si17 1.831617 1_555
N1 Si0 1.716081 1_555
N1 Si17 1.785752 1_565
N1 Si24 1.823723 1_555
N2 Si33 1.770963 1_545
N2 Si31 1.784685 1_545
N2 Si4 1.802524 1_555
N3 Si10 1.726337 1_555
N3 Si36 1.735254 1_555
N3 Si18 1.737729 1_555
N4 Si32 1.661413 1_555
N4 Si38 1.712202 1_554
N5 Si27 1.656779 1_555
N5 Si22 1.848267 1_555
N5 Si43 1.870782 1_555
N6 Si33 2.459541 1_545
N7 Si3 1.728010 1_555
N7 Si18 1.770946 1_555
N8 Si7 1.755033 1_555
N8 Si31 1.783420 1_645
N8 Si24 1.791389 1_545
N9 Si41 1.722871 1_555
N9 Si16 1.757263 1_555
N9 Si1 1.840258 1_555
N10 N31 1.275878 1_555
N10 N15 1.400540 1_556
N10 Si23 1.905933 1_555
N11 Si21 1.724250 1_556
N11 Si42 1.765036 1_555
N11 Si11 1.772409 1_555
N12 N29 1.508300 1_555
N12 Si15 1.794535 1_555
N12 Si18 1.808016 1_555
N13 N6 1.120954 1_555
N14 Si4 1.609158 1_555
N14 Si28 1.618073 1_555
N15 Si15 1.802297 1_555
N15 Si19 1.939550 1_555
N16 Si35 1.725835 1_554
N16 Si12 1.739288 1_555
N16 Si16 1.803137 1_555
N17 Si2 1.780197 1_455
N17 Si25 1.816447 1_555
N17 Si39 1.914519 1_455
N17 Si3 1.945652 1_555
N18 Si1 1.679940 1_555
N18 Si21 1.769350 1_555
N18 Si6 1.808886 1_555
N19 Si1 1.723914 1_555
N19 Si43 1.790353 1_555
N19 Si22 1.798058 1_555
N20 Si5 1.720919 1_555
N20 Si41 1.723499 1_555
N20 Si0 1.769085 1_555
N21 Si2 1.670625 1_555
N21 Si41 1.703570 1_555
N21 Si37 1.717193 1_555
N22 N47 1.473147 1_555
N22 Si5 1.741471 1_555
N22 Si40 1.772565 1_555
N23 N40 1.112500 1_555
N24 Si12 1.683005 1_556
N24 Si42 1.721904 1_555
N24 Si38 1.764014 1_555
N25 Si34 1.742536 1_555
N25 Si28 1.749881 1_555
N25 Si13 1.792366 1_555
N26 Si9 1.740799 1_655
N26 Si37 1.782786 1_555
N26 Si7 1.909676 1_555
N27 Si26 1.773430 1_555
N27 Si16 1.793714 1_555
N27 Si18 1.806073 1_655
N28 Si27 1.727600 1_555
N28 Si26 1.752284 1_555
N28 Si44 1.904815 1_554
N29 Si10 1.766057 1_555
N29 Si6 1.797833 1_555
N30 Si42 1.707590 1_555
N30 Si14 1.781701 1_555
N30 Si5 1.786304 1_555
N31 Si19 1.914233 1_556
N32 N56 1.519470 1_555
N32 Si34 1.806593 1_555
N32 Si14 1.828549 1_555
N33 Si23 1.702627 1_555
N33 Si7 1.719966 1_455
N33 Si29 1.749093 1_555
N34 N35 1.431652 1_555
N34 Si25 1.675513 1_555
N34 Si10 1.804545 1_556
N35 Si8 1.783605 1_555
N35 Si33 1.799906 1_555
N36 Si29 1.736831 1_555
N36 Si9 1.751777 1_555
N36 Si4 1.787002 1_555
N37 Si30 1.699436 1_545
N37 Si32 1.841255 1_555
N37 Si34 1.877480 1_555
N38 Si14 1.763241 1_555
N38 Si17 1.786878 1_555
N38 Si28 1.894454 1_555
N39 Si5 1.730586 1_555
N39 Si40 1.750794 1_555
N39 Si8 1.828059 1_555
N41 Si10 1.709136 1_556
N41 Si21 1.739557 1_556
N41 Si8 1.838883 1_555
N42 Si2 1.686934 1_555
N42 Si35 1.773423 1_555
N42 Si42 1.778027 1_555
N43 Si30 1.658701 1_545
N43 Si9 1.739244 1_655
N43 Si20 1.784401 1_645
N44 Si35 1.737137 1_555
N44 Si25 1.740190 1_655
N44 Si44 1.755330 1_555
N45 N7 1.465040 1_555
N45 Si20 1.722517 1_555
N45 Si36 1.774943 1_555
N46 Si6 1.756227 1_555
N46 Si13 1.763743 1_555
N46 Si15 1.871280 1_555
N47 Si13 1.794950 1_555
N47 Si14 1.806368 1_555
N48 Si6 1.704487 1_555
N48 Si21 1.715694 1_555
N49 Si23 1.754412 1_555
N49 Si40 1.758576 1_555
N49 Si29 1.806137 1_555
N50 Si19 1.643686 1_565
N50 Si36 1.654454 1_555
N51 Si39 1.787196 1_555
N51 Si0 1.789545 1_555
N51 Si41 1.915557 1_555
N51 Si2 1.922506 1_555
N52 Si9 1.790402 1_555
N52 Si15 1.822188 1_555
N52 Si32 2.022750 1_455
N53 Si33 1.794581 1_555
N53 Si17 1.801318 1_565
N53 Si8 2.027591 1_555
N54 Si3 1.760113 1_555
N54 Si29 1.771734 1_555
N54 Si37 1.811215 1_455
N55 Si39 1.656126 1_455
N55 Si20 1.694547 1_555
N55 Si31 1.830649 1_555
N56 Si1 1.754039 1_555
N56 Si13 1.836951 1_555
N57 Si12 1.672389 1_555
N57 Si34 1.727427 1_555
N57 Si32 1.813638 1_555
N58 Si23 1.713330 1_555
N58 Si25 1.759649 1_555
N58 Si35 1.772765 1_455
N59 Si28 1.716500 1_565
N59 Si22 1.767570 1_555
N59 Si43 1.868777 1_555
