# generated using pymatgen
data_SmIClO13
_symmetry_space_group_name_H-M   'P 1'
_cell_length_a   7.02643400
_cell_length_b   11.91383900
_cell_length_c   13.94853515
_cell_angle_alpha   79.18006444
_cell_angle_beta   90.00000000
_cell_angle_gamma   90.00000000
_symmetry_Int_Tables_number   1
_chemical_formula_structural   SmIClO13
_chemical_formula_sum   'Sm4 I4 Cl4 O52'
_cell_volume   1146.89841804
_cell_formula_units_Z   4
loop_
 _symmetry_equiv_pos_site_id
 _symmetry_equiv_pos_as_xyz
  1  'x, y, z'
loop_
 _atom_site_type_symbol
 _atom_site_label
 _atom_site_symmetry_multiplicity
 _atom_site_fract_x
 _atom_site_fract_y
 _atom_site_fract_z
 _atom_site_occupancy
  Sm  Sm0  1  0.35782900  0.02299900  0.81225700  1
  Sm  Sm1  1  0.64217100  0.97700100  0.18774300  1
  Sm  Sm2  1  0.85782900  0.97700100  0.68774300  1
  Sm  Sm3  1  0.14217100  0.02299900  0.31225700  1
  I  I0  1  0.86176700  0.92921200  0.94374200  1
  I  I1  1  0.13823300  0.07078800  0.05625800  1
  I  I2  1  0.36176700  0.07078800  0.55625800  1
  I  I3  1  0.63823300  0.92921200  0.44374200  1
  Cl  Cl0  1  0.23467600  0.54729200  0.61636800  1
  Cl  Cl1  1  0.76532400  0.45270800  0.38363200  1
  Cl  Cl2  1  0.73467600  0.45270800  0.88363200  1
  Cl  Cl3  1  0.26532400  0.54729200  0.11636800  1
  O  O0  1  0.81309800  0.78334500  0.70383200  1
  O  O1  1  0.18690200  0.21665500  0.29616800  1
  O  O2  1  0.31309800  0.21665500  0.79616800  1
  O  O3  1  0.68690200  0.78334500  0.20383200  1
  O  O4  1  0.40724200  0.91516100  0.54948300  1
  O  O5  1  0.59275800  0.08483900  0.45051700  1
  O  O6  1  0.90724200  0.08483900  0.95051700  1
  O  O7  1  0.09275800  0.91516100  0.04948300  1
  O  O8  1  0.22045900  0.35069300  0.93656800  1
  O  O9  1  0.77954100  0.64930700  0.06343200  1
  O  O10  1  0.72045900  0.64930700  0.56343200  1
  O  O11  1  0.27954100  0.35069300  0.43656800  1
  O  O12  1  0.68145500  0.96748600  0.84020400  1
  O  O13  1  0.31854500  0.03251400  0.15979600  1
  O  O14  1  0.18145500  0.03251400  0.65979600  1
  O  O15  1  0.81854500  0.96748600  0.34020400  1
  O  O16  1  0.39097000  0.76272700  0.82073300  1
  O  O17  1  0.60903000  0.23727300  0.17926700  1
  O  O18  1  0.89097000  0.23727300  0.67926700  1
  O  O19  1  0.10903000  0.76272700  0.32073300  1
  O  O20  1  0.34485100  0.30926600  0.51638900  1
  O  O21  1  0.65514900  0.69073400  0.48361100  1
  O  O22  1  0.84485100  0.69073400  0.98361100  1
  O  O23  1  0.15514900  0.30926600  0.01638900  1
  O  O24  1  0.40727100  0.49851100  0.66754800  1
  O  O25  1  0.59272900  0.50148900  0.33245200  1
  O  O26  1  0.90727100  0.50148900  0.83245200  1
  O  O27  1  0.09272900  0.49851100  0.16754800  1
  O  O28  1  0.27708700  0.58501600  0.51361400  1
  O  O29  1  0.72291300  0.41498400  0.48638600  1
  O  O30  1  0.77708700  0.41498400  0.98638600  1
  O  O31  1  0.22291300  0.58501600  0.01361400  1
  O  O32  1  0.18162900  0.64455700  0.66199800  1
  O  O33  1  0.81837100  0.35544300  0.33800200  1
  O  O34  1  0.68162900  0.35544300  0.83800200  1
  O  O35  1  0.31837100  0.64455700  0.16199800  1
  O  O36  1  0.83133000  0.91895600  0.54091600  1
  O  O37  1  0.16867000  0.08104400  0.45908400  1
  O  O38  1  0.33133000  0.08104400  0.95908400  1
  O  O39  1  0.66867000  0.91895600  0.04091600  1
  O  O40  1  0.40531400  0.77430600  0.90668200  1
  O  O41  1  0.59468600  0.22569400  0.09331800  1
  O  O42  1  0.90531400  0.22569400  0.59331800  1
  O  O43  1  0.09468600  0.77430600  0.40668200  1
  O  O44  1  0.05009700  0.94250400  0.83432800  1
  O  O45  1  0.94990300  0.05749600  0.16567200  1
  O  O46  1  0.55009700  0.05749600  0.66567200  1
  O  O47  1  0.44990300  0.94250400  0.33432800  1
  O  O48  1  0.08340400  0.46317800  0.62881400  1
  O  O49  1  0.91659600  0.53682200  0.37118600  1
  O  O50  1  0.58340400  0.53682200  0.87118600  1
  O  O51  1  0.41659600  0.46317800  0.12881400  1
loop_
_geom_bond_atom_site_label_1
_geom_bond_atom_site_label_2
_geom_bond_distance
_geom_bond_site_symmetry_2
I0 O6 1.901198 1_565
I0 O39 1.905470 1_556
I0 O12 1.910907 1_555
I0 O44 2.003649 1_655
I0 O7 2.178306 1_656
I1 O7 1.901198 1_545
I1 O38 1.905470 1_554
I1 O13 1.910907 1_555
I1 O45 2.003649 1_455
I1 O6 2.178306 1_454
I2 O4 1.901198 1_545
I2 O37 1.905470 1_555
I2 O14 1.910907 1_555
I2 O46 2.003649 1_555
I2 O5 2.178306 1_555
I3 O5 1.901198 1_565
I3 O36 1.905470 1_555
I3 O15 1.910907 1_555
I3 O47 2.003649 1_555
I3 O4 2.178306 1_555
Cl0 O48 1.448734 1_555
Cl0 O28 1.450243 1_555
Cl0 O24 1.470486 1_555
Cl0 O32 1.470969 1_555
Cl1 O49 1.448734 1_555
Cl1 O29 1.450243 1_555
Cl1 O25 1.470486 1_555
Cl1 O33 1.470969 1_555
Cl2 O50 1.448734 1_555
Cl2 O30 1.450243 1_555
Cl2 O26 1.470486 1_555
Cl2 O34 1.470969 1_555
Cl3 O51 1.448734 1_555
Cl3 O31 1.450243 1_555
Cl3 O27 1.470486 1_555
Cl3 O35 1.470969 1_555
O0 Sm2 2.297359 1_555
O1 Sm3 2.297359 1_555
O2 Sm0 2.297359 1_555
O3 Sm1 2.297359 1_555
O10 O21 1.219630 1_555
O11 O20 1.219630 1_555
O12 Sm0 2.379783 1_565
O12 Sm2 2.445530 1_555
O13 Sm1 2.379783 1_545
O13 Sm3 2.445530 1_555
O14 Sm2 2.379783 1_445
O14 Sm0 2.445530 1_555
O15 Sm3 2.379783 1_665
O15 Sm1 2.445530 1_555
O16 O40 1.236346 1_555
O17 O41 1.236346 1_555
O18 O42 1.236346 1_555
O19 O43 1.236346 1_555
O22 O9 1.219630 1_556
O23 O8 1.219630 1_554
O36 Sm2 2.288892 1_555
O37 Sm3 2.288892 1_555
O38 Sm0 2.288892 1_555
O39 Sm1 2.288892 1_555
O40 Sm0 3.026486 1_565
O41 Sm1 3.026486 1_545
O42 Sm2 3.026486 1_545
O43 Sm3 3.026486 1_565
O44 Sm0 2.361987 1_565
O44 Sm2 2.420554 1_455
O45 Sm1 2.361987 1_545
O45 Sm3 2.420554 1_655
O46 Sm2 2.361987 1_545
O46 Sm0 2.420554 1_555
O47 Sm3 2.361987 1_565
O47 Sm1 2.420554 1_555
