# generated using pymatgen
data_NaTh2(PO4)3
_symmetry_space_group_name_H-M   'P 1'
_cell_length_a   9.43267332
_cell_length_b   9.43267332
_cell_length_c   8.25395189
_cell_angle_alpha   79.31424204
_cell_angle_beta   79.31424204
_cell_angle_gamma   42.59401267
_symmetry_Int_Tables_number   1
_chemical_formula_structural   NaTh2(PO4)3
_chemical_formula_sum   'Na2 Th4 P6 O24'
_cell_volume   487.09755039
_cell_formula_units_Z   2
loop_
 _symmetry_equiv_pos_site_id
 _symmetry_equiv_pos_as_xyz
  1  'x, y, z'
loop_
 _atom_site_type_symbol
 _atom_site_label
 _atom_site_symmetry_multiplicity
 _atom_site_fract_x
 _atom_site_fract_y
 _atom_site_fract_z
 _atom_site_occupancy
  Na  Na0  1  0.39054400  0.58953300  0.86960300  1
  Na  Na1  1  0.58953300  0.39054400  0.36960300  1
  Th  Th0  1  0.06794000  0.24353700  0.46933500  1
  Th  Th1  1  0.24353700  0.06794000  0.96933500  1
  Th  Th2  1  0.94591800  0.75170500  0.54132500  1
  Th  Th3  1  0.75170500  0.94591800  0.04132500  1
  P  P0  1  0.77478300  0.60522900  0.81806100  1
  P  P1  1  0.60522900  0.77478300  0.31806100  1
  P  P2  1  0.89969300  0.10057700  0.74775500  1
  P  P3  1  0.10057700  0.89969300  0.24775500  1
  P  P4  1  0.22408300  0.40319800  0.19371000  1
  P  P5  1  0.40319800  0.22408300  0.69371000  1
  O  O0  1  0.82201200  0.22199800  0.57683400  1
  O  O1  1  0.22199800  0.82201200  0.07683400  1
  O  O2  1  0.17374500  0.28239800  0.17451500  1
  O  O3  1  0.28239800  0.17374500  0.67451500  1
  O  O4  1  0.81326400  0.73832100  0.83235600  1
  O  O5  1  0.73832100  0.81326400  0.33235600  1
  O  O6  1  0.09536000  0.60941400  0.08474400  1
  O  O7  1  0.60941400  0.09536000  0.58474400  1
  O  O8  1  0.15600800  0.44401000  0.38245000  1
  O  O9  1  0.44401000  0.15600800  0.88245000  1
  O  O10  1  0.91068400  0.40420400  0.93298600  1
  O  O11  1  0.40420400  0.91068400  0.43298600  1
  O  O12  1  0.45956000  0.26638600  0.16399900  1
  O  O13  1  0.26638600  0.45956000  0.66399900  1
  O  O14  1  0.72909700  0.21570000  0.89239400  1
  O  O15  1  0.21570000  0.72909700  0.39239400  1
  O  O16  1  0.97795200  0.88414200  0.76029700  1
  O  O17  1  0.88414200  0.97795200  0.26029700  1
  O  O18  1  0.54178500  0.73242100  0.84589600  1
  O  O19  1  0.73242100  0.54178500  0.34589600  1
  O  O20  1  0.08876500  0.06291400  0.75913200  1
  O  O21  1  0.06291400  0.08876500  0.25913200  1
  O  O22  1  0.85622500  0.55109400  0.63191000  1
  O  O23  1  0.55109400  0.85622500  0.13191000  1
loop_
_geom_bond_atom_site_label_1
_geom_bond_atom_site_label_2
_geom_bond_distance
_geom_bond_site_symmetry_2
Na0 O1 2.347672 1_556
Na0 O14 2.462703 1_555
Na0 O18 2.553388 1_555
Na0 O16 2.851611 1_455
Na0 O6 2.909012 1_556
Na1 O0 2.347672 1_555
Na1 O15 2.462703 1_555
Na1 O19 2.553388 1_555
Na1 O17 2.851611 1_545
Na1 O7 2.909012 1_555
O0 P2 1.545148 1_555
O0 Th0 2.464468 1_655
O1 P3 1.545148 1_555
O1 Th1 2.464468 1_564
O2 P4 1.562174 1_555
O2 Th1 2.507972 1_554
O2 Th0 2.521746 1_555
O3 P5 1.562174 1_555
O3 Th0 2.507972 1_555
O3 Th1 2.521746 1_555
O4 P0 1.569547 1_555
O4 Th3 2.520654 1_556
O4 Th2 2.521397 1_555
O5 P1 1.569547 1_555
O5 Th2 2.520654 1_555
O5 Th3 2.521397 1_555
O6 P4 1.531561 1_555
O6 Th3 2.360340 1_455
O7 P5 1.531561 1_555
O7 Th2 2.360340 1_545
O8 P4 1.573182 1_555
O8 Th2 2.459668 1_455
O8 Th0 2.523744 1_555
O9 P5 1.573182 1_555
O9 Th3 2.459668 1_546
O9 Th1 2.523744 1_555
O10 P0 1.530915 1_555
O10 Th1 2.311345 1_655
O11 P1 1.530915 1_555
O11 Th0 2.311345 1_565
O12 P4 1.534331 1_555
O12 Th3 2.364839 1_545
O13 P5 1.534331 1_555
O13 Th2 2.364839 1_455
O14 P2 1.545787 1_555
O14 Th3 2.484057 1_546
O15 P3 1.545787 1_555
O15 Th2 2.484057 1_455
O16 P2 1.566740 1_565
O16 Th2 2.552282 1_555
O16 Th3 2.666273 1_556
O17 P3 1.566740 1_655
O17 Th3 2.552282 1_555
O17 Th2 2.666273 1_555
O18 P0 1.534660 1_555
O18 Th1 2.447980 1_565
O19 P1 1.534660 1_555
O19 Th0 2.447980 1_655
O20 P2 1.559683 1_455
O20 Th1 2.493107 1_555
O20 Th0 2.614014 1_555
O21 P3 1.559683 1_545
O21 Th0 2.493107 1_555
O21 Th1 2.614014 1_554
O22 P0 1.577132 1_555
O22 Th0 2.474854 1_655
O22 Th2 2.540375 1_555
O23 P1 1.577132 1_555
O23 Th1 2.474854 1_564
O23 Th3 2.540375 1_555
