# generated using pymatgen
data_BaEr2Si3O10
_symmetry_space_group_name_H-M   'P 1'
_cell_length_a   12.15649464
_cell_length_b   5.37946152
_cell_length_c   6.82203788
_cell_angle_alpha   73.34434540
_cell_angle_beta   90.00000000
_cell_angle_gamma   90.00000000
_symmetry_Int_Tables_number   1
_chemical_formula_structural   BaEr2Si3O10
_chemical_formula_sum   'Ba2 Er4 Si6 O20'
_cell_volume   427.41231401
_cell_formula_units_Z   2
loop_
 _symmetry_equiv_pos_site_id
 _symmetry_equiv_pos_as_xyz
  1  'x, y, z'
loop_
 _atom_site_type_symbol
 _atom_site_label
 _atom_site_symmetry_multiplicity
 _atom_site_fract_x
 _atom_site_fract_y
 _atom_site_fract_z
 _atom_site_occupancy
  Ba  Ba0  1  0.25000000  0.24097944  0.02089748  1
  Ba  Ba1  1  0.75000000  0.75902056  0.97910252  1
  Er  Er0  1  0.09991720  0.84482748  0.68228015  1
  Er  Er1  1  0.59991720  0.15517252  0.31771985  1
  Er  Er2  1  0.90008280  0.15517252  0.31771985  1
  Er  Er3  1  0.40008280  0.84482748  0.68228015  1
  Si  Si0  1  0.25000000  0.41908512  0.48879394  1
  Si  Si1  1  0.75000000  0.58091488  0.51120606  1
  Si  Si2  1  0.05989933  0.69514953  0.21335147  1
  Si  Si3  1  0.55989933  0.30485047  0.78664853  1
  Si  Si4  1  0.94010067  0.30485047  0.78664853  1
  Si  Si5  1  0.44010067  0.69514953  0.21335147  1
  O  O0  1  0.25000000  0.63385097  0.61234396  1
  O  O1  1  0.75000000  0.36614903  0.38765604  1
  O  O2  1  0.25000000  0.12328211  0.63578670  1
  O  O3  1  0.75000000  0.87671789  0.36421330  1
  O  O4  1  0.14263689  0.45237469  0.33843112  1
  O  O5  1  0.64263689  0.54762531  0.66156888  1
  O  O6  1  0.85736311  0.54762531  0.66156888  1
  O  O7  1  0.35736311  0.45237469  0.33843112  1
  O  O8  1  0.94398005  0.56153777  0.19326211  1
  O  O9  1  0.44398005  0.43846223  0.80673789  1
  O  O10  1  0.05601995  0.43846223  0.80673789  1
  O  O11  1  0.55601995  0.56153777  0.19326211  1
  O  O12  1  0.12066021  0.83730025  0.00044122  1
  O  O13  1  0.62066021  0.16269975  -0.00044122  1
  O  O14  1  0.87933979  0.16269975  -0.00044122  1
  O  O15  1  0.37933979  0.83730025  0.00044122  1
  O  O16  1  0.04898749  0.89772488  0.35226349  1
  O  O17  1  0.54898749  0.10227512  0.64773651  1
  O  O18  1  0.95101251  0.10227512  0.64773651  1
  O  O19  1  0.45101251  0.89772488  0.35226349  1
loop_
_geom_bond_atom_site_label_1
_geom_bond_atom_site_label_2
_geom_bond_distance
_geom_bond_site_symmetry_2
Ba0 O15 2.716823 1_545
Ba0 O12 2.716823 1_545
Ba0 O9 2.816757 1_554
Ba0 O10 2.816757 1_554
Ba0 O2 2.873467 1_554
Ba0 O0 2.976283 1_554
Ba0 O4 3.016838 1_555
Ba0 O7 3.016838 1_555
Ba1 O13 2.716823 1_566
Ba1 O14 2.716823 1_566
Ba1 O11 2.816757 1_556
Ba1 O8 2.816757 1_556
Ba1 O3 2.873467 1_556
Ba1 O1 2.976283 1_556
Ba1 O5 3.016838 1_555
Ba1 O6 3.016838 1_555
Er0 O10 2.172651 1_555
Er0 O12 2.173924 1_556
Er0 O18 2.250145 1_465
Er0 O0 2.270430 1_555
Er0 O16 2.272836 1_555
Er0 O2 2.323960 1_565
Er1 O11 2.172651 1_555
Er1 O13 2.173924 1_555
Er1 O19 2.250145 1_545
Er1 O1 2.270430 1_555
Er1 O17 2.272836 1_555
Er1 O3 2.323960 1_545
Er2 O8 2.172651 1_555
Er2 O14 2.173924 1_555
Er2 O16 2.250145 1_645
Er2 O1 2.270430 1_555
Er2 O18 2.272836 1_555
Er2 O3 2.323960 1_545
Er3 O9 2.172651 1_555
Er3 O15 2.173924 1_556
Er3 O17 2.250145 1_565
Er3 O0 2.270430 1_555
Er3 O19 2.272836 1_555
Er3 O2 2.323960 1_565
O0 Si0 1.613506 1_555
O1 Si1 1.613506 1_555
O2 Si0 1.619563 1_555
O3 Si1 1.619563 1_555
O4 Si0 1.637814 1_555
O4 Si2 1.675279 1_555
O5 Si1 1.637814 1_555
O5 Si3 1.675279 1_555
O6 Si1 1.637814 1_555
O6 Si4 1.675279 1_555
O7 Si0 1.637814 1_555
O7 Si5 1.675279 1_555
O8 Si2 1.605500 1_655
O9 Si3 1.605500 1_555
O10 Si4 1.605500 1_455
O11 Si5 1.605500 1_555
O12 Si2 1.613490 1_555
O13 Si3 1.613490 1_554
O14 Si4 1.613490 1_554
O15 Si5 1.613490 1_555
O16 Si2 1.641706 1_555
O17 Si3 1.641706 1_555
O18 Si4 1.641706 1_555
O19 Si5 1.641706 1_555
