# generated using pymatgen
data_Li3Gd
_symmetry_space_group_name_H-M   'P 1'
_cell_length_a   6.41909086
_cell_length_b   6.41909086
_cell_length_c   5.04003200
_cell_angle_alpha   90.00000000
_cell_angle_beta   90.00000000
_cell_angle_gamma   120.00000884
_symmetry_Int_Tables_number   1
_chemical_formula_structural   Li3Gd
_chemical_formula_sum   'Li6 Gd2'
_cell_volume   179.85020311
_cell_formula_units_Z   2
loop_
 _symmetry_equiv_pos_site_id
 _symmetry_equiv_pos_as_xyz
  1  'x, y, z'
loop_
 _atom_site_type_symbol
 _atom_site_label
 _atom_site_symmetry_multiplicity
 _atom_site_fract_x
 _atom_site_fract_y
 _atom_site_fract_z
 _atom_site_occupancy
  Li  Li0  1  0.14962600  0.29925300  0.25000000  1
  Li  Li1  1  0.70074700  0.85037400  0.25000000  1
  Li  Li2  1  0.14962600  0.85037400  0.25000000  1
  Li  Li3  1  0.85037400  0.70074700  0.75000000  1
  Li  Li4  1  0.29925300  0.14962600  0.75000000  1
  Li  Li5  1  0.85037400  0.14962600  0.75000000  1
  Gd  Gd0  1  0.33333300  0.66666700  0.75000000  1
  Gd  Gd1  1  0.66666700  0.33333300  0.25000000  1
loop_
_geom_bond_atom_site_label_1
_geom_bond_atom_site_label_2
_geom_bond_distance
_geom_bond_site_symmetry_2
Li0 Li1 2.881395 1_445
Li0 Li2 2.881395 1_545
Li0 Li5 3.019594 1_455
Li0 Li5 3.019594 1_454
Li0 Li4 3.019600 1_554
Li0 Li4 3.019600 1_555
Li1 Li2 2.881395 1_655
Li1 Li5 3.019594 1_564
Li1 Li5 3.019594 1_565
Li1 Li3 3.019600 1_555
Li1 Li3 3.019600 1_554
Li2 Li4 3.019594 1_564
Li2 Li3 3.019594 1_455
Li2 Li4 3.019594 1_565
Li2 Li3 3.019594 1_454
Li3 Li4 2.881395 1_665
Li3 Li5 2.881395 1_565
Li4 Li5 2.881395 1_455
Gd0 Li4 3.215126 1_565
Gd0 Li3 3.215126 1_455
Gd0 Li5 3.215132 1_455
Gd0 Li5 3.215132 1_565
Gd0 Li4 3.215139 1_555
Gd0 Li3 3.215139 1_555
Gd0 Li0 3.243801 1_556
Gd0 Li0 3.243801 1_555
Gd0 Li1 3.243801 1_555
Gd0 Li1 3.243801 1_556
Gd0 Li2 3.243801 1_556
Gd0 Li2 3.243801 1_555
Gd1 Li1 3.215126 1_545
Gd1 Li0 3.215126 1_655
Gd1 Li2 3.215132 1_545
Gd1 Li2 3.215132 1_655
Gd1 Li1 3.215139 1_555
Gd1 Li0 3.215139 1_555
Gd1 Li4 3.243801 1_555
Gd1 Li3 3.243801 1_554
Gd1 Li4 3.243801 1_554
Gd1 Li3 3.243801 1_555
Gd1 Li5 3.243801 1_554
Gd1 Li5 3.243801 1_555
