# generated using pymatgen
data_Ba4PrGd(Cu3O7)2
_symmetry_space_group_name_H-M   'P 1'
_cell_length_a   3.87425218
_cell_length_b   3.94743505
_cell_length_c   23.78525786
_cell_angle_alpha   90.00000000
_cell_angle_beta   90.00000000
_cell_angle_gamma   90.00000000
_symmetry_Int_Tables_number   1
_chemical_formula_structural   Ba4PrGd(Cu3O7)2
_chemical_formula_sum   'Ba4 Pr1 Gd1 Cu6 O14'
_cell_volume   363.75648374
_cell_formula_units_Z   1
loop_
 _symmetry_equiv_pos_site_id
 _symmetry_equiv_pos_as_xyz
  1  'x, y, z'
loop_
 _atom_site_type_symbol
 _atom_site_label
 _atom_site_symmetry_multiplicity
 _atom_site_fract_x
 _atom_site_fract_y
 _atom_site_fract_z
 _atom_site_occupancy
  Ba  Ba0  1  0.50000000  0.50000000  0.09008380  1
  Ba  Ba1  1  0.50000000  0.50000000  0.58955712  1
  Ba  Ba2  1  0.50000000  0.50000000  0.40991620  1
  Ba  Ba3  1  0.50000000  0.50000000  0.91044288  1
  Pr  Pr0  1  0.50000000  0.50000000  0.75000000  1
  Gd  Gd0  1  0.50000000  0.50000000  0.25000000  1
  Cu  Cu0  1  0.00000000  -0.00000000  0.17497736  1
  Cu  Cu1  1  -0.00000000  -0.00000000  0.67253052  1
  Cu  Cu2  1  -0.00000000  0.00000000  0.32502264  1
  Cu  Cu3  1  0.00000000  0.00000000  0.82746948  1
  Cu  Cu4  1  0.00000000  -0.00000000  0.00017997  1
  Cu  Cu5  1  -0.00000000  0.00000000  0.49982003  1
  O  O0  1  -0.00000000  -0.00000000  0.07932692  1
  O  O1  1  -0.00000000  -0.00000000  0.57872428  1
  O  O2  1  0.00000000  -0.00000000  0.42067308  1
  O  O3  1  0.00000000  -0.00000000  0.92127572  1
  O  O4  1  -0.00000000  0.50000000  0.00034518  1
  O  O5  1  0.00000000  0.50000000  0.49965482  1
  O  O6  1  0.50000000  -0.00000000  0.18866096  1
  O  O7  1  0.50000000  0.00000000  0.68527876  1
  O  O8  1  0.50000000  -0.00000000  0.31133904  1
  O  O9  1  0.50000000  -0.00000000  0.81472124  1
  O  O10  1  -0.00000000  0.50000000  0.18818670  1
  O  O11  1  -0.00000000  0.50000000  0.68478637  1
  O  O12  1  0.00000000  0.50000000  0.31181330  1
  O  O13  1  0.00000000  0.50000000  0.81521363  1
loop_
_geom_bond_atom_site_label_1
_geom_bond_atom_site_label_2
_geom_bond_distance
_geom_bond_site_symmetry_2
Ba0 O0 2.777315 1_665
Ba0 O0 2.777315 1_555
Ba0 O0 2.777315 1_655
Ba0 O0 2.777315 1_565
Ba0 O4 2.882423 1_555
Ba0 O4 2.882423 1_655
Ba0 O10 3.032693 1_655
Ba0 O10 3.032693 1_555
Ba0 O6 3.064816 1_565
Ba0 O6 3.064816 1_555
Ba1 O1 2.777482 1_555
Ba1 O1 2.777482 1_565
Ba1 O1 2.777482 1_655
Ba1 O1 2.777482 1_665
Ba1 O5 2.885307 1_555
Ba1 O5 2.885307 1_655
Ba1 O11 2.980423 1_655
Ba1 O11 2.980423 1_555
Ba1 O7 3.013174 1_555
Ba1 O7 3.013174 1_565
Ba2 O2 2.777315 1_555
Ba2 O2 2.777315 1_565
Ba2 O2 2.777315 1_665
Ba2 O2 2.777315 1_655
Ba2 O5 2.882423 1_555
Ba2 O5 2.882423 1_655
Ba2 O12 3.032693 1_555
Ba2 O12 3.032693 1_655
Ba2 O8 3.064816 1_555
Ba2 O8 3.064816 1_565
Ba3 O3 2.777482 1_555
Ba3 O3 2.777482 1_655
Ba3 O3 2.777482 1_665
Ba3 O3 2.777482 1_565
Ba3 O4 2.885307 1_556
Ba3 O4 2.885307 1_656
Ba3 O13 2.980423 1_655
Ba3 O13 2.980423 1_555
Ba3 O9 3.013174 1_565
Ba3 O9 3.013174 1_555
Gd0 O12 2.431888 1_555
Gd0 O12 2.431888 1_655
Gd0 O10 2.431888 1_555
Gd0 O10 2.431888 1_655
Gd0 O6 2.454412 1_565
Gd0 O6 2.454412 1_555
Gd0 O8 2.454412 1_555
Gd0 O8 2.454412 1_565
Cu0 O6 1.964278 1_555
Cu0 O6 1.964278 1_455
Cu0 O10 1.998568 1_545
Cu0 O10 1.998568 1_555
Cu0 O0 2.275070 1_555
Cu1 O7 1.960714 1_455
Cu1 O7 1.960714 1_555
Cu1 O11 1.995129 1_545
Cu1 O11 1.995129 1_555
Cu1 O1 2.231206 1_555
Cu2 O8 1.964278 1_555
Cu2 O8 1.964278 1_455
Cu2 O12 1.998568 1_545
Cu2 O12 1.998568 1_555
Cu2 O2 2.275070 1_555
Cu3 O9 1.960714 1_555
Cu3 O9 1.960714 1_455
Cu3 O13 1.995129 1_555
Cu3 O13 1.995129 1_545
Cu3 O3 2.231206 1_555
Cu4 O3 1.876758 1_554
Cu4 O0 1.882531 1_555
Cu4 O4 1.973721 1_555
Cu4 O4 1.973721 1_545
Cu5 O1 1.876758 1_555
Cu5 O2 1.882531 1_555
Cu5 O5 1.973721 1_545
Cu5 O5 1.973721 1_555
O7 Pr0 2.503068 1_545
O7 Pr0 2.503068 1_555
O9 Pr0 2.503068 1_545
O9 Pr0 2.503068 1_555
O11 Pr0 2.481620 1_555
O11 Pr0 2.481620 1_455
O13 Pr0 2.481620 1_555
O13 Pr0 2.481620 1_455
