# generated using pymatgen
data_MgMnBiO5
_symmetry_space_group_name_H-M   'P 1'
_cell_length_a   5.38738803
_cell_length_b   7.65037268
_cell_length_c   11.63133100
_cell_angle_alpha   90.00000000
_cell_angle_beta   90.00000000
_cell_angle_gamma   107.63580748
_symmetry_Int_Tables_number   1
_chemical_formula_structural   MgMnBiO5
_chemical_formula_sum   'Mg4 Mn4 Bi4 O20'
_cell_volume   456.86075623
_cell_formula_units_Z   4
loop_
 _symmetry_equiv_pos_site_id
 _symmetry_equiv_pos_as_xyz
  1  'x, y, z'
loop_
 _atom_site_type_symbol
 _atom_site_label
 _atom_site_symmetry_multiplicity
 _atom_site_fract_x
 _atom_site_fract_y
 _atom_site_fract_z
 _atom_site_occupancy
  Mg  Mg0  1  0.62486900  0.17749200  0.92027100  1
  Mg  Mg1  1  0.37513100  0.82250800  0.07972900  1
  Mg  Mg2  1  0.87513100  0.32250800  0.42027100  1
  Mg  Mg3  1  0.12486900  0.67749200  0.57972900  1
  Mn  Mn0  1  0.78258100  0.97144700  0.64705300  1
  Mn  Mn1  1  0.21741900  0.02855300  0.35294700  1
  Mn  Mn2  1  0.71741900  0.52855300  0.14705300  1
  Mn  Mn3  1  0.28258100  0.47144700  0.85294700  1
  Bi  Bi0  1  0.11542500  0.17472600  0.10041300  1
  Bi  Bi1  1  0.88457500  0.82527400  0.89958700  1
  Bi  Bi2  1  0.61542500  0.67472600  0.39958700  1
  Bi  Bi3  1  0.38457500  0.32527400  0.60041300  1
  O  O0  1  0.57702400  0.32981500  0.07239600  1
  O  O1  1  0.02939300  0.32794200  0.92920500  1
  O  O2  1  0.48944100  0.63764600  0.17935800  1
  O  O3  1  0.75619900  0.51310100  0.52586800  1
  O  O4  1  0.80327800  0.48790200  0.28657700  1
  O  O5  1  0.30327800  0.98790200  0.21342300  1
  O  O6  1  0.52939300  0.82794200  0.57079500  1
  O  O7  1  0.47060700  0.17205800  0.42920500  1
  O  O8  1  0.24380100  0.48689900  0.47413200  1
  O  O9  1  0.92297600  0.17018500  0.57239600  1
  O  O10  1  0.19672200  0.51209800  0.71342300  1
  O  O11  1  0.42297600  0.67018500  0.92760400  1
  O  O12  1  0.07702400  0.82981500  0.42760400  1
  O  O13  1  0.69672200  0.01209800  0.78657700  1
  O  O14  1  0.74380100  0.98689900  0.02586800  1
  O  O15  1  0.25619900  0.01310100  0.97413200  1
  O  O16  1  0.51055900  0.36235400  0.82064200  1
  O  O17  1  0.97060700  0.67205800  0.07079500  1
  O  O18  1  0.01055900  0.86235400  0.67935800  1
  O  O19  1  0.98944100  0.13764600  0.32064200  1
loop_
_geom_bond_atom_site_label_1
_geom_bond_atom_site_label_2
_geom_bond_distance
_geom_bond_site_symmetry_2
Mg0 O16 2.061549 1_555
Mg0 O15 2.098920 1_555
Mg0 O13 2.113252 1_555
Mg0 O1 2.136620 1_655
Mg0 O14 2.147387 1_546
Mg0 O0 2.176527 1_556
Mg1 O2 2.061549 1_555
Mg1 O14 2.098920 1_555
Mg1 O5 2.113252 1_555
Mg1 O17 2.136620 1_455
Mg1 O15 2.147387 1_564
Mg1 O11 2.176527 1_554
Mg2 O19 2.061549 1_555
Mg2 O8 2.098920 1_655
Mg2 O4 2.113252 1_555
Mg2 O7 2.136620 1_555
Mg2 O3 2.147387 1_555
Mg2 O9 2.176527 1_555
Mg3 O18 2.061549 1_555
Mg3 O3 2.098920 1_455
Mg3 O10 2.113252 1_555
Mg3 O6 2.136620 1_555
Mg3 O8 2.147387 1_555
Mg3 O12 2.176527 1_555
Mn0 O9 1.714933 1_565
Mn0 O6 1.716163 1_555
Mn0 O18 1.722602 1_655
Mn0 O13 1.741115 1_565
Mn1 O12 1.714933 1_545
Mn1 O7 1.716163 1_555
Mn1 O19 1.722602 1_455
Mn1 O5 1.741115 1_545
Mn2 O0 1.714933 1_555
Mn2 O17 1.716163 1_555
Mn2 O2 1.722602 1_555
Mn2 O4 1.741115 1_555
Mn3 O11 1.714933 1_555
Mn3 O1 1.716163 1_555
Mn3 O16 1.722602 1_555
Mn3 O10 1.741115 1_555
Bi0 O15 2.197664 1_554
Bi0 O14 2.254273 1_445
Bi0 O5 2.381450 1_545
Bi0 O1 2.425603 1_554
Bi0 O0 2.431120 1_555
Bi0 O19 2.643113 1_455
Bi1 O14 2.197664 1_556
Bi1 O15 2.254273 1_665
Bi1 O13 2.381450 1_565
Bi1 O17 2.425603 1_556
Bi1 O11 2.431120 1_555
Bi1 O18 2.643113 1_655
Bi2 O3 2.197664 1_555
Bi2 O8 2.254273 1_555
Bi2 O4 2.381450 1_555
Bi2 O6 2.425603 1_555
Bi2 O12 2.431120 1_655
Bi2 O2 2.643113 1_555
Bi3 O8 2.197664 1_555
Bi3 O3 2.254273 1_555
Bi3 O10 2.381450 1_555
Bi3 O7 2.425603 1_555
Bi3 O9 2.431120 1_455
Bi3 O16 2.643113 1_555
