# generated using pymatgen
data_HfCu3
_symmetry_space_group_name_H-M   'P 1'
_cell_length_a   4.54103241
_cell_length_b   4.54103241
_cell_length_c   4.54103241
_cell_angle_alpha   127.72102610
_cell_angle_beta   127.72102610
_cell_angle_gamma   77.07739245
_symmetry_Int_Tables_number   1
_chemical_formula_structural   HfCu3
_chemical_formula_sum   'Hf1 Cu3'
_cell_volume   56.86444555
_cell_formula_units_Z   1
loop_
 _symmetry_equiv_pos_site_id
 _symmetry_equiv_pos_as_xyz
  1  'x, y, z'
loop_
 _atom_site_type_symbol
 _atom_site_label
 _atom_site_symmetry_multiplicity
 _atom_site_fract_x
 _atom_site_fract_y
 _atom_site_fract_z
 _atom_site_occupancy
  Hf  Hf0  1  0.00000000  0.00000000  0.00000000  1
  Cu  Cu0  1  0.75000000  0.25000000  0.50000000  1
  Cu  Cu1  1  0.25000000  0.75000000  0.50000000  1
  Cu  Cu2  1  0.50000000  0.50000000  0.00000000  1
loop_
_geom_bond_atom_site_label_1
_geom_bond_atom_site_label_2
_geom_bond_distance
_geom_bond_site_symmetry_2
Cu0 Hf0 2.675149 1_555
Cu0 Cu2 2.675149 1_656
Cu0 Hf0 2.675149 1_656
Cu0 Hf0 2.675149 1_655
Cu0 Cu2 2.675149 1_556
Cu0 Hf0 2.675149 1_666
Cu0 Cu2 2.675149 1_555
Cu0 Cu2 2.675149 1_545
Cu1 Cu2 2.675149 1_455
Cu1 Hf0 2.675149 1_666
Cu1 Hf0 2.675149 1_565
Cu1 Cu2 2.675149 1_556
Cu1 Hf0 2.675149 1_566
Cu1 Cu2 2.675149 1_555
Cu1 Hf0 2.675149 1_555
Cu1 Cu2 2.675149 1_566
Cu2 Hf0 2.829259 1_666
Cu2 Hf0 2.829259 1_554
Cu2 Hf0 2.829259 1_655
Cu2 Hf0 2.829259 1_565
