# generated using pymatgen
data_BaInGe
_symmetry_space_group_name_H-M   'P 1'
_cell_length_a   4.71261225
_cell_length_b   4.71261225
_cell_length_c   5.09437000
_cell_angle_alpha   90.00000000
_cell_angle_beta   90.00000000
_cell_angle_gamma   120.00000352
_symmetry_Int_Tables_number   1
_chemical_formula_structural   BaInGe
_chemical_formula_sum   'Ba1 In1 Ge1'
_cell_volume   97.98159759
_cell_formula_units_Z   1
loop_
 _symmetry_equiv_pos_site_id
 _symmetry_equiv_pos_as_xyz
  1  'x, y, z'
loop_
 _atom_site_type_symbol
 _atom_site_label
 _atom_site_symmetry_multiplicity
 _atom_site_fract_x
 _atom_site_fract_y
 _atom_site_fract_z
 _atom_site_occupancy
  Ba  Ba0  1  0.00000000  0.00000000  0.00674400  1
  In  In0  1  0.33333300  0.66666700  0.53556000  1
  Ge  Ge0  1  0.66666700  0.33333300  0.45769700  1
loop_
_geom_bond_atom_site_label_1
_geom_bond_atom_site_label_2
_geom_bond_distance
_geom_bond_site_symmetry_2
Ba0 Ge0 3.560980 1_455
Ba0 Ge0 3.560983 1_555
Ba0 Ge0 3.560983 1_445
Ba0 In0 3.628325 1_544
Ba0 In0 3.628328 1_554
Ba0 In0 3.628328 1_444
Ba0 In0 3.828896 1_545
Ba0 In0 3.828898 1_445
Ba0 In0 3.828898 1_555
Ba0 Ge0 3.902098 1_454
Ba0 Ge0 3.902101 1_554
Ba0 Ge0 3.902101 1_444
Ge0 In0 2.749587 1_545
Ge0 In0 2.749587 1_655
Ge0 In0 2.749596 1_555
