# generated using pymatgen
data_Mg6BWO8
_symmetry_space_group_name_H-M   'P 1'
_cell_length_a   8.94390501
_cell_length_b   4.31214677
_cell_length_c   4.31214677
_cell_angle_alpha   90.00000000
_cell_angle_beta   90.00000000
_cell_angle_gamma   90.00000000
_symmetry_Int_Tables_number   1
_chemical_formula_structural   Mg6BWO8
_chemical_formula_sum   'Mg6 B1 W1 O8'
_cell_volume   166.30842345
_cell_formula_units_Z   1
loop_
 _symmetry_equiv_pos_site_id
 _symmetry_equiv_pos_as_xyz
  1  'x, y, z'
loop_
 _atom_site_type_symbol
 _atom_site_label
 _atom_site_symmetry_multiplicity
 _atom_site_fract_x
 _atom_site_fract_y
 _atom_site_fract_z
 _atom_site_occupancy
  Mg  Mg0  1  -0.00000000  0.50000000  0.50000000  1
  Mg  Mg1  1  0.50000000  0.50000000  0.50000000  1
  Mg  Mg2  1  0.26970240  0.00000000  0.50000000  1
  Mg  Mg3  1  0.73029760  0.00000000  0.50000000  1
  Mg  Mg4  1  0.26970240  0.50000000  0.00000000  1
  Mg  Mg5  1  0.73029760  0.50000000  -0.00000000  1
  B  B0  1  0.50000000  0.00000000  0.00000000  1
  W  W0  1  -0.00000000  0.00000000  0.00000000  1
  O  O0  1  0.23947042  -0.00000000  -0.00000000  1
  O  O1  1  0.76052958  0.00000000  0.00000000  1
  O  O2  1  0.24910880  0.50000000  0.50000000  1
  O  O3  1  0.75089120  0.50000000  0.50000000  1
  O  O4  1  -0.00000000  0.00000000  0.50000000  1
  O  O5  1  0.50000000  0.00000000  0.50000000  1
  O  O6  1  -0.00000000  0.50000000  0.00000000  1
  O  O7  1  0.50000000  0.50000000  0.00000000  1
loop_
_geom_bond_atom_site_label_1
_geom_bond_atom_site_label_2
_geom_bond_distance
_geom_bond_site_symmetry_2
Mg0 O4 2.156073 1_555
Mg0 O4 2.156073 1_565
Mg0 O6 2.156073 1_556
Mg0 O6 2.156073 1_555
Mg0 O2 2.228005 1_555
Mg0 O3 2.228005 1_455
Mg1 O7 2.156073 1_555
Mg1 O7 2.156073 1_556
Mg1 O5 2.156073 1_555
Mg1 O5 2.156073 1_565
Mg1 O2 2.243947 1_555
Mg1 O3 2.243947 1_555
Mg2 O5 2.059760 1_555
Mg2 O2 2.163926 1_555
Mg2 O2 2.163926 1_545
Mg2 O0 2.172962 1_556
Mg2 O0 2.172962 1_555
Mg2 O4 2.412193 1_555
Mg3 O5 2.059760 1_555
Mg3 O3 2.163926 1_545
Mg3 O3 2.163926 1_555
Mg3 O1 2.172962 1_555
Mg3 O1 2.172962 1_556
Mg3 O4 2.412193 1_655
Mg4 O7 2.059760 1_555
Mg4 O2 2.163926 1_554
Mg4 O2 2.163926 1_555
Mg4 O0 2.172962 1_565
Mg4 O0 2.172962 1_555
Mg4 O6 2.412193 1_555
Mg5 O7 2.059760 1_555
Mg5 O3 2.163926 1_555
Mg5 O3 2.163926 1_554
Mg5 O1 2.172962 1_555
Mg5 O1 2.172962 1_565
Mg5 O6 2.412193 1_655
B0 O7 2.156073 1_545
B0 O7 2.156073 1_555
B0 O5 2.156073 1_554
B0 O5 2.156073 1_555
O0 W0 2.141801 1_555
O1 W0 2.141801 1_655
O4 W0 2.156073 1_555
O4 W0 2.156073 1_556
O6 W0 2.156073 1_555
O6 W0 2.156073 1_565
