# generated using pymatgen
data_Yb3Zn17
_symmetry_space_group_name_H-M   'P 1'
_cell_length_a   12.23080403
_cell_length_b   12.23080403
_cell_length_c   12.23080403
_cell_angle_alpha   109.47122063
_cell_angle_beta   109.47122063
_cell_angle_gamma   109.47122063
_symmetry_Int_Tables_number   1
_chemical_formula_structural   Yb3Zn17
_chemical_formula_sum   'Yb12 Zn68'
_cell_volume   1408.45550773
_cell_formula_units_Z   4
loop_
 _symmetry_equiv_pos_site_id
 _symmetry_equiv_pos_as_xyz
  1  'x, y, z'
loop_
 _atom_site_type_symbol
 _atom_site_label
 _atom_site_symmetry_multiplicity
 _atom_site_fract_x
 _atom_site_fract_y
 _atom_site_fract_z
 _atom_site_occupancy
  Yb  Yb0  1  0.30196200  0.11790500  0.81594400  1
  Yb  Yb1  1  0.69803800  0.88209500  0.18405600  1
  Yb  Yb2  1  0.69803800  0.51398200  0.81594400  1
  Yb  Yb3  1  0.30196200  0.48601800  0.18405600  1
  Yb  Yb4  1  0.11790500  0.81594400  0.30196200  1
  Yb  Yb5  1  0.88209500  0.18405600  0.69803800  1
  Yb  Yb6  1  0.51398200  0.81594400  0.69803800  1
  Yb  Yb7  1  0.48601800  0.18405600  0.30196200  1
  Yb  Yb8  1  0.81594400  0.30196200  0.11790500  1
  Yb  Yb9  1  0.18405600  0.69803800  0.88209500  1
  Yb  Yb10  1  0.81594400  0.69803800  0.51398200  1
  Yb  Yb11  1  0.18405600  0.30196200  0.48601800  1
  Zn  Zn0  1  0.59108200  0.00000000  0.59108200  1
  Zn  Zn1  1  0.40891800  0.00000000  0.40891800  1
  Zn  Zn2  1  0.00000000  0.59108200  0.59108200  1
  Zn  Zn3  1  0.00000000  0.40891800  0.40891800  1
  Zn  Zn4  1  0.59108200  0.59108200  0.00000000  1
  Zn  Zn5  1  0.40891800  0.40891800  0.00000000  1
  Zn  Zn6  1  0.30619000  0.50000000  0.80619000  1
  Zn  Zn7  1  0.69381000  0.50000000  0.19381000  1
  Zn  Zn8  1  0.50000000  0.80619000  0.30619000  1
  Zn  Zn9  1  0.50000000  0.19381000  0.69381000  1
  Zn  Zn10  1  0.80619000  0.30619000  0.50000000  1
  Zn  Zn11  1  0.19381000  0.69381000  0.50000000  1
  Zn  Zn12  1  0.00000000  0.00000000  0.67428500  1
  Zn  Zn13  1  0.67428500  0.00000000  0.00000000  1
  Zn  Zn14  1  0.00000000  0.67428500  0.00000000  1
  Zn  Zn15  1  0.32571500  0.32571500  0.32571500  1
  Zn  Zn16  1  0.00000000  0.00000000  0.32571500  1
  Zn  Zn17  1  0.32571500  0.00000000  0.00000000  1
  Zn  Zn18  1  0.00000000  0.32571500  0.00000000  1
  Zn  Zn19  1  0.67428500  0.67428500  0.67428500  1
  Zn  Zn20  1  0.09208600  0.85790400  0.76581800  1
  Zn  Zn21  1  0.90791400  0.14209600  0.23418200  1
  Zn  Zn22  1  0.90791400  0.67373200  0.76581800  1
  Zn  Zn23  1  0.09208600  0.32626800  0.23418200  1
  Zn  Zn24  1  0.85790400  0.76581800  0.09208600  1
  Zn  Zn25  1  0.14209600  0.23418200  0.90791400  1
  Zn  Zn26  1  0.67373200  0.76581800  0.90791400  1
  Zn  Zn27  1  0.32626800  0.23418200  0.09208600  1
  Zn  Zn28  1  0.76581800  0.09208600  0.85790400  1
  Zn  Zn29  1  0.23418200  0.90791400  0.14209600  1
  Zn  Zn30  1  0.76581800  0.90791400  0.67373200  1
  Zn  Zn31  1  0.23418200  0.09208600  0.32626800  1
  Zn  Zn32  1  0.34857600  0.94494200  0.59636600  1
  Zn  Zn33  1  0.65142400  0.05505800  0.40363400  1
  Zn  Zn34  1  0.65142400  0.24778900  0.59636600  1
  Zn  Zn35  1  0.34857600  0.75221100  0.40363400  1
  Zn  Zn36  1  0.94494200  0.59636600  0.34857600  1
  Zn  Zn37  1  0.05505800  0.40363400  0.65142400  1
  Zn  Zn38  1  0.24778900  0.59636600  0.65142400  1
  Zn  Zn39  1  0.75221100  0.40363400  0.34857600  1
  Zn  Zn40  1  0.59636600  0.34857600  0.94494200  1
  Zn  Zn41  1  0.40363400  0.65142400  0.05505800  1
  Zn  Zn42  1  0.59636600  0.65142400  0.24778900  1
  Zn  Zn43  1  0.40363400  0.34857600  0.75221100  1
  Zn  Zn44  1  0.13871300  0.22808300  0.68398000  1
  Zn  Zn45  1  0.45589800  0.77191700  0.91063000  1
  Zn  Zn46  1  0.86128700  0.54526800  0.08937000  1
  Zn  Zn47  1  0.54410200  0.45473200  0.31602000  1
  Zn  Zn48  1  0.22808300  0.68398000  0.13871300  1
  Zn  Zn49  1  0.77191700  0.91063000  0.45589800  1
  Zn  Zn50  1  0.54526800  0.08937000  0.86128700  1
  Zn  Zn51  1  0.45473200  0.31602000  0.54410200  1
  Zn  Zn52  1  0.68398000  0.13871300  0.22808300  1
  Zn  Zn53  1  0.91063000  0.45589800  0.77191700  1
  Zn  Zn54  1  0.08937000  0.86128700  0.54526800  1
  Zn  Zn55  1  0.31602000  0.54410200  0.45473200  1
  Zn  Zn56  1  0.86128700  0.77191700  0.31602000  1
  Zn  Zn57  1  0.54410200  0.22808300  0.08937000  1
  Zn  Zn58  1  0.13871300  0.45473200  0.91063000  1
  Zn  Zn59  1  0.45589800  0.54526800  0.68398000  1
  Zn  Zn60  1  0.77191700  0.31602000  0.86128700  1
  Zn  Zn61  1  0.22808300  0.08937000  0.54410200  1
  Zn  Zn62  1  0.45473200  0.91063000  0.13871300  1
  Zn  Zn63  1  0.54526800  0.68398000  0.45589800  1
  Zn  Zn64  1  0.31602000  0.86128700  0.77191700  1
  Zn  Zn65  1  0.08937000  0.54410200  0.22808300  1
  Zn  Zn66  1  0.91063000  0.13871300  0.45473200  1
  Zn  Zn67  1  0.68398000  0.45589800  0.54526800  1
loop_
_geom_bond_atom_site_label_1
_geom_bond_atom_site_label_2
_geom_bond_distance
_geom_bond_site_symmetry_2
Yb0 Zn50 3.001019 1_555
Yb0 Zn61 3.001030 1_555
Yb0 Zn5 3.006440 1_556
Yb0 Zn17 3.039602 1_556
Yb0 Zn12 3.039613 1_555
Yb0 Zn20 3.047419 1_545
Yb0 Zn27 3.060166 1_556
Yb0 Zn25 3.060172 1_555
Yb0 Zn64 3.076585 1_545
Yb0 Zn54 3.076587 1_545
Yb0 Zn57 3.082676 1_556
Yb0 Zn44 3.082694 1_555
Yb0 Zn43 3.144383 1_555
Yb0 Zn40 3.144385 1_555
Yb0 Zn32 3.170184 1_545
Yb0 Zn9 3.285994 1_555
Yb1 Zn62 3.001019 1_555
Yb1 Zn49 3.001030 1_555
Yb1 Zn4 3.006440 1_555
Yb1 Zn13 3.039602 1_565
Yb1 Zn16 3.039613 1_665
Yb1 Zn21 3.047419 1_565
Yb1 Zn26 3.060166 1_554
Yb1 Zn24 3.060172 1_555
Yb1 Zn52 3.076585 1_565
Yb1 Zn66 3.076587 1_565
Yb1 Zn45 3.082676 1_554
Yb1 Zn56 3.082694 1_555
Yb1 Zn42 3.144383 1_555
Yb1 Zn41 3.144385 1_555
Yb1 Zn33 3.170184 1_565
Yb1 Zn8 3.285994 1_555
Yb2 Zn60 3.001013 1_555
Yb2 Zn51 3.001024 1_555
Yb2 Zn4 3.006430 1_556
Yb2 Zn14 3.039611 1_656
Yb2 Zn19 3.039611 1_555
Yb2 Zn22 3.047428 1_555
Yb2 Zn26 3.060165 1_555
Yb2 Zn24 3.060165 1_556
Yb2 Zn67 3.076587 1_555
Yb2 Zn53 3.076591 1_555
Yb2 Zn46 3.082679 1_556
Yb2 Zn59 3.082682 1_555
Yb2 Zn40 3.144381 1_555
Yb2 Zn43 3.144385 1_555
Yb2 Zn34 3.170198 1_555
Yb2 Zn9 3.285992 1_555
Yb3 Zn48 3.001013 1_555
Yb3 Zn63 3.001024 1_555
Yb3 Zn5 3.006430 1_555
Yb3 Zn18 3.039611 1_555
Yb3 Zn15 3.039611 1_555
Yb3 Zn23 3.047428 1_555
Yb3 Zn27 3.060165 1_555
Yb3 Zn25 3.060165 1_554
Yb3 Zn55 3.076587 1_555
Yb3 Zn65 3.076591 1_555
Yb3 Zn58 3.082679 1_554
Yb3 Zn47 3.082682 1_555
Yb3 Zn41 3.144381 1_555
Yb3 Zn42 3.144385 1_555
Yb3 Zn35 3.170198 1_555
Yb3 Zn8 3.285992 1_555
Yb4 Zn54 3.001019 1_555
Yb4 Zn65 3.001030 1_555
Yb4 Zn1 3.006440 1_565
Yb4 Zn16 3.039602 1_565
Yb4 Zn14 3.039613 1_555
Yb4 Zn24 3.047419 1_455
Yb4 Zn31 3.060166 1_565
Yb4 Zn29 3.060172 1_555
Yb4 Zn56 3.076585 1_455
Yb4 Zn46 3.076587 1_455
Yb4 Zn61 3.082676 1_565
Yb4 Zn48 3.082694 1_555
Yb4 Zn35 3.144383 1_555
Yb4 Zn32 3.144385 1_555
Yb4 Zn36 3.170184 1_455
Yb4 Zn11 3.285994 1_555
Yb5 Zn66 3.001019 1_555
Yb5 Zn53 3.001030 1_555
Yb5 Zn0 3.006440 1_555
Yb5 Zn12 3.039602 1_655
Yb5 Zn18 3.039613 1_656
Yb5 Zn25 3.047419 1_655
Yb5 Zn30 3.060166 1_545
Yb5 Zn28 3.060172 1_555
Yb5 Zn44 3.076585 1_655
Yb5 Zn58 3.076587 1_655
Yb5 Zn49 3.082676 1_545
Yb5 Zn60 3.082694 1_555
Yb5 Zn34 3.144383 1_555
Yb5 Zn33 3.144385 1_555
Yb5 Zn37 3.170184 1_655
Yb5 Zn10 3.285994 1_555
Yb6 Zn64 3.001013 1_555
Yb6 Zn55 3.001024 1_555
Yb6 Zn0 3.006430 1_565
Yb6 Zn13 3.039611 1_566
Yb6 Zn19 3.039611 1_555
Yb6 Zn26 3.047428 1_555
Yb6 Zn30 3.060165 1_555
Yb6 Zn28 3.060165 1_565
Yb6 Zn59 3.076587 1_555
Yb6 Zn45 3.076591 1_555
Yb6 Zn50 3.082679 1_565
Yb6 Zn63 3.082682 1_555
Yb6 Zn32 3.144381 1_555
Yb6 Zn35 3.144385 1_555
Yb6 Zn38 3.170198 1_555
Yb6 Zn11 3.285992 1_555
Yb7 Zn52 3.001013 1_555
Yb7 Zn67 3.001024 1_555
Yb7 Zn1 3.006430 1_555
Yb7 Zn15 3.039611 1_555
Yb7 Zn17 3.039611 1_555
Yb7 Zn27 3.047428 1_555
Yb7 Zn31 3.060165 1_555
Yb7 Zn29 3.060165 1_545
Yb7 Zn47 3.076587 1_555
Yb7 Zn57 3.076591 1_555
Yb7 Zn62 3.082679 1_545
Yb7 Zn51 3.082682 1_555
Yb7 Zn33 3.144381 1_555
Yb7 Zn34 3.144385 1_555
Yb7 Zn39 3.170198 1_555
Yb7 Zn10 3.285992 1_555
Yb8 Zn46 3.001019 1_555
Yb8 Zn57 3.001030 1_555
Yb8 Zn3 3.006440 1_655
Yb8 Zn18 3.039602 1_655
Yb8 Zn13 3.039613 1_555
Yb8 Zn28 3.047419 1_554
Yb8 Zn23 3.060166 1_655
Yb8 Zn21 3.060172 1_555
Yb8 Zn60 3.076585 1_554
Yb8 Zn50 3.076587 1_554
Yb8 Zn65 3.082676 1_655
Yb8 Zn52 3.082694 1_555
Yb8 Zn39 3.144383 1_555
Yb8 Zn36 3.144385 1_555
Yb8 Zn40 3.170184 1_554
Yb8 Zn7 3.285994 1_555
Yb9 Zn58 3.001019 1_555
Yb9 Zn45 3.001030 1_555
Yb9 Zn2 3.006440 1_555
Yb9 Zn14 3.039602 1_556
Yb9 Zn17 3.039613 1_566
Yb9 Zn29 3.047419 1_556
Yb9 Zn22 3.060166 1_455
Yb9 Zn20 3.060172 1_555
Yb9 Zn48 3.076585 1_556
Yb9 Zn62 3.076587 1_556
Yb9 Zn53 3.082676 1_455
Yb9 Zn64 3.082694 1_555
Yb9 Zn38 3.144383 1_555
Yb9 Zn37 3.144385 1_555
Yb9 Zn41 3.170184 1_556
Yb9 Zn6 3.285994 1_555
Yb10 Zn56 3.001013 1_555
Yb10 Zn47 3.001024 1_555
Yb10 Zn2 3.006430 1_655
Yb10 Zn19 3.039611 1_555
Yb10 Zn12 3.039611 1_665
Yb10 Zn30 3.047428 1_555
Yb10 Zn22 3.060165 1_555
Yb10 Zn20 3.060165 1_655
Yb10 Zn63 3.076587 1_555
Yb10 Zn49 3.076591 1_555
Yb10 Zn54 3.082679 1_655
Yb10 Zn67 3.082682 1_555
Yb10 Zn36 3.144381 1_555
Yb10 Zn39 3.144385 1_555
Yb10 Zn42 3.170198 1_555
Yb10 Zn7 3.285992 1_555
Yb11 Zn44 3.001013 1_555
Yb11 Zn59 3.001024 1_555
Yb11 Zn3 3.006430 1_555
Yb11 Zn15 3.039611 1_555
Yb11 Zn16 3.039611 1_555
Yb11 Zn31 3.047428 1_555
Yb11 Zn21 3.060165 1_455
Yb11 Zn23 3.060165 1_555
Yb11 Zn51 3.076587 1_555
Yb11 Zn61 3.076591 1_555
Yb11 Zn66 3.082679 1_455
Yb11 Zn55 3.082682 1_555
Yb11 Zn37 3.144381 1_555
Yb11 Zn38 3.144385 1_555
Yb11 Zn43 3.170198 1_555
Yb11 Zn6 3.285992 1_555
Zn0 Zn1 2.572687 1_555
Zn0 Zn30 2.789499 1_545
Zn0 Zn28 2.789499 1_555
Zn0 Zn34 2.842576 1_555
Zn0 Zn35 2.842582 1_545
Zn0 Zn32 2.842588 1_545
Zn0 Zn33 2.842588 1_555
Zn0 Zn8 3.024357 1_545
Zn0 Zn9 3.024357 1_555
Zn1 Zn31 2.789499 1_555
Zn1 Zn29 2.789499 1_545
Zn1 Zn35 2.842576 1_545
Zn1 Zn34 2.842582 1_555
Zn1 Zn32 2.842588 1_545
Zn1 Zn33 2.842588 1_555
Zn1 Zn8 3.024357 1_545
Zn1 Zn9 3.024357 1_555
Zn2 Zn3 2.572687 1_555
Zn2 Zn20 2.789499 1_555
Zn2 Zn22 2.789499 1_455
Zn2 Zn38 2.842576 1_555
Zn2 Zn39 2.842582 1_455
Zn2 Zn36 2.842588 1_455
Zn2 Zn37 2.842588 1_555
Zn3 Zn39 2.842576 1_455
Zn3 Zn38 2.842582 1_555
Zn3 Zn36 2.842588 1_455
Zn3 Zn37 2.842588 1_555
Zn4 Zn5 2.572687 1_555
Zn4 Zn42 2.842576 1_555
Zn4 Zn43 2.842582 1_554
Zn4 Zn40 2.842588 1_554
Zn4 Zn41 2.842588 1_555
Zn4 Zn7 3.024357 1_555
Zn4 Zn6 3.024357 1_554
Zn5 Zn7 3.024357 1_555
Zn5 Zn6 3.024357 1_554
Zn10 Zn39 2.543086 1_555
Zn10 Zn37 2.543088 1_655
Zn10 Zn33 2.574826 1_555
Zn10 Zn34 2.574828 1_555
Zn10 Zn52 2.755703 1_555
Zn10 Zn53 2.755705 1_555
Zn10 Zn66 2.755705 1_555
Zn10 Zn67 2.755715 1_555
Zn10 Zn2 3.024357 1_655
Zn10 Zn3 3.024357 1_655
Zn11 Zn38 2.543086 1_555
Zn11 Zn36 2.543088 1_455
Zn11 Zn32 2.574826 1_555
Zn11 Zn35 2.574828 1_555
Zn11 Zn64 2.755703 1_555
Zn11 Zn65 2.755705 1_555
Zn11 Zn54 2.755705 1_555
Zn11 Zn55 2.755715 1_555
Zn11 Zn3 3.024357 1_555
Zn11 Zn2 3.024357 1_555
Zn12 Zn49 2.676678 1_445
Zn12 Zn54 2.676678 1_545
Zn12 Zn44 2.676685 1_555
Zn12 Zn30 2.702550 1_445
Zn12 Zn20 2.702550 1_545
Zn12 Zn25 2.702550 1_555
Zn13 Zn50 2.676678 1_554
Zn13 Zn45 2.676678 1_544
Zn13 Zn52 2.676685 1_555
Zn13 Zn26 2.702550 1_544
Zn13 Zn28 2.702550 1_554
Zn13 Zn21 2.702550 1_555
Zn14 Zn53 2.676678 1_454
Zn14 Zn46 2.676678 1_455
Zn14 Zn48 2.676685 1_555
Zn14 Zn24 2.702550 1_455
Zn14 Zn29 2.702550 1_555
Zn14 Zn22 2.702550 1_454
Zn15 Zn47 2.676671 1_555
Zn15 Zn51 2.676671 1_555
Zn15 Zn55 2.676671 1_555
Zn15 Zn31 2.702550 1_555
Zn15 Zn23 2.702550 1_555
Zn15 Zn27 2.702550 1_555
Zn16 Zn66 2.676678 1_455
Zn16 Zn61 2.676678 1_555
Zn16 Zn56 2.676685 1_445
Zn16 Zn31 2.702550 1_555
Zn16 Zn21 2.702550 1_455
Zn16 Zn24 2.702550 1_445
Zn17 Zn62 2.676678 1_545
Zn17 Zn57 2.676678 1_555
Zn17 Zn64 2.676685 1_544
Zn17 Zn27 2.702550 1_555
Zn17 Zn20 2.702550 1_544
Zn17 Zn29 2.702550 1_545
Zn18 Zn58 2.676678 1_554
Zn18 Zn65 2.676678 1_555
Zn18 Zn60 2.676685 1_454
Zn18 Zn25 2.702550 1_554
Zn18 Zn28 2.702550 1_454
Zn18 Zn23 2.702550 1_555
Zn19 Zn63 2.676671 1_555
Zn19 Zn67 2.676671 1_555
Zn19 Zn59 2.676671 1_555
Zn19 Zn22 2.702550 1_555
Zn19 Zn30 2.702550 1_555
Zn19 Zn26 2.702550 1_555
Zn20 Zn22 2.601046 1_455
Zn20 Zn54 2.700913 1_555
Zn20 Zn64 2.700925 1_555
Zn21 Zn23 2.601046 1_655
Zn21 Zn66 2.700913 1_555
Zn21 Zn52 2.700925 1_555
Zn21 Zn3 2.789499 1_655
Zn22 Zn53 2.700913 1_555
Zn22 Zn67 2.700917 1_555
Zn23 Zn65 2.700913 1_555
Zn23 Zn55 2.700917 1_555
Zn23 Zn3 2.789499 1_555
Zn24 Zn26 2.601046 1_554
Zn24 Zn46 2.700913 1_555
Zn24 Zn56 2.700925 1_555
Zn24 Zn4 2.789499 1_555
Zn25 Zn27 2.601046 1_556
Zn25 Zn58 2.700913 1_555
Zn25 Zn44 2.700925 1_555
Zn25 Zn5 2.789499 1_556
Zn26 Zn45 2.700913 1_555
Zn26 Zn59 2.700917 1_555
Zn26 Zn4 2.789499 1_556
Zn27 Zn57 2.700913 1_555
Zn27 Zn47 2.700917 1_555
Zn27 Zn5 2.789499 1_555
Zn28 Zn30 2.601046 1_545
Zn28 Zn50 2.700913 1_555
Zn28 Zn60 2.700925 1_555
Zn29 Zn31 2.601046 1_565
Zn29 Zn62 2.700913 1_555
Zn29 Zn48 2.700925 1_555
Zn30 Zn49 2.700913 1_555
Zn30 Zn63 2.700917 1_555
Zn31 Zn61 2.700913 1_555
Zn31 Zn51 2.700917 1_555
Zn32 Zn9 2.543088 1_565
Zn32 Zn35 2.721931 1_555
Zn32 Zn61 2.749761 1_565
Zn32 Zn50 2.749761 1_565
Zn32 Zn64 2.752915 1_555
Zn32 Zn54 2.752918 1_555
Zn33 Zn8 2.543088 1_545
Zn33 Zn34 2.721931 1_555
Zn33 Zn49 2.749761 1_545
Zn33 Zn62 2.749761 1_545
Zn33 Zn52 2.752915 1_555
Zn33 Zn66 2.752918 1_555
Zn34 Zn9 2.543086 1_555
Zn34 Zn60 2.749755 1_555
Zn34 Zn51 2.749778 1_555
Zn34 Zn53 2.752921 1_555
Zn34 Zn67 2.752931 1_555
Zn35 Zn8 2.543086 1_555
Zn35 Zn48 2.749755 1_555
Zn35 Zn63 2.749778 1_555
Zn35 Zn65 2.752921 1_555
Zn35 Zn55 2.752931 1_555
Zn36 Zn7 2.574826 1_555
Zn36 Zn39 2.721931 1_555
Zn36 Zn65 2.749761 1_655
Zn36 Zn54 2.749761 1_655
Zn36 Zn56 2.752915 1_555
Zn36 Zn46 2.752918 1_555
Zn37 Zn6 2.574826 1_555
Zn37 Zn38 2.721931 1_555
Zn37 Zn53 2.749761 1_455
Zn37 Zn66 2.749761 1_455
Zn37 Zn44 2.752915 1_555
Zn37 Zn58 2.752918 1_555
Zn38 Zn6 2.574828 1_555
Zn38 Zn64 2.749755 1_555
Zn38 Zn55 2.749778 1_555
Zn38 Zn45 2.752921 1_555
Zn38 Zn59 2.752931 1_555
Zn39 Zn7 2.574828 1_555
Zn39 Zn52 2.749755 1_555
Zn39 Zn67 2.749778 1_555
Zn39 Zn57 2.752921 1_555
Zn39 Zn47 2.752931 1_555
Zn40 Zn7 2.543088 1_556
Zn40 Zn9 2.574826 1_555
Zn40 Zn43 2.721931 1_555
Zn40 Zn57 2.749761 1_556
Zn40 Zn46 2.749761 1_556
Zn40 Zn60 2.752915 1_555
Zn40 Zn50 2.752918 1_555
Zn40 Zn5 2.842588 1_556
Zn41 Zn6 2.543088 1_554
Zn41 Zn8 2.574826 1_555
Zn41 Zn42 2.721931 1_555
Zn41 Zn45 2.749761 1_554
Zn41 Zn58 2.749761 1_554
Zn41 Zn48 2.752915 1_555
Zn41 Zn62 2.752918 1_555
Zn41 Zn5 2.842588 1_555
Zn42 Zn7 2.543086 1_555
Zn42 Zn8 2.574828 1_555
Zn42 Zn56 2.749755 1_555
Zn42 Zn47 2.749778 1_555
Zn42 Zn49 2.752921 1_555
Zn42 Zn63 2.752931 1_555
Zn42 Zn5 2.842582 1_555
Zn43 Zn6 2.543086 1_555
Zn43 Zn9 2.574828 1_555
Zn43 Zn44 2.749755 1_555
Zn43 Zn59 2.749778 1_555
Zn43 Zn61 2.752921 1_555
Zn43 Zn51 2.752931 1_555
Zn43 Zn5 2.842576 1_556
Zn44 Zn66 2.747370 1_455
Zn44 Zn61 2.747370 1_555
Zn44 Zn6 2.755703 1_555
Zn45 Zn64 2.747370 1_555
Zn45 Zn62 2.747377 1_556
Zn45 Zn6 2.755705 1_555
Zn46 Zn60 2.747370 1_554
Zn46 Zn65 2.747377 1_655
Zn46 Zn7 2.755705 1_555
Zn47 Zn67 2.747363 1_555
Zn47 Zn63 2.747363 1_555
Zn47 Zn7 2.755715 1_555
Zn48 Zn58 2.747370 1_554
Zn48 Zn65 2.747370 1_555
Zn48 Zn8 2.755703 1_555
Zn49 Zn56 2.747370 1_555
Zn49 Zn66 2.747377 1_565
Zn49 Zn8 2.755705 1_555
Zn50 Zn64 2.747370 1_545
Zn50 Zn57 2.747377 1_556
Zn50 Zn9 2.755705 1_555
Zn51 Zn59 2.747363 1_555
Zn51 Zn67 2.747363 1_555
Zn51 Zn9 2.755715 1_555
Zn52 Zn62 2.747370 1_545
Zn52 Zn57 2.747370 1_555
Zn53 Zn60 2.747370 1_555
Zn53 Zn58 2.747377 1_655
Zn54 Zn56 2.747370 1_455
Zn54 Zn61 2.747377 1_565
Zn55 Zn63 2.747363 1_555
Zn55 Zn59 2.747363 1_555
Zn56 Zn7 2.755703 1_555
Zn57 Zn7 2.755705 1_555
Zn58 Zn6 2.755705 1_555
Zn59 Zn6 2.755715 1_555
Zn60 Zn9 2.755703 1_555
Zn61 Zn9 2.755705 1_555
Zn62 Zn8 2.755705 1_555
Zn63 Zn8 2.755715 1_555
