# generated using pymatgen
data_KY2Cl7
_symmetry_space_group_name_H-M   'P 1'
_cell_length_a   12.59927611
_cell_length_b   6.91535430
_cell_length_c   12.83044850
_cell_angle_alpha   90.22081471
_cell_angle_beta   90.00000000
_cell_angle_gamma   90.00000000
_symmetry_Int_Tables_number   1
_chemical_formula_structural   KY2Cl7
_chemical_formula_sum   'K4 Y8 Cl28'
_cell_volume   1117.88889455
_cell_formula_units_Z   4
loop_
 _symmetry_equiv_pos_site_id
 _symmetry_equiv_pos_as_xyz
  1  'x, y, z'
loop_
 _atom_site_type_symbol
 _atom_site_label
 _atom_site_symmetry_multiplicity
 _atom_site_fract_x
 _atom_site_fract_y
 _atom_site_fract_z
 _atom_site_occupancy
  K  K0  1  0.20498902  0.78464031  0.03570786  1
  K  K1  1  0.79501098  0.21535969  0.96429214  1
  K  K2  1  0.70498902  0.21535969  0.46429214  1
  K  K3  1  0.29501098  0.78464031  0.53570786  1
  Y  Y0  1  0.53697950  0.77346244  0.23690986  1
  Y  Y1  1  0.46302050  0.22653756  0.76309014  1
  Y  Y2  1  0.03697950  0.22653756  0.26309014  1
  Y  Y3  1  0.96302050  0.77346244  0.73690986  1
  Y  Y4  1  0.83971657  0.72413182  0.24781140  1
  Y  Y5  1  0.16028343  0.27586818  0.75218860  1
  Y  Y6  1  0.33971657  0.27586818  0.25218860  1
  Y  Y7  1  0.66028343  0.72413182  0.74781140  1
  Cl  Cl0  1  0.97305973  0.94336723  0.13069749  1
  Cl  Cl1  1  0.02694027  0.05663277  0.86930251  1
  Cl  Cl2  1  0.47305973  0.05663277  0.36930251  1
  Cl  Cl3  1  0.52694027  0.94336723  0.63069749  1
  Cl  Cl4  1  0.68530083  0.74886279  0.39631114  1
  Cl  Cl5  1  0.31469917  0.25113721  0.60368886  1
  Cl  Cl6  1  0.18530083  0.25113721  0.10368886  1
  Cl  Cl7  1  0.81469917  0.74886279  0.89631114  1
  Cl  Cl8  1  0.67785965  0.50760297  0.17190517  1
  Cl  Cl9  1  0.32214035  0.49239703  0.82809483  1
  Cl  Cl10  1  0.17785965  0.49239703  0.32809483  1
  Cl  Cl11  1  0.82214035  0.50760297  0.67190517  1
  Cl  Cl12  1  0.92524714  0.97883613  0.38289614  1
  Cl  Cl13  1  0.07475286  0.02116387  0.61710386  1
  Cl  Cl14  1  0.42524714  0.02116387  0.11710386  1
  Cl  Cl15  1  0.57475286  0.97883613  0.88289614  1
  Cl  Cl16  1  0.94191575  0.46096338  0.12566424  1
  Cl  Cl17  1  0.05808425  0.53903662  0.87433576  1
  Cl  Cl18  1  0.44191575  0.53903662  0.37433576  1
  Cl  Cl19  1  0.55808425  0.46096338  0.62566424  1
  Cl  Cl20  1  0.70286027  0.99549975  0.17348999  1
  Cl  Cl21  1  0.29713973  0.00450025  0.82651001  1
  Cl  Cl22  1  0.20286027  0.00450025  0.32651001  1
  Cl  Cl23  1  0.79713973  0.99549975  0.67348999  1
  Cl  Cl24  1  0.91044185  0.45851314  0.38231085  1
  Cl  Cl25  1  0.08955815  0.54148686  0.61768915  1
  Cl  Cl26  1  0.41044185  0.54148686  0.11768915  1
  Cl  Cl27  1  0.58955815  0.45851314  0.88231085  1
loop_
_geom_bond_atom_site_label_1
_geom_bond_atom_site_label_2
_geom_bond_distance
_geom_bond_site_symmetry_2
Cl0 Y2 2.709799 1_665
Cl0 Y4 2.719643 1_555
Cl0 K0 3.349450 1_655
Cl0 K1 3.627619 1_564
Cl1 Y3 2.709799 1_445
Cl1 Y5 2.719643 1_555
Cl1 K1 3.349450 1_455
Cl1 K0 3.627619 1_546
Cl2 Y0 2.709799 1_545
Cl2 Y6 2.719643 1_555
Cl2 K2 3.349450 1_555
Cl2 K3 3.627619 1_545
Cl3 Y1 2.709799 1_565
Cl3 Y7 2.719643 1_555
Cl3 K3 3.349450 1_555
Cl3 K2 3.627619 1_565
Cl4 Y4 2.728012 1_555
Cl4 Y0 2.776079 1_555
Cl4 K2 3.347782 1_565
Cl5 Y5 2.728012 1_555
Cl5 Y1 2.776079 1_555
Cl5 K3 3.347782 1_545
Cl6 Y6 2.728012 1_555
Cl6 Y2 2.776079 1_555
Cl6 K0 3.347782 1_545
Cl7 Y7 2.728012 1_555
Cl7 Y3 2.776079 1_555
Cl7 K1 3.347782 1_565
Cl8 Y0 2.685984 1_555
Cl8 Y4 2.708884 1_555
Cl8 K1 3.649262 1_554
Cl9 Y1 2.685984 1_555
Cl9 Y5 2.708884 1_555
Cl9 K0 3.649262 1_556
Cl10 Y2 2.685984 1_555
Cl10 Y6 2.708884 1_555
Cl10 K3 3.649262 1_555
Cl11 Y3 2.685984 1_555
Cl11 Y7 2.708884 1_555
Cl11 K2 3.649262 1_555
Cl12 Y4 2.691494 1_555
Cl12 Y2 2.701684 1_665
Cl12 K2 3.384371 1_565
Cl13 Y5 2.691494 1_555
Cl13 Y3 2.701684 1_445
Cl13 K3 3.384371 1_545
Cl14 Y6 2.691494 1_555
Cl14 Y0 2.701684 1_545
Cl14 K0 3.384371 1_545
Cl15 Y7 2.691494 1_555
Cl15 Y1 2.701684 1_565
Cl15 K1 3.384371 1_565
Cl16 Y2 2.682105 1_655
Cl16 Y4 2.721065 1_555
Cl16 K1 3.251194 1_554
Cl17 Y3 2.682105 1_455
Cl17 Y5 2.721065 1_555
Cl17 K0 3.251194 1_556
Cl18 Y0 2.682105 1_555
Cl18 Y6 2.721065 1_555
Cl18 K3 3.251194 1_555
Cl19 Y1 2.682105 1_555
Cl19 Y7 2.721065 1_555
Cl19 K2 3.251194 1_555
Cl20 Y0 2.719818 1_555
Cl20 Y4 2.723587 1_555
Cl20 K1 3.300833 1_564
Cl21 Y1 2.719818 1_555
Cl21 Y5 2.723587 1_555
Cl21 K0 3.300833 1_546
Cl22 Y2 2.719818 1_555
Cl22 Y6 2.723587 1_555
Cl22 K3 3.300833 1_545
Cl23 Y3 2.719818 1_555
Cl23 Y7 2.723587 1_555
Cl23 K2 3.300833 1_565
Cl24 Y4 2.677775 1_555
Cl24 Y2 2.726922 1_655
Cl24 K2 3.263139 1_555
Cl25 Y5 2.677775 1_555
Cl25 Y3 2.726922 1_455
Cl25 K3 3.263139 1_555
Cl26 Y6 2.677775 1_555
Cl26 Y0 2.726922 1_555
Cl26 K0 3.263139 1_555
Cl27 Y7 2.677775 1_555
Cl27 Y1 2.726922 1_555
Cl27 K1 3.263139 1_555
