# generated using pymatgen
data_LuSnIr
_symmetry_space_group_name_H-M   'P 1'
_cell_length_a   7.47366730
_cell_length_b   7.47366730
_cell_length_c   3.74972253
_cell_angle_alpha   90.00000000
_cell_angle_beta   90.00000000
_cell_angle_gamma   119.99999518
_symmetry_Int_Tables_number   1
_chemical_formula_structural   LuSnIr
_chemical_formula_sum   'Lu3 Sn3 Ir3'
_cell_volume   181.38330293
_cell_formula_units_Z   3
loop_
 _symmetry_equiv_pos_site_id
 _symmetry_equiv_pos_as_xyz
  1  'x, y, z'
loop_
 _atom_site_type_symbol
 _atom_site_label
 _atom_site_symmetry_multiplicity
 _atom_site_fract_x
 _atom_site_fract_y
 _atom_site_fract_z
 _atom_site_occupancy
  Lu  Lu0  1  0.00000000  0.40254252  0.50000000  1
  Lu  Lu1  1  0.59745748  0.59745748  0.50000000  1
  Lu  Lu2  1  0.40254252  0.00000000  0.50000000  1
  Sn  Sn0  1  -0.00000000  0.73413377  0.00000000  1
  Sn  Sn1  1  0.26586623  0.26586623  0.00000000  1
  Sn  Sn2  1  0.73413377  -0.00000000  -0.00000000  1
  Ir  Ir0  1  0.33333300  0.66666700  0.00000000  1
  Ir  Ir1  1  0.66666700  0.33333300  0.00000000  1
  Ir  Ir2  1  -0.00000000  0.00000000  0.50000000  1
loop_
_geom_bond_atom_site_label_1
_geom_bond_atom_site_label_2
_geom_bond_distance
_geom_bond_site_symmetry_2
Lu0 Sn0 3.107506 1_555
Lu0 Sn0 3.107506 1_556
Lu0 Sn1 3.245971 1_556
Lu0 Sn1 3.245971 1_555
Lu0 Sn2 3.245971 1_456
Lu0 Sn2 3.245971 1_455
Lu1 Sn1 3.107506 1_555
Lu1 Sn1 3.107506 1_556
Lu1 Sn2 3.245971 1_565
Lu1 Sn0 3.245971 1_656
Lu1 Sn2 3.245971 1_566
Lu1 Sn0 3.245971 1_655
Lu2 Sn2 3.107506 1_556
Lu2 Sn2 3.107506 1_555
Lu2 Sn1 3.245971 1_556
Lu2 Sn1 3.245971 1_555
Lu2 Sn0 3.245971 1_546
Lu2 Sn0 3.245971 1_545
Ir0 Sn0 2.777868 1_555
Ir0 Sn2 2.777873 1_565
Ir0 Sn1 2.777876 1_555
Ir0 Lu2 2.949618 1_565
Ir0 Lu2 2.949618 1_564
Ir0 Lu0 2.949620 1_555
Ir0 Lu0 2.949620 1_554
Ir0 Lu1 2.949624 1_554
Ir0 Lu1 2.949624 1_555
Ir1 Sn2 2.777868 1_555
Ir1 Sn0 2.777873 1_655
Ir1 Sn1 2.777876 1_555
Ir1 Lu0 2.949618 1_655
Ir1 Lu0 2.949618 1_654
Ir1 Lu2 2.949620 1_555
Ir1 Lu2 2.949620 1_554
Ir1 Lu1 2.949624 1_554
Ir1 Lu1 2.949624 1_555
Ir2 Sn2 2.731896 1_455
Ir2 Sn0 2.731896 1_545
Ir2 Sn0 2.731896 1_546
Ir2 Sn2 2.731896 1_456
Ir2 Sn1 2.731896 1_555
Ir2 Sn1 2.731896 1_556
Ir2 Lu2 3.008469 1_555
Ir2 Lu0 3.008469 1_555
Ir2 Lu1 3.008469 1_445
