# generated using pymatgen
data_BaNdCuS3
_symmetry_space_group_name_H-M   'P 1'
_cell_length_a   4.20777900
_cell_length_b   11.18536600
_cell_length_c   11.94068900
_cell_angle_alpha   90.00000000
_cell_angle_beta   90.00000000
_cell_angle_gamma   90.00000000
_symmetry_Int_Tables_number   1
_chemical_formula_structural   BaNdCuS3
_chemical_formula_sum   'Ba4 Nd4 Cu4 S12'
_cell_volume   561.99507322
_cell_formula_units_Z   4
loop_
 _symmetry_equiv_pos_site_id
 _symmetry_equiv_pos_as_xyz
  1  'x, y, z'
loop_
 _atom_site_type_symbol
 _atom_site_label
 _atom_site_symmetry_multiplicity
 _atom_site_fract_x
 _atom_site_fract_y
 _atom_site_fract_z
 _atom_site_occupancy
  Ba  Ba0  1  0.75000000  0.68583100  0.00609200  1
  Ba  Ba1  1  0.75000000  0.18583100  0.49390800  1
  Ba  Ba2  1  0.25000000  0.31416900  0.99390800  1
  Ba  Ba3  1  0.25000000  0.81416900  0.50609200  1
  Nd  Nd0  1  0.75000000  0.00933800  0.81444500  1
  Nd  Nd1  1  0.75000000  0.50933800  0.68555500  1
  Nd  Nd2  1  0.25000000  0.99066200  0.18555600  1
  Nd  Nd3  1  0.25000000  0.49066200  0.31444500  1
  Cu  Cu0  1  0.25000000  0.24777500  0.71036000  1
  Cu  Cu1  1  0.25000000  0.74777500  0.78964000  1
  Cu  Cu2  1  0.75000000  0.75222500  0.28964000  1
  Cu  Cu3  1  0.75000000  0.25222500  0.21036000  1
  S  S0  1  0.75000000  0.27284200  0.79925900  1
  S  S1  1  0.75000000  0.77284200  0.70074100  1
  S  S2  1  0.25000000  0.72715800  0.20074100  1
  S  S3  1  0.25000000  0.22715800  0.29925900  1
  S  S4  1  0.75000000  0.10656100  0.06386700  1
  S  S5  1  0.75000000  0.60656100  0.43613300  1
  S  S6  1  0.25000000  0.89343900  0.93613300  1
  S  S7  1  0.25000000  0.39343900  0.56386700  1
  S  S8  1  0.25000000  0.04913800  0.65162500  1
  S  S9  1  0.25000000  0.54913800  0.84837500  1
  S  S10  1  0.75000000  0.95086200  0.34837500  1
  S  S11  1  0.75000000  0.45086200  0.15162500  1
loop_
_geom_bond_atom_site_label_1
_geom_bond_atom_site_label_2
_geom_bond_distance
_geom_bond_site_symmetry_2
Ba0 S11 3.150767 1_555
Ba0 S2 3.168933 1_655
Ba0 S2 3.168933 1_555
Ba0 S9 3.211028 1_654
Ba0 S9 3.211028 1_554
Ba0 S6 3.242939 1_654
Ba0 S6 3.242939 1_554
Ba1 S10 3.150767 1_545
Ba1 S3 3.168933 1_555
Ba1 S3 3.168933 1_655
Ba1 S8 3.211028 1_555
Ba1 S8 3.211028 1_655
Ba1 S7 3.242939 1_555
Ba1 S7 3.242939 1_655
Ba2 S9 3.150767 1_555
Ba2 S0 3.168933 1_555
Ba2 S0 3.168933 1_455
Ba2 S11 3.211028 1_456
Ba2 S11 3.211028 1_556
Ba2 S4 3.242939 1_456
Ba2 S4 3.242939 1_556
Ba3 S8 3.150767 1_565
Ba3 S1 3.168933 1_455
Ba3 S1 3.168933 1_555
Ba3 S10 3.211028 1_555
Ba3 S10 3.211028 1_455
Ba3 S5 3.242939 1_455
Ba3 S5 3.242939 1_555
Nd0 S6 2.866750 1_545
Nd0 S6 2.866750 1_645
Nd0 S8 2.899031 1_655
Nd0 S8 2.899031 1_555
Nd0 S0 2.952961 1_555
Nd0 S1 2.973372 1_545
Nd0 S4 3.170599 1_556
Nd1 S7 2.866750 1_655
Nd1 S7 2.866750 1_555
Nd1 S9 2.899031 1_655
Nd1 S9 2.899031 1_555
Nd1 S1 2.952961 1_555
Nd1 S0 2.973372 1_555
Nd1 S5 3.170599 1_555
Nd2 S4 2.866756 1_465
Nd2 S4 2.866756 1_565
Nd2 S10 2.899023 1_455
Nd2 S10 2.899023 1_555
Nd2 S2 2.952961 1_555
Nd2 S3 2.973367 1_565
Nd2 S6 3.170610 1_554
Nd3 S5 2.866750 1_555
Nd3 S5 2.866750 1_455
Nd3 S11 2.899031 1_555
Nd3 S11 2.899031 1_455
Nd3 S3 2.952961 1_555
Nd3 S2 2.973372 1_555
Nd3 S7 3.170599 1_555
Cu0 S8 2.329891 1_555
Cu0 S0 2.373137 1_455
Cu0 S0 2.373137 1_555
Cu0 S7 2.390488 1_555
Cu1 S9 2.329891 1_555
Cu1 S1 2.373137 1_455
Cu1 S1 2.373137 1_555
Cu1 S6 2.390488 1_555
Cu2 S10 2.329891 1_555
Cu2 S2 2.373137 1_555
Cu2 S2 2.373137 1_655
Cu2 S5 2.390488 1_555
Cu3 S11 2.329891 1_555
Cu3 S3 2.373137 1_655
Cu3 S3 2.373137 1_555
Cu3 S4 2.390488 1_555
