# generated using pymatgen
data_Ca5Ga3
_symmetry_space_group_name_H-M   'P 1'
_cell_length_a   7.92631450
_cell_length_b   7.92632790
_cell_length_c   9.31982288
_cell_angle_alpha   115.18937646
_cell_angle_beta   115.18934100
_cell_angle_gamma   90.00482190
_symmetry_Int_Tables_number   1
_chemical_formula_structural   Ca5Ga3
_chemical_formula_sum   'Ca10 Ga6'
_cell_volume   467.57606751
_cell_formula_units_Z   2
loop_
 _symmetry_equiv_pos_site_id
 _symmetry_equiv_pos_as_xyz
  1  'x, y, z'
loop_
 _atom_site_type_symbol
 _atom_site_label
 _atom_site_symmetry_multiplicity
 _atom_site_fract_x
 _atom_site_fract_y
 _atom_site_fract_z
 _atom_site_occupancy
  Ca  Ca0  1  0.50000000  0.50000000  -0.00000000  1
  Ca  Ca1  1  -0.00000000  0.00000000  -0.00000000  1
  Ca  Ca2  1  0.03527894  0.53527894  0.71280869  1
  Ca  Ca3  1  0.67735290  0.17735190  0.71272269  1
  Ca  Ca4  1  0.17745805  0.03519846  0.71282328  1
  Ca  Ca5  1  0.53519946  0.67745905  0.71282328  1
  Ca  Ca6  1  0.96472106  0.46472106  0.28719231  1
  Ca  Ca7  1  0.32264810  0.82264810  0.28727731  1
  Ca  Ca8  1  0.82254195  0.96480154  0.28717672  1
  Ca  Ca9  1  0.46480154  0.32254095  0.28717672  1
  Ga  Ga0  1  0.25009551  0.24990549  0.50000000  1
  Ga  Ga1  1  0.74990449  0.75009451  0.50000000  1
  Ga  Ga2  1  0.39095193  0.89095193  -0.00013471  1
  Ga  Ga3  1  0.60904807  0.10904807  1.00013471  1
  Ga  Ga4  1  0.10888863  0.39111037  1.00000000  1
  Ga  Ga5  1  0.89111137  0.60888963  0.00000000  1
loop_
_geom_bond_atom_site_label_1
_geom_bond_atom_site_label_2
_geom_bond_distance
_geom_bond_site_symmetry_2
Ca0 Ga3 3.217543 1_554
Ca0 Ga2 3.217543 1_555
Ca0 Ga4 3.217907 1_554
Ca0 Ga5 3.217907 1_555
Ca1 Ga3 3.217538 1_454
Ca1 Ga2 3.217538 1_545
Ca1 Ga4 3.217902 1_554
Ca1 Ga5 3.217902 1_445
Ca2 Ga5 3.175620 1_456
Ca2 Ga4 3.175630 1_555
Ca2 Ga2 3.195519 1_556
Ca2 Ga1 3.317495 1_455
Ca2 Ga0 3.317496 1_555
Ca3 Ga4 3.175053 1_655
Ca3 Ga5 3.175067 1_556
Ca3 Ga3 3.198460 1_555
Ca3 Ga1 3.314477 1_545
Ca3 Ga0 3.314482 1_555
Ca4 Ga2 3.174568 1_546
Ca4 Ga3 3.175449 1_555
Ca4 Ga4 3.198212 1_555
Ca4 Ga1 3.314707 1_445
Ca4 Ga0 3.317706 1_555
Ca5 Ga2 3.174571 1_556
Ca5 Ga3 3.175448 1_565
Ca5 Ga5 3.198211 1_556
Ca5 Ga0 3.314709 1_555
Ca5 Ga1 3.317685 1_555
Ca6 Ga4 3.175629 1_654
Ca6 Ga5 3.175638 1_555
Ca6 Ga3 3.195520 1_554
Ca6 Ga0 3.317490 1_655
Ca6 Ga1 3.317491 1_555
Ca7 Ga5 3.175058 1_455
Ca7 Ga4 3.175068 1_554
Ca7 Ga2 3.198456 1_555
Ca7 Ga1 3.314476 1_555
Ca7 Ga0 3.314481 1_565
Ca8 Ga3 3.174568 1_564
Ca8 Ga2 3.175449 1_555
Ca8 Ga5 3.198212 1_555
Ca8 Ga0 3.314707 1_665
Ca8 Ga1 3.317706 1_555
Ca9 Ga3 3.174565 1_554
Ca9 Ga2 3.175446 1_545
Ca9 Ga4 3.198216 1_554
Ca9 Ga1 3.314706 1_555
Ca9 Ga0 3.317691 1_555
Ga2 Ga3 2.443138 1_564
Ga4 Ga5 2.441291 1_456
