# generated using pymatgen
data_Al3P
_symmetry_space_group_name_H-M   'P 1'
_cell_length_a   5.61522122
_cell_length_b   5.61522122
_cell_length_c   4.76151600
_cell_angle_alpha   90.00000000
_cell_angle_beta   90.00000000
_cell_angle_gamma   119.99999082
_symmetry_Int_Tables_number   1
_chemical_formula_structural   Al3P
_chemical_formula_sum   'Al6 P2'
_cell_volume   130.01985017
_cell_formula_units_Z   2
loop_
 _symmetry_equiv_pos_site_id
 _symmetry_equiv_pos_as_xyz
  1  'x, y, z'
loop_
 _atom_site_type_symbol
 _atom_site_label
 _atom_site_symmetry_multiplicity
 _atom_site_fract_x
 _atom_site_fract_y
 _atom_site_fract_z
 _atom_site_occupancy
  Al  Al0  1  0.83119200  0.16880800  0.75000000  1
  Al  Al1  1  0.33761700  0.16880800  0.75000000  1
  Al  Al2  1  0.83119200  0.66238300  0.75000000  1
  Al  Al3  1  0.16880800  0.83119200  0.25000000  1
  Al  Al4  1  0.66238300  0.83119200  0.25000000  1
  Al  Al5  1  0.16880800  0.33761700  0.25000000  1
  P  P0  1  0.66666700  0.33333300  0.25000000  1
  P  P1  1  0.33333300  0.66666700  0.75000000  1
loop_
_geom_bond_atom_site_label_1
_geom_bond_atom_site_label_2
_geom_bond_distance
_geom_bond_site_symmetry_2
Al0 Al1 2.771533 1_555
Al0 Al2 2.771533 1_555
Al0 P1 2.807688 1_655
Al0 P1 2.807688 1_545
Al0 Al2 2.843688 1_545
Al0 Al1 2.843688 1_655
Al0 P0 2.868532 1_556
Al0 P0 2.868532 1_555
Al0 Al4 2.891975 1_546
Al0 Al5 2.891975 1_655
Al0 Al5 2.891975 1_656
Al0 Al4 2.891975 1_545
Al1 Al2 2.771533 1_555
Al1 P1 2.807682 1_545
Al1 P1 2.807694 1_555
Al1 Al2 2.843689 1_445
Al1 P0 2.868532 1_555
Al1 P0 2.868532 1_556
Al1 Al3 2.891975 1_545
Al1 Al3 2.891975 1_546
Al1 Al5 2.891980 1_555
Al1 Al5 2.891980 1_556
Al2 P1 2.807682 1_655
Al2 P1 2.807694 1_555
Al2 P0 2.868532 1_555
Al2 P0 2.868532 1_556
Al2 Al3 2.891975 1_655
Al2 Al3 2.891975 1_656
Al2 Al4 2.891980 1_556
Al2 Al4 2.891980 1_555
Al3 Al4 2.771533 1_555
Al3 Al5 2.771533 1_555
Al3 P0 2.807688 1_455
Al3 P0 2.807688 1_565
Al3 Al4 2.843688 1_455
Al3 Al5 2.843688 1_565
Al3 P1 2.868532 1_555
Al3 P1 2.868532 1_554
Al4 Al5 2.771533 1_555
Al4 P0 2.807682 1_565
Al4 P0 2.807694 1_555
Al4 Al5 2.843689 1_665
Al4 P1 2.868532 1_555
Al4 P1 2.868532 1_554
Al5 P0 2.807682 1_455
Al5 P0 2.807694 1_555
Al5 P1 2.868532 1_554
Al5 P1 2.868532 1_555
