# generated using pymatgen
data_LaMo6(SeS)4
_symmetry_space_group_name_H-M   'P 1'
_cell_length_a   6.69926800
_cell_length_b   6.70536820
_cell_length_c   6.76903752
_cell_angle_alpha   90.24427685
_cell_angle_beta   90.78126210
_cell_angle_gamma   90.10471612
_symmetry_Int_Tables_number   1
_chemical_formula_structural   LaMo6(SeS)4
_chemical_formula_sum   'La1 Mo6 Se4 S4'
_cell_volume   304.04075952
_cell_formula_units_Z   1
loop_
 _symmetry_equiv_pos_site_id
 _symmetry_equiv_pos_as_xyz
  1  'x, y, z'
loop_
 _atom_site_type_symbol
 _atom_site_label
 _atom_site_symmetry_multiplicity
 _atom_site_fract_x
 _atom_site_fract_y
 _atom_site_fract_z
 _atom_site_occupancy
  La  La0  1  0.99628600  0.00903700  0.99849500  1
  Mo  Mo0  1  0.23304300  0.55520100  0.57715000  1
  Mo  Mo1  1  0.56033500  0.41714200  0.76333000  1
  Mo  Mo2  1  0.41931600  0.23075800  0.44164800  1
  Mo  Mo3  1  0.77085800  0.43910900  0.42071600  1
  Mo  Mo4  1  0.44083200  0.57710300  0.23511900  1
  Mo  Mo5  1  0.58368100  0.76938200  0.55574600  1
  Se  Se0  1  0.37842300  0.75429000  0.87585300  1
  Se  Se1  1  0.24123700  0.87698600  0.37389900  1
  Se  Se2  1  0.88187000  0.62522300  0.75636100  1
  Se  Se3  1  0.62281000  0.24232200  0.12132400  1
  S  S0  1  0.24435000  0.24270100  0.75159600  1
  S  S1  1  0.75727900  0.75318500  0.24652800  1
  S  S2  1  0.73924600  0.13090900  0.61997300  1
  S  S3  1  0.13043300  0.37665300  0.26226100  1
loop_
_geom_bond_atom_site_label_1
_geom_bond_atom_site_label_2
_geom_bond_distance
_geom_bond_site_symmetry_2
La0 S0 2.845751 1_655
La0 S1 2.900631 1_546
La0 Se3 3.075423 1_556
La0 Se2 3.133679 1_545
La0 Se1 3.137669 1_646
La0 S3 3.159476 1_656
La0 S2 3.178164 1_555
La0 Se0 3.197292 1_645
Mo0 S0 2.410427 1_555
Mo0 S3 2.526746 1_555
Mo0 Se1 2.564845 1_555
Mo0 Se0 2.595656 1_555
Mo0 Se2 2.702550 1_455
Mo1 S0 2.416855 1_555
Mo1 S2 2.467018 1_555
Mo1 Se2 2.565395 1_555
Mo1 Se0 2.682684 1_555
Mo1 Se3 2.723953 1_556
Mo2 S0 2.418289 1_555
Mo2 S3 2.475857 1_555
Mo2 S2 2.537840 1_555
Mo2 Se3 2.578296 1_555
Mo2 Se1 2.688162 1_545
Mo3 S1 2.419232 1_555
Mo3 S2 2.482906 1_555
Mo3 Se3 2.597988 1_555
Mo3 Se2 2.683059 1_555
Mo3 S3 2.683076 1_655
Mo4 S1 2.424842 1_555
Mo4 S3 2.483292 1_555
Mo4 Se1 2.596503 1_555
Mo4 Se3 2.672025 1_555
Mo4 Se0 2.738464 1_554
Mo5 S1 2.410462 1_555
Mo5 Se0 2.584335 1_555
Mo5 Se2 2.591013 1_555
Mo5 S2 2.668551 1_565
Mo5 Se1 2.689871 1_555
