# generated using pymatgen
data_La3Mn8BiO20
_symmetry_space_group_name_H-M   'P 1'
_cell_length_a   5.83022100
_cell_length_b   7.74606100
_cell_length_c   8.79087654
_cell_angle_alpha   89.91558348
_cell_angle_beta   90.00000000
_cell_angle_gamma   90.00000000
_symmetry_Int_Tables_number   1
_chemical_formula_structural   La3Mn8BiO20
_chemical_formula_sum   'La3 Mn8 Bi1 O20'
_cell_volume   397.00652041
_cell_formula_units_Z   1
loop_
 _symmetry_equiv_pos_site_id
 _symmetry_equiv_pos_as_xyz
  1  'x, y, z'
loop_
 _atom_site_type_symbol
 _atom_site_label
 _atom_site_symmetry_multiplicity
 _atom_site_fract_x
 _atom_site_fract_y
 _atom_site_fract_z
 _atom_site_occupancy
  La  La0  1  0.00000000  0.64304500  0.67070600  1
  La  La1  1  0.00000000  0.85226700  0.17342700  1
  La  La2  1  0.00000000  0.14623000  0.82747900  1
  Mn  Mn0  1  0.50000000  0.09415400  0.14866100  1
  Mn  Mn1  1  0.50000000  0.90819000  0.85118100  1
  Mn  Mn2  1  0.50000000  0.58655000  0.34900400  1
  Mn  Mn3  1  0.50000000  0.40760800  0.64928100  1
  Mn  Mn4  1  0.25743100  0.49992100  0.00080300  1
  Mn  Mn5  1  0.74182200  0.00106300  0.50016900  1
  Mn  Mn6  1  0.74256900  0.49992100  0.00080300  1
  Mn  Mn7  1  0.25817800  0.00106300  0.50016900  1
  Bi  Bi0  1  0.00000000  0.34739500  0.32837400  1
  O  O0  1  0.50000000  0.34946800  0.06296800  1
  O  O1  1  0.50000000  0.65116400  0.93669700  1
  O  O2  1  0.50000000  0.85055700  0.43324400  1
  O  O3  1  0.50000000  0.15115500  0.56557700  1
  O  O4  1  0.00000000  0.34467400  0.05452600  1
  O  O5  1  0.00000000  0.65386100  0.94862000  1
  O  O6  1  0.00000000  0.84741900  0.44864600  1
  O  O7  1  0.00000000  0.15639900  0.55009400  1
  O  O8  1  0.24857700  0.10243600  0.29555900  1
  O  O9  1  0.24978000  0.90338200  0.70466900  1
  O  O10  1  0.74942700  0.59632200  0.20430700  1
  O  O11  1  0.75045900  0.40355900  0.79536200  1
  O  O12  1  0.75022000  0.90338200  0.70466900  1
  O  O13  1  0.75142300  0.10243600  0.29555900  1
  O  O14  1  0.24954100  0.40355900  0.79536200  1
  O  O15  1  0.25057300  0.59632200  0.20430700  1
  O  O16  1  0.27841600  0.49821400  0.49915100  1
  O  O17  1  0.72164900  0.00003400  0.00073600  1
  O  O18  1  0.72158400  0.49821400  0.49915100  1
  O  O19  1  0.27835100  0.00003400  0.00073600  1
loop_
_geom_bond_atom_site_label_1
_geom_bond_atom_site_label_2
_geom_bond_distance
_geom_bond_site_symmetry_2
La0 O5 2.444667 1_555
La0 O16 2.484525 1_555
La0 O18 2.484525 1_455
La0 O12 2.505647 1_455
La0 O9 2.505647 1_555
La0 O6 2.511530 1_555
La0 O14 2.598622 1_555
La0 O11 2.598622 1_455
La1 O6 2.419652 1_555
La1 O15 2.477275 1_555
La1 O10 2.477275 1_455
La1 O19 2.498659 1_565
La1 O17 2.498659 1_465
La1 O5 2.505288 1_554
La1 O8 2.648464 1_565
La1 O13 2.648464 1_465
La2 O7 2.439613 1_555
La2 O14 2.483529 1_555
La2 O11 2.483529 1_455
La2 O19 2.496148 1_556
La2 O17 2.496148 1_456
La2 O4 2.521048 1_556
La2 O12 2.613592 1_445
La2 O9 2.613592 1_545
Mn0 O13 1.954660 1_555
Mn0 O8 1.954660 1_555
Mn0 O19 1.973646 1_555
Mn0 O17 1.973646 1_555
Mn0 O0 2.115255 1_555
Mn1 O9 1.946433 1_555
Mn1 O12 1.946433 1_555
Mn1 O17 1.976694 1_566
Mn1 O19 1.976694 1_566
Mn1 O1 2.127104 1_555
Mn2 O15 1.933444 1_555
Mn2 O10 1.933444 1_555
Mn2 O18 1.968936 1_555
Mn2 O16 1.968936 1_555
Mn2 O2 2.175994 1_555
Mn3 O11 1.944803 1_555
Mn3 O14 1.944803 1_555
Mn3 O18 1.974998 1_555
Mn3 O16 1.974998 1_555
Mn3 O3 2.119420 1_555
Mn4 O0 1.911810 1_555
Mn4 O1 1.920466 1_554
Mn4 O15 1.939995 1_555
Mn4 O14 1.955735 1_554
Mn4 O5 1.970622 1_554
Mn4 O4 1.979934 1_555
Mn5 O3 1.916253 1_555
Mn5 O2 1.922254 1_545
Mn5 O12 1.950063 1_545
Mn5 O13 1.962371 1_555
Mn5 O6 1.972027 1_645
Mn5 O7 1.976790 1_655
Mn6 O0 1.911810 1_555
Mn6 O1 1.920466 1_554
Mn6 O10 1.939995 1_555
Mn6 O11 1.955735 1_554
Mn6 O5 1.970622 1_654
Mn6 O4 1.979934 1_655
Mn7 O3 1.916253 1_555
Mn7 O2 1.922254 1_545
Mn7 O9 1.950063 1_545
Mn7 O8 1.962371 1_555
Mn7 O6 1.972027 1_545
Mn7 O7 1.976790 1_555
Bi0 O8 2.405320 1_555
Bi0 O13 2.405320 1_455
Bi0 O4 2.407487 1_555
Bi0 O7 2.445274 1_555
Bi0 O16 2.501737 1_555
Bi0 O18 2.501737 1_455
Bi0 O15 2.652456 1_555
Bi0 O10 2.652456 1_455
