# generated using pymatgen
data_MoW(SeS)2
_symmetry_space_group_name_H-M   'P 1'
_cell_length_a   3.25388382
_cell_length_b   3.25388382
_cell_length_c   36.89224100
_cell_angle_alpha   90.00000000
_cell_angle_beta   90.00000000
_cell_angle_gamma   119.99999639
_symmetry_Int_Tables_number   1
_chemical_formula_structural   MoW(SeS)2
_chemical_formula_sum   'Mo2 W2 Se4 S4'
_cell_volume   338.27489658
_cell_formula_units_Z   2
loop_
 _symmetry_equiv_pos_site_id
 _symmetry_equiv_pos_as_xyz
  1  'x, y, z'
loop_
 _atom_site_type_symbol
 _atom_site_label
 _atom_site_symmetry_multiplicity
 _atom_site_fract_x
 _atom_site_fract_y
 _atom_site_fract_z
 _atom_site_occupancy
  Mo  Mo0  1  0.00000000  0.00000000  0.09391800  1
  Mo  Mo1  1  0.00000000  0.00000000  0.46967500  1
  W  W0  1  0.33333300  0.66666700  0.28177500  1
  W  W1  1  0.33333300  0.66666700  0.65754400  1
  Se  Se0  1  0.00000000  0.00000000  0.32809900  1
  Se  Se1  1  0.33333300  0.66666700  0.42367700  1
  Se  Se2  1  0.33333300  0.66666700  0.51568400  1
  Se  Se3  1  0.00000000  0.00000000  0.23545700  1
  S  S0  1  0.00000000  0.00000000  0.69954200  1
  S  S1  1  0.33333300  0.66666700  0.05203100  1
  S  S2  1  0.33333300  0.66666700  0.13580800  1
  S  S3  1  0.00000000  0.00000000  0.61553900  1
loop_
_geom_bond_atom_site_label_1
_geom_bond_atom_site_label_2
_geom_bond_distance
_geom_bond_site_symmetry_2
Mo0 S1 2.432533 1_545
Mo0 S1 2.432535 1_445
Mo0 S1 2.432535 1_555
Mo0 S2 2.432603 1_545
Mo0 S2 2.432605 1_555
Mo0 S2 2.432605 1_445
Mo1 Se1 2.531591 1_545
Mo1 Se1 2.531593 1_445
Mo1 Se1 2.531593 1_555
Mo1 Se2 2.531863 1_545
Mo1 Se2 2.531865 1_555
Mo1 Se2 2.531865 1_445
Se0 W0 2.539668 1_545
Se0 W0 2.539670 1_555
Se0 W0 2.539670 1_445
Se3 W0 2.539519 1_545
Se3 W0 2.539521 1_555
Se3 W0 2.539521 1_445
S0 W1 2.435136 1_545
S0 W1 2.435138 1_445
S0 W1 2.435138 1_555
S3 W1 2.435300 1_545
S3 W1 2.435303 1_555
S3 W1 2.435303 1_445
