# generated using pymatgen
data_CaOsN2
_symmetry_space_group_name_H-M   'P 1'
_cell_length_a   5.32343600
_cell_length_b   10.78305100
_cell_length_c   15.75239600
_cell_angle_alpha   90.00000000
_cell_angle_beta   90.00000000
_cell_angle_gamma   90.00000000
_symmetry_Int_Tables_number   1
_chemical_formula_structural   CaOsN2
_chemical_formula_sum   'Ca16 Os16 N32'
_cell_volume   904.23292697
_cell_formula_units_Z   16
loop_
 _symmetry_equiv_pos_site_id
 _symmetry_equiv_pos_as_xyz
  1  'x, y, z'
loop_
 _atom_site_type_symbol
 _atom_site_label
 _atom_site_symmetry_multiplicity
 _atom_site_fract_x
 _atom_site_fract_y
 _atom_site_fract_z
 _atom_site_occupancy
  Ca  Ca0  1  0.74814600  0.99567000  0.43990400  1
  Ca  Ca1  1  0.24814600  0.50433000  0.56009600  1
  Ca  Ca2  1  0.25185400  0.49567000  0.06009600  1
  Ca  Ca3  1  0.75185400  0.00433000  0.93990400  1
  Ca  Ca4  1  0.25185400  0.00433000  0.56009600  1
  Ca  Ca5  1  0.75185400  0.49567000  0.43990400  1
  Ca  Ca6  1  0.74814600  0.50433000  0.93990400  1
  Ca  Ca7  1  0.24814600  0.99567000  0.06009600  1
  Ca  Ca8  1  0.89057300  0.28090800  0.31268600  1
  Ca  Ca9  1  0.39057300  0.21909200  0.68731400  1
  Ca  Ca10  1  0.10942700  0.78090800  0.18731400  1
  Ca  Ca11  1  0.60942700  0.71909200  0.81268600  1
  Ca  Ca12  1  0.10942700  0.71909200  0.68731400  1
  Ca  Ca13  1  0.60942700  0.78090800  0.31268600  1
  Ca  Ca14  1  0.89057300  0.21909200  0.81268600  1
  Ca  Ca15  1  0.39057300  0.28090800  0.18731400  1
  Os  Os0  1  0.74664200  0.02868800  0.18630500  1
  Os  Os1  1  0.24664200  0.47131200  0.81369500  1
  Os  Os2  1  0.25335800  0.52868800  0.31369500  1
  Os  Os3  1  0.75335800  0.97131200  0.68630500  1
  Os  Os4  1  0.25335800  0.97131200  0.81369500  1
  Os  Os5  1  0.75335800  0.52868800  0.18630500  1
  Os  Os6  1  0.74664200  0.47131200  0.68630500  1
  Os  Os7  1  0.24664200  0.02868800  0.31369500  1
  Os  Os8  1  0.86814300  0.26684600  0.05404300  1
  Os  Os9  1  0.36814300  0.23315400  0.94595700  1
  Os  Os10  1  0.13185700  0.76684600  0.44595700  1
  Os  Os11  1  0.63185700  0.73315400  0.55404300  1
  Os  Os12  1  0.13185700  0.73315400  0.94595700  1
  Os  Os13  1  0.63185700  0.76684600  0.05404300  1
  Os  Os14  1  0.86814300  0.23315400  0.55404300  1
  Os  Os15  1  0.36814300  0.26684600  0.44595700  1
  N  N0  1  0.60614600  0.47188800  0.29321800  1
  N  N1  1  0.10614600  0.02811200  0.70678200  1
  N  N2  1  0.39385400  0.97188800  0.20678200  1
  N  N3  1  0.89385400  0.52811200  0.79321800  1
  N  N4  1  0.39385400  0.52811200  0.70678200  1
  N  N5  1  0.89385400  0.97188800  0.29321800  1
  N  N6  1  0.60614600  0.02811200  0.79321800  1
  N  N7  1  0.10614600  0.47188800  0.20678200  1
  N  N8  1  0.70448500  0.21532100  0.44345200  1
  N  N9  1  0.20448500  0.28467900  0.55654800  1
  N  N10  1  0.29551500  0.71532100  0.05654800  1
  N  N11  1  0.79551500  0.78467900  0.94345200  1
  N  N12  1  0.29551500  0.78467900  0.55654800  1
  N  N13  1  0.79551500  0.71532100  0.44345200  1
  N  N14  1  0.70448500  0.28467900  0.94345200  1
  N  N15  1  0.20448500  0.21532100  0.05654800  1
  N  N16  1  0.70064400  0.42806700  0.08945900  1
  N  N17  1  0.20064400  0.07193300  0.91054100  1
  N  N18  1  0.29935600  0.92806700  0.41054100  1
  N  N19  1  0.79935600  0.57193300  0.58945900  1
  N  N20  1  0.29935600  0.57193300  0.91054100  1
  N  N21  1  0.79935600  0.92806700  0.08945900  1
  N  N22  1  0.70064400  0.07193300  0.58945900  1
  N  N23  1  0.20064400  0.42806700  0.41054100  1
  N  N24  1  0.80900600  0.20063200  0.17363500  1
  N  N25  1  0.30900600  0.29936800  0.82636500  1
  N  N26  1  0.19099400  0.70063200  0.32636500  1
  N  N27  1  0.69099400  0.79936800  0.67363500  1
  N  N28  1  0.19099400  0.79936800  0.82636500  1
  N  N29  1  0.69099400  0.70063200  0.17363500  1
  N  N30  1  0.80900600  0.29936800  0.67363500  1
  N  N31  1  0.30900600  0.20063200  0.32636500  1
loop_
_geom_bond_atom_site_label_1
_geom_bond_atom_site_label_2
_geom_bond_distance
_geom_bond_site_symmetry_2
Ca0 N8 2.380541 1_565
Ca0 N5 2.450827 1_555
Ca0 N22 2.508033 1_565
Ca0 N18 2.540306 1_555
Ca0 N18 3.058698 1_655
Ca1 N9 2.380541 1_555
Ca1 N4 2.450827 1_555
Ca1 N23 2.508033 1_555
Ca1 N19 2.540306 1_455
Ca1 N19 3.058698 1_555
Ca2 N10 2.380541 1_555
Ca2 N7 2.450827 1_555
Ca2 N20 2.508033 1_554
Ca2 N16 2.540306 1_555
Ca2 N16 3.058698 1_455
Ca3 N11 2.380541 1_545
Ca3 N6 2.450827 1_555
Ca3 N21 2.508033 1_546
Ca3 N17 2.540306 1_655
Ca3 N17 3.058698 1_555
Ca4 N12 2.380541 1_545
Ca4 N1 2.450827 1_555
Ca4 N18 2.508033 1_545
Ca4 N22 2.540306 1_555
Ca4 N22 3.058698 1_455
Ca5 N13 2.380541 1_555
Ca5 N0 2.450827 1_555
Ca5 N19 2.508033 1_555
Ca5 N23 2.540306 1_655
Ca5 N23 3.058698 1_555
Ca6 N14 2.380541 1_555
Ca6 N3 2.450827 1_555
Ca6 N16 2.508033 1_556
Ca6 N20 2.540306 1_555
Ca6 N20 3.058698 1_655
Ca7 N15 2.380541 1_565
Ca7 N2 2.450827 1_555
Ca7 N17 2.508033 1_564
Ca7 N21 2.540306 1_455
Ca7 N21 3.058698 1_555
Ca8 N8 2.392616 1_555
Ca8 N24 2.394919 1_555
Ca8 N31 2.399477 1_655
Ca8 N0 2.574401 1_555
Ca8 N23 2.760199 1_655
Ca8 N7 2.888062 1_655
Ca9 N9 2.392616 1_555
Ca9 N25 2.394919 1_555
Ca9 N30 2.399477 1_555
Ca9 N1 2.574401 1_555
Ca9 N22 2.760199 1_555
Ca9 N6 2.888062 1_555
Ca10 N10 2.392616 1_555
Ca10 N26 2.394919 1_555
Ca10 N29 2.399477 1_455
Ca10 N2 2.574401 1_555
Ca10 N21 2.760199 1_455
Ca10 N5 2.888062 1_455
Ca11 N11 2.392616 1_555
Ca11 N27 2.394919 1_555
Ca11 N28 2.399477 1_555
Ca11 N3 2.574401 1_555
Ca11 N20 2.760199 1_555
Ca11 N4 2.888062 1_555
Ca12 N12 2.392616 1_555
Ca12 N28 2.394919 1_555
Ca12 N27 2.399477 1_455
Ca12 N4 2.574401 1_555
Ca12 N19 2.760199 1_455
Ca12 N3 2.888062 1_455
Ca13 N13 2.392616 1_555
Ca13 N29 2.394919 1_555
Ca13 N26 2.399477 1_555
Ca13 N5 2.574401 1_555
Ca13 N18 2.760199 1_555
Ca13 N2 2.888062 1_555
Ca14 N14 2.392616 1_555
Ca14 N30 2.394919 1_555
Ca14 N25 2.399477 1_655
Ca14 N6 2.574401 1_555
Ca14 N17 2.760199 1_655
Ca14 N1 2.888062 1_655
Ca15 N15 2.392616 1_555
Ca15 N31 2.394919 1_555
Ca15 N24 2.399477 1_555
Ca15 N7 2.574401 1_555
Ca15 N16 2.760199 1_555
Ca15 N0 2.888062 1_555
N0 Os5 1.955911 1_555
N0 Os2 2.001556 1_555
N1 Os4 1.955911 1_545
N1 Os3 2.001556 1_445
N2 Os7 1.955911 1_565
N2 Os0 2.001556 1_565
N3 Os6 1.955911 1_555
N3 Os1 2.001556 1_655
N4 Os1 1.955911 1_555
N4 Os6 2.001556 1_555
N5 Os0 1.955911 1_565
N5 Os7 2.001556 1_665
N6 Os3 1.955911 1_545
N6 Os4 2.001556 1_545
N7 Os2 1.955911 1_555
N7 Os5 2.001556 1_455
N8 Os15 1.875131 1_555
N8 Os14 1.957249 1_555
N9 Os14 1.875131 1_455
N9 Os15 1.957249 1_555
N10 Os13 1.875131 1_555
N10 Os12 1.957249 1_554
N11 Os12 1.875131 1_655
N11 Os13 1.957249 1_556
N12 Os11 1.875131 1_555
N12 Os10 1.957249 1_555
N13 Os10 1.875131 1_655
N13 Os11 1.957249 1_555
N14 Os9 1.875131 1_555
N14 Os8 1.957249 1_556
N15 Os8 1.875131 1_455
N15 Os9 1.957249 1_554
N16 Os5 1.892960 1_555
N16 Os8 2.031880 1_555
N17 Os4 1.892960 1_545
N17 Os9 2.031880 1_555
N18 Os7 1.892960 1_565
N18 Os10 2.031880 1_555
N19 Os6 1.892960 1_555
N19 Os11 2.031880 1_555
N20 Os1 1.892960 1_555
N20 Os12 2.031880 1_555
N21 Os0 1.892960 1_565
N21 Os13 2.031880 1_555
N22 Os3 1.892960 1_545
N22 Os14 2.031880 1_555
N23 Os2 1.892960 1_555
N23 Os15 2.031880 1_555
N24 Os0 1.894114 1_555
N24 Os8 2.039073 1_555
N25 Os1 1.894114 1_555
N25 Os9 2.039073 1_555
N26 Os2 1.894114 1_555
N26 Os10 2.039073 1_555
N27 Os3 1.894114 1_555
N27 Os11 2.039073 1_555
N28 Os4 1.894114 1_555
N28 Os12 2.039073 1_555
N29 Os5 1.894114 1_555
N29 Os13 2.039073 1_555
N30 Os6 1.894114 1_555
N30 Os14 2.039073 1_555
N31 Os7 1.894114 1_555
N31 Os15 2.039073 1_555
