# generated using pymatgen
data_BaMgMnF7
_symmetry_space_group_name_H-M   'P 1'
_cell_length_a   9.96885400
_cell_length_b   5.77480100
_cell_length_c   9.58921840
_cell_angle_alpha   86.24004151
_cell_angle_beta   90.00000000
_cell_angle_gamma   90.00000000
_symmetry_Int_Tables_number   1
_chemical_formula_structural   BaMgMnF7
_chemical_formula_sum   'Ba4 Mg4 Mn4 F28'
_cell_volume   550.84531491
_cell_formula_units_Z   4
loop_
 _symmetry_equiv_pos_site_id
 _symmetry_equiv_pos_as_xyz
  1  'x, y, z'
loop_
 _atom_site_type_symbol
 _atom_site_label
 _atom_site_symmetry_multiplicity
 _atom_site_fract_x
 _atom_site_fract_y
 _atom_site_fract_z
 _atom_site_occupancy
  Ba  Ba0  1  0.31619200  0.72749200  0.50010400  1
  Ba  Ba1  1  0.81619200  0.27250800  0.99989600  1
  Ba  Ba2  1  0.68380800  0.27250800  0.49989600  1
  Ba  Ba3  1  0.18380800  0.72749200  0.00010400  1
  Mg  Mg0  1  0.39793300  0.30695800  0.80947300  1
  Mg  Mg1  1  0.89793300  0.69304200  0.69052700  1
  Mg  Mg2  1  0.10206700  0.30695800  0.30947300  1
  Mg  Mg3  1  0.60206700  0.69304200  0.19052700  1
  Mn  Mn0  1  0.61026800  0.80753700  0.81209600  1
  Mn  Mn1  1  0.38973200  0.19246300  0.18790400  1
  Mn  Mn2  1  0.88973200  0.80753700  0.31209600  1
  Mn  Mn3  1  0.11026800  0.19246300  0.68790400  1
  F  F0  1  0.44374200  0.86995500  0.12450500  1
  F  F1  1  0.04652600  0.62826400  0.36707900  1
  F  F2  1  0.72232700  0.52105300  0.74345000  1
  F  F3  1  0.27767300  0.47894700  0.25655000  1
  F  F4  1  0.45851000  0.11523500  0.36451000  1
  F  F5  1  0.81357900  0.73980700  0.49273700  1
  F  F6  1  0.77894000  0.96631100  0.74875300  1
  F  F7  1  0.95851000  0.88476500  0.13549000  1
  F  F8  1  0.45347400  0.62826400  0.86707900  1
  F  F9  1  0.22232700  0.47894700  0.75655000  1
  F  F10  1  0.05625800  0.86995500  0.62450500  1
  F  F11  1  0.55625800  0.13004500  0.87549500  1
  F  F12  1  0.27894000  0.03368900  0.75124700  1
  F  F13  1  0.95910900  0.61812500  0.87805300  1
  F  F14  1  0.54149000  0.88476500  0.63549000  1
  F  F15  1  0.04149000  0.11523500  0.86451000  1
  F  F16  1  0.22106000  0.03368900  0.25124700  1
  F  F17  1  0.94374200  0.13004500  0.37549500  1
  F  F18  1  0.45910900  0.38187500  0.62194700  1
  F  F19  1  0.95347400  0.37173600  0.63292100  1
  F  F20  1  0.04089100  0.38187500  0.12194700  1
  F  F21  1  0.72106000  0.96631100  0.24875300  1
  F  F22  1  0.54089100  0.61812500  0.37805300  1
  F  F23  1  0.31357900  0.26019300  0.00726300  1
  F  F24  1  0.18642100  0.26019300  0.50726300  1
  F  F25  1  0.68642100  0.73980700  0.99273700  1
  F  F26  1  0.54652600  0.37173600  0.13292100  1
  F  F27  1  0.77767300  0.52105300  0.24345000  1
loop_
_geom_bond_atom_site_label_1
_geom_bond_atom_site_label_2
_geom_bond_distance
_geom_bond_site_symmetry_2
Ba0 F22 2.623579 1_555
Ba0 F18 2.659434 1_555
Ba0 F14 2.776562 1_555
Ba0 F3 2.846348 1_555
Ba0 F4 2.887104 1_565
Ba0 F9 2.918905 1_555
Ba0 F24 2.989350 1_555
Ba0 F10 2.990505 1_555
Ba0 F16 3.027744 1_565
Ba0 F1 3.046004 1_555
Ba0 F12 3.102059 1_565
Ba0 F24 3.342043 1_565
Ba1 F20 2.623579 1_656
Ba1 F13 2.659434 1_555
Ba1 F15 2.776562 1_655
Ba1 F27 2.846348 1_556
Ba1 F7 2.887104 1_546
Ba1 F2 2.918905 1_555
Ba1 F25 2.989350 1_555
Ba1 F11 2.990505 1_555
Ba1 F21 3.027744 1_546
Ba1 F26 3.046004 1_556
Ba1 F6 3.102059 1_545
Ba1 F25 3.342043 1_545
Ba2 F18 2.623579 1_555
Ba2 F22 2.659434 1_555
Ba2 F4 2.776562 1_555
Ba2 F2 2.846348 1_555
Ba2 F14 2.887104 1_545
Ba2 F27 2.918905 1_555
Ba2 F5 2.989350 1_555
Ba2 F17 2.990505 1_555
Ba2 F6 3.027744 1_545
Ba2 F19 3.046004 1_555
Ba2 F21 3.102059 1_545
Ba2 F5 3.342043 1_545
Ba3 F13 2.623579 1_454
Ba3 F20 2.659434 1_555
Ba3 F7 2.776562 1_455
Ba3 F9 2.846348 1_554
Ba3 F15 2.887104 1_564
Ba3 F3 2.918905 1_555
Ba3 F23 2.989350 1_555
Ba3 F0 2.990505 1_555
Ba3 F12 3.027744 1_564
Ba3 F8 3.046004 1_554
Ba3 F16 3.102059 1_565
Ba3 F23 3.342043 1_565
F0 Mg3 1.962350 1_555
F0 Mn1 2.067994 1_565
F1 Mn2 1.929072 1_455
F1 Mg2 2.046687 1_555
F2 Mg1 2.059723 1_555
F2 Mn0 2.135661 1_555
F3 Mg2 2.059723 1_555
F3 Mn1 2.135661 1_555
F4 Mn1 1.854165 1_555
F5 Mn2 1.908136 1_555
F5 Mg1 2.076096 1_555
F6 Mn0 1.990959 1_555
F6 Mg1 2.079603 1_555
F7 Mn2 1.854165 1_555
F8 Mn0 1.929072 1_555
F8 Mg0 2.046687 1_555
F9 Mg0 2.059723 1_555
F9 Mn3 2.135661 1_555
F10 Mg1 1.962350 1_455
F10 Mn3 2.067994 1_565
F11 Mg0 1.962350 1_555
F11 Mn0 2.067994 1_545
F12 Mn3 1.990959 1_555
F12 Mg0 2.079603 1_555
F13 Mg1 1.921115 1_555
F14 Mn0 1.854165 1_555
F15 Mn3 1.854165 1_555
F16 Mn1 1.990959 1_555
F16 Mg2 2.079603 1_555
F17 Mg2 1.962350 1_655
F17 Mn2 2.067994 1_545
F18 Mg0 1.921115 1_555
F19 Mn3 1.929072 1_655
F19 Mg1 2.046687 1_555
F20 Mg2 1.921115 1_555
F21 Mn2 1.990959 1_555
F21 Mg3 2.079603 1_555
F22 Mg3 1.921115 1_555
F23 Mn1 1.908136 1_555
F23 Mg0 2.076096 1_554
F24 Mn3 1.908136 1_555
F24 Mg2 2.076096 1_555
F25 Mn0 1.908136 1_555
F25 Mg3 2.076096 1_556
F26 Mn1 1.929072 1_555
F26 Mg3 2.046687 1_555
F27 Mg3 2.059723 1_555
F27 Mn2 2.135661 1_555
