# generated using pymatgen
data_GdY(FeO3)2
_symmetry_space_group_name_H-M   'P 1'
_cell_length_a   5.38017600
_cell_length_b   5.65800200
_cell_length_c   7.75830700
_cell_angle_alpha   90.00000000
_cell_angle_beta   90.00000000
_cell_angle_gamma   90.00000000
_symmetry_Int_Tables_number   1
_chemical_formula_structural   GdY(FeO3)2
_chemical_formula_sum   'Gd2 Y2 Fe4 O12'
_cell_volume   236.17098468
_cell_formula_units_Z   2
loop_
 _symmetry_equiv_pos_site_id
 _symmetry_equiv_pos_as_xyz
  1  'x, y, z'
loop_
 _atom_site_type_symbol
 _atom_site_label
 _atom_site_symmetry_multiplicity
 _atom_site_fract_x
 _atom_site_fract_y
 _atom_site_fract_z
 _atom_site_occupancy
  Gd  Gd0  1  0.23249600  0.43672700  0.50000000  1
  Gd  Gd1  1  0.76750400  0.93672700  0.50000000  1
  Y  Y0  1  0.26680600  0.56634300  0.00000000  1
  Y  Y1  1  0.73319400  0.06634300  0.00000000  1
  Fe  Fe0  1  0.24995700  0.00049100  0.24842600  1
  Fe  Fe1  1  0.75004300  0.50049100  0.75157400  1
  Fe  Fe2  1  0.24995700  0.00049100  0.75157400  1
  Fe  Fe3  1  0.75004300  0.50049100  0.24842600  1
  O  O0  1  0.55593900  0.80411500  0.80998800  1
  O  O1  1  0.44406100  0.30411500  0.19001200  1
  O  O2  1  0.94379300  0.19641200  0.30512400  1
  O  O3  1  0.05620700  0.69641200  0.69487600  1
  O  O4  1  0.94379300  0.19641200  0.69487600  1
  O  O5  1  0.05620700  0.69641200  0.30512400  1
  O  O6  1  0.55593900  0.80411500  0.19001200  1
  O  O7  1  0.44406100  0.30411500  0.80998800  1
  O  O8  1  0.13485000  0.95632300  0.00000000  1
  O  O9  1  0.86515000  0.45632300  0.00000000  1
  O  O10  1  0.35834500  0.03856900  0.50000000  1
  O  O11  1  0.64165500  0.53856900  0.50000000  1
loop_
_geom_bond_atom_site_label_1
_geom_bond_atom_site_label_2
_geom_bond_distance
_geom_bond_site_symmetry_2
Gd0 O11 2.275514 1_555
Gd0 O3 2.311772 1_555
Gd0 O5 2.311772 1_555
Gd0 O10 2.352331 1_555
Gd0 O4 2.558772 1_455
Gd0 O2 2.558772 1_455
Gd0 O7 2.764516 1_555
Gd0 O1 2.764516 1_555
Gd1 O10 2.275514 1_565
Gd1 O4 2.311772 1_565
Gd1 O2 2.311772 1_565
Gd1 O11 2.352331 1_555
Gd1 O3 2.558772 1_655
Gd1 O5 2.558772 1_655
Gd1 O0 2.764516 1_555
Gd1 O6 2.764516 1_555
Fe0 O2 2.033626 1_455
Fe0 O6 2.037158 1_545
Fe0 O8 2.039783 1_545
Fe0 O10 2.048403 1_555
Fe0 O5 2.059165 1_545
Fe0 O1 2.060867 1_555
Fe1 O3 2.033626 1_655
Fe1 O7 2.037158 1_555
Fe1 O9 2.039783 1_556
Fe1 O11 2.048403 1_555
Fe1 O4 2.059165 1_555
Fe1 O0 2.060867 1_555
Fe2 O4 2.033626 1_455
Fe2 O0 2.037158 1_545
Fe2 O8 2.039783 1_546
Fe2 O10 2.048403 1_555
Fe2 O3 2.059165 1_545
Fe2 O7 2.060867 1_555
Fe3 O5 2.033626 1_655
Fe3 O1 2.037158 1_555
Fe3 O9 2.039783 1_555
Fe3 O11 2.048403 1_555
Fe3 O2 2.059165 1_555
Fe3 O6 2.060867 1_555
O0 Y1 2.298691 1_566
O0 Y0 2.530396 1_556
O1 Y0 2.298691 1_555
O1 Y1 2.530396 1_555
O2 Y1 2.725669 1_555
O3 Y0 2.725669 1_556
O4 Y1 2.725669 1_556
O5 Y0 2.725669 1_555
O6 Y1 2.298691 1_565
O6 Y0 2.530396 1_555
O7 Y0 2.298691 1_556
O7 Y1 2.530396 1_556
O8 Y1 2.248851 1_465
O8 Y0 2.317909 1_555
O9 Y0 2.248851 1_655
O9 Y1 2.317909 1_555
