# generated using pymatgen
data_FeCoSi
_symmetry_space_group_name_H-M   'P 1'
_cell_length_a   3.78061700
_cell_length_b   4.88656400
_cell_length_c   7.12575000
_cell_angle_alpha   90.00000000
_cell_angle_beta   90.00000000
_cell_angle_gamma   90.00000000
_symmetry_Int_Tables_number   1
_chemical_formula_structural   FeCoSi
_chemical_formula_sum   'Fe4 Co4 Si4'
_cell_volume   131.64272255
_cell_formula_units_Z   4
loop_
 _symmetry_equiv_pos_site_id
 _symmetry_equiv_pos_as_xyz
  1  'x, y, z'
loop_
 _atom_site_type_symbol
 _atom_site_label
 _atom_site_symmetry_multiplicity
 _atom_site_fract_x
 _atom_site_fract_y
 _atom_site_fract_z
 _atom_site_occupancy
  Fe  Fe0  1  0.75000000  0.45563700  0.22604100  1
  Fe  Fe1  1  0.75000000  0.95563700  0.27395900  1
  Fe  Fe2  1  0.25000000  0.54436300  0.77395900  1
  Fe  Fe3  1  0.25000000  0.04436300  0.72604100  1
  Co  Co0  1  0.75000000  0.32174900  0.56371600  1
  Co  Co1  1  0.75000000  0.82174900  0.93628400  1
  Co  Co2  1  0.25000000  0.67825100  0.43628500  1
  Co  Co3  1  0.25000000  0.17825100  0.06371500  1
  Si  Si0  1  0.75000000  0.29221300  0.89395200  1
  Si  Si1  1  0.75000000  0.79221300  0.60604800  1
  Si  Si2  1  0.25000000  0.70778700  0.10604800  1
  Si  Si3  1  0.25000000  0.20778700  0.39395200  1
loop_
_geom_bond_atom_site_label_1
_geom_bond_atom_site_label_2
_geom_bond_distance
_geom_bond_site_symmetry_2
Fe0 Si2 2.412995 1_555
Fe0 Si2 2.412995 1_655
Fe0 Fe1 2.467026 1_545
Fe0 Fe1 2.467026 1_555
Fe0 Si0 2.497499 1_554
Fe0 Si3 2.543955 1_555
Fe0 Si3 2.543955 1_655
Fe1 Si3 2.412995 1_565
Fe1 Si3 2.412995 1_665
Fe1 Si1 2.497499 1_555
Fe1 Si2 2.543955 1_555
Fe1 Si2 2.543955 1_655
Fe2 Si0 2.412995 1_455
Fe2 Si0 2.412995 1_555
Fe2 Fe3 2.467026 1_555
Fe2 Fe3 2.467026 1_565
Fe2 Si2 2.497499 1_556
Fe2 Si1 2.543955 1_555
Fe2 Si1 2.543955 1_455
Fe3 Si1 2.412995 1_545
Fe3 Si1 2.412995 1_445
Fe3 Si3 2.497499 1_555
Fe3 Si0 2.543955 1_455
Fe3 Si0 2.543955 1_555
Co0 Si3 2.312304 1_555
Co0 Si3 2.312304 1_655
Co0 Si1 2.318658 1_555
Co0 Si0 2.357601 1_555
Co0 Fe0 2.493549 1_555
Co0 Fe3 2.597783 1_555
Co0 Fe3 2.597783 1_655
Co0 Si1 2.605134 1_545
Co0 Fe2 2.645947 1_555
Co0 Fe2 2.645947 1_655
Co0 Co2 2.726282 1_555
Co0 Co2 2.726282 1_655
Co0 Fe1 2.731989 1_545
Co1 Si2 2.312304 1_556
Co1 Si2 2.312304 1_656
Co1 Si0 2.318658 1_565
Co1 Si1 2.357601 1_555
Co1 Fe1 2.493549 1_556
Co1 Fe2 2.597783 1_655
Co1 Fe2 2.597783 1_555
Co1 Si0 2.605134 1_555
Co1 Fe3 2.645947 1_565
Co1 Fe3 2.645947 1_665
Co1 Co3 2.726282 1_566
Co1 Co3 2.726282 1_666
Co1 Fe0 2.731989 1_556
Co2 Si1 2.312300 1_555
Co2 Si1 2.312300 1_455
Co2 Si3 2.318659 1_555
Co2 Si2 2.357608 1_555
Co2 Fe2 2.493542 1_555
Co2 Fe1 2.597786 1_455
Co2 Fe1 2.597786 1_555
Co2 Si3 2.605135 1_565
Co2 Fe0 2.645951 1_455
Co2 Fe0 2.645951 1_555
Co2 Fe3 2.731983 1_565
Co3 Si0 2.312300 1_454
Co3 Si0 2.312300 1_554
Co3 Si2 2.318659 1_545
Co3 Si3 2.357608 1_555
Co3 Fe3 2.493542 1_554
Co3 Fe0 2.597786 1_555
Co3 Fe0 2.597786 1_455
Co3 Si2 2.605135 1_555
Co3 Fe1 2.645951 1_545
Co3 Fe1 2.645951 1_445
Co3 Fe2 2.731983 1_554
