# generated using pymatgen
data_PWO5
_symmetry_space_group_name_H-M   'P 1'
_cell_length_a   5.43537300
_cell_length_b   6.66413200
_cell_length_c   11.46078900
_cell_angle_alpha   90.00000000
_cell_angle_beta   90.00000000
_cell_angle_gamma   90.00000000
_symmetry_Int_Tables_number   1
_chemical_formula_structural   PWO5
_chemical_formula_sum   'P4 W4 O20'
_cell_volume   415.13319359
_cell_formula_units_Z   4
loop_
 _symmetry_equiv_pos_site_id
 _symmetry_equiv_pos_as_xyz
  1  'x, y, z'
loop_
 _atom_site_type_symbol
 _atom_site_label
 _atom_site_symmetry_multiplicity
 _atom_site_fract_x
 _atom_site_fract_y
 _atom_site_fract_z
 _atom_site_occupancy
  P  P0  1  0.75000000  0.97223100  0.15581000  1
  P  P1  1  0.25000000  0.02776900  0.84419000  1
  P  P2  1  0.75000000  0.52776900  0.65581000  1
  P  P3  1  0.25000000  0.47223100  0.34419000  1
  W  W0  1  0.75000000  0.32804200  0.93829400  1
  W  W1  1  0.25000000  0.67195800  0.06170600  1
  W  W2  1  0.75000000  0.17195800  0.43829400  1
  W  W3  1  0.25000000  0.82804200  0.56170600  1
  O  O0  1  0.75000000  0.32906500  0.58857200  1
  O  O1  1  0.25000000  0.67093500  0.41142800  1
  O  O2  1  0.75000000  0.17093500  0.08857200  1
  O  O3  1  0.25000000  0.82906500  0.91142800  1
  O  O4  1  0.75000000  0.00870700  0.28773600  1
  O  O5  1  0.25000000  0.99129300  0.71226400  1
  O  O6  1  0.75000000  0.49129300  0.78773600  1
  O  O7  1  0.25000000  0.50870700  0.21226400  1
  O  O8  1  0.48278800  0.34911000  0.37346300  1
  O  O9  1  0.98278800  0.65089000  0.62653700  1
  O  O10  1  0.51721200  0.65089000  0.62653700  1
  O  O11  1  0.01721200  0.34911000  0.37346300  1
  O  O12  1  0.51721200  0.84911000  0.12653700  1
  O  O13  1  0.01721200  0.15089000  0.87346300  1
  O  O14  1  0.48278800  0.15089000  0.87346300  1
  O  O15  1  0.98278800  0.84911000  0.12653700  1
  O  O16  1  0.50000000  0.00000000  0.50000000  1
  O  O17  1  0.00000000  0.00000000  0.50000000  1
  O  O18  1  0.50000000  0.50000000  0.00000000  1
  O  O19  1  0.00000000  0.50000000  0.00000000  1
loop_
_geom_bond_atom_site_label_1
_geom_bond_atom_site_label_2
_geom_bond_distance
_geom_bond_site_symmetry_2
O0 P2 1.532091 1_555
O0 W2 2.015565 1_555
O1 P3 1.532091 1_555
O1 W3 2.015565 1_555
O2 P0 1.532091 1_545
O2 W0 2.015565 1_554
O3 P1 1.532091 1_565
O3 W1 2.015565 1_556
O4 P0 1.531391 1_545
O4 W2 2.039848 1_555
O5 P1 1.531391 1_565
O5 W3 2.039848 1_555
O6 P2 1.531391 1_555
O6 W0 2.039848 1_555
O7 P3 1.531391 1_555
O7 W1 2.039848 1_555
O8 P3 1.544903 1_555
O8 W2 2.013767 1_555
O9 P2 1.544903 1_555
O9 W3 2.013767 1_655
O10 P2 1.544903 1_555
O10 W3 2.013767 1_555
O11 P3 1.544903 1_555
O11 W2 2.013767 1_455
O12 P0 1.544903 1_555
O12 W1 2.013767 1_555
O13 P1 1.544903 1_555
O13 W0 2.013767 1_455
O14 P1 1.544903 1_555
O14 W0 2.013767 1_555
O15 P0 1.544903 1_555
O15 W1 2.013767 1_655
O16 W2 1.913058 1_555
O16 W3 1.913058 1_545
O17 W2 1.913058 1_455
O17 W3 1.913058 1_545
O18 W0 1.913058 1_554
O18 W1 1.913058 1_555
O19 W0 1.913058 1_454
O19 W1 1.913058 1_555
