# generated using pymatgen
data_Ti(ZnN)2
_symmetry_space_group_name_H-M   'P 1'
_cell_length_a   5.60695694
_cell_length_b   5.60695694
_cell_length_c   6.12802011
_cell_angle_alpha   65.37062461
_cell_angle_beta   65.37062461
_cell_angle_gamma   45.38953128
_symmetry_Int_Tables_number   1
_chemical_formula_structural   Ti(ZnN)2
_chemical_formula_sum   'Ti2 Zn4 N4'
_cell_volume   122.35854893
_cell_formula_units_Z   2
loop_
 _symmetry_equiv_pos_site_id
 _symmetry_equiv_pos_as_xyz
  1  'x, y, z'
loop_
 _atom_site_type_symbol
 _atom_site_label
 _atom_site_symmetry_multiplicity
 _atom_site_fract_x
 _atom_site_fract_y
 _atom_site_fract_z
 _atom_site_occupancy
  Ti  Ti0  1  0.65506000  0.65506000  0.88469400  1
  Ti  Ti1  1  0.34494000  0.34494000  0.11530600  1
  Zn  Zn0  1  0.32450300  0.32450300  0.60591000  1
  Zn  Zn1  1  0.67549700  0.67549700  0.39409000  1
  Zn  Zn2  1  0.98128000  0.98128000  0.75570300  1
  Zn  Zn3  1  0.01872000  0.01872000  0.24429700  1
  N  N0  1  0.83578200  0.83578200  0.59887800  1
  N  N1  1  0.16421800  0.16421800  0.40112200  1
  N  N2  1  0.48696400  0.48696400  0.23599200  1
  N  N3  1  0.51303600  0.51303600  0.76400800  1
loop_
_geom_bond_atom_site_label_1
_geom_bond_atom_site_label_2
_geom_bond_distance
_geom_bond_site_symmetry_2
N0 Ti0 1.898657 1_555
N0 Zn2 2.120459 1_555
N0 Zn3 2.141973 1_665
N0 Zn0 2.165811 1_565
N0 Zn0 2.165811 1_655
N0 Zn1 2.490939 1_555
N1 Ti1 1.898657 1_555
N1 Zn3 2.120459 1_555
N1 Zn2 2.141973 1_445
N1 Zn1 2.165811 1_455
N1 Zn1 2.165811 1_545
N1 Zn0 2.490939 1_555
N2 Ti1 1.920322 1_555
N2 Ti0 2.067950 1_554
N2 Zn0 2.126374 1_555
N2 Zn3 2.192131 1_565
N2 Zn3 2.192131 1_655
N2 Zn1 2.539745 1_555
N3 Ti0 1.920322 1_555
N3 Ti1 2.067950 1_556
N3 Zn1 2.126374 1_555
N3 Zn2 2.192131 1_455
N3 Zn2 2.192131 1_545
N3 Zn0 2.539745 1_555
