# generated using pymatgen
data_Lu3Ge13Os4
_symmetry_space_group_name_H-M   'P 1'
_cell_length_a   9.01646300
_cell_length_b   9.01646300
_cell_length_c   9.01646300
_cell_angle_alpha   90.00000000
_cell_angle_beta   90.00000000
_cell_angle_gamma   90.00000000
_symmetry_Int_Tables_number   1
_chemical_formula_structural   Lu3Ge13Os4
_chemical_formula_sum   'Lu6 Ge26 Os8'
_cell_volume   733.00783128
_cell_formula_units_Z   2
loop_
 _symmetry_equiv_pos_site_id
 _symmetry_equiv_pos_as_xyz
  1  'x, y, z'
loop_
 _atom_site_type_symbol
 _atom_site_label
 _atom_site_symmetry_multiplicity
 _atom_site_fract_x
 _atom_site_fract_y
 _atom_site_fract_z
 _atom_site_occupancy
  Lu  Lu0  1  0.00000000  0.50000000  0.75000000  1
  Lu  Lu1  1  0.50000000  0.25000000  0.00000000  1
  Lu  Lu2  1  0.75000000  0.00000000  0.50000000  1
  Lu  Lu3  1  0.00000000  0.50000000  0.25000000  1
  Lu  Lu4  1  0.50000000  0.75000000  0.00000000  1
  Lu  Lu5  1  0.25000000  0.00000000  0.50000000  1
  Ge  Ge0  1  0.50000000  0.50000000  0.50000000  1
  Ge  Ge1  1  0.00000000  0.00000000  0.00000000  1
  Ge  Ge2  1  0.80266800  0.35481600  0.50000000  1
  Ge  Ge3  1  0.64518400  0.50000000  0.80266800  1
  Ge  Ge4  1  0.50000000  0.19733200  0.64518400  1
  Ge  Ge5  1  0.19733200  0.64518400  0.50000000  1
  Ge  Ge6  1  0.35481600  0.50000000  0.19733200  1
  Ge  Ge7  1  0.50000000  0.80266800  0.35481600  1
  Ge  Ge8  1  0.80266800  0.64518400  0.50000000  1
  Ge  Ge9  1  0.64518400  0.50000000  0.19733200  1
  Ge  Ge10  1  0.19733200  0.35481600  0.50000000  1
  Ge  Ge11  1  0.35481600  0.50000000  0.80266800  1
  Ge  Ge12  1  0.50000000  0.80266800  0.64518400  1
  Ge  Ge13  1  0.50000000  0.19733200  0.35481600  1
  Ge  Ge14  1  0.30266800  0.00000000  0.85481600  1
  Ge  Ge15  1  0.14518400  0.30266800  0.00000000  1
  Ge  Ge16  1  0.00000000  0.14518400  0.69733200  1
  Ge  Ge17  1  0.69733200  0.00000000  0.14518400  1
  Ge  Ge18  1  0.85481600  0.69733200  0.00000000  1
  Ge  Ge19  1  0.00000000  0.85481600  0.30266800  1
  Ge  Ge20  1  0.30266800  0.00000000  0.14518400  1
  Ge  Ge21  1  0.14518400  0.69733200  0.00000000  1
  Ge  Ge22  1  0.69733200  0.00000000  0.85481600  1
  Ge  Ge23  1  0.85481600  0.30266800  0.00000000  1
  Ge  Ge24  1  0.00000000  0.14518400  0.30266800  1
  Ge  Ge25  1  0.00000000  0.85481600  0.69733200  1
  Os  Os0  1  0.75000000  0.25000000  0.75000000  1
  Os  Os1  1  0.25000000  0.75000000  0.25000000  1
  Os  Os2  1  0.75000000  0.75000000  0.25000000  1
  Os  Os3  1  0.25000000  0.25000000  0.75000000  1
  Os  Os4  1  0.25000000  0.75000000  0.75000000  1
  Os  Os5  1  0.75000000  0.25000000  0.25000000  1
  Os  Os6  1  0.25000000  0.25000000  0.25000000  1
  Os  Os7  1  0.75000000  0.75000000  0.75000000  1
loop_
_geom_bond_atom_site_label_1
_geom_bond_atom_site_label_2
_geom_bond_distance
_geom_bond_site_symmetry_2
Lu0 Os3 3.187801 1_555
Lu0 Os4 3.187801 1_555
Lu0 Os0 3.187801 1_455
Lu0 Os7 3.187801 1_455
Lu1 Os0 3.187801 1_554
Lu1 Os6 3.187801 1_555
Lu1 Os5 3.187801 1_555
Lu1 Os3 3.187801 1_554
Lu2 Os0 3.187801 1_555
Lu2 Os7 3.187801 1_545
Lu2 Os5 3.187801 1_555
Lu2 Os2 3.187801 1_545
Lu3 Os6 3.187801 1_555
Lu3 Os5 3.187801 1_455
Lu3 Os1 3.187801 1_555
Lu3 Os2 3.187801 1_455
Lu4 Os7 3.187801 1_554
Lu4 Os4 3.187801 1_554
Lu4 Os1 3.187801 1_555
Lu4 Os2 3.187801 1_555
Lu5 Os6 3.187801 1_555
Lu5 Os3 3.187801 1_555
Lu5 Os4 3.187801 1_545
Lu5 Os1 3.187801 1_545
Ge0 Ge3 3.026717 1_555
Ge0 Ge8 3.026717 1_555
Ge0 Ge12 3.026717 1_555
Ge0 Ge11 3.026717 1_555
Ge0 Ge7 3.026717 1_555
Ge0 Ge2 3.026717 1_555
Ge0 Ge9 3.026717 1_555
Ge0 Ge5 3.026717 1_555
Ge0 Ge4 3.026717 1_555
Ge0 Ge6 3.026717 1_555
Ge0 Ge10 3.026717 1_555
Ge0 Ge13 3.026717 1_555
Ge1 Ge24 3.026717 1_555
Ge1 Ge15 3.026717 1_555
Ge1 Ge20 3.026717 1_555
Ge1 Ge16 3.026717 1_554
Ge1 Ge17 3.026717 1_455
Ge1 Ge21 3.026717 1_545
Ge1 Ge14 3.026717 1_554
Ge1 Ge19 3.026717 1_545
Ge1 Ge23 3.026717 1_455
Ge1 Ge25 3.026717 1_544
Ge1 Ge18 3.026717 1_445
Ge1 Ge22 3.026717 1_454
Ge2 Os0 2.489921 1_555
Ge2 Os5 2.489921 1_555
Ge2 Lu0 3.155998 1_655
Ge2 Lu3 3.155998 1_655
Ge2 Lu2 3.234238 1_555
Ge3 Os0 2.489921 1_555
Ge3 Os7 2.489921 1_555
Ge3 Lu4 3.155998 1_556
Ge3 Lu1 3.155998 1_556
Ge3 Lu0 3.234238 1_655
Ge4 Os3 2.489921 1_555
Ge4 Os0 2.489921 1_555
Ge4 Lu2 3.155998 1_555
Ge4 Lu5 3.155998 1_555
Ge4 Lu1 3.234238 1_556
Ge5 Os1 2.489921 1_555
Ge5 Os4 2.489921 1_555
Ge5 Lu3 3.155998 1_555
Ge5 Lu0 3.155998 1_555
Ge5 Lu5 3.234238 1_565
Ge6 Os1 2.489921 1_555
Ge6 Os6 2.489921 1_555
Ge6 Lu4 3.155998 1_555
Ge6 Lu1 3.155998 1_555
Ge6 Lu3 3.234238 1_555
Ge7 Os1 2.489921 1_555
Ge7 Os2 2.489921 1_555
Ge7 Lu2 3.155998 1_565
Ge7 Lu5 3.155998 1_565
Ge7 Lu4 3.234238 1_555
Ge8 Os2 2.489921 1_555
Ge8 Os7 2.489921 1_555
Ge8 Lu0 3.155998 1_655
Ge8 Lu3 3.155998 1_655
Ge8 Lu2 3.234238 1_565
Ge9 Os5 2.489921 1_555
Ge9 Os2 2.489921 1_555
Ge9 Lu4 3.155998 1_555
Ge9 Lu1 3.155998 1_555
Ge9 Lu3 3.234238 1_655
Ge10 Os3 2.489921 1_555
Ge10 Os6 2.489921 1_555
Ge10 Lu3 3.155998 1_555
Ge10 Lu0 3.155998 1_555
Ge10 Lu5 3.234238 1_555
Ge11 Os3 2.489921 1_555
Ge11 Os4 2.489921 1_555
Ge11 Lu4 3.155998 1_556
Ge11 Lu1 3.155998 1_556
Ge11 Lu0 3.234238 1_555
Ge12 Os7 2.489921 1_555
Ge12 Os4 2.489921 1_555
Ge12 Lu2 3.155998 1_565
Ge12 Lu5 3.155998 1_565
Ge12 Lu4 3.234238 1_556
Ge13 Os5 2.489921 1_555
Ge13 Os6 2.489921 1_555
Ge13 Lu5 3.155998 1_555
Ge13 Lu2 3.155998 1_555
Ge13 Lu1 3.234238 1_555
Ge14 Os3 2.489921 1_555
Ge14 Os4 2.489921 1_545
Ge14 Lu1 3.155998 1_556
Ge14 Lu4 3.155998 1_546
Ge14 Lu5 3.234238 1_555
Ge15 Os3 2.489921 1_554
Ge15 Os6 2.489921 1_555
Ge15 Lu3 3.155998 1_555
Ge15 Lu0 3.155998 1_554
Ge15 Lu1 3.234238 1_555
Ge16 Os0 2.489921 1_455
Ge16 Os3 2.489921 1_555
Ge16 Lu5 3.155998 1_555
Ge16 Lu2 3.155998 1_455
Ge16 Lu0 3.234238 1_555
Ge17 Os5 2.489921 1_555
Ge17 Os2 2.489921 1_545
Ge17 Lu1 3.155998 1_555
Ge17 Lu4 3.155998 1_545
Ge17 Lu2 3.234238 1_555
Ge18 Os2 2.489921 1_555
Ge18 Os7 2.489921 1_554
Ge18 Lu0 3.155998 1_654
Ge18 Lu3 3.155998 1_655
Ge18 Lu4 3.234238 1_555
Ge19 Os2 2.489921 1_455
Ge19 Os1 2.489921 1_555
Ge19 Lu2 3.155998 1_465
Ge19 Lu5 3.155998 1_565
Ge19 Lu3 3.234238 1_555
Ge20 Os1 2.489921 1_545
Ge20 Os6 2.489921 1_555
Ge20 Lu1 3.155998 1_555
Ge20 Lu4 3.155998 1_545
Ge20 Lu5 3.234238 1_555
Ge21 Os4 2.489921 1_554
Ge21 Os1 2.489921 1_555
Ge21 Lu3 3.155998 1_555
Ge21 Lu0 3.155998 1_554
Ge21 Lu4 3.234238 1_555
Ge22 Os7 2.489921 1_545
Ge22 Os0 2.489921 1_555
Ge22 Lu1 3.155998 1_556
Ge22 Lu4 3.155998 1_546
Ge22 Lu2 3.234238 1_555
Ge23 Os5 2.489921 1_555
Ge23 Os0 2.489921 1_554
Ge23 Lu0 3.155998 1_654
Ge23 Lu3 3.155998 1_655
Ge23 Lu1 3.234238 1_555
Ge24 Os6 2.489921 1_555
Ge24 Os5 2.489921 1_455
Ge24 Lu5 3.155998 1_555
Ge24 Lu2 3.155998 1_455
Ge24 Lu3 3.234238 1_555
Ge25 Os7 2.489921 1_455
Ge25 Os4 2.489921 1_555
Ge25 Lu2 3.155998 1_465
Ge25 Lu5 3.155998 1_565
Ge25 Lu0 3.234238 1_555
