# generated using pymatgen
data_Li(CoO2)2
_symmetry_space_group_name_H-M   'P 1'
_cell_length_a   2.95527400
_cell_length_b   4.93941244
_cell_length_c   9.94808000
_cell_angle_alpha   86.09097514
_cell_angle_beta   81.45796899
_cell_angle_gamma   90.00000000
_symmetry_Int_Tables_number   1
_chemical_formula_structural   Li(CoO2)2
_chemical_formula_sum   'Li2 Co4 O8'
_cell_volume   143.26279588
_cell_formula_units_Z   2
loop_
 _symmetry_equiv_pos_site_id
 _symmetry_equiv_pos_as_xyz
  1  'x, y, z'
loop_
 _atom_site_type_symbol
 _atom_site_label
 _atom_site_symmetry_multiplicity
 _atom_site_fract_x
 _atom_site_fract_y
 _atom_site_fract_z
 _atom_site_occupancy
  Li  Li0  1  0.62546500  0.54842400  0.74907100  1
  Li  Li1  1  0.87453500  0.95157600  0.25092900  1
  Co  Co0  1  0.48876700  0.49531600  0.02246700  1
  Co  Co1  1  0.01123300  0.00468400  0.97753300  1
  Co  Co2  1  0.25000000  0.75000000  0.50000000  1
  Co  Co3  1  0.75000000  0.25000000  0.50000000  1
  O  O0  1  0.05299200  0.68555200  0.89401500  1
  O  O1  1  0.55428100  0.21756200  0.89143700  1
  O  O2  1  0.44700800  0.81444800  0.10598500  1
  O  O3  1  0.94571900  0.28243800  0.10856300  1
  O  O4  1  0.30265900  0.07601000  0.39468200  1
  O  O5  1  0.79943700  0.61118200  0.40112600  1
  O  O6  1  0.19734100  0.42399000  0.60531800  1
  O  O7  1  0.70056300  0.88881800  0.59887400  1
loop_
_geom_bond_atom_site_label_1
_geom_bond_atom_site_label_2
_geom_bond_distance
_geom_bond_site_symmetry_2
Li0 O1 2.077692 1_555
Li0 O7 2.160484 1_555
Li0 O6 2.163559 1_655
Li0 O6 2.163561 1_555
Li0 O0 2.192850 1_655
Li0 O0 2.192854 1_555
Li1 O3 2.077692 1_565
Li1 O5 2.160484 1_555
Li1 O4 2.163559 1_565
Li1 O4 2.163561 1_665
Li1 O2 2.192850 1_555
Li1 O2 2.192854 1_655
Co0 O2 1.827139 1_555
Co0 O1 1.946194 1_554
Co0 O3 1.970697 1_555
Co0 O3 1.970697 1_455
Co0 O0 2.121206 1_654
Co0 O0 2.121210 1_554
Co1 O0 1.827139 1_545
Co1 O3 1.946194 1_456
Co1 O1 1.970697 1_455
Co1 O1 1.970697 1_555
Co1 O2 2.121206 1_446
Co1 O2 2.121210 1_546
Co2 O4 1.853783 1_565
Co2 O6 1.853783 1_555
Co2 O5 1.921369 1_555
Co2 O7 1.921369 1_455
Co2 O7 1.921369 1_555
Co2 O5 1.921369 1_455
Co3 O5 1.972215 1_555
Co3 O7 1.972215 1_545
Co3 O4 2.029345 1_655
Co3 O6 2.029345 1_555
Co3 O6 2.029345 1_655
Co3 O4 2.029345 1_555
