# generated using pymatgen
data_Rb2Mo(CO4)2
_symmetry_space_group_name_H-M   'P 1'
_cell_length_a   13.52774700
_cell_length_b   7.73985200
_cell_length_c   9.22055459
_cell_angle_alpha   84.33129291
_cell_angle_beta   90.00000000
_cell_angle_gamma   90.00000000
_symmetry_Int_Tables_number   1
_chemical_formula_structural   Rb2Mo(CO4)2
_chemical_formula_sum   'Rb8 Mo4 C8 O32'
_cell_volume   960.69629738
_cell_formula_units_Z   4
loop_
 _symmetry_equiv_pos_site_id
 _symmetry_equiv_pos_as_xyz
  1  'x, y, z'
loop_
 _atom_site_type_symbol
 _atom_site_label
 _atom_site_symmetry_multiplicity
 _atom_site_fract_x
 _atom_site_fract_y
 _atom_site_fract_z
 _atom_site_occupancy
  Rb  Rb0  1  0.98569700  0.77423200  0.36630700  1
  Rb  Rb1  1  0.48569700  0.72576800  0.63369300  1
  Rb  Rb2  1  0.01430300  0.22576800  0.63369300  1
  Rb  Rb3  1  0.51430300  0.27423200  0.36630700  1
  Rb  Rb4  1  0.86394800  0.33474700  0.11030600  1
  Rb  Rb5  1  0.36394800  0.16525300  0.88969400  1
  Rb  Rb6  1  0.13605200  0.66525300  0.88969400  1
  Rb  Rb7  1  0.63605200  0.83474700  0.11030600  1
  Mo  Mo0  1  0.76443700  0.06135400  0.46074800  1
  Mo  Mo1  1  0.26443700  0.43864600  0.53925200  1
  Mo  Mo2  1  0.23556300  0.93864600  0.53925200  1
  Mo  Mo3  1  0.73556300  0.56135400  0.46074800  1
  C  C0  1  0.63805100  0.03435900  0.73956900  1
  C  C1  1  0.13805100  0.46564100  0.26043100  1
  C  C2  1  0.36194900  0.96564100  0.26043100  1
  C  C3  1  0.86194900  0.53435900  0.73956900  1
  C  C4  1  0.74571100  0.06646300  0.79297500  1
  C  C5  1  0.24571100  0.43353700  0.20702500  1
  C  C6  1  0.25428900  0.93353700  0.20702500  1
  C  C7  1  0.75428900  0.56646300  0.79297500  1
  O  O0  1  0.69311500  0.08796000  0.29959700  1
  O  O1  1  0.19311500  0.41204000  0.70040300  1
  O  O2  1  0.30688500  0.91204000  0.70040300  1
  O  O3  1  0.80688500  0.58796000  0.29959700  1
  O  O4  1  0.62877600  0.03423800  0.60018700  1
  O  O5  1  0.12877600  0.46576200  0.39981300  1
  O  O6  1  0.37122400  0.96576200  0.39981300  1
  O  O7  1  0.87122400  0.53423800  0.60018700  1
  O  O8  1  0.81081600  0.08248300  0.68961000  1
  O  O9  1  0.31081600  0.41751700  0.31039000  1
  O  O10  1  0.18918400  0.91751700  0.31039000  1
  O  O11  1  0.68918400  0.58248300  0.68961000  1
  O  O12  1  0.77665300  0.82585000  0.48918400  1
  O  O13  1  0.27665300  0.67415000  0.51081600  1
  O  O14  1  0.22334700  0.17415000  0.51081600  1
  O  O15  1  0.72334700  0.32585000  0.48918400  1
  O  O16  1  0.88566900  0.12293000  0.40292000  1
  O  O17  1  0.38566900  0.37707000  0.59708000  1
  O  O18  1  0.11433100  0.87707000  0.59708000  1
  O  O19  1  0.61433100  0.62293000  0.40292000  1
  O  O20  1  0.56939000  0.00662800  0.82918600  1
  O  O21  1  0.06939000  0.49337200  0.17081400  1
  O  O22  1  0.43061000  0.99337200  0.17081400  1
  O  O23  1  0.93061000  0.50662800  0.82918600  1
  O  O24  1  0.76295300  0.07261400  0.92465000  1
  O  O25  1  0.26295300  0.42738600  0.07535000  1
  O  O26  1  0.23704700  0.92738600  0.07535000  1
  O  O27  1  0.73704700  0.57261400  0.92465000  1
  O  O28  1  0.96520400  0.94780500  0.01053600  1
  O  O29  1  0.46520400  0.55219500  0.98946400  1
  O  O30  1  0.03479600  0.05219500  0.98946400  1
  O  O31  1  0.53479600  0.44780500  0.01053600  1
loop_
_geom_bond_atom_site_label_1
_geom_bond_atom_site_label_2
_geom_bond_distance
_geom_bond_site_symmetry_2
Mo0 O0 1.766564 1_555
Mo0 O16 1.775058 1_555
Mo0 O12 1.823216 1_545
Mo0 O15 2.162088 1_555
Mo0 O8 2.222981 1_555
Mo0 O4 2.238681 1_555
Mo1 O1 1.766564 1_555
Mo1 O17 1.775058 1_555
Mo1 O13 1.823216 1_555
Mo1 O14 2.162088 1_555
Mo1 O9 2.222981 1_555
Mo1 O5 2.238681 1_555
Mo2 O2 1.766564 1_555
Mo2 O18 1.775058 1_555
Mo2 O14 1.823216 1_565
Mo2 O13 2.162088 1_555
Mo2 O10 2.222981 1_555
Mo2 O6 2.238681 1_555
Mo3 O3 1.766564 1_555
Mo3 O19 1.775058 1_555
Mo3 O15 1.823216 1_555
Mo3 O12 2.162088 1_555
Mo3 O11 2.222981 1_555
Mo3 O7 2.238681 1_555
C0 O20 1.247620 1_555
C0 O4 1.291382 1_555
C1 O21 1.247620 1_555
C1 O5 1.291382 1_555
C2 O22 1.247620 1_555
C2 O6 1.291382 1_555
C3 O23 1.247620 1_555
C3 O7 1.291382 1_555
C4 O24 1.241840 1_555
C4 O8 1.294631 1_555
C5 O25 1.241840 1_555
C5 O9 1.294631 1_555
C6 O26 1.241840 1_555
C6 O10 1.294631 1_555
C7 O27 1.241840 1_555
C7 O11 1.294631 1_555
O0 Rb7 2.856376 1_545
O0 Rb3 2.912608 1_555
O0 Rb4 3.372954 1_555
O1 Rb6 2.856376 1_555
O1 Rb2 2.912608 1_555
O1 Rb5 3.372954 1_555
O2 Rb5 2.856376 1_565
O2 Rb1 2.912608 1_555
O2 Rb6 3.372954 1_555
O3 Rb4 2.856376 1_555
O3 Rb0 2.912608 1_555
O3 Rb7 3.372954 1_555
O4 Rb1 3.065330 1_545
O4 Rb3 3.115699 1_555
O5 Rb0 3.065330 1_455
O5 Rb2 3.115699 1_555
O6 Rb3 3.065330 1_565
O6 Rb1 3.115699 1_555
O7 Rb2 3.065330 1_655
O7 Rb0 3.115699 1_555
O8 Rb2 2.993365 1_655
O9 Rb3 2.993365 1_555
O10 Rb0 2.993365 1_455
O11 Rb1 2.993365 1_555
O12 Rb0 3.087021 1_555
O13 Rb1 3.087021 1_555
O14 Rb2 3.087021 1_555
O15 Rb3 3.087021 1_555
O16 Rb2 2.919579 1_655
O16 Rb4 3.029817 1_555
O16 Rb0 3.067392 1_545
O17 Rb3 2.919579 1_555
O17 Rb5 3.029817 1_555
O17 Rb1 3.067392 1_555
O18 Rb0 2.919579 1_455
O18 Rb6 3.029817 1_555
O18 Rb2 3.067392 1_565
O19 Rb1 2.919579 1_555
O19 Rb7 3.029817 1_555
O19 Rb3 3.067392 1_555
O20 Rb7 2.936098 1_546
O20 Rb5 3.110899 1_555
O20 Rb1 3.167111 1_545
O21 Rb6 2.936098 1_554
O21 Rb4 3.110899 1_455
O21 Rb0 3.167111 1_455
O22 Rb5 2.936098 1_564
O22 Rb7 3.110899 1_555
O22 Rb3 3.167111 1_565
O23 Rb4 2.936098 1_556
O23 Rb6 3.110899 1_655
O23 Rb2 3.167111 1_655
O24 Rb7 2.940122 1_546
O24 Rb4 3.098302 1_556
O25 Rb6 2.940122 1_554
O25 Rb5 3.098302 1_554
O26 Rb5 2.940122 1_564
O26 Rb6 3.098302 1_554
O27 Rb4 2.940122 1_556
O27 Rb7 3.098302 1_556
O28 O30 1.243310 1_664
O28 Rb0 3.431050 1_555
O28 Rb6 3.441956 1_654
O28 Rb4 3.498011 1_565
O29 O31 1.243310 1_556
O29 Rb1 3.431050 1_555
O29 Rb7 3.441956 1_556
O29 Rb5 3.498011 1_555
O30 Rb2 3.431050 1_555
O30 Rb4 3.441956 1_456
O30 Rb6 3.498011 1_545
O31 Rb3 3.431050 1_555
O31 Rb5 3.441956 1_554
O31 Rb7 3.498011 1_555
