# generated using pymatgen
data_Na3NpH2Se2O11
_symmetry_space_group_name_H-M   'P 1'
_cell_length_a   7.14326281
_cell_length_b   8.15582962
_cell_length_c   9.89356207
_cell_angle_alpha   89.15961405
_cell_angle_beta   95.91884504
_cell_angle_gamma   111.82405073
_symmetry_Int_Tables_number   1
_chemical_formula_structural   Na3NpH2Se2O11
_chemical_formula_sum   'Na6 Np2 H4 Se4 O22'
_cell_volume   532.05388639
_cell_formula_units_Z   2
loop_
 _symmetry_equiv_pos_site_id
 _symmetry_equiv_pos_as_xyz
  1  'x, y, z'
loop_
 _atom_site_type_symbol
 _atom_site_label
 _atom_site_symmetry_multiplicity
 _atom_site_fract_x
 _atom_site_fract_y
 _atom_site_fract_z
 _atom_site_occupancy
  Na  Na0  1  0.88815300  0.27505600  0.60108800  1
  Na  Na1  1  0.11184700  0.72494400  0.39891200  1
  Na  Na2  1  0.84152300  0.78777800  0.09084000  1
  Na  Na3  1  0.15847700  0.21222200  0.90916000  1
  Na  Na4  1  0.53624100  0.91821800  0.81838600  1
  Na  Na5  1  0.46375900  0.08178200  0.18161400  1
  Np  Np0  1  0.91257000  0.72882600  0.74205600  1
  Np  Np1  1  0.08743000  0.27117400  0.25794400  1
  H  H0  1  0.48282000  0.67522400  0.59510100  1
  H  H1  1  0.51718000  0.32477600  0.40489900  1
  H  H2  1  0.43385000  0.51352100  0.69324500  1
  H  H3  1  0.56615000  0.48647900  0.30675500  1
  Se  Se0  1  0.71903800  0.31508900  0.95201100  1
  Se  Se1  1  0.28096200  0.68491100  0.04798900  1
  Se  Se2  1  0.70493900  0.87141500  0.41322600  1
  Se  Se3  1  0.29506100  0.12858500  0.58677400  1
  O  O0  1  0.92491200  0.57372800  0.61316900  1
  O  O1  1  0.07508800  0.42627200  0.38683100  1
  O  O2  1  0.90155400  0.89294300  0.86475300  1
  O  O3  1  0.09844600  0.10705700  0.13524700  1
  O  O4  1  0.84012000  0.23836000  0.84903900  1
  O  O5  1  0.15988000  0.76164000  0.15096100  1
  O  O6  1  0.82218600  0.92020600  0.57331900  1
  O  O7  1  0.17781400  0.07979400  0.42668100  1
  O  O8  1  0.78582400  0.73766500  0.32964700  1
  O  O9  1  0.21417600  0.26233500  0.67035300  1
  O  O10  1  0.73561100  0.52105400  0.91168300  1
  O  O11  1  0.26438900  0.47894600  0.08831700  1
  O  O12  1  0.52183500  0.63828000  0.68630000  1
  O  O13  1  0.47816500  0.36172000  0.31370000  1
  O  O14  1  0.47698300  0.17780400  0.94303600  1
  O  O15  1  0.52301700  0.82219600  0.05696400  1
  O  O16  1  0.45906700  0.77338200  0.42718200  1
  O  O17  1  0.54093300  0.22661800  0.57281800  1
  O  O18  1  0.24720600  0.93540100  0.66605500  1
  O  O19  1  0.75279400  0.06459900  0.33394500  1
  O  O20  1  0.18827200  0.67977100  0.88361700  1
  O  O21  1  0.81172800  0.32022900  0.11638300  1
loop_
_geom_bond_atom_site_label_1
_geom_bond_atom_site_label_2
_geom_bond_distance
_geom_bond_site_symmetry_2
Na0 O17 2.348988 1_555
Na0 O0 2.354449 1_555
Na0 O9 2.398420 1_655
Na0 O4 2.510138 1_555
Na0 O1 2.660853 1_655
Na0 O6 2.766943 1_545
Na1 O16 2.348988 1_555
Na1 O1 2.354449 1_555
Na1 O8 2.398420 1_455
Na1 O5 2.510138 1_555
Na1 O0 2.660853 1_455
Na1 O7 2.766943 1_565
Na2 O5 2.376671 1_655
Na2 O15 2.383770 1_555
Na2 O2 2.406434 1_554
Na2 O8 2.439695 1_555
Na2 O3 2.579917 1_665
Na2 O10 2.656913 1_554
Na3 O4 2.376671 1_455
Na3 O14 2.383770 1_555
Na3 O3 2.406434 1_556
Na3 O9 2.439695 1_555
Na3 O2 2.579917 1_445
Na3 O11 2.656913 1_556
Na4 O18 2.474059 1_555
Na4 O15 2.475967 1_556
Na4 O12 2.610763 1_555
Na4 O14 2.651960 1_565
Na4 O20 2.660227 1_555
Na4 O2 2.685676 1_555
Na4 O4 2.700875 1_565
Na5 O19 2.474059 1_555
Na5 O14 2.475967 1_554
Na5 O13 2.610763 1_555
Na5 O15 2.651960 1_545
Na5 O21 2.660227 1_555
Na5 O3 2.685676 1_555
Na5 O5 2.700875 1_545
Np0 O0 1.840464 1_555
Np0 O2 1.848528 1_555
Np0 O20 2.449635 1_655
Np0 O10 2.459113 1_555
Np0 O6 2.467918 1_555
Np0 O18 2.541072 1_655
Np0 O12 2.608045 1_555
Np1 O1 1.840464 1_555
Np1 O3 1.848528 1_555
Np1 O21 2.449635 1_455
Np1 O11 2.459113 1_555
Np1 O7 2.467918 1_555
Np1 O19 2.541072 1_455
Np1 O13 2.608045 1_555
H0 O12 0.992558 1_555
H1 O13 0.992558 1_555
H2 O12 0.983076 1_555
H3 O13 0.983076 1_555
O4 Se0 1.667463 1_555
O5 Se1 1.667463 1_555
O6 Se2 1.692812 1_555
O7 Se3 1.692812 1_555
O8 Se2 1.673658 1_555
O9 Se3 1.673658 1_555
O10 Se0 1.684401 1_555
O11 Se1 1.684401 1_555
O14 Se0 1.668241 1_555
O15 Se1 1.668241 1_555
O16 Se2 1.657018 1_555
O17 Se3 1.657018 1_555
O18 Se3 1.683189 1_565
O19 Se2 1.683189 1_545
O20 Se1 1.686431 1_556
O21 Se0 1.686431 1_554
