# generated using pymatgen
data_HoAl7Fe5
_symmetry_space_group_name_H-M   'P 1'
_cell_length_a   6.60136971
_cell_length_b   6.60136971
_cell_length_c   6.60136971
_cell_angle_alpha   135.34506700
_cell_angle_beta   98.45811727
_cell_angle_gamma   98.13818866
_symmetry_Int_Tables_number   1
_chemical_formula_structural   HoAl7Fe5
_chemical_formula_sum   'Ho1 Al7 Fe5'
_cell_volume   187.02870618
_cell_formula_units_Z   1
loop_
 _symmetry_equiv_pos_site_id
 _symmetry_equiv_pos_as_xyz
  1  'x, y, z'
loop_
 _atom_site_type_symbol
 _atom_site_label
 _atom_site_symmetry_multiplicity
 _atom_site_fract_x
 _atom_site_fract_y
 _atom_site_fract_z
 _atom_site_occupancy
  Ho  Ho0  1  0.00452900  0.00000000  0.00452900  1
  Al  Al0  1  0.65976200  0.00000000  0.65976200  1
  Al  Al1  1  0.33874600  0.00000000  0.33874600  1
  Al  Al2  1  0.33468600  0.34279900  0.99188600  1
  Al  Al3  1  0.64908700  0.65720100  0.99188600  1
  Al  Al4  1  0.77525100  0.50000000  0.27525100  1
  Al  Al5  1  0.79307900  0.28847900  0.50460000  1
  Al  Al6  1  0.21612100  0.71152100  0.50460000  1
  Fe  Fe0  1  0.49919200  0.49866500  0.49682300  1
  Fe  Fe1  1  0.49919200  0.00236900  0.00052700  1
  Fe  Fe2  1  0.99815800  0.99763100  0.49682300  1
  Fe  Fe3  1  0.99815800  0.50133500  0.00052700  1
  Fe  Fe4  1  0.23403800  0.50000000  0.73403800  1
loop_
_geom_bond_atom_site_label_1
_geom_bond_atom_site_label_2
_geom_bond_distance
_geom_bond_site_symmetry_2
Al0 Fe3 2.615380 1_556
Al0 Fe2 2.615380 1_545
Al0 Fe1 2.615380 1_556
Al0 Fe0 2.615380 1_545
Al0 Al4 2.698302 1_556
Al0 Al4 2.698302 1_545
Al0 Al1 2.767759 1_555
Al0 Al5 2.831264 1_555
Al0 Al6 2.831264 1_545
Al0 Ho0 2.972537 1_656
Al1 Fe0 2.616812 1_555
Al1 Fe1 2.616812 1_555
Al1 Fe2 2.616812 1_445
Al1 Fe3 2.616812 1_445
Al1 Fe4 2.665401 1_555
Al1 Fe4 2.665401 1_544
Al1 Al5 2.875970 1_555
Al1 Al6 2.875970 1_545
Al1 Ho0 2.881576 1_555
Al2 Fe2 2.577669 1_445
Al2 Fe3 2.577672 1_456
Al2 Fe4 2.606002 1_555
Al2 Fe1 2.662342 1_556
Al2 Fe0 2.662344 1_556
Al2 Al3 2.719496 1_555
Al2 Al6 2.755136 1_545
Al2 Al6 2.755141 1_556
Al2 Al4 2.796034 1_556
Al2 Ho0 2.967134 1_556
Al3 Fe0 2.577666 1_555
Al3 Fe1 2.577666 1_566
Al3 Fe4 2.606000 1_555
Al3 Fe3 2.662345 1_556
Al3 Fe2 2.662345 1_556
Al3 Al5 2.755137 1_555
Al3 Al5 2.755137 1_566
Al3 Al4 2.796040 1_556
Al3 Ho0 2.967130 1_666
Al4 Fe2 2.501690 1_555
Al4 Fe3 2.501690 1_555
Al4 Fe0 2.501690 1_555
Al4 Fe1 2.501690 1_555
Al4 Al6 2.694000 1_655
Al4 Al5 2.694000 1_555
Al4 Ho0 3.193292 1_666
Al4 Ho0 3.193292 1_655
Al5 Fe3 2.477484 1_556
Al5 Fe2 2.477484 1_545
Al5 Fe0 2.554569 1_555
Al5 Fe1 2.554569 1_555
Al5 Fe4 2.694563 1_655
Al5 Ho0 3.104320 1_655
Al5 Ho0 3.104320 1_666
Al6 Fe1 2.477484 1_566
Al6 Fe0 2.477484 1_555
Al6 Fe2 2.554569 1_455
Al6 Fe3 2.554569 1_455
Al6 Fe4 2.694563 1_555
Al6 Ho0 3.104320 1_566
Al6 Ho0 3.104320 1_555
Fe0 Fe1 2.489280 1_555
Fe0 Fe4 2.511403 1_555
Fe0 Fe1 2.526436 1_566
Fe0 Ho0 3.267359 1_555
Fe0 Ho0 3.334473 1_666
Fe1 Fe4 2.511403 1_544
Fe1 Ho0 3.267359 1_555
Fe1 Ho0 3.334473 1_655
Fe2 Fe3 2.489280 1_555
Fe2 Fe4 2.511403 1_665
Fe2 Fe3 2.526436 1_566
Fe2 Ho0 3.267359 1_665
Fe2 Ho0 3.334473 1_666
Fe3 Fe4 2.511403 1_654
Fe3 Ho0 3.267359 1_665
Fe3 Ho0 3.334473 1_655
Fe4 Ho0 3.194525 1_555
Fe4 Ho0 3.194525 1_566
