# generated using pymatgen
data_YMg14CuO16
_symmetry_space_group_name_H-M   'P 1'
_cell_length_a   4.32081400
_cell_length_b   8.67028700
_cell_length_c   8.70644200
_cell_angle_alpha   90.00000000
_cell_angle_beta   90.00000000
_cell_angle_gamma   90.00000000
_symmetry_Int_Tables_number   1
_chemical_formula_structural   YMg14CuO16
_chemical_formula_sum   'Y1 Mg14 Cu1 O16'
_cell_volume   326.16680254
_cell_formula_units_Z   1
loop_
 _symmetry_equiv_pos_site_id
 _symmetry_equiv_pos_as_xyz
  1  'x, y, z'
loop_
 _atom_site_type_symbol
 _atom_site_label
 _atom_site_symmetry_multiplicity
 _atom_site_fract_x
 _atom_site_fract_y
 _atom_site_fract_z
 _atom_site_occupancy
  Y  Y0  1  0.00000000  0.00000000  0.00000000  1
  Mg  Mg0  1  0.00000000  0.50000000  0.00000000  1
  Mg  Mg1  1  0.00000000  0.50000000  0.50000000  1
  Mg  Mg2  1  0.50000000  0.00000000  0.26866500  1
  Mg  Mg3  1  0.50000000  0.00000000  0.73133500  1
  Mg  Mg4  1  0.50000000  0.50000000  0.25411300  1
  Mg  Mg5  1  0.50000000  0.50000000  0.74588700  1
  Mg  Mg6  1  0.50000000  0.26220600  0.00000000  1
  Mg  Mg7  1  0.50000000  0.24820100  0.50000000  1
  Mg  Mg8  1  0.50000000  0.73779400  0.00000000  1
  Mg  Mg9  1  0.50000000  0.75179900  0.50000000  1
  Mg  Mg10  1  0.00000000  0.25378400  0.26216700  1
  Mg  Mg11  1  0.00000000  0.25378400  0.73783300  1
  Mg  Mg12  1  0.00000000  0.74621600  0.26216700  1
  Mg  Mg13  1  0.00000000  0.74621600  0.73783300  1
  Cu  Cu0  1  0.00000000  0.00000000  0.50000000  1
  O  O0  1  0.00000000  0.26025700  0.00000000  1
  O  O1  1  0.00000000  0.26948200  0.50000000  1
  O  O2  1  0.00000000  0.73974300  0.00000000  1
  O  O3  1  0.00000000  0.73051800  0.50000000  1
  O  O4  1  0.50000000  0.24858400  0.24892900  1
  O  O5  1  0.50000000  0.24858400  0.75107100  1
  O  O6  1  0.50000000  0.75141600  0.24892900  1
  O  O7  1  0.50000000  0.75141600  0.75107100  1
  O  O8  1  0.50000000  0.00000000  0.00000000  1
  O  O9  1  0.50000000  0.00000000  0.50000000  1
  O  O10  1  0.50000000  0.50000000  0.00000000  1
  O  O11  1  0.50000000  0.50000000  0.50000000  1
  O  O12  1  0.00000000  0.00000000  0.25028700  1
  O  O13  1  0.00000000  0.00000000  0.74971300  1
  O  O14  1  0.00000000  0.50000000  0.24721500  1
  O  O15  1  0.00000000  0.50000000  0.75278500  1
loop_
_geom_bond_atom_site_label_1
_geom_bond_atom_site_label_2
_geom_bond_distance
_geom_bond_site_symmetry_2
Mg0 O0 2.078641 1_555
Mg0 O2 2.078641 1_555
Mg0 O15 2.152363 1_554
Mg0 O14 2.152363 1_555
Mg0 O10 2.160407 1_455
Mg0 O10 2.160407 1_555
Mg1 O1 1.998657 1_555
Mg1 O3 1.998657 1_555
Mg1 O11 2.160407 1_555
Mg1 O11 2.160407 1_455
Mg1 O14 2.200858 1_555
Mg1 O15 2.200858 1_555
Mg2 O9 2.014105 1_555
Mg2 O4 2.162133 1_555
Mg2 O6 2.162133 1_545
Mg2 O12 2.166324 1_655
Mg2 O12 2.166324 1_555
Mg2 O8 2.339116 1_555
Mg3 O9 2.014105 1_555
Mg3 O5 2.162133 1_555
Mg3 O7 2.162133 1_545
Mg3 O13 2.166324 1_655
Mg3 O13 2.166324 1_555
Mg3 O8 2.339116 1_556
Mg4 O11 2.140801 1_555
Mg4 O14 2.161242 1_555
Mg4 O14 2.161242 1_655
Mg4 O4 2.180316 1_555
Mg4 O6 2.180316 1_555
Mg4 O10 2.212420 1_555
Mg5 O11 2.140801 1_555
Mg5 O15 2.161242 1_555
Mg5 O15 2.161242 1_655
Mg5 O5 2.180316 1_555
Mg5 O7 2.180316 1_555
Mg5 O10 2.212420 1_556
Mg6 O10 2.061742 1_555
Mg6 O0 2.160473 1_555
Mg6 O0 2.160473 1_655
Mg6 O5 2.170502 1_554
Mg6 O4 2.170502 1_555
Mg6 O8 2.273401 1_555
Mg7 O9 2.151974 1_555
Mg7 O1 2.168272 1_655
Mg7 O1 2.168272 1_555
Mg7 O11 2.183170 1_555
Mg7 O4 2.185938 1_555
Mg7 O5 2.185938 1_555
Mg8 O10 2.061742 1_555
Mg8 O2 2.160473 1_655
Mg8 O2 2.160473 1_555
Mg8 O7 2.170502 1_554
Mg8 O6 2.170502 1_555
Mg8 O8 2.273401 1_565
Mg9 O9 2.151974 1_565
Mg9 O3 2.168272 1_655
Mg9 O3 2.168272 1_555
Mg9 O11 2.183170 1_555
Mg9 O6 2.185938 1_555
Mg9 O7 2.185938 1_555
Mg10 O1 2.075148 1_555
Mg10 O14 2.138729 1_555
Mg10 O4 2.163949 1_455
Mg10 O4 2.163949 1_555
Mg10 O12 2.202810 1_555
Mg10 O0 2.283232 1_555
Mg11 O1 2.075148 1_555
Mg11 O15 2.138729 1_555
Mg11 O5 2.163949 1_555
Mg11 O5 2.163949 1_455
Mg11 O13 2.202810 1_555
Mg11 O0 2.283232 1_556
Mg12 O3 2.075148 1_555
Mg12 O14 2.138729 1_555
Mg12 O6 2.163949 1_555
Mg12 O6 2.163949 1_455
Mg12 O12 2.202810 1_565
Mg12 O2 2.283232 1_555
Mg13 O3 2.075148 1_555
Mg13 O15 2.138729 1_555
Mg13 O7 2.163949 1_555
Mg13 O7 2.163949 1_455
Mg13 O13 2.202810 1_565
Mg13 O2 2.283232 1_556
Cu0 O9 2.160407 1_455
Cu0 O9 2.160407 1_555
Cu0 O13 2.174112 1_555
Cu0 O12 2.174112 1_555
Cu0 O1 2.336486 1_555
Cu0 O3 2.336486 1_545
O0 Y0 2.256503 1_555
O2 Y0 2.256503 1_565
O8 Y0 2.160407 1_555
O8 Y0 2.160407 1_655
O12 Y0 2.179109 1_555
O13 Y0 2.179109 1_556
