# generated using pymatgen
data_Li3Ti2(PO4)3
_symmetry_space_group_name_H-M   'P 1'
_cell_length_a   8.83079200
_cell_length_b   8.79929600
_cell_length_c   15.03786580
_cell_angle_alpha   54.49565734
_cell_angle_beta   90.00000000
_cell_angle_gamma   90.00000000
_symmetry_Int_Tables_number   1
_chemical_formula_structural   Li3Ti2(PO4)3
_chemical_formula_sum   'Li12 Ti8 P12 O48'
_cell_volume   951.25365694
_cell_formula_units_Z   4
loop_
 _symmetry_equiv_pos_site_id
 _symmetry_equiv_pos_as_xyz
  1  'x, y, z'
loop_
 _atom_site_type_symbol
 _atom_site_label
 _atom_site_symmetry_multiplicity
 _atom_site_fract_x
 _atom_site_fract_y
 _atom_site_fract_z
 _atom_site_occupancy
  Li  Li0  1  0.93480100  0.34986500  0.70748300  1
  Li  Li1  1  0.22502900  0.03213900  0.17904800  1
  Li  Li2  1  0.27008800  0.38375000  0.82029600  1
  Li  Li3  1  0.77008800  0.61625000  0.67970400  1
  Li  Li4  1  0.72502900  0.96786100  0.32095200  1
  Li  Li5  1  0.43480100  0.65013500  0.79251700  1
  Li  Li6  1  0.56519900  0.34986500  0.20748300  1
  Li  Li7  1  0.27497100  0.03213900  0.67904800  1
  Li  Li8  1  0.22991200  0.38375000  0.32029600  1
  Li  Li9  1  0.72991200  0.61625000  0.17970400  1
  Li  Li10  1  0.77497100  0.96786100  0.82095200  1
  Li  Li11  1  0.06519900  0.65013500  0.29251700  1
  Ti  Ti0  1  0.45925600  0.63284800  0.60791900  1
  Ti  Ti1  1  0.95925600  0.36715200  0.89208100  1
  Ti  Ti2  1  0.54110200  0.13467600  0.11078100  1
  Ti  Ti3  1  0.04110200  0.86532400  0.38921900  1
  Ti  Ti4  1  0.95889800  0.13467600  0.61078100  1
  Ti  Ti5  1  0.45889800  0.86532400  0.88921900  1
  Ti  Ti6  1  0.04074400  0.63284800  0.10791900  1
  Ti  Ti7  1  0.54074400  0.36715200  0.39208100  1
  P  P0  1  0.75500800  0.54393800  0.50032200  1
  P  P1  1  0.60874700  0.25566300  0.85051900  1
  P  P2  1  0.89513500  0.95791500  0.14822900  1
  P  P3  1  0.39513500  0.04208500  0.35177100  1
  P  P4  1  0.10874700  0.74433700  0.64948100  1
  P  P5  1  0.25500800  0.45606200  0.99967800  1
  P  P6  1  0.74499200  0.54393800  0.00032200  1
  P  P7  1  0.89125300  0.25566300  0.35051900  1
  P  P8  1  0.60486500  0.95791500  0.64822900  1
  P  P9  1  0.10486500  0.04208500  0.85177100  1
  P  P10  1  0.39125300  0.74433700  0.14948100  1
  P  P11  1  0.24499200  0.45606200  0.49967800  1
  O  O0  1  0.12890700  0.61546300  0.42938800  1
  O  O1  1  0.33500900  0.48232300  0.57683300  1
  O  O2  1  0.10764100  0.21980200  0.85065600  1
  O  O3  1  0.40714300  0.89863400  0.16806800  1
  O  O4  1  0.65672300  0.54975600  0.58407200  1
  O  O5  1  0.58455400  0.17700400  0.97107100  1
  O  O6  1  0.77249600  0.33910500  0.81307000  1
  O  O7  1  0.02021400  0.91592300  0.23401300  1
  O  O8  1  0.83501700  0.73773500  0.42925800  1
  O  O9  1  0.73968000  0.98547600  0.18399500  1
  O  O10  1  0.94382500  0.13138300  0.03654800  1
  O  O11  1  0.48904800  0.41576200  0.78236600  1
  O  O12  1  0.98904800  0.58423800  0.71763400  1
  O  O13  1  0.44382500  0.86861700  0.46345200  1
  O  O14  1  0.23968000  0.01452400  0.31600500  1
  O  O15  1  0.33501700  0.26226500  0.07074200  1
  O  O16  1  0.52021400  0.08407700  0.26598700  1
  O  O17  1  0.27249600  0.66089500  0.68693000  1
  O  O18  1  0.08455400  0.82299600  0.52892900  1
  O  O19  1  0.15672300  0.45024400  0.91592800  1
  O  O20  1  0.60764100  0.78019800  0.64934400  1
  O  O21  1  0.90714300  0.10136600  0.33193200  1
  O  O22  1  0.83500900  0.51767700  0.92316700  1
  O  O23  1  0.62890700  0.38453700  0.07061200  1
  O  O24  1  0.37109300  0.61546300  0.92938800  1
  O  O25  1  0.16499100  0.48232300  0.07683300  1
  O  O26  1  0.09285700  0.89863400  0.66806800  1
  O  O27  1  0.39235900  0.21980200  0.35065600  1
  O  O28  1  0.84327700  0.54975600  0.08407200  1
  O  O29  1  0.91544600  0.17700400  0.47107100  1
  O  O30  1  0.72750400  0.33910500  0.31307000  1
  O  O31  1  0.47978600  0.91592300  0.73401300  1
  O  O32  1  0.66498300  0.73773500  0.92925800  1
  O  O33  1  0.76032000  0.98547600  0.68399500  1
  O  O34  1  0.55617500  0.13138300  0.53654800  1
  O  O35  1  0.01095200  0.41576200  0.28236600  1
  O  O36  1  0.51095200  0.58423800  0.21763400  1
  O  O37  1  0.05617500  0.86861700  0.96345200  1
  O  O38  1  0.26032000  0.01452400  0.81600500  1
  O  O39  1  0.16498300  0.26226500  0.57074200  1
  O  O40  1  0.97978600  0.08407700  0.76598700  1
  O  O41  1  0.22750400  0.66089500  0.18693000  1
  O  O42  1  0.41544600  0.82299600  0.02892900  1
  O  O43  1  0.34327700  0.45024400  0.41592800  1
  O  O44  1  0.59285700  0.10136600  0.83193200  1
  O  O45  1  0.89235900  0.78019800  0.14934400  1
  O  O46  1  0.66499100  0.51767700  0.42316700  1
  O  O47  1  0.87109300  0.38453700  0.57061200  1
loop_
_geom_bond_atom_site_label_1
_geom_bond_atom_site_label_2
_geom_bond_distance
_geom_bond_site_symmetry_2
Li0 O47 1.979038 1_555
Li0 O40 2.002904 1_555
Li0 O6 2.099943 1_555
Li0 O12 2.207170 1_555
Li0 O2 2.326552 1_655
Li1 O15 1.966136 1_555
Li1 O14 1.977797 1_555
Li1 O7 2.004614 1_545
Li1 O3 2.054007 1_545
Li2 O2 1.892745 1_555
Li2 O11 1.989180 1_555
Li2 O17 2.070970 1_555
Li2 O19 2.095241 1_555
Li3 O20 1.892745 1_555
Li3 O12 1.989180 1_555
Li3 O6 2.070970 1_555
Li3 O4 2.095241 1_555
Li4 O8 1.966136 1_555
Li4 O9 1.977797 1_555
Li4 O16 2.004614 1_565
Li4 O21 2.054007 1_565
Li5 O24 1.979038 1_555
Li5 O31 2.002904 1_555
Li5 O17 2.099943 1_555
Li5 O11 2.207170 1_555
Li5 O20 2.326552 1_555
Li6 O23 1.979038 1_555
Li6 O16 2.002904 1_555
Li6 O30 2.099943 1_555
Li6 O36 2.207170 1_555
Li6 O27 2.326552 1_555
Li7 O39 1.966136 1_555
Li7 O38 1.977797 1_555
Li7 O31 2.004614 1_545
Li7 O26 2.054007 1_545
Li8 O27 1.892745 1_555
Li8 O35 1.989180 1_555
Li8 O41 2.070970 1_555
Li8 O43 2.095241 1_555
Li9 O45 1.892745 1_555
Li9 O36 1.989180 1_555
Li9 O30 2.070970 1_555
Li9 O28 2.095241 1_555
Li10 O32 1.966136 1_555
Li10 O33 1.977797 1_555
Li10 O40 2.004614 1_565
Li10 O44 2.054007 1_565
Li11 O0 1.979038 1_555
Li11 O7 2.002904 1_555
Li11 O41 2.099943 1_555
Li11 O35 2.207170 1_555
Li11 O45 2.326552 1_455
O0 P11 1.553519 1_555
O0 Ti3 2.063336 1_555
O1 P11 1.530648 1_555
O1 Ti0 1.973801 1_555
O2 P9 1.554300 1_555
O2 Ti1 2.173560 1_455
O3 P10 1.543362 1_555
O3 Ti2 2.092171 1_565
O4 P0 1.554658 1_555
O4 Ti0 2.002132 1_555
O5 P1 1.534172 1_555
O5 Ti2 1.947050 1_556
O6 P1 1.570661 1_555
O6 Ti1 2.129133 1_555
O7 P2 1.570676 1_455
O7 Ti3 2.114862 1_555
O8 P0 1.559641 1_555
O8 Ti3 2.037109 1_655
O9 P2 1.544070 1_555
O9 Ti2 2.081335 1_565
O10 P2 1.535486 1_545
O10 Ti1 1.951193 1_554
O11 P1 1.573302 1_555
O11 Ti0 2.186175 1_555
O12 P4 1.573302 1_655
O12 Ti1 2.186175 1_555
O13 P3 1.535486 1_565
O13 Ti0 1.951193 1_555
O14 P3 1.544070 1_555
O14 Ti3 2.081335 1_545
O15 P5 1.559641 1_554
O15 Ti2 2.037109 1_555
O16 P3 1.570676 1_555
O16 Ti2 2.114862 1_555
O17 P4 1.570661 1_555
O17 Ti0 2.129133 1_555
O18 P4 1.534172 1_555
O18 Ti3 1.947050 1_555
O19 P5 1.554658 1_555
O19 Ti1 2.002132 1_455
O20 P8 1.554300 1_555
O20 Ti0 2.173560 1_555
O21 P7 1.543362 1_555
O21 Ti3 2.092171 1_645
O22 P6 1.530648 1_556
O22 Ti1 1.973801 1_555
O23 P6 1.553519 1_555
O23 Ti2 2.063336 1_555
O24 P5 1.553519 1_555
O24 Ti5 2.063336 1_555
O25 P5 1.530648 1_554
O25 Ti6 1.973801 1_555
O26 P4 1.543362 1_555
O26 Ti4 2.092171 1_465
O27 P3 1.554300 1_555
O27 Ti7 2.173560 1_555
O28 P6 1.554658 1_555
O28 Ti6 2.002132 1_655
O29 P7 1.534172 1_555
O29 Ti4 1.947050 1_555
O30 P7 1.570661 1_555
O30 Ti7 2.129133 1_555
O31 P8 1.570676 1_555
O31 Ti5 2.114862 1_555
O32 P6 1.559641 1_556
O32 Ti5 2.037109 1_555
O33 P8 1.544070 1_555
O33 Ti4 2.081335 1_565
O34 P8 1.535486 1_545
O34 Ti7 1.951193 1_555
O35 P7 1.573302 1_455
O35 Ti6 2.186175 1_555
O36 P10 1.573302 1_555
O36 Ti7 2.186175 1_555
O37 P9 1.535486 1_565
O37 Ti6 1.951193 1_556
O38 P9 1.544070 1_555
O38 Ti5 2.081335 1_545
O39 P11 1.559641 1_555
O39 Ti4 2.037109 1_455
O40 P9 1.570676 1_655
O40 Ti4 2.114862 1_555
O41 P10 1.570661 1_555
O41 Ti6 2.129133 1_555
O42 P10 1.534172 1_555
O42 Ti5 1.947050 1_554
O43 P11 1.554658 1_555
O43 Ti7 2.002132 1_555
O44 P1 1.543362 1_555
O44 Ti5 2.092171 1_545
O45 P2 1.554300 1_555
O45 Ti6 2.173560 1_655
O46 P0 1.530648 1_555
O46 Ti7 1.973801 1_555
O47 P0 1.553519 1_555
O47 Ti4 2.063336 1_555
