# generated using pymatgen
data_Ca8Ti3Mn5O23
_symmetry_space_group_name_H-M   'P 1'
_cell_length_a   7.71507800
_cell_length_b   7.69844100
_cell_length_c   7.71576200
_cell_angle_alpha   90.00000000
_cell_angle_beta   90.00000000
_cell_angle_gamma   90.00000000
_symmetry_Int_Tables_number   1
_chemical_formula_structural   Ca8Ti3Mn5O23
_chemical_formula_sum   'Ca8 Ti3 Mn5 O23'
_cell_volume   458.27052988
_cell_formula_units_Z   1
loop_
 _symmetry_equiv_pos_site_id
 _symmetry_equiv_pos_as_xyz
  1  'x, y, z'
loop_
 _atom_site_type_symbol
 _atom_site_label
 _atom_site_symmetry_multiplicity
 _atom_site_fract_x
 _atom_site_fract_y
 _atom_site_fract_z
 _atom_site_occupancy
  Ca  Ca0  1  0.25963000  0.26719300  0.25179900  1
  Ca  Ca1  1  0.26822200  0.27740300  0.74609600  1
  Ca  Ca2  1  0.25963000  0.73280700  0.25179900  1
  Ca  Ca3  1  0.26822200  0.72259700  0.74609600  1
  Ca  Ca4  1  0.74037000  0.26719300  0.25179900  1
  Ca  Ca5  1  0.73177800  0.27740300  0.74609600  1
  Ca  Ca6  1  0.74037000  0.73280700  0.25179900  1
  Ca  Ca7  1  0.73177800  0.72259700  0.74609600  1
  Ti  Ti0  1  0.00000000  0.00000000  0.98691000  1
  Ti  Ti1  1  0.00000000  0.00000000  0.51255100  1
  Ti  Ti2  1  0.50000000  0.00000000  0.00664500  1
  Mn  Mn0  1  0.00000000  0.50000000  0.00391600  1
  Mn  Mn1  1  0.00000000  0.50000000  0.49469600  1
  Mn  Mn2  1  0.50000000  0.00000000  0.49581200  1
  Mn  Mn3  1  0.50000000  0.50000000  0.00084800  1
  Mn  Mn4  1  0.50000000  0.50000000  0.49726000  1
  O  O0  1  0.00000000  0.00000000  0.75019900  1
  O  O1  1  0.00000000  0.50000000  0.24971700  1
  O  O2  1  0.00000000  0.50000000  0.74897800  1
  O  O3  1  0.50000000  0.00000000  0.25272300  1
  O  O4  1  0.50000000  0.00000000  0.74950300  1
  O  O5  1  0.50000000  0.50000000  0.24862900  1
  O  O6  1  0.50000000  0.50000000  0.74976500  1
  O  O7  1  0.24216100  0.00000000  0.03498700  1
  O  O8  1  0.24531800  0.00000000  0.47476500  1
  O  O9  1  0.25058100  0.50000000  0.99531000  1
  O  O10  1  0.24981800  0.50000000  0.50446300  1
  O  O11  1  0.75783900  0.00000000  0.03498700  1
  O  O12  1  0.75468200  0.00000000  0.47476500  1
  O  O13  1  0.74941900  0.50000000  0.99531000  1
  O  O14  1  0.75018200  0.50000000  0.50446300  1
  O  O15  1  0.00000000  0.24552800  0.02240800  1
  O  O16  1  0.00000000  0.24476000  0.47421600  1
  O  O17  1  0.00000000  0.75447200  0.02240800  1
  O  O18  1  0.00000000  0.75524000  0.47421600  1
  O  O19  1  0.50000000  0.25166600  0.99519700  1
  O  O20  1  0.50000000  0.24960300  0.50378800  1
  O  O21  1  0.50000000  0.74833400  0.99519700  1
  O  O22  1  0.50000000  0.75039700  0.50378800  1
loop_
_geom_bond_atom_site_label_1
_geom_bond_atom_site_label_2
_geom_bond_distance
_geom_bond_site_symmetry_2
Ca0 O5 2.579115 1_555
Ca0 O16 2.643322 1_555
Ca0 O10 2.649231 1_555
Ca0 O7 2.654766 1_555
Ca0 O9 2.670863 1_554
Ca0 O15 2.678195 1_555
Ca0 O8 2.683827 1_555
Ca0 O1 2.687879 1_555
Ca0 O20 2.690290 1_555
Ca0 O19 2.715379 1_554
Ca0 O3 2.769521 1_555
Ca1 O6 2.476894 1_555
Ca1 O10 2.536273 1_555
Ca1 O9 2.579258 1_555
Ca1 O20 2.595916 1_555
Ca1 O19 2.632672 1_555
Ca1 O2 2.686878 1_555
Ca1 O4 2.785491 1_555
Ca1 O16 2.957360 1_555
Ca1 O0 2.973868 1_555
Ca1 O15 2.981222 1_556
Ca1 O8 2.995786 1_555
Ca1 O7 3.093476 1_556
Ca2 O5 2.579115 1_555
Ca2 O18 2.643322 1_555
Ca2 O10 2.649231 1_555
Ca2 O7 2.654766 1_565
Ca2 O9 2.670863 1_554
Ca2 O17 2.678195 1_555
Ca2 O8 2.683827 1_565
Ca2 O1 2.687879 1_555
Ca2 O22 2.690290 1_555
Ca2 O21 2.715379 1_554
Ca2 O3 2.769521 1_565
Ca3 O6 2.476894 1_555
Ca3 O10 2.536273 1_555
Ca3 O9 2.579258 1_555
Ca3 O22 2.595916 1_555
Ca3 O21 2.632672 1_555
Ca3 O2 2.686878 1_555
Ca3 O4 2.785491 1_565
Ca3 O18 2.957360 1_555
Ca3 O0 2.973868 1_565
Ca3 O17 2.981222 1_556
Ca3 O8 2.995786 1_565
Ca3 O7 3.093476 1_566
Ca4 O5 2.579115 1_555
Ca4 O16 2.643322 1_655
Ca4 O14 2.649231 1_555
Ca4 O11 2.654766 1_555
Ca4 O13 2.670863 1_554
Ca4 O15 2.678195 1_655
Ca4 O12 2.683827 1_555
Ca4 O1 2.687879 1_655
Ca4 O20 2.690290 1_555
Ca4 O19 2.715379 1_554
Ca4 O3 2.769521 1_555
Ca5 O6 2.476894 1_555
Ca5 O14 2.536273 1_555
Ca5 O13 2.579258 1_555
Ca5 O20 2.595916 1_555
Ca5 O19 2.632672 1_555
Ca5 O2 2.686878 1_655
Ca5 O4 2.785491 1_555
Ca5 O16 2.957360 1_655
Ca5 O0 2.973868 1_655
Ca5 O15 2.981222 1_656
Ca5 O12 2.995786 1_555
Ca5 O11 3.093476 1_556
Ca6 O5 2.579115 1_555
Ca6 O18 2.643322 1_655
Ca6 O14 2.649231 1_555
Ca6 O11 2.654766 1_565
Ca6 O13 2.670863 1_554
Ca6 O17 2.678195 1_655
Ca6 O12 2.683827 1_565
Ca6 O1 2.687879 1_655
Ca6 O22 2.690290 1_555
Ca6 O21 2.715379 1_554
Ca6 O3 2.769521 1_565
Ca7 O6 2.476894 1_555
Ca7 O14 2.536273 1_555
Ca7 O13 2.579258 1_555
Ca7 O22 2.595916 1_555
Ca7 O21 2.632672 1_555
Ca7 O2 2.686878 1_655
Ca7 O4 2.785491 1_565
Ca7 O18 2.957360 1_655
Ca7 O0 2.973868 1_665
Ca7 O17 2.981222 1_656
Ca7 O12 2.995786 1_565
Ca7 O11 3.093476 1_566
Mn0 O1 1.896542 1_555
Mn0 O9 1.934392 1_554
Mn0 O13 1.934392 1_454
Mn0 O17 1.964227 1_555
Mn0 O15 1.964227 1_555
Mn0 O2 1.967041 1_554
Mn1 O1 1.890200 1_555
Mn1 O10 1.928838 1_555
Mn1 O14 1.928838 1_455
Mn1 O2 1.961979 1_555
Mn1 O16 1.971294 1_555
Mn1 O18 1.971294 1_555
Mn2 O3 1.875617 1_555
Mn2 O20 1.922539 1_555
Mn2 O22 1.922539 1_545
Mn2 O4 1.957419 1_555
Mn2 O12 1.971591 1_555
Mn2 O8 1.971591 1_555
Mn3 O5 1.911819 1_555
Mn3 O21 1.912282 1_554
Mn3 O19 1.912282 1_554
Mn3 O13 1.924761 1_554
Mn3 O9 1.924761 1_554
Mn3 O6 1.937297 1_554
Mn4 O5 1.918378 1_555
Mn4 O22 1.928324 1_555
Mn4 O20 1.928324 1_555
Mn4 O14 1.930974 1_555
Mn4 O10 1.930974 1_555
Mn4 O6 1.948268 1_555
O0 Ti0 1.826406 1_555
O0 Ti1 1.833635 1_555
O3 Ti2 1.898679 1_555
O4 Ti2 1.984046 1_556
O7 Ti0 1.904761 1_554
O7 Ti2 2.001232 1_555
O8 Ti1 1.914971 1_555
O11 Ti0 1.904761 1_654
O11 Ti2 2.001232 1_555
O12 Ti1 1.914971 1_655
O15 Ti0 1.909924 1_554
O16 Ti1 1.907344 1_555
O17 Ti0 1.909924 1_564
O18 Ti1 1.907344 1_565
O19 Ti2 1.939448 1_556
O21 Ti2 1.939448 1_566
