# generated using pymatgen
data_Li2FePHO5
_symmetry_space_group_name_H-M   'P 1'
_cell_length_a   5.43196326
_cell_length_b   5.52898179
_cell_length_c   7.60347552
_cell_angle_alpha   108.45345149
_cell_angle_beta   110.28523022
_cell_angle_gamma   93.82520600
_symmetry_Int_Tables_number   1
_chemical_formula_structural   Li2FePHO5
_chemical_formula_sum   'Li4 Fe2 P2 H2 O10'
_cell_volume   199.14459268
_cell_formula_units_Z   2
loop_
 _symmetry_equiv_pos_site_id
 _symmetry_equiv_pos_as_xyz
  1  'x, y, z'
loop_
 _atom_site_type_symbol
 _atom_site_label
 _atom_site_symmetry_multiplicity
 _atom_site_fract_x
 _atom_site_fract_y
 _atom_site_fract_z
 _atom_site_occupancy
  Li  Li0  1  0.51380900  0.13737400  0.84281300  1
  Li  Li1  1  0.76995100  0.39332500  0.69993500  1
  Li  Li2  1  0.22950400  0.60601800  0.29939700  1
  Li  Li3  1  0.48701600  0.86304000  0.15793600  1
  Fe  Fe0  1  0.00034300  0.00033800  0.50028100  1
  Fe  Fe1  1  0.00005000  0.99974100  0.99981100  1
  P  P0  1  0.67148400  0.37589700  0.24308100  1
  P  P1  1  0.32834800  0.62427600  0.75693700  1
  H  H0  1  0.31495900  0.09470800  0.36592600  1
  H  H1  1  0.68521200  0.90505100  0.63387500  1
  O  O0  1  0.82619300  0.05760200  0.72744000  1
  O  O1  1  0.73651700  0.24195300  0.40323900  1
  O  O2  1  0.35285900  0.33675800  0.66206300  1
  O  O3  1  0.39464300  0.22706500  0.07456300  1
  O  O4  1  0.88423700  0.35854600  0.14913900  1
  O  O5  1  0.11505800  0.64102700  0.85035300  1
  O  O6  1  0.60479200  0.77379900  0.92582800  1
  O  O7  1  0.64772600  0.66349400  0.33830900  1
  O  O8  1  0.26345000  0.75778100  0.59660700  1
  O  O9  1  0.17385100  0.94220300  0.27247200  1
loop_
_geom_bond_atom_site_label_1
_geom_bond_atom_site_label_2
_geom_bond_distance
_geom_bond_site_symmetry_2
Li0 O3 2.012577 1_556
Li0 O2 2.030514 1_555
Li0 O0 2.174962 1_555
Li0 O8 2.263924 1_545
Li0 O6 2.324454 1_545
Li0 O4 2.363895 1_556
Li1 O0 1.964609 1_555
Li1 O5 1.969030 1_655
Li1 O1 2.079180 1_555
Li1 O2 2.170226 1_555
Li2 O9 1.965008 1_555
Li2 O4 1.969035 1_455
Li2 O8 2.082042 1_555
Li2 O7 2.174292 1_555
Li3 O6 2.010244 1_554
Li3 O7 2.028912 1_555
Li3 O9 2.174622 1_555
Li3 O1 2.258167 1_565
Li3 O3 2.329476 1_565
Li3 O5 2.373566 1_554
Fe0 O1 2.128150 1_455
Fe0 O8 2.128211 1_545
Fe0 O0 2.192034 1_455
Fe0 O9 2.193590 1_545
Fe0 O2 2.254476 1_555
Fe0 O7 2.256190 1_445
Fe1 O0 2.094451 1_465
Fe1 O9 2.095473 1_556
Fe1 O3 2.200131 1_566
Fe1 O5 2.201360 1_555
Fe1 O6 2.201488 1_455
Fe1 O4 2.203704 1_466
H0 O9 0.979907 1_545
H1 O0 0.979881 1_565
O1 P0 1.569625 1_555
O2 P1 1.560147 1_555
O3 P0 1.552954 1_555
O4 P0 1.548793 1_555
O5 P1 1.548767 1_555
O6 P1 1.553259 1_555
O7 P0 1.559708 1_555
O8 P1 1.568966 1_555
