# generated using pymatgen
data_SrLaTaNiO6
_symmetry_space_group_name_H-M   'P 1'
_cell_length_a   15.08929084
_cell_length_b   15.08929084
_cell_length_c   8.01329436
_cell_angle_alpha   74.63132644
_cell_angle_beta   74.63132644
_cell_angle_gamma   21.64303978
_symmetry_Int_Tables_number   1
_chemical_formula_structural   SrLaTaNiO6
_chemical_formula_sum   'Sr5 La5 Ta5 Ni5 O30'
_cell_volume   647.96527663
_cell_formula_units_Z   5
loop_
 _symmetry_equiv_pos_site_id
 _symmetry_equiv_pos_as_xyz
  1  'x, y, z'
loop_
 _atom_site_type_symbol
 _atom_site_label
 _atom_site_symmetry_multiplicity
 _atom_site_fract_x
 _atom_site_fract_y
 _atom_site_fract_z
 _atom_site_occupancy
  Sr  Sr0  1  0.50198700  0.50198700  0.25671200  1
  Sr  Sr1  1  0.89914200  0.89914200  0.84094900  1
  Sr  Sr2  1  0.30370400  0.30370400  0.44907600  1
  Sr  Sr3  1  0.89537900  0.89537900  0.36152100  1
  Sr  Sr4  1  0.50318800  0.50318800  0.74095600  1
  La  La0  1  0.69772800  0.69772800  0.04512800  1
  La  La1  1  0.29940000  0.29940000  0.94532900  1
  La  La2  1  0.10556900  0.10556900  0.65670200  1
  La  La3  1  0.69115600  0.69115600  0.57634300  1
  La  La4  1  0.09982200  0.09982200  0.14798600  1
  Ta  Ta0  1  0.99998900  0.99998900  0.00295200  1
  Ta  Ta1  1  0.99974700  0.99974700  0.49985500  1
  Ta  Ta2  1  0.39761300  0.39761300  0.10526400  1
  Ta  Ta3  1  0.79948000  0.79948000  0.70042500  1
  Ta  Ta4  1  0.20227400  0.20227400  0.30289100  1
  Ni  Ni0  1  0.40095400  0.40095400  0.59953200  1
  Ni  Ni1  1  0.79882800  0.79882800  0.19841600  1
  Ni  Ni2  1  0.20048200  0.20048200  0.80155000  1
  Ni  Ni3  1  0.60019500  0.60019500  0.40035900  1
  Ni  Ni4  1  0.59975400  0.59975400  0.90037500  1
  O  O0  1  0.70659300  0.19935200  0.58020600  1
  O  O1  1  0.98403000  0.98403000  0.26239300  1
  O  O2  1  0.01570600  0.01570600  0.73497700  1
  O  O3  1  0.19935200  0.70659300  0.58020600  1
  O  O4  1  0.19992800  0.70156100  0.00921400  1
  O  O5  1  0.10498800  0.59715900  0.18282100  1
  O  O6  1  0.38490300  0.38490300  0.87141200  1
  O  O7  1  0.41359000  0.41359000  0.32680300  1
  O  O8  1  0.70156100  0.19992800  0.00921400  1
  O  O9  1  0.59715900  0.10498800  0.18282100  1
  O  O10  1  0.59954800  0.09535700  0.62069600  1
  O  O11  1  0.50422300  0.99630300  0.80354400  1
  O  O12  1  0.78123100  0.78123100  0.47839800  1
  O  O13  1  0.81390600  0.81390600  0.93056700  1
  O  O14  1  0.09535700  0.59954800  0.62069600  1
  O  O15  1  0.99630300  0.50422300  0.80354400  1
  O  O16  1  0.90922900  0.39655600  0.39765400  1
  O  O17  1  0.00505400  0.49278400  0.19230600  1
  O  O18  1  0.18095700  0.18095700  0.07921900  1
  O  O19  1  0.21804700  0.21804700  0.52305900  1
  O  O20  1  0.49278400  0.00505400  0.19230600  1
  O  O21  1  0.39655600  0.90922900  0.39765400  1
  O  O22  1  0.39523800  0.90567500  0.79989400  1
  O  O23  1  0.28555000  0.81083200  0.99483900  1
  O  O24  1  0.58673800  0.58673800  0.66216800  1
  O  O25  1  0.61855500  0.61855500  0.13257000  1
  O  O26  1  0.90567500  0.39523800  0.79989400  1
  O  O27  1  0.81083200  0.28555000  0.99483900  1
  O  O28  1  0.81490300  0.28511100  0.40188300  1
  O  O29  1  0.28511100  0.81490300  0.40188300  1
loop_
_geom_bond_atom_site_label_1
_geom_bond_atom_site_label_2
_geom_bond_distance
_geom_bond_site_symmetry_2
La0 O25 2.260798 1_555
La0 O15 2.547393 1_554
La0 O11 2.547393 1_554
La0 O20 2.601035 1_565
La0 O17 2.601035 1_655
La1 O6 2.442182 1_555
La1 O11 2.525057 1_545
La1 O15 2.525057 1_455
La1 O17 2.543027 1_556
La1 O20 2.543027 1_556
La1 O10 2.972656 1_555
La1 O14 2.972656 1_555
La2 O26 2.415470 1_455
La2 O22 2.415470 1_545
La2 O2 2.566542 1_555
La2 O16 2.571275 1_455
La2 O21 2.571275 1_545
La3 O26 2.364178 1_555
La3 O22 2.364178 1_555
La3 O21 2.514487 1_555
La3 O16 2.514487 1_555
La3 O12 2.571769 1_555
La4 O18 2.317860 1_555
La4 O29 2.544217 1_545
La4 O28 2.544217 1_455
La4 O27 2.582747 1_454
La4 O23 2.582747 1_544
Ni0 O0 2.082713 1_555
Ni0 O3 2.082713 1_555
Ni0 O6 2.100837 1_555
Ni0 O10 2.106877 1_555
Ni0 O14 2.106877 1_555
Ni0 O7 2.115365 1_555
Ni1 O13 2.070966 1_554
Ni1 O17 2.082376 1_655
Ni1 O20 2.082376 1_565
Ni1 O5 2.092687 1_655
Ni1 O9 2.092687 1_565
Ni1 O12 2.161985 1_555
Ni2 O22 2.033039 1_545
Ni2 O26 2.033039 1_455
Ni2 O11 2.064208 1_545
Ni2 O15 2.064208 1_455
Ni2 O18 2.142623 1_556
Ni2 O19 2.150401 1_555
Ni3 O24 2.027044 1_555
Ni3 O25 2.066572 1_555
Ni3 O28 2.110979 1_555
Ni3 O29 2.110979 1_555
Ni3 O21 2.128782 1_555
Ni3 O16 2.128782 1_555
Ni4 O24 2.046923 1_555
Ni4 O25 2.081387 1_556
Ni4 O22 2.084508 1_555
Ni4 O26 2.084508 1_555
Ni4 O23 2.121147 1_555
Ni4 O27 2.121147 1_555
O0 Ta1 1.950374 1_545
O0 Sr4 2.640953 1_555
O0 Sr1 2.657315 1_545
O1 Ta0 2.003794 1_555
O1 Ta1 2.077571 1_555
O1 Sr3 2.531754 1_555
O1 Sr0 2.880679 1_565
O1 Sr0 2.880679 1_655
O2 Ta1 2.062670 1_445
O2 Ta0 2.070829 1_446
O2 Sr4 2.855937 1_545
O2 Sr4 2.855937 1_455
O3 Ta1 1.950374 1_455
O3 Sr4 2.640953 1_555
O3 Sr1 2.657315 1_455
O4 Ta0 2.021665 1_455
O4 Ta2 2.106713 1_555
O4 Sr4 2.693278 1_554
O4 Sr1 2.695209 1_454
O5 Ta2 1.941855 1_555
O5 Sr2 2.617475 1_555
O5 Sr3 2.619163 1_455
O5 Sr1 3.081963 1_454
O6 Ta2 2.008614 1_556
O6 Sr1 2.864982 1_545
O6 Sr1 2.864982 1_455
O7 Ta2 1.956920 1_555
O7 Sr0 2.527251 1_555
O8 Ta0 2.021665 1_545
O8 Ta2 2.106713 1_555
O8 Sr4 2.693278 1_554
O8 Sr1 2.695209 1_544
O9 Ta2 1.941855 1_555
O9 Sr2 2.617475 1_555
O9 Sr3 2.619163 1_545
O9 Sr1 3.081963 1_544
O10 Ta3 1.978126 1_545
O10 Sr2 2.564302 1_555
O10 Sr3 2.590805 1_545
O10 Sr1 2.982442 1_545
O11 Ta3 2.025841 1_555
O12 Ta3 1.994347 1_555
O12 Sr2 2.905250 1_565
O12 Sr2 2.905250 1_655
O13 Ta3 2.002370 1_555
O13 Sr1 2.433117 1_555
O14 Ta3 1.978126 1_455
O14 Sr2 2.564302 1_555
O14 Sr3 2.590805 1_455
O14 Sr1 2.982442 1_455
O15 Ta3 2.025841 1_555
O16 Ta4 2.006356 1_655
O17 Ta4 1.986202 1_555
O18 Ta4 2.054986 1_555
O19 Ta4 1.943294 1_555
O19 Sr2 2.446601 1_555
O20 Ta4 1.986202 1_555
O21 Ta4 2.006356 1_565
O23 Ta0 1.950457 1_456
O23 Sr0 2.634931 1_556
O23 Sr4 3.097989 1_555
O24 Sr4 2.385007 1_555
O27 Ta0 1.950457 1_546
O27 Sr0 2.634931 1_556
O27 Sr4 3.097989 1_555
O28 Ta1 1.994789 1_545
O28 Sr0 2.554537 1_555
O28 Sr4 3.086486 1_555
O29 Ta1 1.994789 1_455
O29 Sr0 2.554537 1_555
O29 Sr4 3.086486 1_555
