# generated using pymatgen
data_K2NaCl3
_symmetry_space_group_name_H-M   'P 1'
_cell_length_a   9.68222117
_cell_length_b   9.68222117
_cell_length_c   9.68222117
_cell_angle_alpha   153.69915768
_cell_angle_beta   153.69915768
_cell_angle_gamma   37.53702076
_symmetry_Int_Tables_number   1
_chemical_formula_structural   K2NaCl3
_chemical_formula_sum   'K2 Na1 Cl3'
_cell_volume   177.93029047
_cell_formula_units_Z   1
loop_
 _symmetry_equiv_pos_site_id
 _symmetry_equiv_pos_as_xyz
  1  'x, y, z'
loop_
 _atom_site_type_symbol
 _atom_site_label
 _atom_site_symmetry_multiplicity
 _atom_site_fract_x
 _atom_site_fract_y
 _atom_site_fract_z
 _atom_site_occupancy
  K  K0  1  0.33425600  0.33425600  0.00000000  1
  K  K1  1  0.66574400  0.66574400  0.00000000  1
  Na  Na0  1  0.00000000  0.00000000  0.00000000  1
  Cl  Cl0  1  0.84209000  0.84209000  0.00000000  1
  Cl  Cl1  1  0.15791000  0.15791000  0.00000000  1
  Cl  Cl2  1  0.50000000  0.50000000  0.00000000  1
loop_
_geom_bond_atom_site_label_1
_geom_bond_atom_site_label_2
_geom_bond_distance
_geom_bond_site_symmetry_2
Cl0 Na0 2.895242 1_665
Cl0 K0 3.118519 1_655
Cl0 K0 3.118519 1_666
Cl0 K0 3.118519 1_554
Cl0 K0 3.118519 1_565
Cl0 K1 3.233262 1_555
Cl1 Na0 2.895242 1_555
Cl1 K1 3.118519 1_455
Cl1 K1 3.118519 1_444
Cl1 K1 3.118519 1_545
Cl1 K1 3.118519 1_556
Cl1 K0 3.233262 1_555
Cl2 K0 3.038877 1_555
Cl2 K1 3.038877 1_555
Cl2 Na0 3.115210 1_565
Cl2 Na0 3.115210 1_554
Cl2 Na0 3.115210 1_655
Cl2 Na0 3.115210 1_666
