# generated using pymatgen
data_P2Pt5
_symmetry_space_group_name_H-M   'P 1'
_cell_length_a   5.41224996
_cell_length_b   6.07365199
_cell_length_c   7.46808621
_cell_angle_alpha   98.62167025
_cell_angle_beta   89.99999992
_cell_angle_gamma   116.45864221
_symmetry_Int_Tables_number   1
_chemical_formula_structural   P2Pt5
_chemical_formula_sum   'P4 Pt10'
_cell_volume   216.67501444
_cell_formula_units_Z   2
loop_
 _symmetry_equiv_pos_site_id
 _symmetry_equiv_pos_as_xyz
  1  'x, y, z'
loop_
 _atom_site_type_symbol
 _atom_site_label
 _atom_site_symmetry_multiplicity
 _atom_site_fract_x
 _atom_site_fract_y
 _atom_site_fract_z
 _atom_site_occupancy
  P  P0  1  0.43571492  0.68308529  0.22366090  1
  P  P1  1  0.75263063  0.31691471  0.27633910  1
  P  P2  1  0.56428508  0.31691471  0.77633910  1
  P  P3  1  0.24736937  0.68308529  0.72366090  1
  Pt  Pt0  1  0.84426748  0.23790130  0.96855542  1
  Pt  Pt1  1  0.60636718  0.76209870  0.53144458  1
  Pt  Pt2  1  0.91982748  0.28886828  0.59605989  1
  Pt  Pt3  1  0.63095920  0.71113172  0.90394011  1
  Pt  Pt4  1  0.08017252  0.71113172  0.40394011  1
  Pt  Pt5  1  0.36904080  0.28886828  0.09605989  1
  Pt  Pt6  1  0.39363282  0.23790130  0.46855542  1
  Pt  Pt7  1  0.15573252  0.76209870  0.03144458  1
  Pt  Pt8  1  0.11117073  -0.00000000  0.75000000  1
  Pt  Pt9  1  0.88882927  0.00000000  0.25000000  1
loop_
_geom_bond_atom_site_label_1
_geom_bond_atom_site_label_2
_geom_bond_distance
_geom_bond_site_symmetry_2
P0 Pt5 2.305894 1_555
P0 Pt9 2.331930 1_565
P0 Pt7 2.332752 1_555
P0 Pt1 2.375084 1_555
P0 Pt4 2.401636 1_555
P0 Pt3 2.609276 1_554
P1 Pt4 2.305892 1_655
P1 Pt9 2.331927 1_555
P1 Pt6 2.332759 1_555
P1 Pt0 2.375081 1_554
P1 Pt5 2.401640 1_555
P1 Pt2 2.609274 1_555
P2 Pt3 2.305894 1_555
P2 Pt8 2.331930 1_555
P2 Pt0 2.332752 1_555
P2 Pt6 2.375084 1_555
P2 Pt2 2.401636 1_555
P2 Pt5 2.609276 1_556
P3 Pt2 2.305892 1_455
P3 Pt8 2.331927 1_565
P3 Pt1 2.332759 1_555
P3 Pt7 2.375081 1_556
P3 Pt3 2.401640 1_555
P3 Pt4 2.609274 1_555
Pt0 Pt3 2.836833 1_545
Pt0 Pt2 2.854297 1_555
Pt0 Pt5 2.863121 1_656
Pt0 Pt5 2.870378 1_556
Pt1 Pt2 2.836832 1_565
Pt1 Pt3 2.854297 1_555
Pt1 Pt4 2.863116 1_655
Pt1 Pt4 2.870383 1_555
Pt2 Pt8 2.774198 1_655
Pt2 Pt9 2.857228 1_555
Pt2 Pt6 2.863116 1_655
Pt2 Pt6 2.870383 1_555
Pt2 Pt4 2.917052 1_655
Pt3 Pt8 2.774197 1_665
Pt3 Pt9 2.857228 1_566
Pt3 Pt7 2.863121 1_656
Pt3 Pt7 2.870378 1_556
Pt3 Pt5 2.917051 1_556
Pt4 Pt9 2.774198 1_465
Pt4 Pt6 2.836832 1_565
Pt4 Pt7 2.854297 1_555
Pt4 Pt8 2.857228 1_565
Pt5 Pt9 2.774197 1_455
Pt5 Pt7 2.836833 1_545
Pt5 Pt6 2.854297 1_555
Pt5 Pt8 2.857228 1_554
