# generated using pymatgen
data_Mg2SbWO6
_symmetry_space_group_name_H-M   'P 1'
_cell_length_a   7.95061100
_cell_length_b   5.51430800
_cell_length_c   5.52605994
_cell_angle_alpha   86.21902124
_cell_angle_beta   90.00000000
_cell_angle_gamma   90.00000000
_symmetry_Int_Tables_number   1
_chemical_formula_structural   Mg2SbWO6
_chemical_formula_sum   'Mg4 Sb2 W2 O12'
_cell_volume   241.74684073
_cell_formula_units_Z   2
loop_
 _symmetry_equiv_pos_site_id
 _symmetry_equiv_pos_as_xyz
  1  'x, y, z'
loop_
 _atom_site_type_symbol
 _atom_site_label
 _atom_site_symmetry_multiplicity
 _atom_site_fract_x
 _atom_site_fract_y
 _atom_site_fract_z
 _atom_site_occupancy
  Mg  Mg0  1  0.25000000  0.54586800  0.50281700  1
  Mg  Mg1  1  0.75000000  0.45413200  0.49718300  1
  Mg  Mg2  1  0.25000000  0.02865200  0.98085800  1
  Mg  Mg3  1  0.75000000  0.97134800  0.01914200  1
  Sb  Sb0  1  0.50000000  0.50000000  0.00000000  1
  Sb  Sb1  1  0.00000000  0.50000000  0.00000000  1
  W  W0  1  0.50000000  0.00000000  0.50000000  1
  W  W1  1  0.00000000  0.00000000  0.50000000  1
  O  O0  1  0.57200900  0.68468600  0.63110600  1
  O  O1  1  0.92482500  0.15551000  0.80881400  1
  O  O2  1  0.07200900  0.31531400  0.36889400  1
  O  O3  1  0.42482500  0.84449000  0.19118600  1
  O  O4  1  0.57517500  0.15551000  0.80881400  1
  O  O5  1  0.07517500  0.84449000  0.19118600  1
  O  O6  1  0.75000000  0.60699300  0.14335000  1
  O  O7  1  0.92799100  0.68468600  0.63110600  1
  O  O8  1  0.25000000  0.91098600  0.63211100  1
  O  O9  1  0.42799100  0.31531400  0.36889400  1
  O  O10  1  0.25000000  0.39300700  0.85665000  1
  O  O11  1  0.75000000  0.08901400  0.36788900  1
loop_
_geom_bond_atom_site_label_1
_geom_bond_atom_site_label_2
_geom_bond_distance
_geom_bond_site_symmetry_2
Mg0 O2 2.071405 1_555
Mg0 O9 2.071405 1_555
Mg0 O10 2.077584 1_555
Mg0 O8 2.180340 1_555
Mg1 O0 2.071405 1_555
Mg1 O7 2.071405 1_555
Mg1 O6 2.077584 1_555
Mg1 O11 2.180340 1_555
Mg2 O3 2.039249 1_546
Mg2 O5 2.039249 1_546
Mg2 O8 2.073646 1_545
Mg2 O10 2.079901 1_555
Mg3 O1 2.039249 1_564
Mg3 O4 2.039249 1_564
Mg3 O11 2.073646 1_565
Mg3 O6 2.079901 1_555
O0 W0 1.926070 1_565
O0 Sb0 2.290578 1_556
O1 W1 2.048857 1_655
O1 Sb1 2.312292 1_656
O2 W1 1.926070 1_555
O2 Sb1 2.290578 1_555
O3 W0 2.048857 1_565
O3 Sb0 2.312292 1_555
O4 W0 2.048857 1_555
O4 Sb0 2.312292 1_556
O5 W1 2.048857 1_565
O5 Sb1 2.312292 1_555
O6 Sb0 2.233386 1_555
O6 Sb1 2.233386 1_655
O7 W1 1.926070 1_665
O7 Sb1 2.290578 1_656
O8 W1 2.162733 1_565
O8 W0 2.162733 1_565
O9 W0 1.926070 1_555
O9 Sb0 2.290578 1_555
O10 Sb0 2.233386 1_556
O10 Sb1 2.233386 1_556
O11 W1 2.162733 1_655
O11 W0 2.162733 1_555
