# generated using pymatgen
data_Ba2CaV2FeF14
_symmetry_space_group_name_H-M   'P 1'
_cell_length_a   7.47917028
_cell_length_b   7.47917028
_cell_length_c   15.24320039
_cell_angle_alpha   88.70219470
_cell_angle_beta   88.70219470
_cell_angle_gamma   42.78504844
_symmetry_Int_Tables_number   1
_chemical_formula_structural   Ba2CaV2FeF14
_chemical_formula_sum   'Ba4 Ca2 V4 Fe2 F28'
_cell_volume   579.00725215
_cell_formula_units_Z   2
loop_
 _symmetry_equiv_pos_site_id
 _symmetry_equiv_pos_as_xyz
  1  'x, y, z'
loop_
 _atom_site_type_symbol
 _atom_site_label
 _atom_site_symmetry_multiplicity
 _atom_site_fract_x
 _atom_site_fract_y
 _atom_site_fract_z
 _atom_site_occupancy
  Ba  Ba0  1  0.64479100  0.73598900  0.87815200  1
  Ba  Ba1  1  0.35520900  0.26401100  0.12184800  1
  Ba  Ba2  1  0.26401100  0.35520900  0.62184800  1
  Ba  Ba3  1  0.73598900  0.64479100  0.37815200  1
  Ca  Ca0  1  0.94625600  0.05374400  0.75000000  1
  Ca  Ca1  1  0.05374400  0.94625600  0.25000000  1
  V  V0  1  0.61964100  0.62043700  0.62372000  1
  V  V1  1  0.38035900  0.37956300  0.37628000  1
  V  V2  1  0.37956300  0.38035900  0.87628000  1
  V  V3  1  0.62043700  0.61964100  0.12372000  1
  Fe  Fe0  1  0.00000000  0.00000000  0.50000000  1
  Fe  Fe1  1  0.00000000  0.00000000  0.00000000  1
  F  F0  1  0.34134200  0.90831900  0.70419300  1
  F  F1  1  0.65865800  0.09168100  0.29580700  1
  F  F2  1  0.09168100  0.65865800  0.79580700  1
  F  F3  1  0.90831900  0.34134200  0.20419300  1
  F  F4  1  0.55221300  0.12456700  0.77662200  1
  F  F5  1  0.44778700  0.87543300  0.22337800  1
  F  F6  1  0.87543300  0.44778700  0.72337800  1
  F  F7  1  0.12456700  0.55221300  0.27662200  1
  F  F8  1  0.39990500  0.77040000  0.51595700  1
  F  F9  1  0.60009500  0.22960000  0.48404300  1
  F  F10  1  0.22960000  0.60009500  0.98404300  1
  F  F11  1  0.77040000  0.39990500  0.01595700  1
  F  F12  1  0.58249800  0.39678000  0.65753700  1
  F  F13  1  0.41750200  0.60322000  0.34246300  1
  F  F14  1  0.60322000  0.41750200  0.84246300  1
  F  F15  1  0.39678000  0.58249800  0.15753700  1
  F  F16  1  0.66869900  0.07433900  0.95326300  1
  F  F17  1  0.33130100  0.92566100  0.04673700  1
  F  F18  1  0.92566100  0.33130100  0.54673700  1
  F  F19  1  0.07433900  0.66869900  0.45326300  1
  F  F20  1  0.85671900  0.03363200  0.12008500  1
  F  F21  1  0.14328100  0.96636800  0.87991500  1
  F  F22  1  0.96636800  0.14328100  0.37991500  1
  F  F23  1  0.03363200  0.85671900  0.62008500  1
  F  F24  1  0.69355900  0.81189600  0.59011400  1
  F  F25  1  0.30644100  0.18810400  0.40988600  1
  F  F26  1  0.18810400  0.30644100  0.90988600  1
  F  F27  1  0.81189600  0.69355900  0.09011400  1
loop_
_geom_bond_atom_site_label_1
_geom_bond_atom_site_label_2
_geom_bond_distance
_geom_bond_site_symmetry_2
Ba0 F14 2.687019 1_555
Ba0 F21 2.747698 1_555
Ba0 F6 2.788588 1_555
Ba0 F26 2.814989 1_655
Ba0 F11 2.827976 1_556
Ba0 F4 2.865654 1_565
Ba0 F16 2.924272 1_565
Ba0 F26 2.955009 1_565
Ba0 F17 3.020533 1_556
Ba0 F0 3.109293 1_555
Ba0 F2 3.175976 1_655
Ba1 F15 2.687019 1_555
Ba1 F20 2.747698 1_555
Ba1 F7 2.788588 1_555
Ba1 F27 2.814989 1_455
Ba1 F10 2.827976 1_554
Ba1 F5 2.865654 1_545
Ba1 F17 2.924272 1_545
Ba1 F27 2.955009 1_545
Ba1 F16 3.020533 1_554
Ba1 F1 3.109293 1_555
Ba1 F3 3.175976 1_455
Ba2 F12 2.687019 1_555
Ba2 F23 2.747698 1_555
Ba2 F4 2.788588 1_555
Ba2 F24 2.814989 1_545
Ba2 F9 2.827976 1_555
Ba2 F6 2.865654 1_455
Ba2 F18 2.924272 1_455
Ba2 F24 2.955009 1_455
Ba2 F19 3.020533 1_555
Ba2 F2 3.109293 1_555
Ba2 F0 3.175976 1_545
Ba3 F13 2.687019 1_555
Ba3 F22 2.747698 1_555
Ba3 F5 2.788588 1_555
Ba3 F25 2.814989 1_565
Ba3 F8 2.827976 1_555
Ba3 F7 2.865654 1_655
Ba3 F19 2.924272 1_655
Ba3 F25 2.955009 1_655
Ba3 F18 3.020533 1_555
Ba3 F3 3.109293 1_555
Ba3 F1 3.175976 1_565
Ca0 F23 2.276018 1_645
Ca0 F21 2.276018 1_645
Ca0 F2 2.371824 1_645
Ca0 F0 2.371824 1_645
Ca0 F14 2.394807 1_555
Ca0 F12 2.394807 1_555
Ca0 F6 2.606709 1_555
Ca0 F4 2.606709 1_555
Ca1 F20 2.276018 1_465
Ca1 F22 2.276018 1_465
Ca1 F3 2.371824 1_465
Ca1 F1 2.371824 1_465
Ca1 F15 2.394807 1_555
Ca1 F13 2.394807 1_555
Ca1 F5 2.606709 1_555
Ca1 F7 2.606709 1_555
F0 V0 1.974556 1_555
F1 V1 1.974556 1_555
F2 V2 1.974556 1_555
F3 V3 1.974556 1_555
F4 V2 2.012919 1_555
F5 V3 2.012919 1_555
F6 V0 2.012919 1_555
F7 V1 2.012919 1_555
F8 V0 1.997606 1_555
F8 Fe0 2.104515 1_565
F9 V1 1.997606 1_555
F9 Fe0 2.104515 1_655
F10 V2 1.997606 1_555
F10 Fe1 2.104515 1_566
F11 V3 1.997606 1_555
F11 Fe1 2.104515 1_655
F12 V0 1.943601 1_555
F13 V1 1.943601 1_555
F14 V2 1.943601 1_555
F15 V3 1.943601 1_555
F16 V2 2.005068 1_555
F16 Fe1 2.235240 1_656
F17 V3 2.005068 1_555
F17 Fe1 2.235240 1_565
F18 V0 2.005068 1_555
F18 Fe0 2.235240 1_655
F19 V1 2.005068 1_555
F19 Fe0 2.235240 1_565
F20 Fe1 2.024512 1_655
F21 Fe1 2.024512 1_566
F22 Fe0 2.024512 1_655
F23 Fe0 2.024512 1_565
F24 V0 1.932481 1_555
F25 V1 1.932481 1_555
F26 V2 1.932481 1_555
F27 V3 1.932481 1_555
