# generated using pymatgen
data_TaCoP
_symmetry_space_group_name_H-M   'P 1'
_cell_length_a   3.56666606
_cell_length_b   6.07942235
_cell_length_c   6.94569659
_cell_angle_alpha   89.99958251
_cell_angle_beta   90.00000000
_cell_angle_gamma   90.00000000
_symmetry_Int_Tables_number   1
_chemical_formula_structural   TaCoP
_chemical_formula_sum   'Ta4 Co4 P4'
_cell_volume   150.60541005
_cell_formula_units_Z   4
loop_
 _symmetry_equiv_pos_site_id
 _symmetry_equiv_pos_as_xyz
  1  'x, y, z'
loop_
 _atom_site_type_symbol
 _atom_site_label
 _atom_site_symmetry_multiplicity
 _atom_site_fract_x
 _atom_site_fract_y
 _atom_site_fract_z
 _atom_site_occupancy
  Ta  Ta0  1  0.25000000  0.02262491  0.82881723  1
  Ta  Ta1  1  0.25000000  0.52260693  0.67119113  1
  Ta  Ta2  1  0.75000000  0.97737509  0.17118277  1
  Ta  Ta3  1  0.75000000  0.47739307  0.32880887  1
  Co  Co0  1  0.25000000  0.14363106  0.43439357  1
  Co  Co1  1  0.25000000  0.64361159  0.06559988  1
  Co  Co2  1  0.75000000  0.85636894  0.56560643  1
  Co  Co3  1  0.75000000  0.35638841  0.93440012  1
  P  P0  1  0.25000000  0.27961754  0.12077065  1
  P  P1  1  0.25000000  0.77957458  0.37921358  1
  P  P2  1  0.75000000  0.72038246  0.87922935  1
  P  P3  1  0.75000000  0.22042542  0.62078642  1
loop_
_geom_bond_atom_site_label_1
_geom_bond_atom_site_label_2
_geom_bond_distance
_geom_bond_site_symmetry_2
Co0 P1 2.246195 1_545
Co0 P3 2.252623 1_555
Co0 P3 2.252623 1_455
Co0 P0 2.329927 1_555
Co1 P0 2.245805 1_555
Co1 P2 2.252501 1_454
Co1 P2 2.252501 1_554
Co1 P1 2.329827 1_555
Co2 P3 2.246195 1_565
Co2 P1 2.252623 1_655
Co2 P1 2.252623 1_555
Co2 P2 2.329927 1_555
Co3 P2 2.245805 1_555
Co3 P0 2.252501 1_556
Co3 P0 2.252501 1_656
Co3 P3 2.329827 1_555
P0 Ta0 2.559900 1_554
P0 Ta2 2.584401 1_545
P0 Ta2 2.584401 1_445
P0 Ta3 2.591122 1_455
P0 Ta3 2.591122 1_555
P1 Ta1 2.559922 1_555
P1 Ta3 2.584134 1_555
P1 Ta3 2.584134 1_455
P1 Ta2 2.591154 1_555
P1 Ta2 2.591154 1_455
P2 Ta2 2.559900 1_556
P2 Ta0 2.584401 1_665
P2 Ta0 2.584401 1_565
P2 Ta1 2.591122 1_555
P2 Ta1 2.591122 1_655
P3 Ta3 2.559922 1_555
P3 Ta1 2.584134 1_555
P3 Ta1 2.584134 1_655
P3 Ta0 2.591154 1_555
P3 Ta0 2.591154 1_655
