# generated using pymatgen
data_KMgNi2H3(SeO5)2
_symmetry_space_group_name_H-M   'P 1'
_cell_length_a   6.03329857
_cell_length_b   6.03413795
_cell_length_c   8.39016717
_cell_angle_alpha   63.79564307
_cell_angle_beta   63.80713528
_cell_angle_gamma   66.72001759
_symmetry_Int_Tables_number   1
_chemical_formula_structural   KMgNi2H3(SeO5)2
_chemical_formula_sum   'K1 Mg1 Ni2 H3 Se2 O10'
_cell_volume   238.18199360
_cell_formula_units_Z   1
loop_
 _symmetry_equiv_pos_site_id
 _symmetry_equiv_pos_as_xyz
  1  'x, y, z'
loop_
 _atom_site_type_symbol
 _atom_site_label
 _atom_site_symmetry_multiplicity
 _atom_site_fract_x
 _atom_site_fract_y
 _atom_site_fract_z
 _atom_site_occupancy
  K  K0  1  0.50462200  0.50477700  0.56398400  1
  Mg  Mg0  1  0.45246800  0.45247800  0.24215300  1
  Ni  Ni0  1  0.98529300  0.49926800  0.02123100  1
  Ni  Ni1  1  0.49916600  0.98534900  0.02129100  1
  H  H0  1  0.75577500  0.75566600  0.70370800  1
  H  H1  1  0.20854900  0.20860900  0.24430300  1
  H  H2  1  0.58870200  0.58844900  0.87545700  1
  Se  Se0  1  0.89328400  0.89334700  0.27097200  1
  Se  Se1  1  0.09844700  0.09845700  0.74958100  1
  O  O0  1  0.77722300  0.77723600  0.50727000  1
  O  O1  1  0.23019900  0.23025500  0.51901900  1
  O  O2  1  0.22141800  0.80817800  0.23999500  1
  O  O3  1  0.80821100  0.22144400  0.23997500  1
  O  O4  1  0.77832300  0.19010300  0.81029500  1
  O  O5  1  0.19009400  0.77836300  0.81029900  1
  O  O6  1  0.69613500  0.69595800  0.84763500  1
  O  O7  1  0.31006300  0.31007000  0.12507000  1
  O  O8  1  0.68495000  0.68494900  0.17070200  1
  O  O9  1  0.20055300  0.20052400  0.85972600  1
loop_
_geom_bond_atom_site_label_1
_geom_bond_atom_site_label_2
_geom_bond_distance
_geom_bond_site_symmetry_2
K0 O0 2.527823 1_555
K0 O9 2.741100 1_555
K0 O4 2.769784 1_555
K0 O5 2.769843 1_555
K0 O8 2.802010 1_555
K0 O1 2.983091 1_555
Mg0 O3 2.042837 1_555
Mg0 O2 2.042861 1_555
Mg0 O8 2.089208 1_555
Mg0 O7 2.125030 1_555
Mg0 O1 2.216525 1_555
Ni0 O8 1.934326 1_555
Ni0 O3 2.070685 1_555
Ni0 O5 2.139447 1_654
Ni0 O7 2.182239 1_655
Ni0 O9 2.350656 1_654
Ni0 O6 2.377683 1_554
Ni1 O8 1.934219 1_555
Ni1 O2 2.070556 1_555
Ni1 O4 2.139667 1_564
Ni1 O7 2.182163 1_565
Ni1 O9 2.349837 1_564
Ni1 O6 2.379604 1_554
H0 O6 1.025752 1_555
H0 O0 1.544559 1_555
H1 O7 0.982507 1_555
H2 O6 0.980067 1_555
O0 Se0 1.687406 1_555
O1 Se1 1.670336 1_555
O2 Se0 1.763663 1_455
O3 Se0 1.763666 1_545
O4 Se1 1.682739 1_655
O5 Se1 1.682678 1_565
O9 Se1 1.708207 1_555
