# generated using pymatgen
data_UV2
_symmetry_space_group_name_H-M   'P 1'
_cell_length_a   9.44627241
_cell_length_b   9.44627241
_cell_length_c   5.18143400
_cell_angle_alpha   90.00000000
_cell_angle_beta   90.00000000
_cell_angle_gamma   120.00000289
_symmetry_Int_Tables_number   1
_chemical_formula_structural   UV2
_chemical_formula_sum   'U8 V16'
_cell_volume   400.40687060
_cell_formula_units_Z   8
loop_
 _symmetry_equiv_pos_site_id
 _symmetry_equiv_pos_as_xyz
  1  'x, y, z'
loop_
 _atom_site_type_symbol
 _atom_site_label
 _atom_site_symmetry_multiplicity
 _atom_site_fract_x
 _atom_site_fract_y
 _atom_site_fract_z
 _atom_site_occupancy
  U  U0_0  1  0.00000000  0.00000000  0.00000000  1
  U  U0_1  1  0.00000000  0.00000000  0.50000000  1
  U  U0_2  1  0.00000000  0.50000000  0.00000000  1
  U  U0_3  1  0.00000000  0.50000000  0.50000000  1
  U  U0_4  1  0.50000000  0.00000000  0.00000000  1
  U  U0_5  1  0.50000000  0.00000000  0.50000000  1
  U  U0_6  1  0.50000000  0.50000000  0.00000000  1
  U  U0_7  1  0.50000000  0.50000000  0.50000000  1
  V  V0_0  1  0.16666650  0.33333350  0.25000000  1
  V  V0_1  1  0.16666650  0.33333350  0.75000000  1
  V  V0_2  1  0.16666650  0.83333350  0.25000000  1
  V  V0_3  1  0.16666650  0.83333350  0.75000000  1
  V  V0_4  1  0.66666650  0.33333350  0.25000000  1
  V  V0_5  1  0.66666650  0.33333350  0.75000000  1
  V  V0_6  1  0.66666650  0.83333350  0.25000000  1
  V  V0_7  1  0.66666650  0.83333350  0.75000000  1
  V  V1_0  1  0.33333350  0.16666650  0.25000000  1
  V  V1_1  1  0.33333350  0.16666650  0.75000000  1
  V  V1_2  1  0.33333350  0.66666650  0.25000000  1
  V  V1_3  1  0.33333350  0.66666650  0.75000000  1
  V  V1_4  1  0.83333350  0.16666650  0.25000000  1
  V  V1_5  1  0.83333350  0.16666650  0.75000000  1
  V  V1_6  1  0.83333350  0.66666650  0.25000000  1
  V  V1_7  1  0.83333350  0.66666650  0.75000000  1
loop_
_geom_bond_atom_site_label_1
_geom_bond_atom_site_label_2
_geom_bond_distance
_geom_bond_site_symmetry_2
U0_0 U0_1 2.590717 1_555
U0_0 U0_1 2.590717 1_554
U0_0 V0_3 3.018931 1_544
U0_0 V1_5 3.018931 1_454
U0_0 V1_4 3.018931 1_455
U0_0 V0_2 3.018931 1_545
U0_0 V0_1 3.018935 1_554
U0_0 V1_1 3.018935 1_554
U0_0 V0_0 3.018935 1_555
U0_0 V1_0 3.018935 1_555
U0_0 V0_6 3.018935 1_445
U0_0 V0_7 3.018935 1_444
U0_0 V1_7 3.018935 1_444
U0_0 V1_6 3.018935 1_445
U0_1 V0_3 3.018931 1_545
U0_1 V1_4 3.018931 1_455
U0_1 V1_5 3.018931 1_455
U0_1 V0_2 3.018931 1_545
U0_1 V0_0 3.018935 1_555
U0_1 V1_0 3.018935 1_555
U0_1 V0_1 3.018935 1_555
U0_1 V1_6 3.018935 1_445
U0_1 V1_1 3.018935 1_555
U0_1 V0_7 3.018935 1_445
U0_1 V0_6 3.018935 1_445
U0_1 V1_7 3.018935 1_445
U0_2 U0_3 2.590717 1_554
U0_2 U0_3 2.590717 1_555
U0_2 V1_7 3.018931 1_454
U0_2 V1_6 3.018931 1_455
U0_2 V0_0 3.018931 1_555
U0_2 V0_1 3.018931 1_554
U0_2 V0_5 3.018935 1_454
U0_2 V0_4 3.018935 1_455
U0_2 V1_5 3.018935 1_454
U0_2 V1_3 3.018935 1_554
U0_2 V1_2 3.018935 1_555
U0_2 V1_4 3.018935 1_455
U0_2 V0_2 3.018935 1_555
U0_2 V0_3 3.018935 1_554
U0_3 V1_6 3.018931 1_455
U0_3 V1_7 3.018931 1_455
U0_3 V0_0 3.018931 1_555
U0_3 V0_1 3.018931 1_555
U0_3 V0_5 3.018935 1_455
U0_3 V0_4 3.018935 1_455
U0_3 V1_3 3.018935 1_555
U0_3 V1_2 3.018935 1_555
U0_3 V1_4 3.018935 1_455
U0_3 V0_2 3.018935 1_555
U0_3 V1_5 3.018935 1_455
U0_3 V0_3 3.018935 1_555
U0_4 U0_5 2.590717 1_554
U0_4 U0_5 2.590717 1_555
U0_4 V0_7 3.018931 1_544
U0_4 V0_6 3.018931 1_545
U0_4 V1_1 3.018931 1_554
U0_4 V1_0 3.018931 1_555
U0_4 V1_3 3.018935 1_544
U0_4 V0_3 3.018935 1_544
U0_4 V1_2 3.018935 1_545
U0_4 V1_5 3.018935 1_554
U0_4 V0_2 3.018935 1_545
U0_4 V0_5 3.018935 1_554
U0_4 V1_4 3.018935 1_555
U0_4 V0_4 3.018935 1_555
U0_5 V0_6 3.018931 1_545
U0_5 V0_7 3.018931 1_545
U0_5 V1_0 3.018931 1_555
U0_5 V1_1 3.018931 1_555
U0_5 V1_2 3.018935 1_545
U0_5 V1_3 3.018935 1_545
U0_5 V0_3 3.018935 1_545
U0_5 V0_2 3.018935 1_545
U0_5 V0_5 3.018935 1_555
U0_5 V1_5 3.018935 1_555
U0_5 V1_4 3.018935 1_555
U0_5 V0_4 3.018935 1_555
U0_6 U0_7 2.590717 1_554
U0_6 U0_7 2.590717 1_555
U0_6 V0_4 3.018931 1_555
U0_6 V1_3 3.018931 1_554
U0_6 V0_5 3.018931 1_554
U0_6 V1_2 3.018931 1_555
U0_6 V0_1 3.018935 1_554
U0_6 V1_1 3.018935 1_554
U0_6 V0_0 3.018935 1_555
U0_6 V1_0 3.018935 1_555
U0_6 V0_6 3.018935 1_555
U0_6 V1_6 3.018935 1_555
U0_6 V1_7 3.018935 1_554
U0_6 V0_7 3.018935 1_554
U0_7 V0_4 3.018931 1_555
U0_7 V1_3 3.018931 1_555
U0_7 V0_5 3.018931 1_555
U0_7 V1_2 3.018931 1_555
U0_7 V0_0 3.018935 1_555
U0_7 V1_0 3.018935 1_555
U0_7 V0_7 3.018935 1_555
U0_7 V0_6 3.018935 1_555
U0_7 V1_6 3.018935 1_555
U0_7 V0_1 3.018935 1_555
U0_7 V1_7 3.018935 1_555
U0_7 V1_1 3.018935 1_555
V0_0 V0_1 2.590717 1_554
V0_0 V0_1 2.590717 1_555
V0_0 V1_4 2.726901 1_455
V0_0 V1_2 2.726901 1_555
V0_0 V1_0 2.726909 1_555
V0_1 V1_5 2.726901 1_455
V0_1 V1_3 2.726901 1_555
V0_1 V1_1 2.726909 1_555
V0_2 V0_3 2.590717 1_554
V0_2 V0_3 2.590717 1_555
V0_2 V1_0 2.726901 1_565
V0_2 V1_6 2.726901 1_455
V0_2 V1_2 2.726909 1_555
V0_3 V1_1 2.726901 1_565
V0_3 V1_7 2.726901 1_455
V0_3 V1_3 2.726909 1_555
V0_4 V0_5 2.590717 1_554
V0_4 V0_5 2.590717 1_555
V0_4 V1_6 2.726901 1_555
V0_4 V1_0 2.726901 1_555
V0_4 V1_4 2.726909 1_555
V0_5 V1_7 2.726901 1_555
V0_5 V1_1 2.726901 1_555
V0_5 V1_5 2.726909 1_555
V0_6 V0_7 2.590717 1_554
V0_6 V0_7 2.590717 1_555
V0_6 V1_2 2.726901 1_555
V0_6 V1_4 2.726901 1_565
V0_6 V1_6 2.726909 1_555
V0_7 V1_5 2.726901 1_565
V0_7 V1_3 2.726901 1_555
V0_7 V1_7 2.726909 1_555
V1_0 V1_1 2.590717 1_554
V1_0 V1_1 2.590717 1_555
V1_2 V1_3 2.590717 1_554
V1_2 V1_3 2.590717 1_555
V1_4 V1_5 2.590717 1_554
V1_4 V1_5 2.590717 1_555
V1_6 V1_7 2.590717 1_554
V1_6 V1_7 2.590717 1_555
