# generated using pymatgen
data_MgCd2
_symmetry_space_group_name_H-M   'P 1'
_cell_length_a   11.53770348
_cell_length_b   11.53770348
_cell_length_c   14.37648684
_cell_angle_alpha   78.31788694
_cell_angle_beta   78.31788694
_cell_angle_gamma   33.31872424
_symmetry_Int_Tables_number   1
_chemical_formula_structural   MgCd2
_chemical_formula_sum   'Mg16 Cd32'
_cell_volume   1027.48288484
_cell_formula_units_Z   16
loop_
 _symmetry_equiv_pos_site_id
 _symmetry_equiv_pos_as_xyz
  1  'x, y, z'
loop_
 _atom_site_type_symbol
 _atom_site_label
 _atom_site_symmetry_multiplicity
 _atom_site_fract_x
 _atom_site_fract_y
 _atom_site_fract_z
 _atom_site_occupancy
  Mg  Mg0_0  1  0.30825553  0.30825553  0.13548311  1
  Mg  Mg0_1  1  0.30825553  0.30825553  0.63548311  1
  Mg  Mg0_2  1  0.30825553  0.80825553  0.13548311  1
  Mg  Mg0_3  1  0.30825553  0.80825553  0.63548311  1
  Mg  Mg0_4  1  0.80825553  0.30825553  0.13548311  1
  Mg  Mg0_5  1  0.80825553  0.30825553  0.63548311  1
  Mg  Mg0_6  1  0.80825553  0.80825553  0.13548311  1
  Mg  Mg0_7  1  0.80825553  0.80825553  0.63548311  1
  Mg  Mg1_0  1  0.47075535  0.47075535  0.30646521  1
  Mg  Mg1_1  1  0.47075535  0.47075535  0.80646521  1
  Mg  Mg1_2  1  0.47075534  0.97075534  0.30646521  1
  Mg  Mg1_3  1  0.47075534  0.97075534  0.80646521  1
  Mg  Mg1_4  1  0.97075534  0.47075534  0.30646521  1
  Mg  Mg1_5  1  0.97075534  0.47075534  0.80646521  1
  Mg  Mg1_6  1  0.97075535  0.97075535  0.30646521  1
  Mg  Mg1_7  1  0.97075535  0.97075535  0.80646522  1
  Cd  Cd0_0  1  0.49944863  0.49944863  0.00153643  1
  Cd  Cd0_1  1  0.49944863  0.49944863  0.50153643  1
  Cd  Cd0_2  1  0.49944863  0.99944863  0.00153643  1
  Cd  Cd0_3  1  0.49944863  0.99944863  0.50153643  1
  Cd  Cd0_4  1  0.99944863  0.49944863  0.00153643  1
  Cd  Cd0_5  1  0.99944863  0.49944863  0.50153643  1
  Cd  Cd0_6  1  0.99944863  0.99944863  0.00153643  1
  Cd  Cd0_7  1  0.99944863  0.99944863  0.50153643  1
  Cd  Cd1_0  1  0.16824154  0.16824154  0.16832258  1
  Cd  Cd1_1  1  0.16824154  0.16824154  0.66832258  1
  Cd  Cd1_2  1  0.16824154  0.66824154  0.16832258  1
  Cd  Cd1_3  1  0.16824154  0.66824154  0.66832258  1
  Cd  Cd1_4  1  0.66824154  0.16824154  0.16832258  1
  Cd  Cd1_5  1  0.66824154  0.16824154  0.66832258  1
  Cd  Cd1_6  1  0.66824154  0.66824154  0.16832258  1
  Cd  Cd1_7  1  0.66824154  0.66824154  0.66832258  1
  Cd  Cd2_0  1  0.33149984  0.33149984  0.33243176  1
  Cd  Cd2_1  1  0.33149984  0.33149984  0.83243176  1
  Cd  Cd2_2  1  0.33149984  0.83149984  0.33243176  1
  Cd  Cd2_3  1  0.33149984  0.83149984  0.83243176  1
  Cd  Cd2_4  1  0.83149984  0.33149984  0.33243176  1
  Cd  Cd2_5  1  0.83149984  0.33149984  0.83243176  1
  Cd  Cd2_6  1  0.83149983  0.83149983  0.33243176  1
  Cd  Cd2_7  1  0.83149984  0.83149984  0.83243176  1
  Cd  Cd3_0  1  0.13846562  0.13846562  0.47242740  1
  Cd  Cd3_1  1  0.13846562  0.13846562  0.97242740  1
  Cd  Cd3_2  1  0.13846562  0.63846562  0.47242740  1
  Cd  Cd3_3  1  0.13846562  0.63846562  0.97242740  1
  Cd  Cd3_4  1  0.63846562  0.13846562  0.47242740  1
  Cd  Cd3_5  1  0.63846562  0.13846562  0.97242740  1
  Cd  Cd3_6  1  0.63846562  0.63846562  0.47242740  1
  Cd  Cd3_7  1  0.63846562  0.63846562  0.97242740  1
loop_
_geom_bond_atom_site_label_1
_geom_bond_atom_site_label_2
_geom_bond_distance
_geom_bond_site_symmetry_2
Cd0_0 Mg1_1 3.003197 1_554
Cd0_0 Cd3_7 3.012675 1_554
Cd0_0 Mg0_2 3.031780 1_555
Cd0_0 Mg0_4 3.031780 1_555
Cd0_0 Cd3_5 3.060041 1_554
Cd0_0 Cd3_3 3.060041 1_554
Cd0_1 Mg1_0 3.003197 1_555
Cd0_1 Cd3_6 3.012675 1_555
Cd0_1 Mg0_3 3.031780 1_555
Cd0_1 Mg0_5 3.031780 1_555
Cd0_1 Cd3_2 3.060041 1_555
Cd0_1 Cd3_4 3.060041 1_555
Cd0_2 Mg1_3 3.003197 1_554
Cd0_2 Cd3_5 3.012675 1_564
Cd0_2 Mg0_0 3.031780 1_565
Cd0_2 Mg0_6 3.031780 1_555
Cd0_2 Cd3_7 3.060041 1_554
Cd0_2 Cd3_1 3.060041 1_564
Cd0_3 Mg1_2 3.003197 1_555
Cd0_3 Cd3_4 3.012675 1_565
Cd0_3 Mg0_1 3.031780 1_565
Cd0_3 Mg0_7 3.031780 1_555
Cd0_3 Cd3_0 3.060041 1_565
Cd0_3 Cd3_6 3.060041 1_555
Cd0_4 Mg1_5 3.003197 1_554
Cd0_4 Cd3_3 3.012675 1_654
Cd0_4 Mg0_0 3.031780 1_655
Cd0_4 Mg0_6 3.031780 1_555
Cd0_4 Cd3_7 3.060041 1_554
Cd0_4 Cd3_1 3.060041 1_654
Cd0_5 Mg1_4 3.003197 1_555
Cd0_5 Cd3_2 3.012675 1_655
Cd0_5 Mg0_1 3.031780 1_655
Cd0_5 Mg0_7 3.031780 1_555
Cd0_5 Cd3_6 3.060041 1_555
Cd0_5 Cd3_0 3.060041 1_655
Cd0_6 Mg1_7 3.003197 1_554
Cd0_6 Cd3_1 3.012675 1_664
Cd0_6 Mg0_4 3.031780 1_565
Cd0_6 Mg0_2 3.031780 1_655
Cd0_6 Cd3_5 3.060041 1_564
Cd0_6 Cd3_3 3.060041 1_654
Cd0_7 Mg1_6 3.003197 1_555
Cd0_7 Cd3_0 3.012675 1_665
Cd0_7 Mg0_5 3.031780 1_565
Cd0_7 Mg0_3 3.031780 1_655
Cd0_7 Cd3_4 3.060041 1_565
Cd0_7 Cd3_2 3.060041 1_655
Cd1_0 Mg1_2 3.000275 1_545
Cd1_0 Mg1_4 3.000275 1_455
Cd1_0 Cd3_1 3.024628 1_554
Cd1_0 Mg0_0 3.030819 1_555
Cd1_0 Mg0_2 3.058622 1_545
Cd1_0 Mg0_4 3.058622 1_455
Cd1_1 Mg1_5 3.000275 1_455
Cd1_1 Mg1_3 3.000275 1_545
Cd1_1 Cd3_0 3.024628 1_555
Cd1_1 Mg0_1 3.030819 1_555
Cd1_1 Mg0_3 3.058622 1_545
Cd1_1 Mg0_5 3.058622 1_455
Cd1_2 Mg1_0 3.000275 1_555
Cd1_2 Mg1_6 3.000275 1_455
Cd1_2 Cd3_3 3.024628 1_554
Cd1_2 Mg0_2 3.030819 1_555
Cd1_2 Mg0_6 3.058622 1_455
Cd1_2 Mg0_0 3.058622 1_555
Cd1_3 Mg1_1 3.000275 1_555
Cd1_3 Mg1_7 3.000275 1_455
Cd1_3 Cd3_2 3.024628 1_555
Cd1_3 Mg0_3 3.030819 1_555
Cd1_3 Mg0_7 3.058622 1_455
Cd1_3 Mg0_1 3.058622 1_555
Cd1_4 Mg1_0 3.000275 1_555
Cd1_4 Mg1_6 3.000275 1_545
Cd1_4 Cd3_5 3.024628 1_554
Cd1_4 Mg0_4 3.030819 1_555
Cd1_4 Mg0_6 3.058622 1_545
Cd1_4 Mg0_0 3.058622 1_555
Cd1_5 Mg1_1 3.000275 1_555
Cd1_5 Mg1_7 3.000275 1_545
Cd1_5 Cd3_4 3.024628 1_555
Cd1_5 Mg0_5 3.030819 1_555
Cd1_5 Mg0_7 3.058622 1_545
Cd1_5 Mg0_1 3.058622 1_555
Cd1_6 Mg1_2 3.000275 1_555
Cd1_6 Mg1_4 3.000275 1_555
Cd1_6 Cd3_7 3.024628 1_554
Cd1_6 Mg0_6 3.030819 1_555
Cd1_6 Mg0_2 3.058622 1_555
Cd1_6 Mg0_4 3.058622 1_555
Cd1_7 Mg1_5 3.000275 1_555
Cd1_7 Mg1_3 3.000275 1_555
Cd1_7 Cd3_6 3.024628 1_555
Cd1_7 Mg0_7 3.030819 1_555
Cd1_7 Mg0_5 3.058622 1_555
Cd1_7 Mg0_3 3.058622 1_555
Cd2_0 Mg0_0 2.982627 1_555
Cd2_0 Mg1_0 3.021710 1_555
Cd2_0 Mg1_2 3.042128 1_545
Cd2_0 Mg1_4 3.042128 1_455
Cd2_0 Cd3_4 3.072975 1_555
Cd2_0 Cd3_2 3.072975 1_555
Cd2_1 Mg0_1 2.982627 1_555
Cd2_1 Mg1_1 3.021710 1_555
Cd2_1 Mg1_3 3.042128 1_545
Cd2_1 Mg1_5 3.042128 1_455
Cd2_1 Cd3_5 3.072975 1_555
Cd2_1 Cd3_3 3.072975 1_555
Cd2_2 Mg0_2 2.982627 1_555
Cd2_2 Mg1_2 3.021710 1_555
Cd2_2 Mg1_6 3.042128 1_455
Cd2_2 Mg1_0 3.042128 1_555
Cd2_2 Cd3_6 3.072975 1_555
Cd2_2 Cd3_0 3.072975 1_565
Cd2_3 Mg0_3 2.982627 1_555
Cd2_3 Mg1_3 3.021710 1_555
Cd2_3 Mg1_7 3.042128 1_455
Cd2_3 Mg1_1 3.042128 1_555
Cd2_3 Cd3_1 3.072975 1_565
Cd2_3 Cd3_7 3.072975 1_555
Cd2_4 Mg0_4 2.982627 1_555
Cd2_4 Mg1_4 3.021710 1_555
Cd2_4 Mg1_6 3.042128 1_545
Cd2_4 Mg1_0 3.042128 1_555
Cd2_4 Cd3_6 3.072975 1_555
Cd2_4 Cd3_0 3.072975 1_655
Cd2_5 Mg0_5 2.982627 1_555
Cd2_5 Mg1_5 3.021710 1_555
Cd2_5 Mg1_7 3.042128 1_545
Cd2_5 Mg1_1 3.042128 1_555
Cd2_5 Cd3_1 3.072975 1_655
Cd2_5 Cd3_7 3.072975 1_555
Cd2_6 Mg0_6 2.982627 1_555
Cd2_6 Mg1_6 3.021710 1_555
Cd2_6 Mg1_4 3.042128 1_555
Cd2_6 Mg1_2 3.042128 1_555
Cd2_6 Cd3_4 3.072975 1_565
Cd2_6 Cd3_2 3.072975 1_655
Cd2_7 Mg0_7 2.982627 1_555
Cd2_7 Mg1_7 3.021710 1_555
Cd2_7 Mg1_3 3.042128 1_555
Cd2_7 Mg1_5 3.042128 1_555
Cd2_7 Cd3_3 3.072975 1_655
Cd2_7 Cd3_5 3.072975 1_565
Cd3_0 Mg0_5 3.101195 1_455
Cd3_0 Mg0_3 3.101195 1_545
Cd3_0 Mg1_4 3.146828 1_455
Cd3_0 Mg1_2 3.146828 1_545
Cd3_0 Cd3_6 3.307641 1_545
Cd3_0 Cd3_6 3.307641 1_455
Cd3_1 Mg0_2 3.101195 1_546
Cd3_1 Mg0_4 3.101195 1_456
Cd3_1 Mg1_5 3.146828 1_455
Cd3_1 Mg1_3 3.146828 1_545
Cd3_1 Cd3_7 3.307641 1_545
Cd3_1 Cd3_7 3.307641 1_455
Cd3_2 Mg0_1 3.101195 1_555
Cd3_2 Mg0_7 3.101195 1_455
Cd3_2 Mg1_0 3.146828 1_555
Cd3_2 Mg1_6 3.146828 1_455
Cd3_2 Cd3_4 3.307641 1_555
Cd3_2 Cd3_4 3.307642 1_465
Cd3_3 Mg0_6 3.101195 1_456
Cd3_3 Mg0_0 3.101195 1_556
Cd3_3 Mg1_1 3.146828 1_555
Cd3_3 Mg1_7 3.146828 1_455
Cd3_3 Cd3_5 3.307641 1_555
Cd3_3 Cd3_5 3.307642 1_465
Cd3_4 Mg0_7 3.101195 1_545
Cd3_4 Mg0_1 3.101195 1_555
Cd3_4 Mg1_0 3.146828 1_555
Cd3_4 Mg1_6 3.146828 1_545
Cd3_5 Mg0_6 3.101195 1_546
Cd3_5 Mg0_0 3.101195 1_556
Cd3_5 Mg1_1 3.146828 1_555
Cd3_5 Mg1_7 3.146828 1_545
Cd3_6 Mg0_3 3.101195 1_555
Cd3_6 Mg0_5 3.101195 1_555
Cd3_6 Mg1_2 3.146828 1_555
Cd3_6 Mg1_4 3.146828 1_555
Cd3_7 Mg0_4 3.101195 1_556
Cd3_7 Mg0_2 3.101195 1_556
Cd3_7 Mg1_5 3.146828 1_555
Cd3_7 Mg1_3 3.146828 1_555
