# generated using pymatgen
data_PaV
_symmetry_space_group_name_H-M   'P 1'
_cell_length_a   6.12242784
_cell_length_b   6.12242784
_cell_length_c   9.39817600
_cell_angle_alpha   90.00000000
_cell_angle_beta   90.00000000
_cell_angle_gamma   119.51082930
_symmetry_Int_Tables_number   1
_chemical_formula_structural   PaV
_chemical_formula_sum   'Pa8 V8'
_cell_volume   306.57818457
_cell_formula_units_Z   8
loop_
 _symmetry_equiv_pos_site_id
 _symmetry_equiv_pos_as_xyz
  1  'x, y, z'
loop_
 _atom_site_type_symbol
 _atom_site_label
 _atom_site_symmetry_multiplicity
 _atom_site_fract_x
 _atom_site_fract_y
 _atom_site_fract_z
 _atom_site_occupancy
  Pa  Pa0_0  1  0.33743050  0.16256950  0.25000000  1
  Pa  Pa0_1  1  0.33743050  0.16256950  0.75000000  1
  Pa  Pa0_2  1  0.33743050  0.66256950  0.25000000  1
  Pa  Pa0_3  1  0.33743050  0.66256950  0.75000000  1
  Pa  Pa0_4  1  0.83743050  0.16256950  0.25000000  1
  Pa  Pa0_5  1  0.83743050  0.16256950  0.75000000  1
  Pa  Pa0_6  1  0.83743050  0.66256950  0.25000000  1
  Pa  Pa0_7  1  0.83743050  0.66256950  0.75000000  1
  V  V0_0  1  0.16628400  0.33371600  0.00000000  1
  V  V0_1  1  0.16628400  0.33371600  0.50000000  1
  V  V0_2  1  0.16628400  0.83371600  0.00000000  1
  V  V0_3  1  0.16628400  0.83371600  0.50000000  1
  V  V0_4  1  0.66628400  0.33371600  0.00000000  1
  V  V0_5  1  0.66628400  0.33371600  0.50000000  1
  V  V0_6  1  0.66628400  0.83371600  0.00000000  1
  V  V0_7  1  0.66628400  0.83371600  0.50000000  1
loop_
_geom_bond_atom_site_label_1
_geom_bond_atom_site_label_2
_geom_bond_distance
_geom_bond_site_symmetry_2
Pa0_0 V0_5 2.931485 1_555
Pa0_0 V0_3 2.931485 1_545
Pa0_0 V0_2 2.931485 1_545
Pa0_0 V0_4 2.931485 1_555
Pa0_0 V0_0 2.966132 1_555
Pa0_0 V0_1 2.966132 1_555
Pa0_0 Pa0_4 3.061214 1_555
Pa0_0 Pa0_2 3.061214 1_555
Pa0_0 Pa0_4 3.061214 1_455
Pa0_0 Pa0_2 3.061214 1_545
Pa0_0 Pa0_6 3.083820 1_445
Pa0_0 Pa0_6 3.083820 1_555
Pa0_1 V0_5 2.931485 1_555
Pa0_1 V0_3 2.931485 1_545
Pa0_1 V0_4 2.931485 1_556
Pa0_1 V0_2 2.931485 1_546
Pa0_1 V0_0 2.966132 1_556
Pa0_1 V0_1 2.966132 1_555
Pa0_1 Pa0_3 3.061214 1_555
Pa0_1 Pa0_5 3.061214 1_555
Pa0_1 Pa0_3 3.061214 1_545
Pa0_1 Pa0_5 3.061214 1_455
Pa0_1 Pa0_7 3.083820 1_445
Pa0_1 Pa0_7 3.083820 1_555
Pa0_2 V0_0 2.931485 1_555
Pa0_2 V0_1 2.931485 1_555
Pa0_2 V0_7 2.931485 1_555
Pa0_2 V0_6 2.931485 1_555
Pa0_2 V0_3 2.966132 1_555
Pa0_2 V0_2 2.966132 1_555
Pa0_2 Pa0_6 3.061214 1_555
Pa0_2 Pa0_6 3.061214 1_455
Pa0_2 Pa0_4 3.083820 1_455
Pa0_2 Pa0_4 3.083820 1_565
Pa0_3 V0_0 2.931485 1_556
Pa0_3 V0_1 2.931485 1_555
Pa0_3 V0_7 2.931485 1_555
Pa0_3 V0_6 2.931485 1_556
Pa0_3 V0_3 2.966132 1_555
Pa0_3 V0_2 2.966132 1_556
Pa0_3 Pa0_7 3.061214 1_555
Pa0_3 Pa0_7 3.061214 1_455
Pa0_3 Pa0_5 3.083820 1_455
Pa0_3 Pa0_5 3.083820 1_565
Pa0_4 V0_6 2.931485 1_545
Pa0_4 V0_7 2.931485 1_545
Pa0_4 V0_0 2.931485 1_655
Pa0_4 V0_1 2.931485 1_655
Pa0_4 V0_4 2.966132 1_555
Pa0_4 V0_5 2.966132 1_555
Pa0_4 Pa0_6 3.061214 1_545
Pa0_4 Pa0_6 3.061214 1_555
Pa0_5 V0_6 2.931485 1_546
Pa0_5 V0_7 2.931485 1_545
Pa0_5 V0_0 2.931485 1_656
Pa0_5 V0_1 2.931485 1_655
Pa0_5 V0_5 2.966132 1_555
Pa0_5 V0_4 2.966132 1_556
Pa0_5 Pa0_7 3.061214 1_545
Pa0_5 Pa0_7 3.061214 1_555
Pa0_6 V0_5 2.931485 1_555
Pa0_6 V0_2 2.931485 1_655
Pa0_6 V0_4 2.931485 1_555
Pa0_6 V0_3 2.931485 1_655
Pa0_6 V0_7 2.966132 1_555
Pa0_6 V0_6 2.966132 1_555
Pa0_7 V0_5 2.931485 1_555
Pa0_7 V0_3 2.931485 1_655
Pa0_7 V0_4 2.931485 1_556
Pa0_7 V0_2 2.931485 1_656
Pa0_7 V0_6 2.966132 1_556
Pa0_7 V0_7 2.966132 1_555
V0_0 V0_4 3.061214 1_555
V0_0 V0_2 3.061214 1_545
V0_0 V0_4 3.061214 1_455
V0_0 V0_2 3.061214 1_555
V0_0 V0_6 3.083820 1_445
V0_0 V0_6 3.083820 1_555
V0_1 V0_3 3.061214 1_545
V0_1 V0_3 3.061214 1_555
V0_1 V0_5 3.061214 1_455
V0_1 V0_5 3.061214 1_555
V0_1 V0_7 3.083820 1_445
V0_1 V0_7 3.083820 1_555
V0_2 V0_6 3.061214 1_455
V0_2 V0_6 3.061214 1_555
V0_2 V0_4 3.083820 1_565
V0_2 V0_4 3.083820 1_455
V0_3 V0_7 3.061214 1_455
V0_3 V0_7 3.061214 1_555
V0_3 V0_5 3.083820 1_565
V0_3 V0_5 3.083820 1_455
V0_4 V0_6 3.061214 1_545
V0_4 V0_6 3.061214 1_555
V0_5 V0_7 3.061214 1_545
V0_5 V0_7 3.061214 1_555
