# generated using pymatgen
data_CrPC5Cl3O5
_symmetry_space_group_name_H-M   'P 1'
_cell_length_a   13.28530300
_cell_length_b   6.86168800
_cell_length_c   13.18485865
_cell_angle_alpha   88.24770873
_cell_angle_beta   90.00000000
_cell_angle_gamma   90.00000000
_symmetry_Int_Tables_number   1
_chemical_formula_structural   CrPC5Cl3O5
_chemical_formula_sum   'Cr4 P4 C20 Cl12 O20'
_cell_volume   1201.36443738
_cell_formula_units_Z   4
loop_
 _symmetry_equiv_pos_site_id
 _symmetry_equiv_pos_as_xyz
  1  'x, y, z'
loop_
 _atom_site_type_symbol
 _atom_site_label
 _atom_site_symmetry_multiplicity
 _atom_site_fract_x
 _atom_site_fract_y
 _atom_site_fract_z
 _atom_site_occupancy
  Cr  Cr0  1  0.70023100  0.28865600  0.10646400  1
  Cr  Cr1  1  0.20023100  0.71134400  0.39353600  1
  Cr  Cr2  1  0.29976900  0.71134400  0.89353600  1
  Cr  Cr3  1  0.79976900  0.28865600  0.60646400  1
  P  P0  1  0.86517400  0.31053600  0.16317400  1
  P  P1  1  0.36517400  0.68946400  0.33682600  1
  P  P2  1  0.13482600  0.68946400  0.83682600  1
  P  P3  1  0.63482600  0.31053600  0.66317400  1
  C  C0  1  0.73642200  0.04323500  0.05020000  1
  C  C1  1  0.23642200  0.95676500  0.44980000  1
  C  C2  1  0.26357800  0.95676500  0.94980000  1
  C  C3  1  0.76357800  0.04323500  0.55020000  1
  C  C4  1  0.66058600  0.16519100  0.23327700  1
  C  C5  1  0.16058600  0.83480900  0.26672300  1
  C  C6  1  0.33941400  0.83480900  0.76672300  1
  C  C7  1  0.83941400  0.16519100  0.73327700  1
  C  C8  1  0.66739500  0.53636100  0.16250400  1
  C  C9  1  0.16739500  0.46363900  0.33749600  1
  C  C10  1  0.33260500  0.46363900  0.83749600  1
  C  C11  1  0.83260500  0.53636100  0.66250400  1
  C  C12  1  0.73993100  0.41758100  0.98142500  1
  C  C13  1  0.23993100  0.58241900  0.51857500  1
  C  C14  1  0.26006900  0.58241900  0.01857500  1
  C  C15  1  0.76006900  0.41758100  0.48142500  1
  C  C16  1  0.56596800  0.26298200  0.05812000  1
  C  C17  1  0.06596800  0.73701800  0.44188000  1
  C  C18  1  0.43403200  0.73701800  0.94188000  1
  C  C19  1  0.93403200  0.26298200  0.55812000  1
  Cl  Cl0  1  0.91764600  0.57505100  0.20922600  1
  Cl  Cl1  1  0.41764600  0.42494900  0.29077400  1
  Cl  Cl2  1  0.08235400  0.42494900  0.79077400  1
  Cl  Cl3  1  0.58235400  0.57505100  0.70922600  1
  Cl  Cl4  1  0.97664000  0.24142600  0.06383800  1
  Cl  Cl5  1  0.47664000  0.75857400  0.43616200  1
  Cl  Cl6  1  0.02336000  0.75857400  0.93616200  1
  Cl  Cl7  1  0.52336000  0.24142600  0.56383800  1
  Cl  Cl8  1  0.90598500  0.13512300  0.28539800  1
  Cl  Cl9  1  0.40598500  0.86487700  0.21460200  1
  Cl  Cl10  1  0.09401500  0.86487700  0.71460200  1
  Cl  Cl11  1  0.59401500  0.13512300  0.78539800  1
  O  O0  1  0.76017600  0.89731000  0.01519100  1
  O  O1  1  0.26017600  0.10269000  0.48480900  1
  O  O2  1  0.23982400  0.10269000  0.98480900  1
  O  O3  1  0.73982400  0.89731000  0.51519100  1
  O  O4  1  0.63634500  0.09619700  0.31073300  1
  O  O5  1  0.13634500  0.90380300  0.18926700  1
  O  O6  1  0.36365500  0.90380300  0.68926700  1
  O  O7  1  0.86365500  0.09619700  0.81073300  1
  O  O8  1  0.64792100  0.68492700  0.19685900  1
  O  O9  1  0.14792100  0.31507300  0.30314100  1
  O  O10  1  0.35207900  0.31507300  0.80314100  1
  O  O11  1  0.85207900  0.68492700  0.69685900  1
  O  O12  1  0.76415200  0.49291600  0.90542800  1
  O  O13  1  0.26415200  0.50708400  0.59457200  1
  O  O14  1  0.23584800  0.50708400  0.09457200  1
  O  O15  1  0.73584800  0.49291600  0.40542800  1
  O  O16  1  0.48366700  0.24644800  0.02962300  1
  O  O17  1  0.98366700  0.75355200  0.47037700  1
  O  O18  1  0.51633300  0.75355200  0.97037700  1
  O  O19  1  0.01633300  0.24644800  0.52962300  1
loop_
_geom_bond_atom_site_label_1
_geom_bond_atom_site_label_2
_geom_bond_distance
_geom_bond_site_symmetry_2
Cr0 P0 2.321714 1_555
Cr1 P1 2.321714 1_555
Cr2 P2 2.321714 1_555
Cr3 P3 2.321714 1_555
C0 O0 1.159097 1_545
C0 Cr0 1.921915 1_555
C1 O1 1.159097 1_565
C1 Cr1 1.921915 1_555
C2 O2 1.159097 1_565
C2 Cr2 1.921915 1_555
C3 O3 1.159097 1_545
C3 Cr3 1.921915 1_555
C4 O4 1.158108 1_555
C4 Cr0 1.924607 1_555
C5 O5 1.158108 1_555
C5 Cr1 1.924607 1_555
C6 O6 1.158108 1_555
C6 Cr2 1.924607 1_555
C7 O7 1.158108 1_555
C7 Cr3 1.924607 1_555
C8 O8 1.157392 1_555
C8 Cr0 1.924043 1_555
C9 O9 1.157392 1_555
C9 Cr1 1.924043 1_555
C10 O10 1.157392 1_555
C10 Cr2 1.924043 1_555
C11 O11 1.157392 1_555
C11 Cr3 1.924043 1_555
C12 O12 1.158923 1_555
C12 Cr0 1.920815 1_556
C13 O13 1.158923 1_555
C13 Cr1 1.920815 1_555
C14 O14 1.158923 1_555
C14 Cr2 1.920815 1_554
C15 O15 1.158923 1_555
C15 Cr3 1.920815 1_555
C16 O16 1.162824 1_555
C16 Cr0 1.904171 1_555
C17 O17 1.162824 1_455
C17 Cr1 1.904171 1_555
C18 O18 1.162824 1_555
C18 Cr2 1.904171 1_555
C19 O19 1.162824 1_655
C19 Cr3 1.904171 1_555
Cl0 P0 2.053370 1_555
Cl1 P1 2.053370 1_555
Cl2 P2 2.053370 1_555
Cl3 P3 2.053370 1_555
Cl4 P0 2.042352 1_555
Cl5 P1 2.042352 1_555
Cl6 P2 2.042352 1_555
Cl7 P3 2.042352 1_555
Cl8 P0 2.054512 1_555
Cl9 P1 2.054512 1_555
Cl10 P2 2.054512 1_555
Cl11 P3 2.054512 1_555
