# generated using pymatgen
data_Y14Mg(ReO14)2
_symmetry_space_group_name_H-M   'P 1'
_cell_length_a   7.65860124
_cell_length_b   15.24643176
_cell_length_c   13.15986452
_cell_angle_alpha   30.16466185
_cell_angle_beta   54.55941827
_cell_angle_gamma   59.75689406
_symmetry_Int_Tables_number   1
_chemical_formula_structural   Y14Mg(ReO14)2
_chemical_formula_sum   'Y14 Mg1 Re2 O28'
_cell_volume   629.06225220
_cell_formula_units_Z   1
loop_
 _symmetry_equiv_pos_site_id
 _symmetry_equiv_pos_as_xyz
  1  'x, y, z'
loop_
 _atom_site_type_symbol
 _atom_site_label
 _atom_site_symmetry_multiplicity
 _atom_site_fract_x
 _atom_site_fract_y
 _atom_site_fract_z
 _atom_site_occupancy
  Y  Y0  1  0.04336700  0.04177900  0.95296900  1
  Y  Y1  1  0.99692600  0.49064900  0.00593300  1
  Y  Y2  1  0.50880200  0.04139200  0.94922100  1
  Y  Y3  1  0.50462900  0.26294300  0.96802200  1
  Y  Y4  1  0.50749000  0.49900600  0.99818600  1
  Y  Y5  1  0.49789800  0.27484300  0.46642800  1
  Y  Y6  1  0.01863500  0.23675000  0.01766200  1
  Y  Y7  1  0.49736800  0.73639900  0.03176900  1
  Y  Y8  1  0.99827100  0.00373600  0.49835500  1
  Y  Y9  1  0.49296600  0.75050100  0.52494700  1
  Y  Y10  1  0.02265400  0.76963000  0.95834600  1
  Y  Y11  1  0.03622100  0.23681900  0.49279300  1
  Y  Y12  1  0.03784100  0.50054500  0.50877000  1
  Y  Y13  1  0.96600500  0.76389400  0.50440100  1
  Mg  Mg0  1  0.77692600  0.77869000  0.22476700  1
  Re  Re0  1  0.49991400  0.49956100  0.50056900  1
  Re  Re1  1  0.49968300  0.99848600  0.50117200  1
  O  O0  1  0.14660200  0.23350000  0.13655600  1
  O  O1  1  0.13581900  0.50851300  0.12343000  1
  O  O2  1  0.12594700  0.27993600  0.58687300  1
  O  O3  1  0.43635800  0.21988100  0.36838700  1
  O  O4  1  0.09058500  0.70973600  0.16598000  1
  O  O5  1  0.60816800  0.51921700  0.10816700  1
  O  O6  1  0.14708100  0.98928800  0.14015800  1
  O  O7  1  0.40582100  0.01800600  0.84222900  1
  O  O8  1  0.22362300  0.58036300  0.52901000  1
  O  O9  1  0.39807000  0.48489300  0.40153700  1
  O  O10  1  0.62915200  0.71929700  0.19433000  1
  O  O11  1  0.85229900  0.23497000  0.40009400  1
  O  O12  1  0.13546100  0.76386500  0.60636100  1
  O  O13  1  0.37500000  0.28149500  0.82860700  1
  O  O14  1  0.69874100  0.34072100  0.54875800  1
  O  O15  1  0.62121900  0.54418900  0.54805300  1
  O  O16  1  0.57543600  0.96353400  0.16505100  1
  O  O17  1  0.88082600  0.99961400  0.87192700  1
  O  O18  1  0.41985500  0.48196600  0.87730400  1
  O  O19  1  0.17446300  0.99237800  0.60082400  1
  O  O20  1  0.49280800  0.06778400  0.30078400  1
  O  O21  1  0.87816400  0.26504100  0.87112200  1
  O  O22  1  0.86250800  0.74548300  0.38753300  1
  O  O23  1  0.58623000  0.76558800  0.64295700  1
  O  O24  1  0.80905100  0.02562000  0.38327700  1
  O  O25  1  0.44221100  0.86800300  0.76398600  1
  O  O26  1  0.87106500  0.48405300  0.87851500  1
  O  O27  1  0.83969700  0.78577500  0.85857400  1
loop_
_geom_bond_atom_site_label_1
_geom_bond_atom_site_label_2
_geom_bond_distance
_geom_bond_site_symmetry_2
Mg0 O16 2.033988 1_555
Mg0 O4 2.044855 1_655
Mg0 O15 2.100936 1_555
Mg0 O10 2.108676 1_555
Mg0 O22 2.166259 1_555
Mg0 O17 2.215776 1_554
O0 Y6 2.237489 1_555
O0 Y3 2.259344 1_554
O0 Y8 2.264218 1_455
O0 Y1 2.396749 1_455
O1 Y10 2.252226 1_554
O1 Y4 2.323061 1_554
O1 Y11 2.331126 1_555
O1 Y1 2.554234 1_455
O2 Y11 2.299189 1_555
O2 Y0 2.307760 1_555
O2 Y12 2.316257 1_555
O2 Y5 2.320929 1_555
O3 Re1 1.953713 1_545
O3 Y4 2.355613 1_554
O3 Y5 2.358290 1_555
O3 Y11 2.500717 1_555
O4 Y12 2.234077 1_555
O4 Y10 2.329422 1_554
O4 Y7 2.577473 1_555
O4 Y0 2.899989 1_564
O5 Y5 2.236179 1_555
O5 Y4 2.255881 1_554
O5 Y7 2.257796 1_555
O5 Y1 2.434308 1_555
O6 Y2 2.304737 1_564
O6 Y13 2.305891 1_455
O6 Y6 2.320485 1_565
O6 Y0 2.357865 1_564
O7 Y0 2.273566 1_555
O7 Y2 2.273946 1_555
O7 Y5 2.353606 1_555
O7 Y7 2.371671 1_546
O8 Re0 1.840691 1_555
O8 Y13 2.332416 1_455
O8 Y12 2.514069 1_555
O9 Re0 2.053140 1_555
O9 Y12 2.250267 1_555
O9 Y5 2.265313 1_555
O9 Y7 2.311235 1_555
O10 Re0 1.952646 1_555
O10 Y10 2.582697 1_654
O10 Y2 2.620655 1_564
O10 Y7 2.633915 1_555
O11 Y5 2.237472 1_555
O11 Y8 2.274711 1_555
O11 Y11 2.359096 1_655
O11 Y1 2.459845 1_555
O12 Y9 2.258207 1_555
O12 Y8 2.317725 1_465
O12 Y13 2.345746 1_455
O12 Y1 2.496799 1_456
O13 Re0 2.049717 1_555
O13 Y2 2.242867 1_555
O13 Y6 2.273772 1_556
O13 Y3 2.315989 1_555
O14 Re0 1.826269 1_555
O14 Y11 2.327570 1_655
O14 Y2 2.631635 1_555
O15 Re0 1.939528 1_555
O15 Y9 2.555722 1_555
O15 Y3 2.623719 1_555
O15 Y12 2.726535 1_655
O16 Y2 2.231030 1_564
O16 Y9 2.318873 1_555
O16 Y3 2.554534 1_564
O16 Y0 3.000893 1_664
O17 Y10 2.338537 1_655
O17 Y2 2.342948 1_565
O17 Y11 2.374301 1_665
O17 Y0 2.575203 1_665
O18 Y3 2.195277 1_555
O18 Y9 2.246770 1_555
O18 Y4 2.275316 1_555
O18 Y1 2.640319 1_456
O19 Re1 2.041230 1_555
O19 Y10 2.241838 1_555
O19 Y8 2.267219 1_465
O19 Y11 2.374994 1_565
O20 Re1 1.833147 1_545
O20 Y3 2.306261 1_554
O20 Y9 2.725000 1_545
O21 Y12 2.276058 1_655
O21 Y0 2.291301 1_655
O21 Y6 2.358505 1_656
O21 Y3 2.366864 1_555
O22 Y9 2.317675 1_555
O22 Y12 2.329186 1_655
O22 Y13 2.335982 1_555
O22 Y0 2.734102 1_664
O23 Re1 2.033791 1_555
O23 Y9 2.246002 1_555
O23 Y4 2.254260 1_555
O23 Y13 2.374943 1_555
O24 Re1 1.950997 1_545
O24 Y6 2.356969 1_655
O24 Y8 2.385200 1_555
O24 Y13 2.510092 1_545
O25 Re1 1.825471 1_555
O25 Y7 2.295388 1_556
O25 Y10 2.793982 1_555
O26 Y6 2.239574 1_656
O26 Y4 2.276245 1_555
O26 Y13 2.371166 1_555
O26 Y1 2.452471 1_556
O27 Y7 2.174043 1_556
O27 Y10 2.230506 1_655
O27 Y8 2.266922 1_565
O27 Y1 2.760233 1_556
