# generated using pymatgen
data_MgCo5SbO8
_symmetry_space_group_name_H-M   'P 1'
_cell_length_a   6.09104198
_cell_length_b   6.31568187
_cell_length_c   6.06202182
_cell_angle_alpha   61.26561207
_cell_angle_beta   60.16713139
_cell_angle_gamma   64.14520601
_symmetry_Int_Tables_number   1
_chemical_formula_structural   MgCo5SbO8
_chemical_formula_sum   'Mg1 Co5 Sb1 O8'
_cell_volume   171.33746885
_cell_formula_units_Z   1
loop_
 _symmetry_equiv_pos_site_id
 _symmetry_equiv_pos_as_xyz
  1  'x, y, z'
loop_
 _atom_site_type_symbol
 _atom_site_label
 _atom_site_symmetry_multiplicity
 _atom_site_fract_x
 _atom_site_fract_y
 _atom_site_fract_z
 _atom_site_occupancy
  Mg  Mg0  1  0.00000000  0.50000000  0.00000000  1
  Co  Co0  1  0.08961700  0.03449300  0.18795700  1
  Co  Co1  1  0.50000000  0.50000000  0.50000000  1
  Co  Co2  1  0.50000000  0.50000000  0.00000000  1
  Co  Co3  1  0.50000000  0.00000000  0.50000000  1
  Co  Co4  1  0.91038300  0.96550700  0.81204300  1
  Sb  Sb0  1  0.00000000  0.50000000  0.50000000  1
  O  O0  1  0.21109700  0.27491500  0.26631900  1
  O  O1  1  0.27783400  0.68951800  0.26608400  1
  O  O2  1  0.21117400  0.27516800  0.74802000  1
  O  O3  1  0.71953300  0.26796200  0.25634500  1
  O  O4  1  0.28046700  0.73203800  0.74365500  1
  O  O5  1  0.72216600  0.31048200  0.73391600  1
  O  O6  1  0.78882600  0.72483200  0.25198000  1
  O  O7  1  0.78890300  0.72508500  0.73368100  1
loop_
_geom_bond_atom_site_label_1
_geom_bond_atom_site_label_2
_geom_bond_distance
_geom_bond_site_symmetry_2
Mg0 O2 2.131131 1_554
Mg0 O6 2.131131 1_455
Mg0 O7 2.131896 1_454
Mg0 O0 2.131896 1_555
Mg0 O4 2.198520 1_554
Mg0 O3 2.198520 1_455
Co0 O1 1.911834 1_545
Co0 O3 2.046074 1_455
Co0 O2 2.256182 1_554
Co0 O0 2.258757 1_555
Co1 O5 2.034494 1_555
Co1 O1 2.034494 1_555
Co1 O4 2.127050 1_555
Co1 O3 2.127050 1_555
Co1 O2 2.205943 1_555
Co1 O6 2.205943 1_555
Co2 O5 2.034104 1_554
Co2 O1 2.034104 1_555
Co2 O3 2.125834 1_555
Co2 O4 2.125834 1_554
Co2 O7 2.207357 1_554
Co2 O0 2.207357 1_555
Co3 O3 2.106898 1_555
Co3 O4 2.106898 1_545
Co3 O7 2.359752 1_545
Co3 O0 2.359752 1_555
Co3 O6 2.364265 1_545
Co3 O2 2.364265 1_555
Co4 O5 1.911834 1_565
Co4 O4 2.046074 1_655
Co4 O6 2.256182 1_556
Co4 O7 2.258757 1_555
O0 Sb0 2.051977 1_555
O1 Sb0 2.013571 1_555
O2 Sb0 2.051758 1_555
O5 Sb0 2.013571 1_655
O6 Sb0 2.051758 1_655
O7 Sb0 2.051977 1_655
