# generated using pymatgen
data_Sm12Al7Si
_symmetry_space_group_name_H-M   'P 1'
_cell_length_a   11.49197472
_cell_length_b   11.49197472
_cell_length_c   11.49197472
_cell_angle_alpha   117.68542228
_cell_angle_beta   117.68542228
_cell_angle_gamma   94.05801239
_symmetry_Int_Tables_number   1
_chemical_formula_structural   Sm12Al7Si
_chemical_formula_sum   'Sm24 Al14 Si2'
_cell_volume   1107.71028710
_cell_formula_units_Z   2
loop_
 _symmetry_equiv_pos_site_id
 _symmetry_equiv_pos_as_xyz
  1  'x, y, z'
loop_
 _atom_site_type_symbol
 _atom_site_label
 _atom_site_symmetry_multiplicity
 _atom_site_fract_x
 _atom_site_fract_y
 _atom_site_fract_z
 _atom_site_occupancy
  Sm  Sm0  1  0.83396700  0.70265400  0.26368200  1
  Sm  Sm1  1  0.16603300  0.29734600  0.73631800  1
  Sm  Sm2  1  0.43897200  0.57028500  0.73631800  1
  Sm  Sm3  1  0.70265400  0.43897200  0.86868700  1
  Sm  Sm4  1  0.06102800  0.79734600  0.13131300  1
  Sm  Sm5  1  0.56102800  0.42971500  0.26368200  1
  Sm  Sm6  1  0.29734600  0.56102800  0.13131300  1
  Sm  Sm7  1  0.93897200  0.20265400  0.86868700  1
  Sm  Sm8  1  0.57028500  0.83396700  0.13131300  1
  Sm  Sm9  1  0.66603300  0.92971500  0.86868700  1
  Sm  Sm10  1  0.42971500  0.16603300  0.86868700  1
  Sm  Sm11  1  0.33396700  0.07028500  0.13131300  1
  Sm  Sm12  1  0.92971500  0.06102800  0.26368200  1
  Sm  Sm13  1  0.07028500  0.93897200  0.73631800  1
  Sm  Sm14  1  0.79734600  0.66603300  0.73631800  1
  Sm  Sm15  1  0.20265400  0.33396700  0.26368200  1
  Sm  Sm16  1  0.16829500  0.66829500  0.83659000  1
  Sm  Sm17  1  0.83170500  0.33170500  0.16341000  1
  Sm  Sm18  1  0.66829500  0.83170500  0.50000000  1
  Sm  Sm19  1  0.33170500  0.16829500  0.50000000  1
  Sm  Sm20  1  0.14847700  0.64847700  0.50000000  1
  Sm  Sm21  1  0.85152300  0.35152300  0.50000000  1
  Sm  Sm22  1  0.64847700  0.14847700  0.50000000  1
  Sm  Sm23  1  0.35152300  0.85152300  0.50000000  1
  Al  Al0  1  0.38373400  0.88373400  0.85634400  1
  Al  Al1  1  0.61626600  0.11626600  0.14365600  1
  Al  Al2  1  0.02739000  0.52739000  0.14365600  1
  Al  Al3  1  0.88373400  0.02739000  0.50000000  1
  Al  Al4  1  0.47261000  0.61626600  0.50000000  1
  Al  Al5  1  0.97261000  0.47261000  0.85634400  1
  Al  Al6  1  0.11626600  0.97261000  0.50000000  1
  Al  Al7  1  0.52739000  0.38373400  0.50000000  1
  Al  Al8  1  0.50000000  0.50000000  0.00000000  1
  Al  Al9  1  0.00000000  0.00000000  0.00000000  1
  Al  Al10  1  0.61868700  0.11868700  0.73737300  1
  Al  Al11  1  0.38131300  0.88131300  0.26262700  1
  Al  Al12  1  0.11868700  0.38131300  0.50000000  1
  Al  Al13  1  0.88131300  0.61868700  0.50000000  1
  Si  Si0  1  0.75000000  0.75000000  0.00000000  1
  Si  Si1  1  0.25000000  0.25000000  0.00000000  1
loop_
_geom_bond_atom_site_label_1
_geom_bond_atom_site_label_2
_geom_bond_distance
_geom_bond_site_symmetry_2
Al0 Al1 2.788429 1_566
Al0 Sm20 3.126994 1_555
Al0 Sm9 3.175550 1_555
Al0 Sm10 3.175550 1_565
Al0 Sm16 3.224719 1_555
Al0 Sm8 3.235154 1_556
Al0 Sm11 3.235154 1_566
Al0 Sm13 3.435302 1_555
Al0 Sm2 3.435302 1_555
Al0 Sm23 3.769253 1_555
Al1 Sm21 3.126994 1_555
Al1 Sm8 3.175550 1_545
Al1 Sm11 3.175550 1_555
Al1 Sm17 3.224719 1_555
Al1 Sm9 3.235154 1_544
Al1 Sm10 3.235154 1_554
Al1 Sm5 3.435302 1_555
Al1 Sm12 3.435302 1_555
Al1 Sm22 3.769253 1_555
Al2 Al5 2.788429 1_454
Al2 Sm20 3.126994 1_555
Al2 Sm6 3.175550 1_555
Al2 Sm4 3.175550 1_555
Al2 Sm17 3.224719 1_455
Al2 Sm7 3.235154 1_454
Al2 Sm3 3.235154 1_454
Al2 Sm0 3.435302 1_455
Al2 Sm15 3.435302 1_555
Al2 Sm23 3.769253 1_555
Al3 Al6 2.788429 1_645
Al3 Sm22 3.126994 1_555
Al3 Sm1 3.175550 1_655
Al3 Sm12 3.175550 1_555
Al3 Sm18 3.224719 1_545
Al3 Sm13 3.235154 1_645
Al3 Sm0 3.235154 1_545
Al3 Sm7 3.435302 1_555
Al3 Sm8 3.435302 1_545
Al3 Sm21 3.769253 1_555
Al4 Al7 2.788429 1_555
Al4 Sm23 3.126994 1_555
Al4 Sm2 3.175550 1_555
Al4 Sm15 3.175550 1_555
Al4 Sm18 3.224719 1_555
Al4 Sm14 3.235154 1_555
Al4 Sm5 3.235154 1_555
Al4 Sm9 3.435302 1_555
Al4 Sm6 3.435302 1_555
Al4 Sm20 3.769253 1_555
Al5 Sm21 3.126994 1_555
Al5 Sm7 3.175550 1_555
Al5 Sm3 3.175550 1_555
Al5 Sm16 3.224719 1_655
Al5 Sm4 3.235154 1_656
Al5 Sm6 3.235154 1_656
Al5 Sm14 3.435302 1_555
Al5 Sm1 3.435302 1_655
Al5 Sm22 3.769253 1_555
Al6 Sm23 3.126994 1_555
Al6 Sm13 3.175550 1_555
Al6 Sm0 3.175550 1_455
Al6 Sm19 3.224719 1_565
Al6 Sm1 3.235154 1_565
Al6 Sm12 3.235154 1_465
Al6 Sm10 3.435302 1_565
Al6 Sm4 3.435302 1_555
Al6 Sm20 3.769253 1_555
Al7 Sm22 3.126994 1_555
Al7 Sm14 3.175550 1_555
Al7 Sm5 3.175550 1_555
Al7 Sm19 3.224719 1_555
Al7 Sm2 3.235154 1_555
Al7 Sm15 3.235154 1_555
Al7 Sm3 3.435302 1_555
Al7 Sm11 3.435302 1_555
Al7 Sm21 3.769253 1_555
Al8 Sm6 3.272043 1_555
Al8 Sm5 3.272043 1_555
Al8 Sm0 3.272043 1_555
Al8 Sm10 3.272043 1_554
Al8 Sm3 3.272043 1_554
Al8 Sm1 3.272043 1_554
Al8 Sm2 3.272043 1_554
Al8 Sm8 3.272043 1_555
Al9 Sm12 3.272043 1_455
Al9 Sm11 3.272043 1_555
Al9 Sm15 3.272043 1_555
Al9 Sm4 3.272043 1_545
Al9 Sm9 3.272043 1_444
Al9 Sm14 3.272043 1_444
Al9 Sm7 3.272043 1_454
Al9 Sm13 3.272043 1_544
Al10 Sm22 3.065086 1_555
Al10 Sm23 3.065098 1_545
Al10 Sm7 3.120714 1_555
Al10 Sm3 3.120714 1_555
Al10 Sm9 3.120725 1_545
Al10 Sm10 3.120725 1_555
Al10 Sm18 3.463296 1_545
Al10 Sm19 3.463296 1_555
Al10 Sm17 3.582402 1_556
Al11 Sm23 3.065086 1_555
Al11 Sm22 3.065098 1_565
Al11 Sm4 3.120714 1_555
Al11 Sm6 3.120714 1_555
Al11 Sm11 3.120725 1_565
Al11 Sm8 3.120725 1_555
Al11 Sm19 3.463296 1_565
Al11 Sm18 3.463296 1_555
Al11 Sm16 3.582402 1_554
Al12 Sm21 3.065098 1_455
Al12 Sm20 3.065098 1_555
Al12 Sm1 3.120716 1_555
Al12 Sm12 3.120716 1_455
Al12 Sm2 3.120716 1_555
Al12 Sm15 3.120716 1_555
Al12 Sm17 3.463301 1_455
Al12 Sm16 3.463301 1_555
Al12 Sm19 3.582394 1_555
Al13 Sm20 3.065098 1_655
Al13 Sm21 3.065098 1_555
Al13 Sm14 3.120716 1_555
Al13 Sm13 3.120716 1_655
Al13 Sm5 3.120716 1_555
Al13 Sm0 3.120716 1_555
Al13 Sm17 3.463301 1_555
Al13 Sm16 3.463301 1_655
Al13 Sm18 3.582394 1_555
Si0 Sm0 3.049382 1_555
Si0 Sm12 3.049382 1_565
Si0 Sm9 3.049382 1_554
Si0 Sm3 3.049382 1_554
Si0 Sm4 3.049382 1_655
Si0 Sm2 3.049382 1_554
Si0 Sm8 3.049382 1_555
Si0 Sm14 3.049382 1_554
Si1 Sm10 3.049382 1_554
Si1 Sm15 3.049382 1_555
Si1 Sm11 3.049382 1_555
Si1 Sm5 3.049382 1_555
Si1 Sm6 3.049382 1_555
Si1 Sm13 3.049382 1_544
Si1 Sm7 3.049382 1_454
Si1 Sm1 3.049382 1_554
