# generated using pymatgen
data_Si7NiN10
_symmetry_space_group_name_H-M   'P 1'
_cell_length_a   6.64040945
_cell_length_b   6.96207200
_cell_length_c   9.69529240
_cell_angle_alpha   90.00000000
_cell_angle_beta   103.13940403
_cell_angle_gamma   90.00000000
_symmetry_Int_Tables_number   1
_chemical_formula_structural   Si7NiN10
_chemical_formula_sum   'Si14 Ni2 N20'
_cell_volume   436.48860345
_cell_formula_units_Z   2
loop_
 _symmetry_equiv_pos_site_id
 _symmetry_equiv_pos_as_xyz
  1  'x, y, z'
loop_
 _atom_site_type_symbol
 _atom_site_label
 _atom_site_symmetry_multiplicity
 _atom_site_fract_x
 _atom_site_fract_y
 _atom_site_fract_z
 _atom_site_occupancy
  Si  Si0  1  0.54339200  0.98259900  0.82238300  1
  Si  Si1  1  0.54339200  0.01740100  0.32238300  1
  Si  Si2  1  0.34960400  0.01828900  0.02245700  1
  Si  Si3  1  0.34960400  0.98171100  0.52245700  1
  Si  Si4  1  0.11676800  0.40070700  0.07471000  1
  Si  Si5  1  0.11676800  0.59929300  0.57471000  1
  Si  Si6  1  0.65541400  0.36036900  0.98733500  1
  Si  Si7  1  0.65541400  0.63963100  0.48733500  1
  Si  Si8  1  0.84668700  0.61873600  0.81159400  1
  Si  Si9  1  0.84668700  0.38126400  0.31159400  1
  Si  Si10  1  0.29981400  0.62343900  0.88185700  1
  Si  Si11  1  0.29981400  0.37656100  0.38185700  1
  Si  Si12  1  0.48606100  0.36647800  0.68543700  1
  Si  Si13  1  0.48606100  0.63352200  0.18543700  1
  Ni  Ni0  1  0.97048100  0.88380100  0.68590800  1
  Ni  Ni1  1  0.97048100  0.11619900  0.18590800  1
  N  N0  1  0.75435300  0.84804100  0.80739600  1
  N  N1  1  0.75435300  0.15195900  0.30739600  1
  N  N2  1  0.54949000  0.13867000  0.96644800  1
  N  N3  1  0.54949000  0.86133000  0.46644800  1
  N  N4  1  0.32447300  0.86863900  0.86994600  1
  N  N5  1  0.32447300  0.13136100  0.36994600  1
  N  N6  1  0.15322600  0.16001800  0.05135800  1
  N  N7  1  0.15322600  0.83998200  0.55135800  1
  N  N8  1  0.28855600  0.50551200  0.72363400  1
  N  N9  1  0.28855600  0.49448800  0.22363400  1
  N  N10  1  0.45053700  0.12150400  0.67126200  1
  N  N11  1  0.45053700  0.87849600  0.17126200  1
  N  N12  1  0.87864300  0.37461600  0.12848000  1
  N  N13  1  0.87864300  0.62538400  0.62848000  1
  N  N14  1  0.07562700  0.56912500  0.93724200  1
  N  N15  1  0.07562700  0.43087500  0.43724200  1
  N  N16  1  0.70071300  0.41619400  0.82150900  1
  N  N17  1  0.70071300  0.58380600  0.32150900  1
  N  N18  1  0.49846100  0.54241700  0.02034700  1
  N  N19  1  0.49846100  0.45758300  0.52034700  1
loop_
_geom_bond_atom_site_label_1
_geom_bond_atom_site_label_2
_geom_bond_distance
_geom_bond_site_symmetry_2
N0 Si8 1.707296 1_555
N0 Si0 1.718629 1_555
N0 Ni0 2.068242 1_555
N1 Si9 1.707296 1_555
N1 Si1 1.718629 1_555
N1 Ni1 2.068242 1_555
N2 Si6 1.689182 1_555
N2 Si2 1.756921 1_556
N2 Si0 1.762808 1_545
N3 Si7 1.689182 1_555
N3 Si3 1.756921 1_555
N3 Si1 1.762808 1_565
N4 Si10 1.721318 1_555
N4 Si2 1.785368 1_566
N4 Si0 1.805597 1_555
N5 Si11 1.721318 1_555
N5 Si3 1.785368 1_545
N5 Si1 1.805597 1_555
N6 Si2 1.708439 1_555
N6 Si4 1.715442 1_555
N6 Ni1 1.996768 1_455
N7 Si3 1.708439 1_555
N7 Si5 1.715442 1_555
N7 Ni0 1.996768 1_455
N8 Si10 1.726479 1_555
N8 Si12 1.736372 1_555
N8 Si5 1.750284 1_555
N9 Si11 1.726479 1_555
N9 Si13 1.736372 1_555
N9 Si4 1.750284 1_555
N10 Si12 1.722967 1_555
N10 Si3 1.743048 1_545
N10 Si0 1.746820 1_545
N11 Si13 1.722967 1_555
N11 Si2 1.743048 1_565
N11 Si1 1.746820 1_565
N12 Si6 1.776948 1_554
N12 Si4 1.783223 1_655
N12 Si9 1.835836 1_555
N12 Ni1 1.940197 1_555
N13 Si7 1.776948 1_555
N13 Si5 1.783223 1_655
N13 Si8 1.835836 1_555
N13 Ni0 1.940197 1_555
N14 Si10 1.735216 1_555
N14 Si4 1.749365 1_556
N14 Si8 1.752852 1_455
N15 Si11 1.735216 1_555
N15 Si5 1.749365 1_555
N15 Si9 1.752852 1_455
N16 Si8 1.726156 1_555
N16 Si12 1.742704 1_555
N16 Si6 1.745339 1_555
N17 Si9 1.726156 1_555
N17 Si13 1.742704 1_555
N17 Si7 1.745339 1_555
N18 Si6 1.716604 1_554
N18 Si13 1.740953 1_555
N18 Si10 1.748088 1_554
N19 Si7 1.716604 1_555
N19 Si12 1.740953 1_555
N19 Si11 1.748088 1_555
