# generated using pymatgen
data_Ba2Li3Y3(MoO4)8
_symmetry_space_group_name_H-M   'P 1'
_cell_length_a   5.29310600
_cell_length_b   6.97660703
_cell_length_c   19.32710549
_cell_angle_alpha   89.05269416
_cell_angle_beta   88.90205182
_cell_angle_gamma   68.04069445
_symmetry_Int_Tables_number   1
_chemical_formula_structural   Ba2Li3Y3(MoO4)8
_chemical_formula_sum   'Ba2 Li3 Y3 Mo8 O32'
_cell_volume   661.77464367
_cell_formula_units_Z   1
loop_
 _symmetry_equiv_pos_site_id
 _symmetry_equiv_pos_as_xyz
  1  'x, y, z'
loop_
 _atom_site_type_symbol
 _atom_site_label
 _atom_site_symmetry_multiplicity
 _atom_site_fract_x
 _atom_site_fract_y
 _atom_site_fract_z
 _atom_site_occupancy
  Ba  Ba0  1  0.02850300  0.94159100  0.73737800  1
  Ba  Ba1  1  0.96943000  0.05953800  0.26569300  1
  Li  Li0  1  0.30914200  0.37063800  0.74236200  1
  Li  Li1  1  0.69408000  0.62611200  0.25894800  1
  Li  Li2  1  0.84984000  0.29258700  0.46483900  1
  Y  Y0  1  0.85689000  0.29527300  0.03348900  1
  Y  Y1  1  0.15108900  0.70659600  0.52830400  1
  Y  Y2  1  0.14286900  0.70520600  0.96777400  1
  Mo  Mo0  1  0.73452900  0.52445800  0.65016800  1
  Mo  Mo1  1  0.73608900  0.52131000  0.84977500  1
  Mo  Mo2  1  0.26709300  0.47388900  0.35072400  1
  Mo  Mo3  1  0.26437500  0.47914700  0.15057700  1
  Mo  Mo4  1  0.42917100  0.11785500  0.58993000  1
  Mo  Mo5  1  0.45235600  0.12033700  0.90834900  1
  Mo  Mo6  1  0.56854400  0.88351800  0.40841000  1
  Mo  Mo7  1  0.54823200  0.87917800  0.09182300  1
  O  O0  1  0.47593900  0.59830800  0.71842000  1
  O  O1  1  0.93232000  0.60288300  0.78947700  1
  O  O2  1  0.52309800  0.40395800  0.28126400  1
  O  O3  1  0.06570900  0.39702300  0.20957300  1
  O  O4  1  0.30265400  0.90959800  0.60586100  1
  O  O5  1  0.77471300  0.91035900  0.89719100  1
  O  O6  1  0.68166200  0.09210100  0.39367400  1
  O  O7  1  0.22654700  0.08891700  0.10234000  1
  O  O8  1  0.90662900  0.70415500  0.63531800  1
  O  O9  1  0.39103800  0.70396000  0.86813200  1
  O  O10  1  0.10653600  0.29139100  0.36282400  1
  O  O11  1  0.60935300  0.29527100  0.13171900  1
  O  O12  1  0.58591400  0.48579100  0.57135300  1
  O  O13  1  0.92615400  0.48034200  0.93275200  1
  O  O14  1  0.40147900  0.52695400  0.43096600  1
  O  O15  1  0.07578000  0.51922800  0.06737700  1
  O  O16  1  0.73510300  0.02686100  0.53790100  1
  O  O17  1  0.22194500  0.03767300  0.96364900  1
  O  O18  1  0.26994900  0.95561700  0.46509900  1
  O  O19  1  0.77812100  0.96164000  0.03604500  1
  O  O20  1  0.17992200  0.34207700  0.54863400  1
  O  O21  1  0.48956100  0.33774000  0.95653600  1
  O  O22  1  0.83368100  0.67491100  0.45385200  1
  O  O23  1  0.51188200  0.66156400  0.04307600  1
  O  O24  1  0.53864400  0.16725700  0.67383900  1
  O  O25  1  0.29072900  0.17569000  0.82755000  1
  O  O26  1  0.45856300  0.83028300  0.32534000  1
  O  O27  1  0.70982900  0.82404700  0.17226600  1
  O  O28  1  0.99523500  0.29623000  0.68211200  1
  O  O29  1  0.72026200  0.28367800  0.82421800  1
  O  O30  1  0.00016600  0.69942100  0.31790600  1
  O  O31  1  0.27865200  0.71784000  0.17519300  1
loop_
_geom_bond_atom_site_label_1
_geom_bond_atom_site_label_2
_geom_bond_distance
_geom_bond_site_symmetry_2
Ba0 O28 2.624394 1_465
Ba0 O0 2.689365 1_555
Ba0 O1 2.767387 1_455
Ba0 O24 2.777550 1_465
Ba0 O8 2.829661 1_455
Ba0 O4 2.872573 1_555
Ba0 O29 2.879246 1_465
Ba0 O25 3.084372 1_565
Ba0 O9 3.238061 1_555
Ba0 O5 3.380812 1_455
Ba1 O30 2.640776 1_645
Ba1 O2 2.682679 1_555
Ba1 O26 2.747109 1_645
Ba1 O10 2.774489 1_655
Ba1 O3 2.787756 1_655
Ba1 O6 2.846984 1_555
Ba1 O31 2.920829 1_645
Ba1 O27 3.119197 1_545
Ba1 O11 3.278105 1_555
Ba1 O7 3.447360 1_655
Li0 O24 1.988532 1_555
Li0 O0 2.127280 1_555
Li0 O25 2.142196 1_555
Li0 O1 2.234935 1_455
Li0 O28 2.263932 1_455
Li0 O29 2.592133 1_555
Li1 O26 1.975001 1_555
Li1 O2 2.102195 1_555
Li1 O27 2.173658 1_555
Li1 O30 2.212380 1_655
Li1 O3 2.227475 1_655
Li2 O10 2.371289 1_655
Li2 O6 2.383764 1_555
Li2 O14 2.419974 1_555
Li2 O20 2.524420 1_655
Li2 O16 2.553865 1_555
Li2 O18 2.561608 1_645
Li2 O12 2.565061 1_555
Li2 O22 2.641660 1_555
Mo0 O28 1.782566 1_555
Mo0 O12 1.797254 1_555
Mo0 O0 1.817920 1_555
Mo0 O8 1.821015 1_555
Mo1 O29 1.769760 1_555
Mo1 O1 1.770483 1_555
Mo1 O9 1.826165 1_555
Mo1 O13 1.870104 1_555
Mo2 O10 1.786000 1_555
Mo2 O30 1.792475 1_555
Mo2 O14 1.818342 1_555
Mo2 O2 1.825903 1_555
Mo3 O3 1.765559 1_555
Mo3 O31 1.768294 1_555
Mo3 O11 1.830527 1_555
Mo3 O15 1.870373 1_555
Mo4 O16 1.796185 1_555
Mo4 O20 1.811132 1_555
Mo4 O24 1.813390 1_555
Mo4 O4 1.832825 1_545
Mo5 O25 1.761768 1_555
Mo5 O5 1.797448 1_545
Mo5 O17 1.848786 1_555
Mo5 O21 1.866478 1_555
Mo6 O6 1.785671 1_565
Mo6 O26 1.808784 1_555
Mo6 O18 1.818977 1_555
Mo6 O22 1.826579 1_555
Mo7 O27 1.755531 1_555
Mo7 O7 1.793005 1_565
Mo7 O19 1.851100 1_555
Mo7 O23 1.871446 1_555
O4 Y1 2.421220 1_555
O5 Y2 2.378703 1_655
O7 Y0 2.366744 1_455
O8 Y1 2.421797 1_655
O9 Y2 2.308532 1_555
O11 Y0 2.285983 1_555
O12 Y1 2.396221 1_555
O13 Y2 2.376094 1_655
O13 Y0 2.415714 1_556
O14 Y1 2.367813 1_555
O15 Y0 2.372633 1_455
O15 Y2 2.398161 1_554
O16 Y1 2.488685 1_645
O17 Y0 2.483663 1_456
O17 Y2 2.506049 1_545
O18 Y1 2.371533 1_555
O19 Y2 2.462984 1_654
O19 Y0 2.513032 1_565
O20 Y1 2.514766 1_555
O21 Y0 2.396987 1_556
O21 Y2 2.543955 1_555
O22 Y1 2.307161 1_655
O23 Y2 2.382311 1_554
O23 Y0 2.532214 1_555
