# generated using pymatgen
data_Li3CuS2
_symmetry_space_group_name_H-M   'P 1'
_cell_length_a   6.95830036
_cell_length_b   6.95830036
_cell_length_c   6.95830036
_cell_angle_alpha   131.72869160
_cell_angle_beta   129.01137865
_cell_angle_gamma   72.83773284
_symmetry_Int_Tables_number   1
_chemical_formula_structural   Li3CuS2
_chemical_formula_sum   'Li6 Cu2 S4'
_cell_volume   190.85870767
_cell_formula_units_Z   2
loop_
 _symmetry_equiv_pos_site_id
 _symmetry_equiv_pos_as_xyz
  1  'x, y, z'
loop_
 _atom_site_type_symbol
 _atom_site_label
 _atom_site_symmetry_multiplicity
 _atom_site_fract_x
 _atom_site_fract_y
 _atom_site_fract_z
 _atom_site_occupancy
  Li  Li0  1  0.98556922  0.23556922  0.75000000  1
  Li  Li1  1  0.48556922  0.23556922  0.25000000  1
  Li  Li2  1  0.75000000  0.50000000  0.25000000  1
  Li  Li3  1  0.25000000  0.50000000  0.75000000  1
  Li  Li4  1  0.51443078  0.76443078  0.75000000  1
  Li  Li5  1  0.01443078  0.76443078  0.25000000  1
  Cu  Cu0  1  0.50000000  -0.00000000  0.50000000  1
  Cu  Cu1  1  -0.00000000  -0.00000000  0.00000000  1
  S  S0  1  0.86686749  0.13895699  0.27208949  1
  S  S1  1  0.36686749  0.59478000  0.22791051  1
  S  S2  1  0.63313251  0.40522000  0.77208949  1
  S  S3  1  0.13313251  0.86104301  0.72791051  1
loop_
_geom_bond_atom_site_label_1
_geom_bond_atom_site_label_2
_geom_bond_distance
_geom_bond_site_symmetry_2
Li0 S2 2.440441 1_555
Li0 S3 2.440443 1_645
Li0 S0 2.467080 1_555
Li0 S1 2.467086 1_656
Li1 S3 2.440443 1_544
Li1 S2 2.440449 1_555
Li1 S0 2.467080 1_555
Li1 S1 2.467093 1_555
Li2 S2 2.479370 1_554
Li2 S1 2.479377 1_555
Li2 S0 2.479377 1_555
Li2 S3 2.479377 1_655
Li3 S1 2.479370 1_556
Li3 S2 2.479377 1_555
Li3 S3 2.479377 1_555
Li3 S0 2.479377 1_455
Li4 S0 2.440443 1_566
Li4 S1 2.440449 1_555
Li4 S3 2.467080 1_555
Li4 S2 2.467093 1_555
Li5 S1 2.440441 1_555
Li5 S0 2.440443 1_465
Li5 S3 2.467080 1_555
Li5 S2 2.467086 1_454
Cu0 S2 2.149428 1_555
Cu0 S1 2.149428 1_545
Cu1 S0 2.149440 1_455
Cu1 S3 2.149440 1_544
