# generated using pymatgen
data_MgV5(MoO5)5
_symmetry_space_group_name_H-M   'P 1'
_cell_length_a   19.18892397
_cell_length_b   5.53459160
_cell_length_c   6.38740517
_cell_angle_alpha   100.31728433
_cell_angle_beta   104.97813437
_cell_angle_gamma   46.93591113
_symmetry_Int_Tables_number   1
_chemical_formula_structural   MgV5(MoO5)5
_chemical_formula_sum   'Mg1 V5 Mo5 O25'
_cell_volume   478.76210772
_cell_formula_units_Z   1
loop_
 _symmetry_equiv_pos_site_id
 _symmetry_equiv_pos_as_xyz
  1  'x, y, z'
loop_
 _atom_site_type_symbol
 _atom_site_label
 _atom_site_symmetry_multiplicity
 _atom_site_fract_x
 _atom_site_fract_y
 _atom_site_fract_z
 _atom_site_occupancy
  Mg  Mg0  1  0.97623200  0.58791200  0.26037700  1
  V  V0  1  0.03588400  0.15738600  0.61506600  1
  V  V1  1  0.22180400  0.19399800  0.61329200  1
  V  V2  1  0.40412000  0.96075900  0.98572200  1
  V  V3  1  0.59847500  0.96333600  0.97747400  1
  V  V4  1  0.78148100  0.04281100  0.97763800  1
  Mo  Mo0  1  0.98259000  0.06914500  0.00999800  1
  Mo  Mo1  1  0.20575400  0.97643100  0.01322900  1
  Mo  Mo2  1  0.42441800  0.15373000  0.58675900  1
  Mo  Mo3  1  0.62905100  0.13430400  0.57697900  1
  Mo  Mo4  1  0.83260800  0.14200100  0.59029000  1
  O  O0  1  0.03127800  0.13760400  0.31163500  1
  O  O1  1  0.08648100  0.04278400  0.93987100  1
  O  O2  1  0.15232100  0.09230100  0.68633700  1
  O  O3  1  0.03647200  0.66853800  0.09478900  1
  O  O4  1  0.20959200  0.08521600  0.29707600  1
  O  O5  1  0.13601800  0.60556300  0.59049900  1
  O  O6  1  0.27054200  0.09681400  0.93857300  1
  O  O7  1  0.34871600  0.08044200  0.66011000  1
  O  O8  1  0.29235300  0.55147000  0.01285800  1
  O  O9  1  0.41679600  0.06093600  0.30040300  1
  O  O10  1  0.34419000  0.58115900  0.58903400  1
  O  O11  1  0.47620100  0.05606900  0.91491800  1
  O  O12  1  0.55180600  0.05000400  0.64693800  1
  O  O13  1  0.48108300  0.55269600  0.98844600  1
  O  O14  1  0.61254700  0.06731100  0.28817700  1
  O  O15  1  0.54343700  0.56281800  0.58825900  1
  O  O16  1  0.67660000  0.03471700  0.90475500  1
  O  O17  1  0.74779200  0.07025000  0.62764400  1
  O  O18  1  0.67631800  0.54781500  0.99576800  1
  O  O19  1  0.83947800  0.02221000  0.30213400  1
  O  O20  1  0.74216700  0.57035200  0.56181600  1
  O  O21  1  0.85826500  0.12913400  0.91583500  1
  O  O22  1  0.94797000  0.08636800  0.66282300  1
  O  O23  1  0.89075400  0.55694800  0.00271900  1
  O  O24  1  0.95082400  0.58200500  0.61384900  1
loop_
_geom_bond_atom_site_label_1
_geom_bond_atom_site_label_2
_geom_bond_distance
_geom_bond_site_symmetry_2
Mg0 O0 1.988163 1_655
Mg0 O3 2.039473 1_655
Mg0 O19 2.062339 1_565
Mg0 O23 2.077444 1_555
Mg0 O24 2.439979 1_555
Mo0 O3 1.813383 1_645
Mo0 O23 1.975321 1_555
Mo0 O0 2.004993 1_655
Mo0 O1 2.058437 1_654
Mo0 O21 2.100365 1_554
Mo0 O22 2.143755 1_554
Mo1 O8 1.719256 1_555
Mo1 O4 1.804324 1_565
Mo1 O6 1.941212 1_564
Mo1 O1 1.988000 1_564
Mo1 O2 2.072998 1_564
Mo2 O10 1.729824 1_555
Mo2 O9 1.805125 1_555
Mo2 O7 1.928401 1_555
Mo2 O12 2.032132 1_555
Mo2 O11 2.066119 1_555
Mo2 O15 2.389904 1_545
Mo3 O15 1.734353 1_555
Mo3 O14 1.803900 1_555
Mo3 O12 1.993966 1_555
Mo3 O17 1.994710 1_555
Mo3 O16 2.063678 1_555
Mo3 O20 2.282829 1_545
Mo4 O20 1.742977 1_555
Mo4 O19 1.847591 1_555
Mo4 O22 1.949346 1_555
Mo4 O17 1.995184 1_555
Mo4 O21 2.011791 1_555
Mo4 O24 2.272380 1_545
O0 V0 1.903900 1_555
O1 V0 2.058727 1_555
O2 V1 1.937175 1_555
O2 V0 1.939837 1_555
O4 V1 2.002352 1_555
O5 V1 1.671470 1_555
O5 V0 2.239289 1_565
O6 V1 2.046886 1_555
O6 V2 2.067409 1_545
O7 V1 2.003955 1_555
O7 V2 2.069662 1_545
O8 V2 2.394176 1_544
O9 V2 1.984671 1_544
O10 V1 2.483046 1_565
O11 V2 1.949641 1_545
O11 V3 1.967883 1_545
O12 V3 2.070829 1_545
O13 V2 1.651633 1_555
O13 V3 2.384195 1_545
O14 V3 1.966919 1_544
O16 V3 1.963082 1_545
O16 V4 1.974958 1_555
O17 V4 2.163143 1_555
O18 V3 1.687755 1_555
O18 V4 2.049389 1_555
O19 V4 2.065578 1_554
O21 V4 1.970922 1_555
O22 V0 2.075546 1_655
O23 V4 1.983417 1_564
O24 V0 1.717189 1_655
