# generated using pymatgen
data_YbN3O14
_symmetry_space_group_name_H-M   'P 1'
_cell_length_a   6.33214400
_cell_length_b   9.44627171
_cell_length_c   10.06128744
_cell_angle_alpha   115.32253239
_cell_angle_beta   88.13601423
_cell_angle_gamma   103.30039687
_symmetry_Int_Tables_number   1
_chemical_formula_structural   YbN3O14
_chemical_formula_sum   'Yb2 N6 O28'
_cell_volume   527.91379371
_cell_formula_units_Z   2
loop_
 _symmetry_equiv_pos_site_id
 _symmetry_equiv_pos_as_xyz
  1  'x, y, z'
loop_
 _atom_site_type_symbol
 _atom_site_label
 _atom_site_symmetry_multiplicity
 _atom_site_fract_x
 _atom_site_fract_y
 _atom_site_fract_z
 _atom_site_occupancy
  Yb  Yb0  1  0.25164100  0.86053200  0.21348700  1
  Yb  Yb1  1  0.74835900  0.13946800  0.78651300  1
  N  N0  1  0.04466400  0.77121900  0.93000000  1
  N  N1  1  0.95533600  0.22878100  0.07000000  1
  N  N2  1  0.00036700  0.71603800  0.38521100  1
  N  N3  1  0.99963300  0.28396200  0.61478900  1
  N  N4  1  0.48838500  0.19389000  0.37004300  1
  N  N5  1  0.51161500  0.80611000  0.62995700  1
  O  O0  1  0.20578300  0.89367500  0.99049300  1
  O  O1  1  0.79421700  0.10632500  0.00950700  1
  O  O2  1  0.97944600  0.69113000  0.00506400  1
  O  O3  1  0.02055400  0.30887000  0.99493600  1
  O  O4  1  0.95738400  0.73439100  0.80845100  1
  O  O5  1  0.04261600  0.26560900  0.19154900  1
  O  O6  1  0.00582900  0.64074800  0.24514900  1
  O  O7  1  0.99417100  0.35925200  0.75485100  1
  O  O8  1  0.11828400  0.86031200  0.44495900  1
  O  O9  1  0.88171600  0.13968800  0.55504100  1
  O  O10  1  0.88672000  0.65372300  0.45656000  1
  O  O11  1  0.11328000  0.34627700  0.54344000  1
  O  O12  1  0.42358800  0.10104900  0.43365900  1
  O  O13  1  0.57641200  0.89895100  0.56634100  1
  O  O14  1  0.41903800  0.13733800  0.23535900  1
  O  O15  1  0.58096200  0.86266200  0.76464100  1
  O  O16  1  0.61232200  0.32804900  0.43442800  1
  O  O17  1  0.38767800  0.67195100  0.56557200  1
  O  O18  1  0.39034600  0.56140400  0.93494100  1
  O  O19  1  0.60965400  0.43859600  0.06505900  1
  O  O20  1  0.46882300  0.63298800  0.22162900  1
  O  O21  1  0.53117700  0.36701200  0.77837100  1
  O  O22  1  0.68579500  0.91174200  0.17124100  1
  O  O23  1  0.31420500  0.08825800  0.82875900  1
  O  O24  1  0.86301500  0.95910000  0.24157900  1
  O  O25  1  0.13698500  0.04090000  0.75842100  1
  O  O26  1  0.50334200  0.49088300  0.17969000  1
  O  O27  1  0.49665800  0.50911700  0.82031000  1
loop_
_geom_bond_atom_site_label_1
_geom_bond_atom_site_label_2
_geom_bond_distance
_geom_bond_site_symmetry_2
N0 O4 1.230292 1_455
N0 O2 1.279849 1_456
N0 O0 1.282387 1_555
N1 O5 1.230292 1_655
N1 O3 1.279849 1_654
N1 O1 1.282387 1_555
N2 O10 1.229901 1_455
N2 O8 1.279224 1_555
N2 O6 1.282059 1_555
N3 O11 1.229901 1_655
N3 O9 1.279224 1_555
N3 O7 1.282059 1_555
N4 O16 1.230764 1_555
N4 O14 1.275152 1_555
N4 O12 1.282453 1_555
N5 O17 1.230764 1_555
N5 O15 1.275152 1_555
N5 O13 1.282453 1_555
O0 Yb0 2.429237 1_556
O1 Yb1 2.429237 1_554
O2 Yb0 2.454467 1_655
O3 Yb1 2.454467 1_455
O6 Yb0 2.425120 1_555
O7 Yb1 2.425120 1_555
O8 Yb0 2.451995 1_555
O9 Yb1 2.451995 1_555
O12 Yb0 2.442944 1_545
O13 Yb1 2.442944 1_565
O14 Yb0 2.501356 1_545
O15 Yb1 2.501356 1_565
O18 O27 1.281598 1_555
O19 O26 1.281598 1_555
O20 O26 1.293149 1_555
O20 Yb0 2.834801 1_555
O21 O27 1.293149 1_555
O21 Yb1 2.834801 1_555
O22 O24 1.228864 1_555
O22 Yb0 2.731364 1_555
O23 O25 1.228864 1_555
O23 Yb1 2.731364 1_555
O24 Yb0 2.790417 1_655
O25 Yb1 2.790417 1_455
