# generated using pymatgen
data_LiMg14Al
_symmetry_space_group_name_H-M   'P 1'
_cell_length_a   6.29875743
_cell_length_b   6.29875693
_cell_length_c   10.36596452
_cell_angle_alpha   90.00000000
_cell_angle_beta   90.00000000
_cell_angle_gamma   120.00000258
_symmetry_Int_Tables_number   1
_chemical_formula_structural   LiMg14Al
_chemical_formula_sum   'Li1 Mg14 Al1'
_cell_volume   356.16404181
_cell_formula_units_Z   1
loop_
 _symmetry_equiv_pos_site_id
 _symmetry_equiv_pos_as_xyz
  1  'x, y, z'
loop_
 _atom_site_type_symbol
 _atom_site_label
 _atom_site_symmetry_multiplicity
 _atom_site_fract_x
 _atom_site_fract_y
 _atom_site_fract_z
 _atom_site_occupancy
  Li  Li0  1  0.16666700  0.33333300  0.62500000  1
  Mg  Mg0  1  0.16597557  0.83298728  0.12500000  1
  Mg  Mg1  1  0.16755267  0.83377584  0.62500000  1
  Mg  Mg2  1  0.66701272  0.33402443  0.12500000  1
  Mg  Mg3  1  0.66622416  0.33244733  0.62500000  1
  Mg  Mg4  1  0.66701272  0.83298728  0.12500000  1
  Mg  Mg5  1  0.66622416  0.83377584  0.62500000  1
  Mg  Mg6  1  0.33205331  0.16794669  0.37417379  1
  Mg  Mg7  1  0.33205331  0.16794669  0.87582621  1
  Mg  Mg8  1  0.33205331  0.66410763  0.37417379  1
  Mg  Mg9  1  0.33205331  0.66410763  0.87582621  1
  Mg  Mg10  1  0.83589237  0.16794669  0.37417379  1
  Mg  Mg11  1  0.83589237  0.16794669  0.87582621  1
  Mg  Mg12  1  0.83333300  0.66666700  0.37561052  1
  Mg  Mg13  1  0.83333300  0.66666700  0.87438948  1
  Al  Al0  1  0.16666700  0.33333300  0.12500000  1
loop_
_geom_bond_atom_site_label_1
_geom_bond_atom_site_label_2
_geom_bond_distance
_geom_bond_site_symmetry_2
Li0 Mg1 3.149382 1_545
Li0 Mg5 3.149382 1_555
Li0 Mg5 3.149382 1_445
Li0 Mg1 3.149382 1_555
Li0 Mg3 3.149382 1_555
Li0 Mg3 3.149382 1_455
Li0 Mg6 3.164788 1_555
Li0 Mg7 3.164788 1_555
Li0 Mg8 3.164794 1_555
Li0 Mg9 3.164794 1_555
Li0 Mg10 3.164794 1_455
Li0 Mg11 3.164794 1_455
Mg0 Mg2 3.142846 1_455
Mg0 Mg4 3.142846 1_455
Mg0 Mg2 3.155911 1_565
Mg0 Mg4 3.155911 1_555
Mg0 Mg9 3.163871 1_554
Mg0 Mg8 3.163871 1_555
Mg0 Mg7 3.163877 1_564
Mg0 Mg6 3.163877 1_565
Mg0 Mg13 3.168781 1_454
Mg0 Mg12 3.168781 1_455
Mg1 Mg3 3.141011 1_565
Mg1 Mg5 3.141011 1_555
Mg1 Mg3 3.157746 1_455
Mg1 Mg5 3.157747 1_455
Mg1 Mg12 3.163363 1_455
Mg1 Mg13 3.163363 1_455
Mg1 Mg8 3.175428 1_555
Mg1 Mg9 3.175428 1_555
Mg1 Mg6 3.175434 1_565
Mg1 Mg7 3.175434 1_565
Mg2 Mg4 3.142846 1_555
Mg2 Mg4 3.155911 1_545
Mg2 Mg7 3.163877 1_554
Mg2 Mg6 3.163877 1_555
Mg3 Mg5 3.141011 1_545
Mg3 Mg5 3.157746 1_555
Mg3 Mg6 3.175434 1_555
Mg3 Mg7 3.175434 1_555
Mg4 Mg9 3.163877 1_554
Mg4 Mg8 3.163877 1_555
Mg5 Mg8 3.175434 1_555
Mg5 Mg9 3.175434 1_555
Mg6 Mg8 3.125197 1_555
Mg6 Mg8 3.173560 1_545
Mg7 Mg9 3.125197 1_555
Mg7 Mg9 3.173560 1_545
Mg10 Mg8 3.125197 1_655
Mg10 Mg6 3.125197 1_655
Mg10 Mg12 3.149445 1_555
Mg10 Mg12 3.149445 1_545
Mg10 Mg2 3.163871 1_555
Mg10 Mg4 3.163877 1_545
Mg10 Mg8 3.173560 1_545
Mg10 Mg6 3.173560 1_555
Mg10 Mg3 3.175428 1_555
Mg10 Mg5 3.175434 1_545
Mg11 Mg9 3.125197 1_655
Mg11 Mg7 3.125197 1_655
Mg11 Mg13 3.149445 1_555
Mg11 Mg13 3.149445 1_545
Mg11 Mg2 3.163871 1_556
Mg11 Mg4 3.163877 1_546
Mg11 Mg9 3.173560 1_545
Mg11 Mg7 3.173560 1_555
Mg11 Mg3 3.175428 1_555
Mg11 Mg5 3.175434 1_545
Mg12 Mg6 3.149445 1_665
Mg12 Mg6 3.149445 1_555
Mg12 Mg8 3.149445 1_655
Mg12 Mg8 3.149445 1_555
Mg12 Mg5 3.163357 1_555
Mg12 Mg3 3.163363 1_555
Mg12 Mg4 3.168775 1_555
Mg12 Mg2 3.168781 1_555
Mg13 Mg7 3.149445 1_665
Mg13 Mg7 3.149445 1_555
Mg13 Mg9 3.149445 1_655
Mg13 Mg9 3.149445 1_555
Mg13 Mg5 3.163357 1_555
Mg13 Mg3 3.163363 1_555
Mg13 Mg4 3.168775 1_556
Mg13 Mg2 3.168781 1_556
Al0 Mg0 3.149381 1_555
Al0 Mg4 3.149381 1_445
Al0 Mg4 3.149381 1_555
Al0 Mg0 3.149381 1_545
Al0 Mg2 3.149381 1_455
Al0 Mg2 3.149381 1_555
Al0 Mg7 3.150731 1_554
Al0 Mg6 3.150731 1_555
Al0 Mg9 3.150737 1_554
Al0 Mg8 3.150737 1_555
Al0 Mg11 3.150737 1_454
Al0 Mg10 3.150737 1_455
