# generated using pymatgen
data_Sr8MgP4(IO4)4
_symmetry_space_group_name_H-M   'P 1'
_cell_length_a   8.59320025
_cell_length_b   9.28664527
_cell_length_c   9.65654622
_cell_angle_alpha   83.29781395
_cell_angle_beta   109.03700034
_cell_angle_gamma   89.34065175
_symmetry_Int_Tables_number   1
_chemical_formula_structural   Sr8MgP4(IO4)4
_chemical_formula_sum   'Sr8 Mg1 P4 I4 O16'
_cell_volume   722.47798247
_cell_formula_units_Z   1
loop_
 _symmetry_equiv_pos_site_id
 _symmetry_equiv_pos_as_xyz
  1  'x, y, z'
loop_
 _atom_site_type_symbol
 _atom_site_label
 _atom_site_symmetry_multiplicity
 _atom_site_fract_x
 _atom_site_fract_y
 _atom_site_fract_z
 _atom_site_occupancy
  Sr  Sr0  1  0.98122562  0.82112882  0.87402322  1
  Sr  Sr1  1  0.53718104  0.27959030  0.12989734  1
  Sr  Sr2  1  0.02357402  0.18406020  0.13123738  1
  Sr  Sr3  1  0.48469467  0.71184023  0.89708022  1
  Sr  Sr4  1  0.45749626  0.80821566  0.26130176  1
  Sr  Sr5  1  0.08638768  0.37086421  0.78442175  1
  Sr  Sr6  1  0.44996724  0.08865940  0.68932085  1
  Sr  Sr7  1  0.94859890  0.64882169  0.24784773  1
  Mg  Mg0  1  0.61245133  0.39738898  0.68891720  1
  P  P0  1  0.26040369  0.54875129  0.06858174  1
  P  P1  1  0.25807115  0.06143516  0.95452279  1
  P  P2  1  0.77795299  0.46992079  0.97639364  1
  P  P3  1  0.74564184  0.94486556  0.05187014  1
  I  I0  1  0.12988706  0.30204299  0.46737779  1
  I  I1  1  0.27390951  0.79653834  0.52393139  1
  I  I2  1  0.81632245  0.64200072  0.54843659  1
  I  I3  1  0.67349037  0.06400904  0.46452121  1
  O  O0  1  0.19510580  0.59980946  0.89714926  1
  O  O1  1  0.32463361  0.05388786  0.12608884  1
  O  O2  1  0.82654700  0.40832310  0.14226311  1
  O  O3  1  0.66906726  0.93292362  0.88229495  1
  O  O4  1  0.81220960  0.63362159  0.96437338  1
  O  O5  1  0.72479642  0.10034992  0.08522841  1
  O  O6  1  0.23100322  0.38438589  0.09137651  1
  O  O7  1  0.28535735  0.91184224  0.90674252  1
  O  O8  1  0.34431822  0.18317510  0.88481828  1
  O  O9  1  0.17782693  0.65025506  0.14459998  1
  O  O10  1  0.66617662  0.82771585  0.13416874  1
  O  O11  1  0.86962626  0.38114776  0.89749004  1
  O  O12  1  0.93518384  0.90412530  0.10299947  1
  O  O13  1  0.58887117  0.45580556  0.89777179  1
  O  O14  1  0.06952811  0.10413009  0.89838355  1
  O  O15  1  0.44999279  0.57122519  0.12742543  1
loop_
_geom_bond_atom_site_label_1
_geom_bond_atom_site_label_2
_geom_bond_distance
_geom_bond_site_symmetry_2
Mg0 O13 2.218636 1_555
Mg0 O11 2.445601 1_555
I0 Sr5 3.334527 1_555
I0 Sr6 3.335131 1_555
I0 Sr2 3.389689 1_555
I0 Sr7 3.664495 1_455
I1 Sr4 3.388530 1_555
I1 Sr6 3.424690 1_565
I1 Sr3 3.454185 1_555
I1 Sr7 3.589444 1_455
I2 Mg0 3.315472 1_555
I2 Sr7 3.439846 1_555
I2 Sr5 3.463377 1_655
I2 Sr4 3.590609 1_555
I2 Sr0 3.609555 1_555
I3 Sr6 3.358580 1_555
I3 Sr4 3.428164 1_545
I3 Sr1 3.433421 1_555
O0 P0 1.576345 1_556
O0 Sr5 2.549649 1_555
O0 Sr0 2.681472 1_455
O0 Sr3 2.708418 1_555
O1 P1 1.559049 1_554
O1 Sr4 2.546701 1_545
O1 Sr1 2.791575 1_555
O1 Sr2 2.860540 1_555
O2 P2 1.552879 1_554
O2 Sr7 2.648696 1_555
O2 Sr2 2.702505 1_655
O2 Sr1 2.744920 1_555
O3 P3 1.570947 1_556
O3 Sr6 2.475576 1_565
O3 Sr3 2.626761 1_555
O3 Sr0 2.893917 1_555
O4 P2 1.550043 1_555
O4 Sr0 2.536344 1_555
O4 Sr7 2.624478 1_556
O4 Sr3 2.742347 1_555
O5 P3 1.536567 1_545
O5 Sr1 2.472953 1_555
O5 Sr2 2.603069 1_655
O6 P0 1.552068 1_555
O6 Sr2 2.672653 1_555
O6 Sr1 2.688123 1_555
O6 Sr5 2.834361 1_554
O7 P1 1.552571 1_565
O7 Sr3 2.542463 1_555
O7 Sr0 2.685857 1_455
O8 P1 1.564483 1_555
O8 Sr6 2.577797 1_555
O8 Sr5 2.646783 1_555
O8 Sr1 2.668206 1_556
O9 P0 1.554631 1_555
O9 Sr7 2.480530 1_455
O9 Sr4 2.810285 1_555
O9 Sr0 2.879244 1_454
O10 P3 1.565495 1_555
O10 Sr4 2.479391 1_555
O10 Sr3 2.667612 1_554
O10 Sr7 2.756538 1_555
O11 P2 1.550484 1_555
O11 Sr5 2.453119 1_655
O11 Sr2 2.688291 1_656
O12 P3 1.567615 1_555
O12 Sr0 2.569267 1_554
O12 Sr7 2.589483 1_555
O12 Sr2 2.735925 1_665
O13 P2 1.567487 1_555
O13 Sr3 2.529490 1_555
O13 Sr1 2.776646 1_556
O14 P1 1.561462 1_555
O14 Sr2 2.593272 1_556
O14 Sr5 2.616080 1_555
O14 Sr0 2.758977 1_445
O15 P0 1.565966 1_555
O15 Sr3 2.550590 1_554
O15 Sr4 2.670614 1_555
O15 Sr1 2.797033 1_555
