# generated using pymatgen
data_CaCu10Te4(As2O17)2
_symmetry_space_group_name_H-M   'P 1'
_cell_length_a   8.98496300
_cell_length_b   9.02243361
_cell_length_c   10.30161913
_cell_angle_alpha   110.58138114
_cell_angle_beta   102.45125389
_cell_angle_gamma   86.83287466
_symmetry_Int_Tables_number   1
_chemical_formula_structural   CaCu10Te4(As2O17)2
_chemical_formula_sum   'Ca1 Cu10 Te4 As4 O34'
_cell_volume   763.23014136
_cell_formula_units_Z   1
loop_
 _symmetry_equiv_pos_site_id
 _symmetry_equiv_pos_as_xyz
  1  'x, y, z'
loop_
 _atom_site_type_symbol
 _atom_site_label
 _atom_site_symmetry_multiplicity
 _atom_site_fract_x
 _atom_site_fract_y
 _atom_site_fract_z
 _atom_site_occupancy
  Ca  Ca0  1  0.00000000  0.50000000  0.50000000  1
  Cu  Cu0  1  0.98445700  0.16661800  0.74830300  1
  Cu  Cu1  1  0.01554300  0.83338200  0.25169700  1
  Cu  Cu2  1  0.50872200  0.69812400  0.82825300  1
  Cu  Cu3  1  0.49127800  0.30187600  0.17174700  1
  Cu  Cu4  1  0.61314500  0.60401300  0.50001300  1
  Cu  Cu5  1  0.38685500  0.39598700  0.49998700  1
  Cu  Cu6  1  0.62874500  0.31117700  0.83461400  1
  Cu  Cu7  1  0.37125500  0.68882300  0.16538600  1
  Cu  Cu8  1  0.37649300  0.05151000  0.74783400  1
  Cu  Cu9  1  0.62350700  0.94849000  0.25216600  1
  Te  Te0  1  0.85622100  0.54574600  0.84120900  1
  Te  Te1  1  0.14377900  0.45425400  0.15879100  1
  Te  Te2  1  0.16844700  0.87190900  0.83697600  1
  Te  Te3  1  0.83155300  0.12809100  0.16302400  1
  As  As0  1  0.72311100  0.92408100  0.76156500  1
  As  As1  1  0.27688900  0.07591900  0.23843500  1
  As  As2  1  0.27476600  0.43037500  0.78579700  1
  As  As3  1  0.72523400  0.56962500  0.21420300  1
  O  O0  1  0.17646700  0.06651100  0.79377000  1
  O  O1  1  0.82353300  0.93348900  0.20623000  1
  O  O2  1  0.90755300  0.99840000  0.81705000  1
  O  O3  1  0.09244700  0.00160000  0.18295000  1
  O  O4  1  0.70481700  0.80989800  0.86341000  1
  O  O5  1  0.29518300  0.19010200  0.13659000  1
  O  O6  1  0.38701000  0.87741000  0.82538000  1
  O  O7  1  0.61299000  0.12259000  0.17462000  1
  O  O8  1  0.83530700  0.32124400  0.82899500  1
  O  O9  1  0.16469300  0.67875600  0.17100500  1
  O  O10  1  0.60723100  0.08944500  0.81082500  1
  O  O11  1  0.39276900  0.91055500  0.18917500  1
  O  O12  1  0.63881900  0.52593900  0.85115200  1
  O  O13  1  0.36118100  0.47406100  0.14884800  1
  O  O14  1  0.47187000  0.59388100  0.60253400  1
  O  O15  1  0.52813000  0.40611900  0.39746600  1
  O  O16  1  0.34238700  0.62230400  0.88665500  1
  O  O17  1  0.65761300  0.37769600  0.11334500  1
  O  O18  1  0.11191600  0.39835600  0.83461900  1
  O  O19  1  0.88808400  0.60164400  0.16538100  1
  O  O20  1  0.23426500  0.40421100  0.60823000  1
  O  O21  1  0.76573500  0.59578900  0.39177000  1
  O  O22  1  0.09574500  0.73287800  0.65943100  1
  O  O23  1  0.90425500  0.26712200  0.34056900  1
  O  O24  1  0.65716100  0.82426300  0.58566500  1
  O  O25  1  0.34283900  0.17573700  0.41433500  1
  O  O26  1  0.41147900  0.29489900  0.81747700  1
  O  O27  1  0.58852100  0.70510100  0.18252300  1
  O  O28  1  0.32089900  0.96708000  0.55556000  1
  O  O29  1  0.67910100  0.03292000  0.44444000  1
  O  O30  1  0.93022600  0.10292800  0.55445100  1
  O  O31  1  0.06977400  0.89707200  0.44554900  1
  O  O32  1  0.83413800  0.51467900  0.65217900  1
  O  O33  1  0.16586200  0.48532100  0.34782100  1
loop_
_geom_bond_atom_site_label_1
_geom_bond_atom_site_label_2
_geom_bond_distance
_geom_bond_site_symmetry_2
Ca0 O22 2.239752 1_555
Ca0 O23 2.239752 1_455
Ca0 O33 2.352815 1_555
Ca0 O32 2.352815 1_455
Ca0 O20 2.425893 1_555
Ca0 O21 2.425893 1_455
Cu0 O30 1.833065 1_555
Cu0 O0 1.946356 1_655
Cu0 O8 1.972719 1_555
Cu0 O2 2.089292 1_545
Cu0 O18 2.234308 1_655
Cu1 O31 1.833065 1_555
Cu1 O1 1.946356 1_455
Cu1 O9 1.972719 1_555
Cu1 O3 2.089292 1_565
Cu1 O19 2.234308 1_455
Cu2 O6 1.907260 1_555
Cu2 O12 1.942565 1_555
Cu2 O16 1.963050 1_555
Cu2 O4 1.979110 1_555
Cu2 O14 2.136798 1_555
Cu3 O7 1.907260 1_555
Cu3 O13 1.942565 1_555
Cu3 O17 1.963050 1_555
Cu3 O5 1.979110 1_555
Cu3 O15 2.136798 1_555
Cu4 O15 1.834127 1_555
Cu4 O14 1.842231 1_555
Cu4 O24 1.894062 1_555
Cu4 O21 1.928320 1_555
Cu4 O32 2.533540 1_555
Cu5 O14 1.834127 1_555
Cu5 O15 1.842231 1_555
Cu5 O25 1.894062 1_555
Cu5 O20 1.928320 1_555
Cu5 O33 2.533540 1_555
Cu6 O8 1.877447 1_555
Cu6 O12 1.890089 1_555
Cu6 O26 1.930901 1_555
Cu6 O10 1.943523 1_555
Cu7 O9 1.877447 1_555
Cu7 O13 1.890089 1_555
Cu7 O27 1.930901 1_555
Cu7 O11 1.943523 1_555
Cu8 O28 1.818698 1_545
Cu8 O0 1.940903 1_555
Cu8 O6 1.986910 1_545
Cu8 O10 2.044116 1_555
Cu8 O26 2.075363 1_555
Cu9 O29 1.818698 1_565
Cu9 O1 1.940903 1_555
Cu9 O7 1.986910 1_565
Cu9 O11 2.044116 1_555
Cu9 O27 2.075363 1_555
As0 O24 1.701271 1_555
As0 O2 1.722647 1_555
As0 O4 1.744163 1_555
As0 O10 1.758255 1_565
As1 O25 1.701271 1_555
As1 O3 1.722647 1_555
As1 O5 1.744163 1_555
As1 O11 1.758255 1_545
As2 O18 1.715683 1_555
As2 O20 1.718451 1_555
As2 O16 1.739656 1_555
As2 O26 1.746752 1_555
As3 O19 1.715683 1_555
As3 O21 1.718451 1_555
As3 O17 1.739656 1_555
As3 O27 1.746752 1_555
O0 Te2 1.965535 1_545
O1 Te3 1.965535 1_565
O2 Te2 2.549730 1_655
O3 Te3 2.549730 1_455
O6 Te2 1.997314 1_555
O7 Te3 1.997314 1_555
O8 Te0 2.001671 1_555
O9 Te1 2.001671 1_555
O12 Te0 1.998930 1_555
O13 Te1 1.998930 1_555
O18 Te0 2.591778 1_455
O19 Te1 2.591778 1_655
O22 Te2 1.818721 1_555
O23 Te3 1.818721 1_555
O32 Te0 1.834597 1_555
O33 Te1 1.834597 1_555
