# generated using pymatgen
data_Er6Al43V4
_symmetry_space_group_name_H-M   'P 1'
_cell_length_a   10.99316735
_cell_length_b   10.99316735
_cell_length_c   17.55920800
_cell_angle_alpha   90.00000000
_cell_angle_beta   90.00000000
_cell_angle_gamma   119.99999606
_symmetry_Int_Tables_number   1
_chemical_formula_structural   Er6Al43V4
_chemical_formula_sum   'Er12 Al86 V8'
_cell_volume   1837.72807697
_cell_formula_units_Z   2
loop_
 _symmetry_equiv_pos_site_id
 _symmetry_equiv_pos_as_xyz
  1  'x, y, z'
loop_
 _atom_site_type_symbol
 _atom_site_label
 _atom_site_symmetry_multiplicity
 _atom_site_fract_x
 _atom_site_fract_y
 _atom_site_fract_z
 _atom_site_occupancy
  Er  Er0  1  0.53045100  0.00000000  0.59577000  1
  Er  Er1  1  0.46954900  0.00000000  0.40423000  1
  Er  Er2  1  0.00000000  0.53045100  0.59577000  1
  Er  Er3  1  0.46954900  0.00000000  0.09577000  1
  Er  Er4  1  0.00000000  0.53045100  0.90423000  1
  Er  Er5  1  0.00000000  0.46954900  0.40423000  1
  Er  Er6  1  0.53045100  0.00000000  0.90423000  1
  Er  Er7  1  0.00000000  0.46954900  0.09577000  1
  Er  Er8  1  0.46954900  0.46954900  0.59577000  1
  Er  Er9  1  0.53045100  0.53045100  0.40423000  1
  Er  Er10  1  0.53045100  0.53045100  0.09577000  1
  Er  Er11  1  0.46954900  0.46954900  0.90423000  1
  Al  Al0  1  0.14607400  0.59787400  0.75000000  1
  Al  Al1  1  0.85392600  0.40212600  0.25000000  1
  Al  Al2  1  0.40212600  0.54820000  0.75000000  1
  Al  Al3  1  0.59787400  0.14607400  0.75000000  1
  Al  Al4  1  0.59787400  0.45180000  0.25000000  1
  Al  Al5  1  0.40212600  0.85392600  0.25000000  1
  Al  Al6  1  0.45180000  0.85392600  0.75000000  1
  Al  Al7  1  0.54820000  0.40212600  0.75000000  1
  Al  Al8  1  0.54820000  0.14607400  0.25000000  1
  Al  Al9  1  0.45180000  0.59787400  0.25000000  1
  Al  Al10  1  0.85392600  0.45180000  0.75000000  1
  Al  Al11  1  0.14607400  0.54820000  0.25000000  1
  Al  Al12  1  0.15565900  0.00000000  0.11557300  1
  Al  Al13  1  0.84434100  0.00000000  0.88442700  1
  Al  Al14  1  0.00000000  0.15565900  0.11557300  1
  Al  Al15  1  0.84434100  0.00000000  0.61557300  1
  Al  Al16  1  0.00000000  0.15565900  0.38442700  1
  Al  Al17  1  0.00000000  0.84434100  0.88442700  1
  Al  Al18  1  0.15565900  0.00000000  0.38442700  1
  Al  Al19  1  0.00000000  0.84434100  0.61557300  1
  Al  Al20  1  0.84434100  0.84434100  0.11557300  1
  Al  Al21  1  0.15565900  0.15565900  0.88442700  1
  Al  Al22  1  0.15565900  0.15565900  0.61557300  1
  Al  Al23  1  0.84434100  0.84434100  0.38442700  1
  Al  Al24  1  0.24689600  0.49379100  0.50000000  1
  Al  Al25  1  0.75310400  0.50620900  0.50000000  1
  Al  Al26  1  0.50620900  0.75310400  0.50000000  1
  Al  Al27  1  0.75310400  0.50620900  0.00000000  1
  Al  Al28  1  0.49379100  0.24689600  0.00000000  1
  Al  Al29  1  0.49379100  0.24689600  0.50000000  1
  Al  Al30  1  0.24689600  0.49379100  0.00000000  1
  Al  Al31  1  0.50620900  0.75310400  0.00000000  1
  Al  Al32  1  0.24689600  0.75310400  0.50000000  1
  Al  Al33  1  0.75310400  0.24689600  0.50000000  1
  Al  Al34  1  0.75310400  0.24689600  0.00000000  1
  Al  Al35  1  0.24689600  0.75310400  0.00000000  1
  Al  Al36  1  0.14538200  0.00000000  0.75000000  1
  Al  Al37  1  0.85461800  0.00000000  0.25000000  1
  Al  Al38  1  0.00000000  0.14538200  0.75000000  1
  Al  Al39  1  0.00000000  0.85461800  0.25000000  1
  Al  Al40  1  0.85461800  0.85461800  0.75000000  1
  Al  Al41  1  0.14538200  0.14538200  0.25000000  1
  Al  Al42  1  0.33333300  0.66666700  0.62735500  1
  Al  Al43  1  0.66666700  0.33333300  0.37264500  1
  Al  Al44  1  0.66666700  0.33333300  0.12735500  1
  Al  Al45  1  0.66666700  0.33333300  0.87264500  1
  Al  Al46  1  0.33333300  0.66666700  0.87264500  1
  Al  Al47  1  0.33333300  0.66666700  0.12735500  1
  Al  Al48  1  0.33333300  0.66666700  0.37264500  1
  Al  Al49  1  0.66666700  0.33333300  0.62735500  1
  Al  Al50  1  0.25311900  0.00000000  0.52991700  1
  Al  Al51  1  0.74688100  0.00000000  0.47008300  1
  Al  Al52  1  0.00000000  0.25311900  0.52991700  1
  Al  Al53  1  0.74688100  0.00000000  0.02991700  1
  Al  Al54  1  0.00000000  0.25311900  0.97008300  1
  Al  Al55  1  0.00000000  0.74688100  0.47008300  1
  Al  Al56  1  0.25311900  0.00000000  0.97008300  1
  Al  Al57  1  0.00000000  0.74688100  0.02991700  1
  Al  Al58  1  0.74688100  0.74688100  0.52991700  1
  Al  Al59  1  0.25311900  0.25311900  0.47008300  1
  Al  Al60  1  0.25311900  0.25311900  0.02991700  1
  Al  Al61  1  0.74688100  0.74688100  0.97008300  1
  Al  Al62  1  0.15757100  0.39187700  0.66539800  1
  Al  Al63  1  0.84242900  0.60812300  0.33460200  1
  Al  Al64  1  0.60812300  0.76569400  0.66539800  1
  Al  Al65  1  0.84242900  0.60812300  0.16539800  1
  Al  Al66  1  0.39187700  0.15757100  0.83460200  1
  Al  Al67  1  0.39187700  0.23430600  0.33460200  1
  Al  Al68  1  0.15757100  0.39187700  0.83460200  1
  Al  Al69  1  0.60812300  0.84242900  0.16539800  1
  Al  Al70  1  0.23430600  0.84242900  0.66539800  1
  Al  Al71  1  0.39187700  0.23430600  0.16539800  1
  Al  Al72  1  0.76569400  0.60812300  0.83460200  1
  Al  Al73  1  0.76569400  0.15757100  0.33460200  1
  Al  Al74  1  0.60812300  0.76569400  0.83460200  1
  Al  Al75  1  0.23430600  0.39187700  0.16539800  1
  Al  Al76  1  0.60812300  0.84242900  0.33460200  1
  Al  Al77  1  0.39187700  0.15757100  0.66539800  1
  Al  Al78  1  0.76569400  0.15757100  0.16539800  1
  Al  Al79  1  0.23430600  0.39187700  0.33460200  1
  Al  Al80  1  0.23430600  0.84242900  0.83460200  1
  Al  Al81  1  0.76569400  0.60812300  0.66539800  1
  Al  Al82  1  0.84242900  0.23430600  0.83460200  1
  Al  Al83  1  0.15757100  0.76569400  0.16539800  1
  Al  Al84  1  0.15757100  0.76569400  0.33460200  1
  Al  Al85  1  0.84242900  0.23430600  0.66539800  1
  V  V0  1  0.00000000  0.00000000  0.50000000  1
  V  V1  1  0.00000000  0.00000000  0.00000000  1
  V  V2  1  0.73015500  0.00000000  0.75000000  1
  V  V3  1  0.26984500  0.00000000  0.25000000  1
  V  V4  1  0.00000000  0.73015500  0.75000000  1
  V  V5  1  0.00000000  0.26984500  0.25000000  1
  V  V6  1  0.26984500  0.26984500  0.75000000  1
  V  V7  1  0.73015500  0.73015500  0.25000000  1
loop_
_geom_bond_atom_site_label_1
_geom_bond_atom_site_label_2
_geom_bond_distance
_geom_bond_site_symmetry_2
Er0 Er1 3.429280 1_555
Er0 V2 3.486231 1_555
Er1 V3 3.486231 1_555
Er2 Er5 3.429280 1_555
Er2 V4 3.486231 1_555
Er3 Er6 3.429280 1_554
Er3 V3 3.486231 1_555
Er4 Er7 3.429280 1_556
Er4 V4 3.486231 1_555
Er5 V5 3.486231 1_555
Er6 V2 3.486231 1_555
Er7 V5 3.486231 1_555
Er8 Er9 3.429280 1_555
Er8 V6 3.486231 1_555
Er9 V7 3.486231 1_555
Er10 Er11 3.429280 1_554
Er10 V7 3.486231 1_555
Er11 V6 3.486231 1_555
Al0 V4 2.651125 1_555
Al0 Al68 2.763559 1_555
Al0 Al62 2.763559 1_555
Al0 Al10 2.781355 1_455
Al0 Al80 2.787055 1_555
Al0 Al70 2.787055 1_555
Al0 Al46 2.809021 1_555
Al0 Al42 2.809021 1_555
Al0 Er2 3.044980 1_555
Al0 Er4 3.044980 1_555
Al1 V5 2.651125 1_655
Al1 Al63 2.763559 1_555
Al1 Al65 2.763559 1_555
Al1 Al11 2.781355 1_655
Al1 Al73 2.787055 1_555
Al1 Al78 2.787055 1_555
Al1 Al44 2.809021 1_555
Al1 Al43 2.809021 1_555
Al1 Er7 3.044980 1_655
Al1 Er5 3.044980 1_655
Al2 V6 2.651125 1_555
Al2 Al74 2.763559 1_555
Al2 Al64 2.763559 1_555
Al2 Al7 2.781355 1_555
Al2 Al68 2.787055 1_555
Al2 Al62 2.787055 1_555
Al2 Al42 2.809028 1_555
Al2 Al46 2.809028 1_555
Al2 Er8 3.044980 1_555
Al2 Er11 3.044980 1_555
Al3 V2 2.651125 1_555
Al3 Al66 2.763559 1_555
Al3 Al77 2.763559 1_555
Al3 Al6 2.781355 1_545
Al3 Al82 2.787055 1_555
Al3 Al85 2.787055 1_555
Al3 Al49 2.809021 1_555
Al3 Al45 2.809021 1_555
Al3 Er0 3.044980 1_555
Al3 Er6 3.044980 1_555
Al4 V7 2.651125 1_555
Al4 Al71 2.763559 1_555
Al4 Al67 2.763559 1_555
Al4 Al9 2.781355 1_555
Al4 Al63 2.787055 1_555
Al4 Al65 2.787055 1_555
Al4 Al43 2.809028 1_555
Al4 Al44 2.809028 1_555
Al4 Er10 3.044980 1_555
Al4 Er9 3.044980 1_555
Al5 V3 2.651125 1_565
Al5 Al76 2.763559 1_555
Al5 Al69 2.763559 1_555
Al5 Al8 2.781355 1_565
Al5 Al83 2.787055 1_555
Al5 Al84 2.787055 1_555
Al5 Er3 3.044980 1_565
Al5 Er1 3.044980 1_565
Al6 V2 2.651125 1_565
Al6 Al80 2.763559 1_555
Al6 Al70 2.763559 1_555
Al6 Al74 2.787055 1_555
Al6 Al64 2.787055 1_555
Al6 Er0 3.044980 1_565
Al6 Er6 3.044980 1_565
Al7 V6 2.651125 1_555
Al7 Al72 2.763559 1_555
Al7 Al81 2.763559 1_555
Al7 Al77 2.787055 1_555
Al7 Er8 3.044980 1_555
Al7 Er11 3.044980 1_555
Al8 V3 2.651125 1_555
Al8 Er3 3.044980 1_555
Al8 Er1 3.044980 1_555
Al9 V7 2.651125 1_555
Al9 Er10 3.044980 1_555
Al9 Er9 3.044980 1_555
Al10 V4 2.651125 1_655
Al10 Al82 2.763559 1_555
Al10 Al85 2.763559 1_555
Al10 Al72 2.787055 1_555
Al10 Al81 2.787055 1_555
Al10 Al45 2.809023 1_555
Al10 Al49 2.809023 1_555
Al10 Er2 3.044980 1_655
Al10 Er4 3.044980 1_655
Al11 V5 2.651125 1_555
Al11 Al83 2.763559 1_555
Al11 Al84 2.763559 1_555
Al11 Al79 2.787055 1_555
Al11 Al75 2.787055 1_555
Al11 Al48 2.809023 1_555
Al11 Al47 2.809023 1_555
Al11 Er7 3.044980 1_555
Al11 Er5 3.044980 1_555
Al12 V1 2.654524 1_555
Al12 V3 2.673449 1_555
Al12 Al83 2.730307 1_545
Al12 Al71 2.730307 1_555
Al12 Al56 2.770257 1_554
Al12 Al60 2.858595 1_555
Al12 Al57 2.858595 1_545
Al12 Al41 2.884308 1_555
Al12 Al39 2.884308 1_545
Al12 Al14 2.963860 1_555
Al12 Al20 2.963860 1_445
Al12 Er3 3.468121 1_555
Al13 V1 2.654524 1_656
Al13 V2 2.673449 1_555
Al13 Al82 2.730307 1_555
Al13 Al74 2.730307 1_545
Al13 Al53 2.770257 1_556
Al13 Al61 2.858595 1_545
Al13 Al54 2.858595 1_655
Al13 Al40 2.884308 1_545
Al13 Al38 2.884308 1_655
Al13 Al17 2.963860 1_645
Al13 Al21 2.963860 1_655
Al13 Er6 3.468121 1_555
Al14 V1 2.654524 1_555
Al14 V5 2.673449 1_555
Al14 Al78 2.730307 1_455
Al14 Al75 2.730307 1_555
Al14 Al54 2.770257 1_554
Al14 Al60 2.858595 1_555
Al14 Al53 2.858595 1_455
Al14 Al41 2.884308 1_555
Al14 Al37 2.884308 1_455
Al14 Al20 2.963860 1_445
Al14 Er7 3.468121 1_555
Al15 V0 2.654524 1_655
Al15 V2 2.673449 1_555
Al15 Al85 2.730307 1_555
Al15 Al64 2.730307 1_545
Al15 Al51 2.770257 1_555
Al15 Al58 2.858595 1_545
Al15 Al52 2.858595 1_655
Al15 Al40 2.884308 1_545
Al15 Al38 2.884308 1_655
Al15 Al19 2.963860 1_645
Al15 Al22 2.963860 1_655
Al15 Er0 3.468121 1_555
Al16 V0 2.654524 1_555
Al16 V5 2.673449 1_555
Al16 Al73 2.730307 1_455
Al16 Al79 2.730307 1_555
Al16 Al52 2.770257 1_555
Al16 Al59 2.858595 1_555
Al16 Al51 2.858595 1_455
Al16 Al41 2.884308 1_555
Al16 Al37 2.884308 1_455
Al16 Al18 2.963860 1_555
Al16 Al23 2.963860 1_445
Al16 Er5 3.468121 1_555
Al17 V1 2.654524 1_566
Al17 V4 2.673449 1_555
Al17 Al80 2.730307 1_555
Al17 Al72 2.730307 1_455
Al17 Al57 2.770257 1_556
Al17 Al61 2.858595 1_455
Al17 Al56 2.858595 1_565
Al17 Al40 2.884308 1_455
Al17 Al36 2.884308 1_565
Al17 Al21 2.963860 1_565
Al17 Er4 3.468121 1_555
Al18 V0 2.654524 1_555
Al18 V3 2.673449 1_555
Al18 Al84 2.730307 1_545
Al18 Al67 2.730307 1_555
Al18 Al50 2.770257 1_555
Al18 Al59 2.858595 1_555
Al18 Al55 2.858595 1_545
Al18 Al41 2.884308 1_555
Al18 Al39 2.884308 1_545
Al18 Al23 2.963860 1_445
Al18 Er1 3.468121 1_555
Al19 V0 2.654524 1_565
Al19 V4 2.673449 1_555
Al19 Al70 2.730307 1_555
Al19 Al81 2.730307 1_455
Al19 Al55 2.770257 1_555
Al19 Al58 2.858595 1_455
Al19 Al50 2.858595 1_565
Al19 Al40 2.884308 1_455
Al19 Al36 2.884308 1_565
Al19 Al22 2.963860 1_565
Al19 Er2 3.468121 1_555
Al20 V1 2.654524 1_665
Al20 V7 2.673449 1_555
Al20 Al69 2.730307 1_555
Al20 Al65 2.730307 1_555
Al20 Al61 2.770257 1_554
Al20 Al57 2.858595 1_655
Al20 Al53 2.858595 1_565
Al20 Al37 2.884308 1_565
Al20 Al39 2.884308 1_655
Al20 Er10 3.468122 1_555
Al21 V1 2.654524 1_556
Al21 V6 2.673449 1_555
Al21 Al68 2.730307 1_555
Al21 Al66 2.730307 1_555
Al21 Al60 2.770257 1_556
Al21 Al56 2.858595 1_555
Al21 Al54 2.858595 1_555
Al21 Al36 2.884308 1_555
Al21 Al38 2.884308 1_555
Al21 Er11 3.468122 1_555
Al22 V0 2.654524 1_555
Al22 V6 2.673449 1_555
Al22 Al62 2.730307 1_555
Al22 Al77 2.730307 1_555
Al22 Al59 2.770257 1_555
Al22 Al52 2.858595 1_555
Al22 Al50 2.858595 1_555
Al22 Al38 2.884308 1_555
Al22 Al36 2.884308 1_555
Al22 Er8 3.468122 1_555
Al23 V0 2.654524 1_665
Al23 V7 2.673449 1_555
Al23 Al76 2.730307 1_555
Al23 Al63 2.730307 1_555
Al23 Al58 2.770257 1_555
Al23 Al55 2.858595 1_655
Al23 Al51 2.858595 1_565
Al23 Al39 2.884308 1_655
Al23 Al37 2.884308 1_565
Al23 Er9 3.468122 1_555
Al24 Al59 2.731596 1_555
Al24 Al52 2.731602 1_555
Al24 Al42 2.776621 1_555
Al24 Al48 2.776621 1_555
Al24 Al32 2.850671 1_555
Al24 Al26 2.850671 1_555
Al24 Er8 3.089060 1_555
Al24 Er5 3.089069 1_555
Al24 Al79 3.090956 1_555
Al24 Al62 3.090957 1_555
Al24 Er9 3.383908 1_555
Al24 Er2 3.383917 1_555
Al25 Al58 2.731596 1_555
Al25 Al55 2.731602 1_655
Al25 Al49 2.776621 1_555
Al25 Al43 2.776621 1_555
Al25 Al33 2.850671 1_555
Al25 Al29 2.850671 1_555
Al25 Er9 3.089060 1_555
Al25 Er2 3.089069 1_655
Al25 Al81 3.090956 1_555
Al25 Al63 3.090957 1_555
Al25 Er8 3.383908 1_555
Al25 Er5 3.383917 1_655
Al26 Al58 2.731596 1_555
Al26 Al51 2.731602 1_565
Al26 Al42 2.776621 1_555
Al26 Al48 2.776621 1_555
Al26 Al32 2.850671 1_555
Al26 Er9 3.089060 1_555
Al26 Er0 3.089069 1_565
Al26 Al64 3.090956 1_555
Al26 Al76 3.090957 1_555
Al26 Er8 3.383908 1_555
Al26 Er1 3.383917 1_565
Al27 Al61 2.731596 1_554
Al27 Al57 2.731602 1_655
Al27 Al45 2.776621 1_554
Al27 Al44 2.776621 1_555
Al27 Al34 2.850671 1_555
Al27 Al28 2.850671 1_555
Al27 Er10 3.089060 1_555
Al27 Er4 3.089069 1_654
Al27 Al72 3.090956 1_554
Al27 Al65 3.090957 1_555
Al27 Er11 3.383908 1_554
Al27 Er7 3.383917 1_655
Al28 Al60 2.731596 1_555
Al28 Al56 2.731602 1_554
Al28 Al45 2.776621 1_554
Al28 Al44 2.776621 1_555
Al28 Al34 2.850671 1_555
Al28 Er11 3.089060 1_554
Al28 Er3 3.089069 1_555
Al28 Al71 3.090956 1_555
Al28 Al66 3.090957 1_554
Al28 Er10 3.383908 1_555
Al28 Er6 3.383917 1_554
Al29 Al59 2.731596 1_555
Al29 Al50 2.731602 1_555
Al29 Al49 2.776621 1_555
Al29 Al43 2.776621 1_555
Al29 Al33 2.850671 1_555
Al29 Er8 3.089060 1_555
Al29 Er1 3.089069 1_555
Al29 Al67 3.090956 1_555
Al29 Al77 3.090957 1_555
Al29 Er9 3.383908 1_555
Al29 Er0 3.383917 1_555
Al30 Al60 2.731596 1_555
Al30 Al54 2.731602 1_554
Al30 Al46 2.776621 1_554
Al30 Al47 2.776621 1_555
Al30 Al35 2.850671 1_555
Al30 Al31 2.850671 1_555
Al30 Er11 3.089060 1_554
Al30 Er7 3.089069 1_555
Al30 Al75 3.090956 1_555
Al30 Al68 3.090957 1_554
Al30 Er10 3.383908 1_555
Al30 Er4 3.383917 1_554
Al31 Al61 2.731596 1_554
Al31 Al53 2.731602 1_565
Al31 Al46 2.776621 1_554
Al31 Al47 2.776621 1_555
Al31 Al35 2.850671 1_555
Al31 Er10 3.089060 1_555
Al31 Er6 3.089069 1_564
Al31 Al74 3.090956 1_554
Al31 Al69 3.090957 1_555
Al31 Er11 3.383908 1_554
Al31 Er3 3.383917 1_565
Al32 Al55 2.731607 1_555
Al32 Al50 2.731607 1_565
Al32 Al48 2.776610 1_555
Al32 Al42 2.776610 1_555
Al32 Er2 3.089065 1_555
Al32 Er1 3.089065 1_565
Al32 Al70 3.090960 1_555
Al32 Al84 3.090960 1_555
Al32 Er5 3.383912 1_555
Al32 Er0 3.383912 1_565
Al33 Al51 2.731607 1_555
Al33 Al52 2.731607 1_655
Al33 Al49 2.776610 1_555
Al33 Al43 2.776610 1_555
Al33 Er0 3.089065 1_555
Al33 Er5 3.089065 1_655
Al33 Al85 3.090960 1_555
Al33 Al73 3.090960 1_555
Al33 Er1 3.383912 1_555
Al33 Er2 3.383912 1_655
Al34 Al53 2.731607 1_555
Al34 Al54 2.731607 1_654
Al34 Al44 2.776610 1_555
Al34 Al45 2.776610 1_554
Al34 Er6 3.089065 1_554
Al34 Er7 3.089065 1_655
Al34 Al78 3.090960 1_555
Al34 Al82 3.090960 1_554
Al34 Er3 3.383912 1_555
Al34 Er4 3.383912 1_654
Al35 Al57 2.731607 1_555
Al35 Al56 2.731607 1_564
Al35 Al47 2.776610 1_555
Al35 Al46 2.776610 1_554
Al35 Er4 3.089065 1_554
Al35 Er3 3.089065 1_565
Al35 Al83 3.090960 1_555
Al35 Al80 3.090960 1_554
Al35 Er7 3.383912 1_555
Al35 Er6 3.383912 1_564
Al36 V6 2.571594 1_555
Al36 V4 2.571594 1_545
Al36 Al38 2.768179 1_555
Al36 Al40 2.768179 1_445
Al36 Al80 2.802912 1_545
Al36 Al70 2.802912 1_545
Al36 Al66 2.802912 1_555
Al36 Al77 2.802912 1_555
Al37 V7 2.571594 1_545
Al37 V5 2.571594 1_655
Al37 Al39 2.768179 1_645
Al37 Al41 2.768179 1_655
Al37 Al78 2.802912 1_555
Al37 Al73 2.802912 1_555
Al37 Al69 2.802912 1_545
Al37 Al76 2.802912 1_545
Al38 V6 2.571594 1_555
Al38 V2 2.571594 1_455
Al38 Al40 2.768179 1_445
Al38 Al82 2.802912 1_455
Al38 Al85 2.802912 1_455
Al38 Al68 2.802912 1_555
Al38 Al62 2.802912 1_555
Al39 V7 2.571594 1_455
Al39 V3 2.571594 1_565
Al39 Al41 2.768179 1_565
Al39 Al84 2.802912 1_555
Al39 Al83 2.802912 1_555
Al39 Al65 2.802912 1_455
Al39 Al63 2.802912 1_455
Al40 V4 2.571594 1_655
Al40 V2 2.571594 1_565
Al40 Al72 2.802912 1_555
Al40 Al74 2.802912 1_555
Al40 Al64 2.802912 1_555
Al40 Al81 2.802912 1_555
Al41 V3 2.571594 1_555
Al41 V5 2.571594 1_555
Al41 Al75 2.802912 1_555
Al41 Al79 2.802912 1_555
Al41 Al67 2.802912 1_555
Al41 Al71 2.802912 1_555
Al42 Al70 2.732775 1_555
Al42 Al62 2.732784 1_555
Al42 Al64 2.732785 1_555
Al42 Al6 2.809023 1_555
Al42 Er2 3.238894 1_555
Al42 Er0 3.238896 1_565
Al42 Er8 3.238904 1_555
Al43 Al73 2.732775 1_555
Al43 Al63 2.732784 1_555
Al43 Al67 2.732785 1_555
Al43 Al8 2.809023 1_555
Al43 Er5 3.238894 1_655
Al43 Er1 3.238896 1_555
Al43 Er9 3.238904 1_555
Al44 Al78 2.732775 1_555
Al44 Al65 2.732784 1_555
Al44 Al71 2.732785 1_555
Al44 Al8 2.809023 1_555
Al44 Er7 3.238894 1_655
Al44 Er3 3.238896 1_555
Al44 Er10 3.238904 1_555
Al45 Al82 2.732775 1_555
Al45 Al66 2.732784 1_555
Al45 Al72 2.732785 1_555
Al45 Al7 2.809028 1_555
Al45 Er6 3.238894 1_555
Al45 Er4 3.238896 1_655
Al45 Er11 3.238904 1_555
Al46 Al80 2.732775 1_555
Al46 Al68 2.732784 1_555
Al46 Al74 2.732785 1_555
Al46 Al6 2.809023 1_555
Al46 Er4 3.238894 1_555
Al46 Er6 3.238896 1_565
Al46 Er11 3.238904 1_555
Al47 Al83 2.732775 1_555
Al47 Al69 2.732784 1_555
Al47 Al75 2.732785 1_555
Al47 Al5 2.809021 1_555
Al47 Al9 2.809028 1_555
Al47 Er3 3.238894 1_565
Al47 Er7 3.238896 1_555
Al47 Er10 3.238904 1_555
Al48 Al84 2.732775 1_555
Al48 Al76 2.732784 1_555
Al48 Al79 2.732785 1_555
Al48 Al5 2.809021 1_555
Al48 Al9 2.809028 1_555
Al48 Er1 3.238894 1_565
Al48 Er5 3.238896 1_555
Al48 Er9 3.238904 1_555
Al49 Al85 2.732775 1_555
Al49 Al77 2.732784 1_555
Al49 Al81 2.732785 1_555
Al49 Al7 2.809028 1_555
Al49 Er0 3.238894 1_555
Al49 Er2 3.238896 1_655
Al49 Er8 3.238904 1_555
Al50 V0 2.831732 1_555
Al50 Al70 2.888669 1_545
Al50 Al77 2.888669 1_555
Al50 Al59 2.974321 1_555
Al50 Al55 2.974322 1_545
Al50 Er1 3.245231 1_555
Al50 Er0 3.260676 1_555
Al51 V0 2.831732 1_655
Al51 Al73 2.888669 1_555
Al51 Al76 2.888669 1_545
Al51 Al58 2.974321 1_545
Al51 Al52 2.974322 1_655
Al51 Er0 3.245231 1_555
Al51 Er1 3.260676 1_555
Al52 V0 2.831732 1_555
Al52 Al85 2.888669 1_455
Al52 Al62 2.888669 1_555
Al52 Al59 2.974321 1_555
Al52 Er5 3.245231 1_555
Al52 Er2 3.260676 1_555
Al53 V1 2.831732 1_655
Al53 Al78 2.888669 1_555
Al53 Al69 2.888669 1_545
Al53 Al61 2.974321 1_544
Al53 Al54 2.974322 1_654
Al53 Er6 3.245231 1_554
Al53 Er3 3.260676 1_555
Al54 V1 2.831732 1_556
Al54 Al82 2.888669 1_455
Al54 Al68 2.888669 1_555
Al54 Al60 2.974321 1_556
Al54 Er7 3.245231 1_556
Al54 Er4 3.260676 1_555
Al55 V0 2.831732 1_565
Al55 Al84 2.888669 1_555
Al55 Al63 2.888669 1_455
Al55 Al58 2.974321 1_455
Al55 Er2 3.245231 1_555
Al55 Er5 3.260676 1_555
Al56 V1 2.831732 1_556
Al56 Al80 2.888669 1_545
Al56 Al66 2.888669 1_555
Al56 Al60 2.974321 1_556
Al56 Al57 2.974322 1_546
Al56 Er3 3.245231 1_556
Al56 Er6 3.260676 1_555
Al57 V1 2.831732 1_565
Al57 Al83 2.888669 1_555
Al57 Al65 2.888669 1_455
Al57 Al61 2.974321 1_454
Al57 Er4 3.245231 1_554
Al57 Er7 3.260676 1_555
Al58 V0 2.831733 1_665
Al58 Al81 2.888669 1_555
Al58 Al64 2.888669 1_555
Al58 Er9 3.245232 1_555
Al58 Er8 3.260677 1_555
Al59 V0 2.831733 1_555
Al59 Al67 2.888669 1_555
Al59 Al79 2.888669 1_555
Al59 Er8 3.245232 1_555
Al59 Er9 3.260677 1_555
Al60 V1 2.831733 1_555
Al60 Al71 2.888669 1_555
Al60 Al75 2.888669 1_555
Al60 Er11 3.245232 1_554
Al60 Er10 3.260677 1_555
Al61 V1 2.831733 1_666
Al61 Al72 2.888669 1_555
Al61 Al74 2.888669 1_555
Al61 Er10 3.245232 1_556
Al61 Er11 3.260677 1_555
Al62 V6 2.680605 1_555
Al62 Al68 2.971088 1_555
Al62 Al85 3.000266 1_455
Al62 Er2 3.074857 1_555
Al62 Er8 3.325323 1_555
Al63 V7 2.680605 1_555
Al63 Al65 2.971088 1_555
Al63 Al84 3.000266 1_655
Al63 Er5 3.074857 1_655
Al63 Er9 3.325323 1_555
Al64 V2 2.680605 1_565
Al64 Al74 2.971088 1_555
Al64 Al81 3.000266 1_555
Al64 Er8 3.074857 1_555
Al64 Er0 3.325323 1_565
Al65 V7 2.680605 1_555
Al65 Al83 3.000266 1_655
Al65 Er7 3.074857 1_655
Al65 Er10 3.325323 1_555
Al66 V6 2.680605 1_555
Al66 Al7 2.787055 1_555
Al66 Al77 2.971088 1_555
Al66 Al80 3.000266 1_545
Al66 Er6 3.074857 1_555
Al66 Er11 3.325323 1_555
Al67 V3 2.680605 1_555
Al67 Al8 2.787055 1_555
Al67 Al71 2.971088 1_555
Al67 Al79 3.000266 1_555
Al67 Er9 3.074857 1_555
Al67 Er1 3.325323 1_555
Al68 V6 2.680605 1_555
Al68 Al82 3.000266 1_455
Al68 Er4 3.074857 1_555
Al68 Er11 3.325323 1_555
Al69 V7 2.680605 1_555
Al69 Al9 2.787055 1_555
Al69 Al76 2.971088 1_555
Al69 Al78 3.000266 1_565
Al69 Er3 3.074857 1_565
Al69 Er10 3.325323 1_555
Al70 V4 2.680605 1_555
Al70 Al80 2.971088 1_555
Al70 Al77 3.000266 1_565
Al70 Er0 3.074857 1_565
Al70 Er2 3.325323 1_555
Al71 V3 2.680605 1_555
Al71 Al8 2.787055 1_555
Al71 Al75 3.000266 1_555
Al71 Er10 3.074857 1_555
Al71 Er3 3.325323 1_555
Al72 V4 2.680605 1_655
Al72 Al81 2.971088 1_555
Al72 Al74 3.000266 1_555
Al72 Er11 3.074857 1_555
Al72 Er4 3.325323 1_655
Al73 V5 2.680605 1_655
Al73 Al8 2.763559 1_555
Al73 Al78 2.971088 1_555
Al73 Al76 3.000266 1_545
Al73 Er1 3.074857 1_555
Al73 Er5 3.325323 1_655
Al74 V2 2.680605 1_565
Al74 Er11 3.074857 1_555
Al74 Er6 3.325323 1_565
Al75 V5 2.680605 1_555
Al75 Al9 2.763559 1_555
Al75 Al79 2.971088 1_555
Al75 Er10 3.074857 1_555
Al75 Er7 3.325323 1_555
Al76 V7 2.680605 1_555
Al76 Al9 2.787055 1_555
Al76 Er1 3.074857 1_565
Al76 Er9 3.325323 1_555
Al77 V6 2.680605 1_555
Al77 Er0 3.074857 1_555
Al77 Er8 3.325323 1_555
Al78 V5 2.680605 1_655
Al78 Al8 2.763559 1_555
Al78 Er3 3.074857 1_555
Al78 Er7 3.325323 1_655
Al79 V5 2.680605 1_555
Al79 Al9 2.763559 1_555
Al79 Er9 3.074857 1_555
Al79 Er5 3.325323 1_555
Al80 V4 2.680605 1_555
Al80 Er6 3.074857 1_565
Al80 Er4 3.325323 1_555
Al81 V4 2.680605 1_655
Al81 Er8 3.074857 1_555
Al81 Er2 3.325323 1_655
Al82 V2 2.680605 1_555
Al82 Al85 2.971088 1_555
Al82 Er4 3.074857 1_655
Al82 Er6 3.325323 1_555
Al83 V3 2.680605 1_565
Al83 Al84 2.971088 1_555
Al83 Er7 3.074857 1_555
Al83 Er3 3.325323 1_565
Al84 V3 2.680605 1_565
Al84 Er5 3.074857 1_555
Al84 Er1 3.325323 1_565
Al85 V2 2.680605 1_555
Al85 Er2 3.074857 1_655
Al85 Er0 3.325323 1_555
