# generated using pymatgen
data_Ca2LaMn2O7
_symmetry_space_group_name_H-M   'P 1'
_cell_length_a   5.50848274
_cell_length_b   5.50862133
_cell_length_c   10.06269970
_cell_angle_alpha   89.99999359
_cell_angle_beta   74.11463846
_cell_angle_gamma   89.99951458
_symmetry_Int_Tables_number   1
_chemical_formula_structural   Ca2LaMn2O7
_chemical_formula_sum   'Ca4 La2 Mn4 O14'
_cell_volume   293.68332439
_cell_formula_units_Z   2
loop_
 _symmetry_equiv_pos_site_id
 _symmetry_equiv_pos_as_xyz
  1  'x, y, z'
loop_
 _atom_site_type_symbol
 _atom_site_label
 _atom_site_symmetry_multiplicity
 _atom_site_fract_x
 _atom_site_fract_y
 _atom_site_fract_z
 _atom_site_occupancy
  Ca  Ca0  1  0.18468100  0.49999700  0.63062300  1
  Ca  Ca1  1  0.68451900  0.99999900  0.63097500  1
  Ca  Ca2  1  0.31531500  0.00000200  0.36937800  1
  Ca  Ca3  1  0.81548100  0.49999800  0.36902400  1
  La  La0  1  0.49998600  0.99999900  0.00003200  1
  La  La1  1  0.00000900  0.49999800  0.99997000  1
  Mn  Mn0  1  0.39817500  0.50000800  0.20360600  1
  Mn  Mn1  1  0.10183600  0.99999900  0.79639300  1
  Mn  Mn2  1  0.89696100  0.00000200  0.20604900  1
  Mn  Mn3  1  0.60304100  0.50000000  0.79395200  1
  O  O0  1  0.50161300  0.50000200  0.99673600  1
  O  O1  1  0.99838600  0.99999700  0.00326400  1
  O  O2  1  0.30085700  0.50000100  0.39827100  1
  O  O3  1  0.79985700  0.99999900  0.40023900  1
  O  O4  1  0.19914300  0.00000100  0.60172800  1
  O  O5  1  0.70013700  0.49999600  0.59976100  1
  O  O6  1  0.64535000  0.25841800  0.19212400  1
  O  O7  1  0.16250800  0.74160200  0.19213600  1
  O  O8  1  0.85464700  0.24157800  0.80787700  1
  O  O9  1  0.33749200  0.75839600  0.80786300  1
  O  O10  1  0.16251200  0.25840500  0.19213600  1
  O  O11  1  0.64535200  0.74158200  0.19212600  1
  O  O12  1  0.33748900  0.24160000  0.80786500  1
  O  O13  1  0.85465200  0.75842100  0.80787500  1
loop_
_geom_bond_atom_site_label_1
_geom_bond_atom_site_label_2
_geom_bond_distance
_geom_bond_site_symmetry_2
Ca0 O2 2.248800 1_555
Ca0 O12 2.595656 1_555
Ca0 O9 2.595663 1_555
Ca0 O13 2.595714 1_455
Ca0 O8 2.595740 1_455
Ca0 O4 2.768449 1_555
Ca0 O4 2.768494 1_565
Ca0 O5 2.770255 1_455
Ca0 O5 2.770526 1_555
Ca1 O3 2.233159 1_555
Ca1 O12 2.594443 1_565
Ca1 O9 2.594447 1_555
Ca1 O13 2.594451 1_555
Ca1 O8 2.594463 1_565
Ca1 O4 2.768748 1_565
Ca1 O4 2.768750 1_665
Ca1 O5 2.770813 1_565
Ca1 O5 2.770845 1_555
Ca2 O4 2.248780 1_555
Ca2 O10 2.595660 1_555
Ca2 O7 2.595671 1_545
Ca2 O11 2.595725 1_545
Ca2 O6 2.595734 1_555
Ca2 O2 2.768464 1_555
Ca2 O2 2.768476 1_545
Ca2 O3 2.770241 1_545
Ca2 O3 2.770539 1_445
Ca3 O5 2.233169 1_555
Ca3 O10 2.594414 1_655
Ca3 O11 2.594440 1_555
Ca3 O7 2.594450 1_655
Ca3 O6 2.594459 1_555
Ca3 O2 2.768748 1_655
Ca3 O2 2.768750 1_555
Ca3 O3 2.770825 1_545
Ca3 O3 2.770835 1_555
La0 O6 2.692823 1_565
La0 O11 2.692831 1_555
La0 O10 2.692875 1_565
La0 O7 2.692876 1_555
La0 O8 2.694174 1_564
La0 O13 2.694180 1_554
La0 O12 2.694304 1_564
La0 O9 2.694325 1_554
La0 O1 2.754331 1_455
La0 O0 2.754479 1_554
La0 O1 2.754507 1_555
La0 O0 2.754512 1_564
La1 O8 2.692828 1_455
La1 O13 2.692832 1_455
La1 O12 2.692874 1_555
La1 O9 2.692909 1_555
La1 O11 2.694165 1_456
La1 O6 2.694165 1_456
La1 O10 2.694292 1_556
La1 O7 2.694318 1_556
La1 O0 2.754347 1_555
La1 O1 2.754490 1_456
La1 O0 2.754491 1_455
La1 O1 2.754501 1_446
Mn0 O2 1.884049 1_555
Mn0 O7 1.884600 1_555
Mn0 O10 1.884635 1_555
Mn0 O11 1.884679 1_555
Mn0 O6 1.884714 1_555
Mn0 O0 2.002174 1_554
Mn1 O4 1.884049 1_565
Mn1 O9 1.884592 1_555
Mn1 O12 1.884593 1_565
Mn1 O13 1.884719 1_455
Mn1 O8 1.884723 1_465
Mn1 O1 2.002184 1_456
Mn2 O3 1.879452 1_545
Mn2 O1 1.962638 1_545
Mn2 O7 2.018235 1_645
Mn2 O6 2.018241 1_555
Mn2 O11 2.018260 1_545
Mn2 O10 2.018280 1_655
Mn3 O5 1.879462 1_555
Mn3 O0 1.962628 1_555
Mn3 O9 2.018230 1_555
Mn3 O8 2.018245 1_555
Mn3 O13 2.018272 1_555
Mn3 O12 2.018272 1_555
