# generated using pymatgen
data_InRhO3
_symmetry_space_group_name_H-M   'P 1'
_cell_length_a   5.34065300
_cell_length_b   5.49879500
_cell_length_c   7.86630500
_cell_angle_alpha   90.00000000
_cell_angle_beta   90.00000000
_cell_angle_gamma   90.00000000
_symmetry_Int_Tables_number   1
_chemical_formula_structural   InRhO3
_chemical_formula_sum   'In4 Rh4 O12'
_cell_volume   231.01100618
_cell_formula_units_Z   4
loop_
 _symmetry_equiv_pos_site_id
 _symmetry_equiv_pos_as_xyz
  1  'x, y, z'
loop_
 _atom_site_type_symbol
 _atom_site_label
 _atom_site_symmetry_multiplicity
 _atom_site_fract_x
 _atom_site_fract_y
 _atom_site_fract_z
 _atom_site_occupancy
  In  In0  1  0.52485700  0.56225500  0.25000000  1
  In  In1  1  0.97514300  0.06225500  0.25000000  1
  In  In2  1  0.47514300  0.43774500  0.75000000  1
  In  In3  1  0.02485700  0.93774500  0.75000000  1
  Rh  Rh0  1  0.00000000  0.50000000  0.00000000  1
  Rh  Rh1  1  0.50000000  0.00000000  0.50000000  1
  Rh  Rh2  1  0.00000000  0.50000000  0.50000000  1
  Rh  Rh3  1  0.50000000  0.00000000  0.00000000  1
  O  O0  1  0.36377000  0.93008000  0.25000000  1
  O  O1  1  0.13623000  0.43008000  0.25000000  1
  O  O2  1  0.63623000  0.06992000  0.75000000  1
  O  O3  1  0.86377000  0.56992000  0.75000000  1
  O  O4  1  0.80302600  0.80023700  0.07834100  1
  O  O5  1  0.69697400  0.30023700  0.42165900  1
  O  O6  1  0.19697400  0.19976300  0.57834100  1
  O  O7  1  0.30302600  0.69976300  0.92165900  1
  O  O8  1  0.19697400  0.19976300  0.92165900  1
  O  O9  1  0.30302600  0.69976300  0.57834100  1
  O  O10  1  0.80302600  0.80023700  0.42165900  1
  O  O11  1  0.69697400  0.30023700  0.07834100  1
loop_
_geom_bond_atom_site_label_1
_geom_bond_atom_site_label_2
_geom_bond_distance
_geom_bond_site_symmetry_2
In0 O11 2.178115 1_555
In0 O5 2.178115 1_555
In0 O0 2.197958 1_555
In0 O1 2.199099 1_555
In0 O4 2.396427 1_555
In0 O10 2.396427 1_555
In1 O10 2.178115 1_545
In1 O4 2.178115 1_545
In1 O1 2.197958 1_655
In1 O0 2.199099 1_645
In1 O5 2.396427 1_555
In1 O11 2.396427 1_555
In2 O7 2.178115 1_555
In2 O9 2.178115 1_555
In2 O2 2.197958 1_555
In2 O3 2.199099 1_555
In2 O6 2.396427 1_555
In2 O8 2.396427 1_555
In3 O8 2.178115 1_565
In3 O6 2.178115 1_565
In3 O3 2.197958 1_455
In3 O2 2.199099 1_465
In3 O7 2.396427 1_555
In3 O9 2.396427 1_555
O0 Rh3 2.131803 1_565
O0 Rh1 2.131803 1_565
O1 Rh2 2.131803 1_555
O1 Rh0 2.131803 1_555
O2 Rh3 2.131803 1_556
O2 Rh1 2.131803 1_555
O3 Rh2 2.131803 1_655
O3 Rh0 2.131803 1_656
O4 Rh3 2.050720 1_565
O4 Rh0 2.052320 1_655
O5 Rh2 2.050720 1_655
O5 Rh1 2.052320 1_555
O6 Rh1 2.050720 1_555
O6 Rh2 2.052320 1_555
O7 Rh0 2.050720 1_556
O7 Rh3 2.052320 1_566
O8 Rh3 2.050720 1_556
O8 Rh0 2.052320 1_556
O9 Rh2 2.050720 1_555
O9 Rh1 2.052320 1_565
O10 Rh1 2.050720 1_565
O10 Rh2 2.052320 1_655
O11 Rh0 2.050720 1_655
O11 Rh3 2.052320 1_555
