# generated using pymatgen
data_Re6Se7Br4
_symmetry_space_group_name_H-M   'P 1'
_cell_length_a   12.11783525
_cell_length_b   12.11783525
_cell_length_c   12.11783621
_cell_angle_alpha   50.33130898
_cell_angle_beta   50.33130898
_cell_angle_gamma   50.33130157
_symmetry_Int_Tables_number   1
_chemical_formula_structural   Re6Se7Br4
_chemical_formula_sum   'Re12 Se14 Br8'
_cell_volume   971.00003327
_cell_formula_units_Z   2
loop_
 _symmetry_equiv_pos_site_id
 _symmetry_equiv_pos_as_xyz
  1  'x, y, z'
loop_
 _atom_site_type_symbol
 _atom_site_label
 _atom_site_symmetry_multiplicity
 _atom_site_fract_x
 _atom_site_fract_y
 _atom_site_fract_z
 _atom_site_occupancy
  Re  Re0  1  0.52864369  0.39095550  0.68358428  1
  Re  Re1  1  0.39095550  0.68358428  0.52864369  1
  Re  Re2  1  0.68358428  0.52864369  0.39095550  1
  Re  Re3  1  0.18358428  0.89095550  0.02864369  1
  Re  Re4  1  0.89095550  0.02864369  0.18358428  1
  Re  Re5  1  0.02864369  0.18358428  0.89095550  1
  Re  Re6  1  0.47274344  0.61080516  0.31643616  1
  Re  Re7  1  0.61080516  0.31643616  0.47274344  1
  Re  Re8  1  0.31643616  0.47274344  0.61080516  1
  Re  Re9  1  0.81643616  0.11080516  0.97274344  1
  Re  Re10  1  0.11080516  0.97274344  0.81643616  1
  Re  Re11  1  0.97274344  0.81643616  0.11080516  1
  Se  Se0  1  0.80856943  0.24293729  0.54297256  1
  Se  Se1  1  0.24293729  0.54297256  0.80856943  1
  Se  Se2  1  0.54297256  0.80856943  0.24293729  1
  Se  Se3  1  0.04297256  0.74293729  0.30856943  1
  Se  Se4  1  0.74293729  0.30856943  0.04297256  1
  Se  Se5  1  0.30856943  0.04297256  0.74293729  1
  Se  Se6  1  0.19169551  0.75816829  0.45634767  1
  Se  Se7  1  0.75816829  0.45634767  0.19169551  1
  Se  Se8  1  0.45634767  0.19169551  0.75816829  1
  Se  Se9  1  0.95634767  0.25816829  0.69169551  1
  Se  Se10  1  0.25816829  0.69169551  0.95634767  1
  Se  Se11  1  0.69169551  0.95634767  0.25816829  1
  Se  Se12  1  0.59840945  0.59840945  0.59840945  1
  Se  Se13  1  0.09840945  0.09840945  0.09840945  1
  Br  Br0  1  0.95361845  0.54935132  0.24666674  1
  Br  Br1  1  0.54935132  0.24666674  0.95361845  1
  Br  Br2  1  0.24666674  0.95361845  0.54935132  1
  Br  Br3  1  0.74666674  0.04935132  0.45361845  1
  Br  Br4  1  0.04935132  0.45361845  0.74666674  1
  Br  Br5  1  0.45361845  0.74666674  0.04935132  1
  Br  Br6  1  0.39805607  0.39805607  0.39805607  1
  Br  Br7  1  0.89805607  0.89805607  0.89805607  1
loop_
_geom_bond_atom_site_label_1
_geom_bond_atom_site_label_2
_geom_bond_distance
_geom_bond_site_symmetry_2
Re0 Se8 2.513622 1_555
Re0 Se0 2.526240 1_555
Re0 Se12 2.527128 1_555
Re0 Se1 2.529593 1_555
Re1 Se6 2.513622 1_555
Re1 Se1 2.526241 1_555
Re1 Se12 2.527128 1_555
Re1 Se2 2.529593 1_555
Re2 Se7 2.513622 1_555
Re2 Se2 2.526240 1_555
Re2 Se12 2.527128 1_555
Re2 Se0 2.529593 1_555
Re3 Se10 2.513622 1_554
Re3 Se3 2.526241 1_555
Re3 Se13 2.527128 1_565
Re3 Se5 2.529593 1_564
Re4 Se11 2.513622 1_545
Re4 Se4 2.526240 1_555
Re4 Se13 2.527128 1_655
Re4 Se3 2.529593 1_645
Re5 Se9 2.513622 1_455
Re5 Se5 2.526240 1_555
Re5 Se13 2.527128 1_556
Re5 Se4 2.529593 1_456
Re6 Se2 2.484285 1_555
Re6 Se6 2.528072 1_555
Re6 Se7 2.534425 1_555
Re7 Se0 2.484285 1_555
Re7 Se7 2.528072 1_555
Re7 Se8 2.534425 1_555
Re8 Se1 2.484285 1_555
Re8 Se8 2.528072 1_555
Re8 Se6 2.534425 1_555
Re9 Se4 2.484285 1_556
Re9 Se9 2.528072 1_555
Re9 Se11 2.534425 1_546
Re10 Se5 2.484285 1_565
Re10 Se10 2.528072 1_555
Re10 Se9 2.534425 1_465
Re11 Se3 2.484285 1_655
Re11 Se11 2.528072 1_555
Re11 Se10 2.534425 1_654
Br0 Re11 2.628080 1_555
Br0 Re2 2.647883 1_555
Br1 Re9 2.628079 1_555
Br1 Re0 2.647883 1_555
Br2 Re10 2.628080 1_555
Br2 Re1 2.647883 1_555
Br3 Re7 2.628079 1_555
Br3 Re4 2.647883 1_555
Br4 Re8 2.628080 1_555
Br4 Re5 2.647883 1_555
Br5 Re6 2.628080 1_555
Br5 Re3 2.647883 1_555
Br6 Re7 2.650359 1_555
Br6 Re6 2.650359 1_555
Br6 Re8 2.650359 1_555
Br7 Re9 2.650359 1_565
Br7 Re10 2.650359 1_655
Br7 Re11 2.650359 1_556
