# generated using pymatgen
data_Pr4Re6O19
_symmetry_space_group_name_H-M   'P 1'
_cell_length_a   7.81475608
_cell_length_b   7.80848942
_cell_length_c   7.81462779
_cell_angle_alpha   109.45306167
_cell_angle_beta   109.48643401
_cell_angle_gamma   109.45622690
_symmetry_Int_Tables_number   1
_chemical_formula_structural   Pr4Re6O19
_chemical_formula_sum   'Pr4 Re6 O19'
_cell_volume   367.16809807
_cell_formula_units_Z   1
loop_
 _symmetry_equiv_pos_site_id
 _symmetry_equiv_pos_as_xyz
  1  'x, y, z'
loop_
 _atom_site_type_symbol
 _atom_site_label
 _atom_site_symmetry_multiplicity
 _atom_site_fract_x
 _atom_site_fract_y
 _atom_site_fract_z
 _atom_site_occupancy
  Pr  Pr0  1  0.68554550  0.68459187  0.68463298  1
  Pr  Pr1  1  0.31533856  -0.00005263  0.00090388  1
  Pr  Pr2  1  -0.00000219  0.31616822  0.00002044  1
  Pr  Pr3  1  0.99910118  -0.00094654  0.31443528  1
  Re  Re0  1  0.36692641  0.86670146  0.50050157  1
  Re  Re1  1  0.63340999  0.13364302  0.50015583  1
  Re  Re2  1  0.86669743  0.50021763  0.36655245  1
  Re  Re3  1  0.13352900  0.49977353  0.63302334  1
  Re  Re4  1  0.49951496  0.36617500  0.86640852  1
  Re  Re5  1  0.49985589  0.63347279  0.13327217  1
  O  O0  1  0.67937354  0.67921833  -0.00053007  1
  O  O1  1  0.32068486  0.32037293  0.00088666  1
  O  O2  1  0.68017930  -0.00025404  0.67938814  1
  O  O3  1  0.32014398  -0.00002307  0.32072632  1
  O  O4  1  0.00059507  0.67988388  0.67984077  1
  O  O5  1  -0.00090394  0.31950900  0.31977727  1
  O  O6  1  0.00001550  -0.00062590  0.00001513  1
  O  O7  1  0.36351224  0.62300229  0.30647874  1
  O  O8  1  0.63558726  0.94400931  0.25779599  1
  O  O9  1  0.68489549  0.37739300  0.74151688  1
  O  O10  1  0.62222881  0.30844186  0.36441658  1
  O  O11  1  0.31608090  0.05624496  0.69404359  1
  O  O12  1  0.94292119  0.25949735  0.63646536  1
  O  O13  1  0.37796925  0.74020164  0.68395283  1
  O  O14  1  0.05663963  0.69251902  0.31513285  1
  O  O15  1  0.30595685  0.36220183  0.62200339  1
  O  O16  1  0.74219453  0.68622266  0.37779685  1
  O  O17  1  0.69354398  0.31658041  0.05705023  1
  O  O18  1  0.25846483  0.63586018  0.94333804  1
loop_
_geom_bond_atom_site_label_1
_geom_bond_atom_site_label_2
_geom_bond_distance
_geom_bond_site_symmetry_2
O0 Re4 2.018671 1_554
O0 Re5 2.020543 1_555
O0 Pr3 2.486766 1_565
O0 Pr0 2.490765 1_554
O1 Re5 2.019023 1_555
O1 Re4 2.020531 1_554
O1 Pr1 2.488481 1_555
O1 Pr2 2.493058 1_555
O2 Re1 2.019141 1_555
O2 Re0 2.020277 1_545
O2 Pr0 2.488803 1_545
O2 Pr2 2.492811 1_656
O3 Re0 2.018651 1_545
O3 Re1 2.020279 1_555
O3 Pr1 2.486940 1_555
O3 Pr3 2.490447 1_455
O4 Re3 2.018696 1_555
O4 Re2 2.020430 1_455
O4 Pr0 2.487019 1_455
O4 Pr1 2.490388 1_566
O5 Re2 2.019060 1_455
O5 Re3 2.020231 1_555
O5 Pr3 2.488696 1_455
O5 Pr2 2.492607 1_555
O6 Pr3 2.460301 1_455
O6 Pr1 2.460372 1_555
O6 Pr0 2.460759 1_444
O6 Pr2 2.473716 1_555
O7 Re0 1.984478 1_555
O7 Re5 1.987939 1_555
O7 Pr2 2.578930 1_555
O7 Pr0 2.929657 1_555
O8 Re1 1.987532 1_565
O8 Re5 1.994512 1_555
O8 Pr3 2.582954 1_565
O8 Pr1 2.905955 1_565
O9 Re1 1.983546 1_555
O9 Re4 1.993659 1_555
O9 Pr0 2.579787 1_555
O9 Pr2 2.912349 1_656
O10 Re2 1.987166 1_555
O10 Re1 1.994441 1_555
O10 Pr1 2.583087 1_555
O10 Pr0 2.905832 1_555
O11 Re0 1.984357 1_545
O11 Re4 1.988848 1_555
O11 Pr1 2.579419 1_556
O11 Pr3 2.934917 1_455
O12 Re3 1.984488 1_655
O12 Re1 1.987744 1_555
O12 Pr2 2.579147 1_656
O12 Pr3 2.929959 1_555
O13 Re3 1.984442 1_555
O13 Re0 1.988922 1_555
O13 Pr0 2.579603 1_555
O13 Pr1 2.934635 1_566
O14 Re2 1.983562 1_455
O14 Re0 1.993792 1_555
O14 Pr3 2.579812 1_465
O14 Pr2 2.912400 1_555
O15 Re4 1.984599 1_555
O15 Re3 1.989265 1_555
O15 Pr3 2.579414 1_455
O15 Pr0 2.934670 1_555
O16 Re5 1.987297 1_555
O16 Re2 1.994322 1_555
O16 Pr0 2.582716 1_555
O16 Pr3 2.905967 1_565
O17 Re4 1.984172 1_554
O17 Re2 1.987683 1_555
O17 Pr2 2.578807 1_655
O17 Pr1 2.930034 1_555
O18 Re5 1.983878 1_556
O18 Re3 1.993965 1_555
O18 Pr1 2.579804 1_566
O18 Pr2 2.912395 1_556
