# generated using pymatgen
data_Li4MnCo3O8
_symmetry_space_group_name_H-M   'P 1'
_cell_length_a   2.93141100
_cell_length_b   5.95896100
_cell_length_c   8.34566001
_cell_angle_alpha   88.19761322
_cell_angle_beta   90.00000000
_cell_angle_gamma   90.00000000
_symmetry_Int_Tables_number   1
_chemical_formula_structural   Li4MnCo3O8
_chemical_formula_sum   'Li4 Mn1 Co3 O8'
_cell_volume   145.71123005
_cell_formula_units_Z   1
loop_
 _symmetry_equiv_pos_site_id
 _symmetry_equiv_pos_as_xyz
  1  'x, y, z'
loop_
 _atom_site_type_symbol
 _atom_site_label
 _atom_site_symmetry_multiplicity
 _atom_site_fract_x
 _atom_site_fract_y
 _atom_site_fract_z
 _atom_site_occupancy
  Li  Li0  1  0.00000000  0.25387600  0.25532900  1
  Li  Li1  1  0.50000000  0.50000000  0.00000000  1
  Li  Li2  1  0.00000000  0.74612400  0.74467100  1
  Li  Li3  1  0.50000000  0.00000000  0.50000000  1
  Mn  Mn0  1  0.50000000  0.00000000  0.00000000  1
  Co  Co0  1  0.00000000  0.26097700  0.73677700  1
  Co  Co1  1  0.50000000  0.50000000  0.50000000  1
  Co  Co2  1  0.00000000  0.73902300  0.26322300  1
  O  O0  1  0.00000000  0.78165200  0.00612300  1
  O  O1  1  0.50000000  0.01454200  0.76781300  1
  O  O2  1  0.00000000  0.25269000  0.51021900  1
  O  O3  1  0.50000000  0.51108200  0.24067700  1
  O  O4  1  0.00000000  0.74731000  0.48978100  1
  O  O5  1  0.50000000  0.98545800  0.23218700  1
  O  O6  1  0.00000000  0.21834800  0.99387700  1
  O  O7  1  0.50000000  0.48891800  0.75932300  1
loop_
_geom_bond_atom_site_label_1
_geom_bond_atom_site_label_2
_geom_bond_distance
_geom_bond_site_symmetry_2
Li0 O3 2.121454 1_455
Li0 O3 2.121454 1_555
Li0 O2 2.127015 1_555
Li0 O5 2.182522 1_445
Li0 O5 2.182522 1_545
Li0 O6 2.198854 1_554
Li1 O7 2.011769 1_554
Li1 O3 2.011769 1_555
Li1 O6 2.230060 1_554
Li1 O0 2.230060 1_555
Li1 O0 2.230060 1_655
Li1 O6 2.230060 1_654
Li2 O7 2.121454 1_455
Li2 O7 2.121454 1_555
Li2 O4 2.127015 1_555
Li2 O1 2.182522 1_565
Li2 O1 2.182522 1_465
Li2 O0 2.198854 1_556
Li3 O2 2.104991 1_555
Li3 O4 2.104991 1_545
Li3 O4 2.104991 1_645
Li3 O2 2.104991 1_655
Li3 O5 2.239477 1_545
Li3 O1 2.239477 1_555
Mn0 O5 1.936966 1_545
Mn0 O1 1.936966 1_554
Mn0 O0 1.959503 1_645
Mn0 O6 1.959503 1_554
Mn0 O0 1.959503 1_545
Mn0 O6 1.959503 1_654
Co0 O2 1.892973 1_555
Co0 O7 2.011151 1_455
Co0 O7 2.011151 1_555
Co0 O1 2.085171 1_455
Co0 O1 2.085171 1_555
Co0 O6 2.152705 1_555
Co1 O2 2.078337 1_655
Co1 O2 2.078337 1_555
Co1 O4 2.078337 1_555
Co1 O4 2.078337 1_655
Co1 O3 2.163152 1_555
Co1 O7 2.163152 1_555
Co2 O4 1.892973 1_555
Co2 O3 2.011151 1_555
Co2 O3 2.011151 1_455
Co2 O5 2.085171 1_455
Co2 O5 2.085171 1_555
Co2 O0 2.152705 1_555
