# generated using pymatgen
data_HoTlS2O9
_symmetry_space_group_name_H-M   'P 1'
_cell_length_a   8.31937100
_cell_length_b   10.26769848
_cell_length_c   9.95767649
_cell_angle_alpha   120.26833000
_cell_angle_beta   90.00000000
_cell_angle_gamma   90.00000000
_symmetry_Int_Tables_number   1
_chemical_formula_structural   HoTlS2O9
_chemical_formula_sum   'Ho4 Tl4 S8 O36'
_cell_volume   734.63498236
_cell_formula_units_Z   4
loop_
 _symmetry_equiv_pos_site_id
 _symmetry_equiv_pos_as_xyz
  1  'x, y, z'
loop_
 _atom_site_type_symbol
 _atom_site_label
 _atom_site_symmetry_multiplicity
 _atom_site_fract_x
 _atom_site_fract_y
 _atom_site_fract_z
 _atom_site_occupancy
  Ho  Ho0  1  0.31378600  0.94983600  0.68168100  1
  Ho  Ho1  1  0.68621400  0.05016400  0.31831900  1
  Ho  Ho2  1  0.81378600  0.55016400  0.81831900  1
  Ho  Ho3  1  0.18621400  0.44983600  0.18168100  1
  Tl  Tl0  1  0.39412200  0.74856900  0.96542900  1
  Tl  Tl1  1  0.60587800  0.25143100  0.03457100  1
  Tl  Tl2  1  0.89412200  0.75143100  0.53457100  1
  Tl  Tl3  1  0.10587800  0.24856900  0.46542900  1
  S  S0  1  0.12809100  0.32272200  0.84608500  1
  S  S1  1  0.87190900  0.67727800  0.15391500  1
  S  S2  1  0.62809100  0.17727800  0.65391500  1
  S  S3  1  0.37190900  0.82272200  0.34608500  1
  S  S4  1  0.21444400  0.57849000  0.60266900  1
  S  S5  1  0.78555600  0.42151000  0.39733100  1
  S  S6  1  0.71444400  0.92151000  0.89733100  1
  S  S7  1  0.28555600  0.07849000  0.10266900  1
  O  O0  1  0.78797400  0.07849400  0.94483500  1
  O  O1  1  0.21202600  0.92150600  0.05516500  1
  O  O2  1  0.28797400  0.42150600  0.55516500  1
  O  O3  1  0.71202600  0.57849400  0.44483500  1
  O  O4  1  0.20279000  0.17635200  0.73887300  1
  O  O5  1  0.79721000  0.82364800  0.26112700  1
  O  O6  1  0.70279000  0.32364800  0.76112700  1
  O  O7  1  0.29721000  0.67635200  0.23887300  1
  O  O8  1  0.34522200  0.69038000  0.65710200  1
  O  O9  1  0.65477800  0.30962000  0.34289800  1
  O  O10  1  0.84522200  0.80962000  0.84289800  1
  O  O11  1  0.15477800  0.19038000  0.15710200  1
  O  O12  1  0.35639900  0.06062900  0.95510700  1
  O  O13  1  0.64360100  0.93937100  0.04489300  1
  O  O14  1  0.85639900  0.43937100  0.54489300  1
  O  O15  1  0.14360100  0.56062900  0.45510700  1
  O  O16  1  0.06737000  0.89070500  0.65889300  1
  O  O17  1  0.93263000  0.10929500  0.34110700  1
  O  O18  1  0.56737000  0.60929500  0.84110700  1
  O  O19  1  0.43263000  0.39070500  0.15889300  1
  O  O20  1  0.25009300  0.43992600  0.93862300  1
  O  O21  1  0.74990700  0.56007400  0.06137700  1
  O  O22  1  0.75009300  0.06007400  0.56137700  1
  O  O23  1  0.24990700  0.93992600  0.43862300  1
  O  O24  1  0.02380200  0.31430100  0.96384700  1
  O  O25  1  0.97619800  0.68569900  0.03615300  1
  O  O26  1  0.52380200  0.18569900  0.53615300  1
  O  O27  1  0.47619800  0.81430100  0.46384700  1
  O  O28  1  0.03003500  0.36588900  0.74765300  1
  O  O29  1  0.96996500  0.63411100  0.25234700  1
  O  O30  1  0.53003500  0.13411100  0.75234700  1
  O  O31  1  0.46996500  0.86588900  0.24765300  1
  O  O32  1  0.59547800  0.88141600  0.77535300  1
  O  O33  1  0.40452200  0.11858400  0.22464700  1
  O  O34  1  0.09547800  0.61858400  0.72464700  1
  O  O35  1  0.90452200  0.38141600  0.27535300  1
loop_
_geom_bond_atom_site_label_1
_geom_bond_atom_site_label_2
_geom_bond_distance
_geom_bond_site_symmetry_2
Ho0 O16 2.117506 1_555
Ho0 O4 2.291527 1_565
Ho0 O27 2.329013 1_555
Ho0 O12 2.389650 1_565
Ho0 O23 2.429470 1_555
Ho0 O30 2.443263 1_565
Ho0 O8 2.562807 1_555
Ho0 O32 2.741558 1_555
Ho1 O17 2.117506 1_555
Ho1 O5 2.291527 1_545
Ho1 O26 2.329013 1_555
Ho1 O13 2.389650 1_545
Ho1 O22 2.429470 1_555
Ho1 O31 2.443263 1_545
Ho1 O9 2.562807 1_555
Ho1 O33 2.741558 1_555
Ho2 O18 2.117506 1_555
Ho2 O6 2.291527 1_555
Ho2 O25 2.329013 1_556
Ho2 O14 2.389650 1_555
Ho2 O21 2.429470 1_556
Ho2 O28 2.443263 1_655
Ho2 O10 2.562807 1_555
Ho2 O34 2.741558 1_655
Ho3 O19 2.117506 1_555
Ho3 O7 2.291527 1_555
Ho3 O24 2.329013 1_554
Ho3 O15 2.389650 1_555
Ho3 O20 2.429470 1_554
Ho3 O29 2.443263 1_455
Ho3 O11 2.562807 1_555
Ho3 O35 2.741558 1_455
O0 S6 1.558022 1_545
O0 Tl1 2.155670 1_556
O1 S7 1.558022 1_565
O1 Tl0 2.155670 1_554
O2 S4 1.558022 1_555
O2 Tl3 2.155670 1_555
O3 S5 1.558022 1_555
O3 Tl2 2.155670 1_555
O4 S0 1.472121 1_555
O5 S1 1.472121 1_555
O6 S2 1.472121 1_555
O7 S3 1.472121 1_555
O8 S4 1.472965 1_555
O9 S5 1.472965 1_555
O10 S6 1.472965 1_555
O11 S7 1.472965 1_555
O12 S7 1.506120 1_556
O12 Tl1 2.684990 1_556
O13 S6 1.506120 1_554
O13 Tl0 2.684990 1_554
O14 S5 1.506120 1_555
O14 Tl3 2.684990 1_655
O15 S4 1.506120 1_555
O15 Tl2 2.684990 1_455
O16 Tl2 1.967294 1_455
O17 Tl3 1.967294 1_655
O18 Tl0 1.967294 1_555
O19 Tl1 1.967294 1_555
O20 S0 1.486473 1_555
O21 S1 1.486473 1_555
O22 S2 1.486473 1_555
O23 S3 1.486473 1_555
O24 S0 1.495836 1_555
O25 S1 1.495836 1_555
O26 S2 1.495836 1_555
O27 S3 1.495836 1_555
O28 S0 1.503519 1_555
O28 Tl3 2.516790 1_555
O29 S1 1.503519 1_555
O29 Tl2 2.516790 1_555
O30 S2 1.503519 1_555
O30 Tl1 2.516790 1_556
O31 S3 1.503519 1_555
O31 Tl0 2.516790 1_554
O32 S6 1.456106 1_555
O33 S7 1.456106 1_555
O34 S4 1.456106 1_555
O35 S5 1.456106 1_555
