# generated using pymatgen
data_Li5Mn2CoO8
_symmetry_space_group_name_H-M   'P 1'
_cell_length_a   5.11304091
_cell_length_b   7.67299151
_cell_length_c   7.67197046
_cell_angle_alpha   83.27396381
_cell_angle_beta   76.55720241
_cell_angle_gamma   103.43943509
_symmetry_Int_Tables_number   1
_chemical_formula_structural   Li5Mn2CoO8
_chemical_formula_sum   'Li10 Mn4 Co2 O16'
_cell_volume   280.02734075
_cell_formula_units_Z   2
loop_
 _symmetry_equiv_pos_site_id
 _symmetry_equiv_pos_as_xyz
  1  'x, y, z'
loop_
 _atom_site_type_symbol
 _atom_site_label
 _atom_site_symmetry_multiplicity
 _atom_site_fract_x
 _atom_site_fract_y
 _atom_site_fract_z
 _atom_site_occupancy
  Li  Li0  1  0.49983000  0.12448500  0.12475300  1
  Li  Li1  1  0.49982700  0.62525000  0.62551000  1
  Li  Li2  1  0.49620100  0.37436400  0.37559900  1
  Li  Li3  1  0.50286000  0.87491500  0.87512500  1
  Li  Li4  1  0.00086000  0.37524000  0.87478000  1
  Li  Li5  1  0.00091200  0.87526200  0.37471900  1
  Li  Li6  1  0.50000500  0.25243100  0.75242700  1
  Li  Li7  1  0.49923200  0.75624200  0.25481800  1
  Li  Li8  1  0.49928600  0.49512700  0.99381600  1
  Li  Li9  1  0.49998700  0.99757700  0.49756500  1
  Mn  Mn0  1  0.99429700  0.50120000  0.50135000  1
  Mn  Mn1  1  0.99424300  0.24864600  0.24877300  1
  Mn  Mn2  1  0.00550500  0.00132100  0.00137600  1
  Mn  Mn3  1  0.00542600  0.74865400  0.74866900  1
  Co  Co0  1  0.99908700  0.12458600  0.62541400  1
  Co  Co1  1  0.99904200  0.62451200  0.12548500  1
  O  O0  1  0.23302100  0.23533800  0.01575200  1
  O  O1  1  0.23301700  0.73420700  0.51467800  1
  O  O2  1  0.76744700  0.51567400  0.73558800  1
  O  O3  1  0.76747000  0.01440000  0.23435700  1
  O  O4  1  0.22418300  0.49108100  0.25888200  1
  O  O5  1  0.23653800  0.98628400  0.76367600  1
  O  O6  1  0.77538200  0.75864100  0.99138200  1
  O  O7  1  0.76231600  0.26396400  0.48607900  1
  O  O8  1  0.22580200  0.87667900  0.11739200  1
  O  O9  1  0.20939000  0.36943200  0.61584200  1
  O  O10  1  0.22566800  0.63258800  0.87350700  1
  O  O11  1  0.20938300  0.13414300  0.38063000  1
  O  O12  1  0.77613400  0.61729000  0.37635800  1
  O  O13  1  0.79081700  0.11624900  0.86920000  1
  O  O14  1  0.77604200  0.37347200  0.13273800  1
  O  O15  1  0.79078900  0.88074700  0.63376200  1
loop_
_geom_bond_atom_site_label_1
_geom_bond_atom_site_label_2
_geom_bond_distance
_geom_bond_site_symmetry_2
Li0 O0 2.046224 1_555
Li0 O3 2.049189 1_555
Li0 O8 2.098872 1_545
Li0 O14 2.112266 1_555
Li0 O13 2.185868 1_554
Li0 O11 2.189604 1_555
Li1 O1 2.045969 1_555
Li1 O2 2.048962 1_555
Li1 O10 2.099973 1_555
Li1 O12 2.113125 1_555
Li1 O15 2.185793 1_555
Li1 O9 2.189536 1_555
Li2 O7 2.047241 1_555
Li2 O11 2.061579 1_555
Li2 O9 2.061622 1_555
Li2 O14 2.070493 1_555
Li2 O12 2.071072 1_555
Li2 O4 2.123326 1_555
Li3 O5 2.055886 1_555
Li3 O8 2.062085 1_556
Li3 O10 2.062707 1_555
Li3 O13 2.068978 1_565
Li3 O15 2.068991 1_555
Li3 O6 2.121888 1_555
Li4 O9 2.035501 1_555
Li4 O13 2.038032 1_455
Li4 O10 2.038554 1_555
Li4 O14 2.041300 1_456
Li4 O2 2.155595 1_455
Li4 O0 2.156017 1_556
Li5 O11 2.035525 1_565
Li5 O8 2.038013 1_555
Li5 O15 2.038025 1_455
Li5 O12 2.041841 1_455
Li5 O3 2.155161 1_465
Li5 O1 2.156406 1_555
Li6 O0 2.129429 1_556
Li6 O2 2.130557 1_555
Li6 O7 2.147189 1_555
Li6 O5 2.149052 1_545
Li6 O13 2.286427 1_555
Li6 O9 2.288155 1_555
Li7 O3 2.096104 1_565
Li7 O1 2.099596 1_555
Li7 O6 2.175111 1_554
Li7 O4 2.180134 1_555
Li7 O8 2.231103 1_555
Li7 O12 2.256841 1_555
Li8 O2 2.095958 1_555
Li8 O0 2.099690 1_556
Li8 O6 2.175674 1_555
Li8 O4 2.179429 1_556
Li8 O10 2.231575 1_555
Li8 O14 2.256519 1_556
Li9 O1 2.129929 1_555
Li9 O3 2.130169 1_565
Li9 O7 2.147833 1_565
Li9 O5 2.148431 1_555
Li9 O15 2.286648 1_555
Li9 O11 2.287792 1_565
Mn0 O12 1.927801 1_555
Mn0 O2 1.929928 1_555
Mn0 O9 1.939403 1_655
Mn0 O1 1.945046 1_655
Mn0 O7 1.960890 1_555
Mn0 O4 1.976775 1_655
Mn1 O14 1.927002 1_555
Mn1 O3 1.929936 1_555
Mn1 O11 1.940033 1_655
Mn1 O0 1.944960 1_655
Mn1 O7 1.961062 1_555
Mn1 O4 1.976917 1_655
Mn2 O0 1.929955 1_555
Mn2 O8 1.934714 1_545
Mn2 O13 1.941378 1_454
Mn2 O3 1.942567 1_455
Mn2 O5 1.960968 1_544
Mn2 O6 1.978542 1_444
Mn3 O1 1.929865 1_555
Mn3 O10 1.935553 1_555
Mn3 O15 1.940720 1_455
Mn3 O2 1.942693 1_455
Mn3 O5 1.960886 1_555
Mn3 O6 1.978312 1_455
Co0 O13 1.910617 1_555
Co0 O15 1.911259 1_545
Co0 O11 1.918478 1_655
Co0 O9 1.919138 1_655
Co0 O5 2.158546 1_645
Co0 O7 2.165121 1_555
Co1 O12 1.982986 1_555
Co1 O14 1.984440 1_555
Co1 O10 1.995176 1_654
Co1 O8 1.996867 1_655
Co1 O4 2.066616 1_655
Co1 O6 2.066777 1_554
