# generated using pymatgen
data_Sn4GeTe4Se
_symmetry_space_group_name_H-M   'P 1'
_cell_length_a   18.57712386
_cell_length_b   18.57712386
_cell_length_c   18.57712387
_cell_angle_alpha   13.63435379
_cell_angle_beta   13.63435379
_cell_angle_gamma   13.63435250
_symmetry_Int_Tables_number   1
_chemical_formula_structural   Sn4GeTe4Se
_chemical_formula_sum   'Sn4 Ge1 Te4 Se1'
_cell_volume   309.97110828
_cell_formula_units_Z   1
loop_
 _symmetry_equiv_pos_site_id
 _symmetry_equiv_pos_as_xyz
  1  'x, y, z'
loop_
 _atom_site_type_symbol
 _atom_site_label
 _atom_site_symmetry_multiplicity
 _atom_site_fract_x
 _atom_site_fract_y
 _atom_site_fract_z
 _atom_site_occupancy
  Sn  Sn0  1  0.39241300  0.39241300  0.39241300  1
  Sn  Sn1  1  0.79601500  0.79601500  0.79601500  1
  Sn  Sn2  1  0.19893500  0.19893500  0.19893500  1
  Sn  Sn3  1  0.60178300  0.60178300  0.60178300  1
  Ge  Ge0  1  0.00094100  0.00094100  0.00094100  1
  Te  Te0  1  0.09819900  0.09819900  0.09819900  1
  Te  Te1  1  0.50116700  0.50116700  0.50116700  1
  Te  Te2  1  0.90383800  0.90383800  0.90383800  1
  Te  Te3  1  0.30739200  0.30739200  0.30739200  1
  Se  Se0  1  0.69931800  0.69931800  0.69931800  1
loop_
_geom_bond_atom_site_label_1
_geom_bond_atom_site_label_2
_geom_bond_distance
_geom_bond_site_symmetry_2
Sn0 Te0 3.338766 1_655
Sn0 Te0 3.338766 1_565
Sn0 Te0 3.338766 1_556
Sn1 Te0 3.072549 1_656
Sn1 Te0 3.072549 1_566
Sn1 Te0 3.072549 1_665
Sn1 Te1 3.316234 1_565
Sn1 Te1 3.316234 1_655
Sn1 Te1 3.316234 1_556
Sn2 Te1 3.071066 1_455
Sn2 Te1 3.071066 1_545
Sn2 Te1 3.071067 1_554
Sn2 Te2 3.307444 1_544
Sn2 Te2 3.307444 1_454
Sn2 Te2 3.307445 1_445
Sn3 Te2 3.076540 1_545
Sn3 Te2 3.076540 1_455
Sn3 Te2 3.076540 1_554
Sn3 Te3 3.332454 1_565
Sn3 Te3 3.332454 1_655
Sn3 Te3 3.332454 1_556
Ge0 Te3 2.947185 1_545
Ge0 Te3 2.947185 1_455
Ge0 Te3 2.947185 1_554
Ge0 Se0 3.089988 1_544
Ge0 Se0 3.089988 1_454
Ge0 Se0 3.089989 1_445
Se0 Sn0 2.934644 1_565
Se0 Sn0 2.934644 1_655
Se0 Sn0 2.934644 1_556
