# generated using pymatgen
data_Ce2Al6CuAu
_symmetry_space_group_name_H-M   'P 1'
_cell_length_a   4.29127600
_cell_length_b   4.29127600
_cell_length_c   10.67712100
_cell_angle_alpha   90.00000000
_cell_angle_beta   90.00000000
_cell_angle_gamma   90.00000000
_symmetry_Int_Tables_number   1
_chemical_formula_structural   Ce2Al6CuAu
_chemical_formula_sum   'Ce2 Al6 Cu1 Au1'
_cell_volume   196.61971396
_cell_formula_units_Z   1
loop_
 _symmetry_equiv_pos_site_id
 _symmetry_equiv_pos_as_xyz
  1  'x, y, z'
loop_
 _atom_site_type_symbol
 _atom_site_label
 _atom_site_symmetry_multiplicity
 _atom_site_fract_x
 _atom_site_fract_y
 _atom_site_fract_z
 _atom_site_occupancy
  Ce  Ce0  1  0.00000000  0.00000000  0.99976100  1
  Ce  Ce1  1  0.50000000  0.50000000  0.49104000  1
  Al  Al0  1  0.50000000  0.00000000  0.24625000  1
  Al  Al1  1  0.00000000  0.50000000  0.75908000  1
  Al  Al2  1  0.00000000  0.50000000  0.24625000  1
  Al  Al3  1  0.50000000  0.00000000  0.75908000  1
  Al  Al4  1  0.00000000  0.00000000  0.39741800  1
  Al  Al5  1  0.50000000  0.50000000  0.91165400  1
  Cu  Cu0  1  0.50000000  0.50000000  0.13385700  1
  Au  Au0  1  0.00000000  0.00000000  0.62961100  1
loop_
_geom_bond_atom_site_label_1
_geom_bond_atom_site_label_2
_geom_bond_distance
_geom_bond_site_symmetry_2
Ce0 Cu0 3.355214 1_446
Ce0 Cu0 3.355214 1_546
Ce0 Cu0 3.355214 1_456
Ce0 Cu0 3.355214 1_556
Al0 Cu0 2.458423 1_555
Al0 Cu0 2.458423 1_545
Al0 Ce1 3.381559 1_555
Al0 Ce1 3.381559 1_545
Al0 Ce0 3.395600 1_654
Al0 Ce0 3.395600 1_554
Al1 Au0 2.552385 1_555
Al1 Au0 2.552385 1_565
Al1 Ce0 3.347765 1_565
Al1 Ce0 3.347765 1_555
Al1 Ce1 3.576899 1_455
Al1 Ce1 3.576899 1_555
Al2 Cu0 2.458423 1_455
Al2 Cu0 2.458423 1_555
Al2 Ce1 3.381559 1_555
Al2 Ce1 3.381559 1_455
Al2 Ce0 3.395600 1_564
Al2 Ce0 3.395600 1_554
Al3 Au0 2.552385 1_555
Al3 Au0 2.552385 1_655
Al3 Ce0 3.347765 1_555
Al3 Ce0 3.347765 1_655
Al3 Ce1 3.576899 1_555
Al3 Ce1 3.576899 1_545
Al4 Au0 2.479153 1_555
Al4 Ce1 3.194801 1_445
Al4 Ce1 3.194801 1_555
Al4 Ce1 3.194801 1_545
Al4 Ce1 3.194801 1_455
Al5 Cu0 2.372488 1_556
Al5 Ce0 3.176869 1_655
Al5 Ce0 3.176869 1_665
Al5 Ce0 3.176869 1_565
Al5 Ce0 3.176869 1_555
Au0 Ce1 3.375879 1_445
Au0 Ce1 3.375879 1_455
Au0 Ce1 3.375879 1_545
Au0 Ce1 3.375879 1_555
