# generated using pymatgen
data_Mg6NiB
_symmetry_space_group_name_H-M   'P 1'
_cell_length_a   6.77310593
_cell_length_b   6.77310593
_cell_length_c   3.54611500
_cell_angle_alpha   90.00000000
_cell_angle_beta   90.00000000
_cell_angle_gamma   105.63648342
_symmetry_Int_Tables_number   1
_chemical_formula_structural   Mg6NiB
_chemical_formula_sum   'Mg6 Ni1 B1'
_cell_volume   156.65737346
_cell_formula_units_Z   1
loop_
 _symmetry_equiv_pos_site_id
 _symmetry_equiv_pos_as_xyz
  1  'x, y, z'
loop_
 _atom_site_type_symbol
 _atom_site_label
 _atom_site_symmetry_multiplicity
 _atom_site_fract_x
 _atom_site_fract_y
 _atom_site_fract_z
 _atom_site_occupancy
  Mg  Mg0  1  0.92957500  0.69268800  0.50000000  1
  Mg  Mg1  1  0.30731200  0.07042500  0.50000000  1
  Mg  Mg2  1  0.84639700  0.15360300  0.50000000  1
  Mg  Mg3  1  0.59591200  0.82789800  0.00000000  1
  Mg  Mg4  1  0.17210200  0.40408800  0.00000000  1
  Mg  Mg5  1  0.61901200  0.38098800  0.00000000  1
  Ni  Ni0  1  0.29926300  0.70073700  0.50000000  1
  B  B0  1  0.23042700  0.76957300  0.00000000  1
loop_
_geom_bond_atom_site_label_1
_geom_bond_atom_site_label_2
_geom_bond_distance
_geom_bond_site_symmetry_2
Mg0 Ni0 2.489795 1_655
Mg0 Mg5 3.103469 1_556
Mg0 Mg5 3.103469 1_555
Mg0 Mg2 3.318324 1_565
Mg1 Ni0 2.489795 1_545
Mg1 Mg5 3.103469 1_556
Mg1 Mg5 3.103469 1_555
Mg1 Mg2 3.318324 1_455
Mg2 Mg4 2.978438 1_655
Mg2 Mg4 2.978438 1_656
Mg2 Mg3 2.978438 1_546
Mg2 Mg3 2.978438 1_545
Mg2 Mg5 3.027571 1_556
Mg2 Mg5 3.027571 1_555
Mg3 Ni0 2.643804 1_554
Mg3 Ni0 2.643804 1_555
Mg3 Mg5 3.072836 1_555
Mg4 Ni0 2.643804 1_554
Mg4 Ni0 2.643804 1_555
Mg4 Mg5 3.072836 1_555
B0 Ni0 1.922410 1_555
B0 Ni0 1.922410 1_554
B0 Mg4 2.399342 1_555
B0 Mg3 2.399342 1_555
B0 Mg1 2.644830 1_564
B0 Mg1 2.644830 1_565
B0 Mg0 2.644830 1_455
B0 Mg0 2.644830 1_454
