# generated using pymatgen
data_Li4Co3O7
_symmetry_space_group_name_H-M   'P 1'
_cell_length_a   5.05633400
_cell_length_b   5.88074029
_cell_length_c   8.70626877
_cell_angle_alpha   91.04756426
_cell_angle_beta   95.08614736
_cell_angle_gamma   107.24646011
_symmetry_Int_Tables_number   1
_chemical_formula_structural   Li4Co3O7
_chemical_formula_sum   'Li8 Co6 O14'
_cell_volume   245.99714646
_cell_formula_units_Z   2
loop_
 _symmetry_equiv_pos_site_id
 _symmetry_equiv_pos_as_xyz
  1  'x, y, z'
loop_
 _atom_site_type_symbol
 _atom_site_label
 _atom_site_symmetry_multiplicity
 _atom_site_fract_x
 _atom_site_fract_y
 _atom_site_fract_z
 _atom_site_occupancy
  Li  Li0  1  0.85495400  0.20865000  0.71954100  1
  Li  Li1  1  0.70971600  0.92694300  0.42882900  1
  Li  Li2  1  0.28838700  0.06829800  0.57918300  1
  Li  Li3  1  0.14308000  0.78673700  0.28537700  1
  Li  Li4  1  0.57478700  0.64634800  0.13375900  1
  Li  Li5  1  0.00430000  0.50732900  0.99765800  1
  Li  Li6  1  0.42510900  0.35574400  0.85534500  1
  Li  Li7  1  0.42833100  0.85767400  0.85742000  1
  Co  Co0  1  0.99826600  0.99707600  0.99545200  1
  Co  Co1  1  0.86631100  0.71926200  0.71685600  1
  Co  Co2  1  0.71185300  0.42437400  0.42857900  1
  Co  Co3  1  0.56792100  0.13675500  0.13670400  1
  Co  Co4  1  0.28769900  0.57589300  0.57710700  1
  Co  Co5  1  0.14251500  0.28524100  0.28512300  1
  O  O0  1  0.11961300  0.02446000  0.79759500  1
  O  O1  1  0.00633600  0.73284800  0.51558000  1
  O  O2  1  0.55622500  0.85757300  0.63699400  1
  O  O3  1  0.41421200  0.58975800  0.37040700  1
  O  O4  1  0.84732700  0.45548400  0.22119300  1
  O  O5  1  0.27283700  0.30054300  0.07124600  1
  O  O6  1  0.74086400  0.16811900  0.94230500  1
  O  O7  1  0.55888700  0.41077500  0.63580500  1
  O  O8  1  0.43662500  0.11785300  0.35288300  1
  O  O9  1  0.01494000  0.27586700  0.49880300  1
  O  O10  1  0.86788900  0.97831900  0.20405500  1
  O  O11  1  0.27114300  0.84561400  0.07090600  1
  O  O12  1  0.74915900  0.70494500  0.92118500  1
  O  O13  1  0.14071600  0.54151800  0.76411000  1
loop_
_geom_bond_atom_site_label_1
_geom_bond_atom_site_label_2
_geom_bond_distance
_geom_bond_site_symmetry_2
Li0 O0 2.037409 1_655
Li0 O13 2.065389 1_655
Li0 O6 2.069972 1_555
Li0 O9 2.148903 1_655
Li0 O2 2.228154 1_545
Li0 O7 2.253601 1_555
Li1 O2 2.035196 1_555
Li1 O8 2.094960 1_565
Li1 O3 2.120065 1_555
Li1 O10 2.171725 1_555
Li1 O9 2.207528 1_665
Li1 O1 2.229013 1_655
Li2 O7 2.093019 1_555
Li2 O1 2.093767 1_545
Li2 O2 2.126065 1_545
Li2 O0 2.141452 1_555
Li2 O8 2.163759 1_555
Li2 O9 2.179880 1_555
Li3 O11 2.032449 1_555
Li3 O4 2.104275 1_455
Li3 O8 2.104705 1_565
Li3 O10 2.119158 1_455
Li3 O3 2.135982 1_555
Li3 O1 2.175856 1_555
Li4 O12 2.110399 1_554
Li4 O10 2.112360 1_555
Li4 O4 2.121495 1_555
Li4 O5 2.175742 1_555
Li4 O11 2.229612 1_555
Li4 O3 2.275158 1_555
Li5 O12 2.055023 1_455
Li5 O6 2.064273 1_455
Li5 O11 2.096228 1_556
Li5 O5 2.141552 1_556
Li5 O4 2.159291 1_456
Li5 O13 2.198188 1_555
Li6 O7 2.082712 1_555
Li6 O5 2.088574 1_556
Li6 O0 2.115741 1_555
Li6 O13 2.157086 1_555
Li6 O12 2.241791 1_555
Li6 O6 2.280447 1_555
Li7 O2 2.078778 1_555
Li7 O11 2.079590 1_556
Li7 O13 2.088934 1_555
Li7 O6 2.099831 1_565
Li7 O0 2.110059 1_565
Li7 O12 2.113994 1_555
Co0 O12 1.867568 1_555
Co0 O0 1.873151 1_665
Co0 O6 1.899025 1_565
Co0 O11 1.928226 1_656
Co0 O5 1.968015 1_666
Co0 O10 1.980317 1_556
Co1 O12 1.919730 1_555
Co1 O1 1.941650 1_655
Co1 O0 1.946011 1_665
Co1 O13 1.990335 1_655
Co1 O2 2.046193 1_555
Co1 O7 2.071682 1_555
Co2 O4 1.979849 1_555
Co2 O8 1.981597 1_555
Co2 O7 2.018823 1_555
Co2 O9 2.032757 1_655
Co2 O3 2.053813 1_555
Co2 O1 2.056640 1_655
Co3 O11 1.949260 1_545
Co3 O6 1.959952 1_554
Co3 O8 2.044718 1_555
Co3 O5 2.049436 1_555
Co3 O10 2.052483 1_545
Co3 O4 2.060429 1_555
Co4 O2 1.835364 1_555
Co4 O13 1.838858 1_555
Co4 O7 1.941053 1_555
Co4 O1 1.955625 1_555
Co4 O9 1.956088 1_555
Co4 O3 1.957783 1_555
Co5 O3 1.989285 1_555
Co5 O10 1.994396 1_445
Co5 O9 2.018788 1_555
Co5 O5 2.024388 1_555
Co5 O8 2.064516 1_555
Co5 O4 2.073405 1_455
