# generated using pymatgen
data_CoBi6P2(O7F)2
_symmetry_space_group_name_H-M   'P 1'
_cell_length_a   8.85253457
_cell_length_b   8.85253457
_cell_length_c   16.91437518
_cell_angle_alpha   71.07451168
_cell_angle_beta   71.07451168
_cell_angle_gamma   36.85297550
_symmetry_Int_Tables_number   1
_chemical_formula_structural   CoBi6P2(O7F)2
_chemical_formula_sum   'Co2 Bi12 P4 O28 F4'
_cell_volume   747.10764822
_cell_formula_units_Z   2
loop_
 _symmetry_equiv_pos_site_id
 _symmetry_equiv_pos_as_xyz
  1  'x, y, z'
loop_
 _atom_site_type_symbol
 _atom_site_label
 _atom_site_symmetry_multiplicity
 _atom_site_fract_x
 _atom_site_fract_y
 _atom_site_fract_z
 _atom_site_occupancy
  Co  Co0  1  0.00000000  0.00000000  0.00000000  1
  Co  Co1  1  0.00000000  0.00000000  0.50000000  1
  Bi  Bi0  1  0.89339800  0.88650200  0.32603600  1
  Bi  Bi1  1  0.10660200  0.11349800  0.67396400  1
  Bi  Bi2  1  0.11349800  0.10660200  0.17396400  1
  Bi  Bi3  1  0.88650200  0.89339800  0.82603600  1
  Bi  Bi4  1  0.76927200  0.83085600  0.16512600  1
  Bi  Bi5  1  0.23072800  0.16914400  0.83487400  1
  Bi  Bi6  1  0.16914400  0.23072800  0.33487400  1
  Bi  Bi7  1  0.83085600  0.76927200  0.66512600  1
  Bi  Bi8  1  0.57715500  0.54512200  0.32857400  1
  Bi  Bi9  1  0.42284500  0.45487800  0.67142600  1
  Bi  Bi10  1  0.45487800  0.42284500  0.17142600  1
  Bi  Bi11  1  0.54512200  0.57715500  0.82857400  1
  P  P0  1  0.63506000  0.64832000  0.99610100  1
  P  P1  1  0.36494000  0.35168000  0.00389900  1
  P  P2  1  0.35168000  0.36494000  0.50389900  1
  P  P3  1  0.64832000  0.63506000  0.49610100  1
  O  O0  1  0.83015000  0.05009600  0.11278500  1
  O  O1  1  0.16985000  0.94990400  0.88721500  1
  O  O2  1  0.94990400  0.16985000  0.38721500  1
  O  O3  1  0.05009600  0.83015000  0.61278500  1
  O  O4  1  0.21963800  0.78036200  0.25000000  1
  O  O5  1  0.78036200  0.21963800  0.75000000  1
  O  O6  1  0.71753000  0.28247000  0.25000000  1
  O  O7  1  0.28247000  0.71753000  0.75000000  1
  O  O8  1  0.62655300  0.17515600  0.51434800  1
  O  O9  1  0.37344700  0.82484400  0.48565200  1
  O  O10  1  0.82484400  0.37344700  0.98565200  1
  O  O11  1  0.17515600  0.62655300  0.01434800  1
  O  O12  1  0.38457500  0.78186900  0.05018000  1
  O  O13  1  0.61542500  0.21813100  0.94982000  1
  O  O14  1  0.21813100  0.61542500  0.44982000  1
  O  O15  1  0.78186900  0.38457500  0.55018000  1
  O  O16  1  0.38436600  0.20315600  0.08746800  1
  O  O17  1  0.61563400  0.79684400  0.91253200  1
  O  O18  1  0.79684400  0.61563400  0.41253200  1
  O  O19  1  0.20315600  0.38436600  0.58746800  1
  O  O20  1  0.40553400  0.93065400  0.24392300  1
  O  O21  1  0.59446600  0.06934600  0.75607700  1
  O  O22  1  0.06934600  0.59446600  0.25607700  1
  O  O23  1  0.93065400  0.40553400  0.74392300  1
  O  O24  1  0.56791800  0.09406500  0.25839800  1
  O  O25  1  0.43208200  0.90593500  0.74160200  1
  O  O26  1  0.90593500  0.43208200  0.24160200  1
  O  O27  1  0.09406500  0.56791800  0.75839800  1
  F  F0  1  0.36729100  0.23459000  0.44709700  1
  F  F1  1  0.63270900  0.76541000  0.55290300  1
  F  F2  1  0.76541000  0.63270900  0.05290300  1
  F  F3  1  0.23459000  0.36729100  0.94709700  1
loop_
_geom_bond_atom_site_label_1
_geom_bond_atom_site_label_2
_geom_bond_distance
_geom_bond_site_symmetry_2
Co0 O0 1.928147 1_455
Co0 O1 1.928147 1_544
Co0 O10 2.216425 1_454
Co0 O11 2.216425 1_545
Co0 O13 2.515948 1_454
Co0 O12 2.515948 1_545
Co1 O3 1.928147 1_545
Co1 O2 1.928147 1_455
Co1 O9 2.216425 1_545
Co1 O8 2.216425 1_455
Co1 O14 2.515948 1_545
Co1 O15 2.515948 1_455
Bi0 O22 2.203281 1_655
Bi0 O4 2.215731 1_655
Bi0 O24 2.299790 1_565
Bi0 O6 2.450710 1_565
Bi1 O23 2.203281 1_455
Bi1 O5 2.215731 1_455
Bi1 O25 2.299790 1_545
Bi1 O7 2.450710 1_545
Bi2 O20 2.203281 1_545
Bi2 O4 2.215731 1_545
Bi2 O26 2.299790 1_455
Bi2 O6 2.450710 1_455
Bi3 O21 2.203281 1_565
Bi3 O5 2.215731 1_565
Bi3 O27 2.299790 1_655
Bi3 O7 2.450710 1_655
Bi4 O24 2.238082 1_565
Bi4 O0 2.256296 1_565
Bi4 O22 2.338512 1_655
Bi4 O16 2.514154 1_565
Bi4 O20 2.520436 1_555
Bi4 O26 2.610958 1_555
Bi5 O25 2.238082 1_545
Bi5 O1 2.256296 1_545
Bi5 O23 2.338512 1_455
Bi5 O17 2.514154 1_545
Bi5 O21 2.520436 1_555
Bi5 O27 2.610958 1_555
Bi6 O26 2.238082 1_455
Bi6 O2 2.256296 1_455
Bi6 O20 2.338512 1_545
Bi6 O18 2.514154 1_455
Bi6 O22 2.520436 1_555
Bi6 O24 2.610958 1_555
Bi7 O27 2.238082 1_655
Bi7 O3 2.256296 1_655
Bi7 O21 2.338512 1_565
Bi7 O19 2.514154 1_655
Bi7 O23 2.520436 1_555
Bi7 O25 2.610958 1_555
Bi8 O6 2.241869 1_555
Bi8 O26 2.270042 1_555
Bi8 O2 2.313211 1_555
Bi8 O20 2.439155 1_555
Bi8 O4 2.550541 1_555
Bi8 O14 2.851111 1_555
Bi9 O7 2.241869 1_555
Bi9 O27 2.270042 1_555
Bi9 O3 2.313211 1_555
Bi9 O21 2.439155 1_555
Bi9 O5 2.550541 1_555
Bi9 O15 2.851111 1_555
Bi10 O6 2.241869 1_555
Bi10 O24 2.270042 1_555
Bi10 O0 2.313211 1_555
Bi10 O22 2.439155 1_555
Bi10 O4 2.550541 1_555
Bi10 O12 2.851111 1_555
Bi11 O7 2.241869 1_555
Bi11 O25 2.270042 1_555
Bi11 O1 2.313211 1_555
Bi11 O23 2.439155 1_555
Bi11 O5 2.550541 1_555
Bi11 O13 2.851111 1_555
O8 P2 1.522759 1_555
O9 P3 1.522759 1_555
O10 P0 1.522759 1_555
O11 P1 1.522759 1_555
O12 P0 1.530281 1_554
O13 P1 1.530281 1_556
O14 P2 1.530281 1_555
O15 P3 1.530281 1_555
O16 P1 1.531860 1_555
O17 P0 1.531860 1_555
O18 P3 1.531860 1_555
O19 P2 1.531860 1_555
F0 P2 1.628359 1_555
F1 P3 1.628359 1_555
F2 P0 1.628359 1_554
F3 P1 1.628359 1_556
