# generated using pymatgen
data_SrPr12Al12Si18(N2O)18
_symmetry_space_group_name_H-M   'P 1'
_cell_length_a   11.69134295
_cell_length_b   11.69134295
_cell_length_c   11.69134295
_cell_angle_alpha   109.47122063
_cell_angle_beta   109.47122063
_cell_angle_gamma   109.47122063
_symmetry_Int_Tables_number   1
_chemical_formula_structural   SrPr12Al12Si18(N2O)18
_chemical_formula_sum   'Sr1 Pr12 Al12 Si18 N36 O18'
_cell_volume   1230.18750000
_cell_formula_units_Z   1
loop_
 _symmetry_equiv_pos_site_id
 _symmetry_equiv_pos_as_xyz
  1  'x, y, z'
loop_
 _atom_site_type_symbol
 _atom_site_label
 _atom_site_symmetry_multiplicity
 _atom_site_fract_x
 _atom_site_fract_y
 _atom_site_fract_z
 _atom_site_occupancy
  Sr  Sr0  1  0.00000000  0.00000000  0.00000000  1
  Pr  Pr0  1  0.25329100  0.57709800  0.57709800  1
  Pr  Pr1  1  0.74670900  0.32380700  0.32380700  1
  Pr  Pr2  1  0.00000000  0.42290200  0.67619300  1
  Pr  Pr3  1  0.57709800  0.57709800  0.25329100  1
  Pr  Pr4  1  0.00000000  0.67619300  0.42290200  1
  Pr  Pr5  1  0.32380700  0.32380700  0.74670900  1
  Pr  Pr6  1  0.42290200  0.67619300  0.00000000  1
  Pr  Pr7  1  0.67619300  0.42290200  0.00000000  1
  Pr  Pr8  1  0.57709800  0.25329100  0.57709800  1
  Pr  Pr9  1  0.67619300  0.00000000  0.42290200  1
  Pr  Pr10  1  0.42290200  0.00000000  0.67619300  1
  Pr  Pr11  1  0.32380700  0.74670900  0.32380700  1
  Al  Al0  1  0.36539500  0.18868700  0.18868700  1
  Al  Al1  1  0.63460500  0.82329100  0.82329100  1
  Al  Al2  1  0.00000000  0.81131300  0.17670900  1
  Al  Al3  1  0.18868700  0.18868700  0.36539500  1
  Al  Al4  1  0.00000000  0.17670900  0.81131300  1
  Al  Al5  1  0.82329100  0.82329100  0.63460500  1
  Al  Al6  1  0.81131300  0.17670900  0.00000000  1
  Al  Al7  1  0.17670900  0.81131300  0.00000000  1
  Al  Al8  1  0.18868700  0.36539500  0.18868700  1
  Al  Al9  1  0.17670900  0.00000000  0.81131300  1
  Al  Al10  1  0.81131300  0.00000000  0.17670900  1
  Al  Al11  1  0.82329100  0.63460500  0.82329100  1
  Si  Si0  1  0.68341600  0.52262900  0.52262900  1
  Si  Si1  1  0.31658400  0.83921400  0.83921400  1
  Si  Si2  1  0.00000000  0.47737100  0.16078600  1
  Si  Si3  1  0.52262900  0.52262900  0.68341600  1
  Si  Si4  1  0.00000000  0.16078600  0.47737100  1
  Si  Si5  1  0.83921400  0.83921400  0.31658400  1
  Si  Si6  1  0.47737100  0.16078600  0.00000000  1
  Si  Si7  1  0.16078600  0.47737100  0.00000000  1
  Si  Si8  1  0.52262900  0.68341600  0.52262900  1
  Si  Si9  1  0.16078600  0.00000000  0.47737100  1
  Si  Si10  1  0.47737100  0.00000000  0.16078600  1
  Si  Si11  1  0.83921400  0.31658400  0.83921400  1
  Si  Si12  1  0.69808300  0.69808300  0.00000000  1
  Si  Si13  1  0.30191700  0.30191700  0.00000000  1
  Si  Si14  1  0.69808300  0.00000000  0.69808300  1
  Si  Si15  1  0.30191700  0.00000000  0.30191700  1
  Si  Si16  1  0.00000000  0.69808300  0.69808300  1
  Si  Si17  1  0.00000000  0.30191700  0.30191700  1
  N  N0  1  0.85402900  0.54337600  0.54337600  1
  N  N1  1  0.14597100  0.68934600  0.68934600  1
  N  N2  1  0.00000000  0.45662400  0.31065400  1
  N  N3  1  0.54337600  0.54337600  0.85402900  1
  N  N4  1  0.00000000  0.31065400  0.45662400  1
  N  N5  1  0.68934600  0.68934600  0.14597100  1
  N  N6  1  0.45662400  0.31065400  0.00000000  1
  N  N7  1  0.31065400  0.45662400  0.00000000  1
  N  N8  1  0.54337600  0.85402900  0.54337600  1
  N  N9  1  0.31065400  0.00000000  0.45662400  1
  N  N10  1  0.45662400  0.00000000  0.31065400  1
  N  N11  1  0.68934600  0.14597100  0.68934600  1
  N  N12  1  0.50032400  0.65152600  0.65152600  1
  N  N13  1  0.49967600  0.15120200  0.15120200  1
  N  N14  1  0.00000000  0.34847400  0.84879800  1
  N  N15  1  0.65152600  0.65152600  0.50032400  1
  N  N16  1  0.00000000  0.84879800  0.34847400  1
  N  N17  1  0.15120200  0.15120200  0.49967600  1
  N  N18  1  0.34847400  0.84879800  0.00000000  1
  N  N19  1  0.84879800  0.34847400  0.00000000  1
  N  N20  1  0.65152600  0.50032400  0.65152600  1
  N  N21  1  0.84879800  0.00000000  0.34847400  1
  N  N22  1  0.34847400  0.00000000  0.84879800  1
  N  N23  1  0.15120200  0.49967600  0.15120200  1
  N  N24  1  0.88798900  0.74451500  0.74451500  1
  N  N25  1  0.11201100  0.85652700  0.85652700  1
  N  N26  1  0.00000000  0.25548500  0.14347300  1
  N  N27  1  0.74451500  0.74451500  0.88798900  1
  N  N28  1  0.00000000  0.14347300  0.25548500  1
  N  N29  1  0.85652700  0.85652700  0.11201100  1
  N  N30  1  0.25548500  0.14347300  0.00000000  1
  N  N31  1  0.14347300  0.25548500  0.00000000  1
  N  N32  1  0.74451500  0.88798900  0.74451500  1
  N  N33  1  0.14347300  0.00000000  0.25548500  1
  N  N34  1  0.25548500  0.00000000  0.14347300  1
  N  N35  1  0.85652700  0.11201100  0.85652700  1
  O  O0  1  0.56227000  0.37112000  0.37112000  1
  O  O1  1  0.43773000  0.80885000  0.80885000  1
  O  O2  1  0.00000000  0.62888000  0.19115000  1
  O  O3  1  0.37112000  0.37112000  0.56227000  1
  O  O4  1  0.00000000  0.19115000  0.62888000  1
  O  O5  1  0.80885000  0.80885000  0.43773000  1
  O  O6  1  0.62888000  0.19115000  0.00000000  1
  O  O7  1  0.19115000  0.62888000  0.00000000  1
  O  O8  1  0.37112000  0.56227000  0.37112000  1
  O  O9  1  0.19115000  0.00000000  0.62888000  1
  O  O10  1  0.62888000  0.00000000  0.19115000  1
  O  O11  1  0.80885000  0.43773000  0.80885000  1
  O  O12  1  0.25000000  0.75000000  0.50000000  1
  O  O13  1  0.75000000  0.25000000  0.50000000  1
  O  O14  1  0.75000000  0.50000000  0.25000000  1
  O  O15  1  0.25000000  0.50000000  0.75000000  1
  O  O16  1  0.50000000  0.25000000  0.75000000  1
  O  O17  1  0.50000000  0.75000000  0.25000000  1
loop_
_geom_bond_atom_site_label_1
_geom_bond_atom_site_label_2
_geom_bond_distance
_geom_bond_site_symmetry_2
Al0 N13 1.907383 1_555
Al0 N30 1.917561 1_555
Al0 N34 1.917561 1_555
Al0 O0 2.194949 1_555
Al1 N12 1.907373 1_555
Al1 N27 1.917559 1_555
Al1 N32 1.917559 1_555
Al1 O1 2.194956 1_555
Al2 N16 1.907371 1_555
Al2 N33 1.917563 1_565
Al2 N29 1.917565 1_455
Al2 O2 2.194944 1_555
Al3 N17 1.907383 1_555
Al3 N33 1.917561 1_555
Al3 N28 1.917561 1_555
Al3 O3 2.194949 1_555
Al4 N14 1.907371 1_555
Al4 N31 1.917563 1_556
Al4 N35 1.917565 1_455
Al4 O4 2.194944 1_555
Al5 N15 1.907373 1_555
Al5 N24 1.917559 1_555
Al5 N32 1.917559 1_555
Al5 O5 2.194956 1_555
Al6 N19 1.907371 1_555
Al6 N26 1.917563 1_655
Al6 N35 1.917565 1_554
Al6 O6 2.194944 1_555
Al7 N18 1.907371 1_555
Al7 N34 1.917563 1_565
Al7 N25 1.917565 1_554
Al7 O7 2.194944 1_555
Al8 N23 1.907383 1_555
Al8 N26 1.917561 1_555
Al8 N31 1.917561 1_555
Al8 O8 2.194949 1_555
Al9 N22 1.907371 1_555
Al9 N30 1.917563 1_556
Al9 N25 1.917565 1_545
Al9 O9 2.194944 1_555
Al10 N21 1.907371 1_555
Al10 N28 1.917563 1_655
Al10 N29 1.917565 1_545
Al10 O10 2.194944 1_555
Al11 N20 1.907373 1_555
Al11 N27 1.917559 1_555
Al11 N24 1.917559 1_555
Al11 O11 2.194956 1_555
N0 Si16 1.777298 1_655
N0 Si0 1.847199 1_555
N0 Pr1 2.462949 1_555
N0 Pr2 2.932828 1_655
N0 Pr4 2.932828 1_655
N1 Si16 1.777306 1_555
N1 Si1 1.847212 1_555
N1 Pr0 2.462936 1_555
N1 Pr2 2.932824 1_555
N1 Pr4 2.932824 1_555
N2 Si17 1.777295 1_555
N2 Si2 1.847222 1_555
N2 Pr4 2.462946 1_555
N2 Pr0 2.932821 1_555
N2 Pr1 2.932821 1_455
N3 Si12 1.777298 1_556
N3 Si3 1.847199 1_555
N3 Pr5 2.462949 1_555
N3 Pr7 2.932828 1_556
N3 Pr6 2.932828 1_556
N4 Si17 1.777295 1_555
N4 Si4 1.847222 1_555
N4 Pr2 2.462946 1_555
N4 Pr0 2.932821 1_555
N4 Pr1 2.932821 1_455
N5 Si12 1.777306 1_555
N5 Si5 1.847212 1_555
N5 Pr3 2.462936 1_555
N5 Pr7 2.932824 1_555
N5 Pr6 2.932824 1_555
N6 Si13 1.777295 1_555
N6 Si6 1.847222 1_555
N6 Pr7 2.462946 1_555
N6 Pr3 2.932821 1_555
N6 Pr5 2.932821 1_554
N7 Si13 1.777295 1_555
N7 Si7 1.847222 1_555
N7 Pr6 2.462946 1_555
N7 Pr3 2.932821 1_555
N7 Pr5 2.932821 1_554
N8 Si14 1.777298 1_565
N8 Si8 1.847199 1_555
N8 Pr11 2.462949 1_555
N8 Pr9 2.932828 1_565
N8 Pr10 2.932828 1_565
N9 Si15 1.777295 1_555
N9 Si9 1.847222 1_555
N9 Pr10 2.462946 1_555
N9 Pr8 2.932821 1_555
N9 Pr11 2.932821 1_545
N10 Si15 1.777295 1_555
N10 Si10 1.847222 1_555
N10 Pr9 2.462946 1_555
N10 Pr8 2.932821 1_555
N10 Pr11 2.932821 1_545
N11 Si14 1.777306 1_555
N11 Si11 1.847212 1_555
N11 Pr8 2.462936 1_555
N11 Pr10 2.932824 1_555
N11 Pr9 2.932824 1_555
N12 Si8 1.746350 1_555
N12 Si3 1.746350 1_555
N12 Pr0 2.449509 1_555
N13 Si6 1.746345 1_555
N13 Si10 1.746345 1_555
N13 Pr1 2.449509 1_555
N14 Si11 1.746343 1_455
N14 Si7 1.746345 1_556
N14 Pr2 2.449509 1_555
N15 Si8 1.746350 1_555
N15 Si0 1.746350 1_555
N15 Pr3 2.449509 1_555
N16 Si5 1.746343 1_455
N16 Si9 1.746345 1_565
N16 Pr4 2.449509 1_555
N17 Si9 1.746345 1_555
N17 Si4 1.746345 1_555
N17 Pr5 2.449509 1_555
N18 Si1 1.746343 1_554
N18 Si10 1.746345 1_565
N18 Pr6 2.449509 1_555
N19 Si11 1.746343 1_554
N19 Si2 1.746345 1_655
N19 Pr7 2.449509 1_555
N20 Si0 1.746350 1_555
N20 Si3 1.746350 1_555
N20 Pr8 2.449509 1_555
N21 Si5 1.746343 1_545
N21 Si4 1.746345 1_655
N21 Pr9 2.449509 1_555
N22 Si1 1.746343 1_545
N22 Si6 1.746345 1_556
N22 Pr10 2.449509 1_555
N23 Si7 1.746345 1_555
N23 Si2 1.746345 1_555
N23 Pr11 2.449509 1_555
N24 Si16 1.748064 1_655
N24 Sr0 2.897482 1_666
N25 Si16 1.748074 1_555
N25 Sr0 2.897469 1_566
N26 Si17 1.748075 1_555
N26 Sr0 2.897479 1_555
N27 Si12 1.748064 1_556
N27 Sr0 2.897482 1_666
N28 Si17 1.748075 1_555
N28 Sr0 2.897479 1_555
N29 Si12 1.748074 1_555
N29 Sr0 2.897469 1_665
N30 Si13 1.748075 1_555
N30 Sr0 2.897479 1_555
N31 Si13 1.748075 1_555
N31 Sr0 2.897479 1_555
N32 Si14 1.748064 1_565
N32 Sr0 2.897482 1_666
N33 Si15 1.748075 1_555
N33 Sr0 2.897479 1_555
N34 Si15 1.748075 1_555
N34 Sr0 2.897479 1_555
N35 Si14 1.748074 1_555
N35 Sr0 2.897469 1_656
O0 Si0 1.686557 1_555
O0 Pr1 2.578401 1_555
O1 Si1 1.686566 1_555
O1 Pr0 2.578401 1_555
O2 Si2 1.686555 1_555
O2 Pr4 2.578401 1_555
O3 Si3 1.686557 1_555
O3 Pr5 2.578401 1_555
O4 Si4 1.686555 1_555
O4 Pr2 2.578401 1_555
O5 Si5 1.686566 1_555
O5 Pr3 2.578401 1_555
O6 Si6 1.686555 1_555
O6 Pr7 2.578401 1_555
O7 Si7 1.686555 1_555
O7 Pr6 2.578401 1_555
O8 Si8 1.686557 1_555
O8 Pr11 2.578401 1_555
O9 Si9 1.686555 1_555
O9 Pr10 2.578401 1_555
O10 Si10 1.686555 1_555
O10 Pr9 2.578401 1_555
O11 Si11 1.686566 1_555
O11 Pr8 2.578401 1_555
O12 Pr0 2.478652 1_555
O12 Pr11 2.478652 1_555
O12 Pr4 2.478652 1_555
O12 Pr10 2.478652 1_565
O13 Pr1 2.478652 1_555
O13 Pr8 2.478652 1_555
O13 Pr2 2.478652 1_655
O13 Pr9 2.478652 1_555
O14 Pr3 2.478652 1_555
O14 Pr1 2.478652 1_555
O14 Pr4 2.478652 1_655
O14 Pr7 2.478652 1_555
O15 Pr0 2.478652 1_555
O15 Pr5 2.478652 1_555
O15 Pr2 2.478652 1_555
O15 Pr6 2.478652 1_556
O16 Pr5 2.478652 1_555
O16 Pr8 2.478652 1_555
O16 Pr7 2.478652 1_556
O16 Pr10 2.478652 1_555
O17 Pr3 2.478652 1_555
O17 Pr11 2.478652 1_555
O17 Pr9 2.478652 1_565
O17 Pr6 2.478652 1_555
