# generated using pymatgen
data_Rb2CuBrCl3
_symmetry_space_group_name_H-M   'P 1'
_cell_length_a   8.89256442
_cell_length_b   8.89256442
_cell_length_c   7.30625600
_cell_angle_alpha   90.00000000
_cell_angle_beta   90.00000000
_cell_angle_gamma   131.53032623
_symmetry_Int_Tables_number   1
_chemical_formula_structural   Rb2CuBrCl3
_chemical_formula_sum   'Rb4 Cu2 Br2 Cl6'
_cell_volume   432.51541253
_cell_formula_units_Z   2
loop_
 _symmetry_equiv_pos_site_id
 _symmetry_equiv_pos_as_xyz
  1  'x, y, z'
loop_
 _atom_site_type_symbol
 _atom_site_label
 _atom_site_symmetry_multiplicity
 _atom_site_fract_x
 _atom_site_fract_y
 _atom_site_fract_z
 _atom_site_occupancy
  Rb  Rb0  1  0.86348500  0.13651500  0.50000000  1
  Rb  Rb1  1  0.36348500  0.63651500  0.00000000  1
  Rb  Rb2  1  0.13407700  0.86592300  0.50000000  1
  Rb  Rb3  1  0.63407700  0.36592300  0.00000000  1
  Cu  Cu0  1  0.50404400  0.49595600  0.50000000  1
  Cu  Cu1  1  0.00404400  0.99595600  0.00000000  1
  Br  Br0  1  0.34668100  0.65331900  0.50000000  1
  Br  Br1  1  0.84668100  0.15331900  0.00000000  1
  Cl  Cl0  1  0.64928000  0.35072000  0.50000000  1
  Cl  Cl1  1  0.14928000  0.85072000  0.00000000  1
  Cl  Cl2  1  0.28152100  0.27908700  0.28101300  1
  Cl  Cl3  1  0.72091300  0.71847900  0.71898700  1
  Cl  Cl4  1  0.22091300  0.21847900  0.78101300  1
  Cl  Cl5  1  0.78152100  0.77908700  0.21898700  1
loop_
_geom_bond_atom_site_label_1
_geom_bond_atom_site_label_2
_geom_bond_distance
_geom_bond_site_symmetry_2
Br0 Cu0 2.552072 1_555
Br0 Rb2 3.447956 1_555
Br0 Rb0 3.660357 1_455
Br0 Rb0 3.660357 1_565
Br0 Rb1 3.663279 1_555
Br0 Rb1 3.663279 1_556
Br1 Cu1 2.552072 1_645
Br1 Rb3 3.447956 1_555
Br1 Rb1 3.660357 1_545
Br1 Rb1 3.660357 1_655
Br1 Rb0 3.663279 1_554
Br1 Rb0 3.663279 1_555
Cl0 Cu0 2.355399 1_555
Cl0 Rb0 3.473921 1_555
Cl0 Rb2 3.658516 1_655
Cl0 Rb2 3.658516 1_545
Cl0 Rb3 3.661439 1_555
Cl0 Rb3 3.661439 1_556
Cl1 Cu1 2.355399 1_555
Cl1 Rb1 3.473921 1_555
Cl1 Rb3 3.658516 1_565
Cl1 Rb3 3.658516 1_455
Cl1 Rb2 3.661439 1_554
Cl1 Rb2 3.661439 1_555
Cl2 Cu0 2.265925 1_555
Cl2 Cu1 2.899139 1_545
Cl2 Rb2 3.374918 1_545
Cl2 Rb3 3.380904 1_555
Cl2 Rb0 3.425903 1_455
Cl2 Rb1 3.431800 1_555
Cl3 Cu0 2.265925 1_555
Cl3 Cu1 2.899139 1_656
Cl3 Rb2 3.374918 1_655
Cl3 Rb3 3.380904 1_556
Cl3 Rb0 3.425903 1_565
Cl3 Rb1 3.431800 1_556
Cl4 Cu1 2.265925 1_546
Cl4 Cu0 2.899139 1_555
Cl4 Rb3 3.374918 1_556
Cl4 Rb2 3.380904 1_545
Cl4 Rb1 3.425903 1_556
Cl4 Rb0 3.431800 1_455
Cl5 Cu1 2.265925 1_655
Cl5 Cu0 2.899139 1_555
Cl5 Rb3 3.374918 1_555
Cl5 Rb2 3.380904 1_655
Cl5 Rb1 3.425903 1_555
Cl5 Rb0 3.431800 1_565
