# generated using pymatgen
data_NiO2
_symmetry_space_group_name_H-M   'P 1'
_cell_length_a   2.80372700
_cell_length_b   8.28607300
_cell_length_c   9.91077200
_cell_angle_alpha   90.00000000
_cell_angle_beta   90.00000000
_cell_angle_gamma   90.00000000
_symmetry_Int_Tables_number   1
_chemical_formula_structural   NiO2
_chemical_formula_sum   'Ni8 O16'
_cell_volume   230.24593116
_cell_formula_units_Z   8
loop_
 _symmetry_equiv_pos_site_id
 _symmetry_equiv_pos_as_xyz
  1  'x, y, z'
loop_
 _atom_site_type_symbol
 _atom_site_label
 _atom_site_symmetry_multiplicity
 _atom_site_fract_x
 _atom_site_fract_y
 _atom_site_fract_z
 _atom_site_occupancy
  Ni  Ni0  1  0.75000000  0.45008600  0.38399800  1
  Ni  Ni1  1  0.75000000  0.95008600  0.11600200  1
  Ni  Ni2  1  0.25000000  0.54991400  0.61600200  1
  Ni  Ni3  1  0.25000000  0.04991400  0.88399800  1
  Ni  Ni4  1  0.75000000  0.40996400  0.90251200  1
  Ni  Ni5  1  0.25000000  0.09003600  0.40251200  1
  Ni  Ni6  1  0.75000000  0.90996400  0.59748800  1
  Ni  Ni7  1  0.25000000  0.59003600  0.09748800  1
  O  O0  1  0.75000000  0.61688000  0.97407700  1
  O  O1  1  0.25000000  0.08853500  0.06744900  1
  O  O2  1  0.75000000  0.68855800  0.66090400  1
  O  O3  1  0.25000000  0.81144200  0.16090400  1
  O  O4  1  0.25000000  0.38312000  0.02592300  1
  O  O5  1  0.25000000  0.94156100  0.71541800  1
  O  O6  1  0.25000000  0.31144200  0.33909600  1
  O  O7  1  0.75000000  0.41146500  0.56744900  1
  O  O8  1  0.75000000  0.11688000  0.52592300  1
  O  O9  1  0.75000000  0.05843900  0.28458200  1
  O  O10  1  0.25000000  0.44156100  0.78458200  1
  O  O11  1  0.25000000  0.88312000  0.47407700  1
  O  O12  1  0.75000000  0.55843900  0.21541800  1
  O  O13  1  0.75000000  0.91146500  0.93255100  1
  O  O14  1  0.25000000  0.58853500  0.43255100  1
  O  O15  1  0.75000000  0.18855800  0.83909600  1
loop_
_geom_bond_atom_site_label_1
_geom_bond_atom_site_label_2
_geom_bond_distance
_geom_bond_site_symmetry_2
Ni0 O7 1.846090 1_555
Ni0 O6 1.866288 1_655
Ni0 O6 1.866288 1_555
Ni0 O14 1.874256 1_555
Ni0 O14 1.874256 1_655
Ni0 O12 1.896711 1_555
Ni1 O13 1.846090 1_554
Ni1 O3 1.866288 1_555
Ni1 O3 1.866288 1_655
Ni1 O1 1.874256 1_565
Ni1 O1 1.874256 1_665
Ni1 O9 1.896711 1_565
Ni2 O14 1.846090 1_555
Ni2 O2 1.866288 1_455
Ni2 O2 1.866288 1_555
Ni2 O7 1.874256 1_455
Ni2 O7 1.874256 1_555
Ni2 O10 1.896711 1_555
Ni3 O1 1.846090 1_556
Ni3 O15 1.866288 1_555
Ni3 O15 1.866288 1_455
Ni3 O13 1.874256 1_545
Ni3 O13 1.874256 1_445
Ni3 O5 1.896711 1_545
Ni4 O10 1.843857 1_655
Ni4 O10 1.843857 1_555
Ni4 O0 1.855435 1_555
Ni4 O4 1.873677 1_556
Ni4 O4 1.873677 1_656
Ni4 O15 1.939258 1_555
Ni5 O9 1.843857 1_555
Ni5 O9 1.843857 1_455
Ni5 O11 1.855435 1_545
Ni5 O8 1.873677 1_555
Ni5 O8 1.873677 1_455
Ni5 O6 1.939258 1_555
Ni6 O5 1.843857 1_655
Ni6 O5 1.843857 1_555
Ni6 O8 1.855435 1_565
Ni6 O11 1.873677 1_655
Ni6 O11 1.873677 1_555
Ni6 O2 1.939258 1_555
Ni7 O12 1.843857 1_555
Ni7 O12 1.843857 1_455
Ni7 O4 1.855435 1_555
Ni7 O0 1.873677 1_554
Ni7 O0 1.873677 1_454
Ni7 O3 1.939258 1_555
