# generated using pymatgen
data_DyZnRh
_symmetry_space_group_name_H-M   'P 1'
_cell_length_a   3.99719452
_cell_length_b   6.89201861
_cell_length_c   8.06530915
_cell_angle_alpha   90.00000000
_cell_angle_beta   90.00000000
_cell_angle_gamma   90.00000000
_symmetry_Int_Tables_number   1
_chemical_formula_structural   DyZnRh
_chemical_formula_sum   'Dy4 Zn4 Rh4'
_cell_volume   222.18909689
_cell_formula_units_Z   4
loop_
 _symmetry_equiv_pos_site_id
 _symmetry_equiv_pos_as_xyz
  1  'x, y, z'
loop_
 _atom_site_type_symbol
 _atom_site_label
 _atom_site_symmetry_multiplicity
 _atom_site_fract_x
 _atom_site_fract_y
 _atom_site_fract_z
 _atom_site_occupancy
  Dy  Dy0  1  0.25000000  0.53881607  0.81598406  1
  Dy  Dy1  1  0.75000000  0.46118393  0.18401594  1
  Dy  Dy2  1  0.25000000  0.03881607  0.68401594  1
  Dy  Dy3  1  0.75000000  0.96118393  0.31598406  1
  Zn  Zn0  1  0.25000000  0.13616769  0.06298049  1
  Zn  Zn1  1  0.75000000  0.86383231  0.93701951  1
  Zn  Zn2  1  0.25000000  0.63616769  0.43701951  1
  Zn  Zn3  1  0.75000000  0.36383231  0.56298049  1
  Rh  Rh0  1  0.75000000  0.74445271  0.62402852  1
  Rh  Rh1  1  0.25000000  0.25554729  0.37597148  1
  Rh  Rh2  1  0.75000000  0.24445271  0.87597148  1
  Rh  Rh3  1  0.25000000  0.75554729  0.12402852  1
loop_
_geom_bond_atom_site_label_1
_geom_bond_atom_site_label_2
_geom_bond_distance
_geom_bond_site_symmetry_2
Dy0 Rh2 2.888655 1_555
Dy0 Rh2 2.888655 1_455
Dy0 Rh0 2.898251 1_555
Dy0 Rh0 2.898251 1_455
Dy0 Rh3 2.898930 1_556
Dy1 Rh3 2.888655 1_655
Dy1 Rh3 2.888655 1_555
Dy1 Rh1 2.898251 1_655
Dy1 Rh1 2.898251 1_555
Dy1 Rh2 2.898930 1_554
Dy2 Rh0 2.888655 1_445
Dy2 Rh0 2.888655 1_545
Dy2 Rh2 2.898251 1_455
Dy2 Rh2 2.898251 1_555
Dy2 Rh1 2.898930 1_555
Dy3 Rh1 2.888655 1_665
Dy3 Rh1 2.888655 1_565
Dy3 Rh3 2.898251 1_655
Dy3 Rh3 2.898251 1_555
Dy3 Rh0 2.898930 1_555
Rh0 Zn2 2.612716 1_555
Rh0 Zn2 2.612716 1_655
Rh0 Zn1 2.655068 1_555
Rh0 Zn3 2.669051 1_555
Rh1 Zn3 2.612716 1_555
Rh1 Zn3 2.612716 1_455
Rh1 Zn0 2.655068 1_555
Rh1 Zn2 2.669051 1_555
Rh2 Zn0 2.612716 1_656
Rh2 Zn0 2.612716 1_556
Rh2 Zn3 2.655068 1_555
Rh2 Zn1 2.669051 1_545
Rh3 Zn1 2.612716 1_554
Rh3 Zn1 2.612716 1_454
Rh3 Zn2 2.655068 1_555
Rh3 Zn0 2.669051 1_565
