# generated using pymatgen
data_YbGdZn2
_symmetry_space_group_name_H-M   'P 1'
_cell_length_a   4.99220865
_cell_length_b   4.99220865
_cell_length_c   4.99725469
_cell_angle_alpha   60.00822466
_cell_angle_beta   60.00822466
_cell_angle_gamma   89.97401446
_symmetry_Int_Tables_number   1
_chemical_formula_structural   YbGdZn2
_chemical_formula_sum   'Yb1 Gd1 Zn2'
_cell_volume   88.10654298
_cell_formula_units_Z   1
loop_
 _symmetry_equiv_pos_site_id
 _symmetry_equiv_pos_as_xyz
  1  'x, y, z'
loop_
 _atom_site_type_symbol
 _atom_site_label
 _atom_site_symmetry_multiplicity
 _atom_site_fract_x
 _atom_site_fract_y
 _atom_site_fract_z
 _atom_site_occupancy
  Yb  Yb0  1  0.50000000  0.50000000  0.50000000  1
  Gd  Gd0  1  0.00000000  0.00000000  0.50000000  1
  Zn  Zn0  1  0.75002585  0.24997415  0.00000000  1
  Zn  Zn1  1  0.24997415  0.75002585  0.00000000  1
loop_
_geom_bond_atom_site_label_1
_geom_bond_atom_site_label_2
_geom_bond_distance
_geom_bond_site_symmetry_2
Yb0 Zn1 3.058187 1_546
Yb0 Zn0 3.058187 1_456
Yb0 Zn0 3.058187 1_565
Yb0 Zn1 3.058187 1_655
Yb0 Zn0 3.059026 1_555
Yb0 Zn1 3.059026 1_555
Yb0 Zn0 3.059026 1_556
Yb0 Zn1 3.059026 1_556
Gd0 Zn1 3.058398 1_446
Gd0 Zn0 3.058398 1_446
Gd0 Zn0 3.058398 1_555
Gd0 Zn1 3.058398 1_555
Gd0 Zn1 3.058815 1_545
Gd0 Zn1 3.058815 1_546
Gd0 Zn0 3.058815 1_455
Gd0 Zn0 3.058815 1_456
