# generated using pymatgen
data_CrSb3Pb4O13
_symmetry_space_group_name_H-M   'P 1'
_cell_length_a   7.48214022
_cell_length_b   13.03384679
_cell_length_c   7.48249614
_cell_angle_alpha   89.43291820
_cell_angle_beta   60.56938673
_cell_angle_gamma   106.38476813
_symmetry_Int_Tables_number   1
_chemical_formula_structural   CrSb3Pb4O13
_chemical_formula_sum   'Cr2 Sb6 Pb8 O26'
_cell_volume   600.01746525
_cell_formula_units_Z   2
loop_
 _symmetry_equiv_pos_site_id
 _symmetry_equiv_pos_as_xyz
  1  'x, y, z'
loop_
 _atom_site_type_symbol
 _atom_site_label
 _atom_site_symmetry_multiplicity
 _atom_site_fract_x
 _atom_site_fract_y
 _atom_site_fract_z
 _atom_site_occupancy
  Cr  Cr0  1  0.50050400  0.74965200  0.25096600  1
  Cr  Cr1  1  0.50063600  0.24965100  0.75093700  1
  Sb  Sb0  1  0.99912200  0.24982800  0.75053300  1
  Sb  Sb1  1  0.99907700  0.74983900  0.25051300  1
  Sb  Sb2  1  0.50036200  0.00043900  0.99992000  1
  Sb  Sb3  1  0.50037800  0.50045100  0.49992300  1
  Sb  Sb4  1  0.50038500  0.24982800  0.24927400  1
  Sb  Sb5  1  0.50038600  0.74983100  0.74926800  1
  Pb  Pb0  1  0.00151400  0.49925600  0.00231800  1
  Pb  Pb1  1  0.00152600  0.99925500  0.50232800  1
  Pb  Pb2  1  0.49541800  0.49935500  0.00178200  1
  Pb  Pb3  1  0.49539600  0.99932500  0.50176700  1
  Pb  Pb4  1  0.00130400  0.25232600  0.24896400  1
  Pb  Pb5  1  0.00127900  0.75236200  0.74903000  1
  Pb  Pb6  1  0.00123600  0.49940800  0.49602200  1
  Pb  Pb7  1  0.00119600  0.99938300  0.99602200  1
  O  O0  1  0.87564000  0.06221300  0.31340000  1
  O  O1  1  0.87565200  0.56223500  0.81338900  1
  O  O2  1  0.17256800  0.21340800  0.85975500  1
  O  O3  1  0.17249500  0.71341700  0.35977500  1
  O  O4  1  0.57319400  0.41371000  0.65946700  1
  O  O5  1  0.57316100  0.91371000  0.15947200  1
  O  O6  1  0.57317200  0.21340600  0.45913700  1
  O  O7  1  0.57315800  0.71341600  0.95912800  1
  O  O8  1  0.57430800  0.41147800  0.26558800  1
  O  O9  1  0.57430600  0.91148000  0.76557500  1
  O  O10  1  0.17707800  0.21285500  0.46420900  1
  O  O11  1  0.17707600  0.71287100  0.96418900  1
  O  O12  1  0.17707300  0.41147200  0.66283400  1
  O  O13  1  0.17707300  0.91147700  0.16282800  1
  O  O14  1  0.82408700  0.28526300  0.64418900  1
  O  O15  1  0.82402900  0.78524400  0.14420200  1
  O  O16  1  0.42943900  0.08793700  0.84151200  1
  O  O17  1  0.42939900  0.58791500  0.34152500  1
  O  O18  1  0.42944400  0.28526300  0.03883000  1
  O  O19  1  0.42938900  0.78526200  0.53887900  1
  O  O20  1  0.42743100  0.08955400  0.23133400  1
  O  O21  1  0.42744600  0.58955000  0.73133200  1
  O  O22  1  0.82090700  0.28629500  0.03458700  1
  O  O23  1  0.82091800  0.78628400  0.53461100  1
  O  O24  1  0.82091500  0.08954800  0.83783800  1
  O  O25  1  0.82092600  0.58954700  0.33785000  1
loop_
_geom_bond_atom_site_label_1
_geom_bond_atom_site_label_2
_geom_bond_distance
_geom_bond_site_symmetry_2
Cr0 O17 2.042256 1_555
Cr0 O15 2.042477 1_555
Cr0 O19 2.042598 1_555
Cr0 O3 2.069756 1_555
Cr0 O7 2.070194 1_554
Cr0 O5 2.070272 1_555
Cr1 O16 2.041859 1_555
Cr1 O14 2.041957 1_555
Cr1 O18 2.042355 1_556
Cr1 O6 2.070136 1_555
Cr1 O2 2.070141 1_555
Cr1 O4 2.070392 1_555
O0 Pb1 2.297948 1_645
O0 Pb7 2.339407 1_644
O0 Pb4 2.339432 1_655
O0 Pb3 2.339534 1_545
O1 Pb0 2.297936 1_656
O1 Pb6 2.339321 1_655
O1 Pb2 2.339472 1_556
O1 Pb5 2.339605 1_655
O2 Sb0 1.989858 1_455
O2 Pb7 2.665772 1_545
O2 Pb4 2.666293 1_556
O3 Sb1 1.989894 1_455
O3 Pb6 2.665564 1_555
O3 Pb5 2.666708 1_555
O4 Sb3 1.990001 1_555
O4 Pb2 2.665263 1_556
O4 Pb6 2.665701 1_655
O5 Sb2 1.989852 1_564
O5 Pb3 2.664954 1_555
O5 Pb7 2.665627 1_654
O6 Sb4 1.989803 1_555
O6 Pb4 2.666201 1_655
O6 Pb3 2.666466 1_545
O7 Sb5 1.989673 1_555
O7 Pb5 2.666079 1_655
O7 Pb2 2.666246 1_556
O8 Sb4 2.043019 1_555
O8 Sb3 2.043092 1_555
O8 Pb2 2.652996 1_555
O8 Pb0 2.666611 1_655
O9 Sb5 2.042996 1_555
O9 Sb2 2.043029 1_565
O9 Pb3 2.652912 1_555
O9 Pb1 2.666658 1_655
O10 Sb0 2.043066 1_455
O10 Sb4 2.043069 1_555
O10 Pb4 2.652392 1_555
O10 Pb1 2.666549 1_545
O11 Sb5 2.043082 1_555
O11 Sb1 2.043103 1_456
O11 Pb5 2.652078 1_555
O11 Pb0 2.666726 1_556
O12 Sb0 2.042933 1_455
O12 Sb3 2.043031 1_555
O12 Pb6 2.653050 1_555
O12 Pb0 2.667105 1_556
O13 Sb2 2.042893 1_564
O13 Sb1 2.042936 1_455
O13 Pb7 2.653050 1_554
O13 Pb1 2.667132 1_555
O14 Sb0 1.979826 1_555
O14 Pb4 2.679673 1_655
O14 Pb6 2.680270 1_655
O15 Sb1 1.979574 1_555
O15 Pb5 2.679108 1_654
O15 Pb7 2.680215 1_654
O16 Sb2 1.979870 1_555
O16 Pb7 2.679960 1_545
O16 Pb3 2.680808 1_545
O17 Sb3 1.979833 1_555
O17 Pb6 2.679405 1_555
O17 Pb2 2.680387 1_555
O18 Sb4 1.979861 1_555
O18 Pb4 2.679409 1_555
O18 Pb2 2.679586 1_555
O19 Sb5 1.979768 1_555
O19 Pb3 2.679174 1_555
O19 Pb5 2.679303 1_555
O20 Sb2 2.028296 1_554
O20 Sb4 2.028321 1_555
O20 Pb3 2.652883 1_545
O20 Pb1 2.671782 1_545
O21 Sb3 2.028131 1_555
O21 Sb5 2.028400 1_555
O21 Pb2 2.652811 1_556
O21 Pb0 2.671906 1_556
O22 Sb4 2.028200 1_555
O22 Sb0 2.028246 1_554
O22 Pb4 2.653629 1_655
O22 Pb0 2.671861 1_655
O23 Sb5 2.028228 1_555
O23 Sb1 2.028275 1_555
O23 Pb5 2.653481 1_655
O23 Pb1 2.671961 1_655
O24 Sb2 2.028349 1_555
O24 Sb0 2.028374 1_555
O24 Pb7 2.652794 1_645
O24 Pb1 2.671201 1_645
O25 Sb3 2.028281 1_555
O25 Sb1 2.028415 1_555
O25 Pb6 2.652720 1_655
O25 Pb0 2.671271 1_655
