# generated using pymatgen
data_GdYCo6
_symmetry_space_group_name_H-M   'P 1'
_cell_length_a   4.91893447
_cell_length_b   4.91893449
_cell_length_c   16.64659618
_cell_angle_alpha   81.50367613
_cell_angle_beta   90.00000006
_cell_angle_gamma   120.00000021
_symmetry_Int_Tables_number   1
_chemical_formula_structural   GdYCo6
_chemical_formula_sum   'Gd3 Y3 Co18'
_cell_volume   343.70373203
_cell_formula_units_Z   3
loop_
 _symmetry_equiv_pos_site_id
 _symmetry_equiv_pos_as_xyz
  1  'x, y, z'
loop_
 _atom_site_type_symbol
 _atom_site_label
 _atom_site_symmetry_multiplicity
 _atom_site_fract_x
 _atom_site_fract_y
 _atom_site_fract_z
 _atom_site_occupancy
  Gd  Gd0  1  0.57006347  0.14012695  0.28980958  1
  Gd  Gd1  1  0.06989002  0.13978003  0.79032995  1
  Gd  Gd2  1  0.93015122  0.86030245  0.20954633  1
  Y  Y0  1  0.42988998  0.85977996  0.71033007  1
  Y  Y1  1  0.00004055  0.00008110  0.99987835  1
  Y  Y2  1  0.49985489  0.99970978  0.50043532  1
  Co  Co0  1  0.66737745  0.33475490  0.99786765  1
  Co  Co1  1  0.16715440  0.33430880  0.49853680  1
  Co  Co2  1  0.83267560  0.66535121  0.50197319  1
  Co  Co3  1  0.33274460  0.66548920  0.00176620  1
  Co  Co4  1  0.04028515  0.58020106  0.37951378  1
  Co  Co5  1  0.54005619  0.58108117  0.87886264  1
  Co  Co6  1  0.53991591  0.58020106  0.37951378  1
  Co  Co7  1  0.04102497  0.58108117  0.87886264  1
  Co  Co8  1  0.04028515  0.08057031  0.37951378  1
  Co  Co9  1  0.54005619  0.08011239  0.87886264  1
  Co  Co10  1  0.45994419  0.41940934  0.12064647  1
  Co  Co11  1  0.95974811  0.41932119  0.62093071  1
  Co  Co12  1  0.95946515  0.41940934  0.12064647  1
  Co  Co13  1  0.45957308  0.41932119  0.62093071  1
  Co  Co14  1  0.45994419  0.91988838  0.12064647  1
  Co  Co15  1  0.95974811  0.91949621  0.62093071  1
  Co  Co16  1  0.25016613  0.50033227  0.24950160  1
  Co  Co17  1  0.74994527  0.49989054  0.75016418  1
loop_
_geom_bond_atom_site_label_1
_geom_bond_atom_site_label_2
_geom_bond_distance
_geom_bond_site_symmetry_2
Co0 Co7 2.415450 1_655
Co0 Co9 2.415450 1_555
Co0 Co5 2.415450 1_555
Co0 Co12 2.463372 1_556
Co0 Co14 2.463372 1_546
Co0 Co10 2.463372 1_556
Co0 Y1 2.840140 1_555
Co0 Y1 2.840140 1_665
Co0 Y1 2.840140 1_655
Co1 Co6 2.413453 1_555
Co1 Co8 2.413453 1_555
Co1 Co4 2.413453 1_555
Co1 Co13 2.458712 1_555
Co1 Co15 2.458712 1_445
Co1 Co11 2.458712 1_455
Co1 Y2 2.840119 1_555
Co1 Y2 2.840119 1_445
Co1 Y2 2.840119 1_545
Co2 Co6 2.460482 1_555
Co2 Co8 2.460482 1_665
Co2 Co4 2.460482 1_655
Co2 Y2 2.840060 1_555
Co2 Y2 2.840060 1_655
Co2 Y2 2.840060 1_545
Co3 Co5 2.464245 1_554
Co3 Co7 2.464245 1_554
Co3 Co9 2.464245 1_564
Co3 Y1 2.840117 1_664
Co3 Y1 2.840117 1_554
Co3 Y1 2.840117 1_564
Co4 Co8 2.457651 1_555
Co4 Co6 2.457651 1_555
Co4 Co6 2.461284 1_455
Co4 Co8 2.461284 1_565
Co4 Gd0 2.865996 1_455
Co4 Gd0 2.865996 1_565
Co4 Gd2 3.129169 1_455
Co4 Y2 3.159580 1_445
Co4 Y2 3.159580 1_555
Co5 Co7 2.454702 1_555
Co5 Co9 2.454702 1_565
Co5 Co7 2.464233 1_655
Co5 Co9 2.464233 1_555
Co5 Gd1 2.856180 1_665
Co5 Gd1 2.856180 1_555
Co5 Y0 3.106483 1_555
Co5 Y1 3.160551 1_555
Co5 Y1 3.160551 1_665
Co6 Co8 2.457651 1_555
Co6 Co8 2.461284 1_665
Co6 Gd0 2.865996 1_555
Co6 Gd0 2.865996 1_565
Co6 Gd2 3.129169 1_555
Co6 Y2 3.159580 1_545
Co6 Y2 3.159580 1_555
Co7 Co9 2.454702 1_565
Co7 Co9 2.464233 1_455
Co7 Gd1 2.856180 1_565
Co7 Gd1 2.856180 1_555
Co7 Y0 3.106483 1_555
Co7 Y1 3.160551 1_565
Co7 Y1 3.160551 1_555
Co8 Gd0 2.865996 1_455
Co8 Gd0 2.865996 1_555
Co8 Gd2 3.129169 1_445
Co8 Y2 3.159580 1_445
Co8 Y2 3.159580 1_545
Co9 Gd1 2.856180 1_555
Co9 Gd1 2.856180 1_655
Co9 Y0 3.106483 1_545
Co9 Y1 3.160551 1_555
Co9 Y1 3.160551 1_655
Co10 Co3 2.412977 1_555
Co10 Co12 2.457111 1_555
Co10 Co14 2.457111 1_545
Co10 Co12 2.461824 1_455
Co10 Co14 2.461824 1_555
Co10 Co16 2.547018 1_555
Co10 Gd2 2.859245 1_445
Co10 Gd2 2.859245 1_555
Co10 Gd0 3.116323 1_555
Co10 Y1 3.158001 1_664
Co10 Y1 3.158001 1_554
Co11 Co2 2.413493 1_555
Co11 Co13 2.458606 1_655
Co11 Co15 2.458606 1_545
Co11 Co15 2.460328 1_555
Co11 Co13 2.460328 1_555
Co11 Co17 2.551689 1_555
Co11 Y0 2.863432 1_545
Co11 Y0 2.863432 1_655
Co11 Gd1 3.120164 1_655
Co11 Y2 3.155196 1_655
Co11 Y2 3.155196 1_545
Co12 Co3 2.412977 1_655
Co12 Co14 2.457111 1_545
Co12 Co14 2.461824 1_655
Co12 Co16 2.547018 1_655
Co12 Gd2 2.859245 1_545
Co12 Gd2 2.859245 1_555
Co12 Gd0 3.116323 1_555
Co12 Y1 3.158001 1_664
Co12 Y1 3.158001 1_654
Co13 Co2 2.413493 1_555
Co13 Co15 2.458606 1_445
Co13 Co15 2.460328 1_555
Co13 Co17 2.551689 1_555
Co13 Y0 2.863432 1_545
Co13 Y0 2.863432 1_555
Co13 Gd1 3.120164 1_555
Co13 Y2 3.155196 1_555
Co13 Y2 3.155196 1_545
Co14 Co3 2.412977 1_555
Co14 Co16 2.547018 1_555
Co14 Gd2 2.859245 1_555
Co14 Gd2 2.859245 1_455
Co14 Gd0 3.116323 1_565
Co14 Y1 3.158001 1_564
Co14 Y1 3.158001 1_664
Co15 Co2 2.413493 1_555
Co15 Co17 2.551689 1_555
Co15 Y0 2.863432 1_655
Co15 Y0 2.863432 1_555
Co15 Gd1 3.120164 1_665
Co15 Y2 3.155196 1_655
Co15 Y2 3.155196 1_555
Co16 Co4 2.561453 1_555
Co16 Co6 2.561453 1_555
Co16 Co8 2.561453 1_555
Co16 Gd2 2.914586 1_555
Co16 Gd2 2.914586 1_445
Co16 Gd2 2.914586 1_455
Co16 Gd0 2.915893 1_455
Co16 Gd0 2.915893 1_565
Co16 Gd0 2.915893 1_555
Co17 Co9 2.545663 1_555
Co17 Co7 2.545663 1_655
Co17 Co5 2.545663 1_555
Co17 Y0 2.914140 1_545
Co17 Y0 2.914140 1_655
Co17 Y0 2.914140 1_555
Co17 Gd1 2.915365 1_555
Co17 Gd1 2.915365 1_665
Co17 Gd1 2.915365 1_655
