# generated using pymatgen
data_ErMgGa
_symmetry_space_group_name_H-M   'P 1'
_cell_length_a   4.38746505
_cell_length_b   7.17887363
_cell_length_c   7.17887070
_cell_angle_alpha   119.99921477
_cell_angle_beta   89.99999345
_cell_angle_gamma   89.99999869
_symmetry_Int_Tables_number   1
_chemical_formula_structural   ErMgGa
_chemical_formula_sum   'Er3 Mg3 Ga3'
_cell_volume   195.82141201
_cell_formula_units_Z   3
loop_
 _symmetry_equiv_pos_site_id
 _symmetry_equiv_pos_as_xyz
  1  'x, y, z'
loop_
 _atom_site_type_symbol
 _atom_site_label
 _atom_site_symmetry_multiplicity
 _atom_site_fract_x
 _atom_site_fract_y
 _atom_site_fract_z
 _atom_site_occupancy
  Er  Er0  1  0.00000021  0.42621846  0.42621954  1
  Er  Er1  1  1.00000039  1.00000683  0.57379347  1
  Er  Er2  1  -0.00000107  0.57379094  0.00000650  1
  Mg  Mg0  1  0.49999929  0.75544643  0.75544937  1
  Mg  Mg1  1  0.50000048  -0.00000633  0.24455330  1
  Mg  Mg2  1  0.49999992  0.24455435  -0.00000485  1
  Ga  Ga0  1  0.50000062  0.66665388  0.33332557  1
  Ga  Ga1  1  0.50000047  0.33333586  0.66665889  1
  Ga  Ga2  1  0.99999971  -0.00000141  -0.00000079  1
loop_
_geom_bond_atom_site_label_1
_geom_bond_atom_site_label_2
_geom_bond_distance
_geom_bond_site_symmetry_2
Er0 Ga2 3.059816 1_455
Er0 Ga1 3.063877 1_455
Er0 Ga1 3.063879 1_555
Er0 Ga0 3.063899 1_455
Er0 Ga0 3.063901 1_555
Er0 Mg0 3.224698 1_555
Er0 Mg0 3.224703 1_455
Er0 Mg2 3.447513 1_555
Er0 Mg2 3.447515 1_455
Er0 Mg1 3.447515 1_455
Er0 Mg1 3.447516 1_555
Er0 Er1 3.704818 1_445
Er0 Er2 3.704819 1_555
Er0 Er2 3.704853 1_556
Er0 Er1 3.704862 1_455
Er1 Ga2 3.059705 1_566
Er1 Ga1 3.063944 1_565
Er1 Ga1 3.063945 1_665
Er1 Ga0 3.064045 1_555
Er1 Ga0 3.064046 1_655
Er1 Mg1 3.224704 1_565
Er1 Mg1 3.224704 1_665
Er1 Mg2 3.447409 1_666
Er1 Mg2 3.447411 1_566
Er1 Mg0 3.447453 1_655
Er1 Mg0 3.447459 1_555
Er1 Er2 3.704864 1_666
Er1 Er2 3.704883 1_655
Er2 Ga2 3.059717 1_465
Er2 Ga0 3.063894 1_455
Er2 Ga0 3.063905 1_555
Er2 Ga1 3.064005 1_454
Er2 Ga1 3.064015 1_554
Er2 Mg2 3.224688 1_455
Er2 Mg2 3.224693 1_555
Er2 Mg1 3.447410 1_465
Er2 Mg1 3.447419 1_565
Er2 Mg0 3.447437 1_454
Er2 Mg0 3.447439 1_554
Mg0 Mg1 3.040824 1_566
Mg0 Mg2 3.040851 1_566
Mg1 Mg2 3.040882 1_555
Ga0 Mg2 2.767192 1_555
Ga0 Mg1 2.767235 1_565
Ga0 Mg0 2.767285 1_555
Ga1 Mg0 2.767198 1_555
Ga1 Mg1 2.767247 1_555
Ga1 Mg2 2.767253 1_556
Ga2 Mg0 2.809744 1_644
Ga2 Mg0 2.809747 1_544
Ga2 Mg1 2.809754 1_555
Ga2 Mg1 2.809760 1_655
Ga2 Mg2 2.809762 1_555
Ga2 Mg2 2.809764 1_655
