# generated using pymatgen
data_Fe2B4Mo
_symmetry_space_group_name_H-M   'P 1'
_cell_length_a   6.65591248
_cell_length_b   6.65591248
_cell_length_c   6.65591248
_cell_angle_alpha   154.06531109
_cell_angle_beta   153.08028712
_cell_angle_gamma   37.72702777
_symmetry_Int_Tables_number   1
_chemical_formula_structural   Fe2B4Mo
_chemical_formula_sum   'Fe2 B4 Mo1'
_cell_volume   58.29590714
_cell_formula_units_Z   1
loop_
 _symmetry_equiv_pos_site_id
 _symmetry_equiv_pos_as_xyz
  1  'x, y, z'
loop_
 _atom_site_type_symbol
 _atom_site_label
 _atom_site_symmetry_multiplicity
 _atom_site_fract_x
 _atom_site_fract_y
 _atom_site_fract_z
 _atom_site_occupancy
  Fe  Fe0  1  0.81584000  0.81584000  0.00000000  1
  Fe  Fe1  1  0.18416000  0.18416000  0.00000000  1
  B  B0  1  0.42570400  0.92570400  0.50000000  1
  B  B1  1  0.57429600  0.07429600  0.50000000  1
  B  B2  1  0.34751900  0.34751900  0.00000000  1
  B  B3  1  0.65248100  0.65248100  0.00000000  1
  Mo  Mo0  1  0.00000000  0.50000000  0.50000000  1
loop_
_geom_bond_atom_site_label_1
_geom_bond_atom_site_label_2
_geom_bond_distance
_geom_bond_site_symmetry_2
B0 B2 1.789054 1_555
B0 B2 1.789054 1_566
B0 B1 1.871794 1_565
B0 Fe0 2.077376 1_455
B0 Fe0 2.077376 1_556
B0 Mo0 2.346660 1_655
B0 Mo0 2.346660 1_666
B0 Mo0 2.346660 1_554
B0 Mo0 2.346660 1_565
B1 B3 1.789054 1_556
B1 B3 1.789054 1_545
B1 Fe1 2.077376 1_656
B1 Fe1 2.077376 1_555
B1 Mo0 2.346660 1_656
B1 Mo0 2.346660 1_544
B1 Mo0 2.346660 1_645
B1 Mo0 2.346660 1_555
B2 Fe1 2.057811 1_555
B2 Fe0 2.188643 1_545
B2 Fe0 2.188643 1_455
B2 Fe0 2.188643 1_556
B2 Fe0 2.188643 1_444
B2 Mo0 2.467712 1_655
B2 Mo0 2.467712 1_554
B3 Fe0 2.057811 1_555
B3 Fe1 2.188643 1_666
B3 Fe1 2.188643 1_565
B3 Fe1 2.188643 1_655
B3 Fe1 2.188643 1_554
B3 Mo0 2.467712 1_655
B3 Mo0 2.467712 1_554
