# generated using pymatgen
data_Ca4Sb2O
_symmetry_space_group_name_H-M   'P 1'
_cell_length_a   4.70004731
_cell_length_b   4.70004795
_cell_length_c   8.80146486
_cell_angle_alpha   105.48605645
_cell_angle_beta   105.48605623
_cell_angle_gamma   90.00000091
_symmetry_Int_Tables_number   1
_chemical_formula_structural   Ca4Sb2O
_chemical_formula_sum   'Ca4 Sb2 O1'
_cell_volume   180.03450349
_cell_formula_units_Z   1
loop_
 _symmetry_equiv_pos_site_id
 _symmetry_equiv_pos_as_xyz
  1  'x, y, z'
loop_
 _atom_site_type_symbol
 _atom_site_label
 _atom_site_symmetry_multiplicity
 _atom_site_fract_x
 _atom_site_fract_y
 _atom_site_fract_z
 _atom_site_occupancy
  Ca  Ca0  1  0.66493596  0.66493596  0.32987092  1
  Ca  Ca1  1  0.33506404  0.33506404  0.67012908  1
  Ca  Ca2  1  0.50000000  0.00000000  0.00000000  1
  Ca  Ca3  1  0.00000000  0.50000000  0.00000000  1
  Sb  Sb0  1  0.86100906  0.86100906  0.72201912  1
  Sb  Sb1  1  0.13899094  0.13899094  0.27798088  1
  O  O0  1  0.50000000  0.50000000  0.00000000  1
loop_
_geom_bond_atom_site_label_1
_geom_bond_atom_site_label_2
_geom_bond_distance
_geom_bond_site_symmetry_2
Ca0 O0 2.688408 1_555
Ca0 Sb0 3.195961 1_555
Ca0 Sb1 3.350234 1_555
Ca0 Sb1 3.350234 1_565
Ca0 Sb1 3.350234 1_655
Ca0 Sb1 3.350234 1_665
Ca1 O0 2.688408 1_556
Ca1 Sb1 3.195961 1_555
Ca1 Sb0 3.350234 1_555
Ca1 Sb0 3.350234 1_545
Ca1 Sb0 3.350234 1_455
Ca1 Sb0 3.350234 1_445
Ca2 O0 2.350024 1_545
Ca2 O0 2.350024 1_555
Ca2 Sb1 3.264221 1_555
Ca2 Sb0 3.264221 1_544
Ca2 Sb0 3.264224 1_444
Ca2 Sb1 3.264224 1_655
Ca3 O0 2.350024 1_555
Ca3 O0 2.350024 1_455
Ca3 Sb0 3.264222 1_454
Ca3 Sb1 3.264222 1_555
Ca3 Sb1 3.264225 1_565
Ca3 Sb0 3.264225 1_444
