# generated using pymatgen
data_Y(NiO2)3
_symmetry_space_group_name_H-M   'P 1'
_cell_length_a   18.31402323
_cell_length_b   6.13422929
_cell_length_c   6.13422838
_cell_angle_alpha   59.99161070
_cell_angle_beta   59.68974196
_cell_angle_gamma   59.68973144
_symmetry_Int_Tables_number   1
_chemical_formula_structural   Y(NiO2)3
_chemical_formula_sum   'Y4 Ni12 O24'
_cell_volume   484.96316033
_cell_formula_units_Z   4
loop_
 _symmetry_equiv_pos_site_id
 _symmetry_equiv_pos_as_xyz
  1  'x, y, z'
loop_
 _atom_site_type_symbol
 _atom_site_label
 _atom_site_symmetry_multiplicity
 _atom_site_fract_x
 _atom_site_fract_y
 _atom_site_fract_z
 _atom_site_occupancy
  Y  Y0  1  0.22019800  0.61345100  0.61345100  1
  Y  Y1  1  0.53779100  0.62687400  0.62687400  1
  Y  Y2  1  0.11313500  0.38654900  0.38654900  1
  Y  Y3  1  0.79554200  0.37312600  0.37312600  1
  Ni  Ni0  1  0.99810700  0.50558800  0.00032100  1
  Ni  Ni1  1  0.33522600  0.49441200  0.99967900  1
  Ni  Ni2  1  0.66666700  0.50000000  0.00000000  1
  Ni  Ni3  1  0.99797100  0.00092900  0.00092900  1
  Ni  Ni4  1  0.33536200  0.99907100  0.99907100  1
  Ni  Ni5  1  0.66666700  0.00000000  0.00000000  1
  Ni  Ni6  1  0.16666700  0.00000000  0.00000000  1
  Ni  Ni7  1  0.49927500  0.99871700  0.99871700  1
  Ni  Ni8  1  0.83405800  0.00128300  0.00128300  1
  Ni  Ni9  1  0.99810700  0.00032100  0.50558800  1
  Ni  Ni10  1  0.33522600  0.99967900  0.49441200  1
  Ni  Ni11  1  0.66666700  0.00000000  0.50000000  1
  O  O0  1  0.07555300  0.75574000  0.75574000  1
  O  O1  1  0.40098600  0.76362100  0.76362100  1
  O  O2  1  0.72721300  0.76304100  0.76304100  1
  O  O3  1  0.07140700  0.23422200  0.80868900  1
  O  O4  1  0.41221600  0.21743100  0.81534800  1
  O  O5  1  0.74911400  0.22777300  0.80406000  1
  O  O6  1  0.07140700  0.80868900  0.23422200  1
  O  O7  1  0.41221600  0.81534800  0.21743100  1
  O  O8  1  0.74911400  0.80406000  0.22777300  1
  O  O9  1  0.07198900  0.23721300  0.23721300  1
  O  O10  1  0.41376500  0.22112300  0.22112300  1
  O  O11  1  0.74950200  0.22644100  0.22644100  1
  O  O12  1  0.26192600  0.76577800  0.19131100  1
  O  O13  1  0.58422000  0.77222700  0.19594000  1
  O  O14  1  0.92111700  0.78256900  0.18465200  1
  O  O15  1  0.25778100  0.24426000  0.24426000  1
  O  O16  1  0.60612000  0.23695900  0.23695900  1
  O  O17  1  0.93234700  0.23637900  0.23637900  1
  O  O18  1  0.26192600  0.19131100  0.76577800  1
  O  O19  1  0.58422000  0.19594000  0.77222700  1
  O  O20  1  0.92111700  0.18465200  0.78256900  1
  O  O21  1  0.26134500  0.76278700  0.76278700  1
  O  O22  1  0.58383100  0.77355900  0.77355900  1
  O  O23  1  0.91956800  0.77887700  0.77887700  1
loop_
_geom_bond_atom_site_label_1
_geom_bond_atom_site_label_2
_geom_bond_distance
_geom_bond_site_symmetry_2
Ni0 O23 1.996236 1_554
Ni0 O9 1.999007 1_655
Ni0 O14 2.011905 1_555
Ni0 O3 2.015890 1_654
Ni0 O17 2.032149 1_555
Ni0 O0 2.088885 1_654
Ni1 O10 1.996236 1_556
Ni1 O21 1.998996 1_555
Ni1 O4 2.011905 1_555
Ni1 O12 2.015890 1_556
Ni1 O1 2.032149 1_555
Ni1 O15 2.088872 1_556
Ni2 O2 1.943965 1_554
Ni2 O16 1.943976 1_555
Ni2 O5 2.035650 1_554
Ni2 O13 2.035650 1_555
Ni2 O11 2.067050 1_555
Ni2 O22 2.067062 1_554
Ni3 O20 1.958895 1_554
Ni3 O14 1.958896 1_545
Ni3 O6 1.975148 1_645
Ni3 O3 1.975149 1_654
Ni3 O17 2.049106 1_555
Ni3 O0 2.119382 1_644
Ni4 O7 1.958895 1_556
Ni4 O4 1.958896 1_565
Ni4 O18 1.975148 1_565
Ni4 O12 1.975149 1_556
Ni4 O1 2.049106 1_555
Ni4 O15 2.119382 1_566
Ni5 O8 2.072338 1_545
Ni5 O19 2.072338 1_554
Ni5 O5 2.072339 1_554
Ni5 O13 2.072339 1_545
Ni5 O16 2.077221 1_555
Ni5 O2 2.077224 1_544
Ni6 O21 2.065372 1_544
Ni6 O9 2.065372 1_555
Ni6 O12 2.082067 1_545
Ni6 O18 2.082067 1_554
Ni6 O3 2.082081 1_554
Ni6 O6 2.082081 1_545
Ni7 O10 1.929696 1_566
Ni7 O4 1.936215 1_565
Ni7 O7 1.936215 1_556
Ni7 O22 1.950310 1_555
Ni7 O13 1.962369 1_556
Ni7 O19 1.962369 1_565
Ni8 O23 1.929696 1_544
Ni8 O14 1.936215 1_545
Ni8 O20 1.936215 1_554
Ni8 O11 1.950310 1_555
Ni8 O5 1.962355 1_554
Ni8 O8 1.962356 1_545
Ni9 O23 1.996236 1_545
Ni9 O9 1.999008 1_655
Ni9 O20 2.011905 1_555
Ni9 O6 2.015890 1_645
Ni9 O17 2.032148 1_555
Ni9 O0 2.088884 1_645
Ni10 O10 1.996236 1_565
Ni10 O21 1.998996 1_555
Ni10 O7 2.011905 1_555
Ni10 O18 2.015890 1_565
Ni10 O1 2.032148 1_555
Ni10 O15 2.088872 1_565
Ni11 O2 1.943964 1_545
Ni11 O16 1.943975 1_555
Ni11 O19 2.035650 1_555
Ni11 O8 2.035650 1_545
Ni11 O11 2.067051 1_555
Ni11 O22 2.067063 1_545
O0 Y0 2.153009 1_555
O1 Y1 2.036102 1_555
O3 Y2 2.113223 1_555
O5 Y3 2.155165 1_555
O6 Y2 2.113223 1_555
O8 Y3 2.155165 1_555
O9 Y2 2.116383 1_555
O11 Y3 2.161403 1_555
O12 Y0 2.113223 1_555
O13 Y1 2.155165 1_555
O15 Y2 2.153024 1_555
O17 Y3 2.036102 1_555
O18 Y0 2.113223 1_555
O19 Y1 2.155165 1_555
O21 Y0 2.116397 1_555
O22 Y1 2.161403 1_555
