# generated using pymatgen
data_CsP2(HO2)3
_symmetry_space_group_name_H-M   'P 1'
_cell_length_a   7.49291700
_cell_length_b   7.70495720
_cell_length_c   7.97659935
_cell_angle_alpha   87.71763251
_cell_angle_beta   115.24402053
_cell_angle_gamma   118.66451399
_symmetry_Int_Tables_number   1
_chemical_formula_structural   CsP2(HO2)3
_chemical_formula_sum   'Cs2 P4 H6 O12'
_cell_volume   357.52130743
_cell_formula_units_Z   2
loop_
 _symmetry_equiv_pos_site_id
 _symmetry_equiv_pos_as_xyz
  1  'x, y, z'
loop_
 _atom_site_type_symbol
 _atom_site_label
 _atom_site_symmetry_multiplicity
 _atom_site_fract_x
 _atom_site_fract_y
 _atom_site_fract_z
 _atom_site_occupancy
  Cs  Cs0  1  0.46115800  0.79539100  0.76386200  1
  Cs  Cs1  1  0.53884200  0.20460900  0.23613800  1
  P  P0  1  0.04743000  0.07762900  0.63938100  1
  P  P1  1  0.95257000  0.92237100  0.36061900  1
  P  P2  1  0.14709100  0.52012700  0.13322100  1
  P  P3  1  0.85290900  0.47987300  0.86677900  1
  H  H0  1  0.99419600  0.82500300  0.81927700  1
  H  H1  1  0.00580400  0.17499700  0.18072300  1
  H  H2  1  0.42427500  0.29625000  0.75667900  1
  H  H3  1  0.57572500  0.70375000  0.24332100  1
  H  H4  1  0.10868200  0.69774600  0.31500500  1
  H  H5  1  0.89131800  0.30225400  0.68499500  1
  O  O0  1  0.84699000  0.09409000  0.62299000  1
  O  O1  1  0.15301000  0.90591000  0.37701000  1
  O  O2  1  0.12668700  0.96045200  0.79016700  1
  O  O3  1  0.87331300  0.03954800  0.20983300  1
  O  O4  1  0.26522800  0.29238100  0.68702700  1
  O  O5  1  0.73477200  0.70761900  0.31297300  1
  O  O6  1  0.36401400  0.70084600  0.14223500  1
  O  O7  1  0.63598600  0.29915400  0.85776500  1
  O  O8  1  0.15006400  0.32217500  0.14317400  1
  O  O9  1  0.84993600  0.67782500  0.85682600  1
  O  O10  1  0.09242700  0.55786400  0.29540900  1
  O  O11  1  0.90757300  0.44213600  0.70459100  1
loop_
_geom_bond_atom_site_label_1
_geom_bond_atom_site_label_2
_geom_bond_distance
_geom_bond_site_symmetry_2
Cs0 O9 3.239138 1_555
Cs0 H4 3.256232 1_555
Cs0 O0 3.331522 1_565
Cs0 O1 3.343363 1_555
Cs0 O3 3.364504 1_566
Cs0 O6 3.370401 1_556
Cs0 O2 3.386722 1_555
Cs0 O4 3.393358 1_555
Cs0 O10 3.439981 1_555
Cs0 O7 3.443771 1_565
Cs0 O11 3.526477 1_455
Cs1 O8 3.239138 1_555
Cs1 H5 3.256232 1_555
Cs1 O1 3.331522 1_545
Cs1 O0 3.343363 1_555
Cs1 O2 3.364504 1_544
Cs1 O7 3.370401 1_554
Cs1 O3 3.386722 1_555
Cs1 O5 3.393358 1_555
Cs1 O11 3.439981 1_555
Cs1 O6 3.443771 1_545
Cs1 O10 3.526477 1_655
H0 O2 1.145418 1_655
H0 O9 1.271694 1_555
H1 O3 1.145418 1_455
H1 O8 1.271694 1_555
H2 O4 1.064082 1_555
H2 O7 1.429507 1_555
H3 O5 1.064082 1_555
H3 O6 1.429507 1_555
H4 O10 1.035437 1_555
H4 O1 1.529511 1_555
H5 O11 1.035437 1_555
H5 O0 1.529511 1_555
O0 P0 1.517485 1_655
O1 P1 1.517485 1_455
O2 P0 1.559833 1_565
O3 P1 1.559833 1_545
O4 P0 1.573552 1_555
O5 P1 1.573552 1_555
O6 P2 1.524122 1_555
O7 P3 1.524122 1_555
O8 P2 1.534442 1_555
O9 P3 1.534442 1_555
O10 P2 1.588137 1_555
O11 P3 1.588137 1_555
