# generated using pymatgen
data_Li6Mn3CoO10
_symmetry_space_group_name_H-M   'P 1'
_cell_length_a   6.68622443
_cell_length_b   6.68622443
_cell_length_c   9.80119885
_cell_angle_alpha   77.15020345
_cell_angle_beta   77.15020345
_cell_angle_gamma   24.87722326
_symmetry_Int_Tables_number   1
_chemical_formula_structural   Li6Mn3CoO10
_chemical_formula_sum   'Li6 Mn3 Co1 O10'
_cell_volume   179.48279211
_cell_formula_units_Z   1
loop_
 _symmetry_equiv_pos_site_id
 _symmetry_equiv_pos_as_xyz
  1  'x, y, z'
loop_
 _atom_site_type_symbol
 _atom_site_label
 _atom_site_symmetry_multiplicity
 _atom_site_fract_x
 _atom_site_fract_y
 _atom_site_fract_z
 _atom_site_occupancy
  Li  Li0  1  0.69514500  0.69514500  0.90820000  1
  Li  Li1  1  0.10161200  0.10161200  0.69901900  1
  Li  Li2  1  0.29491800  0.29491800  0.10197500  1
  Li  Li3  1  0.90523000  0.90523000  0.29871300  1
  Li  Li4  1  0.50311600  0.50311600  0.49286800  1
  Li  Li5  1  0.60042200  0.60042200  0.20080400  1
  Mn  Mn0  1  0.00871200  0.00871200  0.00630700  1
  Mn  Mn1  1  0.19252000  0.19252000  0.39531000  1
  Mn  Mn2  1  0.39942900  0.39942900  0.80023200  1
  Co  Co0  1  0.79797500  0.79797500  0.59680700  1
  O  O0  1  0.54804900  0.54804900  0.86744900  1
  O  O1  1  0.94559400  0.94559400  0.66402800  1
  O  O2  1  0.13929500  0.13929500  0.04442400  1
  O  O3  1  0.74726100  0.74726100  0.26683600  1
  O  O4  1  0.33697100  0.33697100  0.46076300  1
  O  O5  1  0.86125000  0.86125000  0.94190400  1
  O  O6  1  0.25267100  0.25267100  0.72956500  1
  O  O7  1  0.45389100  0.45389100  0.13469800  1
  O  O8  1  0.06216300  0.06216300  0.35605700  1
  O  O9  1  0.65377600  0.65377600  0.53404100  1
loop_
_geom_bond_atom_site_label_1
_geom_bond_atom_site_label_2
_geom_bond_distance
_geom_bond_site_symmetry_2
Li0 O2 1.986231 1_656
Li0 O2 1.986231 1_566
Li0 O0 2.049070 1_555
Li0 O6 2.259371 1_655
Li0 O6 2.259371 1_565
Li0 O5 2.267258 1_555
Li1 O6 2.061512 1_555
Li1 O1 2.141671 1_445
Li1 O9 2.156626 1_455
Li1 O9 2.156626 1_545
Li1 O0 2.182335 1_455
Li1 O0 2.182335 1_545
Li2 O3 2.148088 1_455
Li2 O3 2.148088 1_545
Li2 O5 2.160280 1_544
Li2 O5 2.160280 1_454
Li2 O7 2.171574 1_555
Li2 O2 2.229391 1_555
Li3 O7 2.144013 1_565
Li3 O7 2.144013 1_655
Li3 O3 2.155578 1_555
Li3 O4 2.178628 1_565
Li3 O4 2.178628 1_655
Li3 O8 2.245044 1_665
Li4 O8 1.998934 1_565
Li4 O8 1.998934 1_655
Li4 O9 2.096461 1_555
Li4 O1 2.208757 1_545
Li4 O1 2.208757 1_455
Li4 O4 2.262124 1_555
Li5 O8 2.071928 1_655
Li5 O8 2.071928 1_565
Li5 O2 2.080045 1_565
Li5 O2 2.080045 1_655
Li5 O7 2.155439 1_555
Li5 O3 2.158921 1_555
Mn0 O2 1.826893 1_555
Mn0 O7 1.939016 1_455
Mn0 O7 1.939016 1_545
Mn0 O0 1.967683 1_544
Mn0 O0 1.967683 1_454
Mn0 O5 2.158747 1_444
Mn1 O8 1.828676 1_555
Mn1 O3 1.939245 1_455
Mn1 O3 1.939245 1_545
Mn1 O9 1.966108 1_545
Mn1 O9 1.966108 1_455
Mn1 O4 2.126251 1_555
Mn2 O1 1.962925 1_545
Mn2 O1 1.962925 1_455
Mn2 O5 1.983788 1_545
Mn2 O5 1.983788 1_455
Mn2 O6 2.181077 1_555
Mn2 O0 2.186999 1_555
Co0 O6 1.940759 1_565
Co0 O6 1.940759 1_655
Co0 O4 1.949889 1_565
Co0 O4 1.949889 1_655
Co0 O9 2.109951 1_555
Co0 O1 2.174526 1_555
