# generated using pymatgen
data_Ho2Fe17H3
_symmetry_space_group_name_H-M   'P 1'
_cell_length_a   8.54816967
_cell_length_b   8.54816967
_cell_length_c   8.17196500
_cell_angle_alpha   90.00000000
_cell_angle_beta   90.00000000
_cell_angle_gamma   119.99999748
_symmetry_Int_Tables_number   1
_chemical_formula_structural   Ho2Fe17H3
_chemical_formula_sum   'Ho4 Fe34 H6'
_cell_volume   517.13437667
_cell_formula_units_Z   2
loop_
 _symmetry_equiv_pos_site_id
 _symmetry_equiv_pos_as_xyz
  1  'x, y, z'
loop_
 _atom_site_type_symbol
 _atom_site_label
 _atom_site_symmetry_multiplicity
 _atom_site_fract_x
 _atom_site_fract_y
 _atom_site_fract_z
 _atom_site_occupancy
  Ho  Ho0  1  0.33333300  0.66666700  0.25000000  1
  Ho  Ho1  1  0.66666700  0.33333300  0.75000000  1
  Ho  Ho2  1  0.00000000  0.00000000  0.25000000  1
  Ho  Ho3  1  0.00000000  0.00000000  0.75000000  1
  Fe  Fe0  1  0.37747800  0.04886200  0.25000000  1
  Fe  Fe1  1  0.62252200  0.95113800  0.75000000  1
  Fe  Fe2  1  0.95113800  0.32861600  0.25000000  1
  Fe  Fe3  1  0.04886200  0.37747800  0.75000000  1
  Fe  Fe4  1  0.04886200  0.67138400  0.75000000  1
  Fe  Fe5  1  0.95113800  0.62252200  0.25000000  1
  Fe  Fe6  1  0.67138400  0.62252200  0.25000000  1
  Fe  Fe7  1  0.32861600  0.95113800  0.75000000  1
  Fe  Fe8  1  0.32861600  0.37747800  0.75000000  1
  Fe  Fe9  1  0.67138400  0.04886200  0.25000000  1
  Fe  Fe10  1  0.62252200  0.67138400  0.75000000  1
  Fe  Fe11  1  0.37747800  0.32861600  0.25000000  1
  Fe  Fe12  1  0.33333300  0.66666700  0.60416600  1
  Fe  Fe13  1  0.66666700  0.33333300  0.39583400  1
  Fe  Fe14  1  0.66666700  0.33333300  0.10416600  1
  Fe  Fe15  1  0.33333300  0.66666700  0.89583400  1
  Fe  Fe16  1  0.16676400  0.33352700  0.01704100  1
  Fe  Fe17  1  0.83323600  0.66647300  0.98295900  1
  Fe  Fe18  1  0.66647300  0.83323600  0.01704100  1
  Fe  Fe19  1  0.83323600  0.66647300  0.51704100  1
  Fe  Fe20  1  0.33352700  0.16676400  0.98295900  1
  Fe  Fe21  1  0.16676400  0.33352700  0.48295900  1
  Fe  Fe22  1  0.16676400  0.83323600  0.01704100  1
  Fe  Fe23  1  0.33352700  0.16676400  0.51704100  1
  Fe  Fe24  1  0.83323600  0.16676400  0.98295900  1
  Fe  Fe25  1  0.66647300  0.83323600  0.48295900  1
  Fe  Fe26  1  0.83323600  0.16676400  0.51704100  1
  Fe  Fe27  1  0.16676400  0.83323600  0.48295900  1
  Fe  Fe28  1  0.50000000  0.00000000  0.00000000  1
  Fe  Fe29  1  0.00000000  0.50000000  0.00000000  1
  Fe  Fe30  1  0.50000000  0.00000000  0.50000000  1
  Fe  Fe31  1  0.50000000  0.50000000  0.00000000  1
  Fe  Fe32  1  0.00000000  0.50000000  0.50000000  1
  Fe  Fe33  1  0.50000000  0.50000000  0.50000000  1
  H  H0  1  0.16475500  0.32951100  0.25000000  1
  H  H1  1  0.83524500  0.67048900  0.75000000  1
  H  H2  1  0.67048900  0.83524500  0.25000000  1
  H  H3  1  0.32951100  0.16475500  0.75000000  1
  H  H4  1  0.16475500  0.83524500  0.25000000  1
  H  H5  1  0.83524500  0.16475500  0.75000000  1
loop_
_geom_bond_atom_site_label_1
_geom_bond_atom_site_label_2
_geom_bond_distance
_geom_bond_site_symmetry_2
Fe0 H4 1.822225 1_545
Fe0 Fe30 2.425416 1_555
Fe0 Fe28 2.425416 1_555
Fe0 Fe13 2.726383 1_555
Fe0 Fe14 2.726383 1_555
Fe1 H5 1.822225 1_565
Fe1 Fe30 2.425416 1_565
Fe1 Fe28 2.425416 1_566
Fe1 Fe12 2.726383 1_555
Fe1 Fe15 2.726383 1_555
Fe2 H0 1.822221 1_655
Fe2 Fe32 2.425416 1_655
Fe2 Fe29 2.425416 1_655
Fe3 H5 1.822225 1_455
Fe3 Fe32 2.425416 1_555
Fe4 H1 1.822221 1_455
Fe5 H4 1.822225 1_655
Fe6 H2 1.822230 1_555
Fe7 H3 1.822221 1_565
Fe8 H3 1.822230 1_555
Fe9 H2 1.822221 1_545
Fe10 H1 1.822230 1_555
Fe10 Fe33 2.425416 1_555
Fe10 Fe31 2.425416 1_556
Fe10 Fe12 2.726386 1_555
Fe10 Fe15 2.726386 1_555
Fe11 H0 1.822230 1_555
Fe11 Fe33 2.425416 1_555
Fe11 Fe31 2.425416 1_555
Fe11 Fe13 2.726386 1_555
Fe11 Fe14 2.726386 1_555
Fe12 Fe15 2.383501 1_555
Fe12 Fe30 2.610338 1_565
Fe12 Fe32 2.610338 1_555
Fe12 Fe33 2.610345 1_555
Fe12 Fe27 2.657672 1_555
Fe12 Fe25 2.657686 1_555
Fe12 Fe21 2.657686 1_555
Fe12 Fe4 2.726379 1_555
Fe12 Fe7 2.726379 1_555
Fe12 Fe3 2.726383 1_555
Fe12 Fe8 2.726386 1_555
Fe12 Ho0 2.894232 1_555
Fe13 Fe14 2.383501 1_555
Fe13 Fe30 2.610338 1_555
Fe13 Fe32 2.610338 1_655
Fe13 Fe33 2.610345 1_555
Fe13 Fe26 2.657672 1_555
Fe13 Fe19 2.657686 1_555
Fe13 Fe23 2.657686 1_555
Fe13 Fe2 2.726379 1_555
Fe13 Fe9 2.726379 1_555
Fe13 Fe5 2.726383 1_555
Fe13 Fe6 2.726386 1_555
Fe13 Ho1 2.894232 1_555
Fe14 Fe28 2.610338 1_555
Fe14 Fe29 2.610338 1_655
Fe14 Fe31 2.610345 1_555
Fe14 Fe24 2.657672 1_554
Fe14 Fe17 2.657686 1_554
Fe14 Fe20 2.657686 1_554
Fe14 Fe2 2.726379 1_555
Fe14 Fe9 2.726379 1_555
Fe14 Fe5 2.726383 1_555
Fe14 Fe6 2.726386 1_555
Fe14 Ho1 2.894232 1_554
Fe15 Fe28 2.610338 1_566
Fe15 Fe29 2.610338 1_556
Fe15 Fe31 2.610345 1_556
Fe15 Fe22 2.657672 1_556
Fe15 Fe18 2.657686 1_556
Fe15 Fe16 2.657686 1_556
Fe15 Fe4 2.726379 1_555
Fe15 Fe7 2.726379 1_555
Fe15 Fe3 2.726383 1_555
Fe15 Fe8 2.726386 1_555
Fe15 Ho0 2.894232 1_556
Fe16 H0 1.903965 1_555
Fe16 Fe31 2.470851 1_555
Fe16 Fe29 2.470859 1_555
Fe17 H1 1.903965 1_555
Fe17 Fe31 2.470851 1_556
Fe17 Fe29 2.470859 1_656
Fe18 H2 1.903965 1_555
Fe18 Fe31 2.470851 1_555
Fe18 Fe28 2.470859 1_565
Fe19 H1 1.903965 1_555
Fe19 Fe33 2.470851 1_555
Fe19 Fe32 2.470859 1_655
Fe20 H3 1.903965 1_555
Fe20 Fe31 2.470851 1_556
Fe20 Fe28 2.470859 1_556
Fe21 H0 1.903965 1_555
Fe21 Fe33 2.470851 1_555
Fe21 Fe32 2.470859 1_555
Fe22 H4 1.903965 1_555
Fe22 Fe29 2.470851 1_555
Fe22 Fe28 2.470851 1_565
Fe23 H3 1.903965 1_555
Fe23 Fe33 2.470851 1_555
Fe23 Fe30 2.470859 1_555
Fe24 H5 1.903965 1_555
Fe24 Fe29 2.470851 1_656
Fe24 Fe28 2.470851 1_556
Fe25 H2 1.903965 1_555
Fe25 Fe33 2.470851 1_555
Fe25 Fe30 2.470859 1_565
Fe26 H5 1.903965 1_555
Fe26 Fe32 2.470851 1_655
Fe26 Fe30 2.470851 1_555
Fe27 H4 1.903965 1_555
Fe27 Fe30 2.470851 1_565
Fe27 Fe32 2.470851 1_555
Fe28 Fe9 2.425416 1_555
Fe28 Fe7 2.425416 1_544
Fe28 Ho0 3.203602 1_545
Fe28 Ho1 3.203602 1_554
Fe29 Fe5 2.425416 1_455
Fe29 Fe3 2.425416 1_554
Fe29 Fe4 2.425416 1_554
Fe29 Ho0 3.203602 1_555
Fe29 Ho1 3.203602 1_454
Fe30 Fe9 2.425416 1_555
Fe30 Fe7 2.425416 1_545
Fe30 Ho0 3.203602 1_545
Fe30 Ho1 3.203602 1_555
Fe31 Fe6 2.425416 1_555
Fe31 Fe8 2.425416 1_554
Fe31 Ho0 3.203608 1_555
Fe31 Ho1 3.203608 1_554
Fe32 Fe5 2.425416 1_455
Fe32 Fe4 2.425416 1_555
Fe32 Ho0 3.203602 1_555
Fe32 Ho1 3.203602 1_455
Fe33 Fe6 2.425416 1_555
Fe33 Fe8 2.425416 1_555
Fe33 Ho0 3.203608 1_555
Fe33 Ho1 3.203608 1_555
H0 Ho2 2.439348 1_555
H0 Ho0 2.495943 1_555
H1 Ho3 2.439348 1_665
H1 Ho1 2.495943 1_555
H2 Ho2 2.439348 1_665
H2 Ho0 2.495943 1_555
H3 Ho3 2.439348 1_555
H3 Ho1 2.495943 1_555
H4 Ho2 2.439340 1_565
H4 Ho0 2.495943 1_555
H5 Ho3 2.439340 1_655
H5 Ho1 2.495943 1_555
