# generated using pymatgen
data_Nd3Mg
_symmetry_space_group_name_H-M   'P 1'
_cell_length_a   5.05270511
_cell_length_b   5.05269342
_cell_length_c   5.05269980
_cell_angle_alpha   90.00000000
_cell_angle_beta   90.00000000
_cell_angle_gamma   90.00000000
_symmetry_Int_Tables_number   1
_chemical_formula_structural   Nd3Mg
_chemical_formula_sum   'Nd3 Mg1'
_cell_volume   128.99426308
_cell_formula_units_Z   1
loop_
 _symmetry_equiv_pos_site_id
 _symmetry_equiv_pos_as_xyz
  1  'x, y, z'
loop_
 _atom_site_type_symbol
 _atom_site_label
 _atom_site_symmetry_multiplicity
 _atom_site_fract_x
 _atom_site_fract_y
 _atom_site_fract_z
 _atom_site_occupancy
  Nd  Nd0  1  0.50000000  0.50000000  -0.00000000  1
  Nd  Nd1  1  0.50000000  0.00000000  0.50000000  1
  Nd  Nd2  1  0.00000000  0.50000000  0.50000000  1
  Mg  Mg0  1  0.00000000  0.00000000  0.00000000  1
loop_
_geom_bond_atom_site_label_1
_geom_bond_atom_site_label_2
_geom_bond_distance
_geom_bond_site_symmetry_2
Nd0 Nd1 3.572796 1_555
Nd0 Nd1 3.572796 1_564
Nd0 Nd1 3.572796 1_554
Nd0 Nd1 3.572796 1_565
Nd0 Nd2 3.572800 1_654
Nd0 Nd2 3.572800 1_554
Nd0 Nd2 3.572800 1_555
Nd0 Nd2 3.572800 1_655
Nd1 Nd2 3.572798 1_555
Nd1 Nd2 3.572798 1_645
Nd1 Nd2 3.572798 1_655
Nd1 Nd2 3.572798 1_545
Mg0 Nd2 3.572796 1_545
Mg0 Nd2 3.572796 1_544
Mg0 Nd2 3.572796 1_554
Mg0 Nd2 3.572796 1_555
Mg0 Nd0 3.572798 1_455
Mg0 Nd0 3.572798 1_555
Mg0 Nd0 3.572798 1_445
Mg0 Nd0 3.572798 1_545
Mg0 Nd1 3.572800 1_454
Mg0 Nd1 3.572800 1_555
Mg0 Nd1 3.572800 1_455
Mg0 Nd1 3.572800 1_554
