# generated using pymatgen
data_MgV4O6
_symmetry_space_group_name_H-M   'P 1'
_cell_length_a   5.26949603
_cell_length_b   5.26949603
_cell_length_c   15.70180400
_cell_angle_alpha   90.00000000
_cell_angle_beta   90.00000000
_cell_angle_gamma   147.64471134
_symmetry_Int_Tables_number   1
_chemical_formula_structural   MgV4O6
_chemical_formula_sum   'Mg2 V8 O12'
_cell_volume   233.33379862
_cell_formula_units_Z   2
loop_
 _symmetry_equiv_pos_site_id
 _symmetry_equiv_pos_as_xyz
  1  'x, y, z'
loop_
 _atom_site_type_symbol
 _atom_site_label
 _atom_site_symmetry_multiplicity
 _atom_site_fract_x
 _atom_site_fract_y
 _atom_site_fract_z
 _atom_site_occupancy
  Mg  Mg0  1  0.34934300  0.65065700  0.75000000  1
  Mg  Mg1  1  0.65065700  0.34934300  0.25000000  1
  V  V0  1  0.13472200  0.86527800  0.04704900  1
  V  V1  1  0.60181100  0.39818900  0.63916900  1
  V  V2  1  0.86527800  0.13472200  0.95295100  1
  V  V3  1  0.39818900  0.60181100  0.36083100  1
  V  V4  1  0.13472200  0.86527800  0.45295100  1
  V  V5  1  0.86527800  0.13472200  0.54704900  1
  V  V6  1  0.39818900  0.60181100  0.13916900  1
  V  V7  1  0.60181100  0.39818900  0.86083100  1
  O  O0  1  0.50000000  0.50000000  0.50000000  1
  O  O1  1  0.50000000  0.50000000  0.00000000  1
  O  O2  1  0.96296700  0.03703300  0.83651500  1
  O  O3  1  0.03703300  0.96296700  0.16348500  1
  O  O4  1  0.03703300  0.96296700  0.33651500  1
  O  O5  1  0.96296700  0.03703300  0.66348500  1
  O  O6  1  0.22260300  0.77739700  0.92058500  1
  O  O7  1  0.77739700  0.22260300  0.07941500  1
  O  O8  1  0.77739700  0.22260300  0.42058500  1
  O  O9  1  0.22260300  0.77739700  0.57941500  1
  O  O10  1  0.70864800  0.29135200  0.75000000  1
  O  O11  1  0.29135200  0.70864800  0.25000000  1
loop_
_geom_bond_atom_site_label_1
_geom_bond_atom_site_label_2
_geom_bond_distance
_geom_bond_site_symmetry_2
Mg0 O10 2.045358 1_455
Mg0 O10 2.045358 1_565
Mg0 O2 2.307278 1_565
Mg0 O5 2.307278 1_565
Mg0 O5 2.307278 1_455
Mg0 O2 2.307278 1_455
Mg1 O11 2.045358 1_655
Mg1 O11 2.045358 1_545
Mg1 O4 2.307278 1_655
Mg1 O3 2.307278 1_655
Mg1 O3 2.307278 1_545
Mg1 O4 2.307278 1_545
O0 V5 2.135583 1_455
O0 V4 2.135583 1_655
O0 V5 2.135583 1_565
O0 V4 2.135583 1_545
O0 V1 2.415997 1_555
O0 V3 2.415997 1_555
O1 V0 2.135583 1_655
O1 V2 2.135583 1_564
O1 V0 2.135583 1_545
O1 V2 2.135583 1_454
O1 V7 2.415997 1_554
O1 V6 2.415997 1_555
O2 V7 2.067911 1_545
O2 V7 2.067911 1_655
O2 V2 2.078508 1_555
O3 V6 2.067911 1_455
O3 V6 2.067911 1_565
O3 V0 2.078508 1_555
O4 V3 2.067911 1_455
O4 V3 2.067911 1_565
O4 V4 2.078508 1_555
O5 V1 2.067911 1_545
O5 V1 2.067911 1_655
O5 V5 2.078508 1_555
O6 V2 2.121142 1_455
O6 V2 2.121142 1_565
O6 V7 2.128524 1_565
O6 V7 2.128524 1_455
O6 V0 2.175838 1_556
O7 V0 2.121142 1_655
O7 V0 2.121142 1_545
O7 V6 2.128524 1_655
O7 V6 2.128524 1_545
O7 V2 2.175838 1_554
O8 V4 2.121142 1_655
O8 V4 2.121142 1_545
O8 V3 2.128524 1_655
O8 V3 2.128524 1_545
O8 V5 2.175838 1_555
O9 V5 2.121142 1_455
O9 V5 2.121142 1_565
O9 V1 2.128524 1_565
O9 V1 2.128524 1_455
O9 V4 2.175838 1_555
O10 V7 2.048858 1_555
O10 V1 2.048858 1_555
O11 V3 2.048858 1_555
O11 V6 2.048858 1_555
