# generated using pymatgen
data_Na2Cu(ICl)2
_symmetry_space_group_name_H-M   'P 1'
_cell_length_a   5.33782100
_cell_length_b   5.33782100
_cell_length_c   6.72026200
_cell_angle_alpha   90.00000000
_cell_angle_beta   90.00000000
_cell_angle_gamma   90.00000000
_symmetry_Int_Tables_number   1
_chemical_formula_structural   Na2Cu(ICl)2
_chemical_formula_sum   'Na2 Cu1 I2 Cl2'
_cell_volume   191.47594294
_cell_formula_units_Z   1
loop_
 _symmetry_equiv_pos_site_id
 _symmetry_equiv_pos_as_xyz
  1  'x, y, z'
loop_
 _atom_site_type_symbol
 _atom_site_label
 _atom_site_symmetry_multiplicity
 _atom_site_fract_x
 _atom_site_fract_y
 _atom_site_fract_z
 _atom_site_occupancy
  Na  Na0  1  0.00000000  0.50000000  0.50000000  1
  Na  Na1  1  0.50000000  0.00000000  0.50000000  1
  Cu  Cu0  1  0.00000000  0.00000000  0.00000000  1
  I  I0  1  0.00000000  0.50000000  0.00000000  1
  I  I1  1  0.50000000  0.00000000  0.00000000  1
  Cl  Cl0  1  0.00000000  0.00000000  0.50000000  1
  Cl  Cl1  1  0.50000000  0.50000000  0.50000000  1
loop_
_geom_bond_atom_site_label_1
_geom_bond_atom_site_label_2
_geom_bond_distance
_geom_bond_site_symmetry_2
Cu0 I1 2.668910 1_455
Cu0 I0 2.668910 1_545
Cu0 I0 2.668910 1_555
Cu0 I1 2.668910 1_555
I0 Na0 3.360131 1_555
I0 Na0 3.360131 1_554
I1 Na1 3.360131 1_555
I1 Na1 3.360131 1_554
Cl0 Na0 2.668910 1_555
Cl0 Na1 2.668910 1_555
Cl0 Na0 2.668910 1_545
Cl0 Na1 2.668910 1_455
Cl1 Na0 2.668910 1_555
Cl1 Na0 2.668910 1_655
Cl1 Na1 2.668910 1_555
Cl1 Na1 2.668910 1_565
