# generated using pymatgen
data_YCr5Fe7
_symmetry_space_group_name_H-M   'P 1'
_cell_length_a   4.73735700
_cell_length_b   6.32729054
_cell_length_c   6.32729054
_cell_angle_alpha   97.75390003
_cell_angle_beta   111.98470888
_cell_angle_gamma   68.01529112
_symmetry_Int_Tables_number   1
_chemical_formula_structural   YCr5Fe7
_chemical_formula_sum   'Y1 Cr5 Fe7'
_cell_volume   163.07560079
_cell_formula_units_Z   1
loop_
 _symmetry_equiv_pos_site_id
 _symmetry_equiv_pos_as_xyz
  1  'x, y, z'
loop_
 _atom_site_type_symbol
 _atom_site_label
 _atom_site_symmetry_multiplicity
 _atom_site_fract_x
 _atom_site_fract_y
 _atom_site_fract_z
 _atom_site_occupancy
  Y  Y0  1  0.00000000  0.00389700  0.00389700  1
  Cr  Cr0  1  0.63212800  0.36592400  0.63018000  1
  Cr  Cr1  1  0.36787200  0.63018000  0.36592400  1
  Cr  Cr2  1  0.00000000  0.36759400  0.36759400  1
  Cr  Cr3  1  0.00000000  0.63234500  0.63234500  1
  Cr  Cr4  1  0.50000000  0.77701500  0.77701500  1
  Fe  Fe0  1  0.50256100  0.99780600  0.50171500  1
  Fe  Fe1  1  0.00134900  0.99780600  0.50171500  1
  Fe  Fe2  1  0.49743900  0.50171500  0.99780600  1
  Fe  Fe3  1  0.99865100  0.50171500  0.99780600  1
  Fe  Fe4  1  0.50000000  0.22303800  0.22303800  1
  Fe  Fe5  1  0.27475500  0.22572700  0.77523600  1
  Fe  Fe6  1  0.72524500  0.77523600  0.22572700  1
loop_
_geom_bond_atom_site_label_1
_geom_bond_atom_site_label_2
_geom_bond_distance
_geom_bond_site_symmetry_2
Cr0 Cr1 2.185981 1_555
Cr0 Fe4 2.536421 1_555
Cr0 Cr4 2.566119 1_555
Cr0 Fe0 2.578484 1_545
Cr0 Fe1 2.578486 1_645
Cr0 Fe3 2.591807 1_555
Cr0 Fe2 2.591809 1_555
Cr0 Fe5 2.646328 1_555
Cr0 Fe5 2.646332 1_655
Cr0 Cr2 2.825620 1_555
Cr0 Cr2 2.825621 1_655
Cr0 Cr3 2.838038 1_555
Cr0 Cr3 2.838038 1_655
Cr0 Y0 3.043503 1_656
Cr1 Fe4 2.536421 1_555
Cr1 Cr4 2.566119 1_555
Cr1 Fe2 2.578484 1_554
Cr1 Fe3 2.578486 1_454
Cr1 Fe1 2.591807 1_555
Cr1 Fe0 2.591809 1_555
Cr1 Fe6 2.646328 1_555
Cr1 Fe6 2.646332 1_455
Cr1 Cr2 2.825620 1_655
Cr1 Cr2 2.825621 1_555
Cr1 Cr3 2.838038 1_655
Cr1 Cr3 2.838038 1_555
Cr1 Y0 3.043503 1_565
Cr2 Cr3 2.203428 1_555
Cr2 Fe6 2.527632 1_455
Cr2 Fe5 2.527632 1_555
Cr2 Fe1 2.591367 1_545
Cr2 Fe3 2.591367 1_454
Cr2 Fe0 2.591369 1_545
Cr2 Fe2 2.591369 1_454
Cr2 Fe4 2.656701 1_555
Cr2 Fe4 2.656701 1_455
Cr2 Y0 3.026921 1_555
Cr3 Fe6 2.523915 1_455
Cr3 Fe5 2.523915 1_555
Cr3 Fe2 2.561450 1_555
Cr3 Fe0 2.561450 1_455
Cr3 Fe1 2.561452 1_555
Cr3 Fe3 2.561452 1_455
Cr3 Cr4 2.657131 1_555
Cr3 Cr4 2.657131 1_455
Cr3 Y0 3.092295 1_566
Cr4 Fe1 2.381416 1_555
Cr4 Fe3 2.381416 1_555
Cr4 Fe0 2.381419 1_555
Cr4 Fe2 2.381419 1_555
Cr4 Fe6 2.632638 1_556
Cr4 Fe5 2.632638 1_565
Cr4 Y0 3.029217 1_566
Cr4 Y0 3.029217 1_666
Fe0 Fe1 2.362937 1_655
Fe0 Fe1 2.374420 1_555
Fe0 Fe6 2.397684 1_555
Fe0 Fe4 2.406097 1_565
Fe0 Fe5 2.408152 1_565
Fe0 Y0 3.152860 1_565
Fe0 Y0 3.174852 1_666
Fe1 Fe6 2.397688 1_455
Fe1 Fe4 2.406099 1_465
Fe1 Fe5 2.408152 1_565
Fe1 Y0 3.152858 1_565
Fe1 Y0 3.174854 1_566
Fe2 Fe3 2.362937 1_455
Fe2 Fe3 2.374420 1_555
Fe2 Fe5 2.397684 1_555
Fe2 Fe4 2.406097 1_556
Fe2 Fe6 2.408152 1_556
Fe2 Y0 3.152860 1_656
Fe2 Y0 3.174852 1_566
Fe3 Fe5 2.397688 1_655
Fe3 Fe4 2.406099 1_656
Fe3 Fe6 2.408152 1_556
Fe3 Y0 3.152858 1_656
Fe3 Y0 3.174854 1_666
Fe4 Fe5 2.627293 1_554
Fe4 Fe6 2.627293 1_545
Fe4 Y0 2.989482 1_555
Fe4 Y0 2.989482 1_655
Fe5 Y0 3.013841 1_656
Fe5 Y0 3.013845 1_556
Fe6 Y0 3.013841 1_565
Fe6 Y0 3.013845 1_665
