# generated using pymatgen
data_YbH3Pd
_symmetry_space_group_name_H-M   'P 1'
_cell_length_a   3.64506798
_cell_length_b   3.64506798
_cell_length_c   3.64506798
_cell_angle_alpha   90.00000000
_cell_angle_beta   90.00000000
_cell_angle_gamma   90.00000000
_symmetry_Int_Tables_number   1
_chemical_formula_structural   YbH3Pd
_chemical_formula_sum   'Yb1 H3 Pd1'
_cell_volume   48.43027078
_cell_formula_units_Z   1
loop_
 _symmetry_equiv_pos_site_id
 _symmetry_equiv_pos_as_xyz
  1  'x, y, z'
loop_
 _atom_site_type_symbol
 _atom_site_label
 _atom_site_symmetry_multiplicity
 _atom_site_fract_x
 _atom_site_fract_y
 _atom_site_fract_z
 _atom_site_occupancy
  Yb  Yb0  1  0.50000000  0.50000000  0.50000000  1
  H  H0  1  0.00000000  0.00000000  0.50000000  1
  H  H1  1  0.00000000  0.50000000  0.00000000  1
  H  H2  1  0.50000000  0.00000000  0.00000000  1
  Pd  Pd0  1  0.00000000  0.00000000  0.00000000  1
loop_
_geom_bond_atom_site_label_1
_geom_bond_atom_site_label_2
_geom_bond_distance
_geom_bond_site_symmetry_2
H0 Pd0 1.822534 1_555
H0 Pd0 1.822534 1_556
H0 Yb0 2.577452 1_555
H0 Yb0 2.577452 1_445
H0 Yb0 2.577452 1_455
H0 Yb0 2.577452 1_545
H1 Pd0 1.822534 1_565
H1 Pd0 1.822534 1_555
H1 Yb0 2.577452 1_555
H1 Yb0 2.577452 1_554
H1 Yb0 2.577452 1_455
H1 Yb0 2.577452 1_454
H2 Pd0 1.822534 1_655
H2 Pd0 1.822534 1_555
H2 Yb0 2.577452 1_555
H2 Yb0 2.577452 1_554
H2 Yb0 2.577452 1_544
H2 Yb0 2.577452 1_545
