# generated using pymatgen
data_SrH6(CO3)2
_symmetry_space_group_name_H-M   'P 1'
_cell_length_a   7.54700100
_cell_length_b   8.13705200
_cell_length_c   11.65813100
_cell_angle_alpha   90.00000000
_cell_angle_beta   90.00000000
_cell_angle_gamma   90.00000000
_symmetry_Int_Tables_number   1
_chemical_formula_structural   SrH6(CO3)2
_chemical_formula_sum   'Sr4 H24 C8 O24'
_cell_volume   715.92978359
_cell_formula_units_Z   4
loop_
 _symmetry_equiv_pos_site_id
 _symmetry_equiv_pos_as_xyz
  1  'x, y, z'
loop_
 _atom_site_type_symbol
 _atom_site_label
 _atom_site_symmetry_multiplicity
 _atom_site_fract_x
 _atom_site_fract_y
 _atom_site_fract_z
 _atom_site_occupancy
  Sr  Sr0  1  0.46370700  0.23531700  0.53804300  1
  Sr  Sr1  1  0.53629300  0.73531700  0.96195700  1
  Sr  Sr2  1  0.03629300  0.76468300  0.03804300  1
  Sr  Sr3  1  0.96370700  0.26468300  0.46195700  1
  H  H0  1  0.28610400  0.35098900  0.16961600  1
  H  H1  1  0.50228500  0.62142900  0.50680300  1
  H  H2  1  0.27453400  0.18347600  0.96105700  1
  H  H3  1  0.56868000  0.36507000  0.27086600  1
  H  H4  1  0.21389600  0.64901100  0.66961500  1
  H  H5  1  0.78610400  0.14901100  0.83038500  1
  H  H6  1  0.85967000  0.64306200  0.72627100  1
  H  H7  1  0.62822000  0.60337200  0.31081200  1
  H  H8  1  0.35967000  0.85693800  0.27372900  1
  H  H9  1  0.72546600  0.68347600  0.53894300  1
  H  H10  1  0.22546600  0.81652400  0.46105700  1
  H  H11  1  0.14033000  0.14306200  0.77372900  1
  H  H12  1  0.87178000  0.39662800  0.81081200  1
  H  H13  1  0.64033000  0.35693800  0.22627100  1
  H  H14  1  0.71389600  0.85098900  0.33038400  1
  H  H15  1  0.12822000  0.89662800  0.68918800  1
  H  H16  1  0.77453400  0.31652400  0.03894300  1
  H  H17  1  0.93132000  0.63493000  0.77086600  1
  H  H18  1  0.43132000  0.86507000  0.22913400  1
  H  H19  1  0.37178000  0.10337200  0.18918800  1
  H  H20  1  0.49771500  0.12142900  0.99319700  1
  H  H21  1  0.99771500  0.37857100  0.00680300  1
  H  H22  1  0.06868000  0.13493000  0.72913400  1
  H  H23  1  0.00228500  0.87857100  0.49319700  1
  C  C0  1  0.35600300  0.10371900  0.01701800  1
  C  C1  1  0.64399700  0.60371900  0.48298200  1
  C  C2  1  0.85600300  0.39628100  0.98298200  1
  C  C3  1  0.17571000  0.55100500  0.25335000  1
  C  C4  1  0.14399700  0.89628100  0.51701800  1
  C  C5  1  0.67571000  0.94899500  0.74665000  1
  C  C6  1  0.32429000  0.44899500  0.75335000  1
  C  C7  1  0.82429000  0.05100500  0.24665000  1
  O  O0  1  0.31831200  0.50868600  0.86113600  1
  O  O1  1  0.19376400  0.05646100  0.51802000  1
  O  O2  1  0.26201200  0.32749500  0.37435400  1
  O  O3  1  0.09805100  0.68478600  0.24160900  1
  O  O4  1  0.59805100  0.81521400  0.75839100  1
  O  O5  1  0.16587900  0.81744100  0.63157800  1
  O  O6  1  0.18168800  0.49131400  0.36113600  1
  O  O7  1  0.69376400  0.44353900  0.48198000  1
  O  O8  1  0.81831200  0.99131400  0.13886400  1
  O  O9  1  0.68168800  0.00868600  0.63886400  1
  O  O10  1  0.24760500  0.52308800  0.66648800  1
  O  O11  1  0.73798800  0.82749500  0.12564600  1
  O  O12  1  0.30623600  0.94353900  0.01802000  1
  O  O13  1  0.66587900  0.68255900  0.36842200  1
  O  O14  1  0.75239500  0.02308900  0.83351200  1
  O  O15  1  0.76201200  0.17250500  0.62564600  1
  O  O16  1  0.23798800  0.67250500  0.87435400  1
  O  O17  1  0.90194900  0.18478600  0.25839100  1
  O  O18  1  0.74760500  0.97691200  0.33351200  1
  O  O19  1  0.33412100  0.18255900  0.13157800  1
  O  O20  1  0.83412100  0.31744100  0.86842200  1
  O  O21  1  0.80623600  0.55646100  0.98198000  1
  O  O22  1  0.40194900  0.31521400  0.74160900  1
  O  O23  1  0.25239500  0.47691100  0.16648800  1
loop_
_geom_bond_atom_site_label_1
_geom_bond_atom_site_label_2
_geom_bond_distance
_geom_bond_site_symmetry_2
H0 O23 1.056373 1_555
H0 O19 1.485364 1_555
H4 O10 1.056381 1_555
H4 O5 1.485361 1_555
H5 O14 1.056373 1_555
H5 O20 1.485361 1_555
H7 O13 0.973161 1_555
H11 H22 0.753041 1_555
H12 O20 0.973161 1_555
H13 H3 0.753041 1_555
H14 O18 1.056381 1_555
H14 O13 1.485364 1_555
H15 O5 0.973161 1_555
H17 H6 0.753041 1_555
H18 H8 0.753041 1_555
H19 O19 0.973161 1_555
C0 H2 1.106728 1_554
C0 H20 1.114325 1_554
C0 O12 1.356480 1_545
C0 O19 1.490817 1_555
C1 H9 1.106728 1_555
C1 H1 1.114325 1_555
C1 O7 1.356480 1_555
C1 O13 1.490817 1_555
C2 H16 1.106728 1_556
C2 H21 1.114325 1_556
C2 O21 1.356480 1_555
C2 O20 1.490817 1_555
C3 O3 1.243886 1_555
C3 O23 1.312972 1_555
C3 O6 1.347943 1_555
C4 H10 1.106728 1_555
C4 H23 1.114325 1_555
C4 O1 1.356480 1_565
C4 O5 1.490817 1_555
C5 O4 1.243886 1_555
C5 O14 1.312972 1_565
C5 O9 1.347943 1_565
C6 O22 1.243886 1_555
C6 O10 1.312968 1_555
C6 O0 1.347943 1_555
C7 O17 1.243886 1_555
C7 O18 1.312968 1_545
C7 O8 1.347943 1_545
O0 O16 1.472457 1_555
O0 Sr1 2.736536 1_555
O1 Sr3 2.512451 1_455
O1 Sr0 2.514556 1_555
O2 O6 1.472457 1_555
O2 Sr3 2.524410 1_455
O2 Sr0 2.553682 1_555
O3 Sr2 2.504391 1_555
O4 Sr1 2.504391 1_555
O6 Sr3 2.736536 1_455
O7 Sr0 2.512451 1_555
O7 Sr3 2.514556 1_555
O8 Sr2 2.736536 1_655
O9 Sr0 2.736536 1_555
O11 O8 1.472457 1_555
O11 Sr2 2.524410 1_655
O11 Sr1 2.553682 1_554
O12 Sr1 2.512451 1_554
O12 Sr2 2.514556 1_555
O15 O9 1.472457 1_555
O15 Sr0 2.524410 1_555
O15 Sr3 2.553682 1_555
O16 Sr1 2.524410 1_555
O16 Sr2 2.553682 1_556
O17 Sr3 2.504391 1_555
O21 Sr2 2.512451 1_656
O21 Sr1 2.514556 1_555
O22 Sr0 2.504391 1_555
