# generated using pymatgen
data_Rb2MgCr2O14
_symmetry_space_group_name_H-M   'P 1'
_cell_length_a   6.59575973
_cell_length_b   8.00947849
_cell_length_c   14.16027600
_cell_angle_alpha   90.00000000
_cell_angle_beta   90.00000000
_cell_angle_gamma   101.18206333
_symmetry_Int_Tables_number   1
_chemical_formula_structural   Rb2MgCr2O14
_chemical_formula_sum   'Rb4 Mg2 Cr4 O28'
_cell_volume   733.86611738
_cell_formula_units_Z   2
loop_
 _symmetry_equiv_pos_site_id
 _symmetry_equiv_pos_as_xyz
  1  'x, y, z'
loop_
 _atom_site_type_symbol
 _atom_site_label
 _atom_site_symmetry_multiplicity
 _atom_site_fract_x
 _atom_site_fract_y
 _atom_site_fract_z
 _atom_site_occupancy
  Rb  Rb0  1  0.84057100  0.63633800  0.15863500  1
  Rb  Rb1  1  0.15942900  0.36366200  0.84136500  1
  Rb  Rb2  1  0.15942900  0.86366200  0.65863500  1
  Rb  Rb3  1  0.84057100  0.13633800  0.34136500  1
  Mg  Mg0  1  0.50000000  0.00000000  0.00000000  1
  Mg  Mg1  1  0.50000000  0.50000000  0.50000000  1
  Cr  Cr0  1  0.75077900  0.60640600  0.86121600  1
  Cr  Cr1  1  0.24922100  0.39359400  0.13878400  1
  Cr  Cr2  1  0.24922100  0.89359400  0.36121600  1
  Cr  Cr3  1  0.75077900  0.10640600  0.63878400  1
  O  O0  1  0.52513900  0.61859600  0.81945300  1
  O  O1  1  0.47486100  0.38140400  0.18054700  1
  O  O2  1  0.47486100  0.88140400  0.31945300  1
  O  O3  1  0.52513900  0.11859600  0.68054700  1
  O  O4  1  0.74346600  0.93936500  0.57105700  1
  O  O5  1  0.25653400  0.06063500  0.42894300  1
  O  O6  1  0.25653400  0.56063500  0.07105700  1
  O  O7  1  0.74346600  0.43936500  0.92894300  1
  O  O8  1  0.32703900  0.92786100  0.86618700  1
  O  O9  1  0.67296100  0.07213900  0.13381300  1
  O  O10  1  0.67296100  0.57213900  0.36618700  1
  O  O11  1  0.32703900  0.42786100  0.63381300  1
  O  O12  1  0.84127200  0.79762600  0.93893400  1
  O  O13  1  0.15872800  0.20237400  0.06106600  1
  O  O14  1  0.15872800  0.70237400  0.43893400  1
  O  O15  1  0.84127200  0.29762600  0.56106600  1
  O  O16  1  0.37724900  0.59280300  0.61869400  1
  O  O17  1  0.62275100  0.40719700  0.38130600  1
  O  O18  1  0.62275100  0.90719700  0.11869400  1
  O  O19  1  0.37724900  0.09280300  0.88130600  1
  O  O20  1  0.74129600  0.92964500  0.93624800  1
  O  O21  1  0.25870400  0.07035500  0.06375200  1
  O  O22  1  0.25870400  0.57035500  0.43624800  1
  O  O23  1  0.74129600  0.42964500  0.56375200  1
  O  O24  1  0.92532200  0.60977400  0.77814100  1
  O  O25  1  0.07467800  0.39022600  0.22185900  1
  O  O26  1  0.07467800  0.89022600  0.27814100  1
  O  O27  1  0.92532200  0.10977400  0.72185900  1
loop_
_geom_bond_atom_site_label_1
_geom_bond_atom_site_label_2
_geom_bond_distance
_geom_bond_site_symmetry_2
Mg0 O20 2.003323 1_544
Mg0 O21 2.003323 1_555
Mg0 O19 2.065505 1_554
Mg0 O18 2.065505 1_545
Mg0 O8 2.229353 1_544
Mg0 O9 2.229353 1_555
Mg1 O22 2.003323 1_555
Mg1 O23 2.003323 1_555
Mg1 O16 2.065505 1_555
Mg1 O17 2.065505 1_555
Mg1 O11 2.229353 1_555
Mg1 O10 2.229353 1_555
Cr0 O0 1.621899 1_555
Cr0 O7 1.639222 1_555
Cr0 O24 1.642522 1_555
Cr0 O12 1.886407 1_555
Cr1 O1 1.621899 1_555
Cr1 O6 1.639222 1_555
Cr1 O25 1.642522 1_555
Cr1 O13 1.886407 1_555
Cr2 O2 1.621899 1_555
Cr2 O5 1.639222 1_565
Cr2 O26 1.642522 1_555
Cr2 O14 1.886407 1_555
Cr3 O3 1.621899 1_555
Cr3 O4 1.639222 1_545
Cr3 O27 1.642522 1_555
Cr3 O15 1.886407 1_555
O0 Rb1 2.858964 1_555
O1 Rb0 2.858964 1_555
O2 Rb3 2.858964 1_565
O3 Rb2 2.858964 1_545
O4 Rb2 3.174600 1_655
O5 Rb3 3.174600 1_455
O6 Rb0 3.174600 1_455
O7 Rb1 3.174600 1_655
O8 Rb2 3.147026 1_555
O9 Rb3 3.147026 1_555
O10 O17 1.315721 1_555
O10 Rb0 3.147026 1_555
O11 O16 1.315721 1_555
O11 Rb1 3.147026 1_555
O12 O20 1.350859 1_555
O12 Rb0 3.368238 1_556
O13 O21 1.350859 1_555
O13 Rb1 3.368238 1_554
O14 O22 1.350859 1_555
O14 Rb2 3.368238 1_555
O15 O23 1.350859 1_555
O15 Rb3 3.368238 1_555
O16 Rb2 2.880848 1_555
O17 Rb3 2.880848 1_555
O18 O9 1.315721 1_565
O18 Rb0 2.880848 1_555
O19 O8 1.315721 1_545
O19 Rb1 2.880848 1_555
O24 Rb2 2.857493 1_655
O24 Rb1 2.872645 1_655
O25 Rb3 2.857493 1_455
O25 Rb0 2.872645 1_455
O26 Rb0 2.857493 1_455
O26 Rb3 2.872645 1_465
O27 Rb1 2.857493 1_655
O27 Rb2 2.872645 1_645
