# generated using pymatgen
data_Pr12(MnC3)5
_symmetry_space_group_name_H-M   'P 1'
_cell_length_a   10.84229675
_cell_length_b   10.84236657
_cell_length_c   5.38698216
_cell_angle_alpha   90.00000611
_cell_angle_beta   89.99999548
_cell_angle_gamma   119.99982377
_symmetry_Int_Tables_number   1
_chemical_formula_structural   Pr12(MnC3)5
_chemical_formula_sum   'Pr12 Mn5 C15'
_cell_volume   548.43140501
_cell_formula_units_Z   1
loop_
 _symmetry_equiv_pos_site_id
 _symmetry_equiv_pos_as_xyz
  1  'x, y, z'
loop_
 _atom_site_type_symbol
 _atom_site_label
 _atom_site_symmetry_multiplicity
 _atom_site_fract_x
 _atom_site_fract_y
 _atom_site_fract_z
 _atom_site_occupancy
  Pr  Pr0  1  0.79283954  0.00001524  0.50000005  1
  Pr  Pr1  1  0.00001525  0.79286778  0.49999992  1
  Pr  Pr2  1  0.20718422  0.20718696  0.50000010  1
  Pr  Pr3  1  0.27149581  0.45830394  -0.00000005  1
  Pr  Pr4  1  0.54165839  0.81318179  0.00000001  1
  Pr  Pr5  1  0.45830277  0.27148533  -0.00000003  1
  Pr  Pr6  1  0.18684140  0.72849527  -0.00000007  1
  Pr  Pr7  1  0.81315853  0.54164205  -0.00000007  1
  Pr  Pr8  1  0.72847554  0.18679684  -0.00000001  1
  Pr  Pr9  1  0.42270142  0.00001089  0.50000006  1
  Pr  Pr10  1  0.00000324  0.42266460  0.49999984  1
  Pr  Pr11  1  0.57728174  0.57729767  0.49999998  1
  Mn  Mn0  1  0.15261501  0.00004918  0.00000008  1
  Mn  Mn1  1  0.00003489  0.15260719  0.00000011  1
  Mn  Mn2  1  0.84740774  0.84742361  -0.00000003  1
  Mn  Mn3  1  0.33334324  0.66666414  0.49999997  1
  Mn  Mn4  1  0.66665530  0.33332634  0.49999997  1
  C  C0  1  0.32198663  0.00001710  0.00000025  1
  C  C1  1  0.00001470  0.32198060  0.00000013  1
  C  C2  1  0.67801572  0.67802341  0.00000011  1
  C  C3  1  0.80247296  0.00000118  -0.00000002  1
  C  C4  1  0.00000175  0.80249438  -0.00000012  1
  C  C5  1  0.19751038  0.19751837  -0.00000001  1
  C  C6  1  0.44533823  0.00000895  0.00000009  1
  C  C7  1  0.00001411  0.44533555  -0.00000007  1
  C  C8  1  0.55463370  0.55464218  0.00000001  1
  C  C9  1  0.28706460  0.48513950  0.49999998  1
  C  C10  1  0.51485596  0.80190239  0.49999999  1
  C  C11  1  0.48514357  0.28705650  0.50000009  1
  C  C12  1  0.19811412  0.71294782  0.49999992  1
  C  C13  1  0.80187726  0.51482182  0.49999991  1
  C  C14  1  0.71293927  0.19809544  0.49999995  1
loop_
_geom_bond_atom_site_label_1
_geom_bond_atom_site_label_2
_geom_bond_distance
_geom_bond_site_symmetry_2
C0 C6 1.337459 1_555
C0 Mn0 1.836551 1_555
C0 Pr5 2.549035 1_555
C0 Pr6 2.549539 1_545
C0 Pr9 2.906438 1_555
C0 Pr9 2.906440 1_554
C1 C7 1.337463 1_555
C1 Mn1 1.836518 1_555
C1 Pr3 2.549140 1_555
C1 Pr8 2.549685 1_455
C1 Pr10 2.906325 1_555
C1 Pr10 2.906328 1_554
C2 C8 1.337748 1_555
C2 Mn2 1.836654 1_555
C2 Pr4 2.549466 1_555
C2 Pr7 2.549547 1_555
C2 Pr11 2.906489 1_555
C2 Pr11 2.906491 1_554
C3 Mn2 1.944233 1_545
C3 Mn1 1.944687 1_655
C3 Pr8 2.523976 1_555
C3 Pr4 2.524205 1_545
C3 Pr0 2.695518 1_554
C3 Pr0 2.695519 1_555
C4 Mn2 1.944358 1_455
C4 Mn0 1.944665 1_565
C4 Pr6 2.524439 1_555
C4 Pr7 2.524571 1_455
C4 Pr1 2.695515 1_554
C4 Pr1 2.695516 1_555
C5 Mn0 1.943910 1_555
C5 Mn1 1.943910 1_555
C5 Pr3 2.523939 1_555
C5 Pr5 2.524039 1_555
C5 Pr2 2.695531 1_554
C5 Pr2 2.695532 1_555
C6 Pr8 2.703414 1_555
C6 Pr4 2.703575 1_545
C6 Pr9 2.704651 1_555
C6 Pr9 2.704651 1_554
C6 Pr5 2.875742 1_555
C6 Pr6 2.875882 1_545
C7 Pr6 2.703689 1_555
C7 Pr7 2.703746 1_455
C7 Pr10 2.704678 1_555
C7 Pr10 2.704679 1_554
C7 Pr3 2.875761 1_555
C7 Pr8 2.876235 1_455
C8 Pr3 2.703435 1_555
C8 Pr5 2.703663 1_555
C8 Pr11 2.704665 1_555
C8 Pr11 2.704665 1_554
C8 Pr7 2.876070 1_555
C8 Pr4 2.876104 1_555
C9 Mn3 1.771401 1_555
C9 Pr2 2.687414 1_555
C9 Pr3 2.705352 1_556
C9 Pr3 2.705353 1_555
C9 Pr11 2.784873 1_555
C9 Pr10 2.835074 1_555
C10 Mn3 1.771281 1_555
C10 Pr0 2.687750 1_565
C10 Pr4 2.705321 1_555
C10 Pr4 2.705321 1_556
C10 Pr9 2.785364 1_565
C10 Pr11 2.834925 1_555
C11 Mn4 1.771278 1_555
C11 Pr2 2.687493 1_555
C11 Pr5 2.705356 1_556
C11 Pr5 2.705358 1_555
C11 Pr11 2.785186 1_555
C11 Pr9 2.835038 1_555
C12 Mn3 1.771249 1_555
C12 Pr1 2.687983 1_555
C12 Pr6 2.705338 1_555
C12 Pr6 2.705338 1_556
C12 Pr10 2.785543 1_555
C12 Pr9 2.835109 1_565
C13 Mn4 1.771109 1_555
C13 Pr1 2.688314 1_655
C13 Pr7 2.705337 1_555
C13 Pr7 2.705337 1_556
C13 Pr10 2.785557 1_655
C13 Pr11 2.835177 1_555
C14 Mn4 1.771277 1_555
C14 Pr0 2.687643 1_555
C14 Pr8 2.705349 1_555
C14 Pr8 2.705349 1_556
C14 Pr9 2.785105 1_555
C14 Pr10 2.835046 1_655
