# generated using pymatgen
data_Mg14VZnO16
_symmetry_space_group_name_H-M   'P 1'
_cell_length_a   8.54939068
_cell_length_b   8.55459130
_cell_length_c   4.28083621
_cell_angle_alpha   90.00000000
_cell_angle_beta   90.00000000
_cell_angle_gamma   90.00000000
_symmetry_Int_Tables_number   1
_chemical_formula_structural   Mg14VZnO16
_chemical_formula_sum   'Mg14 V1 Zn1 O16'
_cell_volume   313.08556211
_cell_formula_units_Z   1
loop_
 _symmetry_equiv_pos_site_id
 _symmetry_equiv_pos_as_xyz
  1  'x, y, z'
loop_
 _atom_site_type_symbol
 _atom_site_label
 _atom_site_symmetry_multiplicity
 _atom_site_fract_x
 _atom_site_fract_y
 _atom_site_fract_z
 _atom_site_occupancy
  Mg  Mg0  1  0.50000000  -0.00000000  -0.00000000  1
  Mg  Mg1  1  0.50000000  0.50000000  -0.00000000  1
  Mg  Mg2  1  0.00000000  0.24899988  0.50000000  1
  Mg  Mg3  1  0.00000000  0.75100012  0.50000000  1
  Mg  Mg4  1  0.50000000  0.24996727  0.50000000  1
  Mg  Mg5  1  0.50000000  0.75003273  0.50000000  1
  Mg  Mg6  1  0.24981552  -0.00000000  0.50000000  1
  Mg  Mg7  1  0.25078324  0.50000000  0.50000000  1
  Mg  Mg8  1  0.75018448  -0.00000000  0.50000000  1
  Mg  Mg9  1  0.74921676  0.50000000  0.50000000  1
  Mg  Mg10  1  0.25033125  0.24946166  -0.00000000  1
  Mg  Mg11  1  0.25033125  0.75053834  -0.00000000  1
  Mg  Mg12  1  0.74966875  0.24946166  0.00000000  1
  Mg  Mg13  1  0.74966875  0.75053834  -0.00000000  1
  V  V0  1  0.00000000  0.50000000  -0.00000000  1
  Zn  Zn0  1  0.00000000  -0.00000000  -0.00000000  1
  O  O0  1  0.25413801  -0.00000000  -0.00000000  1
  O  O1  1  0.25510533  0.50000000  0.00000000  1
  O  O2  1  0.74586199  -0.00000000  0.00000000  1
  O  O3  1  0.74489467  0.50000000  -0.00000000  1
  O  O4  1  0.24915221  0.25004755  0.50000000  1
  O  O5  1  0.24915221  0.74995245  0.50000000  1
  O  O6  1  0.75084779  0.25004755  0.50000000  1
  O  O7  1  0.75084779  0.74995245  0.50000000  1
  O  O8  1  0.00000000  -0.00000000  0.50000000  1
  O  O9  1  0.00000000  0.50000000  0.50000000  1
  O  O10  1  0.50000000  -0.00000000  0.50000000  1
  O  O11  1  0.50000000  0.50000000  0.50000000  1
  O  O12  1  0.00000000  0.24778118  -0.00000000  1
  O  O13  1  0.00000000  0.75221882  0.00000000  1
  O  O14  1  0.50000000  0.24984350  -0.00000000  1
  O  O15  1  0.50000000  0.75015650  -0.00000000  1
loop_
_geom_bond_atom_site_label_1
_geom_bond_atom_site_label_2
_geom_bond_distance
_geom_bond_site_symmetry_2
Mg0 O0 2.101970 1_555
Mg0 O2 2.101970 1_555
Mg0 O14 2.137309 1_555
Mg0 O15 2.137309 1_545
Mg0 O10 2.140418 1_554
Mg0 O10 2.140418 1_555
Mg1 O1 2.093700 1_555
Mg1 O3 2.093700 1_555
Mg1 O14 2.139987 1_555
Mg1 O15 2.139987 1_555
Mg1 O11 2.140418 1_554
Mg1 O11 2.140418 1_555
Mg2 O8 2.130092 1_555
Mg2 O6 2.130118 1_455
Mg2 O4 2.130118 1_555
Mg2 O12 2.140443 1_556
Mg2 O12 2.140443 1_555
Mg2 O9 2.147203 1_555
Mg3 O8 2.130092 1_565
Mg3 O7 2.130118 1_455
Mg3 O5 2.130118 1_555
Mg3 O13 2.140443 1_555
Mg3 O13 2.140443 1_556
Mg3 O9 2.147203 1_555
Mg4 O10 2.138368 1_555
Mg4 O11 2.138928 1_555
Mg4 O14 2.140418 1_556
Mg4 O14 2.140418 1_555
Mg4 O6 2.144596 1_555
Mg4 O4 2.144596 1_555
Mg5 O10 2.138368 1_565
Mg5 O11 2.138928 1_555
Mg5 O15 2.140418 1_555
Mg5 O15 2.140418 1_556
Mg5 O5 2.144596 1_555
Mg5 O7 2.144596 1_555
Mg6 O8 2.135770 1_555
Mg6 O10 2.138925 1_555
Mg6 O4 2.139062 1_555
Mg6 O5 2.139062 1_545
Mg6 O0 2.140737 1_555
Mg6 O0 2.140737 1_556
Mg7 O11 2.130651 1_555
Mg7 O5 2.138287 1_555
Mg7 O4 2.138287 1_555
Mg7 O1 2.140737 1_556
Mg7 O1 2.140737 1_555
Mg7 O9 2.144044 1_555
Mg8 O8 2.135770 1_655
Mg8 O10 2.138925 1_555
Mg8 O6 2.139062 1_555
Mg8 O7 2.139062 1_545
Mg8 O2 2.140737 1_555
Mg8 O2 2.140737 1_556
Mg9 O11 2.130651 1_555
Mg9 O6 2.138287 1_555
Mg9 O7 2.138287 1_555
Mg9 O3 2.140737 1_556
Mg9 O3 2.140737 1_555
Mg9 O9 2.144044 1_655
Mg10 O0 2.134291 1_555
Mg10 O14 2.134518 1_555
Mg10 O12 2.140228 1_555
Mg10 O4 2.140448 1_554
Mg10 O4 2.140448 1_555
Mg10 O1 2.143642 1_555
Mg11 O0 2.134291 1_565
Mg11 O15 2.134518 1_555
Mg11 O13 2.140228 1_555
Mg11 O5 2.140448 1_555
Mg11 O5 2.140448 1_554
Mg11 O1 2.143642 1_555
Mg12 O2 2.134291 1_555
Mg12 O14 2.134518 1_555
Mg12 O12 2.140228 1_655
Mg12 O6 2.140448 1_555
Mg12 O6 2.140448 1_554
Mg12 O3 2.143642 1_555
Mg13 O2 2.134291 1_565
Mg13 O15 2.134518 1_555
Mg13 O13 2.140228 1_655
Mg13 O7 2.140448 1_555
Mg13 O7 2.140448 1_554
Mg13 O3 2.143642 1_555
O0 Zn0 2.172725 1_555
O1 V0 2.180995 1_555
O2 Zn0 2.172725 1_655
O3 V0 2.180995 1_655
O8 Zn0 2.140418 1_555
O8 Zn0 2.140418 1_556
O9 V0 2.140418 1_556
O9 V0 2.140418 1_555
O12 Zn0 2.119667 1_555
O12 V0 2.157629 1_555
O13 Zn0 2.119667 1_565
O13 V0 2.157629 1_555
