# generated using pymatgen
data_Pr(Al4Fe)2
_symmetry_space_group_name_H-M   'P 1'
_cell_length_a   4.03970092
_cell_length_b   12.46030600
_cell_length_c   14.28013446
_cell_angle_alpha   90.00000000
_cell_angle_beta   90.00000000
_cell_angle_gamma   90.00000000
_symmetry_Int_Tables_number   1
_chemical_formula_structural   Pr(Al4Fe)2
_chemical_formula_sum   'Pr4 Al32 Fe8'
_cell_volume   718.80355742
_cell_formula_units_Z   4
loop_
 _symmetry_equiv_pos_site_id
 _symmetry_equiv_pos_as_xyz
  1  'x, y, z'
loop_
 _atom_site_type_symbol
 _atom_site_label
 _atom_site_symmetry_multiplicity
 _atom_site_fract_x
 _atom_site_fract_y
 _atom_site_fract_z
 _atom_site_occupancy
  Pr  Pr0  1  -0.00000000  0.84095547  0.18167906  1
  Pr  Pr1  1  0.00000000  0.15904453  0.81832094  1
  Pr  Pr2  1  -0.00000000  0.34095547  0.31832094  1
  Pr  Pr3  1  0.00000000  0.65904453  0.68167906  1
  Al  Al0  1  -0.00000000  0.50000000  0.50000000  1
  Al  Al1  1  0.00000000  -0.00000000  0.00000000  1
  Al  Al2  1  0.50000000  0.50000000  0.00000000  1
  Al  Al3  1  0.50000000  -0.00000000  0.50000000  1
  Al  Al4  1  0.50000000  0.73321105  0.32828001  1
  Al  Al5  1  0.50000000  0.26678895  0.67171999  1
  Al  Al6  1  0.50000000  0.23321105  0.17171999  1
  Al  Al7  1  0.50000000  0.76678895  0.82828001  1
  Al  Al8  1  0.50000000  0.95297349  0.32138708  1
  Al  Al9  1  0.50000000  0.04702651  0.67861292  1
  Al  Al10  1  0.50000000  0.45297349  0.17861292  1
  Al  Al11  1  0.50000000  0.54702651  0.82138708  1
  Al  Al12  1  0.50000000  0.65821761  0.11974727  1
  Al  Al13  1  0.50000000  0.34178239  0.88025273  1
  Al  Al14  1  0.50000000  0.15821761  0.38025273  1
  Al  Al15  1  0.50000000  0.84178239  0.61974727  1
  Al  Al16  1  -0.00000000  0.83217370  0.45374436  1
  Al  Al17  1  -0.00000000  0.16782630  0.54625564  1
  Al  Al18  1  0.00000000  0.33217370  0.04625564  1
  Al  Al19  1  0.00000000  0.66782630  0.95374436  1
  Al  Al20  1  -0.00000000  0.59350353  0.24500189  1
  Al  Al21  1  -0.00000000  0.40649647  0.75499811  1
  Al  Al22  1  0.00000000  0.09350353  0.25499811  1
  Al  Al23  1  0.00000000  0.90649647  0.74500189  1
  Al  Al24  1  0.50000000  0.83276475  0.00594938  1
  Al  Al25  1  0.50000000  0.16723525  0.99405062  1
  Al  Al26  1  0.50000000  0.33276475  0.49405062  1
  Al  Al27  1  0.50000000  0.66723525  0.50594938  1
  Al  Al28  1  0.50000000  0.52724415  0.36743316  1
  Al  Al29  1  0.50000000  0.47275585  0.63256684  1
  Al  Al30  1  0.50000000  0.02724415  0.13256684  1
  Al  Al31  1  0.50000000  0.97275585  0.86743316  1
  Fe  Fe0  1  -0.00000000  0.64813135  0.40132568  1
  Fe  Fe1  1  -0.00000000  0.35186865  0.59867432  1
  Fe  Fe2  1  -0.00000000  0.14813135  0.09867432  1
  Fe  Fe3  1  0.00000000  0.85186865  0.90132568  1
  Fe  Fe4  1  0.00000000  0.53147351  0.08645296  1
  Fe  Fe5  1  -0.00000000  0.46852649  0.91354704  1
  Fe  Fe6  1  -0.00000000  0.03147351  0.41354704  1
  Fe  Fe7  1  0.00000000  0.96852649  0.58645296  1
loop_
_geom_bond_atom_site_label_1
_geom_bond_atom_site_label_2
_geom_bond_distance
_geom_bond_site_symmetry_2
Al0 Fe0 2.322144 1_555
Al0 Fe1 2.322144 1_555
Al0 Al29 2.789043 1_455
Al0 Al29 2.789043 1_555
Al0 Al28 2.789043 1_555
Al0 Al28 2.789043 1_455
Al0 Al27 2.903316 1_455
Al0 Al27 2.903316 1_555
Al0 Al26 2.903316 1_455
Al0 Al26 2.903316 1_555
Al0 Pr3 3.264694 1_555
Al0 Pr2 3.264694 1_555
Al1 Fe3 2.322144 1_544
Al1 Fe2 2.322144 1_555
Al1 Al31 2.789043 1_544
Al1 Al31 2.789043 1_444
Al1 Al30 2.789043 1_455
Al1 Al30 2.789043 1_555
Al1 Al24 2.903316 1_445
Al1 Al24 2.903316 1_545
Al1 Al25 2.903316 1_554
Al1 Al25 2.903316 1_454
Al1 Pr0 3.264694 1_545
Al1 Pr1 3.264694 1_554
Al2 Fe5 2.399527 1_554
Al2 Fe4 2.399527 1_555
Al2 Fe5 2.399527 1_654
Al2 Fe4 2.399527 1_655
Al3 Fe6 2.399527 1_555
Al3 Fe7 2.399527 1_545
Al3 Fe7 2.399527 1_645
Al3 Fe6 2.399527 1_655
Al3 Al9 2.617059 1_555
Al3 Al8 2.617059 1_545
Al4 Fe0 2.508328 1_555
Al4 Fe0 2.508328 1_655
Al4 Al8 2.740076 1_555
Al4 Pr0 3.203879 1_555
Al4 Pr0 3.203879 1_655
Al5 Fe1 2.508328 1_555
Al5 Fe1 2.508328 1_655
Al5 Al9 2.740076 1_555
Al5 Pr1 3.203879 1_555
Al5 Pr1 3.203879 1_655
Al6 Fe2 2.508328 1_655
Al6 Fe2 2.508328 1_555
Al6 Pr2 3.203879 1_655
Al6 Pr2 3.203879 1_555
Al7 Fe3 2.508328 1_655
Al7 Fe3 2.508328 1_555
Al7 Pr3 3.203879 1_555
Al7 Pr3 3.203879 1_655
Al8 Fe6 2.601643 1_565
Al8 Fe6 2.601643 1_665
Al8 Pr0 3.163576 1_555
Al8 Pr0 3.163576 1_655
Al9 Fe7 2.601643 1_545
Al9 Fe7 2.601643 1_645
Al9 Pr1 3.163576 1_655
Al9 Pr1 3.163576 1_555
Al10 Fe4 2.601643 1_555
Al10 Fe4 2.601643 1_655
Al10 Al2 2.617059 1_555
Al10 Al12 2.692015 1_555
Al10 Al6 2.740076 1_555
Al10 Al20 2.836327 1_655
Al10 Al20 2.836327 1_555
Al10 Al28 2.850770 1_555
Al10 Pr2 3.163576 1_655
Al10 Pr2 3.163576 1_555
Al11 Fe5 2.601643 1_655
Al11 Fe5 2.601643 1_555
Al11 Al2 2.617059 1_556
Al11 Al13 2.692015 1_555
Al11 Al7 2.740076 1_555
Al11 Al21 2.836327 1_555
Al11 Al21 2.836327 1_655
Al11 Al29 2.850770 1_555
Al11 Pr3 3.163576 1_555
Al11 Pr3 3.163576 1_655
Al12 Fe4 2.607670 1_555
Al12 Fe4 2.607670 1_655
Al12 Al2 2.609732 1_555
Al12 Al24 2.714963 1_555
Al12 Al20 2.815899 1_655
Al12 Al20 2.815899 1_555
Al12 Pr0 3.169628 1_555
Al12 Pr0 3.169628 1_655
Al13 Fe5 2.607670 1_655
Al13 Fe5 2.607670 1_555
Al13 Al2 2.609732 1_556
Al13 Al25 2.714963 1_555
Al13 Al21 2.815899 1_655
Al13 Al21 2.815899 1_555
Al13 Pr1 3.169628 1_655
Al13 Pr1 3.169628 1_555
Al14 Fe6 2.607670 1_655
Al14 Fe6 2.607670 1_555
Al14 Al3 2.609732 1_555
Al14 Al8 2.692015 1_545
Al14 Al26 2.714963 1_555
Al14 Al22 2.815899 1_555
Al14 Al22 2.815899 1_655
Al14 Pr2 3.169628 1_655
Al14 Pr2 3.169628 1_555
Al15 Fe7 2.607670 1_555
Al15 Fe7 2.607670 1_655
Al15 Al3 2.609732 1_565
Al15 Al9 2.692015 1_565
Al15 Al27 2.714963 1_555
Al15 Al23 2.815899 1_655
Al15 Al23 2.815899 1_555
Al15 Pr3 3.169628 1_555
Al15 Pr3 3.169628 1_655
Al16 Fe0 2.412301 1_555
Al16 Fe7 2.545188 1_555
Al16 Fe6 2.548816 1_565
Al16 Al27 2.976464 1_555
Al16 Al27 2.976464 1_455
Al17 Fe1 2.412301 1_555
Al17 Fe6 2.545188 1_555
Al17 Fe7 2.548816 1_545
Al17 Al26 2.976464 1_555
Al17 Al26 2.976464 1_455
Al18 Fe2 2.412301 1_555
Al18 Fe5 2.545188 1_554
Al18 Fe4 2.548816 1_555
Al18 Al25 2.976464 1_554
Al18 Al25 2.976464 1_454
Al19 Fe3 2.412301 1_555
Al19 Fe4 2.545188 1_556
Al19 Fe5 2.548816 1_555
Al19 Al24 2.976464 1_456
Al19 Al24 2.976464 1_556
Al20 Fe0 2.333795 1_555
Al20 Fe4 2.392393 1_555
Al20 Al28 2.796088 1_555
Al20 Al28 2.796088 1_455
Al20 Pr0 3.213190 1_555
Al20 Pr2 3.316434 1_555
Al21 Fe1 2.333795 1_555
Al21 Fe5 2.392393 1_555
Al21 Al29 2.796088 1_455
Al21 Al29 2.796088 1_555
Al21 Pr1 3.213190 1_555
Al21 Pr3 3.316434 1_555
Al22 Fe2 2.333795 1_555
Al22 Fe6 2.392393 1_555
Al22 Al30 2.796088 1_555
Al22 Al30 2.796088 1_455
Al22 Al8 2.836327 1_445
Al22 Al8 2.836327 1_545
Al22 Pr2 3.213190 1_555
Al22 Pr0 3.316434 1_545
Al23 Fe3 2.333795 1_555
Al23 Fe7 2.392393 1_555
Al23 Al31 2.796088 1_455
Al23 Al31 2.796088 1_555
Al23 Al9 2.836327 1_565
Al23 Al9 2.836327 1_465
Al23 Pr3 3.213190 1_555
Al23 Pr1 3.316434 1_565
Al24 Fe3 2.523612 1_654
Al24 Fe3 2.523612 1_554
Al24 Al31 2.637290 1_554
Al24 Al7 2.667003 1_554
Al24 Al30 3.023496 1_565
Al24 Pr0 3.222967 1_655
Al24 Pr0 3.222967 1_555
Al25 Fe2 2.523612 1_656
Al25 Fe2 2.523612 1_556
Al25 Al30 2.637290 1_556
Al25 Al6 2.667003 1_556
Al25 Al31 3.023496 1_545
Al25 Pr1 3.222967 1_655
Al25 Pr1 3.222967 1_555
Al26 Fe1 2.523612 1_555
Al26 Fe1 2.523612 1_655
Al26 Al29 2.637290 1_555
Al26 Al5 2.667003 1_555
Al26 Al28 3.023496 1_555
Al26 Pr2 3.222967 1_655
Al26 Pr2 3.222967 1_555
Al27 Fe0 2.523612 1_655
Al27 Fe0 2.523612 1_555
Al27 Al28 2.637290 1_555
Al27 Al4 2.667003 1_555
Al27 Al29 3.023496 1_555
Al27 Pr3 3.222967 1_655
Al27 Pr3 3.222967 1_555
Al28 Fe0 2.565727 1_555
Al28 Fe0 2.565727 1_655
Al28 Al4 2.626608 1_555
Al28 Pr2 3.155898 1_655
Al28 Pr2 3.155898 1_555
Al29 Fe1 2.565727 1_555
Al29 Fe1 2.565727 1_655
Al29 Al5 2.626608 1_555
Al29 Pr3 3.155898 1_655
Al29 Pr3 3.155898 1_555
Al30 Fe2 2.565727 1_655
Al30 Fe2 2.565727 1_555
Al30 Al6 2.626608 1_555
Al30 Al8 2.850770 1_545
Al30 Pr0 3.155898 1_545
Al30 Pr0 3.155898 1_645
Al31 Fe3 2.565727 1_655
Al31 Fe3 2.565727 1_555
Al31 Al7 2.626608 1_555
Al31 Al9 2.850770 1_565
Al31 Pr1 3.155898 1_665
Al31 Pr1 3.155898 1_565
