# generated using pymatgen
data_CaTi6(H2O7)2
_symmetry_space_group_name_H-M   'P 1'
_cell_length_a   8.28890685
_cell_length_b   8.20918604
_cell_length_c   9.39669234
_cell_angle_alpha   78.89354968
_cell_angle_beta   101.14075408
_cell_angle_gamma   153.20334093
_symmetry_Int_Tables_number   1
_chemical_formula_structural   CaTi6(H2O7)2
_chemical_formula_sum   'Ca1 Ti6 H4 O14'
_cell_volume   282.53160411
_cell_formula_units_Z   1
loop_
 _symmetry_equiv_pos_site_id
 _symmetry_equiv_pos_as_xyz
  1  'x, y, z'
loop_
 _atom_site_type_symbol
 _atom_site_label
 _atom_site_symmetry_multiplicity
 _atom_site_fract_x
 _atom_site_fract_y
 _atom_site_fract_z
 _atom_site_occupancy
  Ca  Ca0  1  0.49953800  0.52875000  0.54404700  1
  Ti  Ti0  1  0.78473300  0.22722200  0.78741100  1
  Ti  Ti1  1  0.23594100  0.79021000  0.21619200  1
  Ti  Ti2  1  0.82569600  0.18835500  0.47000400  1
  Ti  Ti3  1  0.18635800  0.84062600  0.52974100  1
  Ti  Ti4  1  0.86822800  0.13061400  0.17786000  1
  Ti  Ti5  1  0.15674900  0.88933700  0.82945700  1
  H  H0  1  0.71936300  0.70756600  0.10492000  1
  H  H1  1  0.03445300  0.92196200  0.23489000  1
  H  H2  1  0.08748300  0.09370900  0.95479100  1
  H  H3  1  0.99390300  0.09416300  0.78244900  1
  O  O0  1  0.83818000  0.16461600  0.96756300  1
  O  O1  1  0.18117300  0.85082100  0.03613200  1
  O  O2  1  0.86624700  0.12340300  0.67348700  1
  O  O3  1  0.14874000  0.88926600  0.32448600  1
  O  O4  1  0.92390000  0.08158400  0.40594800  1
  O  O5  1  0.08831400  0.94159400  0.60543700  1
  O  O6  1  0.93451300  0.94159900  0.14946700  1
  O  O7  1  0.09401500  0.07898900  0.85492900  1
  O  O8  1  0.67375900  0.36738200  0.81613400  1
  O  O9  1  0.34791600  0.64762800  0.19004700  1
  O  O10  1  0.71371600  0.31132500  0.54615100  1
  O  O11  1  0.30167800  0.71255600  0.45769300  1
  O  O12  1  0.76218100  0.25559600  0.25076300  1
  O  O13  1  0.25676600  0.76357600  0.74880700  1
loop_
_geom_bond_atom_site_label_1
_geom_bond_atom_site_label_2
_geom_bond_distance
_geom_bond_site_symmetry_2
Ca0 O5 2.354220 1_545
Ca0 O4 2.376892 1_565
Ca0 O5 2.402934 1_655
Ca0 O4 2.469717 1_455
H0 O6 0.975425 1_555
H1 O6 1.134956 1_455
H1 O3 1.317919 1_555
H2 O7 0.986446 1_555
H3 O7 1.049486 1_655
H3 O2 1.471619 1_555
O0 Ti0 1.762826 1_555
O0 Ti4 1.940698 1_556
O1 Ti1 1.760254 1_555
O1 Ti5 1.907440 1_554
O2 Ti2 1.931862 1_555
O2 Ti0 1.996973 1_555
O3 Ti3 1.915667 1_555
O3 Ti1 1.967619 1_555
O4 Ti2 1.859966 1_555
O4 Ti4 2.141400 1_555
O5 Ti3 1.872551 1_555
O5 Ti5 2.135907 1_555
O6 Ti4 2.125746 1_565
O7 Ti5 2.094881 1_545
O8 Ti5 1.943226 1_545
O8 Ti5 1.947335 1_655
O8 Ti0 2.085160 1_555
O9 Ti4 1.928936 1_455
O9 Ti4 1.955182 1_565
O9 Ti1 2.104802 1_555
O10 Ti3 1.959056 1_655
O10 Ti3 1.969206 1_545
O10 Ti2 2.144822 1_555
O10 Ti0 2.359980 1_555
O11 Ti2 1.942296 1_455
O11 Ti2 1.956675 1_565
O11 Ti3 2.189925 1_555
O11 Ti1 2.331947 1_555
O12 Ti1 1.976987 1_545
O12 Ti1 1.990984 1_655
O12 Ti4 2.099561 1_555
O12 Ti2 2.118395 1_555
O13 Ti0 1.988101 1_565
O13 Ti0 2.001311 1_455
O13 Ti5 2.097530 1_555
O13 Ti3 2.161296 1_555
