# generated using pymatgen
data_TlPO6
_symmetry_space_group_name_H-M   'P 1'
_cell_length_a   8.80011400
_cell_length_b   10.35387400
_cell_length_c   10.56464400
_cell_angle_alpha   90.00000000
_cell_angle_beta   90.00000000
_cell_angle_gamma   90.00000000
_symmetry_Int_Tables_number   1
_chemical_formula_structural   TlPO6
_chemical_formula_sum   'Tl8 P8 O48'
_cell_volume   962.60040680
_cell_formula_units_Z   8
loop_
 _symmetry_equiv_pos_site_id
 _symmetry_equiv_pos_as_xyz
  1  'x, y, z'
loop_
 _atom_site_type_symbol
 _atom_site_label
 _atom_site_symmetry_multiplicity
 _atom_site_fract_x
 _atom_site_fract_y
 _atom_site_fract_z
 _atom_site_occupancy
  Tl  Tl0  1  0.35426500  0.17443100  0.12518000  1
  Tl  Tl1  1  0.64573500  0.82556900  0.87482000  1
  Tl  Tl2  1  0.14573500  0.82556900  0.62518000  1
  Tl  Tl3  1  0.64573500  0.67443100  0.37482000  1
  Tl  Tl4  1  0.85426500  0.17443100  0.37482000  1
  Tl  Tl5  1  0.35426500  0.32556900  0.62518000  1
  Tl  Tl6  1  0.85426500  0.32556900  0.87482000  1
  Tl  Tl7  1  0.14573500  0.67443100  0.12518000  1
  P  P0  1  0.03995500  0.36316100  0.15918300  1
  P  P1  1  0.96004500  0.63683900  0.84081700  1
  P  P2  1  0.46004500  0.63683900  0.65918300  1
  P  P3  1  0.96004500  0.86316100  0.34081700  1
  P  P4  1  0.53995500  0.36316100  0.34081700  1
  P  P5  1  0.03995500  0.13683900  0.65918300  1
  P  P6  1  0.53995500  0.13683900  0.84081700  1
  P  P7  1  0.46004500  0.86316100  0.15918300  1
  O  O0  1  0.50695800  0.00537800  0.16639600  1
  O  O1  1  0.49304200  0.99462200  0.83360400  1
  O  O2  1  0.99304200  0.99462200  0.66639600  1
  O  O3  1  0.49304200  0.50537800  0.33360400  1
  O  O4  1  0.00695800  0.00537800  0.33360400  1
  O  O5  1  0.50695800  0.49462200  0.66639600  1
  O  O6  1  0.00695800  0.49462200  0.83360400  1
  O  O7  1  0.99304200  0.50537800  0.16639600  1
  O  O8  1  0.20484400  0.35360500  0.10153000  1
  O  O9  1  0.79515600  0.64639500  0.89847000  1
  O  O10  1  0.29515600  0.64639500  0.60153000  1
  O  O11  1  0.79515600  0.85360500  0.39847000  1
  O  O12  1  0.70484400  0.35360500  0.39847000  1
  O  O13  1  0.20484400  0.14639500  0.60153000  1
  O  O14  1  0.70484400  0.14639500  0.89847000  1
  O  O15  1  0.29515600  0.85360500  0.10153000  1
  O  O16  1  0.42698900  0.28434700  0.42493200  1
  O  O17  1  0.57301100  0.71565300  0.57506800  1
  O  O18  1  0.07301100  0.71565300  0.92493200  1
  O  O19  1  0.57301100  0.78434700  0.07506800  1
  O  O20  1  0.92698900  0.28434700  0.07506800  1
  O  O21  1  0.42698900  0.21565300  0.92493200  1
  O  O22  1  0.92698900  0.21565300  0.57506800  1
  O  O23  1  0.07301100  0.78434700  0.42493200  1
  O  O24  1  0.17640700  0.02398300  0.04588500  1
  O  O25  1  0.82359300  0.97601700  0.95411500  1
  O  O26  1  0.32359300  0.97601700  0.54588500  1
  O  O27  1  0.82359300  0.52398300  0.45411500  1
  O  O28  1  0.67640700  0.02398300  0.45411500  1
  O  O29  1  0.17640700  0.47601700  0.54588500  1
  O  O30  1  0.67640700  0.47601700  0.95411500  1
  O  O31  1  0.32359300  0.52398300  0.04588500  1
  O  O32  1  0.24543500  0.15670000  0.32298700  1
  O  O33  1  0.75456500  0.84330000  0.67701300  1
  O  O34  1  0.25456500  0.84330000  0.82298700  1
  O  O35  1  0.75456500  0.65670000  0.17701300  1
  O  O36  1  0.74543500  0.15670000  0.17701300  1
  O  O37  1  0.24543500  0.34330000  0.82298700  1
  O  O38  1  0.74543500  0.34330000  0.67701300  1
  O  O39  1  0.25456500  0.65670000  0.32298700  1
  O  O40  1  0.04503000  0.29836000  0.29280200  1
  O  O41  1  0.95497000  0.70164000  0.70719800  1
  O  O42  1  0.45497000  0.70164000  0.79280200  1
  O  O43  1  0.95497000  0.79836000  0.20719800  1
  O  O44  1  0.54503000  0.29836000  0.20719800  1
  O  O45  1  0.04503000  0.20164000  0.79280200  1
  O  O46  1  0.54503000  0.20164000  0.70719800  1
  O  O47  1  0.45497000  0.79836000  0.29280200  1
loop_
_geom_bond_atom_site_label_1
_geom_bond_atom_site_label_2
_geom_bond_distance
_geom_bond_site_symmetry_2
O0 P7 1.531173 1_545
O0 Tl0 2.249202 1_555
O1 P6 1.531173 1_565
O1 Tl1 2.249202 1_555
O2 P5 1.531173 1_665
O2 Tl2 2.249202 1_655
O3 P4 1.531173 1_555
O3 Tl3 2.249202 1_555
O4 P3 1.531173 1_445
O4 Tl4 2.249202 1_455
O5 P2 1.531173 1_555
O5 Tl5 2.249202 1_555
O6 P1 1.531173 1_455
O6 Tl6 2.249202 1_455
O7 P0 1.531173 1_655
O7 Tl7 2.249202 1_655
O8 P0 1.576799 1_555
O8 Tl0 2.287577 1_555
O9 P1 1.576799 1_555
O9 Tl1 2.287577 1_555
O10 P2 1.576799 1_555
O10 Tl2 2.287577 1_555
O11 P3 1.576799 1_555
O11 Tl3 2.287577 1_555
O12 P4 1.576799 1_555
O12 Tl4 2.287577 1_555
O13 P5 1.576799 1_555
O13 Tl5 2.287577 1_555
O14 P6 1.576799 1_555
O14 Tl6 2.287577 1_555
O15 P7 1.576799 1_555
O15 Tl7 2.287577 1_555
O16 P4 1.563284 1_555
O16 Tl5 2.251063 1_555
O17 P2 1.563284 1_555
O17 Tl3 2.251063 1_555
O18 P1 1.563284 1_455
O18 Tl7 2.251063 1_556
O19 P7 1.563284 1_555
O19 Tl1 2.251063 1_554
O20 P0 1.563284 1_655
O20 Tl6 2.251063 1_554
O21 P6 1.563284 1_555
O21 Tl0 2.251063 1_556
O22 P5 1.563284 1_655
O22 Tl4 2.251063 1_555
O23 P3 1.563284 1_455
O23 Tl2 2.251063 1_555
O24 Tl0 2.361785 1_555
O25 Tl1 2.361785 1_555
O26 Tl2 2.361785 1_555
O27 Tl3 2.361785 1_555
O28 Tl4 2.361785 1_555
O29 Tl5 2.361785 1_555
O30 Tl6 2.361785 1_555
O31 Tl7 2.361785 1_555
O32 Tl0 2.306084 1_555
O33 Tl1 2.306084 1_555
O34 Tl2 2.306084 1_555
O35 Tl3 2.306084 1_555
O36 Tl4 2.306084 1_555
O37 Tl5 2.306084 1_555
O38 Tl6 2.306084 1_555
O39 Tl7 2.306084 1_555
O40 P0 1.563610 1_555
O40 Tl4 2.283743 1_455
O41 P1 1.563610 1_555
O41 Tl2 2.283743 1_655
O42 P2 1.563610 1_555
O42 Tl1 2.283743 1_555
O43 P3 1.563610 1_555
O43 Tl7 2.283743 1_655
O44 P4 1.563610 1_555
O44 Tl0 2.283743 1_555
O45 P5 1.563610 1_555
O45 Tl6 2.283743 1_455
O46 P6 1.563610 1_555
O46 Tl5 2.283743 1_555
O47 P7 1.563610 1_555
O47 Tl3 2.283743 1_555
