# generated using pymatgen
data_ZnCo4(CuO4)3
_symmetry_space_group_name_H-M   'P 1'
_cell_length_a   6.24920294
_cell_length_b   6.24920294
_cell_length_c   6.24920294
_cell_angle_alpha   109.47122063
_cell_angle_beta   109.47122063
_cell_angle_gamma   109.47122063
_symmetry_Int_Tables_number   1
_chemical_formula_structural   ZnCo4(CuO4)3
_chemical_formula_sum   'Zn1 Co4 Cu3 O12'
_cell_volume   187.86764642
_cell_formula_units_Z   1
loop_
 _symmetry_equiv_pos_site_id
 _symmetry_equiv_pos_as_xyz
  1  'x, y, z'
loop_
 _atom_site_type_symbol
 _atom_site_label
 _atom_site_symmetry_multiplicity
 _atom_site_fract_x
 _atom_site_fract_y
 _atom_site_fract_z
 _atom_site_occupancy
  Zn  Zn0  1  0.00000000  0.00000000  0.00000000  1
  Co  Co0  1  0.00000000  0.50000000  0.00000000  1
  Co  Co1  1  0.50000000  0.00000000  0.00000000  1
  Co  Co2  1  0.50000000  0.50000000  0.50000000  1
  Co  Co3  1  0.00000000  0.00000000  0.50000000  1
  Cu  Cu0  1  0.50000000  0.00000000  0.50000000  1
  Cu  Cu1  1  0.50000000  0.50000000  0.00000000  1
  Cu  Cu2  1  0.00000000  0.50000000  0.50000000  1
  O  O0  1  0.30511500  0.13181400  0.82669900  1
  O  O1  1  0.69488500  0.86818600  0.17330100  1
  O  O2  1  0.69488500  0.52158500  0.82669900  1
  O  O3  1  0.47841500  0.17330100  0.30511500  1
  O  O4  1  0.17330100  0.30511500  0.47841500  1
  O  O5  1  0.82669900  0.30511500  0.13181400  1
  O  O6  1  0.86818600  0.17330100  0.69488500  1
  O  O7  1  0.82669900  0.69488500  0.52158500  1
  O  O8  1  0.30511500  0.47841500  0.17330100  1
  O  O9  1  0.52158500  0.82669900  0.69488500  1
  O  O10  1  0.17330100  0.69488500  0.86818600  1
  O  O11  1  0.13181400  0.82669900  0.30511500  1
loop_
_geom_bond_atom_site_label_1
_geom_bond_atom_site_label_2
_geom_bond_distance
_geom_bond_site_symmetry_2
Co0 O10 1.928436 1_554
Co0 O11 1.928436 1_555
Co0 O5 1.928436 1_455
Co0 O6 1.928436 1_454
Co0 O8 1.928439 1_555
Co0 O2 1.928439 1_454
Co1 O1 1.928436 1_545
Co1 O5 1.928436 1_555
Co1 O0 1.928436 1_554
Co1 O10 1.928436 1_544
Co1 O3 1.928439 1_555
Co1 O9 1.928439 1_544
Co2 O2 1.928432 1_555
Co2 O9 1.928432 1_555
Co2 O7 1.928432 1_555
Co2 O4 1.928432 1_555
Co2 O8 1.928432 1_555
Co2 O3 1.928432 1_555
Co3 O6 1.928436 1_455
Co3 O0 1.928436 1_555
Co3 O11 1.928436 1_545
Co3 O1 1.928436 1_445
Co3 O4 1.928439 1_555
Co3 O7 1.928439 1_445
Cu0 O11 1.881877 1_545
Cu0 O6 1.881877 1_555
Cu0 O3 1.881877 1_555
Cu0 O9 1.881877 1_545
Cu1 O0 1.881877 1_554
Cu1 O1 1.881877 1_555
Cu1 O8 1.881877 1_555
Cu1 O2 1.881877 1_554
Cu2 O5 1.881877 1_455
Cu2 O10 1.881877 1_555
Cu2 O4 1.881877 1_555
Cu2 O7 1.881877 1_455
O0 Zn0 2.532055 1_556
O1 Zn0 2.532055 1_665
O2 Zn0 2.532050 1_666
O3 Zn0 2.532050 1_555
O4 Zn0 2.532050 1_555
O5 Zn0 2.532055 1_655
O6 Zn0 2.532055 1_656
O7 Zn0 2.532050 1_666
O8 Zn0 2.532050 1_555
O9 Zn0 2.532050 1_666
O10 Zn0 2.532055 1_566
O11 Zn0 2.532055 1_565
