# generated using pymatgen
data_CaLa2SnO6
_symmetry_space_group_name_H-M   'P 1'
_cell_length_a   5.89743223
_cell_length_b   5.89743223
_cell_length_c   5.89743157
_cell_angle_alpha   61.15391288
_cell_angle_beta   61.15391288
_cell_angle_gamma   61.15390285
_symmetry_Int_Tables_number   1
_chemical_formula_structural   CaLa2SnO6
_chemical_formula_sum   'Ca1 La2 Sn1 O6'
_cell_volume   148.80110162
_cell_formula_units_Z   1
loop_
 _symmetry_equiv_pos_site_id
 _symmetry_equiv_pos_as_xyz
  1  'x, y, z'
loop_
 _atom_site_type_symbol
 _atom_site_label
 _atom_site_symmetry_multiplicity
 _atom_site_fract_x
 _atom_site_fract_y
 _atom_site_fract_z
 _atom_site_occupancy
  Ca  Ca0  1  0.50000000  0.50000000  0.50000000  1
  La  La0  1  0.76367800  0.76367800  0.76367800  1
  La  La1  1  0.23632200  0.23632200  0.23632200  1
  Sn  Sn0  1  0.00000000  0.00000000  0.00000000  1
  O  O0  1  0.78296000  0.34538300  0.12810000  1
  O  O1  1  0.12810000  0.78296000  0.34538300  1
  O  O2  1  0.34538300  0.12810000  0.78296000  1
  O  O3  1  0.21704000  0.65461700  0.87190000  1
  O  O4  1  0.65461700  0.87190000  0.21704000  1
  O  O5  1  0.87190000  0.21704000  0.65461700  1
loop_
_geom_bond_atom_site_label_1
_geom_bond_atom_site_label_2
_geom_bond_distance
_geom_bond_site_symmetry_2
Ca0 O3 2.314399 1_555
Ca0 O0 2.314399 1_555
Ca0 O1 2.314399 1_555
Ca0 O5 2.314399 1_555
Ca0 O2 2.314400 1_555
Ca0 O4 2.314400 1_555
La0 O2 2.359382 1_565
La0 O1 2.359383 1_655
La0 O0 2.359383 1_556
La0 O4 2.749669 1_556
La0 O3 2.749669 1_655
La0 O5 2.749669 1_565
La1 O4 2.359382 1_545
La1 O5 2.359383 1_455
La1 O3 2.359383 1_554
La1 O2 2.749669 1_554
La1 O0 2.749669 1_455
La1 O1 2.749669 1_545
O0 Sn0 2.096181 1_655
O1 Sn0 2.096181 1_565
O2 Sn0 2.096181 1_556
O3 Sn0 2.096181 1_566
O4 Sn0 2.096181 1_665
O5 Sn0 2.096181 1_656
