# generated using pymatgen
data_ThAl2Ni3
_symmetry_space_group_name_H-M   'P 1'
_cell_length_a   5.03975500
_cell_length_b   5.03975500
_cell_length_c   4.11428405
_cell_angle_alpha   90.00000000
_cell_angle_beta   90.00000000
_cell_angle_gamma   117.99565424
_symmetry_Int_Tables_number   1
_chemical_formula_structural   ThAl2Ni3
_chemical_formula_sum   'Th1 Al2 Ni3'
_cell_volume   92.27107090
_cell_formula_units_Z   1
loop_
 _symmetry_equiv_pos_site_id
 _symmetry_equiv_pos_as_xyz
  1  'x, y, z'
loop_
 _atom_site_type_symbol
 _atom_site_label
 _atom_site_symmetry_multiplicity
 _atom_site_fract_x
 _atom_site_fract_y
 _atom_site_fract_z
 _atom_site_occupancy
  Th  Th0  1  -0.00000000  0.00000000  -0.00000000  1
  Al  Al0  1  0.50000000  0.00000000  0.50000000  1
  Al  Al1  1  -0.00000000  0.50000000  0.50000000  1
  Ni  Ni0  1  0.66915541  0.33084459  0.00000000  1
  Ni  Ni1  1  0.33084459  0.66915541  -0.00000000  1
  Ni  Ni2  1  0.50000000  0.50000000  0.50000000  1
loop_
_geom_bond_atom_site_label_1
_geom_bond_atom_site_label_2
_geom_bond_distance
_geom_bond_site_symmetry_2
Al0 Ni2 2.519878 1_555
Al0 Ni2 2.519878 1_545
Al0 Ni1 2.530666 1_545
Al0 Ni0 2.530666 1_556
Al0 Ni1 2.530666 1_546
Al0 Ni0 2.530666 1_555
Al0 Al1 2.595830 1_545
Al0 Al1 2.595830 1_655
Al0 Th0 3.252940 1_555
Al0 Th0 3.252940 1_656
Al0 Th0 3.252940 1_556
Al0 Th0 3.252940 1_655
Al1 Ni2 2.519878 1_555
Al1 Ni2 2.519878 1_455
Al1 Ni0 2.530666 1_455
Al1 Ni1 2.530666 1_555
Al1 Ni1 2.530666 1_556
Al1 Ni0 2.530666 1_456
Al1 Th0 3.252940 1_565
Al1 Th0 3.252940 1_555
Al1 Th0 3.252940 1_556
Al1 Th0 3.252940 1_566
Ni0 Ni2 2.523418 1_554
Ni0 Ni2 2.523418 1_555
Ni0 Th0 2.858375 1_655
Ni0 Ni1 2.922880 1_555
Ni0 Ni1 2.947839 1_655
Ni0 Ni1 2.947839 1_545
Ni0 Th0 2.978949 1_665
Ni0 Th0 2.978949 1_555
Ni1 Ni2 2.523418 1_554
Ni1 Ni2 2.523418 1_555
Ni1 Th0 2.858375 1_565
Ni1 Th0 2.978949 1_665
Ni1 Th0 2.978949 1_555
Ni2 Th0 3.312124 1_555
Ni2 Th0 3.312124 1_556
Ni2 Th0 3.312124 1_665
Ni2 Th0 3.312124 1_666
