# generated using pymatgen
data_Dy2(GaNi)5
_symmetry_space_group_name_H-M   'P 1'
_cell_length_a   4.06593700
_cell_length_b   8.85740700
_cell_length_c   15.42910810
_cell_angle_alpha   89.79989468
_cell_angle_beta   90.00000000
_cell_angle_gamma   90.00000000
_symmetry_Int_Tables_number   1
_chemical_formula_structural   Dy2(GaNi)5
_chemical_formula_sum   'Dy6 Ga15 Ni15'
_cell_volume   555.65524652
_cell_formula_units_Z   3
loop_
 _symmetry_equiv_pos_site_id
 _symmetry_equiv_pos_as_xyz
  1  'x, y, z'
loop_
 _atom_site_type_symbol
 _atom_site_label
 _atom_site_symmetry_multiplicity
 _atom_site_fract_x
 _atom_site_fract_y
 _atom_site_fract_z
 _atom_site_occupancy
  Dy  Dy0  1  0.00000000  0.99930400  0.33683600  1
  Dy  Dy1  1  0.00000000  0.50429300  0.83563900  1
  Dy  Dy2  1  0.00000000  0.50568000  0.16848400  1
  Dy  Dy3  1  0.00000000  0.00319500  0.66385500  1
  Dy  Dy4  1  0.50000000  0.99219800  0.00056300  1
  Dy  Dy5  1  0.50000000  0.49748000  0.49638800  1
  Ga  Ga0  1  0.50000000  0.00983300  0.50126400  1
  Ga  Ga1  1  0.50000000  0.50809700  0.00066100  1
  Ga  Ga2  1  0.50000000  0.74685100  0.25585500  1
  Ga  Ga3  1  0.50000000  0.25208600  0.75176400  1
  Ga  Ga4  1  0.50000000  0.24894900  0.24798700  1
  Ga  Ga5  1  0.50000000  0.75160300  0.74788500  1
  Ga  Ga6  1  0.00000000  0.14527900  0.85385300  1
  Ga  Ga7  1  0.00000000  0.14542100  0.14709000  1
  Ga  Ga8  1  0.00000000  0.64745500  0.64680700  1
  Ga  Ga9  1  0.00000000  0.78150500  0.49427700  1
  Ga  Ga10  1  0.00000000  0.29515000  0.00062300  1
  Ga  Ga11  1  0.00000000  0.84951200  0.14016600  1
  Ga  Ga12  1  0.00000000  0.35173000  0.63780100  1
  Ga  Ga13  1  0.00000000  0.36209700  0.36227100  1
  Ga  Ga14  1  0.00000000  0.85118100  0.86179900  1
  Ni  Ni0  1  0.50000000  0.99500600  0.18505500  1
  Ni  Ni1  1  0.50000000  0.49874600  0.68358300  1
  Ni  Ni2  1  0.50000000  0.22498900  0.40470500  1
  Ni  Ni3  1  0.50000000  0.72560300  0.90643800  1
  Ni  Ni4  1  0.50000000  0.77907100  0.41030300  1
  Ni  Ni5  1  0.50000000  0.27725500  0.90959200  1
  Ni  Ni6  1  0.50000000  0.49507900  0.31553700  1
  Ni  Ni7  1  0.50000000  0.99833100  0.81492300  1
  Ni  Ni8  1  0.50000000  0.72509800  0.09449400  1
  Ni  Ni9  1  0.50000000  0.22757800  0.59353800  1
  Ni  Ni10  1  0.50000000  0.27728600  0.09098400  1
  Ni  Ni11  1  0.50000000  0.77803300  0.58962700  1
  Ni  Ni12  1  0.00000000  0.19969200  0.49931600  1
  Ni  Ni13  1  0.00000000  0.70036000  0.00037800  1
  Ni  Ni14  1  0.00000000  0.64917500  0.34965700  1
loop_
_geom_bond_atom_site_label_1
_geom_bond_atom_site_label_2
_geom_bond_distance
_geom_bond_site_symmetry_2
Dy0 Ni4 3.034405 1_555
Dy0 Ni4 3.034405 1_455
Dy0 Ni2 3.039747 1_565
Dy0 Ni2 3.039747 1_465
Dy0 Ni12 3.076698 1_565
Dy0 Ga9 3.096726 1_555
Dy0 Ni0 3.101495 1_455
Dy0 Ni0 3.101495 1_555
Dy0 Ni14 3.106848 1_555
Dy0 Ga7 3.196786 1_565
Dy0 Ga13 3.238640 1_565
Dy0 Ga0 3.252624 1_565
Dy0 Ga0 3.252624 1_465
Dy0 Ga2 3.273177 1_455
Dy0 Ga2 3.273177 1_555
Dy0 Ga4 3.298558 1_465
Dy0 Ga4 3.298558 1_565
Dy0 Ga11 3.316064 1_555
Dy1 Ni3 3.030461 1_555
Dy1 Ni3 3.030461 1_455
Dy1 Ni5 3.076178 1_455
Dy1 Ni5 3.076178 1_555
Dy1 Ni13 3.083406 1_556
Dy1 Ga14 3.100323 1_555
Dy1 Ni1 3.104885 1_455
Dy1 Ni1 3.104885 1_555
Dy1 Ga10 3.143015 1_556
Dy1 Ga8 3.173431 1_555
Dy1 Ga6 3.191349 1_555
Dy1 Ga1 3.258456 1_456
Dy1 Ga1 3.258456 1_556
Dy1 Ga5 3.277784 1_455
Dy1 Ga5 3.277784 1_555
Dy1 Ga3 3.289103 1_555
Dy1 Ga3 3.289103 1_455
Dy1 Ga12 3.342513 1_555
Dy2 Ni8 3.032789 1_555
Dy2 Ni8 3.032789 1_455
Dy2 Ni6 3.047652 1_555
Dy2 Ni6 3.047652 1_455
Dy2 Ni14 3.074761 1_555
Dy2 Ga11 3.075131 1_555
Dy2 Ni13 3.109596 1_555
Dy2 Ni10 3.110005 1_555
Dy2 Ni10 3.110005 1_455
Dy2 Ga10 3.196693 1_555
Dy2 Ga7 3.209135 1_555
Dy2 Ga13 3.245106 1_555
Dy2 Ga2 3.245530 1_455
Dy2 Ga2 3.245530 1_555
Dy2 Ga4 3.284679 1_455
Dy2 Ga4 3.284679 1_555
Dy2 Ga1 3.292083 1_555
Dy2 Ga1 3.292083 1_455
Dy3 Ni9 3.040548 1_455
Dy3 Ni9 3.040548 1_555
Dy3 Ni11 3.072133 1_445
Dy3 Ni11 3.072133 1_545
Dy3 Ni12 3.072989 1_555
Dy3 Ni7 3.093049 1_545
Dy3 Ni7 3.093049 1_445
Dy3 Ga12 3.111786 1_555
Dy3 Ga8 3.162809 1_545
Dy3 Ga6 3.194256 1_555
Dy3 Ga0 3.229339 1_455
Dy3 Ga0 3.229339 1_555
Dy3 Ga9 3.276790 1_545
Dy3 Ga5 3.280200 1_445
Dy3 Ga5 3.280200 1_545
Dy3 Ga3 3.294465 1_555
Dy3 Ga3 3.294465 1_455
Dy3 Ga14 3.333426 1_545
Dy4 Ni8 2.770110 1_555
Dy4 Ni3 2.776501 1_554
Dy4 Ni0 2.846743 1_555
Dy4 Ni7 2.864585 1_554
Dy4 Ni5 2.884491 1_564
Dy4 Ni10 2.889167 1_565
Dy4 Ga14 3.208684 1_654
Dy4 Ga14 3.208684 1_554
Dy4 Ga11 3.217251 1_655
Dy4 Ga11 3.217251 1_555
Dy4 Ga10 3.366519 1_565
Dy4 Ga10 3.366519 1_665
Dy5 Ni6 2.790525 1_555
Dy5 Ni2 2.801820 1_555
Dy5 Ni9 2.817251 1_555
Dy5 Ni4 2.821680 1_555
Dy5 Ni11 2.875693 1_555
Dy5 Ni1 2.888313 1_555
Dy5 Ga13 3.141697 1_555
Dy5 Ga13 3.141697 1_655
Dy5 Ga9 3.234551 1_555
Dy5 Ga9 3.234551 1_655
Dy5 Ga12 3.246609 1_555
Dy5 Ga12 3.246609 1_655
Ga0 Ni9 2.401215 1_555
Ga0 Ni2 2.414853 1_555
Ga0 Ni11 2.460613 1_545
Ga0 Ni4 2.483434 1_545
Ga0 Ni12 2.638463 1_655
Ga0 Ni12 2.638463 1_555
Ga0 Ga9 2.869875 1_645
Ga0 Ga9 2.869875 1_545
Ga1 Ni3 2.409452 1_554
Ga1 Ni8 2.410349 1_555
Ga1 Ni10 2.470172 1_555
Ga1 Ni5 2.484965 1_554
Ga1 Ni13 2.651975 1_655
Ga1 Ni13 2.651975 1_555
Ga1 Ga10 2.773186 1_555
Ga1 Ga10 2.773186 1_655
Ga2 Ni4 2.401012 1_555
Ga2 Ni6 2.409712 1_555
Ga2 Ni0 2.451076 1_555
Ga2 Ni8 2.497772 1_555
Ga2 Ni14 2.639571 1_555
Ga2 Ni14 2.639571 1_655
Ga3 Ni1 2.421529 1_555
Ga3 Ni5 2.446104 1_555
Ga3 Ni7 2.446647 1_545
Ga3 Ni9 2.451673 1_555
Ga3 Ga6 2.738358 1_555
Ga3 Ga6 2.738358 1_655
Ga4 Ni6 2.419679 1_555
Ga4 Ni2 2.426576 1_555
Ga4 Ni10 2.434512 1_555
Ga4 Ni0 2.453021 1_545
Ga4 Ga7 2.721631 1_555
Ga4 Ga7 2.721631 1_655
Ga5 Ni7 2.421050 1_555
Ga5 Ni11 2.452162 1_555
Ga5 Ni1 2.452732 1_555
Ga5 Ni3 2.456346 1_555
Ga5 Ga8 2.725098 1_655
Ga5 Ga8 2.725098 1_555
Ga6 Ni7 2.488637 1_545
Ga6 Ni7 2.488637 1_445
Ga6 Ni5 2.499213 1_555
Ga6 Ni5 2.499213 1_455
Ga7 Ni10 2.497891 1_555
Ga7 Ni10 2.497891 1_455
Ga7 Ni0 2.499124 1_445
Ga7 Ni0 2.499124 1_545
Ga8 Ni1 2.486898 1_555
Ga8 Ni1 2.486898 1_455
Ga8 Ni11 2.498371 1_455
Ga8 Ni11 2.498371 1_555
Ga8 Ga9 2.632251 1_555
Ga9 Ni4 2.410874 1_455
Ga9 Ni4 2.410874 1_555
Ga9 Ni11 2.509565 1_455
Ga9 Ni11 2.509565 1_555
Ga9 Ni14 2.524093 1_555
Ga10 Ni10 2.469863 1_555
Ga10 Ni10 2.469863 1_455
Ga10 Ni5 2.476355 1_454
Ga10 Ni5 2.476355 1_554
Ga10 Ga7 2.616266 1_555
Ga10 Ga6 2.628929 1_554
Ga11 Ni8 2.418538 1_455
Ga11 Ni8 2.418538 1_555
Ga11 Ni0 2.505920 1_455
Ga11 Ni0 2.505920 1_555
Ga11 Ni13 2.533182 1_555
Ga11 Ga7 2.623536 1_565
Ga11 Ga2 2.852125 1_555
Ga11 Ga2 2.852125 1_455
Ga12 Ni9 2.411198 1_455
Ga12 Ni9 2.411198 1_555
Ga12 Ni1 2.516749 1_555
Ga12 Ni1 2.516749 1_455
Ga12 Ni12 2.529641 1_555
Ga12 Ga8 2.623524 1_555
Ga12 Ga3 2.827166 1_555
Ga12 Ga3 2.827166 1_455
Ga13 Ni2 2.455786 1_455
Ga13 Ni2 2.455786 1_555
Ga13 Ni6 2.456492 1_555
Ga13 Ni6 2.456492 1_455
Ga13 Ni14 2.549526 1_555
Ga13 Ni12 2.553240 1_555
Ga13 Ga4 2.873836 1_555
Ga13 Ga4 2.873836 1_455
Ga14 Ni3 2.416438 1_555
Ga14 Ni3 2.416438 1_455
Ga14 Ni13 2.517205 1_556
Ga14 Ni7 2.519572 1_555
Ga14 Ni7 2.519572 1_455
Ga14 Ga6 2.607401 1_565
Ga14 Ga5 2.830344 1_555
Ga14 Ga5 2.830344 1_455
Ni0 Ni8 2.773281 1_555
Ni0 Ni10 2.886633 1_565
Ni1 Ni9 2.778914 1_555
Ni1 Ni11 2.862855 1_555
Ni2 Ni6 2.755517 1_555
Ni2 Ni9 2.913695 1_555
Ni3 Ni7 2.793802 1_555
Ni3 Ni8 2.901524 1_556
Ni4 Ni6 2.913930 1_555
Ni5 Ni7 2.874424 1_545
Ni10 Ni5 2.798718 1_554
Ni11 Ni4 2.766793 1_555
Ni12 Ni9 2.511951 1_455
Ni12 Ni9 2.511951 1_555
Ni12 Ni2 2.512328 1_455
Ni12 Ni2 2.512328 1_555
Ni13 Ni3 2.506288 1_554
Ni13 Ni3 2.506288 1_454
Ni13 Ni8 2.508359 1_555
Ni13 Ni8 2.508359 1_455
Ni14 Ni6 2.505603 1_555
Ni14 Ni6 2.505603 1_455
Ni14 Ni4 2.517893 1_455
Ni14 Ni4 2.517893 1_555
