# generated using pymatgen
data_U2Al3Fe
_symmetry_space_group_name_H-M   'P 1'
_cell_length_a   5.19124989
_cell_length_b   5.19124989
_cell_length_c   5.41773189
_cell_angle_alpha   90.00000000
_cell_angle_beta   61.37349579
_cell_angle_gamma   120.00000000
_symmetry_Int_Tables_number   1
_chemical_formula_structural   U2Al3Fe
_chemical_formula_sum   'U2 Al3 Fe1'
_cell_volume   105.33124280
_cell_formula_units_Z   1
loop_
 _symmetry_equiv_pos_site_id
 _symmetry_equiv_pos_as_xyz
  1  'x, y, z'
loop_
 _atom_site_type_symbol
 _atom_site_label
 _atom_site_symmetry_multiplicity
 _atom_site_fract_x
 _atom_site_fract_y
 _atom_site_fract_z
 _atom_site_occupancy
  U  U0  1  0.47812600  0.73906300  0.78281200  1
  U  U1  1  0.02187400  0.01093700  0.96718800  1
  Al  Al0  1  0.25000000  0.37500000  0.37500000  1
  Al  Al1  1  0.25000000  0.87500000  0.37500000  1
  Al  Al2  1  0.75000000  0.37500000  0.37500000  1
  Fe  Fe0  1  0.75000000  0.37500000  0.87500000  1
loop_
_geom_bond_atom_site_label_1
_geom_bond_atom_site_label_2
_geom_bond_distance
_geom_bond_site_symmetry_2
U0 U1 3.110533 1_665
U0 U1 3.110542 1_565
U0 U1 3.110542 1_555
Al0 Al1 2.595625 1_555
Al0 Al1 2.595625 1_545
Al0 Al2 2.595625 1_455
Al0 Al2 2.595625 1_555
Al0 Fe0 2.708866 1_455
Al0 Fe0 2.708866 1_554
Al0 U0 3.064118 1_554
Al0 U1 3.064118 1_555
Al0 U1 3.181950 1_664
Al0 U0 3.181950 1_445
Al0 U1 3.181954 1_554
Al0 U0 3.181954 1_555
Al1 Al2 2.595625 1_565
Al1 Al2 2.595625 1_455
Al1 Fe0 2.708866 1_455
Al1 Fe0 2.708866 1_564
Al1 U0 3.064118 1_554
Al1 U1 3.064118 1_565
Al1 U1 3.181950 1_664
Al1 U0 3.181950 1_455
Al1 U1 3.181954 1_564
Al1 U0 3.181954 1_555
Al2 Fe0 2.708866 1_554
Al2 Fe0 2.708866 1_555
Al2 U0 3.064120 1_654
Al2 U1 3.064120 1_555
Al2 U1 3.181952 1_664
Al2 U1 3.181952 1_654
Al2 U0 3.181952 1_545
Al2 U0 3.181952 1_555
Fe0 U1 3.025909 1_655
Fe0 U1 3.025909 1_665
Fe0 U0 3.025909 1_545
Fe0 U0 3.025909 1_555
Fe0 U1 3.025913 1_555
Fe0 U0 3.025913 1_655
