# generated using pymatgen
data_CeSe2
_symmetry_space_group_name_H-M   'P 1'
_cell_length_a   15.39542099
_cell_length_b   15.39542099
_cell_length_c   20.48012738
_cell_angle_alpha   112.07762645
_cell_angle_beta   112.07762645
_cell_angle_gamma   90.00000000
_symmetry_Int_Tables_number   1
_chemical_formula_structural   CeSe2
_chemical_formula_sum   'Ce16 Se32'
_cell_volume   4111.62108042
_cell_formula_units_Z   16
loop_
 _symmetry_equiv_pos_site_id
 _symmetry_equiv_pos_as_xyz
  1  'x, y, z'
loop_
 _atom_site_type_symbol
 _atom_site_label
 _atom_site_symmetry_multiplicity
 _atom_site_fract_x
 _atom_site_fract_y
 _atom_site_fract_z
 _atom_site_occupancy
  Ce  Ce0  1  0.48174485  0.47745286  0.61696519  1
  Ce  Ce1  1  0.13522034  0.13951233  0.61696519  1
  Ce  Ce2  1  0.11477966  0.61048767  0.88303481  1
  Ce  Ce3  1  0.76825515  0.27254714  0.88303481  1
  Ce  Ce4  1  0.13522034  0.47745286  0.61696519  1
  Ce  Ce5  1  0.48174485  0.13951233  0.61696519  1
  Ce  Ce6  1  0.76825515  0.61048767  0.88303481  1
  Ce  Ce7  1  0.11477966  0.27254714  0.88303481  1
  Ce  Ce8  1  0.52254714  0.51825515  0.38303481  1
  Ce  Ce9  1  0.86048767  0.86477966  0.38303481  1
  Ce  Ce10  1  0.38951233  0.88522034  0.11696519  1
  Ce  Ce11  1  0.72745286  0.23174485  0.11696519  1
  Ce  Ce12  1  0.86048767  0.51825515  0.38303481  1
  Ce  Ce13  1  0.52254714  0.86477966  0.38303481  1
  Ce  Ce14  1  0.72745286  0.88522034  0.11696519  1
  Ce  Ce15  1  0.38951233  0.23174485  0.11696519  1
  Se  Se0  1  0.02085164  0.97914836  0.50000000  1
  Se  Se1  1  0.47914836  0.52085164  0.50000000  1
  Se  Se2  1  0.77085164  0.22914836  -0.00000000  1
  Se  Se3  1  0.22914836  0.77085164  -0.00000000  1
  Se  Se4  1  0.47914836  0.97914836  0.50000000  1
  Se  Se5  1  0.02085164  0.52085164  0.50000000  1
  Se  Se6  1  0.22914836  0.22914836  -0.00000000  1
  Se  Se7  1  0.77085164  0.77085164  -0.00000000  1
  Se  Se8  1  0.93306809  0.24191975  0.86613619  1
  Se  Se9  1  0.93306809  0.62421643  0.86613619  1
  Se  Se10  1  0.31693191  0.12578357  0.63386381  1
  Se  Se11  1  0.31693191  0.50808025  0.63386381  1
  Se  Se12  1  0.75808025  0.06693191  0.13386381  1
  Se  Se13  1  0.37578357  0.06693191  0.13386381  1
  Se  Se14  1  0.87421643  0.68306809  0.36613619  1
  Se  Se15  1  0.49191975  0.68306809  0.36613619  1
  Se  Se16  1  0.74345088  0.45675469  0.91350937  1
  Se  Se17  1  0.17005849  0.45675469  0.91350937  1
  Se  Se18  1  0.07994151  0.29324531  0.58649063  1
  Se  Se19  1  0.50654912  0.29324531  0.58649063  1
  Se  Se20  1  0.54324531  0.25654912  0.08649063  1
  Se  Se21  1  0.54324531  0.82994151  0.08649063  1
  Se  Se22  1  0.70675469  0.92005849  0.41350937  1
  Se  Se23  1  0.70675469  0.49345088  0.41350937  1
  Se  Se24  1  0.12500000  0.15366553  0.75000000  1
  Se  Se25  1  0.62500000  0.59633447  0.75000000  1
  Se  Se26  1  0.62500000  0.15366553  0.75000000  1
  Se  Se27  1  0.12500000  0.59633447  0.75000000  1
  Se  Se28  1  0.84633447  0.87500000  0.25000000  1
  Se  Se29  1  0.40366553  0.37500000  0.25000000  1
  Se  Se30  1  0.84633447  0.37500000  0.25000000  1
  Se  Se31  1  0.40366553  0.87500000  0.25000000  1
loop_
_geom_bond_atom_site_label_1
_geom_bond_atom_site_label_2
_geom_bond_distance
_geom_bond_site_symmetry_2
Ce0 Se1 2.705071 1_555
Ce0 Se11 2.705139 1_555
Ce0 Se25 2.715052 1_555
Ce0 Se19 2.725180 1_555
Ce1 Se0 2.705071 1_545
Ce1 Se10 2.705140 1_555
Ce1 Se24 2.715052 1_555
Ce1 Se18 2.725180 1_555
Ce2 Se3 2.705071 1_556
Ce2 Se9 2.705140 1_455
Ce2 Se27 2.715052 1_555
Ce2 Se17 2.725180 1_555
Ce3 Se2 2.705071 1_556
Ce3 Se8 2.705139 1_555
Ce3 Se26 2.715052 1_555
Ce3 Se16 2.725180 1_555
Ce4 Se5 2.705071 1_555
Ce4 Se11 2.705140 1_555
Ce4 Se27 2.715052 1_555
Ce4 Se18 2.725180 1_555
Ce5 Se4 2.705071 1_545
Ce5 Se10 2.705139 1_555
Ce5 Se26 2.715052 1_555
Ce5 Se19 2.725180 1_555
Ce6 Se7 2.705071 1_556
Ce6 Se9 2.705139 1_555
Ce6 Se25 2.715052 1_555
Ce6 Se16 2.725180 1_555
Ce7 Se6 2.705071 1_556
Ce7 Se8 2.705140 1_455
Ce7 Se24 2.715052 1_555
Ce7 Se17 2.725180 1_555
Ce8 Se1 2.705071 1_555
Ce8 Se15 2.705139 1_555
Ce8 Se29 2.715052 1_555
Ce8 Se23 2.725180 1_555
Ce9 Se0 2.705071 1_655
Ce9 Se14 2.705140 1_555
Ce9 Se28 2.715052 1_555
Ce9 Se22 2.725180 1_555
Ce10 Se3 2.705071 1_555
Ce10 Se13 2.705140 1_565
Ce10 Se31 2.715052 1_555
Ce10 Se21 2.725180 1_555
Ce11 Se2 2.705071 1_555
Ce11 Se12 2.705139 1_555
Ce11 Se30 2.715052 1_555
Ce11 Se20 2.725180 1_555
Ce12 Se5 2.705071 1_655
Ce12 Se14 2.705139 1_555
Ce12 Se30 2.715052 1_555
Ce12 Se23 2.725180 1_555
Ce13 Se4 2.705071 1_555
Ce13 Se15 2.705140 1_555
Ce13 Se31 2.715052 1_555
Ce13 Se22 2.725180 1_555
Ce14 Se7 2.705071 1_555
Ce14 Se12 2.705140 1_565
Ce14 Se28 2.715052 1_555
Ce14 Se21 2.725180 1_555
Ce15 Se6 2.705071 1_555
Ce15 Se13 2.705139 1_555
Ce15 Se29 2.715052 1_555
Ce15 Se20 2.725180 1_555
