# generated using pymatgen
data_Al(Ag3Se2)3
_symmetry_space_group_name_H-M   'P 1'
_cell_length_a   11.17688453
_cell_length_b   11.17735705
_cell_length_c   11.17618444
_cell_angle_alpha   90.00621694
_cell_angle_beta   90.00217095
_cell_angle_gamma   90.00177959
_symmetry_Int_Tables_number   1
_chemical_formula_structural   Al(Ag3Se2)3
_chemical_formula_sum   'Al4 Ag36 Se24'
_cell_volume   1396.21868499
_cell_formula_units_Z   4
loop_
 _symmetry_equiv_pos_site_id
 _symmetry_equiv_pos_as_xyz
  1  'x, y, z'
loop_
 _atom_site_type_symbol
 _atom_site_label
 _atom_site_symmetry_multiplicity
 _atom_site_fract_x
 _atom_site_fract_y
 _atom_site_fract_z
 _atom_site_occupancy
  Al  Al0  1  0.50874411  0.50881670  0.50878291  1
  Al  Al1  1  0.99141013  0.49128007  0.00869437  1
  Al  Al2  1  0.49138765  0.00865354  0.99141278  1
  Al  Al3  1  0.00863863  0.99134491  0.49120867  1
  Ag  Ag0  1  0.13320754  0.33090308  0.46076647  1
  Ag  Ag1  1  0.36684043  0.66913601  0.96077536  1
  Ag  Ag2  1  0.86674731  0.83090273  0.03927553  1
  Ag  Ag3  1  0.46070335  0.13308993  0.33089119  1
  Ag  Ag4  1  0.63312681  0.16908590  0.53923021  1
  Ag  Ag5  1  0.96074771  0.36682683  0.66906122  1
  Ag  Ag6  1  0.03927111  0.86674631  0.83091303  1
  Ag  Ag7  1  0.53921241  0.63324207  0.16914240  1
  Ag  Ag8  1  0.33089470  0.46070165  0.13323576  1
  Ag  Ag9  1  0.83089197  0.03927443  0.86678678  1
  Ag  Ag10  1  0.16907507  0.53927590  0.63315453  1
  Ag  Ag11  1  0.66907948  0.96073982  0.36685245  1
  Ag  Ag12  1  0.17646151  0.57066629  0.36671212  1
  Ag  Ag13  1  0.32355462  0.42931808  0.86669021  1
  Ag  Ag14  1  0.82351628  0.07066298  0.13323127  1
  Ag  Ag15  1  0.36672611  0.17646084  0.57063181  1
  Ag  Ag16  1  0.67646183  0.92931953  0.63330280  1
  Ag  Ag17  1  0.86676657  0.32355207  0.42932848  1
  Ag  Ag18  1  0.13323889  0.82357553  0.07076623  1
  Ag  Ag19  1  0.63328803  0.67649596  0.92936015  1
  Ag  Ag20  1  0.57062383  0.36678901  0.17649483  1
  Ag  Ag21  1  0.07070255  0.13321474  0.82354960  1
  Ag  Ag22  1  0.92936061  0.63330606  0.67641450  1
  Ag  Ag23  1  0.42931754  0.86667860  0.32350652  1
  Ag  Ag24  1  0.03178996  0.22749539  0.23205152  1
  Ag  Ag25  1  0.46819074  0.77255875  0.73205360  1
  Ag  Ag26  1  0.96812913  0.72739368  0.26790634  1
  Ag  Ag27  1  0.23202469  0.03172908  0.22756601  1
  Ag  Ag28  1  0.53176413  0.27246440  0.76796069  1
  Ag  Ag29  1  0.73202135  0.46817113  0.77247051  1
  Ag  Ag30  1  0.26791411  0.96808830  0.72738524  1
  Ag  Ag31  1  0.76788338  0.53191544  0.27263957  1
  Ag  Ag32  1  0.22757264  0.23196054  0.03178318  1
  Ag  Ag33  1  0.72753144  0.26797949  0.96819390  1
  Ag  Ag34  1  0.27250494  0.76794277  0.53176047  1
  Ag  Ag35  1  0.77251336  0.73210987  0.46814927  1
  Se  Se0  1  0.63059471  0.63072641  0.63058744  1
  Se  Se1  1  0.86951457  0.36961717  0.13053400  1
  Se  Se2  1  0.36955097  0.13032166  0.86952711  1
  Se  Se3  1  0.13038294  0.86943935  0.36946684  1
  Se  Se4  1  0.26432120  0.26414298  0.26433705  1
  Se  Se5  1  0.23580054  0.73556767  0.76427186  1
  Se  Se6  1  0.73561295  0.76440261  0.23574202  1
  Se  Se7  1  0.76422714  0.23566215  0.73562435  1
  Se  Se8  1  0.02444078  0.02440475  0.02447266  1
  Se  Se9  1  0.47553541  0.97557163  0.52437442  1
  Se  Se10  1  0.97552757  0.52450609  0.47538827  1
  Se  Se11  1  0.52443205  0.47557763  0.97553077  1
  Se  Se12  1  0.12652937  0.13281259  0.59858104  1
  Se  Se13  1  0.37341940  0.86715735  0.09863120  1
  Se  Se14  1  0.87349269  0.63280214  0.90138754  1
  Se  Se15  1  0.59867080  0.12660632  0.13287544  1
  Se  Se16  1  0.62652435  0.36719451  0.40143680  1
  Se  Se17  1  0.09863392  0.37342344  0.86717144  1
  Se  Se18  1  0.90142429  0.87351021  0.63279786  1
  Se  Se19  1  0.40139219  0.62655788  0.36720771  1
  Se  Se20  1  0.13289058  0.59866873  0.12652442  1
  Se  Se21  1  0.63290786  0.90140114  0.87345546  1
  Se  Se22  1  0.36718363  0.40139449  0.62653571  1
  Se  Se23  1  0.86715641  0.09866068  0.37344408  1
loop_
_geom_bond_atom_site_label_1
_geom_bond_atom_site_label_2
_geom_bond_distance
_geom_bond_site_symmetry_2
Al0 Se0 2.358826 1_555
Al0 Se19 2.382352 1_555
Al0 Se22 2.382720 1_555
Al0 Se16 2.382831 1_555
Al1 Se1 2.357981 1_555
Al1 Se17 2.381827 1_654
Al1 Se20 2.382204 1_655
Al1 Se14 2.382837 1_554
Al2 Se2 2.357921 1_555
Al2 Se15 2.382206 1_556
Al2 Se13 2.382458 1_546
Al2 Se21 2.382635 1_545
Al3 Se3 2.357818 1_555
Al3 Se23 2.381596 1_465
Al3 Se18 2.382278 1_455
Al3 Se12 2.382410 1_565
Ag0 Se12 2.698336 1_555
Ag0 Se4 2.742950 1_555
Ag0 Se10 2.795640 1_455
Ag1 Se13 2.697657 1_556
Ag1 Se5 2.742216 1_555
Ag1 Se11 2.794739 1_555
Ag2 Se14 2.698647 1_554
Ag2 Se6 2.742721 1_555
Ag2 Se8 2.794924 1_665
Ag3 Se15 2.698338 1_555
Ag3 Se4 2.741727 1_555
Ag3 Se9 2.793589 1_545
Ag4 Se16 2.698344 1_555
Ag4 Se7 2.741883 1_555
Ag4 Se9 2.794310 1_545
Ag5 Se17 2.698621 1_655
Ag5 Se7 2.743631 1_555
Ag5 Se10 2.796333 1_555
Ag6 Se18 2.698482 1_455
Ag6 Se5 2.744017 1_555
Ag6 Se8 2.794950 1_566
Ag7 Se19 2.697924 1_555
Ag7 Se6 2.742512 1_555
Ag7 Se11 2.795393 1_554
Ag8 Se20 2.698448 1_555
Ag8 Se4 2.743725 1_555
Ag8 Se11 2.795303 1_554
Ag9 Se21 2.697578 1_545
Ag9 Se7 2.742844 1_555
Ag9 Se8 2.795168 1_656
Ag10 Se22 2.698825 1_555
Ag10 Se5 2.741609 1_555
Ag10 Se10 2.795626 1_455
Ag11 Se23 2.698696 1_565
Ag11 Se6 2.741459 1_555
Ag11 Se9 2.794028 1_555
Ag12 Se19 2.590468 1_555
Ag12 Se10 2.604876 1_455
Ag12 Se20 2.746110 1_555
Ag13 Se17 2.590368 1_555
Ag13 Se11 2.605277 1_555
Ag13 Se22 2.745732 1_555
Ag14 Se15 2.589719 1_555
Ag14 Se8 2.605407 1_655
Ag14 Se23 2.746446 1_555
Ag15 Se22 2.590573 1_555
Ag15 Se9 2.605402 1_545
Ag15 Se12 2.746445 1_555
Ag16 Se18 2.590629 1_555
Ag16 Se9 2.606271 1_555
Ag16 Se21 2.745619 1_555
Ag17 Se23 2.590061 1_555
Ag17 Se10 2.605254 1_555
Ag17 Se16 2.746864 1_555
Ag18 Se20 2.590019 1_555
Ag18 Se8 2.604925 1_565
Ag18 Se13 2.745994 1_555
Ag19 Se21 2.590397 1_555
Ag19 Se11 2.605766 1_555
Ag19 Se14 2.746669 1_555
Ag20 Se16 2.590449 1_555
Ag20 Se11 2.605808 1_554
Ag20 Se15 2.746420 1_555
Ag21 Se12 2.590585 1_555
Ag21 Se8 2.605699 1_556
Ag21 Se17 2.746538 1_555
Ag22 Se14 2.590747 1_555
Ag22 Se10 2.606218 1_555
Ag22 Se18 2.746607 1_555
Ag23 Se13 2.589722 1_555
Ag23 Se9 2.605242 1_555
Ag23 Se19 2.745835 1_555
Ag24 Se4 2.655652 1_555
Ag24 Se1 2.664731 1_455
Ag24 Se23 2.820868 1_455
Ag24 Se8 3.246640 1_555
Ag25 Se5 2.654642 1_555
Ag25 Se0 2.663450 1_555
Ag25 Se21 2.821326 1_555
Ag25 Se9 3.247189 1_555
Ag26 Se6 2.655967 1_555
Ag26 Se3 2.664050 1_655
Ag26 Se20 2.820992 1_655
Ag26 Se10 3.244649 1_555
Ag27 Se4 2.654678 1_555
Ag27 Se3 2.663985 1_545
Ag27 Se13 2.820895 1_545
Ag27 Se8 3.246743 1_555
Ag28 Se7 2.655302 1_555
Ag28 Se2 2.664621 1_555
Ag28 Se22 2.821209 1_555
Ag28 Se11 3.246750 1_555
Ag29 Se7 2.655736 1_555
Ag29 Se0 2.664862 1_555
Ag29 Se14 2.821580 1_555
Ag29 Se11 3.246677 1_555
Ag30 Se5 2.655860 1_555
Ag30 Se2 2.664851 1_565
Ag30 Se12 2.821342 1_565
Ag30 Se9 3.246577 1_555
Ag31 Se6 2.655768 1_555
Ag31 Se1 2.665176 1_555
Ag31 Se16 2.821114 1_555
Ag31 Se10 3.244573 1_555
Ag32 Se4 2.655738 1_555
Ag32 Se2 2.664040 1_554
Ag32 Se17 2.821734 1_554
Ag32 Se8 3.246995 1_555
Ag33 Se7 2.656056 1_555
Ag33 Se1 2.664582 1_556
Ag33 Se15 2.821256 1_556
Ag33 Se11 3.247192 1_555
Ag34 Se5 2.655596 1_555
Ag34 Se3 2.664691 1_555
Ag34 Se19 2.820369 1_555
Ag34 Se9 3.246825 1_555
Ag35 Se6 2.654645 1_555
Ag35 Se0 2.663939 1_555
Ag35 Se18 2.821178 1_555
Ag35 Se10 3.246553 1_555
