# generated using pymatgen
data_Ba2Sb3
_symmetry_space_group_name_H-M   'P 1'
_cell_length_a   7.03860847
_cell_length_b   13.67534011
_cell_length_c   16.06068368
_cell_angle_alpha   90.00000000
_cell_angle_beta   90.26012991
_cell_angle_gamma   90.00000000
_symmetry_Int_Tables_number   1
_chemical_formula_structural   Ba2Sb3
_chemical_formula_sum   'Ba16 Sb24'
_cell_volume   1545.91103269
_cell_formula_units_Z   8
loop_
 _symmetry_equiv_pos_site_id
 _symmetry_equiv_pos_as_xyz
  1  'x, y, z'
loop_
 _atom_site_type_symbol
 _atom_site_label
 _atom_site_symmetry_multiplicity
 _atom_site_fract_x
 _atom_site_fract_y
 _atom_site_fract_z
 _atom_site_occupancy
  Ba  Ba0  1  0.52715195  0.47626366  0.25464243  1
  Ba  Ba1  1  0.47284805  0.97626366  0.24535757  1
  Ba  Ba2  1  0.47284805  0.52373634  0.74535757  1
  Ba  Ba3  1  0.52715195  0.02373634  0.75464243  1
  Ba  Ba4  1  0.02482439  0.22733657  0.73887599  1
  Ba  Ba5  1  0.97517561  0.72733657  0.76112401  1
  Ba  Ba6  1  0.97517561  0.77266343  0.26112401  1
  Ba  Ba7  1  0.02482439  0.27266343  0.23887599  1
  Ba  Ba8  1  0.25268967  0.12584049  0.49157387  1
  Ba  Ba9  1  0.74731033  0.62584049  0.00842613  1
  Ba  Ba10  1  0.74731033  0.87415951  0.50842613  1
  Ba  Ba11  1  0.25268967  0.37415951  0.99157387  1
  Ba  Ba12  1  0.75347080  0.37691594  0.49342829  1
  Ba  Ba13  1  0.24652920  0.87691594  0.00657171  1
  Ba  Ba14  1  0.24652920  0.62308406  0.50657171  1
  Ba  Ba15  1  0.75347080  0.12308306  0.99342829  1
  Sb  Sb0  1  0.24188928  0.38486527  0.41816670  1
  Sb  Sb1  1  0.75811072  0.88486527  0.08183330  1
  Sb  Sb2  1  0.75811072  0.61513473  0.58183330  1
  Sb  Sb3  1  0.24188928  0.11513473  0.91816670  1
  Sb  Sb4  1  0.00005113  0.01961835  0.16988275  1
  Sb  Sb5  1  -0.00005113  0.51961835  0.33011725  1
  Sb  Sb6  1  -0.00005113  0.98038165  0.83011725  1
  Sb  Sb7  1  0.00005113  0.48038165  0.66988275  1
  Sb  Sb8  1  0.89637417  0.45048443  0.84186014  1
  Sb  Sb9  1  0.10362583  0.95048443  0.65813986  1
  Sb  Sb10  1  0.10362583  0.54951557  0.15813986  1
  Sb  Sb11  1  0.89637417  0.04951557  0.34186014  1
  Sb  Sb12  1  0.59114353  0.20608351  0.33437132  1
  Sb  Sb13  1  0.40885647  0.70608351  0.16562868  1
  Sb  Sb14  1  0.40885647  0.79391649  0.66562868  1
  Sb  Sb15  1  0.59114353  0.29391649  0.83437132  1
  Sb  Sb16  1  0.74068639  0.36592374  0.07222167  1
  Sb  Sb17  1  0.25931361  0.86592374  0.42777833  1
  Sb  Sb18  1  0.25931361  0.63407626  0.92777833  1
  Sb  Sb19  1  0.74068639  0.13407626  0.57222167  1
  Sb  Sb20  1  0.49527441  0.23091234  0.16029822  1
  Sb  Sb21  1  0.50472559  0.73091234  0.33970178  1
  Sb  Sb22  1  0.50472559  0.76908766  0.83970178  1
  Sb  Sb23  1  0.49527441  0.26908766  0.66029822  1
loop_
_geom_bond_atom_site_label_1
_geom_bond_atom_site_label_2
_geom_bond_distance
_geom_bond_site_symmetry_2
Ba0 Sb10 3.500041 1_555
Ba0 Sb0 3.541063 1_555
Ba0 Sb13 3.550196 1_555
Ba0 Sb5 3.585907 1_655
Ba0 Sb16 3.627613 1_555
Ba0 Sb20 3.687950 1_555
Ba0 Sb21 3.744369 1_555
Ba0 Sb12 3.935594 1_555
Ba0 Sb5 3.953681 1_555
Ba1 Sb11 3.500041 1_565
Ba1 Sb1 3.541063 1_555
Ba1 Sb12 3.550196 1_565
Ba1 Sb4 3.585907 1_565
Ba1 Sb17 3.627613 1_555
Ba1 Sb21 3.687950 1_555
Ba1 Sb20 3.744369 1_565
Ba1 Sb13 3.935594 1_555
Ba1 Sb4 3.953681 1_665
Ba2 Sb8 3.500041 1_555
Ba2 Sb2 3.541063 1_555
Ba2 Sb15 3.550196 1_555
Ba2 Sb7 3.585907 1_555
Ba2 Sb18 3.627613 1_555
Ba2 Sb22 3.687950 1_555
Ba2 Sb23 3.744369 1_555
Ba2 Sb14 3.935594 1_555
Ba2 Sb7 3.953681 1_655
Ba3 Sb9 3.500041 1_545
Ba3 Sb3 3.541063 1_555
Ba3 Sb14 3.550196 1_545
Ba3 Sb6 3.585907 1_645
Ba3 Sb19 3.627613 1_555
Ba3 Sb23 3.687950 1_555
Ba3 Sb22 3.744369 1_545
Ba3 Sb15 3.935594 1_555
Ba3 Sb6 3.953681 1_545
Ba4 Sb15 3.541418 1_455
Ba4 Sb19 3.569564 1_455
Ba4 Sb8 3.588746 1_455
Ba4 Sb23 3.594637 1_555
Ba4 Sb3 3.597278 1_555
Ba4 Sb7 3.637498 1_555
Ba4 Sb6 3.685893 1_545
Ba4 Sb23 3.970981 1_455
Ba4 Sb9 4.041002 1_545
Ba5 Sb14 3.541418 1_655
Ba5 Sb18 3.569564 1_655
Ba5 Sb9 3.588746 1_655
Ba5 Sb22 3.594637 1_555
Ba5 Sb2 3.597278 1_555
Ba5 Sb6 3.637498 1_655
Ba5 Sb7 3.685893 1_655
Ba5 Sb22 3.970981 1_655
Ba5 Sb8 4.041002 1_555
Ba6 Sb13 3.541418 1_655
Ba6 Sb17 3.569564 1_655
Ba6 Sb10 3.588746 1_655
Ba6 Sb21 3.594637 1_555
Ba6 Sb1 3.597278 1_555
Ba6 Sb5 3.637498 1_655
Ba6 Sb4 3.685893 1_665
Ba6 Sb21 3.970981 1_655
Ba6 Sb11 4.041002 1_565
Ba7 Sb12 3.541418 1_455
Ba7 Sb16 3.569564 1_455
Ba7 Sb11 3.588746 1_455
Ba7 Sb20 3.594637 1_555
Ba7 Sb0 3.597278 1_555
Ba7 Sb4 3.637498 1_555
Ba7 Sb5 3.685893 1_555
Ba7 Sb20 3.970981 1_455
Ba7 Sb10 4.041002 1_555
Ba8 Sb11 3.620253 1_455
Ba8 Sb12 3.648067 1_555
Ba8 Sb19 3.667146 1_555
Ba8 Sb17 3.699531 1_545
Ba8 Sb0 3.733963 1_555
Ba8 Sb9 3.746128 1_545
Ba8 Sb23 3.748876 1_555
Ba8 Sb19 3.836675 1_455
Ba9 Sb10 3.620253 1_655
Ba9 Sb13 3.648067 1_555
Ba9 Sb18 3.667146 1_554
Ba9 Sb16 3.699531 1_555
Ba9 Sb1 3.733963 1_555
Ba9 Sb8 3.746128 1_554
Ba9 Sb22 3.748876 1_554
Ba9 Sb18 3.836675 1_654
Ba10 Sb9 3.620253 1_655
Ba10 Sb14 3.648067 1_555
Ba10 Sb17 3.667146 1_555
Ba10 Sb19 3.699531 1_565
Ba10 Sb2 3.733963 1_555
Ba10 Sb11 3.746128 1_565
Ba10 Sb21 3.748876 1_555
Ba10 Sb17 3.836675 1_655
Ba11 Sb8 3.620253 1_455
Ba11 Sb15 3.648067 1_555
Ba11 Sb16 3.667146 1_556
Ba11 Sb18 3.699531 1_555
Ba11 Sb3 3.733963 1_555
Ba11 Sb10 3.746128 1_556
Ba11 Sb20 3.748876 1_556
Ba11 Sb16 3.836675 1_456
Ba12 Sb2 3.553782 1_555
Ba12 Sb19 3.555142 1_555
Ba12 Sb23 3.564269 1_555
Ba12 Sb7 3.605696 1_655
Ba12 Sb12 3.641775 1_555
Ba12 Sb0 3.650891 1_655
Ba12 Sb5 3.706612 1_655
Ba12 Sb0 3.794641 1_555
Ba13 Sb3 3.553782 1_564
Ba13 Sb18 3.555142 1_554
Ba13 Sb22 3.564269 1_554
Ba13 Sb6 3.605696 1_554
Ba13 Sb13 3.641775 1_555
Ba13 Sb1 3.650891 1_455
Ba13 Sb4 3.706612 1_565
Ba13 Sb1 3.794641 1_555
Ba14 Sb0 3.553782 1_555
Ba14 Sb17 3.555142 1_555
Ba14 Sb21 3.564269 1_555
Ba14 Sb5 3.605696 1_555
Ba14 Sb14 3.641775 1_555
Ba14 Sb2 3.650891 1_455
Ba14 Sb7 3.706612 1_555
Ba14 Sb2 3.794641 1_555
Ba15 Sb1 3.553769 1_546
Ba15 Sb16 3.555155 1_556
Ba15 Sb20 3.564275 1_556
Ba15 Sb4 3.605691 1_656
Ba15 Sb15 3.641783 1_555
Ba15 Sb3 3.650891 1_655
Ba15 Sb6 3.706605 1_645
Ba15 Sb3 3.794640 1_555
Sb0 Sb5 2.876413 1_555
Sb1 Sb4 2.876413 1_665
Sb2 Sb7 2.876413 1_655
Sb3 Sb6 2.876413 1_545
Sb6 Sb9 2.889125 1_555
Sb7 Sb8 2.889125 1_455
Sb10 Sb5 2.889125 1_555
Sb10 Sb13 3.035149 1_555
Sb11 Sb4 2.889125 1_655
Sb11 Sb12 3.035149 1_555
Sb12 Sb20 2.893029 1_555
Sb13 Sb21 2.893029 1_555
Sb14 Sb22 2.893029 1_555
Sb14 Sb9 3.035149 1_555
Sb15 Sb23 2.893029 1_555
Sb15 Sb8 3.035149 1_555
Sb16 Sb20 2.901015 1_555
Sb17 Sb21 2.901015 1_555
Sb18 Sb22 2.901015 1_555
Sb19 Sb23 2.901015 1_555
