# generated using pymatgen
data_GdCuGe
_symmetry_space_group_name_H-M   'P 1'
_cell_length_a   4.23144599
_cell_length_b   4.23145873
_cell_length_c   7.52011734
_cell_angle_alpha   90.00001162
_cell_angle_beta   89.99979846
_cell_angle_gamma   120.00085495
_symmetry_Int_Tables_number   1
_chemical_formula_structural   GdCuGe
_chemical_formula_sum   'Gd2 Cu2 Ge2'
_cell_volume   116.60855644
_cell_formula_units_Z   2
loop_
 _symmetry_equiv_pos_site_id
 _symmetry_equiv_pos_as_xyz
  1  'x, y, z'
loop_
 _atom_site_type_symbol
 _atom_site_label
 _atom_site_symmetry_multiplicity
 _atom_site_fract_x
 _atom_site_fract_y
 _atom_site_fract_z
 _atom_site_occupancy
  Gd  Gd0  1  0.00000529  0.99999468  0.49799692  1
  Gd  Gd1  1  0.99999484  0.00000541  0.99799696  1
  Cu  Cu0  1  0.33333098  0.66666763  0.23151112  1
  Cu  Cu1  1  0.66667085  0.33333265  0.73152804  1
  Ge  Ge0  1  0.66666881  0.33333377  0.26237772  1
  Ge  Ge1  1  0.33333023  0.66666585  0.76239224  1
loop_
_geom_bond_atom_site_label_1
_geom_bond_atom_site_label_2
_geom_bond_distance
_geom_bond_site_symmetry_2
Gd0 Ge0 3.017906 1_565
Gd0 Ge0 3.017913 1_455
Gd0 Ge0 3.017979 1_465
Gd0 Ge1 3.149843 1_555
Gd0 Ge1 3.149867 1_455
Gd0 Ge1 3.149870 1_565
Gd1 Ge1 3.017842 1_655
Gd1 Ge1 3.017857 1_545
Gd1 Ge1 3.017907 1_645
Gd1 Ge0 3.149769 1_556
Gd1 Ge0 3.149797 1_546
Gd1 Ge0 3.149807 1_656
Cu0 Ge0 2.453991 1_455
Cu0 Ge0 2.454014 1_565
Cu0 Ge0 2.454062 1_555
Cu0 Gd1 3.008640 1_564
Cu0 Gd1 3.008650 1_454
Cu0 Gd1 3.008708 1_464
Cu0 Gd0 3.159780 1_555
Cu0 Gd0 3.159817 1_545
Cu0 Gd0 3.159824 1_655
Cu1 Ge1 2.453981 1_655
Cu1 Ge1 2.454014 1_545
Cu1 Ge1 2.454067 1_555
Cu1 Gd0 3.008718 1_655
Cu1 Gd0 3.008731 1_545
Cu1 Gd0 3.008771 1_645
Cu1 Gd1 3.159702 1_555
Cu1 Gd1 3.159736 1_455
Cu1 Gd1 3.159741 1_565
