# generated using pymatgen
data_Zn(MoO2)2
_symmetry_space_group_name_H-M   'P 1'
_cell_length_a   6.31295200
_cell_length_b   6.45084649
_cell_length_c   15.30652113
_cell_angle_alpha   92.38965252
_cell_angle_beta   89.51233402
_cell_angle_gamma   119.29642446
_symmetry_Int_Tables_number   1
_chemical_formula_structural   Zn(MoO2)2
_chemical_formula_sum   'Zn6 Mo12 O24'
_cell_volume   543.09224084
_cell_formula_units_Z   6
loop_
 _symmetry_equiv_pos_site_id
 _symmetry_equiv_pos_as_xyz
  1  'x, y, z'
loop_
 _atom_site_type_symbol
 _atom_site_label
 _atom_site_symmetry_multiplicity
 _atom_site_fract_x
 _atom_site_fract_y
 _atom_site_fract_z
 _atom_site_occupancy
  Zn  Zn0  1  0.16966400  0.66509400  0.95441800  1
  Zn  Zn1  1  0.49194200  0.00978200  0.61995000  1
  Zn  Zn2  1  0.83303600  0.33380300  0.66416200  1
  Zn  Zn3  1  0.83479900  0.32802600  0.29154100  1
  Zn  Zn4  1  0.50499300  0.99256400  0.99615400  1
  Zn  Zn5  1  0.49479900  0.00308300  0.37802300  1
  Mo  Mo0  1  0.66873700  0.67073800  0.83212100  1
  Mo  Mo1  1  0.66870300  0.16427700  0.83482500  1
  Mo  Mo2  1  0.98684600  0.01576800  0.50060900  1
  Mo  Mo3  1  0.17180900  0.16621900  0.83369500  1
  Mo  Mo4  1  0.98794200  0.50838100  0.50223200  1
  Mo  Mo5  1  0.16540500  0.66368300  0.33383700  1
  Mo  Mo6  1  0.17450500  0.67127300  0.71249300  1
  Mo  Mo7  1  0.34195600  0.32030400  0.16531700  1
  Mo  Mo8  1  0.49297800  0.50845900  0.50210500  1
  Mo  Mo9  1  0.34071800  0.82289600  0.16643000  1
  Mo  Mo10  1  0.83933800  0.82355600  0.16597200  1
  Mo  Mo11  1  0.84143300  0.32863300  0.04449000  1
  O  O0  1  0.34629800  0.30750200  0.91881300  1
  O  O1  1  0.50729400  0.99291500  0.75731100  1
  O  O2  1  0.33559400  0.84910300  0.91118600  1
  O  O3  1  0.81987600  0.84685500  0.91163400  1
  O  O4  1  0.66477000  0.65482200  0.58563200  1
  O  O5  1  0.52464600  0.47243100  0.75879800  1
  O  O6  1  0.82893900  0.33486600  0.42476300  1
  O  O7  1  0.01091400  0.47606800  0.75679800  1
  O  O8  1  0.82328800  0.35593100  0.90792400  1
  O  O9  1  0.65621700  0.19621800  0.57989400  1
  O  O10  1  0.14052700  0.19238900  0.57865500  1
  O  O11  1  0.98451900  0.03619100  0.74587500  1
  O  O12  1  0.01457900  0.96977400  0.24984100  1
  O  O13  1  0.84604000  0.82297300  0.42071600  1
  O  O14  1  0.32261200  0.82225700  0.42026500  1
  O  O15  1  0.18040500  0.64555100  0.08991400  1
  O  O16  1  0.14299600  0.69843900  0.57540100  1
  O  O17  1  0.00787100  0.50512300  0.24459900  1
  O  O18  1  0.48638100  0.50498200  0.24494400  1
  O  O19  1  0.31591700  0.36058300  0.41742400  1
  O  O20  1  0.19295100  0.13104700  0.09093300  1
  O  O21  1  0.68243700  0.13236300  0.09027500  1
  O  O22  1  0.49940400  0.00129000  0.24222400  1
  O  O23  1  0.65592100  0.69379400  0.07780900  1
loop_
_geom_bond_atom_site_label_1
_geom_bond_atom_site_label_2
_geom_bond_distance
_geom_bond_site_symmetry_2
Mo0 O5 1.575550 1_555
Mo0 O3 1.589327 1_555
Mo1 O8 1.566924 1_555
Mo1 O1 1.573796 1_545
Mo2 O10 1.578265 1_655
Mo2 O13 1.625457 1_545
Mo3 O0 1.638407 1_555
Mo3 O11 1.694374 1_455
Mo4 O16 1.563743 1_655
Mo4 O6 1.573701 1_555
Mo5 O14 1.642376 1_555
Mo5 O17 1.676933 1_555
Mo6 O7 1.377937 1_555
Mo6 O16 2.132007 1_555
Mo6 O1 2.197544 1_555
Mo7 O20 1.565275 1_555
Mo7 O18 1.603396 1_555
Mo8 O4 1.619579 1_555
Mo8 O19 1.648483 1_555
Mo9 O22 1.566534 1_565
Mo9 O15 1.574826 1_555
Mo10 O12 1.632035 1_655
Mo10 O23 1.687109 1_555
Mo11 O21 1.385623 1_555
Mo11 O8 2.113814 1_554
Mo11 O15 2.206248 1_655
O1 Zn1 2.115345 1_565
O2 Zn0 1.334541 1_555
O2 Zn4 1.626746 1_555
O6 Zn3 2.038215 1_555
O6 Zn5 2.240955 1_555
O7 Zn2 1.738904 1_455
O8 Zn0 2.214867 1_655
O9 Zn1 1.314484 1_555
O9 Zn2 1.630008 1_555
O14 Zn5 1.330544 1_565
O15 Zn0 2.086724 1_554
O16 Zn1 2.221014 1_565
O17 Zn3 1.359666 1_455
O21 Zn4 1.753314 1_544
O22 Zn5 2.078195 1_555
O22 Zn3 2.241084 1_555
