# generated using pymatgen
data_Lu(Fe5Si)2
_symmetry_space_group_name_H-M   'P 1'
_cell_length_a   4.77647301
_cell_length_b   6.34427002
_cell_length_c   6.34427002
_cell_angle_alpha   98.45674607
_cell_angle_beta   112.11333152
_cell_angle_gamma   67.88666848
_symmetry_Int_Tables_number   1
_chemical_formula_structural   Lu(Fe5Si)2
_chemical_formula_sum   'Lu1 Fe10 Si2'
_cell_volume   165.00525898
_cell_formula_units_Z   1
loop_
 _symmetry_equiv_pos_site_id
 _symmetry_equiv_pos_as_xyz
  1  'x, y, z'
loop_
 _atom_site_type_symbol
 _atom_site_label
 _atom_site_symmetry_multiplicity
 _atom_site_fract_x
 _atom_site_fract_y
 _atom_site_fract_z
 _atom_site_occupancy
  Lu  Lu0  1  0.00000000  -0.00000000  0.00000000  1
  Fe  Fe0  1  0.64173809  0.35826191  0.64173809  1
  Fe  Fe1  1  0.35826191  0.64173809  0.35826191  1
  Fe  Fe2  1  0.00000000  0.35350823  0.35350823  1
  Fe  Fe3  1  0.00000000  0.64649177  0.64649177  1
  Fe  Fe4  1  0.50000000  0.79029635  0.79029635  1
  Fe  Fe5  1  0.50000000  0.20970365  0.20970365  1
  Fe  Fe6  1  0.50000000  -0.00000000  0.50000000  1
  Fe  Fe7  1  0.00000000  -0.00000000  0.50000000  1
  Fe  Fe8  1  0.50000000  0.50000000  0.00000000  1
  Fe  Fe9  1  0.00000000  0.50000000  0.00000000  1
  Si  Si0  1  0.73091780  0.76908220  0.23091780  1
  Si  Si1  1  0.26908220  0.23091780  0.76908220  1
loop_
_geom_bond_atom_site_label_1
_geom_bond_atom_site_label_2
_geom_bond_distance
_geom_bond_site_symmetry_2
Lu0 Si1 3.067714 1_554
Lu0 Si0 3.067714 1_445
Lu0 Si0 3.067714 1_545
Lu0 Si1 3.067714 1_454
Fe0 Fe1 2.363643 1_555
Fe0 Fe8 2.555796 1_556
Fe0 Fe6 2.555796 1_555
Fe0 Fe9 2.555796 1_656
Fe0 Fe7 2.555796 1_655
Fe0 Si1 2.613637 1_555
Fe0 Si1 2.613637 1_655
Fe0 Fe4 2.680094 1_555
Fe0 Fe5 2.680094 1_555
Fe0 Fe2 2.928110 1_655
Fe0 Fe3 2.928110 1_655
Fe0 Fe3 2.928110 1_555
Fe0 Fe2 2.928110 1_555
Fe0 Lu0 2.987211 1_656
Fe1 Fe6 2.555796 1_565
Fe1 Fe8 2.555796 1_555
Fe1 Fe7 2.555796 1_565
Fe1 Fe9 2.555796 1_555
Fe1 Si0 2.613637 1_555
Fe1 Si0 2.613637 1_455
Fe1 Fe4 2.680094 1_555
Fe1 Fe5 2.680094 1_555
Fe1 Fe3 2.928110 1_555
Fe1 Fe2 2.928110 1_555
Fe1 Fe3 2.928110 1_655
Fe1 Fe2 2.928110 1_655
Fe1 Lu0 2.987211 1_565
Fe2 Fe3 2.427719 1_555
Fe2 Fe9 2.550834 1_555
Fe2 Fe7 2.550834 1_555
Fe2 Fe6 2.550835 1_555
Fe2 Fe8 2.550835 1_455
Fe2 Si0 2.550942 1_455
Fe2 Si1 2.550942 1_555
Fe2 Fe5 2.669001 1_555
Fe2 Fe5 2.669001 1_455
Fe2 Lu0 2.929238 1_555
Fe3 Fe7 2.550834 1_565
Fe3 Fe9 2.550834 1_556
Fe3 Fe6 2.550835 1_465
Fe3 Fe8 2.550835 1_556
Fe3 Si0 2.550942 1_455
Fe3 Si1 2.550942 1_555
Fe3 Fe4 2.669001 1_455
Fe3 Fe4 2.669001 1_555
Fe3 Lu0 2.929238 1_566
Fe4 Fe8 2.425411 1_556
Fe4 Fe6 2.425411 1_565
Fe4 Fe9 2.425411 1_656
Fe4 Fe7 2.425411 1_565
Fe4 Si1 2.593570 1_565
Fe4 Si0 2.593570 1_556
Fe4 Lu0 2.953487 1_666
Fe4 Lu0 2.953487 1_566
Fe5 Fe6 2.425411 1_555
Fe5 Fe8 2.425411 1_555
Fe5 Fe7 2.425411 1_655
Fe5 Fe9 2.425411 1_555
Fe5 Si1 2.593570 1_554
Fe5 Si0 2.593570 1_545
Fe5 Lu0 2.953487 1_555
Fe5 Lu0 2.953487 1_655
Fe6 Fe7 2.388237 1_555
Fe6 Fe7 2.388237 1_655
Fe6 Si0 2.396362 1_545
Fe6 Si1 2.396362 1_555
Fe6 Lu0 3.172135 1_555
Fe6 Lu0 3.172135 1_656
Fe7 Si0 2.396362 1_445
Fe7 Si1 2.396362 1_555
Fe7 Lu0 3.172135 1_556
Fe7 Lu0 3.172135 1_555
Fe8 Fe9 2.388237 1_555
Fe8 Fe9 2.388237 1_655
Fe8 Si1 2.396362 1_554
Fe8 Si0 2.396362 1_555
Fe8 Lu0 3.172135 1_565
Fe8 Lu0 3.172135 1_655
Fe9 Si1 2.396362 1_554
Fe9 Si0 2.396362 1_455
Fe9 Lu0 3.172135 1_555
Fe9 Lu0 3.172135 1_565
