# generated using pymatgen
data_PrMgPd
_symmetry_space_group_name_H-M   'P 1'
_cell_length_a   7.68711486
_cell_length_b   7.68711486
_cell_length_c   4.10596838
_cell_angle_alpha   90.00000000
_cell_angle_beta   90.00000000
_cell_angle_gamma   120.00000754
_symmetry_Int_Tables_number   1
_chemical_formula_structural   PrMgPd
_chemical_formula_sum   'Pr3 Mg3 Pd3'
_cell_volume   210.12268389
_cell_formula_units_Z   3
loop_
 _symmetry_equiv_pos_site_id
 _symmetry_equiv_pos_as_xyz
  1  'x, y, z'
loop_
 _atom_site_type_symbol
 _atom_site_label
 _atom_site_symmetry_multiplicity
 _atom_site_fract_x
 _atom_site_fract_y
 _atom_site_fract_z
 _atom_site_occupancy
  Pr  Pr0  1  0.41579537  0.41579537  0.50000000  1
  Pr  Pr1  1  0.58420463  1.00000000  0.50000000  1
  Pr  Pr2  1  1.00000000  0.58420463  0.50000000  1
  Mg  Mg0  1  0.76420635  0.76420635  -0.00000000  1
  Mg  Mg1  1  0.23579365  0.00000000  0.00000000  1
  Mg  Mg2  1  0.00000000  0.23579365  0.00000000  1
  Pd  Pd0  1  0.66666700  0.33333300  -0.00000000  1
  Pd  Pd1  1  0.33333300  0.66666700  0.00000000  1
  Pd  Pd2  1  -0.00000000  0.00000000  0.50000000  1
loop_
_geom_bond_atom_site_label_1
_geom_bond_atom_site_label_2
_geom_bond_distance
_geom_bond_site_symmetry_2
Mg0 Pd2 2.738643 1_665
Mg0 Pd2 2.738643 1_664
Mg0 Pd1 3.008194 1_555
Mg0 Pd0 3.008194 1_555
Mg0 Mg1 3.139468 1_665
Mg0 Mg2 3.139468 1_665
Mg0 Pr0 3.374596 1_554
Mg0 Pr0 3.374596 1_555
Mg0 Pr2 3.452944 1_554
Mg0 Pr1 3.452944 1_555
Mg0 Pr1 3.452944 1_554
Mg0 Pr2 3.452944 1_555
Mg1 Pd2 2.738643 1_555
Mg1 Pd2 2.738643 1_554
Mg1 Pd1 3.008186 1_545
Mg1 Pd0 3.008191 1_555
Mg1 Mg2 3.139468 1_555
Mg1 Pr1 3.374597 1_545
Mg1 Pr1 3.374597 1_544
Mg1 Pr2 3.452943 1_445
Mg1 Pr2 3.452943 1_444
Mg1 Pr0 3.452943 1_554
Mg1 Pr0 3.452943 1_555
Mg2 Pd2 2.738643 1_555
Mg2 Pd2 2.738643 1_554
Mg2 Pd0 3.008186 1_455
Mg2 Pd1 3.008191 1_555
Mg2 Pr2 3.374597 1_455
Mg2 Pr2 3.374597 1_454
Mg2 Pr1 3.452943 1_445
Mg2 Pr1 3.452943 1_444
Mg2 Pr0 3.452943 1_554
Mg2 Pr0 3.452943 1_555
Pd0 Pr1 3.091606 1_545
Pd0 Pr1 3.091606 1_544
Pd0 Pr2 3.091607 1_554
Pd0 Pr2 3.091607 1_555
Pd0 Pr0 3.091611 1_555
Pd0 Pr0 3.091611 1_554
Pd1 Pr2 3.091606 1_455
Pd1 Pr2 3.091606 1_454
Pd1 Pr1 3.091607 1_554
Pd1 Pr1 3.091607 1_555
Pd1 Pr0 3.091611 1_555
Pd1 Pr0 3.091611 1_554
Pd2 Pr0 3.196266 1_555
Pd2 Pr1 3.196267 1_445
Pd2 Pr2 3.196267 1_445
