# generated using pymatgen
data_Yb(Al5Ru)2
_symmetry_space_group_name_H-M   'P 1'
_cell_length_a   6.88356781
_cell_length_b   6.88356781
_cell_length_c   9.10521600
_cell_angle_alpha   90.00000000
_cell_angle_beta   90.00000000
_cell_angle_gamma   96.84095706
_symmetry_Int_Tables_number   1
_chemical_formula_structural   Yb(Al5Ru)2
_chemical_formula_sum   'Yb2 Al20 Ru4'
_cell_volume   428.36548878
_cell_formula_units_Z   2
loop_
 _symmetry_equiv_pos_site_id
 _symmetry_equiv_pos_as_xyz
  1  'x, y, z'
loop_
 _atom_site_type_symbol
 _atom_site_label
 _atom_site_symmetry_multiplicity
 _atom_site_fract_x
 _atom_site_fract_y
 _atom_site_fract_z
 _atom_site_occupancy
  Yb  Yb0  1  0.87537400  0.12462600  0.75000000  1
  Yb  Yb1  1  0.12462600  0.87537400  0.25000000  1
  Al  Al0  1  0.41457200  0.14087500  0.75000000  1
  Al  Al1  1  0.14087500  0.41457200  0.25000000  1
  Al  Al2  1  0.58542800  0.85912500  0.25000000  1
  Al  Al3  1  0.85912500  0.58542800  0.75000000  1
  Al  Al4  1  0.52249700  0.78034900  0.75000000  1
  Al  Al5  1  0.78034900  0.52249700  0.25000000  1
  Al  Al6  1  0.47750300  0.21965100  0.25000000  1
  Al  Al7  1  0.21965100  0.47750300  0.75000000  1
  Al  Al8  1  0.84419200  0.15580800  0.40074100  1
  Al  Al9  1  0.15580800  0.84419200  0.59925900  1
  Al  Al10  1  0.84419200  0.15580800  0.09925900  1
  Al  Al11  1  0.15580800  0.84419200  0.90074100  1
  Al  Al12  1  0.62428800  0.37571200  0.54625400  1
  Al  Al13  1  0.37571200  0.62428800  0.45374600  1
  Al  Al14  1  0.62428800  0.37571200  0.95374600  1
  Al  Al15  1  0.37571200  0.62428800  0.04625400  1
  Al  Al16  1  0.77460500  0.77460500  0.00000000  1
  Al  Al17  1  0.77460500  0.77460500  0.50000000  1
  Al  Al18  1  0.22539500  0.22539500  0.00000000  1
  Al  Al19  1  0.22539500  0.22539500  0.50000000  1
  Ru  Ru0  1  0.50000000  0.00000000  0.00000000  1
  Ru  Ru1  1  0.00000000  0.50000000  0.00000000  1
  Ru  Ru2  1  0.50000000  0.00000000  0.50000000  1
  Ru  Ru3  1  0.00000000  0.50000000  0.50000000  1
loop_
_geom_bond_atom_site_label_1
_geom_bond_atom_site_label_2
_geom_bond_distance
_geom_bond_site_symmetry_2
Al0 Ru2 2.569742 1_555
Al0 Ru0 2.569742 1_556
Al0 Al4 2.673947 1_545
Al0 Al7 2.812543 1_555
Al0 Yb0 3.187220 1_555
Al1 Ru3 2.569742 1_555
Al1 Ru1 2.569742 1_555
Al1 Al5 2.673947 1_455
Al1 Al6 2.812543 1_555
Al1 Yb1 3.187220 1_555
Al2 Ru0 2.569742 1_565
Al2 Ru2 2.569742 1_565
Al2 Al6 2.673947 1_565
Al2 Al5 2.812543 1_555
Al2 Yb1 3.187220 1_555
Al3 Ru1 2.569742 1_656
Al3 Ru3 2.569742 1_655
Al3 Al7 2.673947 1_655
Al3 Al4 2.812543 1_555
Al3 Yb0 3.187220 1_555
Al4 Ru0 2.747255 1_566
Al4 Ru2 2.747255 1_565
Al4 Al7 2.767008 1_555
Al4 Al9 2.951686 1_555
Al4 Yb0 3.185145 1_565
Al5 Ru1 2.747255 1_655
Al5 Ru3 2.747255 1_655
Al5 Al6 2.767008 1_555
Al5 Al8 2.951686 1_555
Al5 Yb1 3.185145 1_655
Al6 Ru0 2.747255 1_555
Al6 Ru2 2.747255 1_555
Al6 Al8 2.951686 1_555
Al6 Yb1 3.185145 1_545
Al7 Ru3 2.747255 1_555
Al7 Ru1 2.747255 1_556
Al7 Al9 2.951686 1_555
Al7 Yb0 3.185145 1_455
Al8 Ru3 2.641056 1_655
Al8 Ru2 2.641056 1_555
Al8 Yb0 3.196251 1_555
Al8 Yb1 3.197554 1_645
Al9 Ru2 2.641056 1_565
Al9 Ru3 2.641056 1_555
Al9 Yb1 3.196251 1_555
Al9 Yb0 3.197554 1_465
Al10 Ru1 2.641056 1_655
Al10 Ru0 2.641056 1_555
Al10 Al5 2.951686 1_555
Al10 Al6 2.951686 1_555
Al10 Yb0 3.196251 1_554
Al10 Yb1 3.197554 1_645
Al11 Ru0 2.641056 1_566
Al11 Ru1 2.641056 1_556
Al11 Al4 2.951686 1_555
Al11 Al7 2.951686 1_555
Al11 Yb1 3.196251 1_556
Al11 Yb0 3.197554 1_465
Al12 Ru2 2.659106 1_555
Al12 Ru3 2.659106 1_655
Al12 Al6 3.031936 1_555
Al12 Al5 3.031936 1_555
Al12 Yb0 3.182411 1_555
Al13 Ru3 2.659106 1_555
Al13 Ru2 2.659106 1_565
Al13 Al7 3.031936 1_555
Al13 Al4 3.031936 1_555
Al13 Yb1 3.182411 1_555
Al14 Ru0 2.659106 1_556
Al14 Ru1 2.659106 1_656
Al14 Al6 3.031936 1_556
Al14 Al5 3.031936 1_556
Al14 Yb0 3.182411 1_555
Al15 Ru1 2.659106 1_555
Al15 Ru0 2.659106 1_565
Al15 Al7 3.031936 1_554
Al15 Al4 3.031936 1_554
Al15 Yb1 3.182411 1_555
Al16 Ru0 2.584372 1_565
Al16 Ru1 2.584372 1_655
Al16 Al4 2.865500 1_554
Al16 Al5 2.865500 1_555
Al16 Yb0 3.327122 1_564
Al16 Yb1 3.327122 1_655
Al17 Ru2 2.584372 1_565
Al17 Ru3 2.584372 1_655
Al17 Al4 2.865500 1_555
Al17 Al5 2.865500 1_555
Al17 Yb1 3.327122 1_655
Al17 Yb0 3.327122 1_565
Al18 Ru0 2.584372 1_555
Al18 Ru1 2.584372 1_555
Al18 Al6 2.865500 1_555
Al18 Al7 2.865500 1_554
Al18 Yb1 3.327122 1_545
Al18 Yb0 3.327122 1_454
Al19 Ru3 2.584372 1_555
Al19 Ru2 2.584372 1_555
Al19 Al6 2.865500 1_555
Al19 Al7 2.865500 1_555
Al19 Yb1 3.327122 1_545
Al19 Yb0 3.327122 1_455
Ru0 Yb1 3.473620 1_545
Ru0 Yb0 3.473620 1_554
Ru1 Yb1 3.473620 1_555
Ru1 Yb0 3.473620 1_454
Ru2 Yb1 3.473620 1_545
Ru2 Yb0 3.473620 1_555
Ru3 Yb1 3.473620 1_555
Ru3 Yb0 3.473620 1_455
