# generated using pymatgen
data_LiCu2BP2(HO5)2
_symmetry_space_group_name_H-M   'P 1'
_cell_length_a   5.43617600
_cell_length_b   8.02953500
_cell_length_c   17.65339300
_cell_angle_alpha   90.00000000
_cell_angle_beta   90.00000000
_cell_angle_gamma   90.00000000
_symmetry_Int_Tables_number   1
_chemical_formula_structural   LiCu2BP2(HO5)2
_chemical_formula_sum   'Li4 Cu8 B4 P8 H8 O40'
_cell_volume   770.56999467
_cell_formula_units_Z   4
loop_
 _symmetry_equiv_pos_site_id
 _symmetry_equiv_pos_as_xyz
  1  'x, y, z'
loop_
 _atom_site_type_symbol
 _atom_site_label
 _atom_site_symmetry_multiplicity
 _atom_site_fract_x
 _atom_site_fract_y
 _atom_site_fract_z
 _atom_site_occupancy
  Li  Li0  1  0.25960400  0.37113300  0.45396900  1
  Li  Li1  1  0.24039600  0.62886700  0.95396900  1
  Li  Li2  1  0.75960400  0.12886700  0.54603100  1
  Li  Li3  1  0.74039600  0.87113300  0.04603100  1
  Cu  Cu0  1  0.04391700  0.67165300  0.51759400  1
  Cu  Cu1  1  0.45608300  0.32834700  0.01759400  1
  Cu  Cu2  1  0.54391700  0.82834700  0.48240600  1
  Cu  Cu3  1  0.95608300  0.17165300  0.98240600  1
  Cu  Cu4  1  0.03173900  0.32282200  0.65755400  1
  Cu  Cu5  1  0.46826100  0.67717800  0.15755400  1
  Cu  Cu6  1  0.53173900  0.17717800  0.34244600  1
  Cu  Cu7  1  0.96826100  0.82282200  0.84244600  1
  B  B0  1  0.28099700  0.08352400  0.76421700  1
  B  B1  1  0.21900300  0.91647600  0.26421700  1
  B  B2  1  0.78099700  0.41647600  0.23578300  1
  B  B3  1  0.71900300  0.58352400  0.73578300  1
  P  P0  1  0.06672300  0.99473900  0.40666800  1
  P  P1  1  0.43327700  0.00526100  0.90666800  1
  P  P2  1  0.56672300  0.50526100  0.59333200  1
  P  P3  1  0.93327700  0.49473900  0.09333200  1
  P  P4  1  0.25356700  0.96297200  0.61851100  1
  P  P5  1  0.24643300  0.03702800  0.11851100  1
  P  P6  1  0.75356700  0.53702800  0.38148900  1
  P  P7  1  0.74643300  0.46297200  0.88148900  1
  H  H0  1  0.04639200  0.63077900  0.68048900  1
  H  H1  1  0.45360800  0.36922100  0.18048900  1
  H  H2  1  0.54639200  0.86922100  0.31951100  1
  H  H3  1  0.95360800  0.13077900  0.81951100  1
  H  H4  1  0.37913700  0.33655400  0.76060500  1
  H  H5  1  0.12086300  0.66344600  0.26060500  1
  H  H6  1  0.87913700  0.16344600  0.23939500  1
  H  H7  1  0.62086300  0.83655400  0.73939500  1
  O  O0  1  0.12693600  0.79227900  0.60887900  1
  O  O1  1  0.37306400  0.20772100  0.10887900  1
  O  O2  1  0.62693600  0.70772100  0.39112100  1
  O  O3  1  0.87306400  0.29227900  0.89112100  1
  O  O4  1  0.06842300  0.10710400  0.60622900  1
  O  O5  1  0.43157700  0.89289600  0.10622900  1
  O  O6  1  0.56842300  0.39289600  0.39377100  1
  O  O7  1  0.93157700  0.60710400  0.89377100  1
  O  O8  1  0.96994500  0.53753500  0.70886400  1
  O  O9  1  0.53005500  0.46246500  0.20886400  1
  O  O10  1  0.46994500  0.96246500  0.29113600  1
  O  O11  1  0.03005500  0.03753500  0.79113600  1
  O  O12  1  0.98129600  0.51938700  0.43391500  1
  O  O13  1  0.51870400  0.48061300  0.93391500  1
  O  O14  1  0.48129600  0.98061300  0.56608500  1
  O  O15  1  0.01870400  0.01938700  0.06608500  1
  O  O16  1  0.31396800  0.46550900  0.55908700  1
  O  O17  1  0.18603200  0.53449100  0.05908700  1
  O  O18  1  0.81396800  0.03449100  0.44091300  1
  O  O19  1  0.68603200  0.96550900  0.94091300  1
  O  O20  1  0.19342000  0.84916800  0.45042600  1
  O  O21  1  0.30658000  0.15083200  0.95042600  1
  O  O22  1  0.69342000  0.65083200  0.54957400  1
  O  O23  1  0.80658000  0.34916800  0.04957400  1
  O  O24  1  0.26995700  0.25545500  0.73606000  1
  O  O25  1  0.23004300  0.74454500  0.23606000  1
  O  O26  1  0.76995700  0.24454500  0.26394000  1
  O  O27  1  0.73004300  0.75545500  0.76394000  1
  O  O28  1  0.02819600  0.93434900  0.32238500  1
  O  O29  1  0.47180400  0.06565100  0.82238500  1
  O  O30  1  0.52819600  0.56565100  0.67761500  1
  O  O31  1  0.97180400  0.43434900  0.17761500  1
  O  O32  1  0.35343800  0.96744200  0.70275300  1
  O  O33  1  0.14656200  0.03255800  0.20275300  1
  O  O34  1  0.85343800  0.53255800  0.29724700  1
  O  O35  1  0.64656200  0.46744200  0.79724700  1
  O  O36  1  0.23703800  0.14977000  0.40693300  1
  O  O37  1  0.26296200  0.85023000  0.90693300  1
  O  O38  1  0.73703800  0.35023000  0.59306700  1
  O  O39  1  0.76296200  0.64977000  0.09306700  1
loop_
_geom_bond_atom_site_label_1
_geom_bond_atom_site_label_2
_geom_bond_distance
_geom_bond_site_symmetry_2
Li0 O12 1.957388 1_455
Li0 O36 1.965661 1_555
Li0 O6 1.994547 1_555
Li0 O16 2.026123 1_555
Li1 O13 1.957388 1_555
Li1 O37 1.965661 1_555
Li1 O7 1.994547 1_455
Li1 O17 2.026123 1_556
Li2 O14 1.957388 1_545
Li2 O38 1.965661 1_555
Li2 O4 1.994547 1_655
Li2 O18 2.026123 1_555
Li3 O15 1.957388 1_665
Li3 O39 1.965661 1_555
Li3 O5 1.994547 1_555
Li3 O19 2.026123 1_554
Cu0 O0 1.933573 1_555
Cu0 O12 1.947529 1_455
Cu0 O22 1.994262 1_455
Cu0 O20 2.024393 1_555
Cu0 O16 2.330562 1_555
Cu1 O1 1.933573 1_555
Cu1 O13 1.947529 1_554
Cu1 O23 1.994262 1_555
Cu1 O21 2.024393 1_554
Cu1 O17 2.330562 1_555
Cu2 O2 1.933573 1_555
Cu2 O14 1.947529 1_555
Cu2 O20 1.994262 1_555
Cu2 O22 2.024393 1_555
Cu2 O18 2.330562 1_565
Cu3 O3 1.933573 1_555
Cu3 O15 1.947529 1_656
Cu3 O21 1.994262 1_655
Cu3 O23 2.024393 1_556
Cu3 O19 2.330562 1_545
Cu4 O4 1.964927 1_555
Cu4 O24 1.972390 1_555
Cu4 O8 1.976270 1_455
Cu4 O38 1.977618 1_455
Cu4 O16 2.586150 1_555
Cu5 O5 1.964927 1_555
Cu5 O25 1.972390 1_555
Cu5 O9 1.976270 1_555
Cu5 O39 1.977618 1_555
Cu5 O17 2.586150 1_555
Cu6 O6 1.964927 1_555
Cu6 O26 1.972390 1_555
Cu6 O10 1.976270 1_545
Cu6 O36 1.977618 1_555
Cu6 O18 2.586150 1_555
Cu7 O7 1.964927 1_555
Cu7 O27 1.972390 1_555
Cu7 O11 1.976270 1_665
Cu7 O37 1.977618 1_655
Cu7 O19 2.586150 1_555
B0 O29 1.466612 1_555
B0 O24 1.468513 1_555
B0 O32 1.483641 1_545
B0 O11 1.491017 1_555
B1 O28 1.466612 1_555
B1 O25 1.468513 1_555
B1 O33 1.483641 1_565
B1 O10 1.491017 1_555
B2 O31 1.466612 1_555
B2 O26 1.468513 1_555
B2 O34 1.483641 1_555
B2 O9 1.491017 1_555
B3 O30 1.466612 1_555
B3 O27 1.468513 1_555
B3 O35 1.483641 1_555
B3 O8 1.491017 1_555
H0 O8 0.992060 1_455
H1 O9 0.992060 1_555
H2 O10 0.992060 1_555
H3 O11 0.992060 1_655
H4 O24 0.981868 1_555
H5 O25 0.981868 1_555
H6 O26 0.981868 1_555
H7 O27 0.981868 1_555
O0 P4 1.543145 1_555
O1 P5 1.543145 1_555
O2 P6 1.543145 1_555
O3 P7 1.543145 1_555
O4 P4 1.548992 1_545
O5 P5 1.548992 1_565
O6 P6 1.548992 1_555
O7 P7 1.548992 1_555
O12 P6 1.552157 1_555
O13 P7 1.552157 1_555
O14 P4 1.552157 1_555
O15 P5 1.552157 1_555
O16 P2 1.534694 1_555
O17 P3 1.534694 1_455
O18 P0 1.534694 1_645
O19 P1 1.534694 1_565
O20 P0 1.561200 1_555
O21 P1 1.561200 1_555
O22 P2 1.561200 1_555
O23 P3 1.561200 1_555
O28 P0 1.578856 1_555
O29 P1 1.578856 1_555
O30 P2 1.578856 1_555
O31 P3 1.578856 1_555
O32 P4 1.583566 1_555
O33 P5 1.583566 1_555
O34 P6 1.583566 1_555
O35 P7 1.583566 1_555
O36 P0 1.551398 1_545
O37 P1 1.551398 1_565
O38 P2 1.551398 1_555
O39 P3 1.551398 1_555
