# generated using pymatgen
data_Ti3FeO7
_symmetry_space_group_name_H-M   'P 1'
_cell_length_a   2.87876000
_cell_length_b   6.52848219
_cell_length_c   6.52848219
_cell_angle_alpha   57.55326925
_cell_angle_beta   77.26295947
_cell_angle_gamma   77.26295947
_symmetry_Int_Tables_number   1
_chemical_formula_structural   Ti3FeO7
_chemical_formula_sum   'Ti3 Fe1 O7'
_cell_volume   100.21265478
_cell_formula_units_Z   1
loop_
 _symmetry_equiv_pos_site_id
 _symmetry_equiv_pos_as_xyz
  1  'x, y, z'
loop_
 _atom_site_type_symbol
 _atom_site_label
 _atom_site_symmetry_multiplicity
 _atom_site_fract_x
 _atom_site_fract_y
 _atom_site_fract_z
 _atom_site_occupancy
  Ti  Ti0  1  0.50000000  0.80529600  0.19470400  1
  Ti  Ti1  1  0.75206600  0.34522100  0.15064800  1
  Ti  Ti2  1  0.24793400  0.84935200  0.65477900  1
  Fe  Fe0  1  0.00000000  0.32973600  0.67026400  1
  O  O0  1  0.00000000  0.00306500  0.99693500  1
  O  O1  1  0.68265400  0.72084500  0.91384800  1
  O  O2  1  0.31734600  0.08615200  0.27915500  1
  O  O3  1  0.34354300  0.43193000  0.88098400  1
  O  O4  1  0.65645700  0.11901600  0.56807000  1
  O  O5  1  0.10680000  0.50739400  0.27900600  1
  O  O6  1  0.89320000  0.72099400  0.49260600  1
loop_
_geom_bond_atom_site_label_1
_geom_bond_atom_site_label_2
_geom_bond_distance
_geom_bond_site_symmetry_2
Fe0 O0 2.053315 1_555
Fe0 O6 2.143897 1_455
Fe0 O5 2.143897 1_555
Fe0 O4 2.278468 1_455
Fe0 O3 2.278468 1_555
Fe0 O4 2.278468 1_555
Fe0 O3 2.278468 1_455
O0 Ti0 1.901865 1_446
O0 Ti0 1.901865 1_546
O1 Ti2 2.019492 1_655
O1 Ti2 2.019496 1_555
O1 Ti1 2.072597 1_556
O1 Ti0 2.115227 1_556
O2 Ti1 2.019492 1_455
O2 Ti1 2.019496 1_555
O2 Ti2 2.072597 1_545
O2 Ti0 2.115227 1_545
O3 Ti1 2.086359 1_456
O3 Ti1 2.086361 1_556
O3 Ti2 2.283231 1_555
O4 Ti2 2.086359 1_645
O4 Ti2 2.086361 1_545
O4 Ti1 2.283231 1_555
O5 Ti1 2.161501 1_455
O5 Ti1 2.161503 1_555
O5 Ti0 2.216772 1_555
O5 Ti0 2.216772 1_455
O6 Ti2 2.161501 1_655
O6 Ti2 2.161503 1_555
O6 Ti0 2.216772 1_555
O6 Ti0 2.216772 1_655
