# generated using pymatgen
data_Y3Se2ClO8
_symmetry_space_group_name_H-M   'P 1'
_cell_length_a   5.58028000
_cell_length_b   11.17438000
_cell_length_c   14.76924200
_cell_angle_alpha   90.00000000
_cell_angle_beta   90.00000000
_cell_angle_gamma   90.00000000
_symmetry_Int_Tables_number   1
_chemical_formula_structural   Y3Se2ClO8
_chemical_formula_sum   'Y12 Se8 Cl4 O32'
_cell_volume   920.95335350
_cell_formula_units_Z   4
loop_
 _symmetry_equiv_pos_site_id
 _symmetry_equiv_pos_as_xyz
  1  'x, y, z'
loop_
 _atom_site_type_symbol
 _atom_site_label
 _atom_site_symmetry_multiplicity
 _atom_site_fract_x
 _atom_site_fract_y
 _atom_site_fract_z
 _atom_site_occupancy
  Y  Y0  1  0.56194900  0.14753000  0.75000000  1
  Y  Y1  1  0.06194900  0.35247000  0.75000000  1
  Y  Y2  1  0.43805100  0.85247000  0.25000000  1
  Y  Y3  1  0.93805100  0.64753000  0.25000000  1
  Y  Y4  1  0.57530200  0.35650000  0.56722200  1
  Y  Y5  1  0.07530200  0.14350000  0.93277800  1
  Y  Y6  1  0.42469800  0.64350000  0.06722200  1
  Y  Y7  1  0.92469800  0.85650000  0.43277800  1
  Y  Y8  1  0.42469800  0.64350000  0.43277800  1
  Y  Y9  1  0.92469800  0.85650000  0.06722200  1
  Y  Y10  1  0.57530200  0.35650000  0.93277800  1
  Y  Y11  1  0.07530200  0.14350000  0.56722200  1
  Se  Se0  1  0.59275700  0.12286900  0.10852300  1
  Se  Se1  1  0.09275700  0.37713100  0.39147700  1
  Se  Se2  1  0.40724300  0.87713100  0.60852300  1
  Se  Se3  1  0.90724300  0.62286900  0.89147700  1
  Se  Se4  1  0.40724300  0.87713100  0.89147700  1
  Se  Se5  1  0.90724300  0.62286900  0.60852300  1
  Se  Se6  1  0.59275700  0.12286900  0.39147700  1
  Se  Se7  1  0.09275700  0.37713100  0.10852300  1
  Cl  Cl0  1  0.57018800  0.47596300  0.75000000  1
  Cl  Cl1  1  0.07018800  0.02403700  0.75000000  1
  Cl  Cl2  1  0.42981200  0.52403700  0.25000000  1
  Cl  Cl3  1  0.92981200  0.97596300  0.25000000  1
  O  O0  1  0.56988900  0.99990500  0.63612100  1
  O  O1  1  0.06988900  0.50009500  0.86387900  1
  O  O2  1  0.43011100  0.00009500  0.13612100  1
  O  O3  1  0.93011100  0.49990500  0.36387900  1
  O  O4  1  0.43011100  0.00009500  0.36387900  1
  O  O5  1  0.93011100  0.49990500  0.13612100  1
  O  O6  1  0.56988900  0.99990500  0.86387900  1
  O  O7  1  0.06988900  0.50009500  0.63612100  1
  O  O8  1  0.92231500  0.31006100  0.02270300  1
  O  O9  1  0.42231500  0.18993900  0.47729700  1
  O  O10  1  0.07768500  0.68993900  0.52270300  1
  O  O11  1  0.57768500  0.81006100  0.97729700  1
  O  O12  1  0.07768500  0.68993900  0.97729700  1
  O  O13  1  0.57768500  0.81006100  0.52270300  1
  O  O14  1  0.92231500  0.31006100  0.47729700  1
  O  O15  1  0.42231500  0.18993900  0.02270300  1
  O  O16  1  0.82519300  0.05753100  0.04545400  1
  O  O17  1  0.32519300  0.44246900  0.45454600  1
  O  O18  1  0.17480700  0.94246900  0.54545400  1
  O  O19  1  0.67480700  0.55753100  0.95454600  1
  O  O20  1  0.17480700  0.94246900  0.95454600  1
  O  O21  1  0.67480700  0.55753100  0.54545400  1
  O  O22  1  0.82519300  0.05753100  0.45454600  1
  O  O23  1  0.32519300  0.44246900  0.04545400  1
  O  O24  1  0.81461200  0.24425000  0.65246000  1
  O  O25  1  0.31461200  0.25575000  0.84754000  1
  O  O26  1  0.18538800  0.75575000  0.15246000  1
  O  O27  1  0.68538800  0.74425000  0.34754000  1
  O  O28  1  0.18538800  0.75575000  0.34754000  1
  O  O29  1  0.68538800  0.74425000  0.15246000  1
  O  O30  1  0.81461200  0.24425000  0.84754000  1
  O  O31  1  0.31461200  0.25575000  0.65246000  1
loop_
_geom_bond_atom_site_label_1
_geom_bond_atom_site_label_2
_geom_bond_distance
_geom_bond_site_symmetry_2
Cl0 Y10 3.011660 1_555
Cl0 Y4 3.011660 1_555
Cl0 Y1 3.071599 1_655
Cl0 Y1 3.154019 1_555
Cl1 Y5 3.011660 1_555
Cl1 Y11 3.011660 1_555
Cl1 Y0 3.071599 1_555
Cl1 Y0 3.154019 1_455
Cl2 Y8 3.011660 1_555
Cl2 Y6 3.011660 1_555
Cl2 Y3 3.071599 1_455
Cl2 Y3 3.154019 1_555
Cl3 Y7 3.011660 1_555
Cl3 Y9 3.011660 1_555
Cl3 Y2 3.071599 1_555
Cl3 Y2 3.154019 1_655
O0 Se2 1.694718 1_555
O0 Y0 2.356271 1_565
O1 Se3 1.694718 1_455
O1 Y1 2.356271 1_555
O2 Se0 1.694718 1_555
O2 Y2 2.356271 1_545
O3 Se1 1.694718 1_655
O3 Y3 2.356271 1_555
O4 Se6 1.694718 1_555
O4 Y2 2.356271 1_545
O5 Se7 1.694718 1_655
O5 Y3 2.356271 1_555
O6 Se4 1.694718 1_555
O6 Y0 2.356271 1_565
O7 Se5 1.694718 1_455
O7 Y1 2.356271 1_555
O8 Se7 1.752959 1_655
O8 Y10 2.404778 1_554
O8 Y5 2.440668 1_654
O9 Se6 1.752959 1_555
O9 Y11 2.404778 1_555
O9 Y4 2.440668 1_555
O10 Se5 1.752959 1_455
O10 Y8 2.404778 1_555
O10 Y7 2.440668 1_455
O11 Se4 1.752959 1_555
O11 Y9 2.404778 1_556
O11 Y6 2.440668 1_556
O12 Se3 1.752959 1_455
O12 Y6 2.404778 1_556
O12 Y9 2.440668 1_456
O13 Se2 1.752959 1_555
O13 Y7 2.404778 1_555
O13 Y8 2.440668 1_555
O14 Se1 1.752959 1_655
O14 Y4 2.404778 1_555
O14 Y11 2.440668 1_655
O15 Se0 1.752959 1_555
O15 Y5 2.404778 1_554
O15 Y10 2.440668 1_554
O16 Se0 1.755870 1_555
O16 Y9 2.336232 1_545
O16 Y5 2.374895 1_654
O17 Se1 1.755870 1_555
O17 Y8 2.336232 1_555
O17 Y4 2.374895 1_555
O18 Se2 1.755870 1_555
O18 Y11 2.336232 1_565
O18 Y7 2.374895 1_455
O19 Se3 1.755870 1_555
O19 Y10 2.336232 1_555
O19 Y6 2.374895 1_556
O20 Se4 1.755870 1_555
O20 Y5 2.336232 1_565
O20 Y9 2.374895 1_456
O21 Se5 1.755870 1_555
O21 Y4 2.336232 1_555
O21 Y8 2.374895 1_555
O22 Se6 1.755870 1_555
O22 Y7 2.336232 1_545
O22 Y11 2.374895 1_655
O23 Se7 1.755870 1_555
O23 Y6 2.336232 1_555
O23 Y10 2.374895 1_554
O24 Y4 2.222948 1_555
O24 Y11 2.229017 1_655
O24 Y0 2.287205 1_555
O24 Y1 2.332953 1_655
O25 Y5 2.222948 1_555
O25 Y10 2.229017 1_555
O25 Y1 2.287205 1_555
O25 Y0 2.332953 1_555
O26 Y6 2.222948 1_555
O26 Y9 2.229017 1_455
O26 Y2 2.287205 1_555
O26 Y3 2.332953 1_455
O27 Y7 2.222948 1_555
O27 Y8 2.229017 1_555
O27 Y3 2.287205 1_555
O27 Y2 2.332953 1_555
O28 Y8 2.222948 1_555
O28 Y7 2.229017 1_455
O28 Y2 2.287205 1_555
O28 Y3 2.332953 1_455
O29 Y9 2.222948 1_555
O29 Y6 2.229017 1_555
O29 Y3 2.287205 1_555
O29 Y2 2.332953 1_555
O30 Y10 2.222948 1_555
O30 Y5 2.229017 1_655
O30 Y0 2.287205 1_555
O30 Y1 2.332953 1_655
O31 Y11 2.222948 1_555
O31 Y4 2.229017 1_555
O31 Y1 2.287205 1_555
O31 Y0 2.332953 1_555
