# generated using pymatgen
data_Na3Ti2(GeO4)3
_symmetry_space_group_name_H-M   'P 1'
_cell_length_a   10.75831316
_cell_length_b   10.75831316
_cell_length_c   10.75831316
_cell_angle_alpha   109.47122063
_cell_angle_beta   109.47122063
_cell_angle_gamma   109.47122063
_symmetry_Int_Tables_number   1
_chemical_formula_structural   Na3Ti2(GeO4)3
_chemical_formula_sum   'Na12 Ti8 Ge12 O48'
_cell_volume   958.54091437
_cell_formula_units_Z   4
loop_
 _symmetry_equiv_pos_site_id
 _symmetry_equiv_pos_as_xyz
  1  'x, y, z'
loop_
 _atom_site_type_symbol
 _atom_site_label
 _atom_site_symmetry_multiplicity
 _atom_site_fract_x
 _atom_site_fract_y
 _atom_site_fract_z
 _atom_site_occupancy
  Na  Na0  1  0.75000000  0.62500000  0.87500000  1
  Na  Na1  1  0.25000000  0.87500000  0.62500000  1
  Na  Na2  1  0.62500000  0.25000000  0.87500000  1
  Na  Na3  1  0.87500000  0.75000000  0.62500000  1
  Na  Na4  1  0.87500000  0.62500000  0.25000000  1
  Na  Na5  1  0.62500000  0.87500000  0.75000000  1
  Na  Na6  1  0.25000000  0.37500000  0.12500000  1
  Na  Na7  1  0.75000000  0.12500000  0.37500000  1
  Na  Na8  1  0.37500000  0.75000000  0.12500000  1
  Na  Na9  1  0.12500000  0.25000000  0.37500000  1
  Na  Na10  1  0.12500000  0.37500000  0.75000000  1
  Na  Na11  1  0.37500000  0.12500000  0.25000000  1
  Ti  Ti0  1  0.50000000  0.00000000  0.50000000  1
  Ti  Ti1  1  0.00000000  0.50000000  0.00000000  1
  Ti  Ti2  1  0.50000000  0.50000000  0.50000000  1
  Ti  Ti3  1  0.00000000  0.00000000  0.50000000  1
  Ti  Ti4  1  0.00000000  0.00000000  0.00000000  1
  Ti  Ti5  1  0.00000000  0.50000000  0.50000000  1
  Ti  Ti6  1  0.50000000  0.50000000  0.00000000  1
  Ti  Ti7  1  0.50000000  0.00000000  0.00000000  1
  Ge  Ge0  1  0.37500000  0.62500000  0.75000000  1
  Ge  Ge1  1  0.62500000  0.37500000  0.25000000  1
  Ge  Ge2  1  0.62500000  0.75000000  0.37500000  1
  Ge  Ge3  1  0.25000000  0.12500000  0.87500000  1
  Ge  Ge4  1  0.87500000  0.25000000  0.12500000  1
  Ge  Ge5  1  0.75000000  0.37500000  0.62500000  1
  Ge  Ge6  1  0.25000000  0.62500000  0.37500000  1
  Ge  Ge7  1  0.75000000  0.87500000  0.12500000  1
  Ge  Ge8  1  0.12500000  0.75000000  0.87500000  1
  Ge  Ge9  1  0.37500000  0.25000000  0.62500000  1
  Ge  Ge10  1  0.87500000  0.12500000  0.75000000  1
  Ge  Ge11  1  0.12500000  0.87500000  0.25000000  1
  O  O0  1  0.51019700  0.39757200  0.81648000  1
  O  O1  1  0.81648000  0.51019700  0.39757200  1
  O  O2  1  0.80628200  0.88737500  0.98980300  1
  O  O3  1  0.41890700  0.10242800  0.61262500  1
  O  O4  1  0.88737500  0.39757200  0.08109300  1
  O  O5  1  0.68352000  0.08109300  0.69371800  1
  O  O6  1  0.81648000  0.80628200  0.41890700  1
  O  O7  1  0.39757200  0.81648000  0.51019700  1
  O  O8  1  0.61262500  0.69371800  0.51019700  1
  O  O9  1  0.41890700  0.81648000  0.80628200  1
  O  O10  1  0.39757200  0.08109300  0.88737500  1
  O  O11  1  0.10242800  0.98980300  0.68352000  1
  O  O12  1  0.98980300  0.68352000  0.10242800  1
  O  O13  1  0.80628200  0.41890700  0.81648000  1
  O  O14  1  0.51019700  0.61262500  0.69371800  1
  O  O15  1  0.69371800  0.51019700  0.61262500  1
  O  O16  1  0.08109300  0.88737500  0.39757200  1
  O  O17  1  0.98980300  0.80628200  0.88737500  1
  O  O18  1  0.08109300  0.69371800  0.68352000  1
  O  O19  1  0.38737500  0.30628200  0.48980300  1
  O  O20  1  0.61262500  0.41890700  0.10242800  1
  O  O21  1  0.10242800  0.61262500  0.41890700  1
  O  O22  1  0.69371800  0.68352000  0.08109300  1
  O  O23  1  0.68352000  0.10242800  0.98980300  1
  O  O24  1  0.48980300  0.60242800  0.18352000  1
  O  O25  1  0.18352000  0.48980300  0.60242800  1
  O  O26  1  0.19371800  0.11262500  0.01019700  1
  O  O27  1  0.58109300  0.89757200  0.38737500  1
  O  O28  1  0.11262500  0.60242800  0.91890700  1
  O  O29  1  0.31648000  0.91890700  0.30628200  1
  O  O30  1  0.18352000  0.19371800  0.58109300  1
  O  O31  1  0.60242800  0.18352000  0.48980300  1
  O  O32  1  0.31648000  0.89757200  0.01019700  1
  O  O33  1  0.30628200  0.31648000  0.91890700  1
  O  O34  1  0.89757200  0.38737500  0.58109300  1
  O  O35  1  0.11262500  0.01019700  0.19371800  1
  O  O36  1  0.38737500  0.58109300  0.89757200  1
  O  O37  1  0.91890700  0.30628200  0.31648000  1
  O  O38  1  0.01019700  0.19371800  0.11262500  1
  O  O39  1  0.91890700  0.11262500  0.60242800  1
  O  O40  1  0.30628200  0.48980300  0.38737500  1
  O  O41  1  0.48980300  0.38737500  0.30628200  1
  O  O42  1  0.19371800  0.58109300  0.18352000  1
  O  O43  1  0.01019700  0.31648000  0.89757200  1
  O  O44  1  0.89757200  0.01019700  0.31648000  1
  O  O45  1  0.60242800  0.91890700  0.11262500  1
  O  O46  1  0.58109300  0.18352000  0.19371800  1
  O  O47  1  0.88737500  0.98980300  0.80628200  1
loop_
_geom_bond_atom_site_label_1
_geom_bond_atom_site_label_2
_geom_bond_distance
_geom_bond_site_symmetry_2
Na0 O13 2.428493 1_555
Na0 O22 2.428493 1_556
Na0 O2 2.428494 1_555
Na0 O15 2.428494 1_555
Na0 O17 2.592430 1_555
Na0 O14 2.592430 1_555
Na0 O12 2.592435 1_556
Na0 O0 2.592435 1_555
Na1 O7 2.428490 1_555
Na1 O11 2.428490 1_555
Na1 O21 2.428494 1_555
Na1 O10 2.428494 1_565
Na1 O9 2.592422 1_555
Na1 O18 2.592422 1_555
Na1 O3 2.592430 1_565
Na1 O16 2.592430 1_555
Na2 O0 2.428490 1_555
Na2 O23 2.428490 1_555
Na2 O3 2.428494 1_555
Na2 O4 2.428494 1_556
Na2 O5 2.592422 1_555
Na2 O13 2.592422 1_555
Na2 O20 2.592430 1_556
Na2 O10 2.592430 1_555
Na3 O6 2.428493 1_555
Na3 O18 2.428493 1_655
Na3 O17 2.428494 1_555
Na3 O8 2.428494 1_555
Na3 O47 2.592430 1_555
Na3 O15 2.592430 1_555
Na3 O11 2.592435 1_655
Na3 O1 2.592435 1_555
Na4 O1 2.428490 1_555
Na4 O12 2.428490 1_555
Na4 O16 2.428494 1_655
Na4 O20 2.428494 1_555
Na4 O6 2.592422 1_555
Na4 O22 2.592422 1_555
Na4 O21 2.592430 1_655
Na4 O4 2.592430 1_555
Na5 O9 2.428493 1_555
Na5 O5 2.428493 1_565
Na5 O14 2.428494 1_555
Na5 O47 2.428494 1_555
Na5 O8 2.592430 1_555
Na5 O2 2.592430 1_555
Na5 O23 2.592435 1_565
Na5 O7 2.592435 1_555
Na6 O42 2.428493 1_555
Na6 O33 2.428493 1_554
Na6 O26 2.428494 1_555
Na6 O40 2.428494 1_555
Na6 O38 2.592430 1_555
Na6 O41 2.592430 1_555
Na6 O43 2.592435 1_554
Na6 O24 2.592435 1_555
Na7 O31 2.428490 1_555
Na7 O44 2.428490 1_555
Na7 O34 2.428494 1_555
Na7 O45 2.428494 1_545
Na7 O46 2.592422 1_555
Na7 O37 2.592422 1_555
Na7 O39 2.592430 1_555
Na7 O27 2.592430 1_545
Na8 O24 2.428490 1_555
Na8 O32 2.428490 1_555
Na8 O28 2.428494 1_554
Na8 O27 2.428494 1_555
Na8 O29 2.592422 1_555
Na8 O42 2.592422 1_555
Na8 O45 2.592430 1_555
Na8 O36 2.592430 1_554
Na9 O30 2.428493 1_555
Na9 O37 2.428493 1_455
Na9 O19 2.428494 1_555
Na9 O38 2.428494 1_555
Na9 O40 2.592430 1_555
Na9 O35 2.592430 1_555
Na9 O44 2.592435 1_455
Na9 O25 2.592435 1_555
Na10 O43 2.428490 1_555
Na10 O25 2.428490 1_555
Na10 O39 2.428494 1_455
Na10 O36 2.428494 1_555
Na10 O30 2.592422 1_555
Na10 O33 2.592422 1_555
Na10 O28 2.592430 1_555
Na10 O34 2.592430 1_455
Na11 O29 2.428493 1_545
Na11 O46 2.428493 1_555
Na11 O41 2.428494 1_555
Na11 O35 2.428494 1_555
Na11 O19 2.592430 1_555
Na11 O26 2.592430 1_555
Na11 O32 2.592435 1_545
Na11 O31 2.592435 1_555
Ge0 O36 1.778309 1_555
Ge0 O14 1.778309 1_555
Ge0 O25 1.778315 1_555
Ge0 O9 1.778319 1_555
Ge1 O20 1.778309 1_555
Ge1 O41 1.778309 1_555
Ge1 O1 1.778315 1_555
Ge1 O46 1.778319 1_555
Ge2 O8 1.778309 1_555
Ge2 O27 1.778309 1_555
Ge2 O24 1.778315 1_555
Ge2 O6 1.778319 1_555
Ge3 O10 1.778309 1_555
Ge3 O26 1.778309 1_556
Ge3 O11 1.778315 1_545
Ge3 O33 1.778319 1_555
Ge4 O4 1.778309 1_555
Ge4 O38 1.778309 1_655
Ge4 O23 1.778315 1_554
Ge4 O37 1.778319 1_555
Ge5 O34 1.778309 1_555
Ge5 O15 1.778309 1_555
Ge5 O31 1.778315 1_555
Ge5 O13 1.778319 1_555
Ge6 O21 1.778309 1_555
Ge6 O40 1.778309 1_555
Ge6 O7 1.778315 1_555
Ge6 O42 1.778319 1_555
Ge7 O2 1.778309 1_554
Ge7 O45 1.778309 1_555
Ge7 O44 1.778315 1_565
Ge7 O22 1.778319 1_555
Ge8 O17 1.778309 1_455
Ge8 O28 1.778309 1_555
Ge8 O32 1.778315 1_556
Ge8 O18 1.778319 1_555
Ge9 O3 1.778309 1_555
Ge9 O19 1.778309 1_555
Ge9 O0 1.778315 1_555
Ge9 O30 1.778319 1_555
Ge10 O47 1.778309 1_545
Ge10 O39 1.778309 1_555
Ge10 O43 1.778315 1_655
Ge10 O5 1.778319 1_555
Ge11 O16 1.778309 1_555
Ge11 O35 1.778309 1_565
Ge11 O12 1.778315 1_455
Ge11 O29 1.778319 1_555
O0 Ti6 1.974589 1_556
O1 Ti5 1.974589 1_655
O2 Ti4 1.974598 1_666
O3 Ti0 1.974598 1_555
O4 Ti1 1.974598 1_655
O5 Ti0 1.974593 1_555
O6 Ti3 1.974593 1_665
O7 Ti0 1.974589 1_565
O8 Ti2 1.974598 1_555
O9 Ti7 1.974593 1_566
O10 Ti7 1.974598 1_556
O11 Ti3 1.974589 1_565
O12 Ti1 1.974589 1_655
O13 Ti1 1.974593 1_656
O14 Ti2 1.974598 1_555
O15 Ti2 1.974598 1_555
O16 Ti3 1.974598 1_565
O17 Ti4 1.974598 1_666
O18 Ti5 1.974593 1_555
O19 Ti2 1.974598 1_555
O20 Ti6 1.974598 1_555
O21 Ti5 1.974598 1_555
O22 Ti6 1.974593 1_555
O23 Ti7 1.974589 1_556
O24 Ti6 1.974589 1_555
O25 Ti5 1.974589 1_555
O26 Ti4 1.974598 1_555
O27 Ti0 1.974598 1_565
O28 Ti1 1.974598 1_556
O29 Ti0 1.974593 1_565
O30 Ti3 1.974593 1_555
O31 Ti0 1.974589 1_555
O32 Ti7 1.974589 1_565
O33 Ti6 1.974593 1_556
O34 Ti5 1.974598 1_655
O35 Ti4 1.974598 1_555
O36 Ti6 1.974598 1_556
O37 Ti5 1.974593 1_655
O38 Ti4 1.974598 1_555
O39 Ti3 1.974598 1_655
O40 Ti2 1.974598 1_555
O41 Ti2 1.974598 1_555
O42 Ti1 1.974593 1_555
O43 Ti1 1.974589 1_556
O44 Ti3 1.974589 1_655
O45 Ti7 1.974598 1_565
O46 Ti7 1.974593 1_555
O47 Ti4 1.974598 1_666
