# generated using pymatgen
data_K3Nb3Si2O13
_symmetry_space_group_name_H-M   'P 1'
_cell_length_a   9.25780944
_cell_length_b   9.25780944
_cell_length_c   7.92675300
_cell_angle_alpha   90.00000000
_cell_angle_beta   90.00000000
_cell_angle_gamma   119.99999602
_symmetry_Int_Tables_number   1
_chemical_formula_structural   K3Nb3Si2O13
_chemical_formula_sum   'K6 Nb6 Si4 O26'
_cell_volume   588.35906529
_cell_formula_units_Z   2
loop_
 _symmetry_equiv_pos_site_id
 _symmetry_equiv_pos_as_xyz
  1  'x, y, z'
loop_
 _atom_site_type_symbol
 _atom_site_label
 _atom_site_symmetry_multiplicity
 _atom_site_fract_x
 _atom_site_fract_y
 _atom_site_fract_z
 _atom_site_occupancy
  K  K0  1  0.40412500  0.40412500  0.50000000  1
  K  K1  1  0.00000000  0.59587500  0.50000000  1
  K  K2  1  0.61074200  0.00000000  0.00000000  1
  K  K3  1  0.38925800  0.38925800  0.00000000  1
  K  K4  1  0.59587500  0.00000000  0.50000000  1
  K  K5  1  0.00000000  0.61074200  0.00000000  1
  Nb  Nb0  1  0.23786200  0.00000000  0.25042300  1
  Nb  Nb1  1  0.00000000  0.23786200  0.74957700  1
  Nb  Nb2  1  0.00000000  0.23786200  0.25042300  1
  Nb  Nb3  1  0.76213800  0.76213800  0.25042300  1
  Nb  Nb4  1  0.23786200  0.00000000  0.74957700  1
  Nb  Nb5  1  0.76213800  0.76213800  0.74957700  1
  Si  Si0  1  0.66666700  0.33333300  0.20890600  1
  Si  Si1  1  0.66666700  0.33333300  0.79109400  1
  Si  Si2  1  0.33333300  0.66666700  0.79109400  1
  Si  Si3  1  0.33333300  0.66666700  0.20890600  1
  O  O0  1  0.00000000  0.23192700  0.50000000  1
  O  O1  1  0.76807300  0.76807300  0.50000000  1
  O  O2  1  0.23192700  0.00000000  0.50000000  1
  O  O3  1  0.51337700  0.69613000  0.27086900  1
  O  O4  1  0.30387000  0.81724700  0.27086900  1
  O  O5  1  0.18275300  0.48662300  0.27086900  1
  O  O6  1  0.48662300  0.18275300  0.72913100  1
  O  O7  1  0.18275300  0.48662300  0.72913100  1
  O  O8  1  0.51337700  0.69613000  0.72913100  1
  O  O9  1  0.30387000  0.81724700  0.72913100  1
  O  O10  1  0.69613000  0.51337700  0.27086900  1
  O  O11  1  0.81724700  0.30387000  0.27086900  1
  O  O12  1  0.81724700  0.30387000  0.72913100  1
  O  O13  1  0.69613000  0.51337700  0.72913100  1
  O  O14  1  0.48662300  0.18275300  0.27086900  1
  O  O15  1  0.82608300  0.00000000  0.76540800  1
  O  O16  1  0.33333300  0.66666700  0.00000000  1
  O  O17  1  0.66666700  0.33333300  0.00000000  1
  O  O18  1  0.27010100  0.00000000  0.00000000  1
  O  O19  1  0.72989900  0.72989900  0.00000000  1
  O  O20  1  0.00000000  0.27010100  0.00000000  1
  O  O21  1  0.82608300  0.00000000  0.23459200  1
  O  O22  1  0.17391700  0.17391700  0.76540800  1
  O  O23  1  0.00000000  0.82608300  0.76540800  1
  O  O24  1  0.00000000  0.82608300  0.23459200  1
  O  O25  1  0.17391700  0.17391700  0.23459200  1
loop_
_geom_bond_atom_site_label_1
_geom_bond_atom_site_label_2
_geom_bond_distance
_geom_bond_site_symmetry_2
K0 O8 2.982542 1_555
K0 O13 2.982542 1_555
K0 O10 2.982542 1_555
K0 O3 2.982542 1_555
K0 O25 2.994692 1_555
K0 O22 2.994692 1_555
K0 O6 3.106043 1_555
K0 O7 3.106043 1_555
K0 O14 3.106043 1_555
K0 O5 3.106043 1_555
K0 O0 3.251846 1_555
K0 O2 3.251846 1_555
K1 O7 2.982542 1_555
K1 O5 2.982542 1_555
K1 O12 2.982542 1_455
K1 O11 2.982542 1_455
K1 O23 2.994692 1_555
K1 O24 2.994692 1_555
K1 O13 3.106043 1_455
K1 O10 3.106043 1_455
K1 O9 3.106043 1_555
K1 O4 3.106043 1_555
K1 O1 3.251846 1_455
K1 O2 3.251846 1_565
K2 O21 2.726228 1_555
K2 O15 2.726228 1_554
K2 O17 2.862398 1_555
K2 O16 2.862401 1_545
K2 O18 3.153589 1_555
K2 O19 3.198133 1_545
K2 O20 3.198133 1_655
K2 O14 3.276744 1_555
K2 O6 3.276744 1_554
K2 O4 3.276744 1_545
K2 O9 3.276744 1_544
K2 O3 3.286451 1_545
K2 O8 3.286451 1_544
K2 O11 3.286451 1_555
K2 O12 3.286451 1_554
K3 O25 2.726229 1_555
K3 O22 2.726229 1_554
K3 O16 2.862407 1_555
K3 O17 2.862407 1_555
K3 O19 3.153590 1_555
K3 O18 3.198133 1_555
K3 O20 3.198133 1_555
K3 O10 3.276744 1_555
K3 O3 3.276744 1_555
K3 O8 3.276744 1_554
K3 O13 3.276744 1_554
K3 O14 3.286451 1_555
K3 O5 3.286451 1_555
K3 O6 3.286451 1_554
K3 O7 3.286451 1_554
K4 O6 2.982542 1_555
K4 O14 2.982542 1_555
K4 O9 2.982542 1_545
K4 O4 2.982542 1_545
K4 O21 2.994692 1_555
K4 O15 2.994692 1_555
K4 O8 3.106043 1_545
K4 O3 3.106043 1_545
K4 O12 3.106043 1_555
K4 O11 3.106043 1_555
K4 O1 3.251846 1_545
K4 O0 3.251846 1_655
K5 O23 2.726228 1_554
K5 O24 2.726228 1_555
K5 O16 2.862398 1_555
K5 O17 2.862401 1_455
K5 O20 3.153589 1_555
K5 O19 3.198133 1_455
K5 O18 3.198133 1_565
K5 O5 3.276744 1_555
K5 O7 3.276744 1_554
K5 O11 3.276744 1_455
K5 O12 3.276744 1_454
K5 O10 3.286451 1_455
K5 O13 3.286451 1_454
K5 O4 3.286451 1_555
K5 O9 3.286451 1_554
Nb0 O25 1.977814 1_555
Nb0 O24 1.977815 1_545
Nb0 O2 1.979098 1_555
Nb0 O18 2.007354 1_555
Nb0 O4 2.072702 1_545
Nb0 O14 2.072702 1_555
Nb1 O22 1.977814 1_555
Nb1 O15 1.977815 1_455
Nb1 O0 1.979098 1_555
Nb1 O20 2.007354 1_556
Nb1 O12 2.072702 1_455
Nb1 O7 2.072702 1_555
Nb2 O25 1.977814 1_555
Nb2 O21 1.977815 1_455
Nb2 O0 1.979098 1_555
Nb2 O20 2.007354 1_555
Nb2 O11 2.072702 1_455
Nb2 O5 2.072702 1_555
Nb3 O21 1.977814 1_565
Nb3 O24 1.977814 1_655
Nb3 O1 1.979098 1_555
Nb3 O19 2.007354 1_555
Nb3 O10 2.072702 1_555
Nb3 O3 2.072702 1_555
Nb4 O22 1.977814 1_555
Nb4 O23 1.977815 1_545
Nb4 O2 1.979098 1_555
Nb4 O18 2.007354 1_556
Nb4 O9 2.072702 1_545
Nb4 O6 2.072702 1_555
Nb5 O15 1.977814 1_565
Nb5 O23 1.977814 1_655
Nb5 O1 1.979098 1_555
Nb5 O19 2.007354 1_556
Nb5 O8 2.072702 1_555
Nb5 O13 2.072702 1_555
O3 Si3 1.624581 1_555
O4 Si3 1.624572 1_555
O5 Si3 1.624578 1_555
O6 Si1 1.624578 1_555
O7 Si2 1.624578 1_555
O8 Si2 1.624581 1_555
O9 Si2 1.624572 1_555
O10 Si0 1.624581 1_555
O11 Si0 1.624572 1_555
O12 Si1 1.624572 1_555
O13 Si1 1.624581 1_555
O14 Si0 1.624578 1_555
O16 Si3 1.655946 1_555
O16 Si2 1.655946 1_554
O17 Si0 1.655946 1_555
O17 Si1 1.655946 1_554
