# generated using pymatgen
data_Er6Ga17Pd5
_symmetry_space_group_name_H-M   'P 1'
_cell_length_a   8.14588316
_cell_length_b   8.14588316
_cell_length_c   15.64515275
_cell_angle_alpha   76.18624278
_cell_angle_beta   76.18624278
_cell_angle_gamma   30.43515608
_symmetry_Int_Tables_number   1
_chemical_formula_structural   Er6Ga17Pd5
_chemical_formula_sum   'Er6 Ga17 Pd5'
_cell_volume   509.52980987
_cell_formula_units_Z   1
loop_
 _symmetry_equiv_pos_site_id
 _symmetry_equiv_pos_as_xyz
  1  'x, y, z'
loop_
 _atom_site_type_symbol
 _atom_site_label
 _atom_site_symmetry_multiplicity
 _atom_site_fract_x
 _atom_site_fract_y
 _atom_site_fract_z
 _atom_site_occupancy
  Er  Er0  1  0.74935100  0.74935100  0.75133500  1
  Er  Er1  1  0.25064900  0.25064900  0.24866500  1
  Er  Er2  1  0.60040100  0.60040100  0.59993200  1
  Er  Er3  1  0.09628000  0.09628000  0.09633100  1
  Er  Er4  1  0.90372000  0.90372000  0.90366900  1
  Er  Er5  1  0.39959900  0.39959900  0.40006800  1
  Ga  Ga0  1  0.82150000  0.82150000  0.54026000  1
  Ga  Ga1  1  0.32686000  0.32686000  0.04185000  1
  Ga  Ga2  1  0.67314000  0.67314000  0.95815000  1
  Ga  Ga3  1  0.17850000  0.17850000  0.45974000  1
  Ga  Ga4  1  0.54233400  0.54233400  0.82670300  1
  Ga  Ga5  1  0.04038500  0.04038500  0.32182300  1
  Ga  Ga6  1  0.95961500  0.95961500  0.67817700  1
  Ga  Ga7  1  0.45766600  0.45766600  0.17329700  1
  Ga  Ga8  1  0.26443200  0.26443200  0.89559200  1
  Ga  Ga9  1  0.76063400  0.76063400  0.39422600  1
  Ga  Ga10  1  0.23936600  0.23936600  0.60577400  1
  Ga  Ga11  1  0.73556800  0.73556800  0.10440800  1
  Ga  Ga12  1  0.39547000  0.39547000  0.76173000  1
  Ga  Ga13  1  0.89382300  0.89382300  0.26368500  1
  Ga  Ga14  1  0.10617700  0.10617700  0.73631500  1
  Ga  Ga15  1  0.60453000  0.60453000  0.23827000  1
  Ga  Ga16  1  0.00000000  0.00000000  0.50000000  1
  Pd  Pd0  1  0.10041900  0.10041900  0.89961300  1
  Pd  Pd1  1  0.59032100  0.59032100  0.40933100  1
  Pd  Pd2  1  0.40967900  0.40967900  0.59066900  1
  Pd  Pd3  1  0.89958100  0.89958100  0.10038700  1
  Pd  Pd4  1  0.50000000  0.50000000  0.00000000  1
loop_
_geom_bond_atom_site_label_1
_geom_bond_atom_site_label_2
_geom_bond_distance
_geom_bond_site_symmetry_2
Er0 Ga14 3.155110 1_565
Er0 Ga14 3.155110 1_655
Er0 Ga10 3.155874 1_565
Er0 Ga10 3.155874 1_655
Er0 Ga2 3.160123 1_555
Er0 Ga8 3.160142 1_565
Er0 Ga8 3.160142 1_655
Er0 Ga12 3.171691 1_565
Er0 Ga12 3.171691 1_655
Er0 Ga4 3.175295 1_555
Er0 Ga0 3.215281 1_555
Er0 Ga6 3.219282 1_555
Er1 Ga13 3.155110 1_455
Er1 Ga13 3.155110 1_545
Er1 Ga9 3.155874 1_455
Er1 Ga9 3.155874 1_545
Er1 Ga1 3.160123 1_555
Er1 Ga11 3.160142 1_545
Er1 Ga11 3.160142 1_455
Er1 Ga15 3.171691 1_545
Er1 Ga15 3.171691 1_455
Er1 Ga7 3.175295 1_555
Er1 Ga3 3.215281 1_555
Er1 Ga5 3.219282 1_555
Er2 Pd1 3.025091 1_555
Er2 Pd2 3.037355 1_555
Er2 Ga14 3.037883 1_565
Er2 Ga14 3.037883 1_655
Er2 Ga10 3.074319 1_565
Er2 Ga10 3.074319 1_655
Er2 Ga3 3.091470 1_565
Er2 Ga3 3.091470 1_655
Er2 Ga6 3.102887 1_455
Er2 Ga6 3.102887 1_545
Er2 Ga16 3.275453 1_655
Er2 Ga16 3.275453 1_565
Er2 Ga0 3.368503 1_555
Er2 Ga4 3.437715 1_555
Er3 Pd0 3.062232 1_554
Er3 Ga2 3.068007 1_544
Er3 Ga2 3.068007 1_454
Er3 Pd3 3.077121 1_445
Er3 Ga7 3.077598 1_455
Er3 Ga7 3.077598 1_545
Er3 Ga11 3.085350 1_455
Er3 Ga11 3.085350 1_545
Er3 Ga15 3.108449 1_545
Er3 Ga15 3.108449 1_455
Er3 Pd4 3.203587 1_545
Er3 Pd4 3.203587 1_455
Er3 Ga5 3.418154 1_555
Er4 Pd3 3.062232 1_556
Er4 Ga1 3.068007 1_566
Er4 Ga1 3.068007 1_656
Er4 Pd0 3.077121 1_665
Er4 Ga4 3.077598 1_655
Er4 Ga4 3.077598 1_565
Er4 Ga8 3.085350 1_655
Er4 Ga8 3.085350 1_565
Er4 Ga12 3.108449 1_565
Er4 Ga12 3.108449 1_655
Er4 Pd4 3.203587 1_656
Er4 Pd4 3.203587 1_566
Er4 Ga6 3.418154 1_555
Er5 Pd2 3.025091 1_555
Er5 Pd1 3.037355 1_555
Er5 Ga13 3.037883 1_545
Er5 Ga13 3.037883 1_455
Er5 Ga9 3.074319 1_455
Er5 Ga9 3.074319 1_545
Er5 Ga0 3.091470 1_455
Er5 Ga0 3.091470 1_545
Er5 Ga5 3.102887 1_655
Er5 Ga5 3.102887 1_565
Er5 Ga16 3.275453 1_655
Er5 Ga16 3.275453 1_565
Er5 Ga3 3.368503 1_555
Er5 Ga7 3.437715 1_555
Ga0 Ga10 2.575768 1_655
Ga0 Ga10 2.575768 1_565
Ga0 Ga9 2.686522 1_555
Ga0 Ga16 2.719613 1_665
Ga0 Pd2 2.767021 1_565
Ga0 Pd2 2.767021 1_655
Ga1 Ga11 2.625689 1_545
Ga1 Ga11 2.625689 1_455
Ga1 Pd4 2.637273 1_555
Ga1 Pd3 2.689904 1_545
Ga1 Pd3 2.689904 1_455
Ga1 Ga8 2.703791 1_554
Ga2 Ga8 2.625689 1_565
Ga2 Ga8 2.625689 1_655
Ga2 Pd4 2.637273 1_556
Ga2 Pd0 2.689904 1_565
Ga2 Pd0 2.689904 1_655
Ga3 Ga9 2.575768 1_545
Ga3 Ga9 2.575768 1_455
Ga3 Pd1 2.767021 1_545
Ga3 Pd1 2.767021 1_455
Ga4 Pd4 2.626950 1_556
Ga4 Pd0 2.687420 1_565
Ga4 Pd0 2.687420 1_655
Ga5 Pd1 2.755774 1_545
Ga5 Pd1 2.755774 1_455
Ga6 Pd2 2.755774 1_565
Ga6 Pd2 2.755774 1_655
Ga7 Pd4 2.626950 1_555
Ga7 Pd3 2.687420 1_455
Ga7 Pd3 2.687420 1_545
Ga8 Pd0 2.563527 1_555
Ga9 Pd1 2.628922 1_555
Ga10 Ga14 2.537494 1_555
Ga10 Pd2 2.628922 1_555
Ga10 Ga3 2.686522 1_555
Ga11 Ga15 2.548441 1_555
Ga11 Pd3 2.563527 1_555
Ga11 Ga2 2.703791 1_554
Ga12 Ga8 2.548441 1_555
Ga12 Ga6 2.577803 1_545
Ga12 Ga6 2.577803 1_455
Ga12 Pd2 2.629924 1_555
Ga12 Ga4 2.743210 1_555
Ga13 Pd3 2.533942 1_555
Ga13 Ga9 2.537494 1_555
Ga13 Ga7 2.622304 1_655
Ga13 Ga7 2.622304 1_565
Ga13 Ga5 2.678248 1_665
Ga14 Pd0 2.533942 1_555
Ga14 Ga4 2.622304 1_545
Ga14 Ga4 2.622304 1_455
Ga14 Ga6 2.678248 1_445
Ga15 Ga5 2.577803 1_655
Ga15 Ga5 2.577803 1_565
Ga15 Pd1 2.629924 1_555
Ga15 Ga7 2.743210 1_555
Ga16 Ga6 2.701477 1_445
Ga16 Ga5 2.701477 1_555
Ga16 Ga3 2.719613 1_555
Ga16 Pd1 2.757414 1_545
Ga16 Pd1 2.757414 1_455
Ga16 Pd2 2.757414 1_545
Ga16 Pd2 2.757414 1_455
Pd0 Pd4 2.881592 1_546
Pd0 Pd4 2.881592 1_456
Pd3 Pd4 2.881592 1_655
Pd3 Pd4 2.881592 1_565
