# generated using pymatgen
data_K3Nb4Mo4(PO4)12
_symmetry_space_group_name_H-M   'P 1'
_cell_length_a   12.65660600
_cell_length_b   9.02434600
_cell_length_c   9.33531340
_cell_angle_alpha   89.77907287
_cell_angle_beta   90.00000000
_cell_angle_gamma   90.00000000
_symmetry_Int_Tables_number   1
_chemical_formula_structural   K3Nb4Mo4(PO4)12
_chemical_formula_sum   'K3 Nb4 Mo4 P12 O48'
_cell_volume   1066.24908789
_cell_formula_units_Z   1
loop_
 _symmetry_equiv_pos_site_id
 _symmetry_equiv_pos_as_xyz
  1  'x, y, z'
loop_
 _atom_site_type_symbol
 _atom_site_label
 _atom_site_symmetry_multiplicity
 _atom_site_fract_x
 _atom_site_fract_y
 _atom_site_fract_z
 _atom_site_occupancy
  K  K0  1  0.50000000  0.16873100  0.65681000  1
  K  K1  1  0.00000000  0.83661000  0.33482300  1
  K  K2  1  0.00000000  0.16361900  0.83596000  1
  Nb  Nb0  1  0.65046000  0.75440000  0.52337900  1
  Nb  Nb1  1  0.34973000  0.24533700  0.02633600  1
  Nb  Nb2  1  0.34954000  0.75440000  0.52337900  1
  Nb  Nb3  1  0.65027000  0.24533700  0.02633600  1
  Mo  Mo0  1  0.14684300  0.24839800  0.47207700  1
  Mo  Mo1  1  0.85301200  0.75102900  0.97198900  1
  Mo  Mo2  1  0.85315700  0.24839800  0.47207700  1
  Mo  Mo3  1  0.14698800  0.75102900  0.97198900  1
  P  P0  1  0.75067600  0.02887400  0.75069300  1
  P  P1  1  0.24906900  0.97136400  0.25036300  1
  P  P2  1  0.75093100  0.97136400  0.25036300  1
  P  P3  1  0.24932400  0.02887400  0.75069300  1
  P  P4  1  0.61831500  0.59799400  0.86684600  1
  P  P5  1  0.11673400  0.40258900  0.13191500  1
  P  P6  1  0.88355100  0.59661700  0.63246300  1
  P  P7  1  0.38095600  0.40291900  0.36653700  1
  P  P8  1  0.88326600  0.40258900  0.13191500  1
  P  P9  1  0.38168500  0.59799400  0.86684600  1
  P  P10  1  0.61904400  0.40291900  0.36653700  1
  P  P11  1  0.11644900  0.59661700  0.63246300  1
  O  O0  1  0.63015300  0.56896300  0.40126400  1
  O  O1  1  0.12678700  0.43397400  0.60079800  1
  O  O2  1  0.87359400  0.56582700  0.10127600  1
  O  O3  1  0.37110100  0.43019700  0.89988500  1
  O  O4  1  0.87321300  0.43397400  0.60079800  1
  O  O5  1  0.36984700  0.56896300  0.40126400  1
  O  O6  1  0.62889900  0.43019700  0.89988500  1
  O  O7  1  0.12640600  0.56582700  0.10127600  1
  O  O8  1  0.80989600  0.69802600  0.54196300  1
  O  O9  1  0.31597400  0.30026200  0.45998600  1
  O  O10  1  0.68680000  0.69688400  0.95672700  1
  O  O11  1  0.18917100  0.30254700  0.03978900  1
  O  O12  1  0.68402600  0.30026200  0.45998600  1
  O  O13  1  0.19010400  0.69802600  0.54196300  1
  O  O14  1  0.81082900  0.30254700  0.03978900  1
  O  O15  1  0.31320000  0.69688400  0.95672700  1
  O  O16  1  0.62871100  0.62336200  0.70377600  1
  O  O17  1  0.12648300  0.37862900  0.29099900  1
  O  O18  1  0.87468400  0.62033000  0.79139100  1
  O  O19  1  0.37068000  0.37815400  0.20541400  1
  O  O20  1  0.87351700  0.37862900  0.29099900  1
  O  O21  1  0.37128900  0.62336200  0.70377600  1
  O  O22  1  0.62932000  0.37815400  0.20541400  1
  O  O23  1  0.12531600  0.62033000  0.79139100  1
  O  O24  1  0.50000000  0.79043500  0.52164700  1
  O  O25  1  0.00000000  0.18434000  0.48946900  1
  O  O26  1  0.00000000  0.81506200  0.99158500  1
  O  O27  1  0.50000000  0.21155400  0.01734700  1
  O  O28  1  0.50000000  0.64436800  0.91051000  1
  O  O29  1  0.00000000  0.34628500  0.08051500  1
  O  O30  1  0.00000000  0.65313400  0.57912700  1
  O  O31  1  0.50000000  0.35569400  0.41268600  1
  O  O32  1  0.67576900  0.93244500  0.65384600  1
  O  O33  1  0.17711000  0.06237200  0.34522400  1
  O  O34  1  0.82294500  0.93776600  0.84549500  1
  O  O35  1  0.32246300  0.07111300  0.15449700  1
  O  O36  1  0.82289000  0.06237200  0.34522400  1
  O  O37  1  0.32423100  0.93244500  0.65384600  1
  O  O38  1  0.67753700  0.07111300  0.15449700  1
  O  O39  1  0.17705500  0.93776600  0.84549500  1
  O  O40  1  0.67660400  0.87547200  0.35094900  1
  O  O41  1  0.18070000  0.13141700  0.66166300  1
  O  O42  1  0.81849300  0.86847900  0.16182100  1
  O  O43  1  0.32619900  0.12455200  0.84581900  1
  O  O44  1  0.81930000  0.13141700  0.66166300  1
  O  O45  1  0.32339600  0.87547200  0.35094900  1
  O  O46  1  0.67380100  0.12455200  0.84581900  1
  O  O47  1  0.18150700  0.86847900  0.16182100  1
loop_
_geom_bond_atom_site_label_1
_geom_bond_atom_site_label_2
_geom_bond_distance
_geom_bond_site_symmetry_2
K0 O31 2.830332 1_555
K0 O43 2.847043 1_555
K0 O46 2.847043 1_555
K0 O32 3.081729 1_545
K0 O37 3.081729 1_545
K0 O9 3.192665 1_555
K0 O12 3.192665 1_555
K1 O30 2.813143 1_555
K1 O42 2.822208 1_455
K1 O47 2.822208 1_555
K1 O33 3.030939 1_565
K1 O36 3.030939 1_465
K1 O26 3.210878 1_554
K1 O13 3.327742 1_555
K1 O8 3.327742 1_455
K2 O29 2.821074 1_556
K2 O44 2.822445 1_455
K2 O41 2.822445 1_555
K2 O34 3.030245 1_445
K2 O39 3.030245 1_545
K2 O25 3.239283 1_555
K2 O11 3.308084 1_556
K2 O14 3.308084 1_456
Nb0 O24 1.931937 1_555
Nb0 O40 1.969972 1_555
Nb0 O0 2.044690 1_555
Nb0 O32 2.045169 1_555
Nb0 O16 2.072405 1_555
Nb0 O8 2.088116 1_555
Nb1 O27 1.928066 1_555
Nb1 O35 2.002003 1_555
Nb1 O43 2.032441 1_554
Nb1 O3 2.057787 1_554
Nb1 O19 2.077767 1_555
Nb1 O11 2.100567 1_555
Nb2 O24 1.931937 1_555
Nb2 O45 1.969972 1_555
Nb2 O5 2.044690 1_555
Nb2 O37 2.045169 1_555
Nb2 O21 2.072405 1_555
Nb2 O13 2.088116 1_555
Nb3 O27 1.928066 1_555
Nb3 O38 2.002003 1_555
Nb3 O46 2.032441 1_554
Nb3 O6 2.057787 1_554
Nb3 O22 2.077767 1_555
Nb3 O14 2.100567 1_555
Mo0 O25 1.952937 1_555
Mo0 O17 2.071187 1_555
Mo0 O1 2.080516 1_555
Mo0 O33 2.093486 1_555
Mo0 O41 2.101433 1_555
Mo0 O9 2.194007 1_555
Mo1 O26 1.956827 1_655
Mo1 O2 2.074205 1_556
Mo1 O18 2.079452 1_555
Mo1 O34 2.088955 1_555
Mo1 O42 2.114061 1_556
Mo1 O10 2.164499 1_555
Mo2 O25 1.952937 1_655
Mo2 O20 2.071187 1_555
Mo2 O4 2.080516 1_555
Mo2 O36 2.093486 1_555
Mo2 O44 2.101433 1_555
Mo2 O12 2.194007 1_555
Mo3 O26 1.956827 1_555
Mo3 O7 2.074205 1_556
Mo3 O23 2.079452 1_555
Mo3 O39 2.088955 1_555
Mo3 O47 2.114061 1_556
Mo3 O15 2.164499 1_555
O0 P10 1.540757 1_555
O1 P11 1.504037 1_555
O2 P8 1.504532 1_555
O3 P9 1.549984 1_555
O4 P6 1.504037 1_555
O5 P7 1.540757 1_555
O6 P4 1.549984 1_555
O7 P5 1.504532 1_555
O8 P6 1.553815 1_555
O9 P7 1.513101 1_555
O10 P4 1.502511 1_555
O11 P5 1.549593 1_555
O12 P10 1.513101 1_555
O13 P11 1.553815 1_555
O14 P8 1.549593 1_555
O15 P9 1.502511 1_555
O16 P4 1.544170 1_555
O17 P5 1.504998 1_555
O18 P6 1.504005 1_555
O19 P7 1.527047 1_555
O20 P8 1.504998 1_555
O21 P9 1.544170 1_555
O22 P10 1.527047 1_555
O23 P11 1.504005 1_555
O28 P4 1.607797 1_555
O28 P9 1.607797 1_555
O29 P8 1.634984 1_455
O29 P5 1.634984 1_555
O30 P6 1.636556 1_455
O30 P11 1.636556 1_555
O31 P7 1.623556 1_555
O31 P10 1.623556 1_555
O32 P0 1.574660 1_565
O33 P1 1.514533 1_545
O34 P0 1.513361 1_565
O35 P1 1.570955 1_545
O36 P2 1.514533 1_545
O37 P3 1.574660 1_565
O38 P2 1.570955 1_545
O39 P3 1.513361 1_565
O40 P2 1.584070 1_555
O41 P3 1.515105 1_555
O42 P2 1.510759 1_555
O43 P3 1.576930 1_555
O44 P0 1.515105 1_555
O45 P1 1.584070 1_555
O46 P0 1.576930 1_555
O47 P1 1.510759 1_555
