# generated using pymatgen
data_Fe3O4
_symmetry_space_group_name_H-M   'P 1'
_cell_length_a   6.04656255
_cell_length_b   10.49934468
_cell_length_c   6.03521650
_cell_angle_alpha   73.56067705
_cell_angle_beta   119.77440423
_cell_angle_gamma   89.78260488
_symmetry_Int_Tables_number   1
_chemical_formula_structural   Fe3O4
_chemical_formula_sum   'Fe12 O16'
_cell_volume   314.14005150
_cell_formula_units_Z   4
loop_
 _symmetry_equiv_pos_site_id
 _symmetry_equiv_pos_as_xyz
  1  'x, y, z'
loop_
 _atom_site_type_symbol
 _atom_site_label
 _atom_site_symmetry_multiplicity
 _atom_site_fract_x
 _atom_site_fract_y
 _atom_site_fract_z
 _atom_site_occupancy
  Fe  Fe0  1  0.50001700  0.00000400  0.50001000  1
  Fe  Fe1  1  0.99999800  0.00000500  0.49999900  1
  Fe  Fe2  1  0.00000400  0.50000300  0.00000600  1
  Fe  Fe3  1  0.25361700  0.25081900  0.50403900  1
  Fe  Fe4  1  0.74638100  0.74917900  0.49596200  1
  Fe  Fe5  1  0.93554400  0.19038800  0.87591300  1
  Fe  Fe6  1  0.43305000  0.69120800  0.87201400  1
  Fe  Fe7  1  0.06445400  0.80961100  0.12408600  1
  Fe  Fe8  1  0.56694600  0.30879400  0.12798300  1
  Fe  Fe9  1  0.99999600  0.50000000  0.49999300  1
  Fe  Fe10  1  0.50001300  0.49999400  0.50000800  1
  Fe  Fe11  1  0.49999900  0.99999800  0.00000100  1
  O  O0  1  0.87660100  0.38386200  0.75469500  1
  O  O1  1  0.35849000  0.88304500  0.74062700  1
  O  O2  1  0.12339900  0.61613800  0.24530300  1
  O  O3  1  0.64150800  0.11695600  0.25936900  1
  O  O4  1  0.89282400  0.37568300  0.24592100  1
  O  O5  1  0.39238600  0.87057900  0.26914700  1
  O  O6  1  0.63090000  0.63193800  0.26000000  1
  O  O7  1  0.12218700  0.12317800  0.26680400  1
  O  O8  1  0.36909700  0.36806200  0.73999700  1
  O  O9  1  0.87781000  0.87682100  0.73319300  1
  O  O10  1  0.64651700  0.62604500  0.75509400  1
  O  O11  1  0.11975400  0.12618900  0.72806200  1
  O  O12  1  0.10717400  0.62431700  0.75407800  1
  O  O13  1  0.60761100  0.12942000  0.73085200  1
  O  O14  1  0.35348000  0.37395400  0.24490600  1
  O  O15  1  0.88024300  0.87381000  0.27193800  1
loop_
_geom_bond_atom_site_label_1
_geom_bond_atom_site_label_2
_geom_bond_distance
_geom_bond_site_symmetry_2
Fe0 O13 2.094869 1_555
Fe0 O5 2.095032 1_545
Fe0 O3 2.140466 1_555
Fe0 O1 2.140551 1_545
Fe0 O9 2.150826 1_545
Fe0 O7 2.150945 1_555
Fe1 O3 2.039476 1_555
Fe1 O1 2.039522 1_645
Fe1 O7 2.051546 1_655
Fe1 O9 2.051588 1_545
Fe1 O11 2.055139 1_655
Fe1 O15 2.055227 1_545
Fe2 O2 2.041253 1_555
Fe2 O0 2.041364 1_454
Fe2 O12 2.047342 1_554
Fe2 O4 2.047356 1_455
Fe2 O14 2.058667 1_555
Fe2 O10 2.058682 1_454
Fe3 O8 2.010458 1_555
Fe3 O13 2.040028 1_555
Fe3 O14 2.069134 1_555
Fe3 O11 2.070977 1_555
Fe3 O4 2.086092 1_455
Fe3 O7 2.107497 1_555
Fe4 O6 2.010458 1_555
Fe4 O5 2.040037 1_555
Fe4 O10 2.069130 1_555
Fe4 O15 2.070981 1_555
Fe4 O12 2.086083 1_655
Fe4 O9 2.107489 1_555
Fe5 O0 1.919124 1_555
Fe5 O13 1.926319 1_555
Fe5 O7 1.935074 1_656
Fe5 O11 1.952698 1_655
Fe6 O1 1.903407 1_555
Fe6 O6 1.920645 1_556
Fe6 O12 1.944986 1_555
Fe6 O10 1.950167 1_555
Fe7 O2 1.919114 1_555
Fe7 O5 1.926314 1_555
Fe7 O9 1.935084 1_454
Fe7 O15 1.952708 1_455
Fe8 O3 1.903417 1_555
Fe8 O8 1.920645 1_554
Fe8 O4 1.944986 1_555
Fe8 O14 1.950162 1_555
Fe9 O2 2.119313 1_655
Fe9 O0 2.119332 1_555
Fe9 O4 2.151095 1_555
Fe9 O12 2.151150 1_655
Fe9 O6 2.151295 1_555
Fe9 O8 2.151315 1_655
Fe10 O0 2.115742 1_555
Fe10 O2 2.115904 1_555
Fe10 O8 2.157469 1_555
Fe10 O6 2.157480 1_555
Fe10 O14 2.171147 1_555
Fe10 O10 2.171165 1_555
Fe11 O1 2.110926 1_554
Fe11 O3 2.110942 1_565
Fe11 O5 2.171513 1_555
Fe11 O13 2.171535 1_564
Fe11 O15 2.175681 1_555
Fe11 O11 2.175698 1_564
