# generated using pymatgen
data_Ho3Fe29
_symmetry_space_group_name_H-M   'P 1'
_cell_length_a   6.33977754
_cell_length_b   6.33977754
_cell_length_c   10.40718698
_cell_angle_alpha   84.65182155
_cell_angle_beta   84.65182155
_cell_angle_gamma   82.41451902
_symmetry_Int_Tables_number   1
_chemical_formula_structural   Ho3Fe29
_chemical_formula_sum   'Ho3 Fe29'
_cell_volume   411.43883491
_cell_formula_units_Z   1
loop_
 _symmetry_equiv_pos_site_id
 _symmetry_equiv_pos_as_xyz
  1  'x, y, z'
loop_
 _atom_site_type_symbol
 _atom_site_label
 _atom_site_symmetry_multiplicity
 _atom_site_fract_x
 _atom_site_fract_y
 _atom_site_fract_z
 _atom_site_occupancy
  Ho  Ho0  1  0.00000000  0.00000000  0.00000000  1
  Ho  Ho1  1  0.18531900  0.18531900  0.40550400  1
  Ho  Ho2  1  0.81468100  0.81468100  0.59449600  1
  Fe  Fe0  1  0.50000000  0.50000000  0.50000000  1
  Fe  Fe1  1  0.29467500  0.29467500  0.86296900  1
  Fe  Fe2  1  0.70532500  0.70532500  0.13703100  1
  Fe  Fe3  1  0.52307700  0.52307700  0.74404800  1
  Fe  Fe4  1  0.47692300  0.47692300  0.25595200  1
  Fe  Fe5  1  0.30425900  0.87581800  0.20215600  1
  Fe  Fe6  1  0.12418200  0.69574100  0.79784400  1
  Fe  Fe7  1  0.69574100  0.12418200  0.79784400  1
  Fe  Fe8  1  0.87581800  0.30425900  0.20215600  1
  Fe  Fe9  1  0.54521200  0.81912100  0.37291900  1
  Fe  Fe10  1  0.18087900  0.45478800  0.62708100  1
  Fe  Fe11  1  0.45478800  0.18087900  0.62708100  1
  Fe  Fe12  1  0.81912100  0.54521200  0.37291900  1
  Fe  Fe13  1  0.64269700  0.35730300  0.00000000  1
  Fe  Fe14  1  0.35730300  0.64269700  0.00000000  1
  Fe  Fe15  1  0.27668100  0.27668100  0.11204100  1
  Fe  Fe16  1  0.72331900  0.72331900  0.88795900  1
  Fe  Fe17  1  0.09378400  0.59129400  0.20055100  1
  Fe  Fe18  1  0.40870600  0.90621600  0.79944900  1
  Fe  Fe19  1  0.90621600  0.40870600  0.79944900  1
  Fe  Fe20  1  0.59129400  0.09378400  0.20055100  1
  Fe  Fe21  1  0.90555600  0.90555600  0.29479500  1
  Fe  Fe22  1  0.09444400  0.09444400  0.70520500  1
  Fe  Fe23  1  0.32307400  0.81598300  0.59116500  1
  Fe  Fe24  1  0.18401700  0.67692600  0.40883500  1
  Fe  Fe25  1  0.67692600  0.18401700  0.40883500  1
  Fe  Fe26  1  0.81598300  0.32307400  0.59116500  1
  Fe  Fe27  1  0.00000000  0.50000000  0.00000000  1
  Fe  Fe28  1  0.50000000  0.00000000  0.00000000  1
loop_
_geom_bond_atom_site_label_1
_geom_bond_atom_site_label_2
_geom_bond_distance
_geom_bond_site_symmetry_2
Fe0 Fe9 2.346936 1_555
Fe0 Fe12 2.346936 1_555
Fe0 Fe10 2.346936 1_555
Fe0 Fe11 2.346936 1_555
Fe0 Fe23 2.394590 1_555
Fe0 Fe26 2.394590 1_555
Fe0 Fe24 2.394590 1_555
Fe0 Fe25 2.394590 1_555
Fe0 Fe3 2.576403 1_555
Fe0 Fe4 2.576403 1_555
Fe0 Ho2 3.272540 1_555
Fe0 Ho1 3.272540 1_555
Fe1 Fe3 2.368682 1_555
Fe1 Fe28 2.534896 1_556
Fe1 Fe27 2.534896 1_556
Fe1 Fe15 2.576509 1_556
Fe1 Fe18 2.601750 1_545
Fe1 Fe19 2.601750 1_455
Fe1 Fe22 2.668543 1_555
Fe1 Fe6 2.680032 1_555
Fe1 Fe7 2.680032 1_555
Fe1 Fe11 2.692551 1_555
Fe1 Fe10 2.692551 1_555
Fe1 Fe14 2.825412 1_556
Fe1 Fe13 2.825412 1_556
Fe1 Ho0 2.990325 1_556
Fe2 Fe4 2.368682 1_555
Fe2 Fe28 2.534896 1_565
Fe2 Fe27 2.534896 1_655
Fe2 Fe20 2.601750 1_565
Fe2 Fe21 2.668543 1_555
Fe2 Fe5 2.680032 1_555
Fe2 Fe8 2.680032 1_555
Fe2 Fe9 2.692551 1_555
Fe2 Ho0 2.990325 1_665
Fe3 Fe7 2.650761 1_555
Fe3 Fe6 2.650761 1_555
Fe3 Ho2 3.014530 1_555
Fe4 Fe5 2.650761 1_555
Fe4 Fe8 2.650761 1_555
Fe4 Fe9 2.685948 1_555
Fe4 Ho1 3.014530 1_555
Fe5 Fe9 2.421377 1_555
Fe5 Ho0 2.968790 1_565
Fe5 Ho1 2.997220 1_565
Fe6 Ho0 2.968790 1_566
Fe6 Ho2 2.997220 1_455
Fe7 Ho0 2.968790 1_656
Fe7 Ho2 2.997220 1_545
Fe8 Ho0 2.968790 1_655
Fe8 Ho1 2.997220 1_655
Fe9 Ho2 2.991074 1_555
Fe9 Ho1 3.052019 1_565
Fe10 Fe11 2.287989 1_555
Fe10 Fe19 2.406190 1_455
Fe10 Fe6 2.421377 1_555
Fe10 Fe22 2.466064 1_555
Fe10 Fe23 2.553162 1_555
Fe10 Fe24 2.558384 1_555
Fe10 Fe26 2.630211 1_455
Fe10 Fe3 2.685948 1_555
Fe10 Ho1 2.991074 1_555
Fe10 Ho2 3.052019 1_455
Fe11 Fe18 2.406190 1_545
Fe11 Fe7 2.421377 1_555
Fe11 Fe22 2.466064 1_555
Fe11 Fe26 2.553162 1_555
Fe11 Fe25 2.558384 1_555
Fe11 Fe23 2.630211 1_545
Fe11 Fe3 2.685948 1_555
Fe11 Ho1 2.991074 1_555
Fe11 Ho2 3.052019 1_545
Fe12 Fe9 2.287989 1_555
Fe12 Fe17 2.406190 1_655
Fe12 Fe8 2.421377 1_555
Fe12 Fe21 2.466064 1_555
Fe12 Fe25 2.553162 1_555
Fe12 Fe26 2.558384 1_555
Fe12 Fe24 2.630211 1_655
Fe12 Fe4 2.685948 1_555
Fe12 Fe2 2.692551 1_555
Fe12 Ho2 2.991074 1_555
Fe12 Ho1 3.052019 1_655
Fe13 Fe14 2.383924 1_555
Fe13 Fe28 2.547681 1_555
Fe13 Fe27 2.547681 1_655
Fe13 Fe19 2.573030 1_554
Fe13 Fe20 2.573030 1_555
Fe13 Fe16 2.589025 1_554
Fe13 Fe15 2.589025 1_555
Fe13 Fe8 2.653339 1_555
Fe13 Fe7 2.653339 1_554
Fe13 Fe2 2.825412 1_555
Fe13 Fe4 2.901629 1_555
Fe13 Fe3 2.901629 1_554
Fe13 Ho0 2.984587 1_655
Fe14 Fe27 2.547681 1_555
Fe14 Fe28 2.547681 1_565
Fe14 Fe18 2.573030 1_554
Fe14 Fe17 2.573030 1_555
Fe14 Fe16 2.589025 1_554
Fe14 Fe15 2.589025 1_555
Fe14 Fe5 2.653339 1_555
Fe14 Fe6 2.653339 1_554
Fe14 Fe2 2.825412 1_555
Fe14 Fe4 2.901629 1_555
Fe14 Fe3 2.901629 1_554
Fe14 Ho0 2.984587 1_565
Fe15 Fe20 2.388333 1_555
Fe15 Fe17 2.388333 1_555
Fe15 Fe27 2.420503 1_555
Fe15 Fe28 2.420503 1_555
Fe15 Fe4 2.569182 1_555
Fe15 Fe5 2.614899 1_545
Fe15 Fe8 2.614899 1_455
Fe15 Ho0 3.014667 1_555
Fe15 Ho1 3.070455 1_555
Fe16 Fe18 2.388333 1_555
Fe16 Fe19 2.388333 1_555
Fe16 Fe28 2.420503 1_566
Fe16 Fe27 2.420503 1_656
Fe16 Fe3 2.569182 1_555
Fe16 Fe2 2.576509 1_556
Fe16 Fe6 2.614899 1_655
Fe16 Fe7 2.614899 1_565
Fe16 Ho0 3.014667 1_666
Fe16 Ho2 3.070455 1_555
Fe17 Fe27 2.364778 1_555
Fe17 Fe5 2.383234 1_555
Fe17 Fe24 2.419341 1_555
Fe17 Fe21 2.423610 1_455
Fe17 Fe8 2.423874 1_455
Fe17 Fe4 2.544888 1_555
Fe17 Fe2 2.601750 1_455
Fe17 Ho0 3.200012 1_565
Fe17 Ho1 3.213068 1_555
Fe18 Fe28 2.364778 1_566
Fe18 Fe6 2.383234 1_555
Fe18 Fe23 2.419341 1_555
Fe18 Fe22 2.423610 1_565
Fe18 Fe7 2.423874 1_565
Fe18 Fe3 2.544888 1_555
Fe18 Ho0 3.200012 1_566
Fe18 Ho2 3.213068 1_555
Fe19 Fe27 2.364778 1_656
Fe19 Fe7 2.383234 1_555
Fe19 Fe26 2.419341 1_555
Fe19 Fe22 2.423610 1_655
Fe19 Fe6 2.423874 1_655
Fe19 Fe3 2.544888 1_555
Fe19 Ho0 3.200012 1_656
Fe19 Ho2 3.213068 1_555
Fe20 Fe28 2.364778 1_555
Fe20 Fe8 2.383234 1_555
Fe20 Fe9 2.406190 1_545
Fe20 Fe25 2.419341 1_555
Fe20 Fe21 2.423610 1_545
Fe20 Fe5 2.423874 1_545
Fe20 Fe4 2.544888 1_555
Fe20 Ho0 3.200012 1_655
Fe20 Ho1 3.213068 1_555
Fe21 Fe25 2.453655 1_565
Fe21 Fe24 2.453655 1_655
Fe21 Fe9 2.466064 1_555
Fe21 Fe5 2.609223 1_655
Fe21 Fe8 2.609223 1_565
Fe21 Ho1 3.035040 1_665
Fe21 Ho0 3.088580 1_665
Fe21 Ho2 3.132084 1_555
Fe22 Fe26 2.453655 1_455
Fe22 Fe23 2.453655 1_545
Fe22 Fe6 2.609223 1_545
Fe22 Fe7 2.609223 1_455
Fe22 Ho2 3.035040 1_445
Fe22 Ho0 3.088580 1_556
Fe22 Ho1 3.132084 1_555
Fe23 Fe24 2.446212 1_555
Fe23 Fe6 2.498028 1_555
Fe23 Fe9 2.558384 1_555
Fe23 Fe3 2.606007 1_555
Fe23 Ho1 2.984979 1_565
Fe23 Ho2 3.119015 1_555
Fe23 Ho2 3.221145 1_455
Fe24 Fe5 2.498028 1_555
Fe24 Fe9 2.553162 1_555
Fe24 Fe4 2.606007 1_555
Fe24 Ho2 2.984979 1_455
Fe24 Ho1 3.119015 1_555
Fe24 Ho1 3.221145 1_565
Fe25 Fe26 2.446212 1_555
Fe25 Fe8 2.498028 1_555
Fe25 Fe4 2.606007 1_555
Fe25 Fe9 2.630211 1_545
Fe25 Ho2 2.984979 1_545
Fe25 Ho1 3.119015 1_555
Fe25 Ho1 3.221145 1_655
Fe26 Fe7 2.498028 1_555
Fe26 Fe3 2.606007 1_555
Fe26 Ho1 2.984979 1_655
Fe26 Ho2 3.119015 1_555
Fe26 Ho2 3.221145 1_545
Fe27 Fe6 2.459379 1_554
Fe27 Fe8 2.459379 1_455
Fe27 Ho0 3.169889 1_565
Fe27 Ho0 3.169889 1_555
Fe28 Fe7 2.459379 1_554
Fe28 Fe5 2.459379 1_545
Fe28 Ho0 3.169889 1_655
Fe28 Ho0 3.169889 1_555
