# generated using pymatgen
data_Na3Ni2P2(CO7)2
_symmetry_space_group_name_H-M   'P 1'
_cell_length_a   17.88137729
_cell_length_b   5.17771104
_cell_length_c   6.56469252
_cell_angle_alpha   90.00000000
_cell_angle_beta   90.00000000
_cell_angle_gamma   88.59882229
_symmetry_Int_Tables_number   1
_chemical_formula_structural   Na3Ni2P2(CO7)2
_chemical_formula_sum   'Na6 Ni4 P4 C4 O28'
_cell_volume   607.60772485
_cell_formula_units_Z   2
loop_
 _symmetry_equiv_pos_site_id
 _symmetry_equiv_pos_as_xyz
  1  'x, y, z'
loop_
 _atom_site_type_symbol
 _atom_site_label
 _atom_site_symmetry_multiplicity
 _atom_site_fract_x
 _atom_site_fract_y
 _atom_site_fract_z
 _atom_site_occupancy
  Na  Na0  1  0.12654142  0.24120184  0.02782385  1
  Na  Na1  1  0.37425498  0.75898967  0.51036934  1
  Na  Na2  1  0.37575418  0.75847505  0.98578784  1
  Na  Na3  1  0.62654142  0.24120184  0.47217615  1
  Na  Na4  1  0.87575418  0.75847505  0.51421216  1
  Na  Na5  1  0.87425498  0.75898967  0.98963066  1
  Ni  Ni0  1  0.17304985  0.78355433  0.73983868  1
  Ni  Ni1  1  0.32478806  0.22007175  0.24595007  1
  Ni  Ni2  1  0.67304985  0.78355433  0.76016132  1
  Ni  Ni3  1  0.82478806  0.22007175  0.25404993  1
  P  P0  1  0.21217017  0.71633775  0.24636104  1
  P  P1  1  0.28659884  0.28132578  0.74684452  1
  P  P2  1  0.71217017  0.71633775  0.25363896  1
  P  P3  1  0.78659884  0.28132578  0.75315548  1
  C  C0  1  0.03640838  0.71179371  0.75303021  1
  C  C1  1  0.46147197  0.28372058  0.24967955  1
  C  C2  1  0.53640838  0.71179371  0.74696979  1
  C  C3  1  0.96147197  0.28372058  0.25032045  1
  O  O0  1  0.03022425  0.31769206  0.24775483  1
  O  O1  1  0.06559239  0.93824185  0.75185314  1
  O  O2  1  0.08657198  0.52566912  0.75258381  1
  O  O3  1  0.16308774  0.79459189  0.06092613  1
  O  O4  1  0.16484400  0.78563350  0.43488081  1
  O  O5  1  0.21211602  0.13841722  0.75770795  1
  O  O6  1  0.23044676  0.42098924  0.23550376  1
  O  O7  1  0.27076130  0.58124520  0.74654704  1
  O  O8  1  0.28769325  0.85816749  0.24600733  1
  O  O9  1  0.33350279  0.20459735  0.55781454  1
  O  O10  1  0.33633195  0.21039807  0.93338669  1
  O  O11  1  0.41197782  0.47463442  0.24809818  1
  O  O12  1  0.43154107  0.05696231  0.24885962  1
  O  O13  1  0.46691387  0.67627582  0.74609278  1
  O  O14  1  0.53022425  0.31769206  0.25224517  1
  O  O15  1  0.56559239  0.93824185  0.74814686  1
  O  O16  1  0.58657298  0.52566912  0.74741619  1
  O  O17  1  0.66484400  0.78563350  0.06511919  1
  O  O18  1  0.66308774  0.79459189  0.43907387  1
  O  O19  1  0.71211602  0.13841722  0.74229205  1
  O  O20  1  0.73044676  0.42098924  0.26449624  1
  O  O21  1  0.77076130  0.58124520  0.75345296  1
  O  O22  1  0.78769325  0.85816749  0.25399267  1
  O  O23  1  0.83633195  0.21039807  0.56661331  1
  O  O24  1  0.83350279  0.20459735  0.94218546  1
  O  O25  1  0.91197782  0.47463442  0.25190182  1
  O  O26  1  0.93154107  0.05696231  0.25114038  1
  O  O27  1  0.96691387  0.67627582  0.75390722  1
loop_
_geom_bond_atom_site_label_1
_geom_bond_atom_site_label_2
_geom_bond_distance
_geom_bond_site_symmetry_2
Na0 O0 2.274698 1_555
Na0 O5 2.393579 1_554
Na0 O3 2.397426 1_545
Na0 O2 2.427652 1_554
Na0 O6 2.502384 1_555
Na0 O1 2.648422 1_544
Na1 O13 2.299681 1_555
Na1 O11 2.353397 1_555
Na1 O8 2.373278 1_555
Na1 O9 2.422622 1_565
Na1 O12 2.540480 1_565
Na1 O7 2.599781 1_555
Na2 O13 2.297888 1_555
Na2 O11 2.344801 1_556
Na2 O8 2.371575 1_556
Na2 O10 2.451498 1_565
Na2 O12 2.538008 1_566
Na2 O7 2.630138 1_555
Na3 O14 2.274698 1_555
Na3 O19 2.393579 1_555
Na3 O18 2.397426 1_545
Na3 O16 2.427647 1_555
Na3 O20 2.502384 1_555
Na3 O15 2.648422 1_545
Na4 O27 2.297888 1_555
Na4 O25 2.344801 1_555
Na4 O22 2.371575 1_555
Na4 O23 2.451498 1_565
Na4 O26 2.538008 1_565
Na4 O21 2.630138 1_555
Na5 O27 2.299681 1_555
Na5 O25 2.353397 1_556
Na5 O22 2.373278 1_556
Na5 O24 2.422622 1_565
Na5 O26 2.540480 1_566
Na5 O21 2.599781 1_555
Ni0 O5 1.985062 1_565
Ni0 O4 2.007334 1_555
Ni0 O7 2.015551 1_555
Ni0 O1 2.065080 1_555
Ni0 O2 2.069315 1_555
Ni0 O3 2.116008 1_556
Ni1 O6 1.961350 1_555
Ni1 O8 2.003003 1_545
Ni1 O9 2.054631 1_555
Ni1 O10 2.062725 1_554
Ni1 O11 2.066075 1_555
Ni1 O12 2.068484 1_555
Ni2 O19 1.985062 1_565
Ni2 O17 2.007334 1_556
Ni2 O21 2.015551 1_555
Ni2 O15 2.065080 1_555
Ni2 O16 2.069301 1_555
Ni2 O18 2.116008 1_555
Ni3 O20 1.961350 1_555
Ni3 O22 2.003003 1_545
Ni3 O24 2.054631 1_554
Ni3 O23 2.062725 1_555
Ni3 O25 2.066075 1_555
Ni3 O26 2.068484 1_555
C0 O27 1.260645 1_455
C0 O1 1.295001 1_555
C0 O2 1.300403 1_555
C1 O14 1.246269 1_555
C1 O12 1.302187 1_555
C1 O11 1.310617 1_555
C2 O13 1.260645 1_555
C2 O15 1.295001 1_555
C2 O16 1.300415 1_555
C3 O0 1.246269 1_655
C3 O26 1.302187 1_555
C3 O25 1.310617 1_555
O3 P0 1.548852 1_555
O4 P0 1.536758 1_555
O5 P1 1.540984 1_555
O6 P0 1.557558 1_555
O7 P1 1.571682 1_555
O8 P0 1.552905 1_555
O9 P1 1.544298 1_555
O10 P1 1.552214 1_555
O17 P2 1.536758 1_555
O18 P2 1.548852 1_555
O19 P3 1.540984 1_555
O20 P2 1.557558 1_555
O21 P3 1.571682 1_555
O22 P2 1.552905 1_555
O23 P3 1.552214 1_555
O24 P3 1.544298 1_555
