# generated using pymatgen
data_Mg3Cu2(AsO4)3
_symmetry_space_group_name_H-M   'P 1'
_cell_length_a   8.88492333
_cell_length_b   8.88492333
_cell_length_c   6.82331810
_cell_angle_alpha   74.61958978
_cell_angle_beta   74.61958978
_cell_angle_gamma   94.50041421
_symmetry_Int_Tables_number   1
_chemical_formula_structural   Mg3Cu2(AsO4)3
_chemical_formula_sum   'Mg6 Cu4 As6 O24'
_cell_volume   494.29735546
_cell_formula_units_Z   2
loop_
 _symmetry_equiv_pos_site_id
 _symmetry_equiv_pos_as_xyz
  1  'x, y, z'
loop_
 _atom_site_type_symbol
 _atom_site_label
 _atom_site_symmetry_multiplicity
 _atom_site_fract_x
 _atom_site_fract_y
 _atom_site_fract_z
 _atom_site_occupancy
  Mg  Mg0  1  0.74335400  0.25664500  0.25000000  1
  Mg  Mg1  1  0.25664500  0.74335500  0.75000000  1
  Mg  Mg2  1  0.62930900  0.94414100  0.12051700  1
  Mg  Mg3  1  0.37069100  0.05585900  0.87948300  1
  Mg  Mg4  1  0.05585900  0.37069100  0.37948300  1
  Mg  Mg5  1  0.94414100  0.62930900  0.62051700  1
  Cu  Cu0  1  0.00000000  0.00000000  0.00000000  1
  Cu  Cu1  1  0.00000000  0.00000000  0.50000000  1
  Cu  Cu2  1  0.49701100  0.50298900  0.25000000  1
  Cu  Cu3  1  0.50298900  0.49701100  0.75000000  1
  As  As0  1  0.35000700  0.11443700  0.37653700  1
  As  As1  1  0.64999300  0.88556300  0.62346300  1
  As  As2  1  0.88556300  0.64999300  0.12346300  1
  As  As3  1  0.11443700  0.35000700  0.87653700  1
  As  As4  1  0.28691100  0.71308900  0.25000000  1
  As  As5  1  0.71308900  0.28691100  0.75000000  1
  O  O0  1  0.25139400  0.81940200  0.02171300  1
  O  O1  1  0.74860600  0.18059800  0.97828700  1
  O  O2  1  0.18059800  0.74860600  0.47828700  1
  O  O3  1  0.81940200  0.25139400  0.52171300  1
  O  O4  1  0.49517400  0.27566900  0.31455200  1
  O  O5  1  0.50482600  0.72433100  0.68544800  1
  O  O6  1  0.72433100  0.50482600  0.18544800  1
  O  O7  1  0.27566900  0.49517400  0.81455200  1
  O  O8  1  0.82836200  0.83419300  0.11143200  1
  O  O9  1  0.17163800  0.16580700  0.88856800  1
  O  O10  1  0.16580700  0.17163800  0.38856800  1
  O  O11  1  0.83419300  0.82836200  0.61143200  1
  O  O12  1  0.66616300  0.01144800  0.37734500  1
  O  O13  1  0.33383700  0.98855200  0.62265500  1
  O  O14  1  0.98855200  0.33383700  0.12265500  1
  O  O15  1  0.01144800  0.66616300  0.87734500  1
  O  O16  1  0.40432100  0.02543400  0.17948700  1
  O  O17  1  0.59567900  0.97456600  0.82051300  1
  O  O18  1  0.97456600  0.59567900  0.32051300  1
  O  O19  1  0.02543400  0.40432100  0.67948700  1
  O  O20  1  0.48818800  0.72597900  0.23517200  1
  O  O21  1  0.51181200  0.27402100  0.76482800  1
  O  O22  1  0.27402100  0.51181200  0.26482800  1
  O  O23  1  0.72597900  0.48818800  0.73517200  1
loop_
_geom_bond_atom_site_label_1
_geom_bond_atom_site_label_2
_geom_bond_distance
_geom_bond_site_symmetry_2
Mg0 O12 2.101610 1_555
Mg0 O14 2.101619 1_555
Mg0 O1 2.125915 1_554
Mg0 O3 2.125921 1_555
Mg0 O4 2.160475 1_555
Mg0 O6 2.160482 1_555
Mg1 O15 2.101611 1_555
Mg1 O13 2.101611 1_555
Mg1 O0 2.125917 1_556
Mg1 O2 2.125917 1_555
Mg1 O5 2.160483 1_555
Mg1 O7 2.160483 1_555
Mg2 O20 2.057972 1_555
Mg2 O8 2.081123 1_555
Mg2 O12 2.089348 1_565
Mg2 O17 2.096725 1_554
Mg2 O1 2.121899 1_564
Mg2 O16 2.152599 1_565
Mg3 O21 2.057972 1_555
Mg3 O9 2.081123 1_555
Mg3 O13 2.089348 1_545
Mg3 O16 2.096725 1_556
Mg3 O0 2.121899 1_546
Mg3 O17 2.152599 1_545
Mg4 O22 2.057972 1_555
Mg4 O10 2.081123 1_555
Mg4 O14 2.089348 1_455
Mg4 O19 2.096725 1_555
Mg4 O3 2.121899 1_455
Mg4 O18 2.152599 1_455
Mg5 O23 2.057972 1_555
Mg5 O11 2.081123 1_555
Mg5 O15 2.089348 1_655
Mg5 O18 2.096725 1_555
Mg5 O2 2.121899 1_655
Mg5 O19 2.152599 1_655
Cu0 O9 1.874081 1_554
Cu0 O8 1.874081 1_445
Cu1 O10 1.874081 1_555
Cu1 O11 1.874081 1_445
Cu2 O6 1.947476 1_555
Cu2 O4 1.947476 1_555
Cu2 O20 1.965701 1_555
Cu2 O22 1.965701 1_555
Cu3 O5 1.947476 1_555
Cu3 O7 1.947476 1_555
Cu3 O23 1.965701 1_555
Cu3 O21 1.965701 1_555
As0 O13 1.715304 1_545
As0 O16 1.716304 1_555
As0 O4 1.730287 1_555
As0 O10 1.739223 1_555
As1 O12 1.715304 1_565
As1 O17 1.716304 1_555
As1 O5 1.730287 1_555
As1 O11 1.739223 1_555
As2 O15 1.715304 1_654
As2 O18 1.716304 1_555
As2 O6 1.730287 1_555
As2 O8 1.739223 1_555
As3 O14 1.715304 1_456
As3 O19 1.716304 1_555
As3 O7 1.730287 1_555
As3 O9 1.739223 1_555
As4 O2 1.716161 1_555
As4 O0 1.716161 1_555
As4 O20 1.757047 1_555
As4 O22 1.757047 1_555
As5 O1 1.716161 1_555
As5 O3 1.716161 1_555
As5 O23 1.757047 1_555
As5 O21 1.757047 1_555
