# generated using pymatgen
data_Li9Mn2Co5O16
_symmetry_space_group_name_H-M   'P 1'
_cell_length_a   5.68536800
_cell_length_b   5.85197334
_cell_length_c   9.75328919
_cell_angle_alpha   92.13022993
_cell_angle_beta   98.05248295
_cell_angle_gamma   118.77042231
_symmetry_Int_Tables_number   1
_chemical_formula_structural   Li9Mn2Co5O16
_chemical_formula_sum   'Li9 Mn2 Co5 O16'
_cell_volume   279.58337883
_cell_formula_units_Z   1
loop_
 _symmetry_equiv_pos_site_id
 _symmetry_equiv_pos_as_xyz
  1  'x, y, z'
loop_
 _atom_site_type_symbol
 _atom_site_label
 _atom_site_symmetry_multiplicity
 _atom_site_fract_x
 _atom_site_fract_y
 _atom_site_fract_z
 _atom_site_occupancy
  Li  Li0  1  0.75174700  0.62380100  0.25548200  1
  Li  Li1  1  0.74992500  0.37628900  0.74036800  1
  Li  Li2  1  0.75159700  0.13050000  0.25705000  1
  Li  Li3  1  0.25391300  0.12435600  0.25947500  1
  Li  Li4  1  0.24840300  0.86950000  0.74295000  1
  Li  Li5  1  0.25007500  0.62371100  0.25963200  1
  Li  Li6  1  0.74608700  0.87564400  0.74052500  1
  Li  Li7  1  0.24825300  0.37619900  0.74451800  1
  Li  Li8  1  0.00000000  0.50000000  0.50000000  1
  Mn  Mn0  1  0.99966200  0.74946900  0.99921400  1
  Mn  Mn1  1  0.00033800  0.25053100  0.00078600  1
  Co  Co0  1  0.00000000  0.00000000  0.50000000  1
  Co  Co1  1  0.50096800  0.25065500  0.00083600  1
  Co  Co2  1  0.50000000  0.00000000  0.50000000  1
  Co  Co3  1  0.49903200  0.74934500  0.99916400  1
  Co  Co4  1  0.50000000  0.50000000  0.50000000  1
  O  O0  1  0.86062000  0.91505900  0.11538200  1
  O  O1  1  0.87937800  0.71533500  0.60746600  1
  O  O2  1  0.86467200  0.41764200  0.11807400  1
  O  O3  1  0.37651200  0.44953200  0.10806600  1
  O  O4  1  0.36214000  0.16930600  0.61401900  1
  O  O5  1  0.37678500  0.94736500  0.10785600  1
  O  O6  1  0.85391300  0.16188600  0.60959500  1
  O  O7  1  0.38363400  0.66521800  0.61558300  1
  O  O8  1  0.61636600  0.33478200  0.38441700  1
  O  O9  1  0.62321500  0.05263500  0.89214400  1
  O  O10  1  0.63786000  0.83069400  0.38598100  1
  O  O11  1  0.14608700  0.83811400  0.39040500  1
  O  O12  1  0.13532800  0.58235800  0.88192600  1
  O  O13  1  0.12062200  0.28466500  0.39253400  1
  O  O14  1  0.62348800  0.55046800  0.89193400  1
  O  O15  1  0.13938000  0.08494100  0.88461800  1
loop_
_geom_bond_atom_site_label_1
_geom_bond_atom_site_label_2
_geom_bond_distance
_geom_bond_site_symmetry_2
Li0 O8 2.051976 1_555
Li0 O10 2.091905 1_555
Li0 O2 2.128429 1_555
Li0 O0 2.133055 1_555
Li0 O3 2.143791 1_555
Li0 O11 2.162211 1_655
Li1 O6 2.087318 1_555
Li1 O4 2.098508 1_555
Li1 O14 2.152198 1_555
Li1 O12 2.155633 1_655
Li1 O1 2.282831 1_555
Li1 O9 2.343370 1_555
Li2 O13 2.067483 1_655
Li2 O10 2.092206 1_545
Li2 O2 2.108973 1_555
Li2 O8 2.145999 1_555
Li2 O5 2.150323 1_545
Li2 O0 2.178428 1_545
Li3 O8 1.997504 1_555
Li3 O13 2.001971 1_555
Li3 O11 2.049950 1_545
Li3 O5 2.149328 1_545
Li3 O0 2.197814 1_445
Li3 O3 2.346957 1_555
Li4 O1 2.067483 1_455
Li4 O4 2.092206 1_565
Li4 O12 2.108973 1_555
Li4 O7 2.145999 1_555
Li4 O9 2.150323 1_565
Li4 O15 2.178428 1_565
Li5 O11 2.087318 1_555
Li5 O10 2.098508 1_555
Li5 O3 2.152198 1_555
Li5 O2 2.155633 1_455
Li5 O13 2.282831 1_555
Li5 O5 2.343370 1_555
Li6 O7 1.997504 1_555
Li6 O1 2.001971 1_555
Li6 O6 2.049950 1_565
Li6 O9 2.149328 1_565
Li6 O15 2.197814 1_665
Li6 O14 2.346957 1_555
Li7 O7 2.051976 1_555
Li7 O4 2.091905 1_555
Li7 O12 2.128429 1_555
Li7 O15 2.133055 1_555
Li7 O14 2.143791 1_555
Li7 O6 2.162211 1_455
Li8 O1 2.022842 1_455
Li8 O13 2.022842 1_555
Li8 O7 2.040348 1_555
Li8 O8 2.040348 1_455
Li8 O11 2.138092 1_555
Li8 O6 2.138092 1_455
Mn0 O12 1.936487 1_655
Mn0 O0 1.937609 1_556
Mn0 O14 1.977368 1_555
Mn0 O5 1.985735 1_656
Mn0 O15 2.155226 1_665
Mn0 O2 2.164654 1_556
Mn1 O2 1.936487 1_455
Mn1 O15 1.937609 1_554
Mn1 O3 1.977368 1_555
Mn1 O9 1.985735 1_454
Mn1 O0 2.155226 1_445
Mn1 O12 2.164654 1_554
Co0 O13 1.890891 1_555
Co0 O1 1.890891 1_445
Co0 O11 1.913302 1_545
Co0 O6 1.913302 1_455
Co0 O4 1.941749 1_555
Co0 O10 1.941749 1_445
Co1 O15 1.948803 1_554
Co1 O9 1.959611 1_554
Co1 O2 1.961531 1_555
Co1 O3 1.964301 1_555
Co1 O14 1.964951 1_554
Co1 O5 1.968762 1_545
Co2 O6 1.891018 1_555
Co2 O11 1.891018 1_545
Co2 O4 1.934535 1_555
Co2 O10 1.934535 1_545
Co2 O8 2.161531 1_555
Co2 O7 2.161531 1_545
Co3 O0 1.948803 1_556
Co3 O5 1.959611 1_556
Co3 O12 1.961531 1_555
Co3 O14 1.964301 1_555
Co3 O3 1.964951 1_556
Co3 O9 1.968762 1_565
Co4 O7 1.840376 1_555
Co4 O8 1.840376 1_555
Co4 O1 1.997718 1_555
Co4 O13 1.997718 1_555
Co4 O10 2.130765 1_555
Co4 O4 2.130765 1_555
