# generated using pymatgen
data_Na3(CO4)2
_symmetry_space_group_name_H-M   'P 1'
_cell_length_a   11.57376777
_cell_length_b   11.57376777
_cell_length_c   9.51174691
_cell_angle_alpha   74.67071371
_cell_angle_beta   74.67071371
_cell_angle_gamma   18.38351351
_symmetry_Int_Tables_number   1
_chemical_formula_structural   Na3(CO4)2
_chemical_formula_sum   'Na6 C4 O16'
_cell_volume   387.14893598
_cell_formula_units_Z   2
loop_
 _symmetry_equiv_pos_site_id
 _symmetry_equiv_pos_as_xyz
  1  'x, y, z'
loop_
 _atom_site_type_symbol
 _atom_site_label
 _atom_site_symmetry_multiplicity
 _atom_site_fract_x
 _atom_site_fract_y
 _atom_site_fract_z
 _atom_site_occupancy
  Na  Na0  1  0.79810700  0.20189300  0.25000000  1
  Na  Na1  1  0.20189300  0.79810700  0.75000000  1
  Na  Na2  1  0.01091000  0.68940200  0.42843300  1
  Na  Na3  1  0.31059800  0.98909000  0.07156700  1
  Na  Na4  1  0.98909000  0.31059800  0.57156700  1
  Na  Na5  1  0.68940200  0.01091000  0.92843300  1
  C  C0  1  0.20206300  0.60726300  0.10841300  1
  C  C1  1  0.39273700  0.79793700  0.39158700  1
  C  C2  1  0.79793700  0.39273700  0.89158700  1
  C  C3  1  0.60726300  0.20206300  0.60841300  1
  O  O0  1  0.28231800  0.42102800  0.11518700  1
  O  O1  1  0.57897200  0.71768200  0.38481300  1
  O  O2  1  0.71768200  0.57897200  0.88481300  1
  O  O3  1  0.42102800  0.28231800  0.61518700  1
  O  O4  1  0.07793000  0.78987100  0.98892500  1
  O  O5  1  0.21012900  0.92207000  0.51107500  1
  O  O6  1  0.92207000  0.21012900  0.01107500  1
  O  O7  1  0.78987100  0.07793000  0.48892500  1
  O  O8  1  0.23316200  0.61971500  0.21982700  1
  O  O9  1  0.38028500  0.76683800  0.28017300  1
  O  O10  1  0.76683800  0.38028500  0.78017300  1
  O  O11  1  0.61971500  0.23316200  0.71982700  1
  O  O12  1  0.40245300  0.12071600  0.44909900  1
  O  O13  1  0.87928400  0.59754700  0.05090100  1
  O  O14  1  0.59754700  0.87928400  0.55090100  1
  O  O15  1  0.12071600  0.40245300  0.94909900  1
loop_
_geom_bond_atom_site_label_1
_geom_bond_atom_site_label_2
_geom_bond_distance
_geom_bond_site_symmetry_2
Na0 O6 2.377659 1_555
Na0 O7 2.377659 1_555
Na0 O9 2.543108 1_555
Na0 O8 2.543108 1_555
Na0 O9 2.589017 1_645
Na0 O8 2.589017 1_645
Na1 O4 2.377659 1_555
Na1 O5 2.377659 1_555
Na1 O10 2.543108 1_555
Na1 O11 2.543108 1_555
Na1 O10 2.589017 1_465
Na1 O11 2.589017 1_465
Na2 O8 2.326851 1_555
Na2 O3 2.339280 1_555
Na2 O7 2.419225 1_465
Na2 O12 2.659549 1_555
Na2 O14 2.743552 1_455
Na2 O12 2.759883 1_465
Na2 O3 2.823375 1_465
Na3 O9 2.326851 1_555
Na3 O2 2.339280 1_554
Na3 O6 2.419225 1_465
Na3 O13 2.659549 1_555
Na3 O15 2.743552 1_564
Na3 O13 2.759883 1_465
Na3 O2 2.823375 1_464
Na4 O10 2.326851 1_555
Na4 O1 2.339280 1_555
Na4 O5 2.419225 1_645
Na4 O14 2.659549 1_555
Na4 O12 2.743552 1_655
Na4 O14 2.759883 1_645
Na4 O1 2.823375 1_645
Na5 O11 2.326851 1_555
Na5 O0 2.339280 1_556
Na5 O4 2.419225 1_645
Na5 O15 2.659549 1_555
Na5 O13 2.743552 1_546
Na5 O15 2.759883 1_645
Na5 O0 2.823375 1_646
C0 O4 1.285679 1_554
C0 O8 1.286177 1_555
C0 O0 1.292760 1_555
C1 O5 1.285679 1_555
C1 O9 1.286177 1_555
C1 O1 1.292760 1_555
C2 O6 1.285679 1_556
C2 O10 1.286177 1_555
C2 O2 1.292760 1_555
C3 O7 1.285679 1_555
C3 O11 1.286177 1_555
C3 O3 1.292760 1_555
O12 O14 1.262798 1_545
O13 O15 1.262798 1_654
