# generated using pymatgen
data_Sr4Li2Ta2Al2N8O
_symmetry_space_group_name_H-M   'P 1'
_cell_length_a   10.09011100
_cell_length_b   6.05211100
_cell_length_c   10.96353573
_cell_angle_alpha   59.86481261
_cell_angle_beta   90.00000000
_cell_angle_gamma   90.00000000
_symmetry_Int_Tables_number   1
_chemical_formula_structural   Sr4Li2Ta2Al2N8O
_chemical_formula_sum   'Sr8 Li4 Ta4 Al4 N16 O2'
_cell_volume   579.01640808
_cell_formula_units_Z   2
loop_
 _symmetry_equiv_pos_site_id
 _symmetry_equiv_pos_as_xyz
  1  'x, y, z'
loop_
 _atom_site_type_symbol
 _atom_site_label
 _atom_site_symmetry_multiplicity
 _atom_site_fract_x
 _atom_site_fract_y
 _atom_site_fract_z
 _atom_site_occupancy
  Sr  Sr0  1  0.76031700  0.43265800  0.06940700  1
  Sr  Sr1  1  0.73968300  0.43265800  0.56940700  1
  Sr  Sr2  1  0.23968300  0.56734200  0.93059300  1
  Sr  Sr3  1  0.26031700  0.56734200  0.43059300  1
  Sr  Sr4  1  0.93455100  0.76774900  0.69704000  1
  Sr  Sr5  1  0.56544900  0.76774900  0.19704000  1
  Sr  Sr6  1  0.06544900  0.23225100  0.30296000  1
  Sr  Sr7  1  0.43455100  0.23225100  0.80296000  1
  Li  Li0  1  0.00654600  0.80997100  0.99663500  1
  Li  Li1  1  0.49345400  0.80997100  0.49663500  1
  Li  Li2  1  0.99345400  0.19002900  0.00336500  1
  Li  Li3  1  0.50654600  0.19002900  0.50336500  1
  Ta  Ta0  1  0.59753100  0.77324100  0.76062500  1
  Ta  Ta1  1  0.90246900  0.77324100  0.26062500  1
  Ta  Ta2  1  0.40246900  0.22675900  0.23937500  1
  Ta  Ta3  1  0.09753100  0.22675900  0.73937500  1
  Al  Al0  1  0.75582500  0.11770900  0.89970100  1
  Al  Al1  1  0.74417500  0.11770900  0.39970100  1
  Al  Al2  1  0.24417500  0.88229100  0.10029900  1
  Al  Al3  1  0.25582500  0.88229100  0.60029900  1
  N  N0  1  0.63422700  0.88757800  0.89615600  1
  N  N1  1  0.86577300  0.88757800  0.39615600  1
  N  N2  1  0.36577300  0.11242200  0.10384400  1
  N  N3  1  0.13422700  0.11242200  0.60384400  1
  N  N4  1  0.66628800  0.43003500  0.83331900  1
  N  N5  1  0.83371200  0.43003500  0.33331900  1
  N  N6  1  0.33371200  0.56996500  0.16668100  1
  N  N7  1  0.16628800  0.56996500  0.66668100  1
  N  N8  1  0.81127200  0.99036300  0.08505700  1
  N  N9  1  0.68872800  0.99036300  0.58505700  1
  N  N10  1  0.18872800  0.00963700  0.91494300  1
  N  N11  1  0.31127200  0.00963700  0.41494300  1
  N  N12  1  0.91000400  0.19303000  0.78774300  1
  N  N13  1  0.58999600  0.19303000  0.28774300  1
  N  N14  1  0.08999600  0.80697000  0.21225700  1
  N  N15  1  0.41000400  0.80697000  0.71225700  1
  O  O0  1  0.00000000  0.50000000  0.00000000  1
  O  O1  1  0.50000000  0.50000000  0.50000000  1
loop_
_geom_bond_atom_site_label_1
_geom_bond_atom_site_label_2
_geom_bond_distance
_geom_bond_site_symmetry_2
Li0 O0 1.858905 1_556
Li0 N10 2.134198 1_565
Li1 O1 1.858905 1_555
Li1 N11 2.134198 1_565
Li2 O0 1.858905 1_655
Li2 N8 2.134198 1_545
Li3 O1 1.858905 1_555
Li3 N9 2.134198 1_545
Al0 N8 1.861198 1_546
Al0 N0 1.871115 1_545
Al0 N4 1.880837 1_555
Al0 N12 1.890179 1_555
Al1 N9 1.861198 1_545
Al1 N1 1.871115 1_545
Al1 N5 1.880837 1_555
Al1 N13 1.890179 1_555
Al2 N10 1.861198 1_564
Al2 N2 1.871115 1_565
Al2 N6 1.880837 1_555
Al2 N14 1.890179 1_555
Al3 N11 1.861198 1_565
Al3 N3 1.871115 1_565
Al3 N7 1.880837 1_555
Al3 N15 1.890179 1_555
N0 Ta0 1.963732 1_555
N0 Sr7 2.704537 1_565
N0 Sr0 2.748788 1_556
N0 Sr5 3.080135 1_556
N1 Ta1 1.963732 1_555
N1 Sr6 2.704537 1_665
N1 Sr1 2.748788 1_555
N1 Sr4 3.080135 1_555
N2 Ta2 1.963732 1_555
N2 Sr5 2.704537 1_545
N2 Sr2 2.748788 1_554
N2 Sr7 3.080135 1_554
N3 Ta3 1.963732 1_555
N3 Sr4 2.704537 1_445
N3 Sr3 2.748788 1_555
N3 Sr6 3.080135 1_555
N4 Ta0 1.941322 1_555
N4 Sr7 2.722331 1_555
N4 Sr0 2.764284 1_556
N4 Sr1 2.978990 1_555
N4 Sr4 3.266549 1_555
N5 Ta1 1.941322 1_555
N5 Sr6 2.722331 1_655
N5 Sr1 2.764284 1_555
N5 Sr0 2.978990 1_555
N5 Sr5 3.266549 1_555
N6 Ta2 1.941322 1_555
N6 Sr5 2.722331 1_555
N6 Sr2 2.764284 1_554
N6 Sr3 2.978990 1_555
N6 Sr6 3.266549 1_555
N7 Ta3 1.941322 1_555
N7 Sr4 2.722331 1_455
N7 Sr3 2.764284 1_555
N7 Sr2 2.978990 1_555
N7 Sr7 3.266549 1_555
N8 Ta1 1.933605 1_555
N8 Sr0 2.645369 1_565
N8 Sr5 2.795341 1_555
N9 Ta0 1.933605 1_555
N9 Sr1 2.645369 1_565
N9 Sr4 2.795341 1_555
N10 Ta3 1.933605 1_555
N10 Sr2 2.645369 1_545
N10 Sr7 2.795341 1_555
N11 Ta2 1.933605 1_555
N11 Sr3 2.645369 1_545
N11 Sr6 2.795341 1_555
N12 Ta3 1.947943 1_655
N12 Sr1 2.702026 1_555
N12 Sr4 3.110554 1_555
N12 Sr4 3.200761 1_545
N13 Ta2 1.947943 1_555
N13 Sr0 2.702026 1_555
N13 Sr5 3.110554 1_555
N13 Sr5 3.200761 1_545
N14 Ta1 1.947943 1_455
N14 Sr3 2.702026 1_555
N14 Sr6 3.110554 1_555
N14 Sr6 3.200761 1_565
N15 Ta0 1.947943 1_555
N15 Sr2 2.702026 1_555
N15 Sr7 3.110554 1_555
N15 Sr7 3.200761 1_565
O0 Sr2 2.506500 1_554
O0 Sr0 2.506500 1_455
O0 Sr6 2.947896 1_555
O0 Sr4 2.947896 1_454
O1 Sr1 2.506500 1_555
O1 Sr3 2.506500 1_555
O1 Sr5 2.947896 1_555
O1 Sr7 2.947896 1_555
