# generated using pymatgen
data_Ho2FeGe4
_symmetry_space_group_name_H-M   'P 1'
_cell_length_a   4.11109566
_cell_length_b   4.16624914
_cell_length_c   8.14403323
_cell_angle_alpha   75.18569314
_cell_angle_beta   89.99996707
_cell_angle_gamma   89.99997134
_symmetry_Int_Tables_number   1
_chemical_formula_structural   Ho2FeGe4
_chemical_formula_sum   'Ho2 Fe1 Ge4'
_cell_volume   134.85306983
_cell_formula_units_Z   1
loop_
 _symmetry_equiv_pos_site_id
 _symmetry_equiv_pos_as_xyz
  1  'x, y, z'
loop_
 _atom_site_type_symbol
 _atom_site_label
 _atom_site_symmetry_multiplicity
 _atom_site_fract_x
 _atom_site_fract_y
 _atom_site_fract_z
 _atom_site_occupancy
  Ho  Ho0  1  0.25000000  0.89522274  0.20982141  1
  Ho  Ho1  1  0.75000000  0.10403188  0.79179809  1
  Fe  Fe0  1  0.25000000  0.69324416  0.61336539  1
  Ge  Ge0  1  0.25000000  0.54634192  0.90655853  1
  Ge  Ge1  1  0.75000000  0.44326218  0.11403573  1
  Ge  Ge2  1  0.25000000  0.25812954  0.48391605  1
  Ge  Ge3  1  0.75000000  0.75676657  0.48650479  1
loop_
_geom_bond_atom_site_label_1
_geom_bond_atom_site_label_2
_geom_bond_distance
_geom_bond_site_symmetry_2
Fe0 Ge3 2.285368 1_555
Fe0 Ge3 2.285368 1_455
Fe0 Ge0 2.308405 1_555
Fe0 Ge2 2.318394 1_555
Fe0 Ge2 2.319782 1_565
Fe0 Ho1 3.246195 1_465
Fe0 Ho1 3.246197 1_565
Fe0 Ho1 3.246357 1_555
Fe0 Ho1 3.246357 1_455
Ge0 Ge1 2.625589 1_456
Ge0 Ge1 2.625590 1_556
Ge0 Ho1 3.061914 1_555
Ge0 Ho1 3.061916 1_455
Ge0 Ho1 3.063795 1_465
Ge0 Ho1 3.063796 1_565
Ge0 Ho0 3.167424 1_546
Ge0 Ho0 3.169911 1_556
Ge1 Ho0 3.021682 1_555
Ge1 Ho0 3.021684 1_655
Ge1 Ho0 3.022630 1_645
Ge1 Ho0 3.022631 1_545
Ge1 Ho1 3.281951 1_564
Ge1 Ho1 3.283470 1_554
Ge2 Ge3 2.926414 1_455
Ge2 Ge3 2.926415 1_555
Ge2 Ge3 2.926823 1_545
Ge2 Ge3 2.926825 1_445
Ge2 Ho0 2.999136 1_545
Ge2 Ho0 2.999706 1_555
Ge2 Ho1 3.178256 1_455
Ge2 Ho1 3.178258 1_555
Ge3 Ho0 2.995125 1_655
Ge3 Ho0 2.995127 1_555
Ge3 Ho1 3.180331 1_565
Ge3 Ho1 3.181131 1_555
