# generated using pymatgen
data_RbNaMg30O31
_symmetry_space_group_name_H-M   'P 1'
_cell_length_a   8.68436700
_cell_length_b   8.68436700
_cell_length_c   8.61779500
_cell_angle_alpha   90.00000000
_cell_angle_beta   90.00000000
_cell_angle_gamma   90.00000000
_symmetry_Int_Tables_number   1
_chemical_formula_structural   RbNaMg30O31
_chemical_formula_sum   'Rb1 Na1 Mg30 O31'
_cell_volume   649.93884705
_cell_formula_units_Z   1
loop_
 _symmetry_equiv_pos_site_id
 _symmetry_equiv_pos_as_xyz
  1  'x, y, z'
loop_
 _atom_site_type_symbol
 _atom_site_label
 _atom_site_symmetry_multiplicity
 _atom_site_fract_x
 _atom_site_fract_y
 _atom_site_fract_z
 _atom_site_occupancy
  Rb  Rb0  1  0.50000000  0.50000000  0.99731500  1
  Na  Na0  1  0.00000000  0.00000000  0.99793400  1
  Mg  Mg0  1  0.50000000  0.00000000  0.99388800  1
  Mg  Mg1  1  0.00000000  0.50000000  0.99388800  1
  Mg  Mg2  1  0.00000000  0.00000000  0.51807800  1
  Mg  Mg3  1  0.50000000  0.00000000  0.50265800  1
  Mg  Mg4  1  0.00000000  0.50000000  0.50265800  1
  Mg  Mg5  1  0.50000000  0.50000000  0.49972800  1
  Mg  Mg6  1  0.24571000  0.24571000  0.00084400  1
  Mg  Mg7  1  0.75429000  0.24571000  0.00084400  1
  Mg  Mg8  1  0.24571000  0.75429000  0.00084400  1
  Mg  Mg9  1  0.75429000  0.75429000  0.00084400  1
  Mg  Mg10  1  0.24881300  0.24881300  0.49932800  1
  Mg  Mg11  1  0.75118700  0.24881300  0.49932800  1
  Mg  Mg12  1  0.24881300  0.75118700  0.49932800  1
  Mg  Mg13  1  0.75118700  0.75118700  0.49932800  1
  Mg  Mg14  1  0.27445700  0.00000000  0.24668200  1
  Mg  Mg15  1  0.72554300  0.00000000  0.24668200  1
  Mg  Mg16  1  0.25020600  0.50000000  0.25140700  1
  Mg  Mg17  1  0.74979400  0.50000000  0.25140700  1
  Mg  Mg18  1  0.24853000  0.00000000  0.75537100  1
  Mg  Mg19  1  0.75147000  0.00000000  0.75537100  1
  Mg  Mg20  1  0.24807200  0.50000000  0.74755000  1
  Mg  Mg21  1  0.75192800  0.50000000  0.74755000  1
  Mg  Mg22  1  0.00000000  0.27445700  0.24668200  1
  Mg  Mg23  1  0.50000000  0.25020600  0.25140700  1
  Mg  Mg24  1  0.00000000  0.72554300  0.24668200  1
  Mg  Mg25  1  0.50000000  0.74979400  0.25140700  1
  Mg  Mg26  1  0.00000000  0.24853000  0.75537100  1
  Mg  Mg27  1  0.50000000  0.24807200  0.74755000  1
  Mg  Mg28  1  0.00000000  0.75147000  0.75537100  1
  Mg  Mg29  1  0.50000000  0.75192800  0.74755000  1
  O  O0  1  0.50000000  0.00000000  0.26045300  1
  O  O1  1  0.00000000  0.50000000  0.26045300  1
  O  O2  1  0.50000000  0.50000000  0.27814000  1
  O  O3  1  0.00000000  0.00000000  0.74328300  1
  O  O4  1  0.50000000  0.00000000  0.74224700  1
  O  O5  1  0.00000000  0.50000000  0.74224700  1
  O  O6  1  0.50000000  0.50000000  0.71956700  1
  O  O7  1  0.24473500  0.24473500  0.25029200  1
  O  O8  1  0.75526500  0.24473500  0.25029200  1
  O  O9  1  0.24473500  0.75526500  0.25029200  1
  O  O10  1  0.75526500  0.75526500  0.25029200  1
  O  O11  1  0.24841300  0.24841300  0.74945800  1
  O  O12  1  0.75158700  0.24841300  0.74945800  1
  O  O13  1  0.24841300  0.75158700  0.74945800  1
  O  O14  1  0.75158700  0.75158700  0.74945800  1
  O  O15  1  0.25593100  0.00000000  0.00596300  1
  O  O16  1  0.74406900  0.00000000  0.00596300  1
  O  O17  1  0.22168100  0.50000000  0.00299200  1
  O  O18  1  0.77831900  0.50000000  0.00299200  1
  O  O19  1  0.24177900  0.00000000  0.49118400  1
  O  O20  1  0.75822100  0.00000000  0.49118400  1
  O  O21  1  0.24314300  0.50000000  0.49829600  1
  O  O22  1  0.75685700  0.50000000  0.49829600  1
  O  O23  1  0.00000000  0.25593100  0.00596300  1
  O  O24  1  0.50000000  0.22168100  0.00299200  1
  O  O25  1  0.00000000  0.74406900  0.00596300  1
  O  O26  1  0.50000000  0.77831900  0.00299200  1
  O  O27  1  0.00000000  0.24177900  0.49118400  1
  O  O28  1  0.50000000  0.24314300  0.49829600  1
  O  O29  1  0.00000000  0.75822100  0.49118400  1
  O  O30  1  0.50000000  0.75685700  0.49829600  1
loop_
_geom_bond_atom_site_label_1
_geom_bond_atom_site_label_2
_geom_bond_distance
_geom_bond_site_symmetry_2
Na0 O3 2.194530 1_555
Na0 O25 2.223675 1_546
Na0 O23 2.223675 1_556
Na0 O16 2.223675 1_456
Na0 O15 2.223675 1_556
Mg0 O24 1.926757 1_556
Mg0 O26 1.926757 1_546
Mg0 O15 2.122138 1_556
Mg0 O16 2.122138 1_556
Mg0 O4 2.168591 1_555
Mg0 O0 2.297203 1_556
Mg1 O17 1.926757 1_556
Mg1 O18 1.926757 1_456
Mg1 O23 2.122138 1_556
Mg1 O25 2.122138 1_556
Mg1 O5 2.168591 1_555
Mg1 O1 2.297203 1_556
Mg2 O3 1.940771 1_555
Mg2 O27 2.112450 1_555
Mg2 O29 2.112450 1_545
Mg2 O20 2.112450 1_455
Mg2 O19 2.112450 1_555
Mg3 O4 2.064729 1_555
Mg3 O0 2.087273 1_555
Mg3 O28 2.111878 1_555
Mg3 O30 2.111878 1_545
Mg3 O19 2.244665 1_555
Mg3 O20 2.244665 1_555
Mg4 O5 2.064729 1_555
Mg4 O1 2.087273 1_555
Mg4 O22 2.111878 1_455
Mg4 O21 2.111878 1_555
Mg4 O27 2.244665 1_555
Mg4 O29 2.244665 1_555
Mg5 O6 1.894527 1_555
Mg5 O2 1.909600 1_555
Mg5 O22 2.230675 1_555
Mg5 O30 2.230675 1_555
Mg5 O21 2.230675 1_555
Mg5 O28 2.230675 1_555
Mg6 O15 2.136137 1_555
Mg6 O23 2.136137 1_555
Mg6 O7 2.149725 1_555
Mg6 O11 2.166647 1_554
Mg6 O17 2.218262 1_555
Mg6 O24 2.218262 1_555
Mg7 O23 2.136137 1_655
Mg7 O16 2.136137 1_555
Mg7 O8 2.149725 1_555
Mg7 O12 2.166647 1_554
Mg7 O18 2.218262 1_555
Mg7 O24 2.218262 1_555
Mg8 O25 2.136137 1_555
Mg8 O15 2.136137 1_565
Mg8 O9 2.149725 1_555
Mg8 O13 2.166647 1_554
Mg8 O17 2.218262 1_555
Mg8 O26 2.218262 1_555
Mg9 O16 2.136137 1_565
Mg9 O25 2.136137 1_655
Mg9 O10 2.149725 1_555
Mg9 O14 2.166647 1_554
Mg9 O18 2.218262 1_555
Mg9 O26 2.218262 1_555
Mg10 O7 2.146726 1_555
Mg10 O11 2.155575 1_555
Mg10 O19 2.162786 1_555
Mg10 O27 2.162786 1_555
Mg10 O21 2.181974 1_555
Mg10 O28 2.181974 1_555
Mg11 O8 2.146726 1_555
Mg11 O12 2.155575 1_555
Mg11 O27 2.162786 1_655
Mg11 O20 2.162786 1_555
Mg11 O22 2.181974 1_555
Mg11 O28 2.181974 1_555
Mg12 O9 2.146726 1_555
Mg12 O13 2.155575 1_555
Mg12 O19 2.162786 1_565
Mg12 O29 2.162786 1_555
Mg12 O30 2.181974 1_555
Mg12 O21 2.181974 1_555
Mg13 O10 2.146726 1_555
Mg13 O14 2.155575 1_555
Mg13 O20 2.162786 1_565
Mg13 O29 2.162786 1_655
Mg13 O30 2.181974 1_555
Mg13 O22 2.181974 1_555
Mg14 O0 1.962290 1_555
Mg14 O15 2.080696 1_555
Mg14 O19 2.126093 1_555
Mg14 O7 2.141211 1_555
Mg14 O9 2.141211 1_545
Mg15 O0 1.962290 1_555
Mg15 O16 2.080696 1_555
Mg15 O20 2.126093 1_555
Mg15 O8 2.141211 1_555
Mg15 O10 2.141211 1_545
Mg16 O21 2.128523 1_555
Mg16 O17 2.155074 1_555
Mg16 O1 2.174279 1_555
Mg16 O2 2.181502 1_555
Mg16 O9 2.217345 1_555
Mg16 O7 2.217345 1_555
Mg17 O22 2.128523 1_555
Mg17 O18 2.155074 1_555
Mg17 O1 2.174279 1_655
Mg17 O2 2.181502 1_555
Mg17 O10 2.217345 1_555
Mg17 O8 2.217345 1_555
Mg18 O13 2.157912 1_545
Mg18 O11 2.157912 1_555
Mg18 O15 2.160507 1_556
Mg18 O3 2.160838 1_555
Mg18 O4 2.186784 1_555
Mg18 O19 2.277464 1_555
Mg19 O14 2.157912 1_545
Mg19 O12 2.157912 1_555
Mg19 O16 2.160507 1_556
Mg19 O3 2.160838 1_655
Mg19 O4 2.186784 1_555
Mg19 O20 2.277464 1_555
Mg20 O21 2.148446 1_555
Mg20 O5 2.154833 1_555
Mg20 O13 2.184938 1_555
Mg20 O11 2.184938 1_555
Mg20 O6 2.201085 1_555
Mg20 O17 2.213245 1_556
Mg21 O22 2.148446 1_555
Mg21 O5 2.154833 1_655
Mg21 O12 2.184938 1_555
Mg21 O14 2.184938 1_555
Mg21 O6 2.201085 1_555
Mg21 O18 2.213245 1_556
Mg22 O1 1.962290 1_555
Mg22 O23 2.080696 1_555
Mg22 O27 2.126093 1_555
Mg22 O7 2.141211 1_555
Mg22 O8 2.141211 1_455
Mg23 O28 2.128523 1_555
Mg23 O24 2.155074 1_555
Mg23 O0 2.174279 1_555
Mg23 O2 2.181502 1_555
Mg23 O7 2.217345 1_555
Mg23 O8 2.217345 1_555
Mg24 O1 1.962290 1_555
Mg24 O25 2.080696 1_555
Mg24 O29 2.126093 1_555
Mg24 O9 2.141211 1_555
Mg24 O10 2.141211 1_455
Mg25 O30 2.128523 1_555
Mg25 O26 2.155074 1_555
Mg25 O0 2.174279 1_565
Mg25 O2 2.181502 1_555
Mg25 O9 2.217345 1_555
Mg25 O10 2.217345 1_555
Mg26 O12 2.157912 1_455
Mg26 O11 2.157912 1_555
Mg26 O23 2.160507 1_556
Mg26 O3 2.160838 1_555
Mg26 O5 2.186784 1_555
Mg26 O27 2.277464 1_555
Mg27 O28 2.148446 1_555
Mg27 O4 2.154833 1_555
Mg27 O12 2.184938 1_555
Mg27 O11 2.184938 1_555
Mg27 O6 2.201085 1_555
Mg27 O24 2.213245 1_556
Mg28 O14 2.157912 1_455
Mg28 O13 2.157912 1_555
Mg28 O25 2.160507 1_556
Mg28 O3 2.160838 1_565
Mg28 O5 2.186784 1_555
Mg28 O29 2.277464 1_555
Mg29 O30 2.148446 1_555
Mg29 O4 2.154833 1_565
Mg29 O13 2.184938 1_555
Mg29 O14 2.184938 1_555
Mg29 O6 2.201085 1_555
Mg29 O26 2.213245 1_556
O2 Rb0 2.420092 1_554
O6 Rb0 2.393575 1_555
O17 Rb0 2.417519 1_554
O18 Rb0 2.417519 1_554
O24 Rb0 2.417519 1_554
O26 Rb0 2.417519 1_554
