# generated using pymatgen
data_MnAl2Ir
_symmetry_space_group_name_H-M   'P 1'
_cell_length_a   10.26282132
_cell_length_b   10.26282132
_cell_length_c   10.26282132
_cell_angle_alpha   121.92073779
_cell_angle_beta   119.49569972
_cell_angle_gamma   88.79075075
_symmetry_Int_Tables_number   1
_chemical_formula_structural   MnAl2Ir
_chemical_formula_sum   'Mn1 Al2 Ir1'
_cell_volume   755.53857288
_cell_formula_units_Z   1
loop_
 _symmetry_equiv_pos_site_id
 _symmetry_equiv_pos_as_xyz
  1  'x, y, z'
loop_
 _atom_site_type_symbol
 _atom_site_label
 _atom_site_symmetry_multiplicity
 _atom_site_fract_x
 _atom_site_fract_y
 _atom_site_fract_z
 _atom_site_occupancy
  Mn  Mn0  1  0.00000000  0.00000000  0.00000000  1
  Al  Al0  1  0.00000000  0.26440300  0.26440300  1
  Al  Al1  1  0.00000000  0.73559700  0.73559700  1
  Ir  Ir0  1  0.00000000  0.50000000  0.50000000  1
loop_
_geom_bond_atom_site_label_1
_geom_bond_atom_site_label_2
_geom_bond_distance
_geom_bond_site_symmetry_2
Al0 Ir0 2.347358 1_555
Al0 Mn0 2.634364 1_555
Al1 Ir0 2.347358 1_555
Al1 Mn0 2.634364 1_566
