# generated using pymatgen
data_UH17C10N3O10
_symmetry_space_group_name_H-M   'P 1'
_cell_length_a   6.60156398
_cell_length_b   23.39948867
_cell_length_c   23.39948867
_cell_angle_alpha   120.00000036
_cell_angle_beta   90.00000000
_cell_angle_gamma   90.00000000
_symmetry_Int_Tables_number   1
_chemical_formula_structural   UH17C10N3O10
_chemical_formula_sum   'U6 H102 C60 N18 O60'
_cell_volume   3130.33056088
_cell_formula_units_Z   6
loop_
 _symmetry_equiv_pos_site_id
 _symmetry_equiv_pos_as_xyz
  1  'x, y, z'
loop_
 _atom_site_type_symbol
 _atom_site_label
 _atom_site_symmetry_multiplicity
 _atom_site_fract_x
 _atom_site_fract_y
 _atom_site_fract_z
 _atom_site_occupancy
  U  U0  1  0.66225826  0.20637226  0.37837941  1
  U  U1  1  0.66225826  0.62162059  0.82799285  1
  U  U2  1  0.66225826  0.17200715  0.79362774  1
  U  U3  1  0.33774174  0.79362774  0.62162059  1
  U  U4  1  0.33774174  0.37837941  0.17200715  1
  U  U5  1  0.33774174  0.82799285  0.20637226  1
  H  H0  1  0.07003436  0.35047188  0.28654845  1
  H  H1  1  0.07003436  0.71345155  0.06392342  1
  H  H2  1  0.07003436  0.93607658  0.64952812  1
  H  H3  1  0.92996564  0.64952812  0.71345155  1
  H  H4  1  0.92996564  0.28654845  0.93607658  1
  H  H5  1  0.92996564  0.06392342  0.35047188  1
  H  H6  1  0.95756054  0.32209540  0.33152459  1
  H  H7  1  0.95756054  0.66847541  0.99057080  1
  H  H8  1  0.95756054  0.00942920  0.67790460  1
  H  H9  1  0.04243946  0.67790460  0.66847541  1
  H  H10  1  0.04243946  0.33152459  0.00942920  1
  H  H11  1  0.04243946  0.99057080  0.32209540  1
  H  H12  1  0.08407945  0.23510870  0.43500454  1
  H  H13  1  0.08407945  0.56499546  0.80010416  1
  H  H14  1  0.08407945  0.19989584  0.76489130  1
  H  H15  1  0.91592055  0.76489130  0.56499546  1
  H  H16  1  0.91592055  0.43500454  0.19989584  1
  H  H17  1  0.91592055  0.80010416  0.23510870  1
  H  H18  1  0.76074129  0.57725892  0.56281289  1
  H  H19  1  0.76074129  0.43718711  0.01444604  1
  H  H20  1  0.76074129  0.98555396  0.42274108  1
  H  H21  1  0.23925871  0.42274108  0.43718711  1
  H  H22  1  0.23925871  0.56281289  0.98555396  1
  H  H23  1  0.23925871  0.01444604  0.57725892  1
  H  H24  1  0.77464204  0.49606790  0.53252717  1
  H  H25  1  0.77464204  0.46747283  0.96354073  1
  H  H26  1  0.77464204  0.03645927  0.50393210  1
  H  H27  1  0.22535796  0.50393210  0.46747283  1
  H  H28  1  0.22535796  0.53252717  0.03645927  1
  H  H29  1  0.22535796  0.96354073  0.49606790  1
  H  H30  1  0.09836935  0.21007947  0.25388791  1
  H  H31  1  0.09836935  0.74611209  0.95619156  1
  H  H32  1  0.09836935  0.04380844  0.78992053  1
  H  H33  1  0.90163065  0.78992053  0.74611209  1
  H  H34  1  0.90163065  0.25388791  0.04380844  1
  H  H35  1  0.90163065  0.95619156  0.21007947  1
  H  H36  1  0.25685409  0.25213021  0.22443720  1
  H  H37  1  0.25685409  0.77556280  0.02769301  1
  H  H38  1  0.25685409  0.97230699  0.74786979  1
  H  H39  1  0.74314591  0.74786979  0.77556280  1
  H  H40  1  0.74314591  0.22443720  0.97230699  1
  H  H41  1  0.74314591  0.02769301  0.25213021  1
  H  H42  1  0.25453917  0.00294133  0.25016339  1
  H  H43  1  0.25453917  0.74983661  0.75277794  1
  H  H44  1  0.25453917  0.24722206  0.99705867  1
  H  H45  1  0.74546083  0.99705867  0.74983661  1
  H  H46  1  0.74546083  0.25016339  0.24722206  1
  H  H47  1  0.74546083  0.75277794  0.00294133  1
  H  H48  1  0.10660108  0.07091735  0.25825201  1
  H  H49  1  0.10660108  0.74174799  0.81266534  1
  H  H50  1  0.10660108  0.18733466  0.92908265  1
  H  H51  1  0.89339892  0.92908265  0.74174799  1
  H  H52  1  0.89339892  0.25825201  0.18733466  1
  H  H53  1  0.89339892  0.81266534  0.07091735  1
  H  H54  1  0.88222495  0.35142323  0.54121468  1
  H  H55  1  0.88222495  0.45878532  0.81020855  1
  H  H56  1  0.88222495  0.18979145  0.64857677  1
  H  H57  1  0.11777505  0.64857677  0.45878532  1
  H  H58  1  0.11777505  0.54121468  0.18979145  1
  H  H59  1  0.11777505  0.81020855  0.35142323  1
  H  H60  1  0.13321418  0.34570786  0.51203981  1
  H  H61  1  0.13321418  0.48796019  0.83366805  1
  H  H62  1  0.13321418  0.16633195  0.65429214  1
  H  H63  1  0.86678582  0.65429214  0.48796019  1
  H  H64  1  0.86678582  0.51203981  0.16633195  1
  H  H65  1  0.86678582  0.83366805  0.34570786  1
  H  H66  1  0.11044364  0.23066935  0.53110203  1
  H  H67  1  0.11044364  0.46889797  0.69956732  1
  H  H68  1  0.11044364  0.30043268  0.76933065  1
  H  H69  1  0.88955636  0.76933065  0.46889797  1
  H  H70  1  0.88955636  0.53110203  0.30043268  1
  H  H71  1  0.88955636  0.69956732  0.23066935  1
  H  H72  1  0.86227624  0.26438170  0.55432698  1
  H  H73  1  0.86227624  0.44567302  0.71005471  1
  H  H74  1  0.86227624  0.28994529  0.73561830  1
  H  H75  1  0.13772376  0.73561830  0.44567302  1
  H  H76  1  0.13772376  0.55432698  0.28994529  1
  H  H77  1  0.13772376  0.71005471  0.26438170  1
  H  H78  1  0.56285259  0.56819496  0.47545985  1
  H  H79  1  0.56285259  0.52454015  0.09273511  1
  H  H80  1  0.56285259  0.90726489  0.43180504  1
  H  H81  1  0.43714741  0.43180504  0.52454015  1
  H  H82  1  0.43714741  0.47545985  0.90726489  1
  H  H83  1  0.43714741  0.09273511  0.56819496  1
  H  H84  1  0.78522053  0.51815258  0.44334127  1
  H  H85  1  0.78522053  0.55665873  0.07481131  1
  H  H86  1  0.78522053  0.92518869  0.48184742  1
  H  H87  1  0.21477947  0.48184742  0.55665873  1
  H  H88  1  0.21477947  0.44334127  0.92518869  1
  H  H89  1  0.21477947  0.07481131  0.51815258  1
  H  H90  1  0.59052247  0.41778931  0.41959995  1
  H  H91  1  0.59052247  0.58040005  0.99818936  1
  H  H92  1  0.59052247  0.00181064  0.58221069  1
  H  H93  1  0.40947753  0.58221069  0.58040005  1
  H  H94  1  0.40947753  0.41959995  0.00181064  1
  H  H95  1  0.40947753  0.99818936  0.41778931  1
  H  H96  1  0.46945029  0.45761033  0.38083776  1
  H  H97  1  0.46945029  0.61916224  0.07677258  1
  H  H98  1  0.46945029  0.92322742  0.54238967  1
  H  H99  1  0.53054971  0.54238967  0.61916224  1
  H  H100  1  0.53054971  0.38083776  0.92322742  1
  H  H101  1  0.53054971  0.07677258  0.45761033  1
  C  C0  1  0.17160392  0.25721765  0.26701382  1
  C  C1  1  0.17160392  0.73298618  0.99020383  1
  C  C2  1  0.17160392  0.00979617  0.74278235  1
  C  C3  1  0.82839608  0.74278235  0.73298618  1
  C  C4  1  0.82839608  0.26701382  0.00979617  1
  C  C5  1  0.82839608  0.99020383  0.25721765  1
  C  C6  1  0.16453752  0.04617413  0.28422693  1
  C  C7  1  0.16453752  0.71577307  0.76194720  1
  C  C8  1  0.16453752  0.23805280  0.95382587  1
  C  C9  1  0.83546248  0.95382587  0.71577307  1
  C  C10  1  0.83546248  0.28422693  0.23805280  1
  C  C11  1  0.83546248  0.76194720  0.04617413  1
  C  C12  1  0.31331882  0.27664097  0.32562284  1
  C  C13  1  0.31331882  0.67437716  0.95101813  1
  C  C14  1  0.31331882  0.04898187  0.72335903  1
  C  C15  1  0.68668118  0.72335903  0.67437716  1
  C  C16  1  0.68668118  0.32562284  0.04898187  1
  C  C17  1  0.68668118  0.95101813  0.27664097  1
  C  C18  1  0.90128556  0.35158662  0.45033283  1
  C  C19  1  0.90128556  0.54966717  0.90125378  1
  C  C20  1  0.90128556  0.09874622  0.64841338  1
  C  C21  1  0.09871444  0.64841338  0.54966717  1
  C  C22  1  0.09871444  0.45033283  0.09874622  1
  C  C23  1  0.09871444  0.90125378  0.35158662  1
  C  C24  1  0.29231962  0.09520277  0.34289578  1
  C  C25  1  0.29231962  0.65710422  0.75230698  1
  C  C26  1  0.29231962  0.24769302  0.90479723  1
  C  C27  1  0.70768038  0.90479723  0.65710422  1
  C  C28  1  0.70768038  0.34289578  0.24769302  1
  C  C29  1  0.70768038  0.75230698  0.09520277  1
  C  C30  1  0.97726432  0.32798676  0.49660407  1
  C  C31  1  0.97726432  0.50339593  0.83138269  1
  C  C32  1  0.97726432  0.16861731  0.67201324  1
  C  C33  1  0.02273568  0.67201324  0.50339593  1
  C  C34  1  0.02273568  0.49660407  0.16861731  1
  C  C35  1  0.02273568  0.83138269  0.32798676  1
  C  C36  1  0.86736500  0.16215609  0.48013472  1
  C  C37  1  0.86736500  0.51986528  0.68202137  1
  C  C38  1  0.86736500  0.31797863  0.83784391  1
  C  C39  1  0.13263500  0.83784391  0.51986528  1
  C  C40  1  0.13263500  0.48013472  0.31797863  1
  C  C41  1  0.13263500  0.68202137  0.16215609  1
  C  C42  1  0.95846278  0.23144662  0.51206911  1
  C  C43  1  0.95846278  0.48793089  0.71937751  1
  C  C44  1  0.95846278  0.28062249  0.76855338  1
  C  C45  1  0.04153722  0.76855338  0.48793089  1
  C  C46  1  0.04153722  0.51206911  0.28062249  1
  C  C47  1  0.04153722  0.71937751  0.23144662  1
  C  C48  1  0.63976865  0.52335064  0.46815892  1
  C  C49  1  0.63976865  0.53184108  0.05519172  1
  C  C50  1  0.63976865  0.94480828  0.47664936  1
  C  C51  1  0.36023135  0.47664936  0.53184108  1
  C  C52  1  0.36023135  0.46815892  0.94480828  1
  C  C53  1  0.36023135  0.05519172  0.52335064  1
  C  C54  1  0.51033129  0.46252925  0.42843158  1
  C  C55  1  0.51033129  0.57156842  0.03409767  1
  C  C56  1  0.51033129  0.96590233  0.53747075  1
  C  C57  1  0.48966871  0.53747075  0.57156842  1
  C  C58  1  0.48966871  0.42843158  0.96590233  1
  C  C59  1  0.48966871  0.03409767  0.46252925  1
  N  N0  1  0.01078110  0.30800970  0.28435105  1
  N  N1  1  0.01078110  0.71564895  0.02365865  1
  N  N2  1  0.01078110  0.97634135  0.69199030  1
  N  N3  1  0.98921890  0.69199030  0.71564895  1
  N  N4  1  0.98921890  0.28435105  0.97634135  1
  N  N5  1  0.98921890  0.02365865  0.30800970  1
  N  N6  1  0.96135508  0.25594522  0.46531331  1
  N  N7  1  0.96135508  0.53468669  0.79063191  1
  N  N8  1  0.96135508  0.20936809  0.74405478  1
  N  N9  1  0.03864492  0.74405478  0.53468669  1
  N  N10  1  0.03864492  0.46531331  0.20936809  1
  N  N11  1  0.03864492  0.79063191  0.25594522  1
  N  N12  1  0.68170645  0.53338217  0.53554120  1
  N  N13  1  0.68170645  0.46445880  0.99784097  1
  N  N14  1  0.68170645  0.00215903  0.46661783  1
  N  N15  1  0.31829355  0.46661783  0.46445880  1
  N  N16  1  0.31829355  0.53554120  0.00215903  1
  N  N17  1  0.31829355  0.99784097  0.53338217  1
  O  O0  1  0.92361727  0.40994027  0.46437118  1
  O  O1  1  0.92361727  0.53562882  0.94556909  1
  O  O2  1  0.92361727  0.05443091  0.59005973  1
  O  O3  1  0.07638273  0.59005973  0.53562882  1
  O  O4  1  0.07638273  0.46437118  0.05443091  1
  O  O5  1  0.07638273  0.94556909  0.40994027  1
  O  O6  1  0.84531275  0.16396155  0.31126705  1
  O  O7  1  0.84531275  0.68873295  0.85269449  1
  O  O8  1  0.84531275  0.14730551  0.83603845  1
  O  O9  1  0.15468725  0.83603845  0.68873295  1
  O  O10  1  0.15468725  0.31126705  0.14730551  1
  O  O11  1  0.15468725  0.85269449  0.16396155  1
  O  O12  1  0.81385024  0.30681390  0.39660603  1
  O  O13  1  0.81385024  0.60339397  0.91020787  1
  O  O14  1  0.81385024  0.08979213  0.69318610  1
  O  O15  1  0.18614976  0.69318610  0.60339397  1
  O  O16  1  0.18614976  0.39660603  0.08979213  1
  O  O17  1  0.18614976  0.91020787  0.30681390  1
  O  O18  1  0.49525128  0.25100976  0.44895145  1
  O  O19  1  0.49525128  0.55104855  0.80205831  1
  O  O20  1  0.49525128  0.19794169  0.74899024  1
  O  O21  1  0.50474872  0.74899024  0.55104855  1
  O  O22  1  0.50474872  0.44895145  0.19794169  1
  O  O23  1  0.50474872  0.80205831  0.25100976  1
  O  O24  1  0.45461654  0.23404895  0.31354830  1
  O  O25  1  0.45461654  0.68645170  0.92050066  1
  O  O26  1  0.45461654  0.07949934  0.76595105  1
  O  O27  1  0.54538346  0.76595105  0.68645170  1
  O  O28  1  0.54538346  0.31354830  0.07949934  1
  O  O29  1  0.54538346  0.92050066  0.23404895  1
  O  O30  1  0.78357545  0.14166747  0.42245753  1
  O  O31  1  0.78357545  0.57754247  0.71920994  1
  O  O32  1  0.78357545  0.28079006  0.85833253  1
  O  O33  1  0.21642455  0.85833253  0.57754247  1
  O  O34  1  0.21642455  0.42245753  0.28079006  1
  O  O35  1  0.21642455  0.71920994  0.14166747  1
  O  O36  1  0.45410850  0.11355110  0.32501420  1
  O  O37  1  0.45410850  0.67498580  0.78853691  1
  O  O38  1  0.45410850  0.21146309  0.88644890  1
  O  O39  1  0.54589150  0.88644890  0.67498580  1
  O  O40  1  0.54589150  0.32501420  0.21146309  1
  O  O41  1  0.54589150  0.78853691  0.11355110  1
  O  O42  1  0.28320570  0.32896677  0.37825335  1
  O  O43  1  0.28320570  0.62174665  0.95071342  1
  O  O44  1  0.28320570  0.04928658  0.67103323  1
  O  O45  1  0.71679430  0.67103323  0.62174665  1
  O  O46  1  0.71679430  0.37825335  0.04928658  1
  O  O47  1  0.71679430  0.95071342  0.32896677  1
  O  O48  1  0.87313551  0.13031291  0.50939643  1
  O  O49  1  0.87313551  0.49060357  0.62091648  1
  O  O50  1  0.87313551  0.37908352  0.86968709  1
  O  O51  1  0.12686449  0.86968709  0.49060357  1
  O  O52  1  0.12686449  0.50939643  0.37908352  1
  O  O53  1  0.12686449  0.62091648  0.13031291  1
  O  O54  1  0.23483931  0.11349973  0.39987954  1
  O  O55  1  0.23483931  0.60012046  0.71362019  1
  O  O56  1  0.23483931  0.28637981  0.88650027  1
  O  O57  1  0.76516069  0.88650027  0.60012046  1
  O  O58  1  0.76516069  0.39987954  0.28637981  1
  O  O59  1  0.76516069  0.71362019  0.11349973  1
loop_
_geom_bond_atom_site_label_1
_geom_bond_atom_site_label_2
_geom_bond_distance
_geom_bond_site_symmetry_2
H0 N0 1.044889 1_555
H1 N1 1.044888 1_555
H2 N2 1.044889 1_555
H3 N3 1.044889 1_555
H4 N4 1.044888 1_555
H5 N5 1.044889 1_555
H6 N0 1.042452 1_655
H7 N1 1.042452 1_656
H8 N2 1.042453 1_645
H9 N3 1.042452 1_455
H10 N4 1.042452 1_454
H11 N5 1.042453 1_465
H12 N6 1.025325 1_455
H13 N7 1.025325 1_455
H14 N8 1.025325 1_455
H15 N9 1.025325 1_655
H16 N10 1.025325 1_655
H17 N11 1.025325 1_655
H18 N12 1.038449 1_555
H19 N13 1.038449 1_554
H20 N14 1.038449 1_565
H21 N15 1.038449 1_555
H22 N16 1.038449 1_556
H23 N17 1.038449 1_545
H24 N12 1.040272 1_555
H25 N13 1.040272 1_555
H26 N14 1.040272 1_555
H27 N15 1.040272 1_555
H28 N16 1.040272 1_555
H29 N17 1.040272 1_555
C0 H36 1.097659 1_555
C0 H30 1.098145 1_555
C0 N0 1.490685 1_555
C1 H37 1.097659 1_556
C1 H31 1.098145 1_555
C1 N1 1.490685 1_556
C2 H38 1.097659 1_545
C2 H32 1.098145 1_555
C2 N2 1.490685 1_545
C3 H39 1.097659 1_555
C3 H33 1.098145 1_555
C3 N3 1.490685 1_555
C4 H40 1.097659 1_554
C4 H34 1.098145 1_555
C4 N4 1.490685 1_554
C5 H41 1.097659 1_565
C5 H35 1.098145 1_555
C5 N5 1.490685 1_565
C6 H48 1.096733 1_555
C6 H42 1.097901 1_555
C6 N5 1.489962 1_455
C7 H49 1.096733 1_555
C7 H43 1.097901 1_555
C7 N3 1.489962 1_455
C8 H50 1.096733 1_555
C8 H44 1.097901 1_555
C8 N4 1.489962 1_455
C9 H51 1.096733 1_555
C9 H45 1.097901 1_555
C9 N2 1.489962 1_655
C10 H52 1.096733 1_555
C10 H46 1.097901 1_555
C10 N0 1.489962 1_655
C11 H53 1.096733 1_555
C11 H47 1.097901 1_555
C11 N1 1.489962 1_655
C12 O42 1.243965 1_555
C12 O24 1.289033 1_555
C13 O43 1.243965 1_555
C13 O25 1.289033 1_555
C14 O44 1.243965 1_555
C14 O26 1.289033 1_555
C15 O45 1.243965 1_555
C15 O27 1.289033 1_555
C16 O46 1.243965 1_555
C16 O28 1.289033 1_555
C17 O47 1.243965 1_555
C17 O29 1.289033 1_555
C18 O0 1.243200 1_555
C18 O12 1.301601 1_555
C19 O1 1.243200 1_555
C19 O13 1.301601 1_555
C20 O2 1.243200 1_555
C20 O14 1.301601 1_555
C21 O3 1.243200 1_555
C21 O15 1.301601 1_555
C22 O4 1.243200 1_555
C22 O16 1.301601 1_555
C23 O5 1.243200 1_555
C23 O17 1.301601 1_555
C24 O54 1.238688 1_555
C24 O36 1.296073 1_555
C25 O55 1.238688 1_555
C25 O37 1.296073 1_555
C26 O56 1.238687 1_555
C26 O38 1.296073 1_555
C27 O57 1.238688 1_555
C27 O39 1.296073 1_555
C28 O58 1.238688 1_555
C28 O40 1.296073 1_555
C29 O59 1.238687 1_555
C29 O41 1.296073 1_555
C30 H54 1.100719 1_555
C30 H60 1.101149 1_655
C30 N6 1.467841 1_555
C31 H55 1.100719 1_555
C31 H61 1.101149 1_655
C31 N7 1.467841 1_555
C32 H56 1.100719 1_555
C32 H62 1.101149 1_655
C32 N8 1.467841 1_555
C33 H57 1.100719 1_555
C33 H63 1.101149 1_455
C33 N9 1.467841 1_555
C34 H58 1.100719 1_555
C34 H64 1.101149 1_455
C34 N10 1.467841 1_555
C35 H59 1.100719 1_555
C35 H65 1.101149 1_455
C35 N11 1.467841 1_555
C36 O48 1.239217 1_555
C36 O30 1.307762 1_555
C37 O49 1.239217 1_555
C37 O31 1.307762 1_555
C38 O50 1.239217 1_555
C38 O32 1.307762 1_555
C39 O51 1.239217 1_555
C39 O33 1.307762 1_555
C40 O52 1.239217 1_555
C40 O34 1.307762 1_555
C41 O53 1.239217 1_555
C41 O35 1.307762 1_555
C42 H72 1.101287 1_555
C42 H66 1.101549 1_655
C42 N6 1.467356 1_555
C43 H73 1.101287 1_555
C43 H67 1.101549 1_655
C43 N7 1.467356 1_555
C44 H74 1.101287 1_555
C44 H68 1.101549 1_655
C44 N8 1.467356 1_555
C45 H75 1.101287 1_555
C45 H69 1.101549 1_455
C45 N9 1.467356 1_555
C46 H76 1.101287 1_555
C46 H70 1.101549 1_455
C46 N10 1.467356 1_555
C47 H77 1.101287 1_555
C47 H71 1.101549 1_455
C47 N11 1.467356 1_555
C48 H84 1.096996 1_555
C48 H78 1.099476 1_555
C48 N12 1.499220 1_555
C49 H85 1.096996 1_555
C49 H79 1.099476 1_555
C49 N13 1.499220 1_554
C50 H86 1.096996 1_555
C50 H80 1.099476 1_555
C50 N14 1.499220 1_565
C51 H87 1.096996 1_555
C51 H81 1.099476 1_555
C51 N15 1.499220 1_555
C52 H88 1.096996 1_555
C52 H82 1.099476 1_555
C52 N16 1.499220 1_556
C53 H89 1.096996 1_555
C53 H83 1.099476 1_555
C53 N17 1.499220 1_545
C54 H96 1.094606 1_555
C54 H90 1.096628 1_555
C54 N15 1.498789 1_555
C55 H97 1.094606 1_555
C55 H91 1.096628 1_554
C55 N16 1.498789 1_555
C56 H98 1.094606 1_555
C56 H92 1.096628 1_565
C56 N17 1.498789 1_555
C57 H99 1.094606 1_555
C57 H93 1.096628 1_555
C57 N12 1.498789 1_555
C58 H100 1.094606 1_555
C58 H94 1.096628 1_556
C58 N13 1.498789 1_555
C59 H101 1.094606 1_555
C59 H95 1.096628 1_545
C59 N14 1.498789 1_555
N6 U0 2.650018 1_555
N7 U1 2.650018 1_555
N8 U2 2.650018 1_555
N9 U3 2.650018 1_555
N10 U4 2.650018 1_555
N11 U5 2.650018 1_555
O6 U0 1.831086 1_555
O7 U1 1.831086 1_555
O8 U2 1.831086 1_555
O9 U3 1.831086 1_555
O10 U4 1.831086 1_555
O11 U5 1.831086 1_555
O12 U0 2.388480 1_555
O13 U1 2.388480 1_555
O14 U2 2.388480 1_555
O15 U3 2.388480 1_555
O16 U4 2.388480 1_555
O17 U5 2.388480 1_555
O18 U0 1.818962 1_555
O19 U1 1.818962 1_555
O20 U2 1.818962 1_555
O21 U3 1.818962 1_555
O22 U4 1.818962 1_555
O23 U5 1.818962 1_555
O24 U0 2.362664 1_555
O25 U1 2.362664 1_555
O26 U2 2.362664 1_555
O27 U3 2.362664 1_555
O28 U4 2.362664 1_555
O29 U5 2.362664 1_555
O30 U0 2.357794 1_555
O31 U1 2.357794 1_555
O32 U2 2.357794 1_555
O33 U3 2.357794 1_555
O34 U4 2.357794 1_555
O35 U5 2.357794 1_555
O36 U0 2.335113 1_555
O37 U1 2.335113 1_555
O38 U2 2.335113 1_555
O39 U3 2.335113 1_555
O40 U4 2.335113 1_555
O41 U5 2.335113 1_555
