# generated using pymatgen
data_LiIn(MoSe)6
_symmetry_space_group_name_H-M   'P 1'
_cell_length_a   9.45605848
_cell_length_b   9.45605848
_cell_length_c   4.51528800
_cell_angle_alpha   90.00000000
_cell_angle_beta   90.00000000
_cell_angle_gamma   120.00000335
_symmetry_Int_Tables_number   1
_chemical_formula_structural   LiIn(MoSe)6
_chemical_formula_sum   'Li1 In1 Mo6 Se6'
_cell_volume   349.65228599
_cell_formula_units_Z   1
loop_
 _symmetry_equiv_pos_site_id
 _symmetry_equiv_pos_as_xyz
  1  'x, y, z'
loop_
 _atom_site_type_symbol
 _atom_site_label
 _atom_site_symmetry_multiplicity
 _atom_site_fract_x
 _atom_site_fract_y
 _atom_site_fract_z
 _atom_site_occupancy
  Li  Li0  1  0.66666700  0.33333300  0.50000000  1
  In  In0  1  0.33333300  0.66666700  0.00000000  1
  Mo  Mo0  1  0.14830100  0.17501300  0.50000000  1
  Mo  Mo1  1  0.82498700  0.97328700  0.50000000  1
  Mo  Mo2  1  0.02671300  0.85169900  0.50000000  1
  Mo  Mo3  1  0.84971200  0.82602700  0.00000000  1
  Mo  Mo4  1  0.17397300  0.02368500  0.00000000  1
  Mo  Mo5  1  0.97631500  0.15028800  0.00000000  1
  Se  Se0  1  0.35106700  0.06066700  0.50000000  1
  Se  Se1  1  0.93933300  0.29040100  0.50000000  1
  Se  Se2  1  0.70959900  0.64893300  0.50000000  1
  Se  Se3  1  0.66039000  0.95788200  0.00000000  1
  Se  Se4  1  0.04211800  0.70250700  0.00000000  1
  Se  Se5  1  0.29749300  0.33961000  0.00000000  1
loop_
_geom_bond_atom_site_label_1
_geom_bond_atom_site_label_2
_geom_bond_distance
_geom_bond_site_symmetry_2
Li0 Se1 2.803462 1_555
Li0 Se0 2.803474 1_555
Li0 Se2 2.803481 1_555
In0 Se4 2.937896 1_555
In0 Se3 2.937907 1_555
In0 Se5 2.937915 1_555
Mo0 Se0 2.630324 1_555
Mo0 Mo1 2.674652 1_445
Mo0 Mo2 2.674652 1_545
Mo0 Se1 2.692809 1_455
Mo0 Se5 2.704432 1_555
Mo0 Se5 2.704432 1_556
Mo0 Mo5 2.723283 1_455
Mo0 Mo5 2.723283 1_456
Mo0 Mo4 2.747895 1_555
Mo0 Mo4 2.747895 1_556
Mo1 Se1 2.630341 1_565
Mo1 Mo2 2.674652 1_655
Mo1 Se2 2.692792 1_555
Mo1 Se3 2.704432 1_556
Mo1 Se3 2.704432 1_555
Mo1 Mo3 2.723278 1_556
Mo1 Mo3 2.723278 1_555
Mo1 Mo5 2.747898 1_566
Mo1 Mo5 2.747898 1_565
Mo2 Se2 2.630338 1_455
Mo2 Se0 2.692795 1_565
Mo2 Se4 2.704432 1_556
Mo2 Se4 2.704432 1_555
Mo2 Mo4 2.723281 1_565
Mo2 Mo4 2.723281 1_566
Mo2 Mo3 2.747900 1_456
Mo2 Mo3 2.747900 1_455
Mo3 Se4 2.607597 1_655
Mo3 Se3 2.644175 1_555
Mo3 Mo4 2.676601 1_665
Mo3 Mo5 2.676601 1_565
Mo3 Se2 2.727263 1_554
Mo3 Se2 2.727263 1_555
Mo4 Se5 2.607588 1_555
Mo4 Se4 2.644184 1_545
Mo4 Mo5 2.676601 1_455
Mo4 Se0 2.727261 1_555
Mo4 Se0 2.727261 1_554
Mo5 Se3 2.607589 1_545
Mo5 Se5 2.644183 1_655
Mo5 Se1 2.727266 1_554
Mo5 Se1 2.727266 1_555
