# generated using pymatgen
data_Nb2CoS4
_symmetry_space_group_name_H-M   'P 1'
_cell_length_a   3.33112900
_cell_length_b   9.94210900
_cell_length_c   13.40550000
_cell_angle_alpha   90.00000000
_cell_angle_beta   90.00000000
_cell_angle_gamma   90.00000000
_symmetry_Int_Tables_number   1
_chemical_formula_structural   Nb2CoS4
_chemical_formula_sum   'Nb8 Co4 S16'
_cell_volume   443.96934945
_cell_formula_units_Z   4
loop_
 _symmetry_equiv_pos_site_id
 _symmetry_equiv_pos_as_xyz
  1  'x, y, z'
loop_
 _atom_site_type_symbol
 _atom_site_label
 _atom_site_symmetry_multiplicity
 _atom_site_fract_x
 _atom_site_fract_y
 _atom_site_fract_z
 _atom_site_occupancy
  Nb  Nb0  1  0.75000000  0.85818300  0.59748000  1
  Nb  Nb1  1  0.25000000  0.14181700  0.40252000  1
  Nb  Nb2  1  0.25000000  0.64181700  0.09748000  1
  Nb  Nb3  1  0.75000000  0.35818300  0.90252000  1
  Nb  Nb4  1  0.75000000  0.51746300  0.40846100  1
  Nb  Nb5  1  0.25000000  0.48253700  0.59153900  1
  Nb  Nb6  1  0.25000000  0.98253700  0.90846100  1
  Nb  Nb7  1  0.75000000  0.01746300  0.09153900  1
  Co  Co0  1  0.75000000  0.75027400  0.81835400  1
  Co  Co1  1  0.25000000  0.24972600  0.18164600  1
  Co  Co2  1  0.25000000  0.74972600  0.31835400  1
  Co  Co3  1  0.75000000  0.25027400  0.68164600  1
  S  S0  1  0.75000000  0.62337800  0.67949200  1
  S  S1  1  0.25000000  0.37662200  0.32050800  1
  S  S2  1  0.25000000  0.87662200  0.17949200  1
  S  S3  1  0.75000000  0.12337800  0.82050800  1
  S  S4  1  0.75000000  0.63629300  0.24724100  1
  S  S5  1  0.25000000  0.36370700  0.75275900  1
  S  S6  1  0.25000000  0.86370700  0.74724100  1
  S  S7  1  0.75000000  0.13629300  0.25275900  1
  S  S8  1  0.75000000  0.94770600  0.41457400  1
  S  S9  1  0.25000000  0.05229400  0.58542600  1
  S  S10  1  0.25000000  0.55229400  0.91457400  1
  S  S11  1  0.75000000  0.44770600  0.08542600  1
  S  S12  1  0.75000000  0.80107100  0.98702600  1
  S  S13  1  0.25000000  0.19892900  0.01297400  1
  S  S14  1  0.25000000  0.69892900  0.48702600  1
  S  S15  1  0.75000000  0.30107100  0.51297400  1
loop_
_geom_bond_atom_site_label_1
_geom_bond_atom_site_label_2
_geom_bond_distance
_geom_bond_site_symmetry_2
Nb0 S9 2.554335 1_565
Nb0 S9 2.554335 1_665
Nb0 S0 2.580387 1_555
Nb0 S8 2.608491 1_555
Nb0 S6 2.609150 1_655
Nb0 S6 2.609150 1_555
Nb0 S14 2.733762 1_555
Nb0 S14 2.733762 1_655
Nb1 S8 2.554335 1_545
Nb1 S8 2.554335 1_445
Nb1 S1 2.580387 1_555
Nb1 S9 2.608491 1_555
Nb1 S7 2.609150 1_555
Nb1 S7 2.609150 1_455
Nb1 S15 2.733762 1_455
Nb1 S15 2.733762 1_555
Nb2 S11 2.554335 1_555
Nb2 S11 2.554335 1_455
Nb2 S2 2.580387 1_555
Nb2 S10 2.608491 1_554
Nb2 S4 2.609150 1_455
Nb2 S4 2.609150 1_555
Nb2 S12 2.733762 1_554
Nb2 S12 2.733762 1_454
Nb3 S10 2.554335 1_655
Nb3 S10 2.554335 1_555
Nb3 S3 2.580387 1_555
Nb3 S11 2.608491 1_556
Nb3 S5 2.609150 1_555
Nb3 S5 2.609150 1_655
Nb3 S13 2.733762 1_556
Nb3 S13 2.733762 1_656
Nb4 S4 2.463065 1_555
Nb4 S1 2.474872 1_555
Nb4 S1 2.474872 1_655
Nb4 S15 2.567378 1_555
Nb4 S14 2.671763 1_555
Nb4 S14 2.671763 1_655
Nb5 S5 2.463065 1_555
Nb5 S0 2.474872 1_455
Nb5 S0 2.474872 1_555
Nb5 S14 2.567378 1_555
Nb5 S15 2.671763 1_455
Nb5 S15 2.671763 1_555
Nb6 S6 2.463065 1_555
Nb6 S3 2.474872 1_465
Nb6 S3 2.474872 1_565
Nb6 S13 2.567378 1_566
Nb6 S12 2.671763 1_455
Nb6 S12 2.671763 1_555
Nb7 S7 2.463065 1_555
Nb7 S2 2.474872 1_645
Nb7 S2 2.474872 1_545
Nb7 S12 2.567378 1_544
Nb7 S13 2.671763 1_555
Nb7 S13 2.671763 1_655
Co0 S6 2.225926 1_555
Co0 S6 2.225926 1_655
Co0 S0 2.248757 1_555
Co0 S12 2.316846 1_555
Co0 S10 2.883097 1_555
Co0 S10 2.883097 1_655
Co1 S7 2.225926 1_455
Co1 S7 2.225926 1_555
Co1 S1 2.248757 1_555
Co1 S13 2.316846 1_555
Co1 S11 2.883097 1_555
Co1 S11 2.883097 1_455
Co2 S4 2.225926 1_455
Co2 S4 2.225926 1_555
Co2 S2 2.248757 1_555
Co2 S14 2.316846 1_555
Co2 S8 2.883097 1_555
Co2 S8 2.883097 1_455
Co3 S5 2.225926 1_555
Co3 S5 2.225926 1_655
Co3 S3 2.248757 1_555
Co3 S15 2.316846 1_555
Co3 S9 2.883097 1_655
Co3 S9 2.883097 1_555
