# generated using pymatgen
data_ErNiB4
_symmetry_space_group_name_H-M   'P 1'
_cell_length_a   3.36274110
_cell_length_b   5.84312160
_cell_length_c   11.32833665
_cell_angle_alpha   89.99951085
_cell_angle_beta   90.00000000
_cell_angle_gamma   90.00000000
_symmetry_Int_Tables_number   1
_chemical_formula_structural   ErNiB4
_chemical_formula_sum   'Er4 Ni4 B16'
_cell_volume   222.58941241
_cell_formula_units_Z   4
loop_
 _symmetry_equiv_pos_site_id
 _symmetry_equiv_pos_as_xyz
  1  'x, y, z'
loop_
 _atom_site_type_symbol
 _atom_site_label
 _atom_site_symmetry_multiplicity
 _atom_site_fract_x
 _atom_site_fract_y
 _atom_site_fract_z
 _atom_site_occupancy
  Er  Er0  1  -0.00000000  0.62720917  0.34991945  1
  Er  Er1  1  0.00000000  0.37279022  0.65008086  1
  Er  Er2  1  0.00000000  0.12720638  0.15007916  1
  Er  Er3  1  -0.00000000  0.87279230  0.84992093  1
  Ni  Ni0  1  -0.00000000  0.63375256  0.08806906  1
  Ni  Ni1  1  -0.00000000  0.36624675  0.91193993  1
  Ni  Ni2  1  0.00000000  0.13376253  0.41191588  1
  Ni  Ni3  1  0.00000000  0.86624467  0.58807222  1
  B  B0  1  0.50000000  0.78472641  0.18490514  1
  B  B1  1  0.50000000  0.21527389  0.81509580  1
  B  B2  1  0.50000000  0.28472885  0.31509084  1
  B  B3  1  0.50000000  0.71527253  0.68490821  1
  B  B4  1  0.50000000  0.86252034  0.03318242  1
  B  B5  1  0.50000000  0.13747806  0.96681889  1
  B  B6  1  0.50000000  0.36251891  0.46681713  1
  B  B7  1  0.50000000  0.63748026  0.53318238  1
  B  B8  1  0.50000000  0.88659281  0.45283860  1
  B  B9  1  0.50000000  0.11340762  0.54716059  1
  B  B10  1  0.50000000  0.38658876  0.04716106  1
  B  B11  1  0.50000000  0.61341100  0.95284003  1
  B  B12  1  0.50000000  0.97900825  0.30875788  1
  B  B13  1  0.50000000  0.02099056  0.69124160  1
  B  B14  1  0.50000000  0.47900961  0.19123974  1
  B  B15  1  0.50000000  0.52098954  0.80876121  1
loop_
_geom_bond_atom_site_label_1
_geom_bond_atom_site_label_2
_geom_bond_distance
_geom_bond_site_symmetry_2
B0 B4 1.777855 1_555
B0 B14 1.787781 1_555
B0 B12 1.804791 1_555
B0 Ni0 2.192856 1_655
B0 Ni0 2.192856 1_555
B0 Er2 2.643341 1_665
B0 Er2 2.643341 1_565
B0 Er0 2.677410 1_655
B0 Er0 2.677410 1_555
B1 B5 1.777862 1_555
B1 B15 1.787774 1_555
B1 B13 1.804810 1_555
B1 Ni1 2.192899 1_555
B1 Ni1 2.192899 1_655
B1 Er3 2.643346 1_545
B1 Er3 2.643346 1_645
B1 Er1 2.677413 1_555
B1 Er1 2.677413 1_655
B2 B6 1.777896 1_555
B2 Ni2 2.192768 1_655
B2 Ni2 2.192768 1_555
B2 Er0 2.643352 1_555
B2 Er0 2.643352 1_655
B2 Er2 2.677410 1_655
B2 Er2 2.677410 1_555
B3 B7 1.777894 1_555
B3 Ni3 2.192844 1_555
B3 Ni3 2.192844 1_655
B3 Er1 2.643358 1_555
B3 Er1 2.643358 1_655
B3 Er3 2.677413 1_655
B3 Er3 2.677413 1_555
B4 B5 1.773800 1_564
B4 Ni0 2.236160 1_555
B4 Ni0 2.236160 1_655
B4 Er2 2.640571 1_665
B4 Er2 2.640571 1_565
B4 Er3 2.672187 1_554
B4 Er3 2.672187 1_654
B5 Ni1 2.236139 1_655
B5 Ni1 2.236139 1_555
B5 Er3 2.640577 1_545
B5 Er3 2.640577 1_645
B5 Er2 2.672176 1_556
B5 Er2 2.672176 1_656
B6 B9 1.716712 1_555
B6 B7 1.773839 1_555
B6 Ni2 2.236172 1_555
B6 Ni2 2.236172 1_655
B6 Er0 2.640578 1_655
B6 Er0 2.640578 1_555
B6 Er1 2.672207 1_655
B6 Er1 2.672207 1_555
B7 B8 1.716720 1_555
B7 Ni3 2.236165 1_655
B7 Ni3 2.236165 1_555
B7 Er1 2.640582 1_655
B7 Er1 2.640582 1_555
B7 Er0 2.672200 1_555
B7 Er0 2.672200 1_655
B8 B9 1.702404 1_565
B8 Ni2 2.264452 1_565
B8 Ni2 2.264452 1_665
B8 Ni3 2.277735 1_655
B8 Ni3 2.277735 1_555
B8 Er0 2.546260 1_655
B8 Er0 2.546260 1_555
B9 Ni3 2.264401 1_545
B9 Ni3 2.264401 1_645
B9 Ni2 2.277822 1_555
B9 Ni2 2.277822 1_655
B9 Er1 2.546262 1_655
B9 Er1 2.546262 1_555
B10 B11 1.702416 1_554
B10 B5 1.716714 1_554
B10 B14 1.719194 1_555
B10 Ni0 2.264401 1_655
B10 Ni0 2.264401 1_555
B10 Ni1 2.277640 1_554
B10 Ni1 2.277640 1_654
B10 Er2 2.546238 1_555
B10 Er2 2.546238 1_655
B11 B4 1.716709 1_556
B11 B15 1.719197 1_555
B11 Ni1 2.264385 1_655
B11 Ni1 2.264385 1_555
B11 Ni0 2.277700 1_656
B11 Ni0 2.277700 1_556
B11 Er3 2.546240 1_555
B11 Er3 2.546240 1_655
B12 B8 1.719197 1_555
B12 B2 1.787803 1_565
B12 Ni2 2.238378 1_565
B12 Ni2 2.238378 1_665
B12 Er2 2.609229 1_665
B12 Er2 2.609229 1_565
B12 Er0 2.696281 1_655
B12 Er0 2.696281 1_555
B13 B9 1.719203 1_555
B13 B3 1.787788 1_545
B13 Ni3 2.238425 1_545
B13 Ni3 2.238425 1_645
B13 Er3 2.609234 1_545
B13 Er3 2.609234 1_645
B13 Er1 2.696282 1_655
B13 Er1 2.696282 1_555
B14 B2 1.804758 1_555
B14 Ni0 2.238418 1_655
B14 Ni0 2.238418 1_555
B14 Er0 2.609250 1_655
B14 Er0 2.609250 1_555
B14 Er2 2.696303 1_555
B14 Er2 2.696303 1_655
B15 B3 1.804783 1_555
B15 Ni1 2.238465 1_555
B15 Ni1 2.238465 1_655
B15 Er1 2.609254 1_555
B15 Er1 2.609254 1_655
B15 Er3 2.696300 1_555
B15 Er3 2.696300 1_655
