# generated using pymatgen
data_B2PH20C5N
_symmetry_space_group_name_H-M   'P 1'
_cell_length_a   7.15768200
_cell_length_b   10.90437400
_cell_length_c   16.07402800
_cell_angle_alpha   90.00000000
_cell_angle_beta   90.00000000
_cell_angle_gamma   90.00000000
_symmetry_Int_Tables_number   1
_chemical_formula_structural   B2PH20C5N
_chemical_formula_sum   'B8 P4 H80 C20 N4'
_cell_volume   1254.57855249
_cell_formula_units_Z   4
loop_
 _symmetry_equiv_pos_site_id
 _symmetry_equiv_pos_as_xyz
  1  'x, y, z'
loop_
 _atom_site_type_symbol
 _atom_site_label
 _atom_site_symmetry_multiplicity
 _atom_site_fract_x
 _atom_site_fract_y
 _atom_site_fract_z
 _atom_site_occupancy
  B  B0  1  0.22761400  0.78163300  0.02813000  1
  B  B1  1  0.77238600  0.28163300  0.97187000  1
  B  B2  1  0.22761400  0.28163300  0.47187000  1
  B  B3  1  0.77238600  0.78163300  0.52813000  1
  B  B4  1  0.42397400  0.92070800  0.13217500  1
  B  B5  1  0.57602600  0.42070800  0.86782500  1
  B  B6  1  0.42397400  0.42070800  0.36782500  1
  B  B7  1  0.57602600  0.92070800  0.63217500  1
  P  P0  1  0.33869100  0.85554100  0.92944100  1
  P  P1  1  0.66130900  0.35554100  0.07055900  1
  P  P2  1  0.33869100  0.35554100  0.57055900  1
  P  P3  1  0.66130900  0.85554100  0.42944100  1
  H  H0  1  0.63972400  0.95632200  0.93801700  1
  H  H1  1  0.36027600  0.45632200  0.06198300  1
  H  H2  1  0.63972400  0.45632200  0.56198300  1
  H  H3  1  0.36027600  0.95632200  0.43801700  1
  H  H4  1  0.65471600  0.79889300  0.96766800  1
  H  H5  1  0.34528400  0.29889300  0.03233200  1
  H  H6  1  0.65471600  0.29889300  0.53233200  1
  H  H7  1  0.34528400  0.79889300  0.46766800  1
  H  H8  1  0.63595700  0.83943500  0.85968100  1
  H  H9  1  0.36404300  0.33943500  0.14031900  1
  H  H10  1  0.63595700  0.33943500  0.64031900  1
  H  H11  1  0.36404300  0.83943500  0.35968100  1
  H  H12  1  0.33154700  0.66253100  0.85503000  1
  H  H13  1  0.66845300  0.16253100  0.14497000  1
  H  H14  1  0.33154700  0.16253100  0.64497000  1
  H  H15  1  0.66845300  0.66253100  0.35503000  1
  H  H16  1  0.12249600  0.74978300  0.83833400  1
  H  H17  1  0.87750400  0.24978300  0.16166600  1
  H  H18  1  0.12249600  0.24978300  0.66166600  1
  H  H19  1  0.87750400  0.74978300  0.33833400  1
  H  H20  1  0.33550100  0.79241500  0.78654200  1
  H  H21  1  0.66449900  0.29241500  0.21345800  1
  H  H22  1  0.33550100  0.29241500  0.71345800  1
  H  H23  1  0.66449900  0.79241500  0.28654200  1
  H  H24  1  0.31066900  0.02497900  0.83313400  1
  H  H25  1  0.68933100  0.52497900  0.16686600  1
  H  H26  1  0.31066900  0.52497900  0.66686600  1
  H  H27  1  0.68933100  0.02497900  0.33313400  1
  H  H28  1  0.10506300  0.00894700  0.89616700  1
  H  H29  1  0.89493700  0.50894700  0.10383300  1
  H  H30  1  0.10506300  0.50894700  0.60383300  1
  H  H31  1  0.89493700  0.00894700  0.39616700  1
  H  H32  1  0.31223400  0.07626100  0.93874600  1
  H  H33  1  0.68776600  0.57626100  0.06125400  1
  H  H34  1  0.31223400  0.57626100  0.56125400  1
  H  H35  1  0.68776600  0.07626100  0.43874600  1
  H  H36  1  0.32055200  0.68860400  0.03484500  1
  H  H37  1  0.67944800  0.18860400  0.96515500  1
  H  H38  1  0.32055200  0.18860400  0.46515500  1
  H  H39  1  0.67944800  0.68860400  0.53484500  1
  H  H40  1  0.06746400  0.75936900  0.00653700  1
  H  H41  1  0.93253600  0.25936900  0.99346300  1
  H  H42  1  0.06746400  0.25936900  0.49346300  1
  H  H43  1  0.93253600  0.75936900  0.50653700  1
  H  H44  1  0.44780700  0.99985100  0.07890500  1
  H  H45  1  0.55219300  0.49985100  0.92109500  1
  H  H46  1  0.44780700  0.49985100  0.42109500  1
  H  H47  1  0.55219300  0.99985100  0.57890500  1
  H  H48  1  0.54516400  0.84140500  0.13038300  1
  H  H49  1  0.45483600  0.34140500  0.86961700  1
  H  H50  1  0.54516400  0.34140500  0.36961700  1
  H  H51  1  0.45483600  0.84140500  0.63038300  1
  H  H52  1  0.41054000  0.96741100  0.20165300  1
  H  H53  1  0.58946000  0.46741100  0.79834700  1
  H  H54  1  0.41054000  0.46741100  0.29834700  1
  H  H55  1  0.58946000  0.96741100  0.70165300  1
  H  H56  1  0.07949100  0.99694000  0.17367600  1
  H  H57  1  0.92050900  0.49694000  0.82632400  1
  H  H58  1  0.07949100  0.49694000  0.32632400  1
  H  H59  1  0.92050900  0.99694000  0.67367600  1
  H  H60  1  0.09374900  0.01415400  0.06364000  1
  H  H61  1  0.90625100  0.51415400  0.93636000  1
  H  H62  1  0.09374900  0.51415400  0.43636000  1
  H  H63  1  0.90625100  0.01415400  0.56364000  1
  H  H64  1  0.93822000  0.90253000  0.10704000  1
  H  H65  1  0.06178000  0.40253000  0.89296000  1
  H  H66  1  0.93822000  0.40253000  0.39296000  1
  H  H67  1  0.06178000  0.90253000  0.60704000  1
  H  H68  1  0.05512200  0.71669500  0.16640600  1
  H  H69  1  0.94487800  0.21669500  0.83359400  1
  H  H70  1  0.05512200  0.21669500  0.33359400  1
  H  H71  1  0.94487800  0.71669500  0.66640600  1
  H  H72  1  0.30127600  0.69918400  0.18365300  1
  H  H73  1  0.69872400  0.19918400  0.81634700  1
  H  H74  1  0.30127600  0.19918400  0.31634700  1
  H  H75  1  0.69872400  0.69918400  0.68365300  1
  H  H76  1  0.17445600  0.81536600  0.23846200  1
  H  H77  1  0.82554400  0.31536600  0.76153800  1
  H  H78  1  0.17445600  0.31536600  0.26153800  1
  H  H79  1  0.82554400  0.81536600  0.73846200  1
  C  C0  1  0.59259200  0.86314300  0.92311200  1
  C  C1  1  0.40740800  0.36314300  0.07688800  1
  C  C2  1  0.59259200  0.36314300  0.57688800  1
  C  C3  1  0.40740800  0.86314300  0.42311200  1
  C  C4  1  0.27521800  0.75489500  0.84393200  1
  C  C5  1  0.72478100  0.25489500  0.15606800  1
  C  C6  1  0.27521800  0.25489500  0.65606800  1
  C  C7  1  0.72478100  0.75489500  0.34393200  1
  C  C8  1  0.25849700  0.00606900  0.89605700  1
  C  C9  1  0.74150300  0.50606900  0.10394300  1
  C  C10  1  0.25849700  0.50606900  0.60394300  1
  C  C11  1  0.74150300  0.00606900  0.39605700  1
  C  C12  1  0.07456000  0.94782400  0.11388000  1
  C  C13  1  0.92544000  0.44782400  0.88612000  1
  C  C14  1  0.07456000  0.44782400  0.38612000  1
  C  C15  1  0.92544000  0.94782400  0.61388000  1
  C  C16  1  0.18674900  0.76510100  0.17950700  1
  C  C17  1  0.81325100  0.26510100  0.82049300  1
  C  C18  1  0.18674900  0.26510100  0.32049300  1
  C  C19  1  0.81325100  0.76510100  0.67950700  1
  N  N0  1  0.22723800  0.85525900  0.11235700  1
  N  N1  1  0.77276200  0.35525900  0.88764300  1
  N  N2  1  0.22723800  0.35525900  0.38764300  1
  N  N3  1  0.77276200  0.85525900  0.61235700  1
loop_
_geom_bond_atom_site_label_1
_geom_bond_atom_site_label_2
_geom_bond_distance
_geom_bond_site_symmetry_2
B0 H36 1.217876 1_555
B0 H40 1.222055 1_555
B0 N0 1.574015 1_555
B0 P0 1.948861 1_554
B1 H37 1.217876 1_555
B1 H41 1.222055 1_555
B1 N1 1.574015 1_555
B1 P1 1.948861 1_556
B2 H38 1.217876 1_555
B2 H42 1.222055 1_555
B2 N2 1.574015 1_555
B2 P2 1.948861 1_555
B3 H39 1.217876 1_555
B3 H43 1.222055 1_555
B3 N3 1.574015 1_555
B3 P3 1.948861 1_555
B4 H48 1.225183 1_555
B4 H44 1.227626 1_555
B4 H52 1.231187 1_555
B4 N0 1.610519 1_555
B5 H49 1.225183 1_555
B5 H45 1.227626 1_555
B5 H53 1.231187 1_555
B5 N1 1.610519 1_555
B6 H50 1.225183 1_555
B6 H46 1.227626 1_555
B6 H54 1.231187 1_555
B6 N2 1.610519 1_555
B7 H51 1.225183 1_555
B7 H47 1.227626 1_555
B7 H55 1.231187 1_555
B7 N3 1.610519 1_555
C0 H4 1.096134 1_555
C0 H8 1.096697 1_555
C0 H0 1.097080 1_555
C0 P0 1.822074 1_555
C1 H5 1.096134 1_555
C1 H9 1.096697 1_555
C1 H1 1.097080 1_555
C1 P1 1.822074 1_555
C2 H6 1.096134 1_555
C2 H10 1.096697 1_555
C2 H2 1.097080 1_555
C2 P2 1.822074 1_555
C3 H7 1.096134 1_555
C3 H11 1.096697 1_555
C3 H3 1.097080 1_555
C3 P3 1.822074 1_555
C4 H20 1.097522 1_555
C4 H16 1.098248 1_555
C4 H12 1.099443 1_555
C4 P0 1.816604 1_555
C5 H21 1.097519 1_555
C5 H17 1.098255 1_555
C5 H13 1.099441 1_555
C5 P1 1.816602 1_555
C6 H22 1.097522 1_555
C6 H18 1.098248 1_555
C6 H14 1.099443 1_555
C6 P2 1.816604 1_555
C7 H23 1.097519 1_555
C7 H19 1.098255 1_555
C7 H15 1.099441 1_555
C7 P3 1.816602 1_555
C8 H32 1.097555 1_555
C8 H24 1.097703 1_555
C8 H28 1.098682 1_555
C8 P0 1.819801 1_545
C9 H33 1.097555 1_555
C9 H25 1.097703 1_555
C9 H29 1.098682 1_555
C9 P1 1.819801 1_555
C10 H34 1.097555 1_555
C10 H26 1.097703 1_555
C10 H30 1.098682 1_555
C10 P2 1.819801 1_555
C11 H35 1.097555 1_555
C11 H27 1.097703 1_555
C11 H31 1.098682 1_555
C11 P3 1.819801 1_545
C12 H60 1.092777 1_565
C12 H64 1.099257 1_455
C12 H56 1.100874 1_555
C12 N0 1.487841 1_555
C13 H61 1.092777 1_555
C13 H65 1.099257 1_655
C13 H57 1.100874 1_555
C13 N1 1.487841 1_555
C14 H62 1.092777 1_555
C14 H66 1.099257 1_455
C14 H58 1.100874 1_555
C14 N2 1.487841 1_555
C15 H63 1.092777 1_565
C15 H67 1.099257 1_655
C15 H59 1.100874 1_555
C15 N3 1.487841 1_555
C16 H72 1.092281 1_555
C16 H76 1.098269 1_555
C16 H68 1.100270 1_555
C16 N0 1.488472 1_555
C17 H73 1.092281 1_555
C17 H77 1.098269 1_555
C17 H69 1.100270 1_555
C17 N1 1.488472 1_555
C18 H74 1.092281 1_555
C18 H78 1.098269 1_555
C18 H70 1.100270 1_555
C18 N2 1.488472 1_555
C19 H75 1.092281 1_555
C19 H79 1.098269 1_555
C19 H71 1.100270 1_555
C19 N3 1.488472 1_555
