# generated using pymatgen
data_YFeB4
_symmetry_space_group_name_H-M   'P 1'
_cell_length_a   3.41708260
_cell_length_b   5.89548447
_cell_length_c   11.41474352
_cell_angle_alpha   90.00000000
_cell_angle_beta   90.00000000
_cell_angle_gamma   90.00000000
_symmetry_Int_Tables_number   1
_chemical_formula_structural   YFeB4
_chemical_formula_sum   'Y4 Fe4 B16'
_cell_volume   229.95408785
_cell_formula_units_Z   4
loop_
 _symmetry_equiv_pos_site_id
 _symmetry_equiv_pos_as_xyz
  1  'x, y, z'
loop_
 _atom_site_type_symbol
 _atom_site_label
 _atom_site_symmetry_multiplicity
 _atom_site_fract_x
 _atom_site_fract_y
 _atom_site_fract_z
 _atom_site_occupancy
  Y  Y0  1  0.50000000  0.37310170  0.15035181  1
  Y  Y1  1  0.50000000  0.62689830  0.84964819  1
  Y  Y2  1  0.50000000  0.12689830  0.65035181  1
  Y  Y3  1  0.50000000  0.87310170  0.34964819  1
  Fe  Fe0  1  0.50000000  0.37154738  0.41628820  1
  Fe  Fe1  1  0.50000000  0.62845262  0.58371180  1
  Fe  Fe2  1  0.50000000  0.12845262  0.91628820  1
  Fe  Fe3  1  0.50000000  0.87154738  0.08371180  1
  B  B0  1  -0.00000000  0.11227329  0.04652891  1
  B  B1  1  -0.00000000  0.88772671  0.95347109  1
  B  B2  1  -0.00000000  0.38772671  0.54652891  1
  B  B3  1  -0.00000000  0.61227329  0.45347109  1
  B  B4  1  -0.00000000  0.13894112  0.46713530  1
  B  B5  1  -0.00000000  0.86105888  0.53286470  1
  B  B6  1  -0.00000000  0.36105888  0.96713530  1
  B  B7  1  -0.00000000  0.63894112  0.03286470  1
  B  B8  1  -0.00000000  0.02265924  0.19040582  1
  B  B9  1  0.00000000  0.97734076  0.80959418  1
  B  B10  1  -0.00000000  0.47734076  0.69040582  1
  B  B11  1  -0.00000000  0.52265924  0.30959418  1
  B  B12  1  -0.00000000  0.21925470  0.31668624  1
  B  B13  1  -0.00000000  0.78074530  0.68331376  1
  B  B14  1  -0.00000000  0.28074530  0.81668624  1
  B  B15  1  -0.00000000  0.71925470  0.18331376  1
loop_
_geom_bond_atom_site_label_1
_geom_bond_atom_site_label_2
_geom_bond_distance
_geom_bond_site_symmetry_2
B0 B1 1.697295 1_544
B0 B6 1.724107 1_554
B0 B8 1.725204 1_555
B0 Fe3 2.261277 1_545
B0 Fe3 2.261277 1_445
B0 Fe2 2.266800 1_554
B0 Fe2 2.266800 1_454
B0 Y0 2.586147 1_555
B0 Y0 2.586147 1_455
B1 B7 1.724107 1_556
B1 B9 1.725204 1_555
B1 Fe2 2.261277 1_465
B1 Fe2 2.261277 1_565
B1 Fe3 2.266800 1_556
B1 Fe3 2.266800 1_456
B1 Y1 2.586147 1_555
B1 Y1 2.586147 1_455
B2 B3 1.697295 1_555
B2 B4 1.724107 1_555
B2 Fe1 2.261277 1_455
B2 Fe1 2.261277 1_555
B2 Fe0 2.266800 1_555
B2 Fe0 2.266800 1_455
B2 Y2 2.586147 1_455
B2 Y2 2.586147 1_555
B3 B5 1.724107 1_555
B3 Fe0 2.261277 1_555
B3 Fe0 2.261277 1_455
B3 Fe1 2.266800 1_455
B3 Fe1 2.266800 1_555
B3 Y3 2.586147 1_555
B3 Y3 2.586147 1_455
B4 B5 1.801885 1_545
B4 Fe0 2.266390 1_555
B4 Fe0 2.266390 1_455
B4 Y3 2.678414 1_545
B4 Y3 2.678414 1_445
B4 Y2 2.701477 1_455
B4 Y2 2.701477 1_555
B5 Fe1 2.266390 1_455
B5 Fe1 2.266390 1_555
B5 Y2 2.678414 1_465
B5 Y2 2.678414 1_565
B5 Y3 2.701477 1_455
B5 Y3 2.701477 1_555
B6 B7 1.801885 1_556
B6 Fe2 2.266390 1_555
B6 Fe2 2.266390 1_455
B6 Y1 2.678414 1_455
B6 Y1 2.678414 1_555
B6 Y0 2.701477 1_556
B6 Y0 2.701477 1_456
B7 Fe3 2.266390 1_555
B7 Fe3 2.266390 1_455
B7 Y0 2.678414 1_455
B7 Y0 2.678414 1_555
B7 Y1 2.701477 1_554
B7 Y1 2.701477 1_454
B8 Fe3 2.279478 1_545
B8 Fe3 2.279478 1_445
B8 Y3 2.645866 1_445
B8 Y3 2.645866 1_545
B8 Y0 2.719673 1_455
B8 Y0 2.719673 1_555
B9 Fe2 2.279478 1_565
B9 Fe2 2.279478 1_465
B9 Y2 2.645866 1_465
B9 Y2 2.645866 1_565
B9 Y1 2.719673 1_455
B9 Y1 2.719673 1_555
B10 B2 1.725204 1_555
B10 B13 1.790548 1_555
B10 B14 1.849633 1_555
B10 Fe1 2.279478 1_555
B10 Fe1 2.279478 1_455
B10 Y1 2.645866 1_455
B10 Y1 2.645866 1_555
B10 Y2 2.719673 1_555
B10 Y2 2.719673 1_455
B11 B3 1.725204 1_555
B11 B12 1.790548 1_555
B11 B15 1.849633 1_555
B11 Fe0 2.279478 1_555
B11 Fe0 2.279478 1_455
B11 Y0 2.645866 1_455
B11 Y0 2.645866 1_555
B11 Y3 2.719673 1_555
B11 Y3 2.719673 1_455
B12 B4 1.781415 1_555
B12 B8 1.849633 1_555
B12 Fe0 2.240054 1_555
B12 Fe0 2.240054 1_455
B12 Y3 2.687991 1_545
B12 Y3 2.687991 1_445
B12 Y0 2.710479 1_455
B12 Y0 2.710479 1_555
B13 B5 1.781415 1_555
B13 B9 1.849633 1_555
B13 Fe1 2.240054 1_455
B13 Fe1 2.240054 1_555
B13 Y2 2.687991 1_465
B13 Y2 2.687991 1_565
B13 Y1 2.710479 1_555
B13 Y1 2.710479 1_455
B14 B6 1.781415 1_555
B14 B9 1.790548 1_545
B14 Fe2 2.240054 1_455
B14 Fe2 2.240054 1_555
B14 Y1 2.687991 1_455
B14 Y1 2.687991 1_555
B14 Y2 2.710479 1_455
B14 Y2 2.710479 1_555
B15 B7 1.781415 1_555
B15 B8 1.790548 1_565
B15 Fe3 2.240054 1_455
B15 Fe3 2.240054 1_555
B15 Y0 2.687991 1_555
B15 Y0 2.687991 1_455
B15 Y3 2.710479 1_455
B15 Y3 2.710479 1_555
