# generated using pymatgen
data_La3Mg2CrS8
_symmetry_space_group_name_H-M   'P 1'
_cell_length_a   8.08296009
_cell_length_b   7.92790546
_cell_length_c   8.08319500
_cell_angle_alpha   59.34958083
_cell_angle_beta   59.99835870
_cell_angle_gamma   59.35121592
_symmetry_Int_Tables_number   1
_chemical_formula_structural   La3Mg2CrS8
_chemical_formula_sum   'La3 Mg2 Cr1 S8'
_cell_volume   362.62432468
_cell_formula_units_Z   1
loop_
 _symmetry_equiv_pos_site_id
 _symmetry_equiv_pos_as_xyz
  1  'x, y, z'
loop_
 _atom_site_type_symbol
 _atom_site_label
 _atom_site_symmetry_multiplicity
 _atom_site_fract_x
 _atom_site_fract_y
 _atom_site_fract_z
 _atom_site_occupancy
  La  La0  1  0.50001000  0.50001100  0.49996200  1
  La  La1  1  0.50001100  0.49998100  0.00000800  1
  La  La2  1  0.99997900  0.50000800  0.50004400  1
  Mg  Mg0  1  0.87371600  0.87883400  0.87371800  1
  Mg  Mg1  1  0.12627400  0.12118800  0.12626200  1
  Cr  Cr0  1  0.50000500  0.99999700  0.50001700  1
  S  S0  1  0.72640700  0.78143600  0.72642500  1
  S  S1  1  0.27359400  0.21856600  0.73425900  1
  S  S2  1  0.25180500  0.74458100  0.25179700  1
  S  S3  1  0.73426100  0.21857100  0.27357400  1
  S  S4  1  0.74818300  0.25541000  0.74818100  1
  S  S5  1  0.26573400  0.78142300  0.72642800  1
  S  S6  1  0.27358700  0.21854800  0.27360100  1
  S  S7  1  0.72643700  0.78144200  0.26572600  1
loop_
_geom_bond_atom_site_label_1
_geom_bond_atom_site_label_2
_geom_bond_distance
_geom_bond_site_symmetry_2
La0 S2 2.810927 1_555
La0 S4 2.811046 1_555
La0 S3 2.881470 1_555
La0 S1 2.881527 1_555
La0 S7 2.881532 1_555
La0 S5 2.881731 1_555
La1 S2 2.811012 1_555
La1 S4 2.811073 1_554
La1 S3 2.881403 1_555
La1 S0 2.881484 1_554
La1 S6 2.881511 1_555
La1 S5 2.881636 1_554
La2 S4 2.810931 1_555
La2 S2 2.810968 1_655
La2 S0 2.881357 1_555
La2 S1 2.881507 1_655
La2 S7 2.881628 1_555
La2 S6 2.881876 1_655
Mg0 S4 2.413418 1_565
Mg0 S0 2.593057 1_555
Mg0 S7 2.593089 1_556
Mg0 S5 2.593098 1_655
Mg1 S2 2.413617 1_545
Mg1 S1 2.593065 1_554
Mg1 S3 2.593084 1_455
Mg1 S6 2.593166 1_555
Cr0 S1 2.565853 1_565
Cr0 S3 2.565861 1_565
Cr0 S0 2.565866 1_555
Cr0 S5 2.565949 1_555
Cr0 S6 2.566011 1_565
Cr0 S7 2.566064 1_555
