# generated using pymatgen
data_Fe2Co3Sb3O16
_symmetry_space_group_name_H-M   'P 1'
_cell_length_a   5.93757455
_cell_length_b   5.93757455
_cell_length_c   9.02268274
_cell_angle_alpha   89.11569742
_cell_angle_beta   89.11569742
_cell_angle_gamma   60.81297391
_symmetry_Int_Tables_number   1
_chemical_formula_structural   Fe2Co3Sb3O16
_chemical_formula_sum   'Fe2 Co3 Sb3 O16'
_cell_volume   277.66089239
_cell_formula_units_Z   1
loop_
 _symmetry_equiv_pos_site_id
 _symmetry_equiv_pos_as_xyz
  1  'x, y, z'
loop_
 _atom_site_type_symbol
 _atom_site_label
 _atom_site_symmetry_multiplicity
 _atom_site_fract_x
 _atom_site_fract_y
 _atom_site_fract_z
 _atom_site_occupancy
  Fe  Fe0  1  0.67374900  0.67374900  0.49715100  1
  Fe  Fe1  1  0.34167500  0.34167500  0.98044900  1
  Co  Co0  1  0.83227200  0.83227200  0.20336700  1
  Co  Co1  1  0.66483800  0.16524900  0.71178800  1
  Co  Co2  1  0.16524900  0.66483800  0.71178800  1
  Sb  Sb0  1  0.82912800  0.33446600  0.21118100  1
  Sb  Sb1  1  0.33446600  0.82912800  0.21118100  1
  Sb  Sb2  1  0.16466600  0.16466600  0.71288300  1
  O  O0  1  0.82706700  0.32546900  0.60490300  1
  O  O1  1  0.51345200  0.51345200  0.34404100  1
  O  O2  1  0.67401000  0.67401000  0.09232200  1
  O  O3  1  0.98882700  0.98882700  0.31770000  1
  O  O4  1  0.99026400  0.99026400  0.81966400  1
  O  O5  1  0.32546900  0.82706700  0.60490300  1
  O  O6  1  0.95796100  0.51619300  0.33992500  1
  O  O7  1  0.51619300  0.95796100  0.33992500  1
  O  O8  1  0.16864000  0.16864000  0.09579900  1
  O  O9  1  0.83990000  0.83990000  0.61469200  1
  O  O10  1  0.48691900  0.04944200  0.84017300  1
  O  O11  1  0.04944200  0.48691900  0.84017300  1
  O  O12  1  0.34000700  0.34000700  0.60233700  1
  O  O13  1  0.66557000  0.17303300  0.09573800  1
  O  O14  1  0.47729900  0.47729900  0.82602200  1
  O  O15  1  0.17303300  0.66557000  0.09573800  1
loop_
_geom_bond_atom_site_label_1
_geom_bond_atom_site_label_2
_geom_bond_distance
_geom_bond_site_symmetry_2
Fe0 O9 2.021152 1_555
Fe0 O7 2.040266 1_555
Fe0 O6 2.040266 1_555
Fe0 O0 2.044376 1_555
Fe0 O5 2.044376 1_555
Fe0 O1 2.164460 1_555
Fe1 O14 1.949759 1_555
Fe1 O10 1.982683 1_555
Fe1 O11 1.982683 1_555
Fe1 O13 1.983590 1_556
Fe1 O15 1.983590 1_556
Fe1 O8 2.039078 1_556
Co0 O2 1.920742 1_555
Co0 O3 1.922052 1_555
Co0 O15 2.008045 1_655
Co0 O13 2.008045 1_565
Co0 O6 2.046510 1_555
Co0 O7 2.046510 1_555
Co1 O10 1.891233 1_555
Co1 O0 1.897274 1_555
Co1 O9 1.909299 1_545
Co1 O14 1.935584 1_555
Co1 O4 1.956841 1_545
Co1 O12 1.961400 1_555
Co2 O11 1.891233 1_555
Co2 O5 1.897274 1_555
Co2 O9 1.909299 1_455
Co2 O14 1.935584 1_555
Co2 O4 1.956841 1_455
Co2 O12 1.961400 1_555
O0 Sb2 2.010926 1_655
O1 Sb1 2.026522 1_555
O1 Sb0 2.026522 1_555
O2 Sb1 2.053202 1_555
O2 Sb0 2.053202 1_555
O3 Sb0 2.025795 1_565
O3 Sb1 2.025795 1_655
O4 Sb2 2.014230 1_665
O5 Sb2 2.010926 1_565
O6 Sb0 1.992470 1_555
O7 Sb1 1.992470 1_555
O8 Sb0 2.036664 1_455
O8 Sb1 2.036664 1_545
O10 Sb2 2.053056 1_555
O11 Sb2 2.053056 1_555
O12 Sb2 2.038545 1_555
O13 Sb0 1.979075 1_555
O15 Sb1 1.979075 1_555
