# generated using pymatgen
data_Na3Ni2P2(CO7)2
_symmetry_space_group_name_H-M   'P 1'
_cell_length_a   8.89788857
_cell_length_b   8.05185780
_cell_length_c   8.00708248
_cell_angle_alpha   76.97017976
_cell_angle_beta   88.95060593
_cell_angle_gamma   90.94754017
_symmetry_Int_Tables_number   1
_chemical_formula_structural   Na3Ni2P2(CO7)2
_chemical_formula_sum   'Na6 Ni4 P4 C4 O28'
_cell_volume   558.67397353
_cell_formula_units_Z   2
loop_
 _symmetry_equiv_pos_site_id
 _symmetry_equiv_pos_as_xyz
  1  'x, y, z'
loop_
 _atom_site_type_symbol
 _atom_site_label
 _atom_site_symmetry_multiplicity
 _atom_site_fract_x
 _atom_site_fract_y
 _atom_site_fract_z
 _atom_site_occupancy
  Na  Na0  1  0.75821245  0.12687882  0.86887034  1
  Na  Na1  1  0.75113938  0.57774902  0.35688514  1
  Na  Na2  1  0.75329900  0.88036101  0.63335611  1
  Na  Na3  1  0.24670100  0.61963899  0.86664389  1
  Na  Na4  1  0.24178755  0.37312118  0.63112966  1
  Na  Na5  1  0.24886062  0.92225098  0.14311486  1
  Ni  Ni0  1  0.65025852  0.01602976  0.23111013  1
  Ni  Ni1  1  0.65925730  0.51830955  0.73424588  1
  Ni  Ni2  1  0.34074270  0.98169045  0.76575412  1
  Ni  Ni3  1  0.34974148  0.48397024  0.26888987  1
  P  P0  1  0.57314911  0.22468204  0.51697841  1
  P  P1  1  0.56713203  0.74238381  0.01702605  1
  P  P2  1  0.42685089  0.27531796  0.98302159  1
  P  P3  1  0.43286797  0.75761619  0.48297395  1
  C  C0  1  0.91786362  0.48735705  0.77292299  1
  C  C1  1  0.90736253  0.97220415  0.26430637  1
  C  C2  1  0.08213638  0.01264295  0.72707701  1
  C  C3  1  0.09263747  0.52779585  0.23569363  1
  O  O0  1  0.94484868  0.03093783  0.71362950  1
  O  O1  1  0.95921397  0.55419635  0.21373022  1
  O  O2  1  0.85411809  0.59957283  0.65109542  1
  O  O3  1  0.84671957  0.09455757  0.15197510  1
  O  O4  1  0.81435253  0.39850879  0.87342392  1
  O  O5  1  0.79760252  0.87746852  0.35539687  1
  O  O6  1  0.66079886  0.69414629  0.87623242  1
  O  O7  1  0.67138039  0.15697528  0.38742830  1
  O  O8  1  0.68011164  0.34549810  0.58170508  1
  O  O9  1  0.67030955  0.87721491  0.07135795  1
  O  O10  1  0.57111442  0.19165165  0.05665318  1
  O  O11  1  0.58403836  0.68253777  0.54399642  1
  O  O12  1  0.53086936  0.07402773  0.67045760  1
  O  O13  1  0.53538069  0.59084131  0.17288302  1
  O  O14  1  0.46913064  0.42597227  0.82954240  1
  O  O15  1  0.46461931  0.90915869  0.32711698  1
  O  O16  1  0.41596164  0.81746223  0.95600358  1
  O  O17  1  0.42888558  0.30834835  0.44334682  1
  O  O18  1  0.31988836  0.15450190  0.91829492  1
  O  O19  1  0.33920114  0.80585371  0.62376758  1
  O  O20  1  0.32861961  0.34302472  0.11257170  1
  O  O21  1  0.32969045  0.62278509  0.42864205  1
  O  O22  1  0.18564747  0.10149121  0.62657608  1
  O  O23  1  0.20239748  0.62253148  0.14460313  1
  O  O24  1  0.15328043  0.40544243  0.34802490  1
  O  O25  1  0.14588191  0.90042717  0.84890458  1
  O  O26  1  0.05515132  0.46906217  0.78637050  1
  O  O27  1  0.04078603  0.94580365  0.28626978  1
loop_
_geom_bond_atom_site_label_1
_geom_bond_atom_site_label_2
_geom_bond_distance
_geom_bond_site_symmetry_2
Na0 O4 2.243851 1_555
Na0 O0 2.302065 1_555
Na0 O10 2.365357 1_556
Na0 O3 2.373323 1_556
Na0 O9 2.390293 1_546
Na0 O8 2.672542 1_555
Na0 O12 2.681641 1_555
Na1 O1 2.193065 1_555
Na1 O8 2.353369 1_555
Na1 O11 2.386875 1_555
Na1 O13 2.430570 1_555
Na1 O5 2.439042 1_555
Na1 O2 2.584668 1_555
Na2 O5 2.258532 1_555
Na2 O0 2.260801 1_565
Na2 O6 2.300709 1_555
Na2 O11 2.406527 1_555
Na2 O2 2.421442 1_555
Na2 O12 2.593528 1_565
Na2 O7 2.738286 1_565
Na3 O23 2.258532 1_556
Na3 O26 2.260801 1_555
Na3 O19 2.300709 1_555
Na3 O16 2.406527 1_555
Na3 O25 2.421442 1_555
Na3 O14 2.593528 1_555
Na3 O20 2.738286 1_556
Na4 O22 2.243851 1_555
Na4 O26 2.302065 1_555
Na4 O17 2.365357 1_555
Na4 O24 2.373323 1_555
Na4 O21 2.390293 1_555
Na4 O18 2.672542 1_555
Na4 O14 2.681641 1_555
Na5 O27 2.193065 1_555
Na5 O18 2.353369 1_564
Na5 O16 2.386875 1_554
Na5 O15 2.430570 1_555
Na5 O23 2.439042 1_555
Na5 O25 2.584668 1_554
Ni0 O7 1.879353 1_555
Ni0 O5 1.884005 1_545
Ni0 O9 1.886867 1_545
Ni0 O3 1.897188 1_555
Ni0 O10 1.903974 1_555
Ni0 O15 1.915218 1_545
Ni1 O2 1.897737 1_555
Ni1 O14 1.911088 1_555
Ni1 O11 1.917136 1_555
Ni1 O4 1.921585 1_555
Ni1 O6 2.005739 1_555
Ni1 O8 2.056452 1_555
Ni2 O25 1.897737 1_555
Ni2 O12 1.911088 1_565
Ni2 O16 1.917136 1_555
Ni2 O22 1.921585 1_565
Ni2 O19 2.005739 1_555
Ni2 O18 2.056452 1_565
Ni3 O20 1.879353 1_555
Ni3 O23 1.884005 1_555
Ni3 O21 1.886867 1_555
Ni3 O24 1.897188 1_555
Ni3 O17 1.903974 1_555
Ni3 O13 1.915218 1_555
C0 O26 1.236586 1_655
C0 O4 1.303506 1_555
C0 O2 1.315090 1_555
C1 O27 1.218469 1_655
C1 O3 1.306341 1_565
C1 O5 1.328927 1_555
C2 O0 1.236586 1_455
C2 O22 1.303506 1_555
C2 O25 1.315090 1_545
C3 O1 1.218469 1_455
C3 O24 1.306341 1_555
C3 O23 1.328927 1_555
O6 P1 1.513312 1_556
O7 P0 1.541021 1_555
O8 P0 1.528244 1_555
O9 P1 1.550918 1_555
O10 P2 1.525250 1_554
O11 P3 1.526843 1_555
O12 P0 1.555323 1_555
O13 P1 1.554076 1_555
O14 P2 1.555323 1_555
O15 P3 1.554076 1_555
O16 P1 1.526843 1_556
O17 P0 1.525250 1_555
O18 P2 1.528244 1_555
O19 P3 1.513312 1_555
O20 P2 1.541021 1_554
O21 P3 1.550918 1_555
