# generated using pymatgen
data_KSr2Nb5O15
_symmetry_space_group_name_H-M   'P 1'
_cell_length_a   12.67923289
_cell_length_b   12.67923289
_cell_length_c   4.05802500
_cell_angle_alpha   90.00000000
_cell_angle_beta   90.00000000
_cell_angle_gamma   90.16289119
_symmetry_Int_Tables_number   1
_chemical_formula_structural   KSr2Nb5O15
_chemical_formula_sum   'K2 Sr4 Nb10 O30'
_cell_volume   652.37742044
_cell_formula_units_Z   2
loop_
 _symmetry_equiv_pos_site_id
 _symmetry_equiv_pos_as_xyz
  1  'x, y, z'
loop_
 _atom_site_type_symbol
 _atom_site_label
 _atom_site_symmetry_multiplicity
 _atom_site_fract_x
 _atom_site_fract_y
 _atom_site_fract_z
 _atom_site_occupancy
  K  K0  1  0.17172600  0.82827400  0.98444400  1
  K  K1  1  0.82827400  0.17172600  0.98444400  1
  Sr  Sr0  1  0.50000000  0.00000000  0.98262200  1
  Sr  Sr1  1  0.00000000  0.50000000  0.98262200  1
  Sr  Sr2  1  0.32662300  0.32662300  0.96700100  1
  Sr  Sr3  1  0.67337700  0.67337700  0.96700100  1
  Nb  Nb0  1  0.71222300  0.92348000  0.46963900  1
  Nb  Nb1  1  0.28777700  0.07652000  0.46963900  1
  Nb  Nb2  1  0.78893700  0.42377000  0.46831500  1
  Nb  Nb3  1  0.21106300  0.57623000  0.46831500  1
  Nb  Nb4  1  0.57623000  0.21106300  0.46831500  1
  Nb  Nb5  1  0.42377000  0.78893700  0.46831500  1
  Nb  Nb6  1  0.07652000  0.28777700  0.46963900  1
  Nb  Nb7  1  0.92348000  0.71222300  0.46963900  1
  Nb  Nb8  1  0.00000000  0.00000000  0.44904400  1
  Nb  Nb9  1  0.50000000  0.50000000  0.45959300  1
  O  O0  1  0.28714200  0.71285800  0.50530000  1
  O  O1  1  0.71285800  0.28714200  0.50530000  1
  O  O2  1  0.22795400  0.22795400  0.50192500  1
  O  O3  1  0.77204600  0.77204600  0.50192500  1
  O  O4  1  0.50921200  0.65754400  0.51511600  1
  O  O5  1  0.49078800  0.34245600  0.51511600  1
  O  O6  1  0.00081500  0.15710800  0.50680200  1
  O  O7  1  0.99918500  0.84289200  0.50680200  1
  O  O8  1  0.84289200  0.99918500  0.50680200  1
  O  O9  1  0.15710800  0.00081500  0.50680200  1
  O  O10  1  0.34245600  0.49078800  0.51511600  1
  O  O11  1  0.65754400  0.50921200  0.51511600  1
  O  O12  1  0.69976500  0.91364900  0.00460400  1
  O  O13  1  0.30023500  0.08635100  0.00460400  1
  O  O14  1  0.79950100  0.42400500  0.00553200  1
  O  O15  1  0.20049900  0.57599500  0.00553200  1
  O  O16  1  0.57599500  0.20049900  0.00553200  1
  O  O17  1  0.42400500  0.79950100  0.00553200  1
  O  O18  1  0.08635100  0.30023500  0.00460400  1
  O  O19  1  0.91364900  0.69976500  0.00460400  1
  O  O20  1  0.56368300  0.86252700  0.51149300  1
  O  O21  1  0.43631700  0.13747300  0.51149300  1
  O  O22  1  0.93710800  0.36341800  0.50704000  1
  O  O23  1  0.06289200  0.63658200  0.50704000  1
  O  O24  1  0.63658200  0.06289200  0.50704000  1
  O  O25  1  0.36341800  0.93710800  0.50704000  1
  O  O26  1  0.13747300  0.43631700  0.51149300  1
  O  O27  1  0.86252700  0.56368300  0.51149300  1
  O  O28  1  0.00000000  0.00000000  0.99797900  1
  O  O29  1  0.50000000  0.50000000  0.00322000  1
loop_
_geom_bond_atom_site_label_1
_geom_bond_atom_site_label_2
_geom_bond_distance
_geom_bond_site_symmetry_2
K0 O0 2.841792 1_555
K0 O7 2.929091 1_455
K0 O9 2.929091 1_565
K0 O0 2.960182 1_556
K0 O7 3.052203 1_456
K0 O9 3.052203 1_566
K0 O28 3.084107 1_565
K0 O17 3.221608 1_556
K0 O15 3.221608 1_556
K1 O1 2.841792 1_555
K1 O8 2.929091 1_545
K1 O6 2.929091 1_655
K1 O1 2.960182 1_556
K1 O8 3.052203 1_546
K1 O6 3.052203 1_656
K1 O28 3.084107 1_655
K1 O14 3.221608 1_556
K1 O16 3.221608 1_556
Nb0 O12 1.897791 1_555
Nb0 O8 1.918333 1_555
Nb0 O24 2.019166 1_565
Nb0 O20 2.040819 1_555
Nb0 O3 2.070614 1_555
Nb0 O12 2.180181 1_556
Nb1 O13 1.897791 1_555
Nb1 O9 1.918333 1_555
Nb1 O25 2.019166 1_545
Nb1 O21 2.040819 1_555
Nb1 O2 2.070614 1_555
Nb1 O13 2.180181 1_556
Nb2 O14 1.882757 1_555
Nb2 O1 1.986081 1_555
Nb2 O11 1.998846 1_555
Nb2 O27 2.009711 1_555
Nb2 O22 2.036644 1_555
Nb2 O14 2.184152 1_556
Nb3 O15 1.882757 1_555
Nb3 O0 1.986081 1_555
Nb3 O10 1.998846 1_555
Nb3 O26 2.009711 1_555
Nb3 O23 2.036644 1_555
Nb3 O15 2.184152 1_556
Nb4 O16 1.882757 1_555
Nb4 O1 1.986081 1_555
Nb4 O5 1.998846 1_555
Nb4 O21 2.009711 1_555
Nb4 O24 2.036644 1_555
Nb4 O16 2.184152 1_556
Nb5 O17 1.882757 1_555
Nb5 O0 1.986081 1_555
Nb5 O4 1.998846 1_555
Nb5 O20 2.009711 1_555
Nb5 O25 2.036644 1_555
Nb5 O17 2.184152 1_556
Nb6 O18 1.897791 1_555
Nb6 O6 1.918333 1_555
Nb6 O22 2.019166 1_455
Nb6 O26 2.040819 1_555
Nb6 O2 2.070614 1_555
Nb6 O18 2.180181 1_556
Nb7 O19 1.897791 1_555
Nb7 O7 1.918333 1_555
Nb7 O23 2.019166 1_655
Nb7 O27 2.040819 1_555
Nb7 O3 2.070614 1_555
Nb7 O19 2.180181 1_556
Nb8 O28 1.830433 1_554
Nb8 O6 2.005748 1_555
Nb8 O9 2.005748 1_555
Nb8 O8 2.005748 1_445
Nb8 O7 2.005748 1_445
Nb8 O28 2.227592 1_555
Nb9 O29 1.851973 1_555
Nb9 O10 2.013265 1_555
Nb9 O11 2.013265 1_555
Nb9 O4 2.013265 1_555
Nb9 O5 2.013265 1_555
Nb9 O29 2.206052 1_556
O2 Sr2 2.585189 1_555
O2 Sr2 2.798826 1_554
O3 Sr3 2.585189 1_555
O3 Sr3 2.798826 1_554
O4 Sr3 2.780861 1_555
O4 Sr3 3.052517 1_554
O5 Sr2 2.780861 1_555
O5 Sr2 3.052517 1_554
O10 Sr2 2.780861 1_555
O10 Sr2 3.052517 1_554
O11 Sr3 2.780861 1_555
O11 Sr3 3.052517 1_554
O12 Sr0 2.763669 1_564
O12 Sr3 3.067634 1_554
O13 Sr0 2.763669 1_554
O13 Sr2 3.067634 1_554
O14 Sr1 2.717684 1_654
O15 Sr1 2.717684 1_554
O16 Sr0 2.717684 1_554
O17 Sr0 2.717684 1_564
O18 Sr1 2.763669 1_554
O18 Sr2 3.067634 1_554
O19 Sr1 2.763669 1_654
O19 Sr3 3.067634 1_554
O20 Sr0 2.711714 1_565
O20 Sr0 2.881712 1_564
O21 Sr0 2.711714 1_555
O21 Sr0 2.881712 1_554
O22 Sr1 2.711385 1_655
O22 Sr1 2.855840 1_654
O23 Sr1 2.711385 1_555
O23 Sr1 2.855840 1_554
O24 Sr0 2.711385 1_555
O24 Sr0 2.855840 1_554
O25 Sr0 2.711385 1_565
O25 Sr0 2.855840 1_564
O26 Sr1 2.711714 1_555
O26 Sr1 2.881712 1_554
O27 Sr1 2.711714 1_655
O27 Sr1 2.881712 1_654
O29 Sr3 3.107903 1_554
O29 Sr2 3.107903 1_554
