# generated using pymatgen
data_Mn2InSnPd4
_symmetry_space_group_name_H-M   'P 1'
_cell_length_a   7.89033812
_cell_length_b   7.89033812
_cell_length_c   7.89033807
_cell_angle_alpha   33.41022420
_cell_angle_beta   33.41022420
_cell_angle_gamma   33.41022478
_symmetry_Int_Tables_number   1
_chemical_formula_structural   Mn2InSnPd4
_chemical_formula_sum   'Mn2 In1 Sn1 Pd4'
_cell_volume   132.63074671
_cell_formula_units_Z   1
loop_
 _symmetry_equiv_pos_site_id
 _symmetry_equiv_pos_as_xyz
  1  'x, y, z'
loop_
 _atom_site_type_symbol
 _atom_site_label
 _atom_site_symmetry_multiplicity
 _atom_site_fract_x
 _atom_site_fract_y
 _atom_site_fract_z
 _atom_site_occupancy
  Mn  Mn0  1  0.25035300  0.25035300  0.25035300  1
  Mn  Mn1  1  0.74964700  0.74964700  0.74964700  1
  In  In0  1  0.00000000  0.00000000  0.00000000  1
  Sn  Sn0  1  0.50000000  0.50000000  0.50000000  1
  Pd  Pd0  1  0.62473600  0.62473600  0.62473600  1
  Pd  Pd1  1  0.12521600  0.12521600  0.12521600  1
  Pd  Pd2  1  0.87478400  0.87478400  0.87478400  1
  Pd  Pd3  1  0.37526400  0.37526400  0.37526400  1
loop_
_geom_bond_atom_site_label_1
_geom_bond_atom_site_label_2
_geom_bond_distance
_geom_bond_site_symmetry_2
Mn0 Pd0 2.774684 1_554
Mn0 Pd0 2.774684 1_455
Mn0 Pd0 2.774684 1_545
Mn0 Pd2 2.783544 1_445
Mn0 Pd2 2.783544 1_544
Mn0 Pd2 2.783544 1_454
Mn0 Pd3 2.789150 1_555
Mn0 Pd1 2.794196 1_555
Mn1 Pd3 2.774684 1_556
Mn1 Pd3 2.774684 1_565
Mn1 Pd3 2.774684 1_655
Mn1 Pd1 2.783544 1_665
Mn1 Pd1 2.783544 1_566
Mn1 Pd1 2.783544 1_656
Mn1 Pd0 2.789150 1_555
Mn1 Pd2 2.794196 1_555
In0 Pd3 2.781244 1_554
In0 Pd0 2.781244 1_445
In0 Pd3 2.781244 1_545
In0 Pd0 2.781244 1_544
In0 Pd3 2.781244 1_455
In0 Pd0 2.781244 1_454
In0 Pd2 2.795960 1_444
In0 Pd1 2.795960 1_555
Pd0 Sn0 2.785242 1_555
Pd1 Sn0 2.777654 1_554
Pd1 Sn0 2.777654 1_455
Pd1 Sn0 2.777654 1_545
Pd2 Sn0 2.777654 1_556
Pd2 Sn0 2.777654 1_655
Pd2 Sn0 2.777654 1_565
Pd3 Sn0 2.785242 1_555
