# generated using pymatgen
data_SrAgSb
_symmetry_space_group_name_H-M   'P 1'
_cell_length_a   5.52493246
_cell_length_b   5.52493246
_cell_length_c   6.58388500
_cell_angle_alpha   90.00000000
_cell_angle_beta   90.00000000
_cell_angle_gamma   120.00000554
_symmetry_Int_Tables_number   1
_chemical_formula_structural   SrAgSb
_chemical_formula_sum   'Sr2 Ag2 Sb2'
_cell_volume   174.04709983
_cell_formula_units_Z   2
loop_
 _symmetry_equiv_pos_site_id
 _symmetry_equiv_pos_as_xyz
  1  'x, y, z'
loop_
 _atom_site_type_symbol
 _atom_site_label
 _atom_site_symmetry_multiplicity
 _atom_site_fract_x
 _atom_site_fract_y
 _atom_site_fract_z
 _atom_site_occupancy
  Sr  Sr0  1  0.66666700  0.33333300  0.75000000  1
  Sr  Sr1  1  0.33333300  0.66666700  0.25000000  1
  Ag  Ag0  1  0.00000000  0.00000000  0.00000000  1
  Ag  Ag1  1  0.00000000  0.00000000  0.50000000  1
  Sb  Sb0  1  0.33333300  0.66666700  0.75000000  1
  Sb  Sb1  1  0.66666700  0.33333300  0.25000000  1
loop_
_geom_bond_atom_site_label_1
_geom_bond_atom_site_label_2
_geom_bond_distance
_geom_bond_site_symmetry_2
Ag0 Ag1 3.291943 1_555
Ag0 Ag1 3.291943 1_554
Ag0 Sb0 3.589451 1_544
Ag0 Sr1 3.589451 1_545
Ag0 Sr0 3.589451 1_454
Ag0 Sb1 3.589451 1_455
Ag0 Sb0 3.589455 1_444
Ag0 Sb1 3.589455 1_555
Ag0 Sr0 3.589455 1_554
Ag0 Sb0 3.589455 1_554
Ag0 Sb1 3.589455 1_445
Ag0 Sr0 3.589455 1_444
Ag0 Sr1 3.589455 1_555
Ag0 Sr1 3.589455 1_445
Ag1 Sr1 3.589451 1_545
Ag1 Sr0 3.589451 1_455
Ag1 Sb0 3.589451 1_545
Ag1 Sb1 3.589451 1_455
Ag1 Sb0 3.589455 1_445
Ag1 Sb1 3.589455 1_555
Ag1 Sr0 3.589455 1_555
Ag1 Sb1 3.589455 1_445
Ag1 Sr0 3.589455 1_445
Ag1 Sr1 3.589455 1_555
Ag1 Sb0 3.589455 1_555
Ag1 Sr1 3.589455 1_445
Sb0 Sr0 3.189818 1_455
Sb0 Sr0 3.189818 1_565
Sb0 Sr0 3.189828 1_555
Sb0 Sr1 3.291943 1_555
Sb0 Sr1 3.291943 1_556
Sb1 Sr1 3.189818 1_545
Sb1 Sr1 3.189818 1_655
Sb1 Sr1 3.189828 1_555
Sb1 Sr0 3.291943 1_555
Sb1 Sr0 3.291943 1_554
