# generated using pymatgen
data_Nd3Ho
_symmetry_space_group_name_H-M   'P 1'
_cell_length_a   7.42950936
_cell_length_b   7.42950936
_cell_length_c   5.87072886
_cell_angle_alpha   90.00000000
_cell_angle_beta   90.00000000
_cell_angle_gamma   119.99998719
_symmetry_Int_Tables_number   1
_chemical_formula_structural   Nd3Ho
_chemical_formula_sum   'Nd6 Ho2'
_cell_volume   280.63574002
_cell_formula_units_Z   2
loop_
 _symmetry_equiv_pos_site_id
 _symmetry_equiv_pos_as_xyz
  1  'x, y, z'
loop_
 _atom_site_type_symbol
 _atom_site_label
 _atom_site_symmetry_multiplicity
 _atom_site_fract_x
 _atom_site_fract_y
 _atom_site_fract_z
 _atom_site_occupancy
  Nd  Nd0  1  0.16807001  0.33614201  0.25000000  1
  Nd  Nd1  1  0.66385799  0.83192999  0.25000000  1
  Nd  Nd2  1  0.16807001  0.83192999  0.25000000  1
  Nd  Nd3  1  0.83192999  0.66385799  0.75000000  1
  Nd  Nd4  1  0.33614201  0.16807001  0.75000000  1
  Nd  Nd5  1  0.83192999  0.16807001  0.75000000  1
  Ho  Ho0  1  0.33333300  0.66666700  0.75000000  1
  Ho  Ho1  1  0.66666700  0.33333300  0.25000000  1
loop_
_geom_bond_atom_site_label_1
_geom_bond_atom_site_label_2
_geom_bond_distance
_geom_bond_site_symmetry_2
Nd0 Nd5 3.646087 1_455
Nd0 Nd5 3.646087 1_454
Nd0 Nd4 3.646102 1_555
Nd0 Nd4 3.646102 1_554
Nd0 Nd2 3.683461 1_555
Nd0 Nd1 3.683462 1_555
Nd0 Nd2 3.746048 1_545
Nd0 Nd1 3.746049 1_445
Nd1 Nd5 3.646087 1_564
Nd1 Nd5 3.646087 1_565
Nd1 Nd3 3.646102 1_554
Nd1 Nd3 3.646102 1_555
Nd1 Nd2 3.683461 1_555
Nd1 Nd2 3.746048 1_655
Nd2 Nd3 3.646087 1_454
Nd2 Nd3 3.646087 1_455
Nd2 Nd4 3.646087 1_564
Nd2 Nd4 3.646087 1_565
Nd3 Nd5 3.683461 1_555
Nd3 Nd4 3.683462 1_555
Nd3 Nd5 3.746048 1_565
Nd3 Nd4 3.746049 1_665
Nd4 Nd5 3.683461 1_555
Nd4 Nd5 3.746048 1_455
Ho0 Nd1 3.624774 1_555
Ho0 Nd1 3.624774 1_556
Ho0 Nd0 3.624774 1_555
Ho0 Nd0 3.624774 1_556
Ho0 Nd2 3.624777 1_555
Ho0 Nd2 3.624777 1_556
Ho0 Nd3 3.714788 1_455
Ho0 Nd4 3.714788 1_565
Ho0 Nd5 3.714799 1_455
Ho0 Nd5 3.714799 1_565
Ho0 Nd3 3.714810 1_555
Ho0 Nd4 3.714810 1_555
Ho1 Nd4 3.624774 1_555
Ho1 Nd4 3.624774 1_554
Ho1 Nd3 3.624774 1_555
Ho1 Nd3 3.624774 1_554
Ho1 Nd5 3.624777 1_554
Ho1 Nd5 3.624777 1_555
Ho1 Nd1 3.714788 1_545
Ho1 Nd0 3.714788 1_655
Ho1 Nd2 3.714799 1_545
Ho1 Nd2 3.714799 1_655
Ho1 Nd0 3.714810 1_555
Ho1 Nd1 3.714810 1_555
