# generated using pymatgen
data_TmSnGe
_symmetry_space_group_name_H-M   'P 1'
_cell_length_a   4.02966158
_cell_length_b   4.19107456
_cell_length_c   8.37911094
_cell_angle_alpha   104.48288003
_cell_angle_beta   90.00000000
_cell_angle_gamma   90.00000000
_symmetry_Int_Tables_number   1
_chemical_formula_structural   TmSnGe
_chemical_formula_sum   'Tm2 Sn2 Ge2'
_cell_volume   137.01465864
_cell_formula_units_Z   2
loop_
 _symmetry_equiv_pos_site_id
 _symmetry_equiv_pos_as_xyz
  1  'x, y, z'
loop_
 _atom_site_type_symbol
 _atom_site_label
 _atom_site_symmetry_multiplicity
 _atom_site_fract_x
 _atom_site_fract_y
 _atom_site_fract_z
 _atom_site_occupancy
  Tm  Tm0  1  0.25000000  0.59461722  0.18923643  1
  Tm  Tm1  1  0.75000000  0.40538278  0.81076357  1
  Sn  Sn0  1  0.25000000  0.24381916  0.48763833  1
  Sn  Sn1  1  0.75000000  0.75618084  0.51236167  1
  Ge  Ge0  1  0.25000000  0.94785896  0.89571793  1
  Ge  Ge1  1  0.75000000  0.05214104  0.10428207  1
loop_
_geom_bond_atom_site_label_1
_geom_bond_atom_site_label_2
_geom_bond_distance
_geom_bond_site_symmetry_2
Sn0 Sn1 2.913941 1_445
Sn0 Sn1 2.913941 1_545
Sn0 Sn1 2.913941 1_455
Sn0 Sn1 2.913941 1_555
Sn0 Tm0 3.201868 1_555
Sn0 Tm0 3.201873 1_545
Sn0 Tm1 3.306300 1_455
Sn0 Tm1 3.306300 1_555
Sn1 Tm1 3.201868 1_555
Sn1 Tm1 3.201873 1_565
Sn1 Tm0 3.306300 1_555
Sn1 Tm0 3.306300 1_655
Ge0 Ge1 2.631078 1_566
Ge0 Ge1 2.631078 1_466
Ge0 Tm1 2.987612 1_455
Ge0 Tm1 2.987612 1_555
Ge0 Tm1 2.987618 1_565
Ge0 Tm1 2.987618 1_465
Ge0 Tm0 3.172019 1_566
Ge0 Tm0 3.172024 1_556
Ge1 Tm0 2.987612 1_555
Ge1 Tm0 2.987612 1_655
Ge1 Tm0 2.987618 1_645
Ge1 Tm0 2.987618 1_545
Ge1 Tm1 3.172019 1_544
Ge1 Tm1 3.172024 1_554
