# generated using pymatgen
data_Ba7Li3(RuO5)4
_symmetry_space_group_name_H-M   'P 1'
_cell_length_a   5.83127867
_cell_length_b   5.83127867
_cell_length_c   17.45032360
_cell_angle_alpha   80.41394663
_cell_angle_beta   80.41394663
_cell_angle_gamma   60.20924791
_symmetry_Int_Tables_number   1
_chemical_formula_structural   Ba7Li3(RuO5)4
_chemical_formula_sum   'Ba7 Li3 Ru4 O20'
_cell_volume   505.32937658
_cell_formula_units_Z   1
loop_
 _symmetry_equiv_pos_site_id
 _symmetry_equiv_pos_as_xyz
  1  'x, y, z'
loop_
 _atom_site_type_symbol
 _atom_site_label
 _atom_site_symmetry_multiplicity
 _atom_site_fract_x
 _atom_site_fract_y
 _atom_site_fract_z
 _atom_site_occupancy
  Ba  Ba0  1  0.43093700  0.43030300  0.70952800  1
  Ba  Ba1  1  0.56969700  0.56906300  0.29047200  1
  Ba  Ba2  1  0.94468200  0.05531800  0.00000000  1
  Ba  Ba3  1  0.19187800  0.19145500  0.42558300  1
  Ba  Ba4  1  0.80854500  0.80812200  0.57441700  1
  Ba  Ba5  1  0.27659900  0.28038600  0.15503500  1
  Ba  Ba6  1  0.71961400  0.72340100  0.84496500  1
  Li  Li0  1  0.35219000  0.35983600  0.90872300  1
  Li  Li1  1  0.64016400  0.64781000  0.09127700  1
  Li  Li2  1  0.49980500  0.50019500  0.50000000  1
  Ru  Ru0  1  0.12343900  0.12356000  0.62939400  1
  Ru  Ru1  1  0.87644000  0.87656100  0.37060600  1
  Ru  Ru2  1  0.07053400  0.06754600  0.79345300  1
  Ru  Ru3  1  0.93245400  0.92946600  0.20654700  1
  O  O0  1  0.21623400  0.73109200  0.85153000  1
  O  O1  1  0.21284900  0.21140800  0.84809700  1
  O  O2  1  0.73023400  0.21402200  0.84987700  1
  O  O3  1  0.78597800  0.26976600  0.15012300  1
  O  O4  1  0.78859200  0.78715100  0.15190300  1
  O  O5  1  0.26890800  0.78376600  0.14847000  1
  O  O6  1  0.94666100  0.94342600  0.71170200  1
  O  O7  1  0.39609300  0.94670400  0.71040200  1
  O  O8  1  0.94781800  0.39541400  0.71081900  1
  O  O9  1  0.05657400  0.05333900  0.28829800  1
  O  O10  1  0.60458600  0.05218200  0.28918100  1
  O  O11  1  0.05329600  0.60390700  0.28959800  1
  O  O12  1  0.30184300  0.82246000  0.57287800  1
  O  O13  1  0.30242800  0.30264400  0.57268100  1
  O  O14  1  0.82105100  0.30227200  0.57339000  1
  O  O15  1  0.69772800  0.17894900  0.42661000  1
  O  O16  1  0.69735600  0.69757200  0.42731900  1
  O  O17  1  0.17754000  0.69815700  0.42712200  1
  O  O18  1  0.81128000  0.59693000  0.98833600  1
  O  O19  1  0.40307000  0.18872000  0.01166400  1
loop_
_geom_bond_atom_site_label_1
_geom_bond_atom_site_label_2
_geom_bond_distance
_geom_bond_site_symmetry_2
Ba0 O14 2.911919 1_555
Ba0 O7 2.918151 1_555
Ba0 O8 2.919826 1_455
Ba0 O6 2.921486 1_455
Ba0 O8 2.922041 1_555
Ba0 O7 2.923682 1_545
Ba0 O12 2.924625 1_555
Ba0 O13 2.925879 1_555
Ba0 O6 2.936679 1_545
Ba0 O1 2.941853 1_555
Ba0 O2 2.973645 1_555
Ba0 O0 3.002760 1_555
Ba1 O15 2.911919 1_555
Ba1 O11 2.918151 1_555
Ba1 O10 2.919826 1_565
Ba1 O9 2.921486 1_565
Ba1 O10 2.922041 1_555
Ba1 O11 2.923682 1_655
Ba1 O17 2.924625 1_555
Ba1 O16 2.925879 1_555
Ba1 O9 2.936679 1_655
Ba1 O4 2.941853 1_555
Ba1 O3 2.973645 1_555
Ba1 O5 3.002760 1_555
Ba2 O19 2.831732 1_555
Ba2 O18 2.831732 1_554
Ba2 O2 2.901153 1_554
Ba2 O3 2.901153 1_555
Ba2 O4 3.087150 1_545
Ba2 O1 3.087150 1_654
Ba2 O5 3.175640 1_645
Ba2 O0 3.175640 1_644
Ba2 O19 3.176717 1_655
Ba2 O18 3.176717 1_544
Ba3 O17 2.914585 1_545
Ba3 O15 2.915477 1_455
Ba3 O15 2.917207 1_555
Ba3 O17 2.918611 1_555
Ba3 O16 2.923846 1_545
Ba3 O16 2.927583 1_455
Ba3 O11 2.979131 1_555
Ba3 O10 2.985101 1_555
Ba3 O9 2.985628 1_555
Ba3 O13 2.990943 1_555
Ba3 O12 2.997270 1_545
Ba3 O14 3.009192 1_455
Ba4 O12 2.914585 1_655
Ba4 O14 2.915477 1_565
Ba4 O14 2.917207 1_555
Ba4 O12 2.918611 1_555
Ba4 O13 2.923846 1_655
Ba4 O13 2.927583 1_565
Ba4 O7 2.979131 1_555
Ba4 O8 2.985101 1_555
Ba4 O6 2.985628 1_555
Ba4 O16 2.990943 1_555
Ba4 O17 2.997270 1_655
Ba4 O15 3.009192 1_565
Ba5 O19 2.555021 1_555
Ba5 O5 2.896603 1_555
Ba5 O3 2.907868 1_455
Ba5 O4 2.911274 1_455
Ba5 O9 2.911306 1_555
Ba5 O3 2.927155 1_555
Ba5 O5 2.939865 1_545
Ba5 O4 2.941839 1_545
Ba5 O11 2.963876 1_555
Ba5 O10 2.972073 1_555
Ba6 O18 2.555021 1_555
Ba6 O0 2.896603 1_555
Ba6 O2 2.907868 1_565
Ba6 O1 2.911274 1_565
Ba6 O6 2.911306 1_555
Ba6 O2 2.927155 1_555
Ba6 O0 2.939865 1_655
Ba6 O1 2.941839 1_655
Ba6 O7 2.963876 1_555
Ba6 O8 2.972073 1_555
Li0 O19 1.896554 1_556
Li0 O1 1.954146 1_555
Li0 O0 2.037115 1_555
Li0 O2 2.076412 1_555
Li1 O18 1.896554 1_554
Li1 O4 1.954146 1_555
Li1 O5 2.037115 1_555
Li1 O3 2.076412 1_555
Li2 O13 2.145935 1_555
Li2 O16 2.145935 1_555
Li2 O17 2.152395 1_555
Li2 O12 2.152395 1_555
Li2 O14 2.154007 1_555
Li2 O15 2.154007 1_555
O0 Ru2 1.888495 1_565
O1 Ru2 1.877093 1_555
O2 Ru2 1.892604 1_655
O3 Ru3 1.892604 1_545
O4 Ru3 1.877093 1_555
O5 Ru3 1.888495 1_455
O6 Ru2 2.070595 1_665
O6 Ru0 2.075886 1_665
O7 Ru0 2.055102 1_565
O7 Ru2 2.072546 1_565
O8 Ru0 2.057458 1_655
O8 Ru2 2.076709 1_655
O9 Ru3 2.070595 1_445
O9 Ru1 2.075886 1_445
O10 Ru1 2.057458 1_545
O10 Ru3 2.076709 1_545
O11 Ru1 2.055102 1_455
O11 Ru3 2.072546 1_455
O12 Ru0 1.886190 1_565
O13 Ru0 1.885250 1_555
O14 Ru0 1.886574 1_655
O15 Ru1 1.886574 1_545
O16 Ru1 1.885250 1_555
O17 Ru1 1.886190 1_455
