# generated using pymatgen
data_InAgI2
_symmetry_space_group_name_H-M   'P 1'
_cell_length_a   5.70703700
_cell_length_b   5.70703700
_cell_length_c   4.02518200
_cell_angle_alpha   90.00000000
_cell_angle_beta   90.00000000
_cell_angle_gamma   90.00000000
_symmetry_Int_Tables_number   1
_chemical_formula_structural   InAgI2
_chemical_formula_sum   'In1 Ag1 I2'
_cell_volume   131.10126985
_cell_formula_units_Z   1
loop_
 _symmetry_equiv_pos_site_id
 _symmetry_equiv_pos_as_xyz
  1  'x, y, z'
loop_
 _atom_site_type_symbol
 _atom_site_label
 _atom_site_symmetry_multiplicity
 _atom_site_fract_x
 _atom_site_fract_y
 _atom_site_fract_z
 _atom_site_occupancy
  In  In0  1  0.50000000  0.50000000  0.50000000  1
  Ag  Ag0  1  0.00000000  0.00000000  0.50000000  1
  I  I0  1  0.50000000  0.00000000  0.00000000  1
  I  I1  1  0.00000000  0.50000000  0.00000000  1
loop_
_geom_bond_atom_site_label_1
_geom_bond_atom_site_label_2
_geom_bond_distance
_geom_bond_site_symmetry_2
Ag0 I0 3.491861 1_456
Ag0 I0 3.491861 1_556
Ag0 I0 3.491861 1_455
Ag0 I1 3.491861 1_556
Ag0 I0 3.491861 1_555
Ag0 I1 3.491861 1_546
Ag0 I1 3.491861 1_545
Ag0 I1 3.491861 1_555
I0 In0 3.491861 1_545
I0 In0 3.491861 1_555
I0 In0 3.491861 1_544
I0 In0 3.491861 1_554
I1 In0 3.491861 1_555
I1 In0 3.491861 1_554
I1 In0 3.491861 1_454
I1 In0 3.491861 1_455
