# generated using pymatgen
data_Cu4H6SO10
_symmetry_space_group_name_H-M   'P 1'
_cell_length_a   6.08870848
_cell_length_b   10.06153100
_cell_length_c   13.19531709
_cell_angle_alpha   90.00000000
_cell_angle_beta   101.41686227
_cell_angle_gamma   90.00000000
_symmetry_Int_Tables_number   1
_chemical_formula_structural   Cu4H6SO10
_chemical_formula_sum   'Cu16 H24 S4 O40'
_cell_volume   792.37273322
_cell_formula_units_Z   4
loop_
 _symmetry_equiv_pos_site_id
 _symmetry_equiv_pos_as_xyz
  1  'x, y, z'
loop_
 _atom_site_type_symbol
 _atom_site_label
 _atom_site_symmetry_multiplicity
 _atom_site_fract_x
 _atom_site_fract_y
 _atom_site_fract_z
 _atom_site_occupancy
  Cu  Cu0  1  0.72565800  0.00554900  0.20638800  1
  Cu  Cu1  1  0.77434200  0.50554900  0.29361200  1
  Cu  Cu2  1  0.27434200  0.99445100  0.79361200  1
  Cu  Cu3  1  0.22565800  0.49445100  0.70638800  1
  Cu  Cu4  1  0.22184300  0.01095600  0.19838100  1
  Cu  Cu5  1  0.27815700  0.51095600  0.30161900  1
  Cu  Cu6  1  0.77815700  0.98904400  0.80161900  1
  Cu  Cu7  1  0.72184300  0.48904400  0.69838100  1
  Cu  Cu8  1  0.55321900  0.23645100  0.37631900  1
  Cu  Cu9  1  0.94678100  0.73645100  0.12368100  1
  Cu  Cu10  1  0.44678100  0.76354900  0.62368100  1
  Cu  Cu11  1  0.05321900  0.26354900  0.87631900  1
  Cu  Cu12  1  0.05806600  0.23815900  0.37970700  1
  Cu  Cu13  1  0.44193400  0.73815900  0.12029300  1
  Cu  Cu14  1  0.94193400  0.76184100  0.62029300  1
  Cu  Cu15  1  0.55806600  0.26184100  0.87970700  1
  H  H0  1  0.84349600  0.38821300  0.47723900  1
  H  H1  1  0.65650400  0.88821300  0.02276100  1
  H  H2  1  0.15650400  0.61178700  0.52276100  1
  H  H3  1  0.34349600  0.11178700  0.97723900  1
  H  H4  1  0.36468800  0.37397800  0.49374700  1
  H  H5  1  0.13531200  0.87397800  0.00625300  1
  H  H6  1  0.63531200  0.62602200  0.50625300  1
  H  H7  1  0.86468800  0.12602200  0.99374700  1
  H  H8  1  0.81686200  0.04648000  0.39183000  1
  H  H9  1  0.68313800  0.54648000  0.10817000  1
  H  H10  1  0.18313800  0.95352000  0.60817000  1
  H  H11  1  0.31686200  0.45352000  0.89183000  1
  H  H12  1  0.30310900  0.04188300  0.39204900  1
  H  H13  1  0.19689100  0.54188300  0.10795100  1
  H  H14  1  0.69689100  0.95811700  0.60795100  1
  H  H15  1  0.80310900  0.45811700  0.89204900  1
  H  H16  1  0.49889900  0.90073000  0.32758200  1
  H  H17  1  0.00110100  0.40073000  0.17241800  1
  H  H18  1  0.50110100  0.09927000  0.67241800  1
  H  H19  1  0.99889900  0.59927000  0.82758200  1
  H  H20  1  0.94285800  0.18891400  0.15863000  1
  H  H21  1  0.55714200  0.68891400  0.34137000  1
  H  H22  1  0.05714200  0.81108600  0.84137000  1
  H  H23  1  0.44285800  0.31108600  0.65863000  1
  S  S0  1  0.42488100  0.30419300  0.11175800  1
  S  S1  1  0.07511900  0.80419300  0.38824200  1
  S  S2  1  0.57511900  0.69580700  0.88824200  1
  S  S3  1  0.92488100  0.19580700  0.61175800  1
  O  O0  1  0.81487400  0.36319500  0.40334800  1
  O  O1  1  0.68512600  0.86319500  0.09665200  1
  O  O2  1  0.18512600  0.63680500  0.59665200  1
  O  O3  1  0.31487400  0.13680500  0.90334800  1
  O  O4  1  0.32603400  0.35771000  0.41804800  1
  O  O5  1  0.17396600  0.85771000  0.08195200  1
  O  O6  1  0.67396600  0.64229000  0.58195200  1
  O  O7  1  0.82603400  0.14229000  0.91804800  1
  O  O8  1  0.78875500  0.11552300  0.33811800  1
  O  O9  1  0.71124500  0.61552300  0.16188200  1
  O  O10  1  0.21124500  0.88447700  0.66188200  1
  O  O11  1  0.28875500  0.38447700  0.83811800  1
  O  O12  1  0.28549000  0.11568300  0.34177200  1
  O  O13  1  0.21451000  0.61568300  0.15822800  1
  O  O14  1  0.71451000  0.88431700  0.65822800  1
  O  O15  1  0.78549000  0.38431700  0.84177200  1
  O  O16  1  0.48768400  0.90794800  0.25285700  1
  O  O17  1  0.01231600  0.40794800  0.24714300  1
  O  O18  1  0.51231600  0.09205200  0.74714300  1
  O  O19  1  0.98768400  0.59205200  0.75285700  1
  O  O20  1  0.94087000  0.09567300  0.13854400  1
  O  O21  1  0.55913000  0.59567300  0.36145600  1
  O  O22  1  0.05913000  0.90432700  0.86145600  1
  O  O23  1  0.44087000  0.40432700  0.63854400  1
  O  O24  1  0.47951200  0.35082400  0.22114000  1
  O  O25  1  0.02048800  0.85082400  0.27886000  1
  O  O26  1  0.52048800  0.64917600  0.77886000  1
  O  O27  1  0.97951200  0.14917600  0.72114000  1
  O  O28  1  0.41757100  0.15447500  0.11168800  1
  O  O29  1  0.08242900  0.65447500  0.38831200  1
  O  O30  1  0.58242900  0.84552500  0.88831200  1
  O  O31  1  0.91757100  0.34552500  0.61168800  1
  O  O32  1  0.20136200  0.35835100  0.06144700  1
  O  O33  1  0.29863800  0.85835100  0.43855300  1
  O  O34  1  0.79863800  0.64164900  0.93855300  1
  O  O35  1  0.70136200  0.14164900  0.56144700  1
  O  O36  1  0.60188600  0.34955800  0.05661900  1
  O  O37  1  0.89811400  0.84955800  0.44338100  1
  O  O38  1  0.39811400  0.65044200  0.94338100  1
  O  O39  1  0.10188600  0.15044200  0.55661900  1
loop_
_geom_bond_atom_site_label_1
_geom_bond_atom_site_label_2
_geom_bond_distance
_geom_bond_site_symmetry_2
Cu0 O16 1.947187 1_545
Cu0 O20 1.950678 1_555
Cu0 O1 2.016835 1_545
Cu0 O8 2.031990 1_555
Cu0 O25 2.425060 1_645
Cu0 O28 2.529346 1_555
Cu1 O17 1.947187 1_655
Cu1 O21 1.950678 1_555
Cu1 O0 2.016835 1_555
Cu1 O9 2.031990 1_555
Cu1 O24 2.425060 1_555
Cu1 O29 2.529346 1_655
Cu2 O18 1.947187 1_565
Cu2 O22 1.950678 1_555
Cu2 O3 2.016835 1_565
Cu2 O10 2.031990 1_555
Cu2 O27 2.425060 1_465
Cu2 O30 2.529346 1_555
Cu3 O19 1.947187 1_455
Cu3 O23 1.950678 1_555
Cu3 O2 2.016835 1_555
Cu3 O11 2.031990 1_555
Cu3 O26 2.425060 1_555
Cu3 O31 2.529346 1_455
Cu4 O20 1.934406 1_455
Cu4 O16 1.936545 1_545
Cu4 O12 2.133123 1_555
Cu4 O5 2.155312 1_545
Cu4 O28 2.313812 1_555
Cu4 O25 2.396266 1_545
Cu5 O21 1.934406 1_555
Cu5 O17 1.936545 1_555
Cu5 O13 2.133123 1_555
Cu5 O4 2.155312 1_555
Cu5 O29 2.313812 1_555
Cu5 O24 2.396266 1_555
Cu6 O22 1.934406 1_655
Cu6 O18 1.936545 1_565
Cu6 O14 2.133123 1_555
Cu6 O7 2.155312 1_565
Cu6 O30 2.313812 1_555
Cu6 O27 2.396266 1_565
Cu7 O23 1.934406 1_555
Cu7 O19 1.936545 1_555
Cu7 O15 2.133123 1_555
Cu7 O6 2.155312 1_555
Cu7 O31 2.313812 1_555
Cu7 O26 2.396266 1_555
Cu8 O4 2.001666 1_555
Cu8 O12 2.011819 1_555
Cu8 O0 2.016578 1_555
Cu8 O8 2.019248 1_555
Cu8 O24 2.314019 1_555
Cu8 O35 2.611227 1_555
Cu9 O5 2.001666 1_655
Cu9 O13 2.011819 1_655
Cu9 O1 2.016578 1_555
Cu9 O9 2.019248 1_555
Cu9 O25 2.314019 1_655
Cu9 O34 2.611227 1_554
Cu10 O6 2.001666 1_555
Cu10 O14 2.011819 1_555
Cu10 O2 2.016578 1_555
Cu10 O10 2.019248 1_555
Cu10 O26 2.314019 1_555
Cu10 O33 2.611227 1_555
Cu11 O7 2.001666 1_455
Cu11 O15 2.011819 1_455
Cu11 O3 2.016578 1_555
Cu11 O11 2.019248 1_555
Cu11 O27 2.314019 1_455
Cu11 O32 2.611227 1_556
Cu12 O12 1.990219 1_555
Cu12 O4 2.009504 1_555
Cu12 O0 2.013809 1_455
Cu12 O8 2.038684 1_455
Cu12 O17 2.421341 1_555
Cu12 O39 2.460286 1_555
Cu13 O13 1.990219 1_555
Cu13 O5 2.009504 1_555
Cu13 O1 2.013809 1_555
Cu13 O9 2.038684 1_555
Cu13 O16 2.421341 1_555
Cu13 O38 2.460286 1_554
Cu14 O14 1.990219 1_555
Cu14 O6 2.009504 1_555
Cu14 O2 2.013809 1_655
Cu14 O10 2.038684 1_655
Cu14 O19 2.421341 1_555
Cu14 O37 2.460286 1_555
Cu15 O15 1.990219 1_555
Cu15 O7 2.009504 1_555
Cu15 O3 2.013809 1_555
Cu15 O11 2.038684 1_555
Cu15 O18 2.421341 1_555
Cu15 O36 2.460286 1_556
H0 O0 0.988493 1_555
H1 O1 0.988493 1_555
H2 O2 0.988493 1_555
H3 O3 0.988493 1_555
H4 O4 0.993408 1_555
H5 O5 0.993408 1_555
H6 O6 0.993408 1_555
H7 O7 0.993408 1_555
H8 O8 0.982939 1_555
H9 O9 0.982939 1_555
H10 O10 0.982939 1_555
H11 O11 0.982939 1_555
H12 O12 0.987333 1_555
H13 O13 0.987333 1_555
H14 O14 0.987333 1_555
H15 O15 0.987333 1_555
H16 O16 0.977506 1_555
H17 O17 0.977506 1_555
H18 O18 0.977506 1_555
H19 O19 0.977506 1_555
H20 O20 0.974291 1_555
H21 O21 0.974291 1_555
H22 O22 0.974291 1_555
H23 O23 0.974291 1_555
O24 S0 1.491277 1_555
O25 S1 1.491277 1_555
O26 S2 1.491277 1_555
O27 S3 1.491277 1_555
O28 S0 1.507045 1_555
O29 S1 1.507045 1_555
O30 S2 1.507045 1_555
O31 S3 1.507045 1_555
O32 S0 1.494032 1_555
O33 S1 1.494032 1_555
O34 S2 1.494032 1_555
O35 S3 1.494032 1_555
O36 S0 1.486487 1_555
O37 S1 1.486487 1_655
O38 S2 1.486487 1_555
O39 S3 1.486487 1_455
