# generated using pymatgen
data_Ca10Nb5InO24
_symmetry_space_group_name_H-M   'P 1'
_cell_length_a   8.08881189
_cell_length_b   8.05298508
_cell_length_c   9.86108237
_cell_angle_alpha   66.70068795
_cell_angle_beta   66.85098469
_cell_angle_gamma   92.30677767
_symmetry_Int_Tables_number   1
_chemical_formula_structural   Ca10Nb5InO24
_chemical_formula_sum   'Ca10 Nb5 In1 O24'
_cell_volume   527.68638128
_cell_formula_units_Z   1
loop_
 _symmetry_equiv_pos_site_id
 _symmetry_equiv_pos_as_xyz
  1  'x, y, z'
loop_
 _atom_site_type_symbol
 _atom_site_label
 _atom_site_symmetry_multiplicity
 _atom_site_fract_x
 _atom_site_fract_y
 _atom_site_fract_z
 _atom_site_occupancy
  Ca  Ca0  1  0.74972300  0.25211500  0.50166200  1
  Ca  Ca1  1  0.00119900  0.99861100  0.00088700  1
  Ca  Ca2  1  0.59787300  0.15340000  0.26063000  1
  Ca  Ca3  1  0.11359500  0.66319100  0.24265300  1
  Ca  Ca4  1  0.41714900  0.36173700  0.74744800  1
  Ca  Ca5  1  0.91240100  0.85565100  0.74196800  1
  Ca  Ca6  1  0.89199900  0.34167800  0.75917700  1
  Ca  Ca7  1  0.39774500  0.84264400  0.73915300  1
  Ca  Ca8  1  0.08683400  0.14374800  0.26165100  1
  Ca  Ca9  1  0.58123400  0.64209900  0.25024800  1
  Nb  Nb0  1  0.49929200  0.00487500  0.99822500  1
  Nb  Nb1  1  0.98493600  0.50289800  0.00449700  1
  Nb  Nb2  1  0.25023500  0.25382900  0.50826500  1
  Nb  Nb3  1  0.75142700  0.74482400  0.49170500  1
  Nb  Nb4  1  0.48981900  0.50233700  0.99865900  1
  In  In0  1  0.25067700  0.75009200  0.49831200  1
  O  O0  1  0.46150700  0.90847300  0.23948500  1
  O  O1  1  0.96640900  0.42396200  0.22540100  1
  O  O2  1  0.17353300  0.22094800  0.72818800  1
  O  O3  1  0.64974700  0.68704000  0.76444100  1
  O  O4  1  0.05462000  0.58462800  0.75853100  1
  O  O5  1  0.52168600  0.08049300  0.77623400  1
  O  O6  1  0.35100400  0.31943200  0.23528400  1
  O  O7  1  0.83035700  0.77076700  0.27262200  1
  O  O8  1  0.47734100  0.66761600  0.56197100  1
  O  O9  1  0.99994500  0.16793800  0.54040100  1
  O  O10  1  0.42831000  0.71651700  0.05352400  1
  O  O11  1  0.91747600  0.24104400  0.05335500  1
  O  O12  1  0.01007800  0.82549700  0.45758500  1
  O  O13  1  0.51973700  0.33357600  0.42788100  1
  O  O14  1  0.08793900  0.76571700  0.93352100  1
  O  O15  1  0.57106100  0.27776800  0.95240500  1
  O  O16  1  0.28704600  0.99253400  0.54380300  1
  O  O17  1  0.75830600  0.47851200  0.58544700  1
  O  O18  1  0.23247700  0.00728800  0.08245400  1
  O  O19  1  0.72792500  0.53008900  0.04707700  1
  O  O20  1  0.23067200  0.52311800  0.43059800  1
  O  O21  1  0.72118900  0.00198300  0.44777200  1
  O  O22  1  0.28500400  0.47597300  0.94692000  1
  O  O23  1  0.76049100  0.98536000  0.92996100  1
loop_
_geom_bond_atom_site_label_1
_geom_bond_atom_site_label_2
_geom_bond_distance
_geom_bond_site_symmetry_2
Ca0 O13 2.281514 1_555
Ca0 O9 2.283753 1_555
Ca0 O17 2.288649 1_555
Ca0 O21 2.301936 1_555
Ca0 O1 2.340262 1_555
Ca0 O5 2.356115 1_555
Ca1 O11 2.273288 1_465
Ca1 O14 2.275104 1_554
Ca1 O18 2.317030 1_565
Ca1 O23 2.324766 1_454
Ca1 O2 2.328785 1_564
Ca1 O7 2.334863 1_455
Ca2 O0 2.341270 1_545
Ca2 O21 2.377501 1_555
Ca2 O11 2.432394 1_555
Ca2 O6 2.486098 1_555
Ca2 O13 2.524309 1_555
Ca2 O16 2.674536 1_545
Ca2 O19 2.773297 1_555
Ca2 O15 2.901023 1_554
Ca3 O1 2.322000 1_455
Ca3 O20 2.327290 1_555
Ca3 O10 2.385097 1_555
Ca3 O7 2.432434 1_455
Ca3 O18 2.495394 1_565
Ca3 O12 2.790308 1_555
Ca3 O14 2.921904 1_554
Ca4 O8 2.299819 1_555
Ca4 O2 2.342943 1_555
Ca4 O22 2.390705 1_555
Ca4 O5 2.399886 1_555
Ca4 O17 2.487588 1_555
Ca4 O15 2.656505 1_555
Ca5 O3 2.359258 1_555
Ca5 O9 2.360591 1_565
Ca5 O23 2.425225 1_555
Ca5 O4 2.486243 1_655
Ca5 O14 2.686630 1_655
Ca5 O12 2.712843 1_655
Ca5 O16 2.754681 1_655
Ca5 O19 2.840362 1_556
Ca6 O4 2.309656 1_655
Ca6 O17 2.319017 1_555
Ca6 O15 2.421219 1_555
Ca6 O2 2.467938 1_655
Ca6 O23 2.593134 1_545
Ca6 O11 2.781774 1_556
Ca6 O9 2.894693 1_555
Ca6 O20 3.015262 1_655
Ca7 O5 2.344188 1_565
Ca7 O14 2.344477 1_555
Ca7 O16 2.360814 1_555
Ca7 O3 2.479018 1_555
Ca7 O8 2.567232 1_555
Ca7 O22 2.697541 1_555
Ca7 O21 2.765864 1_565
Ca7 O10 2.972371 1_556
Ca8 O6 2.379921 1_555
Ca8 O12 2.387135 1_545
Ca8 O18 2.391990 1_555
Ca8 O1 2.445673 1_455
Ca8 O9 2.646381 1_455
Ca8 O21 2.687399 1_455
Ca8 O11 2.781223 1_455
Ca8 O22 2.921343 1_554
Ca9 O13 2.293750 1_555
Ca9 O7 2.354846 1_555
Ca9 O0 2.370355 1_555
Ca9 O19 2.425315 1_555
Ca9 O20 2.567090 1_555
Ca9 O10 2.584416 1_555
Ca9 O8 2.946182 1_555
Ca9 O23 2.981465 1_554
Nb0 O5 1.954608 1_555
Nb0 O23 1.983406 1_545
Nb0 O18 1.988687 1_556
Nb0 O15 2.067897 1_555
Nb0 O0 2.074674 1_546
Nb0 O10 2.159665 1_546
Nb1 O1 1.952437 1_555
Nb1 O11 1.968120 1_555
Nb1 O14 1.972623 1_654
Nb1 O19 1.992283 1_555
Nb1 O4 2.065495 1_654
Nb1 O22 2.305836 1_654
Nb2 O2 1.905995 1_555
Nb2 O9 1.971569 1_455
Nb2 O13 1.979625 1_555
Nb2 O20 2.030616 1_555
Nb2 O16 2.046531 1_545
Nb2 O6 2.303244 1_555
Nb3 O7 1.914762 1_555
Nb3 O17 1.984621 1_555
Nb3 O21 1.987584 1_565
Nb3 O12 2.019078 1_655
Nb3 O8 2.030351 1_555
Nb3 O3 2.316513 1_555
Nb4 O22 1.942170 1_555
Nb4 O6 1.990731 1_556
Nb4 O3 1.999656 1_555
Nb4 O10 2.027506 1_556
Nb4 O15 2.103070 1_555
Nb4 O19 2.181774 1_556
In0 O4 2.191018 1_555
In0 O12 2.198707 1_555
In0 O20 2.199912 1_555
In0 O16 2.202255 1_555
In0 O8 2.206770 1_555
In0 O0 2.208348 1_555
