# generated using pymatgen
data_Sr4GeAs4
_symmetry_space_group_name_H-M   'P 1'
_cell_length_a   12.85444129
_cell_length_b   12.85444129
_cell_length_c   12.85444129
_cell_angle_alpha   90.00000000
_cell_angle_beta   90.00000000
_cell_angle_gamma   90.00000000
_symmetry_Int_Tables_number   1
_chemical_formula_structural   Sr4GeAs4
_chemical_formula_sum   'Sr32 Ge8 As32'
_cell_volume   2124.02495621
_cell_formula_units_Z   8
loop_
 _symmetry_equiv_pos_site_id
 _symmetry_equiv_pos_as_xyz
  1  'x, y, z'
loop_
 _atom_site_type_symbol
 _atom_site_label
 _atom_site_symmetry_multiplicity
 _atom_site_fract_x
 _atom_site_fract_y
 _atom_site_fract_z
 _atom_site_occupancy
  Sr  Sr0  1  0.13126181  0.64323986  0.09774580  1
  Sr  Sr1  1  0.35676014  0.90225420  0.13126181  1
  Sr  Sr2  1  0.09774580  0.86873819  0.35676014  1
  Sr  Sr3  1  0.86873819  0.35676014  0.09774580  1
  Sr  Sr4  1  0.64323986  0.09774580  0.13126181  1
  Sr  Sr5  1  0.90225420  0.13126181  0.35676014  1
  Sr  Sr6  1  0.13126181  0.35676014  0.90225420  1
  Sr  Sr7  1  0.35676014  0.09774580  0.86873819  1
  Sr  Sr8  1  0.09774580  0.13126181  0.64323986  1
  Sr  Sr9  1  0.86873819  0.64323986  0.90225420  1
  Sr  Sr10  1  0.64323986  0.90225420  0.86873819  1
  Sr  Sr11  1  0.90225420  0.86873819  0.64323986  1
  Sr  Sr12  1  0.63126181  0.59774580  0.14323986  1
  Sr  Sr13  1  0.85676014  0.63126181  0.40225420  1
  Sr  Sr14  1  0.59774580  0.85676014  0.36873819  1
  Sr  Sr15  1  0.36873819  0.59774580  0.85676014  1
  Sr  Sr16  1  0.14323986  0.63126181  0.59774580  1
  Sr  Sr17  1  0.40225420  0.85676014  0.63126181  1
  Sr  Sr18  1  0.63126181  0.40225420  0.85676014  1
  Sr  Sr19  1  0.85676014  0.36873819  0.59774580  1
  Sr  Sr20  1  0.59774580  0.14323986  0.63126181  1
  Sr  Sr21  1  0.36873819  0.40225420  0.14323986  1
  Sr  Sr22  1  0.14323986  0.36873819  0.40225420  1
  Sr  Sr23  1  0.40225420  0.14323986  0.36873819  1
  Sr  Sr24  1  0.85666685  0.14333315  0.85666685  1
  Sr  Sr25  1  0.14333315  0.85666685  0.85666685  1
  Sr  Sr26  1  0.85666685  0.85666685  0.14333315  1
  Sr  Sr27  1  0.14333315  0.14333315  0.14333315  1
  Sr  Sr28  1  0.35666685  0.35666685  0.64333315  1
  Sr  Sr29  1  0.64333315  0.35666685  0.35666685  1
  Sr  Sr30  1  0.35666685  0.64333315  0.35666685  1
  Sr  Sr31  1  0.64333315  0.64333315  0.64333315  1
  Ge  Ge0  1  -0.00000000  0.50000000  0.25000000  1
  Ge  Ge1  1  0.50000000  0.75000000  -0.00000000  1
  Ge  Ge2  1  0.25000000  -0.00000000  0.50000000  1
  Ge  Ge3  1  0.50000000  0.25000000  -0.00000000  1
  Ge  Ge4  1  0.75000000  -0.00000000  0.50000000  1
  Ge  Ge5  1  -0.00000000  0.50000000  0.75000000  1
  Ge  Ge6  1  0.50000000  0.50000000  0.50000000  1
  Ge  Ge7  1  -0.00000000  -0.00000000  -0.00000000  1
  As  As0  1  0.10837517  0.61939401  0.35365548  1
  As  As1  1  0.38060599  0.64634452  0.10837517  1
  As  As2  1  0.35365548  0.89162483  0.38060599  1
  As  As3  1  0.89162483  0.38060599  0.35365548  1
  As  As4  1  0.61939401  0.35365548  0.10837517  1
  As  As5  1  0.64634452  0.10837517  0.38060599  1
  As  As6  1  0.10837517  0.38060599  0.64634452  1
  As  As7  1  0.38060599  0.35365548  0.89162483  1
  As  As8  1  0.35365548  0.10837517  0.61939401  1
  As  As9  1  0.89162483  0.61939401  0.64634452  1
  As  As10  1  0.61939401  0.64634452  0.89162483  1
  As  As11  1  0.64634452  0.89162483  0.61939401  1
  As  As12  1  0.60837517  0.85365548  0.11939401  1
  As  As13  1  0.88060599  0.60837517  0.14634452  1
  As  As14  1  0.85365548  0.88060599  0.39162483  1
  As  As15  1  0.39162483  0.85365548  0.88060599  1
  As  As16  1  0.11939401  0.60837517  0.85365548  1
  As  As17  1  0.14634452  0.88060599  0.60837517  1
  As  As18  1  0.60837517  0.14634452  0.88060599  1
  As  As19  1  0.88060599  0.39162483  0.85365548  1
  As  As20  1  0.85365548  0.11939401  0.60837517  1
  As  As21  1  0.39162483  0.14634452  0.11939401  1
  As  As22  1  0.11939401  0.39162483  0.14634452  1
  As  As23  1  0.14634452  0.11939401  0.39162483  1
  As  As24  1  0.11007765  0.88992235  0.11007765  1
  As  As25  1  0.88992235  0.11007765  0.11007765  1
  As  As26  1  0.11007765  0.11007765  0.88992235  1
  As  As27  1  0.88992235  0.88992235  0.88992235  1
  As  As28  1  0.61007765  0.61007765  0.38992235  1
  As  As29  1  0.38992235  0.61007765  0.61007765  1
  As  As30  1  0.61007765  0.38992235  0.61007765  1
  As  As31  1  0.38992235  0.38992235  0.38992235  1
loop_
_geom_bond_atom_site_label_1
_geom_bond_atom_site_label_2
_geom_bond_distance
_geom_bond_site_symmetry_2
Ge0 Sr3 3.172956 1_455
Ge0 Sr13 3.172956 1_455
Ge0 Sr22 3.172956 1_555
Ge0 Sr0 3.172956 1_555
Ge1 Sr15 3.172956 1_554
Ge1 Sr10 3.172956 1_554
Ge1 Sr12 3.172956 1_555
Ge1 Sr1 3.172956 1_555
Ge2 Sr8 3.172956 1_555
Ge2 Sr2 3.172956 1_545
Ge2 Sr17 3.172956 1_545
Ge2 Sr23 3.172956 1_555
Ge3 Sr21 3.172956 1_555
Ge3 Sr7 3.172956 1_554
Ge3 Sr4 3.172956 1_555
Ge3 Sr18 3.172956 1_554
Ge4 Sr5 3.172956 1_555
Ge4 Sr14 3.172956 1_545
Ge4 Sr11 3.172956 1_545
Ge4 Sr20 3.172956 1_555
Ge5 Sr19 3.172956 1_455
Ge5 Sr9 3.172956 1_455
Ge5 Sr6 3.172956 1_555
Ge5 Sr16 3.172956 1_555
Ge6 Sr30 3.191247 1_555
Ge6 Sr28 3.191247 1_555
Ge6 Sr31 3.191247 1_555
Ge6 Sr29 3.191247 1_555
Ge7 Sr24 3.191247 1_454
Ge7 Sr26 3.191247 1_445
Ge7 Sr27 3.191247 1_555
Ge7 Sr25 3.191247 1_544
As0 Ge0 2.464051 1_555
As0 Sr16 3.173159 1_555
As0 Sr30 3.206685 1_555
As0 Sr2 3.208339 1_555
As0 Sr13 3.297679 1_455
As0 Sr22 3.312501 1_555
As0 Sr0 3.316899 1_555
As1 Ge1 2.464051 1_555
As1 Sr21 3.173159 1_555
As1 Sr30 3.206685 1_555
As1 Sr0 3.208339 1_555
As1 Sr15 3.297679 1_554
As1 Sr12 3.312501 1_555
As1 Sr1 3.316899 1_555
As2 Ge2 2.464051 1_565
As2 Sr14 3.173159 1_555
As2 Sr30 3.206685 1_555
As2 Sr1 3.208339 1_555
As2 Sr23 3.297679 1_565
As2 Sr17 3.312501 1_555
As2 Sr2 3.316899 1_555
As3 Ge0 2.464051 1_655
As3 Sr19 3.173159 1_555
As3 Sr29 3.206685 1_555
As3 Sr5 3.208339 1_555
As3 Sr22 3.297679 1_655
As3 Sr13 3.312501 1_555
As3 Sr3 3.316899 1_555
As4 Ge3 2.464051 1_555
As4 Sr12 3.173159 1_555
As4 Sr29 3.206685 1_555
As4 Sr3 3.208339 1_555
As4 Sr18 3.297679 1_554
As4 Sr21 3.312501 1_555
As4 Sr4 3.316899 1_555
As5 Ge4 2.464051 1_555
As5 Sr23 3.173159 1_555
As5 Sr29 3.206685 1_555
As5 Sr4 3.208339 1_555
As5 Sr14 3.297679 1_545
As5 Sr20 3.312501 1_555
As5 Sr5 3.316899 1_555
As6 Ge5 2.464051 1_555
As6 Sr22 3.173159 1_555
As6 Sr28 3.206685 1_555
As6 Sr8 3.208339 1_555
As6 Sr19 3.297679 1_455
As6 Sr16 3.312501 1_555
As6 Sr6 3.316899 1_555
As7 Ge3 2.464051 1_556
As7 Sr15 3.173159 1_555
As7 Sr28 3.206685 1_555
As7 Sr6 3.208339 1_555
As7 Sr21 3.297679 1_556
As7 Sr18 3.312501 1_555
As7 Sr7 3.316899 1_555
As8 Ge2 2.464051 1_555
As8 Sr20 3.173159 1_555
As8 Sr28 3.206685 1_555
As8 Sr7 3.208339 1_555
As8 Sr17 3.297679 1_545
As8 Sr23 3.312501 1_555
As8 Sr8 3.316899 1_555
As9 Ge5 2.464051 1_655
As9 Sr13 3.173159 1_555
As9 Sr31 3.206685 1_555
As9 Sr11 3.208339 1_555
As9 Sr16 3.297679 1_655
As9 Sr19 3.312501 1_555
As9 Sr9 3.316899 1_555
As10 Ge1 2.464051 1_556
As10 Sr18 3.173159 1_555
As10 Sr31 3.206685 1_555
As10 Sr9 3.208339 1_555
As10 Sr12 3.297679 1_556
As10 Sr15 3.312501 1_555
As10 Sr10 3.316899 1_555
As11 Ge4 2.464051 1_565
As11 Sr17 3.173159 1_555
As11 Sr31 3.206685 1_555
As11 Sr10 3.208339 1_555
As11 Sr20 3.297679 1_565
As11 Sr14 3.312501 1_555
As11 Sr11 3.316899 1_555
As12 Ge1 2.464051 1_555
As12 Sr4 3.173159 1_565
As12 Sr26 3.206685 1_555
As12 Sr14 3.208339 1_555
As12 Sr1 3.297679 1_555
As12 Sr10 3.312501 1_554
As12 Sr12 3.316899 1_555
As13 Ge0 2.464051 1_655
As13 Sr9 3.173159 1_554
As13 Sr26 3.206685 1_555
As13 Sr12 3.208339 1_555
As13 Sr3 3.297679 1_555
As13 Sr0 3.312501 1_655
As13 Sr13 3.316899 1_555
As14 Ge4 2.464051 1_565
As14 Sr2 3.173159 1_655
As14 Sr26 3.206685 1_555
As14 Sr13 3.208339 1_555
As14 Sr11 3.297679 1_555
As14 Sr5 3.312501 1_565
As14 Sr14 3.316899 1_555
As15 Ge1 2.464051 1_556
As15 Sr7 3.173159 1_565
As15 Sr25 3.206685 1_555
As15 Sr17 3.208339 1_555
As15 Sr10 3.297679 1_555
As15 Sr1 3.312501 1_556
As15 Sr15 3.316899 1_555
As16 Ge5 2.464051 1_555
As16 Sr0 3.173159 1_556
As16 Sr25 3.206685 1_555
As16 Sr15 3.208339 1_555
As16 Sr6 3.297679 1_555
As16 Sr9 3.312501 1_455
As16 Sr16 3.316899 1_555
As17 Ge2 2.464051 1_565
As17 Sr11 3.173159 1_455
As17 Sr25 3.206685 1_555
As17 Sr16 3.208339 1_555
As17 Sr2 3.297679 1_555
As17 Sr8 3.312501 1_565
As17 Sr17 3.316899 1_555
As18 Ge3 2.464051 1_556
As18 Sr10 3.173159 1_545
As18 Sr24 3.206685 1_555
As18 Sr20 3.208339 1_555
As18 Sr7 3.297679 1_555
As18 Sr4 3.312501 1_556
As18 Sr18 3.316899 1_555
As19 Ge5 2.464051 1_655
As19 Sr3 3.173159 1_556
As19 Sr24 3.206685 1_555
As19 Sr18 3.208339 1_555
As19 Sr9 3.297679 1_555
As19 Sr6 3.312501 1_655
As19 Sr19 3.316899 1_555
As20 Ge4 2.464051 1_555
As20 Sr8 3.173159 1_655
As20 Sr24 3.206685 1_555
As20 Sr19 3.208339 1_555
As20 Sr5 3.297679 1_555
As20 Sr11 3.312501 1_545
As20 Sr20 3.316899 1_555
As21 Ge3 2.464051 1_555
As21 Sr1 3.173159 1_545
As21 Sr27 3.206685 1_555
As21 Sr23 3.208339 1_555
As21 Sr4 3.297679 1_555
As21 Sr7 3.312501 1_554
As21 Sr21 3.316899 1_555
As22 Ge0 2.464051 1_555
As22 Sr6 3.173159 1_554
As22 Sr27 3.206685 1_555
As22 Sr21 3.208339 1_555
As22 Sr0 3.297679 1_555
As22 Sr3 3.312501 1_455
As22 Sr22 3.316899 1_555
As23 Ge2 2.464051 1_555
As23 Sr5 3.173159 1_455
As23 Sr27 3.206685 1_555
As23 Sr22 3.208339 1_555
As23 Sr8 3.297679 1_555
As23 Sr2 3.312501 1_545
As23 Sr23 3.316899 1_555
As24 Ge7 2.450829 1_565
As24 Sr0 3.186582 1_555
As24 Sr1 3.186582 1_555
As24 Sr2 3.186582 1_555
As24 Sr27 3.313078 1_565
As24 Sr25 3.313078 1_554
As24 Sr26 3.313078 1_455
As25 Ge7 2.450829 1_655
As25 Sr4 3.186582 1_555
As25 Sr5 3.186582 1_555
As25 Sr3 3.186582 1_555
As25 Sr27 3.313078 1_655
As25 Sr24 3.313078 1_554
As25 Sr26 3.313078 1_545
As26 Ge7 2.450829 1_556
As26 Sr8 3.186582 1_555
As26 Sr7 3.186582 1_555
As26 Sr6 3.186582 1_555
As26 Sr27 3.313078 1_556
As26 Sr25 3.313078 1_545
As26 Sr24 3.313078 1_455
As27 Ge7 2.450829 1_666
As27 Sr11 3.186582 1_555
As27 Sr9 3.186582 1_555
As27 Sr10 3.186582 1_555
As27 Sr24 3.313078 1_565
As27 Sr25 3.313078 1_655
As27 Sr26 3.313078 1_556
As28 Ge6 2.450829 1_555
As28 Sr14 3.186582 1_555
As28 Sr13 3.186582 1_555
As28 Sr12 3.186582 1_555
As28 Sr31 3.313078 1_555
As28 Sr29 3.313078 1_555
As28 Sr30 3.313078 1_555
As29 Ge6 2.450829 1_555
As29 Sr15 3.186582 1_555
As29 Sr17 3.186582 1_555
As29 Sr16 3.186582 1_555
As29 Sr31 3.313078 1_555
As29 Sr28 3.313078 1_555
As29 Sr30 3.313078 1_555
As30 Ge6 2.450829 1_555
As30 Sr18 3.186582 1_555
As30 Sr19 3.186582 1_555
As30 Sr20 3.186582 1_555
As30 Sr31 3.313078 1_555
As30 Sr28 3.313078 1_555
As30 Sr29 3.313078 1_555
As31 Ge6 2.450829 1_555
As31 Sr21 3.186582 1_555
As31 Sr22 3.186582 1_555
As31 Sr23 3.186582 1_555
As31 Sr29 3.313078 1_555
As31 Sr30 3.313078 1_555
As31 Sr28 3.313078 1_555
