# generated using pymatgen
data_Pr4Fe29Si5
_symmetry_space_group_name_H-M   'P 1'
_cell_length_a   6.46979500
_cell_length_b   6.49966308
_cell_length_c   12.92843301
_cell_angle_alpha   82.25452587
_cell_angle_beta   81.81480523
_cell_angle_gamma   82.36044051
_symmetry_Int_Tables_number   1
_chemical_formula_structural   Pr4Fe29Si5
_chemical_formula_sum   'Pr4 Fe29 Si5'
_cell_volume   529.61362555
_cell_formula_units_Z   1
loop_
 _symmetry_equiv_pos_site_id
 _symmetry_equiv_pos_as_xyz
  1  'x, y, z'
loop_
 _atom_site_type_symbol
 _atom_site_label
 _atom_site_symmetry_multiplicity
 _atom_site_fract_x
 _atom_site_fract_y
 _atom_site_fract_z
 _atom_site_occupancy
  Pr  Pr0  1  0.34826700  0.34453700  0.67327000  1
  Pr  Pr1  1  0.34563900  0.34735500  0.17382800  1
  Pr  Pr2  1  0.65436100  0.65264500  0.82617200  1
  Pr  Pr3  1  0.65173300  0.65546300  0.32673000  1
  Fe  Fe0  1  0.28665800  0.70938400  0.49897200  1
  Fe  Fe1  1  0.28593000  0.71556000  0.99983800  1
  Fe  Fe2  1  0.00014200  0.28597300  0.85675000  1
  Fe  Fe3  1  0.00096100  0.28958500  0.35689000  1
  Fe  Fe4  1  0.71772400  0.00010800  0.64094200  1
  Fe  Fe5  1  0.71523000  0.00056200  0.14248100  1
  Fe  Fe6  1  0.99903900  0.71041500  0.64311000  1
  Fe  Fe7  1  0.99985800  0.71402700  0.14325000  1
  Fe  Fe8  1  0.28477000  0.99943800  0.85751900  1
  Fe  Fe9  1  0.28227600  0.99989200  0.35905800  1
  Fe  Fe10  1  0.71407000  0.28444000  0.00016200  1
  Fe  Fe11  1  0.71334200  0.29061600  0.50102800  1
  Fe  Fe12  1  0.66403400  0.66601200  0.57514000  1
  Fe  Fe13  1  0.66096900  0.66175200  0.07737900  1
  Fe  Fe14  1  0.15405100  0.66266100  0.83041600  1
  Fe  Fe15  1  0.15066800  0.66478400  0.33228200  1
  Fe  Fe16  1  0.66034000  0.15422000  0.83020800  1
  Fe  Fe17  1  0.65885200  0.16067000  0.32936100  1
  Fe  Fe18  1  0.33903100  0.33824800  0.92262100  1
  Fe  Fe19  1  0.33596600  0.33398800  0.42486000  1
  Fe  Fe20  1  0.84933200  0.33521600  0.66771800  1
  Fe  Fe21  1  0.84594900  0.33733900  0.16958400  1
  Fe  Fe22  1  0.34114800  0.83933000  0.67063900  1
  Fe  Fe23  1  0.33966000  0.84578000  0.16979200  1
  Fe  Fe24  1  0.00055700  0.00008000  0.74975200  1
  Fe  Fe25  1  0.99944300  0.99992000  0.25024800  1
  Fe  Fe26  1  0.50000000  0.00000000  0.50000000  1
  Fe  Fe27  1  0.50000000  0.00000000  0.00000000  1
  Fe  Fe28  1  0.00000000  0.50000000  0.00000000  1
  Si  Si0  1  0.00000000  0.50000000  0.50000000  1
  Si  Si1  1  0.10754700  0.08059100  0.55361800  1
  Si  Si2  1  0.09996700  0.10002200  0.05001600  1
  Si  Si3  1  0.90003300  0.89997800  0.94998400  1
  Si  Si4  1  0.89245300  0.91940900  0.44638200  1
loop_
_geom_bond_atom_site_label_1
_geom_bond_atom_site_label_2
_geom_bond_distance
_geom_bond_site_symmetry_2
Pr0 Si1 3.142185 1_555
Pr0 Si0 3.367174 1_555
Pr1 Si2 3.125751 1_555
Pr2 Si3 3.125751 1_555
Pr3 Si4 3.142185 1_555
Pr3 Si0 3.367174 1_655
Fe0 Fe9 2.432665 1_555
Fe0 Fe6 2.438845 1_455
Fe0 Si0 2.439487 1_555
Fe0 Fe26 2.485662 1_565
Fe0 Fe15 2.505679 1_555
Fe0 Fe22 2.563306 1_555
Fe0 Si1 2.673228 1_565
Fe0 Fe19 2.703577 1_555
Fe0 Fe12 2.727103 1_555
Fe0 Si4 2.854527 1_455
Fe0 Pr3 3.025394 1_555
Fe0 Pr0 3.069890 1_555
Fe1 Fe8 2.423863 1_555
Fe1 Fe7 2.426130 1_456
Fe1 Fe27 2.453323 1_566
Fe1 Fe28 2.464221 1_556
Fe1 Fe14 2.541073 1_555
Fe1 Fe23 2.542059 1_556
Fe1 Fe13 2.717964 1_556
Fe1 Fe18 2.732604 1_555
Fe1 Si2 2.743738 1_566
Fe1 Si3 2.745880 1_455
Fe1 Pr2 3.058521 1_555
Fe1 Pr1 3.080119 1_556
Fe2 Fe8 2.438852 1_545
Fe2 Fe24 2.461095 1_555
Fe2 Fe28 2.461438 1_556
Fe2 Fe20 2.722527 1_455
Fe2 Si2 2.749360 1_556
Fe2 Si3 2.749780 1_445
Fe2 Pr0 3.050883 1_555
Fe2 Pr2 3.069396 1_455
Fe3 Fe9 2.438819 1_545
Fe3 Si0 2.443389 1_555
Fe3 Si4 2.662305 1_445
Fe3 Si1 2.847572 1_555
Fe3 Pr1 3.032399 1_555
Fe3 Pr3 3.079719 1_455
Fe4 Fe6 2.438819 1_545
Fe4 Si4 2.695991 1_545
Fe4 Si1 2.699981 1_655
Fe4 Pr0 3.073254 1_555
Fe4 Pr2 3.084152 1_545
Fe5 Fe7 2.438852 1_545
Fe5 Si2 2.723079 1_655
Fe5 Si3 2.726526 1_544
Fe5 Pr3 3.065987 1_545
Fe5 Pr1 3.082191 1_555
Fe6 Si0 2.443389 1_655
Fe6 Si1 2.662305 1_665
Fe6 Si4 2.847572 1_555
Fe6 Pr2 3.032399 1_555
Fe6 Pr0 3.079719 1_655
Fe7 Si3 2.749360 1_554
Fe7 Si2 2.749780 1_665
Fe7 Pr3 3.050883 1_555
Fe7 Pr1 3.069396 1_655
Fe8 Si3 2.723079 1_455
Fe8 Si2 2.726526 1_566
Fe8 Pr0 3.065987 1_565
Fe8 Pr2 3.082191 1_555
Fe9 Si1 2.695991 1_565
Fe9 Si4 2.699981 1_455
Fe9 Pr3 3.073254 1_555
Fe9 Pr1 3.084152 1_565
Fe10 Fe5 2.423863 1_555
Fe10 Fe2 2.426130 1_654
Fe10 Fe27 2.453323 1_555
Fe10 Fe28 2.464221 1_655
Fe10 Fe21 2.541073 1_555
Fe10 Fe16 2.542059 1_554
Fe10 Fe18 2.717964 1_554
Fe10 Fe13 2.732604 1_555
Fe10 Si3 2.743738 1_544
Fe10 Si2 2.745880 1_655
Fe10 Pr1 3.058521 1_555
Fe10 Pr2 3.080119 1_554
Fe11 Fe4 2.432665 1_555
Fe11 Fe3 2.438845 1_655
Fe11 Si0 2.439487 1_655
Fe11 Fe26 2.485662 1_555
Fe11 Fe20 2.505679 1_555
Fe11 Fe17 2.563306 1_555
Fe11 Si4 2.673228 1_545
Fe11 Fe12 2.703577 1_555
Fe11 Fe19 2.727103 1_555
Fe11 Si1 2.854527 1_655
Fe11 Pr0 3.025394 1_555
Fe11 Pr3 3.069890 1_555
Fe12 Si0 2.427003 1_655
Fe12 Fe26 2.427962 1_565
Fe12 Fe22 2.484375 1_555
Fe12 Fe6 2.515983 1_555
Fe12 Fe4 2.518429 1_565
Fe12 Fe20 2.553846 1_555
Fe12 Si4 2.622068 1_555
Fe12 Pr0 3.135523 1_555
Fe12 Pr2 3.226766 1_555
Fe12 Pr3 3.233989 1_555
Fe13 Fe28 2.441902 1_655
Fe13 Fe27 2.452312 1_565
Fe13 Fe23 2.489265 1_555
Fe13 Fe21 2.521341 1_555
Fe13 Fe7 2.540800 1_555
Fe13 Fe5 2.543697 1_565
Fe13 Si3 2.593535 1_554
Fe13 Pr1 3.096769 1_555
Fe13 Pr3 3.210588 1_555
Fe13 Pr2 3.262667 1_554
Fe14 Fe28 2.439496 1_556
Fe14 Fe24 2.445982 1_565
Fe14 Fe22 2.463539 1_555
Fe14 Fe18 2.521341 1_555
Fe14 Fe8 2.532353 1_555
Fe14 Si3 2.591340 1_455
Fe14 Fe6 2.715203 1_455
Fe14 Fe2 2.725589 1_555
Fe14 Pr0 3.113917 1_555
Fe14 Pr2 3.221669 1_555
Fe14 Pr2 3.250580 1_455
Fe15 Si0 2.418419 1_555
Fe15 Fe25 2.435784 1_455
Fe15 Fe23 2.505405 1_555
Fe15 Fe9 2.523725 1_555
Fe15 Fe19 2.553846 1_555
Fe15 Si4 2.631936 1_455
Fe15 Fe3 2.705106 1_555
Fe15 Fe7 2.722527 1_455
Fe15 Pr1 3.123456 1_555
Fe15 Pr3 3.225013 1_555
Fe15 Pr3 3.247768 1_455
Fe16 Fe27 2.436085 1_556
Fe16 Fe24 2.444031 1_655
Fe16 Fe18 2.489265 1_555
Fe16 Fe20 2.505405 1_555
Fe16 Fe2 2.545357 1_655
Fe16 Si3 2.616520 1_545
Fe16 Fe8 2.711254 1_545
Fe16 Fe4 2.726110 1_555
Fe16 Pr0 3.090198 1_555
Fe16 Pr2 3.228139 1_555
Fe16 Pr2 3.272953 1_545
Fe17 Fe25 2.455112 1_545
Fe17 Fe26 2.456103 1_555
Fe17 Fe21 2.463539 1_555
Fe17 Fe19 2.484375 1_555
Fe17 Si4 2.532490 1_545
Fe17 Fe3 2.554521 1_655
Fe17 Fe5 2.716471 1_555
Fe17 Fe9 2.734552 1_545
Fe17 Pr1 3.077477 1_555
Fe17 Pr3 3.205844 1_555
Fe17 Pr3 3.294930 1_545
Fe18 Fe28 2.441902 1_556
Fe18 Fe27 2.452312 1_556
Fe18 Fe2 2.540800 1_555
Fe18 Fe8 2.543697 1_545
Fe18 Si2 2.593535 1_556
Fe18 Pr2 3.096769 1_555
Fe18 Pr0 3.210588 1_555
Fe18 Pr1 3.262667 1_556
Fe19 Si0 2.427003 1_555
Fe19 Fe26 2.427962 1_555
Fe19 Fe3 2.515983 1_555
Fe19 Fe9 2.518429 1_545
Fe19 Si1 2.622068 1_555
Fe19 Pr3 3.135523 1_555
Fe19 Pr1 3.226766 1_555
Fe19 Pr0 3.233989 1_555
Fe20 Si0 2.418419 1_655
Fe20 Fe24 2.435784 1_655
Fe20 Fe4 2.523725 1_555
Fe20 Si1 2.631936 1_655
Fe20 Fe6 2.705106 1_555
Fe20 Pr2 3.123456 1_555
Fe20 Pr0 3.225013 1_555
Fe20 Pr0 3.247768 1_655
Fe21 Fe28 2.439496 1_655
Fe21 Fe25 2.445982 1_545
Fe21 Fe5 2.532353 1_555
Fe21 Si2 2.591340 1_655
Fe21 Fe3 2.715203 1_655
Fe21 Fe7 2.725589 1_555
Fe21 Pr3 3.113917 1_555
Fe21 Pr1 3.221669 1_555
Fe21 Pr1 3.250580 1_655
Fe22 Fe24 2.455112 1_565
Fe22 Fe26 2.456103 1_565
Fe22 Si1 2.532490 1_565
Fe22 Fe6 2.554521 1_455
Fe22 Fe8 2.716471 1_555
Fe22 Fe4 2.734552 1_565
Fe22 Pr2 3.077477 1_555
Fe22 Pr0 3.205844 1_555
Fe22 Pr0 3.294930 1_565
Fe23 Fe27 2.436085 1_565
Fe23 Fe25 2.444031 1_455
Fe23 Fe7 2.545357 1_455
Fe23 Si2 2.616520 1_565
Fe23 Fe5 2.711254 1_565
Fe23 Fe9 2.726110 1_555
Fe23 Pr3 3.090198 1_555
Fe23 Pr1 3.228139 1_555
Fe23 Pr1 3.272953 1_565
Fe24 Fe8 2.459322 1_545
Fe24 Fe4 2.461743 1_455
Fe24 Fe6 2.480734 1_445
Fe24 Si1 2.534094 1_555
Fe24 Si3 2.593591 1_445
Fe24 Pr0 3.340653 1_555
Fe24 Pr2 3.347498 1_445
Fe25 Fe5 2.459322 1_565
Fe25 Fe7 2.461095 1_555
Fe25 Fe9 2.461743 1_655
Fe25 Fe3 2.480734 1_665
Fe25 Si4 2.534094 1_555
Fe25 Si2 2.593591 1_665
Fe25 Pr3 3.340653 1_555
Fe25 Pr1 3.347498 1_665
Fe26 Fe4 2.456824 1_555
Fe26 Fe9 2.456824 1_545
Fe26 Si4 2.538691 1_545
Fe26 Si1 2.538691 1_555
Fe26 Pr3 3.337374 1_545
Fe26 Pr0 3.337374 1_555
Fe27 Fe5 2.462880 1_555
Fe27 Fe8 2.462880 1_544
Fe27 Si2 2.593955 1_555
Fe27 Si3 2.593955 1_544
Fe27 Pr1 3.357684 1_555
Fe27 Pr2 3.357684 1_544
Fe28 Fe7 2.461438 1_455
Fe28 Si2 2.610345 1_555
Fe28 Si3 2.610345 1_454
Fe28 Pr1 3.357910 1_555
Fe28 Pr2 3.357910 1_454
Si0 Si4 2.742173 1_455
Si0 Si1 2.742173 1_555
Si1 Si4 2.506929 1_445
Si2 Si3 2.532405 1_444
