# generated using pymatgen
data_Co5(PO6)2
_symmetry_space_group_name_H-M   'P 1'
_cell_length_a   5.43065700
_cell_length_b   8.88954700
_cell_length_c   16.94256600
_cell_angle_alpha   90.00000000
_cell_angle_beta   90.00000000
_cell_angle_gamma   90.00000000
_symmetry_Int_Tables_number   1
_chemical_formula_structural   Co5(PO6)2
_chemical_formula_sum   'Co20 P8 O48'
_cell_volume   817.92068250
_cell_formula_units_Z   4
loop_
 _symmetry_equiv_pos_site_id
 _symmetry_equiv_pos_as_xyz
  1  'x, y, z'
loop_
 _atom_site_type_symbol
 _atom_site_label
 _atom_site_symmetry_multiplicity
 _atom_site_fract_x
 _atom_site_fract_y
 _atom_site_fract_z
 _atom_site_occupancy
  Co  Co0  1  0.05548000  0.62842000  0.62750900  1
  Co  Co1  1  0.55548000  0.87158000  0.37249100  1
  Co  Co2  1  0.94452000  0.12842000  0.87249100  1
  Co  Co3  1  0.44452000  0.37158000  0.12750900  1
  Co  Co4  1  0.53021200  0.63218900  0.52579600  1
  Co  Co5  1  0.03021200  0.86781100  0.47420400  1
  Co  Co6  1  0.46978800  0.13218900  0.97420400  1
  Co  Co7  1  0.96978800  0.36781100  0.02579600  1
  Co  Co8  1  0.56401300  0.63451600  0.72024200  1
  Co  Co9  1  0.06401300  0.86548400  0.27975800  1
  Co  Co10  1  0.43598700  0.13451600  0.77975800  1
  Co  Co11  1  0.93598700  0.36548400  0.22024200  1
  Co  Co12  1  0.71718200  0.22608900  0.42962200  1
  Co  Co13  1  0.21718200  0.27391100  0.57037800  1
  Co  Co14  1  0.28281800  0.72608900  0.07037800  1
  Co  Co15  1  0.78281800  0.77391100  0.92962200  1
  Co  Co16  1  0.41088300  0.49729600  0.31865000  1
  Co  Co17  1  0.91088300  0.00270400  0.68135000  1
  Co  Co18  1  0.58911700  0.99729600  0.18135000  1
  Co  Co19  1  0.08911700  0.50270400  0.81865000  1
  P  P0  1  0.68048900  0.31837800  0.62136000  1
  P  P1  1  0.18048900  0.18162200  0.37864000  1
  P  P2  1  0.31951100  0.81837800  0.87864000  1
  P  P3  1  0.81951100  0.68162200  0.12136000  1
  P  P4  1  0.87854900  0.56694000  0.37429600  1
  P  P5  1  0.37854900  0.93306000  0.62570400  1
  P  P6  1  0.12145100  0.06694000  0.12570400  1
  P  P7  1  0.62145100  0.43306000  0.87429600  1
  O  O0  1  0.42818500  0.25799600  0.35904800  1
  O  O1  1  0.92818500  0.24200400  0.64095200  1
  O  O2  1  0.57181500  0.75799600  0.14095200  1
  O  O3  1  0.07181500  0.74200400  0.85904800  1
  O  O4  1  0.71320500  0.49588700  0.62269300  1
  O  O5  1  0.21320500  0.00411300  0.37730700  1
  O  O6  1  0.28679500  0.99588700  0.87730700  1
  O  O7  1  0.78679500  0.50411300  0.12269300  1
  O  O8  1  0.46999500  0.26972500  0.67689400  1
  O  O9  1  0.96999500  0.23027500  0.32310600  1
  O  O10  1  0.53000500  0.76972500  0.82310600  1
  O  O11  1  0.03000500  0.73027500  0.17689400  1
  O  O12  1  0.58732200  0.27890500  0.53694400  1
  O  O13  1  0.08732200  0.22109500  0.46305600  1
  O  O14  1  0.41267800  0.77890500  0.96305600  1
  O  O15  1  0.91267800  0.72109500  0.03694400  1
  O  O16  1  0.88617400  0.74394800  0.37644500  1
  O  O17  1  0.38617400  0.75605200  0.62355500  1
  O  O18  1  0.11382600  0.24394800  0.12355500  1
  O  O19  1  0.61382600  0.25605200  0.87644500  1
  O  O20  1  0.67684000  0.50775300  0.43164600  1
  O  O21  1  0.17684000  0.99224700  0.56835400  1
  O  O22  1  0.32316000  0.00775300  0.06835400  1
  O  O23  1  0.82316000  0.49224700  0.93164600  1
  O  O24  1  0.13416100  0.50844400  0.39085800  1
  O  O25  1  0.63416100  0.99155600  0.60914200  1
  O  O26  1  0.86583900  0.00844400  0.10914200  1
  O  O27  1  0.36583900  0.49155600  0.89085800  1
  O  O28  1  0.77618100  0.52223300  0.29106400  1
  O  O29  1  0.27618100  0.97776700  0.70893600  1
  O  O30  1  0.22381900  0.02223300  0.20893600  1
  O  O31  1  0.72381900  0.47776700  0.79106400  1
  O  O32  1  0.24241500  0.55719900  0.72025800  1
  O  O33  1  0.74241500  0.94280100  0.27974200  1
  O  O34  1  0.75758500  0.05719900  0.77974200  1
  O  O35  1  0.25758500  0.44280100  0.22025800  1
  O  O36  1  0.37318900  0.75458700  0.30966400  1
  O  O37  1  0.87318900  0.74541300  0.69033600  1
  O  O38  1  0.62681100  0.25458700  0.19033600  1
  O  O39  1  0.12681100  0.24541300  0.80966400  1
  O  O40  1  0.89156500  0.72522200  0.53768700  1
  O  O41  1  0.39156500  0.77477800  0.46231300  1
  O  O42  1  0.10843500  0.22522200  0.96231300  1
  O  O43  1  0.60843500  0.27477800  0.03768700  1
  O  O44  1  0.23079500  0.50467600  0.56506000  1
  O  O45  1  0.73079500  0.99532400  0.43494000  1
  O  O46  1  0.76920500  0.00467600  0.93494000  1
  O  O47  1  0.26920500  0.49532400  0.06506000  1
loop_
_geom_bond_atom_site_label_1
_geom_bond_atom_site_label_2
_geom_bond_distance
_geom_bond_site_symmetry_2
Co0 O37 1.787374 1_455
Co0 O44 1.798881 1_555
Co0 O40 1.961841 1_455
Co0 O32 1.975032 1_555
Co0 O17 2.125321 1_555
Co0 O4 2.202220 1_455
Co1 O36 1.787374 1_555
Co1 O45 1.798881 1_555
Co1 O41 1.961841 1_555
Co1 O33 1.975032 1_555
Co1 O16 2.125321 1_555
Co1 O5 2.202220 1_565
Co2 O39 1.787374 1_655
Co2 O46 1.798881 1_555
Co2 O42 1.961841 1_655
Co2 O34 1.975032 1_555
Co2 O19 2.125321 1_555
Co2 O6 2.202220 1_645
Co3 O38 1.787374 1_555
Co3 O47 1.798881 1_555
Co3 O43 1.961841 1_555
Co3 O35 1.975032 1_555
Co3 O18 2.125321 1_555
Co3 O7 2.202220 1_555
Co4 O41 1.824953 1_555
Co4 O44 2.090791 1_555
Co4 O20 2.098139 1_555
Co4 O17 2.137183 1_555
Co4 O40 2.139043 1_555
Co4 O4 2.269545 1_555
Co5 O40 1.824953 1_455
Co5 O45 2.090791 1_455
Co5 O21 2.098139 1_555
Co5 O16 2.137183 1_455
Co5 O41 2.139043 1_555
Co5 O5 2.269545 1_565
Co6 O43 1.824953 1_556
Co6 O46 2.090791 1_555
Co6 O22 2.098139 1_556
Co6 O19 2.137183 1_555
Co6 O42 2.139043 1_555
Co6 O6 2.269545 1_545
Co7 O42 1.824953 1_654
Co7 O47 2.090791 1_655
Co7 O23 2.098139 1_554
Co7 O18 2.137183 1_655
Co7 O43 2.139043 1_555
Co7 O7 2.269545 1_555
Co8 O32 1.876865 1_555
Co8 O37 2.011894 1_555
Co8 O31 2.033367 1_555
Co8 O10 2.125104 1_555
Co8 O17 2.187111 1_555
Co8 O4 2.215094 1_555
Co9 O33 1.876865 1_455
Co9 O36 2.011894 1_555
Co9 O30 2.033367 1_565
Co9 O11 2.125104 1_555
Co9 O16 2.187111 1_455
Co9 O5 2.215094 1_565
Co10 O34 1.876865 1_555
Co10 O39 2.011894 1_555
Co10 O29 2.033367 1_545
Co10 O8 2.125104 1_555
Co10 O19 2.187111 1_555
Co10 O6 2.215094 1_545
Co11 O35 1.876865 1_655
Co11 O38 2.011894 1_555
Co11 O28 2.033367 1_555
Co11 O9 2.125104 1_555
Co11 O18 2.187111 1_655
Co11 O7 2.215094 1_555
Co12 O0 1.993317 1_555
Co12 O12 2.005999 1_555
Co12 O45 2.054704 1_545
Co12 O13 2.088866 1_655
Co12 O9 2.267847 1_555
Co12 O20 2.513666 1_555
Co13 O1 1.993317 1_455
Co13 O13 2.005999 1_555
Co13 O44 2.054704 1_555
Co13 O12 2.088866 1_555
Co13 O8 2.267847 1_555
Co13 O21 2.513666 1_545
Co14 O2 1.993317 1_555
Co14 O14 2.005999 1_554
Co14 O47 2.054704 1_555
Co14 O15 2.088866 1_455
Co14 O11 2.267847 1_555
Co14 O22 2.513666 1_565
Co15 O3 1.993317 1_655
Co15 O15 2.005999 1_556
Co15 O46 2.054704 1_565
Co15 O14 2.088866 1_555
Co15 O10 2.267847 1_555
Co15 O23 2.513666 1_555
Co16 O35 1.925274 1_555
Co16 O24 1.940324 1_555
Co16 O28 2.050141 1_555
Co16 O0 2.236642 1_555
Co16 O36 2.301384 1_555
Co16 O20 2.399957 1_555
Co17 O34 1.925274 1_555
Co17 O25 1.940324 1_545
Co17 O29 2.050141 1_645
Co17 O1 2.236642 1_555
Co17 O37 2.301384 1_545
Co17 O21 2.399957 1_645
Co18 O33 1.925274 1_555
Co18 O26 1.940324 1_565
Co18 O30 2.050141 1_565
Co18 O2 2.236642 1_555
Co18 O38 2.301384 1_565
Co18 O22 2.399957 1_565
Co19 O32 1.925274 1_555
Co19 O27 1.940324 1_555
Co19 O31 2.050141 1_455
Co19 O3 2.236642 1_555
Co19 O39 2.301384 1_555
Co19 O23 2.399957 1_455
O0 P1 1.542908 1_555
O1 P0 1.542908 1_555
O2 P3 1.542908 1_555
O3 P2 1.542908 1_555
O4 P0 1.588106 1_555
O5 P1 1.588106 1_555
O6 P2 1.588106 1_555
O7 P3 1.588106 1_555
O8 P0 1.542419 1_555
O9 P1 1.542419 1_655
O10 P2 1.542419 1_555
O11 P3 1.542419 1_455
O12 P0 1.557133 1_555
O13 P1 1.557133 1_555
O14 P2 1.557133 1_555
O15 P3 1.557133 1_555
O16 P4 1.574487 1_555
O17 P5 1.574487 1_555
O18 P6 1.574487 1_555
O19 P7 1.574487 1_555
O20 P4 1.555916 1_555
O21 P5 1.555916 1_555
O22 P6 1.555916 1_555
O23 P7 1.555916 1_555
O24 P4 1.508667 1_455
O25 P5 1.508667 1_555
O26 P6 1.508667 1_655
O27 P7 1.508667 1_555
O28 P4 1.567023 1_555
O29 P5 1.567023 1_555
O30 P6 1.567023 1_555
O31 P7 1.567023 1_555
