# generated using pymatgen
data_ZrTiW4
_symmetry_space_group_name_H-M   'P 1'
_cell_length_a   5.36172626
_cell_length_b   5.36172626
_cell_length_c   5.36172626
_cell_angle_alpha   60.00000000
_cell_angle_beta   60.00000000
_cell_angle_gamma   60.00000000
_symmetry_Int_Tables_number   1
_chemical_formula_structural   ZrTiW4
_chemical_formula_sum   'Zr1 Ti1 W4'
_cell_volume   108.99307759
_cell_formula_units_Z   1
loop_
 _symmetry_equiv_pos_site_id
 _symmetry_equiv_pos_as_xyz
  1  'x, y, z'
loop_
 _atom_site_type_symbol
 _atom_site_label
 _atom_site_symmetry_multiplicity
 _atom_site_fract_x
 _atom_site_fract_y
 _atom_site_fract_z
 _atom_site_occupancy
  Zr  Zr0  1  0.00000000  0.00000000  0.00000000  1
  Ti  Ti0  1  0.25000000  0.25000000  0.25000000  1
  W  W0  1  0.62494400  0.62494400  0.12516700  1
  W  W1  1  0.62494400  0.12516700  0.62494400  1
  W  W2  1  0.12516700  0.62494400  0.62494400  1
  W  W3  1  0.62494400  0.62494400  0.62494400  1
loop_
_geom_bond_atom_site_label_1
_geom_bond_atom_site_label_2
_geom_bond_distance
_geom_bond_site_symmetry_2
Ti0 W1 3.143460 1_555
Ti0 W2 3.143460 1_555
Ti0 W0 3.143460 1_555
Ti0 W3 3.143463 1_545
Ti0 W3 3.143463 1_455
Ti0 W3 3.143463 1_554
Ti0 W1 3.143465 1_554
Ti0 W2 3.143465 1_545
Ti0 W1 3.143465 1_455
Ti0 W2 3.143465 1_554
Ti0 W0 3.143465 1_545
Ti0 W0 3.143465 1_455
Ti0 Zr0 3.283373 1_555
Ti0 Zr0 3.283373 1_655
Ti0 Zr0 3.283373 1_556
Ti0 Zr0 3.283373 1_565
W0 W3 2.679667 1_555
W0 W2 2.679667 1_555
W0 W1 2.679667 1_555
W0 W3 2.682059 1_554
W0 W1 2.682059 1_564
W0 W2 2.682059 1_654
W0 Zr0 3.143716 1_655
W0 Zr0 3.143716 1_565
W0 Zr0 3.143721 1_665
W1 W3 2.679667 1_555
W1 W2 2.679667 1_555
W1 W2 2.682059 1_645
W1 W3 2.682059 1_545
W1 Zr0 3.143716 1_655
W1 Zr0 3.143716 1_556
W1 Zr0 3.143721 1_656
W2 W3 2.679667 1_555
W2 W3 2.682059 1_455
W2 Zr0 3.143716 1_565
W2 Zr0 3.143716 1_556
W2 Zr0 3.143721 1_566
W3 Zr0 3.143719 1_566
W3 Zr0 3.143719 1_656
W3 Zr0 3.143719 1_665
