# generated using pymatgen
data_InSiPt5
_symmetry_space_group_name_H-M   'P 1'
_cell_length_a   3.96529659
_cell_length_b   3.96529659
_cell_length_c   7.09736405
_cell_angle_alpha   90.00000000
_cell_angle_beta   90.00000000
_cell_angle_gamma   90.00000000
_symmetry_Int_Tables_number   1
_chemical_formula_structural   InSiPt5
_chemical_formula_sum   'In1 Si1 Pt5'
_cell_volume   111.59595047
_cell_formula_units_Z   1
loop_
 _symmetry_equiv_pos_site_id
 _symmetry_equiv_pos_as_xyz
  1  'x, y, z'
loop_
 _atom_site_type_symbol
 _atom_site_label
 _atom_site_symmetry_multiplicity
 _atom_site_fract_x
 _atom_site_fract_y
 _atom_site_fract_z
 _atom_site_occupancy
  In  In0  1  0.50000000  0.50000000  0.00000000  1
  Si  Si0  1  -0.00000000  -0.00000000  0.50000000  1
  Pt  Pt0  1  -0.00000000  0.50000000  0.29635773  1
  Pt  Pt1  1  -0.00000000  0.50000000  0.70364227  1
  Pt  Pt2  1  0.50000000  -0.00000000  0.29635773  1
  Pt  Pt3  1  0.50000000  -0.00000000  0.70364227  1
  Pt  Pt4  1  -0.00000000  -0.00000000  0.00000000  1
loop_
_geom_bond_atom_site_label_1
_geom_bond_atom_site_label_2
_geom_bond_distance
_geom_bond_site_symmetry_2
In0 Pt4 2.803888 1_655
In0 Pt4 2.803888 1_665
In0 Pt4 2.803888 1_555
In0 Pt4 2.803888 1_565
In0 Pt2 2.890504 1_565
In0 Pt3 2.890504 1_554
In0 Pt0 2.890504 1_555
In0 Pt3 2.890504 1_564
In0 Pt1 2.890504 1_554
In0 Pt0 2.890504 1_655
In0 Pt2 2.890504 1_555
In0 Pt1 2.890504 1_654
Pt0 Si0 2.453539 1_555
Pt0 Si0 2.453539 1_565
Pt1 Si0 2.453539 1_555
Pt1 Si0 2.453539 1_565
Pt2 Si0 2.453539 1_555
Pt2 Si0 2.453539 1_655
Pt3 Si0 2.453539 1_555
Pt3 Si0 2.453539 1_655
