# generated using pymatgen
data_MgScSe3
_symmetry_space_group_name_H-M   'P 1'
_cell_length_a   7.23217795
_cell_length_b   7.23217795
_cell_length_c   7.23217832
_cell_angle_alpha   56.17814524
_cell_angle_beta   56.17814524
_cell_angle_gamma   56.17814611
_symmetry_Int_Tables_number   1
_chemical_formula_structural   MgScSe3
_chemical_formula_sum   'Mg2 Sc2 Se6'
_cell_volume   243.81679483
_cell_formula_units_Z   2
loop_
 _symmetry_equiv_pos_site_id
 _symmetry_equiv_pos_as_xyz
  1  'x, y, z'
loop_
 _atom_site_type_symbol
 _atom_site_label
 _atom_site_symmetry_multiplicity
 _atom_site_fract_x
 _atom_site_fract_y
 _atom_site_fract_z
 _atom_site_occupancy
  Mg  Mg0  1  0.15388900  0.15388900  0.15388900  1
  Mg  Mg1  1  0.84611100  0.84611100  0.84611100  1
  Sc  Sc0  1  0.34275300  0.34275300  0.34275300  1
  Sc  Sc1  1  0.65724700  0.65724700  0.65724700  1
  Se  Se0  1  0.93585400  0.56887800  0.25042500  1
  Se  Se1  1  0.06414600  0.43112200  0.74957500  1
  Se  Se2  1  0.56887800  0.25042500  0.93585400  1
  Se  Se3  1  0.43112200  0.74957500  0.06414600  1
  Se  Se4  1  0.25042500  0.93585400  0.56887800  1
  Se  Se5  1  0.74957500  0.06414600  0.43112200  1
loop_
_geom_bond_atom_site_label_1
_geom_bond_atom_site_label_2
_geom_bond_distance
_geom_bond_site_symmetry_2
Mg0 Se5 2.670008 1_455
Mg0 Se3 2.670008 1_545
Mg0 Se1 2.670008 1_554
Mg0 Se2 2.796462 1_554
Mg0 Se0 2.796462 1_455
Mg0 Se4 2.796463 1_545
Mg1 Se4 2.670008 1_655
Mg1 Se2 2.670008 1_565
Mg1 Se0 2.670008 1_556
Mg1 Se3 2.796462 1_556
Mg1 Se1 2.796462 1_655
Mg1 Se5 2.796463 1_565
Sc0 Se3 2.680509 1_555
Sc0 Se5 2.680509 1_555
Sc0 Se1 2.680509 1_555
Sc0 Se4 2.719301 1_545
Sc0 Se0 2.719301 1_455
Sc0 Se2 2.719301 1_554
Sc1 Se2 2.680509 1_555
Sc1 Se4 2.680509 1_555
Sc1 Se0 2.680509 1_555
Sc1 Se5 2.719301 1_565
Sc1 Se1 2.719301 1_655
Sc1 Se3 2.719301 1_556
