# generated using pymatgen
data_Te2Mo3W(SeS2)2
_symmetry_space_group_name_H-M   'P 1'
_cell_length_a   3.30931897
_cell_length_b   3.30931897
_cell_length_c   39.04363400
_cell_angle_alpha   90.00000000
_cell_angle_beta   90.00000000
_cell_angle_gamma   119.99997941
_symmetry_Int_Tables_number   1
_chemical_formula_structural   Te2Mo3W(SeS2)2
_chemical_formula_sum   'Te2 Mo3 W1 Se2 S4'
_cell_volume   370.30383728
_cell_formula_units_Z   1
loop_
 _symmetry_equiv_pos_site_id
 _symmetry_equiv_pos_as_xyz
  1  'x, y, z'
loop_
 _atom_site_type_symbol
 _atom_site_label
 _atom_site_symmetry_multiplicity
 _atom_site_fract_x
 _atom_site_fract_y
 _atom_site_fract_z
 _atom_site_occupancy
  Te  Te0  1  0.33333300  0.66666700  0.70798100  1
  Te  Te1  1  0.33333300  0.66666700  0.61004100  1
  Mo  Mo0  1  0.33333300  0.66666700  0.09385700  1
  Mo  Mo1  1  0.66666700  0.33333300  0.28173000  1
  Mo  Mo2  1  0.66666700  0.33333300  0.65904200  1
  W  W0  1  0.33333300  0.66666700  0.46834500  1
  Se  Se0  1  0.66666700  0.33333300  0.42507200  1
  Se  Se1  1  0.66666700  0.33333300  0.51160600  1
  S  S0  1  0.33333300  0.66666700  0.32081800  1
  S  S1  1  0.66666700  0.33333300  0.05471900  1
  S  S2  1  0.66666700  0.33333300  0.13299200  1
  S  S3  1  0.33333300  0.66666700  0.24254500  1
loop_
_geom_bond_atom_site_label_1
_geom_bond_atom_site_label_2
_geom_bond_distance
_geom_bond_site_symmetry_2
Mo0 S2 2.446472 1_565
Mo0 S2 2.446472 1_455
Mo0 S2 2.446476 1_555
Mo0 S1 2.446545 1_455
Mo0 S1 2.446545 1_565
Mo0 S1 2.446549 1_555
Mo1 S0 2.445326 1_545
Mo1 S0 2.445326 1_655
Mo1 S0 2.445330 1_555
Mo1 S3 2.447692 1_545
Mo1 S3 2.447692 1_655
Mo1 S3 2.447696 1_555
Mo2 Te0 2.702132 1_545
Mo2 Te0 2.702132 1_655
Mo2 Te0 2.702135 1_555
Mo2 Te1 2.703844 1_545
Mo2 Te1 2.703844 1_655
Mo2 Te1 2.703847 1_555
Se0 W0 2.550501 1_655
Se0 W0 2.550501 1_545
Se0 W0 2.550505 1_555
Se1 W0 2.550190 1_655
Se1 W0 2.550190 1_545
Se1 W0 2.550194 1_555
