# generated using pymatgen
data_U2(Ga3Rh)3
_symmetry_space_group_name_H-M   'P 1'
_cell_length_a   7.61929330
_cell_length_b   7.61929330
_cell_length_c   9.48513300
_cell_angle_alpha   90.00000000
_cell_angle_beta   90.00000000
_cell_angle_gamma   119.68849290
_symmetry_Int_Tables_number   1
_chemical_formula_structural   U2(Ga3Rh)3
_chemical_formula_sum   'U4 Ga18 Rh6'
_cell_volume   478.36360438
_cell_formula_units_Z   2
loop_
 _symmetry_equiv_pos_site_id
 _symmetry_equiv_pos_as_xyz
  1  'x, y, z'
loop_
 _atom_site_type_symbol
 _atom_site_label
 _atom_site_symmetry_multiplicity
 _atom_site_fract_x
 _atom_site_fract_y
 _atom_site_fract_z
 _atom_site_occupancy
  U  U0  1  0.99782100  0.66956100  0.25000000  1
  U  U1  1  0.00217900  0.33043900  0.75000000  1
  U  U2  1  0.66956100  0.99782100  0.25000000  1
  U  U3  1  0.33043900  0.00217900  0.75000000  1
  Ga  Ga0  1  0.12704400  0.12704400  0.25000000  1
  Ga  Ga1  1  0.87295600  0.87295600  0.75000000  1
  Ga  Ga2  1  0.00073200  0.33488800  0.07783500  1
  Ga  Ga3  1  0.99926800  0.66511200  0.92216500  1
  Ga  Ga4  1  0.99926800  0.66511200  0.57783500  1
  Ga  Ga5  1  0.33488800  0.00073200  0.42216500  1
  Ga  Ga6  1  0.00073200  0.33488800  0.42216500  1
  Ga  Ga7  1  0.66511200  0.99926800  0.57783500  1
  Ga  Ga8  1  0.66511200  0.99926800  0.92216500  1
  Ga  Ga9  1  0.33488800  0.00073200  0.07783500  1
  Ga  Ga10  1  0.33346700  0.33346700  0.56545500  1
  Ga  Ga11  1  0.66653300  0.66653300  0.43454500  1
  Ga  Ga12  1  0.66653300  0.66653300  0.06545500  1
  Ga  Ga13  1  0.33346700  0.33346700  0.93454500  1
  Ga  Ga14  1  0.33834600  0.54532600  0.25000000  1
  Ga  Ga15  1  0.66165400  0.45467400  0.75000000  1
  Ga  Ga16  1  0.54532600  0.33834600  0.25000000  1
  Ga  Ga17  1  0.45467400  0.66165400  0.75000000  1
  Rh  Rh0  1  0.67052300  0.32947700  0.00000000  1
  Rh  Rh1  1  0.32947700  0.67052300  0.00000000  1
  Rh  Rh2  1  0.32947700  0.67052300  0.50000000  1
  Rh  Rh3  1  0.67052300  0.32947700  0.50000000  1
  Rh  Rh4  1  0.00000000  0.00000000  0.00000000  1
  Rh  Rh5  1  0.00000000  0.00000000  0.50000000  1
loop_
_geom_bond_atom_site_label_1
_geom_bond_atom_site_label_2
_geom_bond_distance
_geom_bond_site_symmetry_2
Ga0 Rh5 2.562970 1_555
Ga0 Rh4 2.562970 1_555
Ga0 Ga5 2.758719 1_555
Ga0 Ga6 2.758719 1_555
Ga0 Ga2 2.758719 1_555
Ga0 Ga9 2.758719 1_555
Ga0 Ga14 2.768836 1_555
Ga0 Ga16 2.768836 1_555
Ga0 U2 3.117674 1_445
Ga0 U0 3.117674 1_445
Ga1 Rh4 2.562970 1_666
Ga1 Rh5 2.562970 1_665
Ga1 Ga4 2.758719 1_555
Ga1 Ga3 2.758719 1_555
Ga1 Ga7 2.758719 1_555
Ga1 Ga8 2.758719 1_555
Ga1 Ga17 2.768836 1_555
Ga1 Ga15 2.768836 1_555
Ga1 U3 3.117674 1_665
Ga1 U1 3.117674 1_665
Ga2 Rh0 2.602701 1_455
Ga2 Rh1 2.648351 1_555
Ga2 Rh4 2.653620 1_555
Ga2 Ga3 2.922115 1_454
Ga2 Ga8 2.963289 1_444
Ga2 U2 3.034830 1_445
Ga2 U0 3.037365 1_455
Ga2 U1 3.109822 1_554
Ga3 Rh1 2.602701 1_656
Ga3 Rh0 2.648351 1_556
Ga3 Rh4 2.653620 1_666
Ga3 Ga9 2.963289 1_666
Ga3 U3 3.034830 1_665
Ga3 U1 3.037365 1_655
Ga3 U0 3.109822 1_556
Ga4 Rh2 2.602701 1_655
Ga4 Rh3 2.648351 1_555
Ga4 Rh5 2.653620 1_665
Ga4 Ga6 2.922115 1_655
Ga4 Ga5 2.963289 1_665
Ga4 U3 3.034830 1_665
Ga4 U1 3.037365 1_655
Ga4 U0 3.109822 1_555
Ga5 Rh2 2.602701 1_545
Ga5 Rh3 2.648351 1_555
Ga5 Rh5 2.653620 1_555
Ga5 Ga7 2.922115 1_545
Ga5 U0 3.034830 1_445
Ga5 U2 3.037365 1_545
Ga5 U3 3.109822 1_555
Ga6 Rh3 2.602701 1_455
Ga6 Rh2 2.648351 1_555
Ga6 Rh5 2.653620 1_555
Ga6 Ga7 2.963289 1_445
Ga6 U2 3.034830 1_445
Ga6 U0 3.037365 1_455
Ga6 U1 3.109822 1_555
Ga7 Rh3 2.602701 1_565
Ga7 Rh2 2.648351 1_555
Ga7 Rh5 2.653620 1_665
Ga7 U1 3.034830 1_665
Ga7 U3 3.037365 1_565
Ga7 U2 3.109822 1_555
Ga8 Rh0 2.602701 1_566
Ga8 Rh1 2.648351 1_556
Ga8 Rh4 2.653620 1_666
Ga8 Ga9 2.922115 1_566
Ga8 U1 3.034830 1_665
Ga8 U3 3.037365 1_565
Ga8 U2 3.109822 1_556
Ga9 Rh1 2.602701 1_545
Ga9 Rh0 2.648351 1_555
Ga9 Rh4 2.653620 1_555
Ga9 U0 3.034830 1_445
Ga9 U2 3.037365 1_545
Ga9 U3 3.109822 1_554
Ga10 Rh5 2.627150 1_555
Ga10 Rh2 2.656878 1_555
Ga10 Rh3 2.656878 1_555
Ga10 Ga15 2.807516 1_555
Ga10 Ga17 2.807516 1_555
Ga10 Ga11 2.835951 1_555
Ga10 Ga6 2.881283 1_555
Ga10 Ga5 2.881283 1_555
Ga10 U1 3.062409 1_555
Ga10 U3 3.062409 1_555
Ga11 Rh5 2.627150 1_665
Ga11 Rh2 2.656878 1_555
Ga11 Rh3 2.656878 1_555
Ga11 Ga14 2.807516 1_555
Ga11 Ga16 2.807516 1_555
Ga11 Ga7 2.881283 1_555
Ga11 Ga4 2.881283 1_555
Ga11 U0 3.062409 1_555
Ga11 U2 3.062409 1_555
Ga12 Rh4 2.627150 1_665
Ga12 Rh0 2.656878 1_555
Ga12 Rh1 2.656878 1_555
Ga12 Ga14 2.807516 1_555
Ga12 Ga16 2.807516 1_555
Ga12 Ga13 2.835951 1_554
Ga12 Ga8 2.881283 1_554
Ga12 Ga3 2.881283 1_554
Ga12 U0 3.062409 1_555
Ga12 U2 3.062409 1_555
Ga13 Rh4 2.627150 1_556
Ga13 Rh0 2.656878 1_556
Ga13 Rh1 2.656878 1_556
Ga13 Ga15 2.807516 1_555
Ga13 Ga17 2.807516 1_555
Ga13 Ga9 2.881283 1_556
Ga13 Ga2 2.881283 1_556
Ga13 U3 3.062409 1_555
Ga13 U1 3.062409 1_555
Ga14 Rh1 2.569310 1_555
Ga14 Rh2 2.569310 1_555
Ga14 Ga16 2.727219 1_555
Ga14 Ga6 2.787308 1_555
Ga14 Ga2 2.787308 1_555
Ga14 U2 3.104294 1_555
Ga14 U0 3.171839 1_455
Ga15 Rh0 2.569310 1_556
Ga15 Rh3 2.569310 1_555
Ga15 Ga17 2.727219 1_555
Ga15 Ga3 2.787308 1_555
Ga15 Ga4 2.787308 1_555
Ga15 U3 3.104294 1_555
Ga15 U1 3.171839 1_655
Ga16 Rh3 2.569310 1_555
Ga16 Rh0 2.569310 1_555
Ga16 Ga5 2.787308 1_555
Ga16 Ga9 2.787308 1_555
Ga16 U0 3.104294 1_555
Ga16 U2 3.171839 1_545
Ga17 Rh1 2.569310 1_556
Ga17 Rh2 2.569310 1_555
Ga17 Ga7 2.787308 1_555
Ga17 Ga8 2.787308 1_555
Ga17 U1 3.104294 1_555
Ga17 U3 3.171839 1_565
