# generated using pymatgen
data_Ca2Mg5Si8(HO12)2
_symmetry_space_group_name_H-M   'P 1'
_cell_length_a   10.27285573
_cell_length_b   10.27285573
_cell_length_c   5.27978827
_cell_angle_alpha   82.99877532
_cell_angle_beta   82.99877532
_cell_angle_gamma   122.68455319
_symmetry_Int_Tables_number   1
_chemical_formula_structural   Ca2Mg5Si8(HO12)2
_chemical_formula_sum   'Ca2 Mg5 Si8 H2 O24'
_cell_volume   453.55781834
_cell_formula_units_Z   1
loop_
 _symmetry_equiv_pos_site_id
 _symmetry_equiv_pos_as_xyz
  1  'x, y, z'
loop_
 _atom_site_type_symbol
 _atom_site_label
 _atom_site_symmetry_multiplicity
 _atom_site_fract_x
 _atom_site_fract_y
 _atom_site_fract_z
 _atom_site_occupancy
  Ca  Ca0  1  0.72184502  0.27815498  0.50000000  1
  Ca  Ca1  1  0.27815498  0.72184502  0.50000000  1
  Mg  Mg0  1  0.91201586  0.08798414  0.50000000  1
  Mg  Mg1  1  0.08798414  0.91201586  0.50000000  1
  Mg  Mg2  1  0.82339417  0.17660583  0.00000000  1
  Mg  Mg3  1  0.17660583  0.82339417  0.00000000  1
  Mg  Mg4  1  -0.00000000  0.00000000  0.00000000  1
  Si  Si0  1  0.19534015  0.36385939  0.70389593  1
  Si  Si1  1  0.36385939  0.19534015  0.70389593  1
  Si  Si2  1  0.80465985  0.63614061  0.29610407  1
  Si  Si3  1  0.63614061  0.80465985  0.29610407  1
  Si  Si4  1  0.11630083  0.45941070  0.19613079  1
  Si  Si5  1  0.45941070  0.11630083  0.19613079  1
  Si  Si6  1  0.88369917  0.54058930  0.80386921  1
  Si  Si7  1  0.54058930  0.88369917  0.80386921  1
  H  H0  1  0.21142419  0.21142419  0.23355160  1
  H  H1  1  0.78857581  0.78857581  0.76644840  1
  O  O0  1  0.02508462  0.19735360  0.78267023  1
  O  O1  1  0.19735360  0.02508462  0.78267023  1
  O  O2  1  0.97491538  0.80264640  0.21732977  1
  O  O3  1  0.80264640  0.97491538  0.21732977  1
  O  O4  1  0.94672674  0.28979285  0.27605928  1
  O  O5  1  0.28979285  0.94672674  0.27605928  1
  O  O6  1  0.05327326  0.71020715  0.72394072  1
  O  O7  1  0.71020715  0.05327326  0.72394072  1
  O  O8  1  0.11040506  0.11040506  0.28449774  1
  O  O9  1  0.88959494  0.88959494  0.71550226  1
  O  O10  1  0.11675782  0.61372856  0.20804117  1
  O  O11  1  0.61372856  0.11675782  0.20804117  1
  O  O12  1  0.88324218  0.38627144  0.79195883  1
  O  O13  1  0.38627144  0.88324218  0.79195883  1
  O  O14  1  0.21114484  0.48065509  0.90041817  1
  O  O15  1  0.48065509  0.21114484  0.90041817  1
  O  O16  1  0.78885516  0.51934491  0.09958183  1
  O  O17  1  0.51934491  0.78885516  0.09958183  1
  O  O18  1  0.22459374  0.46174016  0.41080638  1
  O  O19  1  0.46174016  0.22459374  0.41080638  1
  O  O20  1  0.77540626  0.53825984  0.58919362  1
  O  O21  1  0.53825984  0.77540626  0.58919362  1
  O  O22  1  0.33647714  0.33647714  0.70995430  1
  O  O23  1  0.66352286  0.66352286  0.29004570  1
loop_
_geom_bond_atom_site_label_1
_geom_bond_atom_site_label_2
_geom_bond_distance
_geom_bond_site_symmetry_2
Ca0 O12 2.326005 1_555
Ca0 O11 2.326005 1_555
Ca0 O7 2.398031 1_555
Ca0 O4 2.398031 1_555
Ca0 O19 2.538948 1_555
Ca0 O20 2.538948 1_555
Ca0 O15 2.758363 1_555
Ca0 O16 2.758363 1_555
Ca1 O13 2.326005 1_555
Ca1 O10 2.326005 1_555
Ca1 O5 2.398031 1_555
Ca1 O6 2.398031 1_555
Ca1 O21 2.538948 1_555
Ca1 O18 2.538948 1_555
Ca1 O17 2.758363 1_555
Ca1 O14 2.758363 1_555
Mg0 O0 2.064168 1_655
Mg0 O3 2.064168 1_545
Mg0 O7 2.079505 1_555
Mg0 O4 2.079505 1_555
Mg0 O9 2.089266 1_545
Mg0 O8 2.089266 1_655
Mg1 O1 2.064168 1_565
Mg1 O2 2.064168 1_455
Mg1 O5 2.079505 1_555
Mg1 O6 2.079505 1_555
Mg1 O8 2.089266 1_565
Mg1 O9 2.089266 1_455
Mg2 O11 2.012976 1_555
Mg2 O12 2.012976 1_554
Mg2 O4 2.086598 1_555
Mg2 O7 2.086598 1_554
Mg2 O0 2.130459 1_654
Mg2 O3 2.130459 1_545
Mg3 O13 2.012976 1_554
Mg3 O10 2.012976 1_555
Mg3 O5 2.086598 1_555
Mg3 O6 2.086598 1_554
Mg3 O1 2.130459 1_564
Mg3 O2 2.130459 1_455
Mg4 O9 2.066472 1_444
Mg4 O8 2.066472 1_555
Mg4 O1 2.071208 1_554
Mg4 O0 2.071208 1_554
Mg4 O2 2.071208 1_445
Mg4 O3 2.071208 1_445
H0 O8 0.962812 1_555
H1 O9 0.962812 1_555
O0 Si0 1.604978 1_555
O1 Si1 1.604978 1_555
O2 Si2 1.604978 1_555
O3 Si3 1.604978 1_555
O4 Si4 1.616195 1_655
O5 Si5 1.616195 1_565
O6 Si6 1.616195 1_455
O7 Si7 1.616195 1_545
O10 Si4 1.591679 1_555
O11 Si5 1.591679 1_555
O12 Si6 1.591679 1_555
O13 Si7 1.591679 1_555
O14 Si0 1.636067 1_555
O14 Si4 1.658621 1_556
O15 Si1 1.636067 1_555
O15 Si5 1.658621 1_556
O16 Si2 1.636067 1_555
O16 Si6 1.658621 1_554
O17 Si3 1.636067 1_555
O17 Si7 1.658621 1_554
O18 Si0 1.636133 1_555
O18 Si4 1.675744 1_555
O19 Si1 1.636133 1_555
O19 Si5 1.675744 1_555
O20 Si2 1.636133 1_555
O20 Si6 1.675744 1_555
O21 Si3 1.636133 1_555
O21 Si7 1.675744 1_555
O22 Si0 1.622311 1_555
O22 Si1 1.622311 1_555
O23 Si2 1.622311 1_555
O23 Si3 1.622311 1_555
