# generated using pymatgen
data_NiH3C5NO6
_symmetry_space_group_name_H-M   'P 1'
_cell_length_a   7.83548150
_cell_length_b   7.83548150
_cell_length_c   8.61288341
_cell_angle_alpha   63.01478975
_cell_angle_beta   63.01478975
_cell_angle_gamma   60.00696185
_symmetry_Int_Tables_number   1
_chemical_formula_structural   NiH3C5NO6
_chemical_formula_sum   'Ni2 H6 C10 N2 O12'
_cell_volume   390.07181704
_cell_formula_units_Z   2
loop_
 _symmetry_equiv_pos_site_id
 _symmetry_equiv_pos_as_xyz
  1  'x, y, z'
loop_
 _atom_site_type_symbol
 _atom_site_label
 _atom_site_symmetry_multiplicity
 _atom_site_fract_x
 _atom_site_fract_y
 _atom_site_fract_z
 _atom_site_occupancy
  Ni  Ni0  1  0.00067700  0.50054500  0.99995400  1
  Ni  Ni1  1  0.50054500  0.00067700  0.49995400  1
  H  H0  1  0.35062600  0.25028900  0.75003600  1
  H  H1  1  0.75129400  0.65268200  0.74828400  1
  H  H2  1  0.14997400  0.85011800  0.75158300  1
  H  H3  1  0.25028900  0.35062600  0.25003600  1
  H  H4  1  0.85011800  0.14997400  0.25158300  1
  H  H5  1  0.65268200  0.75129400  0.24828400  1
  C  C0  1  0.20999000  0.25011100  0.75009100  1
  C  C1  1  0.75040100  0.79335600  0.74950200  1
  C  C2  1  0.29079600  0.70936300  0.75023800  1
  C  C3  1  0.25011100  0.20999000  0.25009100  1
  C  C4  1  0.70936300  0.29079600  0.25023800  1
  C  C5  1  0.79335600  0.75040100  0.24950200  1
  C  C6  1  0.69585500  0.21513800  0.91965300  1
  C  C7  1  0.21513800  0.69585500  0.41965300  1
  C  C8  1  0.33223100  0.80356600  0.08036100  1
  C  C9  1  0.80356600  0.33223100  0.58036100  1
  N  N0  1  0.74988600  0.27381400  0.75022100  1
  N  N1  1  0.27381400  0.74988600  0.25022100  1
  O  O0  1  0.03524300  0.34498700  0.84562900  1
  O  O1  1  0.84550000  0.77713200  0.84497100  1
  O  O2  1  0.27593700  0.53474500  0.84505600  1
  O  O3  1  0.34498700  0.03524300  0.34562900  1
  O  O4  1  0.53474500  0.27593700  0.34505600  1
  O  O5  1  0.77713200  0.84550000  0.34497100  1
  O  O6  1  0.96783800  0.65447600  0.15520100  1
  O  O7  1  0.15513200  0.22444500  0.15546700  1
  O  O8  1  0.72535200  0.46519900  0.15349200  1
  O  O9  1  0.65447600  0.96783800  0.65520100  1
  O  O10  1  0.46519900  0.72535200  0.65349200  1
  O  O11  1  0.22444500  0.15513200  0.65546700  1
loop_
_geom_bond_atom_site_label_1
_geom_bond_atom_site_label_2
_geom_bond_distance
_geom_bond_site_symmetry_2
Ni0 O0 2.034515 1_555
Ni0 O2 2.036056 1_555
Ni0 O6 2.037135 1_456
Ni0 O8 2.038477 1_456
Ni0 O7 2.040260 1_556
Ni0 O1 2.042059 1_455
Ni1 O3 2.034515 1_555
Ni1 O4 2.036056 1_555
Ni1 O9 2.037135 1_545
Ni1 O10 2.038477 1_545
Ni1 O11 2.040260 1_555
Ni1 O5 2.042059 1_545
C0 H0 1.102434 1_555
C0 O11 1.270140 1_555
C0 O0 1.272599 1_555
C1 H1 1.103552 1_555
C1 O9 1.269899 1_555
C1 O1 1.270432 1_555
C2 H2 1.103320 1_555
C2 O2 1.269427 1_555
C2 O10 1.272981 1_555
C3 H3 1.102434 1_555
C3 O7 1.270140 1_555
C3 O3 1.272599 1_555
C4 H4 1.103320 1_555
C4 O4 1.269427 1_555
C4 O8 1.272981 1_555
C5 H5 1.103552 1_555
C5 O6 1.269899 1_555
C5 O5 1.270432 1_555
C6 N0 1.243066 1_555
C7 N1 1.243066 1_555
C8 N1 1.246225 1_555
C9 N0 1.246225 1_555
