# generated using pymatgen
data_Ti6Ga16Rh7
_symmetry_space_group_name_H-M   'P 1'
_cell_length_a   8.63692608
_cell_length_b   8.63692608
_cell_length_c   8.63692608
_cell_angle_alpha   60.00000000
_cell_angle_beta   60.00000000
_cell_angle_gamma   60.00000000
_symmetry_Int_Tables_number   1
_chemical_formula_structural   Ti6Ga16Rh7
_chemical_formula_sum   'Ti6 Ga16 Rh7'
_cell_volume   455.57785995
_cell_formula_units_Z   1
loop_
 _symmetry_equiv_pos_site_id
 _symmetry_equiv_pos_as_xyz
  1  'x, y, z'
loop_
 _atom_site_type_symbol
 _atom_site_label
 _atom_site_symmetry_multiplicity
 _atom_site_fract_x
 _atom_site_fract_y
 _atom_site_fract_z
 _atom_site_occupancy
  Ti  Ti0  1  0.68885300  0.31114700  0.31114700  1
  Ti  Ti1  1  0.68885300  0.31114700  0.68885300  1
  Ti  Ti2  1  0.68885300  0.68885300  0.31114700  1
  Ti  Ti3  1  0.31114700  0.68885300  0.68885300  1
  Ti  Ti4  1  0.31114700  0.68885300  0.31114700  1
  Ti  Ti5  1  0.31114700  0.31114700  0.68885300  1
  Ga  Ga0  1  0.63251500  0.12249500  0.12249500  1
  Ga  Ga1  1  0.12249500  0.63251500  0.12249500  1
  Ga  Ga2  1  0.12249500  0.12249500  0.63251500  1
  Ga  Ga3  1  0.12249500  0.12249500  0.12249500  1
  Ga  Ga4  1  0.36748500  0.87750500  0.87750500  1
  Ga  Ga5  1  0.87750500  0.36748500  0.87750500  1
  Ga  Ga6  1  0.87750500  0.87750500  0.36748500  1
  Ga  Ga7  1  0.87750500  0.87750500  0.87750500  1
  Ga  Ga8  1  0.95219600  0.34926800  0.34926800  1
  Ga  Ga9  1  0.34926800  0.95219600  0.34926800  1
  Ga  Ga10  1  0.34926800  0.34926800  0.95219600  1
  Ga  Ga11  1  0.34926800  0.34926800  0.34926800  1
  Ga  Ga12  1  0.04780400  0.65073200  0.65073200  1
  Ga  Ga13  1  0.65073200  0.04780400  0.65073200  1
  Ga  Ga14  1  0.65073200  0.65073200  0.04780400  1
  Ga  Ga15  1  0.65073200  0.65073200  0.65073200  1
  Rh  Rh0  1  0.00000000  0.00000000  0.00000000  1
  Rh  Rh1  1  0.50000000  0.00000000  0.00000000  1
  Rh  Rh2  1  0.50000000  0.00000000  0.50000000  1
  Rh  Rh3  1  0.50000000  0.50000000  0.00000000  1
  Rh  Rh4  1  0.00000000  0.50000000  0.50000000  1
  Rh  Rh5  1  0.00000000  0.50000000  0.00000000  1
  Rh  Rh6  1  0.00000000  0.00000000  0.50000000  1
loop_
_geom_bond_atom_site_label_1
_geom_bond_atom_site_label_2
_geom_bond_distance
_geom_bond_site_symmetry_2
Ga0 Rh0 2.591512 1_655
Ga0 Rh1 2.662642 1_555
Ga0 Rh2 2.662642 1_555
Ga0 Rh3 2.662642 1_555
Ga1 Rh0 2.591512 1_565
Ga1 Rh5 2.662642 1_555
Ga1 Rh3 2.662642 1_555
Ga1 Rh4 2.662642 1_555
Ga2 Rh0 2.591512 1_556
Ga2 Rh6 2.662642 1_555
Ga2 Rh2 2.662642 1_555
Ga2 Rh4 2.662642 1_555
Ga3 Rh0 2.591512 1_555
Ga3 Rh5 2.662642 1_555
Ga3 Rh1 2.662642 1_555
Ga3 Rh6 2.662642 1_555
Ga4 Rh0 2.591512 1_566
Ga4 Rh3 2.662642 1_556
Ga4 Rh2 2.662642 1_565
Ga4 Rh1 2.662642 1_566
Ga5 Rh0 2.591512 1_656
Ga5 Rh3 2.662642 1_556
Ga5 Rh4 2.662642 1_655
Ga5 Rh5 2.662642 1_656
Ga6 Rh0 2.591512 1_665
Ga6 Rh2 2.662642 1_565
Ga6 Rh4 2.662642 1_655
Ga6 Rh6 2.662642 1_665
Ga7 Rh0 2.591512 1_666
Ga7 Rh5 2.662642 1_656
Ga7 Rh6 2.662642 1_665
Ga7 Rh1 2.662642 1_566
Ga8 Rh6 2.515953 1_655
Ga8 Rh5 2.515953 1_655
Ga8 Rh4 2.515953 1_655
Ga8 Ti0 2.645029 1_555
Ga8 Ti1 2.645029 1_555
Ga8 Ti2 2.645029 1_555
Ga9 Rh6 2.515953 1_565
Ga9 Rh1 2.515953 1_565
Ga9 Rh2 2.515953 1_565
Ga9 Ti4 2.645029 1_555
Ga9 Ti3 2.645029 1_555
Ga9 Ti2 2.645029 1_555
Ga10 Rh1 2.515953 1_556
Ga10 Rh5 2.515953 1_556
Ga10 Rh3 2.515953 1_556
Ga10 Ti5 2.645029 1_555
Ga10 Ti3 2.645029 1_555
Ga10 Ti1 2.645029 1_555
Ga11 Rh2 2.515953 1_555
Ga11 Rh4 2.515953 1_555
Ga11 Rh3 2.515953 1_555
Ga11 Ti0 2.645029 1_555
Ga11 Ti4 2.645029 1_555
Ga11 Ti5 2.645029 1_555
Ga12 Rh6 2.515953 1_565
Ga12 Rh4 2.515953 1_555
Ga12 Rh5 2.515953 1_556
Ga12 Ti3 2.645029 1_555
Ga12 Ti5 2.645029 1_555
Ga12 Ti4 2.645029 1_555
Ga13 Rh1 2.515953 1_556
Ga13 Rh2 2.515953 1_555
Ga13 Rh6 2.515953 1_655
Ga13 Ti1 2.645029 1_555
Ga13 Ti5 2.645029 1_555
Ga13 Ti0 2.645029 1_555
Ga14 Rh3 2.515953 1_555
Ga14 Rh1 2.515953 1_565
Ga14 Rh5 2.515953 1_655
Ga14 Ti2 2.645029 1_555
Ga14 Ti0 2.645029 1_555
Ga14 Ti4 2.645029 1_555
Ga15 Rh3 2.515953 1_556
Ga15 Rh2 2.515953 1_565
Ga15 Rh4 2.515953 1_655
Ga15 Ti1 2.645029 1_555
Ga15 Ti3 2.645029 1_555
Ga15 Ti2 2.645029 1_555
