# generated using pymatgen
data_NbPt2
_symmetry_space_group_name_H-M   'P 1'
_cell_length_a   2.85802230
_cell_length_b   2.85802230
_cell_length_c   6.96202900
_cell_angle_alpha   90.00000000
_cell_angle_beta   90.00000000
_cell_angle_gamma   120.00000688
_symmetry_Int_Tables_number   1
_chemical_formula_structural   NbPt2
_chemical_formula_sum   'Nb1 Pt2'
_cell_volume   49.24902703
_cell_formula_units_Z   1
loop_
 _symmetry_equiv_pos_site_id
 _symmetry_equiv_pos_as_xyz
  1  'x, y, z'
loop_
 _atom_site_type_symbol
 _atom_site_label
 _atom_site_symmetry_multiplicity
 _atom_site_fract_x
 _atom_site_fract_y
 _atom_site_fract_z
 _atom_site_occupancy
  Nb  Nb0  1  0.00000000  0.00000000  0.00000000  1
  Pt  Pt0  1  0.33333300  0.66666700  0.67340000  1
  Pt  Pt1  1  0.66666700  0.33333300  0.32660000  1
loop_
_geom_bond_atom_site_label_1
_geom_bond_atom_site_label_2
_geom_bond_distance
_geom_bond_site_symmetry_2
Nb0 Pt1 2.809434 1_455
Nb0 Pt0 2.809434 1_544
Nb0 Pt0 2.809435 1_444
Nb0 Pt1 2.809435 1_555
Nb0 Pt0 2.809435 1_554
Nb0 Pt1 2.809435 1_445
