# generated using pymatgen
data_TiNiAs
_symmetry_space_group_name_H-M   'P 1'
_cell_length_a   3.75051600
_cell_length_b   6.25430200
_cell_length_c   7.13502900
_cell_angle_alpha   90.00000000
_cell_angle_beta   90.00000000
_cell_angle_gamma   90.00000000
_symmetry_Int_Tables_number   1
_chemical_formula_structural   TiNiAs
_chemical_formula_sum   'Ti4 Ni4 As4'
_cell_volume   167.36537435
_cell_formula_units_Z   4
loop_
 _symmetry_equiv_pos_site_id
 _symmetry_equiv_pos_as_xyz
  1  'x, y, z'
loop_
 _atom_site_type_symbol
 _atom_site_label
 _atom_site_symmetry_multiplicity
 _atom_site_fract_x
 _atom_site_fract_y
 _atom_site_fract_z
 _atom_site_occupancy
  Ti  Ti0  1  0.75000000  0.47367800  0.17910000  1
  Ti  Ti1  1  0.75000000  0.97367800  0.32090000  1
  Ti  Ti2  1  0.25000000  0.52632200  0.82090000  1
  Ti  Ti3  1  0.25000000  0.02632200  0.67910000  1
  Ni  Ni0  1  0.75000000  0.35367500  0.56196200  1
  Ni  Ni1  1  0.75000000  0.85367500  0.93803800  1
  Ni  Ni2  1  0.25000000  0.64632500  0.43803800  1
  Ni  Ni3  1  0.25000000  0.14632500  0.06196200  1
  As  As0  1  0.75000000  0.23539400  0.87807500  1
  As  As1  1  0.75000000  0.73539400  0.62192500  1
  As  As2  1  0.25000000  0.76460600  0.12192500  1
  As  As3  1  0.25000000  0.26460600  0.37807500  1
loop_
_geom_bond_atom_site_label_1
_geom_bond_atom_site_label_2
_geom_bond_distance
_geom_bond_site_symmetry_2
Ni0 Ti0 2.832960 1_555
Ni0 Ti2 2.845329 1_655
Ni0 Ti2 2.845329 1_555
Ni0 Ti3 2.899453 1_555
Ni0 Ti3 2.899453 1_655
Ni0 Ti1 2.933709 1_545
Ni1 Ti1 2.832960 1_556
Ni1 Ti3 2.845329 1_565
Ni1 Ti3 2.845329 1_665
Ni1 Ti2 2.899453 1_655
Ni1 Ti2 2.899453 1_555
Ni1 Ti0 2.933709 1_556
Ni2 Ti2 2.832960 1_555
Ni2 Ti0 2.845329 1_455
Ni2 Ti0 2.845329 1_555
Ni2 Ti1 2.899453 1_555
Ni2 Ti1 2.899453 1_455
Ni2 Ti3 2.933709 1_565
Ni3 Ti3 2.832960 1_554
Ni3 Ti1 2.845329 1_545
Ni3 Ti1 2.845329 1_445
Ni3 Ti0 2.899453 1_555
Ni3 Ti0 2.899453 1_455
Ni3 Ti2 2.933709 1_554
As0 Ni3 2.355496 1_656
As0 Ni3 2.355496 1_556
As0 Ni0 2.373694 1_555
As0 Ni1 2.425419 1_545
As0 Ti0 2.614218 1_556
As0 Ti2 2.644576 1_555
As0 Ti2 2.644576 1_655
As0 Ti3 2.691084 1_555
As0 Ti3 2.691084 1_655
As1 Ni2 2.355496 1_655
As1 Ni2 2.355496 1_555
As1 Ni1 2.373694 1_555
As1 Ni0 2.425419 1_555
As1 Ti1 2.614218 1_555
As1 Ti3 2.644576 1_565
As1 Ti3 2.644576 1_665
As1 Ti2 2.691084 1_555
As1 Ti2 2.691084 1_655
As2 Ni1 2.355496 1_554
As2 Ni1 2.355496 1_454
As2 Ni2 2.373694 1_555
As2 Ni3 2.425419 1_565
As2 Ti2 2.614218 1_554
As2 Ti0 2.644576 1_455
As2 Ti0 2.644576 1_555
As2 Ti1 2.691084 1_555
As2 Ti1 2.691084 1_455
As3 Ni0 2.355496 1_555
As3 Ni0 2.355496 1_455
As3 Ni3 2.373694 1_555
As3 Ni2 2.425419 1_555
As3 Ti3 2.614218 1_555
As3 Ti1 2.644576 1_545
As3 Ti1 2.644576 1_445
As3 Ti0 2.691084 1_455
As3 Ti0 2.691084 1_555
