# generated using pymatgen
data_TbH7C4O11
_symmetry_space_group_name_H-M   'P 1'
_cell_length_a   8.83878500
_cell_length_b   8.83878500
_cell_length_c   13.00876800
_cell_angle_alpha   90.00000000
_cell_angle_beta   90.00000000
_cell_angle_gamma   90.00000000
_symmetry_Int_Tables_number   1
_chemical_formula_structural   TbH7C4O11
_chemical_formula_sum   'Tb4 H28 C16 O44'
_cell_volume   1016.29855588
_cell_formula_units_Z   4
loop_
 _symmetry_equiv_pos_site_id
 _symmetry_equiv_pos_as_xyz
  1  'x, y, z'
loop_
 _atom_site_type_symbol
 _atom_site_label
 _atom_site_symmetry_multiplicity
 _atom_site_fract_x
 _atom_site_fract_y
 _atom_site_fract_z
 _atom_site_occupancy
  Tb  Tb0  1  0.00000000  0.50000000  0.96488300  1
  Tb  Tb1  1  0.00000000  0.50000000  0.46488300  1
  Tb  Tb2  1  0.50000000  0.00000000  0.53511700  1
  Tb  Tb3  1  0.50000000  0.00000000  0.03511700  1
  H  H0  1  0.00000000  0.00000000  0.73579100  1
  H  H1  1  0.50000000  0.50000000  0.23579100  1
  H  H2  1  0.50000000  0.50000000  0.76420900  1
  H  H3  1  0.00000000  0.00000000  0.26420900  1
  H  H4  1  0.02384200  0.19696600  0.68253000  1
  H  H5  1  0.97615800  0.80303400  0.68253000  1
  H  H6  1  0.69696600  0.47615800  0.18253000  1
  H  H7  1  0.30303400  0.52384200  0.18253000  1
  H  H8  1  0.47615800  0.30303400  0.81747000  1
  H  H9  1  0.52384200  0.69696600  0.81747000  1
  H  H10  1  0.80303400  0.02384200  0.31747000  1
  H  H11  1  0.19696600  0.97615800  0.31747000  1
  H  H12  1  0.93570300  0.18701400  0.79555600  1
  H  H13  1  0.06429700  0.81298600  0.79555600  1
  H  H14  1  0.68701400  0.56429700  0.29555600  1
  H  H15  1  0.31298600  0.43570300  0.29555600  1
  H  H16  1  0.56429700  0.31298600  0.70444400  1
  H  H17  1  0.43570300  0.68701400  0.70444400  1
  H  H18  1  0.81298600  0.93570300  0.20444400  1
  H  H19  1  0.18701400  0.06429700  0.20444400  1
  H  H20  1  0.08872700  0.51215200  0.73160700  1
  H  H21  1  0.91127300  0.48784800  0.73160700  1
  H  H22  1  0.01215200  0.41127300  0.23160700  1
  H  H23  1  0.98784800  0.58872700  0.23160700  1
  H  H24  1  0.41127300  0.98784800  0.76839300  1
  H  H25  1  0.58872700  0.01215200  0.76839300  1
  H  H26  1  0.48784800  0.08872700  0.26839300  1
  H  H27  1  0.51215200  0.91127300  0.26839300  1
  C  C0  1  0.28239800  0.27453700  0.95115700  1
  C  C1  1  0.71760200  0.72546300  0.95115700  1
  C  C2  1  0.77453700  0.21760200  0.45115700  1
  C  C3  1  0.22546300  0.78239800  0.45115700  1
  C  C4  1  0.21760200  0.22546300  0.54884300  1
  C  C5  1  0.78239800  0.77453700  0.54884300  1
  C  C6  1  0.72546300  0.28239800  0.04884300  1
  C  C7  1  0.27453700  0.71760200  0.04884300  1
  C  C8  1  0.20656500  0.22596900  0.05313600  1
  C  C9  1  0.79343500  0.77403100  0.05313600  1
  C  C10  1  0.72596900  0.29343500  0.55313600  1
  C  C11  1  0.27403100  0.70656500  0.55313600  1
  C  C12  1  0.29343500  0.27403100  0.44686400  1
  C  C13  1  0.70656500  0.72596900  0.44686400  1
  C  C14  1  0.77403100  0.20656500  0.94686400  1
  C  C15  1  0.22596900  0.79343500  0.94686400  1
  O  O0  1  0.96466600  0.13155300  0.73051400  1
  O  O1  1  0.03533400  0.86844700  0.73051400  1
  O  O2  1  0.63155300  0.53533400  0.23051400  1
  O  O3  1  0.36844700  0.46466600  0.23051400  1
  O  O4  1  0.53533400  0.36844700  0.76948600  1
  O  O5  1  0.46466600  0.63155300  0.76948600  1
  O  O6  1  0.86844700  0.96466600  0.26948600  1
  O  O7  1  0.13155300  0.03533400  0.26948600  1
  O  O8  1  0.00000000  0.50000000  0.77580600  1
  O  O9  1  0.00000000  0.50000000  0.27580600  1
  O  O10  1  0.50000000  0.00000000  0.72419400  1
  O  O11  1  0.50000000  0.00000000  0.22419400  1
  O  O12  1  0.21939000  0.37817000  0.90057600  1
  O  O13  1  0.78061000  0.62183000  0.90057600  1
  O  O14  1  0.87817000  0.28061000  0.40057600  1
  O  O15  1  0.12183000  0.71939000  0.40057600  1
  O  O16  1  0.28061000  0.12183000  0.59942400  1
  O  O17  1  0.71939000  0.87817000  0.59942400  1
  O  O18  1  0.62183000  0.21939000  0.09942400  1
  O  O19  1  0.37817000  0.78061000  0.09942400  1
  O  O20  1  0.40443100  0.20694400  0.92611100  1
  O  O21  1  0.59556900  0.79305600  0.92611100  1
  O  O22  1  0.70694400  0.09556900  0.42611100  1
  O  O23  1  0.29305600  0.90443100  0.42611100  1
  O  O24  1  0.09556900  0.29305600  0.57388900  1
  O  O25  1  0.90443100  0.70694400  0.57388900  1
  O  O26  1  0.79305600  0.40443100  0.07388900  1
  O  O27  1  0.20694400  0.59556900  0.07388900  1
  O  O28  1  0.26846300  0.11538900  0.10036000  1
  O  O29  1  0.73153700  0.88461100  0.10036000  1
  O  O30  1  0.61538900  0.23153700  0.60036000  1
  O  O31  1  0.38461100  0.76846300  0.60036000  1
  O  O32  1  0.23153700  0.38461100  0.39964000  1
  O  O33  1  0.76846300  0.61538900  0.39964000  1
  O  O34  1  0.88461100  0.26846300  0.89964000  1
  O  O35  1  0.11538900  0.73153700  0.89964000  1
  O  O36  1  0.09093900  0.29792200  0.08157600  1
  O  O37  1  0.90906100  0.70207800  0.08157600  1
  O  O38  1  0.79792200  0.40906100  0.58157600  1
  O  O39  1  0.20207800  0.59093900  0.58157600  1
  O  O40  1  0.40906100  0.20207800  0.41842400  1
  O  O41  1  0.59093900  0.79792200  0.41842400  1
  O  O42  1  0.70207800  0.09093900  0.91842400  1
  O  O43  1  0.29792200  0.90906100  0.91842400  1
loop_
_geom_bond_atom_site_label_1
_geom_bond_atom_site_label_2
_geom_bond_distance
_geom_bond_site_symmetry_2
H0 O0 1.205936 1_455
H0 O1 1.205936 1_545
H1 O3 1.205936 1_555
H1 O2 1.205936 1_555
H2 O4 1.205936 1_555
H2 O5 1.205936 1_555
H3 O7 1.205936 1_555
H3 O6 1.205936 1_445
H4 O0 0.998749 1_455
H5 O1 0.998749 1_655
H6 O2 0.998749 1_555
H7 O3 0.998749 1_555
H8 O4 0.998749 1_555
H9 O5 0.998749 1_555
H10 O6 0.998749 1_545
H11 O7 0.998749 1_565
H12 O0 1.010817 1_555
H12 O34 1.598604 1_555
H13 O1 1.010817 1_555
H13 O35 1.598604 1_555
H14 O2 1.010817 1_555
H14 O33 1.598604 1_555
H15 O3 1.010817 1_555
H15 O32 1.598604 1_555
H16 O4 1.010817 1_555
H16 O30 1.598604 1_555
H17 O5 1.010817 1_555
H17 O31 1.598604 1_555
H18 O6 1.010817 1_555
H18 O29 1.598604 1_555
H19 O7 1.010817 1_555
H19 O28 1.598604 1_555
H20 O8 0.978347 1_555
H21 O8 0.978347 1_655
H22 O9 0.978347 1_555
H23 O9 0.978347 1_655
H24 O10 0.978347 1_565
H25 O10 0.978347 1_555
H26 O11 0.978347 1_555
H27 O11 0.978347 1_565
C0 O12 1.257835 1_555
C0 O20 1.275351 1_555
C1 O13 1.257835 1_555
C1 O21 1.275351 1_555
C2 O14 1.257835 1_555
C2 O22 1.275351 1_555
C3 O15 1.257835 1_555
C3 O23 1.275351 1_555
C4 O16 1.257835 1_555
C4 O24 1.275351 1_555
C5 O17 1.257835 1_555
C5 O25 1.275351 1_555
C6 O18 1.257835 1_555
C6 O26 1.275351 1_555
C7 O19 1.257835 1_555
C7 O27 1.275351 1_555
C8 O36 1.259291 1_555
C8 O28 1.277503 1_555
C9 O37 1.259291 1_555
C9 O29 1.277503 1_555
C10 O38 1.259291 1_555
C10 O30 1.277503 1_555
C11 O39 1.259291 1_555
C11 O31 1.277503 1_555
C12 O40 1.259291 1_555
C12 O32 1.277503 1_555
C13 O41 1.259291 1_555
C13 O33 1.277503 1_555
C14 O42 1.259291 1_555
C14 O34 1.277503 1_555
C15 O43 1.259291 1_555
C15 O35 1.277503 1_555
O8 Tb0 2.459659 1_555
O9 Tb1 2.459659 1_555
O10 Tb2 2.459659 1_555
O11 Tb3 2.459659 1_555
O12 Tb0 2.370581 1_555
O13 Tb0 2.370581 1_655
O14 Tb1 2.370581 1_655
O15 Tb1 2.370581 1_555
O16 Tb2 2.370581 1_555
O17 Tb2 2.370581 1_565
O18 Tb3 2.370581 1_555
O19 Tb3 2.370581 1_565
O20 Tb3 2.463755 1_556
O21 Tb3 2.463755 1_566
O22 Tb2 2.463755 1_555
O23 Tb2 2.463755 1_565
O24 Tb1 2.463755 1_555
O25 Tb1 2.463755 1_655
O26 Tb0 2.463755 1_654
O27 Tb0 2.463755 1_554
O28 Tb3 2.439000 1_555
O29 Tb3 2.439000 1_565
O30 Tb2 2.439000 1_555
O31 Tb2 2.439000 1_565
O32 Tb1 2.439000 1_555
O33 Tb1 2.439000 1_655
O34 Tb0 2.439000 1_655
O35 Tb0 2.439000 1_555
O36 Tb0 2.478052 1_554
O37 Tb0 2.478052 1_654
O38 Tb1 2.478052 1_655
O39 Tb1 2.478052 1_555
O40 Tb2 2.478052 1_555
O41 Tb2 2.478052 1_565
O42 Tb3 2.478052 1_556
O43 Tb3 2.478052 1_566
