# generated using pymatgen
data_BaSm2O4
_symmetry_space_group_name_H-M   'P 1'
_cell_length_a   3.56136252
_cell_length_b   10.58691307
_cell_length_c   12.38337403
_cell_angle_alpha   90.00000000
_cell_angle_beta   90.00000000
_cell_angle_gamma   90.00000000
_symmetry_Int_Tables_number   1
_chemical_formula_structural   BaSm2O4
_chemical_formula_sum   'Ba4 Sm8 O16'
_cell_volume   466.90069625
_cell_formula_units_Z   4
loop_
 _symmetry_equiv_pos_site_id
 _symmetry_equiv_pos_as_xyz
  1  'x, y, z'
loop_
 _atom_site_type_symbol
 _atom_site_label
 _atom_site_symmetry_multiplicity
 _atom_site_fract_x
 _atom_site_fract_y
 _atom_site_fract_z
 _atom_site_occupancy
  Ba  Ba0  1  0.75000000  0.25203536  0.85168138  1
  Ba  Ba1  1  0.25000000  0.74796464  0.14831862  1
  Ba  Ba2  1  0.75000000  0.75203536  0.64831862  1
  Ba  Ba3  1  0.25000000  0.24796464  0.35168138  1
  Sm  Sm0  1  0.25000000  0.57706852  0.38882890  1
  Sm  Sm1  1  0.75000000  0.42293148  0.61117110  1
  Sm  Sm2  1  0.25000000  0.07706852  0.11117110  1
  Sm  Sm3  1  0.75000000  0.92293148  0.88882890  1
  Sm  Sm4  1  0.75000000  0.92323055  0.38897129  1
  Sm  Sm5  1  0.25000000  0.07676945  0.61102871  1
  Sm  Sm6  1  0.75000000  0.42323055  0.11102871  1
  Sm  Sm7  1  0.25000000  0.57676945  0.88897129  1
  O  O0  1  0.25000000  0.57067905  0.57554932  1
  O  O1  1  0.75000000  0.42932095  0.42445068  1
  O  O2  1  0.25000000  0.07067905  0.92445068  1
  O  O3  1  0.75000000  0.92932095  0.07554932  1
  O  O4  1  0.25000000  0.48278407  0.21744829  1
  O  O5  1  0.75000000  0.51721593  0.78255171  1
  O  O6  1  0.25000000  0.98278407  0.28255171  1
  O  O7  1  0.75000000  0.01721593  0.71744829  1
  O  O8  1  0.25000000  0.88041055  0.51834590  1
  O  O9  1  0.75000000  0.11958945  0.48165410  1
  O  O10  1  0.25000000  0.38041055  0.98165410  1
  O  O11  1  0.75000000  0.61958945  0.01834590  1
  O  O12  1  0.75000000  0.71055876  0.33409164  1
  O  O13  1  0.25000000  0.28944124  0.66590836  1
  O  O14  1  0.75000000  0.21055876  0.16590836  1
  O  O15  1  0.25000000  0.78944124  0.83409164  1
loop_
_geom_bond_atom_site_label_1
_geom_bond_atom_site_label_2
_geom_bond_distance
_geom_bond_site_symmetry_2
Ba0 O10 2.758344 1_655
Ba0 O10 2.758344 1_555
Ba0 O2 2.769345 1_655
Ba0 O2 2.769345 1_555
Ba0 O5 2.935060 1_555
Ba0 O13 2.935973 1_555
Ba0 O13 2.935973 1_655
Ba0 O7 2.990546 1_555
Ba1 O11 2.758344 1_555
Ba1 O11 2.758344 1_455
Ba1 O3 2.769345 1_455
Ba1 O3 2.769345 1_555
Ba1 O4 2.935060 1_555
Ba1 O12 2.935973 1_555
Ba1 O12 2.935973 1_455
Ba1 O6 2.990546 1_555
Ba2 O8 2.758344 1_655
Ba2 O8 2.758344 1_555
Ba2 O0 2.769345 1_555
Ba2 O0 2.769345 1_655
Ba2 O7 2.935060 1_565
Ba2 O15 2.935973 1_555
Ba2 O15 2.935973 1_655
Ba2 O5 2.990546 1_555
Ba3 O9 2.758344 1_455
Ba3 O9 2.758344 1_555
Ba3 O1 2.769345 1_555
Ba3 O1 2.769345 1_455
Ba3 O6 2.935060 1_545
Ba3 O14 2.935973 1_455
Ba3 O14 2.935973 1_555
Ba3 O4 2.990546 1_555
O0 Sm0 2.313218 1_555
O0 Sm1 2.410830 1_455
O0 Sm1 2.410830 1_555
O1 Sm1 2.313218 1_555
O1 Sm0 2.410830 1_555
O1 Sm0 2.410830 1_655
O2 Sm2 2.313218 1_556
O2 Sm3 2.410830 1_545
O2 Sm3 2.410830 1_445
O3 Sm3 2.313218 1_554
O3 Sm2 2.410830 1_565
O3 Sm2 2.410830 1_665
O4 Sm6 2.303264 1_455
O4 Sm6 2.303264 1_555
O4 Sm0 2.345292 1_555
O5 Sm7 2.303264 1_555
O5 Sm7 2.303264 1_655
O5 Sm1 2.345292 1_555
O6 Sm4 2.303264 1_555
O6 Sm4 2.303264 1_455
O6 Sm2 2.345292 1_565
O7 Sm5 2.303264 1_655
O7 Sm5 2.303264 1_555
O7 Sm3 2.345292 1_545
O8 Sm5 2.374622 1_565
O8 Sm4 2.437835 1_555
O8 Sm4 2.437835 1_455
O9 Sm4 2.374622 1_545
O9 Sm5 2.437835 1_655
O9 Sm5 2.437835 1_555
O10 Sm7 2.374622 1_555
O10 Sm6 2.437835 1_456
O10 Sm6 2.437835 1_556
O11 Sm6 2.374622 1_555
O11 Sm7 2.437835 1_554
O11 Sm7 2.437835 1_654
O12 Sm4 2.351866 1_555
O12 Sm0 2.372247 1_555
O12 Sm0 2.372247 1_655
O13 Sm5 2.351866 1_555
O13 Sm1 2.372247 1_455
O13 Sm1 2.372247 1_555
O14 Sm6 2.351866 1_555
O14 Sm2 2.372247 1_555
O14 Sm2 2.372247 1_655
O15 Sm7 2.351866 1_555
O15 Sm3 2.372247 1_455
O15 Sm3 2.372247 1_555
