# generated using pymatgen
data_CaTa2(CuO4)2
_symmetry_space_group_name_H-M   'P 1'
_cell_length_a   8.99509200
_cell_length_b   6.81652900
_cell_length_c   12.64608277
_cell_angle_alpha   88.01196345
_cell_angle_beta   90.00000000
_cell_angle_gamma   90.00000000
_symmetry_Int_Tables_number   1
_chemical_formula_structural   CaTa2(CuO4)2
_chemical_formula_sum   'Ca4 Ta8 Cu8 O32'
_cell_volume   774.93171011
_cell_formula_units_Z   4
loop_
 _symmetry_equiv_pos_site_id
 _symmetry_equiv_pos_as_xyz
  1  'x, y, z'
loop_
 _atom_site_type_symbol
 _atom_site_label
 _atom_site_symmetry_multiplicity
 _atom_site_fract_x
 _atom_site_fract_y
 _atom_site_fract_z
 _atom_site_occupancy
  Ca  Ca0  1  0.16065900  0.12823600  0.04034900  1
  Ca  Ca1  1  0.83934100  0.87176400  0.95965100  1
  Ca  Ca2  1  0.66065900  0.87176400  0.45965100  1
  Ca  Ca3  1  0.33934100  0.12823600  0.54034900  1
  Ta  Ta0  1  0.46017000  0.09383100  0.84360700  1
  Ta  Ta1  1  0.03983000  0.09383100  0.34360700  1
  Ta  Ta2  1  0.08726500  0.60536000  0.14396700  1
  Ta  Ta3  1  0.96017000  0.90616900  0.65639300  1
  Ta  Ta4  1  0.91273500  0.39464000  0.85603300  1
  Ta  Ta5  1  0.58726500  0.39464000  0.35603300  1
  Ta  Ta6  1  0.41273500  0.60536000  0.64396700  1
  Ta  Ta7  1  0.53983000  0.90616900  0.15639300  1
  Cu  Cu0  1  0.18114500  0.76814800  0.85640400  1
  Cu  Cu1  1  0.05366300  0.38462500  0.62430900  1
  Cu  Cu2  1  0.94633700  0.61537500  0.37569100  1
  Cu  Cu3  1  0.81885500  0.23185200  0.14359600  1
  Cu  Cu4  1  0.31885500  0.76814800  0.35640400  1
  Cu  Cu5  1  0.44633700  0.38462500  0.12430900  1
  Cu  Cu6  1  0.68114500  0.23185200  0.64359600  1
  Cu  Cu7  1  0.55366300  0.61537500  0.87569100  1
  O  O0  1  0.23626400  0.02454700  0.38266400  1
  O  O1  1  0.00417100  0.66245700  0.60360200  1
  O  O2  1  0.57839800  0.19324000  0.45906500  1
  O  O3  1  0.07839800  0.80676000  0.04093500  1
  O  O4  1  0.26373600  0.02454700  0.88266400  1
  O  O5  1  0.76373600  0.97545300  0.61733600  1
  O  O6  1  0.09642700  0.09867700  0.60455900  1
  O  O7  1  0.90187200  0.49082700  0.13585300  1
  O  O8  1  0.59812800  0.49082700  0.63585300  1
  O  O9  1  0.87831100  0.30799400  0.71394100  1
  O  O10  1  0.37831100  0.69200600  0.78605900  1
  O  O11  1  0.09812800  0.50917300  0.86414700  1
  O  O12  1  0.90357300  0.90132300  0.39544100  1
  O  O13  1  0.51896500  0.87795700  0.30295000  1
  O  O14  1  0.26582800  0.43231400  0.60253400  1
  O  O15  1  0.23417200  0.43231400  0.10253400  1
  O  O16  1  0.01896500  0.12204300  0.19705000  1
  O  O17  1  0.40187200  0.50917300  0.36414700  1
  O  O18  1  0.48103500  0.12204300  0.69705000  1
  O  O19  1  0.42160200  0.80676000  0.54093500  1
  O  O20  1  0.49582900  0.66245700  0.10360200  1
  O  O21  1  0.12168900  0.69200600  0.28605900  1
  O  O22  1  0.73626400  0.97545300  0.11733600  1
  O  O23  1  0.40357300  0.09867700  0.10455900  1
  O  O24  1  0.92160200  0.19324000  0.95906500  1
  O  O25  1  0.76582800  0.56768600  0.89746600  1
  O  O26  1  0.99582900  0.33754300  0.39639800  1
  O  O27  1  0.50417100  0.33754300  0.89639800  1
  O  O28  1  0.59642700  0.90132300  0.89544100  1
  O  O29  1  0.73417200  0.56768600  0.39746600  1
  O  O30  1  0.62168900  0.30799400  0.21394100  1
  O  O31  1  0.98103500  0.87795700  0.80295000  1
loop_
_geom_bond_atom_site_label_1
_geom_bond_atom_site_label_2
_geom_bond_distance
_geom_bond_site_symmetry_2
Ca0 O3 2.312675 1_545
Ca0 O4 2.330977 1_554
Ca0 O23 2.337300 1_555
Ca0 O15 2.337754 1_555
Ca0 O16 2.355294 1_555
Ca0 O24 2.417711 1_454
Ca1 O24 2.312675 1_565
Ca1 O22 2.330977 1_556
Ca1 O28 2.337300 1_555
Ca1 O25 2.337754 1_555
Ca1 O31 2.355294 1_555
Ca1 O3 2.417711 1_656
Ca2 O2 2.312675 1_565
Ca2 O5 2.330977 1_555
Ca2 O12 2.337300 1_555
Ca2 O29 2.337754 1_555
Ca2 O13 2.355294 1_555
Ca2 O19 2.417711 1_555
Ca3 O19 2.312675 1_545
Ca3 O0 2.330977 1_555
Ca3 O6 2.337300 1_555
Ca3 O14 2.337754 1_555
Ca3 O18 2.355294 1_555
Ca3 O2 2.417711 1_555
Cu0 O11 1.916128 1_555
Cu0 O4 1.938325 1_565
Cu0 O31 2.054788 1_455
Cu0 O10 2.058685 1_555
Cu0 O3 2.532140 1_556
Cu1 O14 1.953829 1_555
Cu1 O1 1.954232 1_555
Cu1 O9 2.001121 1_455
Cu1 O6 2.010821 1_555
Cu2 O29 1.953829 1_555
Cu2 O26 1.954232 1_555
Cu2 O21 2.001121 1_655
Cu2 O12 2.010821 1_555
Cu3 O7 1.916128 1_555
Cu3 O22 1.938325 1_545
Cu3 O16 2.054788 1_655
Cu3 O30 2.058685 1_555
Cu3 O24 2.532140 1_554
Cu4 O17 1.916128 1_555
Cu4 O0 1.938325 1_565
Cu4 O13 2.054788 1_555
Cu4 O21 2.058685 1_555
Cu4 O19 2.532140 1_555
Cu5 O15 1.953829 1_555
Cu5 O20 1.954232 1_555
Cu5 O30 2.001121 1_555
Cu5 O23 2.010821 1_555
Cu6 O8 1.916128 1_555
Cu6 O5 1.938325 1_545
Cu6 O18 2.054788 1_555
Cu6 O9 2.058685 1_555
Cu6 O2 2.532140 1_555
Cu7 O25 1.953829 1_555
Cu7 O27 1.954232 1_555
Cu7 O10 2.001121 1_555
Cu7 O28 2.010821 1_555
O0 Ta1 1.890211 1_555
O1 Ta3 1.854483 1_455
O2 Ta5 1.861357 1_555
O3 Ta2 1.861357 1_555
O4 Ta0 1.890211 1_555
O5 Ta3 1.890211 1_555
O6 Ta3 1.895828 1_445
O7 Ta2 1.845694 1_655
O8 Ta6 1.845694 1_555
O9 Ta4 1.935776 1_555
O10 Ta6 1.935776 1_555
O11 Ta4 1.845694 1_455
O12 Ta1 1.895828 1_665
O13 Ta7 1.866137 1_555
O14 Ta6 1.858769 1_555
O15 Ta2 1.858769 1_555
O16 Ta1 1.866137 1_555
O17 Ta5 1.845694 1_555
O18 Ta0 1.866137 1_555
O19 Ta6 1.861357 1_555
O20 Ta7 1.854483 1_555
O21 Ta2 1.935776 1_555
O22 Ta7 1.890211 1_555
O23 Ta7 1.895828 1_545
O24 Ta4 1.861357 1_555
O25 Ta4 1.858769 1_555
O26 Ta1 1.854483 1_655
O27 Ta0 1.854483 1_555
O28 Ta0 1.895828 1_565
O29 Ta5 1.858769 1_555
O30 Ta5 1.935776 1_555
O31 Ta3 1.866137 1_555
