# generated using pymatgen
data_Mn3Pt
_symmetry_space_group_name_H-M   'P 1'
_cell_length_a   5.22938900
_cell_length_b   5.22938949
_cell_length_c   4.05071000
_cell_angle_alpha   90.00000000
_cell_angle_beta   90.00000000
_cell_angle_gamma   120.00000321
_symmetry_Int_Tables_number   1
_chemical_formula_structural   Mn3Pt
_chemical_formula_sum   'Mn6 Pt2'
_cell_volume   95.93204636
_cell_formula_units_Z   2
loop_
 _symmetry_equiv_pos_site_id
 _symmetry_equiv_pos_as_xyz
  1  'x, y, z'
loop_
 _atom_site_type_symbol
 _atom_site_label
 _atom_site_symmetry_multiplicity
 _atom_site_fract_x
 _atom_site_fract_y
 _atom_site_fract_z
 _atom_site_occupancy
  Mn  Mn0  1  0.15111400  0.30222900  0.24999900  1
  Mn  Mn1  1  0.69777000  0.84888600  0.24999900  1
  Mn  Mn2  1  0.15111600  0.84888600  0.24999900  1
  Mn  Mn3  1  0.84888700  0.69777000  0.75000000  1
  Mn  Mn4  1  0.30223000  0.15111500  0.75000000  1
  Mn  Mn5  1  0.84888600  0.15111500  0.75000000  1
  Pt  Pt0  1  0.33333400  0.66666800  0.75000000  1
  Pt  Pt1  1  0.66666800  0.33333300  0.24999900  1
loop_
_geom_bond_atom_site_label_1
_geom_bond_atom_site_label_2
_geom_bond_distance
_geom_bond_site_symmetry_2
Mn0 Mn1 2.370710 1_445
Mn0 Mn2 2.370712 1_545
Mn0 Mn5 2.444474 1_454
Mn0 Mn4 2.444480 1_554
Mn0 Mn5 2.444481 1_455
Mn0 Mn4 2.444486 1_555
Mn0 Pt0 2.612677 1_554
Mn0 Pt0 2.612684 1_555
Mn0 Pt1 2.618476 1_455
Mn0 Pt1 2.618497 1_555
Mn0 Mn2 2.858677 1_555
Mn0 Mn1 2.858679 1_555
Mn1 Mn2 2.370723 1_655
Mn1 Mn5 2.444477 1_564
Mn1 Mn5 2.444484 1_565
Mn1 Mn3 2.444487 1_554
Mn1 Mn3 2.444494 1_555
Mn1 Pt0 2.612669 1_554
Mn1 Pt0 2.612675 1_555
Mn1 Pt1 2.618475 1_565
Mn1 Pt1 2.618496 1_555
Mn1 Mn2 2.858666 1_555
Mn2 Mn3 2.444477 1_454
Mn2 Mn4 2.444477 1_564
Mn2 Mn3 2.444484 1_455
Mn2 Mn4 2.444484 1_565
Mn2 Pt0 2.612669 1_554
Mn2 Pt0 2.612675 1_555
Mn2 Pt1 2.618484 1_565
Mn2 Pt1 2.618489 1_455
Mn3 Mn4 2.370712 1_665
Mn3 Mn5 2.370720 1_565
Mn3 Pt1 2.612672 1_556
Mn3 Pt1 2.612678 1_555
Mn3 Pt0 2.618475 1_655
Mn3 Pt0 2.618496 1_555
Mn3 Mn5 2.858669 1_555
Mn3 Mn4 2.858677 1_555
Mn4 Mn5 2.370712 1_455
Mn4 Pt1 2.612674 1_556
Mn4 Pt1 2.612681 1_555
Mn4 Pt0 2.618481 1_545
Mn4 Pt0 2.618492 1_555
Mn4 Mn5 2.858677 1_555
Mn5 Pt1 2.612669 1_556
Mn5 Pt1 2.612675 1_555
Mn5 Pt0 2.618484 1_545
Mn5 Pt0 2.618489 1_655
