# generated using pymatgen
data_Na3AsF6
_symmetry_space_group_name_H-M   'P 1'
_cell_length_a   6.01299848
_cell_length_b   6.01299848
_cell_length_c   6.01299848
_cell_angle_alpha   60.00000000
_cell_angle_beta   60.00000000
_cell_angle_gamma   60.00000000
_symmetry_Int_Tables_number   1
_chemical_formula_structural   Na3AsF6
_chemical_formula_sum   'Na3 As1 F6'
_cell_volume   153.72987860
_cell_formula_units_Z   1
loop_
 _symmetry_equiv_pos_site_id
 _symmetry_equiv_pos_as_xyz
  1  'x, y, z'
loop_
 _atom_site_type_symbol
 _atom_site_label
 _atom_site_symmetry_multiplicity
 _atom_site_fract_x
 _atom_site_fract_y
 _atom_site_fract_z
 _atom_site_occupancy
  Na  Na0  1  0.75000000  0.75000000  0.75000000  1
  Na  Na1  1  0.25000000  0.25000000  0.25000000  1
  Na  Na2  1  0.50000000  0.50000000  0.50000000  1
  As  As0  1  0.00000000  0.00000000  0.00000000  1
  F  F0  1  0.75893300  0.24106700  0.24106700  1
  F  F1  1  0.24106700  0.24106700  0.75893300  1
  F  F2  1  0.24106700  0.75893300  0.75893300  1
  F  F3  1  0.24106700  0.75893300  0.24106700  1
  F  F4  1  0.75893300  0.24106700  0.75893300  1
  F  F5  1  0.75893300  0.75893300  0.24106700  1
loop_
_geom_bond_atom_site_label_1
_geom_bond_atom_site_label_2
_geom_bond_distance
_geom_bond_site_symmetry_2
As0 F0 2.049953 1_455
As0 F3 2.049953 1_545
As0 F1 2.049953 1_554
As0 F2 2.049953 1_544
As0 F5 2.049953 1_445
As0 F4 2.049953 1_454
F0 Na2 2.201879 1_555
F0 Na1 3.007459 1_555
F0 Na0 3.007459 1_554
F0 Na0 3.007459 1_545
F0 Na1 3.007459 1_655
F1 Na2 2.201879 1_555
F1 Na1 3.007459 1_555
F1 Na0 3.007459 1_545
F1 Na0 3.007459 1_455
F1 Na1 3.007459 1_556
F2 Na2 2.201879 1_555
F2 Na0 3.007459 1_455
F2 Na1 3.007459 1_556
F2 Na1 3.007459 1_565
F2 Na0 3.007459 1_555
F3 Na2 2.201879 1_555
F3 Na1 3.007459 1_555
F3 Na0 3.007459 1_554
F3 Na0 3.007459 1_455
F3 Na1 3.007459 1_565
F4 Na2 2.201879 1_555
F4 Na0 3.007459 1_545
F4 Na1 3.007459 1_655
F4 Na1 3.007459 1_556
F4 Na0 3.007459 1_555
F5 Na2 2.201879 1_555
F5 Na0 3.007459 1_554
F5 Na1 3.007459 1_655
F5 Na1 3.007459 1_565
F5 Na0 3.007459 1_555
