# generated using pymatgen
data_Cr3(GaN2)2
_symmetry_space_group_name_H-M   'P 1'
_cell_length_a   6.97030511
_cell_length_b   6.68130395
_cell_length_c   5.12687737
_cell_angle_alpha   90.00000756
_cell_angle_beta   76.09423747
_cell_angle_gamma   118.63768136
_symmetry_Int_Tables_number   1
_chemical_formula_structural   Cr3(GaN2)2
_chemical_formula_sum   'Cr6 Ga4 N8'
_cell_volume   201.54498385
_cell_formula_units_Z   2
loop_
 _symmetry_equiv_pos_site_id
 _symmetry_equiv_pos_as_xyz
  1  'x, y, z'
loop_
 _atom_site_type_symbol
 _atom_site_label
 _atom_site_symmetry_multiplicity
 _atom_site_fract_x
 _atom_site_fract_y
 _atom_site_fract_z
 _atom_site_occupancy
  Cr  Cr0  1  0.15122700  0.96459600  0.87258000  1
  Cr  Cr1  1  0.84877300  0.81337000  0.62742000  1
  Cr  Cr2  1  0.84877300  0.03540400  0.12742000  1
  Cr  Cr3  1  0.15122700  0.18663000  0.37258000  1
  Cr  Cr4  1  0.00000000  0.55547700  0.75000000  1
  Cr  Cr5  1  0.00000000  0.44452300  0.25000000  1
  Ga  Ga0  1  0.60228300  0.15904600  0.73225100  1
  Ga  Ga1  1  0.39771700  0.55676400  0.76774900  1
  Ga  Ga2  1  0.39771700  0.84095400  0.26774900  1
  Ga  Ga3  1  0.60228300  0.44323600  0.23225100  1
  N  N0  1  0.18509900  0.94152200  0.49902900  1
  N  N1  1  0.81490100  0.75642200  0.00097100  1
  N  N2  1  0.81490100  0.05847800  0.50097100  1
  N  N3  1  0.18509900  0.24357800  0.99902900  1
  N  N4  1  0.80743700  0.28694500  0.00068200  1
  N  N5  1  0.19256300  0.47950700  0.49931800  1
  N  N6  1  0.19256300  0.71305500  0.99931800  1
  N  N7  1  0.80743700  0.52049300  0.50068200  1
loop_
_geom_bond_atom_site_label_1
_geom_bond_atom_site_label_2
_geom_bond_distance
_geom_bond_site_symmetry_2
Cr0 N0 1.888085 1_555
Cr0 N3 1.897924 1_565
Cr0 N6 1.970747 1_555
Cr0 N1 1.999101 1_456
Cr1 N1 1.888087 1_556
Cr1 N2 1.897912 1_565
Cr1 N7 1.970747 1_555
Cr1 N0 1.999101 1_655
Cr2 N2 1.888085 1_555
Cr2 N1 1.897924 1_545
Cr2 N4 1.970747 1_555
Cr2 N3 1.999101 1_654
Cr3 N3 1.888087 1_554
Cr3 N0 1.897912 1_545
Cr3 N5 1.970747 1_555
Cr3 N2 1.999101 1_455
Cr4 N4 1.880121 1_456
Cr4 N5 1.880125 1_555
Cr4 N6 2.003486 1_555
Cr4 N7 2.003487 1_455
Cr4 N1 2.446455 1_456
Cr4 N0 2.446461 1_555
Cr5 N6 1.880121 1_554
Cr5 N7 1.880125 1_455
Cr5 N4 2.003486 1_455
Cr5 N5 2.003487 1_555
Cr5 N3 2.446455 1_554
Cr5 N2 2.446461 1_455
Ga0 N2 2.040516 1_555
Ga0 N4 2.107996 1_556
Ga0 N7 2.271593 1_555
Ga1 N3 2.040516 1_555
Ga1 N5 2.107995 1_555
Ga1 N6 2.271582 1_555
Ga2 N0 2.040516 1_555
Ga2 N6 2.107996 1_554
Ga2 N5 2.271593 1_555
Ga3 N1 2.040516 1_555
Ga3 N7 2.107995 1_555
Ga3 N4 2.271582 1_555
