# generated using pymatgen
data_BaLa2WO7
_symmetry_space_group_name_H-M   'P 1'
_cell_length_a   5.90026000
_cell_length_b   9.03469100
_cell_length_c   12.99371060
_cell_angle_alpha   74.72488613
_cell_angle_beta   90.00000000
_cell_angle_gamma   90.00000000
_symmetry_Int_Tables_number   1
_chemical_formula_structural   BaLa2WO7
_chemical_formula_sum   'Ba4 La8 W4 O28'
_cell_volume   668.18587197
_cell_formula_units_Z   4
loop_
 _symmetry_equiv_pos_site_id
 _symmetry_equiv_pos_as_xyz
  1  'x, y, z'
loop_
 _atom_site_type_symbol
 _atom_site_label
 _atom_site_symmetry_multiplicity
 _atom_site_fract_x
 _atom_site_fract_y
 _atom_site_fract_z
 _atom_site_occupancy
  Ba  Ba0  1  0.76486000  0.32002400  0.80246100  1
  Ba  Ba1  1  0.23514000  0.32002400  0.30246100  1
  Ba  Ba2  1  0.73126500  0.28492900  0.53236500  1
  Ba  Ba3  1  0.26873500  0.28492900  0.03236500  1
  La  La0  1  0.76424400  0.99796200  0.08366700  1
  La  La1  1  0.23575600  0.99796200  0.58366700  1
  La  La2  1  0.73835900  0.60832000  0.25157600  1
  La  La3  1  0.26164100  0.60832000  0.75157600  1
  La  La4  1  0.73023500  0.87029100  0.79615400  1
  La  La5  1  0.26976500  0.87029100  0.29615400  1
  La  La6  1  0.76793300  0.73685700  0.53601200  1
  La  La7  1  0.23206700  0.73685700  0.03601200  1
  W  W0  1  0.77683200  0.52043200  0.00605600  1
  W  W1  1  0.22316800  0.52043200  0.50605600  1
  W  W2  1  0.72585500  0.08180800  0.32956900  1
  W  W3  1  0.27414500  0.08180800  0.82956900  1
  O  O0  1  0.73258600  0.29663600  0.32497500  1
  O  O1  1  0.26741400  0.29663600  0.82497500  1
  O  O2  1  0.99040800  0.49922700  0.12665900  1
  O  O3  1  0.00959200  0.49922700  0.62665900  1
  O  O4  1  0.48804000  0.10949700  0.70862000  1
  O  O5  1  0.51196000  0.10949700  0.20862000  1
  O  O6  1  0.51859600  0.50840600  0.10128800  1
  O  O7  1  0.48140400  0.50840600  0.60128800  1
  O  O8  1  0.70563500  0.85738500  0.34473000  1
  O  O9  1  0.29436500  0.85738500  0.84473000  1
  O  O10  1  0.79871000  0.74539200  0.98456000  1
  O  O11  1  0.20129000  0.74539200  0.48456000  1
  O  O12  1  0.77885500  0.30337300  0.01272700  1
  O  O13  1  0.22114500  0.30337300  0.51272700  1
  O  O14  1  0.98767700  0.09524100  0.23595100  1
  O  O15  1  0.01232300  0.09524100  0.73595100  1
  O  O16  1  0.94346800  0.54287400  0.41669200  1
  O  O17  1  0.05653200  0.54287400  0.91669200  1
  O  O18  1  0.59114000  0.56181500  0.87674900  1
  O  O19  1  0.40886000  0.56181500  0.37674900  1
  O  O20  1  0.09998700  0.03282800  0.96247300  1
  O  O21  1  0.90001300  0.03282800  0.46247300  1
  O  O22  1  0.55754400  0.05686400  0.91733100  1
  O  O23  1  0.44245600  0.05686400  0.41733100  1
  O  O24  1  0.48855400  0.80822200  0.15679200  1
  O  O25  1  0.51144600  0.80822200  0.65679200  1
  O  O26  1  0.98695700  0.79801900  0.67629500  1
  O  O27  1  0.01304300  0.79801900  0.17629500  1
loop_
_geom_bond_atom_site_label_1
_geom_bond_atom_site_label_2
_geom_bond_distance
_geom_bond_site_symmetry_2
Ba0 O12 2.697675 1_556
Ba0 O22 2.739902 1_555
Ba0 O18 2.804551 1_555
Ba0 O15 2.815642 1_655
Ba0 O3 2.824143 1_655
Ba0 O1 2.951650 1_555
Ba0 O1 2.981621 1_655
Ba0 O4 2.999051 1_555
Ba0 O7 3.191016 1_555
Ba1 O13 2.697675 1_555
Ba1 O23 2.739902 1_555
Ba1 O19 2.804551 1_555
Ba1 O14 2.815642 1_455
Ba1 O2 2.824143 1_455
Ba1 O0 2.951650 1_555
Ba1 O0 2.981621 1_455
Ba1 O5 2.999051 1_555
Ba1 O6 3.191016 1_555
Ba2 O0 2.668863 1_555
Ba2 O16 2.722519 1_555
Ba2 O4 2.811413 1_555
Ba2 O7 2.829263 1_555
Ba2 O21 2.844940 1_555
Ba2 O13 2.902585 1_655
Ba2 O13 3.021525 1_555
Ba2 O3 3.032570 1_655
Ba2 O15 3.208753 1_655
Ba2 O23 3.317592 1_555
Ba2 O19 3.361533 1_555
Ba3 O1 2.668863 1_554
Ba3 O17 2.722519 1_554
Ba3 O5 2.811413 1_555
Ba3 O6 2.829263 1_555
Ba3 O20 2.844940 1_554
Ba3 O12 2.902585 1_455
Ba3 O12 3.021525 1_555
Ba3 O2 3.032570 1_455
Ba3 O14 3.208753 1_455
Ba3 O22 3.317592 1_554
Ba3 O18 3.361533 1_554
La0 O24 2.372588 1_555
La0 O27 2.391891 1_655
La0 O22 2.415752 1_564
La0 O20 2.498393 1_664
La0 O5 2.594096 1_565
La0 O12 2.670326 1_565
La0 O14 2.709634 1_565
La0 O10 2.907761 1_554
La1 O25 2.372588 1_555
La1 O26 2.391891 1_455
La1 O23 2.415752 1_565
La1 O21 2.498393 1_465
La1 O4 2.594096 1_565
La1 O13 2.670326 1_565
La1 O15 2.709634 1_565
La1 O11 2.907761 1_555
La2 O27 2.374349 1_655
La2 O16 2.397667 1_555
La2 O24 2.403968 1_555
La2 O19 2.498295 1_555
La2 O2 2.580813 1_555
La2 O6 2.690431 1_555
La2 O0 2.724947 1_555
La2 O8 2.828612 1_555
La3 O26 2.374349 1_455
La3 O17 2.397667 1_555
La3 O25 2.403968 1_555
La3 O18 2.498295 1_555
La3 O3 2.580813 1_555
La3 O7 2.690431 1_555
La3 O1 2.724947 1_555
La3 O9 2.828612 1_555
La4 O26 2.383717 1_555
La4 O25 2.407298 1_555
La4 O10 2.444209 1_555
La4 O15 2.583583 1_665
La4 O4 2.590586 1_565
La4 O9 2.643310 1_555
La4 O22 2.785172 1_565
La4 O18 2.828370 1_555
La5 O27 2.383717 1_555
La5 O24 2.407298 1_555
La5 O11 2.444209 1_555
La5 O14 2.583583 1_465
La5 O5 2.590586 1_565
La5 O8 2.643310 1_555
La5 O23 2.785172 1_565
La5 O19 2.828370 1_555
La6 O25 2.387893 1_555
La6 O26 2.414268 1_555
La6 O8 2.464211 1_555
La6 O3 2.587894 1_655
La6 O7 2.629664 1_555
La6 O11 2.638860 1_655
La6 O21 2.706358 1_565
La6 O16 2.824835 1_555
La7 O24 2.387893 1_555
La7 O27 2.414268 1_555
La7 O9 2.464211 1_554
La7 O2 2.587894 1_455
La7 O6 2.629664 1_555
La7 O10 2.638860 1_454
La7 O20 2.706358 1_564
La7 O17 2.824835 1_554
O0 W2 1.926449 1_555
O1 W3 1.926449 1_555
O2 W0 1.980465 1_555
O3 W1 1.980465 1_555
O4 W3 1.979398 1_555
O5 W2 1.979398 1_555
O6 W0 1.947743 1_555
O7 W1 1.947743 1_555
O8 W2 1.988394 1_565
O9 W3 1.988394 1_565
O10 W0 1.981512 1_556
O11 W1 1.981512 1_555
O12 W0 1.940064 1_555
O13 W1 1.940064 1_555
O14 W2 1.950165 1_555
O15 W3 1.950165 1_555
O16 W1 1.997216 1_655
O17 W0 1.997216 1_456
O18 W0 1.957599 1_556
O19 W1 1.957599 1_555
O20 W3 1.957375 1_555
O21 W2 1.957375 1_555
O22 W3 2.002947 1_555
O23 W2 2.002947 1_555
