# generated using pymatgen
data_LiAlGeO4
_symmetry_space_group_name_H-M   'P 1'
_cell_length_a   8.51775874
_cell_length_b   8.51775874
_cell_length_c   8.51775885
_cell_angle_alpha   107.85697437
_cell_angle_beta   107.85697439
_cell_angle_gamma   107.85696694
_symmetry_Int_Tables_number   1
_chemical_formula_structural   LiAlGeO4
_chemical_formula_sum   'Li6 Al6 Ge6 O24'
_cell_volume   502.14457216
_cell_formula_units_Z   6
loop_
 _symmetry_equiv_pos_site_id
 _symmetry_equiv_pos_as_xyz
  1  'x, y, z'
loop_
 _atom_site_type_symbol
 _atom_site_label
 _atom_site_symmetry_multiplicity
 _atom_site_fract_x
 _atom_site_fract_y
 _atom_site_fract_z
 _atom_site_occupancy
  Li  Li0  1  0.05922638  0.22852013  0.45893312  1
  Li  Li1  1  0.45893312  0.05922638  0.22852013  1
  Li  Li2  1  0.22852013  0.45893312  0.05922638  1
  Li  Li3  1  0.94011863  0.77028747  0.54012239  1
  Li  Li4  1  0.54012239  0.94011863  0.77028747  1
  Li  Li5  1  0.77028747  0.54012239  0.94011863  1
  Al  Al0  1  0.13215985  0.72243362  0.89966102  1
  Al  Al1  1  0.89966102  0.13215985  0.72243362  1
  Al  Al2  1  0.72243362  0.89966102  0.13215985  1
  Al  Al3  1  0.61282682  0.43253822  0.20673541  1
  Al  Al4  1  0.20673541  0.61282682  0.43253822  1
  Al  Al5  1  0.43253822  0.20673541  0.61282682  1
  Ge  Ge0  1  0.86778099  0.27865078  0.10083243  1
  Ge  Ge1  1  0.10083243  0.86778099  0.27865078  1
  Ge  Ge2  1  0.27865078  0.10083243  0.86778099  1
  Ge  Ge3  1  0.38684534  0.56814927  0.79479773  1
  Ge  Ge4  1  0.79479773  0.38684534  0.56814927  1
  Ge  Ge5  1  0.56814927  0.79479773  0.38684534  1
  O  O0  1  0.25219376  0.58778989  0.91199591  1
  O  O1  1  0.91199591  0.25219376  0.58778989  1
  O  O2  1  0.58778989  0.91199591  0.25219376  1
  O  O3  1  0.74681683  0.41108802  0.08803828  1
  O  O4  1  0.08803828  0.74681683  0.41108802  1
  O  O5  1  0.41108802  0.08803828  0.74681683  1
  O  O6  1  0.32538089  0.04545886  0.37947457  1
  O  O7  1  0.37947457  0.32538089  0.04545886  1
  O  O8  1  0.04545886  0.37947457  0.32537989  1
  O  O9  1  0.67362603  0.95427691  0.61952665  1
  O  O10  1  0.61952665  0.67362603  0.95427691  1
  O  O11  1  0.95427691  0.61952665  0.67362603  1
  O  O12  1  0.35624301  0.68751753  0.66146424  1
  O  O13  1  0.66146424  0.35624301  0.68751753  1
  O  O14  1  0.68751753  0.66146424  0.35624301  1
  O  O15  1  0.64547146  0.31232939  0.33947524  1
  O  O16  1  0.33947524  0.64547146  0.31232939  1
  O  O17  1  0.31232939  0.33947524  0.64547146  1
  O  O18  1  0.05010734  0.03008851  0.71828308  1
  O  O19  1  0.71828308  0.05010734  0.03008851  1
  O  O20  1  0.03008851  0.71828308  0.05010734  1
  O  O21  1  0.95095972  0.96973533  0.28203691  1
  O  O22  1  0.28203691  0.95095972  0.96973533  1
  O  O23  1  0.96973533  0.28203691  0.95095972  1
loop_
_geom_bond_atom_site_label_1
_geom_bond_atom_site_label_2
_geom_bond_distance
_geom_bond_site_symmetry_2
Li0 O1 1.918730 1_455
Li0 O17 1.947891 1_555
Li0 O21 1.960568 1_445
Li0 O8 1.966925 1_555
Li1 O2 1.918729 1_545
Li1 O15 1.947891 1_555
Li1 O22 1.960568 1_544
Li1 O6 1.966918 1_555
Li2 O0 1.918730 1_554
Li2 O16 1.947891 1_555
Li2 O23 1.960568 1_454
Li2 O7 1.966918 1_555
Li3 O4 1.924681 1_655
Li3 O14 1.939452 1_555
Li3 O11 1.965481 1_555
Li3 O18 1.968437 1_665
Li4 O5 1.924681 1_565
Li4 O12 1.939452 1_555
Li4 O9 1.965481 1_555
Li4 O19 1.968437 1_566
Li5 O3 1.924681 1_556
Li5 O13 1.939452 1_555
Li5 O10 1.965481 1_555
Li5 O20 1.968437 1_656
Al0 O22 1.752470 1_555
Al0 O20 1.758268 1_556
Al0 O0 1.760345 1_555
Al0 O11 1.769840 1_455
Al1 O23 1.752470 1_555
Al1 O18 1.758268 1_655
Al1 O1 1.760345 1_555
Al1 O9 1.769840 1_545
Al2 O21 1.752470 1_555
Al2 O19 1.758268 1_565
Al2 O2 1.760345 1_555
Al2 O10 1.769840 1_554
Al3 O14 1.745896 1_555
Al3 O3 1.755101 1_555
Al3 O15 1.759504 1_555
Al3 O7 1.764872 1_555
Al4 O12 1.745896 1_555
Al4 O4 1.755101 1_555
Al4 O16 1.759504 1_555
Al4 O8 1.764871 1_555
Al5 O13 1.745896 1_555
Al5 O5 1.755101 1_555
Al5 O17 1.759503 1_555
Al5 O6 1.764872 1_555
Ge0 O19 1.750410 1_555
Ge0 O3 1.750820 1_555
Ge0 O23 1.752643 1_554
Ge0 O8 1.762520 1_655
Ge1 O20 1.750410 1_555
Ge1 O4 1.750820 1_555
Ge1 O21 1.752643 1_455
Ge1 O6 1.762526 1_565
Ge2 O18 1.750410 1_555
Ge2 O5 1.750820 1_555
Ge2 O22 1.752643 1_545
Ge2 O7 1.762526 1_556
Ge3 O17 1.744094 1_555
Ge3 O0 1.748541 1_555
Ge3 O12 1.755194 1_555
Ge3 O10 1.757512 1_555
Ge4 O15 1.744094 1_555
Ge4 O1 1.748541 1_555
Ge4 O13 1.755194 1_555
Ge4 O11 1.757512 1_555
Ge5 O16 1.744094 1_555
Ge5 O2 1.748541 1_555
Ge5 O14 1.755194 1_555
Ge5 O9 1.757512 1_555
