# generated using pymatgen
data_NaC2(NO)4
_symmetry_space_group_name_H-M   'P 1'
_cell_length_a   9.16856700
_cell_length_b   6.92115100
_cell_length_c   13.03708736
_cell_angle_alpha   64.77396717
_cell_angle_beta   90.00000000
_cell_angle_gamma   90.00000000
_symmetry_Int_Tables_number   1
_chemical_formula_structural   NaC2(NO)4
_chemical_formula_sum   'Na4 C8 N16 O16'
_cell_volume   748.39871057
_cell_formula_units_Z   4
loop_
 _symmetry_equiv_pos_site_id
 _symmetry_equiv_pos_as_xyz
  1  'x, y, z'
loop_
 _atom_site_type_symbol
 _atom_site_label
 _atom_site_symmetry_multiplicity
 _atom_site_fract_x
 _atom_site_fract_y
 _atom_site_fract_z
 _atom_site_occupancy
  Na  Na0  1  0.60345500  0.68921600  0.64975700  1
  Na  Na1  1  0.10345500  0.31078400  0.85024300  1
  Na  Na2  1  0.39654500  0.31078400  0.35024300  1
  Na  Na3  1  0.89654500  0.68921600  0.14975700  1
  C  C0  1  0.57918300  0.84923700  0.84359300  1
  C  C1  1  0.07918300  0.15076300  0.65640700  1
  C  C2  1  0.42081700  0.15076300  0.15640700  1
  C  C3  1  0.92081700  0.84923700  0.34359300  1
  C  C4  1  0.57869500  0.74629100  0.01941900  1
  C  C5  1  0.07869500  0.25370900  0.48058100  1
  C  C6  1  0.42130500  0.25370900  0.98058100  1
  C  C7  1  0.92130500  0.74629100  0.51941900  1
  N  N0  1  0.72884400  0.86181200  0.87860000  1
  N  N1  1  0.22884400  0.13818800  0.62140000  1
  N  N2  1  0.27115600  0.13818800  0.12140000  1
  N  N3  1  0.77115600  0.86181200  0.37860000  1
  N  N4  1  0.72547500  0.79468400  0.98753300  1
  N  N5  1  0.22547500  0.20531600  0.51246700  1
  N  N6  1  0.27452500  0.20531600  0.01246700  1
  N  N7  1  0.77452500  0.79468400  0.48753300  1
  N  N8  1  0.48576000  0.77890300  0.93727000  1
  N  N9  1  0.98576000  0.22109700  0.56273000  1
  N  N10  1  0.51424000  0.22109700  0.06273000  1
  N  N11  1  0.01424000  0.77890300  0.43727000  1
  N  N12  1  0.54222800  0.65116300  0.13708500  1
  N  N13  1  0.04222800  0.34883700  0.36291500  1
  N  N14  1  0.45777200  0.34883700  0.86291500  1
  N  N15  1  0.95777200  0.65116300  0.63708500  1
  O  O0  1  0.54546100  0.88463200  0.74523400  1
  O  O1  1  0.04546100  0.11536800  0.75476600  1
  O  O2  1  0.45453900  0.11536800  0.25476600  1
  O  O3  1  0.95453900  0.88463200  0.24523400  1
  O  O4  1  0.64418000  0.59882000  0.20825700  1
  O  O5  1  0.14418000  0.40118000  0.29174300  1
  O  O6  1  0.35582000  0.40118000  0.79174300  1
  O  O7  1  0.85582000  0.59882000  0.70825700  1
  O  O8  1  0.41092100  0.61709600  0.16484200  1
  O  O9  1  0.91092100  0.38290400  0.33515800  1
  O  O10  1  0.58907900  0.38290400  0.83515800  1
  O  O11  1  0.08907900  0.61709600  0.66484200  1
  O  O12  1  0.45527400  0.57406300  0.48261200  1
  O  O13  1  0.95527400  0.42593700  0.01738800  1
  O  O14  1  0.54472600  0.42593700  0.51738800  1
  O  O15  1  0.04472600  0.57406300  0.98261200  1
loop_
_geom_bond_atom_site_label_1
_geom_bond_atom_site_label_2
_geom_bond_distance
_geom_bond_site_symmetry_2
Na0 O0 2.257515 1_555
Na0 O7 2.433138 1_555
Na0 O10 2.446705 1_555
Na1 O1 2.257515 1_555
Na1 O6 2.433138 1_555
Na1 O11 2.446705 1_555
Na2 O2 2.257515 1_555
Na2 O5 2.433138 1_555
Na2 O8 2.446705 1_555
Na3 O3 2.257515 1_555
Na3 O4 2.433138 1_555
Na3 O9 2.446705 1_555
C0 O0 1.237811 1_555
C0 N8 1.398363 1_555
C0 N0 1.460340 1_555
C1 O1 1.237811 1_555
C1 N9 1.398363 1_455
C1 N1 1.460340 1_555
C2 O2 1.237811 1_555
C2 N10 1.398363 1_555
C2 N2 1.460340 1_555
C3 O3 1.237811 1_555
C3 N11 1.398363 1_655
C3 N3 1.460340 1_555
C4 N8 1.310704 1_554
C4 N4 1.406195 1_554
C4 N12 1.427445 1_555
C5 N9 1.310704 1_455
C5 N5 1.406195 1_555
C5 N13 1.427445 1_555
C6 N10 1.310704 1_556
C6 N6 1.406195 1_556
C6 N14 1.427445 1_555
C7 N11 1.310704 1_655
C7 N7 1.406195 1_555
C7 N15 1.427445 1_555
N0 N4 1.292779 1_555
N1 N5 1.292779 1_555
N2 N6 1.292779 1_555
N3 N7 1.292779 1_555
N4 Na3 2.479906 1_556
N5 Na2 2.479906 1_555
N6 Na1 2.479906 1_554
N7 Na0 2.479906 1_555
N12 O8 1.250274 1_555
N12 O4 1.256756 1_555
N13 O9 1.250274 1_455
N13 O5 1.256756 1_555
N14 O10 1.250274 1_555
N14 O6 1.256756 1_555
N15 O11 1.250274 1_655
N15 O7 1.256756 1_555
O12 O14 1.238161 1_555
O13 O15 1.238161 1_654
