# generated using pymatgen
data_Li3Tm(NO3)6
_symmetry_space_group_name_H-M   'P 1'
_cell_length_a   7.59268944
_cell_length_b   7.84745997
_cell_length_c   24.14198407
_cell_angle_alpha   91.27093370
_cell_angle_beta   90.00000000
_cell_angle_gamma   90.00000000
_symmetry_Int_Tables_number   1
_chemical_formula_structural   Li3Tm(NO3)6
_chemical_formula_sum   'Li12 Tm4 N24 O72'
_cell_volume   1438.10584221
_cell_formula_units_Z   4
loop_
 _symmetry_equiv_pos_site_id
 _symmetry_equiv_pos_as_xyz
  1  'x, y, z'
loop_
 _atom_site_type_symbol
 _atom_site_label
 _atom_site_symmetry_multiplicity
 _atom_site_fract_x
 _atom_site_fract_y
 _atom_site_fract_z
 _atom_site_occupancy
  Li  Li0  1  0.81581100  0.70651783  0.63408822  1
  Li  Li1  1  0.18418900  0.29348217  0.36591178  1
  Li  Li2  1  0.31581100  0.79348217  0.86591178  1
  Li  Li3  1  0.68418900  0.20651783  0.13408822  1
  Li  Li4  1  0.55777418  0.00052697  0.74535706  1
  Li  Li5  1  0.44222582  0.99947303  0.25464294  1
  Li  Li6  1  0.05777418  0.49947303  0.75464294  1
  Li  Li7  1  0.94222582  0.50052697  0.24535706  1
  Li  Li8  1  0.28995075  0.74256537  0.52591986  1
  Li  Li9  1  0.71004925  0.25743463  0.47408014  1
  Li  Li10  1  0.78995075  0.75743463  0.97408014  1
  Li  Li11  1  0.21004925  0.24256537  0.02591986  1
  Tm  Tm0  1  0.30593427  0.24273594  0.60967157  1
  Tm  Tm1  1  0.69406573  0.75726406  0.39032843  1
  Tm  Tm2  1  0.80593427  0.25726406  0.89032843  1
  Tm  Tm3  1  0.19406573  0.74273594  0.10967157  1
  N  N0  1  0.79825746  0.73540724  0.73524320  1
  N  N1  1  0.20174254  0.26459276  0.26475680  1
  N  N2  1  0.29825746  0.76459276  0.76475680  1
  N  N3  1  0.70174254  0.23540724  0.23524320  1
  N  N4  1  0.30196606  0.26086130  0.72954704  1
  N  N5  1  0.69803394  0.73913870  0.27045296  1
  N  N6  1  0.80196606  0.23913870  0.77045296  1
  N  N7  1  0.19803394  0.76086130  0.22954704  1
  N  N8  1  0.49369609  0.14560063  0.94572956  1
  N  N9  1  0.50630391  0.85439937  0.05427044  1
  N  N10  1  0.99369609  0.35439937  0.55427044  1
  N  N11  1  0.00630391  0.64560063  0.44572956  1
  N  N12  1  0.12771565  0.40030935  0.93586483  1
  N  N13  1  0.87228435  0.59969065  0.06413517  1
  N  N14  1  0.62771565  0.09969065  0.56413517  1
  N  N15  1  0.37228435  0.90030935  0.43586483  1
  N  N16  1  0.11482382  0.92630750  0.60656636  1
  N  N17  1  0.88517618  0.07369250  0.39343364  1
  N  N18  1  0.61482382  0.57369250  0.89343364  1
  N  N19  1  0.38517618  0.42630750  0.10656636  1
  N  N20  1  0.00676327  0.94714086  0.90251892  1
  N  N21  1  0.99323673  0.05285914  0.09748108  1
  N  N22  1  0.50676327  0.55285914  0.59748108  1
  N  N23  1  0.49323673  0.44714086  0.40251892  1
  O  O0  1  0.39704344  0.15362411  0.70130354  1
  O  O1  1  0.60295656  0.84637589  0.29869646  1
  O  O2  1  0.89704344  0.34637589  0.79869646  1
  O  O3  1  0.10295656  0.65362411  0.20130354  1
  O  O4  1  0.52485943  0.09209989  0.89652200  1
  O  O5  1  0.47514057  0.90790011  0.10347800  1
  O  O6  1  0.02485943  0.40790011  0.60347800  1
  O  O7  1  0.97514057  0.59209989  0.39652200  1
  O  O8  1  0.60821483  0.24643799  0.96778255  1
  O  O9  1  0.39178517  0.75356201  0.03221745  1
  O  O10  1  0.10821483  0.25356201  0.53221745  1
  O  O11  1  0.89178517  0.74643799  0.46778255  1
  O  O12  1  0.30025764  0.26888213  0.78017485  1
  O  O13  1  0.69974236  0.73111787  0.21982515  1
  O  O14  1  0.80025764  0.23111787  0.71982515  1
  O  O15  1  0.19974236  0.76888213  0.28017485  1
  O  O16  1  0.26351864  0.45694553  0.95758359  1
  O  O17  1  0.73648136  0.54305447  0.04241641  1
  O  O18  1  0.76351864  0.04305447  0.54241641  1
  O  O19  1  0.23648136  0.95694553  0.45758359  1
  O  O20  1  0.04859849  0.05793890  0.86726790  1
  O  O21  1  0.95140151  0.94206110  0.13273210  1
  O  O22  1  0.54859849  0.44206110  0.63273210  1
  O  O23  1  0.45140151  0.55793890  0.36726790  1
  O  O24  1  0.35830220  0.10183431  0.97103707  1
  O  O25  1  0.64169780  0.89816569  0.02896293  1
  O  O26  1  0.85830220  0.39816569  0.52896293  1
  O  O27  1  0.14169780  0.60183431  0.47103707  1
  O  O28  1  0.29638074  0.75462404  0.71341394  1
  O  O29  1  0.70361926  0.24537596  0.28658606  1
  O  O30  1  0.79638074  0.74537596  0.78658606  1
  O  O31  1  0.20361926  0.25462404  0.21341394  1
  O  O32  1  0.63831177  0.47328481  0.42924116  1
  O  O33  1  0.36168823  0.52671519  0.57075884  1
  O  O34  1  0.13831177  0.02671519  0.07075884  1
  O  O35  1  0.86168823  0.97328481  0.92924116  1
  O  O36  1  0.03330536  0.79063711  0.59914349  1
  O  O37  1  0.96669464  0.20936289  0.40085651  1
  O  O38  1  0.53330536  0.70936289  0.90085651  1
  O  O39  1  0.46669464  0.29063711  0.09914349  1
  O  O40  1  0.02083974  0.30357249  0.96434035  1
  O  O41  1  0.97916026  0.69642751  0.03565965  1
  O  O42  1  0.52083974  0.19642751  0.53565965  1
  O  O43  1  0.47916026  0.80357249  0.46434035  1
  O  O44  1  0.08210381  0.42725676  0.88662716  1
  O  O45  1  0.91789619  0.57274324  0.11337284  1
  O  O46  1  0.58210381  0.07274324  0.61337284  1
  O  O47  1  0.41789619  0.92725676  0.38662716  1
  O  O48  1  0.20808735  0.36050993  0.69935579  1
  O  O49  1  0.79191265  0.63949007  0.30064421  1
  O  O50  1  0.70808735  0.13949007  0.80064421  1
  O  O51  1  0.29191265  0.86050993  0.19935579  1
  O  O52  1  0.59814235  0.68034226  0.58806326  1
  O  O53  1  0.40185765  0.31965774  0.41193674  1
  O  O54  1  0.09814235  0.81965774  0.91193674  1
  O  O55  1  0.90185765  0.18034226  0.08806326  1
  O  O56  1  0.06384523  0.04840330  0.63769713  1
  O  O57  1  0.93615477  0.95159670  0.36230287  1
  O  O58  1  0.56384523  0.45159670  0.86230287  1
  O  O59  1  0.43615477  0.54840330  0.13769713  1
  O  O60  1  0.26206009  0.94816128  0.58074028  1
  O  O61  1  0.73793991  0.05183872  0.41925972  1
  O  O62  1  0.76206009  0.55183872  0.91925972  1
  O  O63  1  0.23793991  0.44816128  0.08074028  1
  O  O64  1  0.39141815  0.87643230  0.79115121  1
  O  O65  1  0.60858185  0.12356770  0.20884879  1
  O  O66  1  0.89141815  0.62356770  0.70884879  1
  O  O67  1  0.10858185  0.37643230  0.29115121  1
  O  O68  1  0.70835596  0.83514421  0.70484062  1
  O  O69  1  0.29164404  0.16485579  0.29515938  1
  O  O70  1  0.20835596  0.66485579  0.79515938  1
  O  O71  1  0.79164404  0.33514421  0.20484062  1
loop_
_geom_bond_atom_site_label_1
_geom_bond_atom_site_label_2
_geom_bond_distance
_geom_bond_site_symmetry_2
Li0 O36 1.974639 1_655
Li0 O52 1.999518 1_555
Li0 O66 2.015676 1_555
Li0 O68 2.127358 1_555
Li1 O37 1.974639 1_455
Li1 O53 1.999518 1_555
Li1 O67 2.015676 1_555
Li1 O69 2.127358 1_555
Li2 O38 1.974639 1_555
Li2 O54 1.999518 1_555
Li2 O64 2.015676 1_555
Li2 O70 2.127358 1_555
Li3 O39 1.974639 1_555
Li3 O55 1.999518 1_555
Li3 O65 2.015676 1_555
Li3 O71 2.127358 1_555
Li4 O64 1.952886 1_545
Li4 O68 1.972819 1_545
Li4 O0 2.029911 1_555
Li4 O50 2.051511 1_555
Li5 O65 1.952886 1_565
Li5 O69 1.972819 1_565
Li5 O1 2.029911 1_555
Li5 O51 2.051511 1_555
Li6 O66 1.952886 1_455
Li6 O70 1.972819 1_555
Li6 O2 2.029911 1_455
Li6 O48 2.051511 1_555
Li7 O67 1.952886 1_655
Li7 O71 1.972819 1_555
Li7 O3 2.029911 1_655
Li7 O49 2.051511 1_555
Li8 O27 2.043864 1_555
Li8 O60 2.074797 1_555
Li8 O33 2.102152 1_555
Li8 O43 2.129496 1_555
Li8 O19 2.416600 1_555
Li9 O26 2.043864 1_555
Li9 O61 2.074797 1_555
Li9 O32 2.102152 1_555
Li9 O42 2.129496 1_555
Li9 O18 2.416600 1_555
Li10 O25 2.043864 1_556
Li10 O62 2.074797 1_555
Li10 O35 2.102152 1_555
Li10 O41 2.129496 1_556
Li10 O17 2.416600 1_556
Li11 O24 2.043864 1_554
Li11 O63 2.074797 1_555
Li11 O34 2.102152 1_555
Li11 O40 2.129496 1_554
Li11 O16 2.416600 1_554
N0 O30 1.240334 1_555
N0 O68 1.281692 1_555
N0 O66 1.285240 1_555
N1 O31 1.240334 1_555
N1 O69 1.281692 1_555
N1 O67 1.285240 1_555
N2 O28 1.240334 1_555
N2 O70 1.281692 1_555
N2 O64 1.285240 1_555
N3 O29 1.240334 1_555
N3 O71 1.281692 1_555
N3 O65 1.285240 1_555
N4 O12 1.222549 1_555
N4 O0 1.291816 1_555
N4 O48 1.294652 1_555
N5 O13 1.222549 1_555
N5 O1 1.291816 1_555
N5 O49 1.294652 1_555
N6 O14 1.222549 1_555
N6 O2 1.291816 1_555
N6 O50 1.294652 1_555
N7 O15 1.222549 1_555
N7 O3 1.291816 1_555
N7 O51 1.294652 1_555
N8 O24 1.247938 1_555
N8 O4 1.273342 1_555
N8 O8 1.283350 1_555
N9 O25 1.247938 1_555
N9 O5 1.273342 1_555
N9 O9 1.283350 1_555
N10 O26 1.247938 1_555
N10 O6 1.273342 1_655
N10 O10 1.283350 1_655
N11 O27 1.247938 1_555
N11 O7 1.273342 1_455
N11 O11 1.283350 1_455
N12 O16 1.235035 1_555
N12 O44 1.260476 1_555
N12 O40 1.315496 1_555
N13 O17 1.235035 1_555
N13 O45 1.260476 1_555
N13 O41 1.315496 1_555
N14 O18 1.235035 1_555
N14 O46 1.260476 1_555
N14 O42 1.315496 1_555
N15 O19 1.235035 1_555
N15 O47 1.260476 1_555
N15 O43 1.315496 1_555
N16 O36 1.241072 1_555
N16 O56 1.265208 1_565
N16 O60 1.293306 1_555
N17 O37 1.241072 1_555
N17 O57 1.265208 1_545
N17 O61 1.293306 1_555
N18 O38 1.241072 1_555
N18 O58 1.265208 1_555
N18 O62 1.293306 1_555
N19 O39 1.241072 1_555
N19 O59 1.265208 1_555
N19 O63 1.293306 1_555
N20 O54 1.242578 1_555
N20 O20 1.270423 1_565
N20 O35 1.290633 1_455
N21 O55 1.242578 1_555
N21 O21 1.270423 1_545
N21 O34 1.290633 1_655
N22 O52 1.242578 1_555
N22 O22 1.270423 1_555
N22 O33 1.290633 1_555
N23 O53 1.242578 1_555
N23 O23 1.270423 1_555
N23 O32 1.290633 1_555
O0 Tm0 2.435141 1_555
O1 Tm1 2.435141 1_555
O2 Tm2 2.435141 1_555
O3 Tm3 2.435141 1_555
O4 Tm2 2.503063 1_555
O5 Tm3 2.503063 1_555
O6 Tm0 2.503063 1_555
O7 Tm1 2.503063 1_555
O8 Tm2 2.400926 1_555
O9 Tm3 2.400926 1_555
O10 Tm0 2.400926 1_555
O11 Tm1 2.400926 1_555
O20 Tm2 2.472395 1_455
O21 Tm3 2.472395 1_655
O22 Tm0 2.472395 1_555
O23 Tm1 2.472395 1_555
O32 Tm1 2.474042 1_555
O33 Tm0 2.474042 1_555
O34 Tm3 2.474042 1_545
O35 Tm2 2.474042 1_565
O40 Tm2 2.440978 1_455
O41 Tm3 2.440978 1_655
O42 Tm0 2.440978 1_555
O43 Tm1 2.440978 1_555
O44 Tm2 2.487915 1_455
O45 Tm3 2.487915 1_655
O46 Tm0 2.487915 1_555
O47 Tm1 2.487915 1_555
O48 Tm0 2.450562 1_555
O49 Tm1 2.450562 1_555
O50 Tm2 2.450562 1_555
O51 Tm3 2.450562 1_555
O56 Tm0 2.491559 1_555
O57 Tm1 2.491559 1_555
O58 Tm2 2.491559 1_555
O59 Tm3 2.491559 1_555
O60 Tm0 2.423010 1_565
O61 Tm1 2.423010 1_545
O62 Tm2 2.423010 1_555
O63 Tm3 2.423010 1_555
