# generated using pymatgen
data_HfMg6Sb
_symmetry_space_group_name_H-M   'P 1'
_cell_length_a   5.32390600
_cell_length_b   6.07404400
_cell_length_c   11.17474200
_cell_angle_alpha   90.00000000
_cell_angle_beta   90.00000000
_cell_angle_gamma   90.00000000
_symmetry_Int_Tables_number   1
_chemical_formula_structural   HfMg6Sb
_chemical_formula_sum   'Hf2 Mg12 Sb2'
_cell_volume   361.36477602
_cell_formula_units_Z   2
loop_
 _symmetry_equiv_pos_site_id
 _symmetry_equiv_pos_as_xyz
  1  'x, y, z'
loop_
 _atom_site_type_symbol
 _atom_site_label
 _atom_site_symmetry_multiplicity
 _atom_site_fract_x
 _atom_site_fract_y
 _atom_site_fract_z
 _atom_site_occupancy
  Hf  Hf0  1  0.50000000  0.50000000  0.16934300  1
  Hf  Hf1  1  0.50000000  0.00000000  0.66934300  1
  Mg  Mg0  1  0.50000000  0.25208500  0.41738600  1
  Mg  Mg1  1  0.50000000  0.74791500  0.41738600  1
  Mg  Mg2  1  0.00000000  0.74312000  0.08149400  1
  Mg  Mg3  1  0.00000000  0.25688000  0.08149400  1
  Mg  Mg4  1  0.00000000  0.00000000  0.33535500  1
  Mg  Mg5  1  0.00000000  0.50000000  0.33017300  1
  Mg  Mg6  1  0.50000000  0.75208500  0.91738600  1
  Mg  Mg7  1  0.50000000  0.24791500  0.91738600  1
  Mg  Mg8  1  0.00000000  0.24312000  0.58149400  1
  Mg  Mg9  1  0.00000000  0.75688000  0.58149400  1
  Mg  Mg10  1  0.00000000  0.50000000  0.83535500  1
  Mg  Mg11  1  0.00000000  0.00000000  0.83017300  1
  Sb  Sb0  1  0.50000000  0.00000000  0.16736500  1
  Sb  Sb1  1  0.50000000  0.50000000  0.66736500  1
loop_
_geom_bond_atom_site_label_1
_geom_bond_atom_site_label_2
_geom_bond_distance
_geom_bond_site_symmetry_2
Hf0 Sb0 3.037102 1_555
Hf0 Sb0 3.037102 1_565
Hf0 Mg1 3.154448 1_555
Hf0 Mg0 3.154448 1_555
Hf0 Mg2 3.198502 1_655
Hf0 Mg3 3.198502 1_555
Hf0 Mg2 3.198502 1_555
Hf0 Mg3 3.198502 1_655
Hf0 Mg6 3.204972 1_554
Hf0 Mg7 3.204972 1_554
Hf0 Mg5 3.211860 1_655
Hf0 Mg5 3.211860 1_555
Hf1 Sb1 3.037102 1_555
Hf1 Sb1 3.037102 1_545
Hf1 Mg7 3.154448 1_555
Hf1 Mg6 3.154448 1_545
Hf1 Mg8 3.198502 1_555
Hf1 Mg8 3.198502 1_655
Hf1 Mg9 3.198502 1_545
Hf1 Mg9 3.198502 1_645
Hf1 Mg1 3.204972 1_545
Hf1 Mg0 3.204972 1_555
Hf1 Mg11 3.211860 1_655
Hf1 Mg11 3.211860 1_555
Mg0 Mg1 3.011693 1_555
Mg0 Mg1 3.062351 1_545
Mg0 Sb1 3.173475 1_555
Mg0 Sb0 3.185983 1_555
Mg0 Mg4 3.204807 1_555
Mg0 Mg4 3.204807 1_655
Mg0 Mg5 3.209888 1_555
Mg0 Mg5 3.209888 1_655
Mg0 Mg8 3.232958 1_555
Mg0 Mg8 3.232958 1_655
Mg1 Sb1 3.173475 1_555
Mg1 Sb0 3.185983 1_565
Mg1 Mg4 3.204807 1_565
Mg1 Mg4 3.204807 1_665
Mg1 Mg5 3.209888 1_655
Mg1 Mg5 3.209888 1_555
Mg1 Mg9 3.232958 1_555
Mg1 Mg9 3.232958 1_655
Mg2 Mg3 2.953443 1_555
Mg2 Mg3 3.120601 1_565
Mg2 Mg5 3.146923 1_555
Mg2 Sb0 3.231306 1_565
Mg2 Sb0 3.231306 1_465
Mg2 Mg6 3.232958 1_454
Mg2 Mg6 3.232958 1_554
Mg2 Mg4 3.237615 1_565
Mg3 Mg5 3.146923 1_555
Mg3 Sb0 3.231306 1_455
Mg3 Sb0 3.231306 1_555
Mg3 Mg7 3.232958 1_554
Mg3 Mg7 3.232958 1_454
Mg3 Mg4 3.237615 1_555
Mg4 Mg5 3.037574 1_555
Mg4 Mg5 3.037574 1_545
Mg4 Mg9 3.121887 1_545
Mg4 Mg8 3.121887 1_555
Mg4 Sb0 3.257306 1_455
Mg4 Sb0 3.257306 1_555
Mg5 Mg8 3.212774 1_555
Mg5 Mg9 3.212774 1_555
Mg6 Mg7 3.011693 1_565
Mg6 Mg7 3.062351 1_555
Mg6 Sb0 3.173475 1_566
Mg6 Sb1 3.185983 1_555
Mg7 Sb0 3.173475 1_556
Mg7 Sb1 3.185983 1_555
Mg8 Mg9 2.953443 1_545
Mg8 Mg9 3.120601 1_555
Mg8 Sb1 3.231306 1_455
Mg8 Sb1 3.231306 1_555
Mg9 Sb1 3.231306 1_455
Mg9 Sb1 3.231306 1_555
Mg10 Mg11 3.037574 1_565
Mg10 Mg11 3.037574 1_555
Mg10 Mg2 3.121887 1_556
Mg10 Mg3 3.121887 1_556
Mg10 Mg6 3.204807 1_555
Mg10 Mg6 3.204807 1_455
Mg10 Mg7 3.204807 1_455
Mg10 Mg7 3.204807 1_555
Mg10 Mg8 3.237615 1_555
Mg10 Mg9 3.237615 1_555
Mg10 Sb1 3.257306 1_455
Mg10 Sb1 3.257306 1_555
Mg11 Mg9 3.146923 1_545
Mg11 Mg8 3.146923 1_555
Mg11 Mg7 3.209888 1_455
Mg11 Mg6 3.209888 1_445
Mg11 Mg6 3.209888 1_545
Mg11 Mg7 3.209888 1_555
Mg11 Mg2 3.212774 1_546
Mg11 Mg3 3.212774 1_556
