# generated using pymatgen
data_ZnFePO5
_symmetry_space_group_name_H-M   'P 1'
_cell_length_a   9.75293193
_cell_length_b   12.08134826
_cell_length_c   12.87985082
_cell_angle_alpha   90.00000000
_cell_angle_beta   90.00000000
_cell_angle_gamma   107.74883217
_symmetry_Int_Tables_number   1
_chemical_formula_structural   ZnFePO5
_chemical_formula_sum   'Zn16 Fe16 P16 O80'
_cell_volume   1445.37897852
_cell_formula_units_Z   16
loop_
 _symmetry_equiv_pos_site_id
 _symmetry_equiv_pos_as_xyz
  1  'x, y, z'
loop_
 _atom_site_type_symbol
 _atom_site_label
 _atom_site_symmetry_multiplicity
 _atom_site_fract_x
 _atom_site_fract_y
 _atom_site_fract_z
 _atom_site_occupancy
  Zn  Zn0  1  0.29570249  0.80629111  0.76008430  1
  Zn  Zn1  1  0.70429751  0.19370889  0.23991570  1
  Zn  Zn2  1  0.70429751  0.69370889  0.26008430  1
  Zn  Zn3  1  0.29570249  0.30629111  0.73991570  1
  Zn  Zn4  1  0.54514996  0.90533085  0.56961149  1
  Zn  Zn5  1  0.45485004  0.09466915  0.43038851  1
  Zn  Zn6  1  0.45485004  0.59466915  0.06961149  1
  Zn  Zn7  1  0.54514996  0.40533085  0.93038851  1
  Zn  Zn8  1  0.95996200  0.58793230  0.18045012  1
  Zn  Zn9  1  0.04003800  0.41206770  0.81954988  1
  Zn  Zn10  1  0.04003800  0.91206770  0.68045012  1
  Zn  Zn11  1  0.95996200  0.08793230  0.31954988  1
  Zn  Zn12  1  0.80042241  0.80321696  0.48871588  1
  Zn  Zn13  1  0.19957759  0.19678304  0.51128412  1
  Zn  Zn14  1  0.19957759  0.69678304  0.98871588  1
  Zn  Zn15  1  0.80042241  0.30321696  0.01128412  1
  Fe  Fe0  1  0.47808181  0.61336213  0.56954352  1
  Fe  Fe1  1  0.52191819  0.38663787  0.43045648  1
  Fe  Fe2  1  0.52191819  0.88663787  0.06954352  1
  Fe  Fe3  1  0.47808181  0.11336213  0.93045648  1
  Fe  Fe4  1  0.77854654  0.80038473  0.00724675  1
  Fe  Fe5  1  0.22145346  0.19961527  0.99275325  1
  Fe  Fe6  1  0.22145346  0.69961527  0.50724675  1
  Fe  Fe7  1  0.77854654  0.30038473  0.49275325  1
  Fe  Fe8  1  0.98034019  0.62096233  0.67836238  1
  Fe  Fe9  1  0.01965981  0.37903767  0.32163762  1
  Fe  Fe10  1  0.01965981  0.87903767  0.17836238  1
  Fe  Fe11  1  0.98034019  0.12096233  0.82163762  1
  Fe  Fe12  1  0.71653669  0.69791805  0.74027556  1
  Fe  Fe13  1  0.28346331  0.30208195  0.25972444  1
  Fe  Fe14  1  0.28346331  0.80208195  0.24027556  1
  Fe  Fe15  1  0.71653669  0.19791805  0.75972444  1
  P  P0  1  0.87905371  0.57747842  0.92646215  1
  P  P1  1  0.12094629  0.42252158  0.07353785  1
  P  P2  1  0.12094629  0.92252158  0.42646215  1
  P  P3  1  0.87905371  0.07747842  0.57353785  1
  P  P4  1  0.88492774  0.57313933  0.42253128  1
  P  P5  1  0.11507226  0.42686067  0.57746872  1
  P  P6  1  0.11507226  0.92686067  0.92253128  1
  P  P7  1  0.88492774  0.07313933  0.07746872  1
  P  P8  1  0.37964194  0.57463661  0.82647187  1
  P  P9  1  0.62035806  0.42536339  0.17352813  1
  P  P10  1  0.62035806  0.92536339  0.32647187  1
  P  P11  1  0.37964194  0.07463661  0.67352813  1
  P  P12  1  0.61866615  0.92166241  0.82196273  1
  P  P13  1  0.38133385  0.07833759  0.17803727  1
  P  P14  1  0.38133385  0.57833759  0.32196273  1
  P  P15  1  0.61866615  0.42166241  0.67803727  1
  O  O0  1  0.47081877  0.54631244  0.91455956  1
  O  O1  1  0.52918123  0.45368756  0.08544044  1
  O  O2  1  0.52918123  0.95368756  0.41455956  1
  O  O3  1  0.47081877  0.04631244  0.58544044  1
  O  O4  1  0.98909923  0.61942589  0.51573581  1
  O  O5  1  0.01090077  0.38057411  0.48426419  1
  O  O6  1  0.01090077  0.88057411  0.01573581  1
  O  O7  1  0.98909923  0.11942589  0.98426419  1
  O  O8  1  0.91608969  0.75411180  0.70785273  1
  O  O9  1  0.08391031  0.24588820  0.29214727  1
  O  O10  1  0.08391031  0.74588820  0.20785273  1
  O  O11  1  0.91608969  0.25411180  0.79214727  1
  O  O12  1  0.75883576  0.46583583  0.45785968  1
  O  O13  1  0.24116424  0.53416417  0.54214032  1
  O  O14  1  0.24116424  0.03416417  0.95785968  1
  O  O15  1  0.75883576  0.96583583  0.04214032  1
  O  O16  1  0.48337746  0.61559305  0.73121332  1
  O  O17  1  0.51662254  0.38440695  0.26878668  1
  O  O18  1  0.51662254  0.88440695  0.23121332  1
  O  O19  1  0.48337746  0.11559305  0.76878668  1
  O  O20  1  0.68135475  0.82610475  0.35931897  1
  O  O21  1  0.31864525  0.17389525  0.64068103  1
  O  O22  1  0.31864525  0.67389525  0.85931897  1
  O  O23  1  0.68135475  0.32610475  0.14068103  1
  O  O24  1  0.79944467  0.66971191  0.90808687  1
  O  O25  1  0.20055533  0.33028809  0.09191313  1
  O  O26  1  0.20055533  0.83028809  0.40808687  1
  O  O27  1  0.79944467  0.16971191  0.59191313  1
  O  O28  1  0.51096549  0.87930449  0.73112403  1
  O  O29  1  0.48903451  0.12069551  0.26887597  1
  O  O30  1  0.48903451  0.62069551  0.23112403  1
  O  O31  1  0.51096549  0.37930449  0.76887597  1
  O  O32  1  0.82599149  0.67201740  0.38685393  1
  O  O33  1  0.17400851  0.32798260  0.61314607  1
  O  O34  1  0.17400851  0.82798260  0.88685393  1
  O  O35  1  0.82599149  0.17201740  0.11314607  1
  O  O36  1  0.98375379  0.11554495  0.47959908  1
  O  O37  1  0.01624621  0.88445505  0.52040092  1
  O  O38  1  0.01624621  0.38445505  0.97959908  1
  O  O39  1  0.98375379  0.61554495  0.02040092  1
  O  O40  1  0.73802079  0.53588948  0.70793180  1
  O  O41  1  0.26197921  0.46411052  0.29206820  1
  O  O42  1  0.26197921  0.96411052  0.20793180  1
  O  O43  1  0.73802079  0.03588948  0.79206820  1
  O  O44  1  0.97643077  0.56766965  0.83220200  1
  O  O45  1  0.02356923  0.43233035  0.16779800  1
  O  O46  1  0.02356923  0.93233035  0.33220200  1
  O  O47  1  0.97643077  0.06766965  0.66779800  1
  O  O48  1  0.82681458  0.78213509  0.15205176  1
  O  O49  1  0.17318542  0.21786491  0.84794824  1
  O  O50  1  0.17318542  0.71786491  0.65205176  1
  O  O51  1  0.82681458  0.28213509  0.34794824  1
  O  O52  1  0.25612699  0.96452786  0.70430887  1
  O  O53  1  0.74387301  0.03547214  0.29569113  1
  O  O54  1  0.74387301  0.53547214  0.20430887  1
  O  O55  1  0.25612699  0.46452786  0.79569113  1
  O  O56  1  0.67221715  0.70947249  0.59296171  1
  O  O57  1  0.32778285  0.29052751  0.40703829  1
  O  O58  1  0.32778285  0.79052751  0.09296171  1
  O  O59  1  0.67221715  0.20947249  0.90703829  1
  O  O60  1  0.97559486  0.53779904  0.33658917  1
  O  O61  1  0.02440514  0.46220096  0.66341083  1
  O  O62  1  0.02440514  0.96220096  0.83658917  1
  O  O63  1  0.97559486  0.03779904  0.16341083  1
  O  O64  1  0.42048613  0.74847705  0.54135430  1
  O  O65  1  0.57951387  0.25152295  0.45864570  1
  O  O66  1  0.57951387  0.75152295  0.04135430  1
  O  O67  1  0.42048613  0.24847705  0.95864570  1
  O  O68  1  0.69437109  0.82785076  0.84407127  1
  O  O69  1  0.30562891  0.17214924  0.15592873  1
  O  O70  1  0.30562891  0.67214924  0.34407127  1
  O  O71  1  0.69437109  0.32785076  0.65592873  1
  O  O72  1  0.76527405  0.95783427  0.55429690  1
  O  O73  1  0.23472595  0.04216573  0.44570310  1
  O  O74  1  0.23472595  0.54216573  0.05429690  1
  O  O75  1  0.76527405  0.45783427  0.94570310  1
  O  O76  1  0.52808304  0.94434077  0.91625833  1
  O  O77  1  0.47191696  0.05565923  0.08374167  1
  O  O78  1  0.47191696  0.55565923  0.41625833  1
  O  O79  1  0.52808304  0.44434077  0.58374167  1
loop_
_geom_bond_atom_site_label_1
_geom_bond_atom_site_label_2
_geom_bond_distance
_geom_bond_site_symmetry_2
Fe0 O64 1.915997 1_555
Fe0 O56 1.919310 1_555
Fe0 O16 2.082894 1_555
Fe0 O78 2.088509 1_555
Fe0 O13 2.243033 1_555
Fe0 O79 2.246813 1_555
Fe1 O65 1.915997 1_555
Fe1 O57 1.919310 1_555
Fe1 O17 2.082894 1_555
Fe1 O79 2.088509 1_555
Fe1 O12 2.243033 1_555
Fe1 O78 2.246813 1_555
Fe2 O66 1.915997 1_555
Fe2 O58 1.919310 1_555
Fe2 O18 2.082894 1_555
Fe2 O76 2.088509 1_554
Fe2 O15 2.243033 1_555
Fe2 O77 2.246813 1_565
Fe3 O67 1.915997 1_555
Fe3 O59 1.919310 1_555
Fe3 O19 2.082894 1_555
Fe3 O77 2.088509 1_556
Fe3 O14 2.243033 1_555
Fe3 O76 2.246813 1_545
Fe4 O66 1.900234 1_555
Fe4 O48 1.952429 1_555
Fe4 O24 2.088343 1_554
Fe4 O15 2.113932 1_555
Fe4 O6 2.178844 1_655
Fe4 O68 2.316724 1_554
Fe5 O67 1.900234 1_555
Fe5 O49 1.952429 1_555
Fe5 O25 2.088343 1_556
Fe5 O14 2.113932 1_555
Fe5 O7 2.178844 1_455
Fe5 O69 2.316724 1_556
Fe6 O64 1.900234 1_555
Fe6 O50 1.952429 1_555
Fe6 O26 2.088343 1_555
Fe6 O13 2.113932 1_555
Fe6 O4 2.178844 1_455
Fe6 O70 2.316724 1_555
Fe7 O65 1.900234 1_555
Fe7 O51 1.952429 1_555
Fe7 O27 2.088343 1_555
Fe7 O12 2.113932 1_555
Fe7 O5 2.178844 1_655
Fe7 O71 2.316724 1_555
Fe8 O50 1.918430 1_655
Fe8 O8 1.933698 1_555
Fe8 O44 2.080167 1_555
Fe8 O4 2.096660 1_555
Fe8 O61 2.098398 1_655
Fe8 O40 2.303425 1_555
Fe9 O51 1.918430 1_455
Fe9 O9 1.933698 1_555
Fe9 O45 2.080167 1_555
Fe9 O5 2.096660 1_555
Fe9 O60 2.098398 1_455
Fe9 O41 2.303425 1_555
Fe10 O48 1.918430 1_455
Fe10 O10 1.933698 1_555
Fe10 O46 2.080167 1_555
Fe10 O6 2.096660 1_555
Fe10 O63 2.098398 1_465
Fe10 O42 2.303425 1_555
Fe11 O49 1.918430 1_655
Fe11 O11 1.933698 1_555
Fe11 O47 2.080167 1_555
Fe11 O7 2.096660 1_555
Fe11 O62 2.098398 1_645
Fe11 O43 2.303425 1_555
Fe12 O8 1.901977 1_555
Fe12 O56 1.960399 1_555
Fe12 O40 2.073504 1_555
Fe12 O68 2.122502 1_555
Fe12 O16 2.189732 1_555
Fe12 O24 2.368445 1_555
Fe13 O9 1.901977 1_555
Fe13 O57 1.960399 1_555
Fe13 O41 2.073504 1_555
Fe13 O69 2.122502 1_555
Fe13 O17 2.189732 1_555
Fe13 O25 2.368445 1_555
Fe14 O10 1.901977 1_555
Fe14 O58 1.960399 1_555
Fe14 O42 2.073504 1_555
Fe14 O70 2.122502 1_555
Fe14 O18 2.189732 1_555
Fe14 O26 2.368445 1_555
Fe15 O11 1.901977 1_555
Fe15 O59 1.960399 1_555
Fe15 O43 2.073504 1_555
Fe15 O71 2.122502 1_555
Fe15 O19 2.189732 1_555
Fe15 O27 2.368445 1_555
O0 P8 1.542916 1_555
O0 Zn7 2.054505 1_555
O0 Zn6 2.099816 1_556
O1 P9 1.542916 1_555
O1 Zn6 2.054505 1_555
O1 Zn7 2.099816 1_554
O2 P10 1.542916 1_555
O2 Zn5 2.054505 1_565
O2 Zn4 2.099816 1_555
O3 P11 1.542916 1_555
O3 Zn4 2.054505 1_545
O3 Zn5 2.099816 1_555
O4 P4 1.561934 1_555
O5 P5 1.561934 1_555
O6 P6 1.561934 1_554
O7 P7 1.561934 1_556
O8 Zn10 1.954765 1_655
O9 Zn11 1.954765 1_455
O10 Zn8 1.954765 1_455
O11 Zn9 1.954765 1_655
O12 P4 1.558192 1_555
O13 P5 1.558192 1_555
O14 P6 1.558192 1_545
O15 P7 1.558192 1_565
O16 P8 1.571156 1_555
O17 P9 1.571156 1_555
O18 P10 1.571156 1_555
O19 P11 1.571156 1_555
O20 P10 1.551083 1_555
O20 Zn12 2.097226 1_555
O20 Zn2 2.111956 1_555
O21 P11 1.551083 1_555
O21 Zn13 2.097226 1_555
O21 Zn3 2.111956 1_555
O22 P8 1.551083 1_555
O22 Zn14 2.097226 1_555
O22 Zn0 2.111956 1_555
O23 P9 1.551083 1_555
O23 Zn15 2.097226 1_555
O23 Zn1 2.111956 1_555
O24 P0 1.558206 1_555
O25 P1 1.558206 1_555
O26 P2 1.558206 1_555
O27 P3 1.558206 1_555
O28 P12 1.551245 1_555
O28 Zn0 2.048367 1_555
O28 Zn4 2.115084 1_555
O29 P13 1.551245 1_555
O29 Zn1 2.048367 1_555
O29 Zn5 2.115084 1_555
O30 P14 1.551245 1_555
O30 Zn2 2.048367 1_555
O30 Zn6 2.115084 1_555
O31 P15 1.551245 1_555
O31 Zn3 2.048367 1_555
O31 Zn7 2.115084 1_555
O32 P4 1.545062 1_555
O32 Zn2 2.081569 1_555
O32 Zn12 2.129995 1_555
O33 P5 1.545062 1_555
O33 Zn3 2.081569 1_555
O33 Zn13 2.129995 1_555
O34 P6 1.545062 1_555
O34 Zn0 2.081569 1_555
O34 Zn14 2.129995 1_555
O35 P7 1.545062 1_555
O35 Zn1 2.081569 1_555
O35 Zn15 2.129995 1_555
O36 P3 1.559422 1_555
O36 Zn13 2.073868 1_655
O36 Zn11 2.089820 1_555
O37 P2 1.559422 1_555
O37 Zn12 2.073868 1_455
O37 Zn10 2.089820 1_555
O38 P1 1.559422 1_556
O38 Zn15 2.073868 1_456
O38 Zn9 2.089820 1_555
O39 P0 1.559422 1_554
O39 Zn14 2.073868 1_654
O39 Zn8 2.089820 1_555
O40 P15 1.558305 1_555
O41 P14 1.558305 1_555
O42 P13 1.558305 1_565
O43 P12 1.558305 1_545
O44 P0 1.567975 1_555
O44 Zn9 2.157862 1_655
O45 P1 1.567975 1_555
O45 Zn8 2.157862 1_455
O46 P2 1.567975 1_555
O46 Zn11 2.157862 1_465
O47 P3 1.567975 1_555
O47 Zn10 2.157862 1_645
O48 Zn2 1.930518 1_555
O49 Zn3 1.930518 1_555
O50 Zn0 1.930518 1_555
O51 Zn1 1.930518 1_555
O52 P11 1.549483 1_565
O52 Zn10 2.030594 1_555
O52 Zn0 2.183935 1_555
O53 P10 1.549483 1_545
O53 Zn11 2.030594 1_555
O53 Zn1 2.183935 1_555
O54 P9 1.549483 1_555
O54 Zn8 2.030594 1_555
O54 Zn2 2.183935 1_555
O55 P8 1.549483 1_555
O55 Zn9 2.030594 1_555
O55 Zn3 2.183935 1_555
O56 Zn12 1.945636 1_555
O57 Zn13 1.945636 1_555
O58 Zn14 1.945636 1_554
O59 Zn15 1.945636 1_556
O60 P4 1.555535 1_555
O60 Zn8 2.119129 1_555
O61 P5 1.555535 1_555
O61 Zn9 2.119129 1_555
O62 P6 1.555535 1_555
O62 Zn10 2.119129 1_555
O63 P7 1.555535 1_555
O63 Zn11 2.119129 1_555
O64 Zn4 1.948597 1_555
O65 Zn5 1.948597 1_555
O66 Zn6 1.948597 1_555
O67 Zn7 1.948597 1_555
O68 P12 1.555946 1_555
O69 P13 1.555946 1_555
O70 P14 1.555946 1_555
O71 P15 1.555946 1_555
O72 P3 1.550558 1_565
O72 Zn4 2.054260 1_555
O72 Zn12 2.170430 1_555
O73 P2 1.550558 1_545
O73 Zn5 2.054260 1_555
O73 Zn13 2.170430 1_555
O74 P1 1.550558 1_555
O74 Zn6 2.054260 1_555
O74 Zn14 2.170430 1_554
O75 P0 1.550558 1_555
O75 Zn7 2.054260 1_555
O75 Zn15 2.170430 1_556
O76 P12 1.574221 1_555
O77 P13 1.574221 1_555
O78 P14 1.574221 1_555
O79 P15 1.574221 1_555
