# generated using pymatgen
data_Mg5Si9
_symmetry_space_group_name_H-M   'P 1'
_cell_length_a   7.32053200
_cell_length_b   7.47389728
_cell_length_c   10.62360788
_cell_angle_alpha   97.05482014
_cell_angle_beta   101.52863324
_cell_angle_gamma   116.75657181
_symmetry_Int_Tables_number   1
_chemical_formula_structural   Mg5Si9
_chemical_formula_sum   'Mg10 Si18'
_cell_volume   493.27075737
_cell_formula_units_Z   2
loop_
 _symmetry_equiv_pos_site_id
 _symmetry_equiv_pos_as_xyz
  1  'x, y, z'
loop_
 _atom_site_type_symbol
 _atom_site_label
 _atom_site_symmetry_multiplicity
 _atom_site_fract_x
 _atom_site_fract_y
 _atom_site_fract_z
 _atom_site_occupancy
  Mg  Mg0  1  0.70601000  0.26323000  0.24325500  1
  Mg  Mg1  1  0.93186800  0.52244200  0.55185900  1
  Mg  Mg2  1  0.85410700  0.08058000  0.49956000  1
  Mg  Mg3  1  0.18703200  0.01304600  0.66323600  1
  Mg  Mg4  1  0.40564400  0.19590300  0.41383800  1
  Mg  Mg5  1  0.38705900  0.80830300  0.50996600  1
  Mg  Mg6  1  0.45710900  0.13578600  0.95467200  1
  Mg  Mg7  1  0.28276600  0.36297900  0.14366100  1
  Mg  Mg8  1  0.12953400  0.36428900  0.83770300  1
  Mg  Mg9  1  0.72511800  0.62936500  0.08704000  1
  Si  Si0  1  0.68950000  0.98534100  0.77073700  1
  Si  Si1  1  0.42843700  0.76914800  0.02119800  1
  Si  Si2  1  0.32242800  0.46280200  0.62724000  1
  Si  Si3  1  0.63213700  0.59023300  0.37146900  1
  Si  Si4  1  0.70870600  0.72274500  0.62254000  1
  Si  Si5  1  0.99596500  0.04866300  0.25357200  1
  Si  Si6  1  0.91315400  0.63379600  0.80528000  1
  Si  Si7  1  0.12847100  0.63767300  0.23821000  1
  Si  Si8  1  0.54734100  0.40724000  0.80520700  1
  Si  Si9  1  0.12353000  0.38661900  0.38914500  1
  Si  Si10  1  0.24356100  0.95728600  0.13277400  1
  Si  Si11  1  0.01988600  0.98537400  0.91731300  1
  Si  Si12  1  0.30999900  0.75048100  0.76996100  1
  Si  Si13  1  0.51111600  0.83177000  0.27400600  1
  Si  Si14  1  0.78994500  0.02988100  0.03478700  1
  Si  Si15  1  0.91337100  0.39438800  0.02286700  1
  Si  Si16  1  0.00326000  0.80378500  0.38386700  1
  Si  Si17  1  0.65354600  0.22700400  0.65530700  1
loop_
_geom_bond_atom_site_label_1
_geom_bond_atom_site_label_2
_geom_bond_distance
_geom_bond_site_symmetry_2
Mg0 Si9 2.795002 1_655
Mg0 Si3 2.964387 1_555
Mg0 Si13 2.973792 1_545
Mg0 Si10 2.974791 1_545
Mg0 Si14 2.980612 1_555
Mg0 Si15 3.064562 1_555
Mg0 Si7 3.115987 1_655
Mg0 Si5 3.178735 1_555
Mg1 Si6 2.767543 1_555
Mg1 Si17 2.770369 1_555
Mg1 Si9 2.794285 1_655
Mg1 Si4 2.808936 1_555
Mg1 Si12 2.855562 1_655
Mg1 Si16 2.860915 1_655
Mg1 Si3 2.881399 1_555
Mg1 Si2 3.055237 1_655
Mg2 Si13 2.792976 1_545
Mg2 Si9 2.831886 1_655
Mg2 Si17 2.839704 1_555
Mg2 Si4 2.973787 1_545
Mg2 Si16 2.988008 1_645
Mg2 Si5 3.019810 1_555
Mg2 Si2 3.182023 1_655
Mg3 Si12 2.770547 1_545
Mg3 Si8 2.869366 1_555
Mg3 Si16 2.904092 1_545
Mg3 Si17 3.075417 1_555
Mg3 Si4 3.078868 1_445
Mg3 Si2 3.145665 1_555
Mg3 Si11 3.170986 1_545
Mg4 Si17 2.746076 1_555
Mg4 Si5 2.762492 1_455
Mg4 Si3 2.803907 1_555
Mg4 Si10 2.979020 1_545
Mg4 Si9 2.981873 1_555
Mg4 Si16 2.998336 1_545
Mg4 Si2 3.166277 1_555
Mg5 Si4 2.793100 1_555
Mg5 Si9 2.800720 1_555
Mg5 Si13 2.830873 1_555
Mg5 Si16 2.844058 1_555
Mg5 Si17 2.845146 1_565
Mg5 Si7 2.877877 1_555
Mg5 Si0 2.887484 1_555
Mg5 Si2 2.893065 1_555
Mg5 Si12 2.971636 1_555
Mg6 Si8 2.660381 1_555
Mg6 Si10 2.779955 1_546
Mg6 Si11 2.794399 1_545
Mg6 Si1 2.840679 1_546
Mg6 Si12 2.877166 1_545
Mg6 Si15 2.879717 1_556
Mg6 Si14 2.891482 1_556
Mg6 Si0 3.238551 1_545
Mg7 Si3 2.808552 1_555
Mg7 Si15 2.876264 1_455
Mg7 Si10 2.899391 1_545
Mg7 Si5 2.915959 1_455
Mg7 Si7 2.921408 1_555
Mg7 Si11 3.007250 1_544
Mg7 Si9 3.078757 1_555
Mg7 Si13 3.097929 1_555
Mg7 Si14 3.176312 1_455
Mg7 Si1 3.264191 1_555
Mg8 Si15 2.807181 1_456
Mg8 Si12 2.837460 1_555
Mg8 Si11 2.862266 1_545
Mg8 Si2 2.874974 1_555
Mg8 Si1 2.937421 1_556
Mg8 Si8 3.023625 1_555
Mg8 Si0 3.046077 1_445
Mg8 Si6 3.083864 1_455
Mg8 Si17 3.246957 1_455
Mg9 Si15 2.776476 1_555
Mg9 Si1 2.813002 1_555
Mg9 Si5 2.919458 1_565
Mg9 Si8 2.947958 1_554
Mg9 Si14 2.954367 1_565
Mg9 Si7 3.035907 1_655
Mg9 Si16 3.134144 1_655
Si0 Si17 2.382931 1_565
Si0 Si4 2.434801 1_555
Si0 Si12 2.528987 1_555
Si0 Si11 2.601610 1_655
Si0 Si14 2.691874 1_566
Si1 Si14 2.440611 1_565
Si1 Si13 2.566117 1_555
Si1 Si12 2.601848 1_554
Si1 Si10 2.675668 1_555
Si2 Si8 2.454000 1_555
Si2 Si9 2.503973 1_555
Si2 Si4 2.628087 1_555
Si3 Si4 2.581297 1_555
Si4 Si6 2.549969 1_555
Si5 Si9 2.402357 1_655
Si6 Si8 2.440191 1_555
Si7 Si9 2.606579 1_555
Si10 Si7 2.625448 1_555
Si10 Si11 2.625645 1_554
Si10 Si5 2.688423 1_465
Si10 Si13 2.791588 1_555
Si11 Si14 2.396561 1_466
Si11 Si6 2.437850 1_455
Si12 Si2 2.522013 1_555
Si12 Si6 2.752440 1_455
Si13 Si7 2.423930 1_555
Si13 Si3 2.578427 1_555
Si14 Si5 2.454519 1_555
Si14 Si15 2.483606 1_555
Si15 Si7 2.445331 1_655
Si16 Si3 2.418029 1_455
Si16 Si7 2.428095 1_555
Si16 Si5 2.439103 1_465
Si17 Si8 2.421984 1_555
Si17 Si6 2.791247 1_555
