# generated using pymatgen
data_TmCrB4
_symmetry_space_group_name_H-M   'P 1'
_cell_length_a   3.40747100
_cell_length_b   5.88731000
_cell_length_c   11.37200700
_cell_angle_alpha   90.00000000
_cell_angle_beta   90.00000000
_cell_angle_gamma   90.00000000
_symmetry_Int_Tables_number   1
_chemical_formula_structural   TmCrB4
_chemical_formula_sum   'Tm4 Cr4 B16'
_cell_volume   228.13199122
_cell_formula_units_Z   4
loop_
 _symmetry_equiv_pos_site_id
 _symmetry_equiv_pos_as_xyz
  1  'x, y, z'
loop_
 _atom_site_type_symbol
 _atom_site_label
 _atom_site_symmetry_multiplicity
 _atom_site_fract_x
 _atom_site_fract_y
 _atom_site_fract_z
 _atom_site_occupancy
  Tm  Tm0  1  0.00000000  0.62564000  0.34927400  1
  Tm  Tm1  1  0.00000000  0.37436000  0.65072600  1
  Tm  Tm2  1  0.00000000  0.12564000  0.15072600  1
  Tm  Tm3  1  0.00000000  0.87436000  0.84927400  1
  Cr  Cr0  1  0.00000000  0.62321600  0.07987500  1
  Cr  Cr1  1  0.00000000  0.37678400  0.92012500  1
  Cr  Cr2  1  0.00000000  0.12321600  0.42012500  1
  Cr  Cr3  1  0.00000000  0.87678400  0.57987500  1
  B  B0  1  0.50000000  0.78270000  0.18453300  1
  B  B1  1  0.50000000  0.21730000  0.81546700  1
  B  B2  1  0.50000000  0.28270000  0.31546700  1
  B  B3  1  0.50000000  0.71730000  0.68453300  1
  B  B4  1  0.50000000  0.86425600  0.03255200  1
  B  B5  1  0.50000000  0.13574400  0.96744800  1
  B  B6  1  0.50000000  0.36425600  0.46744800  1
  B  B7  1  0.50000000  0.63574400  0.53255200  1
  B  B8  1  0.50000000  0.88624300  0.45297800  1
  B  B9  1  0.50000000  0.11375700  0.54702200  1
  B  B10  1  0.50000000  0.38624300  0.04702200  1
  B  B11  1  0.50000000  0.61375700  0.95297800  1
  B  B12  1  0.50000000  0.97587600  0.30768100  1
  B  B13  1  0.50000000  0.02412400  0.69231900  1
  B  B14  1  0.50000000  0.47587600  0.19231900  1
  B  B15  1  0.50000000  0.52412400  0.80768100  1
loop_
_geom_bond_atom_site_label_1
_geom_bond_atom_site_label_2
_geom_bond_distance
_geom_bond_site_symmetry_2
B0 B4 1.793784 1_555
B0 B12 1.804066 1_555
B0 B14 1.808537 1_555
B0 Cr0 2.280530 1_655
B0 Cr0 2.280530 1_555
B0 Tm2 2.669617 1_665
B0 Tm2 2.669617 1_565
B0 Tm0 2.695825 1_555
B0 Tm0 2.695825 1_655
B1 B5 1.793784 1_555
B1 B13 1.804066 1_555
B1 B15 1.808537 1_555
B1 Cr1 2.280530 1_655
B1 Cr1 2.280530 1_555
B1 Tm3 2.669617 1_645
B1 Tm3 2.669617 1_545
B1 Tm1 2.695825 1_555
B1 Tm1 2.695825 1_655
B2 B6 1.793784 1_555
B2 Cr2 2.280530 1_555
B2 Cr2 2.280530 1_655
B2 Tm0 2.669617 1_555
B2 Tm0 2.669617 1_655
B2 Tm2 2.695825 1_555
B2 Tm2 2.695825 1_655
B3 B7 1.793784 1_555
B3 Cr3 2.280530 1_655
B3 Cr3 2.280530 1_555
B3 Tm1 2.669617 1_555
B3 Tm1 2.669617 1_655
B3 Tm3 2.695825 1_655
B3 Tm3 2.695825 1_555
B4 B5 1.761479 1_564
B4 Cr0 2.281690 1_655
B4 Cr0 2.281690 1_555
B4 Tm2 2.660220 1_665
B4 Tm2 2.660220 1_565
B4 Tm3 2.692639 1_654
B4 Tm3 2.692639 1_554
B5 Cr1 2.281690 1_655
B5 Cr1 2.281690 1_555
B5 Tm3 2.660220 1_645
B5 Tm3 2.660220 1_545
B5 Tm2 2.692639 1_556
B5 Tm2 2.692639 1_656
B6 B9 1.730262 1_555
B6 B7 1.761479 1_555
B6 Cr2 2.281690 1_555
B6 Cr2 2.281690 1_655
B6 Tm0 2.660220 1_555
B6 Tm0 2.660220 1_655
B6 Tm1 2.692639 1_655
B6 Tm1 2.692639 1_555
B7 B8 1.730262 1_555
B7 Cr3 2.281690 1_655
B7 Cr3 2.281690 1_555
B7 Tm1 2.660220 1_655
B7 Tm1 2.660220 1_555
B7 Tm0 2.692639 1_555
B7 Tm0 2.692639 1_655
B8 B9 1.714024 1_565
B8 Cr3 2.233445 1_655
B8 Cr3 2.233445 1_555
B8 Cr2 2.233538 1_565
B8 Cr2 2.233538 1_665
B8 Tm0 2.578263 1_555
B8 Tm0 2.578263 1_655
B9 Cr2 2.233445 1_555
B9 Cr2 2.233445 1_655
B9 Cr3 2.233538 1_645
B9 Cr3 2.233538 1_545
B9 Tm1 2.578263 1_655
B9 Tm1 2.578263 1_555
B10 B11 1.714024 1_554
B10 B5 1.730262 1_554
B10 B14 1.734538 1_555
B10 Cr1 2.233445 1_654
B10 Cr1 2.233445 1_554
B10 Cr0 2.233538 1_555
B10 Cr0 2.233538 1_655
B10 Tm2 2.578263 1_555
B10 Tm2 2.578263 1_655
B11 B4 1.730262 1_556
B11 B15 1.734538 1_555
B11 Cr0 2.233445 1_556
B11 Cr0 2.233445 1_656
B11 Cr1 2.233538 1_655
B11 Cr1 2.233538 1_555
B11 Tm3 2.578263 1_655
B11 Tm3 2.578263 1_555
B12 B8 1.734538 1_555
B12 B2 1.808537 1_565
B12 Cr2 2.300059 1_565
B12 Cr2 2.300059 1_665
B12 Tm2 2.620299 1_665
B12 Tm2 2.620299 1_565
B12 Tm0 2.716260 1_655
B12 Tm0 2.716260 1_555
B13 B9 1.734538 1_555
B13 B3 1.808537 1_545
B13 Cr3 2.300059 1_545
B13 Cr3 2.300059 1_645
B13 Tm3 2.620299 1_645
B13 Tm3 2.620299 1_545
B13 Tm1 2.716260 1_655
B13 Tm1 2.716260 1_555
B14 B2 1.804066 1_555
B14 Cr0 2.300059 1_655
B14 Cr0 2.300059 1_555
B14 Tm0 2.620299 1_555
B14 Tm0 2.620299 1_655
B14 Tm2 2.716260 1_655
B14 Tm2 2.716260 1_555
B15 B3 1.804066 1_555
B15 Cr1 2.300059 1_655
B15 Cr1 2.300059 1_555
B15 Tm1 2.620299 1_555
B15 Tm1 2.620299 1_655
B15 Tm3 2.716260 1_555
B15 Tm3 2.716260 1_655
