# generated using pymatgen
data_Nb2Zn2WO8
_symmetry_space_group_name_H-M   'P 1'
_cell_length_a   5.38964500
_cell_length_b   5.91400054
_cell_length_c   10.20287483
_cell_angle_alpha   104.09393333
_cell_angle_beta   90.71869857
_cell_angle_gamma   91.72095336
_symmetry_Int_Tables_number   1
_chemical_formula_structural   Nb2Zn2WO8
_chemical_formula_sum   'Nb4 Zn4 W2 O16'
_cell_volume   315.21219112
_cell_formula_units_Z   2
loop_
 _symmetry_equiv_pos_site_id
 _symmetry_equiv_pos_as_xyz
  1  'x, y, z'
loop_
 _atom_site_type_symbol
 _atom_site_label
 _atom_site_symmetry_multiplicity
 _atom_site_fract_x
 _atom_site_fract_y
 _atom_site_fract_z
 _atom_site_occupancy
  Nb  Nb0  1  0.70767100  0.24058900  0.24348900  1
  Nb  Nb1  1  0.72873400  0.01845300  0.76801600  1
  Nb  Nb2  1  0.29232900  0.75941100  0.75651100  1
  Nb  Nb3  1  0.27126600  0.98154700  0.23198400  1
  Zn  Zn0  1  0.78155400  0.43354100  0.56502200  1
  Zn  Zn1  1  0.72566800  0.85722100  0.44097200  1
  Zn  Zn2  1  0.21844600  0.56645900  0.43497800  1
  Zn  Zn3  1  0.27433200  0.14277900  0.55902800  1
  W  W0  1  0.75482900  0.63876500  0.99442100  1
  W  W1  1  0.24517100  0.36123500  0.00557900  1
  O  O0  1  0.08701100  0.19144600  0.13718200  1
  O  O1  1  0.40685900  0.08971200  0.87704600  1
  O  O2  1  0.91298900  0.80855400  0.86281800  1
  O  O3  1  0.59314100  0.91028800  0.12295400  1
  O  O4  1  0.59422300  0.42963900  0.11468000  1
  O  O5  1  0.89805300  0.32654000  0.89509000  1
  O  O6  1  0.40577700  0.57036100  0.88532000  1
  O  O7  1  0.10194700  0.67346000  0.10491000  1
  O  O8  1  0.41633200  0.29065700  0.36896300  1
  O  O9  1  0.07946800  0.93782200  0.65310800  1
  O  O10  1  0.35751000  0.84744500  0.38845800  1
  O  O11  1  0.14043300  0.45903900  0.61195100  1
  O  O12  1  0.64249000  0.15255500  0.61154200  1
  O  O13  1  0.85956700  0.54096100  0.38804900  1
  O  O14  1  0.92053200  0.06217800  0.34689200  1
  O  O15  1  0.58366800  0.70934300  0.63103700  1
loop_
_geom_bond_atom_site_label_1
_geom_bond_atom_site_label_2
_geom_bond_distance
_geom_bond_site_symmetry_2
Nb0 O8 2.021358 1_555
Nb0 O4 2.021775 1_555
Nb0 O14 2.031496 1_555
Nb0 O3 2.108974 1_545
Nb0 O13 2.146520 1_555
Nb0 O0 2.319205 1_655
Nb1 O12 2.003489 1_555
Nb1 O2 2.024206 1_545
Nb1 O1 2.070890 1_555
Nb1 O15 2.132800 1_545
Nb1 O5 2.133889 1_555
Nb1 O9 2.238908 1_645
Nb2 O15 2.021358 1_555
Nb2 O6 2.021775 1_555
Nb2 O9 2.031496 1_555
Nb2 O1 2.108974 1_565
Nb2 O11 2.146520 1_555
Nb2 O2 2.319205 1_455
Nb3 O10 2.003489 1_555
Nb3 O0 2.024206 1_565
Nb3 O3 2.070890 1_555
Nb3 O8 2.132800 1_565
Nb3 O7 2.133889 1_555
Nb3 O14 2.238908 1_465
O0 W1 2.042493 1_555
O1 W1 2.035896 1_556
O2 W0 2.042493 1_555
O3 W0 2.035896 1_554
O4 W0 2.117967 1_554
O4 W1 2.150429 1_555
O5 W0 2.055815 1_555
O5 W1 2.150431 1_656
O6 W1 2.117967 1_556
O6 W0 2.150429 1_555
O7 W1 2.055815 1_555
O7 W0 2.150431 1_454
O8 Zn2 1.959357 1_555
O8 Zn3 2.436000 1_555
O9 Zn3 2.002275 1_565
O10 Zn2 1.966394 1_555
O10 Zn1 2.044256 1_555
O10 Zn3 2.206013 1_565
O11 Zn3 1.977273 1_555
O11 Zn0 1.979224 1_455
O11 Zn2 2.098177 1_555
O12 Zn0 1.966394 1_555
O12 Zn3 2.044256 1_555
O12 Zn1 2.206013 1_545
O13 Zn1 1.977273 1_555
O13 Zn2 1.979224 1_655
O13 Zn0 2.098177 1_555
O14 Zn1 2.002275 1_545
O15 Zn0 1.959357 1_555
O15 Zn1 2.436000 1_555
