# generated using pymatgen
data_Er3SbO7
_symmetry_space_group_name_H-M   'P 1'
_cell_length_a   6.36280750
_cell_length_b   6.36280750
_cell_length_c   7.37919602
_cell_angle_alpha   90.00000000
_cell_angle_beta   90.00000000
_cell_angle_gamma   109.33355487
_symmetry_Int_Tables_number   1
_chemical_formula_structural   Er3SbO7
_chemical_formula_sum   'Er6 Sb2 O14'
_cell_volume   281.90181603
_cell_formula_units_Z   2
loop_
 _symmetry_equiv_pos_site_id
 _symmetry_equiv_pos_as_xyz
  1  'x, y, z'
loop_
 _atom_site_type_symbol
 _atom_site_label
 _atom_site_symmetry_multiplicity
 _atom_site_fract_x
 _atom_site_fract_y
 _atom_site_fract_z
 _atom_site_occupancy
  Er  Er0  1  0.99941885  0.46841715  0.74764226  1
  Er  Er1  1  0.00058115  0.53158285  0.24764226  1
  Er  Er2  1  0.53158285  0.00058115  0.75235774  1
  Er  Er3  1  0.46841715  0.99941885  0.25235774  1
  Er  Er4  1  0.50790732  0.50790732  0.50000000  1
  Er  Er5  1  0.49209268  0.49209268  0.00000000  1
  Sb  Sb0  1  0.99956868  0.99956868  0.50000000  1
  Sb  Sb1  1  0.00043132  0.00043132  0.00000000  1
  O  O0  1  0.63754785  0.36245215  0.75000000  1
  O  O1  1  0.36245215  0.63754785  0.25000000  1
  O  O2  1  0.92884918  0.07115082  0.75000000  1
  O  O3  1  0.07115082  0.92884918  0.25000000  1
  O  O4  1  0.92350349  0.67502871  0.52897066  1
  O  O5  1  0.07649651  0.32497129  0.02897066  1
  O  O6  1  0.32497129  0.07649651  0.97102934  1
  O  O7  1  0.67502871  0.92350349  0.47102934  1
  O  O8  1  0.36955288  0.63044712  0.75000000  1
  O  O9  1  0.63044712  0.36955288  0.25000000  1
  O  O10  1  0.93146719  0.67926841  0.96669467  1
  O  O11  1  0.06853281  0.32073159  0.46669467  1
  O  O12  1  0.32073159  0.06853281  0.53330533  1
  O  O13  1  0.67926841  0.93146719  0.03330533  1
loop_
_geom_bond_atom_site_label_1
_geom_bond_atom_site_label_2
_geom_bond_distance
_geom_bond_site_symmetry_2
Er0 O0 2.174523 1_555
Er0 O10 2.232436 1_555
Er0 O4 2.232892 1_555
Er0 O8 2.236510 1_655
Er0 O11 2.376564 1_655
Er0 O5 2.383201 1_656
Er0 O2 2.416570 1_555
Er1 O1 2.174523 1_555
Er1 O11 2.232436 1_555
Er1 O5 2.232892 1_555
Er1 O9 2.236510 1_455
Er1 O10 2.376564 1_454
Er1 O4 2.383201 1_455
Er1 O3 2.416570 1_555
Er2 O0 2.174523 1_555
Er2 O12 2.232436 1_555
Er2 O6 2.232892 1_555
Er2 O8 2.236510 1_545
Er2 O13 2.376564 1_546
Er2 O7 2.383201 1_545
Er2 O2 2.416570 1_555
Er3 O1 2.174523 1_555
Er3 O13 2.232436 1_555
Er3 O7 2.232892 1_555
Er3 O9 2.236510 1_565
Er3 O12 2.376564 1_565
Er3 O6 2.383201 1_564
Er3 O3 2.416570 1_555
Er4 O8 2.289248 1_555
Er4 O9 2.289248 1_555
Er4 O0 2.333614 1_555
Er4 O1 2.333614 1_555
Er4 O7 2.511416 1_555
Er4 O4 2.511416 1_555
Er4 O12 2.662685 1_555
Er4 O11 2.662685 1_555
Er5 O9 2.289248 1_555
Er5 O8 2.289248 1_554
Er5 O0 2.333614 1_554
Er5 O1 2.333614 1_555
Er5 O5 2.511416 1_555
Er5 O6 2.511416 1_554
Er5 O10 2.662685 1_554
Er5 O13 2.662685 1_555
O2 Sb1 1.987186 1_656
O2 Sb0 1.987186 1_545
O3 Sb1 1.987186 1_565
O3 Sb0 1.987186 1_455
O4 Sb0 1.970369 1_555
O5 Sb1 1.970369 1_555
O6 Sb1 1.970369 1_556
O7 Sb0 1.970369 1_555
O10 Sb1 1.958341 1_666
O11 Sb0 1.958341 1_445
O12 Sb0 1.958341 1_445
O13 Sb1 1.958341 1_665
