# generated using pymatgen
data_Pr3TiCl5O4
_symmetry_space_group_name_H-M   'P 1'
_cell_length_a   4.07393900
_cell_length_b   14.69206600
_cell_length_c   16.81982700
_cell_angle_alpha   90.00000000
_cell_angle_beta   90.00000000
_cell_angle_gamma   90.00000000
_symmetry_Int_Tables_number   1
_chemical_formula_structural   Pr3TiCl5O4
_chemical_formula_sum   'Pr12 Ti4 Cl20 O16'
_cell_volume   1006.74369199
_cell_formula_units_Z   4
loop_
 _symmetry_equiv_pos_site_id
 _symmetry_equiv_pos_as_xyz
  1  'x, y, z'
loop_
 _atom_site_type_symbol
 _atom_site_label
 _atom_site_symmetry_multiplicity
 _atom_site_fract_x
 _atom_site_fract_y
 _atom_site_fract_z
 _atom_site_occupancy
  Pr  Pr0  1  0.25000000  0.26107600  0.12981300  1
  Pr  Pr1  1  0.75000000  0.73892400  0.87018700  1
  Pr  Pr2  1  0.75000000  0.76107600  0.37018700  1
  Pr  Pr3  1  0.25000000  0.23892400  0.62981300  1
  Pr  Pr4  1  0.25000000  0.08428700  0.37916800  1
  Pr  Pr5  1  0.75000000  0.91571300  0.62083200  1
  Pr  Pr6  1  0.75000000  0.58428700  0.12083200  1
  Pr  Pr7  1  0.25000000  0.41571300  0.87916800  1
  Pr  Pr8  1  0.25000000  0.58082000  0.62051600  1
  Pr  Pr9  1  0.75000000  0.41918000  0.37948400  1
  Pr  Pr10  1  0.75000000  0.08082000  0.87948400  1
  Pr  Pr11  1  0.25000000  0.91918000  0.12051600  1
  Ti  Ti0  1  0.25000000  0.58946500  0.29144200  1
  Ti  Ti1  1  0.75000000  0.41053500  0.70855800  1
  Ti  Ti2  1  0.75000000  0.08946500  0.20855800  1
  Ti  Ti3  1  0.25000000  0.91053500  0.79144200  1
  Cl  Cl0  1  0.25000000  0.71582300  0.02133600  1
  Cl  Cl1  1  0.75000000  0.28417700  0.97866400  1
  Cl  Cl2  1  0.75000000  0.21582300  0.47866400  1
  Cl  Cl3  1  0.25000000  0.78417700  0.52133600  1
  Cl  Cl4  1  0.25000000  0.09657000  0.01633700  1
  Cl  Cl5  1  0.75000000  0.90343000  0.98366300  1
  Cl  Cl6  1  0.75000000  0.59657000  0.48366300  1
  Cl  Cl7  1  0.25000000  0.40343000  0.51633700  1
  Cl  Cl8  1  0.25000000  0.89944300  0.29785400  1
  Cl  Cl9  1  0.75000000  0.10055700  0.70214600  1
  Cl  Cl10  1  0.75000000  0.39944300  0.20214600  1
  Cl  Cl11  1  0.25000000  0.60055700  0.79785400  1
  Cl  Cl12  1  0.25000000  0.27468100  0.32048100  1
  Cl  Cl13  1  0.75000000  0.72531900  0.67951900  1
  Cl  Cl14  1  0.75000000  0.77468100  0.17951900  1
  Cl  Cl15  1  0.25000000  0.22531900  0.82048100  1
  Cl  Cl16  1  0.25000000  0.44291800  0.05416500  1
  Cl  Cl17  1  0.75000000  0.55708200  0.94583500  1
  Cl  Cl18  1  0.75000000  0.94291800  0.44583500  1
  Cl  Cl19  1  0.25000000  0.05708200  0.55416500  1
  O  O0  1  0.25000000  0.09137700  0.20842000  1
  O  O1  1  0.75000000  0.90862300  0.79158000  1
  O  O2  1  0.75000000  0.59137700  0.29158000  1
  O  O3  1  0.25000000  0.40862300  0.70842000  1
  O  O4  1  0.25000000  0.69897900  0.34570100  1
  O  O5  1  0.75000000  0.30102100  0.65429900  1
  O  O6  1  0.75000000  0.19897900  0.15429900  1
  O  O7  1  0.25000000  0.80102100  0.84570100  1
  O  O8  1  0.25000000  0.58997600  0.18164300  1
  O  O9  1  0.75000000  0.41002400  0.81835700  1
  O  O10  1  0.75000000  0.08997600  0.31835700  1
  O  O11  1  0.25000000  0.91002400  0.68164300  1
  O  O12  1  0.25000000  0.48157400  0.34827400  1
  O  O13  1  0.75000000  0.51842600  0.65172600  1
  O  O14  1  0.75000000  0.98157400  0.15172600  1
  O  O15  1  0.25000000  0.01842600  0.84827400  1
loop_
_geom_bond_atom_site_label_1
_geom_bond_atom_site_label_2
_geom_bond_distance
_geom_bond_site_symmetry_2
Cl0 Pr6 3.268724 1_555
Cl0 Pr6 3.268724 1_455
Cl0 Pr1 3.275321 1_454
Cl0 Pr1 3.275321 1_554
Cl0 Pr11 3.421902 1_555
Cl1 Pr7 3.268724 1_655
Cl1 Pr7 3.268724 1_555
Cl1 Pr0 3.275321 1_656
Cl1 Pr0 3.275321 1_556
Cl1 Pr10 3.421902 1_555
Cl2 Pr4 3.268724 1_555
Cl2 Pr4 3.268724 1_655
Cl2 Pr3 3.275321 1_555
Cl2 Pr3 3.275321 1_655
Cl2 Pr9 3.421902 1_555
Cl3 Pr5 3.268724 1_555
Cl3 Pr5 3.268724 1_455
Cl3 Pr2 3.275321 1_555
Cl3 Pr2 3.275321 1_455
Cl3 Pr8 3.421902 1_555
Cl4 Pr0 3.079691 1_555
Cl4 Pr10 3.082414 1_554
Cl4 Pr10 3.082414 1_454
Cl4 Pr11 3.140521 1_545
Cl5 Pr1 3.079691 1_555
Cl5 Pr11 3.082414 1_656
Cl5 Pr11 3.082414 1_556
Cl5 Pr10 3.140521 1_565
Cl6 Pr2 3.079691 1_555
Cl6 Pr8 3.082414 1_655
Cl6 Pr8 3.082414 1_555
Cl6 Pr9 3.140521 1_555
Cl7 Pr3 3.079691 1_555
Cl7 Pr9 3.082414 1_455
Cl7 Pr9 3.082414 1_555
Cl7 Pr8 3.140521 1_555
Cl8 Pr11 2.996857 1_555
Cl8 Pr4 3.040693 1_565
Cl8 Pr2 3.124436 1_455
Cl8 Pr2 3.124436 1_555
Cl9 Pr10 2.996857 1_555
Cl9 Pr5 3.040693 1_545
Cl9 Pr3 3.124436 1_655
Cl9 Pr3 3.124436 1_555
Cl10 Pr9 2.996857 1_555
Cl10 Pr6 3.040693 1_555
Cl10 Pr0 3.124436 1_655
Cl10 Pr0 3.124436 1_555
Cl11 Pr8 2.996857 1_555
Cl11 Pr7 3.040693 1_555
Cl11 Pr1 3.124436 1_455
Cl11 Pr1 3.124436 1_555
Cl12 Pr4 2.966338 1_555
Cl12 Pr9 3.105032 1_455
Cl12 Pr9 3.105032 1_555
Cl12 Pr0 3.213226 1_555
Cl13 Pr5 2.966338 1_555
Cl13 Pr8 3.105032 1_555
Cl13 Pr8 3.105032 1_655
Cl13 Pr1 3.213226 1_555
Cl14 Pr6 2.966338 1_555
Cl14 Pr11 3.105032 1_655
Cl14 Pr11 3.105032 1_555
Cl14 Pr2 3.213226 1_555
Cl15 Pr7 2.966338 1_555
Cl15 Pr10 3.105032 1_455
Cl15 Pr10 3.105032 1_555
Cl15 Pr3 3.213226 1_555
Cl16 Pr0 2.959155 1_555
Cl16 Pr7 2.970434 1_554
Cl16 Pr6 3.117781 1_455
Cl16 Pr6 3.117781 1_555
Cl17 Pr1 2.959155 1_555
Cl17 Pr6 2.970434 1_556
Cl17 Pr7 3.117781 1_655
Cl17 Pr7 3.117781 1_555
Cl18 Pr2 2.959155 1_555
Cl18 Pr5 2.970434 1_555
Cl18 Pr4 3.117781 1_565
Cl18 Pr4 3.117781 1_665
Cl19 Pr3 2.959155 1_555
Cl19 Pr4 2.970434 1_555
Cl19 Pr5 3.117781 1_445
Cl19 Pr5 3.117781 1_545
O0 Ti2 2.037165 1_555
O0 Ti2 2.037165 1_455
O1 Ti3 2.037165 1_655
O1 Ti3 2.037165 1_555
O2 Ti0 2.037165 1_655
O2 Ti0 2.037165 1_555
O3 Ti1 2.037165 1_555
O3 Ti1 2.037165 1_455
O4 Ti0 1.849791 1_555
O4 Pr2 2.269629 1_455
O4 Pr2 2.269629 1_555
O5 Ti1 1.849791 1_555
O5 Pr3 2.269629 1_555
O5 Pr3 2.269629 1_655
O6 Ti2 1.849791 1_555
O6 Pr0 2.269629 1_655
O6 Pr0 2.269629 1_555
O7 Ti3 1.849791 1_555
O7 Pr1 2.269629 1_555
O7 Pr1 2.269629 1_455
O8 Ti0 1.846815 1_555
O8 Pr6 2.280880 1_555
O8 Pr6 2.280880 1_455
O9 Ti1 1.846815 1_555
O9 Pr7 2.280880 1_655
O9 Pr7 2.280880 1_555
O10 Ti2 1.846815 1_555
O10 Pr4 2.280880 1_555
O10 Pr4 2.280880 1_655
O11 Ti3 1.846815 1_555
O11 Pr5 2.280880 1_455
O11 Pr5 2.280880 1_555
O12 Ti0 1.851061 1_555
O12 Pr9 2.294591 1_455
O12 Pr9 2.294591 1_555
O13 Ti1 1.851061 1_555
O13 Pr8 2.294591 1_555
O13 Pr8 2.294591 1_655
O14 Ti2 1.851061 1_565
O14 Pr11 2.294591 1_655
O14 Pr11 2.294591 1_555
O15 Ti3 1.851061 1_545
O15 Pr10 2.294591 1_555
O15 Pr10 2.294591 1_455
