# generated using pymatgen
data_BaCaCoF7
_symmetry_space_group_name_H-M   'P 1'
_cell_length_a   10.43785500
_cell_length_b   5.81910700
_cell_length_c   9.94396064
_cell_angle_alpha   87.05726750
_cell_angle_beta   90.00000000
_cell_angle_gamma   90.00000000
_symmetry_Int_Tables_number   1
_chemical_formula_structural   BaCaCoF7
_chemical_formula_sum   'Ba4 Ca4 Co4 F28'
_cell_volume   603.18972797
_cell_formula_units_Z   4
loop_
 _symmetry_equiv_pos_site_id
 _symmetry_equiv_pos_as_xyz
  1  'x, y, z'
loop_
 _atom_site_type_symbol
 _atom_site_label
 _atom_site_symmetry_multiplicity
 _atom_site_fract_x
 _atom_site_fract_y
 _atom_site_fract_z
 _atom_site_occupancy
  Ba  Ba0  1  0.32589200  0.72977200  0.50533900  1
  Ba  Ba1  1  0.82589200  0.27022800  0.99466100  1
  Ba  Ba2  1  0.67410800  0.27022800  0.49466100  1
  Ba  Ba3  1  0.17410800  0.72977200  0.00533900  1
  Ca  Ca0  1  0.40867900  0.29467000  0.82090400  1
  Ca  Ca1  1  0.90867900  0.70533000  0.67909600  1
  Ca  Ca2  1  0.09132100  0.29467000  0.32090400  1
  Ca  Ca3  1  0.59132100  0.70533000  0.17909600  1
  Co  Co0  1  0.62037900  0.80977500  0.80762500  1
  Co  Co1  1  0.37962100  0.19022500  0.19237500  1
  Co  Co2  1  0.87962100  0.80977500  0.30762500  1
  Co  Co3  1  0.12037900  0.19022500  0.69237500  1
  F  F0  1  0.42017700  0.90284100  0.10820500  1
  F  F1  1  0.03777300  0.65752200  0.36891400  1
  F  F2  1  0.70609900  0.53099800  0.74203900  1
  F  F3  1  0.29390100  0.46900200  0.25796100  1
  F  F4  1  0.45802800  0.09923400  0.35428800  1
  F  F5  1  0.79948700  0.72218000  0.47586300  1
  F  F6  1  0.77374400  0.98761400  0.74436700  1
  F  F7  1  0.95802800  0.90076600  0.14571200  1
  F  F8  1  0.46222700  0.65752200  0.86891400  1
  F  F9  1  0.20609900  0.46900200  0.75796100  1
  F  F10  1  0.07982300  0.90284100  0.60820500  1
  F  F11  1  0.57982300  0.09715900  0.89179500  1
  F  F12  1  0.27374400  0.01238600  0.75563300  1
  F  F13  1  0.96040100  0.61253700  0.88549700  1
  F  F14  1  0.54197200  0.90076600  0.64571200  1
  F  F15  1  0.04197200  0.09923400  0.85428800  1
  F  F16  1  0.22625600  0.01238600  0.25563300  1
  F  F17  1  0.92017700  0.09715900  0.39179500  1
  F  F18  1  0.46040100  0.38746300  0.61450300  1
  F  F19  1  0.96222700  0.34247800  0.63108600  1
  F  F20  1  0.03959900  0.38746300  0.11450300  1
  F  F21  1  0.72625600  0.98761400  0.24436700  1
  F  F22  1  0.53959900  0.61253700  0.38549700  1
  F  F23  1  0.29948700  0.27782000  0.02413700  1
  F  F24  1  0.20051300  0.27782000  0.52413700  1
  F  F25  1  0.70051300  0.72218000  0.97586300  1
  F  F26  1  0.53777300  0.34247800  0.13108600  1
  F  F27  1  0.79390100  0.53099800  0.24203900  1
loop_
_geom_bond_atom_site_label_1
_geom_bond_atom_site_label_2
_geom_bond_distance
_geom_bond_site_symmetry_2
Ba0 F18 2.625893 1_555
Ba0 F22 2.635299 1_555
Ba0 F14 2.857974 1_555
Ba0 F4 2.906724 1_565
Ba0 F24 2.934928 1_555
Ba0 F10 2.960270 1_555
Ba0 F3 2.974661 1_555
Ba0 F16 3.087473 1_565
Ba0 F12 3.100938 1_565
Ba0 F9 3.128126 1_555
Ba1 F13 2.625893 1_555
Ba1 F20 2.635299 1_656
Ba1 F15 2.857974 1_655
Ba1 F7 2.906724 1_546
Ba1 F25 2.934928 1_555
Ba1 F11 2.960270 1_555
Ba1 F27 2.974661 1_556
Ba1 F21 3.087473 1_546
Ba1 F6 3.100938 1_545
Ba1 F2 3.128126 1_555
Ba2 F22 2.625893 1_555
Ba2 F18 2.635299 1_555
Ba2 F4 2.857974 1_555
Ba2 F14 2.906724 1_545
Ba2 F5 2.934928 1_555
Ba2 F17 2.960270 1_555
Ba2 F2 2.974661 1_555
Ba2 F6 3.087473 1_545
Ba2 F21 3.100938 1_545
Ba2 F27 3.128126 1_555
Ba3 F20 2.625893 1_555
Ba3 F13 2.635299 1_454
Ba3 F7 2.857974 1_455
Ba3 F15 2.906724 1_564
Ba3 F23 2.934928 1_555
Ba3 F0 2.960270 1_555
Ba3 F9 2.974661 1_554
Ba3 F12 3.087473 1_564
Ba3 F16 3.100938 1_565
Ba3 F3 3.128126 1_555
Ca0 F18 2.163737 1_555
Ca0 F11 2.219429 1_555
Ca0 F8 2.258793 1_555
Ca0 F12 2.283131 1_555
Ca0 F23 2.317856 1_556
Ca0 F9 2.413876 1_555
Ca1 F13 2.163737 1_555
Ca1 F10 2.219429 1_655
Ca1 F19 2.258793 1_555
Ca1 F6 2.283131 1_555
Ca1 F5 2.317856 1_555
Ca1 F2 2.413876 1_555
Ca2 F20 2.163737 1_555
Ca2 F17 2.219429 1_455
Ca2 F1 2.258793 1_555
Ca2 F16 2.283131 1_555
Ca2 F24 2.317856 1_555
Ca2 F3 2.413876 1_555
Ca3 F22 2.163737 1_555
Ca3 F0 2.219429 1_555
Ca3 F26 2.258793 1_555
Ca3 F21 2.283131 1_555
Ca3 F25 2.317856 1_554
Ca3 F27 2.413876 1_555
Co0 F14 1.858733 1_555
Co0 F25 1.915892 1_555
Co0 F11 1.954508 1_565
Co0 F8 1.956012 1_555
Co0 F6 1.990567 1_555
Co0 F2 1.991523 1_555
Co1 F4 1.858733 1_555
Co1 F23 1.915892 1_555
Co1 F0 1.954508 1_545
Co1 F26 1.956012 1_555
Co1 F16 1.990567 1_555
Co1 F3 1.991523 1_555
Co2 F7 1.858733 1_555
Co2 F5 1.915892 1_555
Co2 F17 1.954508 1_565
Co2 F1 1.956012 1_655
Co2 F21 1.990567 1_555
Co2 F27 1.991523 1_555
Co3 F15 1.858733 1_555
Co3 F24 1.915892 1_555
Co3 F10 1.954508 1_545
Co3 F19 1.956012 1_455
Co3 F12 1.990567 1_555
Co3 F9 1.991523 1_555
