# generated using pymatgen
data_Li6Cu(B2O5)2
_symmetry_space_group_name_H-M   'P 1'
_cell_length_a   4.89816900
_cell_length_b   9.35363325
_cell_length_c   14.19130490
_cell_angle_alpha   104.72592388
_cell_angle_beta   97.07921309
_cell_angle_gamma   93.97959872
_symmetry_Int_Tables_number   1
_chemical_formula_structural   Li6Cu(B2O5)2
_chemical_formula_sum   'Li18 Cu3 B12 O30'
_cell_volume   620.58758309
_cell_formula_units_Z   3
loop_
 _symmetry_equiv_pos_site_id
 _symmetry_equiv_pos_as_xyz
  1  'x, y, z'
loop_
 _atom_site_type_symbol
 _atom_site_label
 _atom_site_symmetry_multiplicity
 _atom_site_fract_x
 _atom_site_fract_y
 _atom_site_fract_z
 _atom_site_occupancy
  Li  Li0  1  0.95840100  0.19398300  0.18391000  1
  Li  Li1  1  0.04159900  0.80601700  0.81609000  1
  Li  Li2  1  0.93425300  0.62340000  0.96925900  1
  Li  Li3  1  0.06574700  0.37660000  0.03074100  1
  Li  Li4  1  0.91319300  0.91662400  0.18617100  1
  Li  Li5  1  0.08680700  0.08337600  0.81382900  1
  Li  Li6  1  0.78703200  0.05642800  0.36715500  1
  Li  Li7  1  0.21296800  0.94357200  0.63284500  1
  Li  Li8  1  0.66363200  0.85748600  0.51198400  1
  Li  Li9  1  0.33636800  0.14251400  0.48801600  1
  Li  Li10  1  0.63404000  0.56672600  0.08762700  1
  Li  Li11  1  0.36596000  0.43327400  0.91237300  1
  Li  Li12  1  0.61524600  0.82561400  0.68630600  1
  Li  Li13  1  0.38475400  0.17438600  0.31369400  1
  Li  Li14  1  0.56354200  0.43353300  0.39717000  1
  Li  Li15  1  0.43645800  0.56646700  0.60283000  1
  Li  Li16  1  0.50512100  0.59724600  0.80397700  1
  Li  Li17  1  0.49487900  0.40275400  0.19602300  1
  Cu  Cu0  1  0.00000000  0.00000000  0.00000000  1
  Cu  Cu1  1  0.69808000  0.68238500  0.33032400  1
  Cu  Cu2  1  0.30192000  0.31761500  0.66967600  1
  B  B0  1  0.91933600  0.54813400  0.66874800  1
  B  B1  1  0.08066400  0.45186600  0.33125200  1
  B  B2  1  0.82994100  0.31608100  0.51984300  1
  B  B3  1  0.17005900  0.68391900  0.48015700  1
  B  B4  1  0.79657200  0.34126700  0.81639900  1
  B  B5  1  0.20342800  0.65873300  0.18360100  1
  B  B6  1  0.72411400  0.10683000  0.66877800  1
  B  B7  1  0.27588600  0.89317000  0.33122200  1
  B  B8  1  0.58803700  0.22498000  0.00502500  1
  B  B9  1  0.41196300  0.77502000  0.99497500  1
  B  B10  1  0.53998900  0.00103000  0.85259500  1
  B  B11  1  0.46001100  0.99897000  0.14740500  1
  O  O0  1  0.96988300  0.41102900  0.89993900  1
  O  O1  1  0.03011700  0.58897100  0.10006100  1
  O  O2  1  0.93524500  0.74313100  0.45470700  1
  O  O3  1  0.06475500  0.25686900  0.54529300  1
  O  O4  1  0.88198000  0.21588900  0.75096300  1
  O  O5  1  0.11802000  0.78411100  0.24903700  1
  O  O6  1  0.83907000  0.19457700  0.04688700  1
  O  O7  1  0.16093000  0.80542300  0.95311300  1
  O  O8  1  0.83470900  0.97596100  0.64231200  1
  O  O9  1  0.16529100  0.02403900  0.35768800  1
  O  O10  1  0.81274100  0.47349400  0.30239700  1
  O  O11  1  0.18725900  0.52650600  0.69760300  1
  O  O12  1  0.80827600  0.96822800  0.86680700  1
  O  O13  1  0.19172400  0.03177200  0.13319300  1
  O  O14  1  0.77900200  0.65714800  0.71888800  1
  O  O15  1  0.22099800  0.34285200  0.28111200  1
  O  O16  1  0.76368300  0.45494100  0.57902300  1
  O  O17  1  0.23631700  0.54505900  0.42097700  1
  O  O18  1  0.64443300  0.25062200  0.43758900  1
  O  O19  1  0.35556700  0.74937800  0.56241100  1
  O  O20  1  0.64827300  0.07380400  0.22651100  1
  O  O21  1  0.35172700  0.92619600  0.77348900  1
  O  O22  1  0.55995900  0.87752800  0.08173000  1
  O  O23  1  0.44004100  0.12247200  0.91827000  1
  O  O24  1  0.53067600  0.87105800  0.37537200  1
  O  O25  1  0.46932400  0.12894200  0.62462800  1
  O  O26  1  0.52748300  0.64769200  0.95810100  1
  O  O27  1  0.47251700  0.35230800  0.04189900  1
  O  O28  1  0.53845600  0.38519100  0.79460200  1
  O  O29  1  0.46154400  0.61480900  0.20539800  1
loop_
_geom_bond_atom_site_label_1
_geom_bond_atom_site_label_2
_geom_bond_distance
_geom_bond_site_symmetry_2
Li0 O15 1.957995 1_655
Li0 O6 1.961807 1_555
Li0 O13 2.003617 1_655
Li0 O20 2.066763 1_555
Li1 O14 1.957995 1_455
Li1 O7 1.961807 1_555
Li1 O12 2.003617 1_455
Li1 O21 2.066763 1_555
Li2 O1 1.969750 1_656
Li2 O0 2.010253 1_555
Li2 O26 2.012421 1_555
Li2 O7 2.045162 1_655
Li3 O0 1.969750 1_454
Li3 O1 2.010253 1_555
Li3 O27 2.012421 1_555
Li3 O6 2.045162 1_455
Li4 O5 1.962898 1_655
Li4 O13 2.011744 1_665
Li4 O20 2.047699 1_565
Li4 O22 2.080538 1_555
Li5 O4 1.962898 1_455
Li5 O12 2.011744 1_445
Li5 O21 2.047699 1_545
Li5 O23 2.080538 1_555
Li6 O9 1.913422 1_655
Li6 O18 2.052193 1_555
Li6 O20 2.077967 1_555
Li6 O24 2.105552 1_545
Li7 O8 1.913422 1_455
Li7 O19 2.052193 1_555
Li7 O21 2.077967 1_555
Li7 O25 2.105552 1_565
Li8 O2 1.896538 1_555
Li8 O8 1.948865 1_555
Li8 O24 2.006040 1_555
Li8 O19 2.057634 1_555
Li9 O3 1.896538 1_555
Li9 O9 1.948865 1_555
Li9 O25 2.006040 1_555
Li9 O18 2.057634 1_555
Li10 O1 1.918113 1_655
Li10 O29 1.930840 1_555
Li10 O27 2.015187 1_555
Li10 O26 2.179642 1_554
Li11 O0 1.918113 1_455
Li11 O28 1.930840 1_555
Li11 O26 2.015187 1_555
Li11 O27 2.179642 1_556
Li12 O14 1.947987 1_555
Li12 O19 1.975651 1_555
Li12 O8 1.981150 1_555
Li12 O21 2.013047 1_555
Li13 O15 1.947987 1_555
Li13 O18 1.975651 1_555
Li13 O9 1.981150 1_555
Li13 O20 2.013047 1_555
Li14 O18 1.987488 1_555
Li14 O17 1.989399 1_555
Li14 O10 2.008834 1_555
Li14 O15 2.158320 1_555
Li15 O19 1.987488 1_555
Li15 O16 1.989399 1_555
Li15 O11 2.008834 1_555
Li15 O14 2.158320 1_555
Li16 O28 1.973505 1_555
Li16 O11 1.977527 1_555
Li16 O14 2.051982 1_555
Li16 O26 2.104203 1_555
Li17 O29 1.973505 1_555
Li17 O10 1.977527 1_555
Li17 O15 2.051982 1_555
Li17 O27 2.104203 1_555
Cu0 O12 1.944523 1_444
Cu0 O13 1.944523 1_555
Cu0 O6 2.022190 1_455
Cu0 O7 2.022190 1_544
Cu1 O2 1.918640 1_555
Cu1 O29 1.925429 1_555
Cu1 O24 1.987960 1_555
Cu1 O10 2.025754 1_555
Cu2 O3 1.918640 1_555
Cu2 O28 1.925429 1_555
Cu2 O25 1.987960 1_555
Cu2 O11 2.025754 1_555
B0 O14 1.366571 1_555
B0 O11 1.370158 1_655
B0 O16 1.437582 1_555
B1 O15 1.366571 1_555
B1 O10 1.370158 1_455
B1 O17 1.437582 1_555
B2 O3 1.359330 1_655
B2 O18 1.364218 1_555
B2 O16 1.438328 1_555
B3 O2 1.359330 1_455
B3 O19 1.364218 1_555
B3 O17 1.438328 1_555
B4 O0 1.354142 1_555
B4 O28 1.379579 1_555
B4 O4 1.422275 1_555
B5 O1 1.354142 1_555
B5 O29 1.379579 1_555
B5 O5 1.422275 1_555
B6 O8 1.356980 1_545
B6 O25 1.379068 1_555
B6 O4 1.436025 1_555
B7 O9 1.356980 1_565
B7 O24 1.379068 1_555
B7 O5 1.436025 1_555
B8 O27 1.364593 1_555
B8 O6 1.378439 1_555
B8 O23 1.429688 1_554
B9 O26 1.364593 1_555
B9 O7 1.378439 1_555
B9 O22 1.429688 1_556
B10 O21 1.362469 1_545
B10 O12 1.372519 1_545
B10 O23 1.431805 1_555
B11 O20 1.362469 1_565
B11 O13 1.372519 1_565
B11 O22 1.431805 1_555
