# generated using pymatgen
data_K2Hg6S7
_symmetry_space_group_name_H-M   'P 1'
_cell_length_a   4.11245859
_cell_length_b   13.95989296
_cell_length_c   13.96070146
_cell_angle_alpha   90.00166616
_cell_angle_beta   90.00239472
_cell_angle_gamma   90.00235147
_symmetry_Int_Tables_number   1
_chemical_formula_structural   K2Hg6S7
_chemical_formula_sum   'K4 Hg12 S14'
_cell_volume   801.47663439
_cell_formula_units_Z   2
loop_
 _symmetry_equiv_pos_site_id
 _symmetry_equiv_pos_as_xyz
  1  'x, y, z'
loop_
 _atom_site_type_symbol
 _atom_site_label
 _atom_site_symmetry_multiplicity
 _atom_site_fract_x
 _atom_site_fract_y
 _atom_site_fract_z
 _atom_site_occupancy
  K  K0  1  0.23471590  0.17145506  0.67141095  1
  K  K1  1  0.23470735  0.82856486  0.32862555  1
  K  K2  1  0.76525329  0.67142685  0.82855807  1
  K  K3  1  0.76528253  0.32855366  0.17139379  1
  Hg  Hg0  1  0.27673740  0.59779295  0.09786736  1
  Hg  Hg1  1  0.27678755  0.40221204  0.90213891  1
  Hg  Hg2  1  0.72323971  0.09787031  0.40220717  1
  Hg  Hg3  1  0.72321784  0.90224008  0.59791056  1
  Hg  Hg4  1  0.23807533  0.06765580  0.15901983  1
  Hg  Hg5  1  0.23797105  0.93235269  0.84105224  1
  Hg  Hg6  1  0.76196979  0.15902665  0.93231817  1
  Hg  Hg7  1  0.76201591  0.43233263  0.65898855  1
  Hg  Hg8  1  0.76198902  0.84097121  0.06769091  1
  Hg  Hg9  1  0.76203244  0.56767476  0.34100331  1
  Hg  Hg10  1  0.23795395  0.34099877  0.43228872  1
  Hg  Hg11  1  0.23806155  0.65906580  0.56771165  1
  S  S0  1  0.25291438  0.19710624  0.03590009  1
  S  S1  1  0.25284877  0.80284800  0.96410324  1
  S  S2  1  0.74710702  0.03590269  0.80285742  1
  S  S3  1  0.74707457  0.30288838  0.53586458  1
  S  S4  1  0.74716466  0.96407341  0.19716167  1
  S  S5  1  0.74711477  0.69712570  0.46411269  1
  S  S6  1  0.25286755  0.46410106  0.30282107  1
  S  S7  1  0.25291531  0.53590118  0.69713428  1
  S  S8  1  0.66675896  0.68615576  0.18618548  1
  S  S9  1  0.66674092  0.31385283  0.81382345  1
  S  S10  1  0.33328170  0.18616493  0.31382825  1
  S  S11  1  0.33324490  0.81385956  0.68619317  1
  S  S12  1  0.06378140  0.00006777  0.50007262  1
  S  S13  1  0.93617749  0.49999936  -0.00000376  1
loop_
_geom_bond_atom_site_label_1
_geom_bond_atom_site_label_2
_geom_bond_distance
_geom_bond_site_symmetry_2
K0 S3 3.311977 1_455
K0 S2 3.312044 1_455
K0 S9 3.325692 1_555
K0 S3 3.374500 1_555
K0 S2 3.374725 1_555
K0 S12 3.455360 1_555
K0 S9 3.655244 1_455
K1 S5 3.311433 1_455
K1 S4 3.311665 1_455
K1 S8 3.326251 1_555
K1 S5 3.374201 1_555
K1 S4 3.374683 1_555
K1 S12 3.457601 1_565
K1 S8 3.655259 1_455
K2 S1 3.311607 1_655
K2 S7 3.311821 1_655
K2 S11 3.325706 1_555
K2 S7 3.374050 1_555
K2 S1 3.374550 1_555
K2 S13 3.456841 1_556
K2 S11 3.655150 1_655
K3 S6 3.311642 1_655
K3 S0 3.311677 1_655
K3 S10 3.325904 1_555
K3 S0 3.374061 1_555
K3 S6 3.374637 1_555
K3 S13 3.456600 1_555
K3 S10 3.655362 1_655
Hg0 S8 2.369407 1_555
Hg0 S13 2.385735 1_455
Hg0 S8 3.055308 1_455
Hg1 S9 2.369310 1_555
Hg1 S13 2.385829 1_456
Hg1 S9 3.055335 1_455
Hg2 S10 2.369282 1_555
Hg2 S12 2.385829 1_655
Hg2 S10 3.055427 1_655
Hg3 S11 2.369249 1_555
Hg3 S12 2.385864 1_665
Hg3 S11 3.055317 1_655
Hg4 S0 2.494789 1_555
Hg4 S4 2.539706 1_445
Hg4 S4 2.599587 1_545
Hg4 S10 2.749701 1_555
Hg5 S1 2.494680 1_555
Hg5 S2 2.539510 1_465
Hg5 S2 2.599582 1_565
Hg5 S11 2.750207 1_555
Hg6 S2 2.494867 1_555
Hg6 S0 2.539619 1_656
Hg6 S0 2.599353 1_556
Hg6 S9 2.749848 1_555
Hg7 S3 2.494701 1_555
Hg7 S7 2.539517 1_655
Hg7 S7 2.599547 1_555
Hg7 S9 2.749887 1_555
Hg8 S4 2.494762 1_555
Hg8 S1 2.539645 1_654
Hg8 S1 2.599670 1_554
Hg8 S8 2.749724 1_555
Hg9 S5 2.494633 1_555
Hg9 S6 2.539585 1_655
Hg9 S6 2.599773 1_555
Hg9 S8 2.749702 1_555
Hg10 S6 2.494810 1_555
Hg10 S3 2.539561 1_455
Hg10 S3 2.599529 1_555
Hg10 S10 2.749647 1_555
Hg11 S7 2.494948 1_555
Hg11 S5 2.539756 1_455
Hg11 S5 2.599404 1_555
Hg11 S11 2.749254 1_555
