# generated using pymatgen
data_Y12InNi6
_symmetry_space_group_name_H-M   'P 1'
_cell_length_a   8.42827150
_cell_length_b   8.42827150
_cell_length_c   8.42827150
_cell_angle_alpha   109.47122063
_cell_angle_beta   109.47122063
_cell_angle_gamma   109.47122063
_symmetry_Int_Tables_number   1
_chemical_formula_structural   Y12InNi6
_chemical_formula_sum   'Y12 In1 Ni6'
_cell_volume   460.88615349
_cell_formula_units_Z   1
loop_
 _symmetry_equiv_pos_site_id
 _symmetry_equiv_pos_as_xyz
  1  'x, y, z'
loop_
 _atom_site_type_symbol
 _atom_site_label
 _atom_site_symmetry_multiplicity
 _atom_site_fract_x
 _atom_site_fract_y
 _atom_site_fract_z
 _atom_site_occupancy
  Y  Y0  1  0.81199394  0.69648918  0.50848312  1
  Y  Y1  1  0.18800606  0.30351082  0.49151688  1
  Y  Y2  1  0.18800606  0.69648918  0.88449524  1
  Y  Y3  1  0.81199394  0.30351082  0.11550476  1
  Y  Y4  1  0.69648918  0.50848312  0.81199394  1
  Y  Y5  1  0.30351082  0.49151688  0.18800606  1
  Y  Y6  1  0.69648918  0.88449524  0.18800606  1
  Y  Y7  1  0.30351082  0.11550476  0.81199394  1
  Y  Y8  1  0.50848312  0.81199394  0.69648918  1
  Y  Y9  1  0.49151688  0.18800606  0.30351082  1
  Y  Y10  1  0.11550476  0.81199394  0.30351082  1
  Y  Y11  1  0.88449524  0.18800606  0.69648918  1
  In  In0  1  -0.00000000  -0.00000000  -0.00000000  1
  Ni  Ni0  1  0.87997418  0.37997418  0.50000000  1
  Ni  Ni1  1  0.12002582  0.62002582  0.50000000  1
  Ni  Ni2  1  0.37997418  0.50000000  0.87997418  1
  Ni  Ni3  1  0.62002582  0.50000000  0.12002582  1
  Ni  Ni4  1  0.50000000  0.87997418  0.37997418  1
  Ni  Ni5  1  0.50000000  0.12002582  0.62002582  1
loop_
_geom_bond_atom_site_label_1
_geom_bond_atom_site_label_2
_geom_bond_distance
_geom_bond_site_symmetry_2
In0 Y11 3.474590 1_454
In0 Y1 3.474590 1_555
In0 Y2 3.474590 1_544
In0 Y5 3.474590 1_555
In0 Y9 3.474590 1_555
In0 Y6 3.474590 1_445
In0 Y7 3.474590 1_554
In0 Y10 3.474590 1_545
In0 Y3 3.474590 1_455
In0 Y4 3.474590 1_444
In0 Y8 3.474590 1_444
In0 Y0 3.474590 1_444
Ni0 Ni1 2.336214 1_655
Ni0 Y11 2.673410 1_555
Ni0 Y9 2.673410 1_555
Ni0 Y1 2.892923 1_655
Ni0 Y2 2.892923 1_655
Ni0 Y3 2.892923 1_555
Ni0 Y0 2.892923 1_555
Ni0 Y6 3.522533 1_545
Ni0 Y4 3.522533 1_555
Ni1 Y10 2.673410 1_555
Ni1 Y8 2.673410 1_555
Ni1 Y0 2.892923 1_455
Ni1 Y3 2.892923 1_455
Ni1 Y2 2.892923 1_555
Ni1 Y1 2.892923 1_555
Ni1 Y7 3.522533 1_565
Ni1 Y5 3.522533 1_555
Ni2 Ni3 2.336214 1_556
Ni2 Y2 2.673410 1_555
Ni2 Y1 2.673410 1_555
Ni2 Y5 2.892923 1_556
Ni2 Y6 2.892923 1_556
Ni2 Y7 2.892923 1_555
Ni2 Y4 2.892923 1_555
Ni2 Y11 3.522533 1_455
Ni2 Y8 3.522533 1_555
Ni3 Y3 2.673410 1_555
Ni3 Y0 2.673410 1_555
Ni3 Y4 2.892923 1_554
Ni3 Y6 2.892923 1_555
Ni3 Y5 2.892923 1_555
Ni3 Y7 2.892923 1_554
Ni3 Y10 3.522533 1_655
Ni3 Y9 3.522533 1_555
Ni4 Ni5 2.336214 1_565
Ni4 Y6 2.673410 1_555
Ni4 Y5 2.673410 1_555
Ni4 Y9 2.892923 1_565
Ni4 Y11 2.892923 1_565
Ni4 Y10 2.892923 1_555
Ni4 Y8 2.892923 1_555
Ni4 Y0 3.522533 1_555
Ni4 Y2 3.522533 1_554
Ni5 Y7 2.673410 1_555
Ni5 Y4 2.673410 1_555
Ni5 Y8 2.892923 1_545
Ni5 Y10 2.892923 1_545
Ni5 Y11 2.892923 1_555
Ni5 Y9 2.892923 1_555
Ni5 Y3 3.522533 1_556
Ni5 Y1 3.522533 1_555
