# generated using pymatgen
data_K2BAs2HO8
_symmetry_space_group_name_H-M   'P 1'
_cell_length_a   7.33693400
_cell_length_b   7.33693400
_cell_length_c   15.73744000
_cell_angle_alpha   90.00000000
_cell_angle_beta   90.00000000
_cell_angle_gamma   90.00000000
_symmetry_Int_Tables_number   1
_chemical_formula_structural   K2BAs2HO8
_chemical_formula_sum   'K8 B4 As8 H4 O32'
_cell_volume   847.15584585
_cell_formula_units_Z   4
loop_
 _symmetry_equiv_pos_site_id
 _symmetry_equiv_pos_as_xyz
  1  'x, y, z'
loop_
 _atom_site_type_symbol
 _atom_site_label
 _atom_site_symmetry_multiplicity
 _atom_site_fract_x
 _atom_site_fract_y
 _atom_site_fract_z
 _atom_site_occupancy
  K  K0  1  0.11662600  0.54203100  0.67626900  1
  K  K1  1  0.88337400  0.45796900  0.17626900  1
  K  K2  1  0.04203100  0.38337400  0.42626900  1
  K  K3  1  0.95796900  0.61662600  0.92626900  1
  K  K4  1  0.46415800  0.88046600  0.82493500  1
  K  K5  1  0.53584200  0.11953500  0.32493500  1
  K  K6  1  0.38046600  0.03584200  0.57493500  1
  K  K7  1  0.61953400  0.96415800  0.07493500  1
  B  B0  1  0.70922600  0.28816600  0.75057800  1
  B  B1  1  0.29077400  0.71183400  0.25057800  1
  B  B2  1  0.78816600  0.79077400  0.50057800  1
  B  B3  1  0.21183400  0.20922600  0.00057800  1
  As  As0  1  0.61133500  0.56512500  0.62703800  1
  As  As1  1  0.38866500  0.43487500  0.12703800  1
  As  As2  1  0.06512500  0.88866500  0.37703800  1
  As  As3  1  0.93487500  0.11133500  0.87703800  1
  As  As4  1  0.43548900  0.39448400  0.87521100  1
  As  As5  1  0.56451100  0.60551600  0.37521100  1
  As  As6  1  0.89448400  0.06451100  0.62521100  1
  As  As7  1  0.10551600  0.93548900  0.12521100  1
  H  H0  1  0.46198500  0.43704800  0.51018600  1
  H  H1  1  0.53801500  0.56295200  0.01018600  1
  H  H2  1  0.93704800  0.03801500  0.26018600  1
  H  H3  1  0.06295200  0.96198500  0.76018600  1
  O  O0  1  0.73560200  0.47150400  0.71047200  1
  O  O1  1  0.26439800  0.52849600  0.21047200  1
  O  O2  1  0.97150400  0.76439800  0.46047200  1
  O  O3  1  0.02849600  0.23560200  0.96047200  1
  O  O4  1  0.52963800  0.26540600  0.79178100  1
  O  O5  1  0.47036200  0.73459400  0.29178100  1
  O  O6  1  0.76540600  0.97036200  0.54178100  1
  O  O7  1  0.23459400  0.02963800  0.04178100  1
  O  O8  1  0.46897800  0.72761900  0.66012800  1
  O  O9  1  0.53102200  0.27238100  0.16012800  1
  O  O10  1  0.22761900  0.03102200  0.41012800  1
  O  O11  1  0.77238100  0.96897800  0.91012800  1
  O  O12  1  0.26689000  0.52720400  0.83816500  1
  O  O13  1  0.73311000  0.47279600  0.33816500  1
  O  O14  1  0.02720400  0.23311000  0.58816500  1
  O  O15  1  0.97279600  0.76689000  0.08816500  1
  O  O16  1  0.78940900  0.63358000  0.56048900  1
  O  O17  1  0.21059100  0.36642000  0.06048900  1
  O  O18  1  0.13358000  0.71059100  0.31048900  1
  O  O19  1  0.86642000  0.28940900  0.81048900  1
  O  O20  1  0.36473800  0.21008900  0.93960000  1
  O  O21  1  0.63526200  0.78991100  0.43960000  1
  O  O22  1  0.71008900  0.13526200  0.68960000  1
  O  O23  1  0.28991100  0.86473800  0.18960000  1
  O  O24  1  0.50243100  0.38811300  0.57306500  1
  O  O25  1  0.49756900  0.61188700  0.07306500  1
  O  O26  1  0.88811300  0.99756900  0.32306500  1
  O  O27  1  0.11188700  0.00243100  0.82306500  1
  O  O28  1  0.59879900  0.51166200  0.93018300  1
  O  O29  1  0.40120100  0.48833800  0.43018300  1
  O  O30  1  0.01166200  0.90120100  0.68018300  1
  O  O31  1  0.98833800  0.09879900  0.18018300  1
loop_
_geom_bond_atom_site_label_1
_geom_bond_atom_site_label_2
_geom_bond_distance
_geom_bond_site_symmetry_2
K0 O14 2.736802 1_555
K0 O30 2.746122 1_555
K0 O12 2.778258 1_555
K0 O0 2.893541 1_455
K0 O8 2.932879 1_555
K0 O16 3.087853 1_455
K1 O15 2.736802 1_555
K1 O31 2.746122 1_555
K1 O13 2.778258 1_555
K1 O1 2.893541 1_655
K1 O9 2.932879 1_555
K1 O17 3.087853 1_655
K2 O13 2.736802 1_455
K2 O29 2.746122 1_555
K2 O14 2.778258 1_555
K2 O2 2.893541 1_455
K2 O10 2.932879 1_555
K2 O18 3.087853 1_555
K3 O12 2.736802 1_655
K3 O28 2.746122 1_555
K3 O15 2.778258 1_556
K3 O3 2.893541 1_655
K3 O11 2.932879 1_555
K3 O19 3.087853 1_555
K4 O11 2.707996 1_555
K4 O27 2.735274 1_565
K4 O8 2.825920 1_555
K4 O4 2.911974 1_565
K4 O12 2.975884 1_555
K4 O20 3.104382 1_565
K4 O28 3.322821 1_555
K4 O22 3.359566 1_565
K5 O10 2.707998 1_555
K5 O26 2.735276 1_545
K5 O9 2.825917 1_555
K5 O5 2.911981 1_545
K5 O13 2.975878 1_555
K5 O21 3.104388 1_545
K5 O29 3.322815 1_555
K5 O23 3.359570 1_545
K6 O8 2.707996 1_545
K6 O24 2.735274 1_555
K6 O10 2.825920 1_555
K6 O6 2.911974 1_545
K6 O14 2.975884 1_555
K6 O22 3.104382 1_555
K6 O30 3.322821 1_545
K6 O21 3.359566 1_545
K7 O9 2.707996 1_565
K7 O25 2.735274 1_555
K7 O11 2.825920 1_554
K7 O7 2.911974 1_565
K7 O15 2.975884 1_555
K7 O23 3.104382 1_555
K7 O31 3.322821 1_565
K7 O20 3.359566 1_564
B0 O22 1.476308 1_555
B0 O4 1.478000 1_555
B0 O19 1.489696 1_555
B0 O0 1.498405 1_555
B1 O23 1.476308 1_555
B1 O5 1.478000 1_555
B1 O18 1.489696 1_555
B1 O1 1.498405 1_555
B2 O21 1.476308 1_555
B2 O6 1.478000 1_555
B2 O16 1.489696 1_555
B2 O2 1.498405 1_555
B3 O20 1.476308 1_554
B3 O7 1.478000 1_555
B3 O17 1.489696 1_555
B3 O3 1.498405 1_554
As0 O8 1.668366 1_555
As0 O0 1.739872 1_555
As0 O24 1.745451 1_555
As0 O16 1.748171 1_555
As1 O9 1.668366 1_555
As1 O1 1.739872 1_555
As1 O25 1.745451 1_555
As1 O17 1.748171 1_555
As2 O10 1.668366 1_565
As2 O2 1.739872 1_455
As2 O26 1.745451 1_455
As2 O18 1.748171 1_555
As3 O11 1.668366 1_545
As3 O3 1.739872 1_655
As3 O27 1.745451 1_655
As3 O19 1.748171 1_555
As4 O12 1.678771 1_555
As4 O28 1.709746 1_555
As4 O4 1.760096 1_555
As4 O20 1.768218 1_555
As5 O13 1.678771 1_555
As5 O29 1.709746 1_555
As5 O5 1.760096 1_555
As5 O21 1.768218 1_555
As6 O14 1.678771 1_655
As6 O30 1.709746 1_645
As6 O6 1.760096 1_545
As6 O22 1.768218 1_555
As7 O15 1.678771 1_455
As7 O31 1.709746 1_465
As7 O7 1.760096 1_565
As7 O23 1.768218 1_555
H0 O24 1.093702 1_555
H0 O29 1.387691 1_555
H1 O25 1.093702 1_555
H1 O28 1.387691 1_554
H2 O26 1.093702 1_545
H2 O31 1.387691 1_555
H3 O27 1.093702 1_565
H3 O30 1.387691 1_555
