# generated using pymatgen
data_TiBrO
_symmetry_space_group_name_H-M   'P 1'
_cell_length_a   2.75910300
_cell_length_b   3.58865200
_cell_length_c   10.00955200
_cell_angle_alpha   90.00000000
_cell_angle_beta   90.00000000
_cell_angle_gamma   90.00000000
_symmetry_Int_Tables_number   1
_chemical_formula_structural   TiBrO
_chemical_formula_sum   'Ti2 Br2 O2'
_cell_volume   99.10918374
_cell_formula_units_Z   2
loop_
 _symmetry_equiv_pos_site_id
 _symmetry_equiv_pos_as_xyz
  1  'x, y, z'
loop_
 _atom_site_type_symbol
 _atom_site_label
 _atom_site_symmetry_multiplicity
 _atom_site_fract_x
 _atom_site_fract_y
 _atom_site_fract_z
 _atom_site_occupancy
  Ti  Ti0  1  0.50000000  0.75000000  0.90242600  1
  Ti  Ti1  1  0.50000000  0.25000000  0.09757400  1
  Br  Br0  1  0.00000000  0.75000000  0.67109000  1
  Br  Br1  1  0.00000000  0.25000000  0.32891000  1
  O  O0  1  0.00000000  0.75000000  0.07517900  1
  O  O1  1  0.00000000  0.25000000  0.92482100  1
loop_
_geom_bond_atom_site_label_1
_geom_bond_atom_site_label_2
_geom_bond_distance
_geom_bond_site_symmetry_2
Br0 Ti0 2.695371 1_455
Br0 Ti0 2.695371 1_555
Br1 Ti1 2.695371 1_455
Br1 Ti1 2.695371 1_555
O0 Ti0 2.212064 1_554
O0 Ti0 2.212064 1_454
O0 Ti1 2.274427 1_455
O0 Ti1 2.274427 1_565
O0 Ti1 2.274427 1_555
O0 Ti1 2.274427 1_465
O1 Ti1 2.212064 1_556
O1 Ti1 2.212064 1_456
O1 Ti0 2.274427 1_455
O1 Ti0 2.274427 1_555
O1 Ti0 2.274427 1_545
O1 Ti0 2.274427 1_445
