# generated using pymatgen
data_Ca2AlAgO5
_symmetry_space_group_name_H-M   'P 1'
_cell_length_a   8.46509239
_cell_length_b   8.46509239
_cell_length_c   8.46509239
_cell_angle_alpha   142.25410812
_cell_angle_beta   139.59930992
_cell_angle_gamma   56.47753022
_symmetry_Int_Tables_number   1
_chemical_formula_structural   Ca2AlAgO5
_chemical_formula_sum   'Ca4 Al2 Ag2 O10'
_cell_volume   238.75869817
_cell_formula_units_Z   2
loop_
 _symmetry_equiv_pos_site_id
 _symmetry_equiv_pos_as_xyz
  1  'x, y, z'
loop_
 _atom_site_type_symbol
 _atom_site_label
 _atom_site_symmetry_multiplicity
 _atom_site_fract_x
 _atom_site_fract_y
 _atom_site_fract_z
 _atom_site_occupancy
  Ca  Ca0  1  0.35339200  0.86448200  0.44716300  1
  Ca  Ca1  1  0.08268100  0.59377000  0.44716300  1
  Ca  Ca2  1  0.64660800  0.09377000  0.51108900  1
  Ca  Ca3  1  0.91731900  0.36448200  0.51108900  1
  Al  Al0  1  0.67375000  0.71748700  0.89123700  1
  Al  Al1  1  0.32625000  0.21748700  0.04373800  1
  Ag  Ag0  1  0.50000000  0.49457500  0.99457500  1
  Ag  Ag1  1  0.00000000  0.99457500  0.99457500  1
  O  O0  1  0.59531600  0.39128900  0.48660500  1
  O  O1  1  0.40468400  0.89128900  0.79597300  1
  O  O2  1  0.25336700  0.39489600  0.96026200  1
  O  O3  1  0.74663300  0.70689500  0.14152900  1
  O  O4  1  0.93463400  0.89489600  0.14152900  1
  O  O5  1  0.06536600  0.20689500  0.96026200  1
  O  O6  1  0.27074000  0.76686100  0.97773700  1
  O  O7  1  0.72926000  0.70699700  0.49612100  1
  O  O8  1  0.71087600  0.20699700  0.97773700  1
  O  O9  1  0.28912400  0.26686100  0.49612100  1
loop_
_geom_bond_atom_site_label_1
_geom_bond_atom_site_label_2
_geom_bond_distance
_geom_bond_site_symmetry_2
Ca0 O4 2.324390 1_455
Ca0 O2 2.449069 1_554
Ca0 O1 2.460703 1_555
Ca0 O8 2.476407 1_565
Ca0 O7 2.500580 1_555
Ca0 O9 2.852005 1_565
Ca0 O6 2.859005 1_554
Ca1 O3 2.324396 1_455
Ca1 O5 2.449068 1_554
Ca1 O1 2.460709 1_555
Ca1 O6 2.476403 1_555
Ca1 O9 2.500573 1_555
Ca1 O7 2.852001 1_455
Ca1 O8 2.858999 1_454
Ca2 O5 2.324391 1_655
Ca2 O3 2.449063 1_545
Ca2 O0 2.460705 1_555
Ca2 O9 2.476410 1_555
Ca2 O6 2.500577 1_544
Ca2 O8 2.852007 1_555
Ca2 O7 2.859002 1_545
Ca3 O2 2.324396 1_655
Ca3 O4 2.449068 1_545
Ca3 O0 2.460709 1_555
Ca3 O7 2.476403 1_555
Ca3 O8 2.500573 1_554
Ca3 O6 2.852001 1_655
Ca3 O9 2.858999 1_655
Al0 O4 1.768099 1_556
Al0 O3 1.768099 1_556
Al0 O1 1.838532 1_555
Al0 O0 1.844305 1_555
Al1 O5 1.768094 1_554
Al1 O2 1.768106 1_554
Al1 O0 1.838528 1_555
Al1 O1 1.844307 1_544
Ag0 O8 2.042549 1_555
Ag0 O9 2.042549 1_555
Ag0 O6 2.063212 1_555
Ag0 O7 2.063212 1_556
Ag0 O2 2.406182 1_555
Ag0 O3 2.406182 1_556
Ag1 O7 2.042549 1_455
Ag1 O6 2.042549 1_555
Ag1 O9 2.063212 1_566
Ag1 O8 2.063212 1_465
Ag1 O4 2.406182 1_456
Ag1 O5 2.406182 1_565
