# generated using pymatgen
data_CdIn2SeS3
_symmetry_space_group_name_H-M   'P 1'
_cell_length_a   7.90651569
_cell_length_b   7.90651569
_cell_length_c   7.90651569
_cell_angle_alpha   120.23447302
_cell_angle_beta   119.75869297
_cell_angle_gamma   90.00641233
_symmetry_Int_Tables_number   1
_chemical_formula_structural   CdIn2SeS3
_chemical_formula_sum   'Cd2 In4 Se2 S6'
_cell_volume   349.50507190
_cell_formula_units_Z   2
loop_
 _symmetry_equiv_pos_site_id
 _symmetry_equiv_pos_as_xyz
  1  'x, y, z'
loop_
 _atom_site_type_symbol
 _atom_site_label
 _atom_site_symmetry_multiplicity
 _atom_site_fract_x
 _atom_site_fract_y
 _atom_site_fract_z
 _atom_site_occupancy
  Cd  Cd0  1  0.61642900  0.11642900  0.50000000  1
  Cd  Cd1  1  0.87654800  0.87654800  0.00000000  1
  In  In0  1  0.25325900  0.50351700  0.74974200  1
  In  In1  1  0.75377500  0.50351700  0.25025800  1
  In  In2  1  0.25012500  0.50622700  0.25610200  1
  In  In3  1  0.25012500  0.99402300  0.74389800  1
  Se  Se0  1  0.49221400  0.25865500  0.23356000  1
  Se  Se1  1  0.02509500  0.25865500  0.76644000  1
  S  S0  1  0.48981200  0.26117800  0.77136600  1
  S  S1  1  0.48981200  0.71844700  0.22863400  1
  S  S2  1  0.00970500  0.74072800  0.26897700  1
  S  S3  1  0.47175100  0.74072800  0.73102300  1
  S  S4  1  0.01067400  0.73976600  0.72909200  1
  S  S5  1  0.01067400  0.28158200  0.27090800  1
loop_
_geom_bond_atom_site_label_1
_geom_bond_atom_site_label_2
_geom_bond_distance
_geom_bond_site_symmetry_2
Cd0 S1 2.564172 1_545
Cd0 S0 2.564178 1_555
Cd0 Se0 2.645562 1_555
Cd0 Se1 2.645562 1_655
Cd1 S5 2.608516 1_665
Cd1 S4 2.608516 1_654
Cd1 S2 2.619516 1_655
Cd1 S3 2.619516 1_554
In0 S3 2.656383 1_555
In0 S4 2.681703 1_555
In0 S5 2.681703 1_555
In0 S1 2.685487 1_556
In0 S0 2.685488 1_555
In0 Se1 2.740976 1_555
In1 S2 2.656383 1_655
In1 S4 2.681703 1_655
In1 S5 2.681703 1_655
In1 S0 2.685488 1_554
In1 S1 2.685493 1_555
In1 Se0 2.740982 1_555
In2 S2 2.657849 1_555
In2 S3 2.657849 1_555
In2 S5 2.679812 1_555
In2 S1 2.688639 1_555
In2 Se0 2.741379 1_555
In2 Se1 2.741385 1_554
In3 S2 2.657849 1_555
In3 S3 2.657849 1_555
In3 S4 2.679812 1_555
In3 S0 2.688634 1_565
In3 Se1 2.741385 1_565
In3 Se0 2.741385 1_566
