# generated using pymatgen
data_Sm2VCo16
_symmetry_space_group_name_H-M   'P 1'
_cell_length_a   6.32439198
_cell_length_b   6.32439182
_cell_length_c   6.32439198
_cell_angle_alpha   82.93961829
_cell_angle_beta   82.93963192
_cell_angle_gamma   82.93961829
_symmetry_Int_Tables_number   1
_chemical_formula_structural   Sm2VCo16
_chemical_formula_sum   'Sm2 V1 Co16'
_cell_volume   247.64375116
_cell_formula_units_Z   1
loop_
 _symmetry_equiv_pos_site_id
 _symmetry_equiv_pos_as_xyz
  1  'x, y, z'
loop_
 _atom_site_type_symbol
 _atom_site_label
 _atom_site_symmetry_multiplicity
 _atom_site_fract_x
 _atom_site_fract_y
 _atom_site_fract_z
 _atom_site_occupancy
  Sm  Sm0  1  0.65661600  0.65661600  0.65661600  1
  Sm  Sm1  1  0.35063500  0.35063500  0.35063500  1
  V  V0  1  0.09130000  0.09130000  0.09130000  1
  Co  Co0  1  0.34324600  0.85112800  0.34324600  1
  Co  Co1  1  0.85112800  0.34324600  0.34324600  1
  Co  Co2  1  0.34324600  0.34324600  0.85112800  1
  Co  Co3  1  0.65739100  0.14818500  0.65739100  1
  Co  Co4  1  0.14818500  0.65739100  0.65739100  1
  Co  Co5  1  0.65739100  0.65739100  0.14818500  1
  Co  Co6  1  0.71021400  0.99829600  0.28858400  1
  Co  Co7  1  0.99829600  0.28858400  0.71021400  1
  Co  Co8  1  0.28858400  0.71021400  0.99829600  1
  Co  Co9  1  0.99829600  0.71021400  0.28858400  1
  Co  Co10  1  0.71021400  0.28858400  0.99829600  1
  Co  Co11  1  0.28858400  0.99829600  0.71021400  1
  Co  Co12  1  0.00099000  0.49998100  0.00099000  1
  Co  Co13  1  0.49998100  0.00099000  0.00099000  1
  Co  Co14  1  0.00099000  0.00099000  0.49998100  1
  Co  Co15  1  0.90471000  0.90471000  0.90471000  1
loop_
_geom_bond_atom_site_label_1
_geom_bond_atom_site_label_2
_geom_bond_distance
_geom_bond_site_symmetry_2
Sm1 V0 3.170808 1_555
Co0 Co14 2.401119 1_565
Co0 Co13 2.401119 1_565
Co0 Co4 2.478117 1_555
Co0 Co5 2.478117 1_555
Co0 Co9 2.532233 1_455
Co0 Co8 2.532233 1_554
Co0 Co6 2.574264 1_555
Co0 Co11 2.574264 1_555
Co0 V0 2.611369 1_565
Co0 Sm0 3.022559 1_555
Co0 Sm1 3.154582 1_555
Co0 Sm1 3.171318 1_565
Co1 Co14 2.401119 1_655
Co1 Co12 2.401119 1_655
Co1 Co5 2.478116 1_555
Co1 Co3 2.478117 1_555
Co1 Co10 2.532233 1_554
Co1 Co6 2.532233 1_545
Co1 Co7 2.574264 1_555
Co1 Co9 2.574264 1_555
Co1 V0 2.611370 1_655
Co1 Sm0 3.022559 1_555
Co1 Sm1 3.154583 1_555
Co1 Sm1 3.171318 1_655
Co2 Co4 2.478116 1_555
Co2 Co3 2.478117 1_555
Co2 Co7 2.532233 1_455
Co2 Co8 2.574264 1_555
Co2 V0 2.611370 1_556
Co2 Sm0 3.022559 1_555
Co2 Sm1 3.154583 1_555
Co2 Sm1 3.171318 1_556
Co3 Co7 2.503808 1_555
Co3 Co6 2.593229 1_545
Co3 Sm1 2.978402 1_555
Co3 Sm0 3.110088 1_545
Co3 Sm0 3.214320 1_555
Co4 Co8 2.503808 1_555
Co4 Co9 2.593229 1_455
Co4 Co7 2.593229 1_455
Co4 Sm1 2.978402 1_555
Co4 Sm0 3.110088 1_455
Co4 Sm0 3.214320 1_555
Co5 Co9 2.503808 1_555
Co5 Co6 2.503808 1_555
Co5 Co8 2.593229 1_554
Co5 Sm1 2.978402 1_555
Co5 Sm0 3.110088 1_554
Co5 Sm0 3.214320 1_555
Co6 Co9 2.413074 1_555
Co6 V0 2.672140 1_665
Co6 Sm0 2.991948 1_555
Co6 Sm1 3.006811 1_565
Co7 V0 2.672140 1_656
Co7 Sm0 2.991947 1_555
Co7 Sm1 3.006812 1_655
Co8 Co9 2.431553 1_456
Co8 V0 2.672140 1_566
Co8 Sm0 2.991948 1_555
Co8 Sm1 3.006811 1_556
Co9 V0 2.672140 1_665
Co9 Sm0 2.991948 1_555
Co9 Sm1 3.006811 1_655
Co10 Co13 2.378586 1_556
Co10 Co12 2.405683 1_656
Co10 Co7 2.413075 1_555
Co10 Co6 2.431552 1_546
Co10 Co3 2.503808 1_555
Co10 Co2 2.574264 1_555
Co10 Co5 2.593229 1_556
Co10 V0 2.672140 1_656
Co10 Co15 2.682832 1_545
Co10 Sm0 2.991947 1_555
Co10 Sm1 3.006812 1_556
Co11 Co14 2.378586 1_565
Co11 Co13 2.405682 1_566
Co11 Co8 2.413074 1_555
Co11 Co7 2.431552 1_465
Co11 Co4 2.503808 1_555
Co11 Co2 2.532233 1_565
Co11 Co3 2.593229 1_565
Co11 V0 2.672140 1_566
Co11 Co15 2.682832 1_455
Co11 Sm0 2.991948 1_555
Co11 Sm1 3.006811 1_565
Co12 Co8 2.378586 1_554
Co12 Co9 2.378586 1_455
Co12 Co2 2.401119 1_554
Co12 Co5 2.403863 1_455
Co12 Co4 2.403863 1_554
Co12 Co7 2.405683 1_454
Co12 Co15 2.572600 1_454
Co12 V0 2.585978 1_555
Co12 Sm0 3.251713 1_454
Co12 Sm1 3.293466 1_555
Co13 Co6 2.378586 1_545
Co13 Co2 2.401119 1_554
Co13 Co5 2.403862 1_545
Co13 Co3 2.403863 1_554
Co13 Co8 2.405683 1_544
Co13 Co15 2.572600 1_544
Co13 V0 2.585978 1_555
Co13 Sm0 3.251713 1_544
Co13 Sm1 3.293467 1_555
Co14 Co7 2.378586 1_455
Co14 Co4 2.403862 1_545
Co14 Co3 2.403863 1_455
Co14 Co6 2.405682 1_445
Co14 Co9 2.405683 1_445
Co14 Co15 2.572600 1_445
Co14 V0 2.585978 1_555
Co14 Sm0 3.251713 1_445
Co14 Sm1 3.293467 1_555
Co15 V0 2.281378 1_666
Co15 Co3 2.584845 1_565
Co15 Co5 2.584845 1_556
Co15 Co4 2.584845 1_655
Co15 Co8 2.682832 1_655
Co15 Co9 2.682832 1_556
Co15 Co7 2.682832 1_565
Co15 Co6 2.682832 1_556
Co15 Sm0 3.033368 1_555
