# generated using pymatgen
data_Cs2LaN5O17
_symmetry_space_group_name_H-M   'P 1'
_cell_length_a   10.48116323
_cell_length_b   10.48116323
_cell_length_c   10.79749701
_cell_angle_alpha   70.32882791
_cell_angle_beta   70.32882791
_cell_angle_gamma   51.75620346
_symmetry_Int_Tables_number   1
_chemical_formula_structural   Cs2LaN5O17
_chemical_formula_sum   'Cs4 La2 N10 O34'
_cell_volume   863.92985588
_cell_formula_units_Z   2
loop_
 _symmetry_equiv_pos_site_id
 _symmetry_equiv_pos_as_xyz
  1  'x, y, z'
loop_
 _atom_site_type_symbol
 _atom_site_label
 _atom_site_symmetry_multiplicity
 _atom_site_fract_x
 _atom_site_fract_y
 _atom_site_fract_z
 _atom_site_occupancy
  Cs  Cs0  1  0.91638500  0.57588700  0.20695600  1
  Cs  Cs1  1  0.42411300  0.08361500  0.29304400  1
  Cs  Cs2  1  0.08361500  0.42411300  0.79304400  1
  Cs  Cs3  1  0.57588700  0.91638500  0.70695600  1
  La  La0  1  0.24044300  0.75955700  0.25000000  1
  La  La1  1  0.75955700  0.24044300  0.75000000  1
  N  N0  1  0.20335900  0.47069900  0.42858700  1
  N  N1  1  0.52930100  0.79664100  0.07141300  1
  N  N2  1  0.79664100  0.52930100  0.57141300  1
  N  N3  1  0.47069900  0.20335900  0.92858700  1
  N  N4  1  0.92559900  0.86216200  0.85792800  1
  N  N5  1  0.13783800  0.07440100  0.64207200  1
  N  N6  1  0.07440100  0.13783800  0.14207200  1
  N  N7  1  0.86216200  0.92559900  0.35792800  1
  N  N8  1  0.41509000  0.58491000  0.75000000  1
  N  N9  1  0.58491000  0.41509000  0.25000000  1
  O  O0  1  0.16502100  0.58579800  0.47915000  1
  O  O1  1  0.41420200  0.83497900  0.02085000  1
  O  O2  1  0.83497900  0.41420200  0.52085000  1
  O  O3  1  0.58579800  0.16502100  0.97915000  1
  O  O4  1  0.21053400  0.34523700  0.50044000  1
  O  O5  1  0.65476300  0.78946600  0.99956000  1
  O  O6  1  0.78946600  0.65476300  0.49956000  1
  O  O7  1  0.34523700  0.21053400  0.00044000  1
  O  O8  1  0.23555200  0.48492600  0.30080100  1
  O  O9  1  0.51507400  0.76444800  0.19919900  1
  O  O10  1  0.76444800  0.51507400  0.69919900  1
  O  O11  1  0.48492600  0.23555200  0.80080100  1
  O  O12  1  0.94577500  0.94498500  0.40259500  1
  O  O13  1  0.05501500  0.05422500  0.09740500  1
  O  O14  1  0.05422500  0.05501500  0.59740500  1
  O  O15  1  0.94498500  0.94577500  0.90259500  1
  O  O16  1  0.93770300  0.83840200  0.26525000  1
  O  O17  1  0.16159800  0.06229700  0.23475000  1
  O  O18  1  0.06229700  0.16159800  0.73475000  1
  O  O19  1  0.83840200  0.93770300  0.76525000  1
  O  O20  1  0.98727400  0.71271500  0.90216700  1
  O  O21  1  0.28728500  0.01272600  0.59783300  1
  O  O22  1  0.01272600  0.28728500  0.09783300  1
  O  O23  1  0.71271500  0.98727400  0.40216700  1
  O  O24  1  0.47921000  0.50254400  0.85629900  1
  O  O25  1  0.49745600  0.52079000  0.64370100  1
  O  O26  1  0.52079000  0.49745600  0.14370100  1
  O  O27  1  0.50254400  0.47921000  0.35629900  1
  O  O28  1  0.28009800  0.71990200  0.75000000  1
  O  O29  1  0.71990200  0.28009800  0.25000000  1
  O  O30  1  0.20506600  0.70266100  0.05115900  1
  O  O31  1  0.29733900  0.79493400  0.44884100  1
  O  O32  1  0.79493400  0.29733900  0.94884100  1
  O  O33  1  0.70266100  0.20506600  0.55115900  1
loop_
_geom_bond_atom_site_label_1
_geom_bond_atom_site_label_2
_geom_bond_distance
_geom_bond_site_symmetry_2
Cs0 O22 3.061847 1_655
Cs0 O20 3.151930 1_554
Cs0 O6 3.162630 1_555
Cs0 O16 3.168343 1_555
Cs0 O5 3.271813 1_554
Cs0 O8 3.287804 1_655
Cs0 O2 3.326155 1_555
Cs0 O9 3.382209 1_555
Cs1 O23 3.061847 1_545
Cs1 O21 3.151930 1_555
Cs1 O7 3.162630 1_555
Cs1 O17 3.168343 1_555
Cs1 O4 3.271813 1_555
Cs1 O9 3.287804 1_545
Cs1 O3 3.326155 1_554
Cs1 O8 3.382209 1_555
Cs2 O20 3.061847 1_455
Cs2 O22 3.151930 1_556
Cs2 O4 3.162630 1_555
Cs2 O18 3.168343 1_555
Cs2 O7 3.271813 1_556
Cs2 O10 3.287804 1_455
Cs2 O0 3.326155 1_555
Cs2 O11 3.382209 1_555
Cs3 O21 3.061847 1_565
Cs3 O23 3.151930 1_555
Cs3 O5 3.162630 1_555
Cs3 O19 3.168343 1_555
Cs3 O6 3.271813 1_555
Cs3 O11 3.287804 1_565
Cs3 O1 3.326155 1_556
Cs3 O10 3.382209 1_555
La0 O31 2.602753 1_555
La0 O30 2.602753 1_555
La0 O17 2.696652 1_565
La0 O16 2.696652 1_455
La0 O12 2.707277 1_455
La0 O13 2.707277 1_565
La0 O27 2.712363 1_555
La0 O26 2.712363 1_555
La0 O0 2.737773 1_555
La0 O1 2.737773 1_555
La0 O8 2.773042 1_555
La0 O9 2.773042 1_555
La1 O33 2.602753 1_555
La1 O32 2.602753 1_555
La1 O18 2.696652 1_655
La1 O19 2.696652 1_545
La1 O15 2.707277 1_545
La1 O14 2.707277 1_655
La1 O25 2.712363 1_555
La1 O24 2.712363 1_555
La1 O2 2.737773 1_555
La1 O3 2.737773 1_555
La1 O11 2.773042 1_555
La1 O10 2.773042 1_555
N0 O4 1.251706 1_555
N0 O0 1.269034 1_555
N0 O8 1.284596 1_555
N1 O5 1.251706 1_554
N1 O1 1.269034 1_555
N1 O9 1.284596 1_555
N2 O6 1.251706 1_555
N2 O2 1.269034 1_555
N2 O10 1.284596 1_555
N3 O7 1.251706 1_556
N3 O3 1.269034 1_555
N3 O11 1.284596 1_555
N4 O20 1.245062 1_555
N4 O15 1.269991 1_555
N4 O19 1.284519 1_555
N5 O21 1.245062 1_555
N5 O14 1.269991 1_555
N5 O18 1.284519 1_555
N6 O22 1.245062 1_555
N6 O13 1.269991 1_555
N6 O17 1.284519 1_555
N7 O23 1.245062 1_555
N7 O12 1.269991 1_555
N7 O16 1.284519 1_555
N8 O28 1.235065 1_555
N8 O24 1.283839 1_555
N8 O25 1.283839 1_555
N9 O29 1.235065 1_555
N9 O27 1.283839 1_555
N9 O26 1.283839 1_555
