# generated using pymatgen
data_Na4Ce2(Si4O11)3
_symmetry_space_group_name_H-M   'P 1'
_cell_length_a   7.11020800
_cell_length_b   7.51929300
_cell_length_c   15.31668900
_cell_angle_alpha   90.00000000
_cell_angle_beta   90.00000000
_cell_angle_gamma   90.00000000
_symmetry_Int_Tables_number   1
_chemical_formula_structural   Na4Ce2(Si4O11)3
_chemical_formula_sum   'Na4 Ce2 Si12 O33'
_cell_volume   818.88743613
_cell_formula_units_Z   1
loop_
 _symmetry_equiv_pos_site_id
 _symmetry_equiv_pos_as_xyz
  1  'x, y, z'
loop_
 _atom_site_type_symbol
 _atom_site_label
 _atom_site_symmetry_multiplicity
 _atom_site_fract_x
 _atom_site_fract_y
 _atom_site_fract_z
 _atom_site_occupancy
  Na  Na0  1  0.00681200  0.50000000  0.23857400  1
  Na  Na1  1  0.00681200  0.50000000  0.76142600  1
  Na  Na2  1  0.87156700  0.77079500  0.50000000  1
  Na  Na3  1  0.87156700  0.22920500  0.50000000  1
  Ce  Ce0  1  0.99780500  0.00000000  0.25261900  1
  Ce  Ce1  1  0.99780500  0.00000000  0.74738100  1
  Si  Si0  1  0.74666300  0.70885300  0.09966900  1
  Si  Si1  1  0.74666300  0.29114700  0.90033100  1
  Si  Si2  1  0.74666300  0.70885300  0.90033100  1
  Si  Si3  1  0.74666300  0.29114700  0.09966900  1
  Si  Si4  1  0.28966500  0.70371500  0.39965300  1
  Si  Si5  1  0.28966500  0.29628500  0.60034700  1
  Si  Si6  1  0.28966500  0.70371500  0.60034700  1
  Si  Si7  1  0.28966500  0.29628500  0.39965300  1
  Si  Si8  1  0.48352200  0.00000000  0.15839100  1
  Si  Si9  1  0.48352200  0.00000000  0.84160900  1
  Si  Si10  1  0.59313300  0.00000000  0.35723600  1
  Si  Si11  1  0.59313300  0.00000000  0.64276400  1
  O  O0  1  0.82739200  0.72365300  0.00000000  1
  O  O1  1  0.82739200  0.27634700  0.00000000  1
  O  O2  1  0.12334400  0.75691400  0.33248400  1
  O  O3  1  0.12334400  0.24308600  0.66751600  1
  O  O4  1  0.12334400  0.75691400  0.66751600  1
  O  O5  1  0.12334400  0.24308600  0.33248400  1
  O  O6  1  0.90043600  0.77718000  0.17043800  1
  O  O7  1  0.90043600  0.22282000  0.82956200  1
  O  O8  1  0.90043600  0.77718000  0.82956200  1
  O  O9  1  0.90043600  0.22282000  0.17043800  1
  O  O10  1  0.54936300  0.82042000  0.10653100  1
  O  O11  1  0.54936300  0.17958000  0.89346900  1
  O  O12  1  0.54936300  0.82042000  0.89346900  1
  O  O13  1  0.54936300  0.17958000  0.10653100  1
  O  O14  1  0.47871600  0.82464900  0.39067700  1
  O  O15  1  0.47871600  0.17535100  0.60932300  1
  O  O16  1  0.47871600  0.82464900  0.60932300  1
  O  O17  1  0.47871600  0.17535100  0.39067700  1
  O  O18  1  0.20880100  0.72780700  0.50000000  1
  O  O19  1  0.20880100  0.27219300  0.50000000  1
  O  O20  1  0.26378700  0.00000000  0.18236100  1
  O  O21  1  0.26378700  0.00000000  0.81763900  1
  O  O22  1  0.60921800  0.00000000  0.25034200  1
  O  O23  1  0.60921800  0.00000000  0.74965800  1
  O  O24  1  0.80838400  0.00000000  0.38980200  1
  O  O25  1  0.80838400  0.00000000  0.61019800  1
  O  O26  1  0.70093200  0.50000000  0.12245900  1
  O  O27  1  0.70093200  0.50000000  0.87754100  1
  O  O28  1  0.36270200  0.50000000  0.38506200  1
  O  O29  1  0.36270200  0.50000000  0.61493800  1
  O  O30  1  0.91880400  0.50000000  0.38319700  1
  O  O31  1  0.91880400  0.50000000  0.61680300  1
  O  O32  1  0.18153300  0.00000000  0.00000000  1
loop_
_geom_bond_atom_site_label_1
_geom_bond_atom_site_label_2
_geom_bond_distance
_geom_bond_site_symmetry_2
Na0 O30 2.301834 1_455
Na0 O9 2.450529 1_455
Na0 O6 2.450529 1_455
Na0 O2 2.547035 1_555
Na0 O5 2.547035 1_555
Na0 O26 2.809469 1_455
Na1 O31 2.301834 1_455
Na1 O7 2.450529 1_455
Na1 O8 2.450529 1_455
Na1 O3 2.547035 1_555
Na1 O4 2.547035 1_555
Na1 O27 2.809469 1_455
Na2 O18 2.419493 1_655
Na2 O24 2.453779 1_565
Na2 O25 2.453779 1_565
Na2 O31 2.731210 1_555
Na2 O30 2.731210 1_555
Na3 O19 2.419493 1_655
Na3 O24 2.453779 1_555
Na3 O25 2.453779 1_555
Na3 O31 2.731210 1_555
Na3 O30 2.731210 1_555
Ce0 O20 2.175919 1_655
Ce0 O6 2.207002 1_545
Ce0 O9 2.207002 1_555
Ce0 O5 2.373629 1_655
Ce0 O2 2.373629 1_645
Ce0 O24 2.495782 1_555
Ce0 O22 2.763155 1_555
Ce1 O21 2.175919 1_655
Ce1 O8 2.207002 1_545
Ce1 O7 2.207002 1_555
Ce1 O4 2.373629 1_645
Ce1 O3 2.373629 1_655
Ce1 O25 2.495782 1_555
Ce1 O23 2.763155 1_555
O0 Si0 1.634737 1_555
O0 Si2 1.634737 1_554
O1 Si3 1.634737 1_555
O1 Si1 1.634737 1_554
O2 Si4 1.617698 1_555
O3 Si5 1.617698 1_555
O4 Si6 1.617698 1_555
O5 Si7 1.617698 1_555
O6 Si0 1.623063 1_555
O7 Si1 1.623063 1_555
O8 Si2 1.623063 1_555
O9 Si3 1.623063 1_555
O10 Si8 1.635071 1_565
O10 Si0 1.637919 1_555
O11 Si9 1.635071 1_555
O11 Si1 1.637919 1_555
O12 Si9 1.635071 1_565
O12 Si2 1.637919 1_555
O13 Si8 1.635071 1_555
O13 Si3 1.637919 1_555
O14 Si4 1.628696 1_555
O14 Si10 1.631768 1_565
O15 Si5 1.628696 1_555
O15 Si11 1.631768 1_555
O16 Si6 1.628696 1_555
O16 Si11 1.631768 1_565
O17 Si7 1.628696 1_555
O17 Si10 1.631768 1_555
O18 Si6 1.650974 1_555
O18 Si4 1.650974 1_555
O19 Si5 1.650974 1_555
O19 Si7 1.650974 1_555
O20 Si8 1.604919 1_555
O21 Si9 1.604919 1_555
O22 Si10 1.641252 1_555
O22 Si8 1.668020 1_555
O23 Si11 1.641252 1_555
O23 Si9 1.668020 1_555
O24 Si10 1.609712 1_555
O25 Si11 1.609712 1_555
O26 Si0 1.641285 1_555
O26 Si3 1.641285 1_555
O27 Si2 1.641285 1_555
O27 Si1 1.641285 1_555
O28 Si4 1.632794 1_555
O28 Si7 1.632794 1_555
O29 Si6 1.632794 1_555
O29 Si5 1.632794 1_555
