# generated using pymatgen
data_BaMgV2Ni3(HO5)2
_symmetry_space_group_name_H-M   'P 1'
_cell_length_a   6.07551081
_cell_length_b   5.95868333
_cell_length_c   8.11201488
_cell_angle_alpha   64.33213654
_cell_angle_beta   69.65323383
_cell_angle_gamma   61.17158882
_symmetry_Int_Tables_number   1
_chemical_formula_structural   BaMgV2Ni3(HO5)2
_chemical_formula_sum   'Ba1 Mg1 V2 Ni3 H2 O10'
_cell_volume   228.27540768
_cell_formula_units_Z   1
loop_
 _symmetry_equiv_pos_site_id
 _symmetry_equiv_pos_as_xyz
  1  'x, y, z'
loop_
 _atom_site_type_symbol
 _atom_site_label
 _atom_site_symmetry_multiplicity
 _atom_site_fract_x
 _atom_site_fract_y
 _atom_site_fract_z
 _atom_site_occupancy
  Ba  Ba0  1  0.12225000  0.41226700  0.45646800  1
  Mg  Mg0  1  0.55123400  0.74903100  0.65788600  1
  V  V0  1  0.54695300  0.14278600  0.75946500  1
  V  V1  1  0.45585800  0.89084700  0.24126400  1
  Ni  Ni0  1  0.01674400  0.00412900  0.00676000  1
  Ni  Ni1  1  0.00488000  0.50823100  0.00577200  1
  Ni  Ni2  1  0.51136900  0.50156100  0.02105100  1
  H  H0  1  0.14632300  0.80426200  0.73318700  1
  H  H1  1  0.76387200  0.19576500  0.28425100  1
  O  O0  1  0.20753400  0.26329100  0.82663800  1
  O  O1  1  0.71344800  0.33076900  0.75728800  1
  O  O2  1  0.80226000  0.76335500  0.17058400  1
  O  O3  1  0.29764800  0.75873400  0.16862200  1
  O  O4  1  0.69932600  0.75628200  0.84692900  1
  O  O5  1  0.31409500  0.26535500  0.14603800  1
  O  O6  1  0.33840200  0.82392100  0.48492900  1
  O  O7  1  0.58668300  0.11659700  0.52974200  1
  O  O8  1  0.20165800  0.76301600  0.84770400  1
  O  O9  1  0.81321400  0.26230100  0.14709000  1
loop_
_geom_bond_atom_site_label_1
_geom_bond_atom_site_label_2
_geom_bond_distance
_geom_bond_site_symmetry_2
Ba0 O7 2.623749 1_555
Ba0 O3 2.658026 1_555
Ba0 O5 2.711255 1_555
Ba0 O1 2.877707 1_455
Ba0 O0 2.898725 1_555
Ba0 O2 2.923074 1_455
Ba0 O6 3.022923 1_545
Mg0 O6 2.000596 1_555
Mg0 O4 2.053643 1_555
Mg0 O7 2.061756 1_565
Mg0 O1 2.067824 1_555
Mg0 O8 2.134242 1_555
Ni0 O9 1.973626 1_455
Ni0 O8 2.008081 1_544
Ni0 O3 2.064752 1_545
Ni0 O0 2.111176 1_554
Ni0 O2 2.114114 1_445
Ni1 O9 2.019809 1_455
Ni1 O5 2.087197 1_555
Ni1 O8 2.091947 1_554
Ni1 O2 2.103655 1_455
Ni1 O0 2.148931 1_554
Ni1 O4 2.158377 1_454
Ni2 O9 1.990154 1_555
Ni2 O5 1.997748 1_555
Ni2 O3 2.014128 1_555
Ni2 O4 2.072540 1_554
Ni2 O8 2.249497 1_554
Ni2 O1 2.444548 1_554
H0 O8 0.987981 1_555
H1 O9 0.992754 1_555
O0 V0 1.787327 1_555
O1 V0 1.827939 1_555
O2 V1 1.825222 1_555
O3 V1 1.848338 1_555
O4 V0 1.910381 1_565
O5 V1 1.853159 1_545
O6 V1 1.784926 1_555
O7 V0 1.859599 1_555
