# generated using pymatgen
data_Na2ZnH4(SO4)2
_symmetry_space_group_name_H-M   'P 1'
_cell_length_a   5.50988141
_cell_length_b   8.30564500
_cell_length_c   11.20643124
_cell_angle_alpha   90.00000000
_cell_angle_beta   110.74801213
_cell_angle_gamma   90.00000000
_symmetry_Int_Tables_number   1
_chemical_formula_structural   Na2ZnH4(SO4)2
_chemical_formula_sum   'Na4 Zn2 H8 S4 O16'
_cell_volume   479.58221017
_cell_formula_units_Z   2
loop_
 _symmetry_equiv_pos_site_id
 _symmetry_equiv_pos_as_xyz
  1  'x, y, z'
loop_
 _atom_site_type_symbol
 _atom_site_label
 _atom_site_symmetry_multiplicity
 _atom_site_fract_x
 _atom_site_fract_y
 _atom_site_fract_z
 _atom_site_occupancy
  Na  Na0  1  0.16670400  0.03091900  0.37690300  1
  Na  Na1  1  0.83329600  0.96908100  0.62309700  1
  Na  Na2  1  0.83329600  0.53091900  0.12309700  1
  Na  Na3  1  0.16670400  0.46908100  0.87690300  1
  Zn  Zn0  1  0.00000000  0.00000000  0.00000000  1
  Zn  Zn1  1  0.00000000  0.50000000  0.50000000  1
  H  H0  1  0.26931200  0.60684000  0.42353900  1
  H  H1  1  0.73068800  0.39316000  0.57646100  1
  H  H2  1  0.73068800  0.10684000  0.07646100  1
  H  H3  1  0.26931200  0.89316000  0.92353900  1
  H  H4  1  0.25621400  0.83130400  0.97087000  1
  H  H5  1  0.74378600  0.16869600  0.02913000  1
  H  H6  1  0.74378600  0.33130400  0.52913000  1
  H  H7  1  0.25621400  0.66869600  0.47087000  1
  S  S0  1  0.33781700  0.27537900  0.16521300  1
  S  S1  1  0.66218300  0.72462100  0.83478700  1
  S  S2  1  0.66218300  0.77537900  0.33478700  1
  S  S3  1  0.33781700  0.22462100  0.66521300  1
  O  O0  1  0.27690800  0.24881800  0.28110100  1
  O  O1  1  0.72309200  0.75118200  0.71889900  1
  O  O2  1  0.72309200  0.74881800  0.21889900  1
  O  O3  1  0.27690800  0.25118200  0.78110100  1
  O  O4  1  0.60883000  0.32223500  0.19157200  1
  O  O5  1  0.39117000  0.67776500  0.80842800  1
  O  O6  1  0.39117000  0.82223500  0.30842800  1
  O  O7  1  0.60883000  0.17776500  0.69157200  1
  O  O8  1  0.30115200  0.11171600  0.09101400  1
  O  O9  1  0.69884800  0.88828400  0.90898600  1
  O  O10  1  0.69884800  0.61171600  0.40898600  1
  O  O11  1  0.30115200  0.38828400  0.59101400  1
  O  O12  1  0.15555900  0.39190600  0.07777700  1
  O  O13  1  0.84444100  0.60809400  0.92222300  1
  O  O14  1  0.84444100  0.89190600  0.42222300  1
  O  O15  1  0.15555900  0.10809400  0.57777700  1
loop_
_geom_bond_atom_site_label_1
_geom_bond_atom_site_label_2
_geom_bond_distance
_geom_bond_site_symmetry_2
Na0 O0 2.293152 1_555
Na0 O14 2.320092 1_445
Na0 O15 2.362190 1_555
Na0 O6 2.407294 1_545
Na1 O1 2.293152 1_555
Na1 O15 2.320092 1_665
Na1 O14 2.362190 1_555
Na1 O7 2.407294 1_565
Na2 O2 2.293152 1_555
Na2 O12 2.320092 1_655
Na2 O13 2.362190 1_554
Na2 O4 2.407294 1_555
Na3 O3 2.293152 1_555
Na3 O13 2.320092 1_455
Na3 O12 2.362190 1_556
Na3 O5 2.407294 1_555
H0 H7 0.760006 1_555
H1 H6 0.760006 1_555
H2 H5 0.760006 1_555
H3 H4 0.760006 1_555
H4 Zn0 2.095033 1_566
H5 Zn0 2.095033 1_655
H6 Zn1 2.095033 1_655
H7 Zn1 2.095033 1_555
O0 S0 1.468569 1_555
O1 S1 1.468569 1_555
O2 S2 1.468569 1_555
O3 S3 1.468569 1_555
O4 S0 1.468326 1_555
O5 S1 1.468326 1_555
O6 S2 1.468326 1_555
O7 S3 1.468326 1_555
O8 S0 1.568747 1_555
O8 Zn0 1.858884 1_555
O9 S1 1.568747 1_555
O9 Zn0 1.858884 1_666
O10 S2 1.568747 1_555
O10 Zn1 1.858884 1_655
O11 S3 1.568747 1_555
O11 Zn1 1.858884 1_555
O12 S0 1.485963 1_555
O13 S1 1.485963 1_555
O14 S2 1.485963 1_555
O15 S3 1.485963 1_555
