# generated using pymatgen
data_Li3GaF6
_symmetry_space_group_name_H-M   'P 1'
_cell_length_a   8.27490138
_cell_length_b   8.27490138
_cell_length_c   9.88124522
_cell_angle_alpha   85.21215421
_cell_angle_beta   85.21215421
_cell_angle_gamma   61.99329667
_symmetry_Int_Tables_number   1
_chemical_formula_structural   Li3GaF6
_chemical_formula_sum   'Li18 Ga6 F36'
_cell_volume   594.53387448
_cell_formula_units_Z   6
loop_
 _symmetry_equiv_pos_site_id
 _symmetry_equiv_pos_as_xyz
  1  'x, y, z'
loop_
 _atom_site_type_symbol
 _atom_site_label
 _atom_site_symmetry_multiplicity
 _atom_site_fract_x
 _atom_site_fract_y
 _atom_site_fract_z
 _atom_site_occupancy
  Li  Li0  1  0.87365936  0.46415807  0.45000512  1
  Li  Li1  1  0.53584193  0.12634064  0.04999488  1
  Li  Li2  1  0.12634064  0.53584193  0.54999488  1
  Li  Li3  1  0.46415807  0.87365936  0.95000512  1
  Li  Li4  1  0.70790880  0.00714110  0.77003879  1
  Li  Li5  1  0.99285890  0.29209120  0.72996121  1
  Li  Li6  1  0.18792237  0.81207763  0.75000000  1
  Li  Li7  1  0.81207763  0.18792237  0.25000000  1
  Li  Li8  1  0.65588372  0.93989508  0.43276118  1
  Li  Li9  1  0.06010492  0.34411628  0.06723882  1
  Li  Li10  1  0.34411628  0.06010492  0.56723882  1
  Li  Li11  1  0.93989508  0.65588372  0.93276118  1
  Li  Li12  1  0.32769898  0.63238287  0.03287813  1
  Li  Li13  1  0.36761713  0.67230102  0.46712187  1
  Li  Li14  1  0.67230102  0.36761713  0.96712187  1
  Li  Li15  1  0.63238287  0.32769898  0.53287813  1
  Li  Li16  1  0.29209120  0.99285890  0.22996121  1
  Li  Li17  1  0.00714110  0.70790880  0.27003879  1
  Ga  Ga0  1  0.66448023  0.65840582  0.20699667  1
  Ga  Ga1  1  0.34159418  0.33551977  0.29300333  1
  Ga  Ga2  1  0.33551977  0.34159418  0.79300333  1
  Ga  Ga3  1  0.65840582  0.66448023  0.70699667  1
  Ga  Ga4  1  -0.00000000  0.00000000  0.50000000  1
  Ga  Ga5  1  -0.00000000  0.00000000  0.00000000  1
  F  F0  1  0.24205752  0.56087902  0.19139981  1
  F  F1  1  0.22746981  0.27237945  0.65736041  1
  F  F2  1  0.27237945  0.22746981  0.15736041  1
  F  F3  1  0.77253019  0.72762055  0.34263959  1
  F  F4  1  0.75922377  0.08570017  0.93700702  1
  F  F5  1  0.91429983  0.24077623  0.56299298  1
  F  F6  1  0.24077623  0.91429983  0.06299298  1
  F  F7  1  0.08570017  0.75922377  0.43700702  1
  F  F8  1  0.72762055  0.77253019  0.84263959  1
  F  F9  1  0.76050022  0.09309893  0.43347289  1
  F  F10  1  0.09309893  0.76050022  0.93347289  1
  F  F11  1  0.23949978  0.90690107  0.56652711  1
  F  F12  1  0.43912098  0.75794248  0.30860019  1
  F  F13  1  0.42753515  0.41207738  0.93434107  1
  F  F14  1  0.41207738  0.42753515  0.43434107  1
  F  F15  1  0.57246485  0.58792262  0.06565893  1
  F  F16  1  0.58361281  0.89610415  0.61056999  1
  F  F17  1  0.10389585  0.41638719  0.88943001  1
  F  F18  1  0.41638719  0.10389585  0.38943001  1
  F  F19  1  0.89610415  0.58361281  0.11056999  1
  F  F20  1  0.92069914  0.93239671  0.16831458  1
  F  F21  1  0.06760329  0.07930086  0.33168542  1
  F  F22  1  0.07930086  0.06760329  0.83168542  1
  F  F23  1  0.93239671  0.92069914  0.66831458  1
  F  F24  1  0.75794248  0.43912098  0.80860019  1
  F  F25  1  0.56087902  0.24205752  0.69139981  1
  F  F26  1  0.10729315  0.42826590  0.38625857  1
  F  F27  1  0.58792262  0.57246485  0.56565893  1
  F  F28  1  0.89270685  0.57173410  0.61374143  1
  F  F29  1  0.42826590  0.10729315  0.88625857  1
  F  F30  1  0.24894393  0.56951008  0.69316987  1
  F  F31  1  0.43048992  0.75105607  0.80683013  1
  F  F32  1  0.75105607  0.43048992  0.30683013  1
  F  F33  1  0.56951008  0.24894393  0.19316987  1
  F  F34  1  0.90690107  0.23949978  0.06652711  1
  F  F35  1  0.57173410  0.89270685  0.11374143  1
loop_
_geom_bond_atom_site_label_1
_geom_bond_atom_site_label_2
_geom_bond_distance
_geom_bond_site_symmetry_2
F0 Li12 1.832941 1_555
F0 Ga1 1.883330 1_555
F0 Li17 1.883443 1_555
F1 Li10 1.826331 1_555
F1 Ga2 1.932109 1_555
F1 Li5 1.949323 1_455
F1 Li2 2.151157 1_555
F2 Li9 1.826331 1_555
F2 Ga1 1.932109 1_555
F2 Li16 1.949323 1_545
F2 Li1 2.151157 1_555
F3 Li8 1.826331 1_555
F3 Ga0 1.932109 1_555
F3 Li17 1.949323 1_655
F3 Li0 2.151157 1_555
F4 Ga5 1.914782 1_656
F4 Li4 1.969807 1_555
F4 Li1 1.977564 1_556
F4 Li14 2.133619 1_555
F5 Ga4 1.914782 1_655
F5 Li5 1.969807 1_555
F5 Li0 1.977564 1_555
F5 Li15 2.133619 1_555
F6 Ga5 1.914782 1_565
F6 Li16 1.969807 1_555
F6 Li3 1.977564 1_554
F6 Li12 2.133619 1_555
F7 Ga4 1.914782 1_565
F7 Li17 1.969807 1_555
F7 Li2 1.977564 1_555
F7 Li13 2.133619 1_555
F8 Li11 1.826331 1_555
F8 Ga3 1.932109 1_555
F8 Li4 1.949323 1_565
F8 Li3 2.151157 1_555
F9 Li8 1.841155 1_545
F9 Ga4 1.911119 1_655
F9 Li7 2.008101 1_555
F9 Li15 2.017176 1_555
F10 Li11 1.841155 1_455
F10 Ga5 1.911119 1_566
F10 Li6 2.008101 1_555
F10 Li12 2.017176 1_556
F11 Li10 1.841155 1_565
F11 Ga4 1.911119 1_565
F11 Li6 2.008101 1_555
F11 Li13 2.017176 1_555
F12 Li13 1.832941 1_555
F12 Ga0 1.883330 1_555
F12 Li16 1.883443 1_555
F13 Ga2 1.897619 1_555
F13 Li12 1.923930 1_556
F13 Li14 1.931938 1_555
F13 Li1 2.330148 1_556
F14 Ga1 1.897619 1_555
F14 Li15 1.923930 1_555
F14 Li13 1.931938 1_555
F14 Li2 2.330148 1_555
F15 Ga0 1.897619 1_555
F15 Li14 1.923930 1_554
F15 Li12 1.931938 1_555
F15 Li3 2.330148 1_554
F16 Li10 1.863171 1_565
F16 Li8 1.870226 1_555
F16 Ga3 1.908936 1_555
F16 Li4 2.405178 1_565
F17 Li11 1.863171 1_455
F17 Li9 1.870226 1_556
F17 Ga2 1.908936 1_555
F17 Li5 2.405178 1_455
F18 Li8 1.863171 1_545
F18 Li10 1.870226 1_555
F18 Ga1 1.908936 1_555
F18 Li16 2.405178 1_545
F19 Li9 1.863171 1_655
F19 Li11 1.870226 1_554
F19 Ga0 1.908936 1_555
F19 Li17 2.405178 1_655
F20 Ga5 1.875338 1_665
F20 Li17 1.879672 1_655
F20 Li7 2.075861 1_565
F21 Ga4 1.875338 1_555
F21 Li16 1.879672 1_545
F21 Li7 2.075861 1_455
F22 Ga5 1.875338 1_556
F22 Li5 1.879672 1_455
F22 Li6 2.075861 1_545
F23 Ga4 1.875338 1_665
F23 Li4 1.879672 1_565
F23 Li6 2.075861 1_655
F24 Li14 1.832941 1_555
F24 Ga3 1.883330 1_555
F24 Li5 1.883443 1_555
F25 Li15 1.832941 1_555
F25 Ga2 1.883330 1_555
F25 Li4 1.883443 1_555
F26 Li0 1.873847 1_455
F26 Ga1 1.902505 1_555
F26 Li2 1.962062 1_555
F26 Li17 2.296636 1_555
F27 Ga3 1.897619 1_555
F27 Li13 1.923930 1_555
F27 Li15 1.931938 1_555
F27 Li0 2.330148 1_555
F28 Li2 1.873847 1_655
F28 Ga3 1.902505 1_555
F28 Li0 1.962062 1_555
F28 Li5 2.296636 1_555
F29 Li3 1.873847 1_545
F29 Ga2 1.902505 1_555
F29 Li1 1.962062 1_556
F29 Li4 2.296636 1_555
F30 Ga2 1.892562 1_555
F30 Li2 1.918136 1_555
F30 Li6 1.946333 1_555
F31 Ga3 1.892562 1_555
F31 Li3 1.918136 1_555
F31 Li6 1.946333 1_555
F32 Ga0 1.892562 1_555
F32 Li0 1.918136 1_555
F32 Li7 1.946333 1_555
F33 Ga1 1.892562 1_555
F33 Li1 1.918136 1_555
F33 Li7 1.946333 1_555
F34 Li9 1.841155 1_655
F34 Ga5 1.911119 1_655
F34 Li7 2.008101 1_555
F34 Li14 2.017176 1_554
F35 Li1 1.873847 1_565
F35 Ga0 1.902505 1_555
F35 Li3 1.962062 1_554
F35 Li16 2.296636 1_555
