# generated using pymatgen
data_KUN3O11
_symmetry_space_group_name_H-M   'P 1'
_cell_length_a   9.47704200
_cell_length_b   12.55842800
_cell_length_c   16.87669000
_cell_angle_alpha   90.00000000
_cell_angle_beta   90.00000000
_cell_angle_gamma   90.00000000
_symmetry_Int_Tables_number   1
_chemical_formula_structural   KUN3O11
_chemical_formula_sum   'K8 U8 N24 O88'
_cell_volume   2008.60878798
_cell_formula_units_Z   8
loop_
 _symmetry_equiv_pos_site_id
 _symmetry_equiv_pos_as_xyz
  1  'x, y, z'
loop_
 _atom_site_type_symbol
 _atom_site_label
 _atom_site_symmetry_multiplicity
 _atom_site_fract_x
 _atom_site_fract_y
 _atom_site_fract_z
 _atom_site_occupancy
  K  K0  1  0.74363500  0.69794300  0.37825800  1
  K  K1  1  0.24363500  0.80205700  0.62174200  1
  K  K2  1  0.25636500  0.19794300  0.12174200  1
  K  K3  1  0.75636500  0.30205700  0.87825800  1
  K  K4  1  0.25636500  0.30205700  0.62174200  1
  K  K5  1  0.75636500  0.19794300  0.37825800  1
  K  K6  1  0.74363500  0.80205700  0.87825800  1
  K  K7  1  0.24363500  0.69794300  0.12174200  1
  U  U0  1  0.23783600  0.98375100  0.36968500  1
  U  U1  1  0.73783600  0.51624900  0.63031500  1
  U  U2  1  0.76216400  0.48375100  0.13031500  1
  U  U3  1  0.26216400  0.01624900  0.86968500  1
  U  U4  1  0.76216400  0.01624900  0.63031500  1
  U  U5  1  0.26216400  0.48375100  0.36968500  1
  U  U6  1  0.23783600  0.51624900  0.86968500  1
  U  U7  1  0.73783600  0.98375100  0.13031500  1
  N  N0  1  0.54445200  0.95750300  0.38031400  1
  N  N1  1  0.04445200  0.54249700  0.61968600  1
  N  N2  1  0.45554800  0.45750300  0.11968600  1
  N  N3  1  0.95554800  0.04249700  0.88031400  1
  N  N4  1  0.45554800  0.04249700  0.61968600  1
  N  N5  1  0.95554800  0.45750300  0.38031400  1
  N  N6  1  0.54445200  0.54249700  0.88031400  1
  N  N7  1  0.04445200  0.95750300  0.11968600  1
  N  N8  1  0.07023900  0.80729200  0.30589100  1
  N  N9  1  0.57023900  0.69270800  0.69410900  1
  N  N10  1  0.92976100  0.30729200  0.19410900  1
  N  N11  1  0.42976100  0.19270800  0.80589100  1
  N  N12  1  0.92976100  0.19270800  0.69410900  1
  N  N13  1  0.42976100  0.30729200  0.30589100  1
  N  N14  1  0.07023900  0.69270800  0.80589100  1
  N  N15  1  0.57023900  0.80729200  0.19410900  1
  N  N16  1  0.09917300  0.16302400  0.45098100  1
  N  N17  1  0.59917300  0.33697600  0.54901900  1
  N  N18  1  0.90082700  0.66302400  0.04901900  1
  N  N19  1  0.40082700  0.83697600  0.95098100  1
  N  N20  1  0.90082700  0.83697600  0.54901900  1
  N  N21  1  0.40082700  0.66302400  0.45098100  1
  N  N22  1  0.09917300  0.33697600  0.95098100  1
  N  N23  1  0.59917300  0.16302400  0.04901900  1
  O  O0  1  0.23057600  0.91651300  0.46363300  1
  O  O1  1  0.73057600  0.58348700  0.53636700  1
  O  O2  1  0.76942400  0.41651300  0.03636700  1
  O  O3  1  0.26942400  0.08348700  0.96363300  1
  O  O4  1  0.76942400  0.08348700  0.53636700  1
  O  O5  1  0.26942400  0.41651300  0.46363300  1
  O  O6  1  0.23057600  0.58348700  0.96363300  1
  O  O7  1  0.73057600  0.91651300  0.03636700  1
  O  O8  1  0.24475500  0.05035000  0.27505000  1
  O  O9  1  0.74475500  0.44965000  0.72495000  1
  O  O10  1  0.75524500  0.55035000  0.22495000  1
  O  O11  1  0.25524500  0.94965000  0.77505000  1
  O  O12  1  0.75524500  0.94965000  0.72495000  1
  O  O13  1  0.25524500  0.55035000  0.27505000  1
  O  O14  1  0.24475500  0.44965000  0.77505000  1
  O  O15  1  0.74475500  0.05035000  0.22495000  1
  O  O16  1  0.48197300  0.04314900  0.40385900  1
  O  O17  1  0.98197300  0.45685100  0.59614100  1
  O  O18  1  0.51802700  0.54314900  0.09614100  1
  O  O19  1  0.01802700  0.95685100  0.90385900  1
  O  O20  1  0.51802700  0.95685100  0.59614100  1
  O  O21  1  0.01802700  0.54314900  0.40385900  1
  O  O22  1  0.48197300  0.45685100  0.90385900  1
  O  O23  1  0.98197300  0.04314900  0.09614100  1
  O  O24  1  0.46268000  0.88751000  0.34796900  1
  O  O25  1  0.96268000  0.61249000  0.65203100  1
  O  O26  1  0.53732000  0.38751000  0.15203100  1
  O  O27  1  0.03732000  0.11249000  0.84796900  1
  O  O28  1  0.53732000  0.11249000  0.65203100  1
  O  O29  1  0.03732000  0.38751000  0.34796900  1
  O  O30  1  0.46268000  0.61249000  0.84796900  1
  O  O31  1  0.96268000  0.88751000  0.15203100  1
  O  O32  1  0.20442500  0.81477700  0.29350400  1
  O  O33  1  0.70442500  0.68522300  0.70649600  1
  O  O34  1  0.79557500  0.31477700  0.20649600  1
  O  O35  1  0.29557500  0.18522300  0.79350400  1
  O  O36  1  0.79557500  0.18522300  0.70649600  1
  O  O37  1  0.29557500  0.31477700  0.29350400  1
  O  O38  1  0.20442500  0.68522300  0.79350400  1
  O  O39  1  0.70442500  0.81477700  0.20649600  1
  O  O40  1  0.01417100  0.88781400  0.34140000  1
  O  O41  1  0.51417100  0.61218600  0.65860000  1
  O  O42  1  0.98582900  0.38781400  0.15860000  1
  O  O43  1  0.48582900  0.11218600  0.84140000  1
  O  O44  1  0.98582900  0.11218600  0.65860000  1
  O  O45  1  0.48582900  0.38781400  0.34140000  1
  O  O46  1  0.01417100  0.61218600  0.84140000  1
  O  O47  1  0.51417100  0.88781400  0.15860000  1
  O  O48  1  0.03089400  0.09610100  0.40679300  1
  O  O49  1  0.53089400  0.40389900  0.59320700  1
  O  O50  1  0.96910600  0.59610100  0.09320700  1
  O  O51  1  0.46910600  0.90389900  0.90679300  1
  O  O52  1  0.96910600  0.90389900  0.59320700  1
  O  O53  1  0.46910600  0.59610100  0.40679300  1
  O  O54  1  0.03089400  0.40389900  0.90679300  1
  O  O55  1  0.53089400  0.09610100  0.09320700  1
  O  O56  1  0.23406600  0.15150900  0.45108400  1
  O  O57  1  0.73406600  0.34849100  0.54891600  1
  O  O58  1  0.76593400  0.65150900  0.04891600  1
  O  O59  1  0.26593400  0.84849100  0.95108400  1
  O  O60  1  0.76593400  0.84849100  0.54891600  1
  O  O61  1  0.26593400  0.65150900  0.45108400  1
  O  O62  1  0.23406600  0.34849100  0.95108400  1
  O  O63  1  0.73406600  0.15150900  0.04891600  1
  O  O64  1  0.67179400  0.94325200  0.38759900  1
  O  O65  1  0.17179400  0.55674800  0.61240100  1
  O  O66  1  0.32820600  0.44325200  0.11240100  1
  O  O67  1  0.82820600  0.05674800  0.88759900  1
  O  O68  1  0.32820600  0.05674800  0.61240100  1
  O  O69  1  0.82820600  0.44325200  0.38759900  1
  O  O70  1  0.67179400  0.55674800  0.88759900  1
  O  O71  1  0.17179400  0.94325200  0.11240100  1
  O  O72  1  0.00134100  0.72921600  0.28555800  1
  O  O73  1  0.50134100  0.77078400  0.71444200  1
  O  O74  1  0.99865900  0.22921600  0.21444200  1
  O  O75  1  0.49865900  0.27078400  0.78555800  1
  O  O76  1  0.99865900  0.27078400  0.71444200  1
  O  O77  1  0.49865900  0.22921600  0.28555800  1
  O  O78  1  0.00134100  0.77078400  0.78555800  1
  O  O79  1  0.50134100  0.72921600  0.21444200  1
  O  O80  1  0.03840700  0.23177100  0.48979600  1
  O  O81  1  0.53840700  0.26822900  0.51020400  1
  O  O82  1  0.96159300  0.73177100  0.01020400  1
  O  O83  1  0.46159300  0.76822900  0.98979600  1
  O  O84  1  0.96159300  0.76822900  0.51020400  1
  O  O85  1  0.46159300  0.73177100  0.48979600  1
  O  O86  1  0.03840700  0.26822900  0.98979600  1
  O  O87  1  0.53840700  0.23177100  0.01020400  1
loop_
_geom_bond_atom_site_label_1
_geom_bond_atom_site_label_2
_geom_bond_distance
_geom_bond_site_symmetry_2
K0 O72 2.926874 1_655
K0 O53 2.938819 1_555
K0 O1 3.033402 1_555
K0 O64 3.158968 1_555
K0 O84 3.162991 1_555
K0 O10 3.184649 1_555
K0 O39 3.270138 1_555
K0 O21 3.275347 1_655
K0 O85 3.296726 1_555
K0 O69 3.301174 1_555
K1 O73 2.926874 1_555
K1 O52 2.938819 1_455
K1 O0 3.033402 1_555
K1 O65 3.158968 1_555
K1 O85 3.162991 1_555
K1 O11 3.184649 1_555
K1 O38 3.270138 1_555
K1 O20 3.275347 1_555
K1 O84 3.296726 1_455
K1 O68 3.301174 1_565
K2 O74 2.926874 1_455
K2 O55 2.938819 1_555
K2 O3 3.033402 1_554
K2 O66 3.158968 1_555
K2 O86 3.162991 1_554
K2 O8 3.184649 1_555
K2 O37 3.270138 1_555
K2 O23 3.275347 1_455
K2 O87 3.296726 1_555
K2 O71 3.301174 1_545
K3 O75 2.926874 1_555
K3 O54 2.938819 1_655
K3 O2 3.033402 1_556
K3 O67 3.158968 1_555
K3 O87 3.162991 1_556
K3 O9 3.184649 1_555
K3 O36 3.270138 1_555
K3 O22 3.275347 1_555
K3 O86 3.296726 1_655
K3 O70 3.301174 1_555
K4 O76 2.926874 1_455
K4 O49 2.938819 1_555
K4 O5 3.033402 1_555
K4 O68 3.158968 1_555
K4 O80 3.162991 1_555
K4 O14 3.184649 1_555
K4 O35 3.270138 1_555
K4 O17 3.275347 1_455
K4 O81 3.296726 1_555
K4 O65 3.301174 1_555
K5 O77 2.926874 1_555
K5 O48 2.938819 1_655
K5 O4 3.033402 1_555
K5 O69 3.158968 1_555
K5 O81 3.162991 1_555
K5 O15 3.184649 1_555
K5 O34 3.270138 1_555
K5 O16 3.275347 1_555
K5 O80 3.296726 1_655
K5 O64 3.301174 1_545
K6 O78 2.926874 1_655
K6 O51 2.938819 1_555
K6 O7 3.033402 1_556
K6 O70 3.158968 1_555
K6 O82 3.162991 1_556
K6 O12 3.184649 1_555
K6 O33 3.270138 1_555
K6 O19 3.275347 1_655
K6 O83 3.296726 1_555
K6 O67 3.301174 1_565
K7 O79 2.926874 1_555
K7 O50 2.938819 1_455
K7 O6 3.033402 1_554
K7 O71 3.158968 1_555
K7 O83 3.162991 1_554
K7 O13 3.184649 1_555
K7 O32 3.270138 1_555
K7 O18 3.275347 1_555
K7 O82 3.296726 1_455
K7 O66 3.301174 1_555
N0 O64 1.226203 1_555
N0 O16 1.290491 1_565
N0 O24 1.292743 1_555
N1 O65 1.226203 1_555
N1 O17 1.290491 1_455
N1 O25 1.292743 1_455
N2 O66 1.226203 1_555
N2 O18 1.290491 1_555
N2 O26 1.292743 1_555
N3 O67 1.226203 1_555
N3 O19 1.290491 1_645
N3 O27 1.292743 1_655
N4 O68 1.226203 1_555
N4 O20 1.290491 1_545
N4 O28 1.292743 1_555
N5 O69 1.226203 1_555
N5 O21 1.290491 1_655
N5 O29 1.292743 1_655
N6 O70 1.226203 1_555
N6 O22 1.290491 1_555
N6 O30 1.292743 1_555
N7 O71 1.226203 1_555
N7 O23 1.290491 1_465
N7 O31 1.292743 1_455
N8 O72 1.226988 1_555
N8 O40 1.289984 1_555
N8 O32 1.292178 1_555
N9 O73 1.226988 1_555
N9 O41 1.289984 1_555
N9 O33 1.292178 1_555
N10 O74 1.226988 1_555
N10 O42 1.289984 1_555
N10 O34 1.292178 1_555
N11 O75 1.226988 1_555
N11 O43 1.289984 1_555
N11 O35 1.292178 1_555
N12 O76 1.226988 1_555
N12 O44 1.289984 1_555
N12 O36 1.292178 1_555
N13 O77 1.226988 1_555
N13 O45 1.289984 1_555
N13 O37 1.292178 1_555
N14 O78 1.226988 1_555
N14 O46 1.289984 1_555
N14 O38 1.292178 1_555
N15 O79 1.226988 1_555
N15 O47 1.289984 1_555
N15 O39 1.292178 1_555
N16 O80 1.227247 1_555
N16 O56 1.286541 1_555
N16 O48 1.296614 1_555
N17 O81 1.227247 1_555
N17 O57 1.286541 1_555
N17 O49 1.296614 1_555
N18 O82 1.227247 1_555
N18 O58 1.286541 1_555
N18 O50 1.296614 1_555
N19 O83 1.227247 1_555
N19 O59 1.286541 1_555
N19 O51 1.296614 1_555
N20 O84 1.227247 1_555
N20 O60 1.286541 1_555
N20 O52 1.296614 1_555
N21 O85 1.227247 1_555
N21 O61 1.286541 1_555
N21 O53 1.296614 1_555
N22 O86 1.227247 1_555
N22 O62 1.286541 1_555
N22 O54 1.296614 1_555
N23 O87 1.227247 1_555
N23 O63 1.286541 1_555
N23 O55 1.296614 1_555
O0 U0 1.797682 1_555
O1 U1 1.797682 1_555
O2 U2 1.797682 1_555
O3 U3 1.797682 1_555
O4 U4 1.797682 1_555
O5 U5 1.797682 1_555
O6 U6 1.797682 1_555
O7 U7 1.797682 1_555
O8 U0 1.804062 1_545
O9 U1 1.804062 1_555
O10 U2 1.804062 1_555
O11 U3 1.804062 1_565
O12 U4 1.804062 1_565
O13 U5 1.804062 1_555
O14 U6 1.804062 1_555
O15 U7 1.804062 1_545
O24 U0 2.477028 1_555
O25 U1 2.477028 1_555
O26 U2 2.477028 1_555
O27 U3 2.477028 1_555
O28 U4 2.477028 1_555
O29 U5 2.477028 1_555
O30 U6 2.477028 1_555
O31 U7 2.477028 1_555
O40 U0 2.484454 1_555
O41 U1 2.484454 1_555
O42 U2 2.484454 1_555
O43 U3 2.484454 1_555
O44 U4 2.484454 1_555
O45 U5 2.484454 1_555
O46 U6 2.484454 1_555
O47 U7 2.484454 1_555
O48 U0 2.495846 1_545
O49 U1 2.495846 1_555
O50 U2 2.495846 1_555
O51 U3 2.495846 1_565
O52 U4 2.495846 1_565
O53 U5 2.495846 1_555
O54 U6 2.495846 1_555
O55 U7 2.495846 1_545
O56 U0 2.515345 1_545
O57 U1 2.515345 1_555
O58 U2 2.515345 1_555
O59 U3 2.515345 1_565
O60 U4 2.515345 1_565
O61 U5 2.515345 1_555
O62 U6 2.515345 1_555
O63 U7 2.515345 1_545
