# generated using pymatgen
data_BaSr2Y2Cu2PtO10
_symmetry_space_group_name_H-M   'P 1'
_cell_length_a   6.83996470
_cell_length_b   6.83996470
_cell_length_c   7.46295072
_cell_angle_alpha   75.97744759
_cell_angle_beta   75.97744759
_cell_angle_gamma   49.58537586
_symmetry_Int_Tables_number   1
_chemical_formula_structural   BaSr2Y2Cu2PtO10
_chemical_formula_sum   'Ba1 Sr2 Y2 Cu2 Pt1 O10'
_cell_volume   256.19340922
_cell_formula_units_Z   1
loop_
 _symmetry_equiv_pos_site_id
 _symmetry_equiv_pos_as_xyz
  1  'x, y, z'
loop_
 _atom_site_type_symbol
 _atom_site_label
 _atom_site_symmetry_multiplicity
 _atom_site_fract_x
 _atom_site_fract_y
 _atom_site_fract_z
 _atom_site_occupancy
  Ba  Ba0  1  0.64916100  0.64916100  0.97257700  1
  Sr  Sr0  1  0.49952300  0.49952300  0.50039700  1
  Sr  Sr1  1  0.34987100  0.34987100  0.02497800  1
  Y  Y0  1  0.81169500  0.81169500  0.37310800  1
  Y  Y1  1  0.18900500  0.18900500  0.62700300  1
  Cu  Cu0  1  0.08686200  0.08686200  0.30215800  1
  Cu  Cu1  1  0.91347800  0.91347800  0.69726200  1
  Pt  Pt0  1  0.00101700  0.00101700  0.00051800  1
  O  O0  1  0.74896700  0.20956900  0.21831500  1
  O  O1  1  0.20956900  0.74896700  0.21831500  1
  O  O2  1  0.24769200  0.78661500  0.78346600  1
  O  O3  1  0.78661500  0.24769200  0.78346600  1
  O  O4  1  0.83351600  0.83351600  0.04761000  1
  O  O5  1  0.17257500  0.17257500  0.95275700  1
  O  O6  1  0.41236200  0.93943700  0.38065400  1
  O  O7  1  0.93943700  0.41236200  0.38065400  1
  O  O8  1  0.58722100  0.06143300  0.61838100  1
  O  O9  1  0.06143300  0.58722100  0.61838100  1
loop_
_geom_bond_atom_site_label_1
_geom_bond_atom_site_label_2
_geom_bond_distance
_geom_bond_site_symmetry_2
Ba0 O4 2.497963 1_556
Ba0 O0 2.853611 1_556
Ba0 O1 2.853611 1_556
Ba0 O3 2.881663 1_555
Ba0 O2 2.881663 1_555
Ba0 O5 2.882759 1_565
Ba0 O5 2.882759 1_655
Cu0 O6 1.936922 1_545
Cu0 O7 1.936922 1_455
Cu0 O1 2.090135 1_545
Cu0 O0 2.090135 1_455
Cu0 O5 2.539844 1_554
Cu1 O8 1.941733 1_565
Cu1 O9 1.941733 1_655
Cu1 O3 2.064655 1_565
Cu1 O2 2.064655 1_655
Cu1 O4 2.537012 1_556
O0 Pt0 2.055701 1_655
O0 Y0 2.475382 1_545
O0 Sr0 2.677922 1_555
O0 Sr1 2.880208 1_555
O1 Pt0 2.055701 1_565
O1 Y0 2.475382 1_455
O1 Sr0 2.677922 1_555
O1 Sr1 2.880208 1_555
O2 Pt0 2.059064 1_566
O2 Y1 2.517356 1_565
O2 Sr0 2.673391 1_555
O2 Sr1 2.820488 1_556
O3 Pt0 2.059064 1_656
O3 Y1 2.517356 1_655
O3 Sr0 2.673391 1_555
O3 Sr1 2.820488 1_556
O4 Pt0 2.015072 1_665
O4 Y0 2.371271 1_555
O4 Sr1 2.877203 1_565
O4 Sr1 2.877203 1_655
O5 Pt0 2.064237 1_556
O5 Y1 2.384747 1_555
O5 Sr1 2.402529 1_556
O6 Y0 2.254346 1_555
O6 Y1 2.325138 1_565
O6 Sr0 2.614795 1_555
O7 Y0 2.254346 1_555
O7 Y1 2.325138 1_655
O7 Sr0 2.614795 1_555
O8 Y1 2.246124 1_555
O8 Y0 2.319161 1_545
O8 Sr0 2.600181 1_555
O9 Y1 2.246124 1_555
O9 Y0 2.319161 1_455
O9 Sr0 2.600181 1_555
