# generated using pymatgen
data_CrCoSi2
_symmetry_space_group_name_H-M   'P 1'
_cell_length_a   4.45986400
_cell_length_b   4.56373000
_cell_length_c   4.57178823
_cell_angle_alpha   89.90544250
_cell_angle_beta   90.00000000
_cell_angle_gamma   90.00000000
_symmetry_Int_Tables_number   1
_chemical_formula_structural   CrCoSi2
_chemical_formula_sum   'Cr2 Co2 Si4'
_cell_volume   93.05229130
_cell_formula_units_Z   2
loop_
 _symmetry_equiv_pos_site_id
 _symmetry_equiv_pos_as_xyz
  1  'x, y, z'
loop_
 _atom_site_type_symbol
 _atom_site_label
 _atom_site_symmetry_multiplicity
 _atom_site_fract_x
 _atom_site_fract_y
 _atom_site_fract_z
 _atom_site_occupancy
  Cr  Cr0  1  0.63848700  0.87481900  0.10114600  1
  Cr  Cr1  1  0.13848700  0.12518100  0.89885400  1
  Co  Co0  1  0.36208400  0.63899700  0.61014800  1
  Co  Co1  1  0.86208400  0.36100300  0.38985200  1
  Si  Si0  1  0.65660500  0.35796400  0.90615900  1
  Si  Si1  1  0.15660500  0.64203600  0.09384100  1
  Si  Si2  1  0.34282500  0.16210000  0.41323800  1
  Si  Si3  1  0.84282500  0.83790000  0.58676200  1
loop_
_geom_bond_atom_site_label_1
_geom_bond_atom_site_label_2
_geom_bond_distance
_geom_bond_site_symmetry_2
Cr0 Si2 2.345130 1_565
Cr0 Si0 2.378336 1_564
Cr0 Si1 2.397622 1_555
Cr0 Si3 2.405546 1_555
Cr0 Si0 2.524284 1_554
Cr0 Si3 2.527940 1_554
Cr0 Si1 2.543489 1_655
Cr1 Si3 2.345130 1_445
Cr1 Si1 2.378336 1_546
Cr1 Si0 2.397622 1_455
Cr1 Si2 2.405546 1_555
Cr1 Si1 2.524284 1_556
Cr1 Si2 2.527940 1_556
Cr1 Si0 2.543489 1_555
Co0 Si0 2.279472 1_555
Co0 Si3 2.330667 1_555
Co0 Si2 2.358199 1_555
Co0 Si1 2.393769 1_556
Co0 Si3 2.489607 1_455
Co0 Si1 2.532113 1_555
Co0 Si2 2.551452 1_565
Co0 Co1 2.756942 1_455
Co0 Co1 2.756942 1_555
Co0 Cr1 2.769363 1_565
Co0 Cr0 2.779333 1_556
Co0 Cr0 2.843371 1_555
Co0 Cr1 2.867926 1_555
Co1 Si1 2.279472 1_655
Co1 Si2 2.330667 1_655
Co1 Si3 2.358199 1_555
Co1 Si0 2.393769 1_554
Co1 Si2 2.489607 1_555
Co1 Si0 2.532113 1_555
Co1 Si3 2.551452 1_545
Co1 Cr0 2.769363 1_545
Co1 Cr1 2.779333 1_654
Co1 Cr1 2.843371 1_655
Co1 Cr0 2.867926 1_555
