# generated using pymatgen
data_Ba2Ga2S5
_symmetry_space_group_name_H-M   'P 1'
_cell_length_a   10.74977484
_cell_length_b   10.74977484
_cell_length_c   8.63227046
_cell_angle_alpha   78.60327049
_cell_angle_beta   78.60327049
_cell_angle_gamma   87.48536461
_symmetry_Int_Tables_number   1
_chemical_formula_structural   Ba2Ga2S5
_chemical_formula_sum   'Ba8 Ga8 S20'
_cell_volume   958.56320114
_cell_formula_units_Z   4
loop_
 _symmetry_equiv_pos_site_id
 _symmetry_equiv_pos_as_xyz
  1  'x, y, z'
loop_
 _atom_site_type_symbol
 _atom_site_label
 _atom_site_symmetry_multiplicity
 _atom_site_fract_x
 _atom_site_fract_y
 _atom_site_fract_z
 _atom_site_occupancy
  Ba  Ba0  1  0.01516908  0.28157617  0.60986391  1
  Ba  Ba1  1  0.71842383  0.98483092  0.89013609  1
  Ba  Ba2  1  0.98483092  0.71842383  0.39013609  1
  Ba  Ba3  1  0.28157617  0.01516908  0.10986391  1
  Ba  Ba4  1  0.42933765  0.27144503  0.60773195  1
  Ba  Ba5  1  0.72855497  0.57066235  0.89226805  1
  Ba  Ba6  1  0.57066235  0.72855497  0.39226805  1
  Ba  Ba7  1  0.27144503  0.42933765  0.10773195  1
  Ga  Ga0  1  0.23213668  0.62398085  0.61859397  1
  Ga  Ga1  1  0.37601915  0.76786332  0.88140603  1
  Ga  Ga2  1  0.76786332  0.37601915  0.38140603  1
  Ga  Ga3  1  0.62398085  0.23213668  0.11859397  1
  Ga  Ga4  1  0.22763997  0.97912378  0.58566578  1
  Ga  Ga5  1  0.02087622  0.77236003  0.91433422  1
  Ga  Ga6  1  0.77236003  0.02087622  0.41433422  1
  Ga  Ga7  1  0.97912378  0.22763997  0.08566578  1
  S  S0  1  0.96806729  0.03193271  0.25000000  1
  S  S1  1  0.03193271  0.96806729  0.75000000  1
  S  S2  1  0.03440940  0.61162222  0.77080581  1
  S  S3  1  0.38837778  0.96559060  0.72919419  1
  S  S4  1  0.96559060  0.38837778  0.22919419  1
  S  S5  1  0.61162222  0.03440940  0.27080581  1
  S  S6  1  0.23946101  0.48399465  0.46033107  1
  S  S7  1  0.51600535  0.76053899  0.03966893  1
  S  S8  1  0.76053899  0.51600535  0.53966893  1
  S  S9  1  0.48399465  0.23946101  0.96033107  1
  S  S10  1  0.83612110  0.74672970  0.09157806  1
  S  S11  1  0.25327030  0.16387890  0.40842194  1
  S  S12  1  0.16387890  0.25327030  0.90842194  1
  S  S13  1  0.74672970  0.83612110  0.59157806  1
  S  S14  1  0.26178795  0.81716270  0.44469621  1
  S  S15  1  0.18283730  0.73821205  0.05530379  1
  S  S16  1  0.40108297  0.59891703  0.75000000  1
  S  S17  1  0.59891703  0.40108297  0.25000000  1
  S  S18  1  0.81716270  0.26178795  0.94469621  1
  S  S19  1  0.73821205  0.18283730  0.55530379  1
loop_
_geom_bond_atom_site_label_1
_geom_bond_atom_site_label_2
_geom_bond_distance
_geom_bond_site_symmetry_2
Ba0 S11 3.162615 1_555
Ba0 S18 3.208651 1_455
Ba0 S6 3.214759 1_555
Ba0 S12 3.250515 1_555
Ba0 S19 3.352808 1_455
Ba0 S1 3.357889 1_545
Ba0 S4 3.398192 1_455
Ba0 S8 3.695529 1_455
Ba1 S10 3.162615 1_556
Ba1 S19 3.208651 1_565
Ba1 S7 3.214759 1_556
Ba1 S13 3.250515 1_555
Ba1 S18 3.352808 1_565
Ba1 S1 3.357889 1_655
Ba1 S5 3.398192 1_566
Ba1 S9 3.695529 1_565
Ba2 S13 3.162615 1_555
Ba2 S15 3.208651 1_655
Ba2 S8 3.214759 1_555
Ba2 S10 3.250515 1_555
Ba2 S14 3.352808 1_655
Ba2 S0 3.357889 1_565
Ba2 S2 3.398192 1_655
Ba2 S6 3.695529 1_655
Ba3 S12 3.162615 1_554
Ba3 S14 3.208651 1_545
Ba3 S9 3.214759 1_554
Ba3 S11 3.250515 1_555
Ba3 S15 3.352808 1_545
Ba3 S0 3.357889 1_455
Ba3 S3 3.398192 1_544
Ba3 S7 3.695529 1_545
Ba4 S9 3.162780 1_555
Ba4 S11 3.185062 1_555
Ba4 S6 3.236359 1_555
Ba4 S3 3.268864 1_545
Ba4 S17 3.331461 1_555
Ba4 S19 3.381667 1_555
Ba4 S12 3.440918 1_555
Ba5 S8 3.162780 1_555
Ba5 S10 3.185062 1_556
Ba5 S7 3.236359 1_556
Ba5 S2 3.268864 1_655
Ba5 S17 3.331461 1_556
Ba5 S18 3.381667 1_555
Ba5 S13 3.440918 1_555
Ba6 S7 3.162780 1_555
Ba6 S13 3.185062 1_555
Ba6 S8 3.236359 1_555
Ba6 S5 3.268864 1_565
Ba6 S16 3.331461 1_555
Ba6 S14 3.381667 1_555
Ba6 S10 3.440918 1_555
Ba7 S6 3.162780 1_555
Ba7 S12 3.185062 1_554
Ba7 S9 3.236359 1_554
Ba7 S4 3.268864 1_455
Ba7 S16 3.331461 1_554
Ba7 S15 3.381667 1_555
Ba7 S11 3.440918 1_555
Ga0 S6 2.212841 1_555
Ga0 S2 2.261414 1_555
Ga0 S14 2.303155 1_555
Ga0 S16 2.303928 1_555
Ga1 S7 2.212841 1_556
Ga1 S3 2.261414 1_555
Ga1 S15 2.303155 1_556
Ga1 S16 2.303928 1_555
Ga2 S8 2.212841 1_555
Ga2 S4 2.261414 1_555
Ga2 S19 2.303155 1_555
Ga2 S17 2.303928 1_555
Ga3 S9 2.212841 1_554
Ga3 S5 2.261414 1_555
Ga3 S18 2.303155 1_554
Ga3 S17 2.303928 1_555
Ga4 S11 2.245410 1_565
Ga4 S1 2.286561 1_555
Ga4 S14 2.291612 1_555
Ga4 S3 2.301003 1_555
Ga5 S10 2.245410 1_456
Ga5 S1 2.286561 1_555
Ga5 S15 2.291612 1_556
Ga5 S2 2.301003 1_555
Ga6 S13 2.245410 1_545
Ga6 S0 2.286561 1_555
Ga6 S19 2.291612 1_555
Ga6 S5 2.301003 1_555
Ga7 S12 2.245410 1_654
Ga7 S0 2.286561 1_555
Ga7 S18 2.291612 1_554
Ga7 S4 2.301003 1_555
