# generated using pymatgen
data_AlCr4GaC2
_symmetry_space_group_name_H-M   'P 1'
_cell_length_a   5.70949103
_cell_length_b   5.70949103
_cell_length_c   25.22817400
_cell_angle_alpha   90.00000000
_cell_angle_beta   90.00000000
_cell_angle_gamma   119.99998881
_symmetry_Int_Tables_number   1
_chemical_formula_structural   AlCr4GaC2
_chemical_formula_sum   'Al8 Cr32 Ga8 C16'
_cell_volume   712.21528350
_cell_formula_units_Z   8
loop_
 _symmetry_equiv_pos_site_id
 _symmetry_equiv_pos_as_xyz
  1  'x, y, z'
loop_
 _atom_site_type_symbol
 _atom_site_label
 _atom_site_symmetry_multiplicity
 _atom_site_fract_x
 _atom_site_fract_y
 _atom_site_fract_z
 _atom_site_occupancy
  Al  Al0_0  1  0.33333350  0.16666650  0.00000000  1
  Al  Al0_1  1  0.33333350  0.16666650  0.50000000  1
  Al  Al0_2  1  0.33333350  0.66666650  0.00000000  1
  Al  Al0_3  1  0.33333350  0.66666650  0.50000000  1
  Al  Al0_4  1  0.83333350  0.16666650  0.00000000  1
  Al  Al0_5  1  0.83333350  0.16666650  0.50000000  1
  Al  Al0_6  1  0.83333350  0.66666650  0.00000000  1
  Al  Al0_7  1  0.83333350  0.66666650  0.50000000  1
  Cr  Cr0_0  1  0.33333350  0.16666650  0.33234100  1
  Cr  Cr0_1  1  0.33333350  0.16666650  0.83234100  1
  Cr  Cr0_2  1  0.33333350  0.66666650  0.33234100  1
  Cr  Cr0_3  1  0.33333350  0.66666650  0.83234100  1
  Cr  Cr0_4  1  0.83333350  0.16666650  0.33234100  1
  Cr  Cr0_5  1  0.83333350  0.16666650  0.83234100  1
  Cr  Cr0_6  1  0.83333350  0.66666650  0.33234100  1
  Cr  Cr0_7  1  0.83333350  0.66666650  0.83234100  1
  Cr  Cr1_0  1  0.16666650  0.33333350  0.41708300  1
  Cr  Cr1_1  1  0.16666650  0.33333350  0.91708300  1
  Cr  Cr1_2  1  0.16666650  0.83333350  0.41708300  1
  Cr  Cr1_3  1  0.16666650  0.83333350  0.91708300  1
  Cr  Cr1_4  1  0.66666650  0.33333350  0.41708300  1
  Cr  Cr1_5  1  0.66666650  0.33333350  0.91708300  1
  Cr  Cr1_6  1  0.66666650  0.83333350  0.41708300  1
  Cr  Cr1_7  1  0.66666650  0.83333350  0.91708300  1
  Cr  Cr2_0  1  0.16666650  0.33333350  0.08291700  1
  Cr  Cr2_1  1  0.16666650  0.33333350  0.58291700  1
  Cr  Cr2_2  1  0.16666650  0.83333350  0.08291700  1
  Cr  Cr2_3  1  0.16666650  0.83333350  0.58291700  1
  Cr  Cr2_4  1  0.66666650  0.33333350  0.08291700  1
  Cr  Cr2_5  1  0.66666650  0.33333350  0.58291700  1
  Cr  Cr2_6  1  0.66666650  0.83333350  0.08291700  1
  Cr  Cr2_7  1  0.66666650  0.83333350  0.58291700  1
  Cr  Cr3_0  1  0.33333350  0.16666650  0.16765900  1
  Cr  Cr3_1  1  0.33333350  0.16666650  0.66765900  1
  Cr  Cr3_2  1  0.33333350  0.66666650  0.16765900  1
  Cr  Cr3_3  1  0.33333350  0.66666650  0.66765900  1
  Cr  Cr3_4  1  0.83333350  0.16666650  0.16765900  1
  Cr  Cr3_5  1  0.83333350  0.16666650  0.66765900  1
  Cr  Cr3_6  1  0.83333350  0.66666650  0.16765900  1
  Cr  Cr3_7  1  0.83333350  0.66666650  0.66765900  1
  Ga  Ga0_0  1  0.16666650  0.33333350  0.25000000  1
  Ga  Ga0_1  1  0.16666650  0.33333350  0.75000000  1
  Ga  Ga0_2  1  0.16666650  0.83333350  0.25000000  1
  Ga  Ga0_3  1  0.16666650  0.83333350  0.75000000  1
  Ga  Ga0_4  1  0.66666650  0.33333350  0.25000000  1
  Ga  Ga0_5  1  0.66666650  0.33333350  0.75000000  1
  Ga  Ga0_6  1  0.66666650  0.83333350  0.25000000  1
  Ga  Ga0_7  1  0.66666650  0.83333350  0.75000000  1
  C  C0_0  1  0.00000000  0.00000000  0.37479100  1
  C  C0_1  1  0.00000000  0.00000000  0.87479100  1
  C  C0_2  1  0.00000000  0.50000000  0.37479100  1
  C  C0_3  1  0.00000000  0.50000000  0.87479100  1
  C  C0_4  1  0.50000000  0.00000000  0.37479100  1
  C  C0_5  1  0.50000000  0.00000000  0.87479100  1
  C  C0_6  1  0.50000000  0.50000000  0.37479100  1
  C  C0_7  1  0.50000000  0.50000000  0.87479100  1
  C  C1_0  1  0.00000000  0.00000000  0.12520900  1
  C  C1_1  1  0.00000000  0.00000000  0.62520900  1
  C  C1_2  1  0.00000000  0.50000000  0.12520900  1
  C  C1_3  1  0.00000000  0.50000000  0.62520900  1
  C  C1_4  1  0.50000000  0.00000000  0.12520900  1
  C  C1_5  1  0.50000000  0.00000000  0.62520900  1
  C  C1_6  1  0.50000000  0.50000000  0.12520900  1
  C  C1_7  1  0.50000000  0.50000000  0.62520900  1
loop_
_geom_bond_atom_site_label_1
_geom_bond_atom_site_label_2
_geom_bond_distance
_geom_bond_site_symmetry_2
Al0_0 Cr2_2 2.663143 1_545
Al0_0 Cr2_4 2.663143 1_555
Al0_0 Cr1_5 2.663143 1_554
Al0_0 Cr1_3 2.663143 1_544
Al0_0 Cr2_0 2.663146 1_555
Al0_0 Cr1_1 2.663146 1_554
Al0_0 Al0_4 2.854746 1_555
Al0_0 Al0_2 2.854746 1_555
Al0_0 Al0_2 2.854746 1_545
Al0_0 Al0_4 2.854746 1_455
Al0_0 Al0_6 2.854746 1_555
Al0_0 Al0_6 2.854746 1_445
Al0_1 Cr2_3 2.663143 1_545
Al0_1 Cr2_5 2.663143 1_555
Al0_1 Cr1_4 2.663143 1_555
Al0_1 Cr1_2 2.663143 1_545
Al0_1 Cr2_1 2.663146 1_555
Al0_1 Cr1_0 2.663146 1_555
Al0_1 Al0_5 2.854746 1_555
Al0_1 Al0_5 2.854746 1_455
Al0_1 Al0_3 2.854746 1_555
Al0_1 Al0_3 2.854746 1_545
Al0_1 Al0_7 2.854746 1_555
Al0_1 Al0_7 2.854746 1_445
Al0_2 Cr2_0 2.663143 1_555
Al0_2 Cr2_6 2.663143 1_555
Al0_2 Cr1_1 2.663143 1_554
Al0_2 Cr1_7 2.663143 1_554
Al0_2 Cr2_2 2.663146 1_555
Al0_2 Cr1_3 2.663146 1_554
Al0_2 Al0_6 2.854746 1_555
Al0_2 Al0_6 2.854746 1_455
Al0_2 Al0_4 2.854746 1_565
Al0_2 Al0_4 2.854746 1_455
Al0_3 Cr2_7 2.663143 1_555
Al0_3 Cr2_1 2.663143 1_555
Al0_3 Cr1_0 2.663143 1_555
Al0_3 Cr1_6 2.663143 1_555
Al0_3 Cr2_3 2.663146 1_555
Al0_3 Cr1_2 2.663146 1_555
Al0_3 Al0_7 2.854746 1_555
Al0_3 Al0_7 2.854746 1_455
Al0_3 Al0_5 2.854746 1_565
Al0_3 Al0_5 2.854746 1_455
Al0_4 Cr2_0 2.663143 1_655
Al0_4 Cr2_6 2.663143 1_545
Al0_4 Cr1_7 2.663143 1_544
Al0_4 Cr1_1 2.663143 1_654
Al0_4 Cr2_4 2.663146 1_555
Al0_4 Cr1_5 2.663146 1_554
Al0_4 Al0_6 2.854746 1_555
Al0_4 Al0_6 2.854746 1_545
Al0_5 Cr2_7 2.663143 1_545
Al0_5 Cr2_1 2.663143 1_655
Al0_5 Cr1_0 2.663143 1_655
Al0_5 Cr1_6 2.663143 1_545
Al0_5 Cr2_5 2.663146 1_555
Al0_5 Cr1_4 2.663146 1_555
Al0_5 Al0_7 2.854746 1_555
Al0_5 Al0_7 2.854746 1_545
Al0_6 Cr2_4 2.663143 1_555
Al0_6 Cr2_2 2.663143 1_655
Al0_6 Cr1_5 2.663143 1_554
Al0_6 Cr1_3 2.663143 1_654
Al0_6 Cr2_6 2.663146 1_555
Al0_6 Cr1_7 2.663146 1_554
Al0_7 Cr2_5 2.663143 1_555
Al0_7 Cr2_3 2.663143 1_655
Al0_7 Cr1_4 2.663143 1_555
Al0_7 Cr1_2 2.663143 1_655
Al0_7 Cr2_7 2.663146 1_555
Al0_7 Cr1_6 2.663146 1_555
Cr0_0 Ga0_4 2.651744 1_555
Cr0_0 Ga0_2 2.651744 1_545
Cr0_0 Ga0_0 2.651747 1_555
Cr0_1 Ga0_5 2.651744 1_555
Cr0_1 Ga0_3 2.651744 1_545
Cr0_1 Ga0_1 2.651747 1_555
Cr0_2 Ga0_6 2.651744 1_555
Cr0_2 Ga0_0 2.651744 1_555
Cr0_2 Ga0_2 2.651747 1_555
Cr0_3 Ga0_7 2.651744 1_555
Cr0_3 Ga0_1 2.651744 1_555
Cr0_3 Ga0_3 2.651747 1_555
Cr0_4 Ga0_0 2.651744 1_655
Cr0_4 Ga0_6 2.651744 1_545
Cr0_4 Ga0_4 2.651747 1_555
Cr0_5 Ga0_1 2.651744 1_655
Cr0_5 Ga0_7 2.651744 1_545
Cr0_5 Ga0_5 2.651747 1_555
Cr0_6 Ga0_4 2.651744 1_555
Cr0_6 Ga0_2 2.651744 1_655
Cr0_6 Ga0_6 2.651747 1_555
Cr0_7 Ga0_5 2.651744 1_555
Cr0_7 Ga0_3 2.651744 1_655
Cr0_7 Ga0_7 2.651747 1_555
Cr3_0 Ga0_4 2.651744 1_555
Cr3_0 Ga0_2 2.651744 1_545
Cr3_0 Ga0_0 2.651747 1_555
Cr3_1 Ga0_5 2.651744 1_555
Cr3_1 Ga0_3 2.651744 1_545
Cr3_1 Ga0_1 2.651747 1_555
Cr3_2 Ga0_6 2.651744 1_555
Cr3_2 Ga0_0 2.651744 1_555
Cr3_2 Ga0_2 2.651747 1_555
Cr3_3 Ga0_7 2.651744 1_555
Cr3_3 Ga0_1 2.651744 1_555
Cr3_3 Ga0_3 2.651747 1_555
Cr3_4 Ga0_0 2.651744 1_655
Cr3_4 Ga0_6 2.651744 1_545
Cr3_4 Ga0_4 2.651747 1_555
Cr3_5 Ga0_1 2.651744 1_655
Cr3_5 Ga0_7 2.651744 1_545
Cr3_5 Ga0_5 2.651747 1_555
Cr3_6 Ga0_4 2.651744 1_555
Cr3_6 Ga0_2 2.651744 1_655
Cr3_6 Ga0_6 2.651747 1_555
Cr3_7 Ga0_5 2.651744 1_555
Cr3_7 Ga0_3 2.651744 1_655
Cr3_7 Ga0_7 2.651747 1_555
Ga0_0 Ga0_4 2.854746 1_555
Ga0_0 Ga0_2 2.854746 1_545
Ga0_0 Ga0_2 2.854746 1_555
Ga0_0 Ga0_4 2.854746 1_455
Ga0_0 Ga0_6 2.854746 1_555
Ga0_0 Ga0_6 2.854746 1_445
Ga0_1 Ga0_5 2.854746 1_555
Ga0_1 Ga0_5 2.854746 1_455
Ga0_1 Ga0_3 2.854746 1_545
Ga0_1 Ga0_3 2.854746 1_555
Ga0_1 Ga0_7 2.854746 1_555
Ga0_1 Ga0_7 2.854746 1_445
Ga0_2 Ga0_6 2.854746 1_455
Ga0_2 Ga0_6 2.854746 1_555
Ga0_2 Ga0_4 2.854746 1_565
Ga0_2 Ga0_4 2.854746 1_455
Ga0_3 Ga0_7 2.854746 1_455
Ga0_3 Ga0_7 2.854746 1_555
Ga0_3 Ga0_5 2.854746 1_565
Ga0_3 Ga0_5 2.854746 1_455
Ga0_4 Ga0_6 2.854746 1_555
Ga0_4 Ga0_6 2.854746 1_545
Ga0_5 Ga0_7 2.854746 1_555
Ga0_5 Ga0_7 2.854746 1_545
C0_0 Cr1_2 1.963390 1_545
C0_0 Cr1_0 1.963392 1_555
C0_0 Cr1_6 1.963392 1_445
C0_0 Cr0_4 1.965559 1_455
C0_0 Cr0_0 1.965561 1_555
C0_0 Cr0_6 1.965561 1_445
C0_1 Cr1_3 1.963390 1_545
C0_1 Cr1_1 1.963392 1_555
C0_1 Cr1_7 1.963392 1_445
C0_1 Cr0_5 1.965559 1_455
C0_1 Cr0_1 1.965561 1_555
C0_1 Cr0_7 1.965561 1_445
C0_2 Cr1_0 1.963390 1_555
C0_2 Cr1_2 1.963392 1_555
C0_2 Cr1_4 1.963392 1_455
C0_2 Cr0_6 1.965559 1_455
C0_2 Cr0_2 1.965561 1_555
C0_2 Cr0_4 1.965561 1_455
C0_3 Cr1_1 1.963390 1_555
C0_3 Cr1_3 1.963392 1_555
C0_3 Cr1_5 1.963392 1_455
C0_3 Cr0_7 1.965559 1_455
C0_3 Cr0_3 1.965561 1_555
C0_3 Cr0_5 1.965561 1_455
C0_4 Cr1_6 1.963390 1_545
C0_4 Cr1_2 1.963392 1_545
C0_4 Cr1_4 1.963392 1_555
C0_4 Cr0_0 1.965559 1_555
C0_4 Cr0_4 1.965561 1_555
C0_4 Cr0_2 1.965561 1_545
C0_5 Cr1_7 1.963390 1_545
C0_5 Cr1_3 1.963392 1_545
C0_5 Cr1_5 1.963392 1_555
C0_5 Cr0_1 1.965559 1_555
C0_5 Cr0_5 1.965561 1_555
C0_5 Cr0_3 1.965561 1_545
C0_6 Cr1_4 1.963390 1_555
C0_6 Cr1_6 1.963392 1_555
C0_6 Cr1_0 1.963392 1_555
C0_6 Cr0_2 1.965559 1_555
C0_6 Cr0_0 1.965561 1_555
C0_6 Cr0_6 1.965561 1_555
C0_7 Cr1_5 1.963390 1_555
C0_7 Cr1_7 1.963392 1_555
C0_7 Cr1_1 1.963392 1_555
C0_7 Cr0_3 1.965559 1_555
C0_7 Cr0_1 1.965561 1_555
C0_7 Cr0_7 1.965561 1_555
C1_0 Cr2_2 1.963390 1_545
C1_0 Cr2_6 1.963392 1_445
C1_0 Cr2_0 1.963392 1_555
C1_0 Cr3_4 1.965559 1_455
C1_0 Cr3_0 1.965561 1_555
C1_0 Cr3_6 1.965561 1_445
C1_1 Cr2_3 1.963390 1_545
C1_1 Cr2_7 1.963392 1_445
C1_1 Cr2_1 1.963392 1_555
C1_1 Cr3_5 1.965559 1_455
C1_1 Cr3_1 1.965561 1_555
C1_1 Cr3_7 1.965561 1_445
C1_2 Cr2_0 1.963390 1_555
C1_2 Cr2_2 1.963392 1_555
C1_2 Cr2_4 1.963392 1_455
C1_2 Cr3_6 1.965559 1_455
C1_2 Cr3_2 1.965561 1_555
C1_2 Cr3_4 1.965561 1_455
C1_3 Cr2_1 1.963390 1_555
C1_3 Cr2_3 1.963392 1_555
C1_3 Cr2_5 1.963392 1_455
C1_3 Cr3_7 1.965559 1_455
C1_3 Cr3_3 1.965561 1_555
C1_3 Cr3_5 1.965561 1_455
C1_4 Cr2_6 1.963390 1_545
C1_4 Cr2_2 1.963392 1_545
C1_4 Cr2_4 1.963392 1_555
C1_4 Cr3_0 1.965559 1_555
C1_4 Cr3_4 1.965561 1_555
C1_4 Cr3_2 1.965561 1_545
C1_5 Cr2_7 1.963390 1_545
C1_5 Cr2_3 1.963392 1_545
C1_5 Cr2_5 1.963392 1_555
C1_5 Cr3_1 1.965559 1_555
C1_5 Cr3_5 1.965561 1_555
C1_5 Cr3_3 1.965561 1_545
C1_6 Cr2_4 1.963390 1_555
C1_6 Cr2_6 1.963392 1_555
C1_6 Cr2_0 1.963392 1_555
C1_6 Cr3_2 1.965559 1_555
C1_6 Cr3_0 1.965561 1_555
C1_6 Cr3_6 1.965561 1_555
C1_7 Cr2_5 1.963390 1_555
C1_7 Cr2_7 1.963392 1_555
C1_7 Cr2_1 1.963392 1_555
C1_7 Cr3_3 1.965559 1_555
C1_7 Cr3_7 1.965561 1_555
C1_7 Cr3_1 1.965561 1_555
