# generated using pymatgen
data_Mg3Au
_symmetry_space_group_name_H-M   'P 1'
_cell_length_a   4.64518730
_cell_length_b   4.64518730
_cell_length_c   9.46855100
_cell_angle_alpha   90.00000000
_cell_angle_beta   90.00000000
_cell_angle_gamma   119.99998997
_symmetry_Int_Tables_number   1
_chemical_formula_structural   Mg3Au
_chemical_formula_sum   'Mg6 Au2'
_cell_volume   176.93781404
_cell_formula_units_Z   2
loop_
 _symmetry_equiv_pos_site_id
 _symmetry_equiv_pos_as_xyz
  1  'x, y, z'
loop_
 _atom_site_type_symbol
 _atom_site_label
 _atom_site_symmetry_multiplicity
 _atom_site_fract_x
 _atom_site_fract_y
 _atom_site_fract_z
 _atom_site_occupancy
  Mg  Mg0  1  0.33333300  0.66666700  0.90951400  1
  Mg  Mg1  1  0.66666700  0.33333300  0.40951400  1
  Mg  Mg2  1  0.33333300  0.66666700  0.25000000  1
  Mg  Mg3  1  0.66666700  0.33333300  0.75000000  1
  Mg  Mg4  1  0.33333300  0.66666700  0.59048600  1
  Mg  Mg5  1  0.66666700  0.33333300  0.09048600  1
  Au  Au0  1  0.00000000  0.00000000  0.75000000  1
  Au  Au1  1  0.00000000  0.00000000  0.25000000  1
loop_
_geom_bond_atom_site_label_1
_geom_bond_atom_site_label_2
_geom_bond_distance
_geom_bond_site_symmetry_2
Au0 Mg3 2.681897 1_455
Au0 Mg3 2.681902 1_555
Au0 Mg3 2.681902 1_445
Au0 Mg0 3.077951 1_545
Au0 Mg4 3.077951 1_545
Au0 Mg0 3.077954 1_555
Au0 Mg0 3.077954 1_445
Au0 Mg4 3.077954 1_555
Au0 Mg4 3.077954 1_445
Au1 Mg2 2.681897 1_545
Au1 Mg2 2.681902 1_445
Au1 Mg2 2.681902 1_555
Au1 Mg1 3.077951 1_455
Au1 Mg5 3.077951 1_455
Au1 Mg1 3.077954 1_555
Au1 Mg5 3.077954 1_445
Au1 Mg5 3.077954 1_555
Au1 Mg1 3.077954 1_445
