# generated using pymatgen
data_UC4SNClO8
_symmetry_space_group_name_H-M   'P 1'
_cell_length_a   6.94298600
_cell_length_b   9.94615400
_cell_length_c   11.75513225
_cell_angle_alpha   72.14528175
_cell_angle_beta   90.00000000
_cell_angle_gamma   90.00000000
_symmetry_Int_Tables_number   1
_chemical_formula_structural   UC4SNClO8
_chemical_formula_sum   'U2 C8 S2 N2 Cl2 O16'
_cell_volume   772.66560156
_cell_formula_units_Z   2
loop_
 _symmetry_equiv_pos_site_id
 _symmetry_equiv_pos_as_xyz
  1  'x, y, z'
loop_
 _atom_site_type_symbol
 _atom_site_label
 _atom_site_symmetry_multiplicity
 _atom_site_fract_x
 _atom_site_fract_y
 _atom_site_fract_z
 _atom_site_occupancy
  U  U0  1  0.49889600  0.36475700  0.88815800  1
  U  U1  1  0.99889600  0.63524300  0.11184200  1
  C  C0  1  0.70164000  0.21644500  0.27789700  1
  C  C1  1  0.20164000  0.78355500  0.72210300  1
  C  C2  1  0.47860900  0.24985000  0.55233000  1
  C  C3  1  0.97860900  0.75015000  0.44767000  1
  C  C4  1  0.46864700  0.23679200  0.43505800  1
  C  C5  1  0.96864700  0.76320800  0.56494200  1
  C  C6  1  0.30414100  0.22965200  0.49729900  1
  C  C7  1  0.80414100  0.77034800  0.50270100  1
  S  S0  1  0.00131300  0.34148200  0.97766000  1
  S  S1  1  0.50131300  0.65851800  0.02234000  1
  N  N0  1  0.57794000  0.22998200  0.34409400  1
  N  N1  1  0.07794000  0.77001800  0.65590600  1
  Cl  Cl0  1  0.06731000  0.20798100  0.51430000  1
  Cl  Cl1  1  0.56731000  0.79201900  0.48570000  1
  O  O0  1  0.49434900  0.24877800  0.03849100  1
  O  O1  1  0.99434900  0.75122200  0.96150900  1
  O  O2  1  0.50043300  0.46148700  0.73205600  1
  O  O3  1  0.00043300  0.53851300  0.26794400  1
  O  O4  1  0.82738100  0.37978100  0.89647800  1
  O  O5  1  0.32738100  0.62021900  0.10352200  1
  O  O6  1  0.17068000  0.38483700  0.89289200  1
  O  O7  1  0.67068000  0.61516300  0.10710800  1
  O  O8  1  0.00642900  0.19573300  0.04723500  1
  O  O9  1  0.50642900  0.80426700  0.95276500  1
  O  O10  1  0.50101400  0.56148200  0.94597900  1
  O  O11  1  0.00101400  0.43851800  0.05402100  1
  O  O12  1  0.37790800  0.09489800  0.83284400  1
  O  O13  1  0.87790800  0.90510200  0.16715600  1
  O  O14  1  0.55211200  0.11407800  0.80988200  1
  O  O15  1  0.05211200  0.88592200  0.19011800  1
loop_
_geom_bond_atom_site_label_1
_geom_bond_atom_site_label_2
_geom_bond_distance
_geom_bond_site_symmetry_2
C0 N0 1.193951 1_555
C1 N1 1.193951 1_555
C2 C6 1.416277 1_555
C2 C4 1.425425 1_555
C3 C7 1.416277 1_555
C3 C5 1.425425 1_555
C4 N0 1.329736 1_555
C4 C6 1.346488 1_555
C5 N1 1.329736 1_655
C5 C7 1.346488 1_555
C6 Cl0 1.662454 1_555
C7 Cl1 1.662454 1_555
O0 U0 1.790129 1_554
O1 U1 1.790129 1_556
O2 U0 1.791752 1_555
O3 U1 1.791752 1_455
O4 S0 1.513673 1_655
O4 U0 2.289606 1_555
O5 S1 1.513673 1_555
O5 U1 2.289606 1_455
O6 S0 1.515968 1_555
O6 U0 2.289700 1_555
O7 S1 1.515968 1_555
O7 U1 2.289700 1_555
O8 S0 1.429894 1_554
O9 S1 1.429894 1_556
O10 S1 1.506148 1_556
O10 U0 2.259697 1_555
O11 S0 1.506148 1_554
O11 U1 2.259697 1_455
O12 O14 1.241191 1_555
O13 O15 1.241191 1_655
O14 U0 2.933684 1_555
O15 U1 2.933684 1_455
