# generated using pymatgen
data_Ho(BRu)2
_symmetry_space_group_name_H-M   'P 1'
_cell_length_a   8.26792300
_cell_length_b   8.26792300
_cell_length_c   12.32183968
_cell_angle_alpha   109.60287045
_cell_angle_beta   109.60287045
_cell_angle_gamma   90.00000000
_symmetry_Int_Tables_number   1
_chemical_formula_structural   Ho(BRu)2
_chemical_formula_sum   'Ho8 B16 Ru16'
_cell_volume   741.45696773
_cell_formula_units_Z   8
loop_
 _symmetry_equiv_pos_site_id
 _symmetry_equiv_pos_as_xyz
  1  'x, y, z'
loop_
 _atom_site_type_symbol
 _atom_site_label
 _atom_site_symmetry_multiplicity
 _atom_site_fract_x
 _atom_site_fract_y
 _atom_site_fract_z
 _atom_site_occupancy
  Ho  Ho0  1  0.12500000  0.37500000  0.25000000  1
  Ho  Ho1  1  0.12500000  0.87500000  0.25000000  1
  Ho  Ho2  1  0.12500000  0.87500000  0.75000000  1
  Ho  Ho3  1  0.62500000  0.37500000  0.25000000  1
  Ho  Ho4  1  0.62500000  0.87500000  0.75000000  1
  Ho  Ho5  1  0.62500000  0.87500000  0.25000000  1
  Ho  Ho6  1  0.62500000  0.37500000  0.75000000  1
  Ho  Ho7  1  0.12500000  0.37500000  0.75000000  1
  B  B0  1  0.35672900  0.36551700  0.58193400  1
  B  B1  1  0.22520500  0.21641800  0.58193400  1
  B  B2  1  0.46641800  0.10672900  0.08193400  1
  B  B3  1  0.39327100  0.03358200  0.91806600  1
  B  B4  1  0.89327100  0.38448300  0.91806600  1
  B  B5  1  0.61551700  0.97520500  0.08193400  1
  B  B6  1  0.52479500  0.88448300  0.91806600  1
  B  B7  1  0.02479500  0.53358200  0.91806600  1
  B  B8  1  0.28358200  0.27479500  0.41806600  1
  B  B9  1  0.78358200  0.64327100  0.41806600  1
  B  B10  1  0.13448300  0.14327100  0.41806600  1
  B  B11  1  0.63448300  0.77479500  0.41806600  1
  B  B12  1  0.85672900  0.71641800  0.58193400  1
  B  B13  1  0.72520500  0.86551700  0.58193400  1
  B  B14  1  0.11551700  0.60672900  0.08193400  1
  B  B15  1  0.96641800  0.47520500  0.08193400  1
  Ru  Ru0  1  0.54158900  0.26930200  0.49062600  1
  Ru  Ru1  1  0.94903700  0.22132300  0.49062600  1
  Ru  Ru2  1  0.47132300  0.29158900  0.99062600  1
  Ru  Ru3  1  0.20841100  0.02867700  0.00937400  1
  Ru  Ru4  1  0.70841100  0.48069800  0.00937400  1
  Ru  Ru5  1  0.51930200  0.69903700  0.99062600  1
  Ru  Ru6  1  0.80096300  0.98069800  0.00937400  1
  Ru  Ru7  1  0.30096300  0.52867700  0.00937400  1
  Ru  Ru8  1  0.27867700  0.55096300  0.50937400  1
  Ru  Ru9  1  0.77867700  0.45841100  0.50937400  1
  Ru  Ru10  1  0.23069800  0.95841100  0.50937400  1
  Ru  Ru11  1  0.73069800  0.05096300  0.50937400  1
  Ru  Ru12  1  0.04158900  0.72132300  0.49062600  1
  Ru  Ru13  1  0.44903700  0.76930200  0.49062600  1
  Ru  Ru14  1  0.01930200  0.79158900  0.99062600  1
  Ru  Ru15  1  0.97132300  0.19903700  0.99062600  1
loop_
_geom_bond_atom_site_label_1
_geom_bond_atom_site_label_2
_geom_bond_distance
_geom_bond_site_symmetry_2
Ho0 Ru8 2.846140 1_555
Ho0 Ru15 2.846140 1_454
Ho1 Ru10 2.846140 1_555
Ho1 Ru14 2.846140 1_554
Ho2 Ru12 2.846140 1_555
Ho2 Ru3 2.846140 1_566
Ho3 Ru9 2.846140 1_555
Ho3 Ru2 2.846140 1_554
Ho4 Ru6 2.846140 1_556
Ho4 Ru13 2.846140 1_555
Ho5 Ru11 2.846140 1_565
Ho5 Ru5 2.846140 1_554
Ho6 Ru4 2.846140 1_556
Ho6 Ru0 2.846140 1_555
Ho7 Ru1 2.846140 1_455
Ho7 Ru7 2.846140 1_556
B0 B1 1.643822 1_555
B0 B8 1.780376 1_555
B0 Ru8 2.024689 1_555
B0 Ru0 2.188139 1_555
B0 Ho6 2.454256 1_555
B1 B10 1.780376 1_555
B1 Ru10 2.024698 1_545
B1 Ru1 2.188136 1_455
B1 Ho7 2.454254 1_555
B2 B5 1.643822 1_545
B2 B3 1.780376 1_554
B2 Ru3 2.024696 1_555
B2 Ru2 2.188136 1_554
B2 Ho3 2.454254 1_555
B3 B6 1.643822 1_545
B3 Ru2 2.024696 1_555
B3 Ru3 2.188136 1_556
B3 Ho2 2.454254 1_545
B4 B7 1.643822 1_655
B4 Ru15 2.024689 1_555
B4 Ru4 2.188139 1_556
B4 Ho6 2.454256 1_555
B5 B6 1.780376 1_554
B5 Ru6 2.024690 1_555
B5 Ru5 2.188139 1_554
B5 Ho5 2.454256 1_555
B6 Ru5 2.024690 1_555
B6 Ru6 2.188139 1_556
B6 Ho4 2.454256 1_555
B7 Ru14 2.024698 1_555
B7 Ru7 2.188136 1_556
B7 Ho7 2.454254 1_555
B8 Ru0 2.024698 1_555
B8 Ru8 2.188136 1_555
B8 Ho0 2.454254 1_555
B9 Ru12 2.024696 1_655
B9 Ru9 2.188136 1_555
B9 Ho3 2.454254 1_555
B10 B8 1.643822 1_555
B10 Ru1 2.024689 1_455
B10 Ru10 2.188139 1_545
B10 Ho1 2.454256 1_545
B11 B9 1.643822 1_555
B11 B13 1.780376 1_555
B11 Ru13 2.024690 1_555
B11 Ru11 2.188139 1_565
B11 Ho5 2.454256 1_555
B12 B13 1.643822 1_555
B12 B9 1.780376 1_555
B12 Ru9 2.024696 1_555
B12 Ru12 2.188136 1_655
B12 Ho2 2.454254 1_655
B13 Ru11 2.024690 1_565
B13 Ru13 2.188139 1_555
B13 Ho4 2.454256 1_555
B14 B15 1.643822 1_455
B14 B7 1.780376 1_554
B14 Ru7 2.024689 1_555
B14 Ru14 2.188139 1_554
B14 Ho1 2.454256 1_555
B15 B4 1.780376 1_554
B15 Ru4 2.024698 1_555
B15 Ru15 2.188136 1_554
B15 Ho0 2.454254 1_655
Ru0 Ru11 2.407127 1_555
Ru0 Ru9 2.407134 1_555
Ru1 Ru11 2.407122 1_555
Ru1 Ru9 2.407129 1_555
Ru2 Ru7 2.407129 1_556
Ru2 Ru4 2.407134 1_556
Ru4 Ru5 2.407127 1_554
Ru5 Ru7 2.407122 1_556
Ru10 Ru13 2.407127 1_555
Ru10 Ru12 2.407134 1_555
Ru12 Ru8 2.407129 1_555
Ru13 Ru8 2.407122 1_555
Ru14 Ru6 2.407127 1_456
Ru14 Ru3 2.407134 1_566
Ru15 Ru6 2.407122 1_546
Ru15 Ru3 2.407129 1_656
