# generated using pymatgen
data_Zr4Sn3
_symmetry_space_group_name_H-M   'P 1'
_cell_length_a   8.37463778
_cell_length_b   8.37463778
_cell_length_c   5.30363700
_cell_angle_alpha   90.00000000
_cell_angle_beta   90.00000000
_cell_angle_gamma   119.99999825
_symmetry_Int_Tables_number   1
_chemical_formula_structural   Zr4Sn3
_chemical_formula_sum   'Zr8 Sn6'
_cell_volume   322.13394779
_cell_formula_units_Z   2
loop_
 _symmetry_equiv_pos_site_id
 _symmetry_equiv_pos_as_xyz
  1  'x, y, z'
loop_
 _atom_site_type_symbol
 _atom_site_label
 _atom_site_symmetry_multiplicity
 _atom_site_fract_x
 _atom_site_fract_y
 _atom_site_fract_z
 _atom_site_occupancy
  Zr  Zr0  1  0.02348200  0.78734200  0.75000000  1
  Zr  Zr1  1  0.66666700  0.33333300  0.25000000  1
  Zr  Zr2  1  0.33333300  0.66666700  0.75000000  1
  Zr  Zr3  1  0.97651800  0.21265800  0.25000000  1
  Zr  Zr4  1  0.76386000  0.97651800  0.75000000  1
  Zr  Zr5  1  0.21265800  0.23614000  0.75000000  1
  Zr  Zr6  1  0.78734200  0.76386000  0.25000000  1
  Zr  Zr7  1  0.23614000  0.02348200  0.25000000  1
  Sn  Sn0  1  0.45181300  0.07484900  0.75000000  1
  Sn  Sn1  1  0.07484900  0.62303600  0.25000000  1
  Sn  Sn2  1  0.92515100  0.37696400  0.75000000  1
  Sn  Sn3  1  0.54818700  0.92515100  0.25000000  1
  Sn  Sn4  1  0.37696400  0.45181300  0.25000000  1
  Sn  Sn5  1  0.62303600  0.54818700  0.75000000  1
loop_
_geom_bond_atom_site_label_1
_geom_bond_atom_site_label_2
_geom_bond_distance
_geom_bond_site_symmetry_2
Sn0 Zr5 2.922538 1_555
Sn0 Zr2 3.045982 1_545
Sn0 Zr4 3.107952 1_545
Sn0 Zr7 3.114885 1_555
Sn0 Zr7 3.114885 1_556
Sn0 Zr0 3.166672 1_545
Sn0 Zr1 3.325758 1_555
Sn0 Zr1 3.325758 1_556
Sn1 Zr7 2.922538 1_565
Sn1 Zr1 3.045984 1_455
Sn1 Zr3 3.107952 1_455
Sn1 Zr0 3.114885 1_555
Sn1 Zr0 3.114885 1_554
Sn1 Zr6 3.166671 1_455
Sn1 Zr2 3.325756 1_555
Sn1 Zr2 3.325756 1_554
Sn2 Zr4 2.922538 1_545
Sn2 Zr2 3.045984 1_655
Sn2 Zr0 3.107952 1_655
Sn2 Zr3 3.114885 1_555
Sn2 Zr3 3.114885 1_556
Sn2 Zr5 3.166671 1_655
Sn2 Zr1 3.325756 1_555
Sn2 Zr1 3.325756 1_556
Sn3 Zr6 2.922538 1_555
Sn3 Zr1 3.045982 1_565
Sn3 Zr7 3.107952 1_565
Sn3 Zr4 3.114885 1_555
Sn3 Zr4 3.114885 1_554
Sn3 Zr3 3.166672 1_565
Sn3 Zr2 3.325758 1_554
Sn3 Zr2 3.325758 1_555
Sn4 Zr3 2.922538 1_455
Sn4 Zr1 3.045990 1_555
Sn4 Zr6 3.107952 1_555
Sn4 Zr5 3.114885 1_555
Sn4 Zr5 3.114885 1_554
Sn4 Zr7 3.166672 1_555
Sn4 Zr2 3.325761 1_554
Sn4 Zr2 3.325761 1_555
Sn5 Zr0 2.922538 1_655
Sn5 Zr2 3.045990 1_555
Sn5 Zr5 3.107952 1_555
Sn5 Zr6 3.114885 1_555
Sn5 Zr6 3.114885 1_556
Sn5 Zr4 3.166672 1_555
Sn5 Zr1 3.325761 1_555
Sn5 Zr1 3.325761 1_556
