# generated using pymatgen
data_TaMn2FeO6
_symmetry_space_group_name_H-M   'P 1'
_cell_length_a   5.60916173
_cell_length_b   5.60916173
_cell_length_c   5.60916263
_cell_angle_alpha   56.76021783
_cell_angle_beta   56.76021783
_cell_angle_gamma   56.76021768
_symmetry_Int_Tables_number   1
_chemical_formula_structural   TaMn2FeO6
_chemical_formula_sum   'Ta1 Mn2 Fe1 O6'
_cell_volume   115.45677482
_cell_formula_units_Z   1
loop_
 _symmetry_equiv_pos_site_id
 _symmetry_equiv_pos_as_xyz
  1  'x, y, z'
loop_
 _atom_site_type_symbol
 _atom_site_label
 _atom_site_symmetry_multiplicity
 _atom_site_fract_x
 _atom_site_fract_y
 _atom_site_fract_z
 _atom_site_occupancy
  Ta  Ta0  1  0.78122200  0.78122200  0.78122200  1
  Mn  Mn0  1  0.50467400  0.50467400  0.50467400  1
  Mn  Mn1  1  0.99607900  0.99607900  0.99607900  1
  Fe  Fe0  1  0.28058500  0.28058500  0.28058500  1
  O  O0  1  0.65826800  0.05188200  0.42508400  1
  O  O1  1  0.05188200  0.42508400  0.65826800  1
  O  O2  1  0.42508400  0.65826800  0.05188200  1
  O  O3  1  0.15004100  0.92069000  0.56027500  1
  O  O4  1  0.92069000  0.56027500  0.15004100  1
  O  O5  1  0.56027500  0.15004100  0.92069000  1
loop_
_geom_bond_atom_site_label_1
_geom_bond_atom_site_label_2
_geom_bond_distance
_geom_bond_site_symmetry_2
Mn0 O3 2.127997 1_555
Mn0 O4 2.127997 1_555
Mn0 O5 2.127997 1_555
Mn0 O1 2.411351 1_555
Mn0 O0 2.411351 1_555
Mn0 O2 2.411351 1_555
Mn1 O2 2.157724 1_656
Mn1 O1 2.157724 1_665
Mn1 O0 2.157724 1_566
Mn1 O4 2.306237 1_556
Mn1 O5 2.306237 1_565
Mn1 O3 2.306237 1_655
Fe0 O3 1.990421 1_545
Fe0 O4 1.990421 1_455
Fe0 O5 1.990421 1_554
Fe0 O2 2.133956 1_555
Fe0 O0 2.133956 1_555
Fe0 O1 2.133956 1_555
O0 Ta0 1.951609 1_545
O1 Ta0 1.951609 1_455
O2 Ta0 1.951609 1_554
O3 Ta0 2.080459 1_455
O4 Ta0 2.080460 1_554
O5 Ta0 2.080460 1_545
