# generated using pymatgen
data_MnZn2WO6
_symmetry_space_group_name_H-M   'P 1'
_cell_length_a   5.32219654
_cell_length_b   7.76460344
_cell_length_c   5.65111475
_cell_angle_alpha   94.75778469
_cell_angle_beta   90.02632860
_cell_angle_gamma   89.96679707
_symmetry_Int_Tables_number   1
_chemical_formula_structural   MnZn2WO6
_chemical_formula_sum   'Mn2 Zn4 W2 O12'
_cell_volume   232.72612920
_cell_formula_units_Z   2
loop_
 _symmetry_equiv_pos_site_id
 _symmetry_equiv_pos_as_xyz
  1  'x, y, z'
loop_
 _atom_site_type_symbol
 _atom_site_label
 _atom_site_symmetry_multiplicity
 _atom_site_fract_x
 _atom_site_fract_y
 _atom_site_fract_z
 _atom_site_occupancy
  Mn  Mn0  1  0.50856300  0.99353600  0.50552400  1
  Mn  Mn1  1  0.00867200  0.49350600  0.00548200  1
  Zn  Zn0  1  0.50822300  0.28168300  0.92937400  1
  Zn  Zn1  1  0.00809900  0.78171000  0.42934000  1
  Zn  Zn2  1  0.00831100  0.24951500  0.49300800  1
  Zn  Zn3  1  0.50837700  0.74946400  0.99309500  1
  W  W0  1  0.50817600  0.49429600  0.50338400  1
  W  W1  1  0.00821100  0.99428300  0.00339500  1
  O  O0  1  0.22007400  0.40379300  0.69284900  1
  O  O1  1  0.72002300  0.90383700  0.19291200  1
  O  O2  1  0.15721400  0.04434700  0.33244900  1
  O  O3  1  0.65718500  0.54435500  0.83243800  1
  O  O4  1  0.64793200  0.25571300  0.54386300  1
  O  O5  1  0.14793400  0.75570000  0.04383100  1
  O  O6  1  0.31499800  0.05524100  0.85793700  1
  O  O7  1  0.81499700  0.55525200  0.35794900  1
  O  O8  1  0.86555100  0.22039400  0.02352700  1
  O  O9  1  0.36545800  0.72039700  0.52354900  1
  O  O10  1  0.34386800  0.41362700  0.21527800  1
  O  O11  1  0.84389000  0.91364500  0.71528000  1
loop_
_geom_bond_atom_site_label_1
_geom_bond_atom_site_label_2
_geom_bond_distance
_geom_bond_site_symmetry_2
Mn0 O1 2.160876 1_555
Mn0 O4 2.160936 1_565
Mn0 O2 2.161122 1_565
Mn0 O11 2.256919 1_555
Mn0 O6 2.258329 1_565
Mn0 O9 2.264089 1_555
Mn1 O0 2.160837 1_554
Mn1 O5 2.160865 1_555
Mn1 O3 2.161740 1_454
Mn1 O10 2.256463 1_555
Mn1 O7 2.258904 1_455
Mn1 O8 2.263935 1_455
O0 Zn2 1.938186 1_555
O0 W0 2.029502 1_555
O0 Zn0 2.289997 1_555
O1 Zn3 1.938172 1_554
O1 W1 2.029839 1_655
O1 Zn1 2.289459 1_655
O2 Zn2 1.936111 1_555
O2 W1 2.029016 1_545
O2 Zn1 2.296904 1_545
O3 Zn3 1.935767 1_555
O3 W0 2.029024 1_555
O3 Zn0 2.296948 1_555
O4 Zn2 1.939528 1_655
O4 W0 2.026299 1_555
O4 Zn0 2.295242 1_555
O5 Zn3 1.939770 1_554
O5 W1 2.026189 1_555
O5 Zn1 2.295452 1_555
O6 W1 1.905873 1_546
O6 Zn0 2.048387 1_555
O7 W0 1.905965 1_555
O7 Zn1 2.048130 1_655
O8 W1 1.907138 1_645
O8 Zn0 2.041156 1_554
O9 W0 1.907187 1_555
O9 Zn1 2.041445 1_555
O10 W0 1.907348 1_555
O10 Zn0 2.037357 1_554
O11 W1 1.907359 1_656
O11 Zn1 2.037146 1_655
