# generated using pymatgen
data_Mg14CrMo
_symmetry_space_group_name_H-M   'P 1'
_cell_length_a   6.29579086
_cell_length_b   6.18590761
_cell_length_c   10.00072567
_cell_angle_alpha   90.00000000
_cell_angle_beta   90.00000000
_cell_angle_gamma   119.42430996
_symmetry_Int_Tables_number   1
_chemical_formula_structural   Mg14CrMo
_chemical_formula_sum   'Mg14 Cr1 Mo1'
_cell_volume   339.23926014
_cell_formula_units_Z   1
loop_
 _symmetry_equiv_pos_site_id
 _symmetry_equiv_pos_as_xyz
  1  'x, y, z'
loop_
 _atom_site_type_symbol
 _atom_site_label
 _atom_site_symmetry_multiplicity
 _atom_site_fract_x
 _atom_site_fract_y
 _atom_site_fract_z
 _atom_site_occupancy
  Mg  Mg0  1  0.16848023  0.33423962  0.62500000  1
  Mg  Mg1  1  0.16670946  0.83335423  0.62500000  1
  Mg  Mg2  1  0.66643306  0.33388412  0.12500000  1
  Mg  Mg3  1  0.66445766  0.33317250  0.62500000  1
  Mg  Mg4  1  0.66643306  0.83254793  0.12500000  1
  Mg  Mg5  1  0.66445766  0.83128416  0.62500000  1
  Mg  Mg6  1  0.32731011  0.16018354  0.36300224  1
  Mg  Mg7  1  0.32731011  0.16018354  0.88699776  1
  Mg  Mg8  1  0.32731011  0.66712758  0.36300224  1
  Mg  Mg9  1  0.32731011  0.66712758  0.88699776  1
  Mg  Mg10  1  0.84057977  0.17029039  0.37233409  1
  Mg  Mg11  1  0.84057977  0.17029039  0.87766591  1
  Mg  Mg12  1  0.84409700  0.67204900  0.36817324  1
  Mg  Mg13  1  0.84409700  0.67204900  0.88182676  1
  Cr  Cr0  1  0.16682289  0.33341095  0.12500000  1
  Mo  Mo0  1  0.15761198  0.82880549  0.12500000  1
loop_
_geom_bond_atom_site_label_1
_geom_bond_atom_site_label_2
_geom_bond_distance
_geom_bond_site_symmetry_2
Mg0 Mg1 3.092969 1_555
Mg0 Mg1 3.092969 1_545
Mg0 Mg10 3.101304 1_455
Mg0 Mg11 3.101304 1_455
Mg0 Mg5 3.125818 1_555
Mg0 Mg3 3.125818 1_555
Mg0 Mg5 3.169983 1_445
Mg0 Mg3 3.169983 1_455
Mg0 Mg6 3.175269 1_555
Mg0 Mg7 3.175269 1_555
Mg0 Mg8 3.175275 1_555
Mg0 Mg9 3.175275 1_555
Mg1 Mg12 3.118761 1_455
Mg1 Mg13 3.118761 1_455
Mg1 Mg3 3.140029 1_565
Mg1 Mg5 3.140029 1_555
Mg1 Mg3 3.155801 1_455
Mg1 Mg5 3.155801 1_455
Mg1 Mg8 3.156973 1_555
Mg1 Mg9 3.156973 1_555
Mg1 Mg6 3.156979 1_565
Mg1 Mg7 3.156979 1_565
Mg2 Mg7 3.020635 1_554
Mg2 Mg6 3.020635 1_555
Mg2 Mg4 3.084688 1_555
Mg2 Mg4 3.101219 1_545
Mg2 Mo0 3.103798 1_655
Mg2 Mo0 3.192121 1_545
Mg3 Mg5 3.081273 1_555
Mg3 Mg5 3.104635 1_545
Mg3 Mg7 3.206884 1_555
Mg3 Mg6 3.206884 1_555
Mg4 Mg8 3.020635 1_555
Mg4 Mg9 3.020635 1_554
Mg4 Mo0 3.103798 1_655
Mg4 Mo0 3.192122 1_555
Mg5 Mg9 3.206884 1_555
Mg5 Mg8 3.206884 1_555
Mg6 Mo0 2.976059 1_545
Mg6 Mg8 3.049999 1_545
Mg6 Mg8 3.135909 1_555
Mg7 Mo0 2.976059 1_546
Mg7 Mg9 3.049999 1_545
Mg7 Mg9 3.135909 1_555
Mg8 Mo0 2.976053 1_555
Mg9 Mo0 2.976053 1_556
Mg10 Mg2 3.071584 1_555
Mg10 Mg4 3.071590 1_545
Mg10 Mg12 3.093294 1_555
Mg10 Mg12 3.093294 1_545
Mg10 Mg8 3.096952 1_655
Mg10 Mg6 3.096952 1_655
Mg10 Mg3 3.118872 1_555
Mg10 Mg5 3.118878 1_545
Mg10 Mg8 3.202547 1_545
Mg10 Mg6 3.202547 1_555
Mg11 Mg2 3.071584 1_556
Mg11 Mg4 3.071590 1_546
Mg11 Mg13 3.093294 1_555
Mg11 Mg13 3.093294 1_545
Mg11 Mg9 3.096952 1_655
Mg11 Mg7 3.096952 1_655
Mg11 Mg3 3.118872 1_555
Mg11 Mg5 3.118878 1_545
Mg11 Mg9 3.202547 1_545
Mg11 Mg7 3.202547 1_555
Mg12 Mo0 2.978233 1_655
Mg12 Mg4 3.040091 1_555
Mg12 Mg2 3.040097 1_555
Mg12 Mg6 3.057717 1_665
Mg12 Mg8 3.057717 1_655
Mg12 Mg5 3.152917 1_555
Mg12 Mg3 3.152923 1_555
Mg12 Mg6 3.239147 1_555
Mg12 Mg8 3.239148 1_555
Mg13 Mo0 2.978233 1_656
Mg13 Mg4 3.040091 1_556
Mg13 Mg2 3.040097 1_556
Mg13 Mg7 3.057717 1_665
Mg13 Mg9 3.057717 1_655
Mg13 Mg5 3.152917 1_555
Mg13 Mg3 3.152923 1_555
Mg13 Mg7 3.239147 1_555
Mg13 Mg9 3.239148 1_555
Cr0 Mg7 2.983001 1_554
Cr0 Mg6 2.983001 1_555
Cr0 Mg8 2.983007 1_555
Cr0 Mg9 2.983007 1_554
Cr0 Mg11 3.052680 1_454
Cr0 Mg10 3.052680 1_455
Cr0 Mo0 3.093366 1_555
Cr0 Mo0 3.093366 1_545
Cr0 Mg4 3.144004 1_555
Cr0 Mg2 3.144004 1_555
Cr0 Mg4 3.151789 1_445
Cr0 Mg2 3.151789 1_455
