# generated using pymatgen
data_LiMg4Al(MoO4)6
_symmetry_space_group_name_H-M   'P 1'
_cell_length_a   6.99496000
_cell_length_b   8.38030453
_cell_length_c   9.86736873
_cell_angle_alpha   95.89410221
_cell_angle_beta   107.11668124
_cell_angle_gamma   101.61389506
_symmetry_Int_Tables_number   1
_chemical_formula_structural   LiMg4Al(MoO4)6
_chemical_formula_sum   'Li1 Mg4 Al1 Mo6 O24'
_cell_volume   533.32285241
_cell_formula_units_Z   1
loop_
 _symmetry_equiv_pos_site_id
 _symmetry_equiv_pos_as_xyz
  1  'x, y, z'
loop_
 _atom_site_type_symbol
 _atom_site_label
 _atom_site_symmetry_multiplicity
 _atom_site_fract_x
 _atom_site_fract_y
 _atom_site_fract_z
 _atom_site_occupancy
  Li  Li0  1  0.96542000  0.39133000  0.21575000  1
  Mg  Mg0  1  0.46418600  0.80614000  0.01184400  1
  Mg  Mg1  1  0.54185200  0.19275300  0.00007300  1
  Mg  Mg2  1  0.75163800  0.80155900  0.58736400  1
  Mg  Mg3  1  0.24628400  0.20024800  0.40103500  1
  Al  Al0  1  0.03911400  0.61757800  0.79337700  1
  Mo  Mo0  1  0.01775700  0.79820600  0.11571800  1
  Mo  Mo1  1  0.98029200  0.20789600  0.87468300  1
  Mo  Mo2  1  0.50673000  0.49328900  0.25761400  1
  Mo  Mo3  1  0.49801600  0.51108000  0.74610300  1
  Mo  Mo4  1  0.69838800  0.10661000  0.33939500  1
  Mo  Mo5  1  0.30174800  0.89107000  0.66383900  1
  O  O0  1  0.55342500  0.21043200  0.42405500  1
  O  O1  1  0.45167700  0.78493200  0.58774600  1
  O  O2  1  0.64556800  0.36442100  0.18220500  1
  O  O3  1  0.33781500  0.63200400  0.81608100  1
  O  O4  1  0.01207400  0.63256500  0.20990800  1
  O  O5  1  0.99280200  0.39908700  0.79462000  1
  O  O6  1  0.14694500  0.98380700  0.24210000  1
  O  O7  1  0.85601400  0.02491500  0.74374800  1
  O  O8  1  0.45019500  0.64190300  0.14542300  1
  O  O9  1  0.54071100  0.36036800  0.85423100  1
  O  O10  1  0.66479700  0.59762500  0.43184500  1
  O  O11  1  0.34671100  0.40329800  0.57522700  1
  O  O12  1  0.55322200  0.02372600  0.14777200  1
  O  O13  1  0.44520800  0.97704800  0.84983500  1
  O  O14  1  0.75838500  0.80188400  0.02635100  1
  O  O15  1  0.23465000  0.19439000  0.96334800  1
  O  O16  1  0.13323500  0.75570400  0.96643600  1
  O  O17  1  0.85242100  0.22109200  0.00711300  1
  O  O18  1  0.26523700  0.37395900  0.26447300  1
  O  O19  1  0.75548700  0.62214700  0.74304400  1
  O  O20  1  0.74389100  0.93931100  0.42907100  1
  O  O21  1  0.24804500  0.05142400  0.56870500  1
  O  O22  1  0.95090700  0.23350700  0.36390900  1
  O  O23  1  0.04915100  0.75269100  0.65596100  1
loop_
_geom_bond_atom_site_label_1
_geom_bond_atom_site_label_2
_geom_bond_distance
_geom_bond_site_symmetry_2
Li0 O4 1.991521 1_655
Li0 O18 2.048024 1_655
Li0 O22 2.080210 1_555
Li0 O2 2.124091 1_555
Li0 O17 2.209804 1_555
Mg0 O8 2.008864 1_555
Mg0 O12 2.015071 1_565
Mg0 O14 2.028289 1_555
Mg0 O3 2.130463 1_554
Mg0 O16 2.166831 1_554
Mg0 O13 2.246420 1_554
Mg1 O2 2.026593 1_555
Mg1 O13 2.071241 1_544
Mg1 O15 2.074523 1_554
Mg1 O9 2.111161 1_554
Mg1 O17 2.116761 1_555
Mg1 O12 2.130241 1_555
Mg2 O20 2.030003 1_555
Mg2 O10 2.034533 1_555
Mg2 O1 2.075810 1_555
Mg2 O23 2.127844 1_655
Mg2 O7 2.147368 1_565
Mg2 O19 2.255525 1_555
Mg3 O22 2.070787 1_455
Mg3 O0 2.075958 1_555
Mg3 O18 2.093537 1_555
Mg3 O6 2.121127 1_545
Mg3 O11 2.133214 1_555
Mg3 O21 2.170451 1_555
Al0 O5 1.796068 1_455
Al0 O16 1.820655 1_555
Al0 O23 1.861428 1_555
Al0 O19 1.907540 1_455
Al0 O3 2.011866 1_555
Mo0 O4 1.748359 1_555
Mo0 O14 1.776675 1_455
Mo0 O6 1.778588 1_555
Mo0 O16 1.912489 1_554
Mo1 O15 1.768902 1_655
Mo1 O7 1.780904 1_555
Mo1 O17 1.793875 1_556
Mo1 O5 1.855574 1_555
Mo2 O10 1.767987 1_555
Mo2 O8 1.776730 1_555
Mo2 O18 1.805320 1_555
Mo2 O2 1.829138 1_555
Mo3 O11 1.740920 1_555
Mo3 O9 1.750377 1_555
Mo3 O19 1.863781 1_555
Mo3 O3 1.878418 1_555
Mo4 O20 1.765964 1_545
Mo4 O0 1.785394 1_555
Mo4 O22 1.802441 1_555
Mo4 O12 1.845222 1_555
Mo5 O21 1.755822 1_565
Mo5 O1 1.776717 1_555
Mo5 O13 1.802123 1_555
Mo5 O23 1.883733 1_555
