# generated using pymatgen
data_W6CCl15
_symmetry_space_group_name_H-M   'P 1'
_cell_length_a   10.50696900
_cell_length_b   12.17867700
_cell_length_c   18.80868434
_cell_angle_alpha   90.00000000
_cell_angle_beta   113.36238745
_cell_angle_gamma   90.00000000
_symmetry_Int_Tables_number   1
_chemical_formula_structural   W6CCl15
_chemical_formula_sum   'W24 C4 Cl60'
_cell_volume   2209.45838040
_cell_formula_units_Z   4
loop_
 _symmetry_equiv_pos_site_id
 _symmetry_equiv_pos_as_xyz
  1  'x, y, z'
loop_
 _atom_site_type_symbol
 _atom_site_label
 _atom_site_symmetry_multiplicity
 _atom_site_fract_x
 _atom_site_fract_y
 _atom_site_fract_z
 _atom_site_occupancy
  W  W0  1  0.44088500  0.67065400  0.52490800  1
  W  W1  1  0.55911500  0.17065400  0.97509200  1
  W  W2  1  0.55911500  0.32934600  0.47509200  1
  W  W3  1  0.44088500  0.82934600  0.02490800  1
  W  W4  1  0.39989800  0.53289800  0.41435100  1
  W  W5  1  0.60010200  0.03289800  0.08564900  1
  W  W6  1  0.60010200  0.46710200  0.58564900  1
  W  W7  1  0.39989800  0.96710200  0.91435100  1
  W  W8  1  0.46432200  0.75665800  0.39792600  1
  W  W9  1  0.53567800  0.25665800  0.10207400  1
  W  W10  1  0.53567800  0.24334200  0.60207400  1
  W  W11  1  0.46432200  0.74334200  0.89792600  1
  W  W12  1  0.14703400  0.75020000  0.46453500  1
  W  W13  1  0.85296600  0.25020000  0.03546500  1
  W  W14  1  0.85296600  0.24980000  0.53546500  1
  W  W15  1  0.14703400  0.74980000  0.96453500  1
  W  W16  1  0.09295400  0.62248500  0.33840100  1
  W  W17  1  0.90704600  0.12248500  0.16159900  1
  W  W18  1  0.90704600  0.37751500  0.66159900  1
  W  W19  1  0.09295400  0.87751500  0.83840100  1
  W  W20  1  0.18006200  0.82901600  0.33765900  1
  W  W21  1  0.81993800  0.32901600  0.16234100  1
  W  W22  1  0.81993800  0.17098400  0.66234100  1
  W  W23  1  0.18006200  0.67098400  0.83765900  1
  C  C0  1  0.28459300  0.68757800  0.40989900  1
  C  C1  1  0.71540700  0.18757800  0.09010100  1
  C  C2  1  0.71540700  0.31242200  0.59010100  1
  C  C3  1  0.28459300  0.81242200  0.90989900  1
  Cl  Cl0  1  0.34832700  0.84698500  0.55768500  1
  Cl  Cl1  1  0.65167300  0.34698500  0.94231500  1
  Cl  Cl2  1  0.65167300  0.15301500  0.44231500  1
  Cl  Cl3  1  0.34832700  0.65301500  0.05768500  1
  Cl  Cl4  1  0.24631400  0.60288400  0.55666200  1
  Cl  Cl5  1  0.75368600  0.10288400  0.94333800  1
  Cl  Cl6  1  0.75368600  0.39711600  0.44333800  1
  Cl  Cl7  1  0.24631400  0.89711600  0.05666200  1
  Cl  Cl8  1  0.18251900  0.45328400  0.41381300  1
  Cl  Cl9  1  0.81748100  0.95328400  0.08618700  1
  Cl  Cl10  1  0.81748100  0.54671600  0.58618700  1
  Cl  Cl11  1  0.18251900  0.04671600  0.91381300  1
  Cl  Cl12  1  0.21437500  0.54903300  0.26545600  1
  Cl  Cl13  1  0.78562500  0.04903300  0.23454400  1
  Cl  Cl14  1  0.78562500  0.45096700  0.73454400  1
  Cl  Cl15  1  0.21437500  0.95096700  0.76545600  1
  Cl  Cl16  1  0.30890500  0.78099400  0.26013100  1
  Cl  Cl17  1  0.69109500  0.28099400  0.23986900  1
  Cl  Cl18  1  0.69109500  0.21900600  0.73986900  1
  Cl  Cl19  1  0.30890500  0.71900600  0.76013100  1
  Cl  Cl20  1  0.37978400  0.93888900  0.41422600  1
  Cl  Cl21  1  0.62021600  0.43888900  0.08577400  1
  Cl  Cl22  1  0.62021600  0.06111100  0.58577400  1
  Cl  Cl23  1  0.37978400  0.56111100  0.91422600  1
  Cl  Cl24  1  0.56831100  0.59836300  0.36815400  1
  Cl  Cl25  1  0.43168900  0.09836300  0.13184600  1
  Cl  Cl26  1  0.43168900  0.40163700  0.63184600  1
  Cl  Cl27  1  0.56831100  0.90163700  0.86815400  1
  Cl  Cl28  1  0.63977400  0.76834700  0.52578100  1
  Cl  Cl29  1  0.36022600  0.26834700  0.97421900  1
  Cl  Cl30  1  0.36022600  0.23165300  0.47421900  1
  Cl  Cl31  1  0.63977400  0.73165300  0.02578100  1
  Cl  Cl32  1  0.93020900  0.65586800  0.39638900  1
  Cl  Cl33  1  0.06979100  0.15586800  0.10361100  1
  Cl  Cl34  1  0.06979100  0.34413200  0.60361100  1
  Cl  Cl35  1  0.93020900  0.84413200  0.89638900  1
  Cl  Cl36  1  0.97029300  0.75560400  0.24142400  1
  Cl  Cl37  1  0.02970700  0.25560400  0.25857600  1
  Cl  Cl38  1  0.02970700  0.24439600  0.75857600  1
  Cl  Cl39  1  0.97029300  0.74439600  0.74142400  1
  Cl  Cl40  1  0.04416800  0.91752600  0.39849300  1
  Cl  Cl41  1  0.95583200  0.41752600  0.10150700  1
  Cl  Cl42  1  0.95583200  0.08247400  0.60150700  1
  Cl  Cl43  1  0.04416800  0.58247400  0.89849300  1
  Cl  Cl44  1  0.41206000  0.35891700  0.34070200  1
  Cl  Cl45  1  0.58794000  0.85891700  0.15929800  1
  Cl  Cl46  1  0.58794000  0.64108300  0.65929800  1
  Cl  Cl47  1  0.41206000  0.14108300  0.84070200  1
  Cl  Cl48  1  0.62266800  0.85854100  0.35914300  1
  Cl  Cl49  1  0.37733200  0.35854100  0.14085700  1
  Cl  Cl50  1  0.37733200  0.14145900  0.64085700  1
  Cl  Cl51  1  0.62266800  0.64145900  0.85914300  1
  Cl  Cl52  1  0.03920700  0.80096200  0.55188600  1
  Cl  Cl53  1  0.96079300  0.30096200  0.94811400  1
  Cl  Cl54  1  0.96079300  0.19903800  0.44811400  1
  Cl  Cl55  1  0.03920700  0.69903800  0.05188600  1
  Cl  Cl56  1  0.12153100  0.00044700  0.25141900  1
  Cl  Cl57  1  0.87846900  0.50044700  0.24858100  1
  Cl  Cl58  1  0.87846900  0.99955300  0.74858100  1
  Cl  Cl59  1  0.12153100  0.49955300  0.75141900  1
loop_
_geom_bond_atom_site_label_1
_geom_bond_atom_site_label_2
_geom_bond_distance
_geom_bond_site_symmetry_2
C0 W16 2.084163 1_555
C0 W0 2.145038 1_555
C0 W8 2.159133 1_555
C0 W20 2.199093 1_555
C0 W12 2.214631 1_555
C0 W4 2.223285 1_555
C1 W17 2.084163 1_555
C1 W1 2.145038 1_554
C1 W9 2.159133 1_555
C1 W21 2.199093 1_555
C1 W13 2.214631 1_555
C1 W5 2.223285 1_555
C2 W18 2.084163 1_555
C2 W2 2.145038 1_555
C2 W10 2.159133 1_555
C2 W22 2.199093 1_555
C2 W14 2.214631 1_555
C2 W6 2.223285 1_555
C3 W19 2.084163 1_555
C3 W3 2.145038 1_556
C3 W11 2.159133 1_555
C3 W23 2.199093 1_555
C3 W15 2.214631 1_555
C3 W7 2.223285 1_555
Cl0 W12 2.448123 1_555
Cl0 W0 2.532386 1_555
Cl1 W13 2.448123 1_556
Cl1 W1 2.532386 1_555
Cl2 W14 2.448123 1_555
Cl2 W2 2.532386 1_555
Cl3 W15 2.448123 1_554
Cl3 W3 2.532386 1_555
Cl4 W12 2.424044 1_555
Cl4 W0 2.487094 1_555
Cl5 W13 2.424044 1_556
Cl5 W1 2.487094 1_555
Cl6 W14 2.424044 1_555
Cl6 W2 2.487094 1_555
Cl7 W15 2.424044 1_554
Cl7 W3 2.487094 1_555
Cl8 W16 2.466797 1_555
Cl8 W4 2.477602 1_555
Cl9 W17 2.466797 1_565
Cl9 W5 2.477602 1_565
Cl10 W18 2.466797 1_555
Cl10 W6 2.477602 1_555
Cl11 W19 2.466797 1_545
Cl11 W7 2.477602 1_545
Cl12 W16 2.387125 1_555
Cl12 W4 2.711410 1_555
Cl13 W17 2.387125 1_555
Cl13 W5 2.711410 1_555
Cl14 W18 2.387125 1_555
Cl14 W6 2.711410 1_555
Cl15 W19 2.387125 1_555
Cl15 W7 2.711410 1_555
Cl16 W20 2.422110 1_555
Cl16 W8 2.472853 1_555
Cl17 W21 2.422110 1_555
Cl17 W9 2.472853 1_555
Cl18 W22 2.422110 1_555
Cl18 W10 2.472853 1_555
Cl19 W23 2.422110 1_555
Cl19 W11 2.472853 1_555
Cl20 W20 2.423079 1_555
Cl20 W8 2.454459 1_555
Cl21 W21 2.423079 1_555
Cl21 W9 2.454459 1_555
Cl22 W22 2.423079 1_555
Cl22 W10 2.454459 1_555
Cl23 W23 2.423079 1_555
Cl23 W11 2.454459 1_555
Cl24 W8 2.389373 1_555
Cl24 W4 2.396084 1_555
Cl25 W9 2.389373 1_555
Cl25 W5 2.396084 1_555
Cl26 W10 2.389373 1_555
Cl26 W6 2.396084 1_555
Cl27 W11 2.389373 1_555
Cl27 W7 2.396084 1_555
Cl28 W8 2.384480 1_555
Cl28 W0 2.399072 1_555
Cl29 W9 2.384480 1_556
Cl29 W1 2.399072 1_555
Cl30 W10 2.384480 1_555
Cl30 W2 2.399072 1_555
Cl31 W11 2.384480 1_554
Cl31 W3 2.399072 1_555
Cl32 W16 2.399572 1_655
Cl32 W12 2.415971 1_655
Cl33 W17 2.399572 1_455
Cl33 W13 2.415971 1_455
Cl34 W18 2.399572 1_455
Cl34 W14 2.415971 1_455
Cl35 W19 2.399572 1_655
Cl35 W15 2.415971 1_655
Cl36 W16 2.398324 1_655
Cl36 W20 2.401966 1_655
Cl37 W17 2.398324 1_455
Cl37 W21 2.401966 1_455
Cl38 W18 2.398324 1_455
Cl38 W22 2.401966 1_455
Cl39 W19 2.398324 1_655
Cl39 W23 2.401966 1_655
Cl40 W12 2.408117 1_555
Cl40 W20 2.409474 1_555
Cl41 W13 2.408117 1_555
Cl41 W21 2.409474 1_555
Cl42 W14 2.408117 1_555
Cl42 W22 2.409474 1_555
Cl43 W15 2.408117 1_555
Cl43 W23 2.409474 1_555
Cl44 W2 2.410154 1_555
Cl44 W4 2.562259 1_555
Cl45 W3 2.410154 1_555
Cl45 W5 2.562259 1_565
Cl46 W0 2.410154 1_555
Cl46 W6 2.562259 1_555
Cl47 W1 2.410154 1_555
Cl47 W7 2.562259 1_545
Cl48 W8 2.408781 1_555
Cl49 W9 2.408781 1_555
Cl50 W10 2.408781 1_555
Cl51 W11 2.408781 1_555
Cl52 W12 2.416872 1_555
Cl53 W13 2.416872 1_556
Cl54 W14 2.416872 1_555
Cl55 W15 2.416872 1_554
Cl56 W20 2.564579 1_545
Cl56 W17 2.668751 1_455
Cl57 W21 2.564579 1_555
Cl57 W16 2.668751 1_655
Cl58 W22 2.564579 1_565
Cl58 W19 2.668751 1_655
Cl59 W23 2.564579 1_555
Cl59 W18 2.668751 1_455
