# generated using pymatgen
data_BaGd2ZnO5
_symmetry_space_group_name_H-M   'P 1'
_cell_length_a   5.81990500
_cell_length_b   7.23504300
_cell_length_c   12.58583300
_cell_angle_alpha   90.00000000
_cell_angle_beta   90.00000000
_cell_angle_gamma   90.00000000
_symmetry_Int_Tables_number   1
_chemical_formula_structural   BaGd2ZnO5
_chemical_formula_sum   'Ba4 Gd8 Zn4 O20'
_cell_volume   529.95497934
_cell_formula_units_Z   4
loop_
 _symmetry_equiv_pos_site_id
 _symmetry_equiv_pos_as_xyz
  1  'x, y, z'
loop_
 _atom_site_type_symbol
 _atom_site_label
 _atom_site_symmetry_multiplicity
 _atom_site_fract_x
 _atom_site_fract_y
 _atom_site_fract_z
 _atom_site_occupancy
  Ba  Ba0  1  0.75000000  0.07681500  0.10098000  1
  Ba  Ba1  1  0.75000000  0.42318500  0.60098000  1
  Ba  Ba2  1  0.25000000  0.57681500  0.39902000  1
  Ba  Ba3  1  0.25000000  0.92318500  0.89902000  1
  Gd  Gd0  1  0.25000000  0.39829700  0.07446600  1
  Gd  Gd1  1  0.75000000  0.61756100  0.20784500  1
  Gd  Gd2  1  0.75000000  0.88243900  0.70784500  1
  Gd  Gd3  1  0.25000000  0.11756100  0.29215500  1
  Gd  Gd4  1  0.75000000  0.60170300  0.92553400  1
  Gd  Gd5  1  0.75000000  0.89829700  0.42553400  1
  Gd  Gd6  1  0.25000000  0.10170300  0.57446600  1
  Gd  Gd7  1  0.25000000  0.38243900  0.79215500  1
  Zn  Zn0  1  0.25000000  0.80811000  0.14964700  1
  Zn  Zn1  1  0.75000000  0.19189000  0.85035300  1
  Zn  Zn2  1  0.75000000  0.30811000  0.35035300  1
  Zn  Zn3  1  0.25000000  0.69189000  0.64964700  1
  O  O0  1  0.25000000  0.42901000  0.59916300  1
  O  O1  1  0.75000000  0.57099000  0.40083700  1
  O  O2  1  0.75000000  0.92901000  0.90083700  1
  O  O3  1  0.25000000  0.07099000  0.09916300  1
  O  O4  1  0.00233500  0.85508400  0.27530600  1
  O  O5  1  0.50233500  0.14491600  0.72469400  1
  O  O6  1  0.99766500  0.35508400  0.22469400  1
  O  O7  1  0.49766500  0.64491600  0.77530600  1
  O  O8  1  0.99766500  0.14491600  0.72469400  1
  O  O9  1  0.49766500  0.85508400  0.27530600  1
  O  O10  1  0.00233500  0.64491600  0.77530600  1
  O  O11  1  0.50233500  0.35508400  0.22469400  1
  O  O12  1  0.49640100  0.66525200  0.06582900  1
  O  O13  1  0.99640100  0.33474800  0.93417100  1
  O  O14  1  0.50359900  0.16525200  0.43417100  1
  O  O15  1  0.00359900  0.83474800  0.56582900  1
  O  O16  1  0.99640100  0.16525200  0.43417100  1
  O  O17  1  0.49640100  0.83474800  0.56582900  1
  O  O18  1  0.00359900  0.66525200  0.06582900  1
  O  O19  1  0.50359900  0.33474800  0.93417100  1
loop_
_geom_bond_atom_site_label_1
_geom_bond_atom_site_label_2
_geom_bond_distance
_geom_bond_site_symmetry_2
Ba0 O2 2.736559 1_544
Ba0 O3 2.910348 1_655
Ba0 O3 2.910348 1_555
Ba0 O6 2.924946 1_555
Ba0 O11 2.924946 1_555
Ba0 O4 3.089345 1_645
Ba0 O9 3.089345 1_545
Ba0 O13 3.153821 1_554
Ba0 O19 3.153821 1_554
Ba0 O18 3.352704 1_645
Ba0 O12 3.352704 1_545
Ba1 O1 2.736559 1_555
Ba1 O0 2.910348 1_555
Ba1 O0 2.910348 1_655
Ba1 O8 2.924946 1_555
Ba1 O5 2.924946 1_555
Ba1 O10 3.089345 1_655
Ba1 O7 3.089345 1_555
Ba1 O14 3.153821 1_555
Ba1 O16 3.153821 1_555
Ba1 O15 3.352704 1_655
Ba1 O17 3.352704 1_555
Ba2 O0 2.736559 1_555
Ba2 O1 2.910348 1_455
Ba2 O1 2.910348 1_555
Ba2 O9 2.924946 1_555
Ba2 O4 2.924946 1_555
Ba2 O11 3.089345 1_555
Ba2 O6 3.089345 1_455
Ba2 O17 3.153821 1_555
Ba2 O15 3.153821 1_555
Ba2 O14 3.352704 1_555
Ba2 O16 3.352704 1_455
Ba3 O3 2.736559 1_566
Ba3 O2 2.910348 1_455
Ba3 O2 2.910348 1_555
Ba3 O7 2.924946 1_555
Ba3 O10 2.924946 1_555
Ba3 O5 3.089345 1_565
Ba3 O8 3.089345 1_465
Ba3 O12 3.153821 1_556
Ba3 O18 3.153821 1_556
Ba3 O19 3.352704 1_565
Ba3 O13 3.352704 1_465
Gd0 O19 2.346816 1_554
Gd0 O13 2.346816 1_454
Gd0 O3 2.388393 1_555
Gd0 O12 2.408046 1_555
Gd0 O18 2.408046 1_555
Gd0 O11 2.414404 1_555
Gd0 O6 2.414404 1_455
Gd1 O18 2.343537 1_655
Gd1 O12 2.343537 1_555
Gd1 O6 2.393510 1_555
Gd1 O11 2.393510 1_555
Gd1 O4 2.414701 1_655
Gd1 O9 2.414701 1_555
Gd1 O1 2.452224 1_555
Gd2 O15 2.343537 1_655
Gd2 O17 2.343537 1_555
Gd2 O8 2.393510 1_565
Gd2 O5 2.393510 1_565
Gd2 O10 2.414701 1_655
Gd2 O7 2.414701 1_555
Gd2 O2 2.452224 1_555
Gd3 O14 2.343537 1_555
Gd3 O16 2.343537 1_455
Gd3 O9 2.393510 1_545
Gd3 O4 2.393510 1_545
Gd3 O11 2.414701 1_555
Gd3 O6 2.414701 1_455
Gd3 O3 2.452224 1_555
Gd4 O18 2.346816 1_656
Gd4 O12 2.346816 1_556
Gd4 O2 2.388393 1_555
Gd4 O19 2.408046 1_555
Gd4 O13 2.408046 1_555
Gd4 O10 2.414404 1_655
Gd4 O7 2.414404 1_555
Gd5 O15 2.346816 1_655
Gd5 O17 2.346816 1_555
Gd5 O1 2.388393 1_555
Gd5 O14 2.408046 1_565
Gd5 O16 2.408046 1_565
Gd5 O4 2.414404 1_655
Gd5 O9 2.414404 1_555
Gd6 O16 2.346816 1_455
Gd6 O14 2.346816 1_555
Gd6 O0 2.388393 1_555
Gd6 O17 2.408046 1_545
Gd6 O15 2.408046 1_545
Gd6 O5 2.414404 1_555
Gd6 O8 2.414404 1_455
Gd7 O13 2.343537 1_455
Gd7 O19 2.343537 1_555
Gd7 O7 2.393510 1_555
Gd7 O10 2.393510 1_555
Gd7 O5 2.414701 1_555
Gd7 O8 2.414701 1_455
Gd7 O0 2.452224 1_555
O0 Zn3 2.005273 1_555
O1 Zn2 2.005273 1_555
O2 Zn1 2.005273 1_565
O3 Zn0 2.005273 1_545
O4 Zn0 2.166637 1_555
O5 Zn1 2.166637 1_555
O6 Zn2 2.166637 1_555
O7 Zn3 2.166637 1_555
O8 Zn1 2.166637 1_555
O9 Zn0 2.166637 1_555
O10 Zn3 2.166637 1_555
O11 Zn2 2.166637 1_555
O12 Zn0 2.058542 1_555
O13 Zn1 2.058542 1_555
O14 Zn2 2.058542 1_555
O15 Zn3 2.058542 1_555
O16 Zn2 2.058542 1_555
O17 Zn3 2.058542 1_555
O18 Zn0 2.058542 1_555
O19 Zn1 2.058542 1_555
