# generated using pymatgen
data_AgCl
_symmetry_space_group_name_H-M   'P 1'
_cell_length_a   3.91899252
_cell_length_b   3.92200234
_cell_length_c   5.54400852
_cell_angle_alpha   90.00000000
_cell_angle_beta   89.47924575
_cell_angle_gamma   90.00000000
_symmetry_Int_Tables_number   1
_chemical_formula_structural   AgCl
_chemical_formula_sum   'Ag2 Cl2'
_cell_volume   85.20954264
_cell_formula_units_Z   2
loop_
 _symmetry_equiv_pos_site_id
 _symmetry_equiv_pos_as_xyz
  1  'x, y, z'
loop_
 _atom_site_type_symbol
 _atom_site_label
 _atom_site_symmetry_multiplicity
 _atom_site_fract_x
 _atom_site_fract_y
 _atom_site_fract_z
 _atom_site_occupancy
  Ag  Ag0  1  0.76514540  0.75000000  0.74867415  1
  Ag  Ag1  1  0.23485460  0.25000000  0.25132585  1
  Cl  Cl0  1  0.26140332  0.25000000  0.75077826  1
  Cl  Cl1  1  0.73859668  0.75000000  0.24922174  1
loop_
_geom_bond_atom_site_label_1
_geom_bond_atom_site_label_2
_geom_bond_distance
_geom_bond_site_symmetry_2
Ag0 Cl0 2.761963 1_665
Ag0 Cl0 2.761963 1_655
Ag0 Cl1 2.771867 1_555
Ag0 Cl1 2.776045 1_556
Ag0 Cl0 2.782545 1_565
Ag0 Cl0 2.782545 1_555
Ag1 Cl1 2.761963 1_445
Ag1 Cl1 2.761963 1_455
Ag1 Cl0 2.771867 1_555
Ag1 Cl0 2.776045 1_554
Ag1 Cl1 2.782545 1_555
Ag1 Cl1 2.782545 1_545
