# generated using pymatgen
data_MgCrO2
_symmetry_space_group_name_H-M   'P 1'
_cell_length_a   3.04827200
_cell_length_b   8.10576804
_cell_length_c   8.59969096
_cell_angle_alpha   89.33031420
_cell_angle_beta   84.37429113
_cell_angle_gamma   88.25592691
_symmetry_Int_Tables_number   1
_chemical_formula_structural   MgCrO2
_chemical_formula_sum   'Mg4 Cr4 O8'
_cell_volume   211.35671100
_cell_formula_units_Z   4
loop_
 _symmetry_equiv_pos_site_id
 _symmetry_equiv_pos_as_xyz
  1  'x, y, z'
loop_
 _atom_site_type_symbol
 _atom_site_label
 _atom_site_symmetry_multiplicity
 _atom_site_fract_x
 _atom_site_fract_y
 _atom_site_fract_z
 _atom_site_occupancy
  Mg  Mg0  1  0.83193600  0.91844700  0.26555700  1
  Mg  Mg1  1  0.16806400  0.08155300  0.73444300  1
  Mg  Mg2  1  0.25365400  0.26255000  0.10933700  1
  Mg  Mg3  1  0.74634600  0.73745000  0.89066300  1
  Cr  Cr0  1  0.49056300  0.75749600  0.57711200  1
  Cr  Cr1  1  0.22415900  0.58764200  0.19747500  1
  Cr  Cr2  1  0.77584100  0.41235800  0.80252500  1
  Cr  Cr3  1  0.50943700  0.24250400  0.42288800  1
  O  O0  1  0.96859200  0.24345900  0.57691700  1
  O  O1  1  0.27219500  0.60251400  0.79089300  1
  O  O2  1  0.72780500  0.39748600  0.20910700  1
  O  O3  1  0.03140800  0.75654100  0.42308300  1
  O  O4  1  0.68071400  0.92209800  0.74803000  1
  O  O5  1  0.73623200  0.73964300  0.11612300  1
  O  O6  1  0.31928600  0.07790200  0.25197000  1
  O  O7  1  0.26376800  0.26035700  0.88387700  1
loop_
_geom_bond_atom_site_label_1
_geom_bond_atom_site_label_2
_geom_bond_distance
_geom_bond_site_symmetry_2
Mg0 O6 1.992604 1_665
Mg0 O5 1.994976 1_555
Mg0 O3 1.999637 1_655
Mg0 O6 2.008872 1_565
Mg1 O4 1.992604 1_445
Mg1 O7 1.994976 1_555
Mg1 O0 1.999637 1_455
Mg1 O4 2.008872 1_545
Mg2 O7 1.936388 1_554
Mg2 O6 1.942085 1_555
Mg2 O2 2.036523 1_455
Mg2 O2 2.093506 1_555
Mg3 O5 1.936388 1_556
Mg3 O4 1.942085 1_555
Mg3 O1 2.036523 1_655
Mg3 O1 2.093506 1_555
Cr0 O3 2.010961 1_655
Cr0 O3 2.019400 1_555
Cr0 O4 2.129911 1_555
Cr0 O1 2.271151 1_555
Cr1 O5 2.071703 1_455
Cr1 O5 2.080100 1_555
Cr1 O2 2.150640 1_555
Cr1 O2 2.187170 1_455
Cr1 O3 2.402787 1_555
Cr2 O7 2.071703 1_655
Cr2 O7 2.080100 1_555
Cr2 O1 2.150640 1_555
Cr2 O1 2.187170 1_655
Cr2 O0 2.402787 1_555
Cr3 O0 2.010961 1_455
Cr3 O0 2.019400 1_555
Cr3 O6 2.129911 1_555
Cr3 O2 2.271151 1_555
