# generated using pymatgen
data_La3PrMn4O12
_symmetry_space_group_name_H-M   'P 1'
_cell_length_a   7.94971800
_cell_length_b   5.61225300
_cell_length_c   5.62956259
_cell_angle_alpha   89.97373146
_cell_angle_beta   90.00000000
_cell_angle_gamma   90.00000000
_symmetry_Int_Tables_number   1
_chemical_formula_structural   La3PrMn4O12
_chemical_formula_sum   'La3 Pr1 Mn4 O12'
_cell_volume   251.16757382
_cell_formula_units_Z   1
loop_
 _symmetry_equiv_pos_site_id
 _symmetry_equiv_pos_as_xyz
  1  'x, y, z'
loop_
 _atom_site_type_symbol
 _atom_site_label
 _atom_site_symmetry_multiplicity
 _atom_site_fract_x
 _atom_site_fract_y
 _atom_site_fract_z
 _atom_site_occupancy
  La  La0  1  0.00000000  0.00860000  0.96698600  1
  La  La1  1  0.50000000  0.50807300  0.53159700  1
  La  La2  1  0.50000000  0.99058700  0.03227600  1
  Pr  Pr0  1  0.00000000  0.48862700  0.46148000  1
  Mn  Mn0  1  0.24917600  0.99976000  0.50051500  1
  Mn  Mn1  1  0.75043000  0.50027100  0.99929700  1
  Mn  Mn2  1  0.75082400  0.99976000  0.50051500  1
  Mn  Mn3  1  0.24957000  0.50027100  0.99929700  1
  O  O0  1  0.00000000  0.58338300  0.01670700  1
  O  O1  1  0.00000000  0.91244600  0.51370100  1
  O  O2  1  0.50000000  0.41582100  0.98680900  1
  O  O3  1  0.50000000  0.08300800  0.48683400  1
  O  O4  1  0.20301500  0.22500800  0.21821900  1
  O  O5  1  0.79692200  0.27916300  0.71526200  1
  O  O6  1  0.70474200  0.77833500  0.78480600  1
  O  O7  1  0.29430400  0.72219200  0.28370600  1
  O  O8  1  0.29525800  0.77833500  0.78480600  1
  O  O9  1  0.70569600  0.72219200  0.28370600  1
  O  O10  1  0.79698500  0.22500800  0.21821900  1
  O  O11  1  0.20307800  0.27916300  0.71526200  1
loop_
_geom_bond_atom_site_label_1
_geom_bond_atom_site_label_2
_geom_bond_distance
_geom_bond_site_symmetry_2
La0 O0 2.402657 1_546
La0 O4 2.466114 1_556
La0 O10 2.466114 1_456
La0 O1 2.608474 1_545
La0 O11 2.630259 1_555
La0 O5 2.630259 1_455
La0 O8 2.869241 1_545
La0 O6 2.869241 1_445
La1 O3 2.398960 1_555
La1 O7 2.462509 1_555
La1 O9 2.462509 1_555
La1 O2 2.614189 1_555
La1 O6 2.642677 1_555
La1 O8 2.642677 1_555
La1 O5 2.879237 1_555
La1 O11 2.879237 1_555
La2 O2 2.400091 1_564
La2 O6 2.451649 1_554
La2 O8 2.451649 1_554
La2 O3 2.611235 1_565
La2 O9 2.635227 1_555
La2 O7 2.635227 1_555
La2 O10 2.898613 1_565
La2 O4 2.898613 1_565
Mn0 O7 2.011678 1_555
Mn0 O11 2.014057 1_565
Mn0 O1 2.041932 1_555
Mn0 O3 2.049424 1_565
Mn0 O8 2.058654 1_555
Mn0 O4 2.063119 1_565
Mn1 O6 2.005889 1_555
Mn1 O10 2.010142 1_556
Mn1 O0 2.040470 1_656
Mn1 O2 2.047701 1_555
Mn1 O5 2.057928 1_555
Mn1 O9 2.059860 1_556
Mn2 O9 2.011678 1_555
Mn2 O5 2.014057 1_565
Mn2 O1 2.041932 1_655
Mn2 O3 2.049424 1_565
Mn2 O6 2.058654 1_555
Mn2 O10 2.063119 1_565
Mn3 O8 2.005889 1_555
Mn3 O4 2.010142 1_556
Mn3 O0 2.040470 1_556
Mn3 O2 2.047701 1_555
Mn3 O11 2.057928 1_555
Mn3 O7 2.059860 1_556
O0 Pr0 2.559490 1_555
O1 Pr0 2.396812 1_555
O4 Pr0 2.582805 1_555
O5 Pr0 2.455173 1_655
O7 Pr0 2.862259 1_555
O9 Pr0 2.862259 1_655
O10 Pr0 2.582805 1_655
O11 Pr0 2.455173 1_555
