# generated using pymatgen
data_SrMg6B
_symmetry_space_group_name_H-M   'P 1'
_cell_length_a   16.83873989
_cell_length_b   16.83873989
_cell_length_c   7.95995400
_cell_angle_alpha   90.00000000
_cell_angle_beta   90.00000000
_cell_angle_gamma   136.47223219
_symmetry_Int_Tables_number   1
_chemical_formula_structural   SrMg6B
_chemical_formula_sum   'Sr8 Mg48 B8'
_cell_volume   1554.40300299
_cell_formula_units_Z   8
loop_
 _symmetry_equiv_pos_site_id
 _symmetry_equiv_pos_as_xyz
  1  'x, y, z'
loop_
 _atom_site_type_symbol
 _atom_site_label
 _atom_site_symmetry_multiplicity
 _atom_site_fract_x
 _atom_site_fract_y
 _atom_site_fract_z
 _atom_site_occupancy
  Sr  Sr0_0  1  0.11210350  0.38789650  0.00000000  1
  Sr  Sr0_1  1  0.11210350  0.38789650  0.50000000  1
  Sr  Sr0_2  1  0.11210350  0.88789650  0.00000000  1
  Sr  Sr0_3  1  0.11210350  0.88789650  0.50000000  1
  Sr  Sr0_4  1  0.61210350  0.38789650  0.00000000  1
  Sr  Sr0_5  1  0.61210350  0.38789650  0.50000000  1
  Sr  Sr0_6  1  0.61210350  0.88789650  0.00000000  1
  Sr  Sr0_7  1  0.61210350  0.88789650  0.50000000  1
  Mg  Mg0_0  1  0.09378550  0.18096650  0.00000000  1
  Mg  Mg0_1  1  0.09378550  0.18096650  0.50000000  1
  Mg  Mg0_2  1  0.09378550  0.68096650  0.00000000  1
  Mg  Mg0_3  1  0.09378550  0.68096650  0.50000000  1
  Mg  Mg0_4  1  0.59378550  0.18096650  0.00000000  1
  Mg  Mg0_5  1  0.59378550  0.18096650  0.50000000  1
  Mg  Mg0_6  1  0.59378550  0.68096650  0.00000000  1
  Mg  Mg0_7  1  0.59378550  0.68096650  0.50000000  1
  Mg  Mg1_0  1  0.31903350  0.40621450  0.00000000  1
  Mg  Mg1_1  1  0.31903350  0.40621450  0.50000000  1
  Mg  Mg1_2  1  0.31903350  0.90621450  0.00000000  1
  Mg  Mg1_3  1  0.31903350  0.90621450  0.50000000  1
  Mg  Mg1_4  1  0.81903350  0.40621450  0.00000000  1
  Mg  Mg1_5  1  0.81903350  0.40621450  0.50000000  1
  Mg  Mg1_6  1  0.81903350  0.90621450  0.00000000  1
  Mg  Mg1_7  1  0.81903350  0.90621450  0.50000000  1
  Mg  Mg2_0  1  0.32473250  0.17526750  0.00000000  1
  Mg  Mg2_1  1  0.32473250  0.17526750  0.50000000  1
  Mg  Mg2_2  1  0.32473250  0.67526750  0.00000000  1
  Mg  Mg2_3  1  0.32473250  0.67526750  0.50000000  1
  Mg  Mg2_4  1  0.82473250  0.17526750  0.00000000  1
  Mg  Mg2_5  1  0.82473250  0.17526750  0.50000000  1
  Mg  Mg2_6  1  0.82473250  0.67526750  0.00000000  1
  Mg  Mg2_7  1  0.82473250  0.67526750  0.50000000  1
  Mg  Mg3_0  1  0.14606800  0.10051300  0.25000000  1
  Mg  Mg3_1  1  0.14606800  0.10051300  0.75000000  1
  Mg  Mg3_2  1  0.14606800  0.60051300  0.25000000  1
  Mg  Mg3_3  1  0.14606800  0.60051300  0.75000000  1
  Mg  Mg3_4  1  0.64606800  0.10051300  0.25000000  1
  Mg  Mg3_5  1  0.64606800  0.10051300  0.75000000  1
  Mg  Mg3_6  1  0.64606800  0.60051300  0.25000000  1
  Mg  Mg3_7  1  0.64606800  0.60051300  0.75000000  1
  Mg  Mg4_0  1  0.39948700  0.35393200  0.25000000  1
  Mg  Mg4_1  1  0.39948700  0.35393200  0.75000000  1
  Mg  Mg4_2  1  0.39948700  0.85393200  0.25000000  1
  Mg  Mg4_3  1  0.39948700  0.85393200  0.75000000  1
  Mg  Mg4_4  1  0.89948700  0.35393200  0.25000000  1
  Mg  Mg4_5  1  0.89948700  0.35393200  0.75000000  1
  Mg  Mg4_6  1  0.89948700  0.85393200  0.25000000  1
  Mg  Mg4_7  1  0.89948700  0.85393200  0.75000000  1
  Mg  Mg5_0  1  0.40347250  0.09652750  0.25000000  1
  Mg  Mg5_1  1  0.40347250  0.09652750  0.75000000  1
  Mg  Mg5_2  1  0.40347250  0.59652750  0.25000000  1
  Mg  Mg5_3  1  0.40347250  0.59652750  0.75000000  1
  Mg  Mg5_4  1  0.90347250  0.09652750  0.25000000  1
  Mg  Mg5_5  1  0.90347250  0.09652750  0.75000000  1
  Mg  Mg5_6  1  0.90347250  0.59652750  0.25000000  1
  Mg  Mg5_7  1  0.90347250  0.59652750  0.75000000  1
  B  B0_0  1  0.20131800  0.29868200  0.25000000  1
  B  B0_1  1  0.20131800  0.29868200  0.75000000  1
  B  B0_2  1  0.20131800  0.79868200  0.25000000  1
  B  B0_3  1  0.20131800  0.79868200  0.75000000  1
  B  B0_4  1  0.70131800  0.29868200  0.25000000  1
  B  B0_5  1  0.70131800  0.29868200  0.75000000  1
  B  B0_6  1  0.70131800  0.79868200  0.25000000  1
  B  B0_7  1  0.70131800  0.79868200  0.75000000  1
loop_
_geom_bond_atom_site_label_1
_geom_bond_atom_site_label_2
_geom_bond_distance
_geom_bond_site_symmetry_2
Sr0_0 Sr0_1 3.979977 1_555
Sr0_0 Sr0_1 3.979977 1_554
Sr0_2 Sr0_3 3.979977 1_555
Sr0_2 Sr0_3 3.979977 1_554
Sr0_4 Sr0_5 3.979977 1_555
Sr0_4 Sr0_5 3.979977 1_554
Sr0_6 Sr0_7 3.979977 1_555
Sr0_6 Sr0_7 3.979977 1_554
Mg0_0 Mg5_4 3.105491 1_455
Mg0_0 Mg5_5 3.105491 1_454
Mg0_0 Sr0_0 3.267713 1_555
Mg0_1 Mg5_4 3.105491 1_455
Mg0_1 Mg5_5 3.105491 1_455
Mg0_1 Sr0_1 3.267713 1_555
Mg0_2 Mg5_6 3.105491 1_455
Mg0_2 Mg5_7 3.105491 1_454
Mg0_2 Sr0_2 3.267713 1_555
Mg0_3 Mg5_6 3.105491 1_455
Mg0_3 Mg5_7 3.105491 1_455
Mg0_3 Sr0_3 3.267713 1_555
Mg0_4 Mg5_0 3.105491 1_555
Mg0_4 Mg5_1 3.105491 1_554
Mg0_4 Sr0_4 3.267713 1_555
Mg0_5 Mg5_0 3.105491 1_555
Mg0_5 Mg5_1 3.105491 1_555
Mg0_5 Sr0_5 3.267713 1_555
Mg0_6 Mg5_3 3.105491 1_554
Mg0_6 Mg5_2 3.105491 1_555
Mg0_6 Sr0_6 3.267713 1_555
Mg0_7 Mg5_2 3.105491 1_555
Mg0_7 Mg5_3 3.105491 1_555
Mg0_7 Sr0_7 3.267713 1_555
Mg1_0 Mg5_3 3.105491 1_554
Mg1_0 Mg5_2 3.105491 1_555
Mg1_0 Sr0_0 3.267713 1_555
Mg1_1 Mg5_2 3.105491 1_555
Mg1_1 Mg5_3 3.105491 1_555
Mg1_1 Sr0_1 3.267713 1_555
Mg1_2 Mg5_0 3.105491 1_565
Mg1_2 Mg5_1 3.105491 1_564
Mg1_2 Sr0_2 3.267713 1_555
Mg1_3 Mg5_0 3.105491 1_565
Mg1_3 Mg5_1 3.105491 1_565
Mg1_3 Sr0_3 3.267713 1_555
Mg1_4 Mg5_6 3.105491 1_555
Mg1_4 Mg5_7 3.105491 1_554
Mg1_4 Sr0_4 3.267713 1_555
Mg1_5 Mg5_6 3.105491 1_555
Mg1_5 Mg5_7 3.105491 1_555
Mg1_5 Sr0_5 3.267713 1_555
Mg1_6 Mg5_4 3.105491 1_565
Mg1_6 Mg5_5 3.105491 1_564
Mg1_6 Sr0_6 3.267713 1_555
Mg1_7 Mg5_4 3.105491 1_565
Mg1_7 Mg5_5 3.105491 1_565
Mg1_7 Sr0_7 3.267713 1_555
Mg2_0 Mg3_0 3.017299 1_555
Mg2_0 Mg3_1 3.017299 1_554
Mg2_0 Mg4_0 3.017299 1_555
Mg2_0 Mg4_1 3.017299 1_554
Mg2_0 Mg5_0 3.166255 1_555
Mg2_0 Mg5_1 3.166255 1_554
Mg2_0 Sr0_2 3.333402 1_545
Mg2_0 Sr0_4 3.333402 1_555
Mg2_1 Mg3_0 3.017299 1_555
Mg2_1 Mg3_1 3.017299 1_555
Mg2_1 Mg4_0 3.017299 1_555
Mg2_1 Mg4_1 3.017299 1_555
Mg2_1 Mg5_0 3.166255 1_555
Mg2_1 Mg5_1 3.166255 1_555
Mg2_1 Sr0_3 3.333402 1_545
Mg2_1 Sr0_5 3.333402 1_555
Mg2_2 Mg3_2 3.017299 1_555
Mg2_2 Mg3_3 3.017299 1_554
Mg2_2 Mg4_2 3.017299 1_555
Mg2_2 Mg4_3 3.017299 1_554
Mg2_2 Mg5_3 3.166255 1_554
Mg2_2 Mg5_2 3.166255 1_555
Mg2_2 Sr0_0 3.333402 1_555
Mg2_2 Sr0_6 3.333402 1_555
Mg2_3 Mg3_2 3.017299 1_555
Mg2_3 Mg3_3 3.017299 1_555
Mg2_3 Mg4_2 3.017299 1_555
Mg2_3 Mg4_3 3.017299 1_555
Mg2_3 Mg5_2 3.166255 1_555
Mg2_3 Mg5_3 3.166255 1_555
Mg2_3 Sr0_1 3.333402 1_555
Mg2_3 Sr0_7 3.333402 1_555
Mg2_4 Mg3_4 3.017299 1_555
Mg2_4 Mg3_5 3.017299 1_554
Mg2_4 Mg4_4 3.017299 1_555
Mg2_4 Mg4_5 3.017299 1_554
Mg2_4 Mg5_4 3.166255 1_555
Mg2_4 Mg5_5 3.166255 1_554
Mg2_4 Sr0_6 3.333402 1_545
Mg2_4 Sr0_0 3.333402 1_655
Mg2_5 Mg3_4 3.017299 1_555
Mg2_5 Mg3_5 3.017299 1_555
Mg2_5 Mg4_4 3.017299 1_555
Mg2_5 Mg4_5 3.017299 1_555
Mg2_5 Mg5_4 3.166255 1_555
Mg2_5 Mg5_5 3.166255 1_555
Mg2_5 Sr0_1 3.333402 1_655
Mg2_5 Sr0_7 3.333402 1_545
Mg2_6 Mg3_6 3.017299 1_555
Mg2_6 Mg3_7 3.017299 1_554
Mg2_6 Mg4_7 3.017299 1_554
Mg2_6 Mg4_6 3.017299 1_555
Mg2_6 Mg5_7 3.166255 1_554
Mg2_6 Mg5_6 3.166255 1_555
Mg2_6 Sr0_4 3.333402 1_555
Mg2_6 Sr0_2 3.333402 1_655
Mg2_7 Mg3_6 3.017299 1_555
Mg2_7 Mg3_7 3.017299 1_555
Mg2_7 Mg4_6 3.017299 1_555
Mg2_7 Mg4_7 3.017299 1_555
Mg2_7 Mg5_7 3.166255 1_555
Mg2_7 Mg5_6 3.166255 1_555
Mg2_7 Sr0_5 3.333402 1_555
Mg2_7 Sr0_3 3.333402 1_655
Mg3_0 Sr0_3 3.759757 1_545
Mg3_0 Sr0_2 3.759757 1_545
Mg3_1 Sr0_2 3.759757 1_546
Mg3_1 Sr0_3 3.759757 1_545
Mg3_2 Sr0_1 3.759757 1_555
Mg3_2 Sr0_0 3.759757 1_555
Mg3_3 Sr0_0 3.759757 1_556
Mg3_3 Sr0_1 3.759757 1_555
Mg3_4 Sr0_7 3.759757 1_545
Mg3_4 Sr0_6 3.759757 1_545
Mg3_5 Sr0_6 3.759757 1_546
Mg3_5 Sr0_7 3.759757 1_545
Mg3_6 Sr0_4 3.759757 1_555
Mg3_6 Sr0_5 3.759757 1_555
Mg3_7 Sr0_5 3.759757 1_555
Mg3_7 Sr0_4 3.759757 1_556
Mg4_0 Sr0_4 3.759757 1_555
Mg4_0 Sr0_5 3.759757 1_555
Mg4_1 Sr0_5 3.759757 1_555
Mg4_1 Sr0_4 3.759757 1_556
Mg4_2 Sr0_7 3.759757 1_555
Mg4_2 Sr0_6 3.759757 1_555
Mg4_3 Sr0_6 3.759757 1_556
Mg4_3 Sr0_7 3.759757 1_555
Mg4_4 Sr0_1 3.759757 1_655
Mg4_4 Sr0_0 3.759757 1_655
Mg4_5 Sr0_0 3.759757 1_656
Mg4_5 Sr0_1 3.759757 1_655
Mg4_6 Sr0_2 3.759757 1_655
Mg4_6 Sr0_3 3.759757 1_655
Mg4_7 Sr0_2 3.759757 1_656
Mg4_7 Sr0_3 3.759757 1_655
Mg5_0 Sr0_4 3.921680 1_555
Mg5_0 Sr0_5 3.921680 1_555
Mg5_0 Sr0_2 3.921680 1_545
Mg5_0 Sr0_3 3.921680 1_545
Mg5_1 Sr0_4 3.921680 1_556
Mg5_1 Sr0_5 3.921680 1_555
Mg5_1 Sr0_2 3.921680 1_546
Mg5_1 Sr0_3 3.921680 1_545
Mg5_2 Sr0_6 3.921680 1_555
Mg5_2 Sr0_7 3.921680 1_555
Mg5_2 Sr0_0 3.921680 1_555
Mg5_2 Sr0_1 3.921680 1_555
Mg5_3 Sr0_6 3.921680 1_556
Mg5_3 Sr0_7 3.921680 1_555
Mg5_3 Sr0_1 3.921680 1_555
Mg5_3 Sr0_0 3.921680 1_556
Mg5_4 Sr0_1 3.921680 1_655
Mg5_4 Sr0_0 3.921680 1_655
Mg5_4 Sr0_6 3.921680 1_545
Mg5_4 Sr0_7 3.921680 1_545
Mg5_5 Sr0_0 3.921680 1_656
Mg5_5 Sr0_1 3.921680 1_655
Mg5_5 Sr0_6 3.921680 1_546
Mg5_5 Sr0_7 3.921680 1_545
Mg5_6 Sr0_5 3.921680 1_555
Mg5_6 Sr0_4 3.921680 1_555
Mg5_6 Sr0_2 3.921680 1_655
Mg5_6 Sr0_3 3.921680 1_655
Mg5_7 Sr0_4 3.921680 1_556
Mg5_7 Sr0_5 3.921680 1_555
Mg5_7 Sr0_2 3.921680 1_656
Mg5_7 Sr0_3 3.921680 1_655
B0_0 Mg0_0 2.441967 1_555
B0_0 Mg0_1 2.441967 1_555
B0_0 Mg1_0 2.441967 1_555
B0_0 Mg1_1 2.441967 1_555
B0_0 Mg4_0 2.738396 1_555
B0_0 Mg3_0 2.738396 1_555
B0_0 Sr0_0 3.427265 1_555
B0_0 Sr0_1 3.427265 1_555
B0_1 Mg0_0 2.441967 1_556
B0_1 Mg1_0 2.441967 1_556
B0_1 Mg1_1 2.441967 1_555
B0_1 Mg0_1 2.441967 1_555
B0_1 Mg4_1 2.738396 1_555
B0_1 Mg3_1 2.738396 1_555
B0_1 Sr0_1 3.427265 1_555
B0_1 Sr0_0 3.427265 1_556
B0_2 Mg1_3 2.441967 1_555
B0_2 Mg0_2 2.441967 1_555
B0_2 Mg0_3 2.441967 1_555
B0_2 Mg1_2 2.441967 1_555
B0_2 Mg4_2 2.738396 1_555
B0_2 Mg3_2 2.738396 1_555
B0_2 Sr0_3 3.427265 1_555
B0_2 Sr0_2 3.427265 1_555
B0_3 Mg1_2 2.441967 1_556
B0_3 Mg0_2 2.441967 1_556
B0_3 Mg0_3 2.441967 1_555
B0_3 Mg1_3 2.441967 1_555
B0_3 Mg4_3 2.738396 1_555
B0_3 Mg3_3 2.738396 1_555
B0_3 Sr0_3 3.427265 1_555
B0_3 Sr0_2 3.427265 1_556
B0_4 Mg0_5 2.441967 1_555
B0_4 Mg1_4 2.441967 1_555
B0_4 Mg1_5 2.441967 1_555
B0_4 Mg0_4 2.441967 1_555
B0_4 Mg4_4 2.738396 1_555
B0_4 Mg3_4 2.738396 1_555
B0_4 Sr0_4 3.427265 1_555
B0_4 Sr0_5 3.427265 1_555
B0_5 Mg1_4 2.441967 1_556
B0_5 Mg0_4 2.441967 1_556
B0_5 Mg1_5 2.441967 1_555
B0_5 Mg0_5 2.441967 1_555
B0_5 Mg4_5 2.738396 1_555
B0_5 Mg3_5 2.738396 1_555
B0_5 Sr0_5 3.427265 1_555
B0_5 Sr0_4 3.427265 1_556
B0_6 Mg0_7 2.441967 1_555
B0_6 Mg0_6 2.441967 1_555
B0_6 Mg1_6 2.441967 1_555
B0_6 Mg1_7 2.441967 1_555
B0_6 Mg3_6 2.738396 1_555
B0_6 Mg4_6 2.738396 1_555
B0_6 Sr0_6 3.427265 1_555
B0_6 Sr0_7 3.427265 1_555
B0_7 Mg0_6 2.441967 1_556
B0_7 Mg0_7 2.441967 1_555
B0_7 Mg1_6 2.441967 1_556
B0_7 Mg1_7 2.441967 1_555
B0_7 Mg4_7 2.738396 1_555
B0_7 Mg3_7 2.738396 1_555
B0_7 Sr0_7 3.427265 1_555
B0_7 Sr0_6 3.427265 1_556
