# generated using pymatgen
data_SmCrS3
_symmetry_space_group_name_H-M   'P 1'
_cell_length_a   3.75093180
_cell_length_b   7.80132717
_cell_length_c   12.91934762
_cell_angle_alpha   90.00000000
_cell_angle_beta   90.00000000
_cell_angle_gamma   90.00000000
_symmetry_Int_Tables_number   1
_chemical_formula_structural   SmCrS3
_chemical_formula_sum   'Sm4 Cr4 S12'
_cell_volume   378.04913034
_cell_formula_units_Z   4
loop_
 _symmetry_equiv_pos_site_id
 _symmetry_equiv_pos_as_xyz
  1  'x, y, z'
loop_
 _atom_site_type_symbol
 _atom_site_label
 _atom_site_symmetry_multiplicity
 _atom_site_fract_x
 _atom_site_fract_y
 _atom_site_fract_z
 _atom_site_occupancy
  Sm  Sm0  1  0.25000000  0.08579904  0.82707978  1
  Sm  Sm1  1  0.75000000  0.91420096  0.17292022  1
  Sm  Sm2  1  0.25000000  0.58579904  0.67292022  1
  Sm  Sm3  1  0.75000000  0.41420096  0.32707978  1
  Cr  Cr0  1  0.25000000  0.33738436  0.05075496  1
  Cr  Cr1  1  0.75000000  0.66261564  0.94924504  1
  Cr  Cr2  1  0.25000000  0.83738436  0.44924504  1
  Cr  Cr3  1  0.75000000  0.16261564  0.55075496  1
  S  S0  1  0.25000000  0.49019266  0.89221914  1
  S  S1  1  0.75000000  0.50980734  0.10778086  1
  S  S2  1  0.25000000  0.99019266  0.60778086  1
  S  S3  1  0.75000000  0.00980734  0.39221914  1
  S  S4  1  0.25000000  0.34148459  0.49161236  1
  S  S5  1  0.75000000  0.65851541  0.50838764  1
  S  S6  1  0.25000000  0.84148459  0.00838764  1
  S  S7  1  0.75000000  0.15851541  0.99161236  1
  S  S8  1  0.75000000  0.30609753  0.71295598  1
  S  S9  1  0.25000000  0.69390247  0.28704402  1
  S  S10  1  0.75000000  0.80609753  0.78704402  1
  S  S11  1  0.25000000  0.19390247  0.21295598  1
loop_
_geom_bond_atom_site_label_1
_geom_bond_atom_site_label_2
_geom_bond_distance
_geom_bond_site_symmetry_2
Cr0 S0 2.369844 1_554
Cr0 S11 2.375751 1_555
Cr0 S1 2.422710 1_455
Cr0 S1 2.422710 1_555
Cr0 S7 2.459345 1_454
Cr0 S7 2.459345 1_554
Cr1 S1 2.369844 1_556
Cr1 S10 2.375751 1_555
Cr1 S0 2.422710 1_555
Cr1 S0 2.422710 1_655
Cr1 S6 2.459345 1_656
Cr1 S6 2.459345 1_556
Cr2 S2 2.369844 1_555
Cr2 S9 2.375751 1_555
Cr2 S3 2.422710 1_465
Cr2 S3 2.422710 1_565
Cr2 S5 2.459345 1_455
Cr2 S5 2.459345 1_555
Cr3 S3 2.369844 1_555
Cr3 S8 2.375751 1_555
Cr3 S2 2.422710 1_545
Cr3 S2 2.422710 1_645
Cr3 S4 2.459345 1_655
Cr3 S4 2.459345 1_555
S0 Sm2 2.929730 1_555
S0 Sm0 3.265123 1_555
S1 Sm3 2.929730 1_555
S1 Sm1 3.265123 1_555
S2 Sm0 2.929730 1_565
S2 Sm2 3.265123 1_555
S3 Sm1 2.929730 1_545
S3 Sm3 3.265123 1_555
S4 Sm3 2.890949 1_455
S4 Sm3 2.890949 1_555
S4 Sm2 3.019849 1_555
S5 Sm2 2.890949 1_555
S5 Sm2 2.890949 1_655
S5 Sm3 3.019849 1_555
S6 Sm1 2.890949 1_555
S6 Sm1 2.890949 1_455
S6 Sm0 3.019849 1_564
S7 Sm0 2.890949 1_655
S7 Sm0 2.890949 1_555
S7 Sm1 3.019849 1_546
S8 Sm2 2.923391 1_555
S8 Sm2 2.923391 1_655
S8 Sm0 2.940221 1_555
S8 Sm0 2.940221 1_655
S9 Sm3 2.923391 1_555
S9 Sm3 2.923391 1_455
S9 Sm1 2.940221 1_555
S9 Sm1 2.940221 1_455
S10 Sm0 2.923391 1_565
S10 Sm0 2.923391 1_665
S10 Sm2 2.940221 1_555
S10 Sm2 2.940221 1_655
S11 Sm1 2.923391 1_545
S11 Sm1 2.923391 1_445
S11 Sm3 2.940221 1_455
S11 Sm3 2.940221 1_555
