# generated using pymatgen
data_Li4MnCo2O7
_symmetry_space_group_name_H-M   'P 1'
_cell_length_a   4.99914600
_cell_length_b   6.46590517
_cell_length_c   8.02861302
_cell_angle_alpha   85.47885337
_cell_angle_beta   82.69607575
_cell_angle_gamma   83.43082518
_symmetry_Int_Tables_number   1
_chemical_formula_structural   Li4MnCo2O7
_chemical_formula_sum   'Li8 Mn2 Co4 O14'
_cell_volume   255.17635111
_cell_formula_units_Z   2
loop_
 _symmetry_equiv_pos_site_id
 _symmetry_equiv_pos_as_xyz
  1  'x, y, z'
loop_
 _atom_site_type_symbol
 _atom_site_label
 _atom_site_symmetry_multiplicity
 _atom_site_fract_x
 _atom_site_fract_y
 _atom_site_fract_z
 _atom_site_occupancy
  Li  Li0  1  0.85032600  0.78150100  0.28890300  1
  Li  Li1  1  0.57751400  0.36167200  0.85333700  1
  Li  Li2  1  0.28639200  0.92246400  0.43066400  1
  Li  Li3  1  0.71360800  0.07753600  0.56933600  1
  Li  Li4  1  0.42248600  0.63832800  0.14666300  1
  Li  Li5  1  0.14967400  0.21849900  0.71109700  1
  Li  Li6  1  0.00000000  0.50000000  0.00000000  1
  Li  Li7  1  0.50000000  0.50000000  0.50000000  1
  Mn  Mn0  1  0.78662200  0.92681200  0.92450400  1
  Mn  Mn1  1  0.21337800  0.07318800  0.07549600  1
  Co  Co0  1  0.93101500  0.64064600  0.63143000  1
  Co  Co1  1  0.63981500  0.21567100  0.21878500  1
  Co  Co2  1  0.36018500  0.78432900  0.78121500  1
  Co  Co3  1  0.06898500  0.35935400  0.36857000  1
  O  O0  1  0.09902800  0.80210500  0.03486200  1
  O  O1  1  0.83885400  0.37396800  0.60196700  1
  O  O2  1  0.52797500  0.94658800  0.18170700  1
  O  O3  1  0.94719100  0.09412800  0.32218300  1
  O  O4  1  0.66443700  0.65818100  0.88904600  1
  O  O5  1  0.36230700  0.22547000  0.45324800  1
  O  O6  1  0.22537500  0.52739700  0.74729000  1
  O  O7  1  0.63769300  0.77453000  0.54675200  1
  O  O8  1  0.33556300  0.34181900  0.11095400  1
  O  O9  1  0.05280900  0.90587200  0.67781700  1
  O  O10  1  0.47202500  0.05341200  0.81829300  1
  O  O11  1  0.16114600  0.62603200  0.39803300  1
  O  O12  1  0.90097200  0.19789500  0.96513800  1
  O  O13  1  0.77462500  0.47260300  0.25271000  1
loop_
_geom_bond_atom_site_label_1
_geom_bond_atom_site_label_2
_geom_bond_distance
_geom_bond_site_symmetry_2
Li0 O11 2.010597 1_655
Li0 O2 2.071523 1_555
Li0 O13 2.123508 1_555
Li0 O3 2.175781 1_565
Li0 O7 2.203247 1_555
Li0 O0 2.252506 1_655
Li1 O4 2.062915 1_555
Li1 O12 2.090273 1_555
Li1 O10 2.167180 1_555
Li1 O6 2.185814 1_555
Li1 O1 2.261460 1_555
Li1 O8 2.261625 1_556
Li2 O5 2.063741 1_565
Li2 O11 2.128349 1_555
Li2 O3 2.158352 1_465
Li2 O9 2.172198 1_555
Li2 O7 2.181548 1_555
Li2 O2 2.204128 1_555
Li3 O7 2.063741 1_545
Li3 O1 2.128349 1_555
Li3 O9 2.158352 1_645
Li3 O3 2.172198 1_555
Li3 O5 2.181548 1_555
Li3 O10 2.204128 1_555
Li4 O8 2.062915 1_555
Li4 O0 2.090273 1_555
Li4 O2 2.167180 1_555
Li4 O13 2.185814 1_555
Li4 O11 2.261460 1_555
Li4 O4 2.261625 1_554
Li5 O1 2.010597 1_455
Li5 O10 2.071523 1_555
Li5 O6 2.123508 1_555
Li5 O9 2.175781 1_545
Li5 O5 2.203247 1_555
Li5 O12 2.252506 1_455
Li6 O0 2.117029 1_555
Li6 O12 2.117029 1_454
Li6 O8 2.120725 1_555
Li6 O4 2.120725 1_454
Li6 O6 2.196598 1_554
Li6 O13 2.196598 1_455
Li7 O1 2.033575 1_555
Li7 O11 2.033575 1_555
Li7 O5 2.053278 1_555
Li7 O7 2.053278 1_555
Li7 O13 2.272608 1_555
Li7 O6 2.272608 1_555
Mn0 O10 1.951164 1_565
Mn0 O0 1.955862 1_656
Mn0 O4 1.958580 1_555
Mn0 O12 1.967827 1_565
Mn0 O9 2.245582 1_655
Mn0 O2 2.297235 1_556
Mn1 O2 1.951164 1_545
Mn1 O12 1.955862 1_454
Mn1 O8 1.958580 1_555
Mn1 O0 1.967827 1_545
Mn1 O3 2.245582 1_455
Mn1 O10 2.297235 1_554
Co0 O7 1.797791 1_555
Co0 O1 1.874905 1_555
Co0 O6 1.887069 1_655
Co0 O9 1.961541 1_655
Co0 O11 2.073334 1_655
Co0 O4 2.316951 1_555
Co1 O3 1.900823 1_555
Co1 O13 1.913757 1_555
Co1 O8 1.915166 1_555
Co1 O2 1.942908 1_545
Co1 O5 2.192438 1_555
Co1 O12 2.278447 1_554
Co2 O9 1.900823 1_555
Co2 O6 1.913757 1_555
Co2 O4 1.915166 1_555
Co2 O10 1.942908 1_565
Co2 O7 2.192438 1_555
Co2 O0 2.278447 1_556
Co3 O5 1.797791 1_555
Co3 O11 1.874905 1_555
Co3 O13 1.887069 1_455
Co3 O3 1.961541 1_455
Co3 O1 2.073334 1_455
Co3 O8 2.316951 1_555
