# generated using pymatgen
data_Sr8Fe2Ru2O13
_symmetry_space_group_name_H-M   'P 1'
_cell_length_a   8.75735589
_cell_length_b   8.75735589
_cell_length_c   5.44757968
_cell_angle_alpha   73.70093340
_cell_angle_beta   73.70093340
_cell_angle_gamma   94.98851451
_symmetry_Int_Tables_number   1
_chemical_formula_structural   Sr8Fe2Ru2O13
_chemical_formula_sum   'Sr8 Fe2 Ru2 O13'
_cell_volume   378.59668965
_cell_formula_units_Z   1
loop_
 _symmetry_equiv_pos_site_id
 _symmetry_equiv_pos_as_xyz
  1  'x, y, z'
loop_
 _atom_site_type_symbol
 _atom_site_label
 _atom_site_symmetry_multiplicity
 _atom_site_fract_x
 _atom_site_fract_y
 _atom_site_fract_z
 _atom_site_occupancy
  Sr  Sr0  1  0.77642400  0.47412400  0.63052500  1
  Sr  Sr1  1  0.01963500  0.73197600  0.86909900  1
  Sr  Sr2  1  0.26802400  0.98036500  0.13090100  1
  Sr  Sr3  1  0.52587600  0.22357600  0.36947500  1
  Sr  Sr4  1  0.73197600  0.01963500  0.86909900  1
  Sr  Sr5  1  0.98036500  0.26802400  0.13090100  1
  Sr  Sr6  1  0.22357600  0.52587600  0.36947500  1
  Sr  Sr7  1  0.47412400  0.77642400  0.63052500  1
  Fe  Fe0  1  0.87318700  0.87318700  0.37541300  1
  Fe  Fe1  1  0.12681300  0.12681300  0.62458700  1
  Ru  Ru0  1  0.37980500  0.37980500  0.86415000  1
  Ru  Ru1  1  0.62019500  0.62019500  0.13585000  1
  O  O0  1  0.98071500  0.29515300  0.63849900  1
  O  O1  1  0.21579100  0.53607100  0.87450900  1
  O  O2  1  0.46392900  0.78420900  0.12549100  1
  O  O3  1  0.70484700  0.01928500  0.36150100  1
  O  O4  1  0.53607100  0.21579100  0.87450900  1
  O  O5  1  0.78420900  0.46392900  0.12549100  1
  O  O6  1  0.01928500  0.70484700  0.36150100  1
  O  O7  1  0.29515300  0.98071500  0.63849900  1
  O  O8  1  0.50000000  0.50000000  0.50000000  1
  O  O9  1  0.73620100  0.73620100  0.74749100  1
  O  O10  1  0.00000000  0.00000000  0.00000000  1
  O  O11  1  0.26379900  0.26379900  0.25250900  1
  O  O12  1  0.00000000  0.00000000  0.50000000  1
loop_
_geom_bond_atom_site_label_1
_geom_bond_atom_site_label_2
_geom_bond_distance
_geom_bond_site_symmetry_2
Fe0 O12 1.886506 1_665
Fe0 O10 1.971019 1_665
Fe0 O9 2.001674 1_555
Fe0 O6 2.037721 1_655
Fe0 O3 2.037721 1_565
Fe1 O12 1.886506 1_555
Fe1 O10 1.971019 1_556
Fe1 O11 2.001674 1_555
Fe1 O7 2.037721 1_545
Fe1 O0 2.037721 1_455
O0 Sr0 2.480344 1_555
O0 Sr6 2.568011 1_655
O0 Sr5 2.624742 1_556
O0 Sr4 2.827258 1_555
O0 Sr5 2.841840 1_555
O1 Ru0 2.068488 1_555
O1 Sr1 2.531328 1_555
O1 Sr7 2.688648 1_555
O1 Sr6 2.692978 1_556
O1 Sr5 2.722749 1_456
O1 Sr6 2.759609 1_555
O2 Ru1 2.068488 1_555
O2 Sr2 2.531328 1_555
O2 Sr6 2.688648 1_555
O2 Sr7 2.692978 1_554
O2 Sr4 2.722749 1_564
O2 Sr7 2.759609 1_555
O3 Sr3 2.480344 1_555
O3 Sr7 2.568011 1_545
O3 Sr4 2.624742 1_554
O3 Sr5 2.827258 1_555
O3 Sr4 2.841840 1_555
O4 Ru0 2.068488 1_555
O4 Sr4 2.531328 1_555
O4 Sr0 2.688648 1_555
O4 Sr3 2.692978 1_556
O4 Sr2 2.722749 1_546
O4 Sr3 2.759609 1_555
O5 Ru1 2.068488 1_555
O5 Sr5 2.531328 1_555
O5 Sr3 2.688648 1_555
O5 Sr0 2.692978 1_554
O5 Sr1 2.722749 1_654
O5 Sr0 2.759609 1_555
O6 Sr6 2.480344 1_555
O6 Sr0 2.568011 1_455
O6 Sr1 2.624742 1_554
O6 Sr2 2.827258 1_555
O6 Sr1 2.841840 1_555
O7 Sr7 2.480344 1_555
O7 Sr3 2.568011 1_565
O7 Sr2 2.624742 1_556
O7 Sr1 2.827258 1_555
O7 Sr2 2.841840 1_555
O8 Ru1 1.901144 1_555
O8 Ru0 1.901144 1_555
O8 Sr7 2.718095 1_555
O8 Sr3 2.718095 1_555
O8 Sr0 2.718095 1_555
O8 Sr6 2.718095 1_555
O9 Ru1 1.986881 1_556
O9 Sr0 2.575467 1_555
O9 Sr7 2.575467 1_555
O9 Sr1 2.743428 1_655
O9 Sr4 2.743428 1_565
O10 Sr2 2.643517 1_545
O10 Sr5 2.643517 1_455
O10 Sr1 2.643517 1_544
O10 Sr4 2.643517 1_454
O11 Ru0 1.986881 1_554
O11 Sr3 2.575467 1_555
O11 Sr6 2.575467 1_555
O11 Sr5 2.743428 1_455
O11 Sr2 2.743428 1_545
O12 Sr1 2.682710 1_545
O12 Sr4 2.682710 1_455
O12 Sr5 2.682710 1_455
O12 Sr2 2.682710 1_545
