# generated using pymatgen
data_HfO2
_symmetry_space_group_name_H-M   'P 1'
_cell_length_a   10.55164968
_cell_length_b   11.36529556
_cell_length_c   11.21030415
_cell_angle_alpha   92.22726916
_cell_angle_beta   89.00026455
_cell_angle_gamma   89.63048801
_symmetry_Int_Tables_number   1
_chemical_formula_structural   HfO2
_chemical_formula_sum   'Hf34 O68'
_cell_volume   1343.11471972
_cell_formula_units_Z   34
loop_
 _symmetry_equiv_pos_site_id
 _symmetry_equiv_pos_as_xyz
  1  'x, y, z'
loop_
 _atom_site_type_symbol
 _atom_site_label
 _atom_site_symmetry_multiplicity
 _atom_site_fract_x
 _atom_site_fract_y
 _atom_site_fract_z
 _atom_site_occupancy
  Hf  Hf0  1  0.66980127  0.52106919  0.83823310  1
  Hf  Hf1  1  0.34163796  0.51718947  0.13954494  1
  Hf  Hf2  1  0.64389322  0.82526311  0.46221045  1
  Hf  Hf3  1  0.14675661  0.48983844  0.40191117  1
  Hf  Hf4  1  0.52979361  0.03202280  0.04704339  1
  Hf  Hf5  1  0.61138114  0.58331252  0.58009402  1
  Hf  Hf6  1  0.64646446  0.88385585  0.76704126  1
  Hf  Hf7  1  0.34338998  0.75702076  0.95508872  1
  Hf  Hf8  1  0.96318171  0.27907711  0.92584523  1
  Hf  Hf9  1  0.97581092  0.47614173  0.70611217  1
  Hf  Hf10  1  0.78405399  0.90979952  0.23571747  1
  Hf  Hf11  1  0.12327111  0.84833838  0.45336641  1
  Hf  Hf12  1  0.86664083  0.54050509  0.13925180  1
  Hf  Hf13  1  0.38087606  0.29873226  0.57328929  1
  Hf  Hf14  1  0.05486498  0.16281194  0.44350373  1
  Hf  Hf15  1  0.33953549  0.24706139  0.21036087  1
  Hf  Hf16  1  0.17438096  0.06635489  0.00242627  1
  Hf  Hf17  1  0.72454207  0.33290122  0.51947386  1
  Hf  Hf18  1  0.10617671  0.79078251  0.15492472  1
  Hf  Hf19  1  0.38273546  0.73415824  0.35529339  1
  Hf  Hf20  1  0.60052381  0.71523416  0.10476599  1
  Hf  Hf21  1  0.68503214  0.23404186  0.83213581  1
  Hf  Hf22  1  0.60859566  0.49448328  0.29992470  1
  Hf  Hf23  1  0.37370653  0.84638679  0.64385432  1
  Hf  Hf24  1  0.85500227  0.72159722  0.92752948  1
  Hf  Hf25  1  0.84904287  0.00018952  0.97827897  1
  Hf  Hf26  1  0.55913212  0.12748086  0.37759989  1
  Hf  Hf27  1  0.30389059  0.55677961  0.68951033  1
  Hf  Hf28  1  0.90151206  0.65674323  0.43373651  1
  Hf  Hf29  1  0.78847625  0.08620308  0.58998046  1
  Hf  Hf30  1  0.72670390  0.23445587  0.17072780  1
  Hf  Hf31  1  0.04394851  0.31281173  0.20774344  1
  Hf  Hf32  1  0.39049469  0.27923809  0.86799308  1
  Hf  Hf33  1  0.13828165  0.09980566  0.70491069  1
  O  O0  1  0.23556054  0.66746235  0.07673168  1
  O  O1  1  0.45537597  0.40221108  0.23944598  1
  O  O2  1  0.96340325  0.93667293  0.12311047  1
  O  O3  1  0.33857219  0.09887736  0.08399510  1
  O  O4  1  0.00829007  0.08697025  0.88889424  1
  O  O5  1  0.46164549  0.92244325  0.78555058  1
  O  O6  1  0.46334503  0.62178118  0.99104437  1
  O  O7  1  0.77777887  0.25699758  0.67331351  1
  O  O8  1  0.66396279  0.95936013  0.93632218  1
  O  O9  1  0.00346971  0.52723358  0.53149240  1
  O  O10  1  0.71658318  0.04553224  0.13325686  1
  O  O11  1  0.47903150  0.62536655  0.21454226  1
  O  O12  1  0.26754679  0.59516763  0.30914603  1
  O  O13  1  0.47331784  0.85320231  0.04582163  1
  O  O14  1  0.86816567  0.20837388  0.46750582  1
  O  O15  1  0.31462243  0.72710198  0.77596140  1
  O  O16  1  0.72975613  0.59144733  0.00680191  1
  O  O17  1  0.72489200  0.06616712  0.76220690  1
  O  O18  1  0.54847489  0.76367288  0.62836562  1
  O  O19  1  0.34575269  0.35689596  0.03468567  1
  O  O20  1  0.13152566  0.55558339  0.74922421  1
  O  O21  1  0.06677804  0.33324039  0.39590661  1
  O  O22  1  0.53188896  0.16574928  0.93567455  1
  O  O23  1  0.19646838  0.20003540  0.57217325  1
  O  O24  1  0.80532988  0.37653174  0.86835939  1
  O  O25  1  0.53623025  0.40594930  0.52814359  1
  O  O26  1  0.96437089  0.40218568  0.06284794  1
  O  O27  1  0.69948046  0.00416737  0.38678933  1
  O  O28  1  0.97650864  0.51312670  0.28344649  1
  O  O29  1  0.25148074  0.13303631  0.85520188  1
  O  O30  1  0.52919655  0.15711548  0.19583122  1
  O  O31  1  0.76229166  0.81486780  0.07743318  1
  O  O32  1  0.79798030  0.18807908  0.97948435  1
  O  O33  1  0.71992589  0.40960763  0.16081586  1
  O  O34  1  0.97959783  0.08190854  0.61754361  1
  O  O35  1  0.74391655  0.48858337  0.42891382  1
  O  O36  1  0.20124012  0.88523762  0.01325171  1
  O  O37  1  0.24673300  0.83735646  0.28784729  1
  O  O38  1  0.56069699  0.37426963  0.85925056  1
  O  O39  1  0.16991384  0.17764968  0.26701922  1
  O  O40  1  0.32449658  0.39399438  0.74701882  1
  O  O41  1  0.03864918  0.73877252  0.31647575  1
  O  O42  1  0.50796776  0.56055349  0.72993769  1
  O  O43  1  0.97314651  0.67739728  0.07064290  1
  O  O44  1  0.53909912  0.64129158  0.42440650  1
  O  O45  1  0.39027294  0.21422145  0.39802960  1
  O  O46  1  0.44277126  0.20476076  0.70242249  1
  O  O47  1  0.66362758  0.27356509  0.34192616  1
  O  O48  1  0.71716498  0.92074430  0.59873713  1
  O  O49  1  0.88926792  0.87347917  0.85731683  1
  O  O50  1  0.21116483  0.95109840  0.62581981  1
  O  O51  1  0.68277057  0.72170665  0.83531997  1
  O  O52  1  0.21410384  0.40152947  0.22500679  1
  O  O53  1  0.88975014  0.58513556  0.81921933  1
  O  O54  1  0.28182975  0.72364973  0.52098875  1
  O  O55  1  0.59744566  0.83425993  0.25841056  1
  O  O56  1  0.99866802  0.76449078  0.54190343  1
  O  O57  1  0.81572088  0.80532240  0.36730725  1
  O  O58  1  0.89521876  0.20659081  0.22458940  1
  O  O59  1  0.04156506  0.31917586  0.77069847  1
  O  O60  1  0.10040592  0.22553506  0.05040922  1
  O  O61  1  0.75373841  0.69378434  0.54287820  1
  O  O62  1  0.74539976  0.48119755  0.66354222  1
  O  O63  1  0.27668737  0.45929464  0.53034374  1
  O  O64  1  0.61603516  0.17591343  0.53708788  1
  O  O65  1  0.44977711  0.88514509  0.46563922  1
  O  O66  1  0.72325221  0.62391405  0.23471537  1
  O  O67  1  0.04774443  0.99341046  0.39589512  1
loop_
_geom_bond_atom_site_label_1
_geom_bond_atom_site_label_2
_geom_bond_distance
_geom_bond_site_symmetry_2
Hf0 O38 2.051910 1_555
Hf0 O16 2.131139 1_556
Hf0 O62 2.132743 1_555
Hf0 O42 2.167018 1_555
Hf0 O24 2.210718 1_555
Hf0 O51 2.286753 1_555
Hf0 O53 2.445083 1_555
Hf0 O6 2.945438 1_555
Hf1 O11 2.074927 1_555
Hf1 O52 2.128946 1_555
Hf1 O19 2.129163 1_555
Hf1 O1 2.131332 1_555
Hf1 O0 2.182173 1_555
Hf1 O12 2.195383 1_555
Hf1 O6 2.435670 1_554
Hf2 O48 2.010176 1_555
Hf2 O57 2.092627 1_555
Hf2 O61 2.124466 1_555
Hf2 O65 2.153418 1_555
Hf2 O18 2.240119 1_555
Hf2 O27 2.307573 1_565
Hf2 O55 2.350936 1_555
Hf2 O44 2.398210 1_555
Hf3 O21 1.973925 1_555
Hf3 O63 2.043190 1_555
Hf3 O12 2.051613 1_555
Hf3 O9 2.108026 1_555
Hf3 O28 2.272704 1_455
Hf3 O52 2.287383 1_555
Hf4 O22 2.004011 1_554
Hf4 O8 2.017616 1_544
Hf4 O13 2.121198 1_545
Hf4 O30 2.149091 1_555
Hf4 O3 2.178678 1_555
Hf4 O10 2.213841 1_555
Hf5 O61 2.012446 1_555
Hf5 O42 2.013142 1_555
Hf5 O44 2.047282 1_555
Hf5 O62 2.081141 1_555
Hf5 O18 2.195220 1_555
Hf5 O25 2.230883 1_555
Hf5 O35 2.396487 1_555
Hf6 O5 2.001556 1_555
Hf6 O51 2.059025 1_555
Hf6 O8 2.063831 1_555
Hf6 O48 2.075689 1_555
Hf6 O17 2.238373 1_565
Hf6 O18 2.293645 1_555
Hf6 O49 2.774467 1_555
Hf7 O13 2.022523 1_556
Hf7 O6 2.041537 1_555
Hf7 O15 2.051742 1_555
Hf7 O0 2.063688 1_556
Hf7 O36 2.159215 1_556
Hf8 O59 1.983175 1_655
Hf8 O26 2.037279 1_556
Hf8 O24 2.117883 1_555
Hf8 O32 2.122442 1_555
Hf8 O60 2.131198 1_656
Hf8 O4 2.252682 1_655
Hf9 O20 1.939407 1_655
Hf9 O53 1.946811 1_555
Hf9 O59 2.071253 1_655
Hf9 O9 2.079645 1_655
Hf9 O62 2.486499 1_555
Hf10 O57 1.961105 1_555
Hf10 O31 2.057661 1_555
Hf10 O10 2.087582 1_565
Hf10 O27 2.146752 1_565
Hf10 O55 2.167984 1_555
Hf10 O2 2.285211 1_555
Hf11 O56 1.914676 1_455
Hf11 O67 1.962707 1_555
Hf11 O41 2.148603 1_555
Hf11 O37 2.247483 1_555
Hf11 O54 2.340768 1_555
Hf11 O50 2.421284 1_555
Hf12 O26 2.027791 1_555
Hf12 O28 2.038030 1_555
Hf12 O66 2.044307 1_555
Hf12 O43 2.088177 1_555
Hf12 O33 2.170903 1_555
Hf12 O16 2.181031 1_555
Hf13 O46 1.951145 1_555
Hf13 O25 2.114917 1_555
Hf13 O45 2.153549 1_555
Hf13 O63 2.198020 1_555
Hf13 O23 2.252217 1_555
Hf13 O40 2.259749 1_555
Hf14 O67 1.980065 1_545
Hf14 O21 2.033099 1_555
Hf14 O14 2.044236 1_455
Hf14 O23 2.127904 1_555
Hf14 O39 2.315412 1_555
Hf14 O34 2.318955 1_455
Hf15 O39 2.060727 1_555
Hf15 O3 2.158360 1_555
Hf15 O1 2.169487 1_555
Hf15 O52 2.191056 1_555
Hf15 O45 2.224804 1_555
Hf15 O30 2.241829 1_555
Hf15 O19 2.372471 1_555
Hf16 O3 2.002888 1_555
Hf16 O29 2.004598 1_554
Hf16 O60 2.015703 1_555
Hf16 O36 2.084553 1_545
Hf16 O4 2.200414 1_554
Hf17 O7 2.043806 1_555
Hf17 O35 2.083305 1_555
Hf17 O14 2.125210 1_555
Hf17 O64 2.139884 1_555
Hf17 O25 2.147692 1_555
Hf17 O47 2.185259 1_555
Hf17 O62 2.302849 1_555
Hf18 O41 2.044644 1_555
Hf18 O0 2.105859 1_555
Hf18 O43 2.121001 1_455
Hf18 O37 2.173963 1_555
Hf18 O36 2.184439 1_555
Hf18 O2 2.275626 1_455
Hf19 O37 2.022812 1_555
Hf19 O12 2.055101 1_555
Hf19 O44 2.126530 1_555
Hf19 O54 2.132617 1_555
Hf19 O11 2.197064 1_555
Hf19 O65 2.203747 1_555
Hf19 O55 2.765870 1_555
Hf20 O11 2.064111 1_555
Hf20 O31 2.079268 1_555
Hf20 O55 2.148039 1_555
Hf20 O13 2.186628 1_555
Hf20 O6 2.197152 1_554
Hf20 O16 2.201750 1_555
Hf20 O66 2.245526 1_555
Hf21 O7 2.043128 1_555
Hf21 O38 2.067612 1_555
Hf21 O17 2.072095 1_555
Hf21 O24 2.095732 1_555
Hf21 O32 2.132954 1_555
Hf21 O22 2.140464 1_555
Hf22 O1 2.044034 1_555
Hf22 O35 2.052453 1_555
Hf22 O66 2.058546 1_555
Hf22 O33 2.132349 1_555
Hf22 O44 2.244234 1_555
Hf22 O11 2.264510 1_555
Hf22 O47 2.635456 1_555
Hf22 O25 2.877981 1_555
Hf23 O5 2.021497 1_555
Hf23 O18 2.065996 1_555
Hf23 O50 2.098367 1_555
Hf23 O15 2.134150 1_555
Hf23 O54 2.167377 1_555
Hf23 O65 2.201525 1_555
Hf24 O49 1.957982 1_555
Hf24 O53 1.960822 1_555
Hf24 O51 2.106380 1_555
Hf24 O43 2.122424 1_556
Hf24 O31 2.166896 1_556
Hf24 O16 2.193319 1_556
Hf25 O49 1.978151 1_545
Hf25 O8 2.068128 1_545
Hf25 O2 2.182097 1_546
Hf25 O32 2.198446 1_555
Hf25 O4 2.199942 1_655
Hf25 O10 2.252513 1_556
Hf25 O31 2.584764 1_546
Hf26 O64 1.955849 1_555
Hf26 O45 2.035800 1_555
Hf26 O27 2.039034 1_555
Hf26 O47 2.047451 1_555
Hf26 O30 2.107082 1_555
Hf27 O20 1.927338 1_555
Hf27 O40 1.994539 1_555
Hf27 O63 2.088539 1_555
Hf27 O15 2.135435 1_555
Hf27 O42 2.208594 1_555
Hf27 O54 2.740098 1_555
Hf28 O56 1.991246 1_555
Hf28 O61 1.997601 1_555
Hf28 O57 2.080168 1_555
Hf28 O9 2.161240 1_655
Hf28 O41 2.176534 1_655
Hf28 O28 2.419100 1_555
Hf28 O35 2.541037 1_555
Hf29 O48 2.035209 1_545
Hf29 O34 2.046063 1_555
Hf29 O17 2.054403 1_555
Hf29 O7 2.122730 1_555
Hf29 O14 2.154764 1_555
Hf29 O64 2.182329 1_555
Hf29 O27 2.619257 1_555
Hf30 O58 1.916146 1_555
Hf30 O33 1.998947 1_555
Hf30 O47 2.051614 1_555
Hf30 O10 2.175460 1_555
Hf30 O30 2.284161 1_555
Hf30 O32 2.300116 1_554
Hf31 O58 1.996930 1_455
Hf31 O60 2.066250 1_555
Hf31 O52 2.073154 1_555
Hf31 O26 2.130748 1_455
Hf31 O21 2.131137 1_555
Hf31 O39 2.156799 1_555
Hf31 O28 2.493498 1_455
Hf32 O40 2.045454 1_555
Hf32 O46 2.074123 1_555
Hf32 O19 2.080736 1_556
Hf32 O38 2.104413 1_555
Hf32 O22 2.134475 1_555
Hf32 O29 2.225624 1_555
Hf33 O34 1.962216 1_455
Hf33 O23 1.999428 1_555
Hf33 O50 2.019146 1_545
Hf33 O29 2.105822 1_555
Hf33 O4 2.466544 1_555
Hf33 O59 2.756710 1_555
