# generated using pymatgen
data_Ce(Al10V)2
_symmetry_space_group_name_H-M   'P 1'
_cell_length_a   10.18575779
_cell_length_b   10.18573713
_cell_length_c   10.18574515
_cell_angle_alpha   60.00003256
_cell_angle_beta   59.99984683
_cell_angle_gamma   59.99998898
_symmetry_Int_Tables_number   1
_chemical_formula_structural   Ce(Al10V)2
_chemical_formula_sum   'Ce2 Al40 V4'
_cell_volume   747.24528671
_cell_formula_units_Z   2
loop_
 _symmetry_equiv_pos_site_id
 _symmetry_equiv_pos_as_xyz
  1  'x, y, z'
loop_
 _atom_site_type_symbol
 _atom_site_label
 _atom_site_symmetry_multiplicity
 _atom_site_fract_x
 _atom_site_fract_y
 _atom_site_fract_z
 _atom_site_occupancy
  Ce  Ce0  1  0.49999335  0.50000264  0.50000992  1
  Ce  Ce1  1  0.75000530  0.74999834  0.74999750  1
  Al  Al0  1  0.86264651  0.86265680  0.13734935  1
  Al  Al1  1  0.13734882  0.13734666  0.86263843  1
  Al  Al2  1  0.86265184  0.13734738  0.86265187  1
  Al  Al3  1  0.13735008  0.86265075  0.13734997  1
  Al  Al4  1  0.13735142  0.86266435  0.86263956  1
  Al  Al5  1  0.86263916  0.13734640  0.13734924  1
  Al  Al6  1  0.38740260  0.38740366  0.11259567  1
  Al  Al7  1  0.11259676  0.11259601  0.38740191  1
  Al  Al8  1  0.38740353  0.11259614  0.38740329  1
  Al  Al9  1  0.11259778  0.38740279  0.11259559  1
  Al  Al10  1  0.11259681  0.38740362  0.38740236  1
  Al  Al11  1  0.38740263  0.11259706  0.11259546  1
  Al  Al12  1  0.56829754  0.29957179  0.29957198  1
  Al  Al13  1  0.29957021  0.56829526  0.83256353  1
  Al  Al14  1  0.29957057  0.83255815  0.56829832  1
  Al  Al15  1  0.83256438  0.29957087  0.29957094  1
  Al  Al16  1  0.29957065  0.29957315  0.56829912  1
  Al  Al17  1  0.56829668  0.83256044  0.29957189  1
  Al  Al18  1  0.83256287  0.56829619  0.29957103  1
  Al  Al19  1  0.29956957  0.29957185  0.83256482  1
  Al  Al20  1  0.29956941  0.56829860  0.29957120  1
  Al  Al21  1  0.83255996  0.29957180  0.56829646  1
  Al  Al22  1  0.56829393  0.29957225  0.83256237  1
  Al  Al23  1  0.29956951  0.83256227  0.29957181  1
  Al  Al24  1  0.68175445  0.95041709  0.95041811  1
  Al  Al25  1  0.95041989  0.68175507  0.41740826  1
  Al  Al26  1  0.95041913  0.41741070  0.68175469  1
  Al  Al27  1  0.41740843  0.95041790  0.95041898  1
  Al  Al28  1  0.95041953  0.95041491  0.68175444  1
  Al  Al29  1  0.68175513  0.41741012  0.95041785  1
  Al  Al30  1  0.41740858  0.68175497  0.95041789  1
  Al  Al31  1  0.95042093  0.95041594  0.41740753  1
  Al  Al32  1  0.95042128  0.68175255  0.95041758  1
  Al  Al33  1  0.41741173  0.95041524  0.68175688  1
  Al  Al34  1  0.68175800  0.95041528  0.41740950  1
  Al  Al35  1  0.95042201  0.41740773  0.95041804  1
  Al  Al36  1  0.12500378  0.62499952  0.62500154  1
  Al  Al37  1  0.62499778  0.12500325  0.62500122  1
  Al  Al38  1  0.62499861  0.62500005  0.12500486  1
  Al  Al39  1  0.62499757  0.62499970  0.62500070  1
  V  V0  1  0.62499448  0.12500137  0.12500170  1
  V  V1  1  0.12500306  0.62499304  0.12500162  1
  V  V2  1  0.12500311  0.12500086  0.62499355  1
  V  V3  1  0.12500366  0.12500148  0.12500145  1
loop_
_geom_bond_atom_site_label_1
_geom_bond_atom_site_label_2
_geom_bond_distance
_geom_bond_site_symmetry_2
Al0 V0 2.552622 1_565
Al0 V1 2.552743 1_655
Al0 Al17 2.696628 1_555
Al0 Al18 2.696676 1_555
Al0 Al5 2.797878 1_565
Al0 Al2 2.797964 1_564
Al0 Al3 2.798036 1_655
Al0 Al4 2.798094 1_654
Al0 Al34 2.824577 1_555
Al0 Al24 2.824621 1_554
Al0 Al25 2.824649 1_555
Al0 Al32 2.824668 1_554
Al1 V2 2.552544 1_555
Al1 V3 2.552819 1_556
Al1 Al16 2.696581 1_555
Al1 Al19 2.696743 1_555
Al1 Al4 2.797823 1_545
Al1 Al2 2.797925 1_455
Al1 Al3 2.798062 1_546
Al1 Al5 2.798124 1_456
Al1 Al33 2.824559 1_545
Al1 Al26 2.824574 1_455
Al1 Al35 2.824690 1_455
Al1 Al27 2.824691 1_545
Al2 V0 2.552671 1_556
Al2 V2 2.552684 1_655
Al2 Al21 2.696664 1_555
Al2 Al22 2.696679 1_555
Al2 Al5 2.797928 1_556
Al2 Al4 2.797936 1_645
Al2 Al24 2.824631 1_545
Al2 Al29 2.824637 1_555
Al2 Al28 2.824642 1_545
Al2 Al26 2.824651 1_555
Al3 V3 2.552671 1_565
Al3 V1 2.552694 1_555
Al3 Al4 2.798054 1_554
Al3 Al5 2.798058 1_465
Al3 Al31 2.824588 1_455
Al3 Al30 2.824617 1_554
Al4 V2 2.552550 1_565
Al4 V1 2.552808 1_556
Al5 V0 2.552551 1_555
Al5 V3 2.552827 1_655
Al6 V1 2.552642 1_555
Al6 V0 2.552669 1_555
Al6 Al9 2.799100 1_555
Al6 Al8 2.799120 1_555
Al7 V3 2.552641 1_555
Al7 V2 2.552671 1_555
Al7 Al9 2.799110 1_555
Al7 Al8 2.799123 1_555
Al8 V2 2.552647 1_555
Al8 V0 2.552656 1_555
Al9 V3 2.552651 1_555
Al9 V1 2.552655 1_555
Al10 V1 2.552649 1_555
Al10 V2 2.552669 1_555
Al10 Al25 2.696306 1_455
Al10 Al26 2.696317 1_455
Al10 Al6 2.799102 1_555
Al10 Al9 2.799111 1_555
Al10 Al8 2.799115 1_555
Al10 Al7 2.799121 1_555
Al10 Al18 2.824730 1_455
Al10 Al20 2.824745 1_555
Al10 Al21 2.824751 1_455
Al10 Al16 2.824778 1_555
Al11 V3 2.552638 1_555
Al11 V0 2.552673 1_555
Al11 Al27 2.696292 1_544
Al11 Al24 2.696307 1_544
Al11 Al9 2.799097 1_555
Al11 Al7 2.799101 1_555
Al11 Al6 2.799109 1_555
Al11 Al8 2.799122 1_555
Al11 Al19 2.824709 1_554
Al11 Al22 2.824725 1_554
Al11 Al23 2.824739 1_545
Al11 Al17 2.824764 1_545
Al12 Al15 2.691748 1_555
Al12 Al5 2.696591 1_555
Al12 Al16 2.737180 1_555
Al12 Al20 2.737190 1_555
Al12 V0 2.786571 1_555
Al12 Al8 2.824762 1_555
Al12 Al6 2.824779 1_555
Al12 Al29 2.903897 1_554
Al12 Al34 2.903918 1_545
Al12 Al38 3.078338 1_555
Al12 Al37 3.078347 1_555
Al12 Ce0 3.185486 1_555
Al13 Al14 2.691727 1_555
Al13 Al4 2.696720 1_555
Al13 Al19 2.737143 1_555
Al13 Al22 2.737148 1_555
Al13 V1 2.786523 1_556
Al13 Al9 2.824713 1_556
Al13 Al6 2.824718 1_556
Al13 Al32 2.903856 1_455
Al13 Al30 2.903886 1_555
Al13 Al36 3.078323 1_555
Al13 Al39 3.078344 1_555
Al13 Ce0 3.185338 1_555
Al14 Al4 2.696586 1_555
Al14 Al23 2.737164 1_555
Al14 Al17 2.737173 1_555
Al14 V2 2.786554 1_565
Al14 Al8 2.824766 1_565
Al14 Al7 2.824767 1_565
Al14 Al28 2.903873 1_455
Al14 Al33 2.903923 1_555
Al14 Al36 3.078295 1_555
Al14 Al39 3.078337 1_555
Al14 Ce0 3.185338 1_555
Al15 Al5 2.696737 1_555
Al15 Al21 2.737152 1_555
Al15 Al18 2.737158 1_555
Al15 V3 2.786542 1_655
Al15 Al7 2.824715 1_655
Al15 Al9 2.824722 1_655
Al15 Al35 2.903886 1_554
Al15 Al31 2.903905 1_545
Al15 Al38 3.078359 1_555
Al15 Al37 3.078367 1_555
Al15 Ce0 3.185521 1_555
Al16 Al19 2.691731 1_555
Al16 Al20 2.737182 1_555
Al16 V2 2.786578 1_555
Al16 Al8 2.824780 1_555
Al16 Al26 2.903877 1_455
Al16 Al33 2.903930 1_545
Al16 Al36 3.078325 1_555
Al16 Al37 3.078338 1_555
Al16 Ce0 3.185410 1_555
Al17 Al18 2.691738 1_555
Al17 Al23 2.737181 1_555
Al17 V0 2.786552 1_565
Al17 Al8 2.824736 1_565
Al17 Al24 2.903894 1_554
Al17 Al34 2.903897 1_555
Al17 Al38 3.078316 1_555
Al17 Al39 3.078346 1_555
Al17 Ce0 3.185425 1_555
Al18 Al21 2.737164 1_555
Al18 V1 2.786541 1_655
Al18 Al9 2.824741 1_655
Al18 Al32 2.903891 1_554
Al18 Al25 2.903892 1_555
Al18 Al38 3.078343 1_555
Al18 Al39 3.078357 1_555
Al18 Ce0 3.185484 1_555
Al19 Al22 2.737151 1_555
Al19 V3 2.786521 1_556
Al19 Al9 2.824690 1_556
Al19 Al35 2.903844 1_455
Al19 Al27 2.903897 1_545
Al19 Al36 3.078340 1_555
Al19 Al37 3.078347 1_555
Al19 Ce0 3.185382 1_555
Al20 Al23 2.691724 1_555
Al20 Al3 2.696623 1_555
Al20 V1 2.786548 1_555
Al20 Al6 2.824759 1_555
Al20 Al25 2.903861 1_455
Al20 Al30 2.903890 1_554
Al20 Al38 3.078350 1_555
Al20 Al36 3.078353 1_555
Al20 Ce0 3.185477 1_555
Al21 Al22 2.691741 1_555
Al21 V2 2.786574 1_655
Al21 Al7 2.824755 1_655
Al21 Al26 2.903919 1_555
Al21 Al28 2.903921 1_545
Al21 Al37 3.078335 1_555
Al21 Al39 3.078346 1_555
Al21 Ce0 3.185435 1_555
Al22 V0 2.786554 1_556
Al22 Al6 2.824714 1_556
Al22 Al29 2.903904 1_555
Al22 Al24 2.903907 1_545
Al22 Al37 3.078330 1_555
Al22 Al39 3.078341 1_555
Al22 Ce0 3.185371 1_555
Al23 Al3 2.696631 1_555
Al23 V3 2.786538 1_565
Al23 Al7 2.824713 1_565
Al23 Al31 2.903852 1_455
Al23 Al27 2.903886 1_554
Al23 Al38 3.078339 1_555
Al23 Al36 3.078340 1_555
Al23 Ce0 3.185442 1_555
Al24 Al27 2.692556 1_555
Al24 Al28 2.736542 1_555
Al24 Al32 2.736560 1_555
Al24 V0 2.786531 1_566
Al24 Al38 3.078470 1_556
Al24 Al37 3.078477 1_565
Al24 Ce1 3.185460 1_555
Al25 Al26 2.692555 1_555
Al25 Al31 2.736511 1_555
Al25 Al34 2.736513 1_555
Al25 V1 2.786527 1_655
Al25 Al3 2.824609 1_655
Al25 Al39 3.078516 1_555
Al25 Al36 3.078518 1_655
Al25 Ce1 3.185431 1_555
Al26 Al29 2.736534 1_555
Al26 Al35 2.736536 1_555
Al26 V2 2.786552 1_655
Al26 Al36 3.078491 1_655
Al26 Al39 3.078509 1_555
Al26 Ce1 3.185417 1_555
Al27 Al33 2.736520 1_555
Al27 Al30 2.736535 1_555
Al27 V3 2.786508 1_566
Al27 Al3 2.824608 1_556
Al27 Al37 3.078481 1_565
Al27 Al38 3.078494 1_556
Al27 Ce1 3.185502 1_555
Al28 Al31 2.692558 1_555
Al28 Al7 2.696315 1_665
Al28 Al32 2.736531 1_555
Al28 V2 2.786544 1_665
Al28 Al4 2.824602 1_655
Al28 Al36 3.078442 1_655
Al28 Al37 3.078507 1_565
Al28 Ce1 3.185423 1_555
Al29 Al30 2.692558 1_555
Al29 Al6 2.696320 1_556
Al29 Al35 2.736565 1_555
Al29 V0 2.786543 1_556
Al29 Al5 2.824583 1_556
Al29 Al39 3.078484 1_555
Al29 Al38 3.078502 1_556
Al29 Ce1 3.185456 1_555
Al30 Al6 2.696307 1_556
Al30 Al33 2.736509 1_555
Al30 V1 2.786520 1_556
Al30 Al4 2.824660 1_555
Al30 Al39 3.078467 1_555
Al30 Al38 3.078518 1_556
Al30 Ce1 3.185501 1_555
Al31 Al7 2.696298 1_665
Al31 Al34 2.736529 1_555
Al31 V3 2.786525 1_665
Al31 Al5 2.824685 1_565
Al31 Al36 3.078492 1_655
Al31 Al37 3.078531 1_565
Al31 Ce1 3.185440 1_555
Al32 Al35 2.692541 1_555
Al32 Al9 2.696292 1_656
Al32 V1 2.786523 1_656
Al32 Al4 2.824710 1_655
Al32 Al36 3.078448 1_655
Al32 Al38 3.078507 1_556
Al32 Ce1 3.185462 1_555
Al33 Al34 2.692565 1_555
Al33 Al8 2.696338 1_565
Al33 V2 2.786559 1_565
Al33 Al4 2.824545 1_555
Al33 Al39 3.078457 1_555
Al33 Al37 3.078483 1_565
Al33 Ce1 3.185468 1_555
Al34 Al8 2.696341 1_565
Al34 V0 2.786551 1_565
Al34 Al5 2.824549 1_565
Al34 Al39 3.078479 1_555
Al34 Al37 3.078510 1_565
Al34 Ce1 3.185447 1_555
Al35 Al9 2.696283 1_656
Al35 V3 2.786518 1_656
Al35 Al5 2.824711 1_556
Al35 Al36 3.078472 1_655
Al35 Al38 3.078524 1_556
Al35 Ce1 3.185467 1_555
Al36 Ce0 3.118648 1_555
Al36 Ce1 3.118722 1_455
Al37 Ce0 3.118729 1_555
Al37 Ce1 3.118775 1_545
Al38 Ce0 3.118774 1_555
Al38 Ce1 3.118793 1_554
Al39 Ce0 3.118670 1_555
Al39 Ce1 3.118763 1_555
