# generated using pymatgen
data_MgSi
_symmetry_space_group_name_H-M   'P 1'
_cell_length_a   5.12922048
_cell_length_b   5.12922048
_cell_length_c   12.48383939
_cell_angle_alpha   75.08391478
_cell_angle_beta   75.08391478
_cell_angle_gamma   43.35307680
_symmetry_Int_Tables_number   1
_chemical_formula_structural   MgSi
_chemical_formula_sum   'Mg6 Si6'
_cell_volume   216.64675963
_cell_formula_units_Z   6
loop_
 _symmetry_equiv_pos_site_id
 _symmetry_equiv_pos_as_xyz
  1  'x, y, z'
loop_
 _atom_site_type_symbol
 _atom_site_label
 _atom_site_symmetry_multiplicity
 _atom_site_fract_x
 _atom_site_fract_y
 _atom_site_fract_z
 _atom_site_occupancy
  Mg  Mg0  1  0.99493900  0.99493900  0.12128200  1
  Mg  Mg1  1  0.91237900  0.91237900  0.78780700  1
  Mg  Mg2  1  0.40225200  0.40225200  0.59208000  1
  Mg  Mg3  1  0.75991000  0.75991000  0.41110100  1
  Mg  Mg4  1  0.45572700  0.45572700  0.95228400  1
  Mg  Mg5  1  0.24293600  0.24293600  0.20873600  1
  Si  Si0  1  0.50348100  0.50348100  0.29475200  1
  Si  Si1  1  0.65407000  0.65407000  0.72099400  1
  Si  Si2  1  0.72230300  0.72230300  0.02124500  1
  Si  Si3  1  0.18867000  0.18867000  0.88119600  1
  Si  Si4  1  0.03932600  0.03932600  0.41860900  1
  Si  Si5  1  0.12334100  0.12334100  0.59001300  1
loop_
_geom_bond_atom_site_label_1
_geom_bond_atom_site_label_2
_geom_bond_distance
_geom_bond_site_symmetry_2
Mg0 Mg5 2.865495 1_665
Mg0 Si2 2.889175 1_655
Mg0 Si2 2.889175 1_565
Mg0 Si0 2.895408 1_565
Mg0 Si0 2.895408 1_655
Mg0 Mg4 2.935474 1_654
Mg0 Mg4 2.935474 1_564
Mg0 Mg5 3.016552 1_655
Mg0 Mg5 3.016552 1_565
Mg0 Si3 3.054096 1_664
Mg0 Si2 3.180054 1_555
Mg1 Si5 2.718567 1_665
Mg1 Si1 2.810201 1_555
Mg1 Si3 2.849431 1_565
Mg1 Si3 2.849431 1_655
Mg1 Mg4 2.906242 1_565
Mg1 Mg4 2.906242 1_655
Mg1 Si1 2.920452 1_565
Mg1 Si1 2.920452 1_655
Mg1 Si2 2.974992 1_556
Mg1 Mg2 3.114432 1_565
Mg1 Mg2 3.114432 1_655
Mg1 Si3 3.161911 1_665
Mg2 Si5 2.666122 1_555
Mg2 Si5 2.828790 1_565
Mg2 Si5 2.828790 1_655
Mg2 Si4 2.901547 1_565
Mg2 Si4 2.901547 1_655
Mg2 Si1 3.109274 1_545
Mg2 Si1 3.109274 1_455
Mg2 Si1 3.239292 1_555
Mg3 Si4 2.691143 1_665
Mg3 Si4 2.812622 1_565
Mg3 Si4 2.812622 1_655
Mg3 Si5 2.943129 1_565
Mg3 Si5 2.943129 1_655
Mg3 Si0 3.036809 1_565
Mg3 Si0 3.036809 1_655
Mg3 Si0 3.170564 1_555
Mg4 Si3 2.866436 1_655
Mg4 Si3 2.866436 1_565
Mg4 Si2 2.867211 1_456
Mg4 Si2 2.867211 1_546
Mg4 Si2 2.900205 1_556
Mg4 Si3 2.919003 1_555
Mg4 Si1 2.981221 1_555
Mg5 Si4 2.795490 1_555
Mg5 Si0 2.931780 1_545
Mg5 Si0 2.931780 1_455
Mg5 Si0 2.966437 1_555
Mg5 Si2 3.059663 1_545
Mg5 Si2 3.059663 1_455
Si0 Si4 2.527765 1_565
Si0 Si4 2.527765 1_655
Si1 Si5 2.571815 1_565
Si1 Si5 2.571815 1_655
Si1 Si3 2.839603 1_565
Si1 Si3 2.839603 1_655
Si2 Si3 2.656958 1_654
Si2 Si3 2.656958 1_564
Si4 Si5 2.483854 1_555
