# generated using pymatgen
data_Tb5Rh3
_symmetry_space_group_name_H-M   'P 1'
_cell_length_a   8.20340102
_cell_length_b   8.20336907
_cell_length_c   6.36113853
_cell_angle_alpha   90.00000000
_cell_angle_beta   90.00000000
_cell_angle_gamma   120.00070499
_symmetry_Int_Tables_number   1
_chemical_formula_structural   Tb5Rh3
_chemical_formula_sum   'Tb10 Rh6'
_cell_volume   370.72219962
_cell_formula_units_Z   2
loop_
 _symmetry_equiv_pos_site_id
 _symmetry_equiv_pos_as_xyz
  1  'x, y, z'
loop_
 _atom_site_type_symbol
 _atom_site_label
 _atom_site_symmetry_multiplicity
 _atom_site_fract_x
 _atom_site_fract_y
 _atom_site_fract_z
 _atom_site_occupancy
  Tb  Tb0  1  0.66667295  0.33336533  0.00000251  1
  Tb  Tb1  1  0.33332831  0.66664047  0.00000254  1
  Tb  Tb2  1  0.33332831  0.66664047  0.49999746  1
  Tb  Tb3  1  0.66667295  0.33336533  0.49999749  1
  Tb  Tb4  1  0.75096585  0.75092515  0.75000000  1
  Tb  Tb5  1  0.24900144  0.00001303  0.75000000  1
  Tb  Tb6  1  0.00005384  0.24906135  0.75000000  1
  Tb  Tb7  1  0.24904012  0.24907155  0.25000000  1
  Tb  Tb8  1  0.75099120  -0.00002583  0.25000000  1
  Tb  Tb9  1  -0.00005736  0.75093740  0.25000000  1
  Rh  Rh0  1  0.39799948  0.39798975  0.75000000  1
  Rh  Rh1  1  0.60200233  0.00000534  0.75000000  1
  Rh  Rh2  1  0.00001515  0.60201381  0.75000000  1
  Rh  Rh3  1  0.60200485  0.60201371  0.25000000  1
  Rh  Rh4  1  0.39799450  0.99999271  0.25000000  1
  Rh  Rh5  1  0.99998408  0.39799242  0.25000000  1
loop_
_geom_bond_atom_site_label_1
_geom_bond_atom_site_label_2
_geom_bond_distance
_geom_bond_site_symmetry_2
Tb0 Tb3 3.180537 1_555
Tb0 Tb3 3.180601 1_554
Tb0 Tb4 3.517369 1_554
Tb0 Tb9 3.517403 1_655
Tb0 Tb7 3.517890 1_555
Tb0 Tb5 3.518096 1_554
Tb0 Tb6 3.518264 1_654
Tb0 Tb8 3.518384 1_555
Tb1 Tb2 3.180537 1_555
Tb1 Tb2 3.180602 1_554
Tb1 Tb7 3.517431 1_555
Tb1 Tb6 3.517463 1_554
Tb1 Tb4 3.517960 1_554
Tb1 Tb8 3.517996 1_565
Tb1 Tb9 3.518250 1_555
Tb1 Tb5 3.518306 1_564
Tb2 Tb7 3.517431 1_555
Tb2 Tb6 3.517463 1_555
Tb2 Tb4 3.517960 1_555
Tb2 Tb8 3.517996 1_565
Tb2 Tb9 3.518250 1_555
Tb2 Tb5 3.518306 1_565
Tb3 Tb4 3.517369 1_555
Tb3 Tb9 3.517403 1_655
Tb3 Tb7 3.517890 1_555
Tb3 Tb5 3.518096 1_555
Tb3 Tb6 3.518264 1_655
Tb3 Tb8 3.518384 1_555
Rh0 Tb6 2.856784 1_555
Rh0 Tb5 2.856926 1_555
Rh0 Tb4 2.895361 1_555
Rh0 Tb3 2.972599 1_555
Rh0 Tb0 2.972599 1_556
Rh0 Tb2 2.972649 1_555
Rh0 Tb1 2.972649 1_556
Rh0 Tb7 3.407167 1_556
Rh0 Tb7 3.407167 1_555
Rh1 Tb6 2.857500 1_655
Rh1 Tb4 2.857506 1_545
Rh1 Tb5 2.895839 1_555
Rh1 Tb2 2.972872 1_545
Rh1 Tb1 2.972872 1_546
Rh1 Tb3 2.972899 1_555
Rh1 Tb0 2.972899 1_556
Rh1 Tb8 3.407366 1_556
Rh1 Tb8 3.407366 1_555
Rh2 Tb4 2.856938 1_455
Rh2 Tb5 2.857072 1_565
Rh2 Tb6 2.895558 1_555
Rh2 Tb2 2.972691 1_555
Rh2 Tb1 2.972691 1_556
Rh2 Tb0 2.972714 1_456
Rh2 Tb3 2.972714 1_455
Rh2 Tb9 3.407233 1_555
Rh2 Tb9 3.407233 1_556
Rh3 Tb9 2.856730 1_655
Rh3 Tb8 2.856816 1_565
Rh3 Tb7 2.895382 1_555
Rh3 Tb0 2.972602 1_555
Rh3 Tb3 2.972602 1_555
Rh3 Tb2 2.972613 1_555
Rh3 Tb1 2.972613 1_555
Rh3 Tb4 3.407160 1_554
Rh3 Tb4 3.407160 1_555
Rh4 Tb7 2.857437 1_565
Rh4 Tb9 2.857501 1_555
Rh4 Tb8 2.895850 1_565
Rh4 Tb1 2.972839 1_555
Rh4 Tb2 2.972839 1_555
Rh4 Tb3 2.972900 1_565
Rh4 Tb0 2.972900 1_565
Rh4 Tb5 3.407363 1_565
Rh4 Tb5 3.407363 1_564
Rh5 Tb7 2.857051 1_655
Rh5 Tb8 2.857202 1_555
Rh5 Tb9 2.895508 1_655
Rh5 Tb0 2.972659 1_555
Rh5 Tb3 2.972659 1_555
Rh5 Tb2 2.972705 1_655
Rh5 Tb1 2.972705 1_655
Rh5 Tb6 3.407251 1_655
Rh5 Tb6 3.407251 1_654
