# generated using pymatgen
data_Dy(CoB)4
_symmetry_space_group_name_H-M   'P 1'
_cell_length_a   5.00192500
_cell_length_b   5.00192500
_cell_length_c   6.98040600
_cell_angle_alpha   90.00000000
_cell_angle_beta   90.00000000
_cell_angle_gamma   90.00000000
_symmetry_Int_Tables_number   1
_chemical_formula_structural   Dy(CoB)4
_chemical_formula_sum   'Dy2 Co8 B8'
_cell_volume   174.64454868
_cell_formula_units_Z   2
loop_
 _symmetry_equiv_pos_site_id
 _symmetry_equiv_pos_as_xyz
  1  'x, y, z'
loop_
 _atom_site_type_symbol
 _atom_site_label
 _atom_site_symmetry_multiplicity
 _atom_site_fract_x
 _atom_site_fract_y
 _atom_site_fract_z
 _atom_site_occupancy
  Dy  Dy0  1  0.75000000  0.25000000  0.25000000  1
  Dy  Dy1  1  0.25000000  0.75000000  0.75000000  1
  Co  Co0  1  0.00414800  0.75000000  0.11228800  1
  Co  Co1  1  0.49585200  0.75000000  0.11228800  1
  Co  Co2  1  0.75000000  0.00414800  0.61228800  1
  Co  Co3  1  0.75000000  0.49585200  0.61228800  1
  Co  Co4  1  0.99585200  0.25000000  0.88771200  1
  Co  Co5  1  0.50414800  0.25000000  0.88771200  1
  Co  Co6  1  0.25000000  0.99585200  0.38771200  1
  Co  Co7  1  0.25000000  0.50414800  0.38771200  1
  B  B0  1  0.57536200  0.75000000  0.40729300  1
  B  B1  1  0.92463800  0.75000000  0.40729300  1
  B  B2  1  0.75000000  0.57536200  0.90729300  1
  B  B3  1  0.75000000  0.92463800  0.90729300  1
  B  B4  1  0.42463800  0.25000000  0.59270700  1
  B  B5  1  0.07536200  0.25000000  0.59270700  1
  B  B6  1  0.25000000  0.42463800  0.09270700  1
  B  B7  1  0.25000000  0.07536200  0.09270700  1
loop_
_geom_bond_atom_site_label_1
_geom_bond_atom_site_label_2
_geom_bond_distance
_geom_bond_site_symmetry_2
Co0 Dy1 2.812057 1_554
Co0 Dy0 2.965621 1_465
Co0 Dy0 2.965621 1_455
Co1 Dy1 2.812057 1_554
Co1 Dy0 2.965621 1_565
Co1 Dy0 2.965621 1_555
Co2 Dy0 2.812057 1_555
Co2 Dy1 2.965621 1_545
Co2 Dy1 2.965621 1_645
Co3 Dy0 2.812057 1_555
Co3 Dy1 2.965621 1_555
Co3 Dy1 2.965621 1_655
Co4 Dy0 2.812057 1_556
Co4 Dy1 2.965621 1_655
Co4 Dy1 2.965621 1_645
Co5 Dy0 2.812057 1_556
Co5 Dy1 2.965621 1_555
Co5 Dy1 2.965621 1_545
Co6 Dy1 2.812057 1_555
Co6 Dy0 2.965621 1_565
Co6 Dy0 2.965621 1_465
Co7 Dy1 2.812057 1_555
Co7 Dy0 2.965621 1_555
Co7 Dy0 2.965621 1_455
B0 B1 1.747052 1_555
B0 Co6 2.044376 1_555
B0 Co7 2.044376 1_555
B0 Co1 2.097307 1_555
B0 Co3 2.103969 1_555
B0 Co2 2.103969 1_565
B0 Dy0 2.867647 1_555
B0 Dy0 2.867647 1_565
B0 Dy1 2.893326 1_555
B1 Co6 2.044376 1_655
B1 Co7 2.044376 1_655
B1 Co0 2.097307 1_655
B1 Co3 2.103969 1_555
B1 Co2 2.103969 1_565
B1 Dy0 2.867647 1_555
B1 Dy0 2.867647 1_565
B1 Dy1 2.893326 1_655
B2 B3 1.747052 1_555
B2 Co4 2.044376 1_555
B2 Co5 2.044376 1_555
B2 Co3 2.097307 1_555
B2 Co1 2.103969 1_556
B2 Co0 2.103969 1_656
B2 Dy1 2.867647 1_655
B2 Dy1 2.867647 1_555
B2 Dy0 2.893326 1_556
B3 Co5 2.044376 1_565
B3 Co4 2.044376 1_565
B3 Co2 2.097307 1_565
B3 Co1 2.103969 1_556
B3 Co0 2.103969 1_656
B3 Dy1 2.867647 1_655
B3 Dy1 2.867647 1_555
B3 Dy0 2.893326 1_566
B4 B5 1.747052 1_555
B4 Co2 2.044376 1_555
B4 Co3 2.044376 1_555
B4 Co5 2.097307 1_555
B4 Co6 2.103969 1_545
B4 Co7 2.103969 1_555
B4 Dy1 2.867647 1_545
B4 Dy1 2.867647 1_555
B4 Dy0 2.893326 1_555
B5 Co2 2.044376 1_455
B5 Co3 2.044376 1_455
B5 Co4 2.097307 1_455
B5 Co6 2.103969 1_545
B5 Co7 2.103969 1_555
B5 Dy1 2.867647 1_545
B5 Dy1 2.867647 1_555
B5 Dy0 2.893326 1_455
B6 B7 1.747052 1_555
B6 Co0 2.044376 1_555
B6 Co1 2.044376 1_555
B6 Co7 2.097307 1_555
B6 Co4 2.103969 1_454
B6 Co5 2.103969 1_554
B6 Dy0 2.867647 1_455
B6 Dy0 2.867647 1_555
B6 Dy1 2.893326 1_554
B7 Co1 2.044376 1_545
B7 Co0 2.044376 1_545
B7 Co6 2.097307 1_545
B7 Co4 2.103969 1_454
B7 Co5 2.103969 1_554
B7 Dy0 2.867647 1_455
B7 Dy0 2.867647 1_555
B7 Dy1 2.893326 1_544
