# generated using pymatgen
data_Nb2VFeSe10
_symmetry_space_group_name_H-M   'P 1'
_cell_length_a   3.49472600
_cell_length_b   9.36330600
_cell_length_c   10.10535512
_cell_angle_alpha   67.03411812
_cell_angle_beta   90.00000000
_cell_angle_gamma   90.00000000
_symmetry_Int_Tables_number   1
_chemical_formula_structural   Nb2VFeSe10
_chemical_formula_sum   'Nb2 V1 Fe1 Se10'
_cell_volume   304.45961474
_cell_formula_units_Z   1
loop_
 _symmetry_equiv_pos_site_id
 _symmetry_equiv_pos_as_xyz
  1  'x, y, z'
loop_
 _atom_site_type_symbol
 _atom_site_label
 _atom_site_symmetry_multiplicity
 _atom_site_fract_x
 _atom_site_fract_y
 _atom_site_fract_z
 _atom_site_occupancy
  Nb  Nb0  1  0.00000000  0.27546600  0.63452900  1
  Nb  Nb1  1  0.50000000  0.72339000  0.36187400  1
  V  V0  1  0.50000000  0.45230900  0.91388200  1
  Fe  Fe0  1  0.00000000  0.55014100  0.09760300  1
  Se  Se0  1  0.50000000  0.04262200  0.75713000  1
  Se  Se1  1  0.00000000  0.95706000  0.24018000  1
  Se  Se2  1  0.00000000  0.65493500  0.84479600  1
  Se  Se3  1  0.50000000  0.35762100  0.16357000  1
  Se  Se4  1  0.50000000  0.16184000  0.50164200  1
  Se  Se5  1  0.00000000  0.83653600  0.49518500  1
  Se  Se6  1  0.50000000  0.48840700  0.63615400  1
  Se  Se7  1  0.00000000  0.51443400  0.35327300  1
  Se  Se8  1  0.00000000  0.24926000  0.91263300  1
  Se  Se9  1  0.50000000  0.73598000  0.08754900  1
loop_
_geom_bond_atom_site_label_1
_geom_bond_atom_site_label_2
_geom_bond_distance
_geom_bond_site_symmetry_2
Nb0 Se6 2.656024 1_555
Nb0 Se6 2.656024 1_455
Nb0 Se4 2.665221 1_455
Nb0 Se4 2.665221 1_555
Nb0 Se0 2.689535 1_455
Nb0 Se0 2.689535 1_555
Nb0 Se8 2.723984 1_555
Nb0 Se7 2.849889 1_555
Nb1 Se7 2.649812 1_555
Nb1 Se7 2.649812 1_655
Nb1 Se5 2.665374 1_555
Nb1 Se5 2.665374 1_655
Nb1 Se1 2.693126 1_555
Nb1 Se1 2.693126 1_655
Nb1 Se9 2.728315 1_555
Nb1 Se6 2.786454 1_555
Fe0 Se2 2.352264 1_554
Fe0 Se3 2.410264 1_455
Fe0 Se3 2.410264 1_555
Fe0 Se9 2.439974 1_555
Fe0 Se9 2.439974 1_455
Fe0 Se7 2.472423 1_555
Se0 Se4 2.379650 1_555
Se1 Se5 2.375851 1_555
Se2 V0 2.471154 1_455
Se2 V0 2.471154 1_555
Se3 V0 2.325254 1_554
Se6 V0 2.692704 1_555
Se8 V0 2.585877 1_555
Se8 V0 2.585877 1_455
