# generated using pymatgen
data_Ni5P2
_symmetry_space_group_name_H-M   'P 1'
_cell_length_a   6.54744997
_cell_length_b   6.54733668
_cell_length_c   12.23960100
_cell_angle_alpha   90.00000000
_cell_angle_beta   90.00000000
_cell_angle_gamma   120.00057929
_symmetry_Int_Tables_number   1
_chemical_formula_structural   Ni5P2
_chemical_formula_sum   'Ni30 P12'
_cell_volume   454.39361483
_cell_formula_units_Z   6
loop_
 _symmetry_equiv_pos_site_id
 _symmetry_equiv_pos_as_xyz
  1  'x, y, z'
loop_
 _atom_site_type_symbol
 _atom_site_label
 _atom_site_symmetry_multiplicity
 _atom_site_fract_x
 _atom_site_fract_y
 _atom_site_fract_z
 _atom_site_occupancy
  Ni  Ni0  1  0.99999100  0.00000000  0.57453300  1
  Ni  Ni1  1  0.00000900  0.00000000  0.07453300  1
  Ni  Ni2  1  0.66665100  0.33331500  0.43687100  1
  Ni  Ni3  1  0.33333600  0.66668500  0.43687100  1
  Ni  Ni4  1  0.33334900  0.66668500  0.93687100  1
  Ni  Ni5  1  0.66666400  0.33331500  0.93687100  1
  Ni  Ni6  1  0.76489900  0.00000000  0.40378300  1
  Ni  Ni7  1  0.23513800  0.23513400  0.40377800  1
  Ni  Ni8  1  0.00000400  0.76486600  0.40377800  1
  Ni  Ni9  1  0.23510100  0.00000000  0.90378300  1
  Ni  Ni10  1  0.76486200  0.76486600  0.90377800  1
  Ni  Ni11  1  0.99999600  0.23513400  0.90377800  1
  Ni  Ni12  1  0.38254700  0.00000000  0.30500900  1
  Ni  Ni13  1  0.61746000  0.61746300  0.30501400  1
  Ni  Ni14  1  0.99999700  0.38253700  0.30501400  1
  Ni  Ni15  1  0.61745300  0.00000000  0.80500900  1
  Ni  Ni16  1  0.38254000  0.38253700  0.80501400  1
  Ni  Ni17  1  0.00000300  0.61746300  0.80501400  1
  Ni  Ni18  1  0.69388000  0.00000000  0.19603500  1
  Ni  Ni19  1  0.30613000  0.30613000  0.19604000  1
  Ni  Ni20  1  0.00000000  0.69387000  0.19604000  1
  Ni  Ni21  1  0.30612000  0.00000000  0.69603500  1
  Ni  Ni22  1  0.69387000  0.69387000  0.69604000  1
  Ni  Ni23  1  0.00000000  0.30613000  0.69604000  1
  Ni  Ni24  1  0.38494000  0.00000000  0.08821400  1
  Ni  Ni25  1  0.61512000  0.61503900  0.08822100  1
  Ni  Ni26  1  0.00008100  0.38496100  0.08822100  1
  Ni  Ni27  1  0.61506000  0.00000000  0.58821400  1
  Ni  Ni28  1  0.38488000  0.38496100  0.58822100  1
  Ni  Ni29  1  0.99991900  0.61503900  0.58822100  1
  P  P0  1  0.00000800  0.00000000  0.26850900  1
  P  P1  1  0.99999200  0.00000000  0.76850900  1
  P  P2  1  0.66667000  0.33333100  0.23204700  1
  P  P3  1  0.33333900  0.66666900  0.23204700  1
  P  P4  1  0.33333000  0.66666900  0.73204700  1
  P  P5  1  0.66666100  0.33333100  0.73204700  1
  P  P6  1  0.32481900  0.00000000  0.50232400  1
  P  P7  1  0.67515900  0.67515700  0.50232600  1
  P  P8  1  0.00000200  0.32484300  0.50232600  1
  P  P9  1  0.67518100  0.00000000  0.00232400  1
  P  P10  1  0.32484100  0.32484300  0.00232600  1
  P  P11  1  0.99999800  0.67515700  0.00232600  1
loop_
_geom_bond_atom_site_label_1
_geom_bond_atom_site_label_2
_geom_bond_distance
_geom_bond_site_symmetry_2
Ni0 P6 2.303123 1_655
Ni0 P7 2.303137 1_545
Ni0 P8 2.303137 1_655
Ni0 P1 2.374189 1_555
Ni1 P9 2.303123 1_455
Ni1 P10 2.303137 1_555
Ni1 P11 2.303137 1_445
Ni1 P0 2.374189 1_555
Ni2 P6 2.351413 1_555
Ni2 P7 2.351508 1_555
Ni2 P8 2.351534 1_655
Ni2 P2 2.506964 1_555
Ni3 P6 2.351413 1_565
Ni3 P8 2.351508 1_555
Ni3 P7 2.351534 1_555
Ni3 P3 2.506964 1_555
Ni4 P9 2.351413 1_566
Ni4 P10 2.351508 1_556
Ni4 P11 2.351534 1_456
Ni4 P4 2.506964 1_555
Ni5 P9 2.351413 1_556
Ni5 P11 2.351508 1_556
Ni5 P10 2.351534 1_556
Ni5 P5 2.506964 1_555
Ni6 P8 2.252510 1_655
Ni6 P7 2.252510 1_545
Ni6 P0 2.260749 1_655
Ni7 P6 2.252479 1_555
Ni7 P8 2.252629 1_555
Ni7 P0 2.260788 1_555
Ni8 P6 2.252479 1_565
Ni8 P7 2.252629 1_455
Ni8 P0 2.260788 1_565
Ni9 P11 2.252510 1_446
Ni9 P10 2.252510 1_556
Ni9 P1 2.260749 1_455
Ni10 P9 2.252479 1_566
Ni10 P11 2.252629 1_556
Ni10 P1 2.260788 1_565
Ni10 Ni17 2.499768 1_655
Ni10 Ni15 2.499778 1_565
Ni10 Ni16 2.779812 1_555
Ni11 P9 2.252479 1_556
Ni11 P10 2.252629 1_656
Ni11 P1 2.260788 1_555
Ni11 Ni16 2.499768 1_655
Ni11 Ni15 2.499777 1_555
Ni11 Ni17 2.779812 1_655
Ni12 P2 2.227361 1_555
Ni12 P3 2.227361 1_545
Ni12 Ni18 2.436030 1_555
Ni12 P6 2.444455 1_555
Ni12 Ni8 2.499777 1_545
Ni12 Ni7 2.499778 1_555
Ni12 P0 2.544185 1_555
Ni12 Ni2 2.601535 1_555
Ni12 Ni3 2.601535 1_545
Ni12 Ni24 2.653531 1_555
Ni12 Ni20 2.655073 1_545
Ni12 Ni19 2.655073 1_555
Ni12 Ni6 2.780060 1_555
Ni13 P3 2.227403 1_555
Ni13 P2 2.227457 1_555
Ni13 Ni19 2.435993 1_555
Ni13 P7 2.444386 1_555
Ni13 Ni6 2.499696 1_565
Ni13 Ni8 2.499768 1_655
Ni13 P0 2.544176 1_665
Ni13 Ni3 2.601665 1_555
Ni13 Ni2 2.601667 1_555
Ni13 Ni25 2.653506 1_555
Ni13 Ni18 2.655059 1_565
Ni13 Ni20 2.655108 1_655
Ni13 Ni7 2.779812 1_555
Ni14 P2 2.227403 1_555
Ni14 P3 2.227457 1_655
Ni14 Ni20 2.435993 1_655
Ni14 P8 2.444386 1_655
Ni14 Ni6 2.499696 1_555
Ni14 Ni7 2.499768 1_655
Ni14 P0 2.544176 1_655
Ni14 Ni2 2.601665 1_555
Ni14 Ni3 2.601667 1_655
Ni14 Ni26 2.653506 1_655
Ni14 Ni18 2.655059 1_555
Ni14 Ni19 2.655108 1_655
Ni14 Ni8 2.779812 1_655
Ni15 P4 2.227361 1_545
Ni15 P5 2.227361 1_555
Ni15 Ni21 2.436030 1_555
Ni15 P9 2.444455 1_556
Ni15 P1 2.544185 1_555
Ni15 Ni4 2.601535 1_545
Ni15 Ni5 2.601535 1_555
Ni15 Ni27 2.653531 1_555
Ni15 Ni23 2.655073 1_655
Ni15 Ni22 2.655073 1_545
Ni15 Ni9 2.780060 1_555
Ni16 P5 2.227403 1_555
Ni16 P4 2.227457 1_555
Ni16 Ni22 2.435993 1_555
Ni16 P10 2.444386 1_556
Ni16 Ni9 2.499696 1_555
Ni16 P1 2.544176 1_455
Ni16 Ni5 2.601665 1_555
Ni16 Ni4 2.601667 1_555
Ni16 Ni28 2.653506 1_555
Ni16 Ni21 2.655059 1_555
Ni16 Ni23 2.655108 1_555
Ni17 P4 2.227403 1_555
Ni17 P5 2.227457 1_455
Ni17 Ni23 2.435993 1_555
Ni17 P11 2.444386 1_456
Ni17 Ni9 2.499696 1_565
Ni17 P1 2.544176 1_465
Ni17 Ni4 2.601665 1_555
Ni17 Ni5 2.601667 1_455
Ni17 Ni29 2.653506 1_455
Ni17 Ni21 2.655059 1_565
Ni17 Ni22 2.655108 1_455
Ni18 P0 2.191874 1_655
Ni18 P3 2.319017 1_545
Ni18 P2 2.319017 1_555
Ni18 P9 2.374104 1_555
Ni19 P0 2.191806 1_555
Ni19 P3 2.318990 1_555
Ni19 P2 2.319060 1_555
Ni19 P10 2.374145 1_555
Ni20 P0 2.191806 1_565
Ni20 P2 2.318990 1_455
Ni20 P3 2.319060 1_555
Ni20 P11 2.374145 1_455
Ni21 P1 2.191874 1_455
Ni21 P5 2.319017 1_555
Ni21 P4 2.319017 1_545
Ni21 P6 2.374104 1_555
Ni22 P1 2.191806 1_565
Ni22 P5 2.318990 1_555
Ni22 P4 2.319060 1_555
Ni22 P7 2.374145 1_555
Ni23 P1 2.191806 1_455
Ni23 P4 2.318990 1_555
Ni23 P5 2.319060 1_455
Ni23 P8 2.374145 1_555
Ni24 P9 2.171735 1_555
Ni24 P11 2.573009 1_445
Ni24 P10 2.573009 1_555
Ni24 P2 2.690540 1_555
Ni24 P3 2.690540 1_545
Ni25 P10 2.171716 1_555
Ni25 P11 2.572653 1_555
Ni25 P9 2.573238 1_565
Ni25 P2 2.690228 1_555
Ni25 P3 2.690853 1_555
Ni26 P11 2.171716 1_455
Ni26 P10 2.572653 1_555
Ni26 P9 2.573237 1_455
Ni26 P3 2.690228 1_555
Ni26 P2 2.690852 1_455
Ni27 P6 2.171735 1_555
Ni27 P8 2.573009 1_655
Ni27 P7 2.573009 1_545
Ni27 P4 2.690540 1_545
Ni27 P5 2.690540 1_555
Ni28 P7 2.171716 1_555
Ni28 P8 2.572653 1_555
Ni28 P6 2.573238 1_555
Ni28 P4 2.690228 1_555
Ni28 P5 2.690853 1_555
Ni29 P8 2.171716 1_655
Ni29 P7 2.572653 1_555
Ni29 P6 2.573237 1_665
Ni29 P5 2.690228 1_555
Ni29 P4 2.690852 1_655
