# generated using pymatgen
data_LaMnSi
_symmetry_space_group_name_H-M   'P 1'
_cell_length_a   4.32568132
_cell_length_b   4.32568132
_cell_length_c   7.11381349
_cell_angle_alpha   90.00000000
_cell_angle_beta   90.00000000
_cell_angle_gamma   90.00000000
_symmetry_Int_Tables_number   1
_chemical_formula_structural   LaMnSi
_chemical_formula_sum   'La2 Mn2 Si2'
_cell_volume   133.11025544
_cell_formula_units_Z   2
loop_
 _symmetry_equiv_pos_site_id
 _symmetry_equiv_pos_as_xyz
  1  'x, y, z'
loop_
 _atom_site_type_symbol
 _atom_site_label
 _atom_site_symmetry_multiplicity
 _atom_site_fract_x
 _atom_site_fract_y
 _atom_site_fract_z
 _atom_site_occupancy
  La  La0  1  0.00000000  0.50000000  0.33014493  1
  La  La1  1  0.50000000  -0.00000000  0.66985507  1
  Mn  Mn0  1  -0.00000000  -0.00000000  -0.00000000  1
  Mn  Mn1  1  0.50000000  0.50000000  -0.00000000  1
  Si  Si0  1  -0.00000000  0.50000000  0.80236297  1
  Si  Si1  1  0.50000000  0.00000000  0.19763703  1
loop_
_geom_bond_atom_site_label_1
_geom_bond_atom_site_label_2
_geom_bond_distance
_geom_bond_site_symmetry_2
La0 Mn1 3.192766 1_555
La0 Mn0 3.192766 1_565
La0 Mn0 3.192766 1_555
La0 Mn1 3.192766 1_455
La0 Si1 3.200675 1_565
La0 Si1 3.200675 1_455
La0 Si1 3.200675 1_555
La0 Si1 3.200675 1_465
La0 Si0 3.359271 1_555
La1 Mn1 3.192766 1_556
La1 Mn1 3.192766 1_546
La1 Mn0 3.192766 1_556
La1 Mn0 3.192766 1_656
La1 Si0 3.200675 1_645
La1 Si0 3.200675 1_655
La1 Si0 3.200675 1_545
La1 Si0 3.200675 1_555
La1 Si1 3.359271 1_555
Mn0 Si1 2.579648 1_455
Mn0 Si1 2.579648 1_555
Mn0 Si0 2.579648 1_554
Mn0 Si0 2.579648 1_544
Mn1 Si1 2.579648 1_565
Mn1 Si0 2.579648 1_654
Mn1 Si1 2.579648 1_555
Mn1 Si0 2.579648 1_554
