# generated using pymatgen
data_Mg5Si6
_symmetry_space_group_name_H-M   'P 1'
_cell_length_a   4.05315100
_cell_length_b   6.81246400
_cell_length_c   14.74595131
_cell_angle_alpha   87.75875433
_cell_angle_beta   90.00000000
_cell_angle_gamma   90.00000000
_symmetry_Int_Tables_number   1
_chemical_formula_structural   Mg5Si6
_chemical_formula_sum   'Mg10 Si12'
_cell_volume   406.85292928
_cell_formula_units_Z   2
loop_
 _symmetry_equiv_pos_site_id
 _symmetry_equiv_pos_as_xyz
  1  'x, y, z'
loop_
 _atom_site_type_symbol
 _atom_site_label
 _atom_site_symmetry_multiplicity
 _atom_site_fract_x
 _atom_site_fract_y
 _atom_site_fract_z
 _atom_site_occupancy
  Mg  Mg0  1  0.00000000  0.01404800  0.02414900  1
  Mg  Mg1  1  0.00000000  0.49303000  0.49935000  1
  Mg  Mg2  1  0.50000000  0.31597500  0.64527900  1
  Mg  Mg3  1  0.50000000  0.67134300  0.35475300  1
  Mg  Mg4  1  0.50000000  0.69525000  0.04871000  1
  Mg  Mg5  1  0.50000000  0.31930400  0.94402600  1
  Mg  Mg6  1  0.50000000  0.79805300  0.57699800  1
  Mg  Mg7  1  0.50000000  0.19183400  0.42161100  1
  Mg  Mg8  1  0.50000000  0.31546800  0.18890600  1
  Mg  Mg9  1  0.50000000  0.68071800  0.80480100  1
  Si  Si0  1  0.00000000  0.40351700  0.06454600  1
  Si  Si1  1  0.00000000  0.63160100  0.93110000  1
  Si  Si2  1  0.00000000  0.88767600  0.43670900  1
  Si  Si3  1  0.00000000  0.10193200  0.56151000  1
  Si  Si4  1  0.50000000  0.08459800  0.80011100  1
  Si  Si5  1  0.50000000  0.90865700  0.20008100  1
  Si  Si6  1  0.00000000  0.39869600  0.31656300  1
  Si  Si7  1  0.00000000  0.59603800  0.67986200  1
  Si  Si8  1  0.00000000  0.35652300  0.80559900  1
  Si  Si9  1  0.00000000  0.64284900  0.19196300  1
  Si  Si10  1  0.00000000  0.04772400  0.28292900  1
  Si  Si11  1  0.00000000  0.94879600  0.71681400  1
loop_
_geom_bond_atom_site_label_1
_geom_bond_atom_site_label_2
_geom_bond_distance
_geom_bond_site_symmetry_2
Mg0 Si0 2.741928 1_555
Mg0 Si1 2.991721 1_544
Mg1 Si7 2.779177 1_555
Mg1 Si3 2.783500 1_555
Mg1 Si6 2.795261 1_555
Mg1 Si2 2.808395 1_555
Mg2 Si4 2.723202 1_555
Mg2 Si3 2.810689 1_655
Mg2 Si3 2.810689 1_555
Mg2 Si7 2.843118 1_655
Mg2 Si7 2.843118 1_555
Mg2 Si8 3.134202 1_555
Mg2 Si8 3.134202 1_655
Mg3 Si5 2.743589 1_555
Mg3 Si2 2.806920 1_655
Mg3 Si2 2.806920 1_555
Mg3 Si6 2.820617 1_655
Mg3 Si6 2.820617 1_555
Mg3 Si9 3.153332 1_655
Mg3 Si9 3.153332 1_555
Mg4 Si5 2.711040 1_555
Mg4 Si1 2.713215 1_554
Mg4 Si1 2.713215 1_654
Mg4 Si0 2.841669 1_655
Mg4 Si0 2.841669 1_555
Mg4 Si9 2.938997 1_655
Mg4 Si9 2.938997 1_555
Mg5 Si4 2.706573 1_555
Mg5 Si0 2.770245 1_556
Mg5 Si0 2.770245 1_656
Mg5 Si8 2.880533 1_555
Mg5 Si8 2.880533 1_655
Mg5 Si1 2.939035 1_655
Mg5 Si1 2.939035 1_555
Mg6 Si7 2.852803 1_655
Mg6 Si7 2.852803 1_555
Mg6 Si3 2.899616 1_665
Mg6 Si3 2.899616 1_565
Mg6 Si2 2.942872 1_655
Mg6 Si2 2.942872 1_555
Mg6 Si11 3.094816 1_555
Mg6 Si11 3.094816 1_655
Mg7 Si6 2.884741 1_555
Mg7 Si6 2.884741 1_655
Mg7 Si2 2.900681 1_545
Mg7 Si2 2.900681 1_645
Mg7 Si3 2.939222 1_555
Mg7 Si3 2.939222 1_655
Mg7 Si10 3.067552 1_655
Mg7 Si10 3.067552 1_555
Mg8 Si5 2.769840 1_545
Mg8 Si0 2.782736 1_555
Mg8 Si0 2.782736 1_655
Mg8 Si6 2.838218 1_655
Mg8 Si6 2.838218 1_555
Mg8 Si9 3.015131 1_655
Mg8 Si9 3.015131 1_555
Mg8 Si10 3.026292 1_555
Mg8 Si10 3.026292 1_655
Mg9 Si4 2.749582 1_565
Mg9 Si1 2.763831 1_655
Mg9 Si1 2.763831 1_555
Mg9 Si7 2.813744 1_555
Mg9 Si7 2.813744 1_655
Mg9 Si11 2.990038 1_655
Mg9 Si11 2.990038 1_555
Mg9 Si8 2.997146 1_555
Mg9 Si8 2.997146 1_655
Si0 Si1 2.459143 1_554
Si0 Si9 2.535379 1_555
Si1 Si8 2.684736 1_555
Si2 Si3 2.393177 1_565
Si4 Si8 2.748993 1_655
Si4 Si8 2.748993 1_555
Si5 Si9 2.723475 1_655
Si5 Si9 2.723475 1_555
Si6 Si9 2.429676 1_555
Si7 Si8 2.421468 1_555
Si10 Si6 2.460800 1_555
Si10 Si2 2.477413 1_545
Si10 Si5 2.566625 1_445
Si10 Si5 2.566625 1_545
Si11 Si3 2.479124 1_565
Si11 Si7 2.484846 1_555
Si11 Si4 2.561345 1_565
Si11 Si4 2.561345 1_465
