# generated using pymatgen
data_AsRu
_symmetry_space_group_name_H-M   'P 1'
_cell_length_a   3.34277818
_cell_length_b   5.73150340
_cell_length_c   6.36869092
_cell_angle_alpha   90.00000000
_cell_angle_beta   90.00000000
_cell_angle_gamma   90.00000000
_symmetry_Int_Tables_number   1
_chemical_formula_structural   AsRu
_chemical_formula_sum   'As4 Ru4'
_cell_volume   122.01866964
_cell_formula_units_Z   4
loop_
 _symmetry_equiv_pos_site_id
 _symmetry_equiv_pos_as_xyz
  1  'x, y, z'
loop_
 _atom_site_type_symbol
 _atom_site_label
 _atom_site_symmetry_multiplicity
 _atom_site_fract_x
 _atom_site_fract_y
 _atom_site_fract_z
 _atom_site_occupancy
  As  As0  1  0.25000000  0.69622015  0.93009519  1
  As  As1  1  0.75000000  0.30377985  0.06990481  1
  As  As2  1  0.25000000  0.19622015  0.56990481  1
  As  As3  1  0.75000000  0.80377985  0.43009519  1
  Ru  Ru0  1  0.25000000  0.49457089  0.29553644  1
  Ru  Ru1  1  0.75000000  0.50542911  0.70446356  1
  Ru  Ru2  1  0.25000000  -0.00542911  0.20446356  1
  Ru  Ru3  1  0.75000000  0.00542911  0.79553644  1
loop_
_geom_bond_atom_site_label_1
_geom_bond_atom_site_label_2
_geom_bond_distance
_geom_bond_site_symmetry_2
As0 Ru2 2.444869 1_566
As0 Ru1 2.460535 1_555
As0 Ru1 2.460535 1_455
As0 Ru3 2.582389 1_565
As0 Ru3 2.582389 1_465
As0 Ru0 2.598552 1_556
As1 Ru3 2.444869 1_554
As1 Ru0 2.460535 1_655
As1 Ru0 2.460535 1_555
As1 Ru2 2.582389 1_655
As1 Ru2 2.582389 1_555
As1 Ru1 2.598552 1_554
As2 Ru0 2.444869 1_555
As2 Ru3 2.460535 1_555
As2 Ru3 2.460535 1_455
As2 Ru1 2.582389 1_555
As2 Ru1 2.582389 1_455
As2 Ru2 2.598552 1_555
As3 Ru1 2.444869 1_555
As3 Ru2 2.460535 1_565
As3 Ru2 2.460535 1_665
As3 Ru0 2.582389 1_655
As3 Ru0 2.582389 1_555
As3 Ru3 2.598552 1_565
