# generated using pymatgen
data_RbMg6Bi
_symmetry_space_group_name_H-M   'P 1'
_cell_length_a   5.21602100
_cell_length_b   7.12635200
_cell_length_c   12.38430300
_cell_angle_alpha   90.00000000
_cell_angle_beta   90.00000000
_cell_angle_gamma   90.00000000
_symmetry_Int_Tables_number   1
_chemical_formula_structural   RbMg6Bi
_chemical_formula_sum   'Rb2 Mg12 Bi2'
_cell_volume   460.33942455
_cell_formula_units_Z   2
loop_
 _symmetry_equiv_pos_site_id
 _symmetry_equiv_pos_as_xyz
  1  'x, y, z'
loop_
 _atom_site_type_symbol
 _atom_site_label
 _atom_site_symmetry_multiplicity
 _atom_site_fract_x
 _atom_site_fract_y
 _atom_site_fract_z
 _atom_site_occupancy
  Rb  Rb0  1  0.00000000  0.50000000  0.32714400  1
  Rb  Rb1  1  0.00000000  0.00000000  0.82714400  1
  Mg  Mg0  1  0.00000000  0.24793100  0.07611700  1
  Mg  Mg1  1  0.00000000  0.75206900  0.07611700  1
  Mg  Mg2  1  0.00000000  0.00000000  0.34512400  1
  Mg  Mg3  1  0.50000000  0.78392400  0.42920200  1
  Mg  Mg4  1  0.50000000  0.21607600  0.42920200  1
  Mg  Mg5  1  0.50000000  0.00000000  0.17166200  1
  Mg  Mg6  1  0.00000000  0.74793100  0.57611700  1
  Mg  Mg7  1  0.00000000  0.25206900  0.57611700  1
  Mg  Mg8  1  0.00000000  0.50000000  0.84512400  1
  Mg  Mg9  1  0.50000000  0.28392400  0.92920200  1
  Mg  Mg10  1  0.50000000  0.71607600  0.92920200  1
  Mg  Mg11  1  0.50000000  0.50000000  0.67166200  1
  Bi  Bi0  1  0.50000000  0.50000000  0.14543100  1
  Bi  Bi1  1  0.50000000  0.00000000  0.64543100  1
loop_
_geom_bond_atom_site_label_1
_geom_bond_atom_site_label_2
_geom_bond_distance
_geom_bond_site_symmetry_2
Mg0 Mg9 3.190278 1_454
Mg0 Mg9 3.190278 1_554
Mg0 Mg5 3.365049 1_455
Mg0 Mg5 3.365049 1_555
Mg0 Mg8 3.377920 1_554
Mg0 Rb1 3.553706 1_554
Mg0 Rb0 3.590461 1_555
Mg1 Mg10 3.190278 1_554
Mg1 Mg10 3.190278 1_454
Mg1 Mg5 3.365049 1_565
Mg1 Mg5 3.365049 1_465
Mg1 Mg8 3.377920 1_554
Mg1 Rb1 3.553706 1_564
Mg1 Rb0 3.590461 1_555
Mg2 Mg4 3.202656 1_455
Mg2 Mg4 3.202656 1_555
Mg2 Mg3 3.202656 1_545
Mg2 Mg3 3.202656 1_445
Mg2 Mg6 3.377920 1_545
Mg2 Mg7 3.377920 1_555
Mg2 Mg5 3.378832 1_455
Mg2 Mg5 3.378832 1_555
Mg2 Rb0 3.570127 1_555
Mg2 Rb0 3.570127 1_545
Mg3 Mg4 3.079667 1_565
Mg3 Mg6 3.190278 1_555
Mg3 Mg6 3.190278 1_655
Mg3 Rb0 3.534561 1_655
Mg3 Rb0 3.534561 1_555
Mg4 Mg7 3.190278 1_555
Mg4 Mg7 3.190278 1_655
Mg4 Rb0 3.534561 1_655
Mg4 Rb0 3.534561 1_555
Mg6 Rb0 3.553706 1_555
Mg6 Rb1 3.590461 1_565
Mg7 Rb0 3.553706 1_555
Mg7 Rb1 3.590461 1_555
Mg8 Mg9 3.202656 1_455
Mg8 Mg9 3.202656 1_555
Mg8 Rb1 3.570127 1_555
Mg8 Rb1 3.570127 1_565
Mg9 Rb1 3.534561 1_555
Mg9 Rb1 3.534561 1_655
Mg10 Mg9 3.079667 1_555
Mg10 Mg8 3.202656 1_555
Mg10 Mg8 3.202656 1_655
Mg10 Rb1 3.534561 1_565
Mg10 Rb1 3.534561 1_665
Mg11 Mg6 3.365049 1_655
Mg11 Mg7 3.365049 1_655
Mg11 Mg6 3.365049 1_555
Mg11 Mg7 3.365049 1_555
Mg11 Mg8 3.378832 1_555
Mg11 Mg8 3.378832 1_655
Bi0 Mg10 3.089004 1_554
Bi0 Mg9 3.089004 1_554
Bi0 Mg1 3.281065 1_555
Bi0 Mg1 3.281065 1_655
Bi0 Mg0 3.281065 1_555
Bi0 Mg0 3.281065 1_655
Bi0 Rb0 3.444702 1_655
Bi0 Rb0 3.444702 1_555
Bi0 Mg5 3.577954 1_555
Bi0 Mg5 3.577954 1_565
Bi1 Mg3 3.089004 1_545
Bi1 Mg4 3.089004 1_555
Bi1 Mg7 3.281065 1_655
Bi1 Mg6 3.281065 1_645
Bi1 Mg6 3.281065 1_545
Bi1 Mg7 3.281065 1_555
Bi1 Rb1 3.444702 1_655
Bi1 Rb1 3.444702 1_555
Bi1 Mg11 3.577954 1_555
Bi1 Mg11 3.577954 1_545
