# generated using pymatgen
data_ZnCu2SiS4
_symmetry_space_group_name_H-M   'P 1'
_cell_length_a   6.09989659
_cell_length_b   6.35676319
_cell_length_c   7.35778961
_cell_angle_alpha   90.00000000
_cell_angle_beta   90.00931716
_cell_angle_gamma   90.00000000
_symmetry_Int_Tables_number   1
_chemical_formula_structural   ZnCu2SiS4
_chemical_formula_sum   'Zn2 Cu4 Si2 S8'
_cell_volume   285.30268929
_cell_formula_units_Z   2
loop_
 _symmetry_equiv_pos_site_id
 _symmetry_equiv_pos_as_xyz
  1  'x, y, z'
loop_
 _atom_site_type_symbol
 _atom_site_label
 _atom_site_symmetry_multiplicity
 _atom_site_fract_x
 _atom_site_fract_y
 _atom_site_fract_z
 _atom_site_occupancy
  Zn  Zn0  1  0.41748978  0.32643734  0.27059426  1
  Zn  Zn1  1  0.91748978  0.67356266  0.77059426  1
  Cu  Cu0  1  0.42219426  0.32584951  0.77677814  1
  Cu  Cu1  1  0.92219426  0.67415049  0.27677814  1
  Cu  Cu2  1  0.91628008  0.15302255  0.02735240  1
  Cu  Cu3  1  0.41628008  0.84697745  0.52735240  1
  Si  Si0  1  0.41300513  0.82600305  0.02402335  1
  Si  Si1  1  0.91300513  0.17399695  0.52402335  1
  S  S0  1  0.79979302  0.33126896  0.28386288  1
  S  S1  1  0.29979302  0.66873104  0.78386288  1
  S  S2  1  0.79449687  0.32607048  0.76517256  1
  S  S3  1  0.29449687  0.67392952  0.26517256  1
  S  S4  1  0.76423067  0.82405434  0.02760770  1
  S  S5  1  0.26423067  0.17594566  0.52760770  1
  S  S6  1  0.29061019  0.14149523  0.02020770  1
  S  S7  1  0.79061019  0.85850477  0.52020770  1
loop_
_geom_bond_atom_site_label_1
_geom_bond_atom_site_label_2
_geom_bond_distance
_geom_bond_site_symmetry_2
Cu0 S2 2.272627 1_555
Cu0 S5 2.279704 1_555
Cu0 S6 2.286068 1_556
Cu0 S1 2.304544 1_555
Cu1 S3 2.272627 1_655
Cu1 S4 2.279704 1_555
Cu1 S7 2.286068 1_555
Cu1 S0 2.304544 1_555
Cu2 S6 2.285164 1_655
Cu2 S4 2.287627 1_545
Cu2 S0 2.313281 1_555
Cu2 S2 2.341522 1_554
Cu3 S7 2.285164 1_555
Cu3 S5 2.287627 1_565
Cu3 S1 2.313281 1_555
Cu3 S3 2.341522 1_555
S0 Si1 2.144401 1_555
S0 Zn0 2.334239 1_555
S1 Si0 2.144401 1_556
S1 Zn1 2.334239 1_455
S2 Si1 2.146093 1_555
S2 Zn1 2.333195 1_555
S3 Si0 2.146093 1_555
S3 Zn0 2.333195 1_555
S4 Si0 2.142633 1_555
S4 Zn1 2.316415 1_554
S5 Si1 2.142633 1_455
S5 Zn0 2.316415 1_555
S6 Si0 2.140153 1_545
S6 Zn0 2.318338 1_555
S7 Si1 2.140153 1_565
S7 Zn1 2.318338 1_555
