# generated using pymatgen
data_LaGaSi
_symmetry_space_group_name_H-M   'P 1'
_cell_length_a   7.80608036
_cell_length_b   7.80608036
_cell_length_c   7.80608036
_cell_angle_alpha   147.82134299
_cell_angle_beta   147.82134299
_cell_angle_gamma   46.14916986
_symmetry_Int_Tables_number   1
_chemical_formula_structural   LaGaSi
_chemical_formula_sum   'La2 Ga2 Si2'
_cell_volume   134.44036075
_cell_formula_units_Z   2
loop_
 _symmetry_equiv_pos_site_id
 _symmetry_equiv_pos_as_xyz
  1  'x, y, z'
loop_
 _atom_site_type_symbol
 _atom_site_label
 _atom_site_symmetry_multiplicity
 _atom_site_fract_x
 _atom_site_fract_y
 _atom_site_fract_z
 _atom_site_occupancy
  La  La0  1  0.62465408  0.12465408  0.50000000  1
  La  La1  1  0.87465408  0.87465408  0.00000000  1
  Ga  Ga0  1  0.04172309  0.54172309  0.50000000  1
  Ga  Ga1  1  0.29172309  0.29172309  0.00000000  1
  Si  Si0  1  0.45862283  0.45862283  -0.00000000  1
  Si  Si1  1  0.20862283  0.70862283  0.50000000  1
loop_
_geom_bond_atom_site_label_1
_geom_bond_atom_site_label_2
_geom_bond_distance
_geom_bond_site_symmetry_2
La0 Si0 3.219779 1_556
La0 Si0 3.219779 1_545
La0 Si1 3.288567 1_645
La0 Si1 3.288567 1_656
La0 Si1 3.288567 1_555
La0 Si1 3.288567 1_544
La1 Si1 3.219779 1_554
La1 Si1 3.219779 1_655
La1 Si0 3.288567 1_565
La1 Si0 3.288567 1_666
La1 Si0 3.288567 1_554
La1 Si0 3.288567 1_655
Ga0 Si1 2.397200 1_555
Ga0 Si0 2.470766 1_556
Ga0 Si0 2.470766 1_455
Ga0 La1 3.230834 1_445
Ga0 La1 3.230834 1_456
Ga0 La0 3.283130 1_454
Ga0 La0 3.283130 1_555
Ga0 La0 3.283130 1_465
Ga0 La0 3.283130 1_566
Ga1 Si0 2.397200 1_555
Ga1 Si1 2.470766 1_544
Ga1 Si1 2.470766 1_555
Ga1 La0 3.230834 1_555
Ga1 La0 3.230834 1_454
Ga1 La1 3.283130 1_455
Ga1 La1 3.283130 1_556
Ga1 La1 3.283130 1_545
Ga1 La1 3.283130 1_444
