# generated using pymatgen
data_ZrSn
_symmetry_space_group_name_H-M   'P 1'
_cell_length_a   8.14488271
_cell_length_b   8.14488271
_cell_length_c   5.46441900
_cell_angle_alpha   90.00000000
_cell_angle_beta   90.00000000
_cell_angle_gamma   139.87549682
_symmetry_Int_Tables_number   1
_chemical_formula_structural   ZrSn
_chemical_formula_sum   'Zr5 Sn5'
_cell_volume   233.61641799
_cell_formula_units_Z   5
loop_
 _symmetry_equiv_pos_site_id
 _symmetry_equiv_pos_as_xyz
  1  'x, y, z'
loop_
 _atom_site_type_symbol
 _atom_site_label
 _atom_site_symmetry_multiplicity
 _atom_site_fract_x
 _atom_site_fract_y
 _atom_site_fract_z
 _atom_site_occupancy
  Zr  Zr0  1  0.01682600  0.21301300  0.00000000  1
  Zr  Zr1  1  0.24939000  0.24939000  0.50000000  1
  Zr  Zr2  1  0.84351200  0.64014900  0.50000000  1
  Zr  Zr3  1  0.64014900  0.84351200  0.50000000  1
  Zr  Zr4  1  0.21301300  0.01682600  0.00000000  1
  Sn  Sn0  1  0.85757300  0.45754300  0.00000000  1
  Sn  Sn1  1  0.03266200  0.42320900  0.50000000  1
  Sn  Sn2  1  0.59911500  0.59911500  0.00000000  1
  Sn  Sn3  1  0.45754300  0.85757300  0.00000000  1
  Sn  Sn4  1  0.42320900  0.03266200  0.50000000  1
loop_
_geom_bond_atom_site_label_1
_geom_bond_atom_site_label_2
_geom_bond_distance
_geom_bond_site_symmetry_2
Zr0 Zr4 3.001918 1_555
Zr0 Zr1 3.206632 1_555
Zr0 Zr1 3.206632 1_554
Zr0 Zr3 3.437230 1_444
Zr0 Zr3 3.437230 1_445
Zr1 Zr3 3.161174 1_555
Zr1 Zr2 3.161174 1_555
Zr1 Zr4 3.206632 1_555
Zr1 Zr4 3.206632 1_556
Zr1 Zr2 3.234986 1_445
Zr1 Zr3 3.234986 1_445
Zr2 Zr4 3.437230 1_665
Zr2 Zr4 3.437230 1_666
Sn0 Zr4 2.994004 1_665
Sn0 Sn2 3.077867 1_555
Sn0 Zr0 3.098379 1_655
Sn0 Zr2 3.154465 1_554
Sn0 Zr2 3.154465 1_555
Sn0 Sn3 3.185355 1_545
Sn0 Sn3 3.185355 1_655
Sn0 Sn1 3.191669 1_655
Sn0 Sn1 3.191669 1_654
Sn0 Zr4 3.409831 1_555
Sn1 Zr1 2.990345 1_555
Sn1 Zr3 3.070763 1_445
Sn1 Zr2 3.107825 1_455
Sn1 Zr0 3.174102 1_555
Sn1 Zr0 3.174102 1_556
Sn1 Zr3 3.208951 1_555
Sn2 Sn3 3.077867 1_555
Sn2 Zr0 3.094148 1_555
Sn2 Zr4 3.094148 1_555
Sn2 Zr2 3.243714 1_554
Sn2 Zr3 3.243714 1_554
Sn2 Zr3 3.243714 1_555
Sn2 Zr2 3.243714 1_555
Sn2 Zr4 3.249737 1_665
Sn2 Zr0 3.249737 1_665
Sn2 Zr1 3.359195 1_554
Sn2 Zr1 3.359195 1_555
Sn3 Zr0 2.994004 1_665
Sn3 Zr4 3.098379 1_565
Sn3 Zr3 3.154465 1_554
Sn3 Zr3 3.154465 1_555
Sn3 Sn4 3.191669 1_565
Sn3 Sn4 3.191669 1_564
Sn3 Zr0 3.409831 1_555
Sn4 Zr1 2.990345 1_555
Sn4 Zr2 3.070763 1_445
Sn4 Zr3 3.107825 1_545
Sn4 Zr4 3.174102 1_555
Sn4 Zr4 3.174102 1_556
Sn4 Zr2 3.208951 1_555
