# generated using pymatgen
data_Bi4(PO4)3
_symmetry_space_group_name_H-M   'P 1'
_cell_length_a   8.99712233
_cell_length_b   8.99712233
_cell_length_c   8.99712233
_cell_angle_alpha   109.47122063
_cell_angle_beta   109.47122063
_cell_angle_gamma   109.47122063
_symmetry_Int_Tables_number   1
_chemical_formula_structural   Bi4(PO4)3
_chemical_formula_sum   'Bi8 P6 O24'
_cell_volume   560.64633279
_cell_formula_units_Z   2
loop_
 _symmetry_equiv_pos_site_id
 _symmetry_equiv_pos_as_xyz
  1  'x, y, z'
loop_
 _atom_site_type_symbol
 _atom_site_label
 _atom_site_symmetry_multiplicity
 _atom_site_fract_x
 _atom_site_fract_y
 _atom_site_fract_z
 _atom_site_occupancy
  Bi  Bi0  1  0.34657000  0.34657000  0.34657000  1
  Bi  Bi1  1  0.15343000  0.50000000  0.00000000  1
  Bi  Bi2  1  0.00000000  0.15343000  0.50000000  1
  Bi  Bi3  1  0.84657000  0.84657000  0.84657000  1
  Bi  Bi4  1  0.50000000  0.00000000  0.15343000  1
  Bi  Bi5  1  0.65343000  0.50000000  0.00000000  1
  Bi  Bi6  1  0.50000000  0.00000000  0.65343000  1
  Bi  Bi7  1  0.00000000  0.65343000  0.50000000  1
  P  P0  1  0.12500000  0.87500000  0.25000000  1
  P  P1  1  0.37500000  0.62500000  0.75000000  1
  P  P2  1  0.87500000  0.25000000  0.12500000  1
  P  P3  1  0.62500000  0.75000000  0.37500000  1
  P  P4  1  0.25000000  0.12500000  0.87500000  1
  P  P5  1  0.75000000  0.37500000  0.62500000  1
  O  O0  1  0.37388300  0.20764600  0.08319000  1
  O  O1  1  0.12611700  0.20930700  0.83376400  1
  O  O2  1  0.87554300  0.29235400  0.66623600  1
  O  O3  1  0.20764600  0.08319000  0.37388300  1
  O  O4  1  0.87388300  0.58319000  0.70764600  1
  O  O5  1  0.62445700  0.29069300  0.41681000  1
  O  O6  1  0.20930700  0.83376400  0.12611700  1
  O  O7  1  0.62611700  0.33376400  0.70930700  1
  O  O8  1  0.29235400  0.66623600  0.87554300  1
  O  O9  1  0.37554300  0.16623600  0.79235400  1
  O  O10  1  0.29069300  0.41681000  0.62445700  1
  O  O11  1  0.12445700  0.91681000  0.79069300  1
  O  O12  1  0.08319000  0.37388300  0.20764600  1
  O  O13  1  0.70764600  0.87388300  0.58319000  1
  O  O14  1  0.66623600  0.87554300  0.29235400  1
  O  O15  1  0.79235400  0.37554300  0.16623600  1
  O  O16  1  0.41681000  0.62445700  0.29069300  1
  O  O17  1  0.79069300  0.12445700  0.91681000  1
  O  O18  1  0.83376400  0.12611700  0.20930700  1
  O  O19  1  0.70930700  0.62611700  0.33376400  1
  O  O20  1  0.58319000  0.70764600  0.87388300  1
  O  O21  1  0.33376400  0.70930700  0.62611700  1
  O  O22  1  0.91681000  0.79069300  0.12445700  1
  O  O23  1  0.16623600  0.79235400  0.37554300  1
loop_
_geom_bond_atom_site_label_1
_geom_bond_atom_site_label_2
_geom_bond_distance
_geom_bond_site_symmetry_2
Bi0 O12 2.419994 1_555
Bi0 O3 2.419994 1_555
Bi0 O0 2.419994 1_555
Bi0 O10 2.626678 1_555
Bi0 O16 2.626678 1_555
Bi0 O5 2.626678 1_555
Bi1 O16 2.419992 1_555
Bi1 O1 2.419992 1_554
Bi1 O8 2.419996 1_554
Bi1 O12 2.626670 1_555
Bi1 O2 2.626678 1_454
Bi1 O6 2.626678 1_555
Bi2 O10 2.419992 1_555
Bi2 O18 2.419992 1_455
Bi2 O2 2.419996 1_455
Bi2 O3 2.626670 1_555
Bi2 O14 2.626678 1_445
Bi2 O1 2.626678 1_555
Bi3 O20 2.419994 1_555
Bi3 O4 2.419994 1_555
Bi3 O13 2.419994 1_555
Bi3 O11 2.626678 1_655
Bi3 O22 2.626678 1_556
Bi3 O17 2.626678 1_565
Bi4 O5 2.419992 1_555
Bi4 O6 2.419992 1_545
Bi4 O14 2.419996 1_545
Bi4 O0 2.626670 1_555
Bi4 O8 2.626678 1_544
Bi4 O18 2.626678 1_555
Bi5 O7 2.419992 1_554
Bi5 O22 2.419992 1_555
Bi5 O15 2.419996 1_555
Bi5 O20 2.626670 1_554
Bi5 O9 2.626678 1_554
Bi5 O19 2.626678 1_555
Bi6 O17 2.419992 1_555
Bi6 O21 2.419992 1_545
Bi6 O9 2.419996 1_555
Bi6 O13 2.626670 1_545
Bi6 O23 2.626678 1_545
Bi6 O7 2.626678 1_555
Bi7 O19 2.419992 1_455
Bi7 O11 2.419992 1_555
Bi7 O23 2.419996 1_555
Bi7 O4 2.626670 1_455
Bi7 O15 2.626678 1_455
Bi7 O21 2.626678 1_555
O0 P4 1.559125 1_554
O1 P4 1.559124 1_555
O2 P5 1.559117 1_555
O3 P0 1.559125 1_545
O4 P5 1.559125 1_555
O5 P5 1.559124 1_555
O6 P0 1.559124 1_555
O7 P5 1.559124 1_555
O8 P1 1.559117 1_555
O9 P4 1.559117 1_555
O10 P1 1.559124 1_555
O11 P4 1.559124 1_565
O12 P2 1.559125 1_455
O13 P3 1.559125 1_555
O14 P3 1.559117 1_555
O15 P2 1.559117 1_555
O16 P3 1.559124 1_555
O17 P2 1.559124 1_556
O18 P2 1.559124 1_555
O19 P3 1.559124 1_555
O20 P1 1.559125 1_555
O21 P1 1.559124 1_555
O22 P0 1.559124 1_655
O23 P0 1.559117 1_555
