# generated using pymatgen
data_Ca2Mn2Si4H8O17
_symmetry_space_group_name_H-M   'P 1'
_cell_length_a   5.54411644
_cell_length_b   5.54411644
_cell_length_c   12.09898187
_cell_angle_alpha   88.76827520
_cell_angle_beta   88.76827520
_cell_angle_gamma   69.57008783
_symmetry_Int_Tables_number   1
_chemical_formula_structural   Ca2Mn2Si4H8O17
_chemical_formula_sum   'Ca2 Mn2 Si4 H8 O17'
_cell_volume   348.37789546
_cell_formula_units_Z   1
loop_
 _symmetry_equiv_pos_site_id
 _symmetry_equiv_pos_as_xyz
  1  'x, y, z'
loop_
 _atom_site_type_symbol
 _atom_site_label
 _atom_site_symmetry_multiplicity
 _atom_site_fract_x
 _atom_site_fract_y
 _atom_site_fract_z
 _atom_site_occupancy
  Ca  Ca0  1  0.68248400  0.72915100  0.73740400  1
  Ca  Ca1  1  0.27084900  0.31751600  0.26259600  1
  Mn  Mn0  1  0.00562000  0.50977200  0.99696700  1
  Mn  Mn1  1  0.49022800  0.99438000  0.00303300  1
  Si  Si0  1  0.02789900  0.04920300  0.84689900  1
  Si  Si1  1  0.95079700  0.97210100  0.15310100  1
  Si  Si2  1  0.10844000  0.10161600  0.60372900  1
  Si  Si3  1  0.89838400  0.89156000  0.39627100  1
  H  H0  1  0.95028600  0.48701200  0.51706400  1
  H  H1  1  0.51298800  0.04971400  0.48293600  1
  H  H2  1  0.46323600  0.40818000  0.90204000  1
  H  H3  1  0.59182000  0.53676400  0.09796000  1
  H  H4  1  0.44931600  0.30118000  0.66899100  1
  H  H5  1  0.69882000  0.55068400  0.33100900  1
  H  H6  1  0.28051400  0.49464500  0.75550800  1
  H  H7  1  0.50535500  0.71948600  0.24449200  1
  O  O0  1  0.85761100  0.89517600  0.90720200  1
  O  O1  1  0.10482400  0.14238900  0.09279800  1
  O  O2  1  0.98907100  0.99561100  0.71330400  1
  O  O3  1  0.00438900  0.01092900  0.28669600  1
  O  O4  1  0.92510100  0.36367100  0.86158600  1
  O  O5  1  0.63632900  0.07489900  0.13841400  1
  O  O6  1  0.08614300  0.66235100  0.12974200  1
  O  O7  1  0.33764900  0.91385700  0.87025800  1
  O  O8  1  0.04502500  0.95497500  0.50000000  1
  O  O9  1  0.41512300  0.04195600  0.61211400  1
  O  O10  1  0.95804400  0.58487700  0.38788600  1
  O  O11  1  0.94128600  0.41614700  0.59505400  1
  O  O12  1  0.58385300  0.05871400  0.40494600  1
  O  O13  1  0.37002400  0.35544900  0.96133900  1
  O  O14  1  0.64455100  0.62997600  0.03866100  1
  O  O15  1  0.44514400  0.45100500  0.71618800  1
  O  O16  1  0.54899500  0.55485600  0.28381200  1
loop_
_geom_bond_atom_site_label_1
_geom_bond_atom_site_label_2
_geom_bond_distance
_geom_bond_site_symmetry_2
Ca0 O15 2.371378 1_555
Ca0 O9 2.385702 1_565
Ca0 O7 2.420593 1_555
Ca0 O4 2.495138 1_555
Ca0 O11 2.514037 1_555
Ca0 O0 2.607949 1_555
Ca0 O2 2.621017 1_555
Ca1 O16 2.371378 1_555
Ca1 O10 2.385702 1_455
Ca1 O6 2.420593 1_555
Ca1 O5 2.495138 1_555
Ca1 O12 2.514037 1_555
Ca1 O1 2.607949 1_555
Ca1 O3 2.621017 1_555
Mn0 O14 1.935340 1_456
Mn0 O13 1.941940 1_555
Mn0 O6 1.961740 1_556
Mn0 O4 1.969580 1_455
Mn0 O1 2.222447 1_556
Mn0 O0 2.265606 1_455
Mn1 O13 1.935340 1_564
Mn1 O14 1.941940 1_555
Mn1 O7 1.961740 1_554
Mn1 O5 1.969580 1_565
Mn1 O0 2.222447 1_554
Mn1 O1 2.265606 1_565
H0 O11 1.021250 1_555
H0 O10 1.648001 1_555
H1 O12 1.021250 1_555
H1 O9 1.648001 1_555
H2 O13 0.973543 1_555
H3 O14 0.973543 1_555
H4 O15 1.011436 1_555
H4 O9 1.677281 1_555
H5 O16 1.011436 1_555
H5 O10 1.677281 1_555
H6 O15 0.974702 1_555
H7 O16 0.974702 1_555
O0 Si0 1.630734 1_665
O1 Si1 1.630734 1_445
O2 Si2 1.655682 1_665
O2 Si0 1.681520 1_665
O3 Si3 1.655682 1_445
O3 Si1 1.681520 1_445
O4 Si0 1.646598 1_655
O5 Si1 1.646598 1_545
O6 Si1 1.644433 1_455
O7 Si0 1.644433 1_565
O8 Si3 1.619263 1_455
O8 Si2 1.619263 1_565
O9 Si2 1.619884 1_555
O10 Si3 1.619884 1_555
O11 Si2 1.666971 1_655
O12 Si3 1.666971 1_545
