# generated using pymatgen
data_Er3(AgPb2)2
_symmetry_space_group_name_H-M   'P 1'
_cell_length_a   4.99758450
_cell_length_b   4.94066800
_cell_length_c   22.85787922
_cell_angle_alpha   90.00000000
_cell_angle_beta   89.64919331
_cell_angle_gamma   60.37602881
_symmetry_Int_Tables_number   1
_chemical_formula_structural   Er3(AgPb2)2
_chemical_formula_sum   'Er6 Ag4 Pb8'
_cell_volume   490.60815454
_cell_formula_units_Z   2
loop_
 _symmetry_equiv_pos_site_id
 _symmetry_equiv_pos_as_xyz
  1  'x, y, z'
loop_
 _atom_site_type_symbol
 _atom_site_label
 _atom_site_symmetry_multiplicity
 _atom_site_fract_x
 _atom_site_fract_y
 _atom_site_fract_z
 _atom_site_occupancy
  Er  Er0  1  0.99761400  0.00119300  0.23471000  1
  Er  Er1  1  0.99824100  0.00087900  0.57708500  1
  Er  Er2  1  0.99845800  0.00077100  0.91097400  1
  Er  Er3  1  0.00288300  0.99855800  0.09554900  1
  Er  Er4  1  0.00175300  0.99912300  0.42130800  1
  Er  Er5  1  0.00108400  0.99945800  0.75216400  1
  Ag  Ag0  1  0.33187100  0.33406500  0.16744600  1
  Ag  Ag1  1  0.33199100  0.33400500  0.50876100  1
  Ag  Ag2  1  0.33197000  0.33401500  0.84334900  1
  Ag  Ag3  1  0.66851700  0.66574100  0.16391400  1
  Pb  Pb0  1  0.66856100  0.66572000  0.50304300  1
  Pb  Pb1  1  0.66903300  0.66548300  0.83205900  1
  Pb  Pb2  1  0.66752200  0.66623900  0.02720100  1
  Pb  Pb3  1  0.66718500  0.66640800  0.35373100  1
  Pb  Pb4  1  0.66789300  0.66605400  0.68342500  1
  Pb  Pb5  1  0.33268300  0.33365800  0.30364800  1
  Pb  Pb6  1  0.33084100  0.33457900  0.64401600  1
  Pb  Pb7  1  0.33189900  0.33405100  0.97761600  1
loop_
_geom_bond_atom_site_label_1
_geom_bond_atom_site_label_2
_geom_bond_distance
_geom_bond_site_symmetry_2
Er0 Er3 3.180846 1_645
Er0 Pb5 3.276713 1_655
Er0 Pb5 3.276717 1_645
Er0 Pb5 3.280772 1_555
Er1 Pb6 3.249939 1_655
Er1 Pb6 3.249939 1_645
Er1 Pb6 3.268747 1_555
Er1 Pb0 3.324508 1_545
Er1 Pb0 3.324515 1_555
Er1 Pb0 3.357865 1_645
Er1 Er4 3.560657 1_645
Er1 Pb4 3.744511 1_545
Er1 Pb4 3.744517 1_555
Er1 Pb4 3.804126 1_645
Er1 Er5 4.002041 1_645
Er2 Pb7 3.248451 1_645
Er2 Pb7 3.248455 1_655
Er2 Pb7 3.262471 1_555
Er2 Pb1 3.382433 1_555
Er2 Pb1 3.382436 1_545
Er2 Pb1 3.415633 1_645
Er2 Er5 3.629997 1_645
Er2 Pb2 3.895355 1_556
Er2 Pb2 3.895355 1_546
Er2 Pb2 3.951635 1_646
Er2 Er3 4.219172 1_646
Er3 Pb2 3.270776 1_455
Er3 Pb2 3.270780 1_465
Er3 Pb2 3.273285 1_555
Er4 Pb3 3.260789 1_455
Er4 Pb3 3.260797 1_465
Er4 Pb3 3.268055 1_555
Er4 Pb0 3.413237 1_455
Er4 Pb0 3.413244 1_465
Er4 Pb0 3.458097 1_555
Er5 Pb4 3.270868 1_455
Er5 Pb4 3.270871 1_465
Er5 Pb4 3.285781 1_555
Er5 Pb1 3.388432 1_465
Er5 Pb1 3.388436 1_455
Er5 Pb1 3.439506 1_555
Er5 Pb6 3.770395 1_565
Er5 Pb6 3.770398 1_555
Er5 Pb6 3.832847 1_465
Ag0 Ag3 2.871637 1_555
Ag0 Ag3 2.871646 1_545
Ag0 Ag3 2.883535 1_455
Ag0 Pb5 3.113316 1_555
Ag0 Er0 3.247107 1_465
Ag0 Er0 3.247111 1_455
Ag0 Er0 3.285041 1_555
Ag0 Er3 3.298353 1_555
Ag0 Er3 3.298361 1_545
Ag0 Er3 3.336339 1_645
Ag1 Pb0 2.873134 1_545
Ag1 Pb0 2.873134 1_555
Ag1 Pb0 2.886048 1_455
Ag1 Pb6 3.091611 1_555
Ag1 Er1 3.257598 1_465
Ag1 Er1 3.257605 1_455
Ag1 Er1 3.298540 1_555
Ag1 Er4 3.492442 1_555
Ag1 Er4 3.492449 1_545
Ag1 Er4 3.518556 1_645
Ag2 Pb1 2.882366 1_555
Ag2 Pb1 2.882371 1_545
Ag2 Pb1 2.893373 1_455
Ag2 Pb7 3.069057 1_555
Ag2 Er2 3.249565 1_455
Ag2 Er2 3.249565 1_465
Ag2 Er2 3.291819 1_555
Ag2 Er5 3.543360 1_555
Ag2 Er5 3.543360 1_545
Ag2 Er5 3.564937 1_645
Ag3 Pb2 3.125003 1_555
Ag3 Er3 3.259231 1_645
Ag3 Er3 3.259231 1_655
Ag3 Er0 3.286019 1_555
Ag3 Er0 3.286023 1_565
Ag3 Er3 3.296633 1_555
Ag3 Er0 3.323757 1_465
Pb0 Pb3 3.413003 1_555
Pb1 Pb4 3.397497 1_555
Pb2 Pb7 3.088102 1_554
Pb2 Pb7 3.088106 1_564
Pb2 Pb7 3.093404 1_654
Pb3 Pb5 3.090028 1_565
Pb3 Pb5 3.090036 1_555
Pb3 Pb5 3.102043 1_655
Pb4 Pb6 3.011598 1_655
Pb4 Pb6 3.012746 1_565
Pb4 Pb6 3.012755 1_555
