# generated using pymatgen
data_Cs2TlBr5
_symmetry_space_group_name_H-M   'P 1'
_cell_length_a   13.99738200
_cell_length_b   8.16622200
_cell_length_c   24.13435400
_cell_angle_alpha   90.00000000
_cell_angle_beta   90.00000000
_cell_angle_gamma   90.00000000
_symmetry_Int_Tables_number   1
_chemical_formula_structural   Cs2TlBr5
_chemical_formula_sum   'Cs16 Tl8 Br40'
_cell_volume   2758.69492383
_cell_formula_units_Z   8
loop_
 _symmetry_equiv_pos_site_id
 _symmetry_equiv_pos_as_xyz
  1  'x, y, z'
loop_
 _atom_site_type_symbol
 _atom_site_label
 _atom_site_symmetry_multiplicity
 _atom_site_fract_x
 _atom_site_fract_y
 _atom_site_fract_z
 _atom_site_occupancy
  Cs  Cs0  1  0.10982600  0.25000000  0.53296900  1
  Cs  Cs1  1  0.60982600  0.25000000  0.96703100  1
  Cs  Cs2  1  0.89017400  0.75000000  0.46703100  1
  Cs  Cs3  1  0.39017400  0.75000000  0.03296900  1
  Cs  Cs4  1  0.12759700  0.25000000  0.10141400  1
  Cs  Cs5  1  0.62759700  0.25000000  0.39858600  1
  Cs  Cs6  1  0.87240300  0.75000000  0.89858600  1
  Cs  Cs7  1  0.37240300  0.75000000  0.60141400  1
  Cs  Cs8  1  0.26580100  0.25000000  0.30688500  1
  Cs  Cs9  1  0.76580100  0.25000000  0.19311500  1
  Cs  Cs10  1  0.73419900  0.75000000  0.69311500  1
  Cs  Cs11  1  0.23419900  0.75000000  0.80688500  1
  Cs  Cs12  1  0.52935600  0.75000000  0.22725600  1
  Cs  Cs13  1  0.02935600  0.75000000  0.27274400  1
  Cs  Cs14  1  0.47064400  0.25000000  0.77274400  1
  Cs  Cs15  1  0.97064400  0.25000000  0.72725600  1
  Tl  Tl0  1  0.94428100  0.25000000  0.35940000  1
  Tl  Tl1  1  0.44428100  0.25000000  0.14060000  1
  Tl  Tl2  1  0.05571900  0.75000000  0.64060000  1
  Tl  Tl3  1  0.55571900  0.75000000  0.85940000  1
  Tl  Tl4  1  0.09984800  0.25000000  0.90913200  1
  Tl  Tl5  1  0.59984800  0.25000000  0.59086800  1
  Tl  Tl6  1  0.90015200  0.75000000  0.09086800  1
  Tl  Tl7  1  0.40015200  0.75000000  0.40913200  1
  Br  Br0  1  0.36400500  0.25000000  0.03471600  1
  Br  Br1  1  0.86400500  0.25000000  0.46528400  1
  Br  Br2  1  0.63599500  0.75000000  0.96528400  1
  Br  Br3  1  0.13599500  0.75000000  0.53471600  1
  Br  Br4  1  0.52421500  0.25000000  0.25318100  1
  Br  Br5  1  0.02421500  0.25000000  0.24681900  1
  Br  Br6  1  0.47578500  0.75000000  0.74681900  1
  Br  Br7  1  0.97578500  0.75000000  0.75318100  1
  Br  Br8  1  0.31513700  0.00616800  0.17360700  1
  Br  Br9  1  0.81513700  0.49383200  0.32639300  1
  Br  Br10  1  0.68486300  0.50616800  0.82639300  1
  Br  Br11  1  0.18486300  0.99383200  0.67360700  1
  Br  Br12  1  0.68486300  0.99383200  0.82639300  1
  Br  Br13  1  0.18486300  0.50616800  0.67360700  1
  Br  Br14  1  0.31513700  0.49383200  0.17360700  1
  Br  Br15  1  0.81513700  0.00616800  0.32639300  1
  Br  Br16  1  0.57654900  0.48747900  0.11024900  1
  Br  Br17  1  0.07654900  0.01252100  0.38975100  1
  Br  Br18  1  0.42345100  0.98747900  0.88975100  1
  Br  Br19  1  0.92345100  0.51252100  0.61024900  1
  Br  Br20  1  0.42345100  0.51252100  0.88975100  1
  Br  Br21  1  0.92345100  0.98747900  0.61024900  1
  Br  Br22  1  0.57654900  0.01252100  0.11024900  1
  Br  Br23  1  0.07654900  0.48747900  0.38975100  1
  Br  Br24  1  0.13284900  0.52364300  0.96148500  1
  Br  Br25  1  0.63284900  0.97635700  0.53851500  1
  Br  Br26  1  0.86715100  0.02364300  0.03851500  1
  Br  Br27  1  0.36715100  0.47635700  0.46148500  1
  Br  Br28  1  0.86715100  0.47635700  0.03851500  1
  Br  Br29  1  0.36715100  0.02364300  0.46148500  1
  Br  Br30  1  0.13284900  0.97635700  0.96148500  1
  Br  Br31  1  0.63284900  0.52364300  0.53851500  1
  Br  Br32  1  0.91656700  0.25000000  0.88347200  1
  Br  Br33  1  0.41656700  0.25000000  0.61652800  1
  Br  Br34  1  0.08343300  0.75000000  0.11652800  1
  Br  Br35  1  0.58343300  0.75000000  0.38347200  1
  Br  Br36  1  0.19057600  0.25000000  0.81392300  1
  Br  Br37  1  0.69057600  0.25000000  0.68607700  1
  Br  Br38  1  0.80942400  0.75000000  0.18607700  1
  Br  Br39  1  0.30942400  0.75000000  0.31392300  1
loop_
_geom_bond_atom_site_label_1
_geom_bond_atom_site_label_2
_geom_bond_distance
_geom_bond_site_symmetry_2
Br0 Tl1 2.791573 1_555
Br0 Cs4 3.679847 1_555
Br0 Cs1 3.808922 1_554
Br0 Cs3 4.099725 1_555
Br0 Cs3 4.099725 1_545
Br1 Tl0 2.791573 1_555
Br1 Cs5 3.679847 1_555
Br1 Cs0 3.808922 1_655
Br1 Cs2 4.099725 1_545
Br1 Cs2 4.099725 1_555
Br2 Tl3 2.791573 1_555
Br2 Cs6 3.679847 1_555
Br2 Cs3 3.808922 1_556
Br2 Cs1 4.099725 1_565
Br2 Cs1 4.099725 1_555
Br3 Tl2 2.791573 1_555
Br3 Cs7 3.679847 1_555
Br3 Cs2 3.808922 1_455
Br3 Cs0 4.099725 1_565
Br3 Cs0 4.099725 1_555
Br4 Tl1 2.938423 1_555
Br4 Cs9 3.679201 1_555
Br4 Cs5 3.795907 1_555
Br4 Cs8 3.842325 1_555
Br4 Cs12 4.131398 1_545
Br4 Cs12 4.131398 1_555
Br5 Tl0 2.938423 1_455
Br5 Cs8 3.679201 1_555
Br5 Cs4 3.795907 1_555
Br5 Cs9 3.842325 1_455
Br5 Cs13 4.131398 1_555
Br5 Cs13 4.131398 1_545
Br6 Tl3 2.938423 1_555
Br6 Cs11 3.679201 1_555
Br6 Cs7 3.795907 1_555
Br6 Cs10 3.842325 1_555
Br6 Cs14 4.131398 1_565
Br6 Cs14 4.131398 1_555
Br7 Tl2 2.938423 1_655
Br7 Cs10 3.679201 1_555
Br7 Cs6 3.795907 1_555
Br7 Cs11 3.842325 1_655
Br7 Cs15 4.131398 1_555
Br7 Cs15 4.131398 1_565
Br8 Tl1 2.804835 1_555
Br8 Cs4 3.727134 1_555
Br8 Cs8 3.845529 1_555
Br8 Cs12 3.878614 1_545
Br8 Cs3 4.123102 1_545
Br9 Tl0 2.804835 1_555
Br9 Cs5 3.727134 1_555
Br9 Cs9 3.845529 1_555
Br9 Cs13 3.878614 1_655
Br9 Cs2 4.123102 1_555
Br10 Tl3 2.804835 1_555
Br10 Cs6 3.727134 1_555
Br10 Cs10 3.845529 1_555
Br10 Cs14 3.878614 1_555
Br10 Cs1 4.123102 1_555
Br11 Tl2 2.804835 1_555
Br11 Cs7 3.727134 1_555
Br11 Cs11 3.845529 1_555
Br11 Cs15 3.878614 1_465
Br11 Cs0 4.123102 1_565
Br12 Tl3 2.804835 1_555
Br12 Cs6 3.727134 1_555
Br12 Cs10 3.845529 1_555
Br12 Cs14 3.878614 1_565
Br12 Cs1 4.123102 1_565
Br13 Tl2 2.804835 1_555
Br13 Cs7 3.727134 1_555
Br13 Cs11 3.845529 1_555
Br13 Cs15 3.878614 1_455
Br13 Cs0 4.123102 1_555
Br14 Tl1 2.804835 1_555
Br14 Cs4 3.727134 1_555
Br14 Cs8 3.845529 1_555
Br14 Cs12 3.878614 1_555
Br14 Cs3 4.123102 1_555
Br15 Tl0 2.804835 1_555
Br15 Cs5 3.727134 1_555
Br15 Cs9 3.845529 1_555
Br15 Cs13 3.878614 1_645
Br15 Cs2 4.123102 1_545
Br16 Tl1 2.779419 1_555
Br16 Cs12 3.606468 1_555
Br16 Cs9 3.844210 1_555
Br16 Cs3 3.857479 1_555
Br16 Cs1 3.990624 1_554
Br17 Tl0 2.779419 1_455
Br17 Cs13 3.606468 1_545
Br17 Cs8 3.844210 1_555
Br17 Cs2 3.857479 1_445
Br17 Cs0 3.990624 1_555
Br18 Tl3 2.779419 1_555
Br18 Cs14 3.606468 1_565
Br18 Cs11 3.844210 1_555
Br18 Cs1 3.857479 1_565
Br18 Cs3 3.990624 1_556
Br19 Tl2 2.779419 1_655
Br19 Cs15 3.606468 1_555
Br19 Cs10 3.844210 1_555
Br19 Cs0 3.857479 1_655
Br19 Cs2 3.990624 1_555
Br20 Tl3 2.779419 1_555
Br20 Cs14 3.606468 1_555
Br20 Cs11 3.844210 1_555
Br20 Cs1 3.857479 1_555
Br20 Cs3 3.990624 1_556
Br21 Tl2 2.779419 1_655
Br21 Cs15 3.606468 1_565
Br21 Cs10 3.844210 1_555
Br21 Cs0 3.857479 1_665
Br21 Cs2 3.990624 1_555
Br22 Tl1 2.779419 1_555
Br22 Cs12 3.606468 1_545
Br22 Cs9 3.844210 1_555
Br22 Cs3 3.857479 1_545
Br22 Cs1 3.990624 1_554
Br23 Tl0 2.779419 1_455
Br23 Cs13 3.606468 1_555
Br23 Cs8 3.844210 1_555
Br23 Cs2 3.857479 1_455
Br23 Cs0 3.990624 1_555
Br24 Tl4 2.608331 1_555
Br24 Cs4 4.050154 1_556
Br25 Tl5 2.608331 1_565
Br25 Cs5 4.050154 1_565
Br26 Tl6 2.608331 1_545
Br26 Cs6 4.050154 1_544
Br27 Tl7 2.608331 1_555
Br27 Cs7 4.050154 1_555
Br28 Tl6 2.608331 1_555
Br28 Cs6 4.050154 1_554
Br29 Tl7 2.608331 1_545
Br29 Cs7 4.050154 1_545
Br30 Tl4 2.608331 1_565
Br30 Cs4 4.050154 1_566
Br31 Tl5 2.608331 1_555
Br31 Cs5 4.050154 1_555
Br32 Tl4 2.639142 1_655
Br32 Cs15 3.845407 1_555
Br32 Cs6 4.145720 1_545
Br32 Cs6 4.145720 1_555
Br33 Tl5 2.639142 1_555
Br33 Cs14 3.845407 1_555
Br33 Cs7 4.145720 1_555
Br33 Cs7 4.145720 1_545
Br34 Tl6 2.639142 1_455
Br34 Cs13 3.845407 1_555
Br34 Cs4 4.145720 1_565
Br34 Cs4 4.145720 1_555
Br35 Tl7 2.639142 1_555
Br35 Cs12 3.845407 1_555
Br35 Cs5 4.145720 1_555
Br35 Cs5 4.145720 1_565
Br36 Tl4 2.625396 1_555
Br36 Cs15 3.721827 1_455
Br36 Cs14 4.044232 1_555
Br36 Cs11 4.132008 1_555
Br36 Cs11 4.132008 1_545
Br37 Tl5 2.625396 1_555
Br37 Cs14 3.721827 1_555
Br37 Cs15 4.044232 1_555
Br37 Cs10 4.132008 1_545
Br37 Cs10 4.132008 1_555
Br38 Tl6 2.625396 1_555
Br38 Cs13 3.721827 1_655
Br38 Cs12 4.044232 1_555
Br38 Cs9 4.132008 1_565
Br38 Cs9 4.132008 1_555
Br39 Tl7 2.625396 1_555
Br39 Cs12 3.721827 1_555
Br39 Cs13 4.044232 1_555
Br39 Cs8 4.132008 1_555
Br39 Cs8 4.132008 1_565
