# generated using pymatgen
data_Pm2MgS4
_symmetry_space_group_name_H-M   'P 1'
_cell_length_a   16.17480023
_cell_length_b   16.17480629
_cell_length_c   16.17480629
_cell_angle_alpha   59.99997521
_cell_angle_beta   60.00001239
_cell_angle_gamma   60.00001239
_symmetry_Int_Tables_number   1
_chemical_formula_structural   Pm2MgS4
_chemical_formula_sum   'Pm32 Mg16 S64'
_cell_volume   2992.27913679
_cell_formula_units_Z   16
loop_
 _symmetry_equiv_pos_site_id
 _symmetry_equiv_pos_as_xyz
  1  'x, y, z'
loop_
 _atom_site_type_symbol
 _atom_site_label
 _atom_site_symmetry_multiplicity
 _atom_site_fract_x
 _atom_site_fract_y
 _atom_site_fract_z
 _atom_site_occupancy
  Pm  Pm0  1  0.31250000  0.06250000  0.31250000  1
  Pm  Pm1  1  0.31250000  0.06250000  0.81250000  1
  Pm  Pm2  1  0.31250000  0.56250000  0.31250000  1
  Pm  Pm3  1  0.31250000  0.56250000  0.81250000  1
  Pm  Pm4  1  0.81250000  0.06250000  0.31250000  1
  Pm  Pm5  1  0.81250000  0.06250000  0.81250000  1
  Pm  Pm6  1  0.81250000  0.56250000  0.31250000  1
  Pm  Pm7  1  0.81250000  0.56250000  0.81250000  1
  Pm  Pm8  1  0.31250000  0.31250000  0.06250000  1
  Pm  Pm9  1  0.31250000  0.31250000  0.56250000  1
  Pm  Pm10  1  0.31250000  0.81250000  0.06250000  1
  Pm  Pm11  1  0.31250000  0.81250000  0.56250000  1
  Pm  Pm12  1  0.81250000  0.31250000  0.06250000  1
  Pm  Pm13  1  0.81250000  0.31250000  0.56250000  1
  Pm  Pm14  1  0.81250000  0.81250000  0.06250000  1
  Pm  Pm15  1  0.81250000  0.81250000  0.56250000  1
  Pm  Pm16  1  0.06250000  0.31250000  0.31250000  1
  Pm  Pm17  1  0.06250000  0.31250000  0.81250000  1
  Pm  Pm18  1  0.06250000  0.81250000  0.31250000  1
  Pm  Pm19  1  0.06250000  0.81250000  0.81250000  1
  Pm  Pm20  1  0.56250000  0.31250000  0.31250000  1
  Pm  Pm21  1  0.56250000  0.31250000  0.81250000  1
  Pm  Pm22  1  0.56250000  0.81250000  0.31250000  1
  Pm  Pm23  1  0.56250000  0.81250000  0.81250000  1
  Pm  Pm24  1  0.31250000  0.31250000  0.31250000  1
  Pm  Pm25  1  0.31250000  0.31250000  0.81250000  1
  Pm  Pm26  1  0.31250000  0.81250000  0.31250000  1
  Pm  Pm27  1  0.31250000  0.81250000  0.81250000  1
  Pm  Pm28  1  0.81250000  0.31250000  0.31250000  1
  Pm  Pm29  1  0.81250000  0.31250000  0.81250000  1
  Pm  Pm30  1  0.81250000  0.81250000  0.31250000  1
  Pm  Pm31  1  0.81250000  0.81250000  0.81250000  1
  Mg  Mg0  1  -0.00000000  -0.00000000  -0.00000000  1
  Mg  Mg1  1  -0.00000000  -0.00000000  0.50000000  1
  Mg  Mg2  1  -0.00000000  0.50000000  -0.00000000  1
  Mg  Mg3  1  -0.00000000  0.50000000  0.50000000  1
  Mg  Mg4  1  0.50000000  -0.00000000  -0.00000000  1
  Mg  Mg5  1  0.50000000  -0.00000000  0.50000000  1
  Mg  Mg6  1  0.50000000  0.50000000  -0.00000000  1
  Mg  Mg7  1  0.50000000  0.50000000  0.50000000  1
  Mg  Mg8  1  0.12500000  0.12500000  0.12500000  1
  Mg  Mg9  1  0.12500000  0.12500000  0.62500000  1
  Mg  Mg10  1  0.12500000  0.62500000  0.12500000  1
  Mg  Mg11  1  0.12500000  0.62500000  0.62500000  1
  Mg  Mg12  1  0.62500000  0.12500000  0.12500000  1
  Mg  Mg13  1  0.62500000  0.12500000  0.62500000  1
  Mg  Mg14  1  0.62500000  0.62500000  0.12500000  1
  Mg  Mg15  1  0.62500000  0.62500000  0.62500000  1
  S  S0  1  0.18887170  0.18887370  0.18887370  1
  S  S1  1  0.18887170  0.18887370  0.68887370  1
  S  S2  1  0.18887170  0.68887370  0.18887370  1
  S  S3  1  0.18887170  0.68887370  0.68887370  1
  S  S4  1  0.68887170  0.18887370  0.18887370  1
  S  S5  1  0.68887170  0.18887370  0.68887370  1
  S  S6  1  0.68887170  0.68887370  0.18887370  1
  S  S7  1  0.68887170  0.68887370  0.68887370  1
  S  S8  1  0.43338189  0.18887370  0.18887370  1
  S  S9  1  0.43338189  0.18887370  0.68887370  1
  S  S10  1  0.43338189  0.68887370  0.18887370  1
  S  S11  1  0.43338189  0.68887370  0.68887370  1
  S  S12  1  0.93338189  0.18887370  0.18887370  1
  S  S13  1  0.93338189  0.18887370  0.68887370  1
  S  S14  1  0.93338189  0.68887370  0.18887370  1
  S  S15  1  0.93338189  0.68887370  0.68887370  1
  S  S16  1  0.18887370  0.43338189  0.18887170  1
  S  S17  1  0.18887370  0.43338189  0.68887170  1
  S  S18  1  0.18887370  0.93338189  0.18887170  1
  S  S19  1  0.18887370  0.93338189  0.68887170  1
  S  S20  1  0.68887370  0.43338189  0.18887170  1
  S  S21  1  0.68887370  0.43338189  0.68887170  1
  S  S22  1  0.68887370  0.93338189  0.18887170  1
  S  S23  1  0.68887370  0.93338189  0.68887170  1
  S  S24  1  0.18887370  0.18887170  0.43338189  1
  S  S25  1  0.18887370  0.18887170  0.93338189  1
  S  S26  1  0.18887370  0.68887170  0.43338189  1
  S  S27  1  0.18887370  0.68887170  0.93338189  1
  S  S28  1  0.68887370  0.18887170  0.43338189  1
  S  S29  1  0.68887370  0.18887170  0.93338189  1
  S  S30  1  0.68887370  0.68887170  0.43338189  1
  S  S31  1  0.68887370  0.68887170  0.93338189  1
  S  S32  1  0.43612630  0.43612830  0.19161811  1
  S  S33  1  0.43612630  0.43612830  0.69161811  1
  S  S34  1  0.43612630  0.93612830  0.19161811  1
  S  S35  1  0.43612630  0.93612830  0.69161811  1
  S  S36  1  0.93612630  0.43612830  0.19161811  1
  S  S37  1  0.93612630  0.43612830  0.69161811  1
  S  S38  1  0.93612630  0.93612830  0.19161811  1
  S  S39  1  0.93612630  0.93612830  0.69161811  1
  S  S40  1  0.43612630  0.19161811  0.43612830  1
  S  S41  1  0.43612630  0.19161811  0.93612830  1
  S  S42  1  0.43612630  0.69161811  0.43612830  1
  S  S43  1  0.43612630  0.69161811  0.93612830  1
  S  S44  1  0.93612630  0.19161811  0.43612830  1
  S  S45  1  0.93612630  0.19161811  0.93612830  1
  S  S46  1  0.93612630  0.69161811  0.43612830  1
  S  S47  1  0.93612630  0.69161811  0.93612830  1
  S  S48  1  0.19161811  0.43612630  0.43612630  1
  S  S49  1  0.19161811  0.43612630  0.93612630  1
  S  S50  1  0.19161811  0.93612630  0.43612630  1
  S  S51  1  0.19161811  0.93612630  0.93612630  1
  S  S52  1  0.69161811  0.43612630  0.43612630  1
  S  S53  1  0.69161811  0.43612630  0.93612630  1
  S  S54  1  0.69161811  0.93612630  0.43612630  1
  S  S55  1  0.69161811  0.93612630  0.93612630  1
  S  S56  1  0.43612830  0.43612630  0.43612630  1
  S  S57  1  0.43612830  0.43612630  0.93612630  1
  S  S58  1  0.43612830  0.93612630  0.43612630  1
  S  S59  1  0.43612830  0.93612630  0.93612630  1
  S  S60  1  0.93612830  0.43612630  0.43612630  1
  S  S61  1  0.93612830  0.43612630  0.93612630  1
  S  S62  1  0.93612830  0.93612630  0.43612630  1
  S  S63  1  0.93612830  0.93612630  0.93612630  1
loop_
_geom_bond_atom_site_label_1
_geom_bond_atom_site_label_2
_geom_bond_distance
_geom_bond_site_symmetry_2
Pm0 S24 2.828267 1_555
Pm0 S34 2.828267 1_545
Pm0 S0 2.828277 1_555
Pm0 S58 2.828277 1_545
Pm0 S50 2.828288 1_545
Pm0 S8 2.828288 1_555
Pm1 S35 2.828267 1_545
Pm1 S25 2.828267 1_555
Pm1 S1 2.828277 1_555
Pm1 S59 2.828277 1_545
Pm1 S51 2.828288 1_545
Pm1 S9 2.828288 1_555
Pm2 S32 2.828267 1_555
Pm2 S26 2.828267 1_555
Pm2 S2 2.828277 1_555
Pm2 S56 2.828277 1_555
Pm2 S48 2.828288 1_555
Pm2 S10 2.828288 1_555
Pm3 S33 2.828267 1_555
Pm3 S27 2.828267 1_555
Pm3 S3 2.828277 1_555
Pm3 S57 2.828277 1_555
Pm3 S49 2.828288 1_555
Pm3 S11 2.828288 1_555
Pm4 S38 2.828267 1_545
Pm4 S28 2.828267 1_555
Pm4 S4 2.828277 1_555
Pm4 S62 2.828277 1_545
Pm4 S54 2.828288 1_545
Pm4 S12 2.828288 1_555
Pm5 S39 2.828267 1_545
Pm5 S29 2.828267 1_555
Pm5 S5 2.828277 1_555
Pm5 S63 2.828277 1_545
Pm5 S55 2.828288 1_545
Pm5 S13 2.828288 1_555
Pm6 S30 2.828267 1_555
Pm6 S36 2.828267 1_555
Pm6 S6 2.828277 1_555
Pm6 S60 2.828277 1_555
Pm6 S52 2.828288 1_555
Pm6 S14 2.828288 1_555
Pm7 S31 2.828267 1_555
Pm7 S37 2.828267 1_555
Pm7 S61 2.828277 1_555
Pm7 S7 2.828277 1_555
Pm7 S53 2.828288 1_555
Pm7 S15 2.828288 1_555
Pm8 S41 2.828267 1_554
Pm8 S16 2.828267 1_555
Pm8 S0 2.828277 1_555
Pm8 S57 2.828277 1_554
Pm8 S8 2.828288 1_555
Pm8 S49 2.828288 1_554
Pm9 S17 2.828267 1_555
Pm9 S40 2.828267 1_555
Pm9 S1 2.828277 1_555
Pm9 S56 2.828277 1_555
Pm9 S48 2.828288 1_555
Pm9 S9 2.828288 1_555
Pm10 S43 2.828267 1_554
Pm10 S18 2.828267 1_555
Pm10 S59 2.828277 1_554
Pm10 S2 2.828277 1_555
Pm10 S10 2.828288 1_555
Pm10 S51 2.828288 1_554
Pm11 S19 2.828267 1_555
Pm11 S42 2.828267 1_555
Pm11 S58 2.828277 1_555
Pm11 S3 2.828277 1_555
Pm11 S50 2.828288 1_555
Pm11 S11 2.828288 1_555
Pm12 S45 2.828267 1_554
Pm12 S20 2.828267 1_555
Pm12 S4 2.828277 1_555
Pm12 S61 2.828277 1_554
Pm12 S53 2.828288 1_554
Pm12 S12 2.828288 1_555
Pm13 S44 2.828267 1_555
Pm13 S21 2.828267 1_555
Pm13 S5 2.828277 1_555
Pm13 S60 2.828277 1_555
Pm13 S52 2.828288 1_555
Pm13 S13 2.828288 1_555
Pm14 S47 2.828267 1_554
Pm14 S22 2.828267 1_555
Pm14 S63 2.828277 1_554
Pm14 S6 2.828277 1_555
Pm14 S55 2.828288 1_554
Pm14 S14 2.828288 1_555
Pm15 S46 2.828267 1_555
Pm15 S23 2.828267 1_555
Pm15 S7 2.828277 1_555
Pm15 S62 2.828277 1_555
Pm15 S54 2.828288 1_555
Pm15 S15 2.828288 1_555
Pm16 S0 2.828256 1_555
Pm16 S60 2.828256 1_455
Pm16 S24 2.828288 1_555
Pm16 S16 2.828288 1_555
Pm16 S36 2.828288 1_455
Pm16 S44 2.828288 1_455
Pm17 S1 2.828256 1_555
Pm17 S61 2.828256 1_455
Pm17 S17 2.828288 1_555
Pm17 S45 2.828288 1_455
Pm17 S25 2.828288 1_555
Pm17 S37 2.828288 1_455
Pm18 S2 2.828256 1_555
Pm18 S62 2.828256 1_455
Pm18 S26 2.828288 1_555
Pm18 S38 2.828288 1_455
Pm18 S18 2.828288 1_555
Pm18 S46 2.828288 1_455
Pm19 S3 2.828256 1_555
Pm19 S63 2.828256 1_455
Pm19 S19 2.828288 1_555
Pm19 S27 2.828288 1_555
Pm19 S47 2.828288 1_455
Pm19 S39 2.828288 1_455
Pm20 S4 2.828256 1_555
Pm20 S56 2.828256 1_555
Pm20 S40 2.828288 1_555
Pm20 S32 2.828288 1_555
Pm20 S20 2.828288 1_555
Pm20 S28 2.828288 1_555
Pm21 S5 2.828256 1_555
Pm21 S57 2.828256 1_555
Pm21 S41 2.828288 1_555
Pm21 S21 2.828288 1_555
Pm21 S33 2.828288 1_555
Pm21 S29 2.828288 1_555
Pm22 S6 2.828256 1_555
Pm22 S58 2.828256 1_555
Pm22 S34 2.828288 1_555
Pm22 S42 2.828288 1_555
Pm22 S30 2.828288 1_555
Pm22 S22 2.828288 1_555
Pm23 S7 2.828256 1_555
Pm23 S59 2.828256 1_555
Pm23 S35 2.828288 1_555
Pm23 S43 2.828288 1_555
Pm23 S31 2.828288 1_555
Pm23 S23 2.828288 1_555
Pm24 S8 2.828255 1_555
Pm24 S48 2.828255 1_555
Pm24 S16 2.828276 1_555
Pm24 S24 2.828276 1_555
Pm24 S40 2.828276 1_555
Pm24 S32 2.828276 1_555
Pm25 S9 2.828255 1_555
Pm25 S49 2.828255 1_555
Pm25 S25 2.828276 1_555
Pm25 S17 2.828276 1_555
Pm25 S41 2.828276 1_555
Pm25 S33 2.828276 1_555
Pm26 S50 2.828255 1_555
Pm26 S10 2.828255 1_555
Pm26 S18 2.828276 1_555
Pm26 S26 2.828276 1_555
Pm26 S34 2.828276 1_555
Pm26 S42 2.828276 1_555
Pm27 S51 2.828255 1_555
Pm27 S11 2.828255 1_555
Pm27 S27 2.828276 1_555
Pm27 S19 2.828276 1_555
Pm27 S35 2.828276 1_555
Pm27 S43 2.828276 1_555
Pm28 S12 2.828255 1_555
Pm28 S52 2.828255 1_555
Pm28 S20 2.828276 1_555
Pm28 S28 2.828276 1_555
Pm28 S44 2.828276 1_555
Pm28 S36 2.828276 1_555
Pm29 S13 2.828255 1_555
Pm29 S53 2.828255 1_555
Pm29 S29 2.828276 1_555
Pm29 S21 2.828276 1_555
Pm29 S37 2.828276 1_555
Pm29 S45 2.828276 1_555
Pm30 S54 2.828255 1_555
Pm30 S14 2.828255 1_555
Pm30 S22 2.828276 1_555
Pm30 S30 2.828276 1_555
Pm30 S46 2.828276 1_555
Pm30 S38 2.828276 1_555
Pm31 S15 2.828255 1_555
Pm31 S55 2.828255 1_555
Pm31 S31 2.828276 1_555
Pm31 S47 2.828276 1_555
Pm31 S23 2.828276 1_555
Pm31 S39 2.828276 1_555
Mg0 S45 2.530638 1_454
Mg0 S38 2.530638 1_445
Mg0 S51 2.530638 1_544
Mg0 S63 2.530651 1_444
Mg1 S39 2.530638 1_445
Mg1 S44 2.530638 1_455
Mg1 S50 2.530638 1_545
Mg1 S62 2.530651 1_445
Mg2 S47 2.530638 1_454
Mg2 S36 2.530638 1_455
Mg2 S49 2.530638 1_554
Mg2 S61 2.530651 1_454
Mg3 S46 2.530638 1_455
Mg3 S37 2.530638 1_455
Mg3 S48 2.530638 1_555
Mg3 S60 2.530651 1_455
Mg4 S41 2.530638 1_554
Mg4 S34 2.530638 1_545
Mg4 S55 2.530638 1_544
Mg4 S59 2.530651 1_544
Mg5 S35 2.530638 1_545
Mg5 S40 2.530638 1_555
Mg5 S54 2.530638 1_545
Mg5 S58 2.530651 1_545
Mg6 S43 2.530638 1_554
Mg6 S32 2.530638 1_555
Mg6 S53 2.530638 1_554
Mg6 S57 2.530651 1_554
Mg7 S42 2.530638 1_555
Mg7 S33 2.530638 1_555
Mg7 S52 2.530638 1_555
Mg7 S56 2.530651 1_555
Mg8 S18 2.530638 1_545
Mg8 S25 2.530638 1_554
Mg8 S12 2.530638 1_455
Mg8 S0 2.530651 1_555
Mg9 S19 2.530638 1_545
Mg9 S24 2.530638 1_555
Mg9 S13 2.530638 1_455
Mg9 S1 2.530651 1_555
Mg10 S27 2.530638 1_554
Mg10 S16 2.530638 1_555
Mg10 S14 2.530638 1_455
Mg10 S2 2.530651 1_555
Mg11 S17 2.530638 1_555
Mg11 S26 2.530638 1_555
Mg11 S15 2.530638 1_455
Mg11 S3 2.530651 1_555
Mg12 S29 2.530638 1_554
Mg12 S22 2.530638 1_545
Mg12 S8 2.530638 1_555
Mg12 S4 2.530651 1_555
Mg13 S23 2.530638 1_545
Mg13 S28 2.530638 1_555
Mg13 S9 2.530638 1_555
Mg13 S5 2.530651 1_555
Mg14 S31 2.530638 1_554
Mg14 S20 2.530638 1_555
Mg14 S10 2.530638 1_555
Mg14 S6 2.530651 1_555
Mg15 S21 2.530638 1_555
Mg15 S30 2.530638 1_555
Mg15 S11 2.530638 1_555
Mg15 S7 2.530651 1_555
