# generated using pymatgen
data_Sr2Mn2O5
_symmetry_space_group_name_H-M   'P 1'
_cell_length_a   3.80136128
_cell_length_b   5.52659107
_cell_length_c   10.86312003
_cell_angle_alpha   89.99979621
_cell_angle_beta   89.99999187
_cell_angle_gamma   89.99998648
_symmetry_Int_Tables_number   1
_chemical_formula_structural   Sr2Mn2O5
_chemical_formula_sum   'Sr4 Mn4 O10'
_cell_volume   228.21861001
_cell_formula_units_Z   2
loop_
 _symmetry_equiv_pos_site_id
 _symmetry_equiv_pos_as_xyz
  1  'x, y, z'
loop_
 _atom_site_type_symbol
 _atom_site_label
 _atom_site_symmetry_multiplicity
 _atom_site_fract_x
 _atom_site_fract_y
 _atom_site_fract_z
 _atom_site_occupancy
  Sr  Sr0  1  0.00000007  0.21639473  0.86664119  1
  Sr  Sr1  1  -0.00000007  0.78360427  0.13335881  1
  Sr  Sr2  1  0.00000002  0.71639758  0.63334330  1
  Sr  Sr3  1  -0.00000002  0.28360342  0.36665770  1
  Mn  Mn0  1  0.49999904  0.24180459  0.62385712  1
  Mn  Mn1  1  0.49999896  0.75819641  0.37614288  1
  Mn  Mn2  1  0.49999909  0.74182251  0.87613212  1
  Mn  Mn3  1  0.49999891  0.25817749  0.12386788  1
  O  O0  1  0.49999900  0.50000000  0.50000000  1
  O  O1  1  0.49999900  0.00000000  -0.00000000  1
  O  O2  1  0.49999895  0.97511951  0.73255332  1
  O  O3  1  0.49999905  0.02488149  0.26744668  1
  O  O4  1  0.49999913  0.47510284  0.76741763  1
  O  O5  1  0.49999887  0.52489616  0.23258237  1
  O  O6  1  0.00000003  0.20473110  0.60163725  1
  O  O7  1  -0.00000003  0.79526790  0.39836275  1
  O  O8  1  -0.00000008  0.29527389  0.10165472  1
  O  O9  1  0.00000008  0.70472511  0.89834528  1
loop_
_geom_bond_atom_site_label_1
_geom_bond_atom_site_label_2
_geom_bond_distance
_geom_bond_site_symmetry_2
Mn0 O2 1.888515 1_545
Mn0 O6 1.926867 1_555
Mn0 O6 1.926874 1_655
Mn0 O0 1.961236 1_555
Mn0 O4 2.023489 1_555
Mn1 O3 1.888515 1_565
Mn1 O7 1.926865 1_555
Mn1 O7 1.926873 1_655
Mn1 O0 1.961240 1_555
Mn1 O5 2.023496 1_555
Mn2 O4 1.888795 1_555
Mn2 O9 1.926872 1_555
Mn2 O9 1.926879 1_655
Mn2 O1 1.961251 1_566
Mn2 O2 2.023631 1_555
Mn3 O5 1.888791 1_555
Mn3 O8 1.926871 1_555
Mn3 O8 1.926878 1_655
Mn3 O1 1.961251 1_555
Mn3 O3 2.023628 1_555
O0 Sr3 2.672272 1_555
O0 Sr3 2.672277 1_655
O0 Sr2 2.672280 1_555
O0 Sr2 2.672286 1_655
O1 Sr0 2.672360 1_554
O1 Sr1 2.672363 1_545
O1 Sr0 2.672366 1_654
O1 Sr1 2.672368 1_645
O2 Sr2 2.611237 1_555
O2 Sr2 2.611242 1_655
O2 Sr0 2.740864 1_565
O2 Sr0 2.740871 1_665
O3 Sr3 2.611241 1_555
O3 Sr3 2.611247 1_655
O3 Sr1 2.740871 1_545
O3 Sr1 2.740875 1_645
O4 Sr0 2.611252 1_555
O4 Sr0 2.611257 1_655
O4 Sr2 2.740834 1_555
O4 Sr2 2.740839 1_655
O5 Sr1 2.611251 1_555
O5 Sr1 2.611257 1_655
O5 Sr3 2.740834 1_555
O5 Sr3 2.740840 1_655
O6 Sr3 2.589560 1_555
O6 Sr2 2.720708 1_545
O6 Sr2 2.848671 1_555
O6 Sr0 2.879491 1_555
O7 Sr2 2.589569 1_555
O7 Sr3 2.720717 1_565
O7 Sr3 2.848659 1_555
O7 Sr1 2.879491 1_555
O8 Sr0 2.589933 1_554
O8 Sr1 2.720690 1_555
O8 Sr1 2.848683 1_545
O8 Sr3 2.879481 1_555
O9 Sr1 2.589933 1_556
O9 Sr0 2.720690 1_555
O9 Sr0 2.848683 1_565
O9 Sr2 2.879471 1_555
