# generated using pymatgen
data_Li9Mn2Co5O16
_symmetry_space_group_name_H-M   'P 1'
_cell_length_a   5.89127800
_cell_length_b   6.44995373
_cell_length_c   8.62045514
_cell_angle_alpha   83.02339693
_cell_angle_beta   109.49935092
_cell_angle_gamma   114.16533778
_symmetry_Int_Tables_number   1
_chemical_formula_structural   Li9Mn2Co5O16
_chemical_formula_sum   'Li9 Mn2 Co5 O16'
_cell_volume   281.67411638
_cell_formula_units_Z   1
loop_
 _symmetry_equiv_pos_site_id
 _symmetry_equiv_pos_as_xyz
  1  'x, y, z'
loop_
 _atom_site_type_symbol
 _atom_site_label
 _atom_site_symmetry_multiplicity
 _atom_site_fract_x
 _atom_site_fract_y
 _atom_site_fract_z
 _atom_site_occupancy
  Li  Li0  1  0.75740900  0.74492100  0.25717700  1
  Li  Li1  1  0.25197700  0.99810800  0.49905000  1
  Li  Li2  1  0.24615300  0.74747700  0.25491600  1
  Li  Li3  1  0.74802300  0.00189200  0.50095000  1
  Li  Li4  1  0.75384700  0.25252300  0.74508400  1
  Li  Li5  1  0.24259100  0.25507900  0.74282300  1
  Li  Li6  1  0.24421500  0.50081800  0.00019000  1
  Li  Li7  1  0.75578500  0.49918200  0.99981000  1
  Li  Li8  1  0.00000000  0.50000000  0.50000000  1
  Mn  Mn0  1  0.00000000  0.00000000  0.00000000  1
  Mn  Mn1  1  0.50000000  0.50000000  0.50000000  1
  Co  Co0  1  0.51586200  0.25844800  0.25464600  1
  Co  Co1  1  0.48413800  0.74155200  0.74535400  1
  Co  Co2  1  0.50000000  0.00000000  0.00000000  1
  Co  Co3  1  0.00137800  0.25423300  0.25128300  1
  Co  Co4  1  0.99862200  0.74576700  0.74871700  1
  O  O0  1  0.11260000  0.01246100  0.23732900  1
  O  O1  1  0.61060100  0.25712100  0.48915800  1
  O  O2  1  0.60798300  0.01093100  0.23416700  1
  O  O3  1  0.14867000  0.26939600  0.48566300  1
  O  O4  1  0.12622000  0.52066300  0.75449400  1
  O  O5  1  0.60090100  0.50381400  0.73790900  1
  O  O6  1  0.64666100  0.77927800  0.99067100  1
  O  O7  1  0.11477900  0.76209300  0.99028600  1
  O  O8  1  0.39909900  0.49618600  0.26209100  1
  O  O9  1  0.85133000  0.73060400  0.51433700  1
  O  O10  1  0.87378000  0.47933700  0.24550600  1
  O  O11  1  0.38939900  0.74287900  0.51084200  1
  O  O12  1  0.39201700  0.98906900  0.76583300  1
  O  O13  1  0.88740000  0.98753900  0.76267100  1
  O  O14  1  0.88522100  0.23790700  0.00971400  1
  O  O15  1  0.35333900  0.22072200  0.00932900  1
loop_
_geom_bond_atom_site_label_1
_geom_bond_atom_site_label_2
_geom_bond_distance
_geom_bond_site_symmetry_2
Li0 O8 2.074133 1_555
Li0 O9 2.098160 1_555
Li0 O10 2.112808 1_555
Li0 O0 2.143970 1_665
Li0 O6 2.178733 1_554
Li0 O2 2.189857 1_565
Li1 O3 2.054624 1_565
Li1 O11 2.090787 1_555
Li1 O1 2.111351 1_565
Li1 O0 2.132551 1_565
Li1 O12 2.170998 1_555
Li1 O9 2.320251 1_455
Li2 O11 2.083753 1_555
Li2 O0 2.126404 1_565
Li2 O8 2.139372 1_555
Li2 O10 2.149228 1_455
Li2 O7 2.154234 1_554
Li2 O2 2.162967 1_565
Li3 O9 2.054624 1_545
Li3 O1 2.090787 1_555
Li3 O11 2.111351 1_545
Li3 O13 2.132551 1_545
Li3 O2 2.170998 1_555
Li3 O3 2.320251 1_655
Li4 O1 2.083753 1_555
Li4 O13 2.126404 1_545
Li4 O5 2.139372 1_555
Li4 O4 2.149228 1_655
Li4 O14 2.154234 1_556
Li4 O12 2.162967 1_545
Li5 O5 2.074133 1_555
Li5 O3 2.098160 1_555
Li5 O4 2.112808 1_555
Li5 O13 2.143970 1_445
Li5 O15 2.178733 1_556
Li5 O12 2.189857 1_545
Li6 O4 2.002414 1_554
Li6 O7 2.098192 1_554
Li6 O14 2.121565 1_455
Li6 O8 2.135735 1_555
Li6 O15 2.136785 1_555
Li6 O6 2.336972 1_554
Li7 O10 2.002414 1_556
Li7 O14 2.098192 1_556
Li7 O7 2.121565 1_655
Li7 O5 2.135735 1_555
Li7 O6 2.136785 1_555
Li7 O15 2.336972 1_556
Li8 O9 2.044075 1_455
Li8 O3 2.044075 1_555
Li8 O4 2.069906 1_555
Li8 O10 2.069906 1_455
Li8 O11 2.162313 1_555
Li8 O1 2.162313 1_455
Mn0 O0 1.929356 1_555
Mn0 O13 1.929356 1_444
Mn0 O7 1.933252 1_544
Mn0 O14 1.933252 1_455
Mn0 O15 1.963694 1_555
Mn0 O6 1.963694 1_444
Mn1 O5 1.935586 1_555
Mn1 O8 1.935586 1_555
Mn1 O1 1.949191 1_555
Mn1 O11 1.949191 1_555
Mn1 O9 1.965940 1_555
Mn1 O3 1.965940 1_555
Co0 O1 1.909163 1_555
Co0 O2 1.927753 1_555
Co0 O8 1.935356 1_555
Co0 O15 2.007638 1_555
Co0 O10 2.026382 1_555
Co0 O0 2.217733 1_555
Co1 O11 1.909163 1_555
Co1 O12 1.927753 1_555
Co1 O5 1.935356 1_555
Co1 O6 2.007638 1_555
Co1 O4 2.026382 1_555
Co1 O13 2.217733 1_555
Co2 O2 1.903962 1_555
Co2 O12 1.903962 1_544
Co2 O6 1.964961 1_544
Co2 O15 1.964961 1_555
Co2 O14 2.136626 1_555
Co2 O7 2.136626 1_544
Co3 O10 1.877934 1_455
Co3 O3 1.911250 1_555
Co3 O0 1.952016 1_555
Co3 O14 1.964392 1_455
Co3 O2 2.169311 1_455
Co3 O8 2.197712 1_555
Co4 O4 1.877934 1_655
Co4 O9 1.911250 1_555
Co4 O13 1.952016 1_555
Co4 O7 1.964392 1_655
Co4 O12 2.169311 1_655
Co4 O5 2.197712 1_555
