# generated using pymatgen
data_NaMgIn2
_symmetry_space_group_name_H-M   'P 1'
_cell_length_a   12.27513115
_cell_length_b   12.43847146
_cell_length_c   12.43847156
_cell_angle_alpha   60.74118606
_cell_angle_beta   60.43345466
_cell_angle_gamma   60.43345548
_symmetry_Int_Tables_number   1
_chemical_formula_structural   NaMgIn2
_chemical_formula_sum   'Na1 Mg1 In2'
_cell_volume   1359.14333904
_cell_formula_units_Z   1
loop_
 _symmetry_equiv_pos_site_id
 _symmetry_equiv_pos_as_xyz
  1  'x, y, z'
loop_
 _atom_site_type_symbol
 _atom_site_label
 _atom_site_symmetry_multiplicity
 _atom_site_fract_x
 _atom_site_fract_y
 _atom_site_fract_z
 _atom_site_occupancy
  Na  Na0  1  -0.00000000  0.00000000  0.00000000  1
  Mg  Mg0  1  0.50000000  0.00000000  0.00000000  1
  In  In0  1  0.74008768  0.00000000  0.00000000  1
  In  In1  1  0.25991232  1.00000000  1.00000000  1
loop_
_geom_bond_atom_site_label_1
_geom_bond_atom_site_label_2
_geom_bond_distance
_geom_bond_site_symmetry_2
In0 Mg0 2.947108 1_555
In0 Na0 3.190458 1_655
In1 Mg0 2.947108 1_566
In1 Na0 3.190458 1_566
