# generated using pymatgen
data_Fe(Mo3Se4)2
_symmetry_space_group_name_H-M   'P 1'
_cell_length_a   6.73563841
_cell_length_b   6.73563841
_cell_length_c   6.73563847
_cell_angle_alpha   92.44442247
_cell_angle_beta   92.44442247
_cell_angle_gamma   92.44442679
_symmetry_Int_Tables_number   1
_chemical_formula_structural   Fe(Mo3Se4)2
_chemical_formula_sum   'Fe1 Mo6 Se8'
_cell_volume   304.72926730
_cell_formula_units_Z   1
loop_
 _symmetry_equiv_pos_site_id
 _symmetry_equiv_pos_as_xyz
  1  'x, y, z'
loop_
 _atom_site_type_symbol
 _atom_site_label
 _atom_site_symmetry_multiplicity
 _atom_site_fract_x
 _atom_site_fract_y
 _atom_site_fract_z
 _atom_site_occupancy
  Fe  Fe0  1  0.00000000  0.00000000  0.00000000  1
  Mo  Mo0  1  0.22671200  0.54653600  0.42018700  1
  Mo  Mo1  1  0.77328800  0.45346400  0.57981300  1
  Mo  Mo2  1  0.42018700  0.22671200  0.54653600  1
  Mo  Mo3  1  0.57981300  0.77328800  0.45346400  1
  Mo  Mo4  1  0.54653600  0.42018700  0.22671200  1
  Mo  Mo5  1  0.45346400  0.57981300  0.77328800  1
  Se  Se0  1  0.12741900  0.36448800  0.74841700  1
  Se  Se1  1  0.87258100  0.63551200  0.25158300  1
  Se  Se2  1  0.21616500  0.21616500  0.21616500  1
  Se  Se3  1  0.78383500  0.78383500  0.78383500  1
  Se  Se4  1  0.36448800  0.74841700  0.12741900  1
  Se  Se5  1  0.63551200  0.25158300  0.87258100  1
  Se  Se6  1  0.74841700  0.12741900  0.36448800  1
  Se  Se7  1  0.25158300  0.87258100  0.63551200  1
loop_
_geom_bond_atom_site_label_1
_geom_bond_atom_site_label_2
_geom_bond_distance
_geom_bond_site_symmetry_2
Fe0 Se2 2.411926 1_555
Fe0 Se3 2.411926 1_444
Fe0 Se1 3.151933 1_445
Fe0 Se0 3.151933 1_554
Fe0 Se6 3.151933 1_455
Fe0 Se7 3.151933 1_544
Fe0 Se5 3.151933 1_454
Fe0 Se4 3.151933 1_545
Mo0 Se2 2.561766 1_555
Mo0 Se7 2.575020 1_555
Mo0 Se4 2.622241 1_555
Mo0 Se0 2.669478 1_555
Mo0 Se1 2.699530 1_455
Mo1 Se3 2.561766 1_555
Mo1 Se6 2.575020 1_555
Mo1 Se5 2.622241 1_555
Mo1 Se1 2.669478 1_555
Mo1 Se0 2.699530 1_655
Mo2 Se2 2.561766 1_555
Mo2 Se5 2.575020 1_555
Mo2 Se0 2.622241 1_555
Mo2 Se6 2.669478 1_555
Mo2 Se7 2.699530 1_545
Mo3 Se3 2.561766 1_555
Mo3 Se4 2.575020 1_555
Mo3 Se1 2.622241 1_555
Mo3 Se7 2.669478 1_555
Mo3 Se6 2.699530 1_565
Mo4 Se2 2.561765 1_555
Mo4 Se1 2.575020 1_555
Mo4 Se6 2.622241 1_555
Mo4 Se4 2.669478 1_555
Mo4 Se5 2.699530 1_554
Mo5 Se3 2.561765 1_555
Mo5 Se0 2.575020 1_555
Mo5 Se7 2.622241 1_555
Mo5 Se5 2.669478 1_555
Mo5 Se4 2.699530 1_556
