# generated using pymatgen
data_Tm3(SiNi3)2
_symmetry_space_group_name_H-M   'P 1'
_cell_length_a   7.53044942
_cell_length_b   7.53044942
_cell_length_c   7.53044942
_cell_angle_alpha   109.47122063
_cell_angle_beta   109.47122063
_cell_angle_gamma   109.47122063
_symmetry_Int_Tables_number   1
_chemical_formula_structural   Tm3(SiNi3)2
_chemical_formula_sum   'Tm6 Si4 Ni12'
_cell_volume   328.73110290
_cell_formula_units_Z   2
loop_
 _symmetry_equiv_pos_site_id
 _symmetry_equiv_pos_as_xyz
  1  'x, y, z'
loop_
 _atom_site_type_symbol
 _atom_site_label
 _atom_site_symmetry_multiplicity
 _atom_site_fract_x
 _atom_site_fract_y
 _atom_site_fract_z
 _atom_site_occupancy
  Tm  Tm0  1  0.71490700  0.71490700  0.00000000  1
  Tm  Tm1  1  0.28509300  0.00000000  0.28509300  1
  Tm  Tm2  1  0.00000000  0.28509300  0.28509300  1
  Tm  Tm3  1  0.28509300  0.28509300  0.00000000  1
  Tm  Tm4  1  0.71490700  0.00000000  0.71490700  1
  Tm  Tm5  1  0.00000000  0.71490700  0.71490700  1
  Si  Si0  1  0.00000000  0.00000000  0.50000000  1
  Si  Si1  1  0.00000000  0.50000000  0.00000000  1
  Si  Si2  1  0.50000000  0.00000000  0.00000000  1
  Si  Si3  1  0.50000000  0.50000000  0.50000000  1
  Ni  Ni0  1  0.33138300  0.33138300  0.66276700  1
  Ni  Ni1  1  0.66861700  0.00000000  0.33138300  1
  Ni  Ni2  1  0.00000000  0.66861700  0.33138300  1
  Ni  Ni3  1  0.66861700  0.33138300  0.00000000  1
  Ni  Ni4  1  0.33138300  0.66276700  0.33138300  1
  Ni  Ni5  1  0.00000000  0.33138300  0.66861700  1
  Ni  Ni6  1  0.33138300  0.66861700  0.00000000  1
  Ni  Ni7  1  0.33138300  0.00000000  0.66861700  1
  Ni  Ni8  1  0.66276700  0.33138300  0.33138300  1
  Ni  Ni9  1  0.66861700  0.66861700  0.33723300  1
  Ni  Ni10  1  0.66861700  0.33723300  0.66861700  1
  Ni  Ni11  1  0.33723300  0.66861700  0.66861700  1
loop_
_geom_bond_atom_site_label_1
_geom_bond_atom_site_label_2
_geom_bond_distance
_geom_bond_site_symmetry_2
Si0 Tm5 3.089400 1_545
Si0 Tm4 3.089400 1_455
Si0 Tm1 3.089400 1_555
Si0 Tm3 3.089400 1_556
Si0 Tm2 3.089400 1_555
Si0 Tm0 3.089400 1_445
Si1 Tm3 3.089400 1_555
Si1 Tm5 3.089400 1_554
Si1 Tm4 3.089400 1_454
Si1 Tm2 3.089400 1_555
Si1 Tm0 3.089400 1_455
Si1 Tm1 3.089400 1_565
Si2 Tm5 3.089400 1_544
Si2 Tm2 3.089400 1_655
Si2 Tm4 3.089400 1_554
Si2 Tm3 3.089400 1_555
Si2 Tm1 3.089400 1_555
Si2 Tm0 3.089400 1_545
Si3 Tm3 3.089400 1_555
Si3 Tm4 3.089400 1_565
Si3 Tm1 3.089400 1_555
Si3 Tm5 3.089400 1_655
Si3 Tm2 3.089400 1_555
Si3 Tm0 3.089400 1_556
Ni0 Si0 2.393156 1_555
Ni0 Si3 2.393164 1_555
Ni0 Ni7 2.510491 1_555
Ni0 Ni5 2.510491 1_555
Ni0 Ni10 2.510498 1_555
Ni0 Ni11 2.510498 1_555
Ni0 Tm3 2.791321 1_556
Ni0 Tm0 2.791327 1_556
Ni0 Tm1 2.909494 1_555
Ni0 Tm2 2.909494 1_555
Ni1 Si2 2.393157 1_555
Ni1 Si0 2.393157 1_655
Ni1 Ni9 2.510491 1_545
Ni1 Ni8 2.510491 1_555
Ni1 Ni6 2.510494 1_545
Ni1 Ni5 2.510494 1_655
Ni1 Tm4 2.791328 1_555
Ni1 Tm1 2.791328 1_555
Ni1 Tm2 2.909489 1_655
Ni1 Tm0 2.909489 1_545
Ni2 Si1 2.393157 1_555
Ni2 Si0 2.393157 1_565
Ni2 Ni9 2.510491 1_455
Ni2 Ni4 2.510491 1_555
Ni2 Ni3 2.510494 1_455
Ni2 Ni7 2.510494 1_565
Ni2 Tm5 2.791328 1_555
Ni2 Tm2 2.791328 1_555
Ni2 Tm0 2.909489 1_455
Ni2 Tm1 2.909489 1_565
Ni3 Si2 2.393157 1_555
Ni3 Si1 2.393157 1_655
Ni3 Ni8 2.510491 1_555
Ni3 Ni7 2.510494 1_554
Ni3 Tm0 2.791328 1_555
Ni3 Tm3 2.791328 1_555
Ni3 Tm2 2.909489 1_655
Ni3 Tm4 2.909489 1_554
Ni4 Si1 2.393156 1_555
Ni4 Si3 2.393164 1_555
Ni4 Ni6 2.510491 1_555
Ni4 Ni9 2.510498 1_555
Ni4 Tm1 2.791321 1_565
Ni4 Tm4 2.791327 1_565
Ni4 Tm2 2.909494 1_555
Ni4 Tm3 2.909494 1_555
Ni5 Si0 2.393157 1_555
Ni5 Si1 2.393157 1_556
Ni5 Ni6 2.510494 1_556
Ni5 Tm5 2.791328 1_555
Ni5 Tm2 2.791328 1_555
Ni5 Tm4 2.909489 1_455
Ni5 Tm3 2.909489 1_556
Ni6 Si2 2.393157 1_565
Ni6 Si1 2.393157 1_555
Ni6 Tm0 2.791328 1_555
Ni6 Tm3 2.791328 1_555
Ni6 Tm5 2.909489 1_554
Ni6 Tm1 2.909489 1_565
Ni7 Si0 2.393157 1_555
Ni7 Si2 2.393157 1_556
Ni7 Tm4 2.791328 1_555
Ni7 Tm1 2.791328 1_555
Ni7 Tm5 2.909489 1_545
Ni7 Tm3 2.909489 1_556
Ni8 Si2 2.393156 1_555
Ni8 Si3 2.393164 1_555
Ni8 Ni9 2.510498 1_555
Ni8 Tm2 2.791321 1_655
Ni8 Tm5 2.791327 1_655
Ni8 Tm1 2.909494 1_555
Ni8 Tm3 2.909494 1_555
Ni9 Si0 2.393156 1_665
Ni9 Si3 2.393164 1_555
Ni9 Tm0 2.791321 1_555
Ni9 Tm3 2.791327 1_555
Ni9 Tm4 2.909494 1_565
Ni9 Tm5 2.909494 1_655
Ni10 Si1 2.393156 1_656
Ni10 Si3 2.393164 1_555
Ni10 Ni3 2.510491 1_556
Ni10 Ni5 2.510491 1_655
Ni10 Ni8 2.510498 1_555
Ni10 Tm4 2.791321 1_555
Ni10 Tm1 2.791327 1_555
Ni10 Tm5 2.909494 1_655
Ni10 Tm0 2.909494 1_556
Ni11 Si2 2.393156 1_566
Ni11 Si3 2.393164 1_555
Ni11 Ni6 2.510491 1_556
Ni11 Ni7 2.510491 1_565
Ni11 Ni4 2.510498 1_555
Ni11 Tm5 2.791321 1_555
Ni11 Tm2 2.791327 1_555
Ni11 Tm4 2.909494 1_565
Ni11 Tm0 2.909494 1_556
