# generated using pymatgen
data_CdGa(AgS2)2
_symmetry_space_group_name_H-M   'P 1'
_cell_length_a   6.75080300
_cell_length_b   7.12440300
_cell_length_c   7.81913500
_cell_angle_alpha   90.00000000
_cell_angle_beta   90.00000000
_cell_angle_gamma   90.00000000
_symmetry_Int_Tables_number   1
_chemical_formula_structural   CdGa(AgS2)2
_chemical_formula_sum   'Cd2 Ga2 Ag4 S8'
_cell_volume   376.06474720
_cell_formula_units_Z   2
loop_
 _symmetry_equiv_pos_site_id
 _symmetry_equiv_pos_as_xyz
  1  'x, y, z'
loop_
 _atom_site_type_symbol
 _atom_site_label
 _atom_site_symmetry_multiplicity
 _atom_site_fract_x
 _atom_site_fract_y
 _atom_site_fract_z
 _atom_site_occupancy
  Cd  Cd0  1  0.50731100  0.34858700  0.00000000  1
  Cd  Cd1  1  0.00731100  0.65141300  0.50000000  1
  Ga  Ga0  1  0.99977400  0.67085800  0.00000000  1
  Ga  Ga1  1  0.49977400  0.32914200  0.50000000  1
  Ag  Ag0  1  0.51448400  0.82535700  0.75046300  1
  Ag  Ag1  1  0.01448400  0.17464300  0.74953700  1
  Ag  Ag2  1  0.01448400  0.17464300  0.25046300  1
  Ag  Ag3  1  0.51448400  0.82535700  0.24953700  1
  S  S0  1  0.88972400  0.36250400  0.00000000  1
  S  S1  1  0.38972400  0.63749600  0.50000000  1
  S  S2  1  0.89060800  0.83183800  0.76391100  1
  S  S3  1  0.39060800  0.16816200  0.73608900  1
  S  S4  1  0.39060800  0.16816200  0.26391100  1
  S  S5  1  0.89060800  0.83183800  0.23608900  1
  S  S6  1  0.34550700  0.67469600  0.00000000  1
  S  S7  1  0.84550700  0.32530400  0.50000000  1
loop_
_geom_bond_atom_site_label_1
_geom_bond_atom_site_label_2
_geom_bond_distance
_geom_bond_site_symmetry_2
Cd0 S3 2.555633 1_554
Cd0 S4 2.555633 1_555
Cd0 S6 2.567295 1_555
Cd0 S0 2.583498 1_555
Cd1 S2 2.555633 1_455
Cd1 S5 2.555633 1_455
Cd1 S7 2.567295 1_455
Cd1 S1 2.583498 1_555
Ga0 S5 2.294824 1_555
Ga0 S2 2.294824 1_554
Ga0 S0 2.319059 1_555
Ga0 S6 2.334136 1_655
Ga1 S4 2.294824 1_555
Ga1 S3 2.294824 1_555
Ga1 S1 2.319059 1_555
Ga1 S7 2.334136 1_555
Ag0 S6 2.502085 1_556
Ag0 S1 2.517142 1_555
Ag0 S2 2.541735 1_555
Ag0 S3 2.583932 1_565
Ag1 S7 2.502085 1_455
Ag1 S0 2.517142 1_456
Ag1 S3 2.541735 1_555
Ag1 S2 2.583932 1_445
Ag2 S7 2.502085 1_455
Ag2 S0 2.517142 1_455
Ag2 S4 2.541735 1_555
Ag2 S5 2.583932 1_445
Ag3 S6 2.502085 1_555
Ag3 S1 2.517142 1_555
Ag3 S5 2.541735 1_555
Ag3 S4 2.583932 1_565
