# generated using pymatgen
data_CoPNO10
_symmetry_space_group_name_H-M   'P 1'
_cell_length_a   5.03151300
_cell_length_b   6.30952000
_cell_length_c   11.08746300
_cell_angle_alpha   90.00000000
_cell_angle_beta   90.00000000
_cell_angle_gamma   90.00000000
_symmetry_Int_Tables_number   1
_chemical_formula_structural   CoPNO10
_chemical_formula_sum   'Co2 P2 N2 O20'
_cell_volume   351.98738911
_cell_formula_units_Z   2
loop_
 _symmetry_equiv_pos_site_id
 _symmetry_equiv_pos_as_xyz
  1  'x, y, z'
loop_
 _atom_site_type_symbol
 _atom_site_label
 _atom_site_symmetry_multiplicity
 _atom_site_fract_x
 _atom_site_fract_y
 _atom_site_fract_z
 _atom_site_occupancy
  Co  Co0  1  0.67658900  0.50000000  0.23039700  1
  Co  Co1  1  0.32341100  0.00000000  0.73039700  1
  P  P0  1  0.16206300  0.50000000  0.43051700  1
  P  P1  1  0.83793700  0.00000000  0.93051700  1
  N  N0  1  0.77597500  0.50000000  0.83552600  1
  N  N1  1  0.22402500  0.00000000  0.33552600  1
  O  O0  1  0.53827300  0.89756900  0.59462300  1
  O  O1  1  0.46172700  0.60243100  0.09462300  1
  O  O2  1  0.46172700  0.39756900  0.09462300  1
  O  O3  1  0.53827300  0.10243100  0.59462300  1
  O  O4  1  0.22395400  0.77029500  0.82582600  1
  O  O5  1  0.77604600  0.72970500  0.32582600  1
  O  O6  1  0.77604600  0.27029500  0.32582600  1
  O  O7  1  0.22395400  0.22970500  0.82582600  1
  O  O8  1  0.27740900  0.50000000  0.55243600  1
  O  O9  1  0.72259100  0.00000000  0.05243600  1
  O  O10  1  0.91540000  0.50000000  0.75630400  1
  O  O11  1  0.08460000  0.00000000  0.25630400  1
  O  O12  1  0.05397400  0.79712500  0.92774500  1
  O  O13  1  0.94602600  0.70287500  0.42774500  1
  O  O14  1  0.94602600  0.29712500  0.42774500  1
  O  O15  1  0.05397400  0.20287500  0.92774500  1
  O  O16  1  0.31700500  0.50000000  0.31422300  1
  O  O17  1  0.68299500  0.00000000  0.81422300  1
  O  O18  1  0.93628700  0.50000000  0.14460900  1
  O  O19  1  0.06371300  0.00000000  0.64460900  1
loop_
_geom_bond_atom_site_label_1
_geom_bond_atom_site_label_2
_geom_bond_distance
_geom_bond_site_symmetry_2
Co0 O18 1.616206 1_555
Co0 O6 1.862921 1_555
Co0 O5 1.862921 1_555
Co0 O2 1.962810 1_555
Co0 O1 1.962810 1_555
Co0 O16 2.034013 1_555
Co1 O19 1.616206 1_555
Co1 O7 1.862921 1_555
Co1 O4 1.862921 1_545
Co1 O0 1.962810 1_545
Co1 O3 1.962810 1_555
Co1 O17 2.034013 1_555
N0 O10 1.124128 1_555
N1 O11 1.124128 1_555
O0 O3 1.292581 1_565
O1 O2 1.292581 1_555
O8 P0 1.471092 1_555
O9 P1 1.471092 1_554
O12 O4 1.427261 1_555
O12 P1 1.679586 1_465
O13 O5 1.427261 1_555
O13 P0 1.679586 1_655
O14 O6 1.427261 1_555
O14 P0 1.679586 1_655
O15 O7 1.427261 1_555
O15 P1 1.679586 1_455
O16 P0 1.506762 1_555
O17 P1 1.506762 1_555
