# generated using pymatgen
data_Fe4Ni3(PO4)6
_symmetry_space_group_name_H-M   'P 1'
_cell_length_a   6.38020900
_cell_length_b   8.00470900
_cell_length_c   9.32780890
_cell_angle_alpha   104.49160157
_cell_angle_beta   108.49847658
_cell_angle_gamma   101.22832392
_symmetry_Int_Tables_number   1
_chemical_formula_structural   Fe4Ni3(PO4)6
_chemical_formula_sum   'Fe4 Ni3 P6 O24'
_cell_volume   417.45206432
_cell_formula_units_Z   1
loop_
 _symmetry_equiv_pos_site_id
 _symmetry_equiv_pos_as_xyz
  1  'x, y, z'
loop_
 _atom_site_type_symbol
 _atom_site_label
 _atom_site_symmetry_multiplicity
 _atom_site_fract_x
 _atom_site_fract_y
 _atom_site_fract_z
 _atom_site_occupancy
  Fe  Fe0  1  0.38800700  0.45208800  0.11767500  1
  Fe  Fe1  1  0.61199300  0.54791200  0.88232500  1
  Fe  Fe2  1  0.95285100  0.27591200  0.47407800  1
  Fe  Fe3  1  0.04714900  0.72408800  0.52592200  1
  Ni  Ni0  1  0.73043600  0.19818700  0.72133500  1
  Ni  Ni1  1  0.26956400  0.80181300  0.27866500  1
  Ni  Ni2  1  0.00000000  0.00000000  0.00000000  1
  P  P0  1  0.39765200  0.22523600  0.37240400  1
  P  P1  1  0.60234800  0.77476400  0.62759600  1
  P  P2  1  0.23351400  0.14698700  0.77351200  1
  P  P3  1  0.76648600  0.85301300  0.22648800  1
  P  P4  1  0.09106900  0.59596800  0.83369100  1
  P  P5  1  0.90893100  0.40403200  0.16630900  1
  O  O0  1  0.78915000  0.05146200  0.29338400  1
  O  O1  1  0.21085000  0.94853800  0.70661600  1
  O  O2  1  0.45220600  0.36474800  0.29187000  1
  O  O3  1  0.54779400  0.63525200  0.70813000  1
  O  O4  1  0.27508900  0.03681900  0.23841900  1
  O  O5  1  0.72491100  0.96318100  0.76158100  1
  O  O6  1  0.53823300  0.73598200  0.22373200  1
  O  O7  1  0.46176700  0.26401800  0.77626800  1
  O  O8  1  0.63275500  0.22956600  0.49758000  1
  O  O9  1  0.36724500  0.77043400  0.50242000  1
  O  O10  1  0.75131600  0.72719600  0.53309800  1
  O  O11  1  0.24868400  0.27280400  0.46690200  1
  O  O12  1  0.11580200  0.78826500  0.92153000  1
  O  O13  1  0.76851100  0.80586700  0.05281800  1
  O  O14  1  0.23148900  0.19413300  0.94718200  1
  O  O15  1  0.12616100  0.53276800  0.16278900  1
  O  O16  1  0.87383900  0.46723200  0.83721100  1
  O  O17  1  0.93592100  0.44798100  0.34578500  1
  O  O18  1  0.06407900  0.55201900  0.65421500  1
  O  O19  1  0.97837300  0.80699400  0.33259000  1
  O  O20  1  0.02162700  0.19300600  0.66741000  1
  O  O21  1  0.69243800  0.46349200  0.08475500  1
  O  O22  1  0.30756200  0.53650800  0.91524500  1
  O  O23  1  0.88419800  0.21173500  0.07847000  1
loop_
_geom_bond_atom_site_label_1
_geom_bond_atom_site_label_2
_geom_bond_distance
_geom_bond_site_symmetry_2
Fe0 O2 1.885325 1_555
Fe0 O15 2.028658 1_555
Fe0 O21 2.049082 1_555
Fe0 O14 2.082248 1_554
Fe0 O22 2.108122 1_554
Fe0 O6 2.118133 1_555
Fe1 O3 1.885325 1_555
Fe1 O16 2.028658 1_555
Fe1 O22 2.049082 1_555
Fe1 O13 2.082248 1_556
Fe1 O21 2.108122 1_556
Fe1 O7 2.118133 1_555
Fe2 O11 1.914495 1_655
Fe2 O0 1.948402 1_555
Fe2 O20 2.023688 1_655
Fe2 O17 2.035118 1_555
Fe2 O8 2.094358 1_555
Fe2 O18 2.232860 1_655
Fe3 O10 1.914495 1_455
Fe3 O1 1.948402 1_555
Fe3 O19 2.023688 1_455
Fe3 O18 2.035118 1_555
Fe3 O9 2.094358 1_555
Fe3 O17 2.232860 1_455
Ni0 O5 2.004227 1_545
Ni0 O16 2.020792 1_555
Ni0 O7 2.062185 1_555
Ni0 O8 2.074994 1_555
Ni0 O20 2.078206 1_655
Ni1 O4 2.004227 1_565
Ni1 O15 2.020792 1_555
Ni1 O6 2.062185 1_555
Ni1 O9 2.074994 1_555
Ni1 O19 2.078206 1_455
Ni2 O12 2.040640 1_544
Ni2 O23 2.040640 1_455
Ni2 O14 2.188617 1_554
Ni2 O13 2.188617 1_445
Ni2 O5 2.259832 1_444
Ni2 O4 2.259832 1_555
O0 P3 1.513570 1_545
O1 P2 1.513570 1_565
O2 P0 1.538504 1_555
O3 P1 1.538504 1_555
O4 P0 1.557356 1_555
O5 P1 1.557356 1_555
O6 P3 1.559475 1_555
O7 P2 1.559475 1_555
O8 P0 1.569287 1_555
O9 P1 1.569287 1_555
O10 P1 1.526397 1_555
O11 P0 1.526397 1_555
O12 P4 1.502589 1_555
O13 P3 1.573554 1_555
O14 P2 1.573554 1_555
O15 P5 1.572742 1_455
O16 P4 1.572742 1_655
O17 P5 1.566781 1_555
O18 P4 1.566781 1_555
O19 P3 1.571678 1_555
O20 P2 1.571678 1_555
O21 P5 1.575947 1_555
O22 P4 1.575947 1_555
O23 P5 1.502589 1_555
