# generated using pymatgen
data_Mg14MnCu
_symmetry_space_group_name_H-M   'P 1'
_cell_length_a   6.25919308
_cell_length_b   6.25859688
_cell_length_c   9.91951243
_cell_angle_alpha   90.00000000
_cell_angle_beta   90.00000000
_cell_angle_gamma   119.99685426
_symmetry_Int_Tables_number   1
_chemical_formula_structural   Mg14MnCu
_chemical_formula_sum   'Mg14 Mn1 Cu1'
_cell_volume   336.53485517
_cell_formula_units_Z   1
loop_
 _symmetry_equiv_pos_site_id
 _symmetry_equiv_pos_as_xyz
  1  'x, y, z'
loop_
 _atom_site_type_symbol
 _atom_site_label
 _atom_site_symmetry_multiplicity
 _atom_site_fract_x
 _atom_site_fract_y
 _atom_site_fract_z
 _atom_site_occupancy
  Mg  Mg0  1  0.16960906  0.33480403  0.62500000  1
  Mg  Mg1  1  0.16859422  0.83429661  0.62500000  1
  Mg  Mg2  1  0.67064901  0.33167899  0.12500000  1
  Mg  Mg3  1  0.66493997  0.33291606  0.62500000  1
  Mg  Mg4  1  0.67064901  0.83896903  0.12500000  1
  Mg  Mg5  1  0.66493997  0.83202291  0.62500000  1
  Mg  Mg6  1  0.32560473  0.16190213  0.35982212  1
  Mg  Mg7  1  0.32560473  0.16190213  0.89017788  1
  Mg  Mg8  1  0.32560473  0.66370360  0.35982212  1
  Mg  Mg9  1  0.32560473  0.66370360  0.89017788  1
  Mg  Mg10  1  0.83931339  0.16965720  0.37206561  1
  Mg  Mg11  1  0.83931339  0.16965720  0.87793439  1
  Mg  Mg12  1  0.84017784  0.67008942  0.36790088  1
  Mg  Mg13  1  0.84017784  0.67008942  0.88209912  1
  Mn  Mn0  1  0.16025149  0.33012525  0.12500000  1
  Cu  Cu0  1  0.16896588  0.83448244  0.12500000  1
loop_
_geom_bond_atom_site_label_1
_geom_bond_atom_site_label_2
_geom_bond_distance
_geom_bond_site_symmetry_2
Mg0 Mg10 3.082332 1_455
Mg0 Mg11 3.082332 1_455
Mg0 Mg5 3.106296 1_555
Mg0 Mg3 3.106296 1_555
Mg0 Mg1 3.129303 1_545
Mg0 Mg1 3.129303 1_555
Mg0 Mg5 3.152930 1_445
Mg0 Mg3 3.152930 1_455
Mg0 Mg7 3.178057 1_555
Mg0 Mg6 3.178057 1_555
Mg0 Mg8 3.178063 1_555
Mg0 Mg9 3.178063 1_555
Mg1 Mg12 3.110210 1_455
Mg1 Mg13 3.110210 1_455
Mg1 Mg3 3.113862 1_565
Mg1 Mg5 3.113863 1_555
Mg1 Mg3 3.145379 1_455
Mg1 Mg5 3.145379 1_455
Mg1 Mg8 3.173972 1_555
Mg1 Mg9 3.173972 1_555
Mg1 Mg6 3.173978 1_565
Mg1 Mg7 3.173978 1_565
Mg2 Mg6 2.987386 1_555
Mg2 Mg7 2.987386 1_554
Mg2 Mn0 3.069390 1_655
Mg2 Mg4 3.083673 1_545
Mg2 Mg4 3.174924 1_555
Mg2 Mn0 3.189826 1_555
Mg3 Mg5 3.123709 1_555
Mg3 Mg5 3.134888 1_545
Mg3 Mg6 3.209812 1_555
Mg3 Mg7 3.209812 1_555
Mg4 Mg8 2.987386 1_555
Mg4 Mg9 2.987386 1_554
Mg4 Mn0 3.069389 1_665
Mg4 Mn0 3.189826 1_555
Mg5 Mg8 3.209812 1_555
Mg5 Mg9 3.209812 1_555
Mg6 Mn0 2.948720 1_555
Mg6 Mg8 3.118024 1_545
Mg6 Mg8 3.140573 1_555
Mg7 Mn0 2.948720 1_556
Mg7 Mg9 3.118024 1_545
Mg7 Mg9 3.140573 1_555
Mg8 Mn0 2.948727 1_555
Mg9 Mn0 2.948727 1_556
Mg10 Mn0 3.005489 1_655
Mg10 Mg2 3.036355 1_555
Mg10 Mg4 3.036361 1_545
Mg10 Mg8 3.070747 1_655
Mg10 Mg6 3.070748 1_655
Mg10 Mg3 3.105697 1_555
Mg10 Mg5 3.105703 1_545
Mg10 Mg12 3.129575 1_555
Mg10 Mg12 3.129575 1_545
Mg10 Mg8 3.193723 1_545
Mg10 Mg6 3.193723 1_555
Mg11 Mn0 3.005489 1_656
Mg11 Mg2 3.036355 1_556
Mg11 Mg4 3.036361 1_546
Mg11 Mg9 3.070747 1_655
Mg11 Mg7 3.070748 1_655
Mg11 Mg3 3.105697 1_555
Mg11 Mg5 3.105703 1_545
Mg11 Mg13 3.129575 1_555
Mg11 Mg13 3.129575 1_545
Mg11 Mg9 3.193723 1_545
Mg11 Mg7 3.193723 1_555
Mg12 Mg4 3.028206 1_555
Mg12 Mg2 3.028212 1_555
Mg12 Mg6 3.059607 1_665
Mg12 Mg8 3.059607 1_655
Mg12 Mg5 3.137794 1_555
Mg12 Mg3 3.137800 1_555
Mg12 Mg6 3.202021 1_555
Mg12 Mg8 3.202021 1_555
Mg13 Mg4 3.028206 1_556
Mg13 Mg2 3.028212 1_556
Mg13 Mg7 3.059607 1_665
Mg13 Mg9 3.059607 1_655
Mg13 Mg5 3.137794 1_555
Mg13 Mg3 3.137800 1_555
Mg13 Mg7 3.202021 1_555
Mg13 Mg9 3.202021 1_555
Cu0 Mg8 2.928689 1_555
Cu0 Mg9 2.928689 1_554
Cu0 Mg6 2.928695 1_565
Cu0 Mg7 2.928695 1_564
Cu0 Mg12 2.997007 1_455
Cu0 Mg13 2.997007 1_454
Cu0 Mg2 3.126187 1_565
Cu0 Mg4 3.126188 1_555
Cu0 Mn0 3.129655 1_555
Cu0 Mn0 3.129655 1_565
Cu0 Mg2 3.133194 1_455
Cu0 Mg4 3.133194 1_455
