# generated using pymatgen
data_YFe(WO4)2
_symmetry_space_group_name_H-M   'P 1'
_cell_length_a   5.21648865
_cell_length_b   5.84722041
_cell_length_c   10.07910787
_cell_angle_alpha   89.92651239
_cell_angle_beta   94.53950958
_cell_angle_gamma   91.32079614
_symmetry_Int_Tables_number   1
_chemical_formula_structural   YFe(WO4)2
_chemical_formula_sum   'Y2 Fe2 W4 O16'
_cell_volume   306.38664514
_cell_formula_units_Z   2
loop_
 _symmetry_equiv_pos_site_id
 _symmetry_equiv_pos_as_xyz
  1  'x, y, z'
loop_
 _atom_site_type_symbol
 _atom_site_label
 _atom_site_symmetry_multiplicity
 _atom_site_fract_x
 _atom_site_fract_y
 _atom_site_fract_z
 _atom_site_occupancy
  Y  Y0  1  0.25461300  0.68349100  0.25993700  1
  Y  Y1  1  0.74560500  0.31658000  0.74030600  1
  Fe  Fe0  1  0.25104500  0.69090500  0.73536600  1
  Fe  Fe1  1  0.74915200  0.31072700  0.26328900  1
  W  W0  1  0.25731000  0.16615800  0.49385600  1
  W  W1  1  0.25188500  0.16902400  0.00620500  1
  W  W2  1  0.74205200  0.83379300  0.50599600  1
  W  W3  1  0.74829500  0.83076400  0.99399100  1
  O  O0  1  0.41220900  0.36218400  0.13272800  1
  O  O1  1  0.58871600  0.63761400  0.86732600  1
  O  O2  1  0.09735900  0.36806500  0.35492700  1
  O  O3  1  0.90202700  0.63183700  0.64503200  1
  O  O4  1  0.45704700  0.92031400  0.61816700  1
  O  O5  1  0.54273900  0.07984000  0.38171200  1
  O  O6  1  0.04271200  0.90646300  0.89292400  1
  O  O7  1  0.95732200  0.09422900  0.10733100  1
  O  O8  1  0.88803400  0.62576900  0.11507900  1
  O  O9  1  0.11244000  0.37425200  0.88528000  1
  O  O10  1  0.62093700  0.60795700  0.38158000  1
  O  O11  1  0.37867300  0.39142300  0.61859500  1
  O  O12  1  0.44569500  0.88689500  0.09624600  1
  O  O13  1  0.55438700  0.11244500  0.90377700  1
  O  O14  1  0.06918800  0.88469900  0.40614500  1
  O  O15  1  0.93055900  0.11457300  0.59420000  1
loop_
_geom_bond_atom_site_label_1
_geom_bond_atom_site_label_2
_geom_bond_distance
_geom_bond_site_symmetry_2
Fe0 O3 1.993102 1_455
Fe0 O4 2.116588 1_555
Fe0 O1 2.149935 1_555
Fe0 O11 2.253443 1_555
Fe0 O6 2.373407 1_555
Fe0 O9 2.517566 1_555
Fe1 O2 1.992993 1_655
Fe1 O5 2.130490 1_555
Fe1 O0 2.137481 1_555
Fe1 O10 2.252666 1_555
Fe1 O7 2.364604 1_555
Fe1 O8 2.500502 1_555
O0 W1 1.841918 1_555
O0 Y0 2.468543 1_555
O1 W3 1.841331 1_555
O1 Y1 2.464830 1_555
O2 W0 1.976616 1_555
O2 Y0 2.245280 1_555
O3 W2 1.977564 1_555
O3 Y1 2.244133 1_555
O4 W2 2.011647 1_555
O4 W0 2.140018 1_565
O5 W0 2.012906 1_555
O5 W2 2.139672 1_545
O6 W3 1.951282 1_455
O6 W1 2.140399 1_566
O7 W1 1.951165 1_655
O7 W3 2.144086 1_544
O8 W3 1.831216 1_554
O8 Y0 2.330646 1_655
O9 W1 1.830526 1_556
O9 Y1 2.332291 1_455
O10 W2 1.885687 1_555
O10 Y0 2.239768 1_555
O11 W0 1.885804 1_555
O11 Y1 2.241812 1_555
O12 W3 1.985927 1_554
O12 W1 2.120136 1_565
O12 Y0 2.308849 1_555
O13 W1 1.986997 1_556
O13 W3 2.118986 1_545
O13 Y1 2.309688 1_555
O14 W0 2.060344 1_565
O14 W2 2.064287 1_455
O14 Y0 2.184937 1_555
O15 W2 2.060026 1_545
O15 W0 2.065807 1_655
O15 Y1 2.185532 1_555
