# generated using pymatgen
data_BaYMg14
_symmetry_space_group_name_H-M   'P 1'
_cell_length_a   6.75292727
_cell_length_b   6.75292666
_cell_length_c   10.50956133
_cell_angle_alpha   90.00000000
_cell_angle_beta   90.00000000
_cell_angle_gamma   120.00000296
_symmetry_Int_Tables_number   1
_chemical_formula_structural   BaYMg14
_chemical_formula_sum   'Ba1 Y1 Mg14'
_cell_volume   415.04894365
_cell_formula_units_Z   1
loop_
 _symmetry_equiv_pos_site_id
 _symmetry_equiv_pos_as_xyz
  1  'x, y, z'
loop_
 _atom_site_type_symbol
 _atom_site_label
 _atom_site_symmetry_multiplicity
 _atom_site_fract_x
 _atom_site_fract_y
 _atom_site_fract_z
 _atom_site_occupancy
  Ba  Ba0  1  0.16666700  0.33333300  0.62500000  1
  Y  Y0  1  0.16666700  0.33333300  0.12500000  1
  Mg  Mg0  1  0.17207940  0.83603920  0.12500000  1
  Mg  Mg1  1  0.17844280  0.83922090  0.62500000  1
  Mg  Mg2  1  0.66396080  0.32792060  0.12500000  1
  Mg  Mg3  1  0.66077910  0.32155720  0.62500000  1
  Mg  Mg4  1  0.66396080  0.83603920  0.12500000  1
  Mg  Mg5  1  0.66077910  0.83922090  0.62500000  1
  Mg  Mg6  1  0.34178717  0.15821283  0.36725827  1
  Mg  Mg7  1  0.34178717  0.15821283  0.88274173  1
  Mg  Mg8  1  0.34178717  0.68357533  0.36725827  1
  Mg  Mg9  1  0.34178717  0.68357533  0.88274173  1
  Mg  Mg10  1  0.81642467  0.15821283  0.36725827  1
  Mg  Mg11  1  0.81642467  0.15821283  0.88274173  1
  Mg  Mg12  1  0.83333300  0.66666700  0.37721544  1
  Mg  Mg13  1  0.83333300  0.66666700  0.87278456  1
loop_
_geom_bond_atom_site_label_1
_geom_bond_atom_site_label_2
_geom_bond_distance
_geom_bond_site_symmetry_2
Ba0 Mg1 3.377166 1_555
Ba0 Mg5 3.377166 1_555
Ba0 Mg1 3.377166 1_545
Ba0 Mg5 3.377166 1_445
Ba0 Mg3 3.377166 1_555
Ba0 Mg3 3.377166 1_455
Ba0 Mg6 3.395995 1_555
Ba0 Mg7 3.395995 1_555
Ba0 Mg8 3.396002 1_555
Ba0 Mg9 3.396002 1_555
Ba0 Mg11 3.396002 1_455
Ba0 Mg10 3.396002 1_455
Mg0 Mg8 3.167899 1_555
Mg0 Mg9 3.167899 1_554
Mg0 Mg7 3.167905 1_564
Mg0 Mg6 3.167905 1_565
Mg0 Mg13 3.309179 1_454
Mg0 Mg12 3.309179 1_455
Mg0 Mg2 3.321639 1_565
Mg0 Mg4 3.321639 1_555
Mg0 Y0 3.376612 1_555
Mg0 Y0 3.376612 1_565
Mg0 Mg2 3.431288 1_455
Mg0 Mg4 3.431288 1_455
Mg1 Mg3 3.257182 1_565
Mg1 Mg5 3.257182 1_555
Mg1 Mg8 3.289100 1_555
Mg1 Mg9 3.289100 1_555
Mg1 Mg7 3.289106 1_565
Mg1 Mg6 3.289106 1_565
Mg1 Mg12 3.294662 1_455
Mg1 Mg13 3.294662 1_455
Mg1 Mg3 3.495745 1_455
Mg1 Mg5 3.495745 1_455
Mg2 Mg7 3.167905 1_554
Mg2 Mg6 3.167905 1_555
Mg2 Mg4 3.321639 1_545
Mg2 Y0 3.376612 1_555
Mg2 Y0 3.376612 1_655
Mg2 Mg4 3.431288 1_555
Mg3 Mg5 3.257182 1_545
Mg3 Mg6 3.289106 1_555
Mg3 Mg7 3.289106 1_555
Mg3 Mg5 3.495745 1_555
Mg4 Mg8 3.167906 1_555
Mg4 Mg9 3.167906 1_554
Mg4 Y0 3.376612 1_555
Mg4 Y0 3.376612 1_665
Mg5 Mg8 3.289106 1_555
Mg5 Mg9 3.289106 1_555
Mg6 Mg8 3.205192 1_545
Mg6 Y0 3.267675 1_555
Mg7 Mg9 3.205192 1_545
Mg7 Y0 3.267675 1_556
Mg8 Y0 3.267682 1_555
Mg9 Y0 3.267682 1_556
Mg10 Mg2 3.167899 1_555
Mg10 Mg4 3.167905 1_545
Mg10 Mg8 3.205192 1_545
Mg10 Mg6 3.205193 1_555
Mg10 Y0 3.267683 1_655
Mg10 Mg3 3.289100 1_555
Mg10 Mg5 3.289106 1_545
Mg10 Mg12 3.379531 1_545
Mg10 Mg12 3.379532 1_555
Mg11 Mg2 3.167899 1_556
Mg11 Mg4 3.167905 1_546
Mg11 Mg9 3.205192 1_545
Mg11 Mg7 3.205193 1_555
Mg11 Y0 3.267683 1_656
Mg11 Mg3 3.289100 1_555
Mg11 Mg5 3.289106 1_545
Mg11 Mg13 3.379531 1_545
Mg11 Mg13 3.379532 1_555
Mg12 Mg5 3.294655 1_555
Mg12 Mg3 3.294662 1_555
Mg12 Mg4 3.309172 1_555
Mg12 Mg2 3.309179 1_555
Mg12 Mg6 3.379532 1_555
Mg12 Mg6 3.379532 1_665
Mg12 Mg8 3.379532 1_555
Mg12 Mg8 3.379532 1_655
Mg13 Mg5 3.294655 1_555
Mg13 Mg3 3.294662 1_555
Mg13 Mg4 3.309172 1_556
Mg13 Mg2 3.309179 1_556
Mg13 Mg7 3.379532 1_555
Mg13 Mg7 3.379532 1_665
Mg13 Mg9 3.379532 1_555
Mg13 Mg9 3.379532 1_655
