# generated using pymatgen
data_CaYMn2O6
_symmetry_space_group_name_H-M   'P 1'
_cell_length_a   5.23800580
_cell_length_b   5.42460600
_cell_length_c   7.93438812
_cell_angle_alpha   89.99973348
_cell_angle_beta   90.42929377
_cell_angle_gamma   90.00017269
_symmetry_Int_Tables_number   1
_chemical_formula_structural   CaYMn2O6
_chemical_formula_sum   'Ca2 Y2 Mn4 O12'
_cell_volume   225.44230967
_cell_formula_units_Z   2
loop_
 _symmetry_equiv_pos_site_id
 _symmetry_equiv_pos_as_xyz
  1  'x, y, z'
loop_
 _atom_site_type_symbol
 _atom_site_label
 _atom_site_symmetry_multiplicity
 _atom_site_fract_x
 _atom_site_fract_y
 _atom_site_fract_z
 _atom_site_occupancy
  Ca  Ca0  1  0.51407400  0.55146000  0.24875300  1
  Ca  Ca1  1  0.01409200  0.94853900  0.74872100  1
  Y  Y0  1  0.98161300  0.05938500  0.25200300  1
  Y  Y1  1  0.48158800  0.44061800  0.75203500  1
  Mn  Mn0  1  0.50013900  0.99901400  0.50016000  1
  Mn  Mn1  1  0.50114600  0.99610500  0.99979400  1
  Mn  Mn2  1  0.00010700  0.50098300  0.00022700  1
  Mn  Mn3  1  0.00105000  0.50384600  0.49996500  1
  O  O0  1  0.40035700  0.97596700  0.26343700  1
  O  O1  1  0.90030900  0.52406200  0.76344700  1
  O  O2  1  0.08283700  0.47028500  0.23649400  1
  O  O3  1  0.58287300  0.02972800  0.73648500  1
  O  O4  1  0.80524300  0.79837200  0.05297500  1
  O  O5  1  0.30145200  0.69754100  0.95073300  1
  O  O6  1  0.30531000  0.70161700  0.55298100  1
  O  O7  1  0.80151200  0.80248500  0.45074900  1
  O  O8  1  0.70576000  0.28964300  0.44868500  1
  O  O9  1  0.20745100  0.20880500  0.54683600  1
  O  O10  1  0.20569400  0.21033900  0.94870000  1
  O  O11  1  0.70739100  0.29120500  0.04682100  1
loop_
_geom_bond_atom_site_label_1
_geom_bond_atom_site_label_2
_geom_bond_distance
_geom_bond_site_symmetry_2
Ca0 O2 2.302681 1_555
Ca0 O8 2.349006 1_555
Ca0 O11 2.368519 1_555
Ca0 O0 2.381645 1_555
Ca0 O4 2.562911 1_555
Ca0 O7 2.579465 1_555
Ca0 O5 2.724004 1_554
Ca0 O6 2.779487 1_555
Ca1 O3 2.302599 1_465
Ca1 O10 2.349021 1_565
Ca1 O9 2.368384 1_565
Ca1 O1 2.381587 1_455
Ca1 O6 2.562922 1_555
Ca1 O5 2.579226 1_555
Ca1 O7 2.723548 1_455
Ca1 O4 2.779853 1_456
Mn0 O3 1.928566 1_565
Mn0 O9 1.947100 1_565
Mn0 O7 1.947177 1_555
Mn0 O0 1.949852 1_555
Mn0 O8 1.954204 1_565
Mn0 O6 1.956043 1_555
Mn1 O4 1.963597 1_556
Mn1 O5 1.965354 1_555
Mn1 O11 1.965406 1_566
Mn1 O10 1.974972 1_565
Mn1 O3 2.143516 1_565
Mn1 O0 2.164027 1_556
Mn2 O2 1.928106 1_555
Mn2 O11 1.947040 1_455
Mn2 O5 1.947274 1_554
Mn2 O1 1.950319 1_454
Mn2 O10 1.954267 1_554
Mn2 O4 1.955985 1_455
Mn3 O6 1.964125 1_555
Mn3 O9 1.965366 1_555
Mn3 O7 1.965497 1_455
Mn3 O8 1.974501 1_455
Mn3 O2 2.144809 1_555
Mn3 O1 2.162749 1_455
O0 Y0 2.240748 1_465
O1 Y1 2.240650 1_555
O2 Y0 2.294678 1_455
O3 Y1 2.294721 1_555
O4 Y0 2.308706 1_565
O5 Y1 2.310959 1_555
O6 Y1 2.308604 1_555
O7 Y0 2.311056 1_565
O8 Y0 2.473273 1_555
O8 Y1 2.808030 1_555
O9 Y1 2.501793 1_555
O9 Y0 2.736291 1_455
O10 Y1 2.473360 1_555
O10 Y0 2.807465 1_456
O11 Y0 2.501975 1_555
O11 Y1 2.735880 1_554
