# generated using pymatgen
data_Cr(FeSe2)2
_symmetry_space_group_name_H-M   'P 1'
_cell_length_a   3.54386600
_cell_length_b   6.26339169
_cell_length_c   6.60416024
_cell_angle_alpha   117.50990398
_cell_angle_beta   74.43653654
_cell_angle_gamma   90.00000000
_symmetry_Int_Tables_number   1
_chemical_formula_structural   Cr(FeSe2)2
_chemical_formula_sum   'Cr1 Fe2 Se4'
_cell_volume   123.92354123
_cell_formula_units_Z   1
loop_
 _symmetry_equiv_pos_site_id
 _symmetry_equiv_pos_as_xyz
  1  'x, y, z'
loop_
 _atom_site_type_symbol
 _atom_site_label
 _atom_site_symmetry_multiplicity
 _atom_site_fract_x
 _atom_site_fract_y
 _atom_site_fract_z
 _atom_site_occupancy
  Cr  Cr0  1  0.75803600  0.21187000  0.48392800  1
  Fe  Fe0  1  0.49813600  0.49604500  0.00372900  1
  Fe  Fe1  1  0.24286800  0.79035200  0.51426400  1
  Se  Se0  1  0.86618400  0.47350400  0.26763100  1
  Se  Se1  1  0.13280700  0.53197000  0.73438600  1
  Se  Se2  1  0.38814900  0.94367800  0.22370200  1
  Se  Se3  1  0.61382000  0.05258100  0.77236000  1
loop_
_geom_bond_atom_site_label_1
_geom_bond_atom_site_label_2
_geom_bond_distance
_geom_bond_site_symmetry_2
Cr0 Se2 2.456715 1_645
Cr0 Se2 2.456715 1_545
Cr0 Se3 2.473516 1_555
Cr0 Se1 2.575816 1_555
Cr0 Se1 2.575816 1_655
Cr0 Se0 2.596435 1_555
Fe0 Se3 2.441503 1_554
Fe0 Se2 2.461009 1_555
Fe0 Se0 2.491153 1_555
Fe0 Se0 2.491158 1_455
Fe0 Se1 2.548808 1_654
Fe0 Se1 2.548810 1_554
Fe1 Se3 2.438713 1_465
Fe1 Se3 2.438713 1_565
Fe1 Se2 2.458012 1_555
Fe1 Se0 2.560085 1_555
Fe1 Se0 2.560088 1_455
Fe1 Se1 2.598766 1_555
