# generated using pymatgen
data_V4Cu13(O13F2)2
_symmetry_space_group_name_H-M   'P 1'
_cell_length_a   5.64151300
_cell_length_b   10.43459237
_cell_length_c   10.98513667
_cell_angle_alpha   107.78046774
_cell_angle_beta   103.27580410
_cell_angle_gamma   96.66791476
_symmetry_Int_Tables_number   1
_chemical_formula_structural   V4Cu13(O13F2)2
_chemical_formula_sum   'V4 Cu13 O26 F4'
_cell_volume   587.09079320
_cell_formula_units_Z   1
loop_
 _symmetry_equiv_pos_site_id
 _symmetry_equiv_pos_as_xyz
  1  'x, y, z'
loop_
 _atom_site_type_symbol
 _atom_site_label
 _atom_site_symmetry_multiplicity
 _atom_site_fract_x
 _atom_site_fract_y
 _atom_site_fract_z
 _atom_site_occupancy
  V  V0  1  0.76025200  0.80327800  0.15293400  1
  V  V1  1  0.23974800  0.19672200  0.84706600  1
  V  V2  1  0.00766300  0.80100900  0.65613900  1
  V  V3  1  0.99233600  0.19899100  0.34386100  1
  Cu  Cu0  1  0.00000000  0.00000000  0.00000000  1
  Cu  Cu1  1  0.50000000  0.00000000  0.00000000  1
  Cu  Cu2  1  0.37033200  0.99587700  0.25010600  1
  Cu  Cu3  1  0.62966800  0.00412300  0.74989400  1
  Cu  Cu4  1  0.75189300  0.00034500  0.49828900  1
  Cu  Cu5  1  0.24810700  0.99965500  0.50171100  1
  Cu  Cu6  1  0.54771600  0.52318600  0.17017800  1
  Cu  Cu7  1  0.45228400  0.47681400  0.82982200  1
  Cu  Cu8  1  0.70675400  0.49130900  0.41654200  1
  Cu  Cu9  1  0.29324600  0.50869100  0.58345800  1
  Cu  Cu10  1  0.86219000  0.51779800  0.71625600  1
  Cu  Cu11  1  0.13781000  0.48220200  0.28374400  1
  Cu  Cu12  1  0.00000000  0.50000000  0.00000000  1
  O  O0  1  0.74153700  0.89039400  0.02918300  1
  O  O1  1  0.25846300  0.10960600  0.97081700  1
  O  O2  1  0.57993200  0.86580300  0.25752100  1
  O  O3  1  0.42006800  0.13419700  0.74247900  1
  O  O4  1  0.67004300  0.62144800  0.07457600  1
  O  O5  1  0.32995700  0.37855200  0.92542400  1
  O  O6  1  0.05166300  0.84383100  0.24972000  1
  O  O7  1  0.94833700  0.15616900  0.75028000  1
  O  O8  1  0.99306900  0.89281400  0.53806900  1
  O  O9  1  0.00693100  0.10718600  0.46193100  1
  O  O10  1  0.92612200  0.61029600  0.59199200  1
  O  O11  1  0.07387800  0.38970400  0.40800800  1
  O  O12  1  0.82704900  0.86841000  0.75661700  1
  O  O13  1  0.17295100  0.13159000  0.24338300  1
  O  O14  1  0.29507100  0.84483600  0.75542700  1
  O  O15  1  0.70492900  0.15516400  0.24457300  1
  O  O16  1  0.26462700  0.92380500  0.06430200  1
  O  O17  1  0.73537300  0.07619500  0.93569800  1
  O  O18  1  0.48281900  0.07469800  0.43661200  1
  O  O19  1  0.51718100  0.92530200  0.56338800  1
  O  O20  1  0.85358200  0.55526700  0.30172500  1
  O  O21  1  0.14641800  0.44473300  0.69827500  1
  O  O22  1  0.43493400  0.41968700  0.26241200  1
  O  O23  1  0.56506600  0.58031300  0.73758800  1
  O  O24  1  0.77345500  0.43443700  0.83625600  1
  O  O25  1  0.22654500  0.56556300  0.16374400  1
  F  F0  1  0.58905100  0.37946100  0.50282600  1
  F  F1  1  0.41094900  0.62053900  0.49717400  1
  F  F2  1  0.14222900  0.63396300  0.94932800  1
  F  F3  1  0.85777100  0.36603700  0.05067200  1
loop_
_geom_bond_atom_site_label_1
_geom_bond_atom_site_label_2
_geom_bond_distance
_geom_bond_site_symmetry_2
Cu0 O16 1.869261 1_545
Cu0 O17 1.869261 1_454
Cu0 O0 1.894271 1_445
Cu0 O1 1.894271 1_554
Cu0 O13 2.496836 1_555
Cu0 O12 2.496836 1_444
Cu1 O16 1.850107 1_545
Cu1 O17 1.850107 1_554
Cu1 O1 1.911228 1_554
Cu1 O0 1.911228 1_545
Cu1 O15 2.580359 1_555
Cu1 O14 2.580359 1_544
Cu2 O16 1.867233 1_555
Cu2 O18 1.878627 1_565
Cu2 O2 1.908670 1_555
Cu2 O13 1.908682 1_565
Cu2 O6 2.253693 1_555
Cu2 O15 2.390649 1_565
Cu3 O17 1.867233 1_555
Cu3 O19 1.878627 1_545
Cu3 O3 1.908670 1_555
Cu3 O12 1.908682 1_545
Cu3 O7 2.253693 1_555
Cu3 O14 2.390649 1_545
Cu4 O19 1.847697 1_545
Cu4 O18 1.867469 1_555
Cu4 O9 1.906804 1_655
Cu4 O8 1.918876 1_545
Cu4 O2 2.478893 1_545
Cu4 O7 2.637860 1_555
Cu5 O18 1.847697 1_565
Cu5 O19 1.867469 1_555
Cu5 O8 1.906804 1_455
Cu5 O9 1.918876 1_565
Cu5 O3 2.478893 1_565
Cu5 O6 2.637860 1_555
Cu6 O22 1.844597 1_555
Cu6 O4 1.859206 1_555
Cu6 O20 1.898150 1_555
Cu6 O25 1.905204 1_555
Cu7 O23 1.844597 1_555
Cu7 O5 1.859206 1_555
Cu7 O21 1.898150 1_555
Cu7 O24 1.905204 1_555
Cu8 F0 1.867118 1_555
Cu8 O22 1.882918 1_555
Cu8 O20 1.894175 1_555
Cu8 O10 1.968239 1_555
Cu8 F1 2.420692 1_555
Cu8 O11 2.441482 1_655
Cu9 F1 1.867118 1_555
Cu9 O23 1.882918 1_555
Cu9 O21 1.894175 1_555
Cu9 O11 1.968239 1_555
Cu9 F0 2.420692 1_555
Cu9 O10 2.441482 1_455
Cu10 O21 1.878510 1_655
Cu10 O23 1.905557 1_555
Cu10 O24 1.909755 1_555
Cu10 O10 1.968497 1_555
Cu10 F0 2.390036 1_555
Cu10 F2 2.514476 1_655
Cu11 O20 1.878510 1_455
Cu11 O22 1.905557 1_555
Cu11 O25 1.909755 1_555
Cu11 O11 1.968497 1_555
Cu11 F1 2.390036 1_555
Cu11 F3 2.514476 1_455
Cu12 O24 1.823873 1_454
Cu12 O25 1.823873 1_555
Cu12 F2 1.824152 1_554
Cu12 F3 1.824152 1_455
Cu12 O5 2.521159 1_554
Cu12 O4 2.521159 1_455
O0 V0 1.842981 1_555
O1 V1 1.842981 1_555
O2 V0 1.735973 1_555
O3 V1 1.735973 1_555
O4 V0 1.782383 1_555
O5 V1 1.782383 1_555
O6 V0 1.665262 1_455
O7 V1 1.665262 1_655
O8 V2 1.826141 1_655
O9 V3 1.826141 1_455
O10 V2 1.857528 1_655
O11 V3 1.857528 1_455
O12 V2 1.720467 1_655
O13 V3 1.720472 1_455
O14 V2 1.654899 1_555
O15 V3 1.654894 1_555
