# generated using pymatgen
data_Hf9BOs4
_symmetry_space_group_name_H-M   'P 1'
_cell_length_a   8.37078212
_cell_length_b   8.37078212
_cell_length_c   8.58854100
_cell_angle_alpha   90.00000000
_cell_angle_beta   90.00000000
_cell_angle_gamma   120.00000095
_symmetry_Int_Tables_number   1
_chemical_formula_structural   Hf9BOs4
_chemical_formula_sum   'Hf18 B2 Os8'
_cell_volume   521.17322593
_cell_formula_units_Z   2
loop_
 _symmetry_equiv_pos_site_id
 _symmetry_equiv_pos_as_xyz
  1  'x, y, z'
loop_
 _atom_site_type_symbol
 _atom_site_label
 _atom_site_symmetry_multiplicity
 _atom_site_fract_x
 _atom_site_fract_y
 _atom_site_fract_z
 _atom_site_occupancy
  Hf  Hf0  1  0.19917000  0.80083000  0.43996000  1
  Hf  Hf1  1  0.19917000  0.39834000  0.43996000  1
  Hf  Hf2  1  0.60166000  0.80083000  0.43996000  1
  Hf  Hf3  1  0.80083000  0.19917000  0.56004000  1
  Hf  Hf4  1  0.80083000  0.60166000  0.56004000  1
  Hf  Hf5  1  0.39834000  0.19917000  0.56004000  1
  Hf  Hf6  1  0.80083000  0.19917000  0.93996000  1
  Hf  Hf7  1  0.80083000  0.60166000  0.93996000  1
  Hf  Hf8  1  0.39834000  0.19917000  0.93996000  1
  Hf  Hf9  1  0.19917000  0.80083000  0.06004000  1
  Hf  Hf10  1  0.19917000  0.39834000  0.06004000  1
  Hf  Hf11  1  0.60166000  0.80083000  0.06004000  1
  Hf  Hf12  1  0.54202300  0.45797700  0.25000000  1
  Hf  Hf13  1  0.54202300  0.08404700  0.25000000  1
  Hf  Hf14  1  0.91595300  0.45797700  0.25000000  1
  Hf  Hf15  1  0.45797700  0.54202300  0.75000000  1
  Hf  Hf16  1  0.45797700  0.91595300  0.75000000  1
  Hf  Hf17  1  0.08404700  0.54202300  0.75000000  1
  B  B0  1  0.33333300  0.66666700  0.25000000  1
  B  B1  1  0.66666700  0.33333300  0.75000000  1
  Os  Os0  1  0.88612200  0.11387800  0.25000000  1
  Os  Os1  1  0.88612200  0.77224400  0.25000000  1
  Os  Os2  1  0.22775600  0.11387800  0.25000000  1
  Os  Os3  1  0.11387800  0.88612200  0.75000000  1
  Os  Os4  1  0.11387800  0.22775600  0.75000000  1
  Os  Os5  1  0.77224400  0.88612200  0.75000000  1
  Os  Os6  1  0.00000000  0.00000000  0.50000000  1
  Os  Os7  1  0.00000000  0.00000000  0.00000000  1
loop_
_geom_bond_atom_site_label_1
_geom_bond_atom_site_label_2
_geom_bond_distance
_geom_bond_site_symmetry_2
Hf0 Os6 2.933369 1_565
Hf0 Os3 2.935929 1_555
Hf0 Os1 2.993114 1_455
Hf0 Os2 2.993114 1_565
Hf1 Os6 2.933369 1_555
Hf1 Os4 2.935929 1_555
Hf1 Os0 2.993114 1_455
Hf1 Os2 2.993114 1_555
Hf2 Os6 2.933369 1_665
Hf2 Os5 2.935929 1_555
Hf2 Os0 2.993114 1_565
Hf2 Os1 2.993114 1_555
Hf3 Os6 2.933369 1_655
Hf3 Os0 2.935929 1_555
Hf3 Os5 2.993114 1_545
Hf3 Os4 2.993114 1_655
Hf4 Os6 2.933369 1_665
Hf4 Os1 2.935929 1_555
Hf4 Os3 2.993114 1_655
Hf4 Os5 2.993114 1_555
Hf5 Os6 2.933369 1_555
Hf5 Os2 2.935929 1_555
Hf5 Os3 2.993114 1_545
Hf5 Os4 2.993114 1_555
Hf6 Os7 2.933369 1_656
Hf6 Os0 2.935929 1_556
Hf6 Os5 2.993114 1_545
Hf6 Os4 2.993114 1_655
Hf7 Os7 2.933369 1_666
Hf7 Os1 2.935929 1_556
Hf7 Os3 2.993114 1_655
Hf7 Os5 2.993114 1_555
Hf8 Os7 2.933369 1_556
Hf8 Os2 2.935929 1_556
Hf8 Os3 2.993114 1_545
Hf8 Os4 2.993114 1_555
Hf9 Os7 2.933369 1_565
Hf9 Os3 2.935929 1_554
Hf9 Os1 2.993114 1_455
Hf9 Os2 2.993114 1_565
Hf10 Os7 2.933369 1_555
Hf10 Os4 2.935929 1_554
Hf10 Os0 2.993114 1_455
Hf10 Os2 2.993114 1_555
Hf11 Os7 2.933369 1_665
Hf11 Os5 2.935929 1_554
Hf11 Os0 2.993114 1_565
Hf11 Os1 2.993114 1_555
Hf12 Os2 2.763993 1_555
Hf12 Os1 2.763993 1_555
Hf13 Os2 2.763988 1_555
Hf13 Os0 2.763996 1_555
Hf14 Os1 2.763988 1_555
Hf14 Os0 2.763996 1_555
Hf15 Os4 2.763993 1_555
Hf15 Os5 2.763993 1_555
Hf16 Os5 2.763988 1_555
Hf16 Os3 2.763996 1_555
Hf17 Os4 2.763988 1_555
Hf17 Os3 2.763996 1_555
B0 Hf9 2.538788 1_555
B0 Hf0 2.538788 1_555
B0 Hf10 2.538793 1_555
B0 Hf1 2.538793 1_555
B0 Hf2 2.538793 1_555
B0 Hf11 2.538793 1_555
B0 Hf13 3.025717 1_565
B0 Hf14 3.025717 1_455
B0 Hf12 3.025717 1_555
B1 Hf3 2.538788 1_555
B1 Hf6 2.538788 1_555
B1 Hf5 2.538793 1_555
B1 Hf8 2.538793 1_555
B1 Hf4 2.538793 1_555
B1 Hf7 2.538793 1_555
B1 Hf17 3.025717 1_655
B1 Hf16 3.025717 1_545
B1 Hf15 3.025717 1_555
Os0 Os7 2.708548 1_655
Os0 Os6 2.708548 1_655
Os0 Os2 2.859744 1_655
Os0 Os1 2.859744 1_545
Os1 Os6 2.708548 1_665
Os1 Os7 2.708548 1_665
Os1 Os2 2.859744 1_665
Os2 Os6 2.708548 1_555
Os2 Os7 2.708548 1_555
Os3 Os7 2.708548 1_566
Os3 Os6 2.708548 1_565
Os3 Os4 2.859744 1_565
Os3 Os5 2.859744 1_455
Os4 Os7 2.708548 1_556
Os4 Os6 2.708548 1_555
Os4 Os5 2.859744 1_445
Os5 Os7 2.708548 1_666
Os5 Os6 2.708548 1_665
