# generated using pymatgen
data_K2V2O5
_symmetry_space_group_name_H-M   'P 1'
_cell_length_a   8.47916632
_cell_length_b   8.47916632
_cell_length_c   8.47916632
_cell_angle_alpha   139.05460053
_cell_angle_beta   136.99815324
_cell_angle_gamma   60.87830794
_symmetry_Int_Tables_number   1
_chemical_formula_structural   K2V2O5
_chemical_formula_sum   'K4 V4 O10'
_cell_volume   269.51057499
_cell_formula_units_Z   2
loop_
 _symmetry_equiv_pos_site_id
 _symmetry_equiv_pos_as_xyz
  1  'x, y, z'
loop_
 _atom_site_type_symbol
 _atom_site_label
 _atom_site_symmetry_multiplicity
 _atom_site_fract_x
 _atom_site_fract_y
 _atom_site_fract_z
 _atom_site_occupancy
  K  K0  1  0.85685100  0.40016300  0.48823700  1
  K  K1  1  0.14314900  0.63138600  0.54331200  1
  K  K2  1  0.41192600  0.90016300  0.54331200  1
  K  K3  1  0.58807400  0.13138600  0.48823700  1
  V  V0  1  0.00000000  0.04252400  0.04252400  1
  V  V1  1  0.50000000  0.54252400  0.04252400  1
  V  V2  1  0.83225300  0.77477800  0.10703100  1
  V  V3  1  0.16774700  0.27477800  0.94252400  1
  O  O0  1  0.73723200  0.72610700  0.44509900  1
  O  O1  1  0.26276800  0.70786600  0.98887400  1
  O  O2  1  0.78100800  0.22610700  0.98887400  1
  O  O3  1  0.21899200  0.20786600  0.44509900  1
  O  O4  1  0.81699200  0.85182900  0.95062100  1
  O  O5  1  0.18300800  0.13362900  0.03483700  1
  O  O6  1  0.40120800  0.35182900  0.03483700  1
  O  O7  1  0.59879200  0.63362900  0.95062100  1
  O  O8  1  0.93884400  0.06771800  0.50656200  1
  O  O9  1  0.06115600  0.56771800  0.12887500  1
loop_
_geom_bond_atom_site_label_1
_geom_bond_atom_site_label_2
_geom_bond_distance
_geom_bond_site_symmetry_2
K0 O8 2.655110 1_555
K0 O0 2.656471 1_555
K0 O6 2.703761 1_555
K0 O1 2.704113 1_655
K0 O2 2.832108 1_554
K0 O3 2.844276 1_655
K0 O4 2.854488 1_555
K0 O4 3.125641 1_544
K1 O9 2.655101 1_555
K1 O1 2.656469 1_555
K1 O7 2.703761 1_555
K1 O0 2.704115 1_455
K1 O3 2.832108 1_555
K1 O2 2.844276 1_454
K1 O5 2.854488 1_566
K1 O5 3.125641 1_555
K2 O9 2.655112 1_555
K2 O2 2.656473 1_565
K2 O4 2.703761 1_555
K2 O3 2.704108 1_565
K2 O0 2.832100 1_555
K2 O1 2.844280 1_554
K2 O6 2.854488 1_566
K2 O6 3.125641 1_555
K3 O8 2.655110 1_555
K3 O3 2.656473 1_555
K3 O5 2.703761 1_555
K3 O2 2.704108 1_555
K3 O1 2.832104 1_544
K3 O0 2.844276 1_545
K3 O7 2.854488 1_555
K3 O7 3.125641 1_544
O0 V1 1.760353 1_555
O0 V0 2.569417 1_666
O1 V1 1.760350 1_556
O1 V0 2.569422 1_566
O2 V0 1.760355 1_656
O2 V1 2.569418 1_556
O3 V0 1.760355 1_555
O3 V1 2.569418 1_556
O4 V2 1.782721 1_556
O4 V0 2.097545 1_666
O5 V3 1.782729 1_554
O5 V0 2.097545 1_555
O6 V3 1.782715 1_554
O6 V1 2.097545 1_555
O7 V2 1.782721 1_556
O7 V1 2.097545 1_556
O8 V2 1.859557 1_545
O8 V3 1.879506 1_655
O9 V3 1.859560 1_554
O9 V2 1.879511 1_455
