# generated using pymatgen
data_Mn3P4H12(NO8)2
_symmetry_space_group_name_H-M   'P 1'
_cell_length_a   8.50937700
_cell_length_b   9.53131300
_cell_length_c   9.58505354
_cell_angle_alpha   80.26576958
_cell_angle_beta   90.00000000
_cell_angle_gamma   90.00000000
_symmetry_Int_Tables_number   1
_chemical_formula_structural   Mn3P4H12(NO8)2
_chemical_formula_sum   'Mn6 P8 H24 N4 O32'
_cell_volume   766.20837472
_cell_formula_units_Z   2
loop_
 _symmetry_equiv_pos_site_id
 _symmetry_equiv_pos_as_xyz
  1  'x, y, z'
loop_
 _atom_site_type_symbol
 _atom_site_label
 _atom_site_symmetry_multiplicity
 _atom_site_fract_x
 _atom_site_fract_y
 _atom_site_fract_z
 _atom_site_occupancy
  Mn  Mn0  1  0.13828100  0.86259300  0.00302600  1
  Mn  Mn1  1  0.63828100  0.13740700  0.49697400  1
  Mn  Mn2  1  0.86171900  0.13740700  0.99697400  1
  Mn  Mn3  1  0.36171900  0.86259300  0.50302600  1
  Mn  Mn4  1  0.50000000  0.00000000  0.00000000  1
  Mn  Mn5  1  0.00000000  0.00000000  0.50000000  1
  P  P0  1  0.05462200  0.70110400  0.73600600  1
  P  P1  1  0.55462200  0.29889600  0.76399400  1
  P  P2  1  0.94537800  0.29889600  0.26399400  1
  P  P3  1  0.44537800  0.70110400  0.23600600  1
  P  P4  1  0.80279300  0.90272900  0.78885700  1
  P  P5  1  0.30279300  0.09727100  0.71114300  1
  P  P6  1  0.19720700  0.09727100  0.21114300  1
  P  P7  1  0.69720700  0.90272900  0.28885700  1
  H  H0  1  0.33139900  0.46774800  0.07905100  1
  H  H1  1  0.83139900  0.53225200  0.42094900  1
  H  H2  1  0.66860100  0.53225200  0.92094900  1
  H  H3  1  0.16860100  0.46774800  0.57905100  1
  H  H4  1  0.20903600  0.53296700  0.94530700  1
  H  H5  1  0.70903600  0.46703300  0.55469300  1
  H  H6  1  0.79096400  0.46703300  0.05469300  1
  H  H7  1  0.29096400  0.53296700  0.44530700  1
  H  H8  1  0.37224800  0.44029200  0.91370200  1
  H  H9  1  0.87224800  0.55970800  0.58629800  1
  H  H10  1  0.62775200  0.55970800  0.08629800  1
  H  H11  1  0.12775200  0.44029200  0.41370200  1
  H  H12  1  0.22097200  0.35177600  0.00401900  1
  H  H13  1  0.72097200  0.64822400  0.49598100  1
  H  H14  1  0.77902800  0.64822400  0.99598100  1
  H  H15  1  0.27902800  0.35177600  0.50401900  1
  H  H16  1  0.00258800  0.62304300  0.20858400  1
  H  H17  1  0.50258800  0.37695700  0.29141600  1
  H  H18  1  0.99741200  0.37695700  0.79141600  1
  H  H19  1  0.49741200  0.62304300  0.70858400  1
  H  H20  1  0.96341400  0.77793600  0.24389100  1
  H  H21  1  0.46341400  0.22206400  0.25610900  1
  H  H22  1  0.03658600  0.22206400  0.75610900  1
  H  H23  1  0.53658600  0.77793600  0.74389100  1
  N  N0  1  0.28117100  0.44605100  0.98624200  1
  N  N1  1  0.78117100  0.55394900  0.51375800  1
  N  N2  1  0.71882900  0.55394900  0.01375800  1
  N  N3  1  0.21882900  0.44605100  0.48624200  1
  O  O0  1  0.35809600  0.13169300  0.14427700  1
  O  O1  1  0.85809600  0.86830700  0.35572300  1
  O  O2  1  0.64190400  0.86830700  0.85572300  1
  O  O3  1  0.14190400  0.13169300  0.64427700  1
  O  O4  1  0.37839500  0.81280900  0.11567100  1
  O  O5  1  0.87839500  0.18719100  0.38432900  1
  O  O6  1  0.62160500  0.18719100  0.88432900  1
  O  O7  1  0.12160500  0.81280900  0.61567100  1
  O  O8  1  0.29951000  0.00416200  0.85879300  1
  O  O9  1  0.79951000  0.99583800  0.64120700  1
  O  O10  1  0.70049000  0.99583800  0.14120700  1
  O  O11  1  0.20049000  0.00416200  0.35879300  1
  O  O12  1  0.91969200  0.95819600  0.88894400  1
  O  O13  1  0.41969200  0.04180400  0.61105600  1
  O  O14  1  0.08030800  0.04180400  0.11105600  1
  O  O15  1  0.58030800  0.95819600  0.38894400  1
  O  O16  1  0.00807000  0.72611900  0.17068300  1
  O  O17  1  0.50807000  0.27388100  0.32931700  1
  O  O18  1  0.99193000  0.27388100  0.82931700  1
  O  O19  1  0.49193000  0.72611900  0.67068300  1
  O  O20  1  0.13925700  0.69715900  0.87741900  1
  O  O21  1  0.63925700  0.30284100  0.62258100  1
  O  O22  1  0.86074300  0.30284100  0.12258100  1
  O  O23  1  0.36074300  0.69715900  0.37741900  1
  O  O24  1  0.87229800  0.74825500  0.76177100  1
  O  O25  1  0.37229800  0.25174500  0.73822900  1
  O  O26  1  0.12770200  0.25174500  0.23822900  1
  O  O27  1  0.62770200  0.74825500  0.26177100  1
  O  O28  1  0.03721200  0.55286200  0.69685800  1
  O  O29  1  0.53721200  0.44713800  0.80314200  1
  O  O30  1  0.96278800  0.44713800  0.30314200  1
  O  O31  1  0.46278800  0.55286200  0.19685800  1
loop_
_geom_bond_atom_site_label_1
_geom_bond_atom_site_label_2
_geom_bond_distance
_geom_bond_site_symmetry_2
Mn0 O20 2.139586 1_554
Mn0 O16 2.189818 1_555
Mn0 O14 2.198027 1_565
Mn0 O8 2.232359 1_564
Mn0 O12 2.269118 1_454
Mn0 O4 2.322161 1_555
Mn1 O21 2.139586 1_555
Mn1 O17 2.189818 1_555
Mn1 O15 2.198027 1_545
Mn1 O9 2.232359 1_545
Mn1 O13 2.269118 1_555
Mn1 O5 2.322161 1_555
Mn2 O22 2.139586 1_556
Mn2 O18 2.189818 1_555
Mn2 O12 2.198027 1_545
Mn2 O10 2.232359 1_546
Mn2 O14 2.269118 1_656
Mn2 O6 2.322161 1_555
Mn3 O23 2.139586 1_555
Mn3 O19 2.189818 1_555
Mn3 O13 2.198027 1_565
Mn3 O11 2.232359 1_565
Mn3 O15 2.269118 1_555
Mn3 O7 2.322161 1_555
Mn4 O10 2.173915 1_545
Mn4 O8 2.173915 1_554
Mn4 O4 2.194170 1_545
Mn4 O6 2.194170 1_554
Mn4 O2 2.352241 1_544
Mn4 O0 2.352241 1_555
Mn5 O9 2.173915 1_445
Mn5 O11 2.173915 1_555
Mn5 O7 2.194170 1_545
Mn5 O5 2.194170 1_455
Mn5 O3 2.352241 1_555
Mn5 O1 2.352241 1_445
H0 N0 1.038752 1_554
H1 N1 1.038752 1_555
H2 N2 1.038752 1_556
H3 N3 1.038752 1_555
H4 N0 1.052188 1_555
H4 O20 1.697278 1_555
H5 N1 1.052188 1_555
H5 O21 1.697278 1_555
H6 N2 1.052188 1_555
H6 O22 1.697278 1_555
H7 N3 1.052188 1_555
H7 O23 1.697278 1_555
H8 N0 1.048808 1_555
H9 N1 1.048808 1_555
H10 N2 1.048808 1_555
H11 N3 1.048808 1_555
H12 N0 1.023271 1_554
H13 N1 1.023271 1_555
H14 N2 1.023271 1_556
H15 N3 1.023271 1_555
H16 O16 0.989276 1_555
H17 O17 0.989276 1_555
H18 O18 0.989276 1_555
H19 O19 0.989276 1_555
H20 O16 0.998947 1_655
H20 O1 1.733872 1_555
H21 O17 0.998947 1_555
H21 O0 1.733872 1_555
H22 O18 0.998947 1_455
H22 O3 1.733872 1_555
H23 O19 0.998947 1_555
H23 O2 1.733872 1_555
O0 P6 1.523695 1_555
O1 P7 1.523695 1_555
O2 P4 1.523695 1_555
O3 P5 1.523695 1_555
O4 P3 1.540636 1_555
O5 P2 1.540636 1_555
O6 P1 1.540636 1_555
O7 P0 1.540636 1_555
O8 P5 1.538352 1_555
O9 P4 1.538352 1_555
O10 P7 1.538352 1_555
O11 P6 1.538352 1_555
O12 P4 1.536501 1_555
O13 P5 1.536501 1_555
O14 P6 1.536501 1_555
O15 P7 1.536501 1_555
O20 P0 1.529739 1_555
O21 P1 1.529739 1_555
O22 P2 1.529739 1_555
O23 P3 1.529739 1_555
O24 P0 1.645457 1_655
O24 P4 1.647500 1_555
O25 P1 1.645457 1_555
O25 P5 1.647500 1_555
O26 P2 1.645457 1_455
O26 P6 1.647500 1_555
O27 P3 1.645457 1_555
O27 P7 1.647500 1_555
O28 P0 1.529195 1_555
O29 P1 1.529195 1_555
O30 P2 1.529195 1_555
O31 P3 1.529195 1_555
