# generated using pymatgen
data_Sr2YAlCo2O7
_symmetry_space_group_name_H-M   'P 1'
_cell_length_a   11.76011396
_cell_length_b   11.76011396
_cell_length_c   11.76011396
_cell_angle_alpha   152.73570460
_cell_angle_beta   151.81808685
_cell_angle_gamma   39.61418094
_symmetry_Int_Tables_number   1
_chemical_formula_structural   Sr2YAlCo2O7
_chemical_formula_sum   'Sr4 Y2 Al2 Co4 O14'
_cell_volume   351.21842424
_cell_formula_units_Z   2
loop_
 _symmetry_equiv_pos_site_id
 _symmetry_equiv_pos_as_xyz
  1  'x, y, z'
loop_
 _atom_site_type_symbol
 _atom_site_label
 _atom_site_symmetry_multiplicity
 _atom_site_fract_x
 _atom_site_fract_y
 _atom_site_fract_z
 _atom_site_occupancy
  Sr  Sr0  1  0.81990600  0.83751000  0.96417100  1
  Sr  Sr1  1  0.18009400  0.14426400  0.01760400  1
  Sr  Sr2  1  0.62666100  0.64426400  0.96417100  1
  Sr  Sr3  1  0.37333900  0.33751000  0.01760400  1
  Y  Y0  1  0.50000000  0.48252500  0.98252500  1
  Y  Y1  1  0.00000000  0.98252500  0.98252500  1
  Al  Al0  1  0.17224700  0.76187200  0.43411800  1
  Al  Al1  1  0.82775300  0.26187200  0.58962500  1
  Co  Co0  1  0.92264100  0.39935300  0.48590300  1
  Co  Co1  1  0.07735900  0.56326200  0.47671200  1
  Co  Co2  1  0.58655000  0.06326200  0.48590300  1
  Co  Co3  1  0.41345000  0.89935300  0.47671200  1
  O  O0  1  0.91061800  0.57828800  0.98890700  1
  O  O1  1  0.08938200  0.07828800  0.66767000  1
  O  O2  1  0.71365000  0.68829300  0.53124300  1
  O  O3  1  0.28635000  0.81759200  0.97464300  1
  O  O4  1  0.34294900  0.31759200  0.53124300  1
  O  O5  1  0.65705100  0.18829300  0.97464300  1
  O  O6  1  0.15009100  0.12876500  0.41660500  1
  O  O7  1  0.84990900  0.26651400  0.97867400  1
  O  O8  1  0.78784000  0.76651400  0.41660500  1
  O  O9  1  0.21216000  0.62876500  0.97867400  1
  O  O10  1  0.37798500  0.77580500  0.51394500  1
  O  O11  1  0.62201500  0.13596000  0.39782000  1
  O  O12  1  0.23814000  0.63596000  0.51394500  1
  O  O13  1  0.76186000  0.27580500  0.39782000  1
loop_
_geom_bond_atom_site_label_1
_geom_bond_atom_site_label_2
_geom_bond_distance
_geom_bond_site_symmetry_2
Al0 O10 1.759339 1_555
Al0 O12 1.759358 1_555
Al0 O0 1.811115 1_454
Al0 O1 1.817079 1_565
Al1 O13 1.759348 1_555
Al1 O11 1.759348 1_555
Al1 O1 1.811123 1_655
Al1 O0 1.817081 1_555
Co0 O9 2.006911 1_655
Co0 O6 2.015780 1_655
Co0 O2 2.023170 1_555
Co0 O5 2.091267 1_554
Co0 O13 2.205292 1_555
Co1 O8 2.006911 1_455
Co1 O7 2.015780 1_454
Co1 O3 2.023172 1_555
Co1 O4 2.091269 1_555
Co1 O12 2.205292 1_555
Co2 O7 2.006911 1_555
Co2 O8 2.015780 1_545
Co2 O4 2.023174 1_555
Co2 O3 2.091267 1_544
Co2 O11 2.205292 1_555
Co3 O6 2.006911 1_565
Co3 O9 2.015780 1_554
Co3 O5 2.023172 1_565
Co3 O2 2.091265 1_555
Co3 O10 2.205292 1_555
O0 Sr2 2.556326 1_555
O0 Sr0 2.556338 1_555
O1 Sr3 2.556328 1_556
O1 Sr1 2.556338 1_556
O2 Y1 2.297399 1_655
O2 Y0 2.614086 1_554
O2 Sr0 2.615630 1_555
O2 Sr3 2.835627 1_555
O3 Y1 2.297395 1_555
O3 Y0 2.614076 1_555
O3 Sr1 2.615630 1_566
O3 Sr2 2.835627 1_555
O4 Y0 2.297385 1_555
O4 Y1 2.614074 1_544
O4 Sr2 2.615638 1_555
O4 Sr1 2.835634 1_555
O5 Y0 2.297395 1_555
O5 Y1 2.614076 1_645
O5 Sr3 2.615641 1_556
O5 Sr0 2.835631 1_545
O6 Y1 2.305872 1_544
O6 Sr0 2.605663 1_444
O6 Y0 2.721523 1_555
O6 Sr3 3.040535 1_556
O7 Y1 2.305872 1_645
O7 Sr1 2.605658 1_656
O7 Y0 2.721523 1_555
O7 Sr2 3.040525 1_555
O8 Y0 2.305872 1_554
O8 Sr2 2.605655 1_554
O8 Y1 2.721523 1_655
O8 Sr1 3.040528 1_666
O9 Y0 2.305872 1_555
O9 Sr3 2.605663 1_556
O9 Y1 2.721523 1_555
O9 Sr0 3.040535 1_455
O10 Sr0 2.457655 1_555
O10 Sr3 2.650596 1_555
O10 Sr3 3.029362 1_566
O11 Sr1 2.457654 1_555
O11 Sr2 2.650601 1_544
O11 Sr2 3.029361 1_555
O12 Sr2 2.457660 1_555
O12 Sr1 2.650601 1_555
O12 Sr1 3.029361 1_566
O13 Sr3 2.457655 1_555
O13 Sr0 2.650596 1_544
O13 Sr0 3.029362 1_555
