# generated using pymatgen
data_K3NaCr2O8
_symmetry_space_group_name_H-M   'P 1'
_cell_length_a   5.97880934
_cell_length_b   5.97880934
_cell_length_c   15.20873353
_cell_angle_alpha   89.78351357
_cell_angle_beta   89.78351357
_cell_angle_gamma   59.85209233
_symmetry_Int_Tables_number   1
_chemical_formula_structural   K3NaCr2O8
_chemical_formula_sum   'K6 Na2 Cr4 O16'
_cell_volume   470.11028615
_cell_formula_units_Z   2
loop_
 _symmetry_equiv_pos_site_id
 _symmetry_equiv_pos_as_xyz
  1  'x, y, z'
loop_
 _atom_site_type_symbol
 _atom_site_label
 _atom_site_symmetry_multiplicity
 _atom_site_fract_x
 _atom_site_fract_y
 _atom_site_fract_z
 _atom_site_occupancy
  K  K0  1  0.67226100  0.66205900  0.91447500  1
  K  K1  1  0.33794100  0.32773900  0.58552500  1
  K  K2  1  0.32773900  0.33794100  0.08552500  1
  K  K3  1  0.66205900  0.67226100  0.41447500  1
  K  K4  1  0.01752700  0.98247300  0.75000000  1
  K  K5  1  0.98247300  0.01752700  0.25000000  1
  Na  Na0  1  0.00000000  0.00000000  0.50000000  1
  Na  Na1  1  0.00000000  0.00000000  0.00000000  1
  Cr  Cr0  1  0.67009500  0.66086100  0.63595900  1
  Cr  Cr1  1  0.33913900  0.32990500  0.86404100  1
  Cr  Cr2  1  0.32990500  0.33913900  0.36404100  1
  Cr  Cr3  1  0.66086100  0.67009500  0.13595900  1
  O  O0  1  0.65377200  0.68018700  0.74382900  1
  O  O1  1  0.31981300  0.34622800  0.75617100  1
  O  O2  1  0.34622800  0.31981300  0.25617100  1
  O  O3  1  0.68018700  0.65377200  0.24382900  1
  O  O4  1  0.37178800  0.80661400  0.59319700  1
  O  O5  1  0.19338600  0.62821200  0.90680300  1
  O  O6  1  0.62821200  0.19338600  0.40680300  1
  O  O7  1  0.80661400  0.37178800  0.09319700  1
  O  O8  1  0.82691400  0.35177500  0.60367500  1
  O  O9  1  0.64822500  0.17308600  0.89632500  1
  O  O10  1  0.17308600  0.64822500  0.39632500  1
  O  O11  1  0.35177500  0.82691400  0.10367500  1
  O  O12  1  0.82627000  0.80721600  0.59680700  1
  O  O13  1  0.19278400  0.17373000  0.90319300  1
  O  O14  1  0.17373000  0.19278400  0.40319300  1
  O  O15  1  0.80721600  0.82627000  0.09680700  1
loop_
_geom_bond_atom_site_label_1
_geom_bond_atom_site_label_2
_geom_bond_distance
_geom_bond_site_symmetry_2
K0 O0 2.597615 1_555
K1 O1 2.597615 1_555
K2 O2 2.597615 1_555
K3 O3 2.597615 1_555
K4 O9 2.929326 1_465
K4 O8 2.929326 1_465
K4 O5 3.003776 1_555
K4 O4 3.003776 1_555
K4 O13 3.012628 1_565
K4 O12 3.012628 1_455
K4 O1 3.292170 1_555
K4 O0 3.292170 1_555
K5 O10 2.929326 1_645
K5 O11 2.929326 1_645
K5 O6 3.003776 1_555
K5 O7 3.003776 1_555
K5 O14 3.012628 1_655
K5 O15 3.012628 1_545
K5 O2 3.292170 1_555
K5 O3 3.292170 1_555
Na0 O4 2.390981 1_545
Na0 O6 2.390981 1_455
Na0 O12 2.398608 1_445
Na0 O14 2.398608 1_555
Na0 O8 2.409782 1_455
Na0 O10 2.409782 1_545
Na1 O7 2.390981 1_455
Na1 O5 2.390981 1_544
Na1 O15 2.398608 1_445
Na1 O13 2.398608 1_554
Na1 O11 2.409782 1_545
Na1 O9 2.409782 1_454
Cr0 O0 1.644150 1_555
Cr0 O8 1.672763 1_555
Cr0 O12 1.674715 1_555
Cr0 O4 1.675298 1_555
Cr1 O1 1.644150 1_555
Cr1 O9 1.672763 1_555
Cr1 O13 1.674715 1_555
Cr1 O5 1.675298 1_555
Cr2 O2 1.644150 1_555
Cr2 O10 1.672763 1_555
Cr2 O14 1.674715 1_555
Cr2 O6 1.675298 1_555
Cr3 O3 1.644150 1_555
Cr3 O11 1.672763 1_555
Cr3 O15 1.674715 1_555
Cr3 O7 1.675298 1_555
