# generated using pymatgen
data_La21Mn8Sn7C12
_symmetry_space_group_name_H-M   'P 1'
_cell_length_a   11.68527756
_cell_length_b   11.68527756
_cell_length_c   11.68527756
_cell_angle_alpha   60.00000000
_cell_angle_beta   60.00000000
_cell_angle_gamma   60.00000000
_symmetry_Int_Tables_number   1
_chemical_formula_structural   La21Mn8Sn7C12
_chemical_formula_sum   'La21 Mn8 Sn7 C12'
_cell_volume   1128.24157622
_cell_formula_units_Z   1
loop_
 _symmetry_equiv_pos_site_id
 _symmetry_equiv_pos_as_xyz
  1  'x, y, z'
loop_
 _atom_site_type_symbol
 _atom_site_label
 _atom_site_symmetry_multiplicity
 _atom_site_fract_x
 _atom_site_fract_y
 _atom_site_fract_z
 _atom_site_occupancy
  La  La0  1  0.00000000  0.00000000  0.33972400  1
  La  La1  1  0.66027600  0.00000000  0.33972400  1
  La  La2  1  0.00000000  0.66027600  0.33972400  1
  La  La3  1  0.66027600  0.33972400  0.00000000  1
  La  La4  1  0.00000000  0.33972400  0.00000000  1
  La  La5  1  0.00000000  0.33972400  0.66027600  1
  La  La6  1  0.33972400  0.66027600  0.00000000  1
  La  La7  1  0.33972400  0.00000000  0.66027600  1
  La  La8  1  0.33972400  0.00000000  0.00000000  1
  La  La9  1  0.00000000  0.00000000  0.66027600  1
  La  La10  1  0.00000000  0.66027600  0.00000000  1
  La  La11  1  0.66027600  0.00000000  0.00000000  1
  La  La12  1  0.63426100  0.63426100  0.09721800  1
  La  La13  1  0.63426100  0.09721800  0.63426100  1
  La  La14  1  0.09721800  0.63426100  0.63426100  1
  La  La15  1  0.63426100  0.63426100  0.63426100  1
  La  La16  1  0.36573900  0.36573900  0.90278200  1
  La  La17  1  0.36573900  0.90278200  0.36573900  1
  La  La18  1  0.90278200  0.36573900  0.36573900  1
  La  La19  1  0.36573900  0.36573900  0.36573900  1
  La  La20  1  0.50000000  0.50000000  0.50000000  1
  Mn  Mn0  1  0.80235100  0.80235100  0.59294800  1
  Mn  Mn1  1  0.80235100  0.59294800  0.80235100  1
  Mn  Mn2  1  0.59294800  0.80235100  0.80235100  1
  Mn  Mn3  1  0.80235100  0.80235100  0.80235100  1
  Mn  Mn4  1  0.19764900  0.19764900  0.40705200  1
  Mn  Mn5  1  0.19764900  0.40705200  0.19764900  1
  Mn  Mn6  1  0.40705200  0.19764900  0.19764900  1
  Mn  Mn7  1  0.19764900  0.19764900  0.19764900  1
  Sn  Sn0  1  0.71028100  0.71028100  0.28971900  1
  Sn  Sn1  1  0.28971900  0.71028100  0.28971900  1
  Sn  Sn2  1  0.71028100  0.28971900  0.28971900  1
  Sn  Sn3  1  0.28971900  0.28971900  0.71028100  1
  Sn  Sn4  1  0.71028100  0.28971900  0.71028100  1
  Sn  Sn5  1  0.28971900  0.71028100  0.71028100  1
  Sn  Sn6  1  0.00000000  0.00000000  0.00000000  1
  C  C0  1  0.89186100  0.89186100  0.60813900  1
  C  C1  1  0.60813900  0.89186100  0.60813900  1
  C  C2  1  0.89186100  0.60813900  0.60813900  1
  C  C3  1  0.60813900  0.60813900  0.89186100  1
  C  C4  1  0.89186100  0.60813900  0.89186100  1
  C  C5  1  0.60813900  0.89186100  0.89186100  1
  C  C6  1  0.10813900  0.10813900  0.39186100  1
  C  C7  1  0.39186100  0.10813900  0.39186100  1
  C  C8  1  0.10813900  0.39186100  0.39186100  1
  C  C9  1  0.39186100  0.39186100  0.10813900  1
  C  C10  1  0.10813900  0.39186100  0.10813900  1
  C  C11  1  0.39186100  0.10813900  0.10813900  1
loop_
_geom_bond_atom_site_label_1
_geom_bond_atom_site_label_2
_geom_bond_distance
_geom_bond_site_symmetry_2
La0 Sn2 3.435503 1_455
La0 Sn1 3.435503 1_545
La0 Sn6 3.969769 1_555
La1 Sn0 3.435503 1_545
La1 Sn2 3.435503 1_555
La1 Sn6 3.969769 1_655
La2 Sn0 3.435503 1_455
La2 Sn1 3.435503 1_555
La2 Sn6 3.969769 1_565
La3 Sn4 3.435503 1_554
La3 Sn2 3.435503 1_555
La3 Sn6 3.969769 1_655
La4 Sn2 3.435503 1_455
La4 Sn3 3.435503 1_554
La4 Sn6 3.969769 1_555
La5 Sn4 3.435503 1_455
La5 Sn3 3.435503 1_555
La5 Sn6 3.969769 1_556
La6 Sn5 3.435503 1_554
La6 Sn1 3.435503 1_555
La6 Sn6 3.969769 1_565
La7 Sn5 3.435503 1_545
La7 Sn3 3.435503 1_555
La7 Sn6 3.969769 1_556
La8 Sn1 3.435503 1_545
La8 Sn3 3.435503 1_554
La8 Sn6 3.969769 1_555
La9 Sn4 3.435503 1_455
La9 Sn5 3.435503 1_545
La9 Sn6 3.969769 1_556
La10 Sn0 3.435503 1_455
La10 Sn5 3.435503 1_554
La10 Sn6 3.969769 1_565
La11 Sn0 3.435503 1_545
La11 Sn4 3.435503 1_554
La11 Sn6 3.969769 1_655
La12 Sn0 3.379887 1_555
La12 Sn1 3.379895 1_555
La12 Sn2 3.379895 1_555
La13 Sn4 3.379887 1_555
La13 Sn2 3.379895 1_555
La13 Sn3 3.379895 1_555
La14 Sn5 3.379887 1_555
La14 Sn1 3.379895 1_555
La14 Sn3 3.379895 1_555
La15 Sn4 3.379898 1_555
La15 Sn5 3.379898 1_555
La15 Sn0 3.379898 1_555
La16 Sn3 3.379887 1_555
La16 Sn4 3.379895 1_555
La16 Sn5 3.379895 1_555
La17 Sn1 3.379887 1_555
La17 Sn0 3.379895 1_555
La17 Sn5 3.379895 1_555
La18 Sn2 3.379887 1_555
La18 Sn4 3.379895 1_555
La18 Sn0 3.379895 1_555
La19 Sn2 3.379898 1_555
La19 Sn3 3.379898 1_555
La19 Sn1 3.379898 1_555
La20 Sn3 3.474994 1_555
La20 Sn1 3.474994 1_555
La20 Sn2 3.474994 1_555
La20 Sn0 3.474994 1_555
La20 Sn4 3.474994 1_555
La20 Sn5 3.474994 1_555
C0 Mn0 1.919603 1_555
C0 Mn3 1.919610 1_555
C0 La9 2.588664 1_665
C0 La0 2.588664 1_665
C0 La14 2.739119 1_655
C0 La13 2.739119 1_565
C1 Mn2 1.919613 1_555
C1 Mn0 1.919613 1_555
C1 La7 2.588664 1_565
C1 La1 2.588664 1_565
C1 La15 2.739114 1_555
C1 La13 2.739126 1_565
C2 Mn0 1.919613 1_555
C2 Mn1 1.919613 1_555
C2 La5 2.588664 1_655
C2 La2 2.588664 1_655
C2 La15 2.739114 1_555
C2 La14 2.739126 1_655
C3 Mn1 1.919613 1_555
C3 Mn2 1.919613 1_555
C3 La3 2.588664 1_556
C3 La6 2.588664 1_556
C3 La15 2.739114 1_555
C3 La12 2.739126 1_556
C4 Mn1 1.919603 1_555
C4 Mn3 1.919610 1_555
C4 La10 2.588664 1_656
C4 La4 2.588664 1_656
C4 La12 2.739119 1_556
C4 La14 2.739119 1_655
C5 Mn2 1.919603 1_555
C5 Mn3 1.919610 1_555
C5 La8 2.588664 1_566
C5 La11 2.588664 1_566
C5 La12 2.739119 1_556
C5 La13 2.739119 1_565
C6 Mn4 1.919603 1_555
C6 Mn7 1.919610 1_555
C6 La9 2.588664 1_555
C6 La0 2.588664 1_555
C6 La18 2.739119 1_455
C6 La17 2.739119 1_545
C7 Mn4 1.919613 1_555
C7 Mn6 1.919613 1_555
C7 La1 2.588664 1_555
C7 La7 2.588664 1_555
C7 La19 2.739114 1_555
C7 La17 2.739126 1_545
C8 Mn4 1.919613 1_555
C8 Mn5 1.919613 1_555
C8 La5 2.588664 1_555
C8 La2 2.588664 1_555
C8 La19 2.739114 1_555
C8 La18 2.739126 1_455
C9 Mn5 1.919613 1_555
C9 Mn6 1.919613 1_555
C9 La3 2.588664 1_555
C9 La6 2.588664 1_555
C9 La19 2.739114 1_555
C9 La16 2.739126 1_554
C10 Mn5 1.919603 1_555
C10 Mn7 1.919610 1_555
C10 La10 2.588664 1_555
C10 La4 2.588664 1_555
C10 La16 2.739119 1_554
C10 La18 2.739119 1_455
C11 Mn6 1.919603 1_555
C11 Mn7 1.919610 1_555
C11 La11 2.588664 1_555
C11 La8 2.588664 1_555
C11 La17 2.739119 1_545
C11 La16 2.739119 1_554
