# generated using pymatgen
data_Tl2FeH12(SO7)2
_symmetry_space_group_name_H-M   'P 1'
_cell_length_a   12.78137200
_cell_length_b   6.37694400
_cell_length_c   9.32354241
_cell_angle_alpha   74.75367955
_cell_angle_beta   90.00000000
_cell_angle_gamma   90.00000000
_symmetry_Int_Tables_number   1
_chemical_formula_structural   Tl2FeH12(SO7)2
_chemical_formula_sum   'Tl4 Fe2 H24 S4 O28'
_cell_volume   733.17934281
_cell_formula_units_Z   2
loop_
 _symmetry_equiv_pos_site_id
 _symmetry_equiv_pos_as_xyz
  1  'x, y, z'
loop_
 _atom_site_type_symbol
 _atom_site_label
 _atom_site_symmetry_multiplicity
 _atom_site_fract_x
 _atom_site_fract_y
 _atom_site_fract_z
 _atom_site_occupancy
  Tl  Tl0  1  0.13900600  0.65425300  0.62078800  1
  Tl  Tl1  1  0.63900600  0.34574700  0.87921200  1
  Tl  Tl2  1  0.86099400  0.34574700  0.37921200  1
  Tl  Tl3  1  0.36099400  0.65425300  0.12078800  1
  Fe  Fe0  1  0.50000000  0.00000000  0.50000000  1
  Fe  Fe1  1  0.00000000  0.00000000  0.00000000  1
  H  H0  1  0.40280100  0.67627200  0.71868800  1
  H  H1  1  0.90280100  0.32372800  0.78131200  1
  H  H2  1  0.59719900  0.32372800  0.28131200  1
  H  H3  1  0.09719900  0.67627200  0.21868800  1
  H  H4  1  0.37216600  0.90674800  0.74590300  1
  H  H5  1  0.87216600  0.09325200  0.75409700  1
  H  H6  1  0.62783400  0.09325200  0.25409700  1
  H  H7  1  0.12783400  0.90674800  0.24590300  1
  H  H8  1  0.39796700  0.06969100  0.22576900  1
  H  H9  1  0.89796700  0.93030900  0.27423100  1
  H  H10  1  0.60203300  0.93030900  0.77423100  1
  H  H11  1  0.10203300  0.06969100  0.72576900  1
  H  H12  1  0.31145100  0.00810700  0.35074100  1
  H  H13  1  0.81145100  0.99189300  0.14925900  1
  H  H14  1  0.68854900  0.99189300  0.64925900  1
  H  H15  1  0.18854900  0.00810700  0.85074100  1
  H  H16  1  0.56422000  0.66007100  0.40133800  1
  H  H17  1  0.06422000  0.33992900  0.09866200  1
  H  H18  1  0.43578000  0.33992900  0.59866200  1
  H  H19  1  0.93578000  0.66007100  0.90133800  1
  H  H20  1  0.64467000  0.67399400  0.52639000  1
  H  H21  1  0.14467000  0.32600600  0.97361000  1
  H  H22  1  0.35533000  0.32600600  0.47361000  1
  H  H23  1  0.85533000  0.67399400  0.02639000  1
  S  S0  1  0.36051200  0.26449200  0.90371000  1
  S  S1  1  0.86051200  0.73550800  0.59629000  1
  S  S2  1  0.63948800  0.73550800  0.09629000  1
  S  S3  1  0.13948800  0.26449200  0.40371000  1
  O  O0  1  0.26795400  0.40123200  0.91586000  1
  O  O1  1  0.76795400  0.59876800  0.58414000  1
  O  O2  1  0.73204600  0.59876800  0.08414000  1
  O  O3  1  0.23204600  0.40123200  0.41586000  1
  O  O4  1  0.42441200  0.22067300  0.04237200  1
  O  O5  1  0.92441200  0.77932700  0.45762800  1
  O  O6  1  0.57558800  0.77932700  0.95762800  1
  O  O7  1  0.07558800  0.22067300  0.54237200  1
  O  O8  1  0.42741500  0.38783100  0.77646000  1
  O  O9  1  0.92741500  0.61216900  0.72354000  1
  O  O10  1  0.57258500  0.61216900  0.22354000  1
  O  O11  1  0.07258500  0.38783100  0.27646000  1
  O  O12  1  0.32472500  0.05447100  0.87540900  1
  O  O13  1  0.82472500  0.94552900  0.62459100  1
  O  O14  1  0.67527500  0.94552900  0.12459100  1
  O  O15  1  0.17527500  0.05447100  0.37540900  1
  O  O16  1  0.38817500  0.83118200  0.66840400  1
  O  O17  1  0.88817500  0.16881800  0.83159600  1
  O  O18  1  0.61182500  0.16881800  0.33159600  1
  O  O19  1  0.11182500  0.83118200  0.16840400  1
  O  O20  1  0.38470500  0.97630800  0.32764600  1
  O  O21  1  0.88470500  0.02369200  0.17235400  1
  O  O22  1  0.61529500  0.02369200  0.67235400  1
  O  O23  1  0.11529500  0.97630800  0.82764600  1
  O  O24  1  0.56990500  0.69976300  0.49676900  1
  O  O25  1  0.06990500  0.30023700  0.00323100  1
  O  O26  1  0.43009500  0.30023700  0.50323100  1
  O  O27  1  0.93009500  0.69976300  0.99676900  1
loop_
_geom_bond_atom_site_label_1
_geom_bond_atom_site_label_2
_geom_bond_distance
_geom_bond_site_symmetry_2
Fe0 O26 2.120194 1_555
Fe0 O24 2.120194 1_545
Fe0 O18 2.185878 1_555
Fe0 O16 2.185878 1_545
Fe0 O22 2.214584 1_555
Fe0 O20 2.214584 1_545
Fe1 O25 2.120194 1_555
Fe1 O27 2.120194 1_444
Fe1 O19 2.185878 1_545
Fe1 O17 2.185878 1_454
Fe1 O21 2.214584 1_455
Fe1 O23 2.214584 1_544
H0 O16 0.993488 1_555
H1 O17 0.993488 1_555
H2 O18 0.993488 1_555
H3 O19 0.993488 1_555
H4 O16 0.989598 1_555
H5 O17 0.989598 1_555
H6 O18 0.989598 1_555
H7 O19 0.989598 1_555
H8 O20 0.994024 1_545
H9 O21 0.994024 1_565
H10 O22 0.994024 1_565
H11 O23 0.994024 1_545
H12 O20 0.993521 1_545
H13 O21 0.993521 1_565
H14 O22 0.993521 1_565
H15 O23 0.993521 1_545
H16 O24 0.989675 1_555
H17 O25 0.989675 1_555
H18 O26 0.989675 1_555
H19 O27 0.989675 1_555
H20 O24 0.996281 1_555
H20 O1 1.693263 1_555
H21 O25 0.996281 1_556
H21 O0 1.693263 1_555
H22 O26 0.996281 1_555
H22 O3 1.693263 1_555
H23 O27 0.996281 1_554
H23 O2 1.693263 1_555
O0 S0 1.491533 1_555
O1 S1 1.491533 1_555
O2 S2 1.491533 1_555
O3 S3 1.491533 1_555
O4 S0 1.492152 1_554
O5 S1 1.492152 1_555
O6 S2 1.492152 1_556
O7 S3 1.492152 1_555
O8 S0 1.505541 1_555
O8 Tl1 2.858058 1_555
O9 S1 1.505541 1_555
O9 Tl0 2.858058 1_655
O10 S2 1.505541 1_555
O10 Tl3 2.858058 1_555
O11 S3 1.505541 1_555
O11 Tl2 2.858058 1_455
O12 S0 1.502802 1_555
O13 S1 1.502802 1_555
O14 S2 1.502802 1_555
O15 S3 1.502802 1_555
