# generated using pymatgen
data_Tb3SOF5
_symmetry_space_group_name_H-M   'P 1'
_cell_length_a   3.70226400
_cell_length_b   9.44405500
_cell_length_c   9.50322449
_cell_angle_alpha   60.43516626
_cell_angle_beta   90.00000000
_cell_angle_gamma   90.00000000
_symmetry_Int_Tables_number   1
_chemical_formula_structural   Tb3SOF5
_chemical_formula_sum   'Tb6 S2 O2 F10'
_cell_volume   289.01158419
_cell_formula_units_Z   2
loop_
 _symmetry_equiv_pos_site_id
 _symmetry_equiv_pos_as_xyz
  1  'x, y, z'
loop_
 _atom_site_type_symbol
 _atom_site_label
 _atom_site_symmetry_multiplicity
 _atom_site_fract_x
 _atom_site_fract_y
 _atom_site_fract_z
 _atom_site_occupancy
  Tb  Tb0  1  0.00000000  0.41779100  0.86580500  1
  Tb  Tb1  1  0.00000000  0.86766400  0.72897700  1
  Tb  Tb2  1  0.00000000  0.70072800  0.41488700  1
  Tb  Tb3  1  0.50000000  0.59520400  0.10321700  1
  Tb  Tb4  1  0.50000000  0.12281700  0.28591600  1
  Tb  Tb5  1  0.50000000  0.29615500  0.59695400  1
  S  S0  1  0.00000000  0.32871600  0.33283800  1
  S  S1  1  0.50000000  0.67292600  0.66183100  1
  O  O0  1  0.00000000  0.43660700  0.61242400  1
  O  O1  1  0.00000000  0.61670600  0.94761500  1
  F  F0  1  0.00000000  0.15918400  0.12024200  1
  F  F1  1  0.00000000  0.11210500  0.72634100  1
  F  F2  1  0.00000000  0.72443700  0.16255300  1
  F  F3  1  0.50000000  0.85453500  0.88219500  1
  F  F4  1  0.50000000  0.87861300  0.28552500  1
  F  F5  1  0.50000000  0.27241100  0.85044000  1
  F  F6  1  0.00000000  0.95276700  0.43345600  1
  F  F7  1  0.50000000  0.56872800  0.37444200  1
  F  F8  1  0.50000000  0.37791500  0.04702900  1
  F  F9  1  0.50000000  0.04399300  0.56731300  1
loop_
_geom_bond_atom_site_label_1
_geom_bond_atom_site_label_2
_geom_bond_distance
_geom_bond_site_symmetry_2
S0 Tb4 2.874429 1_455
S0 Tb4 2.874429 1_555
S0 Tb5 3.009894 1_555
S0 Tb5 3.009894 1_455
S0 Tb3 3.017100 1_555
S0 Tb3 3.017100 1_455
S1 Tb1 2.893836 1_655
S1 Tb1 2.893836 1_555
S1 Tb0 2.894964 1_555
S1 Tb0 2.894964 1_655
S1 Tb2 2.897392 1_555
S1 Tb2 2.897392 1_655
O0 Tb2 2.263873 1_555
O0 Tb5 2.323827 1_555
O0 Tb5 2.323827 1_455
O0 Tb0 2.325401 1_555
O1 Tb1 2.252730 1_555
O1 Tb3 2.314783 1_556
O1 Tb3 2.314783 1_456
O1 Tb0 2.361080 1_555
F0 Tb4 2.343051 1_455
F0 Tb4 2.343051 1_555
F0 Tb0 2.446192 1_554
F1 Tb1 2.296258 1_545
F1 Tb5 2.418838 1_555
F1 Tb5 2.418838 1_455
F2 Tb2 2.295784 1_555
F2 Tb3 2.431742 1_555
F2 Tb3 2.431742 1_455
F3 Tb3 2.309468 1_556
F3 Tb1 2.320351 1_555
F3 Tb1 2.320351 1_655
F4 Tb4 2.308112 1_565
F4 Tb2 2.392117 1_655
F4 Tb2 2.392117 1_555
F5 Tb5 2.306554 1_555
F5 Tb0 2.351789 1_555
F5 Tb0 2.351789 1_655
F6 Tb4 2.397845 1_465
F6 Tb4 2.397845 1_565
F6 Tb2 2.472109 1_555
F6 Tb1 2.511112 1_555
F7 Tb2 2.366707 1_555
F7 Tb2 2.366707 1_655
F7 Tb5 2.392980 1_555
F7 Tb3 2.463758 1_555
F8 Tb4 2.358110 1_555
F8 Tb3 2.361672 1_555
F8 Tb0 2.427861 1_654
F8 Tb0 2.427861 1_554
F9 Tb4 2.396024 1_555
F9 Tb1 2.456711 1_645
F9 Tb1 2.456711 1_545
F9 Tb5 2.532298 1_555
