# generated using pymatgen
data_CaMg14NbO16
_symmetry_space_group_name_H-M   'P 1'
_cell_length_a   4.36722200
_cell_length_b   8.63698300
_cell_length_c   8.72199000
_cell_angle_alpha   90.00000000
_cell_angle_beta   90.00000000
_cell_angle_gamma   90.00000000
_symmetry_Int_Tables_number   1
_chemical_formula_structural   CaMg14NbO16
_chemical_formula_sum   'Ca1 Mg14 Nb1 O16'
_cell_volume   328.99016738
_cell_formula_units_Z   1
loop_
 _symmetry_equiv_pos_site_id
 _symmetry_equiv_pos_as_xyz
  1  'x, y, z'
loop_
 _atom_site_type_symbol
 _atom_site_label
 _atom_site_symmetry_multiplicity
 _atom_site_fract_x
 _atom_site_fract_y
 _atom_site_fract_z
 _atom_site_occupancy
  Ca  Ca0  1  0.00000000  0.00000000  0.00000000  1
  Mg  Mg0  1  0.00000000  0.50000000  0.00000000  1
  Mg  Mg1  1  0.00000000  0.50000000  0.50000000  1
  Mg  Mg2  1  0.50000000  0.00000000  0.25041400  1
  Mg  Mg3  1  0.50000000  0.00000000  0.74958600  1
  Mg  Mg4  1  0.50000000  0.50000000  0.25004600  1
  Mg  Mg5  1  0.50000000  0.50000000  0.74995400  1
  Mg  Mg6  1  0.50000000  0.25571100  0.00000000  1
  Mg  Mg7  1  0.50000000  0.25424600  0.50000000  1
  Mg  Mg8  1  0.50000000  0.74428900  0.00000000  1
  Mg  Mg9  1  0.50000000  0.74575400  0.50000000  1
  Mg  Mg10  1  0.00000000  0.25494300  0.25075100  1
  Mg  Mg11  1  0.00000000  0.25494300  0.74924900  1
  Mg  Mg12  1  0.00000000  0.74505700  0.25075100  1
  Mg  Mg13  1  0.00000000  0.74505700  0.74924900  1
  Nb  Nb0  1  0.00000000  0.00000000  0.50000000  1
  O  O0  1  0.00000000  0.26454300  0.00000000  1
  O  O1  1  0.00000000  0.26303200  0.50000000  1
  O  O2  1  0.00000000  0.73545700  0.00000000  1
  O  O3  1  0.00000000  0.73696800  0.50000000  1
  O  O4  1  0.50000000  0.24884200  0.25033900  1
  O  O5  1  0.50000000  0.24884200  0.74966100  1
  O  O6  1  0.50000000  0.75115800  0.25033900  1
  O  O7  1  0.50000000  0.75115800  0.74966100  1
  O  O8  1  0.50000000  0.00000000  0.00000000  1
  O  O9  1  0.50000000  0.00000000  0.50000000  1
  O  O10  1  0.50000000  0.50000000  0.00000000  1
  O  O11  1  0.50000000  0.50000000  0.50000000  1
  O  O12  1  0.00000000  0.00000000  0.25062100  1
  O  O13  1  0.00000000  0.00000000  0.74937900  1
  O  O14  1  0.00000000  0.50000000  0.25103300  1
  O  O15  1  0.00000000  0.50000000  0.74896700  1
loop_
_geom_bond_atom_site_label_1
_geom_bond_atom_site_label_2
_geom_bond_distance
_geom_bond_site_symmetry_2
Ca0 O8 2.183611 1_555
Ca0 O8 2.183611 1_455
Ca0 O12 2.185914 1_555
Ca0 O13 2.185914 1_554
Ca0 O0 2.284853 1_555
Ca0 O2 2.284853 1_545
Mg0 O2 2.033638 1_555
Mg0 O0 2.033638 1_555
Mg0 O10 2.183611 1_555
Mg0 O10 2.183611 1_455
Mg0 O14 2.189507 1_555
Mg0 O15 2.189507 1_554
Mg1 O3 2.046689 1_555
Mg1 O1 2.046689 1_555
Mg1 O15 2.171488 1_555
Mg1 O14 2.171488 1_555
Mg1 O11 2.183611 1_455
Mg1 O11 2.183611 1_555
Mg2 O4 2.149244 1_555
Mg2 O6 2.149244 1_545
Mg2 O9 2.176887 1_555
Mg2 O12 2.183612 1_655
Mg2 O12 2.183612 1_555
Mg2 O8 2.184108 1_555
Mg3 O5 2.149244 1_555
Mg3 O7 2.149244 1_545
Mg3 O9 2.176887 1_555
Mg3 O13 2.183612 1_655
Mg3 O13 2.183612 1_555
Mg3 O8 2.184108 1_556
Mg4 O6 2.169249 1_555
Mg4 O4 2.169249 1_555
Mg4 O11 2.180096 1_555
Mg4 O10 2.180899 1_555
Mg4 O14 2.183628 1_555
Mg4 O14 2.183628 1_655
Mg5 O7 2.169249 1_555
Mg5 O5 2.169249 1_555
Mg5 O11 2.180096 1_555
Mg5 O10 2.180899 1_556
Mg5 O15 2.183628 1_655
Mg5 O15 2.183628 1_555
Mg6 O10 2.109920 1_555
Mg6 O4 2.184260 1_555
Mg6 O5 2.184260 1_554
Mg6 O0 2.184943 1_555
Mg6 O0 2.184943 1_655
Mg6 O8 2.208572 1_555
Mg7 O11 2.122573 1_555
Mg7 O5 2.178041 1_555
Mg7 O4 2.178041 1_555
Mg7 O1 2.184929 1_555
Mg7 O1 2.184929 1_655
Mg7 O9 2.195918 1_555
Mg8 O10 2.109920 1_555
Mg8 O6 2.184260 1_555
Mg8 O7 2.184260 1_554
Mg8 O2 2.184943 1_655
Mg8 O2 2.184943 1_555
Mg8 O8 2.208572 1_565
Mg9 O11 2.122573 1_555
Mg9 O7 2.178041 1_555
Mg9 O6 2.178041 1_555
Mg9 O3 2.184929 1_655
Mg9 O3 2.184929 1_555
Mg9 O9 2.195918 1_565
Mg10 O14 2.116555 1_555
Mg10 O1 2.175070 1_555
Mg10 O4 2.184250 1_555
Mg10 O4 2.184250 1_455
Mg10 O0 2.188619 1_555
Mg10 O12 2.201939 1_555
Mg11 O15 2.116555 1_555
Mg11 O1 2.175070 1_555
Mg11 O5 2.184250 1_455
Mg11 O5 2.184250 1_555
Mg11 O0 2.188619 1_556
Mg11 O13 2.201939 1_555
Mg12 O14 2.116555 1_555
Mg12 O3 2.175070 1_555
Mg12 O6 2.184250 1_455
Mg12 O6 2.184250 1_555
Mg12 O2 2.188619 1_555
Mg12 O12 2.201939 1_565
Mg13 O15 2.116555 1_555
Mg13 O3 2.175070 1_555
Mg13 O7 2.184250 1_555
Mg13 O7 2.184250 1_455
Mg13 O2 2.188619 1_556
Mg13 O13 2.201939 1_565
Nb0 O12 2.175081 1_555
Nb0 O13 2.175081 1_555
Nb0 O9 2.183611 1_555
Nb0 O9 2.183611 1_455
Nb0 O1 2.271803 1_555
Nb0 O3 2.271803 1_545
