# generated using pymatgen
data_Ca2La3Si3O13
_symmetry_space_group_name_H-M   'P 1'
_cell_length_a   9.74793942
_cell_length_b   9.74793942
_cell_length_c   7.13603200
_cell_angle_alpha   90.00000000
_cell_angle_beta   90.00000000
_cell_angle_gamma   119.99999604
_symmetry_Int_Tables_number   1
_chemical_formula_structural   Ca2La3Si3O13
_chemical_formula_sum   'Ca4 La6 Si6 O26'
_cell_volume   587.23655282
_cell_formula_units_Z   2
loop_
 _symmetry_equiv_pos_site_id
 _symmetry_equiv_pos_as_xyz
  1  'x, y, z'
loop_
 _atom_site_type_symbol
 _atom_site_label
 _atom_site_symmetry_multiplicity
 _atom_site_fract_x
 _atom_site_fract_y
 _atom_site_fract_z
 _atom_site_occupancy
  Ca  Ca0  1  0.33333300  0.66666700  0.00338900  1
  Ca  Ca1  1  0.66666700  0.33333300  0.99661100  1
  Ca  Ca2  1  0.66666700  0.33333300  0.50338900  1
  Ca  Ca3  1  0.33333300  0.66666700  0.49661100  1
  La  La0  1  0.75992000  0.74825500  0.75000000  1
  La  La1  1  0.24008000  0.25174500  0.25000000  1
  La  La2  1  0.98833500  0.24008000  0.75000000  1
  La  La3  1  0.01166500  0.75992000  0.25000000  1
  La  La4  1  0.25174500  0.01166500  0.75000000  1
  La  La5  1  0.74825500  0.98833500  0.25000000  1
  Si  Si0  1  0.59767100  0.96968000  0.75000000  1
  Si  Si1  1  0.40232900  0.03032000  0.25000000  1
  Si  Si2  1  0.37200900  0.40232900  0.75000000  1
  Si  Si3  1  0.62799100  0.59767100  0.25000000  1
  Si  Si4  1  0.03032000  0.62799100  0.75000000  1
  Si  Si5  1  0.96968000  0.37200900  0.25000000  1
  O  O0  1  0.40309200  0.87101600  0.75000000  1
  O  O1  1  0.59690800  0.12898400  0.25000000  1
  O  O2  1  0.46792400  0.59690800  0.75000000  1
  O  O3  1  0.53207600  0.40309200  0.25000000  1
  O  O4  1  0.12898400  0.53207600  0.75000000  1
  O  O5  1  0.87101600  0.46792400  0.25000000  1
  O  O6  1  0.66071100  0.91061300  0.93171600  1
  O  O7  1  0.33928900  0.08938700  0.06828400  1
  O  O8  1  0.24990200  0.33928900  0.93171600  1
  O  O9  1  0.33928900  0.08938700  0.43171600  1
  O  O10  1  0.75009800  0.66071100  0.06828400  1
  O  O11  1  0.66071100  0.91061300  0.56828400  1
  O  O12  1  0.08938700  0.75009800  0.93171600  1
  O  O13  1  0.75009800  0.66071100  0.43171600  1
  O  O14  1  0.91061300  0.24990200  0.06828400  1
  O  O15  1  0.24990200  0.33928900  0.56828400  1
  O  O16  1  0.91061300  0.24990200  0.43171600  1
  O  O17  1  0.08938700  0.75009800  0.56828400  1
  O  O18  1  0.83825200  0.51215700  0.75000000  1
  O  O19  1  0.16174800  0.48784300  0.25000000  1
  O  O20  1  0.67390400  0.16174800  0.75000000  1
  O  O21  1  0.32609600  0.83825200  0.25000000  1
  O  O22  1  0.48784300  0.32609600  0.75000000  1
  O  O23  1  0.51215700  0.67390400  0.25000000  1
  O  O24  1  0.00000000  0.00000000  0.75000000  1
  O  O25  1  0.00000000  0.00000000  0.25000000  1
loop_
_geom_bond_atom_site_label_1
_geom_bond_atom_site_label_2
_geom_bond_distance
_geom_bond_site_symmetry_2
Ca0 O21 2.453068 1_555
Ca0 O19 2.453075 1_555
Ca0 O23 2.453082 1_555
Ca0 O0 2.519007 1_554
Ca0 O4 2.519009 1_554
Ca0 O2 2.519014 1_554
Ca0 O12 2.917485 1_554
Ca0 O6 2.917492 1_554
Ca0 O8 2.917494 1_554
Ca1 O20 2.453068 1_555
Ca1 O18 2.453075 1_555
Ca1 O22 2.453082 1_555
Ca1 O1 2.519007 1_556
Ca1 O5 2.519009 1_556
Ca1 O3 2.519014 1_556
Ca1 O14 2.917485 1_556
Ca1 O7 2.917492 1_556
Ca1 O10 2.917494 1_556
Ca2 O20 2.453068 1_555
Ca2 O18 2.453075 1_555
Ca2 O22 2.453082 1_555
Ca2 O1 2.519007 1_555
Ca2 O5 2.519009 1_555
Ca2 O3 2.519014 1_555
Ca2 O16 2.917485 1_555
Ca2 O9 2.917492 1_555
Ca2 O13 2.917494 1_555
Ca3 O21 2.453068 1_555
Ca3 O19 2.453075 1_555
Ca3 O23 2.453082 1_555
Ca3 O0 2.519007 1_555
Ca3 O4 2.519009 1_555
Ca3 O2 2.519014 1_555
Ca3 O17 2.917485 1_555
Ca3 O11 2.917492 1_555
Ca3 O15 2.917494 1_555
La0 O24 2.399162 1_665
La0 O13 2.411316 1_555
La0 O10 2.411316 1_556
La0 O2 2.465571 1_555
La0 O11 2.579171 1_555
La0 O6 2.579171 1_555
La0 O18 2.763540 1_555
La1 O25 2.399162 1_555
La1 O8 2.411316 1_554
La1 O15 2.411316 1_555
La1 O3 2.465571 1_555
La1 O9 2.579171 1_555
La1 O7 2.579171 1_555
La1 O19 2.763540 1_555
La2 O24 2.399162 1_655
La2 O16 2.411316 1_555
La2 O14 2.411316 1_556
La2 O4 2.465571 1_655
La2 O8 2.579171 1_655
La2 O15 2.579171 1_655
La2 O20 2.763549 1_555
La3 O25 2.399162 1_565
La3 O12 2.411316 1_554
La3 O17 2.411316 1_555
La3 O5 2.465571 1_455
La3 O13 2.579171 1_455
La3 O10 2.579171 1_455
La3 O21 2.763549 1_555
La4 O24 2.399162 1_555
La4 O7 2.411316 1_556
La4 O9 2.411316 1_555
La4 O0 2.465571 1_545
La4 O17 2.579171 1_545
La4 O12 2.579171 1_545
La4 O22 2.763547 1_555
La5 O25 2.399162 1_665
La5 O11 2.411316 1_555
La5 O6 2.411316 1_554
La5 O1 2.465571 1_565
La5 O16 2.579171 1_565
La5 O14 2.579171 1_565
La5 O23 2.763547 1_555
O0 Si0 1.642683 1_555
O1 Si1 1.642683 1_555
O2 Si2 1.642683 1_555
O3 Si3 1.642683 1_555
O4 Si4 1.642683 1_555
O5 Si5 1.642683 1_555
O6 Si0 1.656648 1_555
O7 Si1 1.656648 1_555
O8 Si2 1.656648 1_555
O9 Si1 1.656648 1_555
O10 Si3 1.656648 1_555
O11 Si0 1.656648 1_555
O12 Si4 1.656648 1_555
O13 Si3 1.656648 1_555
O14 Si5 1.656648 1_555
O15 Si2 1.656648 1_555
O16 Si5 1.656648 1_555
O17 Si4 1.656648 1_555
O18 Si4 1.632878 1_655
O19 Si5 1.632878 1_455
O20 Si0 1.632879 1_545
O21 Si1 1.632879 1_565
O22 Si2 1.632870 1_555
O23 Si3 1.632870 1_555
