# generated using pymatgen
data_KB(CN)2
_symmetry_space_group_name_H-M   'P 1'
_cell_length_a   8.75522300
_cell_length_b   8.75522300
_cell_length_c   9.01603707
_cell_angle_alpha   119.04759871
_cell_angle_beta   119.04759871
_cell_angle_gamma   90.00000000
_symmetry_Int_Tables_number   1
_chemical_formula_structural   KB(CN)2
_chemical_formula_sum   'K4 B4 C8 N8'
_cell_volume   502.43109559
_cell_formula_units_Z   4
loop_
 _symmetry_equiv_pos_site_id
 _symmetry_equiv_pos_as_xyz
  1  'x, y, z'
loop_
 _atom_site_type_symbol
 _atom_site_label
 _atom_site_symmetry_multiplicity
 _atom_site_fract_x
 _atom_site_fract_y
 _atom_site_fract_z
 _atom_site_occupancy
  K  K0  1  0.62500000  0.87500000  0.25000000  1
  K  K1  1  0.62500000  0.37500000  0.25000000  1
  K  K2  1  0.62500000  0.37500000  0.75000000  1
  K  K3  1  0.12500000  0.37500000  0.75000000  1
  B  B0  1  0.12500000  0.37500000  0.25000000  1
  B  B1  1  0.12500000  0.87500000  0.25000000  1
  B  B2  1  0.12500000  0.87500000  0.75000000  1
  B  B3  1  0.62500000  0.87500000  0.75000000  1
  C  C0  1  0.21714900  0.26214900  0.16551500  1
  C  C1  1  0.94836500  0.90336600  0.16551500  1
  C  C2  1  0.15336600  0.96714900  0.66551500  1
  C  C3  1  0.03285100  0.48785100  0.33448500  1
  C  C4  1  0.51214900  0.69836500  0.66551500  1
  C  C5  1  0.30163500  0.84663400  0.33448500  1
  C  C6  1  0.09663400  0.78285100  0.83448500  1
  C  C7  1  0.73785100  0.05163400  0.83448500  1
  N  N0  1  0.30499500  0.17858800  0.10451900  1
  N  N1  1  0.79952400  0.92593100  0.10451900  1
  N  N2  1  0.17593100  0.05499500  0.60451900  1
  N  N3  1  0.94500500  0.57141200  0.39548100  1
  N  N4  1  0.42858800  0.54952400  0.60451900  1
  N  N5  1  0.45047600  0.82406900  0.39548100  1
  N  N6  1  0.07406900  0.69500500  0.89548100  1
  N  N7  1  0.82141200  0.20047600  0.89548100  1
loop_
_geom_bond_atom_site_label_1
_geom_bond_atom_site_label_2
_geom_bond_distance
_geom_bond_site_symmetry_2
K0 N5 2.601590 1_555
K0 N1 2.601590 1_555
K1 N3 2.601591 1_555
K1 N0 2.601591 1_555
K2 N7 2.601590 1_555
K2 N4 2.601590 1_555
K3 N6 2.601591 1_555
K3 N2 2.601591 1_555
B0 C0 1.439884 1_555
B0 C3 1.439884 1_555
B1 C5 1.439891 1_555
B1 C1 1.439891 1_455
B2 C6 1.439884 1_555
B2 C2 1.439884 1_555
B3 C7 1.439884 1_565
B3 C4 1.439891 1_555
C0 N0 1.203842 1_555
C1 N1 1.203834 1_555
C2 N2 1.203842 1_565
C3 N3 1.203842 1_455
C4 N4 1.203834 1_555
C5 N5 1.203834 1_555
C6 N6 1.203842 1_555
C7 N7 1.203842 1_555
