# generated using pymatgen
data_Ti3Fe5P4
_symmetry_space_group_name_H-M   'P 1'
_cell_length_a   3.57406540
_cell_length_b   5.92927406
_cell_length_c   6.77683402
_cell_angle_alpha   89.67487389
_cell_angle_beta   90.00000000
_cell_angle_gamma   90.00000000
_symmetry_Int_Tables_number   1
_chemical_formula_structural   Ti3Fe5P4
_chemical_formula_sum   'Ti3 Fe5 P4'
_cell_volume   143.60973368
_cell_formula_units_Z   1
loop_
 _symmetry_equiv_pos_site_id
 _symmetry_equiv_pos_as_xyz
  1  'x, y, z'
loop_
 _atom_site_type_symbol
 _atom_site_label
 _atom_site_symmetry_multiplicity
 _atom_site_fract_x
 _atom_site_fract_y
 _atom_site_fract_z
 _atom_site_occupancy
  Ti  Ti0  1  0.00000000  0.97904812  0.31683143  1
  Ti  Ti1  1  0.50000000  0.52020200  0.82800396  1
  Ti  Ti2  1  0.50000000  0.02680644  0.68056566  1
  Fe  Fe0  1  0.00000000  0.35048581  0.56043593  1
  Fe  Fe1  1  -0.00000000  0.85343615  0.93889847  1
  Fe  Fe2  1  0.50000000  0.64793451  0.43870199  1
  Fe  Fe3  1  0.50000000  0.14626386  0.06300929  1
  Fe  Fe4  1  -0.00000000  0.47392768  0.16929774  1
  P  P0  1  0.00000000  0.72522876  0.62455112  1
  P  P1  1  -0.00000000  0.22482725  0.88406897  1
  P  P2  1  0.50000000  0.28010049  0.37122661  1
  P  P3  1  0.50000000  0.77173893  0.12440884  1
loop_
_geom_bond_atom_site_label_1
_geom_bond_atom_site_label_2
_geom_bond_distance
_geom_bond_site_symmetry_2
Fe0 P2 2.240059 1_455
Fe0 P2 2.240059 1_555
Fe0 P0 2.266456 1_555
Fe0 P1 2.312301 1_555
Fe0 Ti2 2.742586 1_455
Fe0 Ti2 2.742586 1_555
Fe0 Ti0 2.759891 1_545
Fe1 P1 2.231128 1_565
Fe1 P3 2.236450 1_456
Fe1 P3 2.236450 1_556
Fe1 P0 2.265908 1_555
Fe1 Ti0 2.671338 1_556
Fe1 Ti2 2.700859 1_465
Fe1 Ti2 2.700859 1_565
Fe2 P2 2.230947 1_555
Fe2 P0 2.235249 1_555
Fe2 P0 2.235249 1_655
Fe2 P3 2.248920 1_555
Fe2 Ti0 2.776975 1_555
Fe2 Ti0 2.776975 1_655
Fe2 Ti2 2.788335 1_565
Fe3 P1 2.207846 1_554
Fe3 P1 2.207846 1_654
Fe3 P2 2.238608 1_555
Fe3 P3 2.256985 1_545
Fe3 Ti0 2.667568 1_545
Fe3 Ti0 2.667568 1_645
Fe3 Ti2 2.690673 1_554
Fe4 P1 2.439298 1_554
Fe4 P2 2.523697 1_555
Fe4 P2 2.523697 1_455
Fe4 P3 2.529426 1_455
Fe4 P3 2.529426 1_555
P0 Ti2 2.557874 1_565
P0 Ti2 2.557874 1_465
P0 Ti1 2.559939 1_455
P0 Ti1 2.559939 1_555
P0 Ti0 2.564771 1_555
P1 Ti1 2.529337 1_455
P1 Ti1 2.529337 1_555
P1 Ti2 2.548011 1_455
P1 Ti2 2.548011 1_555
P2 Ti0 2.554044 1_545
P2 Ti0 2.554044 1_645
P2 Ti2 2.571859 1_555
P3 Ti1 2.508623 1_554
P3 Ti0 2.534374 1_655
P3 Ti0 2.534374 1_555
