# generated using pymatgen
data_Np2Se5
_symmetry_space_group_name_H-M   'P 1'
_cell_length_a   7.78089474
_cell_length_b   7.79515108
_cell_length_c   10.76290353
_cell_angle_alpha   90.00000000
_cell_angle_beta   90.00000000
_cell_angle_gamma   90.00000000
_symmetry_Int_Tables_number   1
_chemical_formula_structural   Np2Se5
_chemical_formula_sum   'Np8 Se20'
_cell_volume   652.80507892
_cell_formula_units_Z   4
loop_
 _symmetry_equiv_pos_site_id
 _symmetry_equiv_pos_as_xyz
  1  'x, y, z'
loop_
 _atom_site_type_symbol
 _atom_site_label
 _atom_site_symmetry_multiplicity
 _atom_site_fract_x
 _atom_site_fract_y
 _atom_site_fract_z
 _atom_site_occupancy
  Np  Np0  1  0.74780518  0.49910937  0.15082983  1
  Np  Np1  1  0.75219482  0.99910937  0.34917017  1
  Np  Np2  1  0.24780518  0.50089063  0.34917017  1
  Np  Np3  1  0.25219482  0.00089063  0.15082983  1
  Np  Np4  1  0.25219482  0.50089063  0.84917017  1
  Np  Np5  1  0.24780518  0.00089063  0.65082983  1
  Np  Np6  1  0.75219482  0.49910937  0.65082983  1
  Np  Np7  1  0.74780518  0.99910937  0.84917017  1
  Se  Se0  1  0.62122877  0.12980057  0.60312261  1
  Se  Se1  1  0.87877123  0.62980057  0.89687739  1
  Se  Se2  1  0.12122877  0.87019943  0.89687739  1
  Se  Se3  1  0.37877123  0.37019943  0.60312261  1
  Se  Se4  1  0.37877123  0.87019943  0.39687739  1
  Se  Se5  1  0.12122877  0.37019943  0.10312261  1
  Se  Se6  1  0.87877123  0.12980057  0.10312261  1
  Se  Se7  1  0.62122877  0.62980057  0.39687739  1
  Se  Se8  1  0.12024885  0.62813625  0.60235632  1
  Se  Se9  1  0.37975115  0.12813625  0.89764368  1
  Se  Se10  1  0.62024885  0.37186375  0.89764368  1
  Se  Se11  1  0.87975115  0.87186375  0.60235632  1
  Se  Se12  1  0.87975115  0.37186375  0.39764368  1
  Se  Se13  1  0.62024885  0.87186375  0.10235632  1
  Se  Se14  1  0.37975115  0.62813625  0.10235632  1
  Se  Se15  1  0.12024885  0.12813625  0.39764368  1
  Se  Se16  1  -0.00000000  0.25000000  0.74663098  1
  Se  Se17  1  0.50000000  0.75000000  0.75336902  1
  Se  Se18  1  -0.00000000  0.75000000  0.25336902  1
  Se  Se19  1  0.50000000  0.25000000  0.24663098  1
loop_
_geom_bond_atom_site_label_1
_geom_bond_atom_site_label_2
_geom_bond_distance
_geom_bond_site_symmetry_2
Np0 Se19 2.924325 1_555
Np0 Se18 2.982194 1_655
Np0 Se7 3.003455 1_555
Np0 Se12 3.015714 1_555
Np0 Se10 3.065069 1_554
Np0 Se14 3.079786 1_555
Np0 Se1 3.089828 1_554
Np0 Se6 3.096719 1_555
Np0 Se13 3.114515 1_555
Np0 Se5 3.117010 1_655
Np1 Se18 2.924325 1_655
Np1 Se19 2.982194 1_565
Np1 Se6 3.003455 1_565
Np1 Se13 3.015714 1_555
Np1 Se11 3.065069 1_555
Np1 Se15 3.079786 1_665
Np1 Se0 3.089828 1_565
Np1 Se7 3.096719 1_555
Np1 Se12 3.114515 1_565
Np1 Se4 3.117010 1_555
Np2 Se18 2.924325 1_555
Np2 Se19 2.982194 1_555
Np2 Se5 3.003455 1_555
Np2 Se14 3.015714 1_555
Np2 Se8 3.065069 1_555
Np2 Se12 3.079786 1_455
Np2 Se3 3.089828 1_555
Np2 Se4 3.096719 1_555
Np2 Se15 3.114515 1_555
Np2 Se7 3.117010 1_555
Np3 Se19 2.924325 1_555
Np3 Se18 2.982194 1_545
Np3 Se4 3.003455 1_545
Np3 Se15 3.015714 1_555
Np3 Se9 3.065069 1_554
Np3 Se13 3.079786 1_545
Np3 Se2 3.089828 1_544
Np3 Se5 3.096719 1_555
Np3 Se14 3.114515 1_545
Np3 Se6 3.117010 1_455
Np4 Se17 2.924325 1_555
Np4 Se16 2.982194 1_555
Np4 Se3 3.003455 1_555
Np4 Se8 3.015714 1_555
Np4 Se14 3.065069 1_556
Np4 Se10 3.079786 1_555
Np4 Se5 3.089828 1_556
Np4 Se2 3.096719 1_555
Np4 Se9 3.114515 1_555
Np4 Se1 3.117010 1_455
Np5 Se16 2.924325 1_555
Np5 Se17 2.982194 1_545
Np5 Se2 3.003455 1_545
Np5 Se9 3.015714 1_555
Np5 Se15 3.065069 1_555
Np5 Se11 3.079786 1_445
Np5 Se4 3.089828 1_545
Np5 Se3 3.096719 1_555
Np5 Se8 3.114515 1_545
Np5 Se0 3.117010 1_555
Np6 Se16 2.924325 1_655
Np6 Se17 2.982194 1_555
Np6 Se1 3.003455 1_555
Np6 Se10 3.015714 1_555
Np6 Se12 3.065069 1_555
Np6 Se8 3.079786 1_655
Np6 Se7 3.089828 1_555
Np6 Se0 3.096719 1_555
Np6 Se11 3.114515 1_555
Np6 Se3 3.117010 1_555
Np7 Se17 2.924325 1_555
Np7 Se16 2.982194 1_665
Np7 Se0 3.003455 1_565
Np7 Se11 3.015714 1_555
Np7 Se13 3.065069 1_556
Np7 Se9 3.079786 1_565
Np7 Se6 3.089828 1_566
Np7 Se1 3.096719 1_555
Np7 Se10 3.114515 1_565
Np7 Se2 3.117010 1_655
Se0 Se3 2.659077 1_555
Se0 Se11 2.844131 1_545
Se1 Se2 2.659077 1_655
Se1 Se10 2.844131 1_555
Se2 Se9 2.844131 1_565
Se3 Se8 2.844131 1_555
Se4 Se7 2.659077 1_555
Se5 Se6 2.659077 1_455
Se10 Se9 2.666704 1_555
Se11 Se8 2.666704 1_655
Se12 Se15 2.666704 1_655
Se12 Se7 2.844131 1_555
Se13 Se14 2.666704 1_555
Se13 Se6 2.844131 1_565
Se14 Se5 2.844131 1_555
Se15 Se4 2.844131 1_545
