# generated using pymatgen
data_Sr3Co2WO9
_symmetry_space_group_name_H-M   'P 1'
_cell_length_a   9.69834613
_cell_length_b   9.69834613
_cell_length_c   9.69834613
_cell_angle_alpha   146.53332846
_cell_angle_beta   131.60838714
_cell_angle_gamma   60.11621335
_symmetry_Int_Tables_number   1
_chemical_formula_structural   Sr3Co2WO9
_chemical_formula_sum   'Sr6 Co4 W2 O18'
_cell_volume   372.67400683
_cell_formula_units_Z   2
loop_
 _symmetry_equiv_pos_site_id
 _symmetry_equiv_pos_as_xyz
  1  'x, y, z'
loop_
 _atom_site_type_symbol
 _atom_site_label
 _atom_site_symmetry_multiplicity
 _atom_site_fract_x
 _atom_site_fract_y
 _atom_site_fract_z
 _atom_site_occupancy
  Sr  Sr0  1  0.23500900  0.50000000  0.73500900  1
  Sr  Sr1  1  0.91951600  0.16030700  0.75920900  1
  Sr  Sr2  1  0.59890200  0.83969300  0.75920900  1
  Sr  Sr3  1  0.76499100  0.50000000  0.26499100  1
  Sr  Sr4  1  0.40109800  0.16030700  0.24079100  1
  Sr  Sr5  1  0.08048400  0.83969300  0.24079100  1
  Co  Co0  1  0.50000000  0.00000000  0.50000000  1
  Co  Co1  1  0.16160400  0.66160400  0.50000000  1
  Co  Co2  1  0.83839600  0.33839600  0.50000000  1
  Co  Co3  1  0.00000000  0.00000000  0.00000000  1
  W  W0  1  0.66795200  0.66795200  0.00000000  1
  W  W1  1  0.33204800  0.33204800  0.00000000  1
  O  O0  1  0.26433400  0.00000000  0.26433400  1
  O  O1  1  0.90844000  0.66522400  0.24321600  1
  O  O2  1  0.57799200  0.33477600  0.24321600  1
  O  O3  1  0.58627300  0.33934800  0.75307500  1
  O  O4  1  0.25001400  0.00476100  0.75474700  1
  O  O5  1  0.91993600  0.67681600  0.75688000  1
  O  O6  1  0.41372700  0.16680200  0.75307500  1
  O  O7  1  0.08006400  0.83694400  0.75688000  1
  O  O8  1  0.74998600  0.50473300  0.75474700  1
  O  O9  1  0.73566600  0.00000000  0.73566600  1
  O  O10  1  0.42200800  0.66522400  0.75678400  1
  O  O11  1  0.09156000  0.33477600  0.75678400  1
  O  O12  1  0.41372700  0.66065200  0.24692500  1
  O  O13  1  0.08006400  0.32318400  0.24312000  1
  O  O14  1  0.74998600  0.99523900  0.24525300  1
  O  O15  1  0.58627300  0.83319800  0.24692500  1
  O  O16  1  0.25001400  0.49526700  0.24525300  1
  O  O17  1  0.91993600  0.16305600  0.24312000  1
loop_
_geom_bond_atom_site_label_1
_geom_bond_atom_site_label_2
_geom_bond_distance
_geom_bond_site_symmetry_2
Co0 O9 1.873511 1_555
Co0 O0 1.873511 1_555
Co0 O3 2.023681 1_555
Co0 O12 2.023681 1_545
Co0 O6 2.023681 1_555
Co0 O15 2.023681 1_545
Co1 O7 1.982913 1_555
Co1 O13 1.982913 1_555
Co1 O1 2.042300 1_455
Co1 O10 2.042300 1_555
Co1 O16 2.055962 1_555
Co1 O4 2.055962 1_565
Co2 O5 1.982913 1_555
Co2 O17 1.982913 1_555
Co2 O2 2.042300 1_555
Co2 O11 2.042300 1_655
Co2 O8 2.055962 1_555
Co2 O14 2.055962 1_545
Co3 O13 1.910535 1_555
Co3 O7 1.910535 1_544
Co3 O17 1.910535 1_455
Co3 O5 1.910535 1_444
Co3 O0 2.101417 1_555
Co3 O9 2.101417 1_454
O0 Sr5 2.697764 1_545
O0 Sr4 2.697764 1_555
O0 Sr0 2.802041 1_555
O0 Sr0 2.802041 1_544
O1 W0 1.934074 1_555
O1 Sr3 2.779207 1_555
O1 Sr1 2.796438 1_554
O1 Sr1 2.796438 1_565
O1 Sr5 2.929081 1_655
O2 W1 1.934074 1_555
O2 Sr3 2.779207 1_555
O2 Sr2 2.796438 1_544
O2 Sr2 2.796438 1_555
O2 Sr4 2.929081 1_555
O3 W0 1.944716 1_556
O3 Sr4 2.790822 1_555
O3 Sr1 2.790822 1_555
O3 Sr0 2.904706 1_555
O3 Sr3 2.904706 1_556
O4 W1 1.942327 1_556
O4 Sr4 2.794352 1_556
O4 Sr1 2.794352 1_455
O4 Sr2 2.921823 1_545
O4 Sr5 2.921823 1_545
O5 Sr5 2.706030 1_656
O5 Sr2 2.706030 1_555
O5 Sr3 2.712050 1_555
O5 Sr0 2.712050 1_655
O6 W1 1.944716 1_556
O6 Sr5 2.790822 1_545
O6 Sr2 2.790822 1_545
O6 Sr0 2.904706 1_555
O6 Sr3 2.904706 1_556
O7 Sr4 2.706030 1_566
O7 Sr1 2.706030 1_465
O7 Sr0 2.712050 1_555
O7 Sr3 2.712050 1_455
O8 W0 1.942327 1_556
O8 Sr2 2.794352 1_555
O8 Sr5 2.794352 1_656
O8 Sr1 2.921823 1_555
O8 Sr4 2.921823 1_555
O9 Sr2 2.697764 1_545
O9 Sr1 2.697764 1_555
O9 Sr3 2.802041 1_545
O9 Sr3 2.802041 1_556
O10 W0 1.934074 1_556
O10 Sr0 2.779207 1_555
O10 Sr4 2.796438 1_555
O10 Sr4 2.796438 1_566
O10 Sr2 2.929081 1_555
O11 W1 1.934074 1_556
O11 Sr0 2.779207 1_555
O11 Sr5 2.796438 1_556
O11 Sr5 2.796438 1_545
O11 Sr1 2.929081 1_455
O12 W1 1.944716 1_555
O12 Sr5 2.790822 1_555
O12 Sr2 2.790822 1_555
O12 Sr0 2.904706 1_554
O12 Sr3 2.904706 1_555
O13 Sr4 2.706030 1_555
O13 Sr1 2.706030 1_454
O13 Sr0 2.712050 1_555
O13 Sr3 2.712050 1_455
O14 W0 1.942327 1_555
O14 Sr2 2.794352 1_554
O14 Sr5 2.794352 1_655
O14 Sr1 2.921823 1_565
O14 Sr4 2.921823 1_565
O15 W0 1.944716 1_555
O15 Sr4 2.790822 1_565
O15 Sr1 2.790822 1_565
O15 Sr0 2.904706 1_554
O15 Sr3 2.904706 1_555
O16 W1 1.942327 1_555
O16 Sr4 2.794352 1_555
O16 Sr1 2.794352 1_454
O16 Sr2 2.921823 1_555
O16 Sr5 2.921823 1_555
O17 Sr5 2.706030 1_645
O17 Sr2 2.706030 1_544
O17 Sr0 2.712050 1_655
O17 Sr3 2.712050 1_555
