# generated using pymatgen
data_Co5(Bi2O5)4
_symmetry_space_group_name_H-M   'P 1'
_cell_length_a   8.25394400
_cell_length_b   8.57330548
_cell_length_c   8.78896755
_cell_angle_alpha   112.03264835
_cell_angle_beta   107.55403170
_cell_angle_gamma   106.49476337
_symmetry_Int_Tables_number   1
_chemical_formula_structural   Co5(Bi2O5)4
_chemical_formula_sum   'Co5 Bi8 O20'
_cell_volume   491.07365211
_cell_formula_units_Z   1
loop_
 _symmetry_equiv_pos_site_id
 _symmetry_equiv_pos_as_xyz
  1  'x, y, z'
loop_
 _atom_site_type_symbol
 _atom_site_label
 _atom_site_symmetry_multiplicity
 _atom_site_fract_x
 _atom_site_fract_y
 _atom_site_fract_z
 _atom_site_occupancy
  Co  Co0  1  0.70037000  0.19582800  0.09830500  1
  Co  Co1  1  0.98804700  0.99154600  0.98672800  1
  Co  Co2  1  0.22168600  0.89736300  0.37058200  1
  Co  Co3  1  0.76786900  0.09376800  0.72132700  1
  Co  Co4  1  0.27712700  0.78125100  0.88521000  1
  Bi  Bi0  1  0.82394100  0.67261300  0.84328400  1
  Bi  Bi1  1  0.37707500  0.19944800  0.50128100  1
  Bi  Bi2  1  0.50203900  0.30149300  0.82496200  1
  Bi  Bi3  1  0.87328200  0.55874000  0.28752300  1
  Bi  Bi4  1  0.15531900  0.49717500  0.67605700  1
  Bi  Bi5  1  0.49426300  0.72394600  0.14340100  1
  Bi  Bi6  1  0.67770700  0.84838500  0.49858600  1
  Bi  Bi7  1  0.13695800  0.26997200  0.21884200  1
  O  O0  1  0.70677700  0.62227500  0.65655500  1
  O  O1  1  0.67696500  0.34723900  0.26651200  1
  O  O2  1  0.94167100  0.03045600  0.77119300  1
  O  O3  1  0.76950400  0.77002400  0.22114300  1
  O  O4  1  0.39772100  0.38655100  0.61997300  1
  O  O5  1  0.42871100  0.12594900  0.21448000  1
  O  O6  1  0.78681300  0.40393600  0.87354800  1
  O  O7  1  0.70696000  0.28080700  0.62132500  1
  O  O8  1  0.09534500  0.75833100  0.62163800  1
  O  O9  1  0.25827500  0.99559700  0.87464900  1
  O  O10  1  0.62127200  0.04433800  0.96623400  1
  O  O11  1  0.35240700  0.74857400  0.38270100  1
  O  O12  1  0.87207200  0.12669400  0.47529600  1
  O  O13  1  0.01178400  0.65951400  0.98280400  1
  O  O14  1  0.55723700  0.87467300  0.77617400  1
  O  O15  1  0.21901700  0.62804400  0.13183900  1
  O  O16  1  0.29707100  0.37981600  0.34416000  1
  O  O17  1  0.32877600  0.64355900  0.75785700  1
  O  O18  1  0.92300100  0.17472600  0.06489100  1
  O  O19  1  0.05293800  0.96736700  0.32094200  1
loop_
_geom_bond_atom_site_label_1
_geom_bond_atom_site_label_2
_geom_bond_distance
_geom_bond_site_symmetry_2
Co0 O10 1.179283 1_554
Co0 O1 1.668172 1_555
Co0 O18 1.992519 1_555
Co1 O18 1.765885 1_566
Co1 O2 1.988848 1_565
Co2 O19 1.671862 1_555
Co2 O11 1.901809 1_555
Co2 O15 2.458230 1_555
Co3 O2 1.669145 1_555
Co3 O7 2.201192 1_555
Co3 O14 2.472578 1_545
Co3 O12 2.633853 1_555
Co4 O17 1.552534 1_555
Co4 O9 1.921311 1_555
Co4 O8 2.247355 1_555
Bi0 O0 1.445376 1_555
Bi0 O13 1.724967 1_655
Bi1 O4 1.473922 1_555
Bi1 O7 2.376992 1_555
Bi1 O5 2.557618 1_555
Bi2 O6 2.102259 1_555
Bi2 O4 2.219366 1_555
Bi3 O1 1.961503 1_555
Bi3 O3 2.393281 1_555
Bi3 O8 2.472460 1_655
Bi4 O17 1.350378 1_555
Bi4 O8 2.603227 1_555
Bi4 O12 2.785281 1_455
Bi5 O3 2.033620 1_555
Bi5 O15 2.141274 1_555
Bi6 Co3 1.988529 1_565
Bi6 O2 2.244543 1_565
Bi6 O11 2.317471 1_555
Bi6 O12 2.588358 1_565
Bi6 O3 2.673173 1_555
Bi6 O0 2.797402 1_555
Bi7 O16 1.218006 1_555
Bi7 O18 1.589684 1_455
O6 O7 1.852226 1_555
O10 O14 1.547057 1_545
O11 O15 1.822500 1_555
O13 O15 1.972314 1_556
