# generated using pymatgen
data_La8Hf4MgO20
_symmetry_space_group_name_H-M   'P 1'
_cell_length_a   11.30680919
_cell_length_b   12.06226718
_cell_length_c   3.93996215
_cell_angle_alpha   90.00000000
_cell_angle_beta   90.00000000
_cell_angle_gamma   89.02784938
_symmetry_Int_Tables_number   1
_chemical_formula_structural   La8Hf4MgO20
_chemical_formula_sum   'La8 Hf4 Mg1 O20'
_cell_volume   537.27735927
_cell_formula_units_Z   1
loop_
 _symmetry_equiv_pos_site_id
 _symmetry_equiv_pos_as_xyz
  1  'x, y, z'
loop_
 _atom_site_type_symbol
 _atom_site_label
 _atom_site_symmetry_multiplicity
 _atom_site_fract_x
 _atom_site_fract_y
 _atom_site_fract_z
 _atom_site_occupancy
  La  La0  1  0.10313755  0.72509072  0.25000000  1
  La  La1  1  0.13398364  0.06410228  0.25000000  1
  La  La2  1  0.36658600  0.56723830  0.75000000  1
  La  La3  1  0.38728607  0.21824278  0.75000000  1
  La  La4  1  0.60632770  0.77880813  0.25000000  1
  La  La5  1  0.62610722  0.43956122  0.25000000  1
  La  La6  1  0.87514202  0.92698902  0.75000000  1
  La  La7  1  0.88831441  0.25686659  0.75000000  1
  Hf  Hf0  1  0.18022384  0.38880760  0.25000000  1
  Hf  Hf1  1  0.31637371  0.88038726  0.75000000  1
  Hf  Hf2  1  0.67812968  0.11392056  0.25000000  1
  Hf  Hf3  1  0.83371396  0.63292073  0.75000000  1
  Mg  Mg0  1  0.92229085  0.47302047  0.25000000  1
  O  O0  1  0.00731194  0.09871471  0.75000000  1
  O  O1  1  0.01286905  0.32747007  0.25000000  1
  O  O2  1  0.23319272  0.73244974  0.75000000  1
  O  O3  1  0.24406193  0.54558132  0.25000000  1
  O  O4  1  0.24065356  0.38835230  0.75000000  1
  O  O5  1  0.26156421  0.88767722  0.25000000  1
  O  O6  1  0.27442013  0.04750131  0.75000000  1
  O  O7  1  0.26448421  0.23754407  0.25000000  1
  O  O8  1  0.48104123  0.83310106  0.75000000  1
  O  O9  1  0.50010222  0.59936754  0.25000000  1
  O  O10  1  0.51733687  0.39985857  0.75000000  1
  O  O11  1  0.51118775  0.15643546  0.25000000  1
  O  O12  1  0.72624429  0.76657382  0.75000000  1
  O  O13  1  0.72692494  0.95145608  0.25000000  1
  O  O14  1  0.73622269  0.11213371  0.75000000  1
  O  O15  1  0.76230955  0.60877760  0.25000000  1
  O  O16  1  0.82223452  0.45608141  0.75000000  1
  O  O17  1  0.76059510  0.26591238  0.25000000  1
  O  O18  1  0.96870337  0.73556956  0.75000000  1
  O  O19  1  0.00116107  0.91126441  0.25000000  1
loop_
_geom_bond_atom_site_label_1
_geom_bond_atom_site_label_2
_geom_bond_distance
_geom_bond_site_symmetry_2
La0 O2 2.460799 1_555
La0 O2 2.460799 1_554
La0 O18 2.490130 1_455
La0 O18 2.490130 1_454
La0 O19 2.506926 1_555
La0 O3 2.666523 1_555
La0 O5 2.678454 1_555
La1 O19 2.397521 1_545
La1 O0 2.467021 1_554
La1 O0 2.467021 1_555
La1 O6 2.536045 1_554
La1 O6 2.536045 1_555
La1 O5 2.550583 1_545
La1 O7 2.580479 1_555
La2 O3 2.424987 1_555
La2 O3 2.424987 1_556
La2 O2 2.478746 1_555
La2 O9 2.515928 1_556
La2 O9 2.515928 1_555
La2 O4 2.605322 1_555
La2 O10 2.620088 1_555
La3 O7 2.419088 1_556
La3 O7 2.419088 1_555
La3 O6 2.441191 1_555
La3 O11 2.522662 1_556
La3 O11 2.522662 1_555
La3 O4 2.616040 1_555
La3 O10 2.659082 1_555
La4 O12 2.394621 1_554
La4 O12 2.394621 1_555
La4 O9 2.493126 1_555
La4 O8 2.506983 1_555
La4 O8 2.506983 1_554
La4 O13 2.508504 1_555
La4 O15 2.682192 1_555
La5 O10 2.375433 1_554
La5 O10 2.375433 1_555
La5 O9 2.377470 1_555
La5 O17 2.567406 1_555
La5 O15 2.577699 1_555
La5 O16 2.975427 1_555
La5 O16 2.975427 1_554
La6 O19 2.436780 1_656
La6 O19 2.436780 1_655
La6 O18 2.523388 1_555
La6 O0 2.574691 1_665
La6 O12 2.586314 1_555
La6 O13 2.599934 1_555
La6 O13 2.599934 1_556
La6 O14 2.708440 1_565
La7 O0 2.315693 1_655
La7 O17 2.443932 1_555
La7 O17 2.443932 1_556
La7 O14 2.471232 1_555
La7 O16 2.504324 1_555
La7 O1 2.574910 1_656
La7 O1 2.574910 1_655
Hf0 O3 2.035529 1_555
Hf0 O1 2.043409 1_555
Hf0 O7 2.043961 1_555
Hf0 O4 2.085086 1_554
Hf0 O4 2.085086 1_555
Hf1 O8 1.937998 1_555
Hf1 O2 2.031210 1_555
Hf1 O6 2.062988 1_565
Hf1 O5 2.066582 1_556
Hf1 O5 2.066582 1_555
Hf2 O11 1.947589 1_555
Hf2 O13 2.026842 1_545
Hf2 O17 2.070905 1_555
Hf2 O14 2.076597 1_554
Hf2 O14 2.076597 1_555
Hf3 O18 1.981616 1_555
Hf3 O12 2.002285 1_555
Hf3 O16 2.139225 1_555
Hf3 O15 2.150683 1_555
Hf3 O15 2.150683 1_556
Mg0 O1 2.017484 1_655
Mg0 O16 2.282608 1_555
Mg0 O16 2.282608 1_554
Mg0 O15 2.419310 1_555
