# generated using pymatgen
data_YGa3Ru
_symmetry_space_group_name_H-M   'P 1'
_cell_length_a   6.38924720
_cell_length_b   6.38924720
_cell_length_c   6.38924720
_cell_angle_alpha   90.00000000
_cell_angle_beta   90.00000000
_cell_angle_gamma   90.00000000
_symmetry_Int_Tables_number   1
_chemical_formula_structural   YGa3Ru
_chemical_formula_sum   'Y3 Ga9 Ru3'
_cell_volume   260.82491465
_cell_formula_units_Z   3
loop_
 _symmetry_equiv_pos_site_id
 _symmetry_equiv_pos_as_xyz
  1  'x, y, z'
loop_
 _atom_site_type_symbol
 _atom_site_label
 _atom_site_symmetry_multiplicity
 _atom_site_fract_x
 _atom_site_fract_y
 _atom_site_fract_z
 _atom_site_occupancy
  Y  Y0  1  0.50000000  0.50000000  0.00000000  1
  Y  Y1  1  0.50000000  0.00000000  0.50000000  1
  Y  Y2  1  -0.00000000  0.50000000  0.50000000  1
  Ga  Ga0  1  0.50000000  0.50000000  0.50000000  1
  Ga  Ga1  1  0.20828506  0.20828506  0.79171494  1
  Ga  Ga2  1  0.20828506  0.79171494  0.20828506  1
  Ga  Ga3  1  0.79171494  0.20828506  0.20828506  1
  Ga  Ga4  1  0.79171494  0.79171494  0.79171494  1
  Ga  Ga5  1  0.79171494  0.79171494  0.20828506  1
  Ga  Ga6  1  0.79171494  0.20828506  0.79171494  1
  Ga  Ga7  1  0.20828506  0.79171494  0.79171494  1
  Ga  Ga8  1  0.20828506  0.20828506  0.20828506  1
  Ru  Ru0  1  -0.00000000  0.00000000  0.50000000  1
  Ru  Ru1  1  -0.00000000  0.50000000  0.00000000  1
  Ru  Ru2  1  0.50000000  0.00000000  0.00000000  1
loop_
_geom_bond_atom_site_label_1
_geom_bond_atom_site_label_2
_geom_bond_distance
_geom_bond_site_symmetry_2
Ga0 Y2 3.194624 1_655
Ga0 Y0 3.194624 1_555
Ga0 Y1 3.194624 1_565
Ga0 Y0 3.194624 1_556
Ga0 Y1 3.194624 1_555
Ga0 Y2 3.194624 1_555
Ga1 Ru0 2.648749 1_555
Ga1 Ru2 2.648749 1_556
Ga1 Ru1 2.648749 1_556
Ga1 Ga8 2.661569 1_556
Ga1 Ga6 2.661569 1_455
Ga1 Ga7 2.661569 1_545
Ga1 Y1 2.952758 1_555
Ga1 Y2 2.952758 1_555
Ga1 Y0 2.952758 1_556
Ga2 Ru2 2.648749 1_565
Ga2 Ru1 2.648749 1_555
Ga2 Ru0 2.648749 1_565
Ga2 Ga8 2.661569 1_565
Ga2 Ga5 2.661569 1_455
Ga2 Ga7 2.661569 1_554
Ga2 Y0 2.952758 1_555
Ga2 Y1 2.952758 1_565
Ga2 Y2 2.952758 1_555
Ga3 Ru2 2.648749 1_555
Ga3 Ru0 2.648749 1_655
Ga3 Ru1 2.648749 1_655
Ga3 Ga8 2.661569 1_655
Ga3 Ga5 2.661569 1_545
Ga3 Ga6 2.661569 1_554
Ga3 Y1 2.952758 1_555
Ga3 Y0 2.952758 1_555
Ga3 Y2 2.952758 1_655
Ga4 Ru1 2.648749 1_656
Ga4 Ru2 2.648749 1_566
Ga4 Ru0 2.648749 1_665
Ga4 Ga7 2.661569 1_655
Ga4 Ga6 2.661569 1_565
Ga4 Ga5 2.661569 1_556
Ga4 Y1 2.952758 1_565
Ga4 Y0 2.952758 1_556
Ga4 Y2 2.952758 1_655
Ga5 Ru2 2.648749 1_565
Ga5 Ru1 2.648749 1_655
Ga5 Ru0 2.648749 1_665
Ga5 Y0 2.952758 1_555
Ga5 Y1 2.952758 1_565
Ga5 Y2 2.952758 1_655
Ga6 Ru0 2.648749 1_655
Ga6 Ru2 2.648749 1_556
Ga6 Ru1 2.648749 1_656
Ga6 Y1 2.952758 1_555
Ga6 Y0 2.952758 1_556
Ga6 Y2 2.952758 1_655
Ga7 Ru1 2.648749 1_556
Ga7 Ru2 2.648749 1_566
Ga7 Ru0 2.648749 1_565
Ga7 Y1 2.952758 1_565
Ga7 Y2 2.952758 1_555
Ga7 Y0 2.952758 1_556
Ga8 Ru2 2.648749 1_555
Ga8 Ru0 2.648749 1_555
Ga8 Ru1 2.648749 1_555
Ga8 Y1 2.952758 1_555
Ga8 Y0 2.952758 1_555
Ga8 Y2 2.952758 1_555
Ru0 Y1 3.194624 1_455
Ru0 Y1 3.194624 1_555
Ru0 Y2 3.194624 1_545
Ru0 Y2 3.194624 1_555
Ru1 Y0 3.194624 1_555
Ru1 Y2 3.194624 1_554
Ru1 Y0 3.194624 1_455
Ru1 Y2 3.194624 1_555
Ru2 Y1 3.194624 1_554
Ru2 Y0 3.194624 1_555
Ru2 Y0 3.194624 1_545
Ru2 Y1 3.194624 1_555
