# generated using pymatgen
data_AlH14SeNO14
_symmetry_space_group_name_H-M   'P 1'
_cell_length_a   6.04690109
_cell_length_b   7.77853582
_cell_length_c   12.16887812
_cell_angle_alpha   91.00194895
_cell_angle_beta   101.85171879
_cell_angle_gamma   96.68135618
_symmetry_Int_Tables_number   1
_chemical_formula_structural   AlH14SeNO14
_chemical_formula_sum   'Al2 H28 Se2 N2 O28'
_cell_volume   555.86531933
_cell_formula_units_Z   2
loop_
 _symmetry_equiv_pos_site_id
 _symmetry_equiv_pos_as_xyz
  1  'x, y, z'
loop_
 _atom_site_type_symbol
 _atom_site_label
 _atom_site_symmetry_multiplicity
 _atom_site_fract_x
 _atom_site_fract_y
 _atom_site_fract_z
 _atom_site_occupancy
  Al  Al0  1  0.41235730  0.74634977  0.78164730  1
  Al  Al1  1  0.58764270  0.25365023  0.21835270  1
  H  H0  1  0.64940013  0.80595399  0.97873277  1
  H  H1  1  0.35059987  0.19404601  0.02126723  1
  H  H2  1  0.40602260  0.44828369  0.86927545  1
  H  H3  1  0.59397740  0.55171631  0.13072455  1
  H  H4  1  0.63817574  0.99112812  0.92109203  1
  H  H5  1  0.36182426  0.00887188  0.07890797  1
  H  H6  1  0.69544258  0.74003087  0.65013768  1
  H  H7  1  0.30455742  0.25996913  0.34986232  1
  H  H8  1  0.16146501  0.73521600  0.92676378  1
  H  H9  1  0.83853499  0.26478400  0.07323622  1
  H  H10  1  0.22311313  0.66962391  0.57416529  1
  H  H11  1  0.77688687  0.33037609  0.42583471  1
  H  H12  1  0.33138707  0.00028376  0.65139167  1
  H  H13  1  0.66861293  0.99971624  0.34860833  1
  H  H14  1  0.78101148  0.89561280  0.74548901  1
  H  H15  1  0.21898852  0.10438720  0.25451099  1
  H  H16  1  0.18839478  0.00567888  0.74730758  1
  H  H17  1  0.81160522  0.99432112  0.25269242  1
  H  H18  1  0.19578962  0.85363685  0.42893692  1
  H  H19  1  0.80421038  0.14636315  0.57106308  1
  H  H20  1  0.28714925  0.49989360  0.64249023  1
  H  H21  1  0.71285075  0.50010640  0.35750977  1
  H  H22  1  0.03981523  0.60265846  0.82022217  1
  H  H23  1  0.96018477  0.39734154  0.17977783  1
  H  H24  1  0.17291453  0.66239465  0.38301078  1
  H  H25  1  0.82708547  0.33760535  0.61698922  1
  H  H26  1  0.63452392  0.48466322  0.81903639  1
  H  H27  1  0.36547608  0.51533678  0.18096361  1
  Se  Se0  1  0.95993776  0.24575114  0.85200878  1
  Se  Se1  1  0.04006224  0.75424886  0.14799122  1
  N  N0  1  0.69177695  0.75403697  0.45681530  1
  N  N1  1  0.30822305  0.24596303  0.54318470  1
  O  O0  1  0.25536867  0.62201010  0.65111319  1
  O  O1  1  0.74463133  0.37798990  0.34888681  1
  O  O2  1  0.51083094  0.53832611  0.84308612  1
  O  O3  1  0.48916906  0.46167389  0.15691388  1
  O  O4  1  0.31640812  0.95413288  0.72550614  1
  O  O5  1  0.68359188  0.04586712  0.27449386  1
  O  O6  1  0.67785362  0.78636750  0.72494159  1
  O  O7  1  0.32214638  0.21363250  0.27505841  1
  O  O8  1  0.56559518  0.86962433  0.91643046  1
  O  O9  1  0.43440482  0.13037567  0.08356954  1
  O  O10  1  0.15436702  0.70412029  0.84656790  1
  O  O11  1  0.84563298  0.29587971  0.15343210  1
  O  O12  1  0.95113480  0.07948322  0.76401626  1
  O  O13  1  0.04886520  0.92051678  0.23598374  1
  O  O14  1  0.22461511  0.30599084  0.91986875  1
  O  O15  1  0.77538489  0.69400916  0.08013125  1
  O  O16  1  0.86598030  0.41250380  0.78069833  1
  O  O17  1  0.13401970  0.58749620  0.21930167  1
  O  O18  1  0.79549856  0.18859578  0.94164131  1
  O  O19  1  0.20450144  0.81140422  0.05835869  1
  O  O20  1  0.69675820  0.91465876  0.47565253  1
  O  O21  1  0.30324180  0.08534124  0.52434747  1
  O  O22  1  0.65706091  0.69559180  0.35698383  1
  O  O23  1  0.34293909  0.30440820  0.64301617  1
  O  O24  1  0.72050025  0.65304527  0.53647194  1
  O  O25  1  0.27949975  0.34695473  0.46352806  1
  O  O26  1  0.18397037  0.73438631  0.45043547  1
  O  O27  1  0.81602963  0.26561369  0.54956453  1
loop_
_geom_bond_atom_site_label_1
_geom_bond_atom_site_label_2
_geom_bond_distance
_geom_bond_site_symmetry_2
Al0 O0 1.863604 1_555
Al0 O6 1.869956 1_555
Al0 O4 1.873399 1_555
Al0 O10 1.887279 1_555
Al0 O8 1.892667 1_555
Al0 O2 1.901447 1_555
Al1 O1 1.863604 1_555
Al1 O7 1.869956 1_555
Al1 O5 1.873399 1_555
Al1 O11 1.887279 1_555
Al1 O9 1.892667 1_555
Al1 O3 1.901447 1_555
H0 O8 0.995289 1_555
H0 O15 1.633078 1_556
H1 O9 0.995289 1_555
H1 O14 1.633078 1_554
H2 O2 0.990587 1_555
H2 O14 1.681111 1_555
H3 O3 0.990587 1_555
H3 O15 1.681111 1_555
H4 O8 0.990187 1_555
H4 O18 1.695785 1_565
H5 O9 0.990187 1_555
H5 O19 1.695785 1_545
H6 O6 1.003517 1_555
H6 O24 1.572001 1_555
H7 O7 1.003517 1_555
H7 O25 1.572001 1_555
H8 O10 0.992391 1_555
H8 O19 1.656214 1_556
H9 O11 0.992391 1_555
H9 O18 1.656214 1_554
H10 O0 1.002956 1_555
H10 O26 1.576284 1_555
H11 O1 1.002956 1_555
H11 O27 1.576284 1_555
H12 O4 0.993877 1_545
H12 O21 1.676508 1_555
H13 O5 0.993877 1_565
H13 O20 1.676508 1_555
H14 O6 0.989389 1_555
H14 O12 1.644924 1_565
H15 O7 0.989389 1_555
H15 O13 1.644924 1_545
H16 O4 0.991569 1_545
H16 O12 1.654281 1_455
H17 O5 0.991569 1_565
H17 O13 1.654281 1_655
H18 O26 0.966810 1_555
H19 O27 0.966810 1_555
H20 O0 0.998750 1_555
H20 O23 1.595264 1_555
H21 O1 0.998750 1_555
H21 O22 1.595264 1_555
H22 O10 0.989035 1_555
H22 O16 1.711647 1_455
H23 O11 0.989035 1_555
H23 O17 1.711647 1_655
H24 O26 0.971565 1_555
H25 O27 0.971565 1_555
H26 O2 0.988748 1_555
H26 O16 1.712722 1_555
H27 O3 0.988748 1_555
H27 O17 1.712722 1_555
N0 O24 1.255433 1_555
N0 O22 1.257099 1_555
N0 O20 1.262081 1_555
N1 O25 1.255433 1_555
N1 O23 1.257099 1_555
N1 O21 1.262081 1_555
O12 Se0 1.653541 1_555
O13 Se1 1.653541 1_555
O14 Se0 1.652903 1_455
O15 Se1 1.652903 1_655
O16 Se0 1.663309 1_555
O17 Se1 1.663309 1_555
O18 Se0 1.653981 1_555
O19 Se1 1.653981 1_555
