# generated using pymatgen
data_Li3Cr4PH3O16
_symmetry_space_group_name_H-M   'P 1'
_cell_length_a   7.93395229
_cell_length_b   7.93395229
_cell_length_c   7.81896145
_cell_angle_alpha   77.67187100
_cell_angle_beta   77.67187100
_cell_angle_gamma   101.40729049
_symmetry_Int_Tables_number   1
_chemical_formula_structural   Li3Cr4PH3O16
_chemical_formula_sum   'Li3 Cr4 P1 H3 O16'
_cell_volume   454.21936404
_cell_formula_units_Z   1
loop_
 _symmetry_equiv_pos_site_id
 _symmetry_equiv_pos_as_xyz
  1  'x, y, z'
loop_
 _atom_site_type_symbol
 _atom_site_label
 _atom_site_symmetry_multiplicity
 _atom_site_fract_x
 _atom_site_fract_y
 _atom_site_fract_z
 _atom_site_occupancy
  Li  Li0  1  0.54750400  0.54750400  0.94903800  1
  Li  Li1  1  0.13262800  0.63243700  0.63112400  1
  Li  Li2  1  0.63243700  0.13262800  0.63112400  1
  Cr  Cr0  1  0.96474800  0.57711500  0.03894300  1
  Cr  Cr1  1  0.57711500  0.96474800  0.03894300  1
  Cr  Cr2  1  0.97138400  0.97138400  0.43346100  1
  Cr  Cr3  1  0.32913400  0.32913400  0.67361300  1
  P  P0  1  0.00656900  0.00656900  0.99670800  1
  H  H0  1  0.83538700  0.38344700  0.62263300  1
  H  H1  1  0.38344700  0.83538700  0.62263300  1
  H  H2  1  0.36131300  0.36131300  0.18878200  1
  O  O0  1  0.98977300  0.76991500  0.51735700  1
  O  O1  1  0.76991500  0.98977300  0.51735700  1
  O  O2  1  0.97618200  0.49588100  0.24146600  1
  O  O3  1  0.49588100  0.97618200  0.24146600  1
  O  O4  1  0.76390600  0.50848100  0.01781900  1
  O  O5  1  0.50848100  0.76390600  0.01781900  1
  O  O6  1  0.02652800  0.02652800  0.18318500  1
  O  O7  1  0.11215700  0.11215700  0.48479800  1
  O  O8  1  0.45134200  0.45134200  0.76728900  1
  O  O9  1  0.10805900  0.52089600  0.89189200  1
  O  O10  1  0.52089600  0.10805900  0.89189200  1
  O  O11  1  0.15184800  0.15184800  0.84832000  1
  O  O12  1  0.24107100  0.45625700  0.54578100  1
  O  O13  1  0.45625700  0.24107100  0.54578100  1
  O  O14  1  0.02980200  0.82363700  0.97258700  1
  O  O15  1  0.82363700  0.02980200  0.97258700  1
loop_
_geom_bond_atom_site_label_1
_geom_bond_atom_site_label_2
_geom_bond_distance
_geom_bond_site_symmetry_2
Li0 O5 1.966308 1_556
Li0 O4 1.966308 1_556
Li0 O8 1.969612 1_555
Li1 O12 1.941199 1_555
Li1 O0 1.941863 1_455
Li1 O9 1.992473 1_555
Li2 O13 1.941199 1_555
Li2 O1 1.941863 1_545
Li2 O10 1.992473 1_555
Cr0 O2 1.606179 1_555
Cr0 O4 1.634170 1_555
Cr0 O9 1.635583 1_654
Cr0 O14 1.847727 1_654
Cr1 O3 1.606179 1_555
Cr1 O5 1.634170 1_555
Cr1 O10 1.635583 1_564
Cr1 O15 1.847727 1_564
Cr2 O7 1.595442 1_665
Cr2 O1 1.640728 1_555
Cr2 O0 1.640728 1_555
Cr2 O6 1.845364 1_665
Cr3 O12 1.628165 1_555
Cr3 O13 1.628165 1_555
Cr3 O8 1.628296 1_555
Cr3 O11 1.843739 1_555
H0 Li2 2.277635 1_555
H1 Li1 2.277635 1_555
H2 Li0 2.156431 1_554
O6 P0 1.537319 1_554
O11 P0 1.528276 1_555
O14 P0 1.543989 1_565
O15 P0 1.543989 1_655
