# generated using pymatgen
data_Ba2Ti4Fe2O13
_symmetry_space_group_name_H-M   'P 1'
_cell_length_a   7.90445556
_cell_length_b   7.90445556
_cell_length_c   9.25823590
_cell_angle_alpha   81.41983455
_cell_angle_beta   81.41983455
_cell_angle_gamma   28.79688439
_symmetry_Int_Tables_number   1
_chemical_formula_structural   Ba2Ti4Fe2O13
_chemical_formula_sum   'Ba2 Ti4 Fe2 O13'
_cell_volume   275.32154140
_cell_formula_units_Z   1
loop_
 _symmetry_equiv_pos_site_id
 _symmetry_equiv_pos_as_xyz
  1  'x, y, z'
loop_
 _atom_site_type_symbol
 _atom_site_label
 _atom_site_symmetry_multiplicity
 _atom_site_fract_x
 _atom_site_fract_y
 _atom_site_fract_z
 _atom_site_occupancy
  Ba  Ba0  1  0.55029000  0.55029000  0.23137600  1
  Ba  Ba1  1  0.44971000  0.44971000  0.76862400  1
  Ti  Ti0  1  0.83368400  0.83368400  0.43625300  1
  Ti  Ti1  1  0.16631600  0.16631600  0.56374700  1
  Ti  Ti2  1  0.87765900  0.87765900  0.08616100  1
  Ti  Ti3  1  0.12234100  0.12234100  0.91383900  1
  Fe  Fe0  1  0.24157800  0.24157800  0.23703800  1
  Fe  Fe1  1  0.75842200  0.75842200  0.76296200  1
  O  O0  1  0.87218900  0.87218900  0.61408500  1
  O  O1  1  0.12781100  0.12781100  0.38591500  1
  O  O2  1  0.36852500  0.36852500  0.11158800  1
  O  O3  1  0.63147500  0.63147500  0.88841200  1
  O  O4  1  0.93100800  0.93100800  0.29961000  1
  O  O5  1  0.06899200  0.06899200  0.70039000  1
  O  O6  1  0.76527700  0.76527700  0.24144000  1
  O  O7  1  0.23472300  0.23472300  0.75856000  1
  O  O8  1  0.00000000  0.00000000  0.00000000  1
  O  O9  1  0.69955200  0.69955200  0.56916300  1
  O  O10  1  0.30044800  0.30044800  0.43083700  1
  O  O11  1  0.16542500  0.16542500  0.08608500  1
  O  O12  1  0.83457500  0.83457500  0.91391500  1
loop_
_geom_bond_atom_site_label_1
_geom_bond_atom_site_label_2
_geom_bond_distance
_geom_bond_site_symmetry_2
Ba0 O4 2.691295 1_545
Ba0 O4 2.691295 1_455
Ba0 O1 2.800481 1_565
Ba0 O1 2.800481 1_655
Ba0 O11 2.837314 1_655
Ba0 O11 2.837314 1_565
Ba0 O8 3.090838 1_565
Ba0 O8 3.090838 1_655
Ba0 O2 3.150764 1_555
Ba0 O3 3.226692 1_554
Ba0 O6 3.307590 1_555
Ba1 O5 2.691295 1_565
Ba1 O5 2.691295 1_655
Ba1 O0 2.800481 1_545
Ba1 O0 2.800481 1_455
Ba1 O12 2.837314 1_545
Ba1 O12 2.837314 1_455
Ba1 O8 3.090838 1_656
Ba1 O8 3.090838 1_566
Ba1 O3 3.150764 1_555
Ba1 O2 3.226692 1_556
Ba1 O7 3.307590 1_555
Fe0 O11 1.953191 1_555
Fe0 O6 2.000323 1_455
Fe0 O6 2.000323 1_545
Fe0 O1 2.048128 1_555
Fe0 O2 2.105238 1_555
Fe0 O10 2.128411 1_555
Fe1 O12 1.953191 1_555
Fe1 O7 2.000323 1_565
Fe1 O7 2.000323 1_655
Fe1 O0 2.048128 1_555
Fe1 O3 2.105238 1_555
Fe1 O9 2.128411 1_555
O0 Ti0 1.832305 1_555
O1 Ti1 1.832305 1_555
O2 Ti2 1.981975 1_455
O2 Ti2 1.981975 1_545
O3 Ti3 1.981975 1_565
O3 Ti3 1.981975 1_655
O4 Ti0 1.800138 1_555
O4 Ti2 2.251632 1_555
O5 Ti1 1.800138 1_555
O5 Ti3 2.251632 1_555
O6 Ti2 2.065400 1_555
O6 Ti0 2.220870 1_555
O7 Ti3 2.065400 1_555
O7 Ti1 2.220870 1_555
O8 Ti3 1.919721 1_554
O8 Ti2 1.919721 1_445
O9 Ti1 2.032920 1_655
O9 Ti1 2.032920 1_565
O9 Ti0 2.225757 1_555
O10 Ti0 2.032920 1_545
O10 Ti0 2.032920 1_455
O10 Ti1 2.225757 1_555
O11 Ti3 1.817243 1_554
O12 Ti2 1.817243 1_556
