# generated using pymatgen
data_CeInAu
_symmetry_space_group_name_H-M   'P 1'
_cell_length_a   7.76981214
_cell_length_b   7.77085617
_cell_length_c   4.26683716
_cell_angle_alpha   90.00000000
_cell_angle_beta   90.00000000
_cell_angle_gamma   120.01185315
_symmetry_Int_Tables_number   1
_chemical_formula_structural   CeInAu
_chemical_formula_sum   'Ce3 In3 Au3'
_cell_volume   223.08183334
_cell_formula_units_Z   3
loop_
 _symmetry_equiv_pos_site_id
 _symmetry_equiv_pos_as_xyz
  1  'x, y, z'
loop_
 _atom_site_type_symbol
 _atom_site_label
 _atom_site_symmetry_multiplicity
 _atom_site_fract_x
 _atom_site_fract_y
 _atom_site_fract_z
 _atom_site_occupancy
  Ce  Ce0  1  0.00002181  0.58512751  0.00000000  1
  Ce  Ce1  1  0.41483624  0.41489264  -0.00000000  1
  Ce  Ce2  1  0.58516865  0.00002134  0.00000000  1
  In  In0  1  0.75237576  0.75239868  0.50000000  1
  In  In1  1  0.99993955  0.24753357  0.50000000  1
  In  In2  1  0.24767000  0.00007647  0.50000000  1
  Au  Au0  1  0.66668264  0.33338914  0.50000000  1
  Au  Au1  1  0.33331949  0.66666161  0.50000000  1
  Au  Au2  1  -0.00001513  0.99989905  0.00000000  1
loop_
_geom_bond_atom_site_label_1
_geom_bond_atom_site_label_2
_geom_bond_distance
_geom_bond_site_symmetry_2
Ce0 In1 3.381123 1_455
Ce0 In1 3.381123 1_454
Ce0 In2 3.527696 1_564
Ce0 In2 3.527696 1_565
Ce0 In0 3.527813 1_455
Ce0 In0 3.527813 1_454
Ce1 In0 3.380441 1_554
Ce1 In0 3.380441 1_555
Ce1 In1 3.527169 1_455
Ce1 In1 3.527169 1_454
Ce1 In2 3.527177 1_554
Ce1 In2 3.527177 1_555
Ce2 In2 3.380690 1_554
Ce2 In2 3.380690 1_555
Ce2 In1 3.526461 1_555
Ce2 In1 3.526461 1_554
Ce2 In0 3.527438 1_544
Ce2 In0 3.527438 1_545
Au0 In2 2.978664 1_555
Au0 In0 2.979351 1_555
Au0 In1 2.979593 1_555
Au0 Ce0 3.165106 1_656
Au0 Ce0 3.165106 1_655
Au0 Ce1 3.165669 1_555
Au0 Ce1 3.165669 1_556
Au0 Ce2 3.165795 1_556
Au0 Ce2 3.165795 1_555
Au1 In0 2.979139 1_555
Au1 In1 2.979599 1_455
Au1 In2 2.980025 1_565
Au1 Ce0 3.165104 1_556
Au1 Ce0 3.165104 1_555
Au1 Ce1 3.165435 1_555
Au1 Ce1 3.165435 1_556
Au1 Ce2 3.165489 1_566
Au1 Ce2 3.165489 1_565
Au2 In0 2.872337 1_455
Au2 In0 2.872337 1_454
Au2 In2 2.872698 1_564
Au2 In2 2.872698 1_565
Au2 In1 2.873188 1_464
Au2 In1 2.873188 1_465
Au2 Ce0 3.223274 1_555
Au2 Ce1 3.223509 1_565
Au2 Ce2 3.223520 1_465
