# generated using pymatgen
data_CaCu3(GeO3)4
_symmetry_space_group_name_H-M   'P 1'
_cell_length_a   6.34336242
_cell_length_b   6.34336242
_cell_length_c   6.34336242
_cell_angle_alpha   109.47122063
_cell_angle_beta   109.47122063
_cell_angle_gamma   109.47122063
_symmetry_Int_Tables_number   1
_chemical_formula_structural   CaCu3(GeO3)4
_chemical_formula_sum   'Ca1 Cu3 Ge4 O12'
_cell_volume   196.48829489
_cell_formula_units_Z   1
loop_
 _symmetry_equiv_pos_site_id
 _symmetry_equiv_pos_as_xyz
  1  'x, y, z'
loop_
 _atom_site_type_symbol
 _atom_site_label
 _atom_site_symmetry_multiplicity
 _atom_site_fract_x
 _atom_site_fract_y
 _atom_site_fract_z
 _atom_site_occupancy
  Ca  Ca0  1  0.00000000  0.00000000  0.00000000  1
  Cu  Cu0  1  0.50000000  0.00000000  0.50000000  1
  Cu  Cu1  1  0.50000000  0.50000000  0.00000000  1
  Cu  Cu2  1  0.00000000  0.50000000  0.50000000  1
  Ge  Ge0  1  0.50000000  0.50000000  0.50000000  1
  Ge  Ge1  1  0.50000000  0.00000000  0.00000000  1
  Ge  Ge2  1  0.00000000  0.50000000  0.00000000  1
  Ge  Ge3  1  0.00000000  0.00000000  0.50000000  1
  O  O0  1  0.30065600  0.11760300  0.81694700  1
  O  O1  1  0.69934400  0.88239700  0.18305300  1
  O  O2  1  0.69934400  0.51629200  0.81694700  1
  O  O3  1  0.48370800  0.18305300  0.30065600  1
  O  O4  1  0.18305300  0.30065600  0.48370800  1
  O  O5  1  0.81694700  0.30065600  0.11760300  1
  O  O6  1  0.88239700  0.18305300  0.69934400  1
  O  O7  1  0.81694700  0.69934400  0.51629200  1
  O  O8  1  0.30065600  0.48370800  0.18305300  1
  O  O9  1  0.51629200  0.81694700  0.69934400  1
  O  O10  1  0.18305300  0.69934400  0.88239700  1
  O  O11  1  0.11760300  0.81694700  0.30065600  1
loop_
_geom_bond_atom_site_label_1
_geom_bond_atom_site_label_2
_geom_bond_distance
_geom_bond_site_symmetry_2
Ca0 O3 2.578267 1_555
Ca0 O4 2.578267 1_555
Ca0 O8 2.578267 1_555
Ca0 O7 2.578267 1_444
Ca0 O9 2.578267 1_444
Ca0 O2 2.578267 1_444
Ca0 O5 2.578272 1_455
Ca0 O6 2.578272 1_454
Ca0 O1 2.578272 1_445
Ca0 O10 2.578272 1_544
Ca0 O0 2.578272 1_554
Ca0 O11 2.578272 1_545
Cu0 O6 1.982358 1_555
Cu0 O11 1.982358 1_545
Cu0 O9 1.982358 1_545
Cu0 O3 1.982358 1_555
Cu1 O1 1.982358 1_555
Cu1 O0 1.982358 1_554
Cu1 O8 1.982358 1_555
Cu1 O2 1.982358 1_554
Cu2 O10 1.982358 1_555
Cu2 O5 1.982358 1_455
Cu2 O7 1.982358 1_455
Cu2 O4 1.982358 1_555
Ge0 O2 1.931658 1_555
Ge0 O9 1.931658 1_555
Ge0 O7 1.931658 1_555
Ge0 O3 1.931658 1_555
Ge0 O4 1.931658 1_555
Ge0 O8 1.931658 1_555
Ge1 O1 1.931661 1_545
Ge1 O5 1.931661 1_555
Ge1 O10 1.931661 1_544
Ge1 O0 1.931661 1_554
Ge1 O3 1.931665 1_555
Ge1 O9 1.931665 1_544
Ge2 O11 1.931661 1_555
Ge2 O5 1.931661 1_455
Ge2 O10 1.931661 1_554
Ge2 O6 1.931661 1_454
Ge2 O8 1.931665 1_555
Ge2 O2 1.931665 1_454
Ge3 O0 1.931661 1_555
Ge3 O1 1.931661 1_445
Ge3 O6 1.931661 1_455
Ge3 O11 1.931661 1_545
Ge3 O4 1.931665 1_555
Ge3 O7 1.931665 1_445
