# generated using pymatgen
data_Na2Cu3H8(SeO4)4
_symmetry_space_group_name_H-M   'P 1'
_cell_length_a   5.28711645
_cell_length_b   9.16930300
_cell_length_c   16.00788390
_cell_angle_alpha   90.00000000
_cell_angle_beta   92.49760491
_cell_angle_gamma   90.00000000
_symmetry_Int_Tables_number   1
_chemical_formula_structural   Na2Cu3H8(SeO4)4
_chemical_formula_sum   'Na4 Cu6 H16 Se8 O32'
_cell_volume   775.31175662
_cell_formula_units_Z   2
loop_
 _symmetry_equiv_pos_site_id
 _symmetry_equiv_pos_as_xyz
  1  'x, y, z'
loop_
 _atom_site_type_symbol
 _atom_site_label
 _atom_site_symmetry_multiplicity
 _atom_site_fract_x
 _atom_site_fract_y
 _atom_site_fract_z
 _atom_site_occupancy
  Na  Na0  1  0.73810000  0.13765700  0.46067600  1
  Na  Na1  1  0.26190000  0.63765700  0.03932400  1
  Na  Na2  1  0.26190000  0.86234300  0.53932400  1
  Na  Na3  1  0.73810000  0.36234300  0.96067600  1
  Cu  Cu0  1  0.00000000  0.50000000  0.50000000  1
  Cu  Cu1  1  0.00000000  0.00000000  0.00000000  1
  Cu  Cu2  1  0.69861000  0.07378500  0.67145100  1
  Cu  Cu3  1  0.30139000  0.57378500  0.82854900  1
  Cu  Cu4  1  0.30139000  0.92621500  0.32854900  1
  Cu  Cu5  1  0.69861000  0.42621500  0.17145100  1
  H  H0  1  0.73256000  0.78681000  0.59385700  1
  H  H1  1  0.26744000  0.28681000  0.90614300  1
  H  H2  1  0.26744000  0.21319000  0.40614300  1
  H  H3  1  0.73256000  0.71319000  0.09385700  1
  H  H4  1  0.61795200  0.74867500  0.68085300  1
  H  H5  1  0.38204800  0.24867500  0.81914700  1
  H  H6  1  0.38204800  0.25132500  0.31914700  1
  H  H7  1  0.61795200  0.75132500  0.18085300  1
  H  H8  1  0.20374400  0.57052700  0.63771600  1
  H  H9  1  0.79625600  0.07052700  0.86228400  1
  H  H10  1  0.79625600  0.42947300  0.36228400  1
  H  H11  1  0.20374400  0.92947300  0.13771600  1
  H  H12  1  0.44563400  0.53108500  0.58586400  1
  H  H13  1  0.55436600  0.03108500  0.91413600  1
  H  H14  1  0.55436600  0.46891500  0.41413600  1
  H  H15  1  0.44563400  0.96891500  0.08586400  1
  Se  Se0  1  0.19926600  0.21803500  0.59820500  1
  Se  Se1  1  0.80073500  0.71803500  0.90179500  1
  Se  Se2  1  0.80073500  0.78196500  0.40179500  1
  Se  Se3  1  0.19926600  0.28196500  0.09820500  1
  Se  Se4  1  0.21023900  0.96457200  0.77345200  1
  Se  Se5  1  0.78976100  0.46457200  0.72654800  1
  Se  Se6  1  0.78976100  0.03542800  0.22654800  1
  Se  Se7  1  0.21023900  0.53542800  0.27345200  1
  O  O0  1  0.92155700  0.05936800  0.77308900  1
  O  O1  1  0.07844300  0.55936800  0.72691100  1
  O  O2  1  0.07844300  0.94063200  0.22691100  1
  O  O3  1  0.92155700  0.44063200  0.27308900  1
  O  O4  1  0.98480300  0.07252900  0.59481800  1
  O  O5  1  0.01519700  0.57252900  0.90518200  1
  O  O6  1  0.01519700  0.92747100  0.40518200  1
  O  O7  1  0.98480300  0.42747100  0.09481800  1
  O  O8  1  0.41274400  0.10791900  0.74622300  1
  O  O9  1  0.58725600  0.60791900  0.75377700  1
  O  O10  1  0.58725600  0.89208100  0.25377700  1
  O  O11  1  0.41274400  0.39208100  0.24622300  1
  O  O12  1  0.12550100  0.29504900  0.50032000  1
  O  O13  1  0.87449900  0.79504900  0.99968000  1
  O  O14  1  0.87449900  0.70495100  0.49968000  1
  O  O15  1  0.12550100  0.20495100  0.00032000  1
  O  O16  1  0.62821900  0.82731400  0.63809600  1
  O  O17  1  0.37178100  0.32731400  0.86190400  1
  O  O18  1  0.37178100  0.17268600  0.36190400  1
  O  O19  1  0.62821900  0.67268600  0.13809600  1
  O  O20  1  0.27379300  0.57720200  0.57965700  1
  O  O21  1  0.72620700  0.07720200  0.92034300  1
  O  O22  1  0.72620700  0.42279800  0.42034300  1
  O  O23  1  0.27379300  0.92279800  0.07965700  1
  O  O24  1  0.46650300  0.12076900  0.57309400  1
  O  O25  1  0.53349700  0.62076900  0.92690600  1
  O  O26  1  0.53349700  0.87923100  0.42690600  1
  O  O27  1  0.46650300  0.37923100  0.07309400  1
  O  O28  1  0.27209600  0.94782900  0.87810600  1
  O  O29  1  0.72790400  0.44782900  0.62189400  1
  O  O30  1  0.72790400  0.05217100  0.12189400  1
  O  O31  1  0.27209600  0.55217100  0.37810600  1
loop_
_geom_bond_atom_site_label_1
_geom_bond_atom_site_label_2
_geom_bond_distance
_geom_bond_site_symmetry_2
Na0 O24 2.355772 1_555
Na0 O18 2.467251 1_555
Na0 O4 2.534730 1_555
Na0 O12 2.562707 1_655
Na0 O6 2.600627 1_645
Na0 O26 2.650738 1_545
Na0 O22 2.693161 1_555
Na1 O25 2.355772 1_554
Na1 O19 2.467251 1_555
Na1 O5 2.534730 1_554
Na1 O13 2.562707 1_454
Na1 O7 2.600627 1_455
Na1 O27 2.650738 1_555
Na1 O23 2.693161 1_555
Na2 O26 2.355772 1_555
Na2 O16 2.467251 1_555
Na2 O6 2.534730 1_555
Na2 O14 2.562707 1_455
Na2 O4 2.600627 1_465
Na2 O24 2.650738 1_565
Na2 O20 2.693161 1_555
Na3 O27 2.355772 1_556
Na3 O17 2.467251 1_555
Na3 O7 2.534730 1_556
Na3 O15 2.562707 1_656
Na3 O5 2.600627 1_655
Na3 O25 2.650738 1_555
Na3 O21 2.693161 1_555
Cu0 O12 1.992893 1_555
Cu0 O14 1.992893 1_455
Cu0 O20 2.015363 1_555
Cu0 O22 2.015363 1_455
Cu0 O29 2.520021 1_455
Cu0 O31 2.520021 1_555
Cu1 O15 1.992893 1_555
Cu1 O13 1.992893 1_444
Cu1 O23 2.015363 1_545
Cu1 O21 2.015363 1_454
Cu1 O30 2.520021 1_455
Cu1 O28 2.520021 1_544
Cu2 O0 1.971530 1_555
Cu2 O4 1.989061 1_555
Cu2 O8 1.993150 1_555
Cu2 O24 2.000543 1_555
Cu2 O16 2.348134 1_545
Cu3 O1 1.971530 1_555
Cu3 O5 1.989061 1_555
Cu3 O9 1.993150 1_555
Cu3 O25 2.000543 1_555
Cu3 O17 2.348134 1_555
Cu4 O2 1.971530 1_555
Cu4 O6 1.989061 1_555
Cu4 O10 1.993150 1_555
Cu4 O26 2.000543 1_555
Cu4 O18 2.348134 1_565
Cu5 O3 1.971530 1_555
Cu5 O7 1.989061 1_555
Cu5 O11 1.993150 1_555
Cu5 O27 2.000543 1_555
Cu5 O19 2.348134 1_555
H0 O16 0.988849 1_555
H1 O17 0.988849 1_555
H2 O18 0.988849 1_555
H3 O19 0.988849 1_555
H4 O16 0.997291 1_555
H4 O9 1.752517 1_555
H5 O17 0.997291 1_555
H5 O8 1.752517 1_555
H6 O18 0.997291 1_555
H6 O11 1.752517 1_555
H7 O19 0.997291 1_555
H7 O10 1.752517 1_555
H8 O20 1.017201 1_555
H8 O1 1.603269 1_555
H9 O21 1.017201 1_555
H9 O0 1.603269 1_555
H10 O22 1.017201 1_555
H10 O3 1.603269 1_555
H11 O23 1.017201 1_555
H11 O2 1.603269 1_555
H12 O20 1.003129 1_555
H12 O29 1.751473 1_555
H13 O21 1.003129 1_555
H13 O28 1.751473 1_545
H14 O22 1.003129 1_555
H14 O31 1.751473 1_555
H15 O23 1.003129 1_555
H15 O30 1.751473 1_565
O0 Se4 1.756237 1_645
O1 Se5 1.756237 1_455
O2 Se6 1.756237 1_465
O3 Se7 1.756237 1_655
O4 Se0 1.750243 1_655
O5 Se1 1.750239 1_455
O6 Se2 1.750239 1_455
O7 Se3 1.750243 1_655
O8 Se4 1.761993 1_545
O9 Se5 1.761993 1_555
O10 Se6 1.761993 1_565
O11 Se7 1.761993 1_555
O12 Se0 1.747222 1_555
O13 Se1 1.747221 1_555
O14 Se2 1.747221 1_555
O15 Se3 1.747222 1_555
O24 Se0 1.732866 1_555
O25 Se1 1.732870 1_555
O26 Se2 1.732870 1_555
O27 Se3 1.732866 1_555
O28 Se4 1.699814 1_555
O29 Se5 1.699814 1_555
O30 Se6 1.699814 1_555
O31 Se7 1.699814 1_555
