# generated using pymatgen
data_Mg14ZnMo
_symmetry_space_group_name_H-M   'P 1'
_cell_length_a   6.25585986
_cell_length_b   6.25010849
_cell_length_c   9.96039596
_cell_angle_alpha   90.00000000
_cell_angle_beta   90.00000000
_cell_angle_gamma   119.96959777
_symmetry_Int_Tables_number   1
_chemical_formula_structural   Mg14ZnMo
_chemical_formula_sum   'Mg14 Zn1 Mo1'
_cell_volume   337.37645350
_cell_formula_units_Z   1
loop_
 _symmetry_equiv_pos_site_id
 _symmetry_equiv_pos_as_xyz
  1  'x, y, z'
loop_
 _atom_site_type_symbol
 _atom_site_label
 _atom_site_symmetry_multiplicity
 _atom_site_fract_x
 _atom_site_fract_y
 _atom_site_fract_z
 _atom_site_occupancy
  Mg  Mg0  1  0.16860872  0.33430386  0.62500000  1
  Mg  Mg1  1  0.16763919  0.83381910  0.62500000  1
  Mg  Mg2  1  0.66793404  0.33605115  0.12500000  1
  Mg  Mg3  1  0.66508880  0.33352842  0.62500000  1
  Mg  Mg4  1  0.66793404  0.83188188  0.12500000  1
  Mg  Mg5  1  0.66508880  0.83155938  0.62500000  1
  Mg  Mg6  1  0.32605846  0.15873065  0.36097168  1
  Mg  Mg7  1  0.32605846  0.15873065  0.88902832  1
  Mg  Mg8  1  0.32605846  0.66732881  0.36097168  1
  Mg  Mg9  1  0.32605846  0.66732881  0.88902832  1
  Mg  Mg10  1  0.83760910  0.16880505  0.37090688  1
  Mg  Mg11  1  0.83760910  0.16880505  0.87909312  1
  Mg  Mg12  1  0.84414451  0.67207275  0.36772169  1
  Mg  Mg13  1  0.84414451  0.67207275  0.88227831  1
  Zn  Zn0  1  0.16663860  0.33331880  0.12500000  1
  Mo  Mo0  1  0.16332676  0.83166288  0.12500000  1
loop_
_geom_bond_atom_site_label_1
_geom_bond_atom_site_label_2
_geom_bond_distance
_geom_bond_site_symmetry_2
Mg0 Mg11 3.102108 1_455
Mg0 Mg10 3.102108 1_455
Mg0 Mg5 3.108333 1_555
Mg0 Mg3 3.108334 1_555
Mg0 Mg1 3.125059 1_545
Mg0 Mg1 3.125059 1_555
Mg0 Mg5 3.147532 1_445
Mg0 Mg3 3.147532 1_455
Mg0 Mg6 3.189081 1_555
Mg0 Mg7 3.189081 1_555
Mg0 Mg8 3.189088 1_555
Mg0 Mg9 3.189088 1_555
Mg1 Mg12 3.104900 1_455
Mg1 Mg13 3.104900 1_455
Mg1 Mg3 3.119054 1_565
Mg1 Mg5 3.119054 1_555
Mg1 Mg3 3.136853 1_455
Mg1 Mg5 3.136853 1_455
Mg1 Mg8 3.164063 1_555
Mg1 Mg9 3.164063 1_555
Mg1 Mg6 3.164069 1_565
Mg1 Mg7 3.164069 1_565
Mg2 Mg6 2.993084 1_555
Mg2 Mg7 2.993084 1_554
Mg2 Mg4 3.098996 1_555
Mg2 Mo0 3.099791 1_655
Mg2 Zn0 3.127538 1_555
Mg2 Zn0 3.128392 1_655
Mg2 Mg4 3.151113 1_545
Mg2 Mo0 3.156069 1_545
Mg3 Mg5 3.112748 1_555
Mg3 Mg5 3.137361 1_545
Mg3 Mg6 3.208254 1_555
Mg3 Mg7 3.208254 1_555
Mg4 Mg8 2.993084 1_555
Mg4 Mg9 2.993084 1_554
Mg4 Mo0 3.099791 1_655
Mg4 Zn0 3.127538 1_555
Mg4 Zn0 3.128391 1_665
Mg4 Mo0 3.156069 1_555
Mg5 Mg9 3.208254 1_555
Mg5 Mg8 3.208254 1_555
Mg6 Mo0 2.942833 1_545
Mg6 Zn0 2.965946 1_555
Mg7 Mo0 2.942833 1_546
Mg7 Zn0 2.965946 1_556
Mg8 Mo0 2.942827 1_555
Mg8 Zn0 2.965952 1_555
Mg9 Mo0 2.942827 1_556
Mg9 Zn0 2.965952 1_556
Mg10 Zn0 3.029654 1_655
Mg10 Mg2 3.054034 1_555
Mg10 Mg4 3.054040 1_545
Mg10 Mg8 3.089192 1_655
Mg10 Mg6 3.089192 1_655
Mg10 Mg3 3.120925 1_555
Mg10 Mg5 3.120931 1_545
Mg10 Mg12 3.125416 1_555
Mg10 Mg12 3.125416 1_545
Mg10 Mg8 3.170749 1_545
Mg10 Mg6 3.170749 1_555
Mg11 Zn0 3.029654 1_656
Mg11 Mg2 3.054034 1_556
Mg11 Mg4 3.054040 1_546
Mg11 Mg9 3.089192 1_655
Mg11 Mg7 3.089192 1_655
Mg11 Mg3 3.120925 1_555
Mg11 Mg5 3.120931 1_545
Mg11 Mg13 3.125416 1_555
Mg11 Mg13 3.125416 1_545
Mg11 Mg9 3.170749 1_545
Mg11 Mg7 3.170749 1_555
Mg12 Mo0 2.972697 1_655
Mg12 Mg4 3.026164 1_555
Mg12 Mg2 3.026171 1_555
Mg12 Mg5 3.151316 1_555
Mg12 Mg3 3.151322 1_555
Mg13 Mo0 2.972697 1_656
Mg13 Mg4 3.026164 1_556
Mg13 Mg2 3.026171 1_556
Mg13 Mg5 3.151316 1_555
Mg13 Mg3 3.151322 1_555
Mo0 Zn0 3.125106 1_565
Mo0 Zn0 3.125106 1_555
