# generated using pymatgen
data_Tb(ClO4)3
_symmetry_space_group_name_H-M   'P 1'
_cell_length_a   9.40842427
_cell_length_b   9.40841325
_cell_length_c   5.57843820
_cell_angle_alpha   89.99994259
_cell_angle_beta   90.00005791
_cell_angle_gamma   120.00012651
_symmetry_Int_Tables_number   1
_chemical_formula_structural   Tb(ClO4)3
_chemical_formula_sum   'Tb2 Cl6 O24'
_cell_volume   427.63769768
_cell_formula_units_Z   2
loop_
 _symmetry_equiv_pos_site_id
 _symmetry_equiv_pos_as_xyz
  1  'x, y, z'
loop_
 _atom_site_type_symbol
 _atom_site_label
 _atom_site_symmetry_multiplicity
 _atom_site_fract_x
 _atom_site_fract_y
 _atom_site_fract_z
 _atom_site_occupancy
  Tb  Tb0  1  0.66666597  0.33333384  0.24999994  1
  Tb  Tb1  1  0.33333351  0.66666620  0.75000028  1
  Cl  Cl0  1  0.09325377  0.39177749  0.25000022  1
  Cl  Cl1  1  0.90674488  0.60822184  0.74999937  1
  Cl  Cl2  1  0.60822233  0.70147669  0.25000019  1
  Cl  Cl3  1  0.39177819  0.29852342  0.74999995  1
  Cl  Cl4  1  0.29852427  0.90674579  0.25000048  1
  Cl  Cl5  1  0.70147853  0.09325599  0.75000027  1
  O  O0  1  0.14615031  0.49857130  0.04093677  1
  O  O1  1  0.85384897  0.50142973  0.95906311  1
  O  O2  1  0.50142920  0.64757939  0.04093577  1
  O  O3  1  0.85384921  0.50142890  0.54093650  1
  O  O4  1  0.49857051  0.35242021  0.95906347  1
  O  O5  1  0.14615052  0.49857080  0.45906423  1
  O  O6  1  0.35242052  0.85384990  0.04093770  1
  O  O7  1  0.49857058  0.35242041  0.54093673  1
  O  O8  1  0.64758020  0.14615022  0.95906233  1
  O  O9  1  0.50142915  0.64757942  0.45906416  1
  O  O10  1  0.64758031  0.14615037  0.54093783  1
  O  O11  1  0.35242044  0.85385014  0.45906375  1
  O  O12  1  0.15894788  0.28653981  0.25000013  1
  O  O13  1  0.84105213  0.71346138  0.74999750  1
  O  O14  1  0.71346103  0.87241000  0.25000012  1
  O  O15  1  0.28653912  0.12759035  0.74999985  1
  O  O16  1  0.12759087  0.84104946  0.25000023  1
  O  O17  1  0.87240763  0.15894813  0.75000054  1
  O  O18  1  0.38381068  0.08295861  0.25000023  1
  O  O19  1  0.61618774  0.91704141  0.75000009  1
  O  O20  1  0.91704032  0.30085365  0.25000026  1
  O  O21  1  0.08295883  0.69914609  0.74999984  1
  O  O22  1  0.69914617  0.61618720  0.25000022  1
  O  O23  1  0.30085424  0.38381288  0.74999993  1
loop_
_geom_bond_atom_site_label_1
_geom_bond_atom_site_label_2
_geom_bond_distance
_geom_bond_site_symmetry_2
Cl0 O12 1.405109 1_555
Cl0 O20 1.436018 1_455
Cl0 O0 1.455098 1_555
Cl0 O5 1.455099 1_555
Cl1 O13 1.405115 1_555
Cl1 O21 1.436022 1_655
Cl1 O1 1.455091 1_555
Cl1 O3 1.455092 1_555
Cl2 O14 1.405118 1_555
Cl2 O22 1.436019 1_555
Cl2 O9 1.455099 1_555
Cl2 O2 1.455100 1_555
Cl3 O15 1.405117 1_555
Cl3 O23 1.436020 1_555
Cl3 O7 1.455091 1_555
Cl3 O4 1.455092 1_555
Cl4 O16 1.405119 1_555
Cl4 O18 1.436012 1_565
Cl4 O11 1.455088 1_555
Cl4 O6 1.455089 1_555
Cl5 O17 1.405087 1_555
Cl5 O19 1.436026 1_545
Cl5 O8 1.455088 1_555
Cl5 O10 1.455088 1_555
O0 Tb1 2.334838 1_554
O1 Tb0 2.334841 1_556
O2 Tb1 2.334835 1_554
O3 Tb0 2.334839 1_555
O4 Tb0 2.334836 1_556
O5 Tb1 2.334837 1_555
O6 Tb1 2.334851 1_554
O7 Tb0 2.334840 1_555
O8 Tb0 2.334854 1_556
O9 Tb1 2.334840 1_555
O10 Tb0 2.334853 1_555
O11 Tb1 2.334847 1_555
O18 Tb0 2.522345 1_555
O19 Tb1 2.522339 1_555
O20 Tb0 2.522344 1_555
O21 Tb1 2.522345 1_555
O22 Tb0 2.522329 1_555
O23 Tb1 2.522332 1_555
