# generated using pymatgen
data_Li7Mn5O12
_symmetry_space_group_name_H-M   'P 1'
_cell_length_a   2.87231900
_cell_length_b   7.76604116
_cell_length_c   20.37268539
_cell_angle_alpha   84.60478498
_cell_angle_beta   94.04285774
_cell_angle_gamma   100.65597446
_symmetry_Int_Tables_number   1
_chemical_formula_structural   Li7Mn5O12
_chemical_formula_sum   'Li14 Mn10 O24'
_cell_volume   443.97320421
_cell_formula_units_Z   2
loop_
 _symmetry_equiv_pos_site_id
 _symmetry_equiv_pos_as_xyz
  1  'x, y, z'
loop_
 _atom_site_type_symbol
 _atom_site_label
 _atom_site_symmetry_multiplicity
 _atom_site_fract_x
 _atom_site_fract_y
 _atom_site_fract_z
 _atom_site_occupancy
  Li  Li0  1  0.66668300  0.25003600  0.08333100  1
  Li  Li1  1  0.66666800  0.75001400  0.58332800  1
  Li  Li2  1  0.50223500  0.88354100  0.12086600  1
  Li  Li3  1  0.50217500  0.38348900  0.62082500  1
  Li  Li4  1  0.83115200  0.61659400  0.04577500  1
  Li  Li5  1  0.83116700  0.11655800  0.54580700  1
  Li  Li6  1  0.51076500  0.63696800  0.38460000  1
  Li  Li7  1  0.51080300  0.13703900  0.88464000  1
  Li  Li8  1  0.82252100  0.36292200  0.28203200  1
  Li  Li9  1  0.82253100  0.86293300  0.78208700  1
  Li  Li10  1  0.15479900  0.11538600  0.19423100  1
  Li  Li11  1  0.15468400  0.61527100  0.69416600  1
  Li  Li12  1  0.17865400  0.88474900  0.47249200  1
  Li  Li13  1  0.17859300  0.38470900  0.97245500  1
  Mn  Mn0  1  0.66655300  0.99986800  0.33330100  1
  Mn  Mn1  1  0.01021300  0.51163500  0.50871100  1
  Mn  Mn2  1  0.32318100  0.48848900  0.15788300  1
  Mn  Mn3  1  0.99401300  0.24295200  0.74512600  1
  Mn  Mn4  1  0.33931900  0.75712700  0.92155900  1
  Mn  Mn5  1  0.66689500  0.49989100  0.83336900  1
  Mn  Mn6  1  0.01020700  0.01160000  0.00876300  1
  Mn  Mn7  1  0.32315300  0.98836400  0.65797700  1
  Mn  Mn8  1  0.99407800  0.74297000  0.24517300  1
  Mn  Mn9  1  0.33928300  0.25704200  0.42150300  1
  O  O0  1  0.43205600  0.84123700  0.02280100  1
  O  O1  1  0.43200300  0.34120700  0.52276700  1
  O  O2  1  0.90130900  0.65885600  0.14383800  1
  O  O3  1  0.90129000  0.15877600  0.64387000  1
  O  O4  1  0.41188800  0.56540000  0.25841300  1
  O  O5  1  0.41188800  0.06540000  0.75844600  1
  O  O6  1  0.92136900  0.43459400  0.40819700  1
  O  O7  1  0.92139700  0.93464500  0.90823800  1
  O  O8  1  0.07609800  0.05659000  0.09554000  1
  O  O9  1  0.07604100  0.55655800  0.59550300  1
  O  O10  1  0.25729600  0.44351000  0.07111300  1
  O  O11  1  0.25730100  0.94344300  0.57117200  1
  O  O12  1  0.08939100  0.82704800  0.35175200  1
  O  O13  1  0.08942300  0.32714900  0.85176400  1
  O  O14  1  0.24376000  0.17263400  0.31492400  1
  O  O15  1  0.24381700  0.67275400  0.81495700  1
  O  O16  1  0.76286400  0.08515600  0.44044600  1
  O  O17  1  0.76283700  0.58519400  0.94044500  1
  O  O18  1  0.57049400  0.91480900  0.22623900  1
  O  O19  1  0.57044400  0.41482400  0.72622000  1
  O  O20  1  0.75381800  0.32475200  0.18288600  1
  O  O21  1  0.75379400  0.82464200  0.68293600  1
  O  O22  1  0.57952900  0.67534000  0.48374900  1
  O  O23  1  0.57956700  0.17533500  0.98378200  1
loop_
_geom_bond_atom_site_label_1
_geom_bond_atom_site_label_2
_geom_bond_distance
_geom_bond_site_symmetry_2
Li0 O8 2.059892 1_555
Li0 O8 2.059988 1_655
Li0 O10 2.060091 1_655
Li0 O10 2.060113 1_555
Li0 O23 2.146692 1_554
Li0 O20 2.146848 1_555
Li1 O11 2.059771 1_555
Li1 O11 2.059794 1_655
Li1 O9 2.059943 1_555
Li1 O9 2.059960 1_655
Li1 O22 2.147209 1_555
Li1 O21 2.147657 1_555
Li2 O8 1.989816 1_565
Li2 O8 1.989861 1_665
Li2 O0 2.045022 1_555
Li2 O18 2.174151 1_555
Li2 O2 2.255696 1_555
Li2 O2 2.255992 1_455
Li3 O9 1.989916 1_555
Li3 O9 1.989924 1_655
Li3 O1 2.044841 1_555
Li3 O19 2.174693 1_555
Li3 O3 2.256103 1_555
Li3 O3 2.256331 1_455
Li4 O10 1.990044 1_555
Li4 O10 1.990076 1_655
Li4 O2 2.044905 1_555
Li4 O17 2.173475 1_554
Li4 O0 2.255464 1_555
Li4 O0 2.255760 1_655
Li5 O11 1.990323 1_645
Li5 O11 1.990324 1_545
Li5 O3 2.044825 1_555
Li5 O16 2.174104 1_555
Li5 O1 2.255761 1_555
Li5 O1 2.255918 1_655
Li6 O22 2.059881 1_555
Li6 O12 2.110106 1_555
Li6 O12 2.110186 1_655
Li6 O6 2.134383 1_555
Li6 O6 2.134453 1_455
Li7 O23 2.059611 1_555
Li7 O13 2.110419 1_555
Li7 O13 2.110472 1_655
Li7 O7 2.134493 1_545
Li7 O7 2.134565 1_445
Li8 O20 2.059477 1_555
Li8 O14 2.111285 1_655
Li8 O14 2.111572 1_555
Li8 O4 2.134951 1_655
Li8 O4 2.135152 1_555
Li9 O21 2.059783 1_555
Li9 O15 2.110625 1_655
Li9 O15 2.110899 1_555
Li9 O5 2.134978 1_665
Li9 O5 2.135154 1_565
Li10 O8 2.091051 1_555
Li10 O20 2.146622 1_455
Li10 O20 2.146694 1_555
Li10 O18 2.159700 1_545
Li10 O18 2.159820 1_445
Li10 O14 2.526622 1_555
Li11 O9 2.090309 1_555
Li11 O21 2.146485 1_455
Li11 O21 2.146675 1_555
Li11 O19 2.159205 1_555
Li11 O19 2.159413 1_455
Li11 O15 2.529038 1_555
Li12 O11 2.090604 1_555
Li12 O22 2.146705 1_555
Li12 O22 2.146932 1_455
Li12 O16 2.158983 1_465
Li12 O16 2.159138 1_565
Li12 O12 2.528439 1_555
Li13 O10 2.090407 1_556
Li13 O23 2.146662 1_555
Li13 O23 2.146710 1_455
Li13 O17 2.159257 1_455
Li13 O17 2.159323 1_555
Li13 O13 2.527185 1_555
Mn0 O14 1.964462 1_565
Mn0 O14 1.964552 1_665
Mn0 O12 1.964952 1_555
Mn0 O12 1.965009 1_655
Mn0 O18 2.321322 1_555
Mn0 O16 2.323567 1_565
Mn1 O9 1.824394 1_555
Mn1 O1 1.942776 1_555
Mn1 O1 1.942914 1_455
Mn1 O22 1.943146 1_555
Mn1 O22 1.943344 1_455
Mn1 O6 2.171767 1_455
Mn2 O10 1.824069 1_555
Mn2 O2 1.942466 1_555
Mn2 O2 1.942570 1_455
Mn2 O20 1.943560 1_555
Mn2 O20 1.943580 1_455
Mn2 O4 2.171735 1_555
Mn3 O19 1.961433 1_655
Mn3 O19 1.961615 1_555
Mn3 O5 1.977716 1_655
Mn3 O5 1.977790 1_555
Mn3 O3 2.205762 1_555
Mn3 O13 2.310701 1_655
Mn4 O17 1.961702 1_455
Mn4 O17 1.961840 1_555
Mn4 O7 1.977556 1_555
Mn4 O7 1.977605 1_455
Mn4 O0 2.205304 1_556
Mn4 O15 2.310476 1_555
Mn5 O13 1.963791 1_655
Mn5 O15 1.964470 1_655
Mn5 O13 1.965082 1_555
Mn5 O15 1.965707 1_555
Mn5 O17 2.322261 1_555
Mn5 O19 2.323042 1_555
Mn6 O8 1.824231 1_555
Mn6 O0 1.942479 1_445
Mn6 O0 1.942492 1_545
Mn6 O23 1.943450 1_554
Mn6 O23 1.943485 1_454
Mn6 O7 2.171754 1_444
Mn7 O11 1.824649 1_555
Mn7 O3 1.942845 1_565
Mn7 O3 1.942875 1_465
Mn7 O21 1.943284 1_455
Mn7 O21 1.943342 1_555
Mn7 O5 2.170873 1_565
Mn8 O18 1.961382 1_655
Mn8 O18 1.961498 1_555
Mn8 O4 1.977646 1_655
Mn8 O4 1.977786 1_555
Mn8 O2 2.207124 1_555
Mn8 O12 2.309226 1_655
Mn9 O16 1.961608 1_455
Mn9 O16 1.961792 1_555
Mn9 O6 1.977672 1_555
Mn9 O6 1.977789 1_455
Mn9 O1 2.205886 1_555
Mn9 O14 2.310122 1_555
