# generated using pymatgen
data_Mg14VSn
_symmetry_space_group_name_H-M   'P 1'
_cell_length_a   6.29065314
_cell_length_b   6.29065264
_cell_length_c   10.38094611
_cell_angle_alpha   90.00000000
_cell_angle_beta   90.00000000
_cell_angle_gamma   120.00000262
_symmetry_Int_Tables_number   1
_chemical_formula_structural   Mg14VSn
_chemical_formula_sum   'Mg14 V1 Sn1'
_cell_volume   355.76154372
_cell_formula_units_Z   1
loop_
 _symmetry_equiv_pos_site_id
 _symmetry_equiv_pos_as_xyz
  1  'x, y, z'
loop_
 _atom_site_type_symbol
 _atom_site_label
 _atom_site_symmetry_multiplicity
 _atom_site_fract_x
 _atom_site_fract_y
 _atom_site_fract_z
 _atom_site_occupancy
  Mg  Mg0  1  0.16713547  0.83356723  0.12500000  1
  Mg  Mg1  1  0.16542439  0.83271169  0.62500000  1
  Mg  Mg2  1  0.66643277  0.33286453  0.12500000  1
  Mg  Mg3  1  0.66728831  0.33457561  0.62500000  1
  Mg  Mg4  1  0.66643277  0.83356723  0.12500000  1
  Mg  Mg5  1  0.66728831  0.83271169  0.62500000  1
  Mg  Mg6  1  0.33140019  0.16859981  0.36993736  1
  Mg  Mg7  1  0.33140019  0.16859981  0.88006264  1
  Mg  Mg8  1  0.33140019  0.66280138  0.36993736  1
  Mg  Mg9  1  0.33140019  0.66280138  0.88006264  1
  Mg  Mg10  1  0.83719862  0.16859981  0.36993736  1
  Mg  Mg11  1  0.83719862  0.16859981  0.88006264  1
  Mg  Mg12  1  0.83333300  0.66666700  0.37416406  1
  Mg  Mg13  1  0.83333300  0.66666700  0.87583594  1
  V  V0  1  0.16666700  0.33333300  0.12500000  1
  Sn  Sn0  1  0.16666700  0.33333300  0.62500000  1
loop_
_geom_bond_atom_site_label_1
_geom_bond_atom_site_label_2
_geom_bond_distance
_geom_bond_site_symmetry_2
Mg0 Mg8 3.130017 1_555
Mg0 Mg9 3.130017 1_554
Mg0 Mg7 3.130024 1_564
Mg0 Mg6 3.130024 1_565
Mg0 Mg2 3.140906 1_565
Mg0 Mg4 3.140906 1_555
Mg0 V0 3.145327 1_555
Mg0 V0 3.145327 1_565
Mg0 Mg2 3.149747 1_455
Mg0 Mg4 3.149747 1_455
Mg0 Mg12 3.161846 1_455
Mg0 Mg13 3.161846 1_454
Mg1 Mg3 3.133601 1_455
Mg1 Mg5 3.133601 1_455
Mg1 Sn0 3.145334 1_555
Mg1 Sn0 3.145334 1_565
Mg1 Mg3 3.157052 1_565
Mg1 Mg5 3.157052 1_555
Mg1 Mg12 3.170731 1_455
Mg1 Mg13 3.170731 1_455
Mg1 Mg8 3.218594 1_555
Mg1 Mg9 3.218594 1_555
Mg1 Mg7 3.218600 1_565
Mg1 Mg6 3.218600 1_565
Mg2 Mg7 3.130024 1_554
Mg2 Mg6 3.130024 1_555
Mg2 Mg4 3.140906 1_545
Mg2 V0 3.145328 1_655
Mg2 V0 3.145328 1_555
Mg2 Mg4 3.149747 1_555
Mg3 Mg5 3.133601 1_555
Mg3 Sn0 3.145334 1_655
Mg3 Sn0 3.145334 1_555
Mg3 Mg5 3.157052 1_545
Mg3 Mg6 3.218601 1_555
Mg3 Mg7 3.218601 1_555
Mg4 Mg8 3.130024 1_555
Mg4 Mg9 3.130024 1_554
Mg4 V0 3.145327 1_555
Mg4 V0 3.145327 1_665
Mg5 Sn0 3.145334 1_665
Mg5 Sn0 3.145334 1_555
Mg5 Mg9 3.218600 1_555
Mg5 Mg8 3.218600 1_555
Mg6 Mg8 3.108850 1_555
Mg6 V0 3.112371 1_555
Mg6 Mg8 3.181802 1_545
Mg6 Sn0 3.198816 1_555
Mg7 Mg9 3.108850 1_555
Mg7 V0 3.112371 1_556
Mg7 Mg9 3.181802 1_545
Mg7 Sn0 3.198816 1_555
Mg8 V0 3.112377 1_555
Mg8 Sn0 3.198822 1_555
Mg9 V0 3.112377 1_556
Mg9 Sn0 3.198822 1_555
Mg10 Mg8 3.108850 1_655
Mg10 Mg6 3.108851 1_655
Mg10 V0 3.112377 1_655
Mg10 Mg2 3.130017 1_555
Mg10 Mg4 3.130023 1_545
Mg10 Mg12 3.145703 1_545
Mg10 Mg12 3.145703 1_555
Mg10 Mg8 3.181802 1_545
Mg10 Mg6 3.181802 1_555
Mg10 Sn0 3.198822 1_655
Mg10 Mg3 3.218594 1_555
Mg10 Mg5 3.218600 1_545
Mg11 Mg9 3.108850 1_655
Mg11 Mg7 3.108851 1_655
Mg11 V0 3.112377 1_656
Mg11 Mg2 3.130017 1_556
Mg11 Mg4 3.130023 1_546
Mg11 Mg13 3.145703 1_545
Mg11 Mg13 3.145703 1_555
Mg11 Mg9 3.181802 1_545
Mg11 Mg7 3.181802 1_555
Mg11 Sn0 3.198822 1_655
Mg11 Mg3 3.218594 1_555
Mg11 Mg5 3.218600 1_545
Mg12 Mg6 3.145703 1_665
Mg12 Mg6 3.145703 1_555
Mg12 Mg8 3.145703 1_655
Mg12 Mg8 3.145703 1_555
Mg12 Mg4 3.161839 1_555
Mg12 Mg2 3.161846 1_555
Mg12 Mg5 3.170725 1_555
Mg12 Mg3 3.170731 1_555
Mg13 Mg7 3.145703 1_665
Mg13 Mg7 3.145703 1_555
Mg13 Mg9 3.145703 1_555
Mg13 Mg9 3.145703 1_655
Mg13 Mg4 3.161839 1_556
Mg13 Mg2 3.161846 1_556
Mg13 Mg5 3.170725 1_555
Mg13 Mg3 3.170731 1_555
