# generated using pymatgen
data_Ce4Os
_symmetry_space_group_name_H-M   'P 1'
_cell_length_a   7.58719637
_cell_length_b   7.58719637
_cell_length_c   7.58719637
_cell_angle_alpha   60.00000000
_cell_angle_beta   60.00000000
_cell_angle_gamma   60.00000000
_symmetry_Int_Tables_number   1
_chemical_formula_structural   Ce4Os
_chemical_formula_sum   'Ce8 Os2'
_cell_volume   308.83675093
_cell_formula_units_Z   2
loop_
 _symmetry_equiv_pos_site_id
 _symmetry_equiv_pos_as_xyz
  1  'x, y, z'
loop_
 _atom_site_type_symbol
 _atom_site_label
 _atom_site_symmetry_multiplicity
 _atom_site_fract_x
 _atom_site_fract_y
 _atom_site_fract_z
 _atom_site_occupancy
  Ce  Ce0  1  0.60998700  0.60998700  0.60998700  1
  Ce  Ce1  1  0.17004000  0.60998700  0.60998700  1
  Ce  Ce2  1  0.60998700  0.17004000  0.60998700  1
  Ce  Ce3  1  0.57996000  0.14001300  0.14001300  1
  Ce  Ce4  1  0.14001300  0.14001300  0.14001300  1
  Ce  Ce5  1  0.60998700  0.60998700  0.17004000  1
  Ce  Ce6  1  0.14001300  0.57996000  0.14001300  1
  Ce  Ce7  1  0.14001300  0.14001300  0.57996000  1
  Os  Os0  1  0.00000000  0.00000000  0.00000000  1
  Os  Os1  1  0.75000000  0.75000000  0.75000000  1
loop_
_geom_bond_atom_site_label_1
_geom_bond_atom_site_label_2
_geom_bond_distance
_geom_bond_site_symmetry_2
Ce0 Os1 2.602108 1_555
Ce1 Os1 2.602114 1_455
Ce2 Os1 2.602114 1_545
Ce3 Os0 2.602114 1_655
Ce4 Os0 2.602108 1_555
Ce5 Os1 2.602114 1_554
Ce6 Os0 2.602114 1_565
Ce7 Os0 2.602114 1_556
