# generated using pymatgen
data_LiCrCoO4
_symmetry_space_group_name_H-M   'P 1'
_cell_length_a   5.94509070
_cell_length_b   6.01746207
_cell_length_c   5.76706310
_cell_angle_alpha   119.42072104
_cell_angle_beta   61.75577576
_cell_angle_gamma   122.03442051
_symmetry_Int_Tables_number   1
_chemical_formula_structural   LiCrCoO4
_chemical_formula_sum   'Li2 Cr2 Co2 O8'
_cell_volume   145.88660121
_cell_formula_units_Z   2
loop_
 _symmetry_equiv_pos_site_id
 _symmetry_equiv_pos_as_xyz
  1  'x, y, z'
loop_
 _atom_site_type_symbol
 _atom_site_label
 _atom_site_symmetry_multiplicity
 _atom_site_fract_x
 _atom_site_fract_y
 _atom_site_fract_z
 _atom_site_occupancy
  Li  Li0  1  0.88906600  0.13833500  0.86145300  1
  Li  Li1  1  0.11094400  0.86167900  0.13845500  1
  Cr  Cr0  1  0.50017200  0.49995500  0.99997800  1
  Cr  Cr1  1  0.49999600  0.00006400  0.50006800  1
  Co  Co0  1  0.00001000  0.49999500  0.49994100  1
  Co  Co1  1  0.50005600  0.49997800  0.49997000  1
  O  O0  1  0.25188400  0.71146600  0.25336400  1
  O  O1  1  0.70785900  0.75121000  0.28752200  1
  O  O2  1  0.29210300  0.24890600  0.71255800  1
  O  O3  1  0.74808700  0.28853900  0.74677100  1
  O  O4  1  0.28669700  0.28189900  0.26213900  1
  O  O5  1  0.23238500  0.73120900  0.71864800  1
  O  O6  1  0.76753800  0.26865300  0.28111100  1
  O  O7  1  0.71320300  0.71811200  0.73802300  1
loop_
_geom_bond_atom_site_label_1
_geom_bond_atom_site_label_2
_geom_bond_distance
_geom_bond_site_symmetry_2
Li0 O2 1.960607 1_655
Li0 O3 1.967843 1_555
Li0 O6 2.018867 1_556
Li0 O7 2.031097 1_545
Li1 O1 1.960929 1_455
Li1 O0 1.968696 1_555
Li1 O5 2.019580 1_554
Li1 O4 2.031044 1_565
Cr0 O7 1.995817 1_555
Cr0 O4 1.996133 1_556
Cr0 O3 2.012506 1_555
Cr0 O1 2.013620 1_556
Cr0 O2 2.014437 1_555
Cr0 O0 2.014562 1_556
Cr1 O1 1.999549 1_545
Cr1 O2 1.999638 1_555
Cr1 O3 2.014089 1_555
Cr1 O0 2.014262 1_545
Cr1 O5 2.027911 1_545
Cr1 O6 2.028181 1_555
Co0 O5 1.822422 1_555
Co0 O6 1.823310 1_455
Co0 O0 1.903857 1_555
Co0 O3 1.904851 1_455
Co0 O4 2.213704 1_555
Co0 O7 2.214299 1_455
Co1 O4 1.823390 1_555
Co1 O7 1.823472 1_555
Co1 O2 1.928156 1_555
Co1 O1 1.928372 1_555
Co1 O6 2.186777 1_555
Co1 O5 2.187332 1_555
