# generated using pymatgen
data_Cr3FeO6
_symmetry_space_group_name_H-M   'P 1'
_cell_length_a   10.60244723
_cell_length_b   9.31657594
_cell_length_c   10.48376130
_cell_angle_alpha   96.53896388
_cell_angle_beta   95.10694193
_cell_angle_gamma   85.46133571
_symmetry_Int_Tables_number   1
_chemical_formula_structural   Cr3FeO6
_chemical_formula_sum   'Cr24 Fe8 O48'
_cell_volume   1022.25546555
_cell_formula_units_Z   8
loop_
 _symmetry_equiv_pos_site_id
 _symmetry_equiv_pos_as_xyz
  1  'x, y, z'
loop_
 _atom_site_type_symbol
 _atom_site_label
 _atom_site_symmetry_multiplicity
 _atom_site_fract_x
 _atom_site_fract_y
 _atom_site_fract_z
 _atom_site_occupancy
  Cr  Cr0  1  0.32856200  0.86867300  0.42286500  1
  Cr  Cr1  1  0.03251100  0.98668500  0.24795800  1
  Cr  Cr2  1  0.12480300  0.67078100  0.36140400  1
  Cr  Cr3  1  0.70499600  0.21084700  0.90696500  1
  Cr  Cr4  1  0.57319600  0.15404400  0.22117100  1
  Cr  Cr5  1  0.34137900  0.28338000  0.10817600  1
  Cr  Cr6  1  0.98418000  0.33736700  0.73191000  1
  Cr  Cr7  1  0.45852100  0.85150500  0.16041600  1
  Cr  Cr8  1  0.84170800  0.25226200  0.28970800  1
  Cr  Cr9  1  0.06840500  0.00697500  0.57161400  1
  Cr  Cr10  1  0.03140500  0.17827200  0.00366900  1
  Cr  Cr11  1  0.93725600  0.72305100  0.85378200  1
  Cr  Cr12  1  0.47461300  0.50767000  0.65363200  1
  Cr  Cr13  1  0.62413400  0.12430100  0.62871800  1
  Cr  Cr14  1  0.90874400  0.57881600  0.59047000  1
  Cr  Cr15  1  0.70500000  0.49865700  0.81886100  1
  Cr  Cr16  1  0.17218400  0.63473000  0.10880200  1
  Cr  Cr17  1  0.73101000  0.89942900  0.09810900  1
  Cr  Cr18  1  0.31499300  0.21258300  0.59060300  1
  Cr  Cr19  1  0.66397900  0.78056400  0.59711100  1
  Cr  Cr20  1  0.77589200  0.96278600  0.36283900  1
  Cr  Cr21  1  0.18524600  0.89092400  0.95235600  1
  Cr  Cr22  1  0.42950900  0.50308700  0.30588300  1
  Cr  Cr23  1  0.19225700  0.21754400  0.30078600  1
  Fe  Fe0  1  0.24629700  0.38160300  0.85850100  1
  Fe  Fe1  1  0.51223300  0.46297100  0.02230200  1
  Fe  Fe2  1  0.47929500  0.05367900  0.94205400  1
  Fe  Fe3  1  0.16402600  0.64964600  0.65642200  1
  Fe  Fe4  1  0.69475800  0.40179100  0.49722700  1
  Fe  Fe5  1  0.43873400  0.72844600  0.88170700  1
  Fe  Fe6  1  0.35315900  0.88255100  0.67378700  1
  Fe  Fe7  1  0.70265000  0.61287500  0.24937500  1
  O  O0  1  0.09884300  0.28359800  0.88531400  1
  O  O1  1  0.51562900  0.64486900  0.20894300  1
  O  O2  1  0.29659300  0.48067800  0.03471800  1
  O  O3  1  0.70090100  0.40014900  0.97911400  1
  O  O4  1  0.69850500  0.29783600  0.73537200  1
  O  O5  1  0.98571200  0.14145200  0.67204300  1
  O  O6  1  0.35837700  0.36273200  0.69891200  1
  O  O7  1  0.29269500  0.78033100  0.07290500  1
  O  O8  1  0.85017300  0.75331300  0.67365900  1
  O  O9  1  0.17715900  0.22436600  0.11712100  1
  O  O10  1  0.88538000  0.52826000  0.80026600  1
  O  O11  1  0.52255300  0.53389900  0.84864100  1
  O  O12  1  0.18646700  0.83040000  0.51926200  1
  O  O13  1  0.60826500  0.95269000  0.25099500  1
  O  O14  1  0.32766600  0.32668300  0.29634000  1
  O  O15  1  0.24626900  0.07478000  0.65772800  1
  O  O16  1  0.77063800  0.44075600  0.32048800  1
  O  O17  1  0.08611000  0.81001400  0.80524700  1
  O  O18  1  0.70709100  0.96316200  0.53696500  1
  O  O19  1  0.81728000  0.81965900  0.94187000  1
  O  O20  1  0.12426900  0.46763800  0.72729200  1
  O  O21  1  0.45785100  0.13528400  0.53373200  1
  O  O22  1  0.64585000  0.58077300  0.65339600  1
  O  O23  1  0.01500300  0.20958300  0.27309200  1
  O  O24  1  0.41903100  0.07383300  0.12510000  1
  O  O25  1  0.59422000  0.08045500  0.80052700  1
  O  O26  1  0.35402200  0.66874500  0.70155500  1
  O  O27  1  0.30288500  0.67122200  0.34668200  1
  O  O28  1  0.19542100  0.26968100  0.48496300  1
  O  O29  1  0.70456700  0.18898000  0.37603400  1
  O  O30  1  0.04073800  0.61183000  0.48963300  1
  O  O31  1  0.87935800  0.38601800  0.56902700  1
  O  O32  1  0.51569100  0.35516100  0.18038100  1
  O  O33  1  0.79647600  0.77495800  0.23804200  1
  O  O34  1  0.07447600  0.77939000  0.22981400  1
  O  O35  1  0.96287000  0.97170000  0.41893100  1
  O  O36  1  0.39184400  0.24618800  0.92969900  1
  O  O37  1  0.84659200  0.03148800  0.20805400  1
  O  O38  1  0.12669700  0.52146600  0.22683700  1
  O  O39  1  0.47461600  0.83023000  0.53101800  1
  O  O40  1  0.34436000  0.92653700  0.86597400  1
  O  O41  1  0.64495000  0.10785600  0.04952100  1
  O  O42  1  0.22389400  0.01768100  0.31913300  1
  O  O43  1  0.50407400  0.45505700  0.47087200  1
  O  O44  1  0.06374900  0.63631600  0.97462400  1
  O  O45  1  0.86433500  0.15401900  0.93738100  1
  O  O46  1  0.06668300  0.98809100  0.05989500  1
  O  O47  1  0.55921200  0.83252900  0.01291200  1
loop_
_geom_bond_atom_site_label_1
_geom_bond_atom_site_label_2
_geom_bond_distance
_geom_bond_site_symmetry_2
Cr0 O39 1.871889 1_555
Cr0 O27 1.949856 1_555
Cr0 O12 1.963751 1_555
Cr0 O42 2.055864 1_565
Cr1 O34 1.938915 1_555
Cr1 O37 1.999400 1_465
Cr1 O35 2.021495 1_455
Cr1 O46 2.037763 1_555
Cr1 O23 2.058985 1_565
Cr1 O42 2.128766 1_565
Cr2 O34 1.820220 1_555
Cr2 O30 1.833630 1_555
Cr2 O38 1.865338 1_555
Cr2 O27 1.908411 1_555
Cr2 O12 2.185973 1_555
Cr3 O45 1.742698 1_555
Cr3 O3 1.836943 1_555
Cr3 O25 1.945279 1_555
Cr3 O41 2.037711 1_556
Cr3 O4 2.049127 1_555
Cr4 O13 1.938459 1_545
Cr4 O24 1.993326 1_555
Cr4 O41 2.004451 1_555
Cr4 O32 2.005170 1_555
Cr4 O29 2.056864 1_555
Cr5 O9 1.880145 1_555
Cr5 O36 1.977024 1_554
Cr5 O14 1.983893 1_555
Cr5 O32 2.065694 1_555
Cr5 O2 2.077616 1_555
Cr5 O24 2.078253 1_555
Cr6 O5 1.860633 1_555
Cr6 O20 1.998229 1_655
Cr6 O0 2.013552 1_655
Cr6 O31 2.028613 1_555
Cr6 O10 2.079022 1_555
Cr7 O47 1.940123 1_555
Cr7 O13 2.018825 1_555
Cr7 O7 2.032565 1_555
Cr7 O1 2.077341 1_555
Cr7 O24 2.147703 1_565
Cr8 O16 1.860286 1_555
Cr8 O23 1.868125 1_655
Cr8 O29 1.942250 1_555
Cr8 O37 2.134517 1_555
Cr9 O5 1.771147 1_455
Cr9 O35 1.881953 1_445
Cr9 O12 2.040867 1_545
Cr9 O15 2.127409 1_555
Cr10 O45 1.865507 1_454
Cr10 O0 1.886807 1_554
Cr10 O9 1.910149 1_555
Cr10 O46 1.928861 1_545
Cr11 O19 1.766254 1_555
Cr11 O10 1.944703 1_555
Cr11 O44 1.953400 1_655
Cr11 O17 1.960949 1_655
Cr11 O8 2.065805 1_555
Cr12 O26 1.943738 1_555
Cr12 O43 1.969099 1_555
Cr12 O22 1.989194 1_555
Cr12 O6 2.020152 1_555
Cr12 O11 2.053929 1_555
Cr13 O18 1.888233 1_545
Cr13 O21 1.947410 1_555
Cr13 O25 1.949765 1_555
Cr13 O4 2.029516 1_555
Cr14 O31 1.832522 1_555
Cr14 O8 1.844700 1_555
Cr14 O30 1.891091 1_655
Cr14 O10 2.339275 1_555
Cr15 O4 1.976877 1_555
Cr15 O11 1.982618 1_555
Cr15 O10 1.983357 1_555
Cr15 O22 2.005094 1_555
Cr15 O3 2.009287 1_555
Cr16 O44 1.736341 1_554
Cr16 O38 1.833462 1_555
Cr16 O2 2.007956 1_555
Cr16 O7 2.022488 1_555
Cr16 O34 2.030434 1_555
Cr17 O19 1.988415 1_554
Cr17 O37 2.002048 1_565
Cr17 O33 2.014325 1_555
Cr17 O47 2.065741 1_555
Cr17 O13 2.144039 1_555
Cr17 O41 2.173671 1_565
Cr18 O28 1.701246 1_555
Cr18 O21 1.748888 1_555
Cr18 O6 1.762054 1_555
Cr18 O15 1.766220 1_555
Cr19 O18 1.979714 1_555
Cr19 O22 2.043723 1_555
Cr19 O8 2.071386 1_555
Cr19 O39 2.098441 1_555
Cr20 O35 2.022400 1_555
Cr20 O18 2.024787 1_555
Cr20 O37 2.033193 1_565
Cr20 O13 2.042716 1_555
Cr20 O33 2.071360 1_555
Cr20 O29 2.175307 1_565
Cr21 O46 1.873637 1_556
Cr21 O17 1.903568 1_555
Cr21 O7 1.952214 1_556
Cr21 O40 2.050654 1_555
Cr22 O43 1.921969 1_555
Cr22 O27 2.013919 1_555
Cr22 O32 2.016718 1_555
Cr22 O14 2.025130 1_555
Cr22 O1 2.067186 1_555
Cr23 O14 1.830556 1_555
Cr23 O23 1.881935 1_555
Cr23 O42 1.894185 1_555
Cr23 O9 1.925774 1_555
Cr23 O28 1.934619 1_555
Fe0 O0 1.928591 1_555
Fe0 O20 1.994674 1_555
Fe0 O2 2.015800 1_556
Fe0 O36 2.057041 1_555
Fe0 O6 2.120414 1_555
Fe1 O11 2.020944 1_554
Fe1 O32 2.029581 1_555
Fe1 O3 2.112943 1_554
Fe1 O2 2.293421 1_555
Fe1 O1 2.437980 1_555
Fe1 O36 2.528170 1_554
Fe2 O36 1.965081 1_555
Fe2 O40 1.983906 1_545
Fe2 O25 2.050044 1_555
Fe2 O24 2.059938 1_556
Fe2 O41 2.065764 1_556
Fe2 O47 2.339896 1_546
Fe3 O20 2.015167 1_555
Fe3 O26 2.044824 1_555
Fe3 O30 2.101418 1_555
Fe3 O17 2.202789 1_555
Fe3 O12 2.374036 1_555
Fe4 O31 2.033782 1_555
Fe4 O43 2.045226 1_555
Fe4 O16 2.162644 1_555
Fe4 O29 2.230081 1_555
Fe4 O22 2.263292 1_555
Fe5 O11 1.962639 1_555
Fe5 O47 2.010836 1_556
Fe5 O40 2.045011 1_555
Fe5 O26 2.054491 1_555
Fe5 O7 2.619626 1_556
Fe6 O40 2.018808 1_555
Fe6 O26 2.044839 1_555
Fe6 O39 2.052752 1_555
Fe6 O15 2.057564 1_565
Fe6 O12 2.330428 1_555
Fe7 O33 1.893050 1_555
Fe7 O16 1.908010 1_555
Fe7 O1 1.996481 1_555
