# generated using pymatgen
data_Li7Mn5O12
_symmetry_space_group_name_H-M   'P 1'
_cell_length_a   6.46047320
_cell_length_b   9.30408087
_cell_length_c   7.79117140
_cell_angle_alpha   71.89936081
_cell_angle_beta   89.76486088
_cell_angle_gamma   82.70632593
_symmetry_Int_Tables_number   1
_chemical_formula_structural   Li7Mn5O12
_chemical_formula_sum   'Li14 Mn10 O24'
_cell_volume   441.22955248
_cell_formula_units_Z   2
loop_
 _symmetry_equiv_pos_site_id
 _symmetry_equiv_pos_as_xyz
  1  'x, y, z'
loop_
 _atom_site_type_symbol
 _atom_site_label
 _atom_site_symmetry_multiplicity
 _atom_site_fract_x
 _atom_site_fract_y
 _atom_site_fract_z
 _atom_site_occupancy
  Li  Li0  1  0.08381700  0.08339600  0.33373900  1
  Li  Li1  1  0.58288500  0.58316000  0.33290300  1
  Li  Li2  1  0.08324300  0.58313400  0.83377500  1
  Li  Li3  1  0.58346400  0.08359200  0.83293700  1
  Li  Li4  1  0.83333900  0.33328700  0.83333400  1
  Li  Li5  1  0.33335100  0.83330600  0.83329800  1
  Li  Li6  1  0.23939900  0.25249100  0.99364200  1
  Li  Li7  1  0.73909100  0.75226400  0.99336400  1
  Li  Li8  1  0.92763700  0.91447700  0.67324900  1
  Li  Li9  1  0.42729100  0.41421700  0.67291900  1
  Li  Li10  1  0.91081200  0.42909700  0.16455000  1
  Li  Li11  1  0.41009300  0.92875500  0.16402100  1
  Li  Li12  1  0.25655200  0.73791300  0.50263300  1
  Li  Li13  1  0.75585700  0.23758300  0.50214100  1
  Mn  Mn0  1  0.83324000  0.83330100  0.33340300  1
  Mn  Mn1  1  0.33329900  0.33328800  0.33324300  1
  Mn  Mn2  1  0.99915000  0.00001500  0.99905000  1
  Mn  Mn3  1  0.49952000  0.50055100  0.99808700  1
  Mn  Mn4  1  0.66754800  0.66664000  0.66755900  1
  Mn  Mn5  1  0.16710200  0.16612100  0.66863600  1
  Mn  Mn6  1  0.16742800  0.66922100  0.16316700  1
  Mn  Mn7  1  0.66847000  0.16841800  0.16331400  1
  Mn  Mn8  1  0.99822900  0.49822900  0.50338600  1
  Mn  Mn9  1  0.49928900  0.99742600  0.50352600  1
  O  O0  1  0.77049300  0.55234500  0.91064700  1
  O  O1  1  0.27032500  0.05219300  0.91118000  1
  O  O2  1  0.89627200  0.11435500  0.75607300  1
  O  O3  1  0.39638500  0.61450800  0.75555600  1
  O  O4  1  0.10811000  0.88319500  0.24403500  1
  O  O5  1  0.60730000  0.38332800  0.24359100  1
  O  O6  1  0.05927700  0.28334100  0.42305500  1
  O  O7  1  0.55840700  0.78346100  0.42269600  1
  O  O8  1  0.12236100  0.35770800  0.72927000  1
  O  O9  1  0.62330500  0.85743000  0.72940500  1
  O  O10  1  0.04343600  0.80923200  0.93726400  1
  O  O11  1  0.54434200  0.30896800  0.93744400  1
  O  O12  1  0.94898100  0.18267100  0.07605900  1
  O  O13  1  0.44805600  0.68314500  0.07544500  1
  O  O14  1  0.71769800  0.48399900  0.59064100  1
  O  O15  1  0.21866600  0.98355300  0.59122900  1
  O  O16  1  0.94353900  0.71565600  0.58242800  1
  O  O17  1  0.44325500  0.21525500  0.58255700  1
  O  O18  1  0.22337100  0.45144300  0.08396300  1
  O  O19  1  0.72309000  0.95099500  0.08429300  1
  O  O20  1  0.27279400  0.54745800  0.40912700  1
  O  O21  1  0.77366100  0.04762900  0.40971300  1
  O  O22  1  0.89295400  0.61904900  0.25696200  1
  O  O23  1  0.39380800  0.11919800  0.25749200  1
loop_
_geom_bond_atom_site_label_1
_geom_bond_atom_site_label_2
_geom_bond_distance
_geom_bond_site_symmetry_2
Li0 O15 2.073019 1_545
Li0 O12 2.073728 1_455
Li0 O23 2.123978 1_555
Li0 O21 2.124459 1_455
Li0 O6 2.167652 1_555
Li0 O4 2.171748 1_545
Li1 O13 2.072889 1_555
Li1 O14 2.073953 1_555
Li1 O22 2.124076 1_555
Li1 O20 2.124382 1_555
Li1 O5 2.166666 1_555
Li1 O7 2.172993 1_555
Li2 O18 2.090266 1_556
Li2 O16 2.097945 1_455
Li2 O0 2.133932 1_455
Li2 O3 2.139766 1_555
Li2 O8 2.459814 1_555
Li2 O10 2.460979 1_555
Li3 O17 2.091518 1_555
Li3 O19 2.097986 1_546
Li3 O2 2.134238 1_555
Li3 O1 2.139831 1_555
Li3 O11 2.459385 1_555
Li3 O9 2.461738 1_545
Li4 O11 2.043487 1_555
Li4 O8 2.043606 1_655
Li4 O12 2.048730 1_556
Li4 O14 2.048864 1_555
Li4 O2 2.286148 1_555
Li4 O0 2.287445 1_555
Li5 O15 2.042149 1_555
Li5 O13 2.042337 1_556
Li5 O10 2.048344 1_555
Li5 O9 2.048422 1_555
Li5 O3 2.287029 1_555
Li5 O1 2.288402 1_565
Li6 O8 2.084370 1_555
Li6 O12 2.096420 1_456
Li6 O11 2.112305 1_555
Li6 O1 2.138701 1_555
Li6 O18 2.166220 1_556
Li6 O23 2.208531 1_556
Li7 O9 2.079126 1_555
Li7 O13 2.097469 1_556
Li7 O10 2.109877 1_655
Li7 O0 2.136422 1_555
Li7 O19 2.167079 1_556
Li7 O22 2.205533 1_556
Li8 O10 2.079606 1_655
Li8 O15 2.097204 1_655
Li8 O9 2.110075 1_555
Li8 O2 2.136540 1_565
Li8 O16 2.167415 1_555
Li8 O21 2.205320 1_565
Li9 O11 2.085436 1_555
Li9 O14 2.096014 1_555
Li9 O8 2.112465 1_555
Li9 O3 2.139419 1_555
Li9 O17 2.166522 1_555
Li9 O20 2.208303 1_555
Li10 O0 2.095531 1_554
Li10 O22 2.096041 1_555
Li10 O5 2.108219 1_555
Li10 O18 2.128382 1_655
Li10 O6 2.191779 1_655
Li10 O12 2.574920 1_555
Li11 O1 2.088167 1_564
Li11 O4 2.100079 1_555
Li11 O23 2.105916 1_565
Li11 O19 2.129240 1_555
Li11 O7 2.191202 1_555
Li11 O13 2.568006 1_555
Li12 O3 2.088754 1_555
Li12 O7 2.099127 1_555
Li12 O20 2.106203 1_555
Li12 O16 2.129494 1_455
Li12 O4 2.191034 1_555
Li12 O15 2.568369 1_555
Li13 O2 2.095897 1_555
Li13 O21 2.096152 1_555
Li13 O6 2.107707 1_655
Li13 O17 2.128280 1_555
Li13 O5 2.192222 1_555
Li13 O14 2.574870 1_555
Mn0 O7 1.962159 1_555
Mn0 O4 1.962665 1_655
Mn0 O16 1.990963 1_555
Mn0 O19 1.991307 1_555
Mn0 O22 2.240043 1_555
Mn0 O21 2.240112 1_565
Mn1 O5 1.958371 1_555
Mn1 O6 1.958637 1_555
Mn1 O18 1.992825 1_555
Mn1 O17 1.992860 1_555
Mn1 O23 2.236008 1_555
Mn1 O20 2.237273 1_555
Mn2 O2 1.933034 1_555
Mn2 O1 1.942467 1_655
Mn2 O19 1.959206 1_546
Mn2 O12 1.960940 1_556
Mn2 O4 1.961569 1_646
Mn2 O10 1.966038 1_645
Mn3 O3 1.929963 1_555
Mn3 O0 1.939434 1_555
Mn3 O18 1.961247 1_556
Mn3 O13 1.962431 1_556
Mn3 O5 1.963378 1_556
Mn3 O11 1.968641 1_555
Mn4 O0 1.933770 1_555
Mn4 O3 1.942554 1_555
Mn4 O16 1.958550 1_555
Mn4 O14 1.960395 1_555
Mn4 O7 1.961151 1_555
Mn4 O9 1.966338 1_555
Mn5 O1 1.930150 1_555
Mn5 O2 1.938500 1_455
Mn5 O17 1.961749 1_555
Mn5 O15 1.962461 1_545
Mn5 O6 1.963938 1_555
Mn5 O8 1.968624 1_555
Mn6 O10 1.938648 1_554
Mn6 O13 1.940432 1_555
Mn6 O22 1.970750 1_455
Mn6 O20 1.971039 1_555
Mn6 O4 2.256314 1_555
Mn6 O18 2.281706 1_555
Mn7 O12 1.938768 1_555
Mn7 O11 1.940457 1_554
Mn7 O23 1.970690 1_555
Mn7 O21 1.971400 1_555
Mn7 O5 2.262732 1_555
Mn7 O19 2.277417 1_545
Mn8 O14 1.938873 1_555
Mn8 O8 1.940450 1_655
Mn8 O20 1.970315 1_655
Mn8 O22 1.971770 1_555
Mn8 O6 2.262722 1_655
Mn8 O16 2.277560 1_555
Mn9 O9 1.938521 1_555
Mn9 O15 1.940317 1_555
Mn9 O21 1.970248 1_565
Mn9 O23 1.971722 1_565
Mn9 O7 2.255998 1_555
Mn9 O17 2.281449 1_565
