# generated using pymatgen
data_Ca2SnIrO6
_symmetry_space_group_name_H-M   'P 1'
_cell_length_a   5.69932500
_cell_length_b   5.50500200
_cell_length_c   9.58780426
_cell_angle_alpha   55.43811073
_cell_angle_beta   90.00000000
_cell_angle_gamma   90.00000000
_symmetry_Int_Tables_number   1
_chemical_formula_structural   Ca2SnIrO6
_chemical_formula_sum   'Ca4 Sn2 Ir2 O12'
_cell_volume   247.72565927
_cell_formula_units_Z   2
loop_
 _symmetry_equiv_pos_site_id
 _symmetry_equiv_pos_as_xyz
  1  'x, y, z'
loop_
 _atom_site_type_symbol
 _atom_site_label
 _atom_site_symmetry_multiplicity
 _atom_site_fract_x
 _atom_site_fract_y
 _atom_site_fract_z
 _atom_site_occupancy
  Ca  Ca0  1  0.55781600  0.73490400  0.74988400  1
  Ca  Ca1  1  0.05781600  0.26509600  0.75011600  1
  Ca  Ca2  1  0.94218400  0.73490400  0.24988400  1
  Ca  Ca3  1  0.44218400  0.26509600  0.25011600  1
  Sn  Sn0  1  0.00000000  0.00000000  0.50000000  1
  Sn  Sn1  1  0.50000000  0.00000000  0.00000000  1
  Ir  Ir0  1  0.00000000  0.50000000  0.00000000  1
  Ir  Ir1  1  0.50000000  0.50000000  0.50000000  1
  O  O0  1  0.03774000  0.14904000  0.24551000  1
  O  O1  1  0.30398900  0.74650500  0.55440300  1
  O  O2  1  0.29895300  0.36493600  0.94482400  1
  O  O3  1  0.79895300  0.63506400  0.55517600  1
  O  O4  1  0.80398900  0.25349500  0.94559700  1
  O  O5  1  0.53774000  0.85096000  0.25449000  1
  O  O6  1  0.46226000  0.14904000  0.74551000  1
  O  O7  1  0.19601100  0.74650500  0.05440300  1
  O  O8  1  0.20104700  0.36493600  0.44482400  1
  O  O9  1  0.69601100  0.25349500  0.44559700  1
  O  O10  1  0.70104700  0.63506400  0.05517600  1
  O  O11  1  0.96226000  0.85096000  0.75449000  1
loop_
_geom_bond_atom_site_label_1
_geom_bond_atom_site_label_2
_geom_bond_distance
_geom_bond_site_symmetry_2
Ca0 O6 2.321089 1_565
Ca0 O1 2.339615 1_555
Ca0 O2 2.345002 1_555
Ca0 O11 2.399048 1_555
Ca0 O3 2.615339 1_555
Ca0 O4 2.621196 1_555
Ca0 O10 2.776859 1_556
Ca0 O9 2.798591 1_565
Ca1 O11 2.321089 1_445
Ca1 O4 2.339615 1_455
Ca1 O3 2.345002 1_455
Ca1 O6 2.399048 1_555
Ca1 O2 2.615339 1_555
Ca1 O1 2.621196 1_555
Ca1 O8 2.776859 1_555
Ca1 O7 2.798591 1_546
Ca2 O0 2.321089 1_665
Ca2 O7 2.339615 1_655
Ca2 O8 2.345002 1_655
Ca2 O5 2.399048 1_555
Ca2 O10 2.615339 1_555
Ca2 O9 2.621196 1_555
Ca2 O3 2.776859 1_555
Ca2 O4 2.798591 1_564
Ca3 O5 2.321089 1_545
Ca3 O9 2.339615 1_555
Ca3 O10 2.345002 1_555
Ca3 O0 2.399048 1_555
Ca3 O8 2.615339 1_555
Ca3 O7 2.621196 1_555
Ca3 O2 2.776859 1_554
Ca3 O1 2.798591 1_545
Ir0 O11 2.039597 1_454
Ir0 O0 2.039597 1_555
Ir0 O7 2.040740 1_555
Ir0 O4 2.040740 1_454
Ir0 O10 2.044996 1_455
Ir0 O2 2.044996 1_554
Ir1 O5 2.039597 1_555
Ir1 O6 2.039597 1_555
Ir1 O1 2.040740 1_555
Ir1 O9 2.040740 1_555
Ir1 O3 2.044996 1_555
Ir1 O8 2.044996 1_555
O0 Sn0 2.098011 1_555
O1 Sn0 2.096490 1_565
O2 Sn1 2.103079 1_556
O3 Sn0 2.103079 1_665
O4 Sn1 2.096490 1_556
O5 Sn1 2.098011 1_565
O6 Sn1 2.098011 1_556
O7 Sn1 2.096490 1_565
O8 Sn0 2.103079 1_555
O9 Sn0 2.096490 1_655
O10 Sn1 2.103079 1_565
O11 Sn0 2.098011 1_665
