# generated using pymatgen
data_VH17C4S4(O5F3)4
_symmetry_space_group_name_H-M   'P 1'
_cell_length_a   8.93439000
_cell_length_b   9.06092246
_cell_length_c   9.17518540
_cell_angle_alpha   70.48614643
_cell_angle_beta   76.48675404
_cell_angle_gamma   84.84587862
_symmetry_Int_Tables_number   1
_chemical_formula_structural   VH17C4S4(O5F3)4
_chemical_formula_sum   'V1 H17 C4 S4 O20 F12'
_cell_volume   680.66439452
_cell_formula_units_Z   1
loop_
 _symmetry_equiv_pos_site_id
 _symmetry_equiv_pos_as_xyz
  1  'x, y, z'
loop_
 _atom_site_type_symbol
 _atom_site_label
 _atom_site_symmetry_multiplicity
 _atom_site_fract_x
 _atom_site_fract_y
 _atom_site_fract_z
 _atom_site_occupancy
  V  V0  1  0.00000000  0.00000000  0.00000000  1
  H  H0  1  0.17206600  0.25022900  0.81619500  1
  H  H1  1  0.82793400  0.74977100  0.18380500  1
  H  H2  1  0.99343100  0.31654800  0.84682400  1
  H  H3  1  0.00656900  0.68345200  0.15317600  1
  H  H4  1  0.82181900  0.90210900  0.85018400  1
  H  H5  1  0.17818100  0.09789100  0.14981600  1
  H  H6  1  0.76435900  0.08029300  0.84454600  1
  H  H7  1  0.23564100  0.91970700  0.15545400  1
  H  H8  1  0.14258500  0.82034500  0.82675200  1
  H  H9  1  0.85741500  0.17965500  0.17324800  1
  H  H10  1  0.27729600  0.93409100  0.83101300  1
  H  H11  1  0.72270400  0.06590900  0.16898700  1
  H  H12  1  0.50000000  0.50000000  0.00000000  1
  H  H13  1  0.41528900  0.31092300  0.09693700  1
  H  H14  1  0.58471100  0.68907700  0.90306300  1
  H  H15  1  0.56072400  0.31854500  0.95235900  1
  H  H16  1  0.43927600  0.68145500  0.04764100  1
  C  C0  1  0.42250100  0.78185800  0.47193100  1
  C  C1  1  0.57749900  0.21814200  0.52806900  1
  C  C2  1  0.93200100  0.70856800  0.55282800  1
  C  C3  1  0.06799900  0.29143200  0.44717200  1
  S  S0  1  0.50573300  0.82642500  0.25470100  1
  S  S1  1  0.49426700  0.17357500  0.74529900  1
  S  S2  1  0.90916700  0.63873100  0.77299300  1
  S  S3  1  0.09083300  0.36126900  0.22700700  1
  O  O0  1  0.06150700  0.22148500  0.86078600  1
  O  O1  1  0.93849300  0.77851500  0.13921400  1
  O  O2  1  0.84519000  0.99812400  0.87102700  1
  O  O3  1  0.15481000  0.00187600  0.12897300  1
  O  O4  1  0.16643000  0.90621700  0.86213200  1
  O  O5  1  0.83357000  0.09378300  0.13786800  1
  O  O6  1  0.63779200  0.72076700  0.24471900  1
  O  O7  1  0.36220800  0.27923300  0.75528100  1
  O  O8  1  0.54042400  0.99342500  0.19911600  1
  O  O9  1  0.45957600  0.00657500  0.80088400  1
  O  O10  1  0.37967300  0.78867500  0.19372000  1
  O  O11  1  0.62032700  0.21132500  0.80628000  1
  O  O12  1  0.05561100  0.67164700  0.79847100  1
  O  O13  1  0.94438900  0.32835300  0.20152900  1
  O  O14  1  0.87079200  0.47363600  0.82213200  1
  O  O15  1  0.12920800  0.52636400  0.17786800  1
  O  O16  1  0.77924900  0.73668500  0.82489000  1
  O  O17  1  0.22075100  0.26331500  0.17511000  1
  O  O18  1  0.51812000  0.35887700  0.04218200  1
  O  O19  1  0.48188000  0.64112300  0.95781800  1
  F  F0  1  0.29306500  0.86960300  0.49289500  1
  F  F1  1  0.70693500  0.13039700  0.50710500  1
  F  F2  1  0.38784300  0.62933300  0.54215800  1
  F  F3  1  0.61215700  0.37066700  0.45784200  1
  F  F4  1  0.52498500  0.81908200  0.54131400  1
  F  F5  1  0.47501500  0.18091800  0.45868600  1
  F  F6  1  0.06244700  0.64778600  0.48488900  1
  F  F7  1  0.93755300  0.35221400  0.51511100  1
  F  F8  1  0.94005600  0.86650100  0.49625200  1
  F  F9  1  0.05994400  0.13349900  0.50374800  1
  F  F10  1  0.81092700  0.66372400  0.51357700  1
  F  F11  1  0.18907300  0.33627600  0.48642300  1
loop_
_geom_bond_atom_site_label_1
_geom_bond_atom_site_label_2
_geom_bond_distance
_geom_bond_site_symmetry_2
H0 O0 0.998546 1_555
H0 O7 1.675032 1_555
H1 O1 0.998546 1_555
H1 O6 1.675032 1_555
H2 O0 0.998421 1_655
H2 O14 1.702417 1_555
H3 O1 0.998421 1_455
H3 O15 1.702417 1_555
H4 O2 0.999747 1_555
H4 O16 1.679664 1_555
H5 O3 0.999747 1_555
H5 O17 1.679664 1_555
H6 O2 0.999719 1_545
H6 O11 1.687303 1_555
H7 O3 0.999719 1_565
H7 O10 1.687303 1_555
H8 O4 0.993485 1_555
H9 O5 0.993485 1_555
H10 O4 0.995511 1_555
H11 O5 0.995511 1_555
H12 O18 1.213486 1_555
H12 O19 1.213486 1_554
H13 O18 0.997719 1_555
H13 O17 1.751243 1_555
H14 O19 0.997719 1_555
H14 O16 1.751243 1_555
H15 O18 0.993609 1_556
H16 O19 0.993609 1_554
C0 F2 1.345275 1_555
C0 F4 1.352311 1_555
C0 F0 1.356266 1_555
C1 F3 1.345275 1_555
C1 F5 1.352311 1_555
C1 F1 1.356266 1_555
C2 F10 1.350450 1_555
C2 F6 1.350808 1_655
C2 F8 1.351752 1_555
C3 F11 1.350450 1_555
C3 F7 1.350808 1_455
C3 F9 1.351752 1_555
O0 V0 2.029429 1_556
O1 V0 2.029429 1_665
O2 V0 2.023917 1_666
O3 V0 2.023917 1_555
O4 V0 2.036003 1_566
O5 V0 2.036003 1_655
O6 S0 1.456756 1_555
O7 S1 1.456756 1_555
O8 S0 1.463110 1_555
O9 S1 1.463110 1_555
O10 S0 1.479901 1_555
O11 S1 1.479901 1_555
O12 S2 1.454341 1_455
O13 S3 1.454341 1_655
O14 S2 1.458737 1_555
O15 S3 1.458737 1_555
O16 S2 1.483489 1_555
O17 S3 1.483489 1_555
