# generated using pymatgen
data_Tb2CdCu2
_symmetry_space_group_name_H-M   'P 1'
_cell_length_a   7.46855105
_cell_length_b   7.46855105
_cell_length_c   3.74886710
_cell_angle_alpha   90.00000000
_cell_angle_beta   90.00000000
_cell_angle_gamma   90.00000000
_symmetry_Int_Tables_number   1
_chemical_formula_structural   Tb2CdCu2
_chemical_formula_sum   'Tb4 Cd2 Cu4'
_cell_volume   209.10901313
_cell_formula_units_Z   2
loop_
 _symmetry_equiv_pos_site_id
 _symmetry_equiv_pos_as_xyz
  1  'x, y, z'
loop_
 _atom_site_type_symbol
 _atom_site_label
 _atom_site_symmetry_multiplicity
 _atom_site_fract_x
 _atom_site_fract_y
 _atom_site_fract_z
 _atom_site_occupancy
  Tb  Tb0  1  0.67515163  0.17515163  0.50000000  1
  Tb  Tb1  1  0.32484837  0.82484837  0.50000000  1
  Tb  Tb2  1  0.17515163  0.32484837  0.50000000  1
  Tb  Tb3  1  0.82484837  0.67515163  0.50000000  1
  Cd  Cd0  1  -0.00000000  0.00000000  0.00000000  1
  Cd  Cd1  1  0.50000000  0.50000000  0.00000000  1
  Cu  Cu0  1  0.11989563  0.61989563  -0.00000000  1
  Cu  Cu1  1  0.88010437  0.38010437  0.00000000  1
  Cu  Cu2  1  0.61989563  0.88010437  0.00000000  1
  Cu  Cu3  1  0.38010437  0.11989563  -0.00000000  1
loop_
_geom_bond_atom_site_label_1
_geom_bond_atom_site_label_2
_geom_bond_distance
_geom_bond_site_symmetry_2
Cd0 Cu1 2.976705 1_455
Cd0 Cu0 2.976705 1_545
Cd0 Cu3 2.976705 1_555
Cd0 Cu2 2.976705 1_445
Cd0 Tb1 3.333300 1_545
Cd0 Tb0 3.333300 1_454
Cd0 Tb0 3.333300 1_455
Cd0 Tb2 3.333300 1_555
Cd0 Tb3 3.333300 1_444
Cd0 Tb3 3.333300 1_445
Cd0 Tb2 3.333300 1_554
Cd0 Tb1 3.333300 1_544
Cd1 Cu1 2.976705 1_555
Cd1 Cu2 2.976705 1_555
Cd1 Cu3 2.976705 1_555
Cd1 Cu0 2.976705 1_555
Cd1 Tb0 3.333300 1_555
Cd1 Tb3 3.333300 1_555
Cd1 Tb0 3.333300 1_554
Cd1 Tb1 3.333300 1_554
Cd1 Tb1 3.333300 1_555
Cd1 Tb2 3.333300 1_555
Cd1 Tb2 3.333300 1_554
Cd1 Tb3 3.333300 1_554
Cu0 Cu1 2.532706 1_455
Cu0 Tb1 2.863492 1_554
Cu0 Tb1 2.863492 1_555
Cu0 Tb2 2.922251 1_554
Cu0 Tb2 2.922251 1_555
Cu0 Tb3 2.922251 1_454
Cu0 Tb3 2.922251 1_455
Cu1 Tb0 2.863492 1_555
Cu1 Tb0 2.863492 1_554
Cu1 Tb3 2.922251 1_554
Cu1 Tb3 2.922251 1_555
Cu1 Tb2 2.922251 1_655
Cu1 Tb2 2.922251 1_654
Cu2 Cu3 2.532706 1_565
Cu2 Tb3 2.863492 1_554
Cu2 Tb3 2.863492 1_555
Cu2 Tb0 2.922251 1_564
Cu2 Tb0 2.922251 1_565
Cu2 Tb1 2.922251 1_554
Cu2 Tb1 2.922251 1_555
Cu3 Tb2 2.863492 1_555
Cu3 Tb2 2.863492 1_554
Cu3 Tb0 2.922251 1_555
Cu3 Tb0 2.922251 1_554
Cu3 Tb1 2.922251 1_544
Cu3 Tb1 2.922251 1_545
