# generated using pymatgen
data_Nd4Pt
_symmetry_space_group_name_H-M   'P 1'
_cell_length_a   7.99669604
_cell_length_b   7.99669604
_cell_length_c   7.99669604
_cell_angle_alpha   60.00000000
_cell_angle_beta   60.00000000
_cell_angle_gamma   60.00000000
_symmetry_Int_Tables_number   1
_chemical_formula_structural   Nd4Pt
_chemical_formula_sum   'Nd8 Pt2'
_cell_volume   361.59029729
_cell_formula_units_Z   2
loop_
 _symmetry_equiv_pos_site_id
 _symmetry_equiv_pos_as_xyz
  1  'x, y, z'
loop_
 _atom_site_type_symbol
 _atom_site_label
 _atom_site_symmetry_multiplicity
 _atom_site_fract_x
 _atom_site_fract_y
 _atom_site_fract_z
 _atom_site_occupancy
  Nd  Nd0  1  0.61080000  0.61080000  0.61080000  1
  Nd  Nd1  1  0.16760100  0.61080000  0.61080000  1
  Nd  Nd2  1  0.61080000  0.16760100  0.61080000  1
  Nd  Nd3  1  0.58239900  0.13920000  0.13920000  1
  Nd  Nd4  1  0.13920000  0.13920000  0.13920000  1
  Nd  Nd5  1  0.61080000  0.61080000  0.16760100  1
  Nd  Nd6  1  0.13920000  0.58239900  0.13920000  1
  Nd  Nd7  1  0.13920000  0.13920000  0.58239900  1
  Pt  Pt0  1  0.00000000  0.00000000  0.00000000  1
  Pt  Pt1  1  0.75000000  0.75000000  0.75000000  1
loop_
_geom_bond_atom_site_label_1
_geom_bond_atom_site_label_2
_geom_bond_distance
_geom_bond_site_symmetry_2
Nd0 Pt1 2.726625 1_555
Nd1 Pt1 2.726632 1_455
Nd2 Pt1 2.726632 1_545
Nd3 Pt0 2.726632 1_655
Nd4 Pt0 2.726625 1_555
Nd5 Pt1 2.726632 1_554
Nd6 Pt0 2.726632 1_565
Nd7 Pt0 2.726632 1_556
