# generated using pymatgen
data_Rb2GdCl5
_symmetry_space_group_name_H-M   'P 1'
_cell_length_a   8.20121648
_cell_length_b   8.77860513
_cell_length_c   13.17892388
_cell_angle_alpha   90.00000000
_cell_angle_beta   90.00000000
_cell_angle_gamma   90.00000000
_symmetry_Int_Tables_number   1
_chemical_formula_structural   Rb2GdCl5
_chemical_formula_sum   'Rb8 Gd4 Cl20'
_cell_volume   948.81980170
_cell_formula_units_Z   4
loop_
 _symmetry_equiv_pos_site_id
 _symmetry_equiv_pos_as_xyz
  1  'x, y, z'
loop_
 _atom_site_type_symbol
 _atom_site_label
 _atom_site_symmetry_multiplicity
 _atom_site_fract_x
 _atom_site_fract_y
 _atom_site_fract_z
 _atom_site_occupancy
  Rb  Rb0  1  0.94584394  0.00462397  0.82840838  1
  Rb  Rb1  1  0.05415606  0.99537603  0.17159162  1
  Rb  Rb2  1  0.44584394  0.99537603  0.67159162  1
  Rb  Rb3  1  0.05415606  0.50462397  0.17159162  1
  Rb  Rb4  1  0.55415606  0.00462397  0.32840838  1
  Rb  Rb5  1  0.94584394  0.49537603  0.82840838  1
  Rb  Rb6  1  0.55415606  0.49537603  0.32840838  1
  Rb  Rb7  1  0.44584394  0.50462397  0.67159162  1
  Gd  Gd0  1  0.92947559  0.75000000  0.50380953  1
  Gd  Gd1  1  0.07052441  0.25000000  0.49619047  1
  Gd  Gd2  1  0.42947559  0.25000000  0.99619047  1
  Gd  Gd3  1  0.57052441  0.75000000  0.00380953  1
  Cl  Cl0  1  0.11640053  0.75000000  0.67223834  1
  Cl  Cl1  1  0.88359947  0.25000000  0.32776166  1
  Cl  Cl2  1  0.61640053  0.25000000  0.82776166  1
  Cl  Cl3  1  0.38359947  0.75000000  0.17223834  1
  Cl  Cl4  1  0.84058778  0.04282179  0.57137915  1
  Cl  Cl5  1  0.15941222  0.95717821  0.42862085  1
  Cl  Cl6  1  0.34058778  0.95717821  0.92862085  1
  Cl  Cl7  1  0.15941222  0.54282179  0.42862085  1
  Cl  Cl8  1  0.65941222  0.04282179  0.07137915  1
  Cl  Cl9  1  0.84058778  0.45717821  0.57137915  1
  Cl  Cl10  1  0.65941222  0.45717821  0.07137915  1
  Cl  Cl11  1  0.34058778  0.54282179  0.92862085  1
  Cl  Cl12  1  0.59692619  0.75000000  0.51238260  1
  Cl  Cl13  1  0.40307381  0.25000000  0.48761740  1
  Cl  Cl14  1  0.09692619  0.25000000  0.98761740  1
  Cl  Cl15  1  0.90307381  0.75000000  0.01238260  1
  Cl  Cl16  1  0.65441843  0.75000000  0.80501034  1
  Cl  Cl17  1  0.34558157  0.25000000  0.19498966  1
  Cl  Cl18  1  0.15441843  0.25000000  0.69498966  1
  Cl  Cl19  1  0.84558157  0.75000000  0.30501034  1
loop_
_geom_bond_atom_site_label_1
_geom_bond_atom_site_label_2
_geom_bond_distance
_geom_bond_site_symmetry_2
Cl0 Gd0 2.697636 1_455
Cl0 Rb0 3.344977 1_465
Cl0 Rb5 3.344977 1_455
Cl0 Rb7 3.455426 1_555
Cl0 Rb2 3.455426 1_555
Cl1 Gd1 2.697636 1_655
Cl1 Rb3 3.344977 1_655
Cl1 Rb1 3.344977 1_645
Cl1 Rb6 3.455426 1_555
Cl1 Rb4 3.455426 1_555
Cl2 Gd2 2.697636 1_555
Cl2 Rb7 3.344977 1_555
Cl2 Rb2 3.344977 1_545
Cl2 Rb0 3.455426 1_555
Cl2 Rb5 3.455426 1_555
Cl3 Gd3 2.697636 1_555
Cl3 Rb6 3.344977 1_555
Cl3 Rb4 3.344977 1_565
Cl3 Rb1 3.455426 1_555
Cl3 Rb3 3.455426 1_555
Cl4 Gd1 2.801033 1_655
Cl4 Gd0 2.816420 1_545
Cl4 Rb0 3.511677 1_555
Cl4 Rb2 3.521127 1_545
Cl5 Gd0 2.801033 1_455
Cl5 Gd1 2.816420 1_565
Cl5 Rb1 3.511677 1_555
Cl5 Rb4 3.521127 1_565
Cl6 Gd3 2.801033 1_556
Cl6 Gd2 2.816420 1_565
Cl6 Rb2 3.511677 1_555
Cl6 Rb0 3.521127 1_465
Cl7 Gd0 2.801033 1_455
Cl7 Gd1 2.816420 1_555
Cl7 Rb3 3.511677 1_555
Cl7 Rb6 3.521127 1_555
Cl8 Gd2 2.801033 1_554
Cl8 Gd3 2.816420 1_545
Cl8 Rb4 3.511677 1_555
Cl8 Rb1 3.521127 1_645
Cl9 Gd1 2.801033 1_655
Cl9 Gd0 2.816420 1_555
Cl9 Rb5 3.511677 1_555
Cl9 Rb7 3.521127 1_555
Cl10 Gd2 2.801033 1_554
Cl10 Gd3 2.816420 1_555
Cl10 Rb6 3.511677 1_555
Cl10 Rb3 3.521127 1_655
Cl11 Gd3 2.801033 1_556
Cl11 Gd2 2.816420 1_555
Cl11 Rb7 3.511677 1_555
Cl11 Rb5 3.521127 1_455
Cl12 Gd0 2.729649 1_555
Cl12 Rb2 3.252337 1_555
Cl12 Rb7 3.252337 1_555
Cl12 Rb4 3.316316 1_565
Cl12 Rb6 3.316316 1_555
Cl13 Gd1 2.729649 1_555
Cl13 Rb6 3.252337 1_555
Cl13 Rb4 3.252337 1_555
Cl13 Rb7 3.316316 1_555
Cl13 Rb2 3.316316 1_545
Cl14 Gd2 2.729649 1_555
Cl14 Rb5 3.252337 1_455
Cl14 Rb0 3.252337 1_455
Cl14 Rb1 3.316316 1_546
Cl14 Rb3 3.316316 1_556
Cl15 Gd3 2.729649 1_555
Cl15 Rb1 3.252337 1_655
Cl15 Rb3 3.252337 1_655
Cl15 Rb0 3.316316 1_564
Cl15 Rb5 3.316316 1_554
Cl16 Gd3 2.708796 1_556
Cl16 Rb2 3.264609 1_555
Cl16 Rb7 3.264609 1_555
Cl16 Rb0 3.286899 1_565
Cl16 Rb5 3.286899 1_555
Cl17 Gd2 2.708796 1_554
Cl17 Rb6 3.264609 1_555
Cl17 Rb4 3.264609 1_555
Cl17 Rb3 3.286899 1_555
Cl17 Rb1 3.286899 1_545
Cl18 Gd1 2.708796 1_555
Cl18 Rb5 3.264609 1_455
Cl18 Rb0 3.264609 1_455
Cl18 Rb7 3.286899 1_555
Cl18 Rb2 3.286899 1_545
Cl19 Gd0 2.708796 1_555
Cl19 Rb3 3.264609 1_655
Cl19 Rb1 3.264609 1_655
Cl19 Rb4 3.286899 1_565
Cl19 Rb6 3.286899 1_555
