# generated using pymatgen
data_K2SbH5O6
_symmetry_space_group_name_H-M   'P 1'
_cell_length_a   5.37858462
_cell_length_b   6.68462169
_cell_length_c   9.24454297
_cell_angle_alpha   83.86932905
_cell_angle_beta   75.99441379
_cell_angle_gamma   84.65865588
_symmetry_Int_Tables_number   1
_chemical_formula_structural   K2SbH5O6
_chemical_formula_sum   'K4 Sb2 H10 O12'
_cell_volume   319.87140143
_cell_formula_units_Z   2
loop_
 _symmetry_equiv_pos_site_id
 _symmetry_equiv_pos_as_xyz
  1  'x, y, z'
loop_
 _atom_site_type_symbol
 _atom_site_label
 _atom_site_symmetry_multiplicity
 _atom_site_fract_x
 _atom_site_fract_y
 _atom_site_fract_z
 _atom_site_occupancy
  K  K0  1  0.77213200  0.19564500  0.93244100  1
  K  K1  1  0.22786800  0.80435500  0.06755900  1
  K  K2  1  0.67263200  0.72682200  0.42451300  1
  K  K3  1  0.32736800  0.27317800  0.57548700  1
  Sb  Sb0  1  0.95859600  0.73505600  0.72658200  1
  Sb  Sb1  1  0.04140400  0.26494400  0.27341800  1
  H  H0  1  0.35368000  0.92428800  0.73565000  1
  H  H1  1  0.64632000  0.07571200  0.26435000  1
  H  H2  1  0.79149400  0.44086000  0.62330800  1
  H  H3  1  0.20850600  0.55914000  0.37669200  1
  H  H4  1  0.36535900  0.53783600  0.78572900  1
  H  H5  1  0.63464100  0.46216400  0.21427100  1
  H  H6  1  0.78999500  0.65692900  0.00620800  1
  H  H7  1  0.21000500  0.34307100  0.99379200  1
  H  H8  1  0.78489000  0.06400700  0.59266900  1
  H  H9  1  0.21511000  0.93599300  0.40733100  1
  O  O0  1  0.15599700  0.71226900  0.52256600  1
  O  O1  1  0.84400300  0.28773100  0.47743400  1
  O  O2  1  0.73484000  0.76198400  0.93442500  1
  O  O3  1  0.26516000  0.23801600  0.06557500  1
  O  O4  1  0.16530800  0.95148100  0.77235600  1
  O  O5  1  0.83469200  0.04851900  0.22764400  1
  O  O6  1  0.72080600  0.51722700  0.71440000  1
  O  O7  1  0.27919400  0.48277300  0.28560000  1
  O  O8  1  0.70225200  0.95570300  0.66944000  1
  O  O9  1  0.29774800  0.04429700  0.33056000  1
  O  O10  1  0.17964800  0.51559500  0.82378300  1
  O  O11  1  0.82035200  0.48440500  0.17621700  1
loop_
_geom_bond_atom_site_label_1
_geom_bond_atom_site_label_2
_geom_bond_distance
_geom_bond_site_symmetry_2
K0 O3 2.708621 1_556
K0 O4 2.772111 1_645
K0 O6 2.827292 1_555
K0 O5 2.887487 1_556
K0 O2 2.922169 1_545
K1 O2 2.708621 1_554
K1 O5 2.772111 1_465
K1 O7 2.827292 1_555
K1 O4 2.887487 1_554
K1 O3 2.922169 1_565
K2 O0 2.713846 1_555
K2 O5 2.727920 1_565
K2 O11 2.863212 1_555
K2 O8 2.907391 1_555
K2 O0 2.943628 1_655
K2 O6 2.945908 1_555
K2 O1 3.018601 1_555
K3 O1 2.713846 1_555
K3 O4 2.727920 1_545
K3 O10 2.863212 1_555
K3 O9 2.907391 1_555
K3 O1 2.943628 1_455
K3 O7 2.945908 1_555
K3 O0 3.018601 1_555
H0 O4 0.993572 1_555
H0 K3 2.637018 1_565
H1 O5 0.993572 1_555
H1 K2 2.637018 1_545
H2 O6 1.007471 1_555
H2 K2 2.651593 1_555
H2 K3 2.940539 1_655
H2 K3 2.973973 1_555
H3 O7 1.007471 1_555
H3 K3 2.651593 1_555
H3 K2 2.940539 1_455
H3 K2 2.973973 1_555
H4 O10 0.994977 1_555
H4 K3 2.818355 1_555
H5 O11 0.994977 1_555
H5 K2 2.818355 1_555
H6 O2 0.989189 1_554
H6 K1 2.835060 1_655
H7 O3 0.989189 1_556
H7 K0 2.835060 1_455
H8 O8 1.011366 1_545
H8 K3 2.745373 1_555
H8 K2 3.052458 1_545
H9 O9 1.011366 1_565
H9 K2 2.745373 1_555
H9 K3 3.052458 1_565
O0 Sb0 1.941547 1_455
O1 Sb1 1.941547 1_655
O2 Sb0 2.021604 1_555
O3 Sb1 2.021604 1_555
O4 Sb0 2.041115 1_455
O5 Sb1 2.041115 1_655
O6 Sb0 2.054303 1_555
O7 Sb1 2.054303 1_555
O8 Sb0 2.040346 1_555
O9 Sb1 2.040346 1_555
O10 Sb0 2.069781 1_455
O11 Sb1 2.069781 1_655
