# generated using pymatgen
data_VNi2
_symmetry_space_group_name_H-M   'P 1'
_cell_length_a   5.01227526
_cell_length_b   7.05270730
_cell_length_c   8.69760958
_cell_angle_alpha   113.90890135
_cell_angle_beta   106.74779785
_cell_angle_gamma   89.99666056
_symmetry_Int_Tables_number   1
_chemical_formula_structural   VNi2
_chemical_formula_sum   'V8 Ni16'
_cell_volume   266.75234959
_cell_formula_units_Z   8
loop_
 _symmetry_equiv_pos_site_id
 _symmetry_equiv_pos_as_xyz
  1  'x, y, z'
loop_
 _atom_site_type_symbol
 _atom_site_label
 _atom_site_symmetry_multiplicity
 _atom_site_fract_x
 _atom_site_fract_y
 _atom_site_fract_z
 _atom_site_occupancy
  V  V0_0  1  0.00000000  0.00000000  0.00000000  1
  V  V0_1  1  0.00000000  0.00000000  0.50000000  1
  V  V0_2  1  0.00000000  0.50000000  0.00000000  1
  V  V0_3  1  0.00000000  0.50000000  0.50000000  1
  V  V0_4  1  0.50000000  0.00000000  0.00000000  1
  V  V0_5  1  0.50000000  0.00000000  0.50000000  1
  V  V0_6  1  0.50000000  0.50000000  0.00000000  1
  V  V0_7  1  0.50000000  0.50000000  0.50000000  1
  Ni  Ni0_0  1  0.33404434  0.33402172  0.16808782  1
  Ni  Ni0_1  1  0.33404434  0.33402172  0.66808782  1
  Ni  Ni0_2  1  0.33404434  0.83402173  0.16808782  1
  Ni  Ni0_3  1  0.33404434  0.83402172  0.66808782  1
  Ni  Ni0_4  1  0.83404434  0.33402172  0.16808782  1
  Ni  Ni0_5  1  0.83404434  0.33402172  0.66808782  1
  Ni  Ni0_6  1  0.83404434  0.83402172  0.16808781  1
  Ni  Ni0_7  1  0.83404434  0.83402172  0.66808782  1
  Ni  Ni1_0  1  0.16595566  0.16597827  0.33191219  1
  Ni  Ni1_1  1  0.16595566  0.16597828  0.83191219  1
  Ni  Ni1_2  1  0.16595566  0.66597827  0.33191219  1
  Ni  Ni1_3  1  0.16595566  0.66597827  0.83191219  1
  Ni  Ni1_4  1  0.66595566  0.16597827  0.33191219  1
  Ni  Ni1_5  1  0.66595566  0.16597828  0.83191219  1
  Ni  Ni1_6  1  0.66595566  0.66597827  0.33191219  1
  Ni  Ni1_7  1  0.66595566  0.66597827  0.83191219  1
loop_
_geom_bond_atom_site_label_1
_geom_bond_atom_site_label_2
_geom_bond_distance
_geom_bond_site_symmetry_2
V0_0 V0_4 2.506138 1_555
V0_0 V0_4 2.506138 1_455
V0_1 V0_5 2.506138 1_555
V0_1 V0_5 2.506138 1_455
V0_2 V0_6 2.506138 1_555
V0_2 V0_6 2.506138 1_455
V0_3 V0_7 2.506138 1_555
V0_3 V0_7 2.506138 1_455
Ni0_0 Ni1_4 2.490983 1_555
Ni0_0 Ni1_0 2.491083 1_555
Ni0_0 Ni1_2 2.491771 1_555
Ni0_0 Ni1_6 2.491877 1_555
Ni0_0 V0_7 2.504613 1_555
Ni0_0 Ni0_4 2.506138 1_455
Ni0_0 Ni0_4 2.506138 1_555
Ni0_0 V0_2 2.507433 1_555
Ni0_0 V0_6 2.507527 1_555
Ni0_0 V0_4 2.507559 1_555
Ni0_0 V0_0 2.507671 1_555
Ni0_0 Ni1_1 2.536785 1_554
Ni0_1 Ni1_5 2.490983 1_555
Ni0_1 Ni1_1 2.491083 1_555
Ni0_1 Ni1_3 2.491771 1_555
Ni0_1 Ni1_7 2.491877 1_555
Ni0_1 V0_6 2.504613 1_556
Ni0_1 Ni0_5 2.506138 1_455
Ni0_1 Ni0_5 2.506138 1_555
Ni0_1 V0_3 2.507433 1_555
Ni0_1 V0_7 2.507527 1_555
Ni0_1 V0_5 2.507559 1_555
Ni0_1 V0_1 2.507671 1_555
Ni0_1 Ni1_0 2.536785 1_555
Ni0_2 Ni1_6 2.490983 1_555
Ni0_2 Ni1_2 2.491083 1_555
Ni0_2 Ni1_0 2.491771 1_565
Ni0_2 Ni1_4 2.491877 1_565
Ni0_2 V0_5 2.504613 1_565
Ni0_2 Ni0_6 2.506138 1_455
Ni0_2 Ni0_6 2.506138 1_555
Ni0_2 V0_0 2.507433 1_565
Ni0_2 V0_4 2.507527 1_565
Ni0_2 V0_6 2.507559 1_555
Ni0_2 V0_2 2.507671 1_555
Ni0_2 Ni1_3 2.536785 1_554
Ni0_3 Ni1_7 2.490983 1_555
Ni0_3 Ni1_3 2.491083 1_555
Ni0_3 Ni1_1 2.491771 1_565
Ni0_3 Ni1_5 2.491877 1_565
Ni0_3 V0_4 2.504613 1_566
Ni0_3 Ni0_7 2.506138 1_555
Ni0_3 Ni0_7 2.506138 1_455
Ni0_3 V0_1 2.507433 1_565
Ni0_3 V0_5 2.507527 1_565
Ni0_3 V0_7 2.507559 1_555
Ni0_3 V0_3 2.507671 1_555
Ni0_3 Ni1_2 2.536785 1_555
Ni0_4 Ni1_0 2.490983 1_655
Ni0_4 Ni1_4 2.491083 1_555
Ni0_4 Ni1_6 2.491771 1_555
Ni0_4 Ni1_2 2.491877 1_655
Ni0_4 V0_3 2.504613 1_655
Ni0_4 V0_6 2.507433 1_555
Ni0_4 V0_2 2.507527 1_655
Ni0_4 V0_0 2.507559 1_655
Ni0_4 V0_4 2.507671 1_555
Ni0_4 Ni1_5 2.536785 1_554
Ni0_5 Ni1_1 2.490983 1_655
Ni0_5 Ni1_5 2.491083 1_555
Ni0_5 Ni1_7 2.491771 1_555
Ni0_5 Ni1_3 2.491877 1_655
Ni0_5 V0_2 2.504613 1_656
Ni0_5 V0_7 2.507433 1_555
Ni0_5 V0_3 2.507527 1_655
Ni0_5 V0_1 2.507559 1_655
Ni0_5 V0_5 2.507671 1_555
Ni0_5 Ni1_4 2.536785 1_555
Ni0_6 Ni1_2 2.490983 1_655
Ni0_6 Ni1_6 2.491083 1_555
Ni0_6 Ni1_4 2.491771 1_565
Ni0_6 Ni1_0 2.491877 1_665
Ni0_6 V0_1 2.504613 1_665
Ni0_6 V0_4 2.507433 1_565
Ni0_6 V0_0 2.507527 1_665
Ni0_6 V0_2 2.507559 1_655
Ni0_6 V0_6 2.507671 1_555
Ni0_6 Ni1_7 2.536785 1_554
Ni0_7 Ni1_3 2.490983 1_655
Ni0_7 Ni1_7 2.491083 1_555
Ni0_7 Ni1_5 2.491771 1_565
Ni0_7 Ni1_1 2.491877 1_665
Ni0_7 V0_0 2.504613 1_666
Ni0_7 V0_5 2.507433 1_565
Ni0_7 V0_1 2.507527 1_665
Ni0_7 V0_3 2.507559 1_655
Ni0_7 V0_7 2.507671 1_555
Ni0_7 Ni1_6 2.536785 1_555
Ni1_0 V0_0 2.504613 1_555
Ni1_0 Ni1_4 2.506138 1_555
Ni1_0 Ni1_4 2.506138 1_455
Ni1_0 V0_5 2.507433 1_555
Ni1_0 V0_1 2.507527 1_555
Ni1_0 V0_3 2.507559 1_555
Ni1_0 V0_7 2.507671 1_555
Ni1_1 V0_1 2.504613 1_555
Ni1_1 Ni1_5 2.506138 1_455
Ni1_1 Ni1_5 2.506138 1_555
Ni1_1 V0_4 2.507433 1_556
Ni1_1 V0_0 2.507527 1_556
Ni1_1 V0_2 2.507559 1_556
Ni1_1 V0_6 2.507671 1_556
Ni1_2 V0_2 2.504613 1_555
Ni1_2 Ni1_6 2.506138 1_555
Ni1_2 Ni1_6 2.506138 1_455
Ni1_2 V0_7 2.507433 1_555
Ni1_2 V0_3 2.507527 1_555
Ni1_2 V0_1 2.507559 1_565
Ni1_2 V0_5 2.507671 1_565
Ni1_3 V0_3 2.504613 1_555
Ni1_3 Ni1_7 2.506138 1_455
Ni1_3 Ni1_7 2.506138 1_555
Ni1_3 V0_6 2.507433 1_556
Ni1_3 V0_2 2.507527 1_556
Ni1_3 V0_0 2.507559 1_566
Ni1_3 V0_4 2.507671 1_566
Ni1_4 V0_4 2.504613 1_555
Ni1_4 V0_1 2.507433 1_655
Ni1_4 V0_5 2.507527 1_555
Ni1_4 V0_7 2.507559 1_555
Ni1_4 V0_3 2.507671 1_655
Ni1_5 V0_5 2.504613 1_555
Ni1_5 V0_0 2.507433 1_656
Ni1_5 V0_4 2.507527 1_556
Ni1_5 V0_6 2.507559 1_556
Ni1_5 V0_2 2.507671 1_656
Ni1_6 V0_6 2.504613 1_555
Ni1_6 V0_3 2.507433 1_655
Ni1_6 V0_7 2.507527 1_555
Ni1_6 V0_5 2.507559 1_565
Ni1_6 V0_1 2.507671 1_665
Ni1_7 V0_7 2.504613 1_555
Ni1_7 V0_2 2.507433 1_656
Ni1_7 V0_6 2.507527 1_556
Ni1_7 V0_4 2.507559 1_566
Ni1_7 V0_0 2.507671 1_666
