# generated using pymatgen
data_BaMgAl3P2(HO7)2
_symmetry_space_group_name_H-M   'P 1'
_cell_length_a   7.30222763
_cell_length_b   7.07130622
_cell_length_c   7.29587962
_cell_angle_alpha   63.06532557
_cell_angle_beta   116.00888676
_cell_angle_gamma   122.69042076
_symmetry_Int_Tables_number   1
_chemical_formula_structural   BaMgAl3P2(HO7)2
_chemical_formula_sum   'Ba1 Mg1 Al3 P2 H2 O14'
_cell_volume   273.06700256
_cell_formula_units_Z   1
loop_
 _symmetry_equiv_pos_site_id
 _symmetry_equiv_pos_as_xyz
  1  'x, y, z'
loop_
 _atom_site_type_symbol
 _atom_site_label
 _atom_site_symmetry_multiplicity
 _atom_site_fract_x
 _atom_site_fract_y
 _atom_site_fract_z
 _atom_site_occupancy
  Ba  Ba0  1  0.14348600  0.08458600  0.00500600  1
  Mg  Mg0  1  0.66960300  0.80742300  0.16064800  1
  Al  Al0  1  0.03511300  0.00800600  0.49877100  1
  Al  Al1  1  0.52252100  0.00778400  0.52012000  1
  Al  Al2  1  0.99041200  0.51381100  0.49019900  1
  P  P0  1  0.27763100  0.71524500  0.87722700  1
  P  P1  1  0.73446400  0.29035300  0.11704400  1
  H  H0  1  0.31593900  0.67852000  0.34979200  1
  H  H1  1  0.68447100  0.33093000  0.67451400  1
  O  O0  1  0.34494700  0.63680600  0.12282400  1
  O  O1  1  0.62923400  0.34530400  0.88109500  1
  O  O2  1  0.15918700  0.87608900  0.78829500  1
  O  O3  1  0.87034200  0.13938200  0.18983200  1
  O  O4  1  0.12650400  0.50453200  0.78562600  1
  O  O5  1  0.51426700  0.85505200  0.82130900  1
  O  O6  1  0.54368700  0.12096800  0.23787100  1
  O  O7  1  0.88333600  0.51025900  0.20127000  1
  O  O8  1  0.29831300  0.70801100  0.45929800  1
  O  O9  1  0.70878800  0.30355500  0.56555300  1
  O  O10  1  0.81729700  0.98315900  0.60699500  1
  O  O11  1  0.02441300  0.22147400  0.57369300  1
  O  O12  1  0.91755500  0.76072800  0.40110900  1
  O  O13  1  0.28277100  0.09447900  0.42262200  1
loop_
_geom_bond_atom_site_label_1
_geom_bond_atom_site_label_2
_geom_bond_distance
_geom_bond_site_symmetry_2
Ba0 O6 2.592739 1_555
Ba0 O2 2.672102 1_544
Ba0 O4 2.704304 1_554
Ba0 O11 2.710231 1_554
Ba0 O13 2.778708 1_555
Ba0 O10 2.931818 1_444
Mg0 O0 1.946864 1_555
Mg0 O12 1.949436 1_555
Mg0 O3 2.041192 1_565
Mg0 O5 2.173448 1_554
Al0 O12 1.809146 1_445
Al0 O13 1.825366 1_555
Al0 O11 1.869723 1_555
Al0 O2 1.897985 1_545
Al0 O10 1.964184 1_445
Al0 O3 2.079205 1_455
Al1 O9 1.869220 1_555
Al1 O6 1.886100 1_555
Al1 O13 1.902338 1_555
Al1 O8 1.958831 1_545
Al1 O5 1.973470 1_545
Al1 O10 2.042977 1_545
Al2 O12 1.850976 1_555
Al2 O7 1.907050 1_555
Al2 O9 1.920985 1_555
Al2 O4 1.923900 1_655
Al2 O8 1.954653 1_655
Al2 O11 1.996747 1_655
H0 O8 0.984116 1_555
H1 O9 1.000659 1_555
O0 P0 1.543255 1_554
O1 P1 1.503754 1_556
O2 P0 1.537713 1_555
O3 P1 1.604575 1_555
O4 P0 1.537450 1_555
O5 P0 1.592875 1_555
O6 P1 1.571789 1_555
O7 P1 1.559255 1_555
O10 O11 1.544192 1_665
