# generated using pymatgen
data_Ce2Mn(SeO)2
_symmetry_space_group_name_H-M   'P 1'
_cell_length_a   3.99153000
_cell_length_b   3.99153000
_cell_length_c   9.28450900
_cell_angle_alpha   90.00000000
_cell_angle_beta   90.00000000
_cell_angle_gamma   90.00000000
_symmetry_Int_Tables_number   1
_chemical_formula_structural   Ce2Mn(SeO)2
_chemical_formula_sum   'Ce2 Mn1 Se2 O2'
_cell_volume   147.92369175
_cell_formula_units_Z   1
loop_
 _symmetry_equiv_pos_site_id
 _symmetry_equiv_pos_as_xyz
  1  'x, y, z'
loop_
 _atom_site_type_symbol
 _atom_site_label
 _atom_site_symmetry_multiplicity
 _atom_site_fract_x
 _atom_site_fract_y
 _atom_site_fract_z
 _atom_site_occupancy
  Ce  Ce0  1  0.50000000  0.00000000  0.36694500  1
  Ce  Ce1  1  0.00000000  0.50000000  0.63305500  1
  Mn  Mn0  1  0.50000000  0.50000000  0.00000000  1
  Se  Se0  1  0.50000000  0.00000000  0.81900000  1
  Se  Se1  1  0.00000000  0.50000000  0.18100000  1
  O  O0  1  0.50000000  0.50000000  0.50000000  1
  O  O1  1  0.00000000  0.00000000  0.50000000  1
loop_
_geom_bond_atom_site_label_1
_geom_bond_atom_site_label_2
_geom_bond_distance
_geom_bond_site_symmetry_2
Ce0 O0 2.347162 1_555
Ce0 O0 2.347162 1_545
Ce0 O1 2.347162 1_655
Ce0 O1 2.347162 1_555
Ce0 Se1 3.308571 1_655
Ce0 Se1 3.308571 1_645
Ce0 Se1 3.308571 1_545
Ce0 Se1 3.308571 1_555
Ce1 O1 2.347162 1_555
Ce1 O1 2.347162 1_565
Ce1 O0 2.347162 1_555
Ce1 O0 2.347162 1_455
Ce1 Se0 3.308571 1_465
Ce1 Se0 3.308571 1_555
Ce1 Se0 3.308571 1_565
Ce1 Se0 3.308571 1_455
Mn0 Se0 2.609051 1_554
Mn0 Se0 2.609051 1_564
Mn0 Se1 2.609051 1_555
Mn0 Se1 2.609051 1_655
