# generated using pymatgen
data_MgSi
_symmetry_space_group_name_H-M   'P 1'
_cell_length_a   4.39039200
_cell_length_b   5.40182431
_cell_length_c   10.21534273
_cell_angle_alpha   92.36507425
_cell_angle_beta   91.03316828
_cell_angle_gamma   111.82821015
_symmetry_Int_Tables_number   1
_chemical_formula_structural   MgSi
_chemical_formula_sum   'Mg6 Si6'
_cell_volume   224.56131214
_cell_formula_units_Z   6
loop_
 _symmetry_equiv_pos_site_id
 _symmetry_equiv_pos_as_xyz
  1  'x, y, z'
loop_
 _atom_site_type_symbol
 _atom_site_label
 _atom_site_symmetry_multiplicity
 _atom_site_fract_x
 _atom_site_fract_y
 _atom_site_fract_z
 _atom_site_occupancy
  Mg  Mg0  1  0.31569400  0.74144400  0.90521300  1
  Mg  Mg1  1  0.57689700  0.26439300  0.09409000  1
  Mg  Mg2  1  0.92281400  0.08316300  0.34320000  1
  Mg  Mg3  1  0.84549200  0.91704400  0.65565200  1
  Mg  Mg4  1  0.25617100  0.65507300  0.20568900  1
  Mg  Mg5  1  0.63416700  0.35054300  0.79400700  1
  Si  Si0  1  0.20142300  0.51221400  0.64797400  1
  Si  Si1  1  0.22541400  0.76388300  0.46241700  1
  Si  Si2  1  0.04164600  0.15125700  0.91264900  1
  Si  Si3  1  0.84305500  0.84767900  0.08686800  1
  Si  Si4  1  0.67194700  0.48969000  0.35534600  1
  Si  Si5  1  0.46515100  0.22361900  0.53679400  1
loop_
_geom_bond_atom_site_label_1
_geom_bond_atom_site_label_2
_geom_bond_distance
_geom_bond_site_symmetry_2
Mg0 Si3 2.811163 1_556
Mg0 Si0 2.812857 1_555
Mg0 Si2 2.885167 1_565
Mg0 Si2 2.964467 1_555
Mg0 Si3 3.002542 1_456
Mg0 Si2 3.129727 1_665
Mg1 Si2 2.830662 1_554
Mg1 Si4 2.844637 1_555
Mg1 Si3 2.895426 1_545
Mg1 Si3 2.929644 1_555
Mg1 Si2 2.990395 1_654
Mg1 Si3 3.168170 1_445
Mg2 Si4 2.798559 1_555
Mg2 Si3 2.821017 1_545
Mg2 Si1 2.835781 1_645
Mg2 Si5 2.918745 1_655
Mg2 Si4 2.986279 1_545
Mg2 Si5 3.110820 1_555
Mg2 Si1 3.195853 1_545
Mg2 Si4 3.201082 1_655
Mg3 Si2 2.840541 1_665
Mg3 Si0 2.857209 1_555
Mg3 Si1 2.893697 1_655
Mg3 Si5 2.924513 1_665
Mg3 Si0 3.012223 1_665
Mg3 Si5 3.025634 1_565
Mg3 Si0 3.124392 1_655
Mg3 Si1 3.160516 1_555
Mg4 Si1 2.680695 1_555
Mg4 Si3 2.696959 1_455
Mg4 Si3 2.723664 1_555
Mg4 Si4 2.773499 1_555
Mg4 Si4 2.874804 1_455
Mg5 Si2 2.699980 1_655
Mg5 Si5 2.706886 1_555
Mg5 Si2 2.744787 1_555
Mg5 Si0 2.795467 1_655
Mg5 Si0 2.799458 1_555
Si0 Si1 2.359170 1_555
Si0 Si5 2.510873 1_555
Si1 Si5 2.392502 1_565
Si1 Si4 2.527587 1_455
Si2 Si3 2.418741 1_446
Si4 Si5 2.373999 1_555
