# generated using pymatgen
data_YbCd2
_symmetry_space_group_name_H-M   'P 1'
_cell_length_a   5.94404168
_cell_length_b   5.94404168
_cell_length_c   9.98509500
_cell_angle_alpha   90.00000000
_cell_angle_beta   90.00000000
_cell_angle_gamma   119.99999640
_symmetry_Int_Tables_number   1
_chemical_formula_structural   YbCd2
_chemical_formula_sum   'Yb4 Cd8'
_cell_volume   305.52485052
_cell_formula_units_Z   4
loop_
 _symmetry_equiv_pos_site_id
 _symmetry_equiv_pos_as_xyz
  1  'x, y, z'
loop_
 _atom_site_type_symbol
 _atom_site_label
 _atom_site_symmetry_multiplicity
 _atom_site_fract_x
 _atom_site_fract_y
 _atom_site_fract_z
 _atom_site_occupancy
  Yb  Yb0  1  0.33333300  0.66666700  0.55866600  1
  Yb  Yb1  1  0.66666700  0.33333300  0.44133400  1
  Yb  Yb2  1  0.66666700  0.33333300  0.05866600  1
  Yb  Yb3  1  0.33333300  0.66666700  0.94133400  1
  Cd  Cd0  1  0.00000000  0.00000000  0.50000000  1
  Cd  Cd1  1  0.00000000  0.00000000  0.00000000  1
  Cd  Cd2  1  0.82967200  0.17032800  0.75000000  1
  Cd  Cd3  1  0.34065600  0.17032800  0.75000000  1
  Cd  Cd4  1  0.82967200  0.65934400  0.75000000  1
  Cd  Cd5  1  0.17032800  0.82967200  0.25000000  1
  Cd  Cd6  1  0.65934400  0.82967200  0.25000000  1
  Cd  Cd7  1  0.17032800  0.34065600  0.25000000  1
loop_
_geom_bond_atom_site_label_1
_geom_bond_atom_site_label_2
_geom_bond_distance
_geom_bond_site_symmetry_2
Cd0 Cd2 3.050650 1_455
Cd0 Cd5 3.050650 1_545
Cd0 Cd4 3.050650 1_445
Cd0 Cd3 3.050650 1_555
Cd0 Cd6 3.050650 1_445
Cd0 Cd7 3.050650 1_555
Cd0 Yb1 3.481427 1_455
Cd0 Yb0 3.481427 1_545
Cd0 Yb0 3.481432 1_555
Cd0 Yb0 3.481432 1_445
Cd0 Yb1 3.481432 1_555
Cd0 Yb1 3.481432 1_445
Cd1 Cd2 3.050650 1_454
Cd1 Cd5 3.050650 1_545
Cd1 Cd3 3.050650 1_554
Cd1 Cd6 3.050650 1_445
Cd1 Cd7 3.050650 1_555
Cd1 Cd4 3.050650 1_444
Cd1 Yb2 3.481427 1_455
Cd1 Yb3 3.481427 1_544
Cd1 Yb3 3.481432 1_444
Cd1 Yb2 3.481432 1_555
Cd1 Yb3 3.481432 1_554
Cd1 Yb2 3.481432 1_445
Cd2 Cd3 2.906731 1_555
Cd2 Cd4 2.906731 1_555
Cd2 Cd4 3.037310 1_545
Cd2 Cd3 3.037310 1_655
Cd2 Yb1 3.509336 1_555
Cd2 Yb2 3.509336 1_556
Cd2 Yb0 3.533312 1_545
Cd2 Yb3 3.533312 1_545
Cd2 Yb3 3.533312 1_655
Cd2 Yb0 3.533312 1_655
Cd3 Cd4 2.906732 1_555
Cd3 Cd4 3.037310 1_445
Cd3 Yb1 3.509339 1_555
Cd3 Yb2 3.509339 1_556
Cd3 Yb0 3.533310 1_545
Cd3 Yb3 3.533310 1_545
Cd3 Yb0 3.533315 1_555
Cd3 Yb3 3.533315 1_555
Cd4 Yb1 3.509339 1_555
Cd4 Yb2 3.509339 1_556
Cd4 Yb3 3.533310 1_655
Cd4 Yb0 3.533310 1_655
Cd4 Yb3 3.533315 1_555
Cd4 Yb0 3.533315 1_555
Cd5 Cd7 2.906731 1_555
Cd5 Cd6 2.906731 1_555
Cd5 Cd6 3.037310 1_455
Cd5 Cd7 3.037310 1_565
Cd5 Yb3 3.509336 1_554
Cd5 Yb0 3.509336 1_555
Cd5 Yb2 3.533312 1_455
Cd5 Yb1 3.533312 1_455
Cd5 Yb2 3.533312 1_565
Cd5 Yb1 3.533312 1_565
Cd6 Cd7 2.906732 1_555
Cd6 Cd7 3.037310 1_665
Cd6 Yb3 3.509339 1_554
Cd6 Yb0 3.509339 1_555
Cd6 Yb2 3.533310 1_565
Cd6 Yb1 3.533310 1_565
Cd6 Yb1 3.533315 1_555
Cd6 Yb2 3.533315 1_555
Cd7 Yb3 3.509339 1_554
Cd7 Yb0 3.509339 1_555
Cd7 Yb2 3.533310 1_455
Cd7 Yb1 3.533310 1_455
Cd7 Yb1 3.533315 1_555
Cd7 Yb2 3.533315 1_555
