# generated using pymatgen
data_Al(BiO2)2
_symmetry_space_group_name_H-M   'P 1'
_cell_length_a   8.37655400
_cell_length_b   8.37655400
_cell_length_c   6.29465700
_cell_angle_alpha   90.00000000
_cell_angle_beta   90.00000000
_cell_angle_gamma   90.00000000
_symmetry_Int_Tables_number   1
_chemical_formula_structural   Al(BiO2)2
_chemical_formula_sum   'Al4 Bi8 O16'
_cell_volume   441.67503812
_cell_formula_units_Z   4
loop_
 _symmetry_equiv_pos_site_id
 _symmetry_equiv_pos_as_xyz
  1  'x, y, z'
loop_
 _atom_site_type_symbol
 _atom_site_label
 _atom_site_symmetry_multiplicity
 _atom_site_fract_x
 _atom_site_fract_y
 _atom_site_fract_z
 _atom_site_occupancy
  Al  Al0  1  0.00000000  0.50000000  0.06911700  1
  Al  Al1  1  0.50000000  0.00000000  0.43088300  1
  Al  Al2  1  0.50000000  0.00000000  0.93088300  1
  Al  Al3  1  0.00000000  0.50000000  0.56911700  1
  Bi  Bi0  1  0.66668200  0.66668200  0.25000000  1
  Bi  Bi1  1  0.16668200  0.83331800  0.25000000  1
  Bi  Bi2  1  0.83331800  0.16668200  0.25000000  1
  Bi  Bi3  1  0.33331800  0.33331800  0.25000000  1
  Bi  Bi4  1  0.83331800  0.83331800  0.75000000  1
  Bi  Bi5  1  0.33331800  0.66668200  0.75000000  1
  Bi  Bi6  1  0.66668200  0.33331800  0.75000000  1
  Bi  Bi7  1  0.16668200  0.16668200  0.75000000  1
  O  O0  1  0.59881000  0.80073900  0.91584100  1
  O  O1  1  0.30073900  0.90119000  0.91584100  1
  O  O2  1  0.69926100  0.09881000  0.91584100  1
  O  O3  1  0.40119000  0.19926100  0.91584100  1
  O  O4  1  0.90119000  0.30073900  0.58415900  1
  O  O5  1  0.09881000  0.69926100  0.58415900  1
  O  O6  1  0.80073900  0.59881000  0.58415900  1
  O  O7  1  0.19926100  0.40119000  0.58415900  1
  O  O8  1  0.90119000  0.69926100  0.08415900  1
  O  O9  1  0.19926100  0.59881000  0.08415900  1
  O  O10  1  0.80073900  0.40119000  0.08415900  1
  O  O11  1  0.09881000  0.30073900  0.08415900  1
  O  O12  1  0.59881000  0.19926100  0.41584100  1
  O  O13  1  0.40119000  0.80073900  0.41584100  1
  O  O14  1  0.69926100  0.90119000  0.41584100  1
  O  O15  1  0.30073900  0.09881000  0.41584100  1
loop_
_geom_bond_atom_site_label_1
_geom_bond_atom_site_label_2
_geom_bond_distance
_geom_bond_site_symmetry_2
Al0 O9 1.865474 1_555
Al0 O8 1.865474 1_455
Al0 O10 1.865474 1_455
Al0 O11 1.865474 1_555
Al1 O12 1.865474 1_555
Al1 O14 1.865474 1_545
Al1 O13 1.865474 1_545
Al1 O15 1.865474 1_555
Al2 O0 1.865474 1_545
Al2 O1 1.865474 1_545
Al2 O3 1.865474 1_555
Al2 O2 1.865474 1_555
Al3 O4 1.865474 1_455
Al3 O7 1.865474 1_555
Al3 O6 1.865474 1_455
Al3 O5 1.865474 1_555
Bi0 O14 2.241199 1_555
Bi0 O8 2.241199 1_555
Bi0 O6 2.451239 1_555
Bi0 O0 2.451239 1_554
Bi0 O13 2.701204 1_555
Bi0 O10 2.701204 1_555
Bi1 O9 2.241199 1_555
Bi1 O13 2.241199 1_555
Bi1 O5 2.451239 1_555
Bi1 O1 2.451239 1_554
Bi1 O8 2.701204 1_455
Bi1 O15 2.701204 1_565
Bi2 O12 2.241199 1_555
Bi2 O10 2.241199 1_555
Bi2 O2 2.451239 1_554
Bi2 O4 2.451239 1_555
Bi2 O14 2.701204 1_545
Bi2 O11 2.701204 1_655
Bi3 O11 2.241199 1_555
Bi3 O15 2.241199 1_555
Bi3 O3 2.451239 1_554
Bi3 O7 2.451239 1_555
Bi3 O12 2.701204 1_555
Bi3 O9 2.701204 1_555
Bi4 O6 2.241199 1_555
Bi4 O0 2.241199 1_555
Bi4 O14 2.451239 1_555
Bi4 O8 2.451239 1_556
Bi4 O5 2.701204 1_655
Bi4 O2 2.701204 1_565
Bi5 O5 2.241199 1_555
Bi5 O1 2.241199 1_555
Bi5 O13 2.451239 1_555
Bi5 O9 2.451239 1_556
Bi5 O0 2.701204 1_555
Bi5 O7 2.701204 1_555
Bi6 O2 2.241199 1_555
Bi6 O4 2.241199 1_555
Bi6 O12 2.451239 1_555
Bi6 O10 2.451239 1_556
Bi6 O6 2.701204 1_555
Bi6 O3 2.701204 1_555
Bi7 O3 2.241199 1_555
Bi7 O7 2.241199 1_555
Bi7 O15 2.451239 1_555
Bi7 O11 2.451239 1_556
Bi7 O1 2.701204 1_545
Bi7 O4 2.701204 1_455
