# generated using pymatgen
data_Ba3LaY2(Cu3O7)2
_symmetry_space_group_name_H-M   'P 1'
_cell_length_a   12.29989495
_cell_length_b   12.26332536
_cell_length_c   5.48349948
_cell_angle_alpha   77.47332399
_cell_angle_beta   76.72839020
_cell_angle_gamma   25.79828581
_symmetry_Int_Tables_number   1
_chemical_formula_structural   Ba3LaY2(Cu3O7)2
_chemical_formula_sum   'Ba3 La1 Y2 Cu6 O14'
_cell_volume   350.24976712
_cell_formula_units_Z   1
loop_
 _symmetry_equiv_pos_site_id
 _symmetry_equiv_pos_as_xyz
  1  'x, y, z'
loop_
 _atom_site_type_symbol
 _atom_site_label
 _atom_site_symmetry_multiplicity
 _atom_site_fract_x
 _atom_site_fract_y
 _atom_site_fract_z
 _atom_site_occupancy
  Ba  Ba0  1  0.59101100  0.59101100  0.40898900  1
  Ba  Ba1  1  0.09267000  0.09267000  0.90733000  1
  Ba  Ba2  1  0.90765900  0.90765900  0.09234100  1
  La  La0  1  0.40967200  0.40967200  0.59032800  1
  Y  Y0  1  0.25119500  0.25119500  0.74880500  1
  Y  Y1  1  0.75064200  0.75064200  0.24935800  1
  Cu  Cu0  1  0.99839000  0.99839000  0.50161000  1
  Cu  Cu1  1  0.49839000  0.49839000  0.00161000  1
  Cu  Cu2  1  0.67903800  0.67903800  0.82096200  1
  Cu  Cu3  1  0.17903800  0.17903800  0.32096200  1
  Cu  Cu4  1  0.82233900  0.82233900  0.67766100  1
  Cu  Cu5  1  0.32233900  0.32233900  0.17766100  1
  O  O0  1  0.57872000  0.57872000  0.92128000  1
  O  O1  1  0.07872000  0.07872000  0.42128000  1
  O  O2  1  0.91743700  0.91743700  0.58256300  1
  O  O3  1  0.41743700  0.41743700  0.08256300  1
  O  O4  1  0.94098400  0.44266900  0.55733100  1
  O  O5  1  0.44266900  0.94098400  0.05901600  1
  O  O6  1  0.93971200  0.43946500  0.06028800  1
  O  O7  1  0.43946500  0.93971200  0.56053500  1
  O  O8  1  0.06952800  0.55989500  0.44010500  1
  O  O9  1  0.55989500  0.06952800  0.93047200  1
  O  O10  1  0.06846800  0.56155500  0.93153200  1
  O  O11  1  0.56155500  0.06846800  0.43844500  1
  O  O12  1  0.70596200  0.27706600  0.29403800  1
  O  O13  1  0.27706600  0.70596200  0.72293400  1
loop_
_geom_bond_atom_site_label_1
_geom_bond_atom_site_label_2
_geom_bond_distance
_geom_bond_site_symmetry_2
Ba0 O0 2.756675 1_554
Ba0 O1 2.756675 1_655
Ba0 O1 2.756675 1_565
Ba0 O0 2.756675 1_555
Ba0 O13 2.839125 1_555
Ba0 O12 2.839125 1_555
Ba0 O7 2.988081 1_555
Ba0 O6 2.988081 1_555
Ba0 O4 3.060384 1_555
Ba0 O5 3.060384 1_555
Ba1 O1 2.760960 1_555
Ba1 O0 2.760960 1_545
Ba1 O0 2.760960 1_455
Ba1 O1 2.760960 1_556
Ba1 O6 2.957235 1_456
Ba1 O7 2.957235 1_545
Ba1 O5 3.039394 1_546
Ba1 O4 3.039394 1_455
Ba1 O12 3.211790 1_456
Ba1 O13 3.211790 1_545
Ba2 O2 2.751205 1_555
Ba2 O2 2.751205 1_554
Ba2 O3 2.751205 1_565
Ba2 O3 2.751205 1_655
Ba2 O10 2.900097 1_654
Ba2 O11 2.900097 1_565
Ba2 O13 2.928623 1_654
Ba2 O12 2.928623 1_565
Ba2 O8 2.952023 1_655
Ba2 O9 2.952023 1_564
La0 O13 2.514260 1_555
La0 O12 2.514260 1_555
La0 O3 2.747716 1_555
La0 O3 2.747716 1_556
La0 O2 2.747716 1_545
La0 O2 2.747716 1_455
La0 O10 2.900642 1_555
La0 O11 2.900642 1_555
La0 O9 2.936257 1_555
La0 O8 2.936257 1_555
Cu0 O1 1.872250 1_665
Cu0 O2 1.886770 1_555
Cu0 O13 1.992562 1_655
Cu0 O12 1.992562 1_565
Cu1 O0 1.872250 1_554
Cu1 O3 1.886770 1_555
Cu1 O12 1.992562 1_555
Cu1 O13 1.992562 1_554
Cu2 O4 1.932666 1_555
Cu2 O5 1.932666 1_556
Cu2 O7 1.982762 1_555
Cu2 O6 1.982762 1_556
Cu2 O0 2.338110 1_555
Cu3 O5 1.932666 1_545
Cu3 O4 1.932666 1_455
Cu3 O6 1.982762 1_455
Cu3 O7 1.982762 1_545
Cu3 O1 2.338110 1_555
Cu4 O9 1.918164 1_565
Cu4 O8 1.918164 1_655
Cu4 O11 1.975030 1_565
Cu4 O10 1.975030 1_655
Cu4 O2 2.216448 1_555
Cu5 O8 1.918164 1_555
Cu5 O9 1.918164 1_554
Cu5 O10 1.975030 1_554
Cu5 O11 1.975030 1_555
Cu5 O3 2.216448 1_555
O4 Y1 2.392480 1_555
O4 Y0 2.410734 1_655
O5 Y1 2.392480 1_555
O5 Y0 2.410734 1_564
O6 Y1 2.382177 1_555
O6 Y0 2.388391 1_654
O7 Y1 2.382177 1_555
O7 Y0 2.388391 1_565
O8 Y0 2.432012 1_555
O8 Y1 2.500263 1_455
O9 Y0 2.432012 1_555
O9 Y1 2.500263 1_546
O10 Y0 2.399677 1_555
O10 Y1 2.449207 1_456
O11 Y0 2.399677 1_555
O11 Y1 2.449207 1_545
