# generated using pymatgen
data_AlNi3F15
_symmetry_space_group_name_H-M   'P 1'
_cell_length_a   8.88768318
_cell_length_b   5.87234708
_cell_length_c   10.65369500
_cell_angle_alpha   90.00000000
_cell_angle_beta   90.00000000
_cell_angle_gamma   105.67564032
_symmetry_Int_Tables_number   1
_chemical_formula_structural   AlNi3F15
_chemical_formula_sum   'Al2 Ni6 F30'
_cell_volume   535.35226876
_cell_formula_units_Z   2
loop_
 _symmetry_equiv_pos_site_id
 _symmetry_equiv_pos_as_xyz
  1  'x, y, z'
loop_
 _atom_site_type_symbol
 _atom_site_label
 _atom_site_symmetry_multiplicity
 _atom_site_fract_x
 _atom_site_fract_y
 _atom_site_fract_z
 _atom_site_occupancy
  Al  Al0  1  0.91011700  0.43365000  0.25000000  1
  Al  Al1  1  0.42321600  0.56635000  0.75000000  1
  Ni  Ni0  1  0.16666700  0.00000000  0.50000000  1
  Ni  Ni1  1  0.50106000  0.01768000  0.50028600  1
  Ni  Ni2  1  0.83227300  0.98232000  0.49971400  1
  Ni  Ni3  1  0.16666700  0.00000000  0.00000000  1
  Ni  Ni4  1  0.50106000  0.01768000  0.99971400  1
  Ni  Ni5  1  0.83227300  0.98232000  0.00028600  1
  F  F0  1  0.10210200  0.57325300  0.25000000  1
  F  F1  1  0.46363900  0.64689700  0.25000000  1
  F  F2  1  0.78824000  0.60686300  0.25000000  1
  F  F3  1  0.23123100  0.42674700  0.75000000  1
  F  F4  1  0.54509400  0.39313700  0.75000000  1
  F  F5  1  0.86969400  0.35310300  0.75000000  1
  F  F6  1  0.03369500  0.12438200  0.58893900  1
  F  F7  1  0.33783900  0.11516500  0.59930300  1
  F  F8  1  0.70616600  0.13833000  0.59058600  1
  F  F9  1  0.29963900  0.87561800  0.41106100  1
  F  F10  1  0.62716700  0.86167000  0.40941400  1
  F  F11  1  0.99549400  0.88483500  0.40069700  1
  F  F12  1  0.11222200  0.73877200  0.90691200  1
  F  F13  1  0.45972100  0.75250600  0.87953900  1
  F  F14  1  0.79295100  0.72090600  0.90980100  1
  F  F15  1  0.22111200  0.26122800  0.09308800  1
  F  F16  1  0.54038200  0.27909400  0.09019900  1
  F  F17  1  0.87361200  0.24749400  0.12046100  1
  F  F18  1  0.22111200  0.26122800  0.40691200  1
  F  F19  1  0.54038200  0.27909400  0.40980100  1
  F  F20  1  0.87361200  0.24749400  0.37953900  1
  F  F21  1  0.11222200  0.73877200  0.59308800  1
  F  F22  1  0.45972100  0.75250600  0.62046100  1
  F  F23  1  0.79295100  0.72090600  0.59019900  1
  F  F24  1  0.03369500  0.12438200  0.91106100  1
  F  F25  1  0.33783900  0.11516500  0.90069700  1
  F  F26  1  0.70616600  0.13833000  0.90941400  1
  F  F27  1  0.29963900  0.87561800  0.08893900  1
  F  F28  1  0.62716700  0.86167000  0.09058600  1
  F  F29  1  0.99549400  0.88483500  0.09930300  1
loop_
_geom_bond_atom_site_label_1
_geom_bond_atom_site_label_2
_geom_bond_distance
_geom_bond_site_symmetry_2
Al0 F2 1.674322 1_555
Al0 F0 1.681557 1_655
Al0 F20 1.735863 1_555
Al0 F17 1.735863 1_555
Al1 F4 1.674329 1_555
Al1 F3 1.681557 1_555
Al1 F13 1.735863 1_555
Al1 F22 1.735863 1_555
F6 Ni0 1.815066 1_555
F6 Ni2 1.999312 1_445
F7 Ni0 1.826215 1_555
F7 Ni1 1.998422 1_555
F8 Ni2 1.894108 1_545
F8 Ni1 2.013101 1_555
F9 Ni0 1.815066 1_565
F9 Ni1 1.999305 1_565
F10 Ni1 1.894108 1_565
F10 Ni2 2.013101 1_555
F11 Ni0 1.826221 1_665
F11 Ni2 1.998422 1_555
F12 Ni3 1.780387 1_566
F13 Ni4 1.972273 1_565
F14 Ni5 1.765813 1_556
F15 Ni3 1.780387 1_555
F16 Ni4 1.765813 1_554
F17 Ni5 1.972273 1_545
F18 Ni0 1.780387 1_555
F19 Ni1 1.765813 1_555
F20 Ni2 1.972273 1_545
F21 Ni0 1.780387 1_565
F22 Ni1 1.972273 1_565
F23 Ni2 1.765813 1_555
F24 Ni3 1.815066 1_556
F24 Ni5 1.999312 1_446
F25 Ni3 1.826215 1_556
F25 Ni4 1.998422 1_555
F26 Ni5 1.894108 1_546
F26 Ni4 2.013101 1_555
F27 Ni3 1.815066 1_565
F27 Ni4 1.999305 1_564
F28 Ni4 1.894108 1_564
F28 Ni5 2.013101 1_555
F29 Ni3 1.826221 1_665
F29 Ni5 1.998422 1_555
