# generated using pymatgen
data_La2MgS4
_symmetry_space_group_name_H-M   'P 1'
_cell_length_a   6.67064000
_cell_length_b   8.40316400
_cell_length_c   14.29171600
_cell_angle_alpha   90.00000000
_cell_angle_beta   90.00000000
_cell_angle_gamma   90.00000000
_symmetry_Int_Tables_number   1
_chemical_formula_structural   La2MgS4
_chemical_formula_sum   'La8 Mg4 S16'
_cell_volume   801.11473591
_cell_formula_units_Z   4
loop_
 _symmetry_equiv_pos_site_id
 _symmetry_equiv_pos_as_xyz
  1  'x, y, z'
loop_
 _atom_site_type_symbol
 _atom_site_label
 _atom_site_symmetry_multiplicity
 _atom_site_fract_x
 _atom_site_fract_y
 _atom_site_fract_z
 _atom_site_occupancy
  La  La0  1  0.50000000  0.00000000  0.00000000  1
  La  La1  1  0.00000000  0.00000000  0.50000000  1
  La  La2  1  0.00000000  0.50000000  0.50000000  1
  La  La3  1  0.50000000  0.50000000  0.00000000  1
  La  La4  1  0.99772800  0.75000000  0.22940200  1
  La  La5  1  0.00227200  0.25000000  0.77059800  1
  La  La6  1  0.49772800  0.25000000  0.27059800  1
  La  La7  1  0.50227200  0.75000000  0.72940200  1
  Mg  Mg0  1  0.92360100  0.25000000  0.09267100  1
  Mg  Mg1  1  0.07639900  0.75000000  0.90732900  1
  Mg  Mg2  1  0.42360100  0.75000000  0.40732900  1
  Mg  Mg3  1  0.57639900  0.25000000  0.59267100  1
  S  S0  1  0.75249700  0.02074500  0.16646300  1
  S  S1  1  0.24750300  0.97925500  0.83353700  1
  S  S2  1  0.25249700  0.97925500  0.33353700  1
  S  S3  1  0.74750300  0.02074500  0.66646300  1
  S  S4  1  0.74750300  0.47925500  0.66646300  1
  S  S5  1  0.25249700  0.52074500  0.33353700  1
  S  S6  1  0.24750300  0.52074500  0.83353700  1
  S  S7  1  0.75249700  0.47925500  0.16646300  1
  S  S8  1  0.24013800  0.75000000  0.06425600  1
  S  S9  1  0.75986200  0.25000000  0.93574400  1
  S  S10  1  0.74013800  0.25000000  0.43574400  1
  S  S11  1  0.25986200  0.75000000  0.56425600  1
  S  S12  1  0.28590800  0.25000000  0.09322000  1
  S  S13  1  0.71409200  0.75000000  0.90678000  1
  S  S14  1  0.78590800  0.75000000  0.40678000  1
  S  S15  1  0.21409200  0.25000000  0.59322000  1
loop_
_geom_bond_atom_site_label_1
_geom_bond_atom_site_label_2
_geom_bond_distance
_geom_bond_site_symmetry_2
La0 S13 2.868420 1_544
La0 S12 2.868420 1_555
La0 S8 2.874280 1_545
La0 S9 2.874280 1_554
La0 S0 2.920129 1_555
La0 S1 2.920129 1_544
La1 S15 2.868420 1_555
La1 S14 2.868420 1_445
La1 S11 2.874280 1_545
La1 S10 2.874280 1_455
La1 S3 2.920129 1_455
La1 S2 2.920129 1_545
La2 S15 2.868420 1_555
La2 S14 2.868420 1_455
La2 S11 2.874280 1_555
La2 S10 2.874280 1_455
La2 S4 2.920129 1_455
La2 S5 2.920129 1_555
La3 S13 2.868420 1_554
La3 S12 2.868420 1_555
La3 S8 2.874280 1_555
La3 S9 2.874280 1_554
La3 S7 2.920129 1_555
La3 S6 2.920129 1_554
La4 S8 2.861018 1_655
La4 S14 2.902224 1_555
La4 S7 2.943001 1_555
La4 S0 2.943001 1_565
La4 S5 2.968910 1_655
La4 S2 2.968910 1_655
La5 S9 2.861018 1_455
La5 S15 2.902224 1_555
La5 S1 2.943001 1_545
La5 S6 2.943001 1_555
La5 S4 2.968910 1_455
La5 S3 2.968910 1_455
La6 S10 2.861018 1_555
La6 S12 2.902224 1_555
La6 S5 2.943001 1_555
La6 S2 2.943001 1_545
La6 S7 2.968910 1_555
La6 S0 2.968910 1_555
La7 S11 2.861018 1_555
La7 S13 2.902224 1_555
La7 S3 2.943001 1_565
La7 S4 2.943001 1_555
La7 S6 2.968910 1_555
La7 S1 2.968910 1_555
Mg0 S12 2.416832 1_655
Mg0 S0 2.475120 1_555
Mg0 S7 2.475120 1_555
Mg0 S9 2.494584 1_554
Mg1 S13 2.416832 1_455
Mg1 S6 2.475120 1_555
Mg1 S1 2.475120 1_555
Mg1 S8 2.494584 1_556
Mg2 S14 2.416832 1_555
Mg2 S2 2.475120 1_555
Mg2 S5 2.475120 1_555
Mg2 S11 2.494584 1_555
Mg3 S15 2.416832 1_555
Mg3 S3 2.475120 1_555
Mg3 S4 2.475120 1_555
Mg3 S10 2.494584 1_555
