# generated using pymatgen
data_Sr2MnGaO5
_symmetry_space_group_name_H-M   'P 1'
_cell_length_a   5.48680839
_cell_length_b   5.53107054
_cell_length_c   9.12673380
_cell_angle_alpha   107.37814401
_cell_angle_beta   107.23066088
_cell_angle_gamma   90.81942288
_symmetry_Int_Tables_number   1
_chemical_formula_structural   Sr2MnGaO5
_chemical_formula_sum   'Sr4 Mn2 Ga2 O10'
_cell_volume   250.86132990
_cell_formula_units_Z   2
loop_
 _symmetry_equiv_pos_site_id
 _symmetry_equiv_pos_as_xyz
  1  'x, y, z'
loop_
 _atom_site_type_symbol
 _atom_site_label
 _atom_site_symmetry_multiplicity
 _atom_site_fract_x
 _atom_site_fract_y
 _atom_site_fract_z
 _atom_site_occupancy
  Sr  Sr0  1  0.87515500  0.40294900  0.77661700  1
  Sr  Sr1  1  0.12484800  0.59706400  0.22340100  1
  Sr  Sr2  1  0.40152800  0.87371200  0.77662000  1
  Sr  Sr3  1  0.59857900  0.12639700  0.22340500  1
  Mn  Mn0  1  0.00004700  0.99996900  0.99998800  1
  Mn  Mn1  1  0.49986100  0.49986300  0.99974200  1
  Ga  Ga0  1  0.17968800  0.18519200  0.50003500  1
  Ga  Ga1  1  0.82024300  0.81480300  0.50001700  1
  O  O0  1  0.24403400  0.24408000  0.98808200  1
  O  O1  1  0.75597500  0.75589400  0.01184400  1
  O  O2  1  0.25180200  0.75174400  0.00347800  1
  O  O3  1  0.74821600  0.24817200  0.99644900  1
  O  O4  1  0.82396800  0.16552700  0.50003900  1
  O  O5  1  0.17605400  0.83455600  0.50003600  1
  O  O6  1  0.37149700  0.38369000  0.70728500  1
  O  O7  1  0.62848900  0.61634400  0.29287600  1
  O  O8  1  0.83568700  0.82353900  0.70723500  1
  O  O9  1  0.16432800  0.17650500  0.29285300  1
loop_
_geom_bond_atom_site_label_1
_geom_bond_atom_site_label_2
_geom_bond_distance
_geom_bond_site_symmetry_2
Mn0 O1 1.936231 1_456
Mn0 O0 1.936260 1_565
Mn0 O2 1.961730 1_556
Mn0 O3 1.961946 1_465
Mn0 O8 2.427818 1_455
Mn0 O9 2.428731 1_566
Mn1 O0 1.935955 1_555
Mn1 O1 1.936499 1_556
Mn1 O2 1.961608 1_556
Mn1 O3 1.961968 1_555
Mn1 O6 2.425331 1_555
Mn1 O7 2.430938 1_556
Ga0 O9 1.853671 1_555
Ga0 O6 1.854155 1_555
Ga0 O5 1.939213 1_545
Ga0 O4 1.953254 1_455
Ga1 O7 1.853346 1_555
Ga1 O8 1.853805 1_555
Ga1 O4 1.939634 1_565
Ga1 O5 1.953707 1_655
O0 Sr1 2.686232 1_556
O0 Sr3 2.686409 1_556
O0 Sr0 2.709826 1_455
O0 Sr2 2.710155 1_545
O1 Sr0 2.685561 1_554
O1 Sr2 2.685918 1_554
O1 Sr1 2.710184 1_655
O1 Sr3 2.710799 1_565
O2 Sr1 2.661391 1_555
O2 Sr3 2.661449 1_565
O2 Sr2 2.691294 1_554
O2 Sr0 2.691565 1_454
O3 Sr2 2.660357 1_545
O3 Sr0 2.660873 1_555
O3 Sr3 2.691363 1_556
O3 Sr1 2.692050 1_656
O4 Sr0 2.400945 1_555
O4 Sr3 2.401413 1_555
O5 Sr2 2.401077 1_555
O5 Sr1 2.401457 1_555
O6 Sr2 2.583503 1_555
O6 Sr0 2.638918 1_555
O6 Sr0 2.969386 1_455
O6 Sr2 3.066243 1_545
O7 Sr3 2.583007 1_555
O7 Sr1 2.638714 1_555
O7 Sr1 2.970095 1_655
O7 Sr3 3.067225 1_565
O8 Sr0 2.583164 1_555
O8 Sr2 2.638236 1_555
O8 Sr2 2.970280 1_655
O8 Sr0 3.066760 1_565
O9 Sr1 2.583311 1_555
O9 Sr3 2.638985 1_555
O9 Sr3 2.969708 1_455
O9 Sr1 3.066847 1_545
