# generated using pymatgen
data_CrSnRh2
_symmetry_space_group_name_H-M   'P 1'
_cell_length_a   4.66731871
_cell_length_b   4.66731871
_cell_length_c   4.66731871
_cell_angle_alpha   127.78248329
_cell_angle_beta   127.78248329
_cell_angle_gamma   76.97766232
_symmetry_Int_Tables_number   1
_chemical_formula_structural   CrSnRh2
_chemical_formula_sum   'Cr1 Sn1 Rh2'
_cell_volume   61.64960507
_cell_formula_units_Z   1
loop_
 _symmetry_equiv_pos_site_id
 _symmetry_equiv_pos_as_xyz
  1  'x, y, z'
loop_
 _atom_site_type_symbol
 _atom_site_label
 _atom_site_symmetry_multiplicity
 _atom_site_fract_x
 _atom_site_fract_y
 _atom_site_fract_z
 _atom_site_occupancy
  Cr  Cr0  1  0.00000000  0.00000000  0.00000000  1
  Sn  Sn0  1  0.50000000  0.50000000  0.00000000  1
  Rh  Rh0  1  0.75000000  0.25000000  0.50000000  1
  Rh  Rh1  1  0.25000000  0.75000000  0.50000000  1
loop_
_geom_bond_atom_site_label_1
_geom_bond_atom_site_label_2
_geom_bond_distance
_geom_bond_site_symmetry_2
Cr0 Rh1 2.748705 1_555
Cr0 Rh0 2.748705 1_444
Cr0 Rh0 2.748705 1_454
Cr0 Rh1 2.748705 1_544
Cr0 Rh1 2.748705 1_545
Cr0 Rh0 2.748705 1_455
Cr0 Rh0 2.748705 1_555
Cr0 Rh1 2.748705 1_444
Cr0 Sn0 2.904762 1_545
Cr0 Sn0 2.904762 1_444
Cr0 Sn0 2.904762 1_455
Cr0 Sn0 2.904762 1_556
Rh0 Sn0 2.748705 1_555
Rh0 Sn0 2.748705 1_556
Rh0 Sn0 2.748705 1_545
Rh0 Sn0 2.748705 1_656
Rh0 Rh1 2.904762 1_645
Rh0 Rh1 2.904762 1_555
Rh0 Rh1 2.904762 1_656
Rh0 Rh1 2.904762 1_544
Rh1 Sn0 2.748705 1_555
Rh1 Sn0 2.748705 1_556
Rh1 Sn0 2.748705 1_566
Rh1 Sn0 2.748705 1_455
