# generated using pymatgen
data_Al2Zn
_symmetry_space_group_name_H-M   'P 1'
_cell_length_a   5.60262612
_cell_length_b   5.60262612
_cell_length_c   13.64387262
_cell_angle_alpha   90.00000000
_cell_angle_beta   90.00000000
_cell_angle_gamma   119.99997501
_symmetry_Int_Tables_number   1
_chemical_formula_structural   Al2Zn
_chemical_formula_sum   'Al16 Zn8'
_cell_volume   370.89559988
_cell_formula_units_Z   8
loop_
 _symmetry_equiv_pos_site_id
 _symmetry_equiv_pos_as_xyz
  1  'x, y, z'
loop_
 _atom_site_type_symbol
 _atom_site_label
 _atom_site_symmetry_multiplicity
 _atom_site_fract_x
 _atom_site_fract_y
 _atom_site_fract_z
 _atom_site_occupancy
  Al  Al0_0  1  0.16666650  0.33333350  0.16575612  1
  Al  Al0_1  1  0.16666650  0.33333350  0.66575613  1
  Al  Al0_2  1  0.16666650  0.83333350  0.16575612  1
  Al  Al0_3  1  0.16666650  0.83333350  0.66575613  1
  Al  Al0_4  1  0.66666650  0.33333350  0.16575612  1
  Al  Al0_5  1  0.66666650  0.33333350  0.66575613  1
  Al  Al0_6  1  0.66666650  0.83333350  0.16575612  1
  Al  Al0_7  1  0.66666650  0.83333350  0.66575613  1
  Al  Al1_0  1  0.33333350  0.16666650  0.33424388  1
  Al  Al1_1  1  0.33333350  0.16666650  0.83424388  1
  Al  Al1_2  1  0.33333350  0.66666650  0.33424388  1
  Al  Al1_3  1  0.33333350  0.66666650  0.83424388  1
  Al  Al1_4  1  0.83333350  0.16666650  0.33424388  1
  Al  Al1_5  1  0.83333350  0.16666650  0.83424388  1
  Al  Al1_6  1  0.83333350  0.66666650  0.33424388  1
  Al  Al1_7  1  0.83333350  0.66666650  0.83424388  1
  Zn  Zn0_0  1  0.00000000  0.00000000  0.00000000  1
  Zn  Zn0_1  1  0.00000000  0.00000000  0.50000000  1
  Zn  Zn0_2  1  0.00000000  0.50000000  0.00000000  1
  Zn  Zn0_3  1  0.00000000  0.50000000  0.50000000  1
  Zn  Zn0_4  1  0.50000000  0.00000000  0.00000000  1
  Zn  Zn0_5  1  0.50000000  0.00000000  0.50000000  1
  Zn  Zn0_6  1  0.50000000  0.50000000  0.00000000  1
  Zn  Zn0_7  1  0.50000000  0.50000000  0.50000000  1
loop_
_geom_bond_atom_site_label_1
_geom_bond_atom_site_label_2
_geom_bond_distance
_geom_bond_site_symmetry_2
Al0_0 Zn0_2 2.780362 1_555
Al0_0 Zn0_6 2.780364 1_555
Al0_0 Zn0_0 2.780364 1_555
Al0_0 Al0_2 2.801313 1_555
Al0_0 Al0_4 2.801313 1_455
Al0_0 Al0_4 2.801313 1_555
Al0_0 Al0_2 2.801313 1_545
Al0_0 Al0_6 2.801314 1_445
Al0_0 Al0_6 2.801314 1_555
Al0_0 Al1_2 2.810761 1_555
Al0_0 Al1_4 2.810761 1_455
Al0_0 Al1_0 2.810764 1_555
Al0_1 Zn0_3 2.780362 1_555
Al0_1 Zn0_1 2.780364 1_555
Al0_1 Zn0_7 2.780364 1_555
Al0_1 Al0_5 2.801313 1_455
Al0_1 Al0_3 2.801313 1_555
Al0_1 Al0_3 2.801313 1_545
Al0_1 Al0_5 2.801313 1_555
Al0_1 Al0_7 2.801314 1_445
Al0_1 Al0_7 2.801314 1_555
Al0_1 Al1_3 2.810761 1_555
Al0_1 Al1_5 2.810761 1_455
Al0_1 Al1_1 2.810764 1_555
Al0_2 Zn0_0 2.780362 1_565
Al0_2 Zn0_4 2.780364 1_565
Al0_2 Zn0_2 2.780364 1_555
Al0_2 Al0_6 2.801313 1_555
Al0_2 Al0_6 2.801313 1_455
Al0_2 Al0_4 2.801314 1_565
Al0_2 Al0_4 2.801314 1_455
Al0_2 Al1_6 2.810761 1_455
Al0_2 Al1_0 2.810761 1_565
Al0_2 Al1_2 2.810764 1_555
Al0_3 Zn0_1 2.780362 1_565
Al0_3 Zn0_3 2.780364 1_555
Al0_3 Zn0_5 2.780364 1_565
Al0_3 Al0_7 2.801313 1_555
Al0_3 Al0_7 2.801313 1_455
Al0_3 Al0_5 2.801314 1_565
Al0_3 Al0_5 2.801314 1_455
Al0_3 Al1_7 2.810761 1_455
Al0_3 Al1_1 2.810761 1_565
Al0_3 Al1_3 2.810764 1_555
Al0_4 Zn0_6 2.780362 1_555
Al0_4 Zn0_4 2.780364 1_555
Al0_4 Zn0_2 2.780364 1_655
Al0_4 Al0_6 2.801313 1_555
Al0_4 Al0_6 2.801313 1_545
Al0_4 Al1_6 2.810761 1_555
Al0_4 Al1_0 2.810761 1_555
Al0_4 Al1_4 2.810764 1_555
Al0_5 Zn0_7 2.780362 1_555
Al0_5 Zn0_3 2.780364 1_655
Al0_5 Zn0_5 2.780364 1_555
Al0_5 Al0_7 2.801313 1_555
Al0_5 Al0_7 2.801313 1_545
Al0_5 Al1_7 2.810761 1_555
Al0_5 Al1_1 2.810761 1_555
Al0_5 Al1_5 2.810764 1_555
Al0_6 Zn0_4 2.780362 1_565
Al0_6 Zn0_0 2.780364 1_665
Al0_6 Zn0_6 2.780364 1_555
Al0_6 Al1_4 2.810761 1_565
Al0_6 Al1_2 2.810761 1_555
Al0_6 Al1_6 2.810764 1_555
Al0_7 Zn0_5 2.780362 1_565
Al0_7 Zn0_1 2.780364 1_665
Al0_7 Zn0_7 2.780364 1_555
Al0_7 Al1_5 2.810761 1_565
Al0_7 Al1_3 2.810761 1_555
Al0_7 Al1_7 2.810764 1_555
Al1_0 Zn0_5 2.780362 1_555
Al1_0 Zn0_7 2.780364 1_555
Al1_0 Zn0_1 2.780364 1_555
Al1_0 Al1_4 2.801313 1_555
Al1_0 Al1_4 2.801313 1_455
Al1_0 Al1_2 2.801313 1_545
Al1_0 Al1_2 2.801313 1_555
Al1_0 Al1_6 2.801314 1_555
Al1_0 Al1_6 2.801314 1_445
Al1_1 Zn0_4 2.780362 1_556
Al1_1 Zn0_0 2.780364 1_556
Al1_1 Zn0_6 2.780364 1_556
Al1_1 Al1_5 2.801313 1_555
Al1_1 Al1_5 2.801313 1_455
Al1_1 Al1_3 2.801313 1_555
Al1_1 Al1_3 2.801313 1_545
Al1_1 Al1_7 2.801314 1_555
Al1_1 Al1_7 2.801314 1_445
Al1_2 Zn0_7 2.780362 1_555
Al1_2 Zn0_3 2.780364 1_555
Al1_2 Zn0_5 2.780364 1_565
Al1_2 Al1_6 2.801313 1_555
Al1_2 Al1_6 2.801313 1_455
Al1_2 Al1_4 2.801314 1_565
Al1_2 Al1_4 2.801314 1_455
Al1_3 Zn0_6 2.780362 1_556
Al1_3 Zn0_2 2.780364 1_556
Al1_3 Zn0_4 2.780364 1_566
Al1_3 Al1_7 2.801313 1_555
Al1_3 Al1_7 2.801313 1_455
Al1_3 Al1_5 2.801314 1_565
Al1_3 Al1_5 2.801314 1_455
Al1_4 Zn0_1 2.780362 1_655
Al1_4 Zn0_3 2.780364 1_655
Al1_4 Zn0_5 2.780364 1_555
Al1_4 Al1_6 2.801313 1_555
Al1_4 Al1_6 2.801313 1_545
Al1_5 Zn0_0 2.780362 1_656
Al1_5 Zn0_4 2.780364 1_556
Al1_5 Zn0_2 2.780364 1_656
Al1_5 Al1_7 2.801313 1_555
Al1_5 Al1_7 2.801313 1_545
Al1_6 Zn0_3 2.780362 1_655
Al1_6 Zn0_7 2.780364 1_555
Al1_6 Zn0_1 2.780364 1_665
Al1_7 Zn0_2 2.780362 1_656
Al1_7 Zn0_6 2.780364 1_556
Al1_7 Zn0_0 2.780364 1_666
Zn0_0 Zn0_4 2.801313 1_555
Zn0_0 Zn0_2 2.801313 1_545
Zn0_0 Zn0_4 2.801313 1_455
Zn0_0 Zn0_2 2.801313 1_555
Zn0_0 Zn0_6 2.801314 1_555
Zn0_0 Zn0_6 2.801314 1_445
Zn0_1 Zn0_5 2.801313 1_555
Zn0_1 Zn0_5 2.801313 1_455
Zn0_1 Zn0_3 2.801313 1_545
Zn0_1 Zn0_3 2.801313 1_555
Zn0_1 Zn0_7 2.801314 1_555
Zn0_1 Zn0_7 2.801314 1_445
Zn0_2 Zn0_6 2.801313 1_555
Zn0_2 Zn0_6 2.801313 1_455
Zn0_2 Zn0_4 2.801314 1_565
Zn0_2 Zn0_4 2.801314 1_455
Zn0_3 Zn0_7 2.801313 1_455
Zn0_3 Zn0_7 2.801313 1_555
Zn0_3 Zn0_5 2.801314 1_565
Zn0_3 Zn0_5 2.801314 1_455
Zn0_4 Zn0_6 2.801313 1_555
Zn0_4 Zn0_6 2.801313 1_545
Zn0_5 Zn0_7 2.801313 1_555
Zn0_5 Zn0_7 2.801313 1_545
