# generated using pymatgen
data_K2TaAgBr6
_symmetry_space_group_name_H-M   'P 1'
_cell_length_a   7.74199901
_cell_length_b   7.74199901
_cell_length_c   7.74199901
_cell_angle_alpha   60.00000000
_cell_angle_beta   60.00000000
_cell_angle_gamma   60.00000000
_symmetry_Int_Tables_number   1
_chemical_formula_structural   K2TaAgBr6
_chemical_formula_sum   'K2 Ta1 Ag1 Br6'
_cell_volume   328.12878963
_cell_formula_units_Z   1
loop_
 _symmetry_equiv_pos_site_id
 _symmetry_equiv_pos_as_xyz
  1  'x, y, z'
loop_
 _atom_site_type_symbol
 _atom_site_label
 _atom_site_symmetry_multiplicity
 _atom_site_fract_x
 _atom_site_fract_y
 _atom_site_fract_z
 _atom_site_occupancy
  K  K0  1  0.25000000  0.25000000  0.25000000  1
  K  K1  1  0.75000000  0.75000000  0.75000000  1
  Ta  Ta0  1  0.50000000  0.50000000  0.50000000  1
  Ag  Ag0  1  0.00000000  0.00000000  0.00000000  1
  Br  Br0  1  0.25940200  0.25940200  0.74059800  1
  Br  Br1  1  0.25940200  0.74059800  0.74059800  1
  Br  Br2  1  0.74059800  0.74059800  0.25940200  1
  Br  Br3  1  0.25940200  0.74059800  0.25940200  1
  Br  Br4  1  0.74059800  0.25940200  0.74059800  1
  Br  Br5  1  0.74059800  0.25940200  0.25940200  1
loop_
_geom_bond_atom_site_label_1
_geom_bond_atom_site_label_2
_geom_bond_distance
_geom_bond_site_symmetry_2
Ag0 Br4 2.840151 1_454
Ag0 Br2 2.840151 1_445
Ag0 Br5 2.840151 1_455
Ag0 Br0 2.840151 1_554
Ag0 Br1 2.840151 1_544
Ag0 Br3 2.840151 1_545
Br0 Ta0 2.634269 1_555
Br0 K1 3.872368 1_545
Br0 K1 3.872368 1_455
Br0 K0 3.872368 1_555
Br0 K0 3.872368 1_556
Br1 Ta0 2.634269 1_555
Br1 K0 3.872368 1_565
Br1 K0 3.872368 1_556
Br1 K1 3.872368 1_455
Br1 K1 3.872368 1_555
Br2 Ta0 2.634269 1_555
Br2 K0 3.872368 1_565
Br2 K0 3.872368 1_655
Br2 K1 3.872368 1_555
Br2 K1 3.872368 1_554
Br3 Ta0 2.634269 1_555
Br3 K0 3.872368 1_565
Br3 K1 3.872368 1_455
Br3 K0 3.872368 1_555
Br3 K1 3.872368 1_554
Br4 Ta0 2.634269 1_555
Br4 K0 3.872368 1_655
Br4 K1 3.872368 1_545
Br4 K0 3.872368 1_556
Br4 K1 3.872368 1_555
Br5 Ta0 2.634269 1_555
Br5 K0 3.872368 1_655
Br5 K1 3.872368 1_545
Br5 K0 3.872368 1_555
Br5 K1 3.872368 1_554
