# generated using pymatgen
data_BaCaFeWO6
_symmetry_space_group_name_H-M   'P 1'
_cell_length_a   5.71633319
_cell_length_b   5.71633319
_cell_length_c   5.71633319
_cell_angle_alpha   60.00000000
_cell_angle_beta   60.00000000
_cell_angle_gamma   60.00000000
_symmetry_Int_Tables_number   1
_chemical_formula_structural   BaCaFeWO6
_chemical_formula_sum   'Ba1 Ca1 Fe1 W1 O6'
_cell_volume   132.08016588
_cell_formula_units_Z   1
loop_
 _symmetry_equiv_pos_site_id
 _symmetry_equiv_pos_as_xyz
  1  'x, y, z'
loop_
 _atom_site_type_symbol
 _atom_site_label
 _atom_site_symmetry_multiplicity
 _atom_site_fract_x
 _atom_site_fract_y
 _atom_site_fract_z
 _atom_site_occupancy
  Ba  Ba0  1  0.75000000  0.75000000  0.75000000  1
  Ca  Ca0  1  0.25000000  0.25000000  0.25000000  1
  Fe  Fe0  1  -0.00000000  0.00000000  0.00000000  1
  W  W0  1  0.50000000  0.50000000  0.50000000  1
  O  O0  1  0.74468133  0.25531867  0.25531867  1
  O  O1  1  0.25531867  0.74468133  0.74468133  1
  O  O2  1  0.74468133  0.25531867  0.74468133  1
  O  O3  1  0.25531867  0.74468133  0.25531867  1
  O  O4  1  0.74468133  0.74468133  0.25531867  1
  O  O5  1  0.25531867  0.25531867  0.74468133  1
loop_
_geom_bond_atom_site_label_1
_geom_bond_atom_site_label_2
_geom_bond_distance
_geom_bond_site_symmetry_2
Ba0 O2 2.858490 1_555
Ba0 O4 2.858490 1_555
Ba0 O3 2.858490 1_655
Ba0 O5 2.858490 1_655
Ba0 O0 2.858490 1_556
Ba0 O5 2.858490 1_565
Ba0 O3 2.858490 1_556
Ba0 O2 2.858490 1_565
Ba0 O1 2.858490 1_555
Ba0 O4 2.858490 1_556
Ba0 O0 2.858490 1_565
Ba0 O1 2.858490 1_655
Ca0 O3 2.858490 1_545
Ca0 O5 2.858490 1_554
Ca0 O2 2.858490 1_554
Ca0 O2 2.858490 1_455
Ca0 O1 2.858490 1_545
Ca0 O0 2.858490 1_455
Ca0 O4 2.858490 1_545
Ca0 O3 2.858490 1_555
Ca0 O4 2.858490 1_455
Ca0 O1 2.858490 1_554
Ca0 O5 2.858490 1_555
Ca0 O0 2.858490 1_555
Fe0 O2 2.064026 1_454
Fe0 O4 2.064026 1_445
Fe0 O1 2.064026 1_544
Fe0 O5 2.064026 1_554
Fe0 O0 2.064026 1_455
Fe0 O3 2.064026 1_545
O0 W0 1.978032 1_555
O1 W0 1.978032 1_555
O2 W0 1.978032 1_555
O3 W0 1.978032 1_555
O4 W0 1.978032 1_555
O5 W0 1.978032 1_555
