# generated using pymatgen
data_HfAlFe
_symmetry_space_group_name_H-M   'P 1'
_cell_length_a   5.10888327
_cell_length_b   5.10888327
_cell_length_c   8.27893400
_cell_angle_alpha   90.00000000
_cell_angle_beta   90.00000000
_cell_angle_gamma   120.28900330
_symmetry_Int_Tables_number   1
_chemical_formula_structural   HfAlFe
_chemical_formula_sum   'Hf4 Al4 Fe4'
_cell_volume   186.58850464
_cell_formula_units_Z   4
loop_
 _symmetry_equiv_pos_site_id
 _symmetry_equiv_pos_as_xyz
  1  'x, y, z'
loop_
 _atom_site_type_symbol
 _atom_site_label
 _atom_site_symmetry_multiplicity
 _atom_site_fract_x
 _atom_site_fract_y
 _atom_site_fract_z
 _atom_site_occupancy
  Hf  Hf0  1  0.33277000  0.66723000  0.18168000  1
  Hf  Hf1  1  0.66306800  0.33693200  0.29492800  1
  Hf  Hf2  1  0.66306800  0.33693200  0.70507200  1
  Hf  Hf3  1  0.33277000  0.66723000  0.81832000  1
  Al  Al0  1  0.83305000  0.16695000  0.00000000  1
  Al  Al1  1  0.16552000  0.33134700  0.50000000  1
  Al  Al2  1  0.66865300  0.83448000  0.50000000  1
  Al  Al3  1  0.16618600  0.83381400  0.50000000  1
  Fe  Fe0  1  0.00299200  0.99700800  0.24534300  1
  Fe  Fe1  1  0.00299200  0.99700800  0.75465700  1
  Fe  Fe2  1  0.83516300  0.66613600  0.00000000  1
  Fe  Fe3  1  0.33386400  0.16483700  0.00000000  1
loop_
_geom_bond_atom_site_label_1
_geom_bond_atom_site_label_2
_geom_bond_distance
_geom_bond_site_symmetry_2
Hf0 Hf3 3.008233 1_554
Hf0 Hf1 3.073497 1_555
Hf0 Hf1 3.099815 1_565
Hf0 Hf1 3.099815 1_455
Hf1 Hf2 3.395555 1_555
Hf2 Hf3 3.073497 1_555
Hf2 Hf3 3.099815 1_545
Hf2 Hf3 3.099815 1_655
Al0 Fe0 2.528566 1_645
Al0 Fe1 2.528566 1_644
Al0 Fe3 2.544855 1_555
Al0 Fe2 2.544855 1_555
Al0 Fe2 2.564062 1_545
Al0 Fe3 2.564062 1_655
Al0 Hf1 2.868950 1_555
Al0 Hf2 2.868950 1_554
Al0 Hf3 2.954762 1_544
Al0 Hf3 2.954762 1_654
Al0 Hf0 2.954762 1_545
Al0 Hf0 2.954762 1_655
Al1 Al2 2.527339 1_445
Al1 Al3 2.543556 1_545
Al1 Al2 2.559211 1_555
Al1 Al3 2.565331 1_555
Al1 Fe1 2.573183 1_545
Al1 Fe0 2.573183 1_545
Al1 Hf0 3.023367 1_555
Al1 Hf3 3.023367 1_555
Al1 Hf2 3.044903 1_555
Al1 Hf1 3.044903 1_555
Al1 Hf2 3.089737 1_455
Al1 Hf1 3.089737 1_455
Al2 Al3 2.543556 1_655
Al2 Al3 2.565331 1_555
Al2 Fe1 2.573183 1_655
Al2 Fe0 2.573183 1_655
Al2 Hf3 3.023367 1_555
Al2 Hf0 3.023367 1_555
Al2 Hf2 3.044903 1_555
Al2 Hf1 3.044903 1_555
Al2 Hf2 3.089737 1_565
Al2 Hf1 3.089737 1_565
Al3 Fe1 2.556620 1_555
Al3 Fe0 2.556620 1_555
Al3 Hf0 3.020644 1_555
Al3 Hf3 3.020644 1_555
Al3 Hf2 3.058016 1_455
Al3 Hf2 3.058016 1_565
Al3 Hf1 3.058016 1_455
Al3 Hf1 3.058016 1_565
Fe0 Fe3 2.501249 1_565
Fe0 Fe2 2.501249 1_455
Fe0 Hf1 2.940925 1_565
Fe0 Hf1 2.940925 1_455
Fe0 Hf0 2.969543 1_555
Fe0 Hf0 3.003578 1_455
Fe0 Hf0 3.003578 1_565
Fe0 Hf1 3.040148 1_465
Fe1 Fe3 2.501249 1_566
Fe1 Fe2 2.501249 1_456
Fe1 Hf2 2.940925 1_455
Fe1 Hf2 2.940925 1_565
Fe1 Hf3 2.969543 1_555
Fe1 Hf3 3.003578 1_455
Fe1 Hf3 3.003578 1_565
Fe1 Hf2 3.040148 1_465
Fe2 Fe3 2.536668 1_665
Fe2 Fe3 2.549882 1_555
Fe2 Hf1 2.841112 1_555
Fe2 Hf2 2.841112 1_554
Fe2 Hf3 2.951428 1_654
Fe2 Hf0 2.951428 1_655
Fe2 Hf3 2.977356 1_554
Fe2 Hf0 2.977356 1_555
Fe3 Hf1 2.841112 1_555
Fe3 Hf2 2.841112 1_554
Fe3 Hf3 2.951428 1_544
Fe3 Hf0 2.951428 1_545
Fe3 Hf3 2.977356 1_554
Fe3 Hf0 2.977356 1_555
