# generated using pymatgen
data_NaLi2MnPCO7
_symmetry_space_group_name_H-M   'P 1'
_cell_length_a   5.10554277
_cell_length_b   17.53859087
_cell_length_c   6.78358350
_cell_angle_alpha   82.81888171
_cell_angle_beta   90.61669049
_cell_angle_gamma   87.72916094
_symmetry_Int_Tables_number   1
_chemical_formula_structural   NaLi2MnPCO7
_chemical_formula_sum   'Na4 Li8 Mn4 P4 C4 O28'
_cell_volume   602.11571706
_cell_formula_units_Z   4
loop_
 _symmetry_equiv_pos_site_id
 _symmetry_equiv_pos_as_xyz
  1  'x, y, z'
loop_
 _atom_site_type_symbol
 _atom_site_label
 _atom_site_symmetry_multiplicity
 _atom_site_fract_x
 _atom_site_fract_y
 _atom_site_fract_z
 _atom_site_occupancy
  Na  Na0  1  0.24994700  0.11931700  0.52474100  1
  Na  Na1  1  0.24978700  0.61927200  0.52470600  1
  Na  Na2  1  0.75005300  0.38073200  0.47521300  1
  Na  Na3  1  0.75024700  0.88073000  0.47512400  1
  Li  Li0  1  0.73233600  0.04477600  0.17885300  1
  Li  Li1  1  0.73233700  0.54476800  0.17881200  1
  Li  Li2  1  0.26764400  0.45523000  0.82113900  1
  Li  Li3  1  0.26776200  0.95520300  0.82107600  1
  Li  Li4  1  0.22698900  0.14704500  0.06817700  1
  Li  Li5  1  0.22684600  0.64696400  0.06796400  1
  Li  Li6  1  0.77311700  0.35298700  0.93174200  1
  Li  Li7  1  0.77325400  0.85297500  0.93189400  1
  Mn  Mn0  1  0.77887100  0.67652600  0.77190600  1
  Mn  Mn1  1  0.22155000  0.82356700  0.22849100  1
  Mn  Mn2  1  0.77907900  0.17639800  0.77238400  1
  Mn  Mn3  1  0.22035000  0.32347200  0.22787800  1
  P  P0  1  0.71915500  0.20783600  0.25430500  1
  P  P1  1  0.71914800  0.70779200  0.25421100  1
  P  P2  1  0.28085700  0.29218800  0.74569000  1
  P  P3  1  0.28089500  0.79219600  0.74577200  1
  C  C0  1  0.73296700  0.01730200  0.76779600  1
  C  C1  1  0.73278300  0.51730000  0.76795000  1
  C  C2  1  0.26705900  0.48268200  0.23218000  1
  C  C3  1  0.26702000  0.98272400  0.23215100  1
  O  O0  1  0.34972700  0.05100400  0.24585600  1
  O  O1  1  0.34966800  0.55105500  0.24586400  1
  O  O2  1  0.65019000  0.44899700  0.75415600  1
  O  O3  1  0.65035800  0.94895700  0.75408200  1
  O  O4  1  0.97878900  0.03240200  0.76380800  1
  O  O5  1  0.97867300  0.53241700  0.76429300  1
  O  O6  1  0.02130100  0.46758600  0.23617900  1
  O  O7  1  0.02113400  0.96758900  0.23613500  1
  O  O8  1  0.55798500  0.07225800  0.78977700  1
  O  O9  1  0.55784800  0.57230500  0.78956300  1
  O  O10  1  0.44187300  0.42769500  0.21024900  1
  O  O11  1  0.44198400  0.92772400  0.21018100  1
  O  O12  1  0.82670600  0.15514800  0.10001600  1
  O  O13  1  0.82677400  0.65514000  0.09998900  1
  O  O14  1  0.17327700  0.34482700  0.90002000  1
  O  O15  1  0.17322300  0.84481500  0.90007700  1
  O  O16  1  0.81097200  0.17003900  0.46140500  1
  O  O17  1  0.81085100  0.67000300  0.46140100  1
  O  O18  1  0.18906200  0.33002000  0.53856400  1
  O  O19  1  0.18922300  0.82999600  0.53857700  1
  O  O20  1  0.41288700  0.21321800  0.23943000  1
  O  O21  1  0.41289900  0.71312500  0.23911700  1
  O  O22  1  0.58714000  0.28680600  0.76063200  1
  O  O23  1  0.58714800  0.78689500  0.76082800  1
  O  O24  1  0.18306700  0.20881700  0.79174200  1
  O  O25  1  0.18311700  0.70884300  0.79153700  1
  O  O26  1  0.81709800  0.29116600  0.20807800  1
  O  O27  1  0.81697400  0.79116900  0.20828900  1
loop_
_geom_bond_atom_site_label_1
_geom_bond_atom_site_label_2
_geom_bond_distance
_geom_bond_site_symmetry_2
Na0 O16 2.392632 1_455
Na0 O0 2.411041 1_555
Na0 O8 2.419151 1_555
Na0 O4 2.543187 1_455
Na0 O20 2.548828 1_555
Na0 O24 2.557878 1_555
Na1 O17 2.392472 1_455
Na1 O1 2.409909 1_555
Na1 O9 2.418024 1_555
Na1 O5 2.544497 1_455
Na1 O21 2.549957 1_555
Na1 O25 2.557715 1_555
Na2 O18 2.392750 1_655
Na2 O2 2.410966 1_555
Na2 O10 2.418894 1_555
Na2 O6 2.542745 1_655
Na2 O22 2.549526 1_555
Na2 O26 2.559498 1_555
Na3 O19 2.392800 1_655
Na3 O3 2.410689 1_555
Na3 O11 2.419182 1_555
Na3 O7 2.541559 1_655
Na3 O23 2.550288 1_555
Na3 O27 2.557648 1_555
Li0 O7 1.963585 1_645
Li0 O0 2.012216 1_555
Li0 O12 2.021382 1_555
Li1 O6 1.964201 1_655
Li1 O1 2.012640 1_555
Li1 O13 2.021464 1_555
Li2 O5 1.963919 1_455
Li2 O2 2.011874 1_555
Li2 O14 2.021930 1_555
Li3 O4 1.964354 1_465
Li3 O3 2.012150 1_555
Li3 O15 2.022050 1_555
Li4 O20 1.999491 1_555
Li4 O0 2.018719 1_555
Li4 O24 2.050426 1_554
Li4 O12 2.058533 1_455
Li5 O21 1.999299 1_555
Li5 O1 2.017840 1_555
Li5 O25 2.051073 1_554
Li5 O13 2.057678 1_455
Li6 O22 1.999155 1_555
Li6 O2 2.018265 1_555
Li6 O26 2.050233 1_556
Li6 O14 2.057855 1_655
Li7 O23 1.998096 1_555
Li7 O3 2.018606 1_555
Li7 O27 2.050360 1_556
Li7 O15 2.056969 1_655
Mn0 O23 2.126661 1_555
Mn0 O17 2.131331 1_555
Mn0 O25 2.168942 1_655
Mn0 O9 2.177278 1_555
Mn0 O13 2.219462 1_556
Mn1 O21 2.127248 1_555
Mn1 O19 2.128365 1_555
Mn1 O27 2.171326 1_455
Mn1 O11 2.174469 1_555
Mn1 O15 2.221771 1_554
Mn2 O22 2.127359 1_555
Mn2 O16 2.133996 1_555
Mn2 O24 2.168071 1_655
Mn2 O8 2.176346 1_555
Mn2 O12 2.216239 1_556
Mn3 O20 2.126372 1_555
Mn3 O18 2.132332 1_555
Mn3 O26 2.164102 1_455
Mn3 O10 2.178727 1_555
Mn3 O14 2.217555 1_554
C0 O4 1.292792 1_555
C0 O3 1.300177 1_545
C0 O8 1.311460 1_555
C1 O5 1.293192 1_555
C1 O2 1.299552 1_555
C1 O9 1.311395 1_555
C2 O6 1.292455 1_555
C2 O1 1.300603 1_555
C2 O10 1.311221 1_555
C3 O7 1.293259 1_555
C3 O0 1.299270 1_565
C3 O11 1.311942 1_555
O12 P0 1.569978 1_555
O13 P1 1.569353 1_555
O14 P2 1.569669 1_555
O15 P3 1.569469 1_555
O16 P0 1.536634 1_555
O17 P1 1.536952 1_555
O18 P2 1.536941 1_555
O19 P3 1.536996 1_555
O20 P0 1.564182 1_555
O21 P1 1.564144 1_555
O22 P2 1.564279 1_555
O23 P3 1.564145 1_555
O24 P2 1.559464 1_555
O25 P3 1.558983 1_555
O26 P0 1.559183 1_555
O27 P1 1.559552 1_555
