# generated using pymatgen
data_Te7WBr5O
_symmetry_space_group_name_H-M   'P 1'
_cell_length_a   7.77282200
_cell_length_b   8.70958500
_cell_length_c   27.61062500
_cell_angle_alpha   90.00000000
_cell_angle_beta   90.00000000
_cell_angle_gamma   90.00000000
_symmetry_Int_Tables_number   1
_chemical_formula_structural   Te7WBr5O
_chemical_formula_sum   'Te28 W4 Br20 O4'
_cell_volume   1869.18557943
_cell_formula_units_Z   4
loop_
 _symmetry_equiv_pos_site_id
 _symmetry_equiv_pos_as_xyz
  1  'x, y, z'
loop_
 _atom_site_type_symbol
 _atom_site_label
 _atom_site_symmetry_multiplicity
 _atom_site_fract_x
 _atom_site_fract_y
 _atom_site_fract_z
 _atom_site_occupancy
  Te  Te0  1  0.00000000  0.00000000  0.50000000  1
  Te  Te1  1  0.00000000  0.00000000  0.00000000  1
  Te  Te2  1  0.50000000  0.00000000  0.00000000  1
  Te  Te3  1  0.50000000  0.00000000  0.50000000  1
  Te  Te4  1  0.08489200  0.21226100  0.41752600  1
  Te  Te5  1  0.08489200  0.78773900  0.08247400  1
  Te  Te6  1  0.41510800  0.78773900  0.91752600  1
  Te  Te7  1  0.41510800  0.21226100  0.58247400  1
  Te  Te8  1  0.91510800  0.78773900  0.58247400  1
  Te  Te9  1  0.91510800  0.21226100  0.91752600  1
  Te  Te10  1  0.58489200  0.21226100  0.08247400  1
  Te  Te11  1  0.58489200  0.78773900  0.41752600  1
  Te  Te12  1  0.95537900  0.73770500  0.43234900  1
  Te  Te13  1  0.95537900  0.26229500  0.06765100  1
  Te  Te14  1  0.54462100  0.26229500  0.93234900  1
  Te  Te15  1  0.54462100  0.73770500  0.56765100  1
  Te  Te16  1  0.04462100  0.26229500  0.56765100  1
  Te  Te17  1  0.04462100  0.73770500  0.93234900  1
  Te  Te18  1  0.45537900  0.73770500  0.06765100  1
  Te  Te19  1  0.45537900  0.26229500  0.43234900  1
  Te  Te20  1  0.08447200  0.94474700  0.36345200  1
  Te  Te21  1  0.08447200  0.05525300  0.13654800  1
  Te  Te22  1  0.41552800  0.05525300  0.86345200  1
  Te  Te23  1  0.41552800  0.94474700  0.63654800  1
  Te  Te24  1  0.91552800  0.05525300  0.63654800  1
  Te  Te25  1  0.91552800  0.94474700  0.86345200  1
  Te  Te26  1  0.58447200  0.94474700  0.13654800  1
  Te  Te27  1  0.58447200  0.05525300  0.36345200  1
  W  W0  1  0.26121000  0.50000000  0.75000000  1
  W  W1  1  0.23879000  0.50000000  0.25000000  1
  W  W2  1  0.73879000  0.50000000  0.25000000  1
  W  W3  1  0.76121000  0.50000000  0.75000000  1
  Br  Br0  1  0.25179800  0.55766100  0.65871600  1
  Br  Br1  1  0.25179800  0.44233900  0.84128400  1
  Br  Br2  1  0.24820200  0.44233900  0.15871600  1
  Br  Br3  1  0.24820200  0.55766100  0.34128400  1
  Br  Br4  1  0.74820200  0.44233900  0.34128400  1
  Br  Br5  1  0.74820200  0.55766100  0.15871600  1
  Br  Br6  1  0.75179800  0.55766100  0.84128400  1
  Br  Br7  1  0.75179800  0.44233900  0.65871600  1
  Br  Br8  1  0.25519400  0.78782000  0.76817600  1
  Br  Br9  1  0.25519400  0.21218000  0.73182400  1
  Br  Br10  1  0.24480600  0.21218000  0.26817600  1
  Br  Br11  1  0.24480600  0.78782000  0.23182400  1
  Br  Br12  1  0.74480600  0.21218000  0.23182400  1
  Br  Br13  1  0.74480600  0.78782000  0.26817600  1
  Br  Br14  1  0.75519400  0.78782000  0.73182400  1
  Br  Br15  1  0.75519400  0.21218000  0.76817600  1
  Br  Br16  1  0.25000000  0.51490400  0.50000000  1
  Br  Br17  1  0.25000000  0.48509600  0.00000000  1
  Br  Br18  1  0.75000000  0.48509600  0.50000000  1
  Br  Br19  1  0.75000000  0.51490400  0.00000000  1
  O  O0  1  0.50670600  0.50000000  0.75000000  1
  O  O1  1  0.99329400  0.50000000  0.25000000  1
  O  O2  1  0.49329400  0.50000000  0.25000000  1
  O  O3  1  0.00670600  0.50000000  0.75000000  1
loop_
_geom_bond_atom_site_label_1
_geom_bond_atom_site_label_2
_geom_bond_distance
_geom_bond_site_symmetry_2
Te0 Te16 2.971219 1_555
Te0 Te12 2.971219 1_445
Te0 Te8 3.006421 1_445
Te0 Te4 3.006421 1_555
Te1 Te13 2.971219 1_455
Te1 Te17 2.971219 1_544
Te1 Te5 3.006421 1_545
Te1 Te9 3.006421 1_454
Te2 Te6 3.006421 1_544
Te3 Te7 3.006421 1_555
Te10 Te26 2.767257 1_545
Te10 Te13 2.941130 1_555
Te10 Te2 3.006421 1_555
Te11 Te27 2.767257 1_565
Te11 Te12 2.941130 1_555
Te11 Te3 3.006421 1_565
Te12 Te20 2.806646 1_655
Te13 Te21 2.806646 1_655
Te14 Te22 2.806646 1_555
Te14 Te9 2.941130 1_555
Te14 Te2 2.971219 1_556
Te15 Te23 2.806646 1_555
Te15 Te8 2.941130 1_555
Te15 Te3 2.971219 1_565
Te16 Te24 2.806646 1_455
Te16 Te7 2.941130 1_555
Te17 Te25 2.806646 1_455
Te17 Te6 2.941130 1_555
Te18 Te26 2.806646 1_555
Te18 Te5 2.941130 1_555
Te18 Te2 2.971219 1_565
Te19 Te27 2.806646 1_555
Te19 Te4 2.941130 1_555
Te19 Te3 2.971219 1_555
Te20 Te4 2.767257 1_565
Te21 Te5 2.767257 1_545
Te22 Te6 2.767257 1_545
Te23 Te7 2.767257 1_565
Te24 Te8 2.767257 1_545
Te25 Te9 2.767257 1_565
Br0 W0 2.570996 1_555
Br1 W0 2.570996 1_555
Br2 W1 2.570996 1_555
Br3 W1 2.570996 1_555
Br4 W2 2.570996 1_555
Br5 W2 2.570996 1_555
Br6 W3 2.570996 1_555
Br7 W3 2.570996 1_555
Br8 W0 2.556961 1_555
Br9 W0 2.556961 1_555
Br10 W1 2.556961 1_555
Br11 W1 2.556961 1_555
Br12 W2 2.556961 1_555
Br13 W2 2.556961 1_555
Br14 W3 2.556961 1_555
Br15 W3 2.556961 1_555
Br16 Te19 3.298172 1_555
Br16 Te16 3.298172 1_555
Br17 Te18 3.298172 1_555
Br17 Te17 3.298172 1_554
Br18 Te12 3.298172 1_555
Br18 Te15 3.298172 1_555
Br19 Te14 3.298172 1_554
Br19 Te13 3.298172 1_555
O0 W0 1.908197 1_555
O0 W3 1.978214 1_555
O1 W1 1.908197 1_655
O1 W2 1.978214 1_555
O2 W2 1.908197 1_555
O2 W1 1.978214 1_555
O3 W3 1.908197 1_455
O3 W0 1.978214 1_555
