# generated using pymatgen
data_SiO2
_symmetry_space_group_name_H-M   'P 1'
_cell_length_a   13.85788285
_cell_length_b   24.31510144
_cell_length_c   18.38014245
_cell_angle_alpha   90.00000671
_cell_angle_beta   90.00001255
_cell_angle_gamma   90.00000852
_symmetry_Int_Tables_number   1
_chemical_formula_structural   SiO2
_chemical_formula_sum   'Si112 O224'
_cell_volume   6193.29610405
_cell_formula_units_Z   112
loop_
 _symmetry_equiv_pos_site_id
 _symmetry_equiv_pos_as_xyz
  1  'x, y, z'
loop_
 _atom_site_type_symbol
 _atom_site_label
 _atom_site_symmetry_multiplicity
 _atom_site_fract_x
 _atom_site_fract_y
 _atom_site_fract_z
 _atom_site_occupancy
  Si  Si0  1  0.61687218  0.47101595  0.42333391  1
  Si  Si1  1  0.11687204  0.97101591  0.42333384  1
  Si  Si2  1  0.38873341  0.47102071  0.42333286  1
  Si  Si3  1  0.88873364  0.97102060  0.42333299  1
  Si  Si4  1  0.61687214  0.02898411  0.92333390  1
  Si  Si5  1  0.11687197  0.52898410  0.92333395  1
  Si  Si6  1  0.38873329  0.02897937  0.92333300  1
  Si  Si7  1  0.88873350  0.52897932  0.92333309  1
  Si  Si8  1  0.38873351  0.52897921  0.57666711  1
  Si  Si9  1  0.88873344  0.02897936  0.57666713  1
  Si  Si10  1  0.61687216  0.52898402  0.57666618  1
  Si  Si11  1  0.11687210  0.02898413  0.57666619  1
  Si  Si12  1  0.38873340  0.97102056  0.07666712  1
  Si  Si13  1  0.88873334  0.47102072  0.07666710  1
  Si  Si14  1  0.61687205  0.97101589  0.07666606  1
  Si  Si15  1  0.11687196  0.47101591  0.07666607  1
  Si  Si16  1  0.68398694  0.56537492  0.31629480  1
  Si  Si17  1  0.18398727  0.06537478  0.31629470  1
  Si  Si18  1  0.32162277  0.56537669  0.31629526  1
  Si  Si19  1  0.82162278  0.06537696  0.31629556  1
  Si  Si20  1  0.68398714  0.93462522  0.81629474  1
  Si  Si21  1  0.18398708  0.43462502  0.81629483  1
  Si  Si22  1  0.32162269  0.93462317  0.81629539  1
  Si  Si23  1  0.82162274  0.43462309  0.81629560  1
  Si  Si24  1  0.32162281  0.43462312  0.68370441  1
  Si  Si25  1  0.82162272  0.93462323  0.68370471  1
  Si  Si26  1  0.68398701  0.43462505  0.68370536  1
  Si  Si27  1  0.18398720  0.93462523  0.68370530  1
  Si  Si28  1  0.32162265  0.06537675  0.18370465  1
  Si  Si29  1  0.82162283  0.56537690  0.18370443  1
  Si  Si30  1  0.68398710  0.06537495  0.18370519  1
  Si  Si31  1  0.18398720  0.56537475  0.18370541  1
  Si  Si32  1  0.79312561  0.65443870  0.41465291  1
  Si  Si33  1  0.29312529  0.15443880  0.41465286  1
  Si  Si34  1  0.21247098  0.65443121  0.41465400  1
  Si  Si35  1  0.71247097  0.15443128  0.41465382  1
  Si  Si36  1  0.79312557  0.84556139  0.91465288  1
  Si  Si37  1  0.29312555  0.34556129  0.91465298  1
  Si  Si38  1  0.21247079  0.84556875  0.91465385  1
  Si  Si39  1  0.71247089  0.34556875  0.91465409  1
  Si  Si40  1  0.21247109  0.34556874  0.58534594  1
  Si  Si41  1  0.71247104  0.84556879  0.58534613  1
  Si  Si42  1  0.79312555  0.34556125  0.58534711  1
  Si  Si43  1  0.29312536  0.84556131  0.58534707  1
  Si  Si44  1  0.21247108  0.15443130  0.08534616  1
  Si  Si45  1  0.71247090  0.65443117  0.08534603  1
  Si  Si46  1  0.79312570  0.15443868  0.08534691  1
  Si  Si47  1  0.29312554  0.65443859  0.08534721  1
  Si  Si48  1  0.69742911  0.64771906  0.56637020  1
  Si  Si49  1  0.19742913  0.14771903  0.56637043  1
  Si  Si50  1  0.30816391  0.64771297  0.56636432  1
  Si  Si51  1  0.80816362  0.14771307  0.56636446  1
  Si  Si52  1  0.69742905  0.85228099  0.06637026  1
  Si  Si53  1  0.19742912  0.35228092  0.06637025  1
  Si  Si54  1  0.30816377  0.85228698  0.06636411  1
  Si  Si55  1  0.80816388  0.35228701  0.06636431  1
  Si  Si56  1  0.30816387  0.35228705  0.43363565  1
  Si  Si57  1  0.80816368  0.85228690  0.43363581  1
  Si  Si58  1  0.69742915  0.35228097  0.43362961  1
  Si  Si59  1  0.19742910  0.85228099  0.43362954  1
  Si  Si60  1  0.30816374  0.14771303  0.93363574  1
  Si  Si61  1  0.80816365  0.64771317  0.93363595  1
  Si  Si62  1  0.69742936  0.14771900  0.93362962  1
  Si  Si63  1  0.19742894  0.64771905  0.93362960  1
  Si  Si64  1  0.71659152  0.76402978  0.33290814  1
  Si  Si65  1  0.21659164  0.26402987  0.33290815  1
  Si  Si66  1  0.28901065  0.76402697  0.33291719  1
  Si  Si67  1  0.78901073  0.26402701  0.33291713  1
  Si  Si68  1  0.71659140  0.73597027  0.83290808  1
  Si  Si69  1  0.21659150  0.23597020  0.83290817  1
  Si  Si70  1  0.28901063  0.73597303  0.83291718  1
  Si  Si71  1  0.78901069  0.23597299  0.83291712  1
  Si  Si72  1  0.28901077  0.23597311  0.66708282  1
  Si  Si73  1  0.78901066  0.73597318  0.66708280  1
  Si  Si74  1  0.71659164  0.23597011  0.66709195  1
  Si  Si75  1  0.21659160  0.73597011  0.66709186  1
  Si  Si76  1  0.28901074  0.26402695  0.16708284  1
  Si  Si77  1  0.78901081  0.76402693  0.16708285  1
  Si  Si78  1  0.71659152  0.26402993  0.16709188  1
  Si  Si79  1  0.21659149  0.76402957  0.16709184  1
  Si  Si80  1  0.50279531  0.71228181  0.53348008  1
  Si  Si81  1  0.00279529  0.21228180  0.53347994  1
  Si  Si82  1  0.50279525  0.78771814  0.03348017  1
  Si  Si83  1  0.00279534  0.28771814  0.03348006  1
  Si  Si84  1  0.50279537  0.28771817  0.46651972  1
  Si  Si85  1  0.00279522  0.78771803  0.46651995  1
  Si  Si86  1  0.50279546  0.21228180  0.96651991  1
  Si  Si87  1  0.00279522  0.71228190  0.96651974  1
  Si  Si88  1  0.50281062  0.74366682  0.37250450  1
  Si  Si89  1  0.00281063  0.24366686  0.37250445  1
  Si  Si90  1  0.50281070  0.75633321  0.87250453  1
  Si  Si91  1  0.00281070  0.25633307  0.87250454  1
  Si  Si92  1  0.50281073  0.25633336  0.62749562  1
  Si  Si93  1  0.00281083  0.75633311  0.62749540  1
  Si  Si94  1  0.50281077  0.24366679  0.12749564  1
  Si  Si95  1  0.00281075  0.74366692  0.12749545  1
  Si  Si96  1  0.50280367  0.64016232  0.28446289  1
  Si  Si97  1  0.00280377  0.14016244  0.28446297  1
  Si  Si98  1  0.50280385  0.85983770  0.78446291  1
  Si  Si99  1  0.00280389  0.35983756  0.78446290  1
  Si  Si100  1  0.50280398  0.35983763  0.71553686  1
  Si  Si101  1  0.00280374  0.85983773  0.71553706  1
  Si  Si102  1  0.50280388  0.14016249  0.21553697  1
  Si  Si103  1  0.00280389  0.64016224  0.21553713  1
  Si  Si104  1  0.00281390  0.68361050  0.37164859  1
  Si  Si105  1  0.50281392  0.18361072  0.37164819  1
  Si  Si106  1  0.00281394  0.81638948  0.87164860  1
  Si  Si107  1  0.50281397  0.31638955  0.87164846  1
  Si  Si108  1  0.00281394  0.31638953  0.62835157  1
  Si  Si109  1  0.50281390  0.81638948  0.62835163  1
  Si  Si110  1  0.00281390  0.18361047  0.12835157  1
  Si  Si111  1  0.50281390  0.68361054  0.12835155  1
  O  O0  1  0.64686917  0.49999998  0.50000004  1
  O  O1  1  0.14686813  0.00000002  0.49999998  1
  O  O2  1  0.35871599  0.50000002  0.49999993  1
  O  O3  1  0.85871577  0.00000008  0.49999999  1
  O  O4  1  0.64686913  -0.00000005  0.00000000  1
  O  O5  1  0.14686878  0.49999997  -0.00000004  1
  O  O6  1  0.35871623  0.99999995  0.00000004  1
  O  O7  1  0.85871562  0.49999999  0.00000003  1
  O  O8  1  0.50280448  0.45510733  0.42445695  1
  O  O9  1  0.00280448  0.95510655  0.42445675  1
  O  O10  1  0.50280440  0.04489286  0.92445685  1
  O  O11  1  0.00280444  0.54489308  0.92445684  1
  O  O12  1  0.50280452  0.54489279  0.57554314  1
  O  O13  1  0.00280444  0.04489294  0.57554328  1
  O  O14  1  0.50280443  0.95510678  0.07554324  1
  O  O15  1  0.00280434  0.45510692  0.07554315  1
  O  O16  1  0.63810972  0.51200916  0.35579711  1
  O  O17  1  0.13811006  0.01200932  0.35579771  1
  O  O18  1  0.36747736  0.51201059  0.35579687  1
  O  O19  1  0.86747673  0.01201083  0.35579752  1
  O  O20  1  0.63810991  0.98799060  0.85579765  1
  O  O21  1  0.13811018  0.48799062  0.85579769  1
  O  O22  1  0.36747688  0.98798924  0.85579734  1
  O  O23  1  0.86747700  0.48798932  0.85579739  1
  O  O24  1  0.36747728  0.48798950  0.64420321  1
  O  O25  1  0.86747731  0.98798947  0.64420318  1
  O  O26  1  0.63811003  0.48799071  0.64420266  1
  O  O27  1  0.13810967  0.98799078  0.64420266  1
  O  O28  1  0.36747710  0.01201076  0.14420267  1
  O  O29  1  0.86747727  0.51201051  0.14420327  1
  O  O30  1  0.63810995  0.01200932  0.14420254  1
  O  O31  1  0.13810982  0.51200928  0.14420247  1
  O  O32  1  0.68099199  0.41603691  0.41097628  1
  O  O33  1  0.18099189  0.91603699  0.41097658  1
  O  O34  1  0.32459300  0.41604519  0.41097794  1
  O  O35  1  0.82459349  0.91604499  0.41097854  1
  O  O36  1  0.68099217  0.08396304  0.91097619  1
  O  O37  1  0.18099191  0.58396304  0.91097664  1
  O  O38  1  0.32459297  0.08395487  0.91097819  1
  O  O39  1  0.82459416  0.58395513  0.91097912  1
  O  O40  1  0.32459335  0.58395482  0.58902160  1
  O  O41  1  0.82459327  0.08395494  0.58902152  1
  O  O42  1  0.68099163  0.58396315  0.58902351  1
  O  O43  1  0.18099219  0.08396305  0.58902363  1
  O  O44  1  0.32459288  0.91604506  0.08902185  1
  O  O45  1  0.82459306  0.41604518  0.08902191  1
  O  O46  1  0.68099205  0.91603693  0.08902364  1
  O  O47  1  0.18099175  0.41603688  0.08902329  1
  O  O48  1  0.75280999  0.54477100  0.24999908  1
  O  O49  1  0.25281005  0.04476969  0.24999913  1
  O  O50  1  0.25280992  0.54476967  0.25000094  1
  O  O51  1  0.75280999  0.04477088  0.25000097  1
  O  O52  1  0.75281005  0.95522984  0.74999916  1
  O  O53  1  0.25281009  0.45522912  0.74999915  1
  O  O54  1  0.25281001  0.95523000  0.75000094  1
  O  O55  1  0.75281028  0.45522935  0.75000087  1
  O  O56  1  0.74309290  0.60153889  0.37598220  1
  O  O57  1  0.24309281  0.10153890  0.37598214  1
  O  O58  1  0.26254209  0.60154318  0.37599304  1
  O  O59  1  0.76254199  0.10154325  0.37599311  1
  O  O60  1  0.74309285  0.89846130  0.87598234  1
  O  O61  1  0.24309262  0.39846087  0.87598202  1
  O  O62  1  0.26254211  0.89845662  0.87599290  1
  O  O63  1  0.76254182  0.39845705  0.87599351  1
  O  O64  1  0.26254175  0.39845722  0.62400626  1
  O  O65  1  0.76254199  0.89845680  0.62400703  1
  O  O66  1  0.74309264  0.39846068  0.62401838  1
  O  O67  1  0.24309291  0.89846103  0.62401800  1
  O  O68  1  0.26254212  0.10154326  0.12400693  1
  O  O69  1  0.76254177  0.60154291  0.12400650  1
  O  O70  1  0.74309283  0.10153912  0.12401800  1
  O  O71  1  0.24309278  0.60153880  0.12401785  1
  O  O72  1  0.59828767  0.60223404  0.28077471  1
  O  O73  1  0.09828778  0.10223402  0.28077487  1
  O  O74  1  0.40729678  0.60224427  0.28076364  1
  O  O75  1  0.90729699  0.10224427  0.28076415  1
  O  O76  1  0.59828783  0.89776605  0.78077436  1
  O  O77  1  0.09828782  0.39776600  0.78077431  1
  O  O78  1  0.40729702  0.89775575  0.78076414  1
  O  O79  1  0.90729719  0.39775569  0.78076424  1
  O  O80  1  0.40729723  0.39775573  0.71923531  1
  O  O81  1  0.90729682  0.89775572  0.71923599  1
  O  O82  1  0.59828789  0.39776601  0.71922571  1
  O  O83  1  0.09828784  0.89776599  0.71922537  1
  O  O84  1  0.40729717  0.10224431  0.21923551  1
  O  O85  1  0.90729695  0.60224427  0.21923612  1
  O  O86  1  0.59828760  0.10223399  0.21922529  1
  O  O87  1  0.09828806  0.60223397  0.21922585  1
  O  O88  1  0.77757204  0.65232013  0.50212388  1
  O  O89  1  0.27757127  0.15232019  0.50212368  1
  O  O90  1  0.22800606  0.65232547  0.50213095  1
  O  O91  1  0.72800621  0.15232560  0.50213079  1
  O  O92  1  0.77757173  0.84767981  0.00212384  1
  O  O93  1  0.27757193  0.34767982  0.00212394  1
  O  O94  1  0.22800614  0.84767440  0.00213068  1
  O  O95  1  0.72800588  0.34767439  0.00213112  1
  O  O96  1  0.22800597  0.34767436  0.49786897  1
  O  O97  1  0.72800582  0.84767441  0.49786913  1
  O  O98  1  0.77757185  0.34767985  0.49787615  1
  O  O99  1  0.27757187  0.84767986  0.49787611  1
  O  O100  1  0.22800617  0.15232549  0.99786922  1
  O  O101  1  0.72800553  0.65232559  0.99786904  1
  O  O102  1  0.77757260  0.15232020  0.99787589  1
  O  O103  1  0.27757089  0.65232024  0.99787647  1
  O  O104  1  0.74776630  0.71130991  0.38268904  1
  O  O105  1  0.24776581  0.21131005  0.38268930  1
  O  O106  1  0.25776995  0.71131332  0.38268276  1
  O  O107  1  0.75777002  0.21131331  0.38268257  1
  O  O108  1  0.74776639  0.78869012  0.88268893  1
  O  O109  1  0.24776574  0.28869007  0.88268941  1
  O  O110  1  0.25776985  0.78868673  0.88268262  1
  O  O111  1  0.75776991  0.28868670  0.88268267  1
  O  O112  1  0.25776996  0.28868667  0.61731715  1
  O  O113  1  0.75777000  0.78868690  0.61731748  1
  O  O114  1  0.74776600  0.28869004  0.61731086  1
  O  O115  1  0.24776636  0.78869001  0.61731097  1
  O  O116  1  0.25777032  0.21131342  0.11731702  1
  O  O117  1  0.75777016  0.71131324  0.11731725  1
  O  O118  1  0.74776638  0.21130991  0.11731099  1
  O  O119  1  0.24776638  0.71130986  0.11731086  1
  O  O120  1  0.90866719  0.65170117  0.40184246  1
  O  O121  1  0.40866704  0.15170165  0.40184236  1
  O  O122  1  0.09693551  0.65169142  0.40184639  1
  O  O123  1  0.59693538  0.15169144  0.40184642  1
  O  O124  1  0.90866722  0.84829877  0.90184255  1
  O  O125  1  0.40866726  0.34829903  0.90184259  1
  O  O126  1  0.09693524  0.84830898  0.90184668  1
  O  O127  1  0.59693516  0.34830924  0.90184681  1
  O  O128  1  0.09693554  0.34830850  0.59815363  1
  O  O129  1  0.59693555  0.84830843  0.59815372  1
  O  O130  1  0.90866711  0.34829872  0.59815758  1
  O  O131  1  0.40866694  0.84829840  0.59815780  1
  O  O132  1  0.09693546  0.15169143  0.09815355  1
  O  O133  1  0.59693536  0.65169126  0.09815357  1
  O  O134  1  0.90866740  0.15170097  0.09815754  1
  O  O135  1  0.40866735  0.65170105  0.09815740  1
  O  O136  1  0.73607055  0.68055196  0.63762901  1
  O  O137  1  0.23607062  0.18055200  0.63762891  1
  O  O138  1  0.26954114  0.68055742  0.63761983  1
  O  O139  1  0.76954106  0.18055739  0.63762017  1
  O  O140  1  0.73607048  0.81944808  0.13762906  1
  O  O141  1  0.23607042  0.31944814  0.13762916  1
  O  O142  1  0.26954060  0.81944175  0.13761864  1
  O  O143  1  0.76954111  0.31944229  0.13761946  1
  O  O144  1  0.26954098  0.31944231  0.36238051  1
  O  O145  1  0.76954082  0.81944221  0.36238065  1
  O  O146  1  0.73607033  0.31944821  0.36237073  1
  O  O147  1  0.23607035  0.81944834  0.36237047  1
  O  O148  1  0.26954094  0.18055767  0.86238049  1
  O  O149  1  0.76954088  0.68055788  0.86238079  1
  O  O150  1  0.73607042  0.18055178  0.86237071  1
  O  O151  1  0.23607046  0.68055174  0.86237076  1
  O  O152  1  0.59728491  0.67322907  0.53513810  1
  O  O153  1  0.09728505  0.17322937  0.53513878  1
  O  O154  1  0.40831430  0.67322033  0.53513706  1
  O  O155  1  0.90831418  0.17322054  0.53513762  1
  O  O156  1  0.59728484  0.82677092  0.03513809  1
  O  O157  1  0.09728497  0.32677086  0.03513800  1
  O  O158  1  0.40831424  0.82677959  0.03513732  1
  O  O159  1  0.90831420  0.32677944  0.03513744  1
  O  O160  1  0.40831427  0.32677953  0.46486272  1
  O  O161  1  0.90831409  0.82677937  0.46486241  1
  O  O162  1  0.59728516  0.32677074  0.46486149  1
  O  O163  1  0.09728498  0.82677069  0.46486130  1
  O  O164  1  0.40831425  0.17322041  0.96486276  1
  O  O165  1  0.90831435  0.67322040  0.96486278  1
  O  O166  1  0.59728517  0.17322912  0.96486198  1
  O  O167  1  0.09728501  0.67322937  0.96486135  1
  O  O168  1  0.75281194  0.75296298  0.24999839  1
  O  O169  1  0.25281193  0.25296287  0.24999840  1
  O  O170  1  0.25281202  0.75296281  0.25000162  1
  O  O171  1  0.75281200  0.25296294  0.25000164  1
  O  O172  1  0.75281206  0.74703711  0.74999838  1
  O  O173  1  0.25281204  0.24703691  0.74999839  1
  O  O174  1  0.25281200  0.74703728  0.75000166  1
  O  O175  1  0.75281208  0.24703732  0.75000164  1
  O  O176  1  0.59920383  0.77149687  0.33701088  1
  O  O177  1  0.09920413  0.27149643  0.33701112  1
  O  O178  1  0.40639548  0.77148904  0.33702191  1
  O  O179  1  0.90639544  0.27148892  0.33702203  1
  O  O180  1  0.59920363  0.72850305  0.83701067  1
  O  O181  1  0.09920375  0.22850309  0.83701080  1
  O  O182  1  0.40639542  0.72851118  0.83702212  1
  O  O183  1  0.90639526  0.22851129  0.83702222  1
  O  O184  1  0.40639548  0.22851137  0.66297781  1
  O  O185  1  0.90639527  0.72851146  0.66297773  1
  O  O186  1  0.59920381  0.22850316  0.66298915  1
  O  O187  1  0.09920351  0.72850273  0.66298963  1
  O  O188  1  0.40639545  0.27148874  0.16297790  1
  O  O189  1  0.90639560  0.77148903  0.16297816  1
  O  O190  1  0.59920360  0.27149709  0.16298955  1
  O  O191  1  0.09920370  0.77149709  0.16298938  1
  O  O192  1  0.50281919  0.75100458  0.46094891  1
  O  O193  1  0.00281941  0.25100460  0.46094879  1
  O  O194  1  0.50281933  0.74899521  0.96094907  1
  O  O195  1  0.00281912  0.24899546  0.96094888  1
  O  O196  1  0.50281934  0.24899583  0.53905117  1
  O  O197  1  0.00281924  0.74899484  0.53905089  1
  O  O198  1  0.50281935  0.25100461  0.03905110  1
  O  O199  1  0.00281933  0.75100496  0.03905091  1
  O  O200  1  0.50281795  0.75202111  0.60447377  1
  O  O201  1  0.00281806  0.25202128  0.60447346  1
  O  O202  1  0.50281803  0.74797922  0.10447439  1
  O  O203  1  0.00281795  0.24797893  0.10447378  1
  O  O204  1  0.50281817  0.24797928  0.39552555  1
  O  O205  1  0.00281804  0.74797896  0.39552599  1
  O  O206  1  0.50281811  0.25202068  0.89552544  1
  O  O207  1  0.00281803  0.75202077  0.89552545  1
  O  O208  1  0.50280972  0.67713826  0.35825533  1
  O  O209  1  0.00280975  0.17713838  0.35825540  1
  O  O210  1  0.50280975  0.82286175  0.85825536  1
  O  O211  1  0.00280975  0.32286160  0.85825520  1
  O  O212  1  0.50280976  0.32286190  0.64174434  1
  O  O213  1  0.00280962  0.82286178  0.64174443  1
  O  O214  1  0.50280968  0.17713824  0.14174442  1
  O  O215  1  0.00280976  0.67713818  0.14174458  1
  O  O216  1  0.50281374  0.68262280  0.21667448  1
  O  O217  1  0.00281365  0.18262313  0.21667460  1
  O  O218  1  0.50281359  0.81737703  0.71667453  1
  O  O219  1  0.00281359  0.31737692  0.71667450  1
  O  O220  1  0.50281362  0.31737707  0.78332532  1
  O  O221  1  0.00281366  0.81737743  0.78332571  1
  O  O222  1  0.50281362  0.18262327  0.28332521  1
  O  O223  1  0.00281369  0.68262258  0.28332574  1
loop_
_geom_bond_atom_site_label_1
_geom_bond_atom_site_label_2
_geom_bond_distance
_geom_bond_site_symmetry_2
O0 Si0 1.629458 1_555
O0 Si10 1.629459 1_555
O1 Si1 1.629456 1_545
O1 Si11 1.629457 1_555
O2 Si2 1.629496 1_555
O2 Si8 1.629496 1_555
O3 Si9 1.629497 1_555
O3 Si3 1.629498 1_545
O4 Si14 1.629458 1_545
O4 Si4 1.629459 1_554
O5 Si5 1.629457 1_554
O5 Si15 1.629458 1_555
O6 Si6 1.629495 1_564
O6 Si12 1.629496 1_555
O7 Si7 1.629496 1_554
O7 Si13 1.629496 1_555
O8 Si0 1.627509 1_555
O8 Si2 1.627582 1_555
O9 Si1 1.627511 1_555
O9 Si3 1.627583 1_455
O10 Si4 1.627510 1_555
O10 Si6 1.627583 1_555
O11 Si5 1.627508 1_555
O11 Si7 1.627582 1_455
O12 Si10 1.627509 1_555
O12 Si8 1.627582 1_555
O13 Si11 1.627509 1_555
O13 Si9 1.627582 1_455
O14 Si14 1.627510 1_555
O14 Si12 1.627584 1_555
O15 Si15 1.627510 1_555
O15 Si13 1.627583 1_455
O16 Si16 1.617128 1_555
O16 Si0 1.618966 1_555
O17 Si17 1.617128 1_555
O17 Si1 1.618961 1_545
O18 Si18 1.617006 1_555
O18 Si2 1.618951 1_555
O19 Si19 1.617005 1_555
O19 Si3 1.618951 1_545
O20 Si20 1.617125 1_555
O20 Si4 1.618963 1_565
O21 Si21 1.617128 1_555
O21 Si5 1.618964 1_555
O22 Si22 1.617005 1_555
O22 Si6 1.618951 1_565
O23 Si23 1.617007 1_555
O23 Si7 1.618950 1_555
O24 Si24 1.617007 1_555
O24 Si8 1.618951 1_555
O25 Si25 1.617008 1_555
O25 Si9 1.618953 1_565
O26 Si26 1.617128 1_555
O26 Si10 1.618964 1_555
O27 Si27 1.617128 1_555
O27 Si11 1.618963 1_565
O28 Si28 1.617006 1_555
O28 Si12 1.618950 1_545
O29 Si29 1.617007 1_555
O29 Si13 1.618953 1_555
O30 Si30 1.617128 1_555
O30 Si14 1.618965 1_545
O31 Si31 1.617128 1_555
O31 Si15 1.618963 1_555
O32 Si0 1.621181 1_555
O32 Si58 1.621256 1_555
O33 Si1 1.621178 1_555
O33 Si59 1.621256 1_555
O34 Si2 1.621260 1_555
O34 Si56 1.621312 1_555
O35 Si3 1.621258 1_555
O35 Si57 1.621310 1_555
O36 Si4 1.621181 1_555
O36 Si62 1.621257 1_555
O37 Si5 1.621179 1_555
O37 Si63 1.621255 1_555
O38 Si6 1.621259 1_555
O38 Si60 1.621312 1_555
O39 Si7 1.621255 1_555
O39 Si61 1.621308 1_555
O40 Si8 1.621259 1_555
O40 Si50 1.621311 1_555
O41 Si9 1.621258 1_555
O41 Si51 1.621310 1_555
O42 Si10 1.621179 1_555
O42 Si48 1.621256 1_555
O43 Si11 1.621180 1_555
O43 Si49 1.621256 1_555
O44 Si12 1.621260 1_555
O44 Si54 1.621311 1_555
O45 Si13 1.621259 1_555
O45 Si55 1.621312 1_555
O46 Si14 1.621181 1_555
O46 Si52 1.621256 1_555
O47 Si15 1.621180 1_555
O47 Si53 1.621255 1_555
O48 Si29 1.626390 1_555
O48 Si16 1.626473 1_555
O49 Si28 1.626394 1_555
O49 Si17 1.626477 1_555
O50 Si18 1.626393 1_555
O50 Si31 1.626476 1_555
O51 Si19 1.626390 1_555
O51 Si30 1.626473 1_555
O52 Si25 1.626391 1_555
O52 Si20 1.626475 1_555
O53 Si24 1.626391 1_555
O53 Si21 1.626473 1_555
O54 Si22 1.626393 1_555
O54 Si27 1.626476 1_555
O55 Si23 1.626390 1_555
O55 Si26 1.626474 1_555
O56 Si32 1.624932 1_555
O56 Si16 1.627165 1_555
O57 Si33 1.624933 1_555
O57 Si17 1.627165 1_555
O58 Si34 1.624854 1_555
O58 Si18 1.627151 1_555
O59 Si35 1.624852 1_555
O59 Si19 1.627146 1_555
O60 Si36 1.624933 1_555
O60 Si20 1.627165 1_555
O61 Si37 1.624931 1_555
O61 Si21 1.627162 1_555
O62 Si38 1.624852 1_555
O62 Si22 1.627148 1_555
O63 Si39 1.624855 1_555
O63 Si23 1.627148 1_555
O64 Si40 1.624855 1_555
O64 Si24 1.627150 1_555
O65 Si41 1.624852 1_555
O65 Si25 1.627149 1_555
O66 Si42 1.624931 1_555
O66 Si26 1.627163 1_555
O67 Si43 1.624931 1_555
O67 Si27 1.627166 1_555
O68 Si44 1.624853 1_555
O68 Si28 1.627149 1_555
O69 Si45 1.624853 1_555
O69 Si29 1.627149 1_555
O70 Si46 1.624932 1_555
O70 Si30 1.627164 1_555
O71 Si47 1.624932 1_555
O71 Si31 1.627166 1_555
O72 Si96 1.614304 1_555
O72 Si16 1.624772 1_555
O73 Si97 1.614306 1_555
O73 Si17 1.624774 1_555
O74 Si96 1.614431 1_555
O74 Si18 1.624715 1_555
O75 Si97 1.614431 1_655
O75 Si19 1.624712 1_555
O76 Si98 1.614305 1_555
O76 Si20 1.624775 1_555
O77 Si99 1.614306 1_555
O77 Si21 1.624774 1_555
O78 Si98 1.614430 1_555
O78 Si22 1.624713 1_555
O79 Si99 1.614429 1_655
O79 Si23 1.624715 1_555
O80 Si100 1.614429 1_555
O80 Si24 1.624711 1_555
O81 Si101 1.614430 1_655
O81 Si25 1.624712 1_555
O82 Si100 1.614305 1_555
O82 Si26 1.624771 1_555
O83 Si101 1.614305 1_555
O83 Si27 1.624775 1_555
O84 Si102 1.614430 1_555
O84 Si28 1.624714 1_555
O85 Si103 1.614430 1_655
O85 Si29 1.624713 1_555
O86 Si102 1.614304 1_555
O86 Si30 1.624774 1_555
O87 Si103 1.614306 1_555
O87 Si31 1.624775 1_555
O88 Si32 1.622930 1_555
O88 Si48 1.624930 1_555
O89 Si33 1.622929 1_555
O89 Si49 1.624928 1_555
O90 Si34 1.622995 1_555
O90 Si50 1.624917 1_555
O91 Si35 1.622996 1_555
O91 Si51 1.624917 1_555
O92 Si36 1.622931 1_554
O92 Si52 1.624929 1_555
O93 Si37 1.622930 1_554
O93 Si53 1.624928 1_555
O94 Si38 1.622994 1_554
O94 Si54 1.624916 1_555
O95 Si39 1.622997 1_554
O95 Si55 1.624916 1_555
O96 Si40 1.622995 1_555
O96 Si56 1.624917 1_555
O97 Si41 1.622996 1_555
O97 Si57 1.624917 1_555
O98 Si42 1.622930 1_555
O98 Si58 1.624930 1_555
O99 Si43 1.622930 1_555
O99 Si59 1.624931 1_555
O100 Si44 1.622995 1_556
O100 Si60 1.624916 1_555
O101 Si45 1.622995 1_556
O101 Si61 1.624916 1_555
O102 Si46 1.622930 1_556
O102 Si62 1.624932 1_555
O103 Si47 1.622928 1_556
O103 Si63 1.624928 1_555
O104 Si32 1.628647 1_555
O104 Si64 1.633116 1_555
O105 Si33 1.628647 1_555
O105 Si65 1.633115 1_555
O106 Si34 1.628599 1_555
O106 Si66 1.633081 1_555
O107 Si35 1.628597 1_555
O107 Si67 1.633081 1_555
O108 Si36 1.628648 1_555
O108 Si68 1.633115 1_555
O109 Si37 1.628648 1_555
O109 Si69 1.633117 1_555
O110 Si38 1.628597 1_555
O110 Si70 1.633081 1_555
O111 Si39 1.628599 1_555
O111 Si71 1.633082 1_555
O112 Si40 1.628597 1_555
O112 Si72 1.633081 1_555
O113 Si41 1.628595 1_555
O113 Si73 1.633080 1_555
O114 Si42 1.628648 1_555
O114 Si74 1.633117 1_555
O115 Si43 1.628648 1_555
O115 Si75 1.633116 1_555
O116 Si44 1.628597 1_555
O116 Si76 1.633080 1_555
O117 Si45 1.628599 1_555
O117 Si77 1.633082 1_555
O118 Si46 1.628649 1_555
O118 Si78 1.633119 1_555
O119 Si47 1.628646 1_555
O119 Si79 1.633114 1_555
O120 Si104 1.616215 1_655
O120 Si32 1.619750 1_555
O121 Si105 1.616216 1_555
O121 Si33 1.619752 1_555
O122 Si104 1.616073 1_555
O122 Si34 1.619661 1_555
O123 Si105 1.616076 1_555
O123 Si35 1.619662 1_555
O124 Si106 1.616215 1_655
O124 Si36 1.619750 1_555
O125 Si107 1.616219 1_555
O125 Si37 1.619752 1_555
O126 Si106 1.616076 1_555
O126 Si38 1.619661 1_555
O127 Si107 1.616079 1_555
O127 Si39 1.619664 1_555
O128 Si108 1.616072 1_555
O128 Si40 1.619662 1_555
O129 Si109 1.616073 1_555
O129 Si41 1.619661 1_555
O130 Si108 1.616216 1_655
O130 Si42 1.619750 1_555
O131 Si109 1.616213 1_555
O131 Si43 1.619750 1_555
O132 Si110 1.616073 1_555
O132 Si44 1.619662 1_555
O133 Si111 1.616075 1_555
O133 Si45 1.619662 1_555
O134 Si110 1.616215 1_655
O134 Si46 1.619752 1_555
O135 Si111 1.616217 1_555
O135 Si47 1.619752 1_555
O136 Si48 1.624661 1_555
O136 Si73 1.627038 1_555
O137 Si49 1.624657 1_555
O137 Si72 1.627036 1_555
O138 Si50 1.624665 1_555
O138 Si75 1.627037 1_555
O139 Si51 1.624666 1_555
O139 Si74 1.627035 1_555
O140 Si52 1.624661 1_555
O140 Si77 1.627038 1_555
O141 Si53 1.624661 1_555
O141 Si76 1.627038 1_555
O142 Si54 1.624662 1_555
O142 Si79 1.627031 1_555
O143 Si55 1.624663 1_555
O143 Si78 1.627033 1_555
O144 Si56 1.624664 1_555
O144 Si65 1.627032 1_555
O145 Si57 1.624663 1_555
O145 Si64 1.627033 1_555
O146 Si58 1.624660 1_555
O146 Si67 1.627038 1_555
O147 Si59 1.624661 1_555
O147 Si66 1.627039 1_555
O148 Si60 1.624664 1_555
O148 Si69 1.627035 1_555
O149 Si61 1.624663 1_555
O149 Si68 1.627034 1_555
O150 Si62 1.624660 1_555
O150 Si71 1.627037 1_555
O151 Si63 1.624660 1_555
O151 Si70 1.627038 1_555
O152 Si80 1.617780 1_555
O152 Si48 1.624879 1_555
O153 Si81 1.617777 1_555
O153 Si49 1.624877 1_555
O154 Si80 1.617807 1_555
O154 Si50 1.624896 1_555
O155 Si81 1.617806 1_655
O155 Si51 1.624896 1_555
O156 Si82 1.617780 1_555
O156 Si52 1.624880 1_555
O157 Si83 1.617779 1_555
O157 Si53 1.624879 1_555
O158 Si82 1.617807 1_555
O158 Si54 1.624894 1_555
O159 Si83 1.617807 1_655
O159 Si55 1.624895 1_555
O160 Si84 1.617807 1_555
O160 Si56 1.624896 1_555
O161 Si85 1.617807 1_655
O161 Si57 1.624894 1_555
O162 Si84 1.617779 1_555
O162 Si58 1.624877 1_555
O163 Si85 1.617780 1_555
O163 Si59 1.624878 1_555
O164 Si86 1.617808 1_555
O164 Si60 1.624896 1_555
O165 Si87 1.617806 1_655
O165 Si61 1.624895 1_555
O166 Si86 1.617780 1_555
O166 Si62 1.624881 1_555
O167 Si87 1.617779 1_555
O167 Si63 1.624876 1_555
O168 Si77 1.626834 1_555
O168 Si64 1.626838 1_555
O169 Si76 1.626835 1_555
O169 Si65 1.626838 1_555
O170 Si66 1.626834 1_555
O170 Si79 1.626839 1_555
O171 Si67 1.626833 1_555
O171 Si78 1.626839 1_555
O172 Si73 1.626834 1_555
O172 Si68 1.626838 1_555
O173 Si72 1.626833 1_555
O173 Si69 1.626839 1_555
O174 Si70 1.626834 1_555
O174 Si75 1.626840 1_555
O175 Si71 1.626833 1_555
O175 Si74 1.626838 1_555
O176 Si88 1.633366 1_555
O176 Si64 1.638582 1_555
O177 Si89 1.633362 1_555
O177 Si65 1.638578 1_555
O178 Si88 1.633455 1_555
O178 Si66 1.638531 1_555
O179 Si89 1.633452 1_655
O179 Si67 1.638529 1_555
O180 Si90 1.633366 1_555
O180 Si68 1.638583 1_555
O181 Si91 1.633364 1_555
O181 Si69 1.638583 1_555
O182 Si90 1.633453 1_555
O182 Si70 1.638530 1_555
O183 Si91 1.633451 1_655
O183 Si71 1.638526 1_555
O184 Si92 1.633451 1_555
O184 Si72 1.638528 1_555
O185 Si93 1.633452 1_655
O185 Si73 1.638527 1_555
O186 Si92 1.633365 1_555
O186 Si74 1.638583 1_555
O187 Si93 1.633368 1_555
O187 Si75 1.638588 1_555
O188 Si94 1.633452 1_555
O188 Si76 1.638528 1_555
O189 Si95 1.633455 1_655
O189 Si77 1.638530 1_555
O190 Si94 1.633366 1_555
O190 Si78 1.638585 1_555
O191 Si95 1.633366 1_555
O191 Si79 1.638584 1_555
O192 Si80 1.632102 1_555
O192 Si88 1.635383 1_555
O193 Si81 1.632102 1_555
O193 Si89 1.635381 1_555
O194 Si82 1.632103 1_556
O194 Si90 1.635386 1_555
O195 Si83 1.632101 1_556
O195 Si91 1.635381 1_555
O196 Si84 1.632100 1_555
O196 Si92 1.635383 1_555
O197 Si85 1.632105 1_555
O197 Si93 1.635386 1_555
O198 Si86 1.632103 1_554
O198 Si94 1.635385 1_555
O199 Si87 1.632106 1_554
O199 Si95 1.635386 1_555
O200 Si80 1.623689 1_555
O200 Si109 1.625492 1_555
O201 Si81 1.623689 1_555
O201 Si108 1.625491 1_555
O202 Si82 1.623691 1_555
O202 Si111 1.625496 1_555
O203 Si83 1.623688 1_555
O203 Si110 1.625494 1_555
O204 Si84 1.623690 1_555
O204 Si105 1.625494 1_555
O205 Si85 1.623689 1_555
O205 Si104 1.625492 1_555
O206 Si86 1.623694 1_555
O206 Si107 1.625500 1_555
O207 Si87 1.623691 1_555
O207 Si106 1.625495 1_555
O208 Si96 1.627245 1_555
O208 Si88 1.638713 1_555
O209 Si97 1.627245 1_555
O209 Si89 1.638711 1_555
O210 Si98 1.627245 1_555
O210 Si90 1.638712 1_555
O211 Si99 1.627243 1_555
O211 Si91 1.638713 1_555
O212 Si100 1.627243 1_555
O212 Si92 1.638711 1_555
O213 Si101 1.627248 1_555
O213 Si93 1.638715 1_555
O214 Si102 1.627244 1_555
O214 Si94 1.638711 1_555
O215 Si103 1.627247 1_555
O215 Si95 1.638717 1_555
O216 Si96 1.618126 1_555
O216 Si111 1.623566 1_555
O217 Si97 1.618129 1_555
O217 Si110 1.623567 1_555
O218 Si98 1.618128 1_555
O218 Si109 1.623565 1_555
O219 Si99 1.618128 1_555
O219 Si108 1.623566 1_555
O220 Si100 1.618128 1_555
O220 Si107 1.623569 1_555
O221 Si101 1.618127 1_555
O221 Si106 1.623565 1_555
O222 Si102 1.618128 1_555
O222 Si105 1.623566 1_555
O223 Si103 1.618126 1_555
O223 Si104 1.623564 1_555
