# generated using pymatgen
data_LiAs(XeF4)3
_symmetry_space_group_name_H-M   'P 1'
_cell_length_a   13.81709100
_cell_length_b   7.22871000
_cell_length_c   7.22905888
_cell_angle_alpha   88.25879938
_cell_angle_beta   90.00000000
_cell_angle_gamma   90.00000000
_symmetry_Int_Tables_number   1
_chemical_formula_structural   LiAs(XeF4)3
_chemical_formula_sum   'Li2 As2 Xe6 F24'
_cell_volume   721.70316285
_cell_formula_units_Z   2
loop_
 _symmetry_equiv_pos_site_id
 _symmetry_equiv_pos_as_xyz
  1  'x, y, z'
loop_
 _atom_site_type_symbol
 _atom_site_label
 _atom_site_symmetry_multiplicity
 _atom_site_fract_x
 _atom_site_fract_y
 _atom_site_fract_z
 _atom_site_occupancy
  Li  Li0  1  0.88678800  0.72747600  0.68800800  1
  Li  Li1  1  0.38678800  0.27252400  0.31199200  1
  As  As0  1  0.62821900  0.78800500  0.79691100  1
  As  As1  1  0.12821900  0.21199500  0.20308900  1
  Xe  Xe0  1  0.89730400  0.22698600  0.69140400  1
  Xe  Xe1  1  0.39730400  0.77301400  0.30859600  1
  Xe  Xe2  1  0.89782500  0.73115100  0.18827200  1
  Xe  Xe3  1  0.39782500  0.26884900  0.81172800  1
  Xe  Xe4  1  0.15571600  0.71197200  0.72340400  1
  Xe  Xe5  1  0.65571600  0.28802800  0.27659600  1
  F  F0  1  0.84282500  0.47919900  0.59026100  1
  F  F1  1  0.34282500  0.52080100  0.40973900  1
  F  F2  1  0.86292200  0.85395100  0.43573200  1
  F  F3  1  0.36292200  0.14604900  0.56426800  1
  F  F4  1  0.02445700  0.65400500  0.59149500  1
  F  F5  1  0.52445700  0.34599500  0.40850500  1
  F  F6  1  0.94816100  0.97098900  0.78573900  1
  F  F7  1  0.44816100  0.02901100  0.21426100  1
  F  F8  1  0.93008300  0.60870400  0.93882200  1
  F  F9  1  0.43008300  0.39129600  0.06117800  1
  F  F10  1  0.28559100  0.76468900  0.84940300  1
  F  F11  1  0.78559100  0.23531100  0.15059700  1
  F  F12  1  0.75946100  0.80405200  0.79567100  1
  F  F13  1  0.25946100  0.19594800  0.20432900  1
  F  F14  1  0.63698100  0.54371600  0.81231900  1
  F  F15  1  0.13698100  0.45628400  0.18768100  1
  F  F16  1  0.63024100  0.78119300  0.55271900  1
  F  F17  1  0.13024100  0.21880700  0.44728100  1
  F  F18  1  0.62366800  0.03291700  0.78398300  1
  F  F19  1  0.12366800  0.96708300  0.21601700  1
  F  F20  1  0.63186100  0.79318500  0.04220300  1
  F  F21  1  0.13186100  0.20681500  0.95779700  1
  F  F22  1  0.50039600  0.77726400  0.79833500  1
  F  F23  1  0.00039600  0.22273600  0.20166500  1
loop_
_geom_bond_atom_site_label_1
_geom_bond_atom_site_label_2
_geom_bond_distance
_geom_bond_site_symmetry_2
As0 F16 1.767681 1_555
As0 F22 1.767864 1_555
As0 F14 1.770168 1_555
As0 F18 1.771141 1_565
As0 F20 1.775476 1_556
As0 F12 1.817094 1_555
As1 F17 1.767681 1_555
As1 F23 1.767864 1_555
As1 F15 1.770168 1_555
As1 F19 1.771141 1_545
As1 F21 1.775476 1_554
As1 F13 1.817094 1_555
F0 Li0 2.041174 1_555
F0 Xe0 2.084271 1_555
F1 Li1 2.041174 1_555
F1 Xe1 2.084271 1_555
F2 Li0 2.041867 1_555
F2 Xe2 2.077795 1_555
F3 Li1 2.041867 1_555
F3 Xe3 2.077795 1_555
F4 Xe4 2.097233 1_555
F4 Li0 2.099923 1_455
F5 Xe5 2.097233 1_555
F5 Li1 2.099923 1_555
F6 Xe0 2.075236 1_565
F6 Li0 2.095811 1_555
F7 Xe1 2.075236 1_545
F7 Li1 2.095811 1_555
F8 Li0 2.070726 1_555
F8 Xe2 2.081098 1_556
F9 Li1 2.070726 1_555
F9 Xe3 2.081098 1_554
F10 Xe4 2.053334 1_555
F11 Xe5 2.053334 1_555
F12 Li0 2.008344 1_555
F13 Li1 2.008344 1_555
