# generated using pymatgen
data_LiMg6BO7
_symmetry_space_group_name_H-M   'P 1'
_cell_length_a   8.12055209
_cell_length_b   4.27839228
_cell_length_c   4.27839228
_cell_angle_alpha   90.00000000
_cell_angle_beta   90.00000000
_cell_angle_gamma   90.00000000
_symmetry_Int_Tables_number   1
_chemical_formula_structural   LiMg6BO7
_chemical_formula_sum   'Li1 Mg6 B1 O7'
_cell_volume   148.64378668
_cell_formula_units_Z   1
loop_
 _symmetry_equiv_pos_site_id
 _symmetry_equiv_pos_as_xyz
  1  'x, y, z'
loop_
 _atom_site_type_symbol
 _atom_site_label
 _atom_site_symmetry_multiplicity
 _atom_site_fract_x
 _atom_site_fract_y
 _atom_site_fract_z
 _atom_site_occupancy
  Li  Li0  1  0.00301954  0.00000000  -0.00000000  1
  Mg  Mg0  1  0.00426960  0.50000000  0.50000000  1
  Mg  Mg1  1  0.50371924  0.50000000  0.50000000  1
  Mg  Mg2  1  0.25873873  -0.00000000  0.50000000  1
  Mg  Mg3  1  0.75075109  -0.00000000  0.50000000  1
  Mg  Mg4  1  0.25873873  0.50000000  0.00000000  1
  Mg  Mg5  1  0.75075109  0.50000000  0.00000000  1
  B  B0  1  0.51066350  -0.00000000  -0.00000000  1
  O  O0  1  0.68811908  0.00000000  -0.00000000  1
  O  O1  1  0.25511334  0.50000000  0.50000000  1
  O  O2  1  0.75308753  0.50000000  0.50000000  1
  O  O3  1  0.00412976  0.00000000  0.50000000  1
  O  O4  1  0.50238450  0.00000000  0.50000000  1
  O  O5  1  0.00412976  0.50000000  0.00000000  1
  O  O6  1  0.50238450  0.50000000  0.00000000  1
loop_
_geom_bond_atom_site_label_1
_geom_bond_atom_site_label_2
_geom_bond_distance
_geom_bond_site_symmetry_2
Li0 O5 2.139215 1_555
Li0 O3 2.139215 1_555
Li0 O3 2.139215 1_554
Li0 O5 2.139215 1_545
Li0 O0 2.557166 1_455
Mg0 O1 2.036990 1_555
Mg0 O2 2.039737 1_455
Mg0 O5 2.139196 1_556
Mg0 O5 2.139196 1_555
Mg0 O3 2.139196 1_555
Mg0 O3 2.139196 1_565
Mg1 O1 2.018817 1_555
Mg1 O2 2.025008 1_555
Mg1 O4 2.139224 1_555
Mg1 O4 2.139224 1_565
Mg1 O6 2.139224 1_556
Mg1 O6 2.139224 1_555
Mg2 O4 1.978538 1_555
Mg2 O3 2.067565 1_555
Mg2 O1 2.139399 1_555
Mg2 O1 2.139399 1_545
Mg3 O4 2.016874 1_555
Mg3 O3 2.057575 1_655
Mg3 O2 2.139280 1_555
Mg3 O2 2.139280 1_545
Mg3 O0 2.198827 1_555
Mg3 O0 2.198827 1_556
Mg4 O6 1.978538 1_555
Mg4 O5 2.067565 1_555
Mg4 O1 2.139399 1_555
Mg4 O1 2.139399 1_554
Mg5 O6 2.016874 1_555
Mg5 O5 2.057575 1_655
Mg5 O2 2.139280 1_555
Mg5 O2 2.139280 1_554
Mg5 O0 2.198827 1_565
Mg5 O0 2.198827 1_555
B0 O0 1.441037 1_555
B0 O4 2.140252 1_555
B0 O6 2.140252 1_545
B0 O6 2.140252 1_555
B0 O4 2.140252 1_554
