# generated using pymatgen
data_K12Mo4S11Cl4O5
_symmetry_space_group_name_H-M   'P 1'
_cell_length_a   6.35317400
_cell_length_b   12.57893632
_cell_length_c   12.70277032
_cell_angle_alpha   90.01131881
_cell_angle_beta   90.43899271
_cell_angle_gamma   90.54655968
_symmetry_Int_Tables_number   1
_chemical_formula_structural   K12Mo4S11Cl4O5
_chemical_formula_sum   'K12 Mo4 S11 Cl4 O5'
_cell_volume   1015.08074646
_cell_formula_units_Z   1
loop_
 _symmetry_equiv_pos_site_id
 _symmetry_equiv_pos_as_xyz
  1  'x, y, z'
loop_
 _atom_site_type_symbol
 _atom_site_label
 _atom_site_symmetry_multiplicity
 _atom_site_fract_x
 _atom_site_fract_y
 _atom_site_fract_z
 _atom_site_occupancy
  K  K0  1  0.90495000  0.73474200  0.26923000  1
  K  K1  1  0.09719500  0.23501200  0.73298500  1
  K  K2  1  0.90288600  0.23493000  0.23310200  1
  K  K3  1  0.09666200  0.73473300  0.76747600  1
  K  K4  1  0.92056600  0.99781200  0.97957500  1
  K  K5  1  0.07927200  0.49795200  0.02049800  1
  K  K6  1  0.92429000  0.50166400  0.51984600  1
  K  K7  1  0.07850100  0.99844500  0.47920900  1
  K  K8  1  0.46473300  0.98942400  0.20452200  1
  K  K9  1  0.53554900  0.49003100  0.79579700  1
  K  K10  1  0.46526300  0.48968200  0.29608300  1
  K  K11  1  0.53595700  0.98906800  0.70360800  1
  Mo  Mo0  1  0.50223700  0.74250100  0.00553900  1
  Mo  Mo1  1  0.49820400  0.24217600  0.99463200  1
  Mo  Mo2  1  0.50198800  0.24252300  0.49490600  1
  Mo  Mo3  1  0.49645200  0.73776200  0.50143900  1
  S  S0  1  0.40482900  0.72167100  0.17224200  1
  S  S1  1  0.59502500  0.22174700  0.82791800  1
  S  S2  1  0.40415900  0.22176000  0.32760700  1
  S  S3  1  0.58908800  0.72081500  0.67151600  1
  S  S4  1  0.57321600  0.90496100  0.45146900  1
  S  S5  1  0.42076300  0.40571900  0.54791000  1
  S  S6  1  0.58026700  0.40593900  0.04811500  1
  S  S7  1  0.42048800  0.90555200  0.95203600  1
  S  S8  1  0.84937300  0.72524400  0.99613600  1
  S  S9  1  0.15037900  0.22495300  0.00397000  1
  S  S10  1  0.84952400  0.22542800  0.50430200  1
  Cl  Cl0  1  0.97589200  0.98209100  0.23157800  1
  Cl  Cl1  1  0.02459100  0.48256300  0.76810000  1
  Cl  Cl2  1  0.97625100  0.48266300  0.26881400  1
  Cl  Cl3  1  0.02524400  0.98172100  0.73081700  1
  O  O0  1  0.64247800  0.64657400  0.42406600  1
  O  O1  1  0.37214200  0.14758800  0.57475300  1
  O  O2  1  0.62745100  0.14771800  0.07492600  1
  O  O3  1  0.37143800  0.64732500  0.92524200  1
  O  O4  1  0.22169800  0.71508900  0.48734000  1
loop_
_geom_bond_atom_site_label_1
_geom_bond_atom_site_label_2
_geom_bond_distance
_geom_bond_site_symmetry_2
K0 O0 2.809803 1_555
K0 S0 3.401537 1_555
K0 S0 3.420608 1_655
K0 O4 3.422170 1_655
K0 S8 3.486190 1_554
K1 O1 2.896587 1_555
K1 S10 3.294710 1_455
K1 S1 3.381875 1_555
K1 S1 3.421904 1_455
K1 S9 3.458684 1_556
K2 O2 2.865553 1_555
K2 S9 3.321670 1_655
K2 S2 3.399459 1_555
K2 S2 3.400338 1_655
K2 S10 3.466190 1_555
K3 O3 2.873417 1_555
K3 S8 3.314481 1_455
K3 S3 3.372332 1_555
K3 S3 3.441533 1_455
K4 O2 2.931083 1_566
K4 S9 3.210051 1_666
K4 S7 3.387555 1_555
K4 S7 3.412324 1_655
K4 S8 3.460693 1_555
K5 O3 2.899791 1_554
K5 S8 3.236755 1_454
K5 S6 3.385334 1_455
K5 S6 3.412762 1_555
K5 S9 3.474412 1_555
K6 O0 2.835178 1_555
K6 O4 3.296008 1_655
K6 S5 3.404126 1_655
K6 S5 3.429463 1_555
K6 S10 3.507897 1_555
K7 O1 2.893186 1_565
K7 S10 3.233578 1_465
K7 S4 3.387154 1_555
K7 S4 3.423830 1_455
K8 O2 2.780579 1_565
K8 S2 3.341079 1_565
K8 S4 3.380265 1_555
K8 S7 3.384947 1_554
K8 S0 3.410181 1_555
K9 O3 2.787470 1_555
K9 S3 3.320654 1_555
K9 S6 3.386097 1_556
K9 S5 3.394200 1_555
K9 S1 3.423530 1_555
K10 O0 2.780964 1_555
K10 S0 3.339433 1_555
K10 S5 3.381993 1_555
K10 S6 3.407913 1_555
K10 S2 3.412782 1_555
K11 O1 2.784453 1_565
K11 S1 3.341996 1_565
K11 S4 3.383599 1_555
K11 S7 3.409175 1_555
K11 S3 3.419002 1_555
Mo0 O3 1.769689 1_554
Mo0 S8 2.222252 1_554
Mo0 S0 2.225539 1_555
Mo0 S7 2.225701 1_554
Mo1 O2 1.769914 1_556
Mo1 S9 2.222405 1_556
Mo1 S6 2.224940 1_556
Mo1 S1 2.225298 1_555
Mo2 O1 1.769139 1_555
Mo2 S10 2.222744 1_555
Mo2 S2 2.224243 1_555
Mo2 S5 2.226821 1_555
Mo3 O4 1.773721 1_555
Mo3 O0 1.782197 1_555
Mo3 S3 2.245539 1_555
Mo3 S4 2.247188 1_555
Cl0 K8 3.127755 1_655
Cl0 K0 3.176438 1_555
Cl0 K7 3.213696 1_655
Cl0 K2 3.218539 1_565
Cl0 K4 3.224014 1_554
Cl0 K8 3.265179 1_555
Cl1 K9 3.131800 1_455
Cl1 K1 3.184068 1_555
Cl1 K3 3.200601 1_555
Cl1 K6 3.221935 1_455
Cl1 K5 3.227845 1_556
Cl1 K9 3.262993 1_555
Cl2 K10 3.123799 1_655
Cl2 K2 3.178418 1_555
Cl2 K0 3.207363 1_555
Cl2 K6 3.217436 1_555
Cl2 K5 3.231789 1_655
Cl2 K10 3.269489 1_555
Cl3 K11 3.127293 1_455
Cl3 K3 3.177962 1_555
Cl3 K1 3.214519 1_565
Cl3 K7 3.223258 1_555
Cl3 K4 3.240807 1_455
Cl3 K11 3.266071 1_555
