# generated using pymatgen
data_Rb3Na(WO4)2
_symmetry_space_group_name_H-M   'P 1'
_cell_length_a   6.35799389
_cell_length_b   6.35822269
_cell_length_c   8.02292701
_cell_angle_alpha   89.99999821
_cell_angle_beta   90.00444490
_cell_angle_gamma   120.00117881
_symmetry_Int_Tables_number   1
_chemical_formula_structural   Rb3Na(WO4)2
_chemical_formula_sum   'Rb3 Na1 W2 O8'
_cell_volume   280.87569040
_cell_formula_units_Z   1
loop_
 _symmetry_equiv_pos_site_id
 _symmetry_equiv_pos_as_xyz
  1  'x, y, z'
loop_
 _atom_site_type_symbol
 _atom_site_label
 _atom_site_symmetry_multiplicity
 _atom_site_fract_x
 _atom_site_fract_y
 _atom_site_fract_z
 _atom_site_occupancy
  Rb  Rb0  1  0.00000000  0.00000000  0.50000000  1
  Rb  Rb1  1  0.33338500  0.66669200  0.83138700  1
  Rb  Rb2  1  0.66661500  0.33330800  0.16861300  1
  Na  Na0  1  0.00000000  0.00000000  0.00000000  1
  W  W0  1  0.33335800  0.66667900  0.27634600  1
  W  W1  1  0.66664200  0.33332100  0.72365400  1
  O  O0  1  0.17850800  0.82152200  0.19537900  1
  O  O1  1  0.17850800  0.35698600  0.19537900  1
  O  O2  1  0.64302900  0.82151400  0.19536400  1
  O  O3  1  0.82149200  0.17847800  0.80462100  1
  O  O4  1  0.82149200  0.64301400  0.80462100  1
  O  O5  1  0.35697100  0.17848600  0.80463600  1
  O  O6  1  0.33339400  0.66669700  0.50135900  1
  O  O7  1  0.66660600  0.33330300  0.49864100  1
loop_
_geom_bond_atom_site_label_1
_geom_bond_atom_site_label_2
_geom_bond_distance
_geom_bond_site_symmetry_2
Na0 O5 2.514071 1_554
Na0 O2 2.514071 1_445
Na0 O3 2.514101 1_454
Na0 O0 2.514101 1_545
Na0 O4 2.514102 1_444
Na0 O1 2.514102 1_555
O0 W0 1.824776 1_555
O0 Rb0 3.136434 1_565
O0 Rb2 3.188591 1_565
O0 Rb2 3.189225 1_455
O0 Rb1 3.381817 1_554
O1 W0 1.824777 1_555
O1 Rb0 3.136435 1_555
O1 Rb2 3.188587 1_555
O1 Rb2 3.189228 1_455
O1 Rb1 3.381815 1_554
O2 W0 1.824730 1_555
O2 Rb0 3.136227 1_665
O2 Rb2 3.188987 1_555
O2 Rb2 3.189000 1_565
O2 Rb1 3.381310 1_554
O3 W1 1.824776 1_555
O3 Rb0 3.136434 1_655
O3 Rb1 3.188591 1_545
O3 Rb1 3.189225 1_655
O3 Rb2 3.381817 1_556
O4 W1 1.824777 1_555
O4 Rb0 3.136435 1_665
O4 Rb1 3.188587 1_555
O4 Rb1 3.189228 1_655
O4 Rb2 3.381815 1_556
O5 W1 1.824730 1_555
O5 Rb0 3.136227 1_555
O5 Rb1 3.188987 1_555
O5 Rb1 3.189000 1_545
O5 Rb2 3.381310 1_556
O6 W0 1.805263 1_555
O6 Rb1 2.647791 1_555
O7 W1 1.805263 1_555
O7 Rb2 2.647791 1_555
