# generated using pymatgen
data_Rb2Y(NO3)5
_symmetry_space_group_name_H-M   'P 1'
_cell_length_a   11.34918876
_cell_length_b   11.34918876
_cell_length_c   9.47622200
_cell_angle_alpha   90.00000000
_cell_angle_beta   90.00000000
_cell_angle_gamma   120.00000444
_symmetry_Int_Tables_number   1
_chemical_formula_structural   Rb2Y(NO3)5
_chemical_formula_sum   'Rb6 Y3 N15 O45'
_cell_volume   1057.04987051
_cell_formula_units_Z   3
loop_
 _symmetry_equiv_pos_site_id
 _symmetry_equiv_pos_as_xyz
  1  'x, y, z'
loop_
 _atom_site_type_symbol
 _atom_site_label
 _atom_site_symmetry_multiplicity
 _atom_site_fract_x
 _atom_site_fract_y
 _atom_site_fract_z
 _atom_site_occupancy
  Rb  Rb0  1  0.87136500  0.66649500  0.37249900  1
  Rb  Rb1  1  0.33350500  0.20487000  0.70583200  1
  Rb  Rb2  1  0.79513000  0.12863500  0.03916500  1
  Rb  Rb3  1  0.60626800  0.93951600  0.53977300  1
  Rb  Rb4  1  0.06048400  0.66675100  0.87310700  1
  Rb  Rb5  1  0.33324900  0.39373200  0.20644000  1
  Y  Y0  1  0.33249200  0.99324000  0.20467400  1
  Y  Y1  1  0.00676000  0.33925200  0.53800700  1
  Y  Y2  1  0.66074800  0.66750800  0.87134100  1
  N  N0  1  0.66181800  0.41421000  0.93765600  1
  N  N1  1  0.58579000  0.24760700  0.27099000  1
  N  N2  1  0.75239300  0.33818200  0.60432300  1
  N  N3  1  0.08092700  0.99621400  0.13872100  1
  N  N4  1  0.00378600  0.08471200  0.47205400  1
  N  N5  1  0.91528800  0.91907300  0.80538700  1
  N  N6  1  0.23072200  0.92105300  0.49491200  1
  N  N7  1  0.07894700  0.30966900  0.82824500  1
  N  N8  1  0.69033100  0.76927800  0.16157800  1
  N  N9  1  0.58894800  0.56455500  0.58114900  1
  N  N10  1  0.43544500  0.02439400  0.91448300  1
  N  N11  1  0.97560600  0.41105200  0.24781600  1
  N  N12  1  0.33289900  0.74349300  0.20052400  1
  N  N13  1  0.25650700  0.58940700  0.53385800  1
  N  N14  1  0.41059300  0.66710100  0.86719100  1
  O  O0  1  0.86627500  0.44975500  0.61381700  1
  O  O1  1  0.55024500  0.41652100  0.94715100  1
  O  O2  1  0.58347900  0.13372500  0.28048400  1
  O  O3  1  0.47187000  0.23917300  0.23492900  1
  O  O4  1  0.76082700  0.23269700  0.56826300  1
  O  O5  1  0.76730300  0.52813000  0.90159600  1
  O  O6  1  0.68918400  0.35806000  0.29263600  1
  O  O7  1  0.64194000  0.33112400  0.62596900  1
  O  O8  1  0.66887600  0.31081600  0.95930300  1
  O  O9  1  0.08430300  0.88518100  0.12991900  1
  O  O10  1  0.11481900  0.19912300  0.46325300  1
  O  O11  1  0.80087700  0.91569700  0.79658600  1
  O  O12  1  0.19354000  0.10185300  0.17674200  1
  O  O13  1  0.89814700  0.09168700  0.51007600  1
  O  O14  1  0.90831300  0.80646000  0.84340900  1
  O  O15  1  0.02505900  0.02281900  0.78088600  1
  O  O16  1  0.97718100  0.00224000  0.11421900  1
  O  O17  1  0.99776000  0.97494100  0.44755300  1
  O  O18  1  0.17306700  0.83931900  0.39138300  1
  O  O19  1  0.16068100  0.33374900  0.72471600  1
  O  O20  1  0.66625100  0.82693300  0.05805000  1
  O  O21  1  0.33836900  0.03506800  0.46240700  1
  O  O22  1  0.96493200  0.30330100  0.79574000  1
  O  O23  1  0.69669900  0.66163100  0.12907400  1
  O  O24  1  0.18708300  0.89479200  0.61660600  1
  O  O25  1  0.10520800  0.29229100  0.94994000  1
  O  O26  1  0.70770900  0.81291700  0.28327300  1
  O  O27  1  0.70287400  0.67245500  0.61333800  1
  O  O28  1  0.32754500  0.03041900  0.94667100  1
  O  O29  1  0.96958100  0.29712600  0.28000500  1
  O  O30  1  0.50635900  0.50826000  0.68428800  1
  O  O31  1  0.49174000  0.99809900  0.01762200  1
  O  O32  1  0.00190100  0.49364100  0.35095500  1
  O  O33  1  0.56355400  0.51933700  0.45995100  1
  O  O34  1  0.48066300  0.04421800  0.79328400  1
  O  O35  1  0.95578200  0.43644600  0.12661700  1
  O  O36  1  0.51573500  0.75448100  0.79728600  1
  O  O37  1  0.24551900  0.76125400  0.13061900  1
  O  O38  1  0.23874600  0.48426500  0.46395300  1
  O  O39  1  0.15389100  0.57300400  0.60721700  1
  O  O40  1  0.42699600  0.58088600  0.94055100  1
  O  O41  1  0.41911400  0.84610900  0.27388400  1
  O  O42  1  0.33371700  0.63590000  0.19689300  1
  O  O43  1  0.36410000  0.69781800  0.53022700  1
  O  O44  1  0.30218200  0.66628300  0.86356000  1
loop_
_geom_bond_atom_site_label_1
_geom_bond_atom_site_label_2
_geom_bond_distance
_geom_bond_site_symmetry_2
N0 O8 1.232659 1_555
N0 O1 1.282738 1_555
N0 O5 1.293735 1_555
N1 O6 1.232663 1_555
N1 O2 1.282715 1_555
N1 O3 1.293743 1_555
N2 O7 1.232668 1_555
N2 O0 1.282726 1_555
N2 O4 1.293729 1_555
N3 O16 1.235096 1_465
N3 O9 1.282438 1_555
N3 O12 1.291655 1_565
N4 O17 1.235083 1_445
N4 O10 1.282449 1_555
N4 O13 1.291664 1_455
N5 O15 1.235088 1_665
N5 O11 1.282460 1_555
N5 O14 1.291653 1_555
N6 O24 1.231413 1_555
N6 O18 1.282240 1_555
N6 O21 1.296519 1_565
N7 O25 1.231421 1_555
N7 O19 1.282238 1_555
N7 O22 1.296520 1_455
N8 O26 1.231421 1_555
N8 O20 1.282238 1_555
N8 O23 1.296517 1_555
N9 O33 1.231897 1_555
N9 O30 1.281856 1_555
N9 O27 1.296557 1_555
N10 O34 1.231906 1_555
N10 O31 1.281862 1_546
N10 O28 1.296549 1_555
N11 O35 1.231906 1_555
N11 O32 1.281855 1_655
N11 O29 1.296562 1_555
N12 O42 1.226244 1_555
N12 O41 1.287420 1_555
N12 O37 1.289497 1_555
N13 O43 1.226244 1_555
N13 O39 1.287408 1_555
N13 O38 1.289507 1_555
N14 O44 1.226244 1_555
N14 O40 1.287432 1_555
N14 O36 1.289504 1_555
O0 Y1 2.574984 1_655
O0 Rb0 3.337865 1_555
O0 Rb4 3.395925 1_655
O1 Y2 2.574974 1_555
O1 Rb1 3.337876 1_555
O1 Rb5 3.395912 1_556
O2 Y0 2.574975 1_545
O2 Rb2 3.337880 1_555
O2 Rb3 3.395927 1_545
O3 Y0 2.441257 1_545
O3 Rb5 2.895606 1_555
O4 Y1 2.441258 1_655
O4 Rb3 2.895616 1_545
O5 Y2 2.441257 1_555
O5 Rb4 2.895615 1_655
O6 Rb0 3.140624 1_555
O7 Rb1 3.140624 1_555
O8 Rb2 3.140622 1_556
O9 Y0 2.546660 1_555
O9 Rb0 3.359529 1_455
O9 Rb4 3.386863 1_554
O10 Y1 2.546648 1_555
O10 Rb1 3.359526 1_555
O10 Rb5 3.386863 1_555
O11 Y2 2.546659 1_555
O11 Rb2 3.359518 1_566
O11 Rb3 3.386854 1_555
O12 Y0 2.453640 1_545
O12 Rb5 2.883425 1_555
O13 Y1 2.453639 1_655
O13 Rb3 2.883424 1_545
O14 Y2 2.453640 1_555
O14 Rb4 2.883435 1_655
O15 Rb1 3.129905 1_555
O16 Rb2 3.129905 1_555
O17 Rb0 3.129905 1_555
O18 Y0 2.508987 1_555
O18 Rb0 2.981177 1_455
O19 Y1 2.508983 1_555
O19 Rb1 2.981187 1_555
O20 Y2 2.508991 1_554
O20 Rb2 2.981177 1_565
O21 Y0 2.482567 1_545
O21 Rb1 3.023953 1_555
O22 Y1 2.482567 1_655
O22 Rb2 3.023953 1_556
O23 Y2 2.482567 1_554
O23 Rb0 3.023953 1_555
O24 Rb1 3.164286 1_565
O24 Rb4 3.309397 1_555
O25 Rb2 3.164283 1_456
O25 Rb5 3.309391 1_556
O26 Rb0 3.164286 1_555
O26 Rb3 3.309384 1_555
O27 Y2 2.486441 1_555
O27 Rb0 2.999868 1_555
O28 Y0 2.486441 1_546
O28 Rb1 2.999868 1_555
O29 Y1 2.486432 1_655
O29 Rb2 2.999875 1_555
O30 Y2 2.512328 1_555
O30 Rb1 2.998537 1_555
O31 Y0 2.512321 1_555
O31 Rb2 2.998536 1_565
O32 Y1 2.512321 1_555
O32 Rb0 2.998537 1_455
O33 Rb0 3.137760 1_555
O33 Rb5 3.302894 1_555
O34 Rb1 3.137751 1_555
O34 Rb3 3.302907 1_545
O35 Rb2 3.137760 1_555
O35 Rb4 3.302886 1_654
O36 Y2 2.408294 1_555
O36 Rb3 3.043488 1_555
O37 Y0 2.408294 1_555
O37 Rb4 3.043481 1_554
O38 Y1 2.408291 1_555
O38 Rb5 3.043494 1_555
O39 Y1 2.413800 1_555
O39 Rb4 3.119652 1_555
O40 Y2 2.413799 1_555
O40 Rb5 3.119645 1_556
O41 Y0 2.413809 1_555
O41 Rb3 3.119645 1_555
O42 Rb5 2.747249 1_555
O43 Rb3 2.747237 1_555
O44 Rb4 2.747226 1_555
