# generated using pymatgen
data_Ce2Co7
_symmetry_space_group_name_H-M   'P 1'
_cell_length_a   4.87867793
_cell_length_b   4.87867800
_cell_length_c   12.69466852
_cell_angle_alpha   78.92144881
_cell_angle_beta   78.92144887
_cell_angle_gamma   59.99999950
_symmetry_Int_Tables_number   1
_chemical_formula_structural   Ce2Co7
_chemical_formula_sum   'Ce4 Co14'
_cell_volume   255.14893603
_cell_formula_units_Z   2
loop_
 _symmetry_equiv_pos_site_id
 _symmetry_equiv_pos_as_xyz
  1  'x, y, z'
loop_
 _atom_site_type_symbol
 _atom_site_label
 _atom_site_symmetry_multiplicity
 _atom_site_fract_x
 _atom_site_fract_y
 _atom_site_fract_z
 _atom_site_occupancy
  Ce  Ce0  1  0.94857700  0.94857700  0.15426900  1
  Ce  Ce1  1  0.05142300  0.05142300  0.84573100  1
  Ce  Ce2  1  0.85262400  0.85262400  0.44212800  1
  Ce  Ce3  1  0.14737600  0.14737600  0.55787200  1
  Co  Co0  1  0.50000000  0.50000000  0.50000000  1
  Co  Co1  1  0.72180000  0.72180000  0.83460000  1
  Co  Co2  1  0.27820000  0.27820000  0.16540000  1
  Co  Co3  1  0.61178100  0.61178100  0.16465700  1
  Co  Co4  1  0.38821900  0.38821900  0.83534300  1
  Co  Co5  1  0.00000000  0.50000000  0.00000000  1
  Co  Co6  1  0.50000000  0.00000000  0.00000000  1
  Co  Co7  1  0.50000000  0.50000000  0.00000000  1
  Co  Co8  1  0.39109900  0.39109900  0.32751900  1
  Co  Co9  1  0.89028300  0.39109900  0.32751900  1
  Co  Co10  1  0.39109900  0.89028300  0.32751900  1
  Co  Co11  1  0.60890100  0.60890100  0.67248100  1
  Co  Co12  1  0.10971700  0.60890100  0.67248100  1
  Co  Co13  1  0.60890100  0.10971700  0.67248100  1
loop_
_geom_bond_atom_site_label_1
_geom_bond_atom_site_label_2
_geom_bond_distance
_geom_bond_site_symmetry_2
Ce0 Co3 2.819639 1_655
Ce0 Co3 2.819640 1_555
Ce0 Co3 2.819640 1_565
Ce0 Co2 2.820074 1_565
Ce0 Co2 2.820074 1_655
Ce0 Co2 2.820074 1_665
Ce0 Ce2 3.563187 1_555
Ce1 Co4 2.819639 1_455
Ce1 Co4 2.819640 1_545
Ce1 Co4 2.819640 1_555
Ce1 Co1 2.820074 1_545
Ce1 Co1 2.820074 1_445
Ce1 Co1 2.820074 1_455
Ce1 Ce3 3.563187 1_555
Ce2 Co8 2.821873 1_655
Ce2 Co10 2.821873 1_655
Ce2 Co10 2.821873 1_555
Ce2 Co8 2.821873 1_565
Ce2 Co9 2.821873 1_555
Ce2 Co9 2.821873 1_565
Ce2 Co0 2.906371 1_655
Ce2 Co0 2.906371 1_555
Ce2 Co0 2.906371 1_565
Ce2 Ce3 3.160139 1_565
Ce2 Ce3 3.160139 1_655
Ce2 Ce3 3.160139 1_665
Ce2 Co12 3.181229 1_655
Ce2 Co11 3.181229 1_555
Ce2 Co13 3.181229 1_565
Ce3 Co13 2.821873 1_455
Ce3 Co11 2.821873 1_455
Ce3 Co11 2.821873 1_545
Ce3 Co13 2.821873 1_555
Ce3 Co12 2.821873 1_545
Ce3 Co12 2.821873 1_555
Ce3 Co0 2.906371 1_455
Ce3 Co0 2.906371 1_545
Ce3 Co0 2.906371 1_555
Ce3 Co9 3.181229 1_455
Ce3 Co8 3.181229 1_555
Ce3 Co10 3.181229 1_545
Co0 Co9 2.556416 1_555
Co0 Co12 2.556416 1_555
Co0 Co10 2.556416 1_555
Co0 Co11 2.556416 1_555
Co0 Co8 2.556416 1_555
Co0 Co13 2.556416 1_555
Co1 Co12 2.452952 1_655
Co1 Co11 2.452952 1_555
Co1 Co13 2.452952 1_565
Co1 Co5 2.484984 1_656
Co1 Co6 2.484984 1_566
Co1 Co7 2.484984 1_556
Co1 Co4 2.816721 1_655
Co1 Co4 2.816721 1_565
Co1 Co4 2.816721 1_555
Co2 Co9 2.452952 1_455
Co2 Co8 2.452952 1_555
Co2 Co5 2.484984 1_555
Co2 Co6 2.484984 1_555
Co2 Co7 2.484984 1_555
Co2 Co3 2.816721 1_455
Co2 Co3 2.816721 1_545
Co2 Co3 2.816721 1_555
Co3 Co9 2.457849 1_555
Co3 Co8 2.457849 1_555
Co3 Co5 2.477412 1_655
Co3 Co7 2.477412 1_555
Co3 Co6 2.477412 1_565
Co4 Co5 2.477412 1_556
Co4 Co6 2.477412 1_556
Co4 Co7 2.477412 1_556
Co5 Co6 2.439339 1_555
Co5 Co7 2.439339 1_455
Co5 Co7 2.439339 1_555
Co5 Co6 2.439339 1_465
Co6 Co7 2.439339 1_545
Co6 Co7 2.439339 1_555
Co8 Co9 2.435358 1_555
Co8 Co9 2.443320 1_455
Co10 Co9 2.435358 1_555
Co10 Co8 2.435358 1_555
Co10 Co9 2.443320 1_465
Co10 Co8 2.443320 1_565
Co10 Co2 2.452952 1_565
Co10 Co3 2.457849 1_555
Co11 Co12 2.435358 1_555
Co11 Co13 2.435358 1_555
Co11 Co12 2.443320 1_655
Co11 Co13 2.443320 1_565
Co11 Co4 2.457849 1_555
Co12 Co13 2.435358 1_555
Co12 Co13 2.443320 1_465
Co12 Co4 2.457849 1_555
Co13 Co4 2.457849 1_555
