# generated using pymatgen
data_Ca2CrIrO6
_symmetry_space_group_name_H-M   'P 1'
_cell_length_a   5.56248200
_cell_length_b   5.38596400
_cell_length_c   9.41222073
_cell_angle_alpha   55.03711123
_cell_angle_beta   90.00000000
_cell_angle_gamma   90.00000000
_symmetry_Int_Tables_number   1
_chemical_formula_structural   Ca2CrIrO6
_chemical_formula_sum   'Ca4 Cr2 Ir2 O12'
_cell_volume   231.09232358
_cell_formula_units_Z   2
loop_
 _symmetry_equiv_pos_site_id
 _symmetry_equiv_pos_as_xyz
  1  'x, y, z'
loop_
 _atom_site_type_symbol
 _atom_site_label
 _atom_site_symmetry_multiplicity
 _atom_site_fract_x
 _atom_site_fract_y
 _atom_site_fract_z
 _atom_site_occupancy
  Ca  Ca0  1  0.94552500  0.23578800  0.75062600  1
  Ca  Ca1  1  0.44552500  0.76421200  0.74937400  1
  Ca  Ca2  1  0.55447500  0.23578800  0.25062600  1
  Ca  Ca3  1  0.05447500  0.76421200  0.24937400  1
  Cr  Cr0  1  0.50000000  0.00000000  0.00000000  1
  Cr  Cr1  1  0.00000000  0.00000000  0.50000000  1
  Ir  Ir0  1  0.50000000  0.50000000  0.50000000  1
  Ir  Ir1  1  0.00000000  0.50000000  0.00000000  1
  O  O0  1  0.47274000  0.65635100  0.25142200  1
  O  O1  1  0.20120300  0.84554900  0.95215500  1
  O  O2  1  0.20357900  0.25575400  0.54711700  1
  O  O3  1  0.70357900  0.74424600  0.95288300  1
  O  O4  1  0.70120300  0.15445100  0.54784500  1
  O  O5  1  0.97274000  0.34364900  0.24857800  1
  O  O6  1  0.02726000  0.65635100  0.75142200  1
  O  O7  1  0.29879700  0.84554900  0.45215500  1
  O  O8  1  0.29642100  0.25575400  0.04711700  1
  O  O9  1  0.79879700  0.15445100  0.04784500  1
  O  O10  1  0.79642100  0.74424600  0.45288300  1
  O  O11  1  0.52726000  0.34364900  0.74857800  1
loop_
_geom_bond_atom_site_label_1
_geom_bond_atom_site_label_2
_geom_bond_distance
_geom_bond_site_symmetry_2
Ca0 O6 2.314532 1_655
Ca0 O1 2.338597 1_645
Ca0 O2 2.346264 1_655
Ca0 O11 2.395423 1_555
Ca0 O4 2.576819 1_555
Ca0 O3 2.582242 1_545
Ca0 O10 2.691713 1_555
Ca0 O9 2.698045 1_556
Ca1 O11 2.314532 1_555
Ca1 O4 2.338597 1_565
Ca1 O3 2.346264 1_555
Ca1 O6 2.395423 1_555
Ca1 O1 2.576819 1_555
Ca1 O2 2.582242 1_565
Ca1 O8 2.691713 1_556
Ca1 O7 2.698045 1_555
Ca2 O0 2.314532 1_555
Ca2 O7 2.338597 1_545
Ca2 O8 2.346264 1_555
Ca2 O5 2.395423 1_555
Ca2 O9 2.576819 1_555
Ca2 O10 2.582242 1_545
Ca2 O3 2.691713 1_554
Ca2 O4 2.698045 1_555
Ca3 O5 2.314532 1_455
Ca3 O9 2.338597 1_465
Ca3 O10 2.346264 1_455
Ca3 O0 2.395423 1_555
Ca3 O7 2.576819 1_555
Ca3 O8 2.582242 1_565
Ca3 O2 2.691713 1_555
Ca3 O1 2.698045 1_554
Cr0 O0 2.007215 1_545
Cr0 O11 2.007215 1_554
Cr0 O8 2.019057 1_555
Cr0 O3 2.019057 1_544
Cr0 O9 2.021524 1_555
Cr0 O1 2.021524 1_544
Cr1 O6 2.007215 1_545
Cr1 O5 2.007215 1_455
Cr1 O2 2.019057 1_555
Cr1 O10 2.019057 1_445
Cr1 O7 2.021524 1_545
Cr1 O4 2.021524 1_455
Ir0 O11 1.986986 1_555
Ir0 O0 1.986986 1_555
Ir0 O7 1.989616 1_555
Ir0 O4 1.989616 1_555
Ir0 O10 1.994305 1_555
Ir0 O2 1.994305 1_555
Ir1 O5 1.986986 1_455
Ir1 O6 1.986986 1_554
Ir1 O1 1.989616 1_554
Ir1 O9 1.989616 1_455
Ir1 O3 1.994305 1_454
Ir1 O8 1.994305 1_555
