# generated using pymatgen
data_Na2Fe3SbO8
_symmetry_space_group_name_H-M   'P 1'
_cell_length_a   3.05789000
_cell_length_b   9.47307200
_cell_length_c   10.97631600
_cell_angle_alpha   90.00000000
_cell_angle_beta   90.00000000
_cell_angle_gamma   90.00000000
_symmetry_Int_Tables_number   1
_chemical_formula_structural   Na2Fe3SbO8
_chemical_formula_sum   'Na4 Fe6 Sb2 O16'
_cell_volume   317.95766459
_cell_formula_units_Z   2
loop_
 _symmetry_equiv_pos_site_id
 _symmetry_equiv_pos_as_xyz
  1  'x, y, z'
loop_
 _atom_site_type_symbol
 _atom_site_label
 _atom_site_symmetry_multiplicity
 _atom_site_fract_x
 _atom_site_fract_y
 _atom_site_fract_z
 _atom_site_occupancy
  Na  Na0  1  0.00000000  0.01756700  0.84610500  1
  Na  Na1  1  0.00000000  0.50407900  0.64248500  1
  Na  Na2  1  0.50000000  0.49592100  0.14248500  1
  Na  Na3  1  0.50000000  0.98243300  0.34610500  1
  Fe  Fe0  1  0.00000000  0.68083200  0.40079100  1
  Fe  Fe1  1  0.00000000  0.16547400  0.09988000  1
  Fe  Fe2  1  0.50000000  0.83452600  0.59988000  1
  Fe  Fe3  1  0.50000000  0.31916800  0.90079100  1
  Fe  Fe4  1  0.00000000  0.18066500  0.62560800  1
  Fe  Fe5  1  0.50000000  0.81933500  0.12560800  1
  Sb  Sb0  1  0.00000000  0.69389900  0.88643100  1
  Sb  Sb1  1  0.50000000  0.30610100  0.38643100  1
  O  O0  1  0.00000000  0.77067600  0.71907700  1
  O  O1  1  0.00000000  0.28052900  0.78246200  1
  O  O2  1  0.50000000  0.71947100  0.28246200  1
  O  O3  1  0.50000000  0.22932400  0.21907700  1
  O  O4  1  0.00000000  0.67309900  0.06587900  1
  O  O5  1  0.00000000  0.16802800  0.42475800  1
  O  O6  1  0.50000000  0.83197200  0.92475800  1
  O  O7  1  0.50000000  0.32690100  0.56587900  1
  O  O8  1  0.00000000  0.44363200  0.34865900  1
  O  O9  1  0.00000000  0.95236600  0.15645300  1
  O  O10  1  0.50000000  0.04763400  0.65645300  1
  O  O11  1  0.50000000  0.55636800  0.84865900  1
  O  O12  1  0.00000000  0.36266200  0.01714800  1
  O  O13  1  0.00000000  0.87035200  0.48426400  1
  O  O14  1  0.50000000  0.12964800  0.98426400  1
  O  O15  1  0.50000000  0.63733800  0.51714800  1
loop_
_geom_bond_atom_site_label_1
_geom_bond_atom_site_label_2
_geom_bond_distance
_geom_bond_site_symmetry_2
Na0 O14 2.400977 1_455
Na0 O14 2.400977 1_555
Na0 O6 2.484774 1_445
Na0 O6 2.484774 1_545
Na0 O1 2.587154 1_555
Na0 O10 2.598498 1_455
Na0 O10 2.598498 1_555
Na0 O0 2.722890 1_545
Na1 O15 2.413278 1_555
Na1 O15 2.413278 1_455
Na1 O7 2.421115 1_455
Na1 O7 2.421115 1_555
Na1 O1 2.616352 1_555
Na1 O0 2.661745 1_555
Na1 O11 2.775670 1_555
Na1 O11 2.775670 1_455
Na2 O12 2.413278 1_555
Na2 O12 2.413278 1_655
Na2 O4 2.421115 1_555
Na2 O4 2.421115 1_655
Na2 O2 2.616352 1_555
Na2 O3 2.661745 1_555
Na2 O8 2.775670 1_555
Na2 O8 2.775670 1_655
Na3 O13 2.400977 1_555
Na3 O13 2.400977 1_655
Na3 O5 2.484774 1_565
Na3 O5 2.484774 1_665
Na3 O2 2.587154 1_555
Na3 O9 2.598498 1_555
Na3 O9 2.598498 1_655
Na3 O3 2.722890 1_565
Fe0 O13 2.015615 1_555
Fe0 O15 2.034355 1_455
Fe0 O15 2.034355 1_555
Fe0 O2 2.039258 1_455
Fe0 O2 2.039258 1_555
Fe0 O8 2.318728 1_555
Fe1 O14 2.015765 1_454
Fe1 O14 2.015765 1_554
Fe1 O12 2.077009 1_555
Fe1 O3 2.101258 1_555
Fe1 O3 2.101258 1_455
Fe1 O9 2.112131 1_545
Fe2 O13 2.015765 1_555
Fe2 O13 2.015765 1_655
Fe2 O15 2.077009 1_555
Fe2 O0 2.101258 1_555
Fe2 O0 2.101258 1_655
Fe2 O10 2.112131 1_565
Fe3 O14 2.015615 1_555
Fe3 O12 2.034355 1_656
Fe3 O12 2.034355 1_556
Fe3 O1 2.039258 1_655
Fe3 O1 2.039258 1_555
Fe3 O11 2.318728 1_555
Fe4 O1 1.964467 1_555
Fe4 O10 2.010083 1_555
Fe4 O10 2.010083 1_455
Fe4 O7 2.164846 1_455
Fe4 O7 2.164846 1_555
Fe4 O5 2.207841 1_555
Fe5 O2 1.964467 1_555
Fe5 O9 2.010083 1_655
Fe5 O9 2.010083 1_555
Fe5 O4 2.164846 1_555
Fe5 O4 2.164846 1_655
Fe5 O6 2.207841 1_554
O0 Sb0 1.975677 1_555
O3 Sb1 1.975677 1_555
O4 Sb0 1.979509 1_554
O5 Sb1 2.055590 1_555
O5 Sb1 2.055590 1_455
O6 Sb0 2.055590 1_555
O6 Sb0 2.055590 1_655
O7 Sb1 1.979509 1_555
O8 Sb1 2.051087 1_455
O8 Sb1 2.051087 1_555
O11 Sb0 2.051087 1_555
O11 Sb0 2.051087 1_655
