# generated using pymatgen
data_Dy3(SbPd2)4
_symmetry_space_group_name_H-M   'P 1'
_cell_length_a   9.38020562
_cell_length_b   9.38020562
_cell_length_c   9.38020562
_cell_angle_alpha   60.00000000
_cell_angle_beta   60.00000000
_cell_angle_gamma   60.00000000
_symmetry_Int_Tables_number   1
_chemical_formula_structural   Dy3(SbPd2)4
_chemical_formula_sum   'Dy6 Sb8 Pd16'
_cell_volume   583.60912959
_cell_formula_units_Z   2
loop_
 _symmetry_equiv_pos_site_id
 _symmetry_equiv_pos_as_xyz
  1  'x, y, z'
loop_
 _atom_site_type_symbol
 _atom_site_label
 _atom_site_symmetry_multiplicity
 _atom_site_fract_x
 _atom_site_fract_y
 _atom_site_fract_z
 _atom_site_occupancy
  Dy  Dy0  1  0.72446300  0.27553700  0.27553700  1
  Dy  Dy1  1  0.27553700  0.72446300  0.72446300  1
  Dy  Dy2  1  0.27553700  0.72446300  0.27553700  1
  Dy  Dy3  1  0.72446300  0.27553700  0.72446300  1
  Dy  Dy4  1  0.27553700  0.27553700  0.72446300  1
  Dy  Dy5  1  0.72446300  0.72446300  0.27553700  1
  Sb  Sb0  1  0.00000000  0.00000000  0.00000000  1
  Sb  Sb1  1  0.50000000  0.00000000  0.00000000  1
  Sb  Sb2  1  0.00000000  0.50000000  0.50000000  1
  Sb  Sb3  1  0.00000000  0.50000000  0.00000000  1
  Sb  Sb4  1  0.50000000  0.00000000  0.50000000  1
  Sb  Sb5  1  0.00000000  0.00000000  0.50000000  1
  Sb  Sb6  1  0.50000000  0.50000000  0.00000000  1
  Sb  Sb7  1  0.50000000  0.50000000  0.50000000  1
  Pd  Pd0  1  0.11880500  0.11880500  0.11880500  1
  Pd  Pd1  1  0.88119500  0.88119500  0.88119500  1
  Pd  Pd2  1  0.11880500  0.11880500  0.64358500  1
  Pd  Pd3  1  0.11880500  0.64358500  0.11880500  1
  Pd  Pd4  1  0.88119500  0.88119500  0.35641500  1
  Pd  Pd5  1  0.88119500  0.35641500  0.88119500  1
  Pd  Pd6  1  0.64358500  0.11880500  0.11880500  1
  Pd  Pd7  1  0.35641500  0.88119500  0.88119500  1
  Pd  Pd8  1  0.33357300  0.33357300  0.33357300  1
  Pd  Pd9  1  0.66642700  0.66642700  0.66642700  1
  Pd  Pd10  1  0.33357300  0.33357300  0.99928100  1
  Pd  Pd11  1  0.33357300  0.99928100  0.33357300  1
  Pd  Pd12  1  0.66642700  0.66642700  0.00071900  1
  Pd  Pd13  1  0.66642700  0.00071900  0.66642700  1
  Pd  Pd14  1  0.99928100  0.33357300  0.33357300  1
  Pd  Pd15  1  0.00071900  0.66642700  0.66642700  1
loop_
_geom_bond_atom_site_label_1
_geom_bond_atom_site_label_2
_geom_bond_distance
_geom_bond_site_symmetry_2
Dy0 Sb7 2.977640 1_555
Dy0 Pd6 3.048038 1_555
Dy0 Pd0 3.048038 1_655
Dy0 Pd5 3.048038 1_554
Dy0 Pd4 3.048038 1_545
Dy0 Pd8 3.215757 1_555
Dy0 Pd12 3.215757 1_555
Dy0 Pd13 3.215757 1_555
Dy0 Pd14 3.215757 1_555
Dy0 Sb6 3.333661 1_555
Dy0 Sb4 3.333661 1_555
Dy0 Sb5 3.333661 1_655
Dy0 Sb3 3.333661 1_655
Dy1 Sb7 2.977640 1_555
Dy1 Pd1 3.048038 1_455
Dy1 Pd7 3.048038 1_555
Dy1 Pd2 3.048038 1_565
Dy1 Pd3 3.048038 1_556
Dy1 Pd15 3.215757 1_555
Dy1 Pd11 3.215757 1_555
Dy1 Pd9 3.215757 1_555
Dy1 Pd10 3.215757 1_555
Dy1 Sb3 3.333661 1_556
Dy1 Sb5 3.333661 1_565
Dy1 Sb6 3.333661 1_556
Dy1 Sb4 3.333661 1_565
Dy2 Sb7 2.977640 1_555
Dy2 Pd4 3.048038 1_455
Dy2 Pd3 3.048038 1_555
Dy2 Pd0 3.048038 1_565
Dy2 Pd7 3.048038 1_554
Dy2 Pd8 3.215757 1_555
Dy2 Pd12 3.215757 1_555
Dy2 Pd15 3.215757 1_555
Dy2 Pd11 3.215757 1_555
Dy2 Sb6 3.333661 1_555
Dy2 Sb2 3.333661 1_555
Dy2 Sb5 3.333661 1_565
Dy2 Sb1 3.333661 1_565
Dy3 Sb7 2.977640 1_555
Dy3 Pd5 3.048038 1_555
Dy3 Pd1 3.048038 1_545
Dy3 Pd2 3.048038 1_655
Dy3 Pd6 3.048038 1_556
Dy3 Pd13 3.215757 1_555
Dy3 Pd10 3.215757 1_555
Dy3 Pd14 3.215757 1_555
Dy3 Pd9 3.215757 1_555
Dy3 Sb5 3.333661 1_655
Dy3 Sb1 3.333661 1_556
Dy3 Sb2 3.333661 1_655
Dy3 Sb6 3.333661 1_556
Dy4 Sb7 2.977640 1_555
Dy4 Pd7 3.048038 1_545
Dy4 Pd5 3.048038 1_455
Dy4 Pd2 3.048038 1_555
Dy4 Pd0 3.048038 1_556
Dy4 Pd15 3.215757 1_555
Dy4 Pd8 3.215757 1_555
Dy4 Pd13 3.215757 1_555
Dy4 Pd10 3.215757 1_555
Dy4 Sb2 3.333661 1_555
Dy4 Sb4 3.333661 1_555
Dy4 Sb3 3.333661 1_556
Dy4 Sb1 3.333661 1_556
Dy5 Sb7 2.977640 1_555
Dy5 Pd4 3.048038 1_555
Dy5 Pd3 3.048038 1_655
Dy5 Pd6 3.048038 1_565
Dy5 Pd1 3.048038 1_554
Dy5 Pd12 3.215757 1_555
Dy5 Pd14 3.215757 1_555
Dy5 Pd11 3.215757 1_555
Dy5 Pd9 3.215757 1_555
Dy5 Sb1 3.333661 1_565
Dy5 Sb3 3.333661 1_655
Dy5 Sb2 3.333661 1_655
Dy5 Sb4 3.333661 1_565
Pd0 Sb0 2.729749 1_555
Pd0 Sb1 2.922619 1_555
Pd0 Sb5 2.922619 1_555
Pd0 Sb3 2.922619 1_555
Pd1 Sb0 2.729749 1_666
Pd1 Sb1 2.922619 1_566
Pd1 Sb5 2.922619 1_665
Pd1 Sb3 2.922619 1_656
Pd2 Sb0 2.729749 1_556
Pd2 Sb2 2.922619 1_555
Pd2 Sb5 2.922619 1_555
Pd2 Sb4 2.922619 1_555
Pd3 Sb0 2.729749 1_565
Pd3 Sb2 2.922619 1_555
Pd3 Sb6 2.922619 1_555
Pd3 Sb3 2.922619 1_555
Pd4 Sb0 2.729749 1_665
Pd4 Sb4 2.922619 1_565
Pd4 Sb2 2.922619 1_655
Pd4 Sb5 2.922619 1_665
Pd5 Sb0 2.729749 1_656
Pd5 Sb6 2.922619 1_556
Pd5 Sb2 2.922619 1_655
Pd5 Sb3 2.922619 1_656
Pd6 Sb0 2.729749 1_655
Pd6 Sb1 2.922619 1_555
Pd6 Sb6 2.922619 1_555
Pd6 Sb4 2.922619 1_555
Pd7 Sb0 2.729749 1_566
Pd7 Sb6 2.922619 1_556
Pd7 Sb4 2.922619 1_565
Pd7 Sb1 2.922619 1_566
Pd8 Sb4 2.707838 1_555
Pd8 Sb2 2.707838 1_555
Pd8 Sb6 2.707838 1_555
Pd9 Sb6 2.707838 1_556
Pd9 Sb2 2.707838 1_655
Pd9 Sb4 2.707838 1_565
Pd10 Sb6 2.707838 1_556
Pd10 Sb3 2.707838 1_556
Pd10 Sb1 2.707838 1_556
Pd11 Sb5 2.707838 1_565
Pd11 Sb4 2.707838 1_565
Pd11 Sb1 2.707838 1_565
Pd12 Sb3 2.707838 1_655
Pd12 Sb6 2.707838 1_555
Pd12 Sb1 2.707838 1_565
Pd13 Sb5 2.707838 1_655
Pd13 Sb1 2.707838 1_556
Pd13 Sb4 2.707838 1_555
Pd14 Sb5 2.707838 1_655
Pd14 Sb2 2.707838 1_655
Pd14 Sb3 2.707838 1_655
Pd15 Sb5 2.707838 1_565
Pd15 Sb3 2.707838 1_556
Pd15 Sb2 2.707838 1_555
