# generated using pymatgen
data_Cd4FeS5
_symmetry_space_group_name_H-M   'P 1'
_cell_length_a   17.94694269
_cell_length_b   17.94694269
_cell_length_c   6.79451000
_cell_angle_alpha   89.27717376
_cell_angle_beta   89.27717376
_cell_angle_gamma   13.26804860
_symmetry_Int_Tables_number   1
_chemical_formula_structural   Cd4FeS5
_chemical_formula_sum   'Cd8 Fe2 S10'
_cell_volume   502.22693867
_cell_formula_units_Z   2
loop_
 _symmetry_equiv_pos_site_id
 _symmetry_equiv_pos_as_xyz
  1  'x, y, z'
loop_
 _atom_site_type_symbol
 _atom_site_label
 _atom_site_symmetry_multiplicity
 _atom_site_fract_x
 _atom_site_fract_y
 _atom_site_fract_z
 _atom_site_occupancy
  Cd  Cd0  1  0.93030300  0.93030300  0.49818500  1
  Cd  Cd1  1  0.33188900  0.33188900  0.49444800  1
  Cd  Cd2  1  0.73454400  0.73454400  0.49514900  1
  Cd  Cd3  1  0.13279500  0.13279500  0.50055800  1
  Cd  Cd4  1  0.53187400  0.53187400  0.50030900  1
  Cd  Cd5  1  0.46215200  0.46215200  0.00303900  1
  Cd  Cd6  1  0.66956800  0.66956800  0.00236700  1
  Cd  Cd7  1  0.06566200  0.06566200  0.00142700  1
  Fe  Fe0  1  0.86138600  0.86138600  0.99737600  1
  Fe  Fe1  1  0.26862900  0.26862900  0.00286400  1
  S  S0  1  0.92440500  0.92440500  0.11842000  1
  S  S1  1  0.33212800  0.33212800  0.10868700  1
  S  S2  1  0.73965300  0.73965300  0.11037500  1
  S  S3  1  0.13355600  0.13355600  0.12209300  1
  S  S4  1  0.53031300  0.53031300  0.12252700  1
  S  S5  1  0.46445700  0.46445700  0.62333400  1
  S  S6  1  0.86403500  0.86403500  0.64985300  1
  S  S7  1  0.26571700  0.26571700  0.65236200  1
  S  S8  1  0.66671800  0.66671800  0.62257100  1
  S  S9  1  0.06544600  0.06544600  0.62405600  1
loop_
_geom_bond_atom_site_label_1
_geom_bond_atom_site_label_2
_geom_bond_distance
_geom_bond_site_symmetry_2
Cd0 S5 2.555579 1_565
Cd0 S5 2.555579 1_655
Cd0 S6 2.565620 1_555
Cd0 S0 2.591532 1_555
Cd1 S7 2.579352 1_555
Cd1 S6 2.599628 1_455
Cd1 S6 2.599628 1_545
Cd1 S1 2.620963 1_555
Cd2 S8 2.558174 1_555
Cd2 S7 2.589451 1_565
Cd2 S7 2.589451 1_655
Cd2 S2 2.618380 1_555
Cd3 S9 2.533542 1_555
Cd3 S8 2.544480 1_455
Cd3 S8 2.544480 1_545
Cd3 S3 2.571283 1_555
Cd4 S5 2.534807 1_555
Cd4 S9 2.542446 1_565
Cd4 S9 2.542446 1_655
Cd4 S4 2.568153 1_555
Cd5 S4 2.571968 1_555
Cd5 S5 2.580175 1_554
Cd5 S0 2.588014 1_455
Cd5 S0 2.588014 1_545
Cd6 S3 2.565652 1_565
Cd6 S3 2.565652 1_655
Cd6 S8 2.583817 1_554
Cd6 S2 2.613241 1_555
Cd7 S4 2.556930 1_455
Cd7 S4 2.556930 1_545
Cd7 S9 2.564160 1_554
Cd7 S3 2.565579 1_555
Fe0 S6 2.361938 1_555
Fe0 S0 2.402431 1_556
Fe0 S1 2.436992 1_566
Fe0 S1 2.436992 1_656
Fe1 S1 2.384086 1_555
Fe1 S7 2.385068 1_554
Fe1 S2 2.424982 1_455
Fe1 S2 2.424982 1_545
