# generated using pymatgen
data_ZnMo3O7
_symmetry_space_group_name_H-M   'P 1'
_cell_length_a   5.89488000
_cell_length_b   9.88508600
_cell_length_c   11.26616100
_cell_angle_alpha   90.00000000
_cell_angle_beta   90.00000000
_cell_angle_gamma   90.00000000
_symmetry_Int_Tables_number   1
_chemical_formula_structural   ZnMo3O7
_chemical_formula_sum   'Zn4 Mo12 O28'
_cell_volume   656.49492632
_cell_formula_units_Z   4
loop_
 _symmetry_equiv_pos_site_id
 _symmetry_equiv_pos_as_xyz
  1  'x, y, z'
loop_
 _atom_site_type_symbol
 _atom_site_label
 _atom_site_symmetry_multiplicity
 _atom_site_fract_x
 _atom_site_fract_y
 _atom_site_fract_z
 _atom_site_occupancy
  Zn  Zn0  1  0.36711200  0.01648500  0.25000000  1
  Zn  Zn1  1  0.86711200  0.48351500  0.75000000  1
  Zn  Zn2  1  0.63288800  0.98351500  0.75000000  1
  Zn  Zn3  1  0.13288800  0.51648500  0.25000000  1
  Mo  Mo0  1  0.70423100  0.68208400  0.97827700  1
  Mo  Mo1  1  0.20423100  0.81791600  0.02172300  1
  Mo  Mo2  1  0.29576900  0.31791600  0.47827700  1
  Mo  Mo3  1  0.79576900  0.18208400  0.52172300  1
  Mo  Mo4  1  0.71527800  0.78760700  0.25000000  1
  Mo  Mo5  1  0.21527800  0.71239300  0.75000000  1
  Mo  Mo6  1  0.28472200  0.21239300  0.75000000  1
  Mo  Mo7  1  0.78472200  0.28760700  0.25000000  1
  Mo  Mo8  1  0.20423100  0.81791600  0.47827700  1
  Mo  Mo9  1  0.70423100  0.68208400  0.52172300  1
  Mo  Mo10  1  0.79576900  0.18208400  0.97827700  1
  Mo  Mo11  1  0.29576900  0.31791600  0.02172300  1
  O  O0  1  0.06243100  0.26955400  0.88881500  1
  O  O1  1  0.56243100  0.23044600  0.11118500  1
  O  O2  1  0.93756900  0.73044600  0.38881500  1
  O  O3  1  0.43756900  0.76955400  0.61118500  1
  O  O4  1  0.93756900  0.73044600  0.11118500  1
  O  O5  1  0.43756900  0.76955400  0.88881500  1
  O  O6  1  0.06243100  0.26955400  0.61118500  1
  O  O7  1  0.56243100  0.23044600  0.38881500  1
  O  O8  1  0.50908500  0.25283600  0.88454800  1
  O  O9  1  0.00908500  0.24716400  0.11545200  1
  O  O10  1  0.49091500  0.74716400  0.38454800  1
  O  O11  1  0.99091500  0.75283600  0.61545200  1
  O  O12  1  0.49091500  0.74716400  0.11545200  1
  O  O13  1  0.99091500  0.75283600  0.88454800  1
  O  O14  1  0.50908500  0.25283600  0.61545200  1
  O  O15  1  0.00908500  0.24716400  0.38454800  1
  O  O16  1  0.80426500  0.47600100  0.25000000  1
  O  O17  1  0.30426500  0.02399900  0.75000000  1
  O  O18  1  0.19573500  0.52399900  0.75000000  1
  O  O19  1  0.69573500  0.97600100  0.25000000  1
  O  O20  1  0.76960200  0.01544500  0.59683900  1
  O  O21  1  0.26960200  0.48455500  0.40316100  1
  O  O22  1  0.23039800  0.98455500  0.09683900  1
  O  O23  1  0.73039800  0.51544500  0.90316100  1
  O  O24  1  0.23039800  0.98455500  0.40316100  1
  O  O25  1  0.73039800  0.51544500  0.59683900  1
  O  O26  1  0.76960200  0.01544500  0.90316100  1
  O  O27  1  0.26960200  0.48455500  0.09683900  1
loop_
_geom_bond_atom_site_label_1
_geom_bond_atom_site_label_2
_geom_bond_distance
_geom_bond_site_symmetry_2
Mo0 O23 1.858324 1_555
Mo0 O5 2.057781 1_555
Mo0 O4 2.088693 1_556
Mo0 O12 2.093674 1_556
Mo0 O13 2.111919 1_555
Mo1 O22 1.858324 1_555
Mo1 O4 2.057781 1_455
Mo1 O5 2.088693 1_554
Mo1 O13 2.093674 1_454
Mo1 O12 2.111919 1_555
Mo2 O21 1.858324 1_555
Mo2 O7 2.057781 1_555
Mo2 O6 2.088693 1_555
Mo2 O14 2.093674 1_555
Mo2 O15 2.111919 1_555
Mo3 O20 1.858324 1_555
Mo3 O6 2.057781 1_655
Mo3 O7 2.088693 1_555
Mo3 O15 2.093674 1_655
Mo3 O14 2.111919 1_555
Mo4 O19 1.865851 1_555
Mo4 O10 2.051060 1_555
Mo4 O12 2.051060 1_555
Mo4 O2 2.117117 1_555
Mo4 O4 2.117117 1_555
Mo5 O18 1.865851 1_555
Mo5 O11 2.051060 1_455
Mo5 O13 2.051060 1_455
Mo5 O5 2.117117 1_555
Mo5 O3 2.117117 1_555
Mo6 O17 1.865851 1_555
Mo6 O14 2.051060 1_555
Mo6 O8 2.051060 1_555
Mo6 O0 2.117117 1_555
Mo6 O6 2.117117 1_555
Mo7 O16 1.865851 1_555
Mo7 O15 2.051060 1_655
Mo7 O9 2.051060 1_655
Mo7 O7 2.117117 1_555
Mo7 O1 2.117117 1_555
Mo8 O24 1.858324 1_555
Mo8 O2 2.057781 1_455
Mo8 O3 2.088693 1_555
Mo8 O11 2.093674 1_455
Mo8 O10 2.111919 1_555
Mo9 O25 1.858324 1_555
Mo9 O3 2.057781 1_555
Mo9 O2 2.088693 1_555
Mo9 O10 2.093674 1_555
Mo9 O11 2.111919 1_555
Mo10 O26 1.858324 1_555
Mo10 O0 2.057781 1_655
Mo10 O1 2.088693 1_556
Mo10 O9 2.093674 1_656
Mo10 O8 2.111919 1_555
Mo11 O27 1.858324 1_555
Mo11 O1 2.057781 1_555
Mo11 O0 2.088693 1_554
Mo11 O8 2.093674 1_554
Mo11 O9 2.111919 1_555
O16 Zn3 1.978097 1_655
O17 Zn2 1.978097 1_545
O18 Zn1 1.978097 1_455
O19 Zn0 1.978097 1_565
O20 Zn2 1.930439 1_545
O21 Zn3 1.930439 1_555
O22 Zn0 1.930439 1_565
O23 Zn1 1.930439 1_555
O24 Zn0 1.930439 1_565
O25 Zn1 1.930439 1_555
O26 Zn2 1.930439 1_545
O27 Zn3 1.930439 1_555
