# generated using pymatgen
data_Ag14H8I4(OF2)5
_symmetry_space_group_name_H-M   'P 1'
_cell_length_a   7.45294786
_cell_length_b   9.39069067
_cell_length_c   18.54401000
_cell_angle_alpha   90.00000000
_cell_angle_beta   90.00000000
_cell_angle_gamma   91.09947223
_symmetry_Int_Tables_number   1
_chemical_formula_structural   Ag14H8I4(OF2)5
_chemical_formula_sum   'Ag28 H16 I8 O10 F20'
_cell_volume   1297.62530156
_cell_formula_units_Z   2
loop_
 _symmetry_equiv_pos_site_id
 _symmetry_equiv_pos_as_xyz
  1  'x, y, z'
loop_
 _atom_site_type_symbol
 _atom_site_label
 _atom_site_symmetry_multiplicity
 _atom_site_fract_x
 _atom_site_fract_y
 _atom_site_fract_z
 _atom_site_occupancy
  Ag  Ag0  1  0.33469900  0.99137100  0.23179800  1
  Ag  Ag1  1  0.83663400  0.48839300  0.27178800  1
  Ag  Ag2  1  0.66336600  0.01160700  0.77178800  1
  Ag  Ag3  1  0.16530100  0.50862900  0.73179800  1
  Ag  Ag4  1  0.34985900  0.75240700  0.01488400  1
  Ag  Ag5  1  0.86308800  0.26921500  0.49061900  1
  Ag  Ag6  1  0.63691200  0.23078500  0.99061900  1
  Ag  Ag7  1  0.15014100  0.74759300  0.51488400  1
  Ag  Ag8  1  0.68485000  0.99145400  0.28989900  1
  Ag  Ag9  1  0.18717600  0.49174700  0.21146800  1
  Ag  Ag10  1  0.31282400  0.00825300  0.71146800  1
  Ag  Ag11  1  0.81515000  0.50854600  0.78989900  1
  Ag  Ag12  1  0.09262000  0.80760300  0.34076400  1
  Ag  Ag13  1  0.59116700  0.30504000  0.15749900  1
  Ag  Ag14  1  0.90883300  0.19496000  0.65749900  1
  Ag  Ag15  1  0.40738000  0.69239700  0.84076400  1
  Ag  Ag16  1  0.04643200  0.19209100  0.34198400  1
  Ag  Ag17  1  0.55079100  0.68994000  0.15966800  1
  Ag  Ag18  1  0.94920900  0.81006000  0.65966800  1
  Ag  Ag19  1  0.45356800  0.30790900  0.84198400  1
  Ag  Ag20  1  0.42736400  0.29156100  0.33908900  1
  Ag  Ag21  1  0.92822200  0.79390700  0.16359500  1
  Ag  Ag22  1  0.57177800  0.70609300  0.66359500  1
  Ag  Ag23  1  0.07263600  0.20843900  0.83908900  1
  Ag  Ag24  1  0.48097700  0.73303500  0.33205800  1
  Ag  Ag25  1  0.97937900  0.23474700  0.17074500  1
  Ag  Ag26  1  0.52062100  0.26525300  0.67074500  1
  Ag  Ag27  1  0.01902300  0.76696500  0.83205800  1
  H  H0  1  0.11804600  0.95657600  0.05420400  1
  H  H1  1  0.62392100  0.46348700  0.44558600  1
  H  H2  1  0.87607900  0.03651300  0.94558600  1
  H  H3  1  0.38195400  0.54342400  0.55420400  1
  H  H4  1  0.00120300  0.85056200  0.00440500  1
  H  H5  1  0.51614200  0.35461900  0.49661100  1
  H  H6  1  0.98385800  0.14538100  0.99661100  1
  H  H7  1  0.49879700  0.64943800  0.50440500  1
  H  H8  1  0.70237100  0.76160000  0.96002900  1
  H  H9  1  0.22034600  0.26839400  0.54381600  1
  H  H10  1  0.27965400  0.23160600  0.04381600  1
  H  H11  1  0.79762900  0.73840000  0.46002900  1
  H  H12  1  0.63582600  0.59451100  0.94576300  1
  H  H13  1  0.14441000  0.10215900  0.55312700  1
  H  H14  1  0.35559000  0.39784100  0.05312700  1
  H  H15  1  0.86417400  0.90548900  0.44576300  1
  I  I0  1  0.36231500  0.98097100  0.39778000  1
  I  I1  1  0.86035700  0.48815700  0.10752700  1
  I  I2  1  0.63964300  0.01184300  0.60752700  1
  I  I3  1  0.13768500  0.51902900  0.89778000  1
  I  I4  1  0.62595000  0.97759000  0.13354400  1
  I  I5  1  0.12743300  0.47340600  0.37141300  1
  I  I6  1  0.37256700  0.02659400  0.87141300  1
  I  I7  1  0.87405000  0.52241000  0.63354400  1
  O  O0  1  0.61687400  0.68400100  0.97591700  1
  O  O1  1  0.12472700  0.19726400  0.52916200  1
  O  O2  1  0.37527300  0.30273600  0.02916200  1
  O  O3  1  0.88312600  0.81599900  0.47591700  1
  O  O4  1  0.08862700  0.85155700  0.04742500  1
  O  O5  1  0.60307200  0.35770500  0.45394500  1
  O  O6  1  0.89692800  0.14229500  0.95394500  1
  O  O7  1  0.41137300  0.64844300  0.54742500  1
  O  O8  1  0.45213100  0.96480800  0.00170100  1
  O  O9  1  0.04786900  0.53519200  0.50170100  1
  F  F0  1  0.98421600  0.96887600  0.76189000  1
  F  F1  1  0.48192700  0.47087200  0.73991800  1
  F  F2  1  0.01807300  0.02912800  0.23991800  1
  F  F3  1  0.51578400  0.53112400  0.26189000  1
  F  F4  1  0.68187800  0.75291100  0.79315200  1
  F  F5  1  0.18407500  0.24901900  0.70837900  1
  F  F6  1  0.31592500  0.25098100  0.20837900  1
  F  F7  1  0.81812200  0.74708900  0.29315200  1
  F  F8  1  0.87651200  0.86906100  0.94017700  1
  F  F9  1  0.39248200  0.37001000  0.56201100  1
  F  F10  1  0.10751800  0.12999000  0.06201100  1
  F  F11  1  0.62348800  0.63093900  0.44017700  1
  F  F12  1  0.21990100  0.74689700  0.21303000  1
  F  F13  1  0.71191500  0.24904200  0.28579800  1
  F  F14  1  0.78808500  0.25095800  0.78579800  1
  F  F15  1  0.28009900  0.75310300  0.71303000  1
  F  F16  1  0.33897100  0.54375500  0.09230500  1
  F  F17  1  0.84520600  0.03797800  0.40092800  1
  F  F18  1  0.65479400  0.46202200  0.90092800  1
  F  F19  1  0.16102900  0.95624500  0.59230500  1
loop_
_geom_bond_atom_site_label_1
_geom_bond_atom_site_label_2
_geom_bond_distance
_geom_bond_site_symmetry_2
Ag0 F2 2.397737 1_565
Ag0 F12 2.459344 1_555
Ag0 F6 2.482883 1_565
Ag0 I4 2.838863 1_555
Ag0 I0 3.086516 1_555
Ag1 F13 2.429683 1_555
Ag1 F3 2.439210 1_555
Ag1 F7 2.467897 1_555
Ag1 I5 2.853385 1_655
Ag1 I1 3.051188 1_555
Ag2 F14 2.429683 1_555
Ag2 F0 2.439210 1_545
Ag2 F4 2.467897 1_545
Ag2 I6 2.853385 1_555
Ag2 I2 3.051188 1_555
Ag3 F1 2.397737 1_555
Ag3 F15 2.459344 1_555
Ag3 F5 2.482883 1_555
Ag3 I7 2.838863 1_455
Ag3 I3 3.086516 1_555
Ag4 O8 2.135605 1_555
Ag4 O0 2.223547 1_554
Ag4 O4 2.256378 1_555
Ag4 F16 2.429177 1_555
Ag4 I3 3.447660 1_554
Ag5 O1 2.195536 1_655
Ag5 O5 2.229405 1_555
Ag5 O9 2.836432 1_655
Ag6 O2 2.195536 1_556
Ag6 O6 2.229405 1_555
Ag6 O8 2.836432 1_546
Ag7 O9 2.135605 1_555
Ag7 O3 2.223547 1_455
Ag7 O7 2.256378 1_555
Ag7 F19 2.429177 1_555
Ag7 I0 3.447660 1_555
Ag8 F17 2.416262 1_565
Ag8 F13 2.424658 1_565
Ag8 F7 2.518651 1_555
Ag8 F2 2.668002 1_665
Ag8 I4 2.935006 1_555
Ag8 I0 3.127495 1_555
Ag9 F12 2.403930 1_555
Ag9 F6 2.473708 1_555
Ag9 F16 2.525915 1_555
Ag9 F3 2.640897 1_555
Ag9 I5 3.003708 1_555
Ag9 I1 3.105821 1_455
Ag10 F15 2.403930 1_545
Ag10 F5 2.473708 1_555
Ag10 F19 2.525915 1_545
Ag10 F0 2.640897 1_445
Ag10 I6 3.003708 1_555
Ag10 I2 3.105821 1_555
Ag11 F18 2.416262 1_555
Ag11 F14 2.424658 1_555
Ag11 F4 2.518651 1_555
Ag11 F1 2.668002 1_555
Ag11 I7 2.935006 1_555
Ag11 I3 3.127495 1_655
Ag12 F7 2.289811 1_455
Ag12 F12 2.618464 1_555
Ag12 I0 2.771829 1_555
Ag12 I5 3.204805 1_555
Ag13 F6 2.305660 1_555
Ag13 F13 2.600971 1_555
Ag13 I1 2.776405 1_555
Ag13 I4 3.122601 1_545
Ag14 F5 2.305660 1_655
Ag14 F14 2.600971 1_555
Ag14 I2 2.776405 1_555
Ag14 I7 3.122601 1_555
Ag15 F4 2.289811 1_555
Ag15 F15 2.618464 1_555
Ag15 I3 2.771829 1_555
Ag15 I6 3.204805 1_565
Ag16 F17 2.335622 1_455
Ag16 F2 2.440604 1_555
Ag16 I5 2.753156 1_555
Ag16 I0 3.274566 1_545
Ag17 F16 2.419513 1_555
Ag17 F3 2.422955 1_555
Ag17 F12 2.719849 1_555
Ag17 I4 2.790528 1_555
Ag17 I1 3.164859 1_555
Ag18 F19 2.419513 1_655
Ag18 F0 2.422955 1_555
Ag18 F15 2.719849 1_655
Ag18 I7 2.790528 1_555
Ag18 I2 3.164859 1_565
Ag19 F18 2.335622 1_555
Ag19 F1 2.440604 1_555
Ag19 I6 2.753156 1_555
Ag19 I3 3.274566 1_555
Ag20 F13 2.380352 1_555
Ag20 O5 2.570201 1_555
Ag20 F6 2.588071 1_555
Ag20 F3 2.736379 1_555
Ag20 I5 2.901507 1_555
Ag20 I0 3.142004 1_545
Ag21 F12 2.407862 1_655
Ag21 O4 2.517592 1_655
Ag21 F7 2.573873 1_555
Ag21 F2 2.697041 1_665
Ag21 I4 2.917220 1_555
Ag21 I1 3.086249 1_555
Ag22 F15 2.407862 1_555
Ag22 O7 2.517592 1_555
Ag22 F4 2.573873 1_555
Ag22 F1 2.697041 1_555
Ag22 I7 2.917220 1_555
Ag22 I2 3.086249 1_565
Ag23 F14 2.380352 1_455
Ag23 O6 2.570201 1_455
Ag23 F5 2.588071 1_555
Ag23 F0 2.736379 1_445
Ag23 I6 2.901507 1_555
Ag23 I3 3.142004 1_555
Ag24 F3 2.318279 1_555
Ag24 F11 2.471085 1_555
Ag24 F7 2.615148 1_555
Ag24 I0 2.787012 1_555
Ag25 F2 2.340590 1_655
Ag25 F10 2.445726 1_655
Ag25 F6 2.605183 1_655
Ag25 I1 2.811613 1_555
Ag26 F1 2.340590 1_555
Ag26 F9 2.445726 1_555
Ag26 F5 2.605183 1_555
Ag26 I2 2.811613 1_555
Ag27 F0 2.318279 1_455
Ag27 F8 2.471085 1_455
Ag27 F4 2.615148 1_455
Ag27 I3 2.787012 1_555
H0 O4 1.013988 1_555
H1 O5 1.014409 1_555
H2 O6 1.014409 1_555
H3 O7 1.013988 1_555
H4 O4 1.029961 1_555
H5 O5 1.022678 1_555
H6 O6 1.022678 1_555
H7 O7 1.029961 1_555
H8 O0 1.003011 1_555
H9 O1 1.004792 1_555
H10 O2 1.004792 1_555
H11 O3 1.003011 1_555
H12 O0 1.021475 1_555
H13 O1 1.010780 1_555
H14 O2 1.010780 1_555
H15 O3 1.021475 1_555
I4 O8 2.768428 1_555
I5 O9 2.557115 1_555
I6 O8 2.557115 1_546
I7 O9 2.768428 1_655
F8 H4 1.522691 1_656
F8 H2 1.575751 1_565
F8 H8 1.669749 1_555
F9 H5 1.531743 1_555
F9 H9 1.619670 1_555
F9 H3 1.638279 1_555
F10 H6 1.531743 1_454
F10 H10 1.619670 1_555
F10 H0 1.638279 1_545
F11 H7 1.522691 1_555
F11 H1 1.575751 1_555
F11 H11 1.669749 1_555
F16 H14 1.557954 1_555
F17 H15 1.505303 1_545
F18 H12 1.505303 1_555
F19 H13 1.557954 1_565
