# generated using pymatgen
data_Tl2S2O3
_symmetry_space_group_name_H-M   'P 1'
_cell_length_a   6.31686000
_cell_length_b   8.83506800
_cell_length_c   10.79850500
_cell_angle_alpha   90.00000000
_cell_angle_beta   90.00000000
_cell_angle_gamma   90.00000000
_symmetry_Int_Tables_number   1
_chemical_formula_structural   Tl2S2O3
_chemical_formula_sum   'Tl8 S8 O12'
_cell_volume   602.66335080
_cell_formula_units_Z   4
loop_
 _symmetry_equiv_pos_site_id
 _symmetry_equiv_pos_as_xyz
  1  'x, y, z'
loop_
 _atom_site_type_symbol
 _atom_site_label
 _atom_site_symmetry_multiplicity
 _atom_site_fract_x
 _atom_site_fract_y
 _atom_site_fract_z
 _atom_site_occupancy
  Tl  Tl0  1  0.25000000  0.65319300  0.60493900  1
  Tl  Tl1  1  0.75000000  0.34680700  0.39506100  1
  Tl  Tl2  1  0.75000000  0.84680700  0.10493900  1
  Tl  Tl3  1  0.25000000  0.15319300  0.89506100  1
  Tl  Tl4  1  0.25000000  0.48246200  0.18448300  1
  Tl  Tl5  1  0.75000000  0.51753800  0.81551700  1
  Tl  Tl6  1  0.75000000  0.01753800  0.68448300  1
  Tl  Tl7  1  0.25000000  0.98246200  0.31551700  1
  S  S0  1  0.25000000  0.53173200  0.88651300  1
  S  S1  1  0.75000000  0.46826800  0.11348700  1
  S  S2  1  0.75000000  0.96826800  0.38651300  1
  S  S3  1  0.25000000  0.03173200  0.61348700  1
  S  S4  1  0.25000000  0.75682100  0.93512000  1
  S  S5  1  0.75000000  0.24317900  0.06488000  1
  S  S6  1  0.75000000  0.74317900  0.43512000  1
  S  S7  1  0.25000000  0.25682100  0.56488000  1
  O  O0  1  0.25000000  0.76794900  0.07321400  1
  O  O1  1  0.75000000  0.23205100  0.92678600  1
  O  O2  1  0.75000000  0.73205100  0.57321400  1
  O  O3  1  0.25000000  0.26794900  0.42678600  1
  O  O4  1  0.05557400  0.82608900  0.88275900  1
  O  O5  1  0.94442600  0.17391100  0.11724100  1
  O  O6  1  0.94442600  0.67391100  0.38275900  1
  O  O7  1  0.55557400  0.17391100  0.11724100  1
  O  O8  1  0.05557400  0.32608900  0.61724100  1
  O  O9  1  0.44442600  0.82608900  0.88275900  1
  O  O10  1  0.44442600  0.32608900  0.61724100  1
  O  O11  1  0.55557400  0.67391100  0.38275900  1
loop_
_geom_bond_atom_site_label_1
_geom_bond_atom_site_label_2
_geom_bond_distance
_geom_bond_site_symmetry_2
S0 S4 2.056778 1_555
S1 S5 2.056778 1_555
S2 S6 2.056778 1_555
S3 S7 2.056778 1_555
O0 S4 1.494446 1_554
O0 Tl4 2.793864 1_555
O1 S5 1.494446 1_556
O1 Tl5 2.793864 1_555
O2 S6 1.494446 1_555
O2 Tl6 2.793864 1_565
O3 S7 1.494446 1_555
O3 Tl7 2.793864 1_545
O4 S4 1.484119 1_555
O5 S5 1.484119 1_555
O6 S6 1.484119 1_555
O7 S5 1.484119 1_555
O8 S7 1.484119 1_555
O9 S4 1.484119 1_555
O10 S7 1.484119 1_555
O11 S6 1.484119 1_555
