# generated using pymatgen
data_NdHoTl2
_symmetry_space_group_name_H-M   'P 1'
_cell_length_a   5.40695069
_cell_length_b   5.40695069
_cell_length_c   5.40695069
_cell_angle_alpha   60.00000000
_cell_angle_beta   60.00000000
_cell_angle_gamma   60.00000000
_symmetry_Int_Tables_number   1
_chemical_formula_structural   NdHoTl2
_chemical_formula_sum   'Nd1 Ho1 Tl2'
_cell_volume   111.77436969
_cell_formula_units_Z   1
loop_
 _symmetry_equiv_pos_site_id
 _symmetry_equiv_pos_as_xyz
  1  'x, y, z'
loop_
 _atom_site_type_symbol
 _atom_site_label
 _atom_site_symmetry_multiplicity
 _atom_site_fract_x
 _atom_site_fract_y
 _atom_site_fract_z
 _atom_site_occupancy
  Nd  Nd0  1  -0.00000000  0.00000000  -0.00000000  1
  Ho  Ho0  1  0.50000000  0.50000000  0.50000000  1
  Tl  Tl0  1  0.25000000  0.25000000  0.25000000  1
  Tl  Tl1  1  0.75000000  0.75000000  0.75000000  1
loop_
_geom_bond_atom_site_label_1
_geom_bond_atom_site_label_2
_geom_bond_distance
_geom_bond_site_symmetry_2
Nd0 Tl0 3.311068 1_455
Nd0 Tl0 3.311068 1_545
Nd0 Tl0 3.311068 1_554
Nd0 Tl1 3.311068 1_444
Nd0 Tl0 3.311068 1_555
Nd0 Tl1 3.311068 1_454
Nd0 Tl1 3.311068 1_445
Nd0 Tl1 3.311068 1_544
Ho0 Tl0 3.311068 1_556
Ho0 Tl1 3.311068 1_455
Ho0 Tl0 3.311068 1_555
Ho0 Tl1 3.311068 1_555
Ho0 Tl0 3.311068 1_565
Ho0 Tl1 3.311068 1_554
Ho0 Tl0 3.311068 1_655
Ho0 Tl1 3.311068 1_545
