# generated using pymatgen
data_BaCaCrF7
_symmetry_space_group_name_H-M   'P 1'
_cell_length_a   10.48143100
_cell_length_b   5.78169800
_cell_length_c   10.06927246
_cell_angle_alpha   87.65359247
_cell_angle_beta   90.00000000
_cell_angle_gamma   90.00000000
_symmetry_Int_Tables_number   1
_chemical_formula_structural   BaCaCrF7
_chemical_formula_sum   'Ba4 Ca4 Cr4 F28'
_cell_volume   609.69101301
_cell_formula_units_Z   4
loop_
 _symmetry_equiv_pos_site_id
 _symmetry_equiv_pos_as_xyz
  1  'x, y, z'
loop_
 _atom_site_type_symbol
 _atom_site_label
 _atom_site_symmetry_multiplicity
 _atom_site_fract_x
 _atom_site_fract_y
 _atom_site_fract_z
 _atom_site_occupancy
  Ba  Ba0  1  0.33358400  0.73991900  0.50352300  1
  Ba  Ba1  1  0.83358400  0.26008100  0.99647700  1
  Ba  Ba2  1  0.66641600  0.26008100  0.49647700  1
  Ba  Ba3  1  0.16641600  0.73991900  0.00352300  1
  Ca  Ca0  1  0.40425800  0.29992400  0.81805700  1
  Ca  Ca1  1  0.90425800  0.70007600  0.68194300  1
  Ca  Ca2  1  0.09574200  0.29992400  0.31805700  1
  Ca  Ca3  1  0.59574200  0.70007600  0.18194300  1
  Cr  Cr0  1  0.61990900  0.81082200  0.81099600  1
  Cr  Cr1  1  0.38009100  0.18917800  0.18900400  1
  Cr  Cr2  1  0.88009100  0.81082200  0.31099600  1
  Cr  Cr3  1  0.11990900  0.18917800  0.68900400  1
  F  F0  1  0.42708600  0.90080800  0.11197600  1
  F  F1  1  0.03806100  0.65987400  0.36935300  1
  F  F2  1  0.70163100  0.53071600  0.74295100  1
  F  F3  1  0.29836900  0.46928400  0.25704900  1
  F  F4  1  0.45891300  0.09431600  0.35771200  1
  F  F5  1  0.79974300  0.72468200  0.48176200  1
  F  F6  1  0.77193200  0.98551800  0.75112600  1
  F  F7  1  0.95891300  0.90568400  0.14228800  1
  F  F8  1  0.46193900  0.65987400  0.86935300  1
  F  F9  1  0.20163100  0.46928400  0.75704900  1
  F  F10  1  0.07291400  0.90080800  0.61197600  1
  F  F11  1  0.57291400  0.09919200  0.88802400  1
  F  F12  1  0.27193200  0.01448200  0.74887400  1
  F  F13  1  0.95809600  0.60507200  0.88483700  1
  F  F14  1  0.54108700  0.90568400  0.64228800  1
  F  F15  1  0.04108700  0.09431600  0.85771200  1
  F  F16  1  0.22806800  0.01448200  0.24887400  1
  F  F17  1  0.92708600  0.09919200  0.38802400  1
  F  F18  1  0.45809600  0.39492800  0.61516300  1
  F  F19  1  0.96193900  0.34012600  0.63064700  1
  F  F20  1  0.04190400  0.39492800  0.11516300  1
  F  F21  1  0.72806800  0.98551800  0.25112600  1
  F  F22  1  0.54190400  0.60507200  0.38483700  1
  F  F23  1  0.29974300  0.27531800  0.01823800  1
  F  F24  1  0.20025700  0.27531800  0.51823800  1
  F  F25  1  0.70025700  0.72468200  0.98176200  1
  F  F26  1  0.53806100  0.34012600  0.13064700  1
  F  F27  1  0.79836900  0.53071600  0.24295100  1
loop_
_geom_bond_atom_site_label_1
_geom_bond_atom_site_label_2
_geom_bond_distance
_geom_bond_site_symmetry_2
Ba0 F18 2.600352 1_555
Ba0 F22 2.622974 1_555
Ba0 F14 2.776841 1_555
Ba0 F4 2.798820 1_565
Ba0 F3 3.010315 1_555
Ba0 F24 3.026191 1_555
Ba0 F12 3.059750 1_565
Ba0 F10 3.099341 1_555
Ba0 F16 3.159839 1_565
Ba0 F9 3.248238 1_555
Ba0 F24 3.405086 1_565
Ba0 F1 3.418346 1_555
Ba1 F13 2.600352 1_555
Ba1 F20 2.622974 1_656
Ba1 F15 2.776841 1_655
Ba1 F7 2.798820 1_546
Ba1 F27 3.010315 1_556
Ba1 F25 3.026191 1_555
Ba1 F6 3.059750 1_545
Ba1 F11 3.099341 1_555
Ba1 F21 3.159839 1_546
Ba1 F2 3.248238 1_555
Ba1 F25 3.405086 1_545
Ba1 F26 3.418346 1_556
Ba2 F22 2.600352 1_555
Ba2 F18 2.622974 1_555
Ba2 F4 2.776841 1_555
Ba2 F14 2.798820 1_545
Ba2 F2 3.010315 1_555
Ba2 F5 3.026191 1_555
Ba2 F21 3.059750 1_545
Ba2 F17 3.099341 1_555
Ba2 F6 3.159839 1_545
Ba2 F27 3.248238 1_555
Ba2 F5 3.405086 1_545
Ba2 F19 3.418346 1_555
Ba3 F20 2.600352 1_555
Ba3 F13 2.622974 1_454
Ba3 F7 2.776841 1_455
Ba3 F15 2.798820 1_564
Ba3 F9 3.010315 1_554
Ba3 F23 3.026191 1_555
Ba3 F16 3.059750 1_565
Ba3 F0 3.099341 1_555
Ba3 F12 3.159839 1_564
Ba3 F3 3.248238 1_555
Ba3 F23 3.405086 1_565
Ba3 F8 3.418346 1_554
Ca0 F18 2.168430 1_555
Ca0 F11 2.213884 1_555
Ca0 F8 2.247530 1_555
Ca0 F12 2.286201 1_555
Ca0 F23 2.293417 1_556
Ca0 F9 2.407809 1_555
Ca1 F13 2.168430 1_555
Ca1 F10 2.213884 1_655
Ca1 F19 2.247530 1_555
Ca1 F6 2.286201 1_555
Ca1 F5 2.293417 1_555
Ca1 F2 2.407809 1_555
Ca2 F20 2.168430 1_555
Ca2 F17 2.213884 1_455
Ca2 F1 2.247530 1_555
Ca2 F16 2.286201 1_555
Ca2 F24 2.293417 1_555
Ca2 F3 2.407809 1_555
Ca3 F22 2.168430 1_555
Ca3 F0 2.213884 1_555
Ca3 F26 2.247530 1_555
Ca3 F21 2.286201 1_555
Ca3 F25 2.293417 1_554
Ca3 F27 2.407809 1_555
Cr0 F11 1.931290 1_565
Cr0 F14 1.947532 1_555
Cr0 F8 1.951020 1_555
Cr0 F25 1.960561 1_555
Cr0 F6 1.967925 1_555
Cr0 F2 1.979078 1_555
Cr1 F0 1.931290 1_545
Cr1 F4 1.947532 1_555
Cr1 F26 1.951020 1_555
Cr1 F23 1.960561 1_555
Cr1 F16 1.967925 1_555
Cr1 F3 1.979078 1_555
Cr2 F17 1.931290 1_565
Cr2 F7 1.947532 1_555
Cr2 F1 1.951020 1_655
Cr2 F5 1.960561 1_555
Cr2 F21 1.967925 1_555
Cr2 F27 1.979078 1_555
Cr3 F10 1.931290 1_545
Cr3 F15 1.947532 1_555
Cr3 F19 1.951020 1_455
Cr3 F24 1.960561 1_555
Cr3 F12 1.967925 1_555
Cr3 F9 1.979078 1_555
