# generated using pymatgen
data_Mg3Cd
_symmetry_space_group_name_H-M   'P 1'
_cell_length_a   11.84969810
_cell_length_b   11.84969810
_cell_length_c   11.84969810
_cell_angle_alpha   148.73015274
_cell_angle_beta   125.99511442
_cell_angle_gamma   63.73979781
_symmetry_Int_Tables_number   1
_chemical_formula_structural   Mg3Cd
_chemical_formula_sum   'Mg24 Cd8'
_cell_volume   691.62375364
_cell_formula_units_Z   8
loop_
 _symmetry_equiv_pos_site_id
 _symmetry_equiv_pos_as_xyz
  1  'x, y, z'
loop_
 _atom_site_type_symbol
 _atom_site_label
 _atom_site_symmetry_multiplicity
 _atom_site_fract_x
 _atom_site_fract_y
 _atom_site_fract_z
 _atom_site_occupancy
  Mg  Mg0_0  1  0.42098639  0.25000000  0.17098638  1
  Mg  Mg0_1  1  0.42098639  0.25000000  0.67098639  1
  Mg  Mg0_2  1  0.42098639  0.75000000  0.17098638  1
  Mg  Mg0_3  1  0.42098639  0.75000000  0.67098638  1
  Mg  Mg0_4  1  0.92098639  0.25000000  0.17098639  1
  Mg  Mg0_5  1  0.92098638  0.25000000  0.67098638  1
  Mg  Mg0_6  1  0.92098638  0.75000000  0.17098638  1
  Mg  Mg0_7  1  0.92098639  0.75000000  0.67098639  1
  Mg  Mg1_0  1  0.12584621  0.12761776  0.49822795  1
  Mg  Mg1_1  1  0.12584621  0.12761776  0.99822795  1
  Mg  Mg1_2  1  0.12584621  0.62761776  0.49822795  1
  Mg  Mg1_3  1  0.12584621  0.62761776  0.99822795  1
  Mg  Mg1_4  1  0.62584621  0.12761776  0.49822795  1
  Mg  Mg1_5  1  0.62584621  0.12761776  0.99822795  1
  Mg  Mg1_6  1  0.62584621  0.62761776  0.49822795  1
  Mg  Mg1_7  1  0.62584621  0.62761776  0.99822795  1
  Mg  Mg2_0  1  0.37060970  0.37238224  0.49822795  1
  Mg  Mg2_1  1  0.37060970  0.37238224  0.99822795  1
  Mg  Mg2_2  1  0.37060969  0.87238224  0.49822795  1
  Mg  Mg2_3  1  0.37060970  0.87238224  0.99822795  1
  Mg  Mg2_4  1  0.87060969  0.37238224  0.49822795  1
  Mg  Mg2_5  1  0.87060969  0.37238224  0.99822795  1
  Mg  Mg2_6  1  0.87060969  0.87238224  0.49822795  1
  Mg  Mg2_7  1  0.87060969  0.87238224  0.99822795  1
  Cd  Cd0_0  1  0.16589121  0.00000000  0.16589121  1
  Cd  Cd0_1  1  0.16589121  0.00000000  0.66589121  1
  Cd  Cd0_2  1  0.16589121  0.50000000  0.16589121  1
  Cd  Cd0_3  1  0.16589121  0.50000000  0.66589121  1
  Cd  Cd0_4  1  0.66589121  0.00000000  0.16589121  1
  Cd  Cd0_5  1  0.66589121  0.00000000  0.66589121  1
  Cd  Cd0_6  1  0.66589121  0.50000000  0.16589121  1
  Cd  Cd0_7  1  0.66589121  0.50000000  0.66589121  1
loop_
_geom_bond_atom_site_label_1
_geom_bond_atom_site_label_2
_geom_bond_distance
_geom_bond_site_symmetry_2
Mg0_0 Mg1_1 3.085877 1_554
Mg0_0 Mg2_1 3.085881 1_554
Mg0_0 Mg2_3 3.136534 1_544
Mg0_0 Mg1_6 3.136535 1_555
Mg0_0 Mg2_0 3.136535 1_555
Mg0_0 Mg1_5 3.136537 1_554
Mg0_0 Mg0_3 3.193575 1_555
Mg0_0 Mg0_3 3.193575 1_544
Mg0_1 Mg1_0 3.085877 1_555
Mg0_1 Mg2_0 3.085881 1_555
Mg0_1 Mg2_2 3.136534 1_545
Mg0_1 Mg1_7 3.136535 1_555
Mg0_1 Mg2_1 3.136535 1_555
Mg0_1 Mg1_4 3.136537 1_555
Mg0_1 Mg0_2 3.193575 1_556
Mg0_1 Mg0_2 3.193575 1_545
Mg0_2 Mg1_3 3.085877 1_554
Mg0_2 Mg2_3 3.085881 1_554
Mg0_2 Mg2_1 3.136534 1_554
Mg0_2 Mg1_4 3.136535 1_565
Mg0_2 Mg2_2 3.136535 1_555
Mg0_2 Mg1_7 3.136537 1_554
Mg0_3 Mg1_2 3.085877 1_555
Mg0_3 Mg2_2 3.085881 1_555
Mg0_3 Mg2_0 3.136534 1_555
Mg0_3 Mg1_5 3.136535 1_565
Mg0_3 Mg2_3 3.136535 1_555
Mg0_3 Mg1_6 3.136537 1_555
Mg0_4 Mg1_5 3.085877 1_554
Mg0_4 Mg2_5 3.085881 1_554
Mg0_4 Mg2_7 3.136534 1_544
Mg0_4 Mg1_2 3.136535 1_655
Mg0_4 Mg2_4 3.136535 1_555
Mg0_4 Mg1_1 3.136537 1_654
Mg0_4 Mg0_7 3.193575 1_544
Mg0_4 Mg0_7 3.193575 1_555
Mg0_5 Mg1_4 3.085877 1_555
Mg0_5 Mg2_4 3.085881 1_555
Mg0_5 Mg2_6 3.136534 1_545
Mg0_5 Mg1_3 3.136535 1_655
Mg0_5 Mg2_5 3.136535 1_555
Mg0_5 Mg1_0 3.136537 1_655
Mg0_5 Mg0_6 3.193575 1_556
Mg0_5 Mg0_6 3.193575 1_545
Mg0_6 Mg1_7 3.085877 1_554
Mg0_6 Mg2_7 3.085881 1_554
Mg0_6 Mg2_5 3.136534 1_554
Mg0_6 Mg1_0 3.136535 1_665
Mg0_6 Mg2_6 3.136535 1_555
Mg0_6 Mg1_3 3.136537 1_654
Mg0_7 Mg1_6 3.085877 1_555
Mg0_7 Mg2_6 3.085881 1_555
Mg0_7 Mg2_4 3.136534 1_555
Mg0_7 Mg1_1 3.136535 1_665
Mg0_7 Mg2_7 3.136535 1_555
Mg0_7 Mg1_2 3.136537 1_655
Mg1_0 Mg2_2 3.130043 1_545
Mg1_0 Mg2_1 3.130046 1_555
Mg1_0 Mg2_7 3.130052 1_444
Mg1_0 Mg2_4 3.130055 1_455
Mg1_0 Mg1_3 3.193575 1_555
Mg1_0 Mg1_3 3.193575 1_544
Mg1_1 Mg2_3 3.130043 1_545
Mg1_1 Mg2_0 3.130046 1_556
Mg1_1 Mg2_6 3.130052 1_445
Mg1_1 Mg2_5 3.130055 1_455
Mg1_1 Mg1_2 3.193575 1_545
Mg1_1 Mg1_2 3.193575 1_556
Mg1_2 Mg2_0 3.130043 1_555
Mg1_2 Mg2_3 3.130046 1_555
Mg1_2 Mg2_5 3.130052 1_454
Mg1_2 Mg2_6 3.130055 1_455
Mg1_3 Mg2_1 3.130043 1_555
Mg1_3 Mg2_2 3.130046 1_556
Mg1_3 Mg2_4 3.130052 1_455
Mg1_3 Mg2_7 3.130055 1_455
Mg1_4 Mg2_6 3.130043 1_545
Mg1_4 Mg2_5 3.130046 1_555
Mg1_4 Mg2_3 3.130052 1_544
Mg1_4 Mg2_0 3.130055 1_555
Mg1_4 Mg1_7 3.193575 1_555
Mg1_4 Mg1_7 3.193575 1_544
Mg1_5 Mg2_7 3.130043 1_545
Mg1_5 Mg2_4 3.130046 1_556
Mg1_5 Mg2_2 3.130052 1_545
Mg1_5 Mg2_1 3.130055 1_555
Mg1_5 Mg1_6 3.193575 1_545
Mg1_5 Mg1_6 3.193575 1_556
Mg1_6 Mg2_4 3.130043 1_555
Mg1_6 Mg2_7 3.130046 1_555
Mg1_6 Mg2_1 3.130052 1_554
Mg1_6 Mg2_2 3.130055 1_555
Mg1_7 Mg2_5 3.130043 1_555
Mg1_7 Mg2_6 3.130046 1_556
Mg1_7 Mg2_0 3.130052 1_555
Mg1_7 Mg2_3 3.130055 1_555
Mg2_0 Mg2_3 3.193575 1_544
Mg2_0 Mg2_3 3.193575 1_555
Mg2_1 Mg2_2 3.193575 1_545
Mg2_1 Mg2_2 3.193575 1_556
Mg2_4 Mg2_7 3.193575 1_555
Mg2_4 Mg2_7 3.193575 1_544
Mg2_5 Mg2_6 3.193575 1_556
Mg2_5 Mg2_6 3.193575 1_545
Cd0_0 Mg2_3 3.066224 1_544
Cd0_0 Mg1_0 3.066225 1_555
Cd0_0 Mg2_0 3.066225 1_555
Cd0_0 Mg1_3 3.066227 1_544
Cd0_0 Mg0_7 3.081256 1_444
Cd0_0 Mg0_4 3.081256 1_455
Cd0_0 Mg1_1 3.138801 1_554
Cd0_0 Mg2_7 3.138804 1_444
Cd0_0 Mg0_2 3.175543 1_545
Cd0_0 Mg0_1 3.175543 1_555
Cd0_0 Cd0_3 3.193575 1_544
Cd0_0 Cd0_3 3.193575 1_555
Cd0_1 Mg2_2 3.066224 1_545
Cd0_1 Mg1_1 3.066225 1_555
Cd0_1 Mg2_1 3.066225 1_555
Cd0_1 Mg1_2 3.066227 1_545
Cd0_1 Mg0_5 3.081256 1_455
Cd0_1 Mg0_6 3.081256 1_445
Cd0_1 Mg1_0 3.138801 1_555
Cd0_1 Mg2_6 3.138804 1_445
Cd0_1 Mg0_0 3.175543 1_556
Cd0_1 Mg0_3 3.175543 1_545
Cd0_1 Cd0_2 3.193575 1_545
Cd0_1 Cd0_2 3.193575 1_556
Cd0_2 Mg2_1 3.066224 1_554
Cd0_2 Mg1_2 3.066225 1_555
Cd0_2 Mg2_2 3.066225 1_555
Cd0_2 Mg1_1 3.066227 1_554
Cd0_2 Mg0_6 3.081256 1_455
Cd0_2 Mg0_5 3.081256 1_454
Cd0_2 Mg1_3 3.138801 1_554
Cd0_2 Mg2_5 3.138804 1_454
Cd0_2 Mg0_0 3.175543 1_555
Cd0_2 Mg0_3 3.175543 1_555
Cd0_3 Mg2_0 3.066224 1_555
Cd0_3 Mg1_3 3.066225 1_555
Cd0_3 Mg2_3 3.066225 1_555
Cd0_3 Mg1_0 3.066227 1_555
Cd0_3 Mg0_4 3.081256 1_455
Cd0_3 Mg0_7 3.081256 1_455
Cd0_3 Mg1_2 3.138801 1_555
Cd0_3 Mg2_4 3.138804 1_455
Cd0_3 Mg0_2 3.175543 1_556
Cd0_3 Mg0_1 3.175543 1_555
Cd0_4 Mg2_7 3.066224 1_544
Cd0_4 Mg1_4 3.066225 1_555
Cd0_4 Mg2_4 3.066225 1_555
Cd0_4 Mg1_7 3.066227 1_544
Cd0_4 Mg0_0 3.081256 1_555
Cd0_4 Mg0_3 3.081256 1_544
Cd0_4 Mg1_5 3.138801 1_554
Cd0_4 Mg2_3 3.138804 1_544
Cd0_4 Mg0_5 3.175543 1_555
Cd0_4 Mg0_6 3.175543 1_545
Cd0_4 Cd0_7 3.193575 1_555
Cd0_4 Cd0_7 3.193575 1_544
Cd0_5 Mg2_6 3.066224 1_545
Cd0_5 Mg1_5 3.066225 1_555
Cd0_5 Mg2_5 3.066225 1_555
Cd0_5 Mg1_6 3.066227 1_545
Cd0_5 Mg0_1 3.081256 1_555
Cd0_5 Mg0_2 3.081256 1_545
Cd0_5 Mg1_4 3.138801 1_555
Cd0_5 Mg2_2 3.138804 1_545
Cd0_5 Mg0_4 3.175543 1_556
Cd0_5 Mg0_7 3.175543 1_545
Cd0_5 Cd0_6 3.193575 1_545
Cd0_5 Cd0_6 3.193575 1_556
Cd0_6 Mg2_5 3.066224 1_554
Cd0_6 Mg1_6 3.066225 1_555
Cd0_6 Mg2_6 3.066225 1_555
Cd0_6 Mg1_5 3.066227 1_554
Cd0_6 Mg0_1 3.081256 1_554
Cd0_6 Mg0_2 3.081256 1_555
Cd0_6 Mg1_7 3.138801 1_554
Cd0_6 Mg2_1 3.138804 1_554
Cd0_6 Mg0_4 3.175543 1_555
Cd0_6 Mg0_7 3.175543 1_555
Cd0_7 Mg2_4 3.066224 1_555
Cd0_7 Mg1_7 3.066225 1_555
Cd0_7 Mg2_7 3.066225 1_555
Cd0_7 Mg1_4 3.066227 1_555
Cd0_7 Mg0_3 3.081256 1_555
Cd0_7 Mg0_0 3.081256 1_555
Cd0_7 Mg1_6 3.138801 1_555
Cd0_7 Mg2_0 3.138804 1_555
Cd0_7 Mg0_5 3.175543 1_555
Cd0_7 Mg0_6 3.175543 1_556
