# generated using pymatgen
data_ZnP2(WO5)2
_symmetry_space_group_name_H-M   'P 1'
_cell_length_a   10.55349675
_cell_length_b   9.25671245
_cell_length_c   7.26784064
_cell_angle_alpha   78.36679639
_cell_angle_beta   59.21628708
_cell_angle_gamma   42.41691652
_symmetry_Int_Tables_number   1
_chemical_formula_structural   ZnP2(WO5)2
_chemical_formula_sum   'Zn2 P4 W4 O20'
_cell_volume   391.95482649
_cell_formula_units_Z   2
loop_
 _symmetry_equiv_pos_site_id
 _symmetry_equiv_pos_as_xyz
  1  'x, y, z'
loop_
 _atom_site_type_symbol
 _atom_site_label
 _atom_site_symmetry_multiplicity
 _atom_site_fract_x
 _atom_site_fract_y
 _atom_site_fract_z
 _atom_site_occupancy
  Zn  Zn0  1  0.75216700  0.74783300  0.74783300  1
  Zn  Zn1  1  0.50216700  0.49783300  0.49783300  1
  P  P0  1  0.01575000  0.56329900  0.97948300  1
  P  P1  1  0.68670100  0.23425000  0.80853300  1
  P  P2  1  0.44146700  0.97948300  0.56329900  1
  P  P3  1  0.27051700  0.80853300  0.23425000  1
  W  W0  1  0.88609800  0.38762700  0.39328600  1
  W  W1  1  0.33298900  0.39328600  0.38762700  1
  W  W2  1  0.86237300  0.36390200  0.91701100  1
  W  W3  1  0.85671400  0.91701100  0.36390200  1
  O  O0  1  0.58853500  0.73640800  0.46425600  1
  O  O1  1  0.61438300  0.22525700  0.36624300  1
  O  O2  1  0.28139400  0.67394600  0.41442400  1
  O  O3  1  0.78574400  0.03920000  0.66146500  1
  O  O4  1  0.21337700  0.09637500  0.77327000  1
  O  O5  1  0.41047500  0.11357000  0.38892300  1
  O  O6  1  0.02474300  0.63561700  0.45588300  1
  O  O7  1  0.79411700  0.36624300  0.22525700  1
  O  O8  1  0.88375700  0.45588300  0.63561700  1
  O  O9  1  0.15362500  0.03662300  0.33302200  1
  O  O10  1  0.21080000  0.46425600  0.73640800  1
  O  O11  1  0.47673000  0.33302200  0.03662300  1
  O  O12  1  0.91697800  0.77327000  0.09637500  1
  O  O13  1  0.13643000  0.83952500  0.16296800  1
  O  O14  1  0.08703200  0.38892300  0.11357000  1
  O  O15  1  0.86107700  0.16296800  0.83952500  1
  O  O16  1  0.83557600  0.61976300  0.96860600  1
  O  O17  1  0.63023700  0.41442400  0.67394600  1
  O  O18  1  0.51359200  0.66146500  0.03920000  1
  O  O19  1  0.57605400  0.96860600  0.61976300  1
loop_
_geom_bond_atom_site_label_1
_geom_bond_atom_site_label_2
_geom_bond_distance
_geom_bond_site_symmetry_2
O0 P2 1.530727 1_555
O0 W0 2.143582 1_555
O1 W3 1.970510 1_545
O1 W1 2.016794 1_555
O1 Zn1 2.021224 1_555
O2 P3 1.601495 1_555
O2 Zn1 1.972972 1_555
O2 W1 2.256271 1_555
O3 P1 1.530727 1_555
O3 W3 2.143587 1_545
O4 P2 1.534288 1_545
O4 W2 2.117421 1_455
O5 P2 1.563395 1_545
O5 W1 2.060283 1_555
O6 W1 1.970510 1_555
O6 W3 2.016794 1_455
O6 Zn0 2.021224 1_455
O7 W2 1.970510 1_554
O7 W0 2.016794 1_555
O7 Zn1 2.021224 1_555
O8 W0 1.970510 1_555
O8 W2 2.016794 1_555
O8 Zn0 2.021224 1_555
O9 P3 1.534286 1_545
O9 W0 2.117421 1_455
O10 P0 1.530727 1_555
O10 W1 2.143580 1_555
O11 P1 1.534291 1_554
O11 W1 2.117421 1_555
O12 P0 1.534294 1_654
O12 W3 2.117421 1_555
O13 P3 1.563400 1_555
O13 W3 2.060283 1_455
O14 P0 1.563395 1_554
O14 W0 2.060283 1_455
O15 P1 1.563391 1_555
O15 W2 2.060283 1_555
O16 P0 1.601495 1_655
O16 Zn0 1.972973 1_555
O16 W2 2.256262 1_555
O17 P1 1.601495 1_555
O17 Zn1 1.972979 1_555
O17 W0 2.256264 1_555
O18 P3 1.530727 1_555
O18 W2 2.143581 1_554
O19 P2 1.601495 1_555
O19 Zn0 1.972977 1_555
O19 W3 2.256270 1_555
