# generated using pymatgen
data_Re3Se4O3
_symmetry_space_group_name_H-M   'P 1'
_cell_length_a   12.81448400
_cell_length_b   12.81448400
_cell_length_c   12.81448400
_cell_angle_alpha   90.00000000
_cell_angle_beta   90.00000000
_cell_angle_gamma   90.00000000
_symmetry_Int_Tables_number   1
_chemical_formula_structural   Re3Se4O3
_chemical_formula_sum   'Re24 Se32 O24'
_cell_volume   2104.27923451
_cell_formula_units_Z   8
loop_
 _symmetry_equiv_pos_site_id
 _symmetry_equiv_pos_as_xyz
  1  'x, y, z'
loop_
 _atom_site_type_symbol
 _atom_site_label
 _atom_site_symmetry_multiplicity
 _atom_site_fract_x
 _atom_site_fract_y
 _atom_site_fract_z
 _atom_site_occupancy
  Re  Re0  1  0.45322800  0.06100900  0.31076800  1
  Re  Re1  1  0.54677200  0.56100900  0.18923200  1
  Re  Re2  1  0.04677200  0.93899100  0.81076800  1
  Re  Re3  1  0.95322800  0.43899100  0.68923200  1
  Re  Re4  1  0.31076800  0.45322800  0.06100900  1
  Re  Re5  1  0.18923200  0.54677200  0.56100900  1
  Re  Re6  1  0.81076800  0.04677200  0.93899100  1
  Re  Re7  1  0.68923200  0.95322800  0.43899100  1
  Re  Re8  1  0.06100900  0.31076800  0.45322800  1
  Re  Re9  1  0.56100900  0.18923200  0.54677200  1
  Re  Re10  1  0.93899100  0.81076800  0.04677200  1
  Re  Re11  1  0.43899100  0.68923200  0.95322800  1
  Re  Re12  1  0.54677200  0.93899100  0.68923200  1
  Re  Re13  1  0.45322800  0.43899100  0.81076800  1
  Re  Re14  1  0.95322800  0.06100900  0.18923200  1
  Re  Re15  1  0.04677200  0.56100900  0.31076800  1
  Re  Re16  1  0.68923200  0.54677200  0.93899100  1
  Re  Re17  1  0.81076800  0.45322800  0.43899100  1
  Re  Re18  1  0.18923200  0.95322800  0.06100900  1
  Re  Re19  1  0.31076800  0.04677200  0.56100900  1
  Re  Re20  1  0.93899100  0.68923200  0.54677200  1
  Re  Re21  1  0.43899100  0.81076800  0.45322800  1
  Re  Re22  1  0.06100900  0.18923200  0.95322800  1
  Re  Re23  1  0.56100900  0.31076800  0.04677200  1
  Se  Se0  1  0.31192200  0.94746300  0.38961700  1
  Se  Se1  1  0.68807800  0.44746300  0.11038300  1
  Se  Se2  1  0.18807800  0.05253700  0.88961700  1
  Se  Se3  1  0.81192200  0.55253700  0.61038300  1
  Se  Se4  1  0.38961700  0.31192200  0.94746300  1
  Se  Se5  1  0.11038300  0.68807800  0.44746300  1
  Se  Se6  1  0.88961700  0.18807800  0.05253700  1
  Se  Se7  1  0.61038300  0.81192200  0.55253700  1
  Se  Se8  1  0.94746300  0.38961700  0.31192200  1
  Se  Se9  1  0.44746300  0.11038300  0.68807800  1
  Se  Se10  1  0.05253700  0.88961700  0.18807800  1
  Se  Se11  1  0.55253700  0.61038300  0.81192200  1
  Se  Se12  1  0.68807800  0.05253700  0.61038300  1
  Se  Se13  1  0.31192200  0.55253700  0.88961700  1
  Se  Se14  1  0.81192200  0.94746300  0.11038300  1
  Se  Se15  1  0.18807800  0.44746300  0.38961700  1
  Se  Se16  1  0.61038300  0.68807800  0.05253700  1
  Se  Se17  1  0.88961700  0.31192200  0.55253700  1
  Se  Se18  1  0.11038300  0.81192200  0.94746300  1
  Se  Se19  1  0.38961700  0.18807800  0.44746300  1
  Se  Se20  1  0.05253700  0.61038300  0.68807800  1
  Se  Se21  1  0.55253700  0.88961700  0.31192200  1
  Se  Se22  1  0.94746300  0.11038300  0.81192200  1
  Se  Se23  1  0.44746300  0.38961700  0.18807800  1
  Se  Se24  1  0.62936600  0.12936600  0.37063400  1
  Se  Se25  1  0.37063400  0.62936600  0.12936600  1
  Se  Se26  1  0.87063400  0.87063400  0.87063400  1
  Se  Se27  1  0.12936600  0.37063400  0.62936600  1
  Se  Se28  1  0.37063400  0.87063400  0.62936600  1
  Se  Se29  1  0.62936600  0.37063400  0.87063400  1
  Se  Se30  1  0.12936600  0.12936600  0.12936600  1
  Se  Se31  1  0.87063400  0.62936600  0.37063400  1
  O  O0  1  0.41887200  0.10193600  0.18934500  1
  O  O1  1  0.58112800  0.60193600  0.31065500  1
  O  O2  1  0.08112800  0.89806400  0.68934500  1
  O  O3  1  0.91887200  0.39806400  0.81065500  1
  O  O4  1  0.18934500  0.41887200  0.10193600  1
  O  O5  1  0.31065500  0.58112800  0.60193600  1
  O  O6  1  0.68934500  0.08112800  0.89806400  1
  O  O7  1  0.81065500  0.91887200  0.39806400  1
  O  O8  1  0.10193600  0.18934500  0.41887200  1
  O  O9  1  0.60193600  0.31065500  0.58112800  1
  O  O10  1  0.89806400  0.68934500  0.08112800  1
  O  O11  1  0.39806400  0.81065500  0.91887200  1
  O  O12  1  0.58112800  0.89806400  0.81065500  1
  O  O13  1  0.41887200  0.39806400  0.68934500  1
  O  O14  1  0.91887200  0.10193600  0.31065500  1
  O  O15  1  0.08112800  0.60193600  0.18934500  1
  O  O16  1  0.81065500  0.58112800  0.89806400  1
  O  O17  1  0.68934500  0.41887200  0.39806400  1
  O  O18  1  0.31065500  0.91887200  0.10193600  1
  O  O19  1  0.18934500  0.08112800  0.60193600  1
  O  O20  1  0.89806400  0.81065500  0.58112800  1
  O  O21  1  0.39806400  0.68934500  0.41887200  1
  O  O22  1  0.10193600  0.31065500  0.91887200  1
  O  O23  1  0.60193600  0.18934500  0.08112800  1
loop_
_geom_bond_atom_site_label_1
_geom_bond_atom_site_label_2
_geom_bond_distance
_geom_bond_site_symmetry_2
Re0 Se19 2.526710 1_555
Re0 Se0 2.533163 1_545
Re0 Se21 2.538395 1_545
Re0 Se24 2.539765 1_555
Re1 Se16 2.526710 1_555
Re1 Se1 2.533163 1_555
Re1 Se23 2.538395 1_555
Re1 Se25 2.539765 1_555
Re2 Se18 2.526710 1_555
Re2 Se2 2.533163 1_565
Re2 Se22 2.538395 1_465
Re2 Se26 2.539765 1_455
Re3 Se17 2.526710 1_555
Re3 Se3 2.533163 1_555
Re3 Se20 2.538395 1_655
Re3 Se27 2.539765 1_655
Re4 Se23 2.526710 1_555
Re4 Se4 2.533163 1_554
Re4 Se13 2.538395 1_554
Re4 Se25 2.539765 1_555
Re5 Se20 2.526710 1_555
Re5 Se5 2.533163 1_555
Re5 Se15 2.538395 1_555
Re5 Se27 2.539765 1_555
Re6 Se22 2.526710 1_555
Re6 Se6 2.533163 1_556
Re6 Se14 2.538395 1_546
Re6 Se26 2.539765 1_545
Re7 Se21 2.526710 1_555
Re7 Se7 2.533163 1_555
Re7 Se12 2.538395 1_565
Re7 Se24 2.539765 1_565
Re8 Se15 2.526710 1_555
Re8 Se8 2.533163 1_455
Re8 Se17 2.538395 1_455
Re8 Se27 2.539765 1_555
Re9 Se12 2.526710 1_555
Re9 Se9 2.533163 1_555
Re9 Se19 2.538395 1_555
Re9 Se24 2.539765 1_555
Re10 Se14 2.526710 1_555
Re10 Se10 2.533163 1_655
Re10 Se18 2.538395 1_654
Re10 Se26 2.539765 1_554
Re11 Se13 2.526710 1_555
Re11 Se11 2.533163 1_555
Re11 Se16 2.538395 1_556
Re11 Se25 2.539765 1_556
Re12 Se7 2.526710 1_555
Re12 Se12 2.533163 1_565
Re12 Se9 2.538395 1_565
Re12 Se28 2.539765 1_555
Re13 Se4 2.526710 1_555
Re13 Se13 2.533163 1_555
Re13 Se11 2.538395 1_555
Re13 Se29 2.539765 1_555
Re14 Se6 2.526710 1_555
Re14 Se14 2.533163 1_545
Re14 Se10 2.538395 1_645
Re14 Se30 2.539765 1_655
Re15 Se5 2.526710 1_555
Re15 Se15 2.533163 1_555
Re15 Se8 2.538395 1_455
Re15 Se31 2.539765 1_455
Re16 Se11 2.526710 1_555
Re16 Se16 2.533163 1_556
Re16 Se1 2.538395 1_556
Re16 Se29 2.539765 1_555
Re17 Se8 2.526710 1_555
Re17 Se17 2.533163 1_555
Re17 Se3 2.538395 1_555
Re17 Se31 2.539765 1_555
Re18 Se10 2.526710 1_555
Re18 Se18 2.533163 1_554
Re18 Se2 2.538395 1_564
Re18 Se30 2.539765 1_565
Re19 Se9 2.526710 1_555
Re19 Se19 2.533163 1_555
Re19 Se0 2.538395 1_545
Re19 Se28 2.539765 1_545
Re20 Se3 2.526710 1_555
Re20 Se20 2.533163 1_655
Re20 Se5 2.538395 1_655
Re20 Se31 2.539765 1_555
Re21 Se0 2.526710 1_555
Re21 Se21 2.533163 1_555
Re21 Se7 2.538395 1_555
Re21 Se28 2.539765 1_555
Re22 Se2 2.526710 1_555
Re22 Se22 2.533163 1_455
Re22 Se6 2.538395 1_456
Re22 Se30 2.539765 1_556
Re23 Se1 2.526710 1_555
Re23 Se23 2.533163 1_555
Re23 Se4 2.538395 1_554
Re23 Se29 2.539765 1_554
O0 Re0 1.699980 1_555
O1 Re1 1.699980 1_555
O2 Re2 1.699980 1_555
O3 Re3 1.699980 1_555
O4 Re4 1.699980 1_555
O5 Re5 1.699980 1_555
O6 Re6 1.699980 1_555
O7 Re7 1.699980 1_555
O8 Re8 1.699980 1_555
O9 Re9 1.699980 1_555
O10 Re10 1.699980 1_555
O11 Re11 1.699980 1_555
O12 Re12 1.699980 1_555
O13 Re13 1.699980 1_555
O14 Re14 1.699980 1_555
O15 Re15 1.699980 1_555
O16 Re16 1.699980 1_555
O17 Re17 1.699980 1_555
O18 Re18 1.699980 1_555
O19 Re19 1.699980 1_555
O20 Re20 1.699980 1_555
O21 Re21 1.699980 1_555
O22 Re22 1.699980 1_555
O23 Re23 1.699980 1_555
