# generated using pymatgen
data_LiCa2TeO6
_symmetry_space_group_name_H-M   'P 1'
_cell_length_a   5.76205500
_cell_length_b   5.56217200
_cell_length_c   9.47548383
_cell_angle_alpha   55.19072985
_cell_angle_beta   90.00000000
_cell_angle_gamma   90.00000000
_symmetry_Int_Tables_number   1
_chemical_formula_structural   LiCa2TeO6
_chemical_formula_sum   'Li2 Ca4 Te2 O12'
_cell_volume   249.34257644
_cell_formula_units_Z   2
loop_
 _symmetry_equiv_pos_site_id
 _symmetry_equiv_pos_as_xyz
  1  'x, y, z'
loop_
 _atom_site_type_symbol
 _atom_site_label
 _atom_site_symmetry_multiplicity
 _atom_site_fract_x
 _atom_site_fract_y
 _atom_site_fract_z
 _atom_site_occupancy
  Li  Li0  1  0.50000000  0.50000000  0.00000000  1
  Li  Li1  1  0.00000000  0.50000000  0.50000000  1
  Ca  Ca0  1  0.05810800  0.72858800  0.75558200  1
  Ca  Ca1  1  0.94189200  0.27141200  0.24441800  1
  Ca  Ca2  1  0.55810800  0.27141200  0.74441800  1
  Ca  Ca3  1  0.44189200  0.72858800  0.25558200  1
  Te  Te0  1  0.50000000  0.00000000  0.50000000  1
  Te  Te1  1  0.00000000  0.00000000  0.00000000  1
  O  O0  1  0.31319600  0.67098600  0.54529900  1
  O  O1  1  0.68680400  0.32901400  0.45470100  1
  O  O2  1  0.81319600  0.32901400  0.95470100  1
  O  O3  1  0.18680400  0.67098600  0.04529900  1
  O  O4  1  0.46584100  0.85662100  0.73995800  1
  O  O5  1  0.53415900  0.14337900  0.26004200  1
  O  O6  1  0.96584100  0.14337900  0.76004200  1
  O  O7  1  0.03415900  0.85662100  0.23995800  1
  O  O8  1  0.77845300  0.76293100  0.55475700  1
  O  O9  1  0.22154700  0.23706900  0.44524300  1
  O  O10  1  0.27845300  0.23706900  0.94524300  1
  O  O11  1  0.72154700  0.76293100  0.05475700  1
loop_
_geom_bond_atom_site_label_1
_geom_bond_atom_site_label_2
_geom_bond_distance
_geom_bond_site_symmetry_2
Li0 O5 2.112966 1_555
Li0 O4 2.112966 1_554
Li0 O2 2.193530 1_554
Li0 O3 2.193530 1_555
Li0 O11 2.214487 1_555
Li0 O10 2.214487 1_554
Li1 O6 2.112966 1_455
Li1 O7 2.112966 1_555
Li1 O0 2.193530 1_555
Li1 O1 2.193530 1_455
Li1 O8 2.214487 1_455
Li1 O9 2.214487 1_555
Ca0 O2 2.388167 1_455
Ca0 O6 2.391368 1_465
Ca0 O8 2.416431 1_455
Ca0 O4 2.434806 1_555
Ca0 O10 2.589707 1_555
Ca0 O0 2.638577 1_555
Ca0 O3 2.680402 1_556
Ca0 O9 2.835116 1_565
Ca1 O3 2.388167 1_655
Ca1 O7 2.391368 1_645
Ca1 O9 2.416431 1_655
Ca1 O5 2.434806 1_555
Ca1 O11 2.589707 1_555
Ca1 O1 2.638577 1_555
Ca1 O2 2.680402 1_554
Ca1 O8 2.835116 1_545
Ca2 O0 2.388167 1_555
Ca2 O4 2.391368 1_545
Ca2 O10 2.416431 1_555
Ca2 O6 2.434806 1_555
Ca2 O8 2.589707 1_555
Ca2 O2 2.638577 1_555
Ca2 O1 2.680402 1_555
Ca2 O11 2.835116 1_546
Ca3 O1 2.388167 1_555
Ca3 O5 2.391368 1_565
Ca3 O11 2.416431 1_555
Ca3 O7 2.434806 1_555
Ca3 O9 2.589707 1_555
Ca3 O3 2.638577 1_555
Ca3 O0 2.680402 1_555
Ca3 O10 2.835116 1_564
O0 Te0 1.948085 1_565
O1 Te0 1.948085 1_555
O2 Te1 1.948085 1_656
O3 Te1 1.948085 1_565
O4 Te0 1.942761 1_565
O5 Te0 1.942761 1_555
O6 Te1 1.942761 1_656
O7 Te1 1.942761 1_565
O8 Te0 1.949654 1_565
O9 Te0 1.949654 1_555
O10 Te1 1.949654 1_556
O11 Te1 1.949654 1_665
