# generated using pymatgen
data_Dy2CoGe2
_symmetry_space_group_name_H-M   'P 1'
_cell_length_a   4.22885500
_cell_length_b   5.63167106
_cell_length_c   9.22015507
_cell_angle_alpha   82.22403886
_cell_angle_beta   76.74256330
_cell_angle_gamma   67.94768398
_symmetry_Int_Tables_number   1
_chemical_formula_structural   Dy2CoGe2
_chemical_formula_sum   'Dy4 Co2 Ge4'
_cell_volume   197.79976246
_cell_formula_units_Z   2
loop_
 _symmetry_equiv_pos_site_id
 _symmetry_equiv_pos_as_xyz
  1  'x, y, z'
loop_
 _atom_site_type_symbol
 _atom_site_label
 _atom_site_symmetry_multiplicity
 _atom_site_fract_x
 _atom_site_fract_y
 _atom_site_fract_z
 _atom_site_occupancy
  Dy  Dy0  1  0.81523000  0.25913400  0.11040600  1
  Dy  Dy1  1  0.18477000  0.74086600  0.88959400  1
  Dy  Dy2  1  0.99541800  0.67599500  0.33317000  1
  Dy  Dy3  1  0.00458200  0.32400500  0.66683000  1
  Co  Co0  1  0.72830500  0.89975000  0.64364000  1
  Co  Co1  1  0.27169500  0.10025000  0.35636000  1
  Ge  Ge0  1  0.51339700  0.84711900  0.12608700  1
  Ge  Ge1  1  0.48660300  0.15288100  0.87391300  1
  Ge  Ge2  1  0.65567400  0.25420900  0.43444200  1
  Ge  Ge3  1  0.34432600  0.74579100  0.56555800  1
loop_
_geom_bond_atom_site_label_1
_geom_bond_atom_site_label_2
_geom_bond_distance
_geom_bond_site_symmetry_2
Dy0 Ge2 2.906751 1_555
Dy0 Ge0 3.013734 1_645
Dy0 Ge0 3.013735 1_545
Dy0 Ge1 3.067787 1_654
Dy0 Ge1 3.067787 1_554
Dy0 Ge0 3.079967 1_555
Dy1 Ge3 2.906751 1_555
Dy1 Ge1 3.013734 1_465
Dy1 Ge1 3.013735 1_565
Dy1 Ge0 3.067787 1_456
Dy1 Ge0 3.067787 1_556
Dy1 Ge1 3.079967 1_555
Dy2 Ge0 2.922569 1_655
Dy2 Ge0 2.922572 1_555
Dy2 Ge3 3.005980 1_555
Dy2 Ge3 3.005981 1_655
Dy2 Ge2 3.150481 1_655
Dy2 Ge2 3.150487 1_555
Dy2 Ge2 3.199068 1_565
Dy3 Ge1 2.922569 1_455
Dy3 Ge1 2.922572 1_555
Dy3 Ge2 3.005980 1_555
Dy3 Ge2 3.005981 1_455
Dy3 Ge3 3.150481 1_455
Dy3 Ge3 3.150487 1_555
Dy3 Ge3 3.199068 1_545
Co0 Ge3 2.380977 1_555
Co0 Ge3 2.380980 1_655
Co0 Ge1 2.512817 1_565
Co0 Ge2 2.563002 1_565
Co0 Dy3 3.001050 1_655
Co0 Dy3 3.077052 1_665
Co0 Dy3 3.077055 1_565
Co0 Dy2 3.079353 1_555
Co0 Dy1 3.135455 1_555
Co0 Dy1 3.135456 1_655
Co1 Ge2 2.380977 1_555
Co1 Ge2 2.380980 1_455
Co1 Ge0 2.512817 1_545
Co1 Ge3 2.563002 1_545
Co1 Dy2 3.001050 1_455
Co1 Dy2 3.077052 1_445
Co1 Dy2 3.077055 1_545
Co1 Dy3 3.079353 1_555
Co1 Dy0 3.135455 1_555
Co1 Dy0 3.135456 1_455
Ge0 Ge1 2.697201 1_564
Ge2 Ge3 2.880578 1_555
