# generated using pymatgen
data_CeSe2
_symmetry_space_group_name_H-M   'P 1'
_cell_length_a   4.20826119
_cell_length_b   4.20826119
_cell_length_c   8.48775025
_cell_angle_alpha   90.00000000
_cell_angle_beta   90.00000000
_cell_angle_gamma   90.00000000
_symmetry_Int_Tables_number   1
_chemical_formula_structural   CeSe2
_chemical_formula_sum   'Ce2 Se4'
_cell_volume   150.31349258
_cell_formula_units_Z   2
loop_
 _symmetry_equiv_pos_site_id
 _symmetry_equiv_pos_as_xyz
  1  'x, y, z'
loop_
 _atom_site_type_symbol
 _atom_site_label
 _atom_site_symmetry_multiplicity
 _atom_site_fract_x
 _atom_site_fract_y
 _atom_site_fract_z
 _atom_site_occupancy
  Ce  Ce0  1  -0.00000000  0.50000000  0.72674580  1
  Ce  Ce1  1  0.50000000  -0.00000000  0.27325420  1
  Se  Se0  1  0.00000000  0.50000000  0.36496057  1
  Se  Se1  1  0.50000000  -0.00000000  0.63503943  1
  Se  Se2  1  -0.00000000  -0.00000000  0.00000000  1
  Se  Se3  1  0.50000000  0.50000000  0.00000000  1
loop_
_geom_bond_atom_site_label_1
_geom_bond_atom_site_label_2
_geom_bond_distance
_geom_bond_site_symmetry_2
Ce0 Se0 3.070743 1_555
Ce0 Se1 3.075810 1_465
Ce0 Se1 3.075810 1_565
Ce0 Se1 3.075810 1_555
Ce0 Se1 3.075810 1_455
Ce0 Se3 3.131546 1_456
Ce0 Se2 3.131546 1_556
Ce0 Se2 3.131546 1_566
Ce0 Se3 3.131546 1_556
Ce1 Se1 3.070743 1_555
Ce1 Se0 3.075810 1_555
Ce1 Se0 3.075810 1_545
Ce1 Se0 3.075810 1_655
Ce1 Se0 3.075810 1_645
Ce1 Se2 3.131546 1_555
Ce1 Se3 3.131546 1_555
Ce1 Se2 3.131546 1_655
Ce1 Se3 3.131546 1_545
Se2 Se3 2.975690 1_455
Se2 Se3 2.975690 1_555
Se2 Se3 2.975690 1_445
Se2 Se3 2.975690 1_545
