# generated using pymatgen
data_Co2I3(N2O)3
_symmetry_space_group_name_H-M   'P 1'
_cell_length_a   6.11945800
_cell_length_b   9.04501800
_cell_length_c   9.07759300
_cell_angle_alpha   90.00000000
_cell_angle_beta   90.00000000
_cell_angle_gamma   90.00000000
_symmetry_Int_Tables_number   1
_chemical_formula_structural   Co2I3(N2O)3
_chemical_formula_sum   'Co4 I6 N12 O6'
_cell_volume   502.45028955
_cell_formula_units_Z   2
loop_
 _symmetry_equiv_pos_site_id
 _symmetry_equiv_pos_as_xyz
  1  'x, y, z'
loop_
 _atom_site_type_symbol
 _atom_site_label
 _atom_site_symmetry_multiplicity
 _atom_site_fract_x
 _atom_site_fract_y
 _atom_site_fract_z
 _atom_site_occupancy
  Co  Co0  1  0.50000000  0.81167700  0.77978300  1
  Co  Co1  1  0.00000000  0.18832300  0.27978300  1
  Co  Co2  1  0.50000000  0.48650000  0.59521700  1
  Co  Co3  1  0.00000000  0.51350000  0.09521700  1
  I  I0  1  0.50000000  0.10348300  0.57424700  1
  I  I1  1  0.00000000  0.89651700  0.07424700  1
  I  I2  1  0.50000000  0.11763400  0.12379100  1
  I  I3  1  0.00000000  0.88236600  0.62379100  1
  I  I4  1  0.50000000  0.68120300  0.14803200  1
  I  I5  1  0.00000000  0.31879700  0.64803200  1
  N  N0  1  0.50000000  0.82185900  0.98765100  1
  N  N1  1  0.00000000  0.17814100  0.48765100  1
  N  N2  1  0.27921900  0.96750300  0.71275700  1
  N  N3  1  0.72078100  0.96750300  0.71275700  1
  N  N4  1  0.22078100  0.03249700  0.21275700  1
  N  N5  1  0.77921900  0.03249700  0.21275700  1
  N  N6  1  0.25502700  0.48452500  0.46990500  1
  N  N7  1  0.74497300  0.48452500  0.46990500  1
  N  N8  1  0.24497300  0.51547500  0.96990500  1
  N  N9  1  0.75502700  0.51547500  0.96990500  1
  N  N10  1  0.50000000  0.28863700  0.66621900  1
  N  N11  1  0.00000000  0.71136300  0.16621900  1
  O  O0  1  0.50000000  0.68393900  0.63024500  1
  O  O1  1  0.00000000  0.31606100  0.13024500  1
  O  O2  1  0.23219200  0.59004200  0.86024600  1
  O  O3  1  0.76780800  0.59004200  0.86024600  1
  O  O4  1  0.26780800  0.40995800  0.36024600  1
  O  O5  1  0.73219200  0.40995800  0.36024600  1
loop_
_geom_bond_atom_site_label_1
_geom_bond_atom_site_label_2
_geom_bond_distance
_geom_bond_site_symmetry_2
Co0 O0 1.782579 1_555
Co0 N0 1.889187 1_555
Co0 N2 2.045019 1_555
Co0 N3 2.045019 1_555
Co1 O1 1.782579 1_555
Co1 N1 1.889187 1_555
Co1 N4 2.045019 1_555
Co1 N5 2.045019 1_455
Co2 O0 1.813926 1_555
Co2 N6 1.881915 1_555
Co2 N7 1.881915 1_555
Co2 N10 1.902196 1_555
Co3 O1 1.813926 1_555
Co3 N9 1.881915 1_454
Co3 N8 1.881915 1_554
Co3 N11 1.902196 1_555
I0 N10 1.871289 1_555
I0 N3 2.217886 1_545
I0 N2 2.217886 1_545
I1 N11 1.871289 1_555
I1 N4 2.217886 1_565
I1 N5 2.217886 1_465
I2 N5 2.040775 1_555
I2 N4 2.040775 1_555
I3 N3 2.040775 1_455
I3 N2 2.040775 1_555
I4 N0 1.933430 1_554
I5 N1 1.933430 1_555
N6 O4 1.204954 1_555
N7 O5 1.204954 1_555
N8 O2 1.204954 1_555
N9 O3 1.204954 1_555
