# generated using pymatgen
data_K2NaZn(BO2)5
_symmetry_space_group_name_H-M   'P 1'
_cell_length_a   7.68406980
_cell_length_b   7.68406980
_cell_length_c   19.64192342
_cell_angle_alpha   85.07990114
_cell_angle_beta   85.07990114
_cell_angle_gamma   116.72529648
_symmetry_Int_Tables_number   1
_chemical_formula_structural   K2NaZn(BO2)5
_chemical_formula_sum   'K8 Na4 Zn4 B20 O40'
_cell_volume   1021.92207196
_cell_formula_units_Z   4
loop_
 _symmetry_equiv_pos_site_id
 _symmetry_equiv_pos_as_xyz
  1  'x, y, z'
loop_
 _atom_site_type_symbol
 _atom_site_label
 _atom_site_symmetry_multiplicity
 _atom_site_fract_x
 _atom_site_fract_y
 _atom_site_fract_z
 _atom_site_occupancy
  K  K0  1  0.00237400  0.18243900  0.06227300  1
  K  K1  1  0.81756100  0.99762600  0.43772700  1
  K  K2  1  0.99762600  0.81756100  0.93772700  1
  K  K3  1  0.18243900  0.00237400  0.56227300  1
  K  K4  1  0.45982200  0.62138300  0.07737200  1
  K  K5  1  0.37861700  0.54017800  0.42262800  1
  K  K6  1  0.54017800  0.37861700  0.92262800  1
  K  K7  1  0.62138300  0.45982200  0.57737200  1
  Na  Na0  1  0.15286200  0.84713800  0.25000000  1
  Na  Na1  1  0.84713800  0.15286200  0.75000000  1
  Na  Na2  1  0.65108700  0.34891300  0.25000000  1
  Na  Na3  1  0.34891300  0.65108700  0.75000000  1
  Zn  Zn0  1  0.95837300  0.63757300  0.11053200  1
  Zn  Zn1  1  0.36242700  0.04162700  0.38946800  1
  Zn  Zn2  1  0.04162700  0.36242700  0.88946800  1
  Zn  Zn3  1  0.63757300  0.95837300  0.61053200  1
  B  B0  1  0.32091900  0.99513300  0.08338700  1
  B  B1  1  0.00486700  0.67908100  0.41661300  1
  B  B2  1  0.67908100  0.00486700  0.91661300  1
  B  B3  1  0.99513300  0.32091900  0.58338700  1
  B  B4  1  0.62940300  0.30267900  0.08131200  1
  B  B5  1  0.69732100  0.37059700  0.41868800  1
  B  B6  1  0.37059700  0.69732100  0.91868800  1
  B  B7  1  0.30267900  0.62940300  0.58131200  1
  B  B8  1  0.56094800  0.00353900  0.16714100  1
  B  B9  1  0.99646100  0.43905200  0.33285900  1
  B  B10  1  0.43905200  0.99646100  0.83285900  1
  B  B11  1  0.00353900  0.56094800  0.66714100  1
  B  B12  1  0.72883300  0.79790900  0.20441200  1
  B  B13  1  0.20209100  0.27116700  0.29558800  1
  B  B14  1  0.27116700  0.20209100  0.79558800  1
  B  B15  1  0.79790900  0.72883300  0.70441200  1
  B  B16  1  0.56732600  0.90454900  0.29379200  1
  B  B17  1  0.09545100  0.43267400  0.20620800  1
  B  B18  1  0.43267400  0.09545100  0.70620800  1
  B  B19  1  0.90454900  0.56732600  0.79379200  1
  O  O0  1  0.14958000  0.89979000  0.05817000  1
  O  O1  1  0.10021000  0.85042000  0.44183000  1
  O  O2  1  0.85042000  0.10021000  0.94183000  1
  O  O3  1  0.89979000  0.14958000  0.55817000  1
  O  O4  1  0.37349200  0.90955900  0.13769000  1
  O  O5  1  0.09044100  0.62650800  0.36231000  1
  O  O6  1  0.62650800  0.09044100  0.86231000  1
  O  O7  1  0.90955900  0.37349200  0.63769000  1
  O  O8  1  0.45119400  0.19326300  0.05443300  1
  O  O9  1  0.80673700  0.54880600  0.44556700  1
  O  O10  1  0.54880600  0.80673700  0.94556700  1
  O  O11  1  0.19326300  0.45119400  0.55443300  1
  O  O12  1  0.67411000  0.21244600  0.13628000  1
  O  O13  1  0.78755400  0.32589000  0.36372000  1
  O  O14  1  0.32589000  0.78755400  0.86372000  1
  O  O15  1  0.21244600  0.67411000  0.63628000  1
  O  O16  1  0.74613800  0.49210200  0.05317700  1
  O  O17  1  0.50789800  0.25386200  0.44682300  1
  O  O18  1  0.25386200  0.50789800  0.94682300  1
  O  O19  1  0.49210200  0.74613800  0.55317700  1
  O  O20  1  0.67926600  0.89838500  0.15318800  1
  O  O21  1  0.10161500  0.32073400  0.34681200  1
  O  O22  1  0.32073400  0.10161500  0.84681200  1
  O  O23  1  0.89838500  0.67926600  0.65318800  1
  O  O24  1  0.51266400  0.99562100  0.24164400  1
  O  O25  1  0.00437900  0.48733600  0.25835600  1
  O  O26  1  0.48733600  0.00437900  0.75835600  1
  O  O27  1  0.99562100  0.51266400  0.74164400  1
  O  O28  1  0.67441800  0.80366800  0.27466100  1
  O  O29  1  0.19633200  0.32558200  0.22533900  1
  O  O30  1  0.32558200  0.19633200  0.72533900  1
  O  O31  1  0.80366800  0.67441800  0.77466100  1
  O  O32  1  0.82510600  0.69304300  0.19084300  1
  O  O33  1  0.30695700  0.17489400  0.30915700  1
  O  O34  1  0.17489400  0.30695700  0.80915700  1
  O  O35  1  0.69304300  0.82510600  0.69084300  1
  O  O36  1  0.51942000  0.90751400  0.36103300  1
  O  O37  1  0.09248600  0.48058000  0.13896700  1
  O  O38  1  0.48058000  0.09248600  0.63896700  1
  O  O39  1  0.90751400  0.51942000  0.86103300  1
loop_
_geom_bond_atom_site_label_1
_geom_bond_atom_site_label_2
_geom_bond_distance
_geom_bond_site_symmetry_2
K0 O37 2.709478 1_555
K0 O2 2.725057 1_454
K0 O20 2.795356 1_445
K0 O0 2.868297 1_545
K0 O12 2.912113 1_455
K0 O18 3.009937 1_554
K1 O36 2.709478 1_555
K1 O3 2.725057 1_565
K1 O21 2.795356 1_665
K1 O1 2.868297 1_655
K1 O13 2.912113 1_565
K1 O19 3.009937 1_555
K2 O39 2.709478 1_555
K2 O0 2.725057 1_656
K2 O22 2.795356 1_665
K2 O2 2.868297 1_565
K2 O14 2.912113 1_655
K2 O16 3.009937 1_556
K3 O38 2.709478 1_555
K3 O1 2.725057 1_545
K3 O23 2.795356 1_445
K3 O3 2.868297 1_455
K3 O15 2.912113 1_545
K3 O17 3.009937 1_555
K4 O37 2.654148 1_555
K4 O20 2.708835 1_555
K4 O10 2.717802 1_554
K4 O16 2.814321 1_555
K4 O4 2.895432 1_555
K4 O18 3.111073 1_554
K5 O36 2.654148 1_555
K5 O21 2.708835 1_555
K5 O11 2.717802 1_555
K5 O17 2.814321 1_555
K5 O5 2.895432 1_555
K5 O19 3.111073 1_555
K6 O39 2.654148 1_555
K6 O22 2.708835 1_555
K6 O8 2.717802 1_556
K6 O18 2.814321 1_555
K6 O6 2.895432 1_555
K6 O16 3.111073 1_556
K7 O38 2.654148 1_555
K7 O23 2.708835 1_555
K7 O9 2.717802 1_555
K7 O19 2.814321 1_555
K7 O7 2.895432 1_555
K7 O17 3.111073 1_555
Na0 O25 2.454663 1_555
Na0 O24 2.454663 1_555
Na0 O4 2.533022 1_555
Na0 O5 2.533022 1_555
Na0 O32 2.674102 1_455
Na0 O33 2.674102 1_565
Na1 O26 2.454663 1_555
Na1 O27 2.454663 1_555
Na1 O7 2.533022 1_555
Na1 O6 2.533022 1_555
Na1 O35 2.674102 1_545
Na1 O34 2.674102 1_655
Na2 O25 2.457084 1_655
Na2 O24 2.457084 1_545
Na2 O32 2.481278 1_555
Na2 O33 2.481278 1_555
Na2 O12 2.573146 1_555
Na2 O13 2.573146 1_555
Na3 O26 2.457084 1_565
Na3 O27 2.457084 1_455
Na3 O34 2.481278 1_555
Na3 O35 2.481278 1_555
Na3 O14 2.573146 1_555
Na3 O15 2.573146 1_555
B0 O0 1.349818 1_555
B0 O4 1.387721 1_555
B0 O8 1.423527 1_565
B1 O1 1.349818 1_555
B1 O5 1.387721 1_555
B1 O9 1.423527 1_455
B2 O2 1.349818 1_555
B2 O6 1.387721 1_555
B2 O10 1.423527 1_545
B3 O3 1.349818 1_555
B3 O7 1.387721 1_555
B3 O11 1.423527 1_655
B4 O16 1.353250 1_555
B4 O12 1.383440 1_555
B4 O8 1.423173 1_555
B5 O17 1.353250 1_555
B5 O13 1.383440 1_555
B5 O9 1.423173 1_555
B6 O18 1.353250 1_555
B6 O14 1.383440 1_555
B6 O10 1.423173 1_555
B7 O19 1.353250 1_555
B7 O15 1.383440 1_555
B7 O11 1.423173 1_555
B8 O24 1.467697 1_545
B8 O12 1.479058 1_555
B8 O4 1.486592 1_545
B8 O20 1.486791 1_545
B9 O25 1.467697 1_655
B9 O13 1.479058 1_555
B9 O5 1.486592 1_655
B9 O21 1.486791 1_655
B10 O26 1.467697 1_565
B10 O14 1.479058 1_555
B10 O6 1.486592 1_565
B10 O22 1.486791 1_565
B11 O27 1.467697 1_455
B11 O15 1.479058 1_555
B11 O7 1.486592 1_455
B11 O23 1.486791 1_455
B12 O32 1.344162 1_555
B12 O20 1.396580 1_555
B12 O28 1.417342 1_555
B13 O33 1.344162 1_555
B13 O21 1.396580 1_555
B13 O29 1.417342 1_555
B14 O34 1.344162 1_555
B14 O22 1.396580 1_555
B14 O30 1.417342 1_555
B15 O35 1.344162 1_555
B15 O23 1.396580 1_555
B15 O31 1.417342 1_555
B16 O36 1.345249 1_555
B16 O24 1.389435 1_555
B16 O28 1.410650 1_555
B17 O37 1.345249 1_555
B17 O25 1.389435 1_555
B17 O29 1.410650 1_555
B18 O38 1.345249 1_555
B18 O26 1.389435 1_555
B18 O30 1.410650 1_555
B19 O39 1.345249 1_555
B19 O27 1.389435 1_555
B19 O31 1.410650 1_555
O0 Zn0 1.999741 1_455
O1 Zn1 1.999741 1_565
O2 Zn2 1.999741 1_655
O3 Zn3 1.999741 1_545
O16 Zn0 2.017370 1_555
O17 Zn1 2.017370 1_555
O18 Zn2 2.017370 1_555
O19 Zn3 2.017370 1_555
O32 Zn0 1.987343 1_555
O33 Zn1 1.987343 1_555
O34 Zn2 1.987343 1_555
O35 Zn3 1.987343 1_555
O36 Zn1 1.982553 1_565
O37 Zn0 1.982553 1_455
O38 Zn3 1.982553 1_545
O39 Zn2 1.982553 1_655
