# generated using pymatgen
data_K3BN2
_symmetry_space_group_name_H-M   'P 1'
_cell_length_a   8.81715500
_cell_length_b   6.50028900
_cell_length_c   9.08009497
_cell_angle_alpha   68.75574664
_cell_angle_beta   90.00000000
_cell_angle_gamma   90.00000000
_symmetry_Int_Tables_number   1
_chemical_formula_structural   K3BN2
_chemical_formula_sum   'K12 B4 N8'
_cell_volume   485.05171873
_cell_formula_units_Z   4
loop_
 _symmetry_equiv_pos_site_id
 _symmetry_equiv_pos_as_xyz
  1  'x, y, z'
loop_
 _atom_site_type_symbol
 _atom_site_label
 _atom_site_symmetry_multiplicity
 _atom_site_fract_x
 _atom_site_fract_y
 _atom_site_fract_z
 _atom_site_occupancy
  K  K0  1  0.04318700  0.74733000  0.99169700  1
  K  K1  1  0.54318700  0.25267000  0.50830300  1
  K  K2  1  0.95681300  0.25267000  0.00830300  1
  K  K3  1  0.45681300  0.74733000  0.49169700  1
  K  K4  1  0.46885500  0.76306500  0.88232400  1
  K  K5  1  0.96885500  0.23693500  0.61767600  1
  K  K6  1  0.53114500  0.23693500  0.11767600  1
  K  K7  1  0.03114500  0.76306500  0.38232400  1
  K  K8  1  0.29509900  0.25520300  0.81357800  1
  K  K9  1  0.79509900  0.74479700  0.68642200  1
  K  K10  1  0.70490100  0.74479700  0.18642200  1
  K  K11  1  0.20490100  0.25520300  0.31357800  1
  B  B0  1  0.17674000  0.78846700  0.67846400  1
  B  B1  1  0.67674000  0.21153300  0.82153600  1
  B  B2  1  0.82326000  0.21153300  0.32153600  1
  B  B3  1  0.32326000  0.78846700  0.17846400  1
  N  N0  1  0.09193300  0.60059000  0.72431600  1
  N  N1  1  0.59193300  0.39941000  0.77568400  1
  N  N2  1  0.90806700  0.39941000  0.27568400  1
  N  N3  1  0.40806700  0.60059000  0.22431600  1
  N  N4  1  0.26168200  0.97617800  0.63319100  1
  N  N5  1  0.76168200  0.02382200  0.86680900  1
  N  N6  1  0.73831800  0.02382200  0.36680900  1
  N  N7  1  0.23831800  0.97617800  0.13319100  1
loop_
_geom_bond_atom_site_label_1
_geom_bond_atom_site_label_2
_geom_bond_distance
_geom_bond_site_symmetry_2
K0 N7 2.865083 1_556
K0 N0 2.944017 1_555
K0 N2 2.992862 1_456
K0 N5 3.033125 1_465
K1 N6 2.865083 1_555
K1 N1 2.944017 1_555
K1 N3 2.992862 1_555
K1 N4 3.033125 1_545
K2 N5 2.865083 1_554
K2 N2 2.944017 1_555
K2 N0 2.992862 1_654
K2 N7 3.033125 1_645
K3 N4 2.865083 1_555
K3 N3 2.944017 1_555
K3 N1 2.992862 1_555
K3 N6 3.033125 1_565
K4 N4 2.846423 1_555
K4 N3 2.944314 1_556
K4 N1 3.059718 1_555
K4 N5 3.063662 1_565
K5 N5 2.846423 1_555
K5 N2 2.944314 1_555
K5 N0 3.059718 1_655
K5 N4 3.063662 1_645
K6 N6 2.846423 1_555
K6 N1 2.944314 1_554
K6 N3 3.059718 1_555
K6 N7 3.063662 1_545
K7 N7 2.846423 1_555
K7 N0 2.944314 1_555
K7 N2 3.059718 1_455
K7 N6 3.063662 1_465
K8 N0 2.754575 1_555
K8 N1 2.759211 1_555
K8 N7 2.854479 1_546
K8 N4 2.865692 1_545
K9 N1 2.754575 1_555
K9 N0 2.759211 1_655
K9 N6 2.854479 1_565
K9 N5 2.865692 1_565
K10 N2 2.754575 1_555
K10 N3 2.759211 1_555
K10 N5 2.854479 1_564
K10 N6 2.865692 1_565
K11 N3 2.754575 1_555
K11 N2 2.759211 1_455
K11 N4 2.854479 1_545
K11 N7 2.865692 1_545
B0 N4 1.362072 1_555
B0 N0 1.362156 1_555
B0 K0 2.999397 1_555
B0 K3 3.061740 1_555
B1 N5 1.362072 1_555
B1 N1 1.362156 1_555
B1 K1 2.999397 1_555
B1 K2 3.061740 1_556
B2 N6 1.362072 1_555
B2 N2 1.362156 1_555
B2 K2 2.999397 1_555
B2 K1 3.061740 1_555
B3 N7 1.362072 1_555
B3 N3 1.362156 1_555
B3 K3 2.999397 1_555
B3 K0 3.061740 1_554
