# generated using pymatgen
data_Na2VCu3S4
_symmetry_space_group_name_H-M   'P 1'
_cell_length_a   7.82702419
_cell_length_b   7.82702419
_cell_length_c   6.69408043
_cell_angle_alpha   64.81905167
_cell_angle_beta   64.81905167
_cell_angle_gamma   28.63906888
_symmetry_Int_Tables_number   1
_chemical_formula_structural   Na2VCu3S4
_chemical_formula_sum   'Na2 V1 Cu3 S4'
_cell_volume   176.59004506
_cell_formula_units_Z   1
loop_
 _symmetry_equiv_pos_site_id
 _symmetry_equiv_pos_as_xyz
  1  'x, y, z'
loop_
 _atom_site_type_symbol
 _atom_site_label
 _atom_site_symmetry_multiplicity
 _atom_site_fract_x
 _atom_site_fract_y
 _atom_site_fract_z
 _atom_site_occupancy
  Na  Na0  1  0.49317000  0.49317000  0.50414600  1
  Na  Na1  1  0.99527900  0.99527900  0.00670800  1
  V  V0  1  0.18937700  0.18937700  0.47144900  1
  Cu  Cu0  1  0.69484200  0.69484200  0.97809100  1
  Cu  Cu1  1  0.81445000  0.81445000  0.53142900  1
  Cu  Cu2  1  0.31287800  0.31287800  0.00954600  1
  S  S0  1  0.13298300  0.13298300  0.20124800  1
  S  S1  1  0.63746000  0.63746000  0.69429700  1
  S  S2  1  0.87157900  0.87157900  0.79742500  1
  S  S3  1  0.35723500  0.35723500  0.30566000  1
loop_
_geom_bond_atom_site_label_1
_geom_bond_atom_site_label_2
_geom_bond_distance
_geom_bond_site_symmetry_2
Na0 S2 2.797005 1_455
Na0 S2 2.797005 1_545
Na0 S3 2.902146 1_555
Na0 S0 2.929092 1_565
Na0 S0 2.929092 1_655
Na0 S1 2.975998 1_555
Na1 S2 2.791320 1_554
Na1 S0 2.906402 1_665
Na1 S3 2.907995 1_565
Na1 S3 2.907995 1_655
Na1 S1 2.968322 1_564
Na1 S1 2.968322 1_654
Cu0 S0 2.372434 1_566
Cu0 S0 2.372434 1_656
Cu0 S2 2.408626 1_555
Cu0 S1 2.412188 1_555
Cu1 S2 2.297049 1_555
Cu1 S3 2.364611 1_655
Cu1 S3 2.364611 1_565
Cu1 S1 2.413484 1_555
Cu2 S2 2.333710 1_454
Cu2 S2 2.333710 1_544
Cu2 S3 2.356492 1_555
Cu2 S0 2.452920 1_555
S0 V0 2.315596 1_555
S1 V0 2.358241 1_655
S1 V0 2.358241 1_565
S3 V0 2.287430 1_555
