# generated using pymatgen
data_KBaBiWO6
_symmetry_space_group_name_H-M   'P 1'
_cell_length_a   8.60633021
_cell_length_b   8.58857505
_cell_length_c   8.59962602
_cell_angle_alpha   90.00000000
_cell_angle_beta   90.00000000
_cell_angle_gamma   90.00000000
_symmetry_Int_Tables_number   1
_chemical_formula_structural   KBaBiWO6
_chemical_formula_sum   'K4 Ba4 Bi4 W4 O24'
_cell_volume   635.65092791
_cell_formula_units_Z   4
loop_
 _symmetry_equiv_pos_site_id
 _symmetry_equiv_pos_as_xyz
  1  'x, y, z'
loop_
 _atom_site_type_symbol
 _atom_site_label
 _atom_site_symmetry_multiplicity
 _atom_site_fract_x
 _atom_site_fract_y
 _atom_site_fract_z
 _atom_site_occupancy
  K  K0  1  0.50000000  0.00000000  0.50000000  1
  K  K1  1  0.50000000  0.50000000  0.00000000  1
  K  K2  1  0.00000000  0.50000000  0.00000000  1
  K  K3  1  0.00000000  0.00000000  0.50000000  1
  Ba  Ba0  1  -0.00000000  0.50000000  0.50000000  1
  Ba  Ba1  1  0.50000000  -0.00000000  0.00000000  1
  Ba  Ba2  1  0.00000000  -0.00000000  0.00000000  1
  Ba  Ba3  1  0.50000000  0.50000000  0.50000000  1
  Bi  Bi0  1  0.75000000  0.75000000  0.75000000  1
  Bi  Bi1  1  0.25000000  0.25000000  0.75000000  1
  Bi  Bi2  1  0.25000000  0.75000000  0.25000000  1
  Bi  Bi3  1  0.75000000  0.25000000  0.25000000  1
  W  W0  1  0.25000000  0.25000000  0.25000000  1
  W  W1  1  0.75000000  0.75000000  0.25000000  1
  W  W2  1  0.75000000  0.25000000  0.75000000  1
  W  W3  1  0.25000000  0.75000000  0.75000000  1
  O  O0  1  0.02332302  0.23343118  0.26570546  1
  O  O1  1  0.97667698  0.76656882  0.26570546  1
  O  O2  1  0.97667698  0.23343118  0.73429454  1
  O  O3  1  0.02332302  0.76656882  0.73429454  1
  O  O4  1  0.26511298  0.02238723  0.22677362  1
  O  O5  1  0.26511298  0.97761277  0.77322638  1
  O  O6  1  0.73488702  0.97761277  0.22677362  1
  O  O7  1  0.73488702  0.02238723  0.77322638  1
  O  O8  1  0.23246990  0.25944913  0.02305126  1
  O  O9  1  0.76753010  0.25944913  0.97694874  1
  O  O10  1  0.23246990  0.74055087  0.97694874  1
  O  O11  1  0.76753010  0.74055087  0.02305126  1
  O  O12  1  0.47667698  0.26656882  0.23429454  1
  O  O13  1  0.52332302  0.73343118  0.23429454  1
  O  O14  1  0.52332302  0.26656882  0.76570546  1
  O  O15  1  0.47667698  0.73343118  0.76570546  1
  O  O16  1  0.23488702  0.47761277  0.27322638  1
  O  O17  1  0.23488702  0.52238723  0.72677362  1
  O  O18  1  0.76511298  0.52238723  0.27322638  1
  O  O19  1  0.76511298  0.47761277  0.72677362  1
  O  O20  1  0.26753010  0.24055087  0.47694874  1
  O  O21  1  0.73246990  0.24055087  0.52305126  1
  O  O22  1  0.26753010  0.75944913  0.52305126  1
  O  O23  1  0.73246990  0.75944913  0.47694874  1
loop_
_geom_bond_atom_site_label_1
_geom_bond_atom_site_label_2
_geom_bond_distance
_geom_bond_site_symmetry_2
K0 O20 2.882787 1_555
K0 O22 2.882787 1_545
K0 O21 2.882787 1_555
K0 O23 2.882787 1_545
K0 O5 3.105531 1_545
K0 O4 3.105531 1_555
K0 O7 3.105531 1_555
K0 O6 3.105531 1_545
K0 O13 3.240823 1_545
K0 O12 3.240823 1_555
K0 O14 3.240823 1_555
K0 O15 3.240823 1_545
K1 O15 2.849435 1_554
K1 O13 2.849435 1_555
K1 O14 2.849435 1_554
K1 O12 2.849435 1_555
K1 O11 3.099822 1_555
K1 O9 3.099822 1_554
K1 O8 3.099822 1_555
K1 O10 3.099822 1_554
K1 O19 3.280812 1_554
K1 O17 3.280812 1_554
K1 O18 3.280812 1_555
K1 O16 3.280812 1_555
K2 O10 2.882787 1_554
K2 O8 2.882787 1_555
K2 O11 2.882787 1_455
K2 O9 2.882787 1_454
K2 O18 3.105531 1_455
K2 O19 3.105531 1_454
K2 O16 3.105531 1_555
K2 O17 3.105531 1_554
K2 O2 3.240823 1_454
K2 O3 3.240823 1_554
K2 O0 3.240823 1_555
K2 O1 3.240823 1_455
K3 O1 2.849435 1_445
K3 O3 2.849435 1_545
K3 O0 2.849435 1_555
K3 O2 2.849435 1_455
K3 O23 3.099822 1_445
K3 O22 3.099822 1_545
K3 O21 3.099822 1_455
K3 O20 3.099822 1_555
K3 O7 3.280812 1_455
K3 O6 3.280812 1_445
K3 O4 3.280812 1_555
K3 O5 3.280812 1_545
Ba0 O17 2.815431 1_555
Ba0 O18 2.815431 1_455
Ba0 O19 2.815431 1_455
Ba0 O16 2.815431 1_555
Ba0 O0 3.056380 1_555
Ba0 O1 3.056380 1_455
Ba0 O3 3.056380 1_555
Ba0 O2 3.056380 1_455
Ba0 O23 3.210280 1_455
Ba0 O22 3.210280 1_555
Ba0 O20 3.210280 1_555
Ba0 O21 3.210280 1_455
Ba1 O5 2.815431 1_544
Ba1 O4 2.815431 1_555
Ba1 O7 2.815431 1_554
Ba1 O6 2.815431 1_545
Ba1 O15 3.056380 1_544
Ba1 O14 3.056380 1_554
Ba1 O12 3.056380 1_555
Ba1 O13 3.056380 1_545
Ba1 O11 3.210280 1_545
Ba1 O9 3.210280 1_554
Ba1 O10 3.210280 1_544
Ba1 O8 3.210280 1_555
Ba2 O10 3.001243 1_544
Ba2 O8 3.001243 1_555
Ba2 O9 3.001243 1_454
Ba2 O11 3.001243 1_445
Ba2 O7 3.007666 1_454
Ba2 O6 3.007666 1_445
Ba2 O5 3.007666 1_544
Ba2 O4 3.007666 1_555
Ba2 O3 3.046433 1_544
Ba2 O2 3.046433 1_454
Ba2 O1 3.046433 1_445
Ba2 O0 3.046433 1_555
Ba3 O23 3.001243 1_555
Ba3 O21 3.001243 1_555
Ba3 O22 3.001243 1_555
Ba3 O20 3.001243 1_555
Ba3 O17 3.007666 1_555
Ba3 O18 3.007666 1_555
Ba3 O19 3.007666 1_555
Ba3 O16 3.007666 1_555
Ba3 O13 3.046433 1_555
Ba3 O15 3.046433 1_555
Ba3 O12 3.046433 1_555
Ba3 O14 3.046433 1_555
Bi0 O19 2.351529 1_555
Bi0 O7 2.351529 1_565
Bi0 O11 2.354380 1_556
Bi0 O23 2.354380 1_555
Bi0 O15 2.360476 1_555
Bi0 O3 2.360476 1_655
Bi1 O5 2.351529 1_545
Bi1 O17 2.351529 1_555
Bi1 O20 2.354380 1_555
Bi1 O8 2.354380 1_556
Bi1 O2 2.360476 1_455
Bi1 O14 2.360476 1_555
Bi2 O16 2.351529 1_555
Bi2 O4 2.351529 1_565
Bi2 O22 2.354380 1_555
Bi2 O10 2.354380 1_554
Bi2 O1 2.360476 1_455
Bi2 O13 2.360476 1_555
Bi3 O18 2.351529 1_555
Bi3 O6 2.351529 1_545
Bi3 O21 2.354380 1_555
Bi3 O9 2.354380 1_554
Bi3 O12 2.360476 1_555
Bi3 O0 2.360476 1_655
O0 W0 1.960697 1_555
O1 W1 1.960697 1_555
O2 W2 1.960697 1_555
O3 W3 1.960697 1_555
O4 W0 1.969347 1_555
O5 W3 1.969347 1_555
O6 W1 1.969347 1_555
O7 W2 1.969347 1_555
O8 W0 1.959178 1_555
O9 W2 1.959178 1_555
O10 W3 1.959178 1_555
O11 W1 1.959178 1_555
O12 W0 1.960697 1_555
O13 W1 1.960697 1_555
O14 W2 1.960697 1_555
O15 W3 1.960697 1_555
O16 W0 1.969347 1_555
O17 W3 1.969347 1_555
O18 W1 1.969347 1_555
O19 W2 1.969347 1_555
O20 W0 1.959178 1_555
O21 W2 1.959178 1_555
O22 W3 1.959178 1_555
O23 W1 1.959178 1_555
