# generated using pymatgen
data_Tl2V3O8
_symmetry_space_group_name_H-M   'P 1'
_cell_length_a   8.91546939
_cell_length_b   8.91546939
_cell_length_c   5.41849374
_cell_angle_alpha   90.00000000
_cell_angle_beta   90.00000000
_cell_angle_gamma   90.00000000
_symmetry_Int_Tables_number   1
_chemical_formula_structural   Tl2V3O8
_chemical_formula_sum   'Tl4 V6 O16'
_cell_volume   430.69219592
_cell_formula_units_Z   2
loop_
 _symmetry_equiv_pos_site_id
 _symmetry_equiv_pos_as_xyz
  1  'x, y, z'
loop_
 _atom_site_type_symbol
 _atom_site_label
 _atom_site_symmetry_multiplicity
 _atom_site_fract_x
 _atom_site_fract_y
 _atom_site_fract_z
 _atom_site_occupancy
  Tl  Tl0  1  0.17120379  0.67120379  0.76717780  1
  Tl  Tl1  1  0.82879621  0.32879621  0.76717780  1
  Tl  Tl2  1  0.67120379  0.82879621  0.76717780  1
  Tl  Tl3  1  0.32879621  0.17120379  0.76717780  1
  V  V0  1  0.63478766  0.13478766  0.29398385  1
  V  V1  1  0.36521234  0.86521234  0.29398385  1
  V  V2  1  0.13478766  0.36521234  0.29398385  1
  V  V3  1  0.86521234  0.63478766  0.29398385  1
  V  V4  1  -0.00000000  -0.00000000  0.30586905  1
  V  V5  1  0.50000000  0.50000000  0.30586905  1
  O  O0  1  -0.00000000  0.50000000  0.40785004  1
  O  O1  1  0.50000000  -0.00000000  0.40785004  1
  O  O2  1  0.63325664  0.13325664  0.98952604  1
  O  O3  1  0.36674336  0.86674336  0.98952604  1
  O  O4  1  0.13325664  0.36674336  0.98952604  1
  O  O5  1  0.86674336  0.63325664  0.98952604  1
  O  O6  1  0.08643419  0.19138633  0.40861968  1
  O  O7  1  0.91356581  0.80861367  0.40861968  1
  O  O8  1  0.19138633  0.91356581  0.40861968  1
  O  O9  1  0.41356581  0.69138633  0.40861968  1
  O  O10  1  0.80861367  0.08643419  0.40861968  1
  O  O11  1  0.58643419  0.30861367  0.40861968  1
  O  O12  1  0.30861367  0.41356581  0.40861968  1
  O  O13  1  0.69138633  0.58643419  0.40861968  1
  O  O14  1  -0.00000000  -0.00000000  0.00772881  1
  O  O15  1  0.50000000  0.50000000  0.00772881  1
loop_
_geom_bond_atom_site_label_1
_geom_bond_atom_site_label_2
_geom_bond_distance
_geom_bond_site_symmetry_2
O0 V2 1.807985 1_555
O0 V3 1.807985 1_455
O1 V0 1.807985 1_555
O1 V1 1.807985 1_545
O2 V0 1.649816 1_556
O2 Tl1 2.744067 1_555
O3 V1 1.649816 1_556
O3 Tl0 2.744067 1_555
O4 V2 1.649816 1_556
O4 Tl3 2.744067 1_555
O5 V3 1.649816 1_556
O5 Tl2 2.744067 1_555
O6 V2 1.724346 1_555
O6 V4 1.953268 1_555
O7 V3 1.724346 1_555
O7 V4 1.953268 1_665
O8 V1 1.724346 1_555
O8 V4 1.953268 1_565
O9 V1 1.724346 1_555
O9 V5 1.953268 1_555
O10 V0 1.724346 1_555
O10 V4 1.953268 1_655
O11 V0 1.724346 1_555
O11 V5 1.953268 1_555
O12 V2 1.724346 1_555
O12 V5 1.953268 1_555
O13 V3 1.724346 1_555
O13 V5 1.953268 1_555
O14 V4 1.615471 1_555
O15 V5 1.615471 1_555
