# generated using pymatgen
data_Mg9Si5
_symmetry_space_group_name_H-M   'P 1'
_cell_length_a   7.24494200
_cell_length_b   7.31560893
_cell_length_c   12.35068944
_cell_angle_alpha   73.11895898
_cell_angle_beta   81.16341314
_cell_angle_gamma   61.47254657
_symmetry_Int_Tables_number   1
_chemical_formula_structural   Mg9Si5
_chemical_formula_sum   'Mg18 Si10'
_cell_volume   550.25561990
_cell_formula_units_Z   2
loop_
 _symmetry_equiv_pos_site_id
 _symmetry_equiv_pos_as_xyz
  1  'x, y, z'
loop_
 _atom_site_type_symbol
 _atom_site_label
 _atom_site_symmetry_multiplicity
 _atom_site_fract_x
 _atom_site_fract_y
 _atom_site_fract_z
 _atom_site_occupancy
  Mg  Mg0  1  0.21298100  0.83895800  0.35479300  1
  Mg  Mg1  1  0.87692000  0.12665800  0.53673200  1
  Mg  Mg2  1  0.01321500  0.50104700  0.35645400  1
  Mg  Mg3  1  0.39118900  0.37903600  0.53296000  1
  Mg  Mg4  1  0.66466900  0.06807000  0.35753100  1
  Mg  Mg5  1  0.61649500  0.66186200  0.50685600  1
  Mg  Mg6  1  0.39406700  0.20445000  0.82358400  1
  Mg  Mg7  1  0.23104200  0.97850300  0.03649500  1
  Mg  Mg8  1  0.94175300  0.46274500  0.87197800  1
  Mg  Mg9  1  0.02501300  0.70180800  0.01764000  1
  Mg  Mg10  1  0.45059800  0.59325100  0.90320200  1
  Mg  Mg11  1  0.74457000  0.14818700  0.98246700  1
  Mg  Mg12  1  0.03895200  0.32561400  0.65070200  1
  Mg  Mg13  1  0.61327400  0.83981500  0.18652100  1
  Mg  Mg14  1  0.21125200  0.71474800  0.68344300  1
  Mg  Mg15  1  0.90279100  0.32676400  0.15726200  1
  Mg  Mg16  1  0.58006300  0.86301400  0.68765400  1
  Mg  Mg17  1  0.39024800  0.50993000  0.18052400  1
  Si  Si0  1  0.13618900  0.98247900  0.83070300  1
  Si  Si1  1  0.29216900  0.07168100  0.49718200  1
  Si  Si2  1  0.96047900  0.72624100  0.52176500  1
  Si  Si3  1  0.96215800  0.88998900  0.19049500  1
  Si  Si4  1  0.82106800  0.97137400  0.79211000  1
  Si  Si5  1  0.29383500  0.17686500  0.26127000  1
  Si  Si6  1  0.30909500  0.30165400  0.03565900  1
  Si  Si7  1  0.64802100  0.77228800  0.97181200  1
  Si  Si8  1  0.63700600  0.46532000  0.34842200  1
  Si  Si9  1  0.64050300  0.39787700  0.72410600  1
loop_
_geom_bond_atom_site_label_1
_geom_bond_atom_site_label_2
_geom_bond_distance
_geom_bond_site_symmetry_2
Mg0 Si5 2.702784 1_565
Mg0 Si2 2.751992 1_455
Mg0 Si3 2.757566 1_455
Mg0 Si8 2.990839 1_555
Mg0 Si1 3.049943 1_565
Mg1 Si2 2.750945 1_545
Mg1 Si1 2.821002 1_655
Mg1 Si8 2.889769 1_555
Mg1 Si4 3.060810 1_545
Mg2 Si5 2.723841 1_555
Mg2 Si2 2.853271 1_455
Mg2 Si3 2.876566 1_455
Mg2 Si8 2.878486 1_455
Mg2 Si1 2.969310 1_555
Mg3 Si8 2.784945 1_555
Mg3 Si1 2.825026 1_555
Mg3 Si2 2.926787 1_455
Mg4 Si5 2.766673 1_555
Mg4 Si8 2.785519 1_555
Mg4 Si3 2.848047 1_545
Mg4 Si2 2.869068 1_545
Mg4 Si1 2.964297 1_555
Mg5 Si8 2.694242 1_555
Mg5 Si1 2.770087 1_565
Mg5 Si9 2.787907 1_555
Mg5 Si2 2.789078 1_555
Mg6 Si9 2.725627 1_555
Mg6 Si4 2.757884 1_545
Mg6 Si6 2.813083 1_556
Mg6 Si7 2.974790 1_545
Mg6 Si0 2.983228 1_545
Mg7 Si6 2.677598 1_565
Mg7 Si3 2.680119 1_455
Mg7 Si0 2.721727 1_554
Mg7 Si7 2.765105 1_554
Mg8 Si7 2.718360 1_555
Mg8 Si6 3.135615 1_656
Mg8 Si4 3.257090 1_555
Mg9 Si6 2.619652 1_555
Mg9 Si7 2.646977 1_454
Mg9 Si3 2.733070 1_455
Mg9 Si0 2.906959 1_554
Mg9 Si4 3.020267 1_454
Mg10 Si0 2.654997 1_555
Mg10 Si7 2.699200 1_555
Mg10 Si6 2.797264 1_556
Mg10 Si9 2.802030 1_555
Mg11 Si6 2.838009 1_556
Mg11 Si4 2.861604 1_545
Mg11 Si3 2.869826 1_546
Mg11 Si0 3.071387 1_645
Mg11 Si7 3.185039 1_545
Mg12 Si0 2.700174 1_545
Mg12 Si2 2.724874 1_455
Mg12 Si9 2.729705 1_455
Mg12 Si1 2.851912 1_555
Mg13 Si3 2.731461 1_555
Mg13 Si5 2.739196 1_565
Mg13 Si7 2.788620 1_554
Mg13 Si8 2.829801 1_555
Mg13 Si6 3.199539 1_565
Mg14 Si2 2.857712 1_455
Mg14 Si0 2.861364 1_555
Mg14 Si9 2.866219 1_555
Mg14 Si4 2.923276 1_455
Mg14 Si1 3.164362 1_565
Mg15 Si5 2.865590 1_655
Mg15 Si8 2.904868 1_555
Mg15 Si3 2.922859 1_545
Mg15 Si6 3.039723 1_655
Mg15 Si7 3.239302 1_554
Mg16 Si4 2.819508 1_555
Mg16 Si1 2.931807 1_565
Mg16 Si2 3.101071 1_555
Mg16 Si9 3.117830 1_555
Mg17 Si5 2.723921 1_555
Mg17 Si8 2.791284 1_555
Mg17 Si6 2.937776 1_555
Mg17 Si3 3.034753 1_455
Si0 Si4 2.445407 1_455
Si1 Si5 2.788856 1_555
Si4 Si9 2.658742 1_565
Si4 Si7 2.762389 1_555
Si5 Si6 2.671019 1_555
