# generated using pymatgen
data_GaPt3
_symmetry_space_group_name_H-M   'P 1'
_cell_length_a   5.58585000
_cell_length_b   5.58585000
_cell_length_c   3.93755000
_cell_angle_alpha   90.00000000
_cell_angle_beta   90.00000000
_cell_angle_gamma   90.00000000
_symmetry_Int_Tables_number   1
_chemical_formula_structural   GaPt3
_chemical_formula_sum   'Ga2 Pt6'
_cell_volume   122.85833346
_cell_formula_units_Z   2
loop_
 _symmetry_equiv_pos_site_id
 _symmetry_equiv_pos_as_xyz
  1  'x, y, z'
loop_
 _atom_site_type_symbol
 _atom_site_label
 _atom_site_symmetry_multiplicity
 _atom_site_fract_x
 _atom_site_fract_y
 _atom_site_fract_z
 _atom_site_occupancy
  Ga  Ga0  1  0.00000000  0.50000000  0.50000000  1
  Ga  Ga1  1  0.50000000  0.00000000  0.50000000  1
  Pt  Pt0  1  0.76254900  0.26254900  0.00000000  1
  Pt  Pt1  1  0.23745100  0.73745100  0.00000000  1
  Pt  Pt2  1  0.26254900  0.23745100  0.00000000  1
  Pt  Pt3  1  0.73745100  0.76254900  0.00000000  1
  Pt  Pt4  1  0.50000000  0.50000000  0.50000000  1
  Pt  Pt5  1  0.00000000  0.00000000  0.50000000  1
loop_
_geom_bond_atom_site_label_1
_geom_bond_atom_site_label_2
_geom_bond_distance
_geom_bond_site_symmetry_2
Ga0 Pt1 2.719295 1_555
Ga0 Pt1 2.719295 1_556
Ga0 Pt0 2.719295 1_455
Ga0 Pt0 2.719295 1_456
Ga0 Pt5 2.792925 1_565
Ga0 Pt4 2.792925 1_555
Ga0 Pt5 2.792925 1_555
Ga0 Pt4 2.792925 1_455
Ga0 Pt3 2.859662 1_455
Ga0 Pt3 2.859662 1_456
Ga0 Pt2 2.859662 1_555
Ga0 Pt2 2.859662 1_556
Ga1 Pt2 2.719295 1_555
Ga1 Pt2 2.719295 1_556
Ga1 Pt3 2.719295 1_545
Ga1 Pt3 2.719295 1_546
Ga1 Pt4 2.792925 1_555
Ga1 Pt4 2.792925 1_545
Ga1 Pt5 2.792925 1_555
Ga1 Pt5 2.792925 1_655
Ga1 Pt0 2.859662 1_556
Ga1 Pt0 2.859662 1_555
Ga1 Pt1 2.859662 1_546
Ga1 Pt1 2.859662 1_545
Pt0 Pt4 2.790361 1_554
Pt0 Pt4 2.790361 1_555
Pt0 Pt5 2.790361 1_654
Pt0 Pt5 2.790361 1_655
Pt0 Pt3 2.796441 1_555
Pt0 Pt2 2.796441 1_555
Pt0 Pt3 2.796441 1_545
Pt0 Pt2 2.796441 1_655
Pt1 Pt4 2.790361 1_555
Pt1 Pt5 2.790361 1_565
Pt1 Pt5 2.790361 1_564
Pt1 Pt4 2.790361 1_554
Pt1 Pt3 2.796441 1_555
Pt1 Pt3 2.796441 1_455
Pt1 Pt2 2.796441 1_555
Pt1 Pt2 2.796441 1_565
Pt2 Pt4 2.790361 1_555
Pt2 Pt5 2.790361 1_555
Pt2 Pt5 2.790361 1_554
Pt2 Pt4 2.790361 1_554
Pt3 Pt4 2.790361 1_554
Pt3 Pt4 2.790361 1_555
Pt3 Pt5 2.790361 1_664
Pt3 Pt5 2.790361 1_665
