# generated using pymatgen
data_Fe(NiO2)2
_symmetry_space_group_name_H-M   'P 1'
_cell_length_a   5.87566996
_cell_length_b   5.92567277
_cell_length_c   5.93156099
_cell_angle_alpha   120.03303058
_cell_angle_beta   90.00050193
_cell_angle_gamma   119.72091638
_symmetry_Int_Tables_number   1
_chemical_formula_structural   Fe(NiO2)2
_chemical_formula_sum   'Fe2 Ni4 O8'
_cell_volume   146.57205440
_cell_formula_units_Z   2
loop_
 _symmetry_equiv_pos_site_id
 _symmetry_equiv_pos_as_xyz
  1  'x, y, z'
loop_
 _atom_site_type_symbol
 _atom_site_label
 _atom_site_symmetry_multiplicity
 _atom_site_fract_x
 _atom_site_fract_y
 _atom_site_fract_z
 _atom_site_occupancy
  Fe  Fe0  1  0.37046300  0.24092500  0.12046400  1
  Fe  Fe1  1  0.62953700  0.75907500  0.87953500  1
  Ni  Ni0  1  0.00000000  0.00000000  0.50000000  1
  Ni  Ni1  1  0.50000000  0.00000000  0.50000000  1
  Ni  Ni2  1  0.00000000  0.50000000  0.50000000  1
  Ni  Ni3  1  0.00000000  0.50000000  0.00000000  1
  O  O0  1  0.75772800  0.01545000  0.26952500  1
  O  O1  1  0.23834100  0.50779200  0.25389600  1
  O  O2  1  0.24227100  0.98455000  0.73047500  1
  O  O3  1  0.76945300  0.50778800  0.25389500  1
  O  O4  1  0.24226900  0.98453200  0.25406300  1
  O  O5  1  0.76165900  0.49220800  0.74610400  1
  O  O6  1  0.75773200  0.01546800  0.74593800  1
  O  O7  1  0.23054700  0.49221200  0.74610600  1
loop_
_geom_bond_atom_site_label_1
_geom_bond_atom_site_label_2
_geom_bond_distance
_geom_bond_site_symmetry_2
Fe0 O2 1.890493 1_544
Fe0 O4 1.890523 1_545
Fe0 O1 1.922031 1_555
Fe0 O3 1.922037 1_555
Fe1 O0 1.890497 1_566
Fe1 O6 1.890513 1_565
Fe1 O5 1.922031 1_555
Fe1 O7 1.922037 1_555
Ni0 O2 2.039146 1_545
Ni0 O0 2.039150 1_455
Ni0 O6 2.039207 1_455
Ni0 O4 2.039207 1_545
Ni0 O7 2.072049 1_555
Ni0 O3 2.072049 1_445
Ni1 O4 2.039164 1_545
Ni1 O6 2.039173 1_555
Ni1 O0 2.039194 1_555
Ni1 O2 2.039198 1_545
Ni1 O5 2.072032 1_555
Ni1 O1 2.072032 1_545
Ni2 O3 2.024224 1_455
Ni2 O7 2.024229 1_555
Ni2 O1 2.024263 1_555
Ni2 O5 2.024263 1_455
Ni2 O0 2.039011 1_455
Ni2 O2 2.039011 1_555
Ni3 O1 2.024245 1_555
Ni3 O5 2.024245 1_454
Ni3 O7 2.024246 1_554
Ni3 O3 2.024250 1_455
Ni3 O6 2.038933 1_454
Ni3 O4 2.038933 1_555
