# generated using pymatgen
data_La4Sm4Ni7AgO20
_symmetry_space_group_name_H-M   'P 1'
_cell_length_a   11.01940259
_cell_length_b   11.48705544
_cell_length_c   17.51542152
_cell_angle_alpha   109.62866603
_cell_angle_beta   108.33819308
_cell_angle_gamma   89.80559260
_symmetry_Int_Tables_number   1
_chemical_formula_structural   La4Sm4Ni7AgO20
_chemical_formula_sum   'La16 Sm16 Ni28 Ag4 O80'
_cell_volume   1969.20424969
_cell_formula_units_Z   4
loop_
 _symmetry_equiv_pos_site_id
 _symmetry_equiv_pos_as_xyz
  1  'x, y, z'
loop_
 _atom_site_type_symbol
 _atom_site_label
 _atom_site_symmetry_multiplicity
 _atom_site_fract_x
 _atom_site_fract_y
 _atom_site_fract_z
 _atom_site_occupancy
  La  La0  1  0.30610200  0.06090900  0.60785900  1
  La  La1  1  0.30976000  0.56432900  0.61044200  1
  La  La2  1  0.80272100  0.06243000  0.60896700  1
  La  La3  1  0.80466600  0.56307700  0.61125500  1
  La  La4  1  0.19622900  0.43643200  0.38862700  1
  La  La5  1  0.19258600  0.43892300  0.88724100  1
  La  La6  1  0.69354200  0.43618800  0.38819600  1
  La  La7  1  0.69258600  0.93694100  0.38846400  1
  La  La8  1  0.05388700  0.29658400  0.60906200  1
  La  La9  1  0.05304200  0.79923200  0.61053300  1
  La  La10  1  0.55717600  0.29788200  0.60940500  1
  La  La11  1  0.44299500  0.20009100  0.38768800  1
  La  La12  1  0.44032000  0.20403200  0.88947100  1
  La  La13  1  0.94650000  0.20039300  0.38825600  1
  La  La14  1  0.94255100  0.19855100  0.88579400  1
  La  La15  1  0.94690800  0.70474200  0.38981100  1
  Sm  Sm0  1  0.29851600  0.06799000  0.11394800  1
  Sm  Sm1  1  0.31019600  0.56466500  0.11654600  1
  Sm  Sm2  1  0.79517000  0.07012800  0.11250700  1
  Sm  Sm3  1  0.79797100  0.55703100  0.11736300  1
  Sm  Sm4  1  0.19277900  0.93473400  0.38980200  1
  Sm  Sm5  1  0.18906100  0.93489900  0.88705000  1
  Sm  Sm6  1  0.67817700  0.43426100  0.88567700  1
  Sm  Sm7  1  0.68155400  0.93464400  0.87895800  1
  Sm  Sm8  1  0.05447800  0.30001400  0.11493500  1
  Sm  Sm9  1  0.06092900  0.79668500  0.11884100  1
  Sm  Sm10  1  0.55435500  0.30143000  0.11207800  1
  Sm  Sm11  1  0.53884000  0.79506700  0.11318400  1
  Sm  Sm12  1  0.55370700  0.79245100  0.60573700  1
  Sm  Sm13  1  0.44101900  0.70672800  0.39141400  1
  Sm  Sm14  1  0.43228900  0.69773000  0.88725300  1
  Sm  Sm15  1  0.94328300  0.70618300  0.88592700  1
  Ni  Ni0  1  0.00390600  0.99962800  0.49898800  1
  Ni  Ni1  1  0.00422800  0.49993900  0.49981700  1
  Ni  Ni2  1  0.50263900  0.99811300  0.49833400  1
  Ni  Ni3  1  0.50173000  0.49997300  0.00137800  1
  Ni  Ni4  1  0.50254400  0.49978500  0.49768900  1
  Ni  Ni5  1  0.25573600  0.25446700  0.00255100  1
  Ni  Ni6  1  0.25380200  0.24880600  0.49923000  1
  Ni  Ni7  1  0.25257400  0.75041600  0.00370400  1
  Ni  Ni8  1  0.25457300  0.74947400  0.49931900  1
  Ni  Ni9  1  0.75185300  0.25215200  0.99996700  1
  Ni  Ni10  1  0.75238000  0.25005300  0.49864600  1
  Ni  Ni11  1  0.75151000  0.74863600  0.49770400  1
  Ni  Ni12  1  0.10757300  0.09713800  0.25087500  1
  Ni  Ni13  1  0.10963600  0.09702700  0.75157600  1
  Ni  Ni14  1  0.11046300  0.60091800  0.24996900  1
  Ni  Ni15  1  0.11016200  0.60152100  0.75097700  1
  Ni  Ni16  1  0.60911800  0.09569700  0.24950400  1
  Ni  Ni17  1  0.60635400  0.09802100  0.74927300  1
  Ni  Ni18  1  0.60773200  0.60008600  0.25012000  1
  Ni  Ni19  1  0.61021100  0.60364600  0.75140000  1
  Ni  Ni20  1  0.35798500  0.40124700  0.24733200  1
  Ni  Ni21  1  0.35921900  0.40304500  0.74851200  1
  Ni  Ni22  1  0.35583100  0.90005000  0.25036600  1
  Ni  Ni23  1  0.36246900  0.89946100  0.74857200  1
  Ni  Ni24  1  0.85746200  0.39784000  0.24859400  1
  Ni  Ni25  1  0.85550500  0.40349900  0.74992900  1
  Ni  Ni26  1  0.85928300  0.89843600  0.24648800  1
  Ni  Ni27  1  0.85520000  0.89671900  0.74744000  1
  Ag  Ag0  1  0.99794600  0.00204000  0.00310900  1
  Ag  Ag1  1  0.00152500  0.50065800  0.00161500  1
  Ag  Ag2  1  0.49678900  0.00229200  0.00332500  1
  Ag  Ag3  1  0.74728700  0.74635900  0.00351600  1
  O  O0  1  0.11903800  0.11617100  0.48183200  1
  O  O1  1  0.11707400  0.12479700  0.97917300  1
  O  O2  1  0.11804800  0.61835300  0.48211300  1
  O  O3  1  0.10948000  0.62407400  0.97248000  1
  O  O4  1  0.61489200  0.11859300  0.48104400  1
  O  O5  1  0.61542000  0.12408200  0.98038300  1
  O  O6  1  0.61041400  0.62019500  0.47706600  1
  O  O7  1  0.59666300  0.60630000  0.96420100  1
  O  O8  1  0.14919700  0.38647000  0.03975100  1
  O  O9  1  0.13672700  0.38246400  0.52038000  1
  O  O10  1  0.14001700  0.88165300  0.03127200  1
  O  O11  1  0.13554100  0.88095700  0.51703600  1
  O  O12  1  0.63505500  0.38368500  0.02299200  1
  O  O13  1  0.63563100  0.38407400  0.51716900  1
  O  O14  1  0.63615200  0.88698800  0.04157400  1
  O  O15  1  0.63152000  0.87790700  0.51711700  1
  O  O16  1  0.36170100  0.10591900  0.47740400  1
  O  O17  1  0.34904800  0.10943800  0.96844900  1
  O  O18  1  0.36844800  0.61437500  0.47847300  1
  O  O19  1  0.36782500  0.61637600  0.98540600  1
  O  O20  1  0.86743700  0.11313600  0.48165900  1
  O  O21  1  0.84622700  0.10541900  0.96754800  1
  O  O22  1  0.86642700  0.61217800  0.48058800  1
  O  O23  1  0.84794100  0.59600200  0.95626800  1
  O  O24  1  0.38809600  0.39156100  0.02470300  1
  O  O25  1  0.38532100  0.38584200  0.51663800  1
  O  O26  1  0.37898500  0.88992100  0.02998200  1
  O  O27  1  0.38846300  0.88279500  0.51701600  1
  O  O28  1  0.88390000  0.39157000  0.03166800  1
  O  O29  1  0.88582800  0.38717500  0.51821900  1
  O  O30  1  0.88717700  0.89319900  0.03702200  1
  O  O31  1  0.88476800  0.88620600  0.51674600  1
  O  O32  1  0.13123400  0.14073400  0.15963500  1
  O  O33  1  0.08433600  0.10734900  0.63861700  1
  O  O34  1  0.14069500  0.63775400  0.15914800  1
  O  O35  1  0.08243700  0.61252700  0.63851900  1
  O  O36  1  0.62922100  0.14428600  0.15977600  1
  O  O37  1  0.58421400  0.10879300  0.63705300  1
  O  O38  1  0.59676000  0.61339700  0.13838000  1
  O  O39  1  0.57718700  0.60955000  0.63527500  1
  O  O40  1  0.44143800  0.38807200  0.36008300  1
  O  O41  1  0.44747000  0.38945000  0.86047100  1
  O  O42  1  0.44704200  0.88906700  0.36206000  1
  O  O43  1  0.47118500  0.86156800  0.84684100  1
  O  O44  1  0.94436900  0.39006500  0.36184100  1
  O  O45  1  0.96659700  0.36413300  0.84403600  1
  O  O46  1  0.95498600  0.89393200  0.36149500  1
  O  O47  1  0.97760600  0.87001500  0.84324900  1
  O  O48  1  0.36074600  0.27472800  0.13948700  1
  O  O49  1  0.33758100  0.27924100  0.63664100  1
  O  O50  1  0.34725100  0.77611000  0.14054500  1
  O  O51  1  0.34079000  0.77980300  0.63447000  1
  O  O52  1  0.85279800  0.27597500  0.13776100  1
  O  O53  1  0.82484300  0.28057100  0.63469400  1
  O  O54  1  0.88399000  0.75657000  0.15633300  1
  O  O55  1  0.82376300  0.77615600  0.63246100  1
  O  O56  1  0.19052400  0.22152000  0.36504700  1
  O  O57  1  0.20006300  0.22479200  0.86290400  1
  O  O58  1  0.20162900  0.72433600  0.36355200  1
  O  O59  1  0.21466800  0.72411600  0.86333900  1
  O  O60  1  0.69289000  0.21981600  0.36412400  1
  O  O61  1  0.69616600  0.22669200  0.86160300  1
  O  O62  1  0.70000100  0.72172000  0.36166300  1
  O  O63  1  0.73028500  0.73763800  0.84271500  1
  O  O64  1  0.42424100  0.06079300  0.24564800  1
  O  O65  1  0.42538300  0.06528100  0.74980800  1
  O  O66  1  0.42783200  0.56927200  0.25299500  1
  O  O67  1  0.42781200  0.56825800  0.75354100  1
  O  O68  1  0.92150100  0.06364500  0.24482600  1
  O  O69  1  0.92556500  0.05912300  0.74746900  1
  O  O70  1  0.92523400  0.56046000  0.24891500  1
  O  O71  1  0.92988200  0.56669500  0.75313900  1
  O  O72  1  0.17472500  0.43512300  0.24736500  1
  O  O73  1  0.17897600  0.43785000  0.74873800  1
  O  O74  1  0.17510200  0.93481100  0.25386200  1
  O  O75  1  0.18289300  0.93452200  0.75394500  1
  O  O76  1  0.67455600  0.43582700  0.24531200  1
  O  O77  1  0.67199900  0.43645500  0.75280500  1
  O  O78  1  0.67333700  0.92857500  0.24704300  1
  O  O79  1  0.67062000  0.93244200  0.74528500  1
loop_
_geom_bond_atom_site_label_1
_geom_bond_atom_site_label_2
_geom_bond_distance
_geom_bond_site_symmetry_2
La0 O49 2.389751 1_555
La0 O65 2.402503 1_555
La0 O27 2.500095 1_545
La0 O11 2.504351 1_545
La0 O33 2.678269 1_555
La0 O16 2.746010 1_555
La0 O0 2.755735 1_555
La0 O37 2.965191 1_555
La1 O51 2.373983 1_555
La1 O67 2.418517 1_555
La1 O25 2.486465 1_555
La1 O9 2.531527 1_555
La1 O35 2.721406 1_555
La1 O2 2.800106 1_555
La1 O18 2.815608 1_555
La1 O39 2.862724 1_555
La2 O69 2.390424 1_555
La2 O53 2.391214 1_555
La2 O31 2.496811 1_545
La2 O15 2.542902 1_545
La2 O37 2.623708 1_555
La2 O20 2.774185 1_555
La2 O4 2.786478 1_555
La2 O33 2.997116 1_655
La3 O55 2.348776 1_555
La3 O71 2.419685 1_555
La3 O29 2.496156 1_555
La3 O13 2.496232 1_555
La3 O39 2.692413 1_555
La3 O22 2.805244 1_555
La3 O6 2.897828 1_555
La3 O35 2.971434 1_655
La4 O56 2.359817 1_555
La4 O72 2.405089 1_555
La4 O18 2.498405 1_555
La4 O2 2.523278 1_555
La4 O44 2.688707 1_455
La4 O25 2.762989 1_555
La4 O9 2.838273 1_555
La4 O40 2.917697 1_555
La5 O57 2.356920 1_555
La5 O73 2.378825 1_555
La5 O45 2.429828 1_455
La5 O3 2.510958 1_555
La5 O19 2.534381 1_555
La5 O24 2.888350 1_556
La6 O60 2.376883 1_555
La6 O76 2.443506 1_555
La6 O22 2.494656 1_555
La6 O6 2.530496 1_555
La6 O40 2.689281 1_555
La6 O13 2.772546 1_555
La6 O29 2.794653 1_555
La6 O44 2.960051 1_555
La7 O62 2.362656 1_555
La7 O78 2.387381 1_555
La7 O20 2.510199 1_565
La7 O4 2.510927 1_565
La7 O42 2.624728 1_555
La7 O31 2.783928 1_555
La7 O15 2.823904 1_555
La7 O46 3.085600 1_555
La8 O73 2.396772 1_555
La8 O33 2.397401 1_555
La8 O9 2.479331 1_555
La8 O29 2.507868 1_455
La8 O53 2.716112 1_455
La8 O20 2.761634 1_455
La8 O0 2.769528 1_555
La8 O49 3.025883 1_555
La9 O35 2.355119 1_555
La9 O75 2.429617 1_555
La9 O31 2.511644 1_455
La9 O11 2.522914 1_555
La9 O55 2.699005 1_455
La9 O2 2.784526 1_555
La9 O22 2.797346 1_455
La9 O51 3.082396 1_555
La10 O37 2.377542 1_555
La10 O77 2.402335 1_555
La10 O13 2.509387 1_555
La10 O25 2.530038 1_555
La10 O49 2.631999 1_555
La10 O4 2.735117 1_555
La10 O53 2.858070 1_555
La10 O16 2.884611 1_555
La11 O40 2.364920 1_555
La11 O64 2.407665 1_555
La11 O4 2.491109 1_555
La11 O16 2.544887 1_555
La11 O56 2.706385 1_555
La11 O25 2.777459 1_555
La11 O13 2.810144 1_555
La11 O60 2.930316 1_555
La12 O41 2.356671 1_555
La12 O65 2.383383 1_555
La12 O17 2.449215 1_555
La12 O5 2.477733 1_555
La12 O57 2.564694 1_555
La12 O12 2.821804 1_556
La12 O24 2.829013 1_556
La12 O61 3.034894 1_555
La13 O44 2.373128 1_555
La13 O68 2.402267 1_555
La13 O0 2.515784 1_655
La13 O20 2.538635 1_555
La13 O60 2.711869 1_555
La13 O9 2.801648 1_655
La13 O29 2.810488 1_555
La13 O56 2.865907 1_655
La14 O45 2.298475 1_555
La14 O69 2.362180 1_555
La14 O1 2.456009 1_655
La14 O21 2.512961 1_555
La14 O61 2.649060 1_555
La15 O46 2.393764 1_555
La15 O70 2.403763 1_555
La15 O2 2.510308 1_655
La15 O22 2.544547 1_555
La15 O62 2.626900 1_555
La15 O11 2.732609 1_655
La15 O31 2.755313 1_555
La15 O58 3.004485 1_655
Ni0 O0 2.003438 1_565
Ni0 O20 2.004747 1_465
Ni0 O11 2.012415 1_555
Ni0 O31 2.014596 1_455
Ni0 O46 2.188032 1_455
Ni0 O33 2.215456 1_565
Ni1 O22 2.009516 1_455
Ni1 O29 2.010120 1_455
Ni1 O2 2.014736 1_555
Ni1 O9 2.016123 1_555
Ni1 O44 2.195869 1_455
Ni1 O35 2.212832 1_555
Ni2 O27 2.001585 1_555
Ni2 O16 2.003405 1_565
Ni2 O15 2.007415 1_555
Ni2 O4 2.016446 1_565
Ni2 O42 2.172089 1_555
Ni2 O37 2.210432 1_565
Ni3 O24 1.989983 1_555
Ni3 O7 1.995442 1_554
Ni3 O19 2.005395 1_554
Ni3 O12 2.015587 1_555
Ni3 O38 2.209063 1_555
Ni3 O41 2.243216 1_554
Ni4 O18 2.000226 1_555
Ni4 O13 2.002616 1_555
Ni4 O25 2.016175 1_555
Ni4 O6 2.018299 1_555
Ni4 O39 2.189102 1_555
Ni4 O40 2.194538 1_555
Ni5 O17 1.973771 1_554
Ni5 O8 1.976749 1_555
Ni5 O1 1.983186 1_554
Ni5 O24 2.001708 1_555
Ni5 O57 2.229882 1_554
Ni5 O48 2.241937 1_555
Ni6 O0 2.009508 1_555
Ni6 O9 2.015938 1_555
Ni6 O25 2.021435 1_555
Ni6 O16 2.026097 1_555
Ni6 O56 2.140926 1_555
Ni6 O49 2.192250 1_555
Ni7 O3 1.957378 1_554
Ni7 O26 1.958673 1_555
Ni7 O10 1.979717 1_555
Ni7 O19 1.999419 1_554
Ni7 O50 2.207638 1_555
Ni7 O59 2.272853 1_554
Ni8 O18 2.002670 1_555
Ni8 O11 2.006418 1_555
Ni8 O27 2.006706 1_555
Ni8 O2 2.011928 1_555
Ni8 O51 2.158871 1_555
Ni8 O58 2.178420 1_555
Ni9 O5 1.973232 1_555
Ni9 O28 1.974932 1_556
Ni9 O21 1.990376 1_555
Ni9 O12 2.001515 1_556
Ni9 O61 2.219164 1_555
Ni9 O52 2.237473 1_556
Ni10 O13 2.010987 1_555
Ni10 O20 2.019668 1_555
Ni10 O4 2.019794 1_555
Ni10 O29 2.024024 1_555
Ni10 O60 2.140531 1_555
Ni10 O53 2.163846 1_555
Ni11 O15 1.999822 1_555
Ni11 O6 2.007106 1_555
Ni11 O22 2.014991 1_555
Ni11 O31 2.029343 1_555
Ni11 O55 2.150085 1_555
Ni11 O62 2.179620 1_555
Ni12 O32 1.916633 1_555
Ni12 O56 1.953213 1_555
Ni12 O74 2.016197 1_545
Ni12 O68 2.050528 1_455
Ni13 O57 1.952889 1_555
Ni13 O33 1.953621 1_555
Ni13 O75 2.039287 1_545
Ni13 O69 2.049903 1_455
Ni14 O34 1.899269 1_555
Ni14 O58 1.958103 1_555
Ni14 O72 2.020754 1_555
Ni14 O70 2.087925 1_455
Ni15 O35 1.943607 1_555
Ni15 O59 1.976223 1_555
Ni15 O73 2.017625 1_555
Ni15 O71 2.042271 1_455
Ni16 O36 1.907839 1_555
Ni16 O60 1.958355 1_555
Ni16 O78 2.035292 1_545
Ni16 O64 2.053390 1_555
Ni17 O37 1.949304 1_555
Ni17 O61 1.966228 1_555
Ni17 O79 2.014144 1_545
Ni17 O65 2.034096 1_555
Ni18 O62 1.930986 1_555
Ni18 O38 1.980039 1_555
Ni18 O76 2.008075 1_555
Ni18 O66 2.034023 1_555
Ni19 O63 1.925131 1_555
Ni19 O39 1.975056 1_555
Ni19 O77 2.040825 1_555
Ni19 O67 2.066320 1_555
Ni20 O40 1.955966 1_555
Ni20 O48 1.967917 1_555
Ni20 O66 2.039850 1_555
Ni20 O72 2.055412 1_555
Ni21 O49 1.937775 1_555
Ni21 O41 1.954576 1_555
Ni21 O67 2.009051 1_555
Ni21 O73 2.025643 1_555
Ni22 O42 1.944518 1_555
Ni22 O50 1.944873 1_555
Ni22 O64 2.033639 1_565
Ni22 O74 2.045551 1_555
Ni23 O43 1.946676 1_555
Ni23 O51 1.948530 1_555
Ni23 O65 2.020176 1_565
Ni23 O75 2.042817 1_555
Ni24 O44 1.944933 1_555
Ni24 O52 1.960307 1_555
Ni24 O70 2.011725 1_555
Ni24 O76 2.047924 1_555
Ni25 O45 1.909802 1_555
Ni25 O53 1.959921 1_555
Ni25 O71 2.024793 1_555
Ni25 O77 2.069043 1_555
Ni26 O54 1.939584 1_555
Ni26 O46 1.976239 1_555
Ni26 O68 2.032466 1_565
Ni26 O78 2.079392 1_555
Ni27 O47 1.910055 1_555
Ni27 O55 1.945310 1_555
Ni27 O69 2.022474 1_565
Ni27 O79 2.064763 1_555
Ag0 O30 2.090793 1_545
Ag0 O21 2.102727 1_554
Ag0 O10 2.136423 1_645
Ag0 O1 2.154877 1_654
Ag0 O32 2.599890 1_655
Ag0 O47 2.635295 1_544
Ag1 O28 2.100210 1_455
Ag1 O23 2.102526 1_454
Ag1 O3 2.136562 1_554
Ag1 O8 2.169068 1_555
Ag1 O45 2.579359 1_454
Ag1 O34 2.622922 1_555
Ag2 O26 2.089742 1_545
Ag2 O17 2.098616 1_554
Ag2 O14 2.120487 1_545
Ag2 O5 2.132659 1_554
Ag2 O43 2.597095 1_544
Ag2 O36 2.606952 1_555
Ag3 O14 2.080975 1_555
Ag3 O30 2.085456 1_555
Ag3 O7 2.090960 1_554
Ag3 O23 2.121896 1_554
Ag3 O54 2.588536 1_555
Ag3 O63 2.730626 1_554
O0 Sm4 2.481542 1_545
O1 Sm5 2.533803 1_545
O1 Sm8 2.826403 1_556
O1 Sm0 2.837621 1_556
O3 Sm15 2.396619 1_455
O5 Sm7 2.574694 1_545
O5 Sm2 2.780989 1_556
O5 Sm10 2.781025 1_556
O6 Sm13 2.439306 1_555
O6 Sm12 2.695694 1_555
O7 Sm6 2.354395 1_555
O7 Sm14 2.366923 1_555
O7 Sm11 3.025337 1_556
O8 Sm8 2.358064 1_555
O8 Sm1 2.412452 1_555
O10 Sm9 2.432572 1_555
O10 Sm0 2.465863 1_565
O10 Sm15 2.890135 1_454
O10 Sm5 2.991111 1_554
O11 Sm4 2.749168 1_555
O12 Sm3 2.421944 1_555
O12 Sm10 2.446984 1_555
O12 Sm6 2.829800 1_554
O14 Sm11 2.362588 1_555
O14 Sm2 2.436985 1_565
O15 Sm12 2.444408 1_555
O15 Sm13 2.707736 1_555
O16 Sm4 2.426210 1_545
O17 Sm5 2.383781 1_545
O17 Sm0 2.956591 1_556
O18 Sm13 2.439282 1_555
O18 Sm12 2.724356 1_555
O19 Sm14 2.487149 1_555
O19 Sm11 2.656966 1_556
O19 Sm1 2.805227 1_556
O21 Sm7 2.399187 1_545
O21 Sm2 2.918809 1_556
O23 Sm6 2.346261 1_555
O23 Sm15 2.468764 1_555
O24 Sm1 2.446817 1_555
O24 Sm10 2.461288 1_555
O26 Sm11 2.419163 1_555
O26 Sm0 2.433195 1_565
O26 Sm5 2.911920 1_554
O27 Sm12 2.469338 1_555
O27 Sm13 2.658983 1_555
O27 Sm4 2.798506 1_555
O28 Sm3 2.393217 1_555
O28 Sm8 2.461384 1_655
O28 Sm6 3.017542 1_554
O30 Sm2 2.435323 1_565
O30 Sm9 2.505036 1_655
O32 Sm0 2.281457 1_555
O32 Sm8 2.282818 1_555
O34 Sm9 2.251352 1_555
O34 Sm1 2.279437 1_555
O36 Sm10 2.281761 1_555
O36 Sm2 2.285479 1_555
O38 Sm11 2.321539 1_555
O38 Sm3 2.411338 1_555
O39 Sm12 2.321887 1_555
O41 Sm6 2.464319 1_555
O42 Sm13 2.324171 1_555
O42 Sm4 3.006158 1_555
O43 Sm7 2.295701 1_555
O43 Sm14 2.306101 1_555
O46 Sm4 2.523165 1_655
O47 Sm5 2.253052 1_655
O47 Sm15 2.317640 1_555
O48 Sm0 2.326882 1_555
O48 Sm10 2.371510 1_555
O50 Sm11 2.333266 1_555
O50 Sm1 2.335737 1_555
O51 Sm12 2.563899 1_555
O52 Sm2 2.306701 1_555
O52 Sm8 2.410928 1_655
O54 Sm3 2.274789 1_555
O54 Sm9 2.336715 1_655
O55 Sm12 2.878963 1_555
O58 Sm4 2.311306 1_555
O58 Sm13 2.547626 1_555
O59 Sm14 2.338008 1_555
O59 Sm5 2.346954 1_555
O61 Sm6 2.296991 1_555
O62 Sm13 3.073262 1_555
O63 Sm7 2.248040 1_555
O63 Sm15 2.296188 1_555
O64 Sm0 2.315989 1_555
O66 Sm1 2.315404 1_555
O66 Sm13 2.366480 1_555
O67 Sm14 2.299360 1_555
O68 Sm2 2.323772 1_555
O70 Sm3 2.276742 1_555
O71 Sm15 2.297918 1_555
O72 Sm8 2.281702 1_555
O74 Sm9 2.305127 1_555
O74 Sm4 2.327421 1_555
O75 Sm5 2.309443 1_555
O76 Sm10 2.287377 1_555
O77 Sm6 2.315456 1_555
O78 Sm11 2.336398 1_555
O79 Sm7 2.297770 1_555
O79 Sm12 2.368937 1_555
