# generated using pymatgen
data_WO3
_symmetry_space_group_name_H-M   'P 1'
_cell_length_a   7.45717977
_cell_length_b   7.45717977
_cell_length_c   7.53554336
_cell_angle_alpha   90.00000000
_cell_angle_beta   90.00000000
_cell_angle_gamma   120.00000013
_symmetry_Int_Tables_number   1
_chemical_formula_structural   WO3
_chemical_formula_sum   'W6 O18'
_cell_volume   362.90623545
_cell_formula_units_Z   6
loop_
 _symmetry_equiv_pos_site_id
 _symmetry_equiv_pos_as_xyz
  1  'x, y, z'
loop_
 _atom_site_type_symbol
 _atom_site_label
 _atom_site_symmetry_multiplicity
 _atom_site_fract_x
 _atom_site_fract_y
 _atom_site_fract_z
 _atom_site_occupancy
  W  W0  1  0.53305594  0.53305594  0.75000000  1
  W  W1  1  0.46694406  0.00000000  0.75000000  1
  W  W2  1  0.00000000  0.46694406  0.75000000  1
  W  W3  1  0.46694406  0.46694406  0.25000000  1
  W  W4  1  0.53305594  -0.00000000  0.25000000  1
  W  W5  1  -0.00000000  0.53305594  0.25000000  1
  O  O0  1  0.57589988  0.79242237  0.75000000  1
  O  O1  1  0.20757763  0.78347650  0.75000000  1
  O  O2  1  0.21652350  0.42410012  0.75000000  1
  O  O3  1  0.79242237  0.57589988  0.75000000  1
  O  O4  1  0.78347650  0.20757763  0.75000000  1
  O  O5  1  0.42410012  0.21652350  0.75000000  1
  O  O6  1  0.42410012  0.20757763  0.25000000  1
  O  O7  1  0.79242237  0.21652350  0.25000000  1
  O  O8  1  0.78347650  0.57589988  0.25000000  1
  O  O9  1  0.20757763  0.42410012  0.25000000  1
  O  O10  1  0.21652350  0.79242237  0.25000000  1
  O  O11  1  0.57589988  0.78347650  0.25000000  1
  O  O12  1  0.50000000  0.50000000  -0.00000000  1
  O  O13  1  0.50000000  0.00000000  -0.00000000  1
  O  O14  1  -0.00000000  0.50000000  -0.00000000  1
  O  O15  1  0.50000000  0.50000000  0.50000000  1
  O  O16  1  0.50000000  0.00000000  0.50000000  1
  O  O17  1  -0.00000000  0.50000000  0.50000000  1
loop_
_geom_bond_atom_site_label_1
_geom_bond_atom_site_label_2
_geom_bond_distance
_geom_bond_site_symmetry_2
O0 W0 1.795838 1_555
O0 W1 2.077017 1_565
O1 W1 1.795841 1_565
O1 W2 2.077011 1_555
O2 W2 1.795845 1_555
O2 W0 2.077010 1_555
O3 W0 1.795838 1_555
O3 W2 2.077017 1_655
O4 W2 1.795841 1_655
O4 W1 2.077011 1_555
O5 W1 1.795845 1_555
O5 W0 2.077010 1_555
O6 W3 1.795838 1_555
O6 W4 2.077017 1_555
O7 W4 1.795841 1_555
O7 W5 2.077011 1_655
O8 W5 1.795845 1_655
O8 W3 2.077010 1_555
O9 W3 1.795838 1_555
O9 W5 2.077017 1_555
O10 W5 1.795841 1_555
O10 W4 2.077011 1_565
O11 W4 1.795845 1_565
O11 W3 2.077010 1_555
O12 W3 1.899945 1_555
O12 W0 1.899945 1_554
O13 W4 1.899945 1_555
O13 W1 1.899945 1_554
O14 W2 1.899945 1_554
O14 W5 1.899945 1_555
O15 W3 1.899945 1_555
O15 W0 1.899945 1_555
O16 W1 1.899945 1_555
O16 W4 1.899945 1_555
O17 W5 1.899945 1_555
O17 W2 1.899945 1_555
