# generated using pymatgen
data_NaMg6V
_symmetry_space_group_name_H-M   'P 1'
_cell_length_a   5.15109200
_cell_length_b   6.57910500
_cell_length_c   10.82531100
_cell_angle_alpha   90.00000000
_cell_angle_beta   90.00000000
_cell_angle_gamma   90.00000000
_symmetry_Int_Tables_number   1
_chemical_formula_structural   NaMg6V
_chemical_formula_sum   'Na2 Mg12 V2'
_cell_volume   366.86519047
_cell_formula_units_Z   2
loop_
 _symmetry_equiv_pos_site_id
 _symmetry_equiv_pos_as_xyz
  1  'x, y, z'
loop_
 _atom_site_type_symbol
 _atom_site_label
 _atom_site_symmetry_multiplicity
 _atom_site_fract_x
 _atom_site_fract_y
 _atom_site_fract_z
 _atom_site_occupancy
  Na  Na0  1  0.50000000  0.50000000  0.83557000  1
  Na  Na1  1  0.50000000  0.00000000  0.33557000  1
  Mg  Mg0  1  0.50000000  0.25174400  0.08413100  1
  Mg  Mg1  1  0.50000000  0.74825600  0.08413100  1
  Mg  Mg2  1  0.00000000  0.23582900  0.91291800  1
  Mg  Mg3  1  0.00000000  0.76417100  0.91291800  1
  Mg  Mg4  1  0.00000000  0.50000000  0.17110700  1
  Mg  Mg5  1  0.00000000  0.50000000  0.66288800  1
  Mg  Mg6  1  0.50000000  0.75174400  0.58413100  1
  Mg  Mg7  1  0.50000000  0.24825600  0.58413100  1
  Mg  Mg8  1  0.00000000  0.73582900  0.41291800  1
  Mg  Mg9  1  0.00000000  0.26417100  0.41291800  1
  Mg  Mg10  1  0.00000000  0.00000000  0.67110700  1
  Mg  Mg11  1  0.00000000  0.00000000  0.16288800  1
  V  V0  1  0.50000000  0.50000000  0.33634100  1
  V  V1  1  0.50000000  0.00000000  0.83634100  1
loop_
_geom_bond_atom_site_label_1
_geom_bond_atom_site_label_2
_geom_bond_distance
_geom_bond_site_symmetry_2
Na0 V1 3.289563 1_555
Na0 V1 3.289563 1_565
Na1 V0 3.289563 1_545
Na1 V0 3.289563 1_555
Mg0 Na0 3.147668 1_554
Mg0 V1 3.152532 1_554
Mg0 Mg2 3.174841 1_654
Mg0 Mg2 3.174841 1_554
Mg0 Mg11 3.178597 1_555
Mg0 Mg11 3.178597 1_655
Mg0 V0 3.181501 1_555
Mg0 Na1 3.186210 1_555
Mg0 Mg4 3.191804 1_655
Mg0 Mg4 3.191804 1_555
Mg0 Mg1 3.266605 1_555
Mg0 Mg1 3.312500 1_545
Mg1 Na0 3.147668 1_554
Mg1 V1 3.152532 1_564
Mg1 Mg3 3.174841 1_654
Mg1 Mg3 3.174841 1_554
Mg1 Mg11 3.178597 1_665
Mg1 Mg11 3.178597 1_565
Mg1 V0 3.181501 1_555
Mg1 Na1 3.186210 1_565
Mg1 Mg4 3.191804 1_555
Mg1 Mg4 3.191804 1_655
Mg2 Mg3 3.103088 1_545
Mg2 V1 3.118961 1_555
Mg2 V1 3.118961 1_455
Mg2 Mg5 3.216620 1_555
Mg2 Na0 3.217951 1_555
Mg2 Na0 3.217951 1_455
Mg2 Mg4 3.291286 1_556
Mg2 Mg3 3.476017 1_555
Mg3 V1 3.118961 1_565
Mg3 V1 3.118961 1_465
Mg3 Mg5 3.216620 1_555
Mg3 Na0 3.217951 1_555
Mg3 Na0 3.217951 1_455
Mg3 Mg4 3.291286 1_556
Mg4 Mg9 3.042948 1_555
Mg4 Mg8 3.042948 1_555
Mg4 V0 3.135748 1_455
Mg4 V0 3.135748 1_555
Mg5 Mg8 3.119253 1_555
Mg5 Mg9 3.119253 1_555
Mg5 Mg6 3.178597 1_555
Mg5 Mg6 3.178597 1_455
Mg5 Mg7 3.178597 1_455
Mg5 Mg7 3.178597 1_555
Mg5 Na0 3.182429 1_455
Mg5 Na0 3.182429 1_555
Mg6 Na1 3.147668 1_565
Mg6 V0 3.152532 1_555
Mg6 Mg8 3.174841 1_555
Mg6 Mg8 3.174841 1_655
Mg6 V1 3.181501 1_565
Mg6 Na0 3.186210 1_555
Mg6 Mg7 3.266605 1_565
Mg6 Mg7 3.312500 1_555
Mg7 Na1 3.147668 1_555
Mg7 V0 3.152532 1_555
Mg7 Mg9 3.174841 1_655
Mg7 Mg9 3.174841 1_555
Mg7 V1 3.181501 1_555
Mg7 Na0 3.186210 1_555
Mg8 Mg9 3.103088 1_555
Mg8 V0 3.118961 1_555
Mg8 V0 3.118961 1_455
Mg8 Na1 3.217951 1_465
Mg8 Na1 3.217951 1_565
Mg8 Mg9 3.476017 1_565
Mg9 V0 3.118961 1_555
Mg9 V0 3.118961 1_455
Mg9 Na1 3.217951 1_455
Mg9 Na1 3.217951 1_555
Mg10 Mg2 3.042948 1_555
Mg10 Mg3 3.042948 1_545
Mg10 V1 3.135748 1_455
Mg10 V1 3.135748 1_555
Mg10 Mg7 3.191804 1_455
Mg10 Mg7 3.191804 1_555
Mg10 Mg6 3.191804 1_445
Mg10 Mg6 3.191804 1_545
Mg10 Mg5 3.290756 1_555
Mg10 Mg5 3.290756 1_545
Mg10 Mg9 3.291286 1_555
Mg10 Mg8 3.291286 1_545
Mg11 Mg2 3.119253 1_554
Mg11 Mg3 3.119253 1_544
Mg11 Na1 3.182429 1_555
Mg11 Na1 3.182429 1_455
Mg11 Mg8 3.216620 1_545
Mg11 Mg9 3.216620 1_555
Mg11 Mg4 3.290756 1_555
Mg11 Mg4 3.290756 1_545
