# generated using pymatgen
data_Te2MoWSeS
_symmetry_space_group_name_H-M   'P 1'
_cell_length_a   3.39637249
_cell_length_b   3.39637249
_cell_length_c   38.80381900
_cell_angle_alpha   90.00000000
_cell_angle_beta   90.00000000
_cell_angle_gamma   120.00000957
_symmetry_Int_Tables_number   1
_chemical_formula_structural   Te2MoWSeS
_chemical_formula_sum   'Te4 Mo2 W2 Se2 S2'
_cell_volume   387.64634129
_cell_formula_units_Z   2
loop_
 _symmetry_equiv_pos_site_id
 _symmetry_equiv_pos_as_xyz
  1  'x, y, z'
loop_
 _atom_site_type_symbol
 _atom_site_label
 _atom_site_symmetry_multiplicity
 _atom_site_fract_x
 _atom_site_fract_y
 _atom_site_fract_z
 _atom_site_occupancy
  Te  Te0  1  0.00000000  0.00000000  0.32998700  1
  Te  Te1  1  0.33333300  0.66666700  0.42114400  1
  Te  Te2  1  0.33333300  0.66666700  0.51826700  1
  Te  Te3  1  0.00000000  0.00000000  0.23352200  1
  Mo  Mo0  1  0.00000000  0.00000000  0.09391000  1
  Mo  Mo1  1  0.33333300  0.66666700  0.28173100  1
  W  W0  1  0.00000000  0.00000000  0.46974000  1
  W  W1  1  0.33333300  0.66666700  0.65753200  1
  Se  Se0  1  0.33333300  0.66666700  0.05141800  1
  Se  Se1  1  0.33333300  0.66666700  0.13644400  1
  S  S0  1  0.00000000  0.00000000  0.69638400  1
  S  S1  1  0.00000000  0.00000000  0.61866900  1
loop_
_geom_bond_atom_site_label_1
_geom_bond_atom_site_label_2
_geom_bond_distance
_geom_bond_site_symmetry_2
Te1 W0 2.720480 1_565
Te1 W0 2.720482 1_555
Te1 W0 2.720482 1_665
Te2 W0 2.718625 1_565
Te2 W0 2.718627 1_665
Te2 W0 2.718627 1_555
Mo0 Se0 2.561995 1_545
Mo0 Se0 2.561997 1_555
Mo0 Se0 2.561997 1_445
Mo0 Se1 2.563045 1_545
Mo0 Se1 2.563047 1_445
Mo0 Se1 2.563047 1_555
Mo1 Te3 2.710093 1_565
Mo1 Te3 2.710094 1_555
Mo1 Te3 2.710094 1_665
Mo1 Te0 2.711352 1_565
Mo1 Te0 2.711354 1_665
Mo1 Te0 2.711354 1_555
S0 W1 2.473456 1_545
S0 W1 2.473458 1_445
S0 W1 2.473458 1_555
S1 W1 2.473716 1_545
S1 W1 2.473718 1_445
S1 W1 2.473718 1_555
