# generated using pymatgen
data_Ba4Na2W2O11
_symmetry_space_group_name_H-M   'P 1'
_cell_length_a   6.00673757
_cell_length_b   6.00673757
_cell_length_c   8.70984600
_cell_angle_alpha   90.00000000
_cell_angle_beta   90.00000000
_cell_angle_gamma   91.13507371
_symmetry_Int_Tables_number   1
_chemical_formula_structural   Ba4Na2W2O11
_chemical_formula_sum   'Ba4 Na2 W2 O11'
_cell_volume   314.19738371
_cell_formula_units_Z   1
loop_
 _symmetry_equiv_pos_site_id
 _symmetry_equiv_pos_as_xyz
  1  'x, y, z'
loop_
 _atom_site_type_symbol
 _atom_site_label
 _atom_site_symmetry_multiplicity
 _atom_site_fract_x
 _atom_site_fract_y
 _atom_site_fract_z
 _atom_site_occupancy
  Ba  Ba0  1  0.02152500  0.47560100  0.27896000  1
  Ba  Ba1  1  0.02152500  0.47560100  0.72104000  1
  Ba  Ba2  1  0.52439900  0.97847500  0.27896000  1
  Ba  Ba3  1  0.52439900  0.97847500  0.72104000  1
  Na  Na0  1  0.51610200  0.48389800  0.50000000  1
  Na  Na1  1  0.97850600  0.02149400  0.00000000  1
  W  W0  1  0.50114800  0.49885200  0.00000000  1
  W  W1  1  0.02019100  0.97980900  0.50000000  1
  O  O0  1  0.24603100  0.75396800  0.50000000  1
  O  O1  1  0.78942200  0.21057800  0.50000000  1
  O  O2  1  0.78160200  0.75570500  0.50000000  1
  O  O3  1  0.24429500  0.21839800  0.50000000  1
  O  O4  1  0.02327600  0.97672400  0.27141700  1
  O  O5  1  0.02327600  0.97672400  0.72858300  1
  O  O6  1  0.49271200  0.50728800  0.77743900  1
  O  O7  1  0.49271200  0.50728800  0.22256100  1
  O  O8  1  0.71675900  0.28324100  0.00000000  1
  O  O9  1  0.59730000  0.80144300  0.00000000  1
  O  O10  1  0.19855700  0.40270000  0.00000000  1
loop_
_geom_bond_atom_site_label_1
_geom_bond_atom_site_label_2
_geom_bond_distance
_geom_bond_site_symmetry_2
Ba0 O10 2.691547 1_555
Ba0 O3 2.822381 1_555
Ba0 O1 2.845439 1_455
Ba0 O0 2.869073 1_555
Ba0 O7 2.875199 1_555
Ba0 O2 2.951326 1_455
Ba0 O4 2.997570 1_545
Ba0 O4 3.010641 1_555
Ba0 O7 3.223548 1_455
Ba0 O8 3.241294 1_455
Ba1 O10 2.691547 1_556
Ba1 O3 2.822381 1_555
Ba1 O1 2.845439 1_455
Ba1 O0 2.869073 1_555
Ba1 O6 2.875199 1_555
Ba1 O2 2.951326 1_455
Ba1 O5 2.997570 1_545
Ba1 O5 3.010641 1_555
Ba1 O6 3.223548 1_455
Ba1 O8 3.241294 1_456
Ba2 O9 2.691547 1_555
Ba2 O2 2.822381 1_555
Ba2 O1 2.845439 1_565
Ba2 O0 2.869079 1_555
Ba2 O7 2.875199 1_555
Ba2 O3 2.951326 1_565
Ba2 O4 2.997570 1_655
Ba2 O4 3.010641 1_555
Ba2 O7 3.223548 1_565
Ba2 O8 3.241294 1_565
Ba3 O9 2.691547 1_556
Ba3 O2 2.822381 1_555
Ba3 O1 2.845439 1_565
Ba3 O0 2.869079 1_555
Ba3 O6 2.875199 1_555
Ba3 O3 2.951326 1_565
Ba3 O5 2.997570 1_655
Ba3 O5 3.010641 1_555
Ba3 O6 3.223548 1_565
Ba3 O8 3.241294 1_566
Na0 O2 2.259605 1_555
Na0 O3 2.259605 1_555
Na0 O0 2.316810 1_555
Na0 O1 2.344685 1_555
Na0 O6 2.424767 1_555
Na0 O7 2.424767 1_555
Na1 O8 2.245406 1_555
Na1 O4 2.394995 1_645
Na1 O5 2.394995 1_644
Na1 O10 2.621148 1_655
Na1 O9 2.621148 1_545
O0 W1 1.937381 1_555
O1 W1 1.979660 1_645
O2 W1 1.946674 1_655
O3 W1 1.946674 1_545
O4 W1 1.991099 1_555
O5 W1 1.991099 1_555
O6 W0 1.939822 1_556
O7 W0 1.939822 1_555
O8 W0 1.849627 1_555
O9 W0 1.896206 1_555
O10 W0 1.896206 1_555
