# generated using pymatgen
data_FeTe3ClO7
_symmetry_space_group_name_H-M   'P 1'
_cell_length_a   7.35581105
_cell_length_b   10.88933777
_cell_length_c   10.91151922
_cell_angle_alpha   68.69728776
_cell_angle_beta   90.00000000
_cell_angle_gamma   90.00000000
_symmetry_Int_Tables_number   1
_chemical_formula_structural   FeTe3ClO7
_chemical_formula_sum   'Fe4 Te12 Cl4 O28'
_cell_volume   814.29402159
_cell_formula_units_Z   4
loop_
 _symmetry_equiv_pos_site_id
 _symmetry_equiv_pos_as_xyz
  1  'x, y, z'
loop_
 _atom_site_type_symbol
 _atom_site_label
 _atom_site_symmetry_multiplicity
 _atom_site_fract_x
 _atom_site_fract_y
 _atom_site_fract_z
 _atom_site_occupancy
  Fe  Fe0  1  0.37069752  0.88226091  0.09048664  1
  Fe  Fe1  1  0.87069752  0.11773909  0.40951336  1
  Fe  Fe2  1  0.62930248  0.11773909  0.90951336  1
  Fe  Fe3  1  0.12930248  0.88226091  0.59048664  1
  Te  Te0  1  0.00817846  0.90122822  0.26752947  1
  Te  Te1  1  0.50817846  0.09877178  0.23247053  1
  Te  Te2  1  0.99182154  0.09877178  0.73247053  1
  Te  Te3  1  0.49182154  0.90122822  0.76752947  1
  Te  Te4  1  0.47354398  0.75719162  0.43734677  1
  Te  Te5  1  0.97354398  0.24280838  0.06265323  1
  Te  Te6  1  0.52645602  0.24280838  0.56265323  1
  Te  Te7  1  0.02645602  0.75719162  0.93734677  1
  Te  Te8  1  0.60082530  0.61935001  0.08246615  1
  Te  Te9  1  0.10082530  0.38064999  0.41753385  1
  Te  Te10  1  0.39917470  0.38064999  0.91753385  1
  Te  Te11  1  0.89917470  0.61935001  0.58246615  1
  Cl  Cl0  1  0.21925998  0.50849189  0.11848062  1
  Cl  Cl1  1  0.71925998  0.49150811  0.38151938  1
  Cl  Cl2  1  0.78074002  0.49150811  0.88151938  1
  Cl  Cl3  1  0.28074002  0.50849189  0.61848062  1
  O  O0  1  0.01093092  0.96022327  0.41092366  1
  O  O1  1  0.51093092  0.03977673  0.08907634  1
  O  O2  1  0.98906908  0.03977673  0.58907634  1
  O  O3  1  0.48906908  0.96022327  0.91092366  1
  O  O4  1  0.26106318  0.86701277  0.26442424  1
  O  O5  1  0.76106318  0.13298723  0.23557576  1
  O  O6  1  0.73893682  0.13298723  0.73557576  1
  O  O7  1  0.23893682  0.86701277  0.76442424  1
  O  O8  1  0.60929689  0.90896437  0.33845525  1
  O  O9  1  0.10929689  0.09103563  0.16154475  1
  O  O10  1  0.39070311  0.09103563  0.66154475  1
  O  O11  1  0.89070311  0.90896437  0.83845525  1
  O  O12  1  0.14355148  0.84596664  0.03354454  1
  O  O13  1  0.64355148  0.15403336  0.46645546  1
  O  O14  1  0.85644852  0.15403336  0.96645546  1
  O  O15  1  0.35644852  0.84596664  0.53354454  1
  O  O16  1  0.50299626  0.72831890  0.16499523  1
  O  O17  1  0.00299626  0.27168110  0.33500477  1
  O  O18  1  0.49700374  0.27168110  0.83500477  1
  O  O19  1  -0.00299626  0.72831890  0.66499523  1
  O  O20  1  0.83078584  0.70832688  0.06775004  1
  O  O21  1  0.33078584  0.29167312  0.43224996  1
  O  O22  1  0.16921416  0.29167312  0.93224996  1
  O  O23  1  0.66921416  0.70832688  0.56775004  1
  O  O24  1  0.50919909  0.71494249  0.91202071  1
  O  O25  1  0.00919909  0.28505751  0.58797929  1
  O  O26  1  0.49080091  0.28505751  0.08797929  1
  O  O27  1  0.99080091  0.71494249  0.41202071  1
loop_
_geom_bond_atom_site_label_1
_geom_bond_atom_site_label_2
_geom_bond_distance
_geom_bond_site_symmetry_2
Fe0 O16 1.851446 1_555
Fe0 O12 1.874135 1_555
Fe0 O1 1.996790 1_565
Fe0 O4 2.012727 1_555
Fe0 O3 2.027109 1_554
Fe1 O17 1.851446 1_655
Fe1 O13 1.874135 1_555
Fe1 O0 1.996790 1_645
Fe1 O5 2.012727 1_555
Fe1 O2 2.027109 1_555
Fe2 O18 1.851446 1_555
Fe2 O14 1.874135 1_555
Fe2 O3 1.996790 1_545
Fe2 O6 2.012727 1_555
Fe2 O1 2.027109 1_556
Fe3 O19 1.851446 1_555
Fe3 O15 1.874135 1_555
Fe3 O2 1.996790 1_465
Fe3 O7 2.012727 1_555
Fe3 O0 2.027109 1_555
Cl0 Te8 3.024020 1_555
Cl0 Te7 3.059870 1_554
Cl1 Te9 3.024020 1_655
Cl1 Te6 3.059870 1_555
Cl2 Te10 3.024020 1_555
Cl2 Te5 3.059870 1_556
Cl3 Te11 3.024020 1_455
Cl3 Te4 3.059870 1_555
O0 Te0 1.895144 1_555
O1 Te1 1.895144 1_555
O2 Te2 1.895144 1_555
O3 Te3 1.895144 1_555
O4 Te0 1.899837 1_555
O4 Te4 2.407007 1_555
O5 Te1 1.899837 1_555
O5 Te5 2.407007 1_555
O6 Te2 1.899837 1_555
O6 Te6 2.407007 1_555
O7 Te3 1.899837 1_555
O7 Te7 2.407007 1_555
O8 Te4 1.896621 1_555
O8 Te1 2.103779 1_565
O9 Te5 1.896621 1_455
O9 Te0 2.103779 1_545
O10 Te6 1.896621 1_555
O10 Te3 2.103779 1_545
O11 Te7 1.896621 1_655
O11 Te2 2.103779 1_565
O12 Te7 1.874961 1_554
O13 Te6 1.874961 1_555
O14 Te5 1.874961 1_556
O15 Te4 1.874961 1_555
O16 Te8 1.874351 1_555
O17 Te9 1.874351 1_555
O18 Te10 1.874351 1_555
O19 Te11 1.874351 1_455
O20 Te8 1.926872 1_555
O20 Te7 1.956852 1_654
O21 Te9 1.926872 1_555
O21 Te6 1.956852 1_555
O22 Te10 1.926872 1_555
O22 Te5 1.956852 1_456
O23 Te11 1.926872 1_555
O23 Te4 1.956852 1_555
O24 Te8 1.894752 1_556
O24 Te3 2.072004 1_555
O25 Te9 1.894752 1_555
O25 Te2 2.072004 1_455
O26 Te10 1.894752 1_554
O26 Te1 2.072004 1_555
O27 Te11 1.894752 1_555
O27 Te0 2.072004 1_655
