# generated using pymatgen
data_Ba4CaCr4Cu2F28
_symmetry_space_group_name_H-M   'P 1'
_cell_length_a   5.40375115
_cell_length_b   7.57836648
_cell_length_c   15.03294100
_cell_angle_alpha   91.27508768
_cell_angle_beta   90.02560940
_cell_angle_gamma   110.89289259
_symmetry_Int_Tables_number   1
_chemical_formula_structural   Ba4CaCr4Cu2F28
_chemical_formula_sum   'Ba4 Ca1 Cr4 Cu2 F28'
_cell_volume   574.97950279
_cell_formula_units_Z   1
loop_
 _symmetry_equiv_pos_site_id
 _symmetry_equiv_pos_as_xyz
  1  'x, y, z'
loop_
 _atom_site_type_symbol
 _atom_site_label
 _atom_site_symmetry_multiplicity
 _atom_site_fract_x
 _atom_site_fract_y
 _atom_site_fract_z
 _atom_site_occupancy
  Ba  Ba0  1  0.11738700  0.37438200  0.62206400  1
  Ba  Ba1  1  0.25678300  0.36156000  0.12625500  1
  Ba  Ba2  1  0.89424600  0.63629900  0.37340300  1
  Ba  Ba3  1  0.74286800  0.62712300  0.87809300  1
  Ca  Ca0  1  0.42363600  0.00160900  0.74920800  1
  Cr  Cr0  1  0.14062500  0.23945800  0.37227400  1
  Cr  Cr1  1  0.10130300  0.24363100  0.87419400  1
  Cr  Cr2  1  0.85361200  0.75572400  0.62502900  1
  Cr  Cr3  1  0.89897700  0.75947800  0.12756600  1
  Cu  Cu0  1  0.50052100  0.00279600  0.00102600  1
  Cu  Cu1  1  0.50078200  0.99928200  0.49764400  1
  F  F0  1  0.84345500  0.50514700  0.09554200  1
  F  F1  1  0.15875700  0.50602200  0.89887000  1
  F  F2  1  0.08505700  0.01274300  0.65345600  1
  F  F3  1  0.07119900  0.98621100  0.84528400  1
  F  F4  1  0.29571400  0.17042600  0.47789800  1
  F  F5  1  0.58524500  0.76526200  0.70933700  1
  F  F6  1  0.82575900  0.23532800  0.78920600  1
  F  F7  1  0.64615600  0.49455700  0.59976000  1
  F  F8  1  0.93612500  0.00117100  0.15077100  1
  F  F9  1  0.88742300  0.27597300  0.45220400  1
  F  F10  1  0.40354500  0.28061700  0.95275600  1
  F  F11  1  0.61864500  0.10997000  0.61239100  1
  F  F12  1  0.92765800  0.99632100  0.35063500  1
  F  F13  1  0.15198100  0.75002900  0.20493600  1
  F  F14  1  0.64446700  0.66500500  0.21896900  1
  F  F15  1  0.34083400  0.49151400  0.40393300  1
  F  F16  1  0.87841600  0.17439700  0.97974200  1
  F  F17  1  0.61040300  0.72374000  0.04719900  1
  F  F18  1  0.98352800  0.33407800  0.28045900  1
  F  F19  1  0.03033700  0.67784400  0.72289300  1
  F  F20  1  0.50742400  0.89293900  0.88621600  1
  F  F21  1  0.49773800  0.11740500  0.10994700  1
  F  F22  1  0.11787000  0.71549400  0.54729300  1
  F  F23  1  0.70340600  0.82693100  0.51910700  1
  F  F24  1  0.12380100  0.82803500  0.02217500  1
  F  F25  1  0.35924800  0.31961400  0.77693200  1
  F  F26  1  0.40064800  0.24260300  0.29554700  1
  F  F27  1  0.37457400  0.88184600  0.38977400  1
loop_
_geom_bond_atom_site_label_1
_geom_bond_atom_site_label_2
_geom_bond_distance
_geom_bond_site_symmetry_2
Ba0 F7 2.695296 1_555
Ba0 F11 2.726666 1_455
Ba0 F2 2.735037 1_555
Ba0 F25 2.779882 1_555
Ba0 F9 2.805736 1_455
Ba0 F22 2.840871 1_555
Ba0 F19 2.902534 1_555
Ba0 F6 2.973915 1_455
Ba0 F4 2.988257 1_555
Ba0 F7 3.015459 1_455
Ba1 F21 2.622500 1_555
Ba1 F8 2.695829 1_455
Ba1 F18 2.720791 1_455
Ba1 F14 2.835183 1_555
Ba1 F10 2.843512 1_554
Ba1 F0 2.853207 1_455
Ba1 F26 2.914460 1_555
Ba1 F16 2.971838 1_454
Ba1 F17 3.000625 1_555
Ba1 F0 3.001799 1_555
Ba2 F27 2.606610 1_655
Ba2 F12 2.698900 1_555
Ba2 F14 2.736431 1_555
Ba2 F15 2.835656 1_555
Ba2 F22 2.839706 1_655
Ba2 F18 2.842001 1_555
Ba2 F13 2.887997 1_655
Ba2 F23 2.978599 1_555
Ba2 F9 2.988893 1_555
Ba2 F15 3.024626 1_655
Ba3 F3 2.722762 1_655
Ba3 F1 2.733798 1_655
Ba3 F20 2.740223 1_555
Ba3 F19 2.760710 1_655
Ba3 F17 2.793507 1_556
Ba3 F10 2.866410 1_555
Ba3 F25 2.904241 1_555
Ba3 F1 2.974920 1_555
Ba3 F24 2.976710 1_656
Ba3 F5 3.001587 1_555
Ca0 F5 2.323436 1_545
Ca0 F6 2.329559 1_555
Ca0 F20 2.337930 1_545
Ca0 F11 2.339868 1_555
Ca0 F2 2.353651 1_555
Ca0 F3 2.361808 1_545
Ca0 F25 2.579952 1_555
Ca0 F19 2.632545 1_545
Cr0 F26 1.812199 1_555
Cr0 F12 1.812700 1_445
Cr0 F15 1.879052 1_555
Cr0 F18 1.901866 1_455
Cr0 F9 1.910284 1_455
Cr0 F4 1.961060 1_555
Cr1 F1 1.927394 1_555
Cr1 F3 1.938275 1_545
Cr1 F6 1.944532 1_455
Cr1 F10 1.948813 1_555
Cr1 F16 1.957440 1_455
Cr1 F25 1.969546 1_555
Cr2 F7 1.924049 1_555
Cr2 F2 1.940528 1_665
Cr2 F5 1.945995 1_555
Cr2 F22 1.947786 1_655
Cr2 F23 1.958314 1_555
Cr2 F19 1.965731 1_655
Cr3 F8 1.796145 1_565
Cr3 F13 1.816368 1_655
Cr3 F0 1.892834 1_555
Cr3 F14 1.906636 1_555
Cr3 F17 1.909759 1_555
Cr3 F24 1.960657 1_655
Cu0 F21 1.838950 1_555
Cu0 F20 1.905678 1_544
Cu0 F16 2.022015 1_554
Cu0 F24 2.023747 1_545
Cu0 F10 2.467506 1_554
Cu0 F17 2.503455 1_545
Cu1 F27 1.840826 1_555
Cu1 F11 1.907466 1_565
Cu1 F4 2.010029 1_565
Cu1 F23 2.011827 1_555
Cu1 F9 2.483745 1_565
Cu1 F22 2.522428 1_555
