# generated using pymatgen
data_Mg7(SiO4)4
_symmetry_space_group_name_H-M   'P 1'
_cell_length_a   7.70732076
_cell_length_b   7.70732076
_cell_length_c   5.68407718
_cell_angle_alpha   69.86806402
_cell_angle_beta   69.86806402
_cell_angle_gamma   99.86025004
_symmetry_Int_Tables_number   1
_chemical_formula_structural   Mg7(SiO4)4
_chemical_formula_sum   'Mg7 Si4 O16'
_cell_volume   281.11851828
_cell_formula_units_Z   1
loop_
 _symmetry_equiv_pos_site_id
 _symmetry_equiv_pos_as_xyz
  1  'x, y, z'
loop_
 _atom_site_type_symbol
 _atom_site_label
 _atom_site_symmetry_multiplicity
 _atom_site_fract_x
 _atom_site_fract_y
 _atom_site_fract_z
 _atom_site_occupancy
  Mg  Mg0  1  0.01251600  0.51983200  0.99755000  1
  Mg  Mg1  1  0.48016800  0.98748400  0.00245000  1
  Mg  Mg2  1  0.72323800  0.71877700  0.03714000  1
  Mg  Mg3  1  0.28122300  0.27676200  0.96286000  1
  Mg  Mg4  1  0.86028000  0.13972000  0.50000000  1
  Mg  Mg5  1  0.12287600  0.87712400  0.50000000  1
  Mg  Mg6  1  0.87455700  0.12544300  0.00000000  1
  Si  Si0  1  0.49690300  0.23678600  0.38070300  1
  Si  Si1  1  0.51397400  0.76230200  0.60473500  1
  Si  Si2  1  0.76321400  0.50309700  0.61929700  1
  Si  Si3  1  0.23769800  0.48602600  0.39526500  1
  O  O0  1  0.28041100  0.73943800  0.72061600  1
  O  O1  1  0.73223900  0.25680900  0.24967800  1
  O  O2  1  0.26056200  0.71958900  0.27938400  1
  O  O3  1  0.74319100  0.26776100  0.75032200  1
  O  O4  1  0.95887300  0.97692900  0.76660800  1
  O  O5  1  0.02307100  0.04112700  0.23339200  1
  O  O6  1  0.46492900  0.46276100  0.28335100  1
  O  O7  1  0.53723900  0.53507100  0.71664900  1
  O  O8  1  0.85596500  0.60357000  0.28100700  1
  O  O9  1  0.12692900  0.38183900  0.25160900  1
  O  O10  1  0.37960500  0.12443100  0.25162500  1
  O  O11  1  0.62363700  0.87288700  0.26177100  1
  O  O12  1  0.12711300  0.37636300  0.73822900  1
  O  O13  1  0.87556900  0.62039500  0.74837500  1
  O  O14  1  0.61816100  0.87307100  0.74839100  1
  O  O15  1  0.39643000  0.14403500  0.71899300  1
loop_
_geom_bond_atom_site_label_1
_geom_bond_atom_site_label_2
_geom_bond_distance
_geom_bond_site_symmetry_2
Mg0 O8 2.027960 1_456
Mg0 O9 2.033397 1_556
Mg0 O13 2.067458 1_455
Mg0 O0 2.082693 1_555
Mg0 O12 2.176183 1_555
Mg0 O1 2.280145 1_456
Mg1 O15 2.027960 1_564
Mg1 O14 2.033397 1_554
Mg1 O10 2.067458 1_565
Mg1 O2 2.082693 1_555
Mg1 O11 2.176183 1_555
Mg1 O3 2.280145 1_564
Mg2 O8 2.048482 1_555
Mg2 O11 2.076514 1_555
Mg2 O4 2.086998 1_554
Mg2 O13 2.117206 1_554
Mg2 O6 2.156705 1_555
Mg2 O14 2.159887 1_554
Mg3 O15 2.048482 1_555
Mg3 O12 2.076514 1_555
Mg3 O5 2.086998 1_556
Mg3 O10 2.117206 1_556
Mg3 O7 2.156705 1_555
Mg3 O9 2.159887 1_556
Mg4 O3 2.049505 1_555
Mg4 O1 2.049505 1_555
Mg4 O5 2.063624 1_655
Mg4 O4 2.063624 1_545
Mg4 O9 2.138886 1_655
Mg4 O14 2.138886 1_545
Mg5 O4 2.074326 1_455
Mg5 O5 2.074326 1_565
Mg5 O10 2.115289 1_565
Mg5 O13 2.115289 1_455
Mg5 O0 2.178577 1_555
Mg5 O2 2.178577 1_555
Mg6 O5 2.049156 1_655
Mg6 O4 2.049156 1_544
Mg6 O11 2.116403 1_545
Mg6 O12 2.116403 1_654
Mg6 O1 2.130794 1_555
Mg6 O3 2.130794 1_554
O0 Si1 1.643374 1_555
O1 Si0 1.662385 1_555
O2 Si3 1.643374 1_555
O3 Si2 1.662385 1_555
O6 Si3 1.709734 1_555
O6 Si0 1.725621 1_555
O7 Si1 1.709734 1_555
O7 Si2 1.725621 1_555
O8 Si2 1.627052 1_555
O9 Si3 1.654347 1_555
O10 Si0 1.652666 1_555
O11 Si1 1.648162 1_555
O12 Si3 1.648162 1_555
O13 Si2 1.652666 1_555
O14 Si1 1.654347 1_555
O15 Si0 1.627052 1_555
