# generated using pymatgen
data_Te2MoW2(SeS)2
_symmetry_space_group_name_H-M   'P 1'
_cell_length_a   3.34516983
_cell_length_b   3.34516983
_cell_length_c   31.00815100
_cell_angle_alpha   90.00000000
_cell_angle_beta   90.00000000
_cell_angle_gamma   119.99999657
_symmetry_Int_Tables_number   1
_chemical_formula_structural   Te2MoW2(SeS)2
_chemical_formula_sum   'Te2 Mo1 W2 Se2 S2'
_cell_volume   300.49888064
_cell_formula_units_Z   1
loop_
 _symmetry_equiv_pos_site_id
 _symmetry_equiv_pos_as_xyz
  1  'x, y, z'
loop_
 _atom_site_type_symbol
 _atom_site_label
 _atom_site_symmetry_multiplicity
 _atom_site_fract_x
 _atom_site_fract_y
 _atom_site_fract_z
 _atom_site_occupancy
  Te  Te0  1  0.33333300  0.66666700  0.40801800  1
  Te  Te1  1  0.33333300  0.66666700  0.28586400  1
  Mo  Mo0  1  0.66666700  0.33333300  0.34698600  1
  W  W0  1  0.33333300  0.66666700  0.11564700  1
  W  W1  1  0.33333300  0.66666700  0.57836800  1
  Se  Se0  1  0.66666700  0.33333300  0.52438700  1
  Se  Se1  1  0.66666700  0.33333300  0.63229400  1
  S  S0  1  0.66666700  0.33333300  0.06655600  1
  S  S1  1  0.66666700  0.33333300  0.16472200  1
loop_
_geom_bond_atom_site_label_1
_geom_bond_atom_site_label_2
_geom_bond_distance
_geom_bond_site_symmetry_2
Mo0 Te0 2.703990 1_545
Mo0 Te0 2.703990 1_655
Mo0 Te0 2.703994 1_555
Mo0 Te1 2.705944 1_545
Mo0 Te1 2.705944 1_655
Mo0 Te1 2.705948 1_555
Se0 W1 2.555743 1_545
Se0 W1 2.555743 1_655
Se0 W1 2.555748 1_555
Se1 W1 2.554627 1_655
Se1 W1 2.554627 1_545
Se1 W1 2.554631 1_555
S0 W0 2.459106 1_545
S0 W0 2.459106 1_655
S0 W0 2.459111 1_555
S1 W0 2.458799 1_655
S1 W0 2.458799 1_545
S1 W0 2.458804 1_555
