# generated using pymatgen
data_Al3Tl4Fe(As2O7)4
_symmetry_space_group_name_H-M   'P 1'
_cell_length_a   6.40787687
_cell_length_b   6.48533999
_cell_length_c   16.40977063
_cell_angle_alpha   79.31169542
_cell_angle_beta   86.79184061
_cell_angle_gamma   102.99198850
_symmetry_Int_Tables_number   1
_chemical_formula_structural   Al3Tl4Fe(As2O7)4
_chemical_formula_sum   'Al3 Tl4 Fe1 As8 O28'
_cell_volume   649.55471765
_cell_formula_units_Z   1
loop_
 _symmetry_equiv_pos_site_id
 _symmetry_equiv_pos_as_xyz
  1  'x, y, z'
loop_
 _atom_site_type_symbol
 _atom_site_label
 _atom_site_symmetry_multiplicity
 _atom_site_fract_x
 _atom_site_fract_y
 _atom_site_fract_z
 _atom_site_occupancy
  Al  Al0  1  0.73936100  0.43012900  0.88539000  1
  Al  Al1  1  0.26107900  0.57070000  0.11326200  1
  Al  Al2  1  0.76050700  0.07012800  0.61533000  1
  Tl  Tl0  1  0.75051600  0.75101000  0.25011800  1
  Tl  Tl1  1  0.25029500  0.25090600  0.75031500  1
  Tl  Tl2  1  0.99928300  0.99985100  0.99968000  1
  Tl  Tl3  1  0.50023500  0.50076600  0.50015200  1
  Fe  Fe0  1  0.23919400  0.92765200  0.38617500  1
  As  As0  1  0.17880200  0.42553600  0.33001600  1
  As  As1  1  0.67854400  0.92654200  0.83185900  1
  As  As2  1  0.32143800  0.07505800  0.16500000  1
  As  As3  1  0.82054700  0.57329100  0.66853900  1
  As  As4  1  0.72925600  0.43609300  0.09277100  1
  As  As5  1  0.22889300  0.93413400  0.59656700  1
  As  As6  1  0.77157700  0.06726000  0.40764100  1
  As  As7  1  0.27166900  0.56467300  0.90684600  1
  O  O0  1  0.95471500  0.53915100  0.13632600  1
  O  O1  1  0.45501400  0.04200900  0.63867100  1
  O  O2  1  0.55495300  0.96348500  0.35979400  1
  O  O3  1  0.04577200  0.46070300  0.86368900  1
  O  O4  1  0.29997500  0.51752600  0.23131900  1
  O  O5  1  0.80020800  0.01676100  0.73294900  1
  O  O6  1  0.19148300  0.98416400  0.26259100  1
  O  O7  1  0.69919200  0.48254500  0.76749100  1
  O  O8  1  0.91945100  0.87819600  0.41095200  1
  O  O9  1  0.43038900  0.38512500  0.90715600  1
  O  O10  1  0.57040300  0.61528700  0.09257500  1
  O  O11  1  0.06991500  0.11450900  0.59318900  1
  O  O12  1  0.77074800  0.35161900  0.00296500  1
  O  O13  1  0.27656800  0.84320600  0.50899100  1
  O  O14  1  0.72763400  0.15179700  0.49705700  1
  O  O15  1  0.22894700  0.64897500  0.99641500  1
  O  O16  1  0.60235900  0.19402200  0.17006100  1
  O  O17  1  0.10102600  0.69280200  0.67348800  1
  O  O18  1  0.89789400  0.30455500  0.32828500  1
  O  O19  1  0.39701000  0.80611800  0.82922900  1
  O  O20  1  0.29354000  0.24248200  0.38831900  1
  O  O21  1  0.78657000  0.73352600  0.88797700  1
  O  O22  1  0.21452300  0.26920500  0.10927700  1
  O  O23  1  0.71370000  0.76712600  0.61225500  1
  O  O24  1  0.18846500  0.61517600  0.38841900  1
  O  O25  1  0.69490000  0.12493300  0.88699300  1
  O  O26  1  0.30755600  0.87566500  0.11070000  1
  O  O27  1  0.80589500  0.37560500  0.61320600  1
loop_
_geom_bond_atom_site_label_1
_geom_bond_atom_site_label_2
_geom_bond_distance
_geom_bond_site_symmetry_2
Al0 O25 1.930230 1_555
Al0 O21 1.931238 1_555
Al0 O3 1.934358 1_655
Al0 O12 1.935791 1_556
Al0 O9 1.937768 1_555
Al0 O7 1.943190 1_555
Al1 O22 1.924526 1_555
Al1 O26 1.924857 1_555
Al1 O15 1.925298 1_554
Al1 O0 1.935600 1_455
Al1 O10 1.938604 1_555
Al1 O4 1.943967 1_555
Al2 O27 1.929981 1_555
Al2 O23 1.930668 1_545
Al2 O1 1.934339 1_555
Al2 O5 1.938183 1_555
Al2 O11 1.941583 1_655
Al2 O14 1.950988 1_555
Fe0 O24 1.971945 1_555
Fe0 O2 1.997139 1_555
Fe0 O20 1.999922 1_565
Fe0 O8 2.007232 1_455
Fe0 O13 2.030427 1_555
Fe0 O6 2.045628 1_555
As0 O24 1.686578 1_555
As0 O4 1.695422 1_555
As0 O20 1.707382 1_555
As0 O18 1.798741 1_455
As1 O25 1.693141 1_565
As1 O5 1.698694 1_565
As1 O21 1.710992 1_555
As1 O19 1.803904 1_555
As2 O26 1.690748 1_545
As2 O6 1.698652 1_545
As2 O22 1.709314 1_555
As2 O16 1.805152 1_555
As3 O27 1.692392 1_555
As3 O7 1.698866 1_555
As3 O23 1.711482 1_555
As3 O17 1.803017 1_655
As4 O12 1.692250 1_555
As4 O0 1.703923 1_555
As4 O10 1.708091 1_555
As4 O16 1.818364 1_555
As5 O13 1.688948 1_555
As5 O1 1.703481 1_565
As5 O11 1.710949 1_565
As5 O17 1.813579 1_555
As6 O14 1.689494 1_555
As6 O2 1.701233 1_545
As6 O8 1.705198 1_545
As6 O18 1.815996 1_555
As7 O15 1.689533 1_555
As7 O3 1.704267 1_555
As7 O9 1.709153 1_555
As7 O19 1.816445 1_555
