# generated using pymatgen
data_NdSi3N5
_symmetry_space_group_name_H-M   'P 1'
_cell_length_a   4.77584388
_cell_length_b   7.82054176
_cell_length_c   11.21266233
_cell_angle_alpha   90.00000000
_cell_angle_beta   90.00000000
_cell_angle_gamma   90.00000000
_symmetry_Int_Tables_number   1
_chemical_formula_structural   NdSi3N5
_chemical_formula_sum   'Nd4 Si12 N20'
_cell_volume   418.78942289
_cell_formula_units_Z   4
loop_
 _symmetry_equiv_pos_site_id
 _symmetry_equiv_pos_as_xyz
  1  'x, y, z'
loop_
 _atom_site_type_symbol
 _atom_site_label
 _atom_site_symmetry_multiplicity
 _atom_site_fract_x
 _atom_site_fract_y
 _atom_site_fract_z
 _atom_site_occupancy
  Nd  Nd0  1  0.50453816  0.06058115  0.17130522  1
  Nd  Nd1  1  0.99546184  0.93941885  0.67130522  1
  Nd  Nd2  1  0.49546184  0.56058115  0.32869478  1
  Nd  Nd3  1  0.00453816  0.43941885  0.82869478  1
  Si  Si0  1  0.01416413  0.20724713  0.41699733  1
  Si  Si1  1  0.48583587  0.79275287  0.91699733  1
  Si  Si2  1  0.98583587  0.70724713  0.08300267  1
  Si  Si3  1  0.51416413  0.29275287  0.58300267  1
  Si  Si4  1  0.52679087  0.46663785  0.04093350  1
  Si  Si5  1  0.97320913  0.53336215  0.54093350  1
  Si  Si6  1  0.47320913  0.96663785  0.45906650  1
  Si  Si7  1  0.02679087  0.03336215  0.95906650  1
  Si  Si8  1  0.01727948  0.33802691  0.16162770  1
  Si  Si9  1  0.48272052  0.66197309  0.66162770  1
  Si  Si10  1  0.98272052  0.83802691  0.33837230  1
  Si  Si11  1  0.51727948  0.16197309  0.83837230  1
  N  N0  1  0.17006486  0.29325925  0.29576761  1
  N  N1  1  0.32993514  0.70674075  0.79576761  1
  N  N2  1  0.82993514  0.79325925  0.20423239  1
  N  N3  1  0.67006486  0.20674075  0.70423239  1
  N  N4  1  0.18834821  0.51922261  0.09437485  1
  N  N5  1  0.31165179  0.48077739  0.59437485  1
  N  N6  1  0.81165179  0.01922261  0.40562515  1
  N  N7  1  0.68834821  0.98077739  0.90562515  1
  N  N8  1  0.67253547  0.38777669  0.16816362  1
  N  N9  1  0.82746453  0.61222331  0.66816362  1
  N  N10  1  0.32746453  0.88777669  0.33183638  1
  N  N11  1  0.17253547  0.11222331  0.83183638  1
  N  N12  1  0.04838710  0.15786459  0.08012659  1
  N  N13  1  0.45161290  0.84213541  0.58012659  1
  N  N14  1  0.95161290  0.65786459  0.41987341  1
  N  N15  1  0.54838710  0.34213541  0.91987341  1
  N  N16  1  0.29118005  0.14865903  0.51185028  1
  N  N17  1  0.20881995  0.85134097  0.01185028  1
  N  N18  1  0.70881995  0.64865903  0.98814972  1
  N  N19  1  0.79118005  0.35134097  0.48814972  1
loop_
_geom_bond_atom_site_label_1
_geom_bond_atom_site_label_2
_geom_bond_distance
_geom_bond_site_symmetry_2
N0 Si0 1.689544 1_555
N0 Si8 1.707987 1_555
N0 Nd2 2.630966 1_555
N0 Nd0 2.794715 1_555
N1 Si1 1.689544 1_555
N1 Si9 1.707987 1_555
N1 Nd3 2.630966 1_555
N1 Nd1 2.794715 1_455
N2 Si2 1.689544 1_555
N2 Si10 1.707987 1_555
N2 Nd0 2.630966 1_565
N2 Nd2 2.794715 1_555
N3 Si3 1.689544 1_555
N3 Si11 1.707987 1_555
N3 Nd1 2.630966 1_545
N3 Nd3 2.794715 1_655
N4 Si2 1.764626 1_455
N4 Si4 1.772221 1_555
N4 Si8 1.801153 1_555
N4 Nd2 3.026363 1_555
N4 Nd3 3.167721 1_554
N5 Si3 1.764626 1_555
N5 Si5 1.772221 1_455
N5 Si9 1.801153 1_555
N5 Nd3 3.026363 1_555
N5 Nd2 3.167721 1_555
N6 Si0 1.764626 1_655
N6 Si6 1.772221 1_545
N6 Si10 1.801153 1_545
N6 Nd0 3.026363 1_555
N6 Nd1 3.167721 1_545
N7 Si1 1.764626 1_555
N7 Si7 1.772221 1_665
N7 Si11 1.801153 1_565
N7 Nd1 3.026363 1_555
N7 Nd0 3.167721 1_566
N8 Si8 1.693376 1_655
N8 Si4 1.702941 1_555
N8 Nd2 2.404465 1_555
N8 Nd0 2.681915 1_555
N9 Si9 1.693376 1_555
N9 Si5 1.702941 1_555
N9 Nd3 2.404465 1_655
N9 Nd1 2.681915 1_555
N10 Si10 1.693376 1_455
N10 Si6 1.702941 1_555
N10 Nd0 2.404465 1_565
N10 Nd2 2.681915 1_555
N11 Si11 1.693376 1_555
N11 Si7 1.702941 1_555
N11 Nd1 2.404465 1_445
N11 Nd3 2.681915 1_555
N12 Si7 1.673689 1_554
N12 Si8 1.685933 1_555
N12 Nd0 2.523872 1_555
N12 Nd0 2.893130 1_455
N13 Si6 1.673689 1_555
N13 Si9 1.685933 1_555
N13 Nd1 2.523872 1_455
N13 Nd1 2.893130 1_555
N14 Si5 1.673689 1_555
N14 Si10 1.685933 1_555
N14 Nd2 2.523872 1_555
N14 Nd2 2.893130 1_655
N15 Si4 1.673689 1_556
N15 Si11 1.685933 1_555
N15 Nd3 2.523872 1_655
N15 Nd3 2.893130 1_555
N16 Si3 1.743695 1_555
N16 Si0 1.758231 1_555
N16 Si6 1.769860 1_545
N16 Nd1 2.805165 1_445
N17 Si2 1.743695 1_455
N17 Si1 1.758231 1_554
N17 Si7 1.769860 1_564
N17 Nd0 2.805165 1_565
N18 Si1 1.743695 1_555
N18 Si2 1.758231 1_556
N18 Si4 1.769860 1_556
N18 Nd3 2.805165 1_655
N19 Si0 1.743695 1_655
N19 Si3 1.758231 1_555
N19 Si5 1.769860 1_555
N19 Nd2 2.805165 1_555
