# generated using pymatgen
data_Na5Mn2P2(CO7)2
_symmetry_space_group_name_H-M   'P 1'
_cell_length_a   8.46864200
_cell_length_b   8.51089487
_cell_length_c   9.05787932
_cell_angle_alpha   90.20159527
_cell_angle_beta   90.64818967
_cell_angle_gamma   103.41835344
_symmetry_Int_Tables_number   1
_chemical_formula_structural   Na5Mn2P2(CO7)2
_chemical_formula_sum   'Na10 Mn4 P4 C4 O28'
_cell_volume   634.97803298
_cell_formula_units_Z   2
loop_
 _symmetry_equiv_pos_site_id
 _symmetry_equiv_pos_as_xyz
  1  'x, y, z'
loop_
 _atom_site_type_symbol
 _atom_site_label
 _atom_site_symmetry_multiplicity
 _atom_site_fract_x
 _atom_site_fract_y
 _atom_site_fract_z
 _atom_site_occupancy
  Na  Na0  1  0.25233200  0.51255300  0.92899300  1
  Na  Na1  1  0.62683500  0.63492200  0.74493900  1
  Na  Na2  1  0.86340000  0.35458600  0.74758400  1
  Na  Na3  1  0.39449900  0.88564000  0.74290400  1
  Na  Na4  1  0.11170700  0.12094600  0.74571000  1
  Na  Na5  1  0.88108200  0.87111300  0.25459600  1
  Na  Na6  1  0.62276900  0.11982800  0.24897000  1
  Na  Na7  1  0.37831100  0.37814500  0.25875400  1
  Na  Na8  1  0.24020000  0.97877700  0.08392500  1
  Na  Na9  1  0.75677700  0.49494300  0.08504200  1
  Mn  Mn0  1  0.51055500  0.26430000  0.64590900  1
  Mn  Mn1  1  0.01637000  0.76342900  0.63926300  1
  Mn  Mn2  1  0.47558400  0.73367500  0.35368300  1
  Mn  Mn3  1  0.98857600  0.24367100  0.35229900  1
  P  P0  1  0.72922200  0.97450900  0.57498500  1
  P  P1  1  0.22356100  0.47682500  0.58264700  1
  P  P2  1  0.77295300  0.52427900  0.42299400  1
  P  P3  1  0.27471000  0.02795300  0.41573900  1
  C  C0  1  0.98609100  0.74002300  0.92814200  1
  C  C1  1  0.48938600  0.23994600  0.94081300  1
  C  C2  1  0.51101100  0.75635800  0.06579900  1
  C  C3  1  0.01651100  0.26381600  0.06675600  1
  O  O0  1  0.50144000  0.75220400  0.92385900  1
  O  O1  1  0.01736500  0.26776800  0.92519600  1
  O  O2  1  0.60088500  0.35127100  0.87871800  1
  O  O3  1  0.09620100  0.84394000  0.85094900  1
  O  O4  1  0.88444200  0.63059900  0.85266200  1
  O  O5  1  0.38802800  0.13794000  0.85593200  1
  O  O6  1  0.86248400  0.91210400  0.66375300  1
  O  O7  1  0.34664000  0.42341900  0.68847000  1
  O  O8  1  0.67553600  0.10361500  0.66923200  1
  O  O9  1  0.16221400  0.60885100  0.67294500  1
  O  O10  1  0.57897400  0.82714700  0.55161100  1
  O  O11  1  0.70507800  0.45959200  0.57397900  1
  O  O12  1  0.21340500  0.95901800  0.56868100  1
  O  O13  1  0.07545400  0.32845800  0.55528700  1
  O  O14  1  0.91966200  0.67327700  0.45128600  1
  O  O15  1  0.79395100  0.04086800  0.42324300  1
  O  O16  1  0.29748700  0.53965100  0.43523300  1
  O  O17  1  0.41595700  0.18060900  0.43877900  1
  O  O18  1  0.82709700  0.39342000  0.32863400  1
  O  O19  1  0.64638200  0.58171200  0.32373300  1
  O  O20  1  0.33799600  0.90477900  0.31960400  1
  O  O21  1  0.13667300  0.07519000  0.32281800  1
  O  O22  1  0.61368600  0.86142500  0.14274300  1
  O  O23  1  0.12659700  0.36038000  0.14549600  1
  O  O24  1  0.90269400  0.16336300  0.13988700  1
  O  O25  1  0.40621400  0.64573400  0.13941900  1
  O  O26  1  0.98725600  0.74898300  0.06817400  1
  O  O27  1  0.47738500  0.23197100  0.08250600  1
loop_
_geom_bond_atom_site_label_1
_geom_bond_atom_site_label_2
_geom_bond_distance
_geom_bond_site_symmetry_2
Na0 O25 2.420532 1_556
Na0 O23 2.466168 1_556
Na0 O7 2.503738 1_555
Na0 O1 2.524860 1_555
Na0 O0 2.572665 1_555
Na0 O9 2.626159 1_555
Na1 O0 2.295651 1_555
Na1 O11 2.351506 1_555
Na1 O4 2.387900 1_555
Na1 O10 2.493824 1_555
Na1 O7 2.667596 1_555
Na1 O2 2.669273 1_555
Na1 O6 2.819383 1_555
Na2 O1 2.289609 1_655
Na2 O11 2.363770 1_555
Na2 O8 2.446190 1_555
Na2 O4 2.498429 1_555
Na2 O2 2.526836 1_555
Na2 O13 2.561571 1_655
Na3 O0 2.292013 1_555
Na3 O12 2.372566 1_555
Na3 O5 2.387983 1_565
Na3 O10 2.471211 1_555
Na3 O3 2.666005 1_555
Na3 O8 2.747138 1_565
Na3 O9 2.762456 1_555
Na4 O1 2.306802 1_555
Na4 O12 2.403924 1_545
Na4 O5 2.506515 1_555
Na4 O3 2.521707 1_545
Na4 O6 2.525682 1_445
Na4 O13 2.539597 1_555
Na4 O7 2.917174 1_555
Na5 O26 2.279473 1_555
Na5 O15 2.338822 1_565
Na5 O22 2.453975 1_555
Na5 O21 2.510186 1_665
Na5 O14 2.525695 1_555
Na5 O24 2.666640 1_565
Na5 O19 2.859415 1_555
Na6 O27 2.283380 1_555
Na6 O15 2.335128 1_555
Na6 O22 2.381871 1_545
Na6 O24 2.526090 1_555
Na6 O17 2.602558 1_555
Na6 O18 2.650805 1_555
Na6 O20 2.751320 1_545
Na7 O27 2.302401 1_555
Na7 O16 2.314985 1_555
Na7 O23 2.327911 1_555
Na7 O17 2.417311 1_555
Na7 O25 2.486808 1_555
Na7 O19 2.576629 1_555
Na8 O20 2.418936 1_555
Na8 O26 2.545707 1_455
Na8 O21 2.547275 1_565
Na8 O3 2.555880 1_554
Na8 O27 2.582689 1_565
Na8 O5 2.637827 1_564
Na9 O2 2.430965 1_554
Na9 O18 2.488382 1_555
Na9 O4 2.534090 1_554
Na9 O19 2.539430 1_555
Na9 O26 2.560897 1_555
Na9 O27 2.854587 1_555
Mn0 O17 2.088267 1_555
Mn0 O11 2.159159 1_555
Mn0 O8 2.179246 1_555
Mn0 O7 2.188709 1_555
Mn0 O2 2.295572 1_555
Mn0 O5 2.322366 1_555
Mn1 O14 1.956055 1_455
Mn1 O9 2.024300 1_555
Mn1 O6 2.029431 1_455
Mn1 O3 2.085553 1_555
Mn1 O12 2.169449 1_555
Mn1 O4 2.395951 1_455
Mn2 O10 2.060297 1_555
Mn2 O20 2.087136 1_555
Mn2 O16 2.103600 1_555
Mn2 O25 2.105193 1_555
Mn2 O19 2.170973 1_555
Mn2 O22 2.382357 1_555
Mn3 O13 2.038697 1_655
Mn3 O18 2.084363 1_555
Mn3 O24 2.103874 1_555
Mn3 O21 2.130720 1_655
Mn3 O15 2.195482 1_555
Mn3 O23 2.320668 1_655
C0 O26 1.270205 1_556
C0 O4 1.298420 1_555
C0 O3 1.333027 1_655
C1 O27 1.289384 1_556
C1 O2 1.306216 1_555
C1 O5 1.310009 1_555
C2 O0 1.287157 1_554
C2 O22 1.289361 1_555
C2 O25 1.322404 1_555
C3 O1 1.282851 1_554
C3 O23 1.295562 1_555
C3 O24 1.317097 1_455
O6 P0 1.569355 1_555
O7 P1 1.553107 1_555
O8 P0 1.541716 1_545
O9 P1 1.573397 1_555
O10 P0 1.577396 1_555
O11 P2 1.542743 1_555
O12 P3 1.553549 1_565
O13 P1 1.576322 1_555
O14 P2 1.573742 1_555
O15 P0 1.545128 1_545
O16 P1 1.526217 1_555
O17 P3 1.559984 1_555
O18 P2 1.555741 1_555
O19 P2 1.555859 1_555
O20 P3 1.552214 1_565
O21 P3 1.560384 1_555
