# generated using pymatgen
data_CsSm2Cl7
_symmetry_space_group_name_H-M   'P 1'
_cell_length_a   7.13295995
_cell_length_b   12.95875715
_cell_length_c   13.49727318
_cell_angle_alpha   90.00000000
_cell_angle_beta   90.00000000
_cell_angle_gamma   90.00000000
_symmetry_Int_Tables_number   1
_chemical_formula_structural   CsSm2Cl7
_chemical_formula_sum   'Cs4 Sm8 Cl28'
_cell_volume   1247.61094098
_cell_formula_units_Z   4
loop_
 _symmetry_equiv_pos_site_id
 _symmetry_equiv_pos_as_xyz
  1  'x, y, z'
loop_
 _atom_site_type_symbol
 _atom_site_label
 _atom_site_symmetry_multiplicity
 _atom_site_fract_x
 _atom_site_fract_y
 _atom_site_fract_z
 _atom_site_occupancy
  Cs  Cs0  1  0.25000000  0.80256351  0.04112503  1
  Cs  Cs1  1  0.75000000  0.19743649  0.95887497  1
  Cs  Cs2  1  0.75000000  0.30256351  0.45887497  1
  Cs  Cs3  1  0.25000000  0.69743649  0.54112503  1
  Sm  Sm0  1  0.25000000  0.45856879  0.23739056  1
  Sm  Sm1  1  0.75000000  0.54143121  0.76260944  1
  Sm  Sm2  1  0.75000000  0.95856879  0.26260944  1
  Sm  Sm3  1  0.25000000  0.04143121  0.73739056  1
  Sm  Sm4  1  0.25000000  0.15429482  0.24783531  1
  Sm  Sm5  1  0.75000000  0.84570518  0.75216469  1
  Sm  Sm6  1  0.75000000  0.65429482  0.25216469  1
  Sm  Sm7  1  0.25000000  0.34570518  0.74783531  1
  Cl  Cl0  1  0.00914922  0.30488835  0.17523123  1
  Cl  Cl1  1  0.99085078  0.69511165  0.82476877  1
  Cl  Cl2  1  0.99085078  0.80488835  0.32476877  1
  Cl  Cl3  1  0.50914922  0.69511165  0.82476877  1
  Cl  Cl4  1  0.00914922  0.19511165  0.67523123  1
  Cl  Cl5  1  0.49085078  0.30488835  0.17523123  1
  Cl  Cl6  1  0.49085078  0.19511165  0.67523123  1
  Cl  Cl7  1  0.50914922  0.80488835  0.32476877  1
  Cl  Cl8  1  0.00950352  0.57514152  0.12229060  1
  Cl  Cl9  1  0.99049648  0.42485848  0.87770940  1
  Cl  Cl10  1  0.99049648  0.07514152  0.37770940  1
  Cl  Cl11  1  0.50950352  0.42485848  0.87770940  1
  Cl  Cl12  1  0.00950352  0.92485848  0.62229060  1
  Cl  Cl13  1  0.49049648  0.57514152  0.12229060  1
  Cl  Cl14  1  0.49049648  0.92485848  0.62229060  1
  Cl  Cl15  1  0.50950352  0.07514152  0.37770940  1
  Cl  Cl16  1  0.00967584  0.03803381  0.13091615  1
  Cl  Cl17  1  0.99032416  0.96196619  0.86908385  1
  Cl  Cl18  1  0.99032416  0.53803381  0.36908385  1
  Cl  Cl19  1  0.50967584  0.96196619  0.86908385  1
  Cl  Cl20  1  0.00967584  0.46196619  0.63091615  1
  Cl  Cl21  1  0.49032416  0.03803381  0.13091615  1
  Cl  Cl22  1  0.49032416  0.46196619  0.63091615  1
  Cl  Cl23  1  0.50967584  0.53803381  0.36908385  1
  Cl  Cl24  1  0.25000000  0.30975943  0.39106911  1
  Cl  Cl25  1  0.75000000  0.69024057  0.60893089  1
  Cl  Cl26  1  0.75000000  0.80975943  0.10893089  1
  Cl  Cl27  1  0.25000000  0.19024057  0.89106911  1
loop_
_geom_bond_atom_site_label_1
_geom_bond_atom_site_label_2
_geom_bond_distance
_geom_bond_site_symmetry_2
Cl0 Sm0 2.760696 1_555
Cl0 Sm4 2.778514 1_555
Cl0 Cs1 3.726062 1_454
Cl1 Sm1 2.760696 1_555
Cl1 Sm5 2.778514 1_555
Cl1 Cs0 3.726062 1_656
Cl2 Sm2 2.760696 1_555
Cl2 Sm6 2.778514 1_555
Cl2 Cs3 3.726062 1_655
Cl3 Sm1 2.760696 1_555
Cl3 Sm5 2.778514 1_555
Cl3 Cs0 3.726062 1_556
Cl4 Sm3 2.760696 1_555
Cl4 Sm7 2.778514 1_555
Cl4 Cs2 3.726062 1_455
Cl5 Sm0 2.760696 1_555
Cl5 Sm4 2.778514 1_555
Cl5 Cs1 3.726062 1_554
Cl6 Sm3 2.760696 1_555
Cl6 Sm7 2.778514 1_555
Cl6 Cs2 3.726062 1_555
Cl7 Sm2 2.760696 1_555
Cl7 Sm6 2.778514 1_555
Cl7 Cs3 3.726062 1_555
Cl8 Sm6 2.747953 1_455
Cl8 Sm0 2.763743 1_555
Cl8 Cs0 3.581670 1_555
Cl9 Sm7 2.747953 1_655
Cl9 Sm1 2.763743 1_555
Cl9 Cs1 3.581670 1_555
Cl10 Sm4 2.747953 1_655
Cl10 Sm2 2.763743 1_545
Cl10 Cs2 3.581670 1_555
Cl11 Sm7 2.747953 1_555
Cl11 Sm1 2.763743 1_555
Cl11 Cs1 3.581670 1_555
Cl12 Sm5 2.747953 1_455
Cl12 Sm3 2.763743 1_565
Cl12 Cs3 3.581670 1_555
Cl13 Sm6 2.747953 1_555
Cl13 Sm0 2.763743 1_555
Cl13 Cs0 3.581670 1_555
Cl14 Sm5 2.747953 1_555
Cl14 Sm3 2.763743 1_565
Cl14 Cs3 3.581670 1_555
Cl15 Sm4 2.747953 1_555
Cl15 Sm2 2.763743 1_545
Cl15 Cs2 3.581670 1_555
Cl16 Sm2 2.766006 1_445
Cl16 Sm4 2.774665 1_555
Cl16 Cs1 3.617996 1_454
Cl16 Cs0 3.703836 1_545
Cl17 Sm3 2.766006 1_665
Cl17 Sm5 2.774665 1_555
Cl17 Cs0 3.617996 1_656
Cl17 Cs1 3.703836 1_565
Cl18 Sm0 2.766006 1_655
Cl18 Sm6 2.774665 1_555
Cl18 Cs3 3.617996 1_655
Cl18 Cs2 3.703836 1_555
Cl19 Sm3 2.766006 1_565
Cl19 Sm5 2.774665 1_555
Cl19 Cs0 3.617996 1_556
Cl19 Cs1 3.703836 1_565
Cl20 Sm1 2.766006 1_455
Cl20 Sm7 2.774665 1_555
Cl20 Cs2 3.617996 1_455
Cl20 Cs3 3.703836 1_555
Cl21 Sm2 2.766006 1_545
Cl21 Sm4 2.774665 1_555
Cl21 Cs1 3.617996 1_554
Cl21 Cs0 3.703836 1_545
Cl22 Sm1 2.766006 1_555
Cl22 Sm7 2.774665 1_555
Cl22 Cs2 3.617996 1_555
Cl22 Cs3 3.703836 1_555
Cl23 Sm0 2.766006 1_555
Cl23 Sm6 2.774665 1_555
Cl23 Cs3 3.617996 1_555
Cl23 Cs2 3.703836 1_555
Cl24 Sm4 2.792175 1_555
Cl24 Sm0 2.832162 1_555
Cl24 Cs2 3.683213 1_455
Cl24 Cs2 3.683213 1_555
Cl25 Sm5 2.792175 1_555
Cl25 Sm1 2.832162 1_555
Cl25 Cs3 3.683213 1_555
Cl25 Cs3 3.683213 1_655
Cl26 Sm6 2.792175 1_555
Cl26 Sm2 2.832162 1_555
Cl26 Cs0 3.683213 1_655
Cl26 Cs0 3.683213 1_555
Cl27 Sm7 2.792175 1_555
Cl27 Sm3 2.832162 1_555
Cl27 Cs1 3.683213 1_555
Cl27 Cs1 3.683213 1_455
