# generated using pymatgen
data_Er2In3Cu
_symmetry_space_group_name_H-M   'P 1'
_cell_length_a   4.71991450
_cell_length_b   4.71991450
_cell_length_c   7.39423600
_cell_angle_alpha   90.00000000
_cell_angle_beta   90.00000000
_cell_angle_gamma   120.00000695
_symmetry_Int_Tables_number   1
_chemical_formula_structural   Er2In3Cu
_chemical_formula_sum   'Er2 In3 Cu1'
_cell_volume   142.65669930
_cell_formula_units_Z   1
loop_
 _symmetry_equiv_pos_site_id
 _symmetry_equiv_pos_as_xyz
  1  'x, y, z'
loop_
 _atom_site_type_symbol
 _atom_site_label
 _atom_site_symmetry_multiplicity
 _atom_site_fract_x
 _atom_site_fract_y
 _atom_site_fract_z
 _atom_site_occupancy
  Er  Er0  1  0.33333300  0.66666700  0.72398500  1
  Er  Er1  1  0.33333300  0.66666700  0.26395400  1
  In  In0  1  0.66666700  0.33333300  0.48241900  1
  In  In1  1  0.66666700  0.33333300  0.05221400  1
  In  In2  1  0.00000000  0.00000000  0.93530500  1
  Cu  Cu0  1  0.00000000  0.00000000  0.54212300  1
loop_
_geom_bond_atom_site_label_1
_geom_bond_atom_site_label_2
_geom_bond_distance
_geom_bond_site_symmetry_2
Er0 In2 3.141244 1_565
Er0 In2 3.141247 1_665
Er0 In2 3.141247 1_555
Er0 In0 3.258273 1_455
Er0 In0 3.258273 1_565
Er0 In0 3.258280 1_555
Er0 In1 3.649136 1_456
Er0 In1 3.649136 1_566
Er0 In1 3.649142 1_556
Er1 In1 3.142789 1_455
Er1 In1 3.142789 1_565
Er1 In1 3.142797 1_555
Er1 In0 3.167855 1_455
Er1 In0 3.167855 1_565
Er1 In0 3.167862 1_555
Er1 In2 3.651202 1_564
Er1 In2 3.651205 1_554
Er1 In2 3.651205 1_664
In0 In1 3.181037 1_555
In1 In2 2.858868 1_654
In1 In2 2.858872 1_664
In1 In2 2.858872 1_554
Cu0 In0 2.760569 1_455
Cu0 In0 2.760573 1_445
Cu0 In0 2.760573 1_555
Cu0 In2 2.907280 1_555
Cu0 Er0 3.038774 1_545
Cu0 Er0 3.038778 1_445
Cu0 Er0 3.038778 1_555
Cu0 Er1 3.414157 1_545
Cu0 Er1 3.414160 1_555
Cu0 Er1 3.414160 1_445
