# generated using pymatgen
data_Ca11(OsN5)2
_symmetry_space_group_name_H-M   'P 1'
_cell_length_a   15.53079300
_cell_length_b   15.53079300
_cell_length_c   3.53965000
_cell_angle_alpha   90.00000000
_cell_angle_beta   90.00000000
_cell_angle_gamma   90.00000000
_symmetry_Int_Tables_number   1
_chemical_formula_structural   Ca11(OsN5)2
_chemical_formula_sum   'Ca22 Os4 N20'
_cell_volume   853.78315854
_cell_formula_units_Z   2
loop_
 _symmetry_equiv_pos_site_id
 _symmetry_equiv_pos_as_xyz
  1  'x, y, z'
loop_
 _atom_site_type_symbol
 _atom_site_label
 _atom_site_symmetry_multiplicity
 _atom_site_fract_x
 _atom_site_fract_y
 _atom_site_fract_z
 _atom_site_occupancy
  Ca  Ca0  1  0.50000000  0.50000000  0.50000000  1
  Ca  Ca1  1  0.00000000  0.00000000  0.00000000  1
  Ca  Ca2  1  0.00437600  0.77603300  0.50000000  1
  Ca  Ca3  1  0.99562400  0.22396700  0.50000000  1
  Ca  Ca4  1  0.49562400  0.27603300  0.00000000  1
  Ca  Ca5  1  0.50437600  0.72396700  0.00000000  1
  Ca  Ca6  1  0.77603300  0.00437600  0.50000000  1
  Ca  Ca7  1  0.22396700  0.99562400  0.50000000  1
  Ca  Ca8  1  0.27603300  0.49562400  0.00000000  1
  Ca  Ca9  1  0.72396700  0.50437600  0.00000000  1
  Ca  Ca10  1  0.70846200  0.70846200  0.50000000  1
  Ca  Ca11  1  0.29153800  0.29153800  0.50000000  1
  Ca  Ca12  1  0.79153800  0.20846200  0.00000000  1
  Ca  Ca13  1  0.20846200  0.79153800  0.00000000  1
  Ca  Ca14  1  0.39826500  0.88336500  0.50000000  1
  Ca  Ca15  1  0.60173500  0.11663500  0.50000000  1
  Ca  Ca16  1  0.10173500  0.38336500  0.00000000  1
  Ca  Ca17  1  0.89826500  0.61663500  0.00000000  1
  Ca  Ca18  1  0.88336500  0.39826500  0.50000000  1
  Ca  Ca19  1  0.11663500  0.60173500  0.50000000  1
  Ca  Ca20  1  0.38336500  0.10173500  0.00000000  1
  Ca  Ca21  1  0.61663500  0.89826500  0.00000000  1
  Os  Os0  1  0.35422300  0.64577700  0.50000000  1
  Os  Os1  1  0.64577700  0.35422300  0.50000000  1
  Os  Os2  1  0.14577700  0.14577700  0.00000000  1
  Os  Os3  1  0.85422300  0.85422300  0.00000000  1
  N  N0  1  0.13426300  0.86573700  0.50000000  1
  N  N1  1  0.86573700  0.13426300  0.50000000  1
  N  N2  1  0.36573700  0.36573700  0.00000000  1
  N  N3  1  0.63426300  0.63426300  0.00000000  1
  N  N4  1  0.45239700  0.17566700  0.50000000  1
  N  N5  1  0.54760300  0.82433300  0.50000000  1
  N  N6  1  0.04760300  0.67566700  0.00000000  1
  N  N7  1  0.95239700  0.32433300  0.00000000  1
  N  N8  1  0.17566700  0.45239700  0.50000000  1
  N  N9  1  0.82433300  0.54760300  0.50000000  1
  N  N10  1  0.67566700  0.04760300  0.00000000  1
  N  N11  1  0.32433300  0.95239700  0.00000000  1
  N  N12  1  0.27506700  0.72493300  0.50000000  1
  N  N13  1  0.72493300  0.27506700  0.50000000  1
  N  N14  1  0.22493300  0.22493300  0.00000000  1
  N  N15  1  0.77506700  0.77506700  0.00000000  1
  N  N16  1  0.07659100  0.92340900  0.50000000  1
  N  N17  1  0.92340900  0.07659100  0.50000000  1
  N  N18  1  0.42340900  0.42340900  0.00000000  1
  N  N19  1  0.57659100  0.57659100  0.00000000  1
loop_
_geom_bond_atom_site_label_1
_geom_bond_atom_site_label_2
_geom_bond_distance
_geom_bond_site_symmetry_2
Ca0 N19 2.441760 1_555
Ca0 N19 2.441760 1_556
Ca0 N18 2.441760 1_555
Ca0 N18 2.441760 1_556
Ca0 Os0 3.201825 1_555
Ca0 Os1 3.201825 1_555
Ca1 N16 2.441760 1_545
Ca1 N17 2.441760 1_454
Ca1 N17 2.441760 1_455
Ca1 N16 2.441760 1_544
Ca1 Os2 3.201825 1_555
Ca1 Os3 3.201825 1_445
Ca2 N0 2.451576 1_555
Ca2 N6 2.452088 1_555
Ca2 N6 2.452088 1_556
Ca2 N16 2.548881 1_555
Ca2 Os3 3.169406 1_455
Ca2 Os3 3.169406 1_456
Ca3 N1 2.451576 1_555
Ca3 N7 2.452088 1_555
Ca3 N7 2.452088 1_556
Ca3 N17 2.548881 1_555
Ca3 Os2 3.169406 1_656
Ca3 Os2 3.169406 1_655
Ca4 N2 2.451576 1_555
Ca4 N4 2.452088 1_555
Ca4 N4 2.452088 1_554
Ca4 N18 2.548881 1_555
Ca4 Os1 3.169406 1_554
Ca4 Os1 3.169406 1_555
Ca5 N3 2.451576 1_555
Ca5 N5 2.452088 1_555
Ca5 N5 2.452088 1_554
Ca5 N19 2.548881 1_555
Ca5 Os0 3.169406 1_555
Ca5 Os0 3.169406 1_554
Ca6 N1 2.451576 1_555
Ca6 N10 2.452088 1_556
Ca6 N10 2.452088 1_555
Ca6 N17 2.548881 1_555
Ca6 Os3 3.169406 1_546
Ca6 Os3 3.169406 1_545
Ca7 N0 2.451576 1_555
Ca7 N11 2.452088 1_555
Ca7 N11 2.452088 1_556
Ca7 N16 2.548881 1_555
Ca7 Os2 3.169406 1_566
Ca7 Os2 3.169406 1_565
Ca8 N2 2.451576 1_555
Ca8 N8 2.452088 1_555
Ca8 N8 2.452088 1_554
Ca8 N18 2.548881 1_555
Ca8 Os0 3.169406 1_555
Ca8 Os0 3.169406 1_554
Ca9 N3 2.451576 1_555
Ca9 N9 2.452088 1_554
Ca9 N9 2.452088 1_555
Ca9 N19 2.548881 1_555
Ca9 Os1 3.169406 1_555
Ca9 Os1 3.169406 1_554
Ca10 N15 2.296163 1_555
Ca10 N15 2.296163 1_556
Ca10 N3 2.405866 1_555
Ca10 N3 2.405866 1_556
Ca10 N5 3.078927 1_555
Ca10 N9 3.078927 1_555
Ca11 N14 2.296163 1_556
Ca11 N14 2.296163 1_555
Ca11 N2 2.405866 1_556
Ca11 N2 2.405866 1_555
Ca11 N4 3.078927 1_555
Ca11 N8 3.078927 1_555
Ca12 N13 2.296163 1_554
Ca12 N13 2.296163 1_555
Ca12 N1 2.405866 1_555
Ca12 N1 2.405866 1_554
Ca12 N10 3.078927 1_555
Ca12 N7 3.078927 1_555
Ca13 N12 2.296163 1_554
Ca13 N12 2.296163 1_555
Ca13 N0 2.405866 1_555
Ca13 N0 2.405866 1_554
Ca13 N6 3.078927 1_555
Ca13 N11 3.078927 1_555
Ca14 N11 2.366462 1_555
Ca14 N11 2.366462 1_556
Ca14 N5 2.493968 1_555
Ca15 N10 2.366462 1_556
Ca15 N10 2.366462 1_555
Ca15 N4 2.493968 1_555
Ca16 N8 2.366462 1_554
Ca16 N8 2.366462 1_555
Ca16 N7 2.493968 1_455
Ca17 N9 2.366462 1_554
Ca17 N9 2.366462 1_555
Ca17 N6 2.493968 1_655
Ca18 N7 2.366462 1_556
Ca18 N7 2.366462 1_555
Ca18 N9 2.493968 1_555
Ca19 N6 2.366462 1_556
Ca19 N6 2.366462 1_555
Ca19 N8 2.493968 1_555
Ca20 N4 2.366462 1_554
Ca20 N4 2.366462 1_555
Ca20 N11 2.493968 1_545
Ca21 N5 2.366462 1_554
Ca21 N5 2.366462 1_555
Ca21 N10 2.493968 1_565
N0 N16 1.266700 1_555
N1 N17 1.266700 1_555
N12 Os0 1.738571 1_555
N13 Os1 1.738571 1_555
N14 Os2 1.738571 1_555
N15 Os3 1.738571 1_555
N18 N2 1.266700 1_555
N19 N3 1.266700 1_555
