# generated using pymatgen
data_Zn(MoO2)2
_symmetry_space_group_name_H-M   'P 1'
_cell_length_a   3.15853300
_cell_length_b   10.30181500
_cell_length_c   10.44376300
_cell_angle_alpha   90.00000000
_cell_angle_beta   90.00000000
_cell_angle_gamma   90.00000000
_symmetry_Int_Tables_number   1
_chemical_formula_structural   Zn(MoO2)2
_chemical_formula_sum   'Zn4 Mo8 O16'
_cell_volume   339.82566317
_cell_formula_units_Z   4
loop_
 _symmetry_equiv_pos_site_id
 _symmetry_equiv_pos_as_xyz
  1  'x, y, z'
loop_
 _atom_site_type_symbol
 _atom_site_label
 _atom_site_symmetry_multiplicity
 _atom_site_fract_x
 _atom_site_fract_y
 _atom_site_fract_z
 _atom_site_occupancy
  Zn  Zn0  1  0.04667300  0.35352800  0.75000000  1
  Zn  Zn1  1  0.04667300  0.14647200  0.25000000  1
  Zn  Zn2  1  0.95332700  0.85352800  0.75000000  1
  Zn  Zn3  1  0.95332700  0.64647200  0.25000000  1
  Mo  Mo0  1  0.69969200  0.11773400  0.92698600  1
  Mo  Mo1  1  0.69969200  0.38226600  0.42698600  1
  Mo  Mo2  1  0.30030800  0.88226600  0.42698600  1
  Mo  Mo3  1  0.69969200  0.38226600  0.07301400  1
  Mo  Mo4  1  0.30030800  0.88226600  0.07301400  1
  Mo  Mo5  1  0.69969200  0.11773400  0.57301400  1
  Mo  Mo6  1  0.30030800  0.61773400  0.57301400  1
  Mo  Mo7  1  0.30030800  0.61773400  0.92698600  1
  O  O0  1  0.19903800  0.98113300  0.61207300  1
  O  O1  1  0.80096200  0.01886700  0.38792700  1
  O  O2  1  0.19410600  0.25000000  0.50000000  1
  O  O3  1  0.80096200  0.48113300  0.61207300  1
  O  O4  1  0.80096200  0.48113300  0.88792700  1
  O  O5  1  0.57584400  0.27471900  0.25000000  1
  O  O6  1  0.19903800  0.51886700  0.38792700  1
  O  O7  1  0.42415600  0.77471900  0.25000000  1
  O  O8  1  0.19410600  0.25000000  0.00000000  1
  O  O9  1  0.80589400  0.75000000  0.50000000  1
  O  O10  1  0.19903800  0.98113300  0.88792700  1
  O  O11  1  0.42415600  0.72528100  0.75000000  1
  O  O12  1  0.57584400  0.22528100  0.75000000  1
  O  O13  1  0.80589400  0.75000000  0.00000000  1
  O  O14  1  0.19903800  0.51886700  0.11207300  1
  O  O15  1  0.80096200  0.01886700  0.11207300  1
loop_
_geom_bond_atom_site_label_1
_geom_bond_atom_site_label_2
_geom_bond_distance
_geom_bond_site_symmetry_2
Mo0 O10 2.152738 1_645
Mo0 O10 2.155767 1_545
Mo0 O12 2.190230 1_555
Mo0 O15 2.208208 1_556
Mo0 O8 2.208338 1_656
Mo0 O8 2.233431 1_556
Mo1 O6 2.152738 1_655
Mo1 O6 2.155767 1_555
Mo1 O5 2.190230 1_555
Mo1 O3 2.208208 1_555
Mo1 O2 2.208338 1_655
Mo1 O2 2.233431 1_555
Mo2 O1 2.152738 1_465
Mo2 O1 2.155767 1_565
Mo2 O7 2.190230 1_555
Mo2 O0 2.208208 1_555
Mo2 O9 2.208338 1_455
Mo2 O9 2.233431 1_555
Mo3 O14 2.152738 1_655
Mo3 O14 2.155767 1_555
Mo3 O5 2.190230 1_555
Mo3 O4 2.208208 1_554
Mo3 O8 2.208338 1_655
Mo3 O8 2.233431 1_555
Mo4 O15 2.152738 1_465
Mo4 O15 2.155767 1_565
Mo4 O7 2.190230 1_555
Mo4 O10 2.208208 1_554
Mo4 O13 2.208338 1_455
Mo4 O13 2.233431 1_555
Mo5 O0 2.152738 1_645
Mo5 O0 2.155767 1_545
Mo5 O12 2.190230 1_555
Mo5 O1 2.208208 1_555
Mo5 O2 2.208338 1_655
Mo5 O2 2.233431 1_555
Mo6 O3 2.152738 1_455
Mo6 O3 2.155767 1_555
Mo6 O11 2.190230 1_555
Mo6 O6 2.208208 1_555
Mo6 O9 2.208338 1_455
Mo6 O9 2.233431 1_555
Mo7 O4 2.152738 1_455
Mo7 O4 2.155767 1_555
Mo7 O11 2.190230 1_555
Mo7 O14 2.208208 1_556
Mo7 O13 2.208338 1_456
Mo7 O13 2.233431 1_556
O0 Zn2 2.098895 1_455
O1 Zn1 2.098895 1_655
O3 Zn0 2.098895 1_655
O4 Zn0 2.098895 1_655
O5 Zn1 1.989236 1_655
O5 Zn1 2.130516 1_555
O6 Zn3 2.098895 1_455
O7 Zn3 1.989236 1_455
O7 Zn3 2.130516 1_555
O10 Zn2 2.098895 1_455
O11 Zn2 1.989236 1_455
O11 Zn2 2.130516 1_555
O12 Zn0 1.989236 1_655
O12 Zn0 2.130516 1_555
O14 Zn3 2.098895 1_455
O15 Zn1 2.098895 1_655
