# generated using pymatgen
data_MnVAs2
_symmetry_space_group_name_H-M   'P 1'
_cell_length_a   3.41677900
_cell_length_b   5.73571800
_cell_length_c   6.20998300
_cell_angle_alpha   90.00000000
_cell_angle_beta   90.00000000
_cell_angle_gamma   90.00000000
_symmetry_Int_Tables_number   1
_chemical_formula_structural   MnVAs2
_chemical_formula_sum   'Mn2 V2 As4'
_cell_volume   121.70126468
_cell_formula_units_Z   2
loop_
 _symmetry_equiv_pos_site_id
 _symmetry_equiv_pos_as_xyz
  1  'x, y, z'
loop_
 _atom_site_type_symbol
 _atom_site_label
 _atom_site_symmetry_multiplicity
 _atom_site_fract_x
 _atom_site_fract_y
 _atom_site_fract_z
 _atom_site_occupancy
  Mn  Mn0  1  0.75000000  0.49592000  0.68802300  1
  Mn  Mn1  1  0.75000000  0.99592000  0.81197700  1
  V  V0  1  0.25000000  0.50414100  0.30469900  1
  V  V1  1  0.25000000  0.00414100  0.19530100  1
  As  As0  1  0.75000000  0.30290300  0.07483600  1
  As  As1  1  0.75000000  0.80290300  0.42516400  1
  As  As2  1  0.25000000  0.69703500  0.91829700  1
  As  As3  1  0.25000000  0.19703500  0.58170300  1
loop_
_geom_bond_atom_site_label_1
_geom_bond_atom_site_label_2
_geom_bond_distance
_geom_bond_site_symmetry_2
As0 Mn1 2.401014 1_544
As0 V0 2.507683 1_555
As0 V0 2.507683 1_655
As0 V1 2.532726 1_555
As0 V1 2.532726 1_655
As0 Mn0 2.644947 1_554
As1 Mn0 2.401014 1_555
As1 V1 2.507683 1_565
As1 V1 2.507683 1_665
As1 V0 2.532726 1_555
As1 V0 2.532726 1_655
As1 Mn1 2.644947 1_555
As2 V1 2.462081 1_566
As2 Mn1 2.508667 1_555
As2 Mn1 2.508667 1_455
As2 Mn0 2.508812 1_455
As2 Mn0 2.508812 1_555
As2 V0 2.642334 1_556
As3 V0 2.462081 1_555
As3 Mn0 2.508667 1_455
As3 Mn0 2.508667 1_555
As3 Mn1 2.508812 1_445
As3 Mn1 2.508812 1_545
As3 V1 2.642334 1_555
