# generated using pymatgen
data_PrSn3Ru
_symmetry_space_group_name_H-M   'P 1'
_cell_length_a   9.78305544
_cell_length_b   9.78299114
_cell_length_c   9.78287338
_cell_angle_alpha   90.00015192
_cell_angle_beta   90.00010905
_cell_angle_gamma   89.99988064
_symmetry_Int_Tables_number   1
_chemical_formula_structural   PrSn3Ru
_chemical_formula_sum   'Pr8 Sn24 Ru8'
_cell_volume   936.29479123
_cell_formula_units_Z   8
loop_
 _symmetry_equiv_pos_site_id
 _symmetry_equiv_pos_as_xyz
  1  'x, y, z'
loop_
 _atom_site_type_symbol
 _atom_site_label
 _atom_site_symmetry_multiplicity
 _atom_site_fract_x
 _atom_site_fract_y
 _atom_site_fract_z
 _atom_site_occupancy
  Pr  Pr0  1  0.00000422  0.50001994  0.74999834  1
  Pr  Pr1  1  0.50000004  0.25001060  0.00000132  1
  Pr  Pr2  1  0.75000000  0.99998577  0.49999583  1
  Pr  Pr3  1  -0.00000344  0.50001781  0.25000124  1
  Pr  Pr4  1  0.49999548  0.74998968  0.00000002  1
  Pr  Pr5  1  0.25000044  0.99997730  0.50000198  1
  Pr  Pr6  1  0.49999996  0.50003047  0.49999774  1
  Pr  Pr7  1  0.00000050  0.99996831  0.00000270  1
  Sn  Sn0  1  0.81540665  0.34328994  0.49996547  1
  Sn  Sn1  1  0.65669162  0.49997964  0.81540308  1
  Sn  Sn2  1  0.49994565  0.18461037  0.65669914  1
  Sn  Sn3  1  0.18461011  0.65666886  0.49995209  1
  Sn  Sn4  1  0.34327741  0.49994012  0.18461858  1
  Sn  Sn5  1  0.49995855  0.81539927  0.34330267  1
  Sn  Sn6  1  0.81539933  0.65667834  0.50001509  1
  Sn  Sn7  1  0.65668691  0.49992969  0.18460423  1
  Sn  Sn8  1  0.18462564  0.34326763  0.49999248  1
  Sn  Sn9  1  0.34329471  0.49990575  0.81540702  1
  Sn  Sn10  1  0.50002332  0.81540204  0.65668021  1
  Sn  Sn11  1  0.49997391  0.18461418  0.34328036  1
  Sn  Sn12  1  0.31539659  0.00009432  0.84330654  1
  Sn  Sn13  1  0.15673324  0.31538144  0.00000848  1
  Sn  Sn14  1  0.00005464  0.15672341  0.68459116  1
  Sn  Sn15  1  0.68459068  0.00006979  0.15670270  1
  Sn  Sn16  1  0.84331171  0.68459534  -0.00001795  1
  Sn  Sn17  1  0.00004138  0.84331817  0.31540152  1
  Sn  Sn18  1  0.31538012  0.00005995  0.15672021  1
  Sn  Sn19  1  0.15669683  0.68458830  0.00004765  1
  Sn  Sn20  1  0.68459355  0.00002023  0.84330302  1
  Sn  Sn21  1  0.84330598  0.31540023  0.00003714  1
  Sn  Sn22  1  0.00002568  0.15673341  0.31539458  1
  Sn  Sn23  1  -0.00002364  0.84332155  0.68458647  1
  Ru  Ru0  1  0.74998865  0.25000083  0.75000716  1
  Ru  Ru1  1  0.24999465  0.74999711  0.25000673  1
  Ru  Ru2  1  0.75000900  0.74999860  0.25001092  1
  Ru  Ru3  1  0.25000802  0.25000571  0.75000857  1
  Ru  Ru4  1  0.24999279  0.74999672  0.74999105  1
  Ru  Ru5  1  0.74999142  0.25000249  0.24999346  1
  Ru  Ru6  1  0.25001090  0.25000575  0.24998948  1
  Ru  Ru7  1  0.75000676  0.74999792  0.74999052  1
loop_
_geom_bond_atom_site_label_1
_geom_bond_atom_site_label_2
_geom_bond_distance
_geom_bond_site_symmetry_2
Pr0 Sn16 3.404580 1_456
Pr0 Sn6 3.404584 1_455
Pr0 Sn3 3.404998 1_555
Pr0 Sn19 3.405005 1_556
Pr0 Sn0 3.405207 1_455
Pr0 Sn21 3.405233 1_456
Pr0 Sn8 3.405241 1_555
Pr0 Sn13 3.405257 1_556
Pr0 Sn9 3.418844 1_555
Pr0 Sn14 3.418877 1_555
Pr0 Sn23 3.418938 1_555
Pr0 Sn1 3.419052 1_455
Pr0 Ru4 3.458585 1_555
Pr0 Ru7 3.458648 1_455
Pr0 Ru3 3.458942 1_555
Pr0 Ru0 3.459065 1_455
Pr1 Sn9 3.404125 1_554
Pr1 Sn7 3.404254 1_555
Pr1 Sn12 3.404278 1_554
Pr1 Sn15 3.404413 1_555
Pr1 Sn4 3.404558 1_555
Pr1 Sn1 3.404612 1_554
Pr1 Sn18 3.404720 1_555
Pr1 Sn20 3.404760 1_554
Pr1 Sn13 3.418549 1_555
Pr1 Sn11 3.418655 1_555
Pr1 Sn2 3.418881 1_554
Pr1 Sn21 3.418962 1_555
Pr1 Ru6 3.458646 1_555
Pr1 Ru5 3.458683 1_555
Pr1 Ru0 3.458684 1_554
Pr1 Ru3 3.458692 1_554
Pr2 Sn23 3.404500 1_655
Pr2 Sn10 3.404568 1_555
Pr2 Sn17 3.404992 1_655
Pr2 Sn5 3.405068 1_555
Pr2 Sn11 3.405275 1_565
Pr2 Sn22 3.405279 1_665
Pr2 Sn14 3.405398 1_665
Pr2 Sn2 3.405400 1_565
Pr2 Sn15 3.418812 1_565
Pr2 Sn20 3.418944 1_565
Pr2 Sn0 3.418955 1_565
Pr2 Sn6 3.418970 1_555
Pr2 Ru2 3.458591 1_555
Pr2 Ru7 3.458673 1_555
Pr2 Ru5 3.458926 1_565
Pr2 Ru0 3.458967 1_565
Pr3 Sn3 3.404366 1_555
Pr3 Sn19 3.404388 1_555
Pr3 Sn21 3.404652 1_455
Pr3 Sn0 3.404686 1_455
Pr3 Sn6 3.404767 1_455
Pr3 Sn16 3.404810 1_455
Pr3 Sn13 3.405155 1_555
Pr3 Sn8 3.405169 1_555
Pr3 Sn4 3.418706 1_555
Pr3 Sn22 3.418739 1_555
Pr3 Sn17 3.418902 1_555
Pr3 Sn7 3.419007 1_455
Pr3 Ru2 3.458599 1_455
Pr3 Ru1 3.458668 1_555
Pr3 Ru5 3.458966 1_455
Pr3 Ru6 3.459000 1_555
Pr4 Sn1 3.404902 1_554
Pr4 Sn20 3.405072 1_564
Pr4 Sn7 3.405273 1_555
Pr4 Sn4 3.405400 1_555
Pr4 Sn15 3.405421 1_565
Pr4 Sn9 3.405422 1_554
Pr4 Sn18 3.405532 1_565
Pr4 Sn12 3.405573 1_564
Pr4 Sn5 3.418902 1_555
Pr4 Sn19 3.418913 1_555
Pr4 Sn16 3.419067 1_555
Pr4 Sn10 3.419076 1_554
Pr4 Ru1 3.458856 1_555
Pr4 Ru4 3.458878 1_554
Pr4 Ru7 3.458947 1_554
Pr4 Ru2 3.458966 1_555
Pr5 Sn17 3.404408 1_555
Pr5 Sn5 3.404464 1_555
Pr5 Sn14 3.404639 1_565
Pr5 Sn2 3.404651 1_565
Pr5 Sn23 3.404776 1_555
Pr5 Sn10 3.404812 1_555
Pr5 Sn22 3.404981 1_565
Pr5 Sn11 3.404986 1_565
Pr5 Sn18 3.418651 1_565
Pr5 Sn8 3.418761 1_565
Pr5 Sn12 3.418898 1_565
Pr5 Sn3 3.418966 1_555
Pr5 Ru4 3.458584 1_555
Pr5 Ru1 3.458614 1_555
Pr5 Ru3 3.459026 1_565
Pr5 Ru6 3.459077 1_565
Pr6 Sn3 3.445050 1_555
Pr6 Sn10 3.445055 1_555
Pr6 Sn5 3.445092 1_555
Pr6 Sn6 3.445180 1_555
Pr6 Sn7 3.445252 1_555
Pr6 Sn4 3.445276 1_555
Pr6 Sn1 3.445371 1_555
Pr6 Sn8 3.445461 1_555
Pr6 Sn9 3.445470 1_555
Pr6 Sn2 3.445570 1_555
Pr6 Sn11 3.445598 1_555
Pr6 Sn0 3.445642 1_555
Pr7 Sn16 3.445114 1_455
Pr7 Sn17 3.445135 1_555
Pr7 Sn19 3.445202 1_555
Pr7 Sn23 3.445265 1_554
Pr7 Sn18 3.445297 1_565
Pr7 Sn12 3.445354 1_564
Pr7 Sn20 3.445459 1_464
Pr7 Sn15 3.445491 1_465
Pr7 Sn22 3.445567 1_565
Pr7 Sn21 3.445649 1_465
Pr7 Sn13 3.445657 1_565
Pr7 Sn14 3.445703 1_564
Sn0 Sn6 3.065876 1_555
Sn0 Sn22 3.139005 1_655
Sn0 Sn14 3.139534 1_655
Sn1 Sn9 3.065979 1_555
Sn1 Sn16 3.139393 1_556
Sn1 Sn21 3.139468 1_556
Sn2 Sn20 3.139546 1_555
Sn3 Sn8 3.066001 1_555
Sn4 Sn7 3.066103 1_555
Sn10 Sn5 3.065733 1_555
Sn10 Sn20 3.139373 1_565
Sn10 Sn12 3.140128 1_565
Sn11 Sn2 3.066136 1_555
Sn11 Sn18 3.138789 1_555
Sn11 Sn15 3.138963 1_555
Sn12 Sn18 3.066086 1_556
Sn12 Sn2 3.138601 1_555
Sn13 Sn21 3.066276 1_455
Sn13 Sn9 3.138682 1_554
Sn13 Sn4 3.138816 1_555
Sn14 Sn23 3.066008 1_545
Sn14 Sn8 3.138831 1_555
Sn15 Sn20 3.065949 1_554
Sn15 Sn5 3.139896 1_545
Sn16 Sn19 3.065864 1_655
Sn16 Sn7 3.139954 1_555
Sn17 Sn22 3.066139 1_565
Sn17 Sn3 3.139137 1_555
Sn17 Sn6 3.139858 1_455
Sn18 Sn5 3.139430 1_545
Sn19 Sn4 3.139307 1_555
Sn19 Sn9 3.139990 1_554
Sn21 Sn7 3.138835 1_555
Sn22 Sn8 3.138923 1_555
Sn23 Sn6 3.139264 1_455
Sn23 Sn3 3.139992 1_555
Ru0 Sn1 2.687568 1_555
Ru0 Sn20 2.687582 1_555
Ru0 Sn21 2.688074 1_556
Ru0 Sn0 2.688134 1_555
Ru0 Sn2 2.688176 1_555
Ru0 Sn14 2.688340 1_655
Ru1 Sn3 2.687328 1_555
Ru1 Sn19 2.687400 1_555
Ru1 Sn17 2.687432 1_555
Ru1 Sn5 2.687459 1_555
Ru1 Sn4 2.688199 1_555
Ru1 Sn18 2.688261 1_565
Ru2 Sn6 2.687835 1_555
Ru2 Sn16 2.688027 1_555
Ru2 Sn17 2.688123 1_655
Ru2 Sn5 2.688213 1_555
Ru2 Sn15 2.688480 1_565
Ru2 Sn7 2.688481 1_555
Ru3 Sn9 2.686841 1_555
Ru3 Sn12 2.686954 1_555
Ru3 Sn2 2.687255 1_555
Ru3 Sn14 2.687358 1_555
Ru3 Sn13 2.687612 1_556
Ru3 Sn8 2.687729 1_555
Ru4 Sn23 2.688029 1_555
Ru4 Sn10 2.688113 1_555
Ru4 Sn3 2.688149 1_555
Ru4 Sn19 2.688268 1_556
Ru4 Sn9 2.688632 1_555
Ru4 Sn12 2.688704 1_565
Ru5 Sn7 2.687120 1_555
Ru5 Sn15 2.687146 1_555
Ru5 Sn21 2.687412 1_555
Ru5 Sn0 2.687495 1_555
Ru5 Sn11 2.687878 1_555
Ru5 Sn22 2.687994 1_655
Ru6 Sn4 2.687019 1_555
Ru6 Sn18 2.687117 1_555
Ru6 Sn11 2.687408 1_555
Ru6 Sn13 2.687453 1_555
Ru6 Sn22 2.687583 1_555
Ru6 Sn8 2.687617 1_555
Ru7 Sn6 2.687580 1_555
Ru7 Sn23 2.687612 1_655
Ru7 Sn10 2.687684 1_555
Ru7 Sn16 2.687700 1_556
Ru7 Sn1 2.688025 1_555
Ru7 Sn20 2.688044 1_565
