# generated using pymatgen
data_Li9Mn2Co5O16
_symmetry_space_group_name_H-M   'P 1'
_cell_length_a   10.15468592
_cell_length_b   10.15468592
_cell_length_c   5.21867230
_cell_angle_alpha   82.02833945
_cell_angle_beta   82.02833945
_cell_angle_gamma   32.81307130
_symmetry_Int_Tables_number   1
_chemical_formula_structural   Li9Mn2Co5O16
_chemical_formula_sum   'Li9 Mn2 Co5 O16'
_cell_volume   288.55297767
_cell_formula_units_Z   1
loop_
 _symmetry_equiv_pos_site_id
 _symmetry_equiv_pos_as_xyz
  1  'x, y, z'
loop_
 _atom_site_type_symbol
 _atom_site_label
 _atom_site_symmetry_multiplicity
 _atom_site_fract_x
 _atom_site_fract_y
 _atom_site_fract_z
 _atom_site_occupancy
  Li  Li0  1  0.25225500  0.25225500  0.50725200  1
  Li  Li1  1  0.37166000  0.86756600  0.75441800  1
  Li  Li2  1  0.49678500  0.49678500  0.00525300  1
  Li  Li3  1  0.63407200  0.12884500  0.24059900  1
  Li  Li4  1  0.75446600  0.75446600  0.50218800  1
  Li  Li5  1  0.86756600  0.37166000  0.75441800  1
  Li  Li6  1  0.99604400  0.99604400  0.99363100  1
  Li  Li7  1  0.12884500  0.63407200  0.24059900  1
  Li  Li8  1  0.87676200  0.87676200  0.74669500  1
  Mn  Mn0  1  0.00029600  0.50285500  0.99537900  1
  Mn  Mn1  1  0.50285500  0.00029600  0.99537900  1
  Co  Co0  1  0.12168100  0.12168100  0.25862300  1
  Co  Co1  1  0.24698000  0.74619800  0.51157400  1
  Co  Co2  1  0.37556100  0.37556100  0.75140900  1
  Co  Co3  1  0.62382900  0.62382900  0.24925200  1
  Co  Co4  1  0.74619800  0.24698000  0.51157400  1
  O  O0  1  0.30270700  0.30270700  0.13072000  1
  O  O1  1  0.44368300  0.93019700  0.33368900  1
  O  O2  1  0.55950100  0.55950100  0.61531300  1
  O  O3  1  0.67059000  0.20146800  0.84862700  1
  O  O4  1  0.80424300  0.80424300  0.12434700  1
  O  O5  1  0.93019700  0.44368300  0.33368900  1
  O  O6  1  0.06286500  0.06286500  0.61582400  1
  O  O7  1  0.20146800  0.67059000  0.84862700  1
  O  O8  1  0.19342400  0.19342400  0.88635800  1
  O  O9  1  0.32295800  0.81145900  0.14156000  1
  O  O10  1  0.43750500  0.43750500  0.37836200  1
  O  O11  1  0.54842400  0.07299600  0.67247000  1
  O  O12  1  0.69718800  0.69718800  0.87106500  1
  O  O13  1  0.81145900  0.32295800  0.14156000  1
  O  O14  1  0.94493800  0.94493800  0.36707600  1
  O  O15  1  0.07299600  0.54842400  0.67247000  1
loop_
_geom_bond_atom_site_label_1
_geom_bond_atom_site_label_2
_geom_bond_distance
_geom_bond_site_symmetry_2
Li0 O15 2.045427 1_555
Li0 O11 2.045427 1_555
Li0 O0 2.066132 1_555
Li0 O8 2.138278 1_555
Li0 O5 2.223060 1_455
Li0 O1 2.223060 1_545
Li1 O6 2.016711 1_565
Li1 O2 2.041434 1_555
Li1 O9 2.127978 1_556
Li1 O8 2.217824 1_565
Li1 O12 2.223478 1_555
Li1 O1 2.389435 1_555
Li2 O3 2.039462 1_554
Li2 O7 2.039462 1_554
Li2 O10 2.115408 1_555
Li2 O9 2.152619 1_555
Li2 O13 2.152619 1_555
Li2 O2 2.217004 1_554
Li3 O10 2.008984 1_555
Li3 O14 2.053060 1_545
Li3 O3 2.167164 1_554
Li3 O4 2.215596 1_545
Li3 O0 2.244336 1_555
Li3 O11 2.467493 1_555
Li4 O4 2.067769 1_555
Li4 O12 2.080852 1_555
Li4 O11 2.129719 1_565
Li4 O15 2.129719 1_655
Li4 O1 2.187612 1_555
Li4 O5 2.187612 1_555
Li5 O6 2.016711 1_655
Li5 O2 2.041434 1_555
Li5 O13 2.127978 1_556
Li5 O8 2.217824 1_655
Li5 O12 2.223478 1_555
Li5 O5 2.389435 1_555
Li6 O14 2.056321 1_556
Li6 O3 2.124638 1_565
Li6 O7 2.124638 1_655
Li6 O6 2.200006 1_665
Li6 O13 2.231600 1_566
Li6 O9 2.231600 1_656
Li7 O10 2.008984 1_555
Li7 O14 2.053060 1_455
Li7 O7 2.167164 1_554
Li7 O4 2.215596 1_455
Li7 O0 2.244336 1_555
Li7 O15 2.467493 1_555
Li8 O7 2.027886 1_655
Li8 O3 2.027886 1_565
Li8 O11 2.052782 1_565
Li8 O15 2.052782 1_655
Li8 O14 2.219945 1_555
Li8 O4 2.252830 1_556
Mn0 O15 1.900462 1_555
Mn0 O4 1.934211 1_456
Mn0 O0 1.942264 1_556
Mn0 O12 1.943718 1_455
Mn0 O8 1.967575 1_555
Mn0 O5 2.015184 1_456
Mn1 O11 1.900462 1_555
Mn1 O4 1.934211 1_546
Mn1 O0 1.942264 1_556
Mn1 O12 1.943718 1_545
Mn1 O8 1.967575 1_555
Mn1 O1 2.015184 1_546
Co0 O9 1.959405 1_545
Co0 O13 1.959405 1_455
Co0 O5 2.020649 1_455
Co0 O1 2.020649 1_545
Co0 O6 2.042142 1_555
Co0 O8 2.223219 1_554
Co1 O14 1.965642 1_455
Co1 O7 1.973175 1_555
Co1 O2 2.009341 1_555
Co1 O10 2.022353 1_555
Co1 O6 2.056556 1_565
Co1 O9 2.203271 1_555
Co2 O3 1.904866 1_555
Co2 O7 1.904866 1_555
Co2 O11 1.943189 1_555
Co2 O15 1.943189 1_555
Co2 O10 2.137092 1_555
Co2 O0 2.262886 1_556
Co3 O9 1.917050 1_555
Co3 O13 1.917050 1_555
Co3 O1 1.951878 1_555
Co3 O5 1.951878 1_555
Co3 O2 2.127878 1_555
Co3 O12 2.263247 1_554
Co4 O14 1.965642 1_545
Co4 O3 1.973175 1_555
Co4 O2 2.009341 1_555
Co4 O10 2.022353 1_555
Co4 O6 2.056556 1_655
Co4 O13 2.203271 1_555
