# generated using pymatgen
data_Mg4Si3
_symmetry_space_group_name_H-M   'P 1'
_cell_length_a   5.60322385
_cell_length_b   7.63134085
_cell_length_c   8.02830779
_cell_angle_alpha   122.08521396
_cell_angle_beta   111.00967191
_cell_angle_gamma   89.93265344
_symmetry_Int_Tables_number   1
_chemical_formula_structural   Mg4Si3
_chemical_formula_sum   'Mg8 Si6'
_cell_volume   263.63201241
_cell_formula_units_Z   2
loop_
 _symmetry_equiv_pos_site_id
 _symmetry_equiv_pos_as_xyz
  1  'x, y, z'
loop_
 _atom_site_type_symbol
 _atom_site_label
 _atom_site_symmetry_multiplicity
 _atom_site_fract_x
 _atom_site_fract_y
 _atom_site_fract_z
 _atom_site_occupancy
  Mg  Mg0  1  0.63840100  0.50610300  0.82268400  1
  Mg  Mg1  1  0.54758000  0.99477000  0.04321100  1
  Mg  Mg2  1  0.49549800  0.93257900  0.37771300  1
  Mg  Mg3  1  0.99138100  0.95320200  0.36568100  1
  Mg  Mg4  1  0.60354100  0.46625300  0.18152000  1
  Mg  Mg5  1  0.08973000  0.71762100  0.59857300  1
  Mg  Mg6  1  0.24349900  0.30902500  0.33908200  1
  Mg  Mg7  1  0.98405100  0.15971100  0.83633500  1
  Si  Si0  1  0.43403200  0.10365900  0.75111800  1
  Si  Si1  1  0.17909100  0.56828600  0.89062500  1
  Si  Si2  1  0.01362900  0.88954400  0.98531600  1
  Si  Si3  1  0.60865600  0.76705700  0.64161800  1
  Si  Si4  1  0.11049300  0.56170300  0.18439000  1
  Si  Si5  1  0.81029800  0.32042600  0.48218500  1
loop_
_geom_bond_atom_site_label_1
_geom_bond_atom_site_label_2
_geom_bond_distance
_geom_bond_site_symmetry_2
Mg0 Si1 2.806233 1_555
Mg0 Si5 2.859720 1_555
Mg0 Si1 2.871358 1_655
Mg0 Si2 2.945317 1_655
Mg0 Si0 2.955589 1_555
Mg0 Si4 2.965728 1_656
Mg0 Si3 3.001257 1_555
Mg1 Si0 2.755625 1_564
Mg1 Si5 2.783409 1_565
Mg1 Si2 2.854654 1_654
Mg1 Si3 2.893005 1_554
Mg1 Si2 2.902416 1_554
Mg1 Mg2 3.072219 1_555
Mg1 Si1 3.212945 1_554
Mg2 Si0 2.718704 1_565
Mg2 Mg3 2.798638 1_455
Mg2 Mg3 2.822063 1_555
Mg2 Si4 2.831963 1_555
Mg2 Si3 2.892148 1_555
Mg2 Si5 2.981498 1_565
Mg2 Si1 3.107222 1_554
Mg2 Mg7 3.171559 1_565
Mg2 Si2 3.182154 1_554
Mg2 Mg4 3.199307 1_555
Mg2 Mg6 3.311472 1_565
Mg3 Si4 2.749943 1_655
Mg3 Si5 2.765330 1_565
Mg3 Si0 2.788237 1_665
Mg3 Si2 2.876350 1_654
Mg4 Si0 2.827346 1_554
Mg4 Si4 2.861202 1_555
Mg4 Si4 2.922333 1_655
Mg4 Si5 3.041826 1_555
Mg4 Si1 3.108286 1_554
Mg4 Si3 3.135400 1_555
Mg5 Si3 2.803532 1_555
Mg5 Si3 2.838113 1_455
Mg5 Si2 2.857255 1_555
Mg5 Si0 2.896004 1_565
Mg5 Si5 2.909559 1_455
Mg5 Si4 2.925749 1_555
Mg5 Si1 3.007080 1_555
Mg6 Si4 2.773633 1_555
Mg6 Si2 2.775043 1_544
Mg6 Si5 2.948216 1_555
Mg6 Si5 3.018662 1_455
Mg6 Si3 3.120517 1_555
Mg7 Si4 2.683259 1_656
Mg7 Si0 2.816322 1_655
Mg7 Si2 2.861049 1_645
Mg7 Si0 2.886060 1_555
Mg7 Si3 2.920220 1_545
Mg7 Si1 3.054307 1_655
Si0 Si3 2.557426 1_545
Si1 Si2 2.442953 1_555
Si1 Si4 2.547237 1_556
Si1 Si5 2.676112 1_455
Si2 Si3 2.532161 1_455
