# generated using pymatgen
data_La5Mg2Mn3O15
_symmetry_space_group_name_H-M   'P 1'
_cell_length_a   7.85598700
_cell_length_b   9.49860830
_cell_length_c   9.64818689
_cell_angle_alpha   81.34380052
_cell_angle_beta   113.66617442
_cell_angle_gamma   113.23380949
_symmetry_Int_Tables_number   1
_chemical_formula_structural   La5Mg2Mn3O15
_chemical_formula_sum   'La10 Mg4 Mn6 O30'
_cell_volume   605.90571521
_cell_formula_units_Z   2
loop_
 _symmetry_equiv_pos_site_id
 _symmetry_equiv_pos_as_xyz
  1  'x, y, z'
loop_
 _atom_site_type_symbol
 _atom_site_label
 _atom_site_symmetry_multiplicity
 _atom_site_fract_x
 _atom_site_fract_y
 _atom_site_fract_z
 _atom_site_occupancy
  La  La0  1  0.65251800  0.10219500  0.69928800  1
  La  La1  1  0.44937800  0.30327100  0.10174000  1
  La  La2  1  0.85040300  0.89920100  0.30205100  1
  La  La3  1  0.24995800  0.50118500  0.50089400  1
  La  La4  1  0.04659000  0.69988500  0.89827200  1
  La  La5  1  0.75004200  0.49881500  0.49910600  1
  La  La6  1  0.55062200  0.69672900  0.89826000  1
  La  La7  1  0.95341000  0.30011500  0.10172800  1
  La  La8  1  0.34748200  0.89780500  0.30071200  1
  La  La9  1  0.14959700  0.10079900  0.69794900  1
  Mg  Mg0  1  0.89962500  0.59972000  0.19955400  1
  Mg  Mg1  1  0.30002700  0.19955800  0.40023200  1
  Mg  Mg2  1  0.69997300  0.80044200  0.59976800  1
  Mg  Mg3  1  0.10037500  0.40028000  0.80044600  1
  Mn  Mn0  1  0.80033200  0.20019800  0.40047200  1
  Mn  Mn1  1  0.60025300  0.40047000  0.79969300  1
  Mn  Mn2  1  0.00000000  0.00000000  0.00000000  1
  Mn  Mn3  1  0.39974700  0.59953000  0.20030700  1
  Mn  Mn4  1  0.19966800  0.79980200  0.59952800  1
  Mn  Mn5  1  0.50000000  0.00000000  0.00000000  1
  O  O0  1  0.79273800  0.38013300  0.27749900  1
  O  O1  1  0.19346200  0.98037600  0.47786900  1
  O  O2  1  0.59260600  0.58180000  0.67707900  1
  O  O3  1  0.99378700  0.18080700  0.87735000  1
  O  O4  1  0.39162100  0.78039500  0.07747100  1
  O  O5  1  0.78391300  0.52530000  0.97870500  1
  O  O6  1  0.18391300  0.12591400  0.17905000  1
  O  O7  1  0.58405400  0.72576000  0.37857800  1
  O  O8  1  0.98606400  0.32604200  0.58031000  1
  O  O9  1  0.38557300  0.92592600  0.77878500  1
  O  O10  1  0.17339900  0.58814400  0.24152400  1
  O  O11  1  0.57370500  0.18822100  0.44161500  1
  O  O12  1  0.97346800  0.78919000  0.64096400  1
  O  O13  1  0.37472600  0.38979600  0.84232800  1
  O  O14  1  0.76828000  0.98818800  0.04260000  1
  O  O15  1  0.00621300  0.81919300  0.12265000  1
  O  O16  1  0.40739400  0.41820000  0.32292100  1
  O  O17  1  0.80653800  0.01962400  0.52213100  1
  O  O18  1  0.20726200  0.61986700  0.72250100  1
  O  O19  1  0.60837900  0.21960500  0.92252900  1
  O  O20  1  0.01393600  0.67395800  0.41969000  1
  O  O21  1  0.41594600  0.27424000  0.62142200  1
  O  O22  1  0.81608700  0.87408600  0.82095000  1
  O  O23  1  0.21608700  0.47470000  0.02129500  1
  O  O24  1  0.61442700  0.07407400  0.22121500  1
  O  O25  1  0.62527400  0.61020400  0.15767200  1
  O  O26  1  0.02653200  0.21081000  0.35903600  1
  O  O27  1  0.42629500  0.81177900  0.55838500  1
  O  O28  1  0.82660100  0.41185600  0.75847600  1
  O  O29  1  0.23172000  0.01181200  0.95740000  1
loop_
_geom_bond_atom_site_label_1
_geom_bond_atom_site_label_2
_geom_bond_distance
_geom_bond_site_symmetry_2
La0 O11 2.404904 1_555
La0 O3 2.409523 1_555
La0 O9 2.433932 1_545
La0 O28 2.748253 1_555
La0 O21 2.755860 1_555
La0 O19 2.762406 1_555
La0 O17 2.795228 1_555
La0 O27 2.817348 1_545
La0 O22 2.818492 1_545
La1 O0 2.414836 1_555
La1 O6 2.417098 1_555
La1 O13 2.422063 1_554
La1 O25 2.719723 1_555
La1 O16 2.721181 1_555
La1 O23 2.728535 1_555
La1 O24 2.832198 1_555
La1 O29 2.835756 1_554
La1 O19 2.848195 1_554
La2 O7 2.406650 1_555
La2 O1 2.412342 1_655
La2 O14 2.427687 1_555
La2 O17 2.750525 1_565
La2 O26 2.761425 1_665
La2 O24 2.771787 1_565
La2 O20 2.789833 1_655
La2 O15 2.811157 1_655
La2 O25 2.818967 1_555
La3 O2 2.411215 1_555
La3 O8 2.413115 1_455
La3 O10 2.422335 1_555
La3 O18 2.748535 1_555
La3 O27 2.753492 1_555
La3 O20 2.755456 1_555
La3 O21 2.818760 1_555
La3 O26 2.819516 1_555
La3 O16 2.825084 1_555
La4 O5 2.410182 1_455
La4 O12 2.412117 1_455
La4 O4 2.433404 1_556
La4 O22 2.735227 1_455
La4 O15 2.764924 1_556
La4 O29 2.768067 1_565
La4 O28 2.792843 1_455
La4 O18 2.812529 1_555
La4 O23 2.823302 1_556
La5 O16 2.411215 1_555
La5 O20 2.413115 1_655
La5 O28 2.422335 1_555
La5 O0 2.748535 1_555
La5 O11 2.753492 1_555
La5 O8 2.755456 1_555
La5 O7 2.818760 1_555
La5 O12 2.819516 1_555
La5 O2 2.825084 1_555
La6 O18 2.414836 1_555
La6 O22 2.417098 1_555
La6 O25 2.422063 1_556
La6 O13 2.719723 1_555
La6 O2 2.721181 1_555
La6 O5 2.728535 1_555
La6 O9 2.832198 1_555
La6 O14 2.835756 1_556
La6 O4 2.848195 1_556
La7 O23 2.410182 1_655
La7 O26 2.412117 1_655
La7 O19 2.433404 1_554
La7 O6 2.735227 1_655
La7 O3 2.764924 1_554
La7 O14 2.768067 1_545
La7 O10 2.792843 1_655
La7 O0 2.812529 1_555
La7 O5 2.823302 1_554
La8 O27 2.404904 1_555
La8 O15 2.409523 1_555
La8 O24 2.433932 1_565
La8 O10 2.748253 1_555
La8 O7 2.755860 1_555
La8 O4 2.762406 1_555
La8 O1 2.795228 1_555
La8 O11 2.817348 1_565
La8 O6 2.818492 1_565
La9 O21 2.406650 1_555
La9 O17 2.412342 1_455
La9 O29 2.427687 1_555
La9 O1 2.750525 1_545
La9 O12 2.761425 1_445
La9 O9 2.771787 1_545
La9 O8 2.789833 1_455
La9 O3 2.811157 1_455
La9 O13 2.818967 1_555
Mg0 O20 2.057834 1_655
Mg0 O15 2.062419 1_655
Mg0 O5 2.063419 1_554
Mg0 O0 2.067384 1_555
Mg0 O10 2.067812 1_655
Mg0 O25 2.067981 1_555
Mg1 O16 2.058556 1_555
Mg1 O1 2.062826 1_545
Mg1 O6 2.063619 1_555
Mg1 O26 2.066051 1_555
Mg1 O21 2.067034 1_555
Mg1 O11 2.067394 1_555
Mg2 O2 2.058556 1_555
Mg2 O17 2.062826 1_565
Mg2 O22 2.063619 1_555
Mg2 O12 2.066051 1_555
Mg2 O7 2.067034 1_555
Mg2 O27 2.067394 1_555
Mg3 O8 2.057834 1_455
Mg3 O3 2.062419 1_455
Mg3 O23 2.063419 1_556
Mg3 O18 2.067384 1_555
Mg3 O28 2.067812 1_455
Mg3 O13 2.067981 1_555
Mn0 O11 1.932419 1_555
Mn0 O17 1.932896 1_555
Mn0 O26 1.935119 1_655
Mn0 O0 1.935360 1_555
Mn0 O24 1.942887 1_555
Mn0 O8 1.945301 1_555
Mn1 O28 1.932565 1_555
Mn1 O5 1.933076 1_555
Mn1 O21 1.934992 1_555
Mn1 O13 1.936326 1_555
Mn1 O19 1.942413 1_555
Mn1 O2 1.944468 1_555
Mn2 O6 1.938303 1_555
Mn2 O22 1.938303 1_444
Mn2 O3 1.939133 1_454
Mn2 O15 1.939133 1_545
Mn2 O29 1.980147 1_554
Mn2 O14 1.980147 1_445
Mn3 O10 1.932565 1_555
Mn3 O23 1.933076 1_555
Mn3 O7 1.934992 1_555
Mn3 O25 1.936326 1_555
Mn3 O4 1.942413 1_555
Mn3 O16 1.944468 1_555
Mn4 O27 1.932419 1_555
Mn4 O1 1.932896 1_555
Mn4 O12 1.935119 1_455
Mn4 O18 1.935360 1_555
Mn4 O9 1.942887 1_555
Mn4 O20 1.945301 1_555
Mn5 O29 2.025033 1_554
Mn5 O14 2.025033 1_545
Mn5 O24 2.066687 1_555
Mn5 O9 2.066687 1_544
Mn5 O19 2.067639 1_554
Mn5 O4 2.067639 1_545
