# generated using pymatgen
data_MgMo2O7
_symmetry_space_group_name_H-M   'P 1'
_cell_length_a   6.79789900
_cell_length_b   6.45919900
_cell_length_c   8.20186869
_cell_angle_alpha   73.10513414
_cell_angle_beta   90.00000000
_cell_angle_gamma   90.00000000
_symmetry_Int_Tables_number   1
_chemical_formula_structural   MgMo2O7
_chemical_formula_sum   'Mg2 Mo4 O14'
_cell_volume   344.59211761
_cell_formula_units_Z   2
loop_
 _symmetry_equiv_pos_site_id
 _symmetry_equiv_pos_as_xyz
  1  'x, y, z'
loop_
 _atom_site_type_symbol
 _atom_site_label
 _atom_site_symmetry_multiplicity
 _atom_site_fract_x
 _atom_site_fract_y
 _atom_site_fract_z
 _atom_site_occupancy
  Mg  Mg0  1  0.13750400  0.09941000  0.35746100  1
  Mg  Mg1  1  0.63750400  0.90059000  0.64253900  1
  Mo  Mo0  1  0.14256300  0.89881700  0.79302300  1
  Mo  Mo1  1  0.64256300  0.10118300  0.20697700  1
  Mo  Mo2  1  0.68520200  0.36499200  0.77416300  1
  Mo  Mo3  1  0.18520200  0.63500800  0.22583700  1
  O  O0  1  0.37726200  0.57875900  0.36716700  1
  O  O1  1  0.87726200  0.42124100  0.63283300  1
  O  O2  1  0.76057900  0.04261700  0.41526600  1
  O  O3  1  0.26057900  0.95738300  0.58473400  1
  O  O4  1  0.02996200  0.40080600  0.27839700  1
  O  O5  1  0.52996200  0.59919400  0.72160300  1
  O  O6  1  0.39843600  0.18676400  0.23185600  1
  O  O7  1  0.89843600  0.81323600  0.76814400  1
  O  O8  1  0.06223900  0.87142200  0.24862200  1
  O  O9  1  0.56223900  0.12857800  0.75137800  1
  O  O10  1  0.26035200  0.69918000  0.98828000  1
  O  O11  1  0.76035200  0.30082000  0.01172000  1
  O  O12  1  0.12084400  0.13724900  0.84451200  1
  O  O13  1  0.62084400  0.86275100  0.15548800  1
loop_
_geom_bond_atom_site_label_1
_geom_bond_atom_site_label_2
_geom_bond_distance
_geom_bond_site_symmetry_2
Mg0 O8 1.997837 1_545
Mg0 O4 2.002783 1_555
Mg0 O3 2.005583 1_545
Mg0 O6 2.046494 1_555
Mg0 O2 2.612208 1_455
Mg1 O9 1.997837 1_565
Mg1 O5 2.002783 1_555
Mg1 O2 2.005583 1_565
Mg1 O7 2.046494 1_555
Mg1 O3 2.612208 1_555
Mo0 O12 1.717560 1_565
Mo0 O7 1.779573 1_455
Mo0 O3 1.824717 1_555
Mo0 O10 1.915297 1_555
Mo1 O13 1.717560 1_545
Mo1 O6 1.779573 1_555
Mo1 O2 1.824717 1_555
Mo1 O11 1.915297 1_555
Mo2 O1 1.713328 1_555
Mo2 O5 1.791341 1_555
Mo2 O9 1.797602 1_555
Mo2 O11 1.938990 1_556
Mo3 O0 1.713328 1_555
Mo3 O4 1.791341 1_555
Mo3 O8 1.797602 1_555
Mo3 O10 1.938990 1_554
