# generated using pymatgen
data_BaDyFeCuO5
_symmetry_space_group_name_H-M   'P 1'
_cell_length_a   3.89488200
_cell_length_b   3.89488200
_cell_length_c   7.96393000
_cell_angle_alpha   90.00000000
_cell_angle_beta   90.00000000
_cell_angle_gamma   90.00000000
_symmetry_Int_Tables_number   1
_chemical_formula_structural   BaDyFeCuO5
_chemical_formula_sum   'Ba1 Dy1 Fe1 Cu1 O5'
_cell_volume   120.81366064
_cell_formula_units_Z   1
loop_
 _symmetry_equiv_pos_site_id
 _symmetry_equiv_pos_as_xyz
  1  'x, y, z'
loop_
 _atom_site_type_symbol
 _atom_site_label
 _atom_site_symmetry_multiplicity
 _atom_site_fract_x
 _atom_site_fract_y
 _atom_site_fract_z
 _atom_site_occupancy
  Ba  Ba0  1  0.50000000  0.50000000  0.74520700  1
  Dy  Dy0  1  0.50000000  0.50000000  0.20921200  1
  Fe  Fe0  1  0.00000000  0.00000000  0.44994700  1
  Cu  Cu0  1  0.00000000  0.00000000  0.99854600  1
  O  O0  1  0.50000000  0.00000000  0.02151600  1
  O  O1  1  0.00000000  0.50000000  0.02151600  1
  O  O2  1  0.50000000  0.00000000  0.37871000  1
  O  O3  1  0.00000000  0.50000000  0.37871000  1
  O  O4  1  0.00000000  0.00000000  0.68463600  1
loop_
_geom_bond_atom_site_label_1
_geom_bond_atom_site_label_2
_geom_bond_distance
_geom_bond_site_symmetry_2
Ba0 O4 2.796023 1_555
Ba0 O4 2.796023 1_655
Ba0 O4 2.796023 1_565
Ba0 O4 2.796023 1_665
Ba0 O0 2.938495 1_556
Ba0 O1 2.938495 1_556
Ba0 O0 2.938495 1_566
Ba0 O1 2.938495 1_656
Dy0 O3 2.369531 1_655
Dy0 O3 2.369531 1_555
Dy0 O2 2.369531 1_555
Dy0 O2 2.369531 1_565
Dy0 O0 2.454984 1_565
Dy0 O1 2.454984 1_655
Dy0 O0 2.454984 1_555
Dy0 O1 2.454984 1_555
Fe0 O4 1.869047 1_555
Fe0 O3 2.028395 1_545
Fe0 O2 2.028395 1_455
Fe0 O3 2.028395 1_555
Fe0 O2 2.028395 1_555
Cu0 O1 1.956014 1_556
Cu0 O1 1.956014 1_546
Cu0 O0 1.956014 1_456
Cu0 O0 1.956014 1_556
Cu0 O4 2.499957 1_555
