# generated using pymatgen
data_TbWClO4
_symmetry_space_group_name_H-M   'P 1'
_cell_length_a   6.38565914
_cell_length_b   6.38565914
_cell_length_c   7.00273821
_cell_angle_alpha   75.72854624
_cell_angle_beta   75.72854624
_cell_angle_gamma   70.73913718
_symmetry_Int_Tables_number   1
_chemical_formula_structural   TbWClO4
_chemical_formula_sum   'Tb2 W2 Cl2 O8'
_cell_volume   256.95178268
_cell_formula_units_Z   2
loop_
 _symmetry_equiv_pos_site_id
 _symmetry_equiv_pos_as_xyz
  1  'x, y, z'
loop_
 _atom_site_type_symbol
 _atom_site_label
 _atom_site_symmetry_multiplicity
 _atom_site_fract_x
 _atom_site_fract_y
 _atom_site_fract_z
 _atom_site_occupancy
  Tb  Tb0  1  0.77750600  0.77750600  0.11834700  1
  Tb  Tb1  1  0.22249400  0.22249400  0.88165300  1
  W  W0  1  0.63663100  0.63663100  0.73397400  1
  W  W1  1  0.36336900  0.36336900  0.26602600  1
  Cl  Cl0  1  0.98849200  0.98849200  0.77061100  1
  Cl  Cl1  1  0.01150800  0.01150800  0.22938900  1
  O  O0  1  0.70441200  0.70441200  0.46578500  1
  O  O1  1  0.29558800  0.29558800  0.53421500  1
  O  O2  1  0.54492100  0.54492100  0.19560500  1
  O  O3  1  0.45507900  0.45507900  0.80439500  1
  O  O4  1  0.10890500  0.49173000  0.15416100  1
  O  O5  1  0.49173000  0.10890500  0.15416100  1
  O  O6  1  0.89109500  0.50827000  0.84583900  1
  O  O7  1  0.50827000  0.89109500  0.84583900  1
loop_
_geom_bond_atom_site_label_1
_geom_bond_atom_site_label_2
_geom_bond_distance
_geom_bond_site_symmetry_2
Cl0 Tb0 2.742730 1_556
Cl0 Tb1 2.772918 1_665
Cl1 Tb1 2.742730 1_554
Cl1 Tb0 2.772918 1_445
O0 W0 1.795502 1_555
O0 Tb0 2.319316 1_555
O1 W1 1.795502 1_555
O1 Tb1 2.319316 1_555
O2 W1 1.803954 1_555
O2 Tb0 2.316753 1_555
O3 W0 1.803954 1_555
O3 Tb1 2.316753 1_555
O4 W1 1.832534 1_555
O4 Tb0 2.315081 1_455
O4 Tb1 2.689973 1_554
O5 W1 1.832534 1_555
O5 Tb0 2.315081 1_545
O5 Tb1 2.689973 1_554
O6 W0 1.832534 1_555
O6 Tb1 2.315081 1_655
O6 Tb0 2.689973 1_556
O7 W0 1.832534 1_555
O7 Tb1 2.315081 1_565
O7 Tb0 2.689973 1_556
