# generated using pymatgen
data_Ho2NiSb4
_symmetry_space_group_name_H-M   'P 1'
_cell_length_a   4.30380644
_cell_length_b   4.30380644
_cell_length_c   9.28525935
_cell_angle_alpha   90.00000000
_cell_angle_beta   90.00000000
_cell_angle_gamma   90.00000000
_symmetry_Int_Tables_number   1
_chemical_formula_structural   Ho2NiSb4
_chemical_formula_sum   'Ho2 Ni1 Sb4'
_cell_volume   171.98853645
_cell_formula_units_Z   1
loop_
 _symmetry_equiv_pos_site_id
 _symmetry_equiv_pos_as_xyz
  1  'x, y, z'
loop_
 _atom_site_type_symbol
 _atom_site_label
 _atom_site_symmetry_multiplicity
 _atom_site_fract_x
 _atom_site_fract_y
 _atom_site_fract_z
 _atom_site_occupancy
  Ho  Ho0  1  0.50000000  -0.00000000  0.23457108  1
  Ho  Ho1  1  -0.00000000  0.50000000  0.76542892  1
  Ni  Ni0  1  0.50000000  0.50000000  0.00000000  1
  Sb  Sb0  1  0.50000000  0.50000000  0.50000000  1
  Sb  Sb1  1  0.00000000  -0.00000000  0.50000000  1
  Sb  Sb2  1  0.50000000  -0.00000000  0.87083945  1
  Sb  Sb3  1  -0.00000000  0.50000000  0.12916055  1
loop_
_geom_bond_atom_site_label_1
_geom_bond_atom_site_label_2
_geom_bond_distance
_geom_bond_site_symmetry_2
Ho0 Ni0 3.061797 1_555
Ho0 Ni0 3.061797 1_545
Ho0 Sb3 3.196772 1_545
Ho0 Sb3 3.196772 1_555
Ho0 Sb3 3.196772 1_645
Ho0 Sb3 3.196772 1_655
Ho0 Sb1 3.271823 1_555
Ho0 Sb0 3.271823 1_545
Ho0 Sb1 3.271823 1_655
Ho0 Sb0 3.271823 1_555
Ho0 Sb2 3.377343 1_554
Ho1 Ni0 3.061797 1_456
Ho1 Ni0 3.061797 1_556
Ho1 Sb2 3.196772 1_565
Ho1 Sb2 3.196772 1_465
Ho1 Sb2 3.196772 1_555
Ho1 Sb2 3.196772 1_455
Ho1 Sb1 3.271823 1_565
Ho1 Sb0 3.271823 1_455
Ho1 Sb0 3.271823 1_555
Ho1 Sb1 3.271823 1_555
Ho1 Sb3 3.377343 1_556
Ni0 Sb3 2.463530 1_555
Ni0 Sb3 2.463530 1_655
Ni0 Sb2 2.463530 1_554
Ni0 Sb2 2.463530 1_564
Sb0 Sb1 3.043251 1_555
Sb0 Sb1 3.043251 1_655
Sb0 Sb1 3.043251 1_565
Sb0 Sb1 3.043251 1_665
