# generated using pymatgen
data_Dy5BiPd2
_symmetry_space_group_name_H-M   'P 1'
_cell_length_a   8.76980473
_cell_length_b   8.76980473
_cell_length_c   8.76980473
_cell_angle_alpha   127.13826101
_cell_angle_beta   127.13826101
_cell_angle_gamma   78.02523107
_symmetry_Int_Tables_number   1
_chemical_formula_structural   Dy5BiPd2
_chemical_formula_sum   'Dy10 Bi2 Pd4'
_cell_volume   415.34083732
_cell_formula_units_Z   2
loop_
 _symmetry_equiv_pos_site_id
 _symmetry_equiv_pos_as_xyz
  1  'x, y, z'
loop_
 _atom_site_type_symbol
 _atom_site_label
 _atom_site_symmetry_multiplicity
 _atom_site_fract_x
 _atom_site_fract_y
 _atom_site_fract_z
 _atom_site_occupancy
  Dy  Dy0  1  -0.00000000  0.00000000  0.00000000  1
  Dy  Dy1  1  0.50000000  0.50000000  0.00000000  1
  Dy  Dy2  1  0.79377507  0.29377507  0.80813352  1
  Dy  Dy3  1  0.20622493  0.70622493  0.19186648  1
  Dy  Dy4  1  0.48564156  0.98564156  0.19186648  1
  Dy  Dy5  1  0.29377507  0.48564156  0.50000000  1
  Dy  Dy6  1  0.01435844  0.20622493  0.50000000  1
  Dy  Dy7  1  0.51435844  0.01435844  0.80813352  1
  Dy  Dy8  1  0.70622493  0.51435844  0.50000000  1
  Dy  Dy9  1  0.98564156  0.79377507  0.50000000  1
  Bi  Bi0  1  0.25000000  0.25000000  0.00000000  1
  Bi  Bi1  1  0.75000000  0.75000000  0.00000000  1
  Pd  Pd0  1  0.13692935  0.63692935  0.77385871  1
  Pd  Pd1  1  0.86307065  0.36307065  0.22614129  1
  Pd  Pd2  1  0.63692935  0.86307065  0.50000000  1
  Pd  Pd3  1  0.36307065  0.13692935  0.50000000  1
loop_
_geom_bond_atom_site_label_1
_geom_bond_atom_site_label_2
_geom_bond_distance
_geom_bond_site_symmetry_2
Dy0 Pd1 3.029451 1_455
Dy0 Pd0 3.029451 1_544
Dy0 Pd3 3.029451 1_555
Dy0 Pd2 3.029451 1_444
Dy1 Pd0 3.029451 1_554
Dy1 Pd1 3.029451 1_555
Dy1 Pd2 3.029451 1_555
Dy1 Pd3 3.029451 1_554
Dy2 Pd2 2.967234 1_545
Dy2 Pd3 2.967234 1_555
Dy2 Pd1 2.991710 1_556
Dy3 Pd3 2.967234 1_565
Dy3 Pd2 2.967234 1_555
Dy3 Pd0 2.991710 1_554
Dy4 Pd2 2.967235 1_555
Dy4 Pd3 2.967235 1_565
Dy4 Pd0 2.991710 1_554
Dy5 Pd1 2.967234 1_455
Dy5 Pd0 2.967235 1_555
Dy5 Pd3 2.991710 1_555
Dy6 Pd0 2.967234 1_555
Dy6 Pd1 2.967235 1_455
Dy6 Pd3 2.991710 1_555
Dy7 Pd3 2.967235 1_555
Dy7 Pd2 2.967235 1_545
Dy7 Pd1 2.991710 1_556
Dy8 Pd0 2.967234 1_655
Dy8 Pd1 2.967235 1_555
Dy8 Pd2 2.991710 1_555
Dy9 Pd1 2.967234 1_555
Dy9 Pd0 2.967235 1_655
Dy9 Pd2 2.991710 1_555
Bi0 Dy7 3.316662 1_554
Bi0 Dy4 3.316662 1_545
Bi0 Dy9 3.316662 1_444
Bi0 Dy8 3.316662 1_555
Bi0 Dy5 3.316662 1_555
Bi0 Dy6 3.316662 1_554
Bi0 Dy2 3.316662 1_454
Bi0 Dy3 3.316662 1_555
Bi0 Dy1 3.407101 1_555
Bi0 Dy0 3.407101 1_555
Bi1 Dy4 3.316662 1_555
Bi1 Dy7 3.316662 1_564
Bi1 Dy5 3.316662 1_554
Bi1 Dy9 3.316662 1_555
Bi1 Dy8 3.316662 1_554
Bi1 Dy6 3.316662 1_665
Bi1 Dy2 3.316662 1_554
Bi1 Dy3 3.316662 1_655
Bi1 Dy1 3.407101 1_555
Bi1 Dy0 3.407101 1_665
