# generated using pymatgen
data_TeMoWSe2S
_symmetry_space_group_name_H-M   'P 1'
_cell_length_a   3.34353007
_cell_length_b   3.34353007
_cell_length_c   38.06416700
_cell_angle_alpha   90.00000000
_cell_angle_beta   90.00000000
_cell_angle_gamma   120.00000140
_symmetry_Int_Tables_number   1
_chemical_formula_structural   TeMoWSe2S
_chemical_formula_sum   'Te2 Mo2 W2 Se4 S2'
_cell_volume   368.51691139
_cell_formula_units_Z   2
loop_
 _symmetry_equiv_pos_site_id
 _symmetry_equiv_pos_as_xyz
  1  'x, y, z'
loop_
 _atom_site_type_symbol
 _atom_site_label
 _atom_site_symmetry_multiplicity
 _atom_site_fract_x
 _atom_site_fract_y
 _atom_site_fract_z
 _atom_site_occupancy
  Te  Te0  1  0.33333300  0.66666700  0.41958800  1
  Te  Te1  1  0.33333300  0.66666700  0.51975900  1
  Mo  Mo0  1  0.00000000  0.00000000  0.09391500  1
  Mo  Mo1  1  0.33333300  0.66666700  0.28175900  1
  W  W0  1  0.00000000  0.00000000  0.46967100  1
  W  W1  1  0.33333300  0.66666700  0.65755300  1
  Se  Se0  1  0.00000000  0.00000000  0.32552500  1
  Se  Se1  1  0.33333300  0.66666700  0.05018900  1
  Se  Se2  1  0.33333300  0.66666700  0.13765300  1
  Se  Se3  1  0.00000000  0.00000000  0.23805100  1
  S  S0  1  0.00000000  0.00000000  0.69756500  1
  S  S1  1  0.00000000  0.00000000  0.61752000  1
loop_
_geom_bond_atom_site_label_1
_geom_bond_atom_site_label_2
_geom_bond_distance
_geom_bond_site_symmetry_2
Te0 W0 2.713048 1_565
Te0 W0 2.713050 1_555
Te0 W0 2.713050 1_665
Te1 W0 2.713181 1_565
Te1 W0 2.713184 1_665
Te1 W0 2.713184 1_555
Mo0 Se1 2.548842 1_545
Mo0 Se1 2.548844 1_445
Mo0 Se1 2.548844 1_555
Mo0 Se2 2.549141 1_545
Mo0 Se2 2.549143 1_445
Mo0 Se2 2.549143 1_555
Mo1 Se3 2.548395 1_565
Mo1 Se3 2.548397 1_555
Mo1 Se3 2.548397 1_665
Mo1 Se0 2.549837 1_565
Mo1 Se0 2.549839 1_555
Mo1 Se0 2.549839 1_665
S0 W1 2.458860 1_545
S0 W1 2.458862 1_555
S0 W1 2.458862 1_445
S1 W1 2.459355 1_545
S1 W1 2.459357 1_555
S1 W1 2.459357 1_445
