# generated using pymatgen
data_LiCr4InS8
_symmetry_space_group_name_H-M   'P 1'
_cell_length_a   7.23152448
_cell_length_b   7.23152448
_cell_length_c   7.23152448
_cell_angle_alpha   60.00000000
_cell_angle_beta   60.00000000
_cell_angle_gamma   60.00000000
_symmetry_Int_Tables_number   1
_chemical_formula_structural   LiCr4InS8
_chemical_formula_sum   'Li1 Cr4 In1 S8'
_cell_volume   267.40811633
_cell_formula_units_Z   1
loop_
 _symmetry_equiv_pos_site_id
 _symmetry_equiv_pos_as_xyz
  1  'x, y, z'
loop_
 _atom_site_type_symbol
 _atom_site_label
 _atom_site_symmetry_multiplicity
 _atom_site_fract_x
 _atom_site_fract_y
 _atom_site_fract_z
 _atom_site_occupancy
  Li  Li0  1  0.00000000  0.00000000  0.00000000  1
  Cr  Cr0  1  0.37033300  0.37033300  0.37033300  1
  Cr  Cr1  1  0.37033300  0.37033300  0.88900000  1
  Cr  Cr2  1  0.37033300  0.88900000  0.37033300  1
  Cr  Cr3  1  0.88900000  0.37033300  0.37033300  1
  In  In0  1  0.75000000  0.75000000  0.75000000  1
  S  S0  1  0.13750800  0.13750800  0.13750800  1
  S  S1  1  0.13750800  0.13750800  0.58747600  1
  S  S2  1  0.13750800  0.58747600  0.13750800  1
  S  S3  1  0.58747600  0.13750800  0.13750800  1
  S  S4  1  0.60961100  0.60961100  0.60961100  1
  S  S5  1  0.60961100  0.60961100  0.17116800  1
  S  S6  1  0.60961100  0.17116800  0.60961100  1
  S  S7  1  0.17116800  0.60961100  0.60961100  1
loop_
_geom_bond_atom_site_label_1
_geom_bond_atom_site_label_2
_geom_bond_distance
_geom_bond_site_symmetry_2
Li0 S3 2.435754 1_455
Li0 S0 2.435754 1_555
Li0 S1 2.435754 1_554
Li0 S2 2.435754 1_545
Cr0 S1 2.383782 1_555
Cr0 S3 2.383782 1_555
Cr0 S2 2.383782 1_555
Cr0 S7 2.464210 1_555
Cr0 S5 2.464210 1_555
Cr0 S6 2.464210 1_555
Cr1 S0 2.383782 1_556
Cr1 S2 2.383787 1_556
Cr1 S3 2.383787 1_556
Cr1 S6 2.464199 1_555
Cr1 S7 2.464199 1_555
Cr1 S4 2.464208 1_555
Cr2 S0 2.383782 1_565
Cr2 S1 2.383787 1_565
Cr2 S3 2.383787 1_565
Cr2 S5 2.464199 1_555
Cr2 S7 2.464199 1_555
Cr2 S4 2.464208 1_555
Cr3 S0 2.383782 1_655
Cr3 S2 2.383787 1_655
Cr3 S1 2.383787 1_655
Cr3 S5 2.464199 1_555
Cr3 S6 2.464199 1_555
Cr3 S4 2.464208 1_555
In0 S4 2.486787 1_555
In0 S5 2.486793 1_556
In0 S7 2.486793 1_655
In0 S6 2.486793 1_565
