# generated using pymatgen
data_S3(NO2)2
_symmetry_space_group_name_H-M   'P 1'
_cell_length_a   6.32902151
_cell_length_b   7.22964338
_cell_length_c   13.88847800
_cell_angle_alpha   90.00000000
_cell_angle_beta   90.00000000
_cell_angle_gamma   108.76155860
_symmetry_Int_Tables_number   1
_chemical_formula_structural   S3(NO2)2
_chemical_formula_sum   'S12 N8 O16'
_cell_volume   601.72254948
_cell_formula_units_Z   4
loop_
 _symmetry_equiv_pos_site_id
 _symmetry_equiv_pos_as_xyz
  1  'x, y, z'
loop_
 _atom_site_type_symbol
 _atom_site_label
 _atom_site_symmetry_multiplicity
 _atom_site_fract_x
 _atom_site_fract_y
 _atom_site_fract_z
 _atom_site_occupancy
  S  S0  1  0.90099200  0.85922600  0.85197900  1
  S  S1  1  0.09900800  0.14077400  0.14802100  1
  S  S2  1  0.09900800  0.64077400  0.35197900  1
  S  S3  1  0.90099200  0.35922600  0.64802100  1
  S  S4  1  0.71516900  0.94330900  0.39153200  1
  S  S5  1  0.28483100  0.05669100  0.60846800  1
  S  S6  1  0.28483100  0.55669100  0.89153200  1
  S  S7  1  0.71516900  0.44330900  0.10846800  1
  S  S8  1  0.50889500  0.74891400  0.57787400  1
  S  S9  1  0.49110500  0.25108600  0.42212600  1
  S  S10  1  0.49110500  0.75108600  0.07787400  1
  S  S11  1  0.50889500  0.24891400  0.92212600  1
  N  N0  1  0.63991900  0.80597500  0.48118700  1
  N  N1  1  0.36008100  0.19402500  0.51881300  1
  N  N2  1  0.36008100  0.69402500  0.98118700  1
  N  N3  1  0.63991900  0.30597500  0.01881300  1
  N  N4  1  0.37072600  0.87741700  0.61547100  1
  N  N5  1  0.62927400  0.12258300  0.38452900  1
  N  N6  1  0.62927400  0.62258300  0.11547100  1
  N  N7  1  0.37072600  0.37741700  0.88452900  1
  O  O0  1  0.86031200  0.52692500  0.59558700  1
  O  O1  1  0.13968800  0.47307500  0.40441300  1
  O  O2  1  0.13968800  0.97307500  0.09558700  1
  O  O3  1  0.86031200  0.02692500  0.90441300  1
  O  O4  1  0.84018700  0.68295900  0.91326600  1
  O  O5  1  0.15981300  0.31704100  0.08673400  1
  O  O6  1  0.15981300  0.81704100  0.41326600  1
  O  O7  1  0.84018700  0.18295900  0.58673400  1
  O  O8  1  0.73195200  0.83108400  0.77241500  1
  O  O9  1  0.26804800  0.16891600  0.22758500  1
  O  O10  1  0.26804800  0.66891600  0.27241500  1
  O  O11  1  0.73195200  0.33108400  0.72758500  1
  O  O12  1  0.87030500  0.58839700  0.31557300  1
  O  O13  1  0.12969500  0.41160300  0.68442700  1
  O  O14  1  0.12969500  0.91160300  0.81557300  1
  O  O15  1  0.87030500  0.08839700  0.18442700  1
loop_
_geom_bond_atom_site_label_1
_geom_bond_atom_site_label_2
_geom_bond_distance
_geom_bond_site_symmetry_2
N0 S8 1.562368 1_555
N0 S4 1.568088 1_555
N1 S9 1.562368 1_555
N1 S5 1.568088 1_555
N2 S10 1.562368 1_556
N2 S6 1.568088 1_555
N3 S11 1.562368 1_554
N3 S7 1.568088 1_555
N4 S8 1.556616 1_555
N4 S5 1.561433 1_565
N5 S9 1.556616 1_555
N5 S4 1.561433 1_545
N6 S10 1.556616 1_555
N6 S7 1.561433 1_555
N7 S11 1.556616 1_555
N7 S6 1.561433 1_555
O0 S3 1.505763 1_555
O1 S2 1.505763 1_555
O2 S1 1.505763 1_565
O3 S0 1.505763 1_545
O4 S0 1.476858 1_555
O5 S1 1.476858 1_555
O6 S2 1.476858 1_555
O7 S3 1.476858 1_555
O8 S0 1.505672 1_555
O9 S1 1.505672 1_555
O10 S2 1.505672 1_555
O11 S3 1.505672 1_555
O12 S2 1.463430 1_655
O13 S3 1.463430 1_455
O14 S0 1.463430 1_455
O15 S1 1.463430 1_655
