# generated using pymatgen
data_Li3Mn2O5
_symmetry_space_group_name_H-M   'P 1'
_cell_length_a   2.95586679
_cell_length_b   6.00106652
_cell_length_c   10.42886317
_cell_angle_alpha   97.54744963
_cell_angle_beta   96.99054352
_cell_angle_gamma   93.16329005
_symmetry_Int_Tables_number   1
_chemical_formula_structural   Li3Mn2O5
_chemical_formula_sum   'Li6 Mn4 O10'
_cell_volume   181.54818588
_cell_formula_units_Z   2
loop_
 _symmetry_equiv_pos_site_id
 _symmetry_equiv_pos_as_xyz
  1  'x, y, z'
loop_
 _atom_site_type_symbol
 _atom_site_label
 _atom_site_symmetry_multiplicity
 _atom_site_fract_x
 _atom_site_fract_y
 _atom_site_fract_z
 _atom_site_occupancy
  Li  Li0  1  0.60000600  0.30005000  0.19997900  1
  Li  Li1  1  0.60007100  0.80003500  0.19997500  1
  Li  Li2  1  0.00394800  0.51599200  0.01902200  1
  Li  Li3  1  0.19598200  0.08418300  0.38090800  1
  Li  Li4  1  0.39619000  0.70398300  0.80230400  1
  Li  Li5  1  0.80387000  0.89607000  0.59765000  1
  Mn  Mn0  1  0.18325500  0.60480500  0.39033300  1
  Mn  Mn1  1  0.79053700  0.40239000  0.60032800  1
  Mn  Mn2  1  0.01639900  0.99511400  0.00965700  1
  Mn  Mn3  1  0.40947600  0.19739900  0.79983900  1
  O  O0  1  0.52851500  0.21847800  0.99529100  1
  O  O1  1  0.67153200  0.38154200  0.40472100  1
  O  O2  1  0.09416300  0.04878300  0.18629700  1
  O  O3  1  0.10602700  0.55123400  0.21365700  1
  O  O4  1  0.86455100  0.44044000  0.79538300  1
  O  O5  1  0.33541400  0.15953300  0.60467200  1
  O  O6  1  0.25116800  0.63818600  0.58914600  1
  O  O7  1  0.94881000  0.96177700  0.81086600  1
  O  O8  1  0.70816600  0.81912600  0.39871900  1
  O  O9  1  0.49192100  0.78088200  0.00125300  1
loop_
_geom_bond_atom_site_label_1
_geom_bond_atom_site_label_2
_geom_bond_distance
_geom_bond_site_symmetry_2
Li0 O2 2.042644 1_555
Li0 O3 2.042665 1_655
Li0 O0 2.108400 1_554
Li0 O1 2.108897 1_555
Li0 O3 2.159082 1_555
Li0 O2 2.159827 1_655
Li1 O9 2.045125 1_555
Li1 O8 2.045379 1_555
Li1 O2 2.060989 1_665
Li1 O3 2.061124 1_555
Li1 O2 2.176062 1_565
Li1 O3 2.176400 1_655
Li2 O3 1.996761 1_555
Li2 O9 2.128640 1_555
Li2 O0 2.178573 1_454
Li2 O9 2.264179 1_455
Li2 O4 2.298401 1_454
Li2 O0 2.436385 1_554
Li3 O2 1.996464 1_555
Li3 O8 2.129179 1_445
Li3 O1 2.177999 1_555
Li3 O8 2.265295 1_545
Li3 O5 2.299601 1_555
Li3 O1 2.435516 1_455
Li4 O9 2.046713 1_556
Li4 O7 2.090040 1_455
Li4 O4 2.155008 1_455
Li4 O4 2.158483 1_555
Li4 O7 2.172290 1_555
Li4 O6 2.190927 1_555
Li5 O8 2.046554 1_555
Li5 O6 2.090278 1_655
Li5 O5 2.154325 1_665
Li5 O5 2.158326 1_565
Li5 O6 2.172908 1_555
Li5 O7 2.191477 1_555
Mn0 O3 1.812262 1_555
Mn0 O8 1.945864 1_555
Mn0 O8 1.957953 1_455
Mn0 O1 1.997481 1_455
Mn0 O1 2.028348 1_555
Mn0 O6 2.040718 1_555
Mn1 O6 1.933681 1_655
Mn1 O5 1.936919 1_555
Mn1 O4 2.000530 1_555
Mn1 O1 2.013517 1_555
Mn1 O6 2.191980 1_555
Mn1 O5 2.231297 1_655
Mn2 O2 1.811905 1_565
Mn2 O9 1.944545 1_455
Mn2 O9 1.958564 1_555
Mn2 O0 1.998657 1_564
Mn2 O0 2.027903 1_464
Mn2 O7 2.040531 1_454
Mn3 O7 1.932628 1_445
Mn3 O4 1.937860 1_555
Mn3 O5 2.001710 1_555
Mn3 O0 2.011821 1_555
Mn3 O7 2.191099 1_545
Mn3 O4 2.232194 1_455
