# generated using pymatgen
data_Gd2AlFe3
_symmetry_space_group_name_H-M   'P 1'
_cell_length_a   5.22722679
_cell_length_b   5.22722679
_cell_length_c   5.22722652
_cell_angle_alpha   60.42902743
_cell_angle_beta   60.42902743
_cell_angle_gamma   60.42903602
_symmetry_Int_Tables_number   1
_chemical_formula_structural   Gd2AlFe3
_chemical_formula_sum   'Gd2 Al1 Fe3'
_cell_volume   101.97450117
_cell_formula_units_Z   1
loop_
 _symmetry_equiv_pos_site_id
 _symmetry_equiv_pos_as_xyz
  1  'x, y, z'
loop_
 _atom_site_type_symbol
 _atom_site_label
 _atom_site_symmetry_multiplicity
 _atom_site_fract_x
 _atom_site_fract_y
 _atom_site_fract_z
 _atom_site_occupancy
  Gd  Gd0  1  0.62259400  0.62259400  0.62259400  1
  Gd  Gd1  1  0.37740600  0.37740600  0.37740600  1
  Al  Al0  1  0.00000000  0.00000000  0.00000000  1
  Fe  Fe0  1  0.00000000  0.50000000  0.00000000  1
  Fe  Fe1  1  0.50000000  0.00000000  0.00000000  1
  Fe  Fe2  1  0.00000000  0.00000000  0.50000000  1
loop_
_geom_bond_atom_site_label_1
_geom_bond_atom_site_label_2
_geom_bond_distance
_geom_bond_site_symmetry_2
Gd0 Gd1 3.129179 1_555
Gd0 Gd1 3.239111 1_556
Gd0 Gd1 3.239112 1_565
Gd0 Gd1 3.239112 1_655
Al0 Fe2 2.613613 1_554
Al0 Fe2 2.613613 1_555
Al0 Fe1 2.613613 1_555
Al0 Fe0 2.613613 1_555
Al0 Fe1 2.613613 1_455
Al0 Fe0 2.613613 1_545
Al0 Gd1 3.089129 1_554
Al0 Gd0 3.089129 1_445
Al0 Gd1 3.089130 1_545
Al0 Gd0 3.089130 1_454
Al0 Gd0 3.089130 1_544
Al0 Gd1 3.089130 1_455
Fe0 Fe2 2.630544 1_564
Fe0 Fe2 2.630544 1_555
Fe0 Fe1 2.630544 1_555
Fe0 Fe1 2.630544 1_465
Fe0 Gd0 3.060670 1_455
Fe0 Gd1 3.060670 1_554
Fe0 Gd0 3.060670 1_554
Fe0 Gd1 3.060670 1_455
Fe0 Gd0 3.088717 1_454
Fe0 Gd1 3.088717 1_555
Fe1 Fe2 2.630544 1_654
Fe1 Fe2 2.630544 1_555
Fe1 Gd1 3.060670 1_554
Fe1 Gd0 3.060670 1_545
Fe1 Gd0 3.060670 1_554
Fe1 Gd1 3.060670 1_545
Fe1 Gd0 3.088717 1_544
Fe1 Gd1 3.088717 1_555
Fe2 Gd0 3.060670 1_545
Fe2 Gd1 3.060670 1_455
Fe2 Gd0 3.060670 1_455
Fe2 Gd1 3.060670 1_545
Fe2 Gd0 3.088717 1_445
Fe2 Gd1 3.088717 1_555
