# generated using pymatgen
data_ZnS
_symmetry_space_group_name_H-M   'P 1'
_cell_length_a   13.06276429
_cell_length_b   13.22380334
_cell_length_c   13.33121300
_cell_angle_alpha   88.50628605
_cell_angle_beta   87.53079457
_cell_angle_gamma   87.77597464
_symmetry_Int_Tables_number   1
_chemical_formula_structural   ZnS
_chemical_formula_sum   'Zn50 S50'
_cell_volume   2298.26841901
_cell_formula_units_Z   50
loop_
 _symmetry_equiv_pos_site_id
 _symmetry_equiv_pos_as_xyz
  1  'x, y, z'
loop_
 _atom_site_type_symbol
 _atom_site_label
 _atom_site_symmetry_multiplicity
 _atom_site_fract_x
 _atom_site_fract_y
 _atom_site_fract_z
 _atom_site_occupancy
  Zn  Zn0  1  0.01419465  0.41273131  0.05377923  1
  Zn  Zn1  1  0.37457499  0.22246981  0.13459092  1
  Zn  Zn2  1  0.47296013  0.12846260  0.93870230  1
  Zn  Zn3  1  0.05994006  0.93611094  0.04261470  1
  Zn  Zn4  1  0.48917625  0.08424742  0.56451854  1
  Zn  Zn5  1  0.58696800  0.59823457  0.95308603  1
  Zn  Zn6  1  0.55932325  0.97946286  0.13766303  1
  Zn  Zn7  1  0.71078312  0.25171892  0.36369258  1
  Zn  Zn8  1  0.77715694  0.84006823  0.67706585  1
  Zn  Zn9  1  0.29420790  0.82067756  0.02354502  1
  Zn  Zn10  1  0.40470896  0.01275541  0.33512950  1
  Zn  Zn11  1  0.87384856  0.23250941  0.91892013  1
  Zn  Zn12  1  0.21117968  0.47656699  0.68016363  1
  Zn  Zn13  1  0.89412068  0.60375754  0.25915604  1
  Zn  Zn14  1  0.69546404  0.38700877  0.76681443  1
  Zn  Zn15  1  0.48444079  0.36712003  0.95508161  1
  Zn  Zn16  1  0.41788351  0.57351024  0.07012253  1
  Zn  Zn17  1  0.82333852  0.19931689  0.62471189  1
  Zn  Zn18  1  0.95718635  0.21875622  0.16074774  1
  Zn  Zn19  1  0.45273218  0.89691722  0.96883452  1
  Zn  Zn20  1  0.20969558  0.96852907  0.37255950  1
  Zn  Zn21  1  0.18414118  0.91750100  0.62071758  1
  Zn  Zn22  1  0.73381526  0.43081281  0.15727167  1
  Zn  Zn23  1  0.95005894  0.09354222  0.41135090  1
  Zn  Zn24  1  0.61439848  0.50125500  0.40090237  1
  Zn  Zn25  1  0.96401795  0.85711220  0.45261813  1
  Zn  Zn26  1  0.69877349  0.03759791  0.84706819  1
  Zn  Zn27  1  0.98069223  0.36735678  0.40709923  1
  Zn  Zn28  1  0.79602075  0.63892989  0.49724006  1
  Zn  Zn29  1  0.23325207  0.23856356  0.82961708  1
  Zn  Zn30  1  0.11048500  0.18982815  0.59665588  1
  Zn  Zn31  1  0.40458859  0.22050587  0.65043922  1
  Zn  Zn32  1  0.76673601  0.95910577  0.27806453  1
  Zn  Zn33  1  0.28157905  0.14486135  0.99427472  1
  Zn  Zn34  1  0.69641735  0.66611957  0.74636397  1
  Zn  Zn35  1  0.37264401  0.96669799  0.14683581  1
  Zn  Zn36  1  0.63217971  0.71478591  0.26004104  1
  Zn  Zn37  1  0.19029124  0.74122045  0.19991724  1
  Zn  Zn38  1  0.43970320  0.58648784  0.61301560  1
  Zn  Zn39  1  0.22313626  0.24620202  0.34242076  1
  Zn  Zn40  1  0.16396217  0.64397226  0.89865850  1
  Zn  Zn41  1  0.35305813  0.83493877  0.39051786  1
  Zn  Zn42  1  0.01967049  0.46881102  0.83830095  1
  Zn  Zn43  1  0.94651080  0.00835451  0.70367147  1
  Zn  Zn44  1  0.58933170  0.81891002  0.65772078  1
  Zn  Zn45  1  0.85067216  0.67252234  0.00565598  1
  Zn  Zn46  1  0.92566907  0.46136812  0.63615139  1
  Zn  Zn47  1  0.41044049  0.59235959  0.87873768  1
  Zn  Zn48  1  0.10031918  0.19811625  0.97391823  1
  Zn  Zn49  1  0.24125902  0.51088943  0.42573256  1
  S  S0  1  0.42838442  0.99570280  0.82352103  1
  S  S1  1  0.56611538  0.99908166  0.41645179  1
  S  S2  1  0.40655941  0.39387644  0.10481492  1
  S  S3  1  0.50642242  0.66148180  0.74382023  1
  S  S4  1  0.38447569  0.18865451  0.30387227  1
  S  S5  1  0.93341112  0.95327792  0.31153354  1
  S  S6  1  0.36119378  0.94679708  0.59419549  1
  S  S7  1  0.11114924  0.05264602  0.70927203  1
  S  S8  1  0.96367528  0.09377388  0.03190257  1
  S  S9  1  0.62224730  0.38210391  0.28321384  1
  S  S10  1  0.26823808  0.50579875  0.84294644  1
  S  S11  1  0.00505031  0.56915830  0.97662913  1
  S  S12  1  0.15244186  0.79758540  0.80658880  1
  S  S13  1  0.64251432  0.43014268  0.92662221  1
  S  S14  1  0.14181820  0.83793393  0.47557108  1
  S  S15  1  0.85124645  0.33635631  0.06426488  1
  S  S16  1  0.19568387  0.92416246  0.17493815  1
  S  S17  1  0.42064350  0.26438093  0.83795177  1
  S  S18  1  0.62609402  0.08545393  0.00432186  1
  S  S19  1  0.96057759  0.30198713  0.57499584  1
  S  S20  1  0.27666185  0.59487971  0.56041202  1
  S  S21  1  0.02339384  0.29735451  0.84164296  1
  S  S22  1  0.12914301  0.12255599  0.42568976  1
  S  S23  1  0.23546644  0.29694577  0.65928313  1
  S  S24  1  0.11974546  0.29271816  0.12484144  1
  S  S25  1  0.04731484  0.55662999  0.69314150  1
  S  S26  1  0.45429124  0.67951146  0.20568058  1
  S  S27  1  0.89312965  0.75371079  0.57184472  1
  S  S28  1  0.24918150  0.65649263  0.05363338  1
  S  S29  1  0.49844646  0.43563561  0.53046534  1
  S  S30  1  0.32463272  0.67901175  0.30933619  1
  S  S31  1  0.00906116  0.72478350  0.21011214  1
  S  S32  1  0.68370699  0.85768280  0.17521107  1
  S  S33  1  0.94503080  0.80416471  0.08756200  1
  S  S34  1  0.91772973  0.53533819  0.41088630  1
  S  S35  1  0.85779415  0.04159360  0.55783921  1
  S  S36  1  0.83722832  0.92750510  0.81228316  1
  S  S37  1  0.75994273  0.60320130  0.15571208  1
  S  S38  1  0.15068931  0.40572515  0.34303439  1
  S  S39  1  0.63560482  0.66608131  0.42861276  1
  S  S40  1  0.70943225  0.71591819  0.91167948  1
  S  S41  1  0.44645824  0.81952290  0.54008575  1
  S  S42  1  0.66386117  0.22681303  0.54101977  1
  S  S43  1  0.18616945  0.90745449  0.91063931  1
  S  S44  1  0.75717683  0.51977145  0.66121549  1
  S  S45  1  0.64572994  0.09415741  0.31041052  1
  S  S46  1  0.56511164  0.98969772  0.73579914  1
  S  S47  1  0.75905793  0.21443402  0.79145020  1
  S  S48  1  0.57513073  0.33161875  0.62556939  1
  S  S49  1  0.89084242  0.24134956  0.32604791  1
loop_
_geom_bond_atom_site_label_1
_geom_bond_atom_site_label_2
_geom_bond_distance
_geom_bond_site_symmetry_2
Zn1 Zn33 2.533906 1_554
Zn2 Zn33 2.579229 1_555
Zn29 Zn33 2.582475 1_555
Zn31 Zn4 2.371417 1_555
Zn33 Zn48 2.468165 1_555
S0 S46 2.092291 1_555
S0 Zn19 2.334374 1_555
S0 Zn2 2.464923 1_565
S1 S45 2.131398 1_565
S1 Zn10 2.410514 1_565
S1 Zn4 2.455990 1_565
S2 Zn15 2.231280 1_554
S2 Zn1 2.341394 1_555
S2 Zn16 2.417148 1_555
S3 Zn38 2.252117 1_555
S3 Zn47 2.334829 1_555
S3 Zn34 2.486706 1_555
S3 Zn44 2.601462 1_555
S4 Zn39 2.255552 1_555
S4 Zn1 2.297291 1_555
S4 Zn10 2.359082 1_555
S5 Zn32 2.239257 1_555
S5 Zn25 2.283673 1_555
S5 Zn23 2.333093 1_565
S6 Zn21 2.369823 1_555
S6 Zn4 2.529140 1_565
S7 Zn43 2.255598 1_455
S7 Zn21 2.318917 1_545
S7 Zn30 2.324386 1_555
S8 Zn48 2.388322 1_654
S8 Zn3 2.396863 1_645
S8 Zn18 2.411159 1_555
S8 Zn11 2.617707 1_554
S9 Zn24 2.248811 1_555
S9 Zn22 2.272315 1_555
S9 Zn7 2.305892 1_555
S10 Zn47 2.293100 1_555
S10 Zn40 2.352874 1_555
S10 Zn12 2.370595 1_555
S11 Zn0 2.287252 1_556
S11 Zn42 2.296852 1_555
S11 Zn45 2.414779 1_456
S11 Zn40 2.507615 1_555
S12 S43 2.106299 1_555
S12 Zn40 2.348988 1_555
S12 Zn21 2.929790 1_555
S13 Zn15 2.269756 1_555
S13 Zn14 2.290908 1_555
S13 Zn5 2.342113 1_555
S14 Zn21 2.323863 1_555
S14 Zn20 2.354727 1_555
S14 Zn25 2.358754 1_455
S15 Zn22 2.284459 1_555
S15 Zn0 2.388341 1_655
S15 Zn11 2.405271 1_554
S15 Zn18 2.422797 1_555
S16 Zn35 2.411533 1_555
S16 Zn37 2.436706 1_555
S16 Zn3 2.552297 1_555
S16 Zn9 2.717699 1_555
S16 Zn20 2.729274 1_555
S17 Zn15 2.299811 1_555
S17 Zn2 2.315042 1_555
S17 Zn29 2.492217 1_555
S17 Zn31 2.599940 1_555
S18 Zn2 2.264214 1_554
S18 Zn26 2.355354 1_554
S18 Zn6 2.390921 1_545
S19 Zn46 2.301662 1_555
S19 Zn17 2.352884 1_555
S19 Zn27 2.385834 1_555
S19 Zn30 2.432840 1_655
S20 Zn49 2.210529 1_555
S20 Zn38 2.268547 1_555
S20 Zn12 2.363062 1_555
S21 Zn42 2.265258 1_555
S21 Zn11 2.350155 1_455
S21 Zn48 2.402316 1_555
S21 Zn29 2.819258 1_555
S22 Zn39 2.314518 1_555
S22 Zn20 2.366892 1_545
S22 Zn23 2.401716 1_455
S22 Zn30 2.467079 1_555
S23 Zn29 2.378633 1_555
S23 Zn31 2.393052 1_555
S23 Zn30 2.393223 1_555
S23 Zn12 2.405919 1_555
S24 Zn0 2.276293 1_555
S24 Zn18 2.396677 1_455
S24 Zn48 2.424323 1_554
S25 Zn46 2.235715 1_455
S25 Zn42 2.253665 1_555
S25 Zn12 2.352544 1_555
S26 S30 2.139372 1_555
S26 Zn16 2.390548 1_555
S26 Zn36 2.527700 1_555
S27 Zn25 2.260884 1_555
S27 Zn28 2.288881 1_555
S27 Zn8 2.309302 1_555
S28 Zn9 2.292184 1_555
S28 Zn37 2.359646 1_555
S28 Zn40 2.401104 1_554
S28 Zn16 2.439327 1_555
S29 S48 2.101056 1_555
S29 Zn38 2.387925 1_555
S29 Zn24 2.414317 1_555
S30 Zn41 2.402324 1_555
S30 Zn37 2.435166 1_555
S30 Zn49 2.898113 1_555
S31 S33 2.104948 1_455
S31 Zn13 2.300112 1_455
S31 Zn37 2.383445 1_555
S32 Zn32 2.278627 1_555
S32 Zn36 2.285697 1_555
S32 Zn6 2.304098 1_555
S33 Zn3 2.393292 1_655
S33 Zn45 2.474582 1_555
S34 Zn13 2.223039 1_555
S34 Zn27 2.339632 1_555
S34 Zn28 2.341996 1_555
S35 Zn17 2.310194 1_555
S35 Zn43 2.329349 1_555
S35 Zn23 2.351532 1_555
S36 Zn43 2.266504 1_565
S36 Zn26 2.316062 1_565
S36 Zn8 2.345853 1_555
S37 Zn13 2.276766 1_555
S37 Zn22 2.317529 1_555
S37 Zn45 2.455833 1_555
S37 Zn36 2.571563 1_555
S38 Zn49 2.206608 1_555
S38 Zn39 2.278365 1_555
S38 Zn27 2.412363 1_455
S39 Zn24 2.249811 1_555
S39 Zn36 2.323357 1_555
S39 Zn28 2.333798 1_555
S40 Zn5 2.314735 1_555
S40 Zn45 2.319988 1_556
S40 Zn34 2.331562 1_555
S41 S6 2.107629 1_555
S41 Zn41 2.382216 1_555
S41 Zn44 2.488550 1_555
S42 S48 2.092581 1_555
S42 Zn17 2.416019 1_555
S42 Zn7 2.433683 1_555
S42 Zn4 3.016747 1_555
S43 Zn9 2.354007 1_556
S43 Zn3 2.386261 1_556
S44 Zn46 2.317447 1_555
S44 Zn34 2.362510 1_555
S44 Zn14 2.365818 1_555
S44 Zn28 2.702932 1_555
S45 Zn32 2.374072 1_545
S45 Zn7 2.415467 1_555
S46 Zn26 2.451128 1_565
S46 Zn44 2.514539 1_555
S46 Zn4 2.776880 1_565
S47 Zn11 2.337061 1_555
S47 Zn17 2.352720 1_555
S47 Zn14 2.417271 1_555
S47 Zn26 2.576904 1_555
S48 Zn14 2.639924 1_555
S48 Zn31 2.719699 1_555
S49 Zn18 2.355011 1_555
S49 Zn23 2.356797 1_555
S49 Zn27 2.382544 1_555
S49 Zn7 2.383222 1_555
