# generated using pymatgen
data_Zn2Ga2S5
_symmetry_space_group_name_H-M   'P 1'
_cell_length_a   3.74325395
_cell_length_b   3.74325395
_cell_length_c   30.38681400
_cell_angle_alpha   90.00000000
_cell_angle_beta   90.00000000
_cell_angle_gamma   119.99999913
_symmetry_Int_Tables_number   1
_chemical_formula_structural   Zn2Ga2S5
_chemical_formula_sum   'Zn4 Ga4 S10'
_cell_volume   368.73502026
_cell_formula_units_Z   2
loop_
 _symmetry_equiv_pos_site_id
 _symmetry_equiv_pos_as_xyz
  1  'x, y, z'
loop_
 _atom_site_type_symbol
 _atom_site_label
 _atom_site_symmetry_multiplicity
 _atom_site_fract_x
 _atom_site_fract_y
 _atom_site_fract_z
 _atom_site_occupancy
  Zn  Zn0  1  0.66666700  0.33333300  0.43252000  1
  Zn  Zn1  1  0.33333300  0.66666700  0.93252000  1
  Zn  Zn2  1  0.33333300  0.66666700  0.19075900  1
  Zn  Zn3  1  0.66666700  0.33333300  0.69075900  1
  Ga  Ga0  1  0.00000000  0.00000000  0.30985400  1
  Ga  Ga1  1  0.00000000  0.00000000  0.80985400  1
  Ga  Ga2  1  0.66666700  0.33333300  0.08396100  1
  Ga  Ga3  1  0.33333300  0.66666700  0.58396100  1
  S  S0  1  0.33333300  0.66666700  0.45692100  1
  S  S1  1  0.66666700  0.33333300  0.95692100  1
  S  S2  1  0.66666700  0.33333300  0.34913300  1
  S  S3  1  0.33333300  0.66666700  0.84913300  1
  S  S4  1  0.33333300  0.66666700  0.26430400  1
  S  S5  1  0.66666700  0.33333300  0.76430400  1
  S  S6  1  0.66666700  0.33333300  0.15960400  1
  S  S7  1  0.33333300  0.66666700  0.65960400  1
  S  S8  1  0.33333300  0.66666700  0.05494400  1
  S  S9  1  0.66666700  0.33333300  0.55494400  1
loop_
_geom_bond_atom_site_label_1
_geom_bond_atom_site_label_2
_geom_bond_distance
_geom_bond_site_symmetry_2
Ga0 S2 2.468853 1_455
Ga0 S2 2.468856 1_555
Ga0 S2 2.468856 1_445
Ga0 S4 2.566404 1_545
Ga0 S4 2.566406 1_445
Ga0 S4 2.566406 1_555
Ga1 S3 2.468853 1_545
Ga1 S3 2.468856 1_555
Ga1 S3 2.468856 1_445
Ga1 S5 2.566404 1_455
Ga1 S5 2.566406 1_555
Ga1 S5 2.566406 1_445
Ga2 S6 2.298550 1_555
Ga2 S8 2.334116 1_545
Ga2 S8 2.334116 1_655
Ga2 S8 2.334122 1_555
Ga3 S7 2.298550 1_555
Ga3 S9 2.334116 1_565
Ga3 S9 2.334116 1_455
Ga3 S9 2.334122 1_555
S0 Zn0 2.284823 1_455
S0 Zn0 2.284823 1_565
S0 Zn0 2.284829 1_555
S1 Zn1 2.284823 1_545
S1 Zn1 2.284823 1_655
S1 Zn1 2.284829 1_555
S2 Zn0 2.533865 1_555
S3 Zn1 2.533865 1_555
S4 Zn2 2.234798 1_555
S5 Zn3 2.234798 1_555
S6 Zn2 2.359424 1_545
S6 Zn2 2.359424 1_655
S6 Zn2 2.359430 1_555
S7 Zn3 2.359424 1_455
S7 Zn3 2.359424 1_565
S7 Zn3 2.359430 1_555
