# generated using pymatgen
data_Cs2SbF5
_symmetry_space_group_name_H-M   'P 1'
_cell_length_a   7.83693045
_cell_length_b   7.83693045
_cell_length_c   7.16008162
_cell_angle_alpha   90.00000000
_cell_angle_beta   90.00000000
_cell_angle_gamma   129.90692069
_symmetry_Int_Tables_number   1
_chemical_formula_structural   Cs2SbF5
_chemical_formula_sum   'Cs4 Sb2 F10'
_cell_volume   337.32999383
_cell_formula_units_Z   2
loop_
 _symmetry_equiv_pos_site_id
 _symmetry_equiv_pos_as_xyz
  1  'x, y, z'
loop_
 _atom_site_type_symbol
 _atom_site_label
 _atom_site_symmetry_multiplicity
 _atom_site_fract_x
 _atom_site_fract_y
 _atom_site_fract_z
 _atom_site_occupancy
  Cs  Cs0  1  0.23954576  0.76045424  0.25000000  1
  Cs  Cs1  1  0.76045424  0.23954576  0.75000000  1
  Cs  Cs2  1  0.55841875  0.44158125  0.25000000  1
  Cs  Cs3  1  0.44158125  0.55841875  0.75000000  1
  Sb  Sb0  1  0.91187317  0.08812683  0.25000000  1
  Sb  Sb1  1  0.08812683  0.91187317  0.75000000  1
  F  F0  1  0.10756267  0.33771866  0.05151518  1
  F  F1  1  0.89243733  0.66228134  0.94848482  1
  F  F2  1  0.89243733  0.66228134  0.55151518  1
  F  F3  1  0.66228134  0.89243733  0.44848482  1
  F  F4  1  0.10756267  0.33771866  0.44848482  1
  F  F5  1  0.33771866  0.10756267  0.55151518  1
  F  F6  1  0.33771866  0.10756267  0.94848482  1
  F  F7  1  0.66228134  0.89243733  0.05151518  1
  F  F8  1  0.77325229  0.22674771  0.25000000  1
  F  F9  1  0.22674771  0.77325229  0.75000000  1
loop_
_geom_bond_atom_site_label_1
_geom_bond_atom_site_label_2
_geom_bond_distance
_geom_bond_site_symmetry_2
Cs0 F4 3.109411 1_555
Cs0 F0 3.109411 1_555
Cs0 F7 3.109411 1_555
Cs0 F3 3.109411 1_555
Cs0 F1 3.157078 1_454
Cs0 F2 3.157078 1_455
Cs0 F5 3.157078 1_565
Cs0 F6 3.157078 1_564
Cs0 F8 3.352144 1_565
Cs0 F8 3.352144 1_455
Cs0 F9 3.584650 1_554
Cs0 F9 3.584650 1_555
Cs1 F5 3.109411 1_555
Cs1 F6 3.109411 1_555
Cs1 F2 3.109411 1_555
Cs1 F1 3.109411 1_555
Cs1 F7 3.157078 1_546
Cs1 F3 3.157078 1_545
Cs1 F4 3.157078 1_655
Cs1 F0 3.157078 1_656
Cs1 F9 3.352144 1_655
Cs1 F9 3.352144 1_545
Cs1 F8 3.584650 1_556
Cs1 F8 3.584650 1_555
Cs2 F5 2.948777 1_555
Cs2 F6 2.948777 1_554
Cs2 F2 2.948777 1_555
Cs2 F1 2.948777 1_554
Cs2 F8 3.050627 1_555
Cs2 F7 3.387699 1_555
Cs2 F0 3.387699 1_555
Cs2 F3 3.387699 1_555
Cs2 F4 3.387699 1_555
Cs3 F0 2.948777 1_556
Cs3 F4 2.948777 1_555
Cs3 F3 2.948777 1_555
Cs3 F7 2.948777 1_556
Cs3 F9 3.050627 1_555
Cs3 F5 3.387699 1_555
Cs3 F2 3.387699 1_555
Cs3 F6 3.387699 1_555
Cs3 F1 3.387699 1_555
F0 Sb0 2.085367 1_455
F1 Sb1 2.085367 1_655
F2 Sb1 2.085367 1_655
F3 Sb0 2.085367 1_565
F4 Sb0 2.085367 1_455
F5 Sb1 2.085367 1_545
F6 Sb1 2.085367 1_545
F7 Sb0 2.085367 1_565
F8 Sb0 1.968411 1_555
F9 Sb1 1.968411 1_555
