# generated using pymatgen
data_Zn(CrN)2
_symmetry_space_group_name_H-M   'P 1'
_cell_length_a   3.67203700
_cell_length_b   3.67203700
_cell_length_c   5.40408700
_cell_angle_alpha   90.00000000
_cell_angle_beta   90.00000000
_cell_angle_gamma   90.00000000
_symmetry_Int_Tables_number   1
_chemical_formula_structural   Zn(CrN)2
_chemical_formula_sum   'Zn1 Cr2 N2'
_cell_volume   72.86792946
_cell_formula_units_Z   1
loop_
 _symmetry_equiv_pos_site_id
 _symmetry_equiv_pos_as_xyz
  1  'x, y, z'
loop_
 _atom_site_type_symbol
 _atom_site_label
 _atom_site_symmetry_multiplicity
 _atom_site_fract_x
 _atom_site_fract_y
 _atom_site_fract_z
 _atom_site_occupancy
  Zn  Zn0  1  0.50000000  0.50000000  0.00000000  1
  Cr  Cr0  1  0.00000000  0.00000000  0.75234500  1
  Cr  Cr1  1  0.00000000  0.00000000  0.24765500  1
  N  N0  1  0.00000000  0.50000000  0.23786700  1
  N  N1  1  0.50000000  0.00000000  0.76213300  1
loop_
_geom_bond_atom_site_label_1
_geom_bond_atom_site_label_2
_geom_bond_distance
_geom_bond_site_symmetry_2
Cr0 N1 1.836780 1_455
Cr0 N1 1.836780 1_555
Cr1 N0 1.836780 1_555
Cr1 N0 1.836780 1_545
N0 Zn0 2.241284 1_455
N0 Zn0 2.241284 1_555
N1 Zn0 2.241284 1_556
N1 Zn0 2.241284 1_546
