# generated using pymatgen
data_Cs2Mo3SeO12
_symmetry_space_group_name_H-M   'P 1'
_cell_length_a   7.32227198
_cell_length_b   7.32227153
_cell_length_c   12.49214090
_cell_angle_alpha   90.00000000
_cell_angle_beta   90.00000000
_cell_angle_gamma   119.99999773
_symmetry_Int_Tables_number   1
_chemical_formula_structural   Cs2Mo3SeO12
_chemical_formula_sum   'Cs4 Mo6 Se2 O24'
_cell_volume   580.04168010
_cell_formula_units_Z   2
loop_
 _symmetry_equiv_pos_site_id
 _symmetry_equiv_pos_as_xyz
  1  'x, y, z'
loop_
 _atom_site_type_symbol
 _atom_site_label
 _atom_site_symmetry_multiplicity
 _atom_site_fract_x
 _atom_site_fract_y
 _atom_site_fract_z
 _atom_site_occupancy
  Cs  Cs0  1  0.66666700  0.33333300  0.23252967  1
  Cs  Cs1  1  0.33333300  0.66666700  0.73252967  1
  Cs  Cs2  1  0.66666700  0.33333300  0.59991319  1
  Cs  Cs3  1  0.33333300  0.66666700  0.09991319  1
  Mo  Mo0  1  0.79687832  0.66106194  0.89821819  1
  Mo  Mo1  1  0.66106194  0.86418462  0.39821819  1
  Mo  Mo2  1  0.86418462  0.20312168  0.89821819  1
  Mo  Mo3  1  0.13581538  0.79687832  0.39821819  1
  Mo  Mo4  1  0.33893806  0.13581538  0.89821819  1
  Mo  Mo5  1  0.20312168  0.33893806  0.39821819  1
  Se  Se0  1  0.00000000  -0.00000000  0.17445917  1
  Se  Se1  1  0.00000000  -0.00000000  0.67445917  1
  O  O0  1  0.75417675  0.87129893  0.23226887  1
  O  O1  1  0.88287782  0.75417675  0.73226887  1
  O  O2  1  0.87129893  0.11712218  0.73226887  1
  O  O3  1  0.12870107  0.88287782  0.23226887  1
  O  O4  1  0.11712218  0.24582325  0.23226887  1
  O  O5  1  0.24582325  0.12870107  0.73226887  1
  O  O6  1  0.45294239  0.91115352  0.35504112  1
  O  O7  1  0.54178986  0.45294239  0.85504112  1
  O  O8  1  0.91115352  0.45821014  0.85504112  1
  O  O9  1  0.08884648  0.54178986  0.35504112  1
  O  O10  1  0.45821014  0.54705761  0.35504112  1
  O  O11  1  0.54705761  0.08884648  0.85504112  1
  O  O12  1  0.12330290  0.87158908  0.90867976  1
  O  O13  1  0.25171383  0.12330290  0.40867976  1
  O  O14  1  0.87158908  0.74828617  0.40867976  1
  O  O15  1  0.12841092  0.25171383  0.90867976  1
  O  O16  1  0.74828617  0.87669710  0.90867976  1
  O  O17  1  0.87669710  0.12841092  0.40867976  1
  O  O18  1  0.60073505  0.80046266  0.52992405  1
  O  O19  1  0.19972761  0.39926495  0.52992405  1
  O  O20  1  0.19953734  0.80027239  0.52992405  1
  O  O21  1  0.80046266  0.19972761  0.02992405  1
  O  O22  1  0.80027239  0.60073505  0.02992405  1
  O  O23  1  0.39926495  0.19953734  0.02992405  1
loop_
_geom_bond_atom_site_label_1
_geom_bond_atom_site_label_2
_geom_bond_distance
_geom_bond_site_symmetry_2
Cs0 O21 3.046494 1_555
Cs0 O22 3.046497 1_555
Cs0 O23 3.046497 1_555
Cs0 O6 3.083788 1_545
Cs0 O9 3.083788 1_655
Cs0 O10 3.083799 1_555
Cs1 O20 3.046494 1_555
Cs1 O19 3.046497 1_555
Cs1 O18 3.046497 1_555
Cs1 O11 3.083788 1_565
Cs1 O8 3.083788 1_455
Cs1 O7 3.083799 1_555
Cs2 O2 3.139649 1_555
Cs2 O1 3.139654 1_555
Cs2 O5 3.139654 1_555
Cs2 O11 3.544227 1_555
Cs2 O7 3.544227 1_555
Cs2 O8 3.544227 1_555
Cs2 O17 3.554031 1_555
Cs2 O14 3.554036 1_555
Cs2 O13 3.554036 1_555
Cs2 O18 3.786557 1_545
Cs2 O20 3.786560 1_655
Cs2 O19 3.786564 1_555
Cs2 O19 3.787904 1_655
Cs2 O20 3.787907 1_545
Cs2 O18 3.787911 1_555
Cs3 O3 3.139649 1_555
Cs3 O4 3.139654 1_555
Cs3 O0 3.139654 1_555
Cs3 O6 3.544227 1_555
Cs3 O10 3.544227 1_555
Cs3 O9 3.544227 1_555
Cs3 O12 3.554031 1_554
Cs3 O15 3.554036 1_554
Cs3 O16 3.554036 1_554
Cs3 O23 3.786557 1_565
Cs3 O21 3.786560 1_455
Cs3 O22 3.786564 1_555
Cs3 O22 3.787904 1_455
Cs3 O21 3.787907 1_565
Cs3 O23 3.787911 1_555
Mo0 O22 1.706955 1_556
Mo0 O16 1.788441 1_555
Mo0 O7 1.804329 1_555
Mo0 O12 2.102806 1_655
Mo0 O8 2.107170 1_555
Mo0 O1 2.174775 1_555
Mo1 O18 1.706956 1_555
Mo1 O17 1.788436 1_565
Mo1 O6 1.804328 1_555
Mo1 O14 2.102811 1_555
Mo1 O10 2.107170 1_555
Mo1 O0 2.174776 1_555
Mo2 O21 1.706957 1_556
Mo2 O15 1.788433 1_655
Mo2 O8 1.804328 1_555
Mo2 O16 2.102804 1_545
Mo2 O11 2.107170 1_555
Mo2 O2 2.174774 1_555
Mo3 O20 1.706957 1_555
Mo3 O14 1.788433 1_455
Mo3 O9 1.804328 1_555
Mo3 O13 2.102804 1_565
Mo3 O6 2.107170 1_555
Mo3 O3 2.174774 1_555
Mo4 O23 1.706956 1_556
Mo4 O12 1.788436 1_545
Mo4 O11 1.804328 1_555
Mo4 O15 2.102811 1_555
Mo4 O7 2.107170 1_555
Mo4 O5 2.174776 1_555
Mo5 O19 1.706955 1_555
Mo5 O13 1.788441 1_555
Mo5 O10 1.804329 1_555
Mo5 O17 2.102806 1_455
Mo5 O9 2.107170 1_555
Mo5 O4 2.174775 1_555
O0 Se0 1.718511 1_665
O1 Se1 1.718511 1_665
O2 Se1 1.718511 1_655
O3 Se0 1.718511 1_565
O4 Se0 1.718511 1_555
O5 Se1 1.718511 1_555
