# generated using pymatgen
data_SrLaMg2
_symmetry_space_group_name_H-M   'P 1'
_cell_length_a   14.18136201
_cell_length_b   12.59197735
_cell_length_c   12.59197746
_cell_angle_alpha   56.90850655
_cell_angle_beta   55.72878290
_cell_angle_gamma   55.72878090
_symmetry_Int_Tables_number   1
_chemical_formula_structural   SrLaMg2
_chemical_formula_sum   'Sr1 La1 Mg2'
_cell_volume   1446.74429872
_cell_formula_units_Z   1
loop_
 _symmetry_equiv_pos_site_id
 _symmetry_equiv_pos_as_xyz
  1  'x, y, z'
loop_
 _atom_site_type_symbol
 _atom_site_label
 _atom_site_symmetry_multiplicity
 _atom_site_fract_x
 _atom_site_fract_y
 _atom_site_fract_z
 _atom_site_occupancy
  Sr  Sr0  1  0.00000000  0.00000000  0.00000000  1
  La  La0  1  0.50000000  0.00000000  0.00000000  1
  Mg  Mg0  1  0.74122433  1.00000000  0.00000000  1
  Mg  Mg1  1  0.25877567  0.00000000  1.00000000  1
loop_
_geom_bond_atom_site_label_1
_geom_bond_atom_site_label_2
_geom_bond_distance
_geom_bond_site_symmetry_2
La0 Mg0 3.420890 1_545
La0 Mg1 3.420890 1_554
Mg0 Sr0 3.669791 1_665
Mg1 Sr0 3.669791 1_556
