# generated using pymatgen
data_Mn3(FeN2)2
_symmetry_space_group_name_H-M   'P 1'
_cell_length_a   6.22290876
_cell_length_b   6.25906418
_cell_length_c   5.23799280
_cell_angle_alpha   89.99999789
_cell_angle_beta   93.55846646
_cell_angle_gamma   120.19238292
_symmetry_Int_Tables_number   1
_chemical_formula_structural   Mn3(FeN2)2
_chemical_formula_sum   'Mn6 Fe4 N8'
_cell_volume   175.88571903
_cell_formula_units_Z   2
loop_
 _symmetry_equiv_pos_site_id
 _symmetry_equiv_pos_as_xyz
  1  'x, y, z'
loop_
 _atom_site_type_symbol
 _atom_site_label
 _atom_site_symmetry_multiplicity
 _atom_site_fract_x
 _atom_site_fract_y
 _atom_site_fract_z
 _atom_site_occupancy
  Mn  Mn0  1  0.36057500  0.08612100  0.94400100  1
  Mn  Mn1  1  0.63942500  0.72554600  0.55599900  1
  Mn  Mn2  1  0.63942500  0.91387900  0.05599900  1
  Mn  Mn3  1  0.36057500  0.27445400  0.44400100  1
  Mn  Mn4  1  0.00000000  0.67304900  0.75000000  1
  Mn  Mn5  1  0.00000000  0.32695100  0.25000000  1
  Fe  Fe0  1  0.68582900  0.18612900  0.62634200  1
  Fe  Fe1  1  0.31417100  0.50030000  0.87365800  1
  Fe  Fe2  1  0.31417100  0.81387100  0.37365800  1
  Fe  Fe3  1  0.68582900  0.49970000  0.12634200  1
  N  N0  1  0.23052600  0.97587800  0.60610500  1
  N  N1  1  0.76947400  0.74535200  0.89389500  1
  N  N2  1  0.76947400  0.02412200  0.39389500  1
  N  N3  1  0.23052600  0.25464800  0.10610500  1
  N  N4  1  0.72145800  0.24747700  0.97723700  1
  N  N5  1  0.27854200  0.52601900  0.52276300  1
  N  N6  1  0.27854200  0.75252300  0.02276300  1
  N  N7  1  0.72145800  0.47398100  0.47723700  1
loop_
_geom_bond_atom_site_label_1
_geom_bond_atom_site_label_2
_geom_bond_distance
_geom_bond_site_symmetry_2
Mn0 N3 1.852692 1_556
Mn0 N0 1.877267 1_545
Mn0 N6 1.935107 1_546
Mn0 N4 1.940070 1_555
Mn1 N2 1.852692 1_565
Mn1 N1 1.877267 1_555
Mn1 N7 1.935107 1_555
Mn1 N5 1.940070 1_555
Mn2 N1 1.852692 1_554
Mn2 N2 1.877267 1_565
Mn2 N4 1.935107 1_564
Mn2 N6 1.940070 1_555
Mn3 N0 1.852692 1_545
Mn3 N3 1.877267 1_555
Mn3 N5 1.935107 1_555
Mn3 N7 1.940070 1_555
Mn4 N0 1.902104 1_555
Mn4 N1 1.902104 1_455
Mn4 N6 2.029418 1_556
Mn4 N7 2.029418 1_455
Mn5 N2 1.902104 1_455
Mn5 N3 1.902104 1_555
Mn5 N4 2.029418 1_454
Mn5 N5 2.029418 1_555
Fe0 N2 1.841506 1_555
Fe0 N4 1.854339 1_555
Fe0 N7 1.877475 1_555
Fe1 N3 1.841506 1_556
Fe1 N5 1.854339 1_555
Fe1 N6 1.877475 1_556
Fe2 N0 1.841506 1_555
Fe2 N6 1.854339 1_555
Fe2 N5 1.877475 1_555
Fe3 N1 1.841506 1_554
Fe3 N7 1.854339 1_555
Fe3 N4 1.877475 1_554
