# generated using pymatgen
data_Ho(AlCu)6
_symmetry_space_group_name_H-M   'P 1'
_cell_length_a   4.97390120
_cell_length_b   6.57289269
_cell_length_c   6.57289269
_cell_angle_alpha   99.08066791
_cell_angle_beta   112.23243013
_cell_angle_gamma   67.76756987
_symmetry_Int_Tables_number   1
_chemical_formula_structural   Ho(AlCu)6
_chemical_formula_sum   'Ho1 Al6 Cu6'
_cell_volume   184.09686772
_cell_formula_units_Z   1
loop_
 _symmetry_equiv_pos_site_id
 _symmetry_equiv_pos_as_xyz
  1  'x, y, z'
loop_
 _atom_site_type_symbol
 _atom_site_label
 _atom_site_symmetry_multiplicity
 _atom_site_fract_x
 _atom_site_fract_y
 _atom_site_fract_z
 _atom_site_occupancy
  Ho  Ho0  1  -0.00000000  0.00000000  0.00000000  1
  Al  Al0  1  0.65108868  0.34891132  0.65108868  1
  Al  Al1  1  0.34891132  0.65108868  0.34891132  1
  Al  Al2  1  -0.00000000  0.34590426  0.34590426  1
  Al  Al3  1  0.00000000  0.65409574  0.65409574  1
  Al  Al4  1  0.70166549  0.79833451  0.20166549  1
  Al  Al5  1  0.29833451  0.20166549  0.79833451  1
  Cu  Cu0  1  0.50000000  0.00000000  0.50000000  1
  Cu  Cu1  1  -0.00000000  0.00000000  0.50000000  1
  Cu  Cu2  1  0.50000000  0.50000000  0.00000000  1
  Cu  Cu3  1  -0.00000000  0.50000000  0.00000000  1
  Cu  Cu4  1  0.50000000  0.76967533  0.76967533  1
  Cu  Cu5  1  0.50000000  0.23032467  0.23032467  1
loop_
_geom_bond_atom_site_label_1
_geom_bond_atom_site_label_2
_geom_bond_distance
_geom_bond_site_symmetry_2
Al0 Cu3 2.613620 1_656
Al0 Cu1 2.613620 1_655
Al0 Cu2 2.613620 1_556
Al0 Cu0 2.613620 1_555
Al0 Al1 2.622216 1_555
Al0 Cu4 2.647849 1_555
Al0 Cu5 2.647849 1_555
Al0 Al5 2.795996 1_655
Al0 Al5 2.795996 1_555
Al0 Ho0 3.027761 1_656
Al1 Cu3 2.613620 1_555
Al1 Cu1 2.613620 1_565
Al1 Cu0 2.613620 1_565
Al1 Cu2 2.613620 1_555
Al1 Cu4 2.647849 1_555
Al1 Cu5 2.647849 1_555
Al1 Al4 2.795996 1_455
Al1 Al4 2.795996 1_555
Al1 Ho0 3.027761 1_565
Al2 Al3 2.629017 1_555
Al2 Cu2 2.630965 1_455
Al2 Cu0 2.630965 1_555
Al2 Cu3 2.630965 1_555
Al2 Cu1 2.630965 1_555
Al2 Cu5 2.675260 1_455
Al2 Cu5 2.675260 1_555
Al2 Al4 2.903476 1_455
Al2 Al5 2.903476 1_555
Al2 Ho0 2.950724 1_555
Al3 Cu0 2.630965 1_465
Al3 Cu2 2.630965 1_556
Al3 Cu1 2.630965 1_565
Al3 Cu3 2.630965 1_556
Al3 Cu4 2.675260 1_455
Al3 Cu4 2.675260 1_555
Al3 Al4 2.903476 1_455
Al3 Al5 2.903476 1_555
Al3 Ho0 2.950724 1_566
Al4 Cu3 2.504038 1_655
Al4 Cu1 2.504038 1_665
Al4 Cu0 2.504038 1_565
Al4 Cu2 2.504038 1_555
Al4 Cu5 2.631131 1_565
Al4 Cu4 2.631131 1_554
Al4 Ho0 3.040958 1_565
Al4 Ho0 3.040958 1_665
Al5 Cu3 2.504038 1_556
Al5 Cu1 2.504038 1_555
Al5 Cu2 2.504038 1_556
Al5 Cu0 2.504038 1_555
Al5 Cu5 2.631131 1_556
Al5 Cu4 2.631131 1_545
Al5 Ho0 3.040958 1_656
Al5 Ho0 3.040958 1_556
Cu0 Cu1 2.486951 1_655
Cu0 Cu1 2.486951 1_555
Cu0 Cu4 2.506162 1_545
Cu0 Cu5 2.506162 1_555
Cu0 Ho0 3.286446 1_656
Cu0 Ho0 3.286446 1_555
Cu1 Cu4 2.506162 1_545
Cu1 Cu5 2.506162 1_455
Cu1 Ho0 3.286446 1_556
Cu1 Ho0 3.286446 1_555
Cu2 Cu3 2.486951 1_655
Cu2 Cu3 2.486951 1_555
Cu2 Cu5 2.506162 1_555
Cu2 Cu4 2.506162 1_554
Cu2 Ho0 3.286446 1_565
Cu2 Ho0 3.286446 1_655
Cu3 Cu5 2.506162 1_555
Cu3 Cu4 2.506162 1_454
Cu3 Ho0 3.286446 1_565
Cu3 Ho0 3.286446 1_555
Cu4 Ho0 3.169428 1_566
Cu4 Ho0 3.169428 1_666
Cu5 Ho0 3.169428 1_655
Cu5 Ho0 3.169428 1_555
