# generated using pymatgen
data_Sr2B5BrO9
_symmetry_space_group_name_H-M   'P 1'
_cell_length_a   6.53190700
_cell_length_b   11.61048400
_cell_length_c   11.70426300
_cell_angle_alpha   90.00000000
_cell_angle_beta   90.00000000
_cell_angle_gamma   90.00000000
_symmetry_Int_Tables_number   1
_chemical_formula_structural   Sr2B5BrO9
_chemical_formula_sum   'Sr8 B20 Br4 O36'
_cell_volume   887.63494000
_cell_formula_units_Z   4
loop_
 _symmetry_equiv_pos_site_id
 _symmetry_equiv_pos_as_xyz
  1  'x, y, z'
loop_
 _atom_site_type_symbol
 _atom_site_label
 _atom_site_symmetry_multiplicity
 _atom_site_fract_x
 _atom_site_fract_y
 _atom_site_fract_z
 _atom_site_occupancy
  Sr  Sr0  1  0.14970800  0.03916900  0.74955200  1
  Sr  Sr1  1  0.14970800  0.96083100  0.25044800  1
  Sr  Sr2  1  0.64970800  0.53916900  0.75044800  1
  Sr  Sr3  1  0.64970800  0.46083100  0.24955200  1
  Sr  Sr4  1  0.31432000  0.25793200  0.46795300  1
  Sr  Sr5  1  0.31432000  0.74206800  0.53204700  1
  Sr  Sr6  1  0.81432000  0.75793200  0.03204700  1
  Sr  Sr7  1  0.81432000  0.24206800  0.96795300  1
  B  B0  1  0.31498600  0.71786600  0.19475200  1
  B  B1  1  0.31498600  0.28213400  0.80524800  1
  B  B2  1  0.81498600  0.21786600  0.30524800  1
  B  B3  1  0.81498600  0.78213400  0.69475200  1
  B  B4  1  0.35177500  0.24991000  0.02776600  1
  B  B5  1  0.35177500  0.75009000  0.97223400  1
  B  B6  1  0.85177500  0.74991000  0.47223400  1
  B  B7  1  0.85177500  0.25009000  0.52776600  1
  B  B8  1  0.18804300  0.51480500  0.23492600  1
  B  B9  1  0.18804300  0.48519500  0.76507400  1
  B  B10  1  0.68804300  0.01480500  0.26507400  1
  B  B11  1  0.68804300  0.98519500  0.73492600  1
  B  B12  1  0.45995900  0.18079400  0.22381400  1
  B  B13  1  0.45995900  0.81920600  0.77618600  1
  B  B14  1  0.95995900  0.68079400  0.27618600  1
  B  B15  1  0.95995900  0.31920600  0.72381400  1
  B  B16  1  0.13316200  0.29055800  0.19512600  1
  B  B17  1  0.13316200  0.70944200  0.80487400  1
  B  B18  1  0.63316200  0.79055800  0.30487400  1
  B  B19  1  0.63316200  0.20944200  0.69512600  1
  Br  Br0  1  0.00015800  0.00000000  0.00000000  1
  Br  Br1  1  0.50015800  0.50000000  0.50000000  1
  Br  Br2  1  0.23582900  0.00000000  0.50000000  1
  Br  Br3  1  0.73582900  0.50000000  0.00000000  1
  O  O0  1  0.50507800  0.21706200  0.10383200  1
  O  O1  1  0.50507800  0.78293800  0.89616800  1
  O  O2  1  0.00507800  0.71706200  0.39616800  1
  O  O3  1  0.00507800  0.28293800  0.60383200  1
  O  O4  1  0.41058100  0.75325800  0.08459100  1
  O  O5  1  0.41058100  0.24674200  0.91540900  1
  O  O6  1  0.91058100  0.25325800  0.41540900  1
  O  O7  1  0.91058100  0.74674200  0.58459100  1
  O  O8  1  0.34484700  0.59148300  0.21189400  1
  O  O9  1  0.34484700  0.40851700  0.78810600  1
  O  O10  1  0.84484700  0.09148300  0.28810600  1
  O  O11  1  0.84484700  0.90851700  0.71189400  1
  O  O12  1  0.59245800  0.24483100  0.30517600  1
  O  O13  1  0.59245800  0.75516900  0.69482400  1
  O  O14  1  0.09245800  0.74483100  0.19482400  1
  O  O15  1  0.09245800  0.25516900  0.80517600  1
  O  O16  1  0.41291600  0.21293200  0.71411700  1
  O  O17  1  0.41291600  0.78706800  0.28588300  1
  O  O18  1  0.91291600  0.71293200  0.78588300  1
  O  O19  1  0.91291600  0.28706800  0.21411700  1
  O  O20  1  0.49725900  0.05379800  0.23459900  1
  O  O21  1  0.49725900  0.94620200  0.76540100  1
  O  O22  1  0.99725900  0.55379800  0.26540100  1
  O  O23  1  0.99725900  0.44620200  0.73459900  1
  O  O24  1  0.24396300  0.19610900  0.25234800  1
  O  O25  1  0.24396300  0.80389100  0.74765200  1
  O  O26  1  0.74396300  0.69610900  0.24765200  1
  O  O27  1  0.74396300  0.30389100  0.75234800  1
  O  O28  1  0.16191100  0.28265500  0.06679100  1
  O  O29  1  0.16191100  0.71734500  0.93320900  1
  O  O30  1  0.66191100  0.78265500  0.43320900  1
  O  O31  1  0.66191100  0.21734500  0.56679100  1
  O  O32  1  0.23979100  0.39996100  0.23386500  1
  O  O33  1  0.23979100  0.60003900  0.76613500  1
  O  O34  1  0.73979100  0.89996100  0.26613500  1
  O  O35  1  0.73979100  0.10003900  0.73386500  1
loop_
_geom_bond_atom_site_label_1
_geom_bond_atom_site_label_2
_geom_bond_distance
_geom_bond_site_symmetry_2
B0 O17 1.480682 1_555
B0 O14 1.486867 1_555
B0 O4 1.490363 1_555
B0 O8 1.493809 1_555
B1 O16 1.480682 1_555
B1 O15 1.486867 1_555
B1 O5 1.490363 1_555
B1 O9 1.493809 1_555
B2 O19 1.480682 1_555
B2 O12 1.486867 1_555
B2 O6 1.490363 1_555
B2 O10 1.493809 1_555
B3 O18 1.480682 1_555
B3 O13 1.486867 1_555
B3 O7 1.490363 1_555
B3 O11 1.493809 1_555
B4 O5 1.370500 1_554
B4 O28 1.375209 1_555
B4 O0 1.393127 1_555
B5 O4 1.370500 1_556
B5 O29 1.375209 1_555
B5 O1 1.393127 1_555
B6 O7 1.370500 1_555
B6 O30 1.375209 1_555
B6 O2 1.393127 1_655
B7 O6 1.370500 1_555
B7 O31 1.375209 1_555
B7 O3 1.393127 1_655
B8 O22 1.373012 1_455
B8 O32 1.375626 1_555
B8 O8 1.383580 1_555
B9 O23 1.373012 1_455
B9 O33 1.375626 1_555
B9 O9 1.383580 1_555
B10 O20 1.373012 1_555
B10 O34 1.375626 1_545
B10 O10 1.383580 1_555
B11 O21 1.373012 1_555
B11 O35 1.375626 1_565
B11 O11 1.383580 1_555
B12 O24 1.460718 1_555
B12 O12 1.486161 1_555
B12 O0 1.495404 1_555
B12 O20 1.499800 1_555
B13 O25 1.460718 1_555
B13 O13 1.486161 1_555
B13 O1 1.495404 1_555
B13 O21 1.499800 1_555
B14 O26 1.460718 1_555
B14 O14 1.486161 1_655
B14 O2 1.495404 1_655
B14 O22 1.499800 1_555
B15 O27 1.460718 1_555
B15 O15 1.486161 1_655
B15 O3 1.495404 1_655
B15 O23 1.499800 1_555
B16 O19 1.456260 1_455
B16 O24 1.474749 1_555
B16 O28 1.516538 1_555
B16 O32 1.517941 1_555
B17 O18 1.456260 1_455
B17 O25 1.474749 1_555
B17 O29 1.516538 1_555
B17 O33 1.517941 1_555
B18 O17 1.456260 1_555
B18 O26 1.474749 1_555
B18 O30 1.516538 1_555
B18 O34 1.517941 1_555
B19 O16 1.456260 1_555
B19 O27 1.474749 1_555
B19 O31 1.516538 1_555
B19 O35 1.517941 1_555
Br0 Sr6 3.084355 1_445
Br0 Sr7 3.084355 1_454
Br0 Sr0 3.123079 1_554
Br0 Sr1 3.123079 1_545
Br1 Sr5 3.084355 1_555
Br1 Sr4 3.084355 1_555
Br1 Sr2 3.123079 1_555
Br1 Sr3 3.123079 1_555
Br2 Sr1 3.009064 1_545
Br2 Sr0 3.009064 1_555
Br2 Sr4 3.061351 1_555
Br2 Sr5 3.061351 1_545
Br3 Sr3 3.009064 1_555
Br3 Sr2 3.009064 1_554
Br3 Sr7 3.061351 1_554
Br3 Sr6 3.061351 1_555
O0 Sr7 2.587220 1_554
O1 Sr6 2.587220 1_556
O2 Sr5 2.587220 1_555
O3 Sr4 2.587220 1_555
O4 Sr6 2.708487 1_555
O5 Sr7 2.708487 1_555
O6 Sr4 2.708487 1_655
O7 Sr5 2.708487 1_655
O8 Sr3 2.541795 1_555
O9 Sr2 2.541795 1_555
O10 Sr1 2.541795 1_645
O11 Sr0 2.541795 1_665
O12 Sr3 2.617838 1_555
O12 Sr4 2.636954 1_555
O13 Sr2 2.617838 1_555
O13 Sr5 2.636954 1_555
O14 Sr1 2.617838 1_555
O14 Sr6 2.636954 1_455
O15 Sr0 2.617838 1_555
O15 Sr7 2.636954 1_455
O16 Sr0 2.682914 1_555
O16 Sr4 2.998144 1_555
O17 Sr1 2.682914 1_555
O17 Sr5 2.998144 1_555
O18 Sr2 2.682914 1_555
O18 Sr6 2.998144 1_556
O19 Sr3 2.682914 1_555
O19 Sr7 2.998144 1_554
O20 Sr1 2.520550 1_545
O21 Sr0 2.520550 1_565
O22 Sr3 2.520550 1_555
O23 Sr2 2.520550 1_555
O24 Sr4 2.663545 1_555
O24 Sr1 2.800299 1_545
O25 Sr5 2.663545 1_555
O25 Sr0 2.800299 1_565
O26 Sr6 2.663545 1_555
O26 Sr3 2.800299 1_555
O27 Sr7 2.663545 1_555
O27 Sr2 2.800299 1_555
O28 Sr7 2.591365 1_454
O29 Sr6 2.591365 1_456
O30 Sr5 2.591365 1_555
O31 Sr4 2.591365 1_555
O32 Sr3 2.775319 1_555
O32 Sr4 3.234645 1_555
O33 Sr2 2.775319 1_555
O33 Sr5 3.234645 1_555
O34 Sr1 2.775319 1_655
O34 Sr6 3.234645 1_555
O35 Sr0 2.775319 1_655
O35 Sr7 3.234645 1_555
