# generated using pymatgen
data_NaLiAl4(SiO6)2
_symmetry_space_group_name_H-M   'P 1'
_cell_length_a   5.24970137
_cell_length_b   5.24970137
_cell_length_c   19.37118679
_cell_angle_alpha   87.38393304
_cell_angle_beta   87.38393304
_cell_angle_gamma   119.40390240
_symmetry_Int_Tables_number   1
_chemical_formula_structural   NaLiAl4(SiO6)2
_chemical_formula_sum   'Na2 Li2 Al8 Si4 O24'
_cell_volume   463.17892877
_cell_formula_units_Z   2
loop_
 _symmetry_equiv_pos_site_id
 _symmetry_equiv_pos_as_xyz
  1  'x, y, z'
loop_
 _atom_site_type_symbol
 _atom_site_label
 _atom_site_symmetry_multiplicity
 _atom_site_fract_x
 _atom_site_fract_y
 _atom_site_fract_z
 _atom_site_occupancy
  Na  Na0  1  0.08745800  0.91016300  0.25069400  1
  Na  Na1  1  0.91016300  0.08745800  0.75069400  1
  Li  Li0  1  0.49997200  0.00680900  0.00183600  1
  Li  Li1  1  0.00680900  0.49997200  0.50183600  1
  Al  Al0  1  0.62432700  0.80687900  0.50098900  1
  Al  Al1  1  0.80687900  0.62432700  0.00098900  1
  Al  Al2  1  0.37491200  0.18341000  0.50075600  1
  Al  Al3  1  0.18341000  0.37491200  0.00075600  1
  Al  Al4  1  0.28796100  0.79382800  0.64553500  1
  Al  Al5  1  0.79382800  0.28796100  0.14553500  1
  Al  Al6  1  0.38571700  0.53696600  0.35620200  1
  Al  Al7  1  0.53696600  0.38571700  0.85620200  1
  Si  Si0  1  0.61161600  0.45269600  0.64610600  1
  Si  Si1  1  0.45269600  0.61161600  0.14610600  1
  Si  Si2  1  0.70882700  0.19861300  0.35605200  1
  Si  Si3  1  0.19861300  0.70882700  0.85605200  1
  O  O0  1  0.55385700  0.70901900  0.67357400  1
  O  O1  1  0.70901900  0.55385700  0.17357400  1
  O  O2  1  0.46029900  0.26710000  0.32727700  1
  O  O3  1  0.26710000  0.46029900  0.82727700  1
  O  O4  1  0.60965200  0.47077700  0.55814400  1
  O  O5  1  0.47077700  0.60965200  0.05814400  1
  O  O6  1  0.66904800  0.89406000  0.32815900  1
  O  O7  1  0.89406000  0.66904800  0.82815900  1
  O  O8  1  0.98609600  0.06475800  0.53518200  1
  O  O9  1  0.06475800  0.98609600  0.03518200  1
  O  O10  1  0.03760500  0.47555200  0.33660600  1
  O  O11  1  0.47555200  0.03760500  0.83660600  1
  O  O12  1  0.35737600  0.85429100  0.55288200  1
  O  O13  1  0.85429100  0.35737600  0.05288200  1
  O  O14  1  0.39141100  0.51282200  0.44918300  1
  O  O15  1  0.51282200  0.39141100  0.94918300  1
  O  O16  1  0.00880800  0.92210600  0.46693400  1
  O  O17  1  0.92210600  0.00880800  0.96693400  1
  O  O18  1  0.34605800  0.12813600  0.67490300  1
  O  O19  1  0.12813600  0.34605800  0.17490300  1
  O  O20  1  0.64804300  0.14731700  0.44386700  1
  O  O21  1  0.14731700  0.64804300  0.94386700  1
  O  O22  1  0.92954600  0.49850700  0.66541800  1
  O  O23  1  0.49850700  0.92954600  0.16541800  1
loop_
_geom_bond_atom_site_label_1
_geom_bond_atom_site_label_2
_geom_bond_distance
_geom_bond_site_symmetry_2
Na0 O2 2.541749 1_565
Na0 O1 2.560184 1_455
Na0 O6 2.566876 1_455
Na0 O19 2.573395 1_565
Na0 O23 2.615193 1_555
Na0 O10 2.659137 1_555
Na1 O3 2.541749 1_655
Na1 O0 2.560184 1_545
Na1 O7 2.566876 1_545
Na1 O18 2.573395 1_655
Na1 O22 2.615193 1_555
Na1 O11 2.659137 1_555
Li0 O15 2.189380 1_554
Li0 O13 2.190267 1_555
Li0 O5 2.241347 1_545
Li0 O21 2.279186 1_544
Li0 O17 2.282095 1_554
Li0 O9 2.294352 1_545
Li1 O14 2.189380 1_555
Li1 O12 2.190267 1_555
Li1 O4 2.241347 1_455
Li1 O20 2.279186 1_455
Li1 O16 2.282095 1_555
Li1 O8 2.294352 1_455
Al0 O12 1.809183 1_555
Al0 O14 1.812520 1_555
Al0 O16 1.875691 1_655
Al0 O8 1.884254 1_565
Al0 O20 2.005586 1_565
Al0 O4 2.006335 1_555
Al1 O13 1.809183 1_555
Al1 O15 1.812520 1_554
Al1 O17 1.875691 1_564
Al1 O9 1.884254 1_655
Al1 O21 2.005586 1_654
Al1 O5 2.006335 1_555
Al2 O20 1.856840 1_555
Al2 O4 1.866268 1_555
Al2 O8 1.894322 1_455
Al2 O16 1.900797 1_545
Al2 O14 1.919220 1_555
Al2 O12 1.920765 1_545
Al3 O21 1.856840 1_554
Al3 O5 1.866268 1_555
Al3 O9 1.894322 1_545
Al3 O17 1.900797 1_454
Al3 O15 1.919220 1_554
Al3 O13 1.920765 1_455
Al4 O18 1.754461 1_565
Al4 O0 1.760419 1_555
Al4 O22 1.762726 1_455
Al4 O12 1.797097 1_555
Al5 O19 1.754461 1_655
Al5 O1 1.760419 1_555
Al5 O23 1.762726 1_545
Al5 O13 1.797097 1_555
Al6 O2 1.752551 1_555
Al6 O10 1.756045 1_555
Al6 O6 1.765520 1_555
Al6 O14 1.802471 1_555
Al7 O3 1.752551 1_555
Al7 O11 1.756045 1_555
Al7 O7 1.765520 1_555
Al7 O15 1.802471 1_555
O0 Si0 1.623891 1_555
O1 Si1 1.623891 1_555
O2 Si2 1.628160 1_555
O3 Si3 1.628160 1_555
O4 Si0 1.703023 1_555
O5 Si1 1.703023 1_555
O6 Si2 1.628826 1_565
O7 Si3 1.628826 1_655
O10 Si2 1.631345 1_455
O11 Si3 1.631345 1_545
O16 O8 1.576866 1_465
O17 O9 1.576866 1_646
O18 Si0 1.633286 1_555
O19 Si1 1.633286 1_555
O20 Si2 1.700668 1_555
O21 Si3 1.700668 1_555
O22 Si0 1.629277 1_555
O23 Si1 1.629277 1_555
