# generated using pymatgen
data_MgCr2O4
_symmetry_space_group_name_H-M   'P 1'
_cell_length_a   2.92613700
_cell_length_b   9.66996400
_cell_length_c   9.81785800
_cell_angle_alpha   90.00000000
_cell_angle_beta   90.00000000
_cell_angle_gamma   90.00000000
_symmetry_Int_Tables_number   1
_chemical_formula_structural   MgCr2O4
_chemical_formula_sum   'Mg4 Cr8 O16'
_cell_volume   277.80257013
_cell_formula_units_Z   4
loop_
 _symmetry_equiv_pos_site_id
 _symmetry_equiv_pos_as_xyz
  1  'x, y, z'
loop_
 _atom_site_type_symbol
 _atom_site_label
 _atom_site_symmetry_multiplicity
 _atom_site_fract_x
 _atom_site_fract_y
 _atom_site_fract_z
 _atom_site_occupancy
  Mg  Mg0  1  0.21174900  0.35858700  0.75000000  1
  Mg  Mg1  1  0.21174900  0.14141300  0.25000000  1
  Mg  Mg2  1  0.78825100  0.85858700  0.75000000  1
  Mg  Mg3  1  0.78825100  0.64141300  0.25000000  1
  Cr  Cr0  1  0.74027800  0.11655500  0.92840200  1
  Cr  Cr1  1  0.74027800  0.38344500  0.42840200  1
  Cr  Cr2  1  0.25972200  0.88344500  0.42840200  1
  Cr  Cr3  1  0.74027800  0.38344500  0.07159800  1
  Cr  Cr4  1  0.25972200  0.88344500  0.07159800  1
  Cr  Cr5  1  0.74027800  0.11655500  0.57159800  1
  Cr  Cr6  1  0.25972200  0.61655500  0.57159800  1
  Cr  Cr7  1  0.25972200  0.61655500  0.92840200  1
  O  O0  1  0.24314000  0.97997400  0.61356500  1
  O  O1  1  0.75686000  0.02002600  0.38643500  1
  O  O2  1  0.23827400  0.25000000  0.50000000  1
  O  O3  1  0.75686000  0.47997400  0.61356500  1
  O  O4  1  0.75686000  0.47997400  0.88643500  1
  O  O5  1  0.71782100  0.28671100  0.25000000  1
  O  O6  1  0.24314000  0.52002600  0.38643500  1
  O  O7  1  0.28217900  0.78671100  0.25000000  1
  O  O8  1  0.23827400  0.25000000  0.00000000  1
  O  O9  1  0.76172600  0.75000000  0.50000000  1
  O  O10  1  0.24314000  0.97997400  0.88643500  1
  O  O11  1  0.28217900  0.71328900  0.75000000  1
  O  O12  1  0.71782100  0.21328900  0.75000000  1
  O  O13  1  0.76172600  0.75000000  0.00000000  1
  O  O14  1  0.24314000  0.52002600  0.11356500  1
  O  O15  1  0.75686000  0.02002600  0.11356500  1
loop_
_geom_bond_atom_site_label_1
_geom_bond_atom_site_label_2
_geom_bond_distance
_geom_bond_site_symmetry_2
Mg0 O12 2.015687 1_455
Mg0 O12 2.041317 1_555
Mg0 O3 2.223471 1_455
Mg0 O4 2.223471 1_455
Mg0 O3 2.390885 1_555
Mg0 O4 2.390885 1_555
Mg0 O2 2.670765 1_555
Mg0 O8 2.670765 1_556
Mg1 O5 2.015687 1_455
Mg1 O5 2.041317 1_555
Mg1 O1 2.223471 1_455
Mg1 O15 2.223471 1_455
Mg1 O1 2.390885 1_555
Mg1 O15 2.390885 1_555
Mg1 O2 2.670765 1_555
Mg1 O8 2.670765 1_555
Mg2 O11 2.015687 1_655
Mg2 O11 2.041317 1_555
Mg2 O0 2.223471 1_655
Mg2 O10 2.223471 1_655
Mg2 O10 2.390885 1_555
Mg2 O0 2.390885 1_555
Mg2 O9 2.670765 1_555
Mg2 O13 2.670765 1_556
Mg3 O7 2.015687 1_655
Mg3 O7 2.041317 1_555
Mg3 O6 2.223471 1_655
Mg3 O14 2.223471 1_655
Mg3 O6 2.390885 1_555
Mg3 O14 2.390885 1_555
Mg3 O9 2.670765 1_555
Mg3 O13 2.670765 1_555
Cr0 O12 1.986746 1_555
Cr0 O10 2.007545 1_545
Cr0 O10 2.019715 1_645
Cr0 O15 2.044120 1_556
Cr0 O8 2.069474 1_656
Cr0 O8 2.077749 1_556
Cr1 O5 1.986746 1_555
Cr1 O6 2.007545 1_555
Cr1 O6 2.019715 1_655
Cr1 O3 2.044120 1_555
Cr1 O2 2.069474 1_655
Cr1 O2 2.077749 1_555
Cr2 O7 1.986746 1_555
Cr2 O1 2.007545 1_565
Cr2 O1 2.019715 1_465
Cr2 O0 2.044120 1_555
Cr2 O9 2.069474 1_455
Cr2 O9 2.077749 1_555
Cr3 O5 1.986746 1_555
Cr3 O14 2.007545 1_555
Cr3 O14 2.019715 1_655
Cr3 O4 2.044120 1_554
Cr3 O8 2.069474 1_655
Cr3 O8 2.077749 1_555
Cr4 O7 1.986746 1_555
Cr4 O15 2.007545 1_565
Cr4 O15 2.019715 1_465
Cr4 O10 2.044120 1_554
Cr4 O13 2.069474 1_455
Cr4 O13 2.077749 1_555
Cr5 O12 1.986746 1_555
Cr5 O0 2.007545 1_545
Cr5 O0 2.019715 1_645
Cr5 O1 2.044120 1_555
Cr5 O2 2.069474 1_655
Cr5 O2 2.077749 1_555
Cr6 O11 1.986746 1_555
Cr6 O3 2.007545 1_555
Cr6 O3 2.019715 1_455
Cr6 O6 2.044120 1_555
Cr6 O9 2.069474 1_455
Cr6 O9 2.077749 1_555
Cr7 O11 1.986746 1_555
Cr7 O4 2.007545 1_555
Cr7 O4 2.019715 1_455
Cr7 O14 2.044120 1_556
Cr7 O13 2.069474 1_456
Cr7 O13 2.077749 1_556
