# generated using pymatgen
data_Ba4Sr2Lu3(BiO6)3
_symmetry_space_group_name_H-M   'P 1'
_cell_length_a   6.04412292
_cell_length_b   6.04412292
_cell_length_c   14.81995433
_cell_angle_alpha   89.56544324
_cell_angle_beta   89.56544324
_cell_angle_gamma   59.99935507
_symmetry_Int_Tables_number   1
_chemical_formula_structural   Ba4Sr2Lu3(BiO6)3
_chemical_formula_sum   'Ba4 Sr2 Lu3 Bi3 O18'
_cell_volume   468.83993331
_cell_formula_units_Z   1
loop_
 _symmetry_equiv_pos_site_id
 _symmetry_equiv_pos_as_xyz
  1  'x, y, z'
loop_
 _atom_site_type_symbol
 _atom_site_label
 _atom_site_symmetry_multiplicity
 _atom_site_fract_x
 _atom_site_fract_y
 _atom_site_fract_z
 _atom_site_occupancy
  Ba  Ba0  1  0.00019100  0.00019100  0.75166700  1
  Ba  Ba1  1  0.99841500  0.99841500  0.24881900  1
  Ba  Ba2  1  0.33139600  0.33139600  0.58072100  1
  Ba  Ba3  1  0.66534800  0.66534800  0.91678400  1
  Sr  Sr0  1  0.33669000  0.33669000  0.08699700  1
  Sr  Sr1  1  0.67023200  0.67023200  0.42162500  1
  Lu  Lu0  1  0.66662700  0.66662700  0.16746800  1
  Lu  Lu1  1  0.99958400  0.99958400  0.49808800  1
  Lu  Lu2  1  0.33353800  0.33353800  0.83487400  1
  Bi  Bi0  1  0.99976100  0.99976100  0.00171600  1
  Bi  Bi1  1  0.33388700  0.33388700  0.33259300  1
  Bi  Bi2  1  0.66676300  0.66676300  0.66562300  1
  O  O0  1  0.52550700  0.52550700  0.27919200  1
  O  O1  1  0.85206300  0.85206300  0.60430700  1
  O  O2  1  0.18976200  0.18976200  0.94487900  1
  O  O3  1  0.81502900  0.81502900  0.06288400  1
  O  O4  1  0.14918100  0.14918100  0.39510800  1
  O  O5  1  0.48286700  0.48286700  0.72927500  1
  O  O6  1  0.79945600  0.30890600  0.09332300  1
  O  O7  1  0.13289400  0.64103700  0.42496400  1
  O  O8  1  0.47799500  0.97680300  0.75885400  1
  O  O9  1  0.03537500  0.51622800  0.23531200  1
  O  O10  1  0.36514500  0.84893700  0.56908000  1
  O  O11  1  0.69385700  0.18652600  0.90715800  1
  O  O12  1  0.51622800  0.03537500  0.23531200  1
  O  O13  1  0.84893700  0.36514500  0.56908000  1
  O  O14  1  0.18652600  0.69385700  0.90715800  1
  O  O15  1  0.30890600  0.79945600  0.09332300  1
  O  O16  1  0.64103700  0.13289400  0.42496400  1
  O  O17  1  0.97680300  0.47799500  0.75885400  1
loop_
_geom_bond_atom_site_label_1
_geom_bond_atom_site_label_2
_geom_bond_distance
_geom_bond_site_symmetry_2
Ba0 O1 2.689483 1_445
Ba0 O14 2.809984 1_545
Ba0 O11 2.809984 1_455
Ba0 O17 2.822680 1_455
Ba0 O8 2.822680 1_545
Ba0 O5 3.045775 1_545
Ba0 O5 3.045775 1_455
Ba0 O8 3.230151 1_445
Ba0 O17 3.230151 1_445
Ba0 O10 3.309664 1_545
Ba0 O13 3.309664 1_455
Ba1 O4 2.692820 1_665
Ba1 O12 2.817941 1_565
Ba1 O9 2.817941 1_655
Ba1 O15 2.828075 1_655
Ba1 O6 2.828075 1_565
Ba1 O0 3.068871 1_655
Ba1 O0 3.068871 1_565
Ba1 O7 3.214319 1_655
Ba1 O16 3.214319 1_565
Ba1 O12 3.251790 1_665
Ba1 O9 3.251790 1_665
Ba1 O3 3.372155 1_555
Ba2 O5 2.724430 1_555
Ba2 O10 2.826116 1_545
Ba2 O13 2.826116 1_455
Ba2 O16 2.828666 1_555
Ba2 O7 2.828666 1_555
Ba2 O1 3.050081 1_455
Ba2 O1 3.050081 1_545
Ba2 O17 3.224629 1_455
Ba2 O8 3.224629 1_545
Ba2 O10 3.238153 1_555
Ba2 O13 3.238153 1_555
Ba2 O4 3.361173 1_555
Ba3 O3 2.683823 1_556
Ba3 O11 2.816526 1_555
Ba3 O14 2.816526 1_555
Ba3 O17 2.854059 1_555
Ba3 O8 2.854059 1_555
Ba3 O2 3.061572 1_655
Ba3 O2 3.061572 1_565
Ba3 O15 3.216172 1_556
Ba3 O6 3.216172 1_556
Ba3 O14 3.241691 1_655
Ba3 O11 3.241691 1_565
Ba3 O5 3.385936 1_555
Lu0 O3 2.184888 1_555
Lu0 O12 2.190593 1_565
Lu0 O9 2.190593 1_655
Lu0 O6 2.193966 1_555
Lu0 O15 2.193966 1_555
Lu0 O0 2.209347 1_555
Lu1 O4 2.177143 1_665
Lu1 O16 2.190015 1_565
Lu1 O7 2.190015 1_655
Lu1 O1 2.195554 1_555
Lu1 O10 2.196981 1_655
Lu1 O13 2.196981 1_565
Lu2 O14 2.183064 1_555
Lu2 O11 2.183064 1_555
Lu2 O17 2.195425 1_455
Lu2 O8 2.195425 1_545
Lu2 O5 2.202308 1_555
Lu2 O2 2.209139 1_555
Bi0 O3 2.128633 1_555
Bi0 O15 2.133428 1_655
Bi0 O6 2.133428 1_565
Bi0 O11 2.141188 1_564
Bi0 O14 2.141188 1_654
Bi0 O2 2.153272 1_664
Bi1 O16 2.134060 1_555
Bi1 O7 2.134060 1_555
Bi1 O4 2.136807 1_555
Bi1 O12 2.138989 1_555
Bi1 O9 2.138989 1_555
Bi1 O0 2.150033 1_555
Bi2 O1 2.134930 1_555
Bi2 O5 2.136422 1_555
Bi2 O10 2.142706 1_555
Bi2 O13 2.142706 1_555
Bi2 O17 2.144679 1_555
Bi2 O8 2.144679 1_555
O0 Sr1 2.609063 1_555
O2 Sr0 2.618905 1_556
O4 Sr1 3.055682 1_455
O4 Sr1 3.055682 1_545
O6 Sr0 2.719248 1_555
O7 Sr1 2.713277 1_455
O9 Sr0 2.706423 1_555
O10 Sr1 2.706526 1_555
O12 Sr0 2.706423 1_555
O13 Sr1 2.706526 1_555
O15 Sr0 2.719248 1_555
O16 Sr1 2.713277 1_545
