# generated using pymatgen
data_P7Rh12
_symmetry_space_group_name_H-M   'P 1'
_cell_length_a   3.53478600
_cell_length_b   9.16033800
_cell_length_c   9.16033851
_cell_angle_alpha   60.00000183
_cell_angle_beta   90.00000000
_cell_angle_gamma   90.00000000
_symmetry_Int_Tables_number   1
_chemical_formula_structural   P7Rh12
_chemical_formula_sum   'P7 Rh12'
_cell_volume   256.87201189
_cell_formula_units_Z   1
loop_
 _symmetry_equiv_pos_site_id
 _symmetry_equiv_pos_as_xyz
  1  'x, y, z'
loop_
 _atom_site_type_symbol
 _atom_site_label
 _atom_site_symmetry_multiplicity
 _atom_site_fract_x
 _atom_site_fract_y
 _atom_site_fract_z
 _atom_site_occupancy
  P  P0  1  0.75000000  0.00000000  0.00000000  1
  P  P1  1  0.75000000  0.84150400  0.71621300  1
  P  P2  1  0.75000000  0.44228400  0.84150400  1
  P  P3  1  0.75000000  0.71621300  0.44228400  1
  P  P4  1  0.25000000  0.16237800  0.28135800  1
  P  P5  1  0.25000000  0.55626400  0.16237800  1
  P  P6  1  0.25000000  0.28135800  0.55626400  1
  Rh  Rh0  1  0.75000000  0.23808500  0.74683600  1
  Rh  Rh1  1  0.75000000  0.01507900  0.23808500  1
  Rh  Rh2  1  0.75000000  0.74683600  0.01507900  1
  Rh  Rh3  1  0.25000000  0.77210800  0.24173700  1
  Rh  Rh4  1  0.25000000  0.98615500  0.77210800  1
  Rh  Rh5  1  0.25000000  0.24173700  0.98615500  1
  Rh  Rh6  1  0.75000000  0.13247500  0.48418100  1
  Rh  Rh7  1  0.75000000  0.38334400  0.13247500  1
  Rh  Rh8  1  0.75000000  0.48418100  0.38334400  1
  Rh  Rh9  1  0.25000000  0.86287400  0.51346100  1
  Rh  Rh10  1  0.25000000  0.62366500  0.86287400  1
  Rh  Rh11  1  0.25000000  0.51346100  0.62366500  1
loop_
_geom_bond_atom_site_label_1
_geom_bond_atom_site_label_2
_geom_bond_distance
_geom_bond_site_symmetry_2
P0 Rh2 2.253181 1_545
P0 Rh1 2.253181 1_555
P0 Rh0 2.253181 1_554
P0 Rh5 2.786119 1_554
P0 Rh5 2.786119 1_654
P0 Rh4 2.786119 1_544
P0 Rh4 2.786119 1_644
P0 Rh3 2.786119 1_545
P0 Rh3 2.786119 1_645
P1 Rh4 2.412478 1_655
P1 Rh4 2.412478 1_555
P1 Rh2 2.423422 1_556
P1 Rh6 2.440648 1_565
P1 Rh10 2.495928 1_555
P1 Rh10 2.495928 1_655
P1 Rh9 2.499580 1_655
P1 Rh9 2.499580 1_555
P2 Rh5 2.412483 1_655
P2 Rh5 2.412483 1_555
P2 Rh0 2.423431 1_555
P2 Rh7 2.440645 1_556
P2 Rh11 2.495929 1_555
P2 Rh11 2.495929 1_655
P2 Rh10 2.499574 1_655
P2 Rh10 2.499574 1_555
P3 Rh3 2.412484 1_555
P3 Rh3 2.412484 1_655
P3 Rh1 2.423424 1_565
P3 Rh8 2.440654 1_555
P3 Rh9 2.495923 1_555
P3 Rh9 2.495923 1_655
P3 Rh11 2.499578 1_655
P3 Rh11 2.499578 1_555
P4 Rh1 2.374089 1_555
P4 Rh1 2.374089 1_455
P4 Rh5 2.423869 1_554
P4 Rh6 2.478241 1_555
P4 Rh6 2.478241 1_455
P4 Rh9 2.492869 1_545
P4 Rh7 2.514004 1_455
P4 Rh7 2.514004 1_555
P5 Rh2 2.374089 1_455
P5 Rh2 2.374089 1_555
P5 Rh3 2.423868 1_555
P5 Rh7 2.478241 1_555
P5 Rh7 2.478241 1_455
P5 Rh10 2.492869 1_554
P5 Rh8 2.514004 1_455
P5 Rh8 2.514004 1_555
P6 Rh0 2.374090 1_455
P6 Rh0 2.374090 1_555
P6 Rh4 2.423869 1_545
P6 Rh8 2.478241 1_555
P6 Rh8 2.478241 1_455
P6 Rh11 2.492869 1_555
P6 Rh6 2.514004 1_555
P6 Rh6 2.514004 1_455
