# generated using pymatgen
data_Li2MoP4O13
_symmetry_space_group_name_H-M   'P 1'
_cell_length_a   5.31892900
_cell_length_b   8.21649169
_cell_length_c   13.66866371
_cell_angle_alpha   94.42274520
_cell_angle_beta   94.62346968
_cell_angle_gamma   99.76724483
_symmetry_Int_Tables_number   1
_chemical_formula_structural   Li2MoP4O13
_chemical_formula_sum   'Li4 Mo2 P8 O26'
_cell_volume   584.27466035
_cell_formula_units_Z   2
loop_
 _symmetry_equiv_pos_site_id
 _symmetry_equiv_pos_as_xyz
  1  'x, y, z'
loop_
 _atom_site_type_symbol
 _atom_site_label
 _atom_site_symmetry_multiplicity
 _atom_site_fract_x
 _atom_site_fract_y
 _atom_site_fract_z
 _atom_site_occupancy
  Li  Li0  1  0.01403800  0.34042500  0.01457000  1
  Li  Li1  1  0.23979200  0.46380600  0.49271200  1
  Li  Li2  1  0.76020800  0.53619400  0.50728800  1
  Li  Li3  1  0.98596200  0.65957500  0.98543000  1
  Mo  Mo0  1  0.35748400  0.07538200  0.73354400  1
  Mo  Mo1  1  0.64251600  0.92461800  0.26645600  1
  P  P0  1  0.16829200  0.09853900  0.15977300  1
  P  P1  1  0.52514400  0.30590800  0.31245200  1
  P  P2  1  0.83170800  0.90146100  0.84022700  1
  P  P3  1  0.47485600  0.69409200  0.68754800  1
  P  P4  1  0.11698000  0.74737100  0.36352300  1
  P  P5  1  0.88302000  0.25262900  0.63647700  1
  P  P6  1  0.19484700  0.43840900  0.81162000  1
  P  P7  1  0.80515300  0.56159100  0.18838000  1
  O  O0  1  0.88063200  0.51722300  0.08797500  1
  O  O1  1  0.24888400  0.23792600  0.25577400  1
  O  O2  1  0.65354300  0.03085200  0.82618200  1
  O  O3  1  0.75111600  0.76207400  0.74422600  1
  O  O4  1  0.81091300  0.81528600  0.93182700  1
  O  O5  1  0.60118800  0.17115700  0.63599800  1
  O  O6  1  0.50139600  0.57210600  0.60374900  1
  O  O7  1  0.06074600  0.62823400  0.25934400  1
  O  O8  1  0.89234200  0.01639900  0.17261100  1
  O  O9  1  0.37822900  0.31617500  0.80351600  1
  O  O10  1  0.34645700  0.96914800  0.17381800  1
  O  O11  1  0.06319600  0.64018600  0.44596500  1
  O  O12  1  0.31516200  0.60904200  0.77128200  1
  O  O13  1  0.34425800  0.83854400  0.66263000  1
  O  O14  1  0.94399300  0.87994900  0.35535900  1
  O  O15  1  0.05600700  0.12005100  0.64464100  1
  O  O16  1  0.18908700  0.18471400  0.06817300  1
  O  O17  1  0.68483800  0.39095800  0.22871800  1
  O  O18  1  0.93680400  0.35981400  0.55403500  1
  O  O19  1  0.11936800  0.48277700  0.91202500  1
  O  O20  1  0.62177100  0.68382500  0.19648400  1
  O  O21  1  0.10765800  0.98360100  0.82738900  1
  O  O22  1  0.93925400  0.37176600  0.74065600  1
  O  O23  1  0.49860400  0.42789400  0.39625100  1
  O  O24  1  0.39881200  0.82884300  0.36400200  1
  O  O25  1  0.65574200  0.16145600  0.33737000  1
loop_
_geom_bond_atom_site_label_1
_geom_bond_atom_site_label_2
_geom_bond_distance
_geom_bond_site_symmetry_2
Li0 O16 1.865300 1_555
Li0 O19 1.950297 1_554
Li0 O0 1.964725 1_455
Li1 O18 1.972525 1_455
Li1 O11 1.974524 1_555
Li1 O6 2.015591 1_555
Li1 O23 2.022610 1_555
Li2 O11 1.972525 1_655
Li2 O18 1.974524 1_555
Li2 O23 2.015591 1_555
Li2 O6 2.022610 1_555
Li3 O4 1.865300 1_555
Li3 O0 1.950297 1_556
Li3 O19 1.964725 1_655
Mo0 O21 2.015891 1_545
Mo0 O15 2.033970 1_555
Mo0 O2 2.040206 1_555
Mo0 O5 2.042455 1_555
Mo0 O13 2.093553 1_545
Mo0 O9 2.111481 1_555
Mo1 O8 2.015891 1_565
Mo1 O14 2.033970 1_555
Mo1 O10 2.040206 1_555
Mo1 O24 2.042455 1_555
Mo1 O25 2.093553 1_565
Mo1 O20 2.111481 1_555
O0 P7 1.496289 1_555
O1 P1 1.594553 1_555
O1 P0 1.651741 1_555
O2 P2 1.552139 1_545
O3 P3 1.594553 1_555
O3 P2 1.651741 1_555
O4 P2 1.487847 1_555
O5 P5 1.533806 1_555
O6 P3 1.494498 1_555
O7 P7 1.594306 1_455
O7 P4 1.640864 1_555
O8 P0 1.537624 1_655
O9 P6 1.518221 1_555
O10 P0 1.552139 1_565
O11 P4 1.498944 1_555
O12 P6 1.597136 1_555
O12 P3 1.611975 1_555
O13 P3 1.520255 1_555
O14 P4 1.545297 1_655
O15 P5 1.545297 1_455
O16 P0 1.487847 1_555
O17 P7 1.597136 1_555
O17 P1 1.611975 1_555
O18 P5 1.498944 1_555
O19 P6 1.496289 1_555
O20 P7 1.518221 1_555
O21 P2 1.537624 1_455
O22 P6 1.594306 1_655
O22 P5 1.640864 1_555
O23 P1 1.494498 1_555
O24 P4 1.533806 1_555
O25 P1 1.520255 1_555
