# generated using pymatgen
data_Al4B2O9
_symmetry_space_group_name_H-M   'P 1'
_cell_length_a   5.53417948
_cell_length_b   7.86806610
_cell_length_c   15.03828545
_cell_angle_alpha   91.05416144
_cell_angle_beta   90.00296817
_cell_angle_gamma   69.40935217
_symmetry_Int_Tables_number   1
_chemical_formula_structural   Al4B2O9
_chemical_formula_sum   'Al16 B8 O36'
_cell_volume   612.86659764
_cell_formula_units_Z   4
loop_
 _symmetry_equiv_pos_site_id
 _symmetry_equiv_pos_as_xyz
  1  'x, y, z'
loop_
 _atom_site_type_symbol
 _atom_site_label
 _atom_site_symmetry_multiplicity
 _atom_site_fract_x
 _atom_site_fract_y
 _atom_site_fract_z
 _atom_site_occupancy
  Al  Al0  1  0.19410939  0.61195933  0.15825694  1
  Al  Al1  1  0.80589064  0.38804059  0.84174309  1
  Al  Al2  1  0.32929786  0.34162029  0.34472329  1
  Al  Al3  1  0.67070213  0.65837969  0.65527667  1
  Al  Al4  1  0.43067444  0.13863209  0.06889646  1
  Al  Al5  1  0.56932557  0.86136784  0.93110362  1
  Al  Al6  1  0.50000000  0.50000000  0.00000003  1
  Al  Al7  1  0.00000001  0.49999996  0.00000002  1
  Al  Al8  1  0.25717069  0.99771547  0.24465829  1
  Al  Al9  1  0.74500253  0.99781179  0.24464219  1
  Al  Al10  1  0.74282941  0.00228441  0.75534175  1
  Al  Al11  1  0.25499752  0.00218815  0.75535784  1
  Al  Al12  1  0.13774789  0.72453438  0.33689902  1
  Al  Al13  1  0.86225202  0.27546560  0.66310093  1
  Al  Al14  1  0.49999994  0.50000004  0.49999998  1
  Al  Al15  1  0.00000001  0.50000004  0.49999995  1
  B  B0  1  0.62352339  0.75307617  0.11743691  1
  B  B1  1  0.37647666  0.24692371  0.88256314  1
  B  B2  1  0.61112178  0.77780960  0.38743225  1
  B  B3  1  0.38887817  0.22219034  0.61256765  1
  B  B4  1  0.89858864  0.20285733  0.10370700  1
  B  B5  1  0.10141134  0.79714269  0.89629305  1
  B  B6  1  0.87276097  0.25456615  0.36988395  1
  B  B7  1  0.12723904  0.74543383  0.63011602  1
  O  O0  1  0.24106967  0.51816110  0.26739582  1
  O  O1  1  0.75893022  0.48183887  0.73260415  1
  O  O2  1  0.46532628  0.63702575  0.10636627  1
  O  O3  1  0.89779385  0.63711356  0.10635567  1
  O  O4  1  0.53467374  0.36297416  0.89363378  1
  O  O5  1  0.10220626  0.36288625  0.89364437  1
  O  O6  1  0.36060793  0.84311749  0.35662971  1
  O  O7  1  0.79634670  0.84307314  0.35662470  1
  O  O8  1  0.63939208  0.15688247  0.64337024  1
  O  O9  1  0.20365312  0.15692680  0.64337523  1
  O  O10  1  0.21000824  0.58006074  0.43256517  1
  O  O11  1  0.78999169  0.41993944  0.56743476  1
  O  O12  1  0.15050075  0.13112678  0.13558125  1
  O  O13  1  0.71836738  0.13118881  0.13557903  1
  O  O14  1  0.84949919  0.86887319  0.86441884  1
  O  O15  1  0.28163258  0.86881120  0.86442105  1
  O  O16  1  0.67990268  0.64017180  0.44825691  1
  O  O17  1  0.32009714  0.35982833  0.55174300  1
  O  O18  1  0.16732284  0.66531813  0.95864347  1
  O  O19  1  0.83267708  0.33468182  0.04135656  1
  O  O20  1  0.42941301  0.14106691  0.28381298  1
  O  O21  1  0.57058694  0.85893301  0.71618712  1
  O  O22  1  0.57318878  0.85361427  0.20099880  1
  O  O23  1  0.42681121  0.14638571  0.79900122  1
  O  O24  1  0.05384384  0.32082286  0.40493376  1
  O  O25  1  0.62544471  0.32079839  0.40496584  1
  O  O26  1  0.94615601  0.67917730  0.59506611  1
  O  O27  1  0.37455527  0.67920173  0.59503408  1
  O  O28  1  0.93326300  0.13339244  0.30047700  1
  O  O29  1  0.06673717  0.86660735  0.69952305  1
  O  O30  1  0.30384840  0.39230144  0.06230838  1
  O  O31  1  0.69615193  0.60769848  0.93769163  1
  O  O32  1  0.08068369  0.83859498  0.22384708  1
  O  O33  1  0.91931647  0.16140493  0.77615289  1
  O  O34  1  0.55641450  0.88716702  0.04879076  1
  O  O35  1  0.44358564  0.11283290  0.95120930  1
loop_
_geom_bond_atom_site_label_1
_geom_bond_atom_site_label_2
_geom_bond_distance
_geom_bond_site_symmetry_2
Al0 O2 1.764860 1_555
Al0 O3 1.764874 1_455
Al0 O0 1.793198 1_555
Al0 O32 1.922165 1_555
Al0 O30 2.146583 1_555
Al1 O4 1.764860 1_555
Al1 O5 1.764874 1_655
Al1 O1 1.793199 1_555
Al1 O33 1.922166 1_555
Al1 O31 2.146583 1_555
Al2 O20 1.722762 1_555
Al2 O0 1.761370 1_555
Al2 O25 1.830332 1_555
Al2 O24 1.830716 1_555
Al2 O10 2.176745 1_555
Al3 O21 1.722763 1_555
Al3 O1 1.761370 1_555
Al3 O27 1.830332 1_555
Al3 O26 1.830717 1_555
Al3 O11 2.176744 1_555
Al4 O35 1.776272 1_554
Al4 O12 1.865485 1_555
Al4 O13 1.865571 1_555
Al4 O34 1.870797 1_545
Al4 O30 1.872950 1_555
Al5 O34 1.776271 1_556
Al5 O14 1.865485 1_555
Al5 O15 1.865571 1_555
Al5 O35 1.870797 1_565
Al5 O31 1.872950 1_555
Al6 O30 1.857624 1_555
Al6 O31 1.857625 1_554
Al6 O2 1.883840 1_555
Al6 O4 1.883840 1_554
Al6 O19 1.952832 1_555
Al6 O18 1.952833 1_554
Al7 O31 1.857540 1_454
Al7 O30 1.857541 1_555
Al7 O3 1.883954 1_455
Al7 O5 1.883955 1_554
Al7 O18 1.952742 1_554
Al7 O19 1.952742 1_455
Al8 O20 1.805332 1_565
Al8 O22 1.831182 1_555
Al8 O32 1.861449 1_555
Al8 O28 1.917994 1_465
Al8 O12 1.941243 1_565
Al8 O6 2.056249 1_555
Al9 O20 1.805221 1_565
Al9 O22 1.831235 1_555
Al9 O32 1.861982 1_655
Al9 O28 1.917599 1_565
Al9 O13 1.941008 1_565
Al9 O7 2.056947 1_555
Al10 O21 1.805332 1_545
Al10 O23 1.831183 1_555
Al10 O33 1.861449 1_555
Al10 O29 1.917995 1_645
Al10 O14 1.941243 1_545
Al10 O8 2.056251 1_555
Al11 O21 1.805220 1_545
Al11 O23 1.831235 1_555
Al11 O33 1.861982 1_455
Al11 O29 1.917599 1_545
Al11 O15 1.941009 1_545
Al11 O9 2.056948 1_555
Al12 O10 1.806149 1_555
Al12 O7 1.810530 1_455
Al12 O6 1.810771 1_555
Al12 O0 1.827720 1_555
Al12 O32 1.911080 1_555
Al13 O11 1.806150 1_555
Al13 O9 1.810530 1_655
Al13 O8 1.810770 1_555
Al13 O1 1.827720 1_555
Al13 O33 1.911080 1_555
Al14 O11 1.820183 1_555
Al14 O10 1.820183 1_555
Al14 O17 1.901860 1_555
Al14 O16 1.901860 1_555
Al14 O27 1.936467 1_555
Al14 O25 1.936467 1_555
Al15 O10 1.820590 1_555
Al15 O11 1.820591 1_455
Al15 O17 1.901888 1_555
Al15 O16 1.901889 1_455
Al15 O26 1.936626 1_455
Al15 O24 1.936626 1_555
B0 O34 1.442618 1_555
B0 O22 1.446002 1_555
B0 O3 1.477997 1_555
B0 O2 1.478044 1_555
B1 O35 1.442618 1_555
B1 O23 1.446002 1_555
B1 O5 1.477997 1_555
B1 O4 1.478044 1_555
B2 O16 1.378694 1_555
B2 O7 1.381349 1_555
B2 O6 1.381410 1_555
B3 O17 1.378695 1_555
B3 O9 1.381350 1_555
B3 O8 1.381411 1_555
B4 O19 1.362959 1_555
B4 O13 1.395725 1_555
B4 O12 1.395826 1_655
B5 O18 1.362959 1_555
B5 O15 1.395725 1_555
B5 O14 1.395826 1_455
B6 O28 1.359930 1_555
B6 O24 1.382456 1_655
B6 O25 1.382566 1_555
B7 O29 1.359930 1_555
B7 O26 1.382457 1_455
B7 O27 1.382566 1_555
