# generated using pymatgen
data_Ba2EuBiO6
_symmetry_space_group_name_H-M   'P 1'
_cell_length_a   8.80069370
_cell_length_b   8.80069370
_cell_length_c   8.80069370
_cell_angle_alpha   90.00000000
_cell_angle_beta   90.00000000
_cell_angle_gamma   90.00000000
_symmetry_Int_Tables_number   1
_chemical_formula_structural   Ba2EuBiO6
_chemical_formula_sum   'Ba8 Eu4 Bi4 O24'
_cell_volume   681.63317309
_cell_formula_units_Z   4
loop_
 _symmetry_equiv_pos_site_id
 _symmetry_equiv_pos_as_xyz
  1  'x, y, z'
loop_
 _atom_site_type_symbol
 _atom_site_label
 _atom_site_symmetry_multiplicity
 _atom_site_fract_x
 _atom_site_fract_y
 _atom_site_fract_z
 _atom_site_occupancy
  Ba  Ba0  1  0.50000000  0.50000000  0.50000000  1
  Ba  Ba1  1  0.00000000  -0.00000000  0.00000000  1
  Ba  Ba2  1  0.00000000  -0.00000000  0.50000000  1
  Ba  Ba3  1  -0.00000000  0.50000000  0.00000000  1
  Ba  Ba4  1  0.50000000  -0.00000000  0.00000000  1
  Ba  Ba5  1  0.50000000  0.50000000  0.00000000  1
  Ba  Ba6  1  0.50000000  -0.00000000  0.50000000  1
  Ba  Ba7  1  -0.00000000  0.50000000  0.50000000  1
  Eu  Eu0  1  0.25000000  0.25000000  0.25000000  1
  Eu  Eu1  1  0.25000000  0.75000000  0.75000000  1
  Eu  Eu2  1  0.75000000  0.25000000  0.75000000  1
  Eu  Eu3  1  0.75000000  0.75000000  0.25000000  1
  Bi  Bi0  1  0.75000000  0.75000000  0.75000000  1
  Bi  Bi1  1  0.75000000  0.25000000  0.25000000  1
  Bi  Bi2  1  0.25000000  0.75000000  0.25000000  1
  Bi  Bi3  1  0.25000000  0.25000000  0.75000000  1
  O  O0  1  0.22926115  0.27300484  0.50822951  1
  O  O1  1  0.22926115  0.72699516  0.49177049  1
  O  O2  1  0.77073885  0.27300484  0.49177049  1
  O  O3  1  0.77073885  0.72699516  0.50822951  1
  O  O4  1  0.27300484  0.50822951  0.22926115  1
  O  O5  1  0.72699516  0.49177049  0.22926115  1
  O  O6  1  0.27300484  0.49177049  0.77073885  1
  O  O7  1  0.72699516  0.50822951  0.77073885  1
  O  O8  1  0.50822951  0.22926115  0.27300484  1
  O  O9  1  0.49177049  0.22926115  0.72699516  1
  O  O10  1  0.49177049  0.77073885  0.27300484  1
  O  O11  1  0.50822951  0.77073885  0.72699516  1
  O  O12  1  0.27073885  0.22699516  0.99177049  1
  O  O13  1  0.27073885  0.77300484  0.00822951  1
  O  O14  1  0.72926115  0.22699516  0.00822951  1
  O  O15  1  0.72926115  0.77300484  0.99177049  1
  O  O16  1  0.22699516  0.99177049  0.27073885  1
  O  O17  1  0.77300484  0.00822951  0.27073885  1
  O  O18  1  0.22699516  0.00822951  0.72926115  1
  O  O19  1  0.77300484  0.99177049  0.72926115  1
  O  O20  1  0.99177049  0.27073885  0.22699516  1
  O  O21  1  0.00822951  0.27073885  0.77300484  1
  O  O22  1  0.00822951  0.72926115  0.22699516  1
  O  O23  1  0.99177049  0.72926115  0.77300484  1
loop_
_geom_bond_atom_site_label_1
_geom_bond_atom_site_label_2
_geom_bond_distance
_geom_bond_site_symmetry_2
Ba0 O5 3.110196 1_555
Ba0 O6 3.110196 1_555
Ba0 O8 3.110196 1_555
Ba0 O7 3.110196 1_555
Ba0 O0 3.110196 1_555
Ba0 O9 3.110196 1_555
Ba0 O4 3.110196 1_555
Ba0 O10 3.110196 1_555
Ba0 O2 3.110196 1_555
Ba0 O3 3.110196 1_555
Ba0 O11 3.110196 1_555
Ba0 O1 3.110196 1_555
Ba1 O21 3.110196 1_554
Ba1 O23 3.110196 1_444
Ba1 O18 3.110196 1_554
Ba1 O12 3.110196 1_554
Ba1 O13 3.110196 1_545
Ba1 O15 3.110196 1_444
Ba1 O19 3.110196 1_444
Ba1 O20 3.110196 1_455
Ba1 O17 3.110196 1_455
Ba1 O14 3.110196 1_455
Ba1 O16 3.110196 1_545
Ba1 O22 3.110196 1_545
Ba2 O17 2.840255 1_455
Ba2 O19 2.840255 1_445
Ba2 O16 2.840255 1_545
Ba2 O18 2.840255 1_555
Ba2 O0 3.138284 1_555
Ba2 O1 3.138284 1_545
Ba2 O2 3.138284 1_455
Ba2 O3 3.138284 1_445
Ba2 O20 3.384538 1_455
Ba2 O23 3.384538 1_445
Ba2 O21 3.384538 1_555
Ba2 O22 3.384538 1_545
Ba3 O23 2.840255 1_454
Ba3 O22 2.840255 1_555
Ba3 O20 2.840255 1_455
Ba3 O21 2.840255 1_554
Ba3 O4 3.138284 1_555
Ba3 O5 3.138284 1_455
Ba3 O7 3.138284 1_454
Ba3 O6 3.138284 1_554
Ba3 O14 3.384538 1_455
Ba3 O15 3.384538 1_454
Ba3 O12 3.384538 1_554
Ba3 O13 3.384538 1_555
Ba4 O15 2.840255 1_544
Ba4 O13 2.840255 1_545
Ba4 O12 2.840255 1_554
Ba4 O14 2.840255 1_555
Ba4 O8 3.138284 1_555
Ba4 O9 3.138284 1_554
Ba4 O11 3.138284 1_544
Ba4 O10 3.138284 1_545
Ba4 O19 3.384538 1_544
Ba4 O17 3.384538 1_555
Ba4 O16 3.384538 1_545
Ba4 O18 3.384538 1_554
Ba5 O4 2.840255 1_555
Ba5 O5 2.840255 1_555
Ba5 O7 2.840255 1_554
Ba5 O6 2.840255 1_554
Ba5 O15 3.138284 1_554
Ba5 O12 3.138284 1_554
Ba5 O13 3.138284 1_555
Ba5 O14 3.138284 1_555
Ba5 O10 3.384538 1_555
Ba5 O11 3.384538 1_554
Ba5 O9 3.384538 1_554
Ba5 O8 3.384538 1_555
Ba6 O8 2.840255 1_555
Ba6 O9 2.840255 1_555
Ba6 O10 2.840255 1_545
Ba6 O11 2.840255 1_545
Ba6 O16 3.138284 1_545
Ba6 O18 3.138284 1_555
Ba6 O19 3.138284 1_545
Ba6 O17 3.138284 1_555
Ba6 O2 3.384538 1_555
Ba6 O0 3.384538 1_555
Ba6 O3 3.384538 1_545
Ba6 O1 3.384538 1_545
Ba7 O2 2.840255 1_455
Ba7 O1 2.840255 1_555
Ba7 O3 2.840255 1_455
Ba7 O0 2.840255 1_555
Ba7 O21 3.138284 1_555
Ba7 O22 3.138284 1_555
Ba7 O23 3.138284 1_455
Ba7 O20 3.138284 1_455
Ba7 O7 3.384538 1_455
Ba7 O4 3.384538 1_555
Ba7 O5 3.384538 1_455
Ba7 O6 3.384538 1_555
Eu0 O12 2.288888 1_554
Eu0 O8 2.288888 1_555
Eu0 O0 2.288888 1_555
Eu0 O20 2.288888 1_455
Eu0 O16 2.288888 1_545
Eu0 O4 2.288888 1_555
Eu1 O1 2.288888 1_555
Eu1 O6 2.288888 1_555
Eu1 O23 2.288888 1_455
Eu1 O13 2.288888 1_556
Eu1 O18 2.288888 1_565
Eu1 O11 2.288888 1_555
Eu2 O2 2.288888 1_555
Eu2 O9 2.288888 1_555
Eu2 O7 2.288888 1_555
Eu2 O21 2.288888 1_655
Eu2 O19 2.288888 1_545
Eu2 O14 2.288888 1_556
Eu3 O5 2.288888 1_555
Eu3 O10 2.288888 1_555
Eu3 O15 2.288888 1_554
Eu3 O3 2.288888 1_555
Eu3 O22 2.288888 1_655
Eu3 O17 2.288888 1_565
Bi0 O7 2.145137 1_555
Bi0 O19 2.145137 1_555
Bi0 O3 2.145137 1_555
Bi0 O11 2.145137 1_555
Bi0 O23 2.145137 1_555
Bi0 O15 2.145137 1_555
Bi1 O20 2.145137 1_555
Bi1 O8 2.145137 1_555
Bi1 O14 2.145137 1_555
Bi1 O5 2.145137 1_555
Bi1 O2 2.145137 1_555
Bi1 O17 2.145137 1_555
Bi2 O16 2.145137 1_555
Bi2 O4 2.145137 1_555
Bi2 O13 2.145137 1_555
Bi2 O10 2.145137 1_555
Bi2 O22 2.145137 1_555
Bi2 O1 2.145137 1_555
Bi3 O0 2.145137 1_555
Bi3 O12 2.145137 1_555
Bi3 O21 2.145137 1_555
Bi3 O6 2.145137 1_555
Bi3 O18 2.145137 1_555
Bi3 O9 2.145137 1_555
