# generated using pymatgen
data_MnVN2
_symmetry_space_group_name_H-M   'P 1'
_cell_length_a   5.26379800
_cell_length_b   6.04642000
_cell_length_c   5.35884800
_cell_angle_alpha   90.00000000
_cell_angle_beta   90.00000000
_cell_angle_gamma   90.00000000
_symmetry_Int_Tables_number   1
_chemical_formula_structural   MnVN2
_chemical_formula_sum   'Mn4 V4 N8'
_cell_volume   170.55677072
_cell_formula_units_Z   4
loop_
 _symmetry_equiv_pos_site_id
 _symmetry_equiv_pos_as_xyz
  1  'x, y, z'
loop_
 _atom_site_type_symbol
 _atom_site_label
 _atom_site_symmetry_multiplicity
 _atom_site_fract_x
 _atom_site_fract_y
 _atom_site_fract_z
 _atom_site_occupancy
  Mn  Mn0  1  0.59083900  0.87156900  0.00295400  1
  Mn  Mn1  1  0.40916100  0.12843100  0.50295400  1
  Mn  Mn2  1  0.90916100  0.37156900  0.50295400  1
  Mn  Mn3  1  0.09083900  0.62843100  0.00295400  1
  V  V0  1  0.58192000  0.37291900  0.00506400  1
  V  V1  1  0.41808000  0.62708100  0.50506400  1
  V  V2  1  0.91808000  0.87291900  0.50506400  1
  V  V3  1  0.08192000  0.12708100  0.00506400  1
  N  N0  1  0.58544000  0.87642600  0.35976500  1
  N  N1  1  0.41456000  0.12357400  0.85976500  1
  N  N2  1  0.91456000  0.37642600  0.85976500  1
  N  N3  1  0.08544000  0.62357400  0.35976500  1
  N  N4  1  0.57906100  0.37781000  0.35421900  1
  N  N5  1  0.42093900  0.62219000  0.85421900  1
  N  N6  1  0.92093900  0.87781000  0.85421900  1
  N  N7  1  0.07906100  0.12219000  0.35421900  1
loop_
_geom_bond_atom_site_label_1
_geom_bond_atom_site_label_2
_geom_bond_distance
_geom_bond_site_symmetry_2
Mn0 N6 1.912039 1_554
Mn0 N0 1.912533 1_555
Mn0 N5 1.925800 1_554
Mn0 N1 1.942043 1_564
Mn1 N7 1.912039 1_555
Mn1 N1 1.912533 1_555
Mn1 N4 1.925800 1_555
Mn1 N0 1.942043 1_545
Mn2 N4 1.912039 1_555
Mn2 N2 1.912533 1_555
Mn2 N7 1.925800 1_655
Mn2 N3 1.942043 1_655
Mn3 N5 1.912039 1_554
Mn3 N3 1.912533 1_555
Mn3 N6 1.925800 1_454
Mn3 N2 1.942043 1_454
N0 V1 1.911893 1_555
N0 V2 1.916389 1_555
N1 V0 1.911893 1_556
N1 V3 1.916389 1_556
N2 V3 1.911893 1_656
N2 V0 1.916389 1_556
N3 V2 1.911893 1_455
N3 V1 1.916389 1_555
N4 V0 1.871363 1_555
N4 V1 1.908696 1_555
N5 V1 1.871363 1_555
N5 V0 1.908696 1_556
N6 V2 1.871363 1_555
N6 V3 1.908696 1_666
N7 V3 1.871363 1_555
N7 V2 1.908696 1_445
