# generated using pymatgen
data_Li(CoO2)4
_symmetry_space_group_name_H-M   'P 1'
_cell_length_a   5.71526225
_cell_length_b   8.12493273
_cell_length_c   5.66471195
_cell_angle_alpha   90.09173643
_cell_angle_beta   90.37202491
_cell_angle_gamma   89.65293931
_symmetry_Int_Tables_number   1
_chemical_formula_structural   Li(CoO2)4
_chemical_formula_sum   'Li2 Co8 O16'
_cell_volume   263.03655975
_cell_formula_units_Z   2
loop_
 _symmetry_equiv_pos_site_id
 _symmetry_equiv_pos_as_xyz
  1  'x, y, z'
loop_
 _atom_site_type_symbol
 _atom_site_label
 _atom_site_symmetry_multiplicity
 _atom_site_fract_x
 _atom_site_fract_y
 _atom_site_fract_z
 _atom_site_occupancy
  Li  Li0  1  0.25000100  0.24998500  0.25000700  1
  Li  Li1  1  0.74999700  0.75001300  0.74999100  1
  Co  Co0  1  0.00683100  0.50439700  0.99997200  1
  Co  Co1  1  0.49316400  0.99560200  0.50003000  1
  Co  Co2  1  0.25000200  0.24998600  0.74998800  1
  Co  Co3  1  0.75001500  0.75000700  0.25001300  1
  Co  Co4  1  0.49213600  0.99599800  0.00011400  1
  Co  Co5  1  0.00787000  0.50401600  0.49987300  1
  Co  Co6  1  0.24998200  0.74999500  0.24998600  1
  Co  Co7  1  0.74999300  0.24999100  0.75002600  1
  O  O0  1  0.22538400  0.48612600  0.75007300  1
  O  O1  1  0.71287700  0.98210500  0.25073300  1
  O  O2  1  0.78716700  0.51791100  0.24931100  1
  O  O3  1  0.27456700  0.01385900  0.74987300  1
  O  O4  1  0.99490300  0.73502600  0.02516100  1
  O  O5  1  0.48589500  0.22856300  0.52165300  1
  O  O6  1  0.50386700  0.76418800  0.02521700  1
  O  O7  1  0.01794700  0.27265400  0.51762800  1
  O  O8  1  0.22458000  0.51407300  0.24944500  1
  O  O9  1  0.71116300  0.00169300  0.75119900  1
  O  O10  1  0.78883000  0.49830800  0.74884300  1
  O  O11  1  0.27543100  0.98593300  0.25050800  1
  O  O12  1  0.48203100  0.22732100  0.98236500  1
  O  O13  1  0.99616300  0.73584700  0.47479900  1
  O  O14  1  0.01411900  0.27142500  0.97836700  1
  O  O15  1  0.50508600  0.76497800  0.47482400  1
loop_
_geom_bond_atom_site_label_1
_geom_bond_atom_site_label_2
_geom_bond_distance
_geom_bond_site_symmetry_2
Li0 O12 2.028138 1_554
Li0 O7 2.028142 1_555
Li0 O14 2.046132 1_554
Li0 O5 2.046190 1_555
Li0 O11 2.149449 1_545
Li0 O8 2.149738 1_555
Li1 O9 2.055561 1_565
Li1 O10 2.055761 1_555
Li1 O15 2.091391 1_555
Li1 O4 2.091395 1_556
Li1 O13 2.109191 1_555
Li1 O6 2.109200 1_556
Co0 O8 1.878842 1_556
Co0 O4 1.879900 1_456
Co0 O10 1.885740 1_455
Co0 O14 1.896862 1_555
Co0 O2 1.898423 1_456
Co0 O0 1.899010 1_555
Co1 O11 1.878987 1_555
Co1 O15 1.879866 1_555
Co1 O9 1.885903 1_565
Co1 O5 1.896777 1_565
Co1 O1 1.898424 1_555
Co1 O3 1.898931 1_565
Co2 O12 1.870934 1_555
Co2 O7 1.870973 1_555
Co2 O5 1.881492 1_555
Co2 O14 1.881635 1_555
Co2 O3 1.922797 1_555
Co2 O0 1.922923 1_555
Co3 O13 1.894462 1_555
Co3 O6 1.894509 1_555
Co3 O2 1.896403 1_555
Co3 O1 1.896411 1_555
Co3 O4 1.901749 1_555
Co3 O15 1.901761 1_555
Co4 O12 1.882848 1_564
Co4 O3 1.884748 1_564
Co4 O6 1.889780 1_555
Co4 O11 1.891278 1_555
Co4 O9 1.892395 1_564
Co4 O1 1.896152 1_555
Co5 O7 1.883163 1_555
Co5 O0 1.884386 1_555
Co5 O13 1.889934 1_455
Co5 O8 1.891439 1_555
Co5 O10 1.892681 1_455
Co5 O2 1.895769 1_455
Co6 O8 1.923213 1_555
Co6 O11 1.923365 1_555
Co6 O4 1.933809 1_455
Co6 O15 1.933972 1_555
Co6 O13 1.940582 1_455
Co6 O6 1.940725 1_555
Co7 O5 1.989786 1_555
Co7 O14 1.989794 1_655
Co7 O9 2.030936 1_555
Co7 O10 2.031094 1_555
Co7 O12 2.035169 1_555
Co7 O7 2.035347 1_655
