# generated using pymatgen
data_HfMg30BO31
_symmetry_space_group_name_H-M   'P 1'
_cell_length_a   8.56668400
_cell_length_b   8.59792200
_cell_length_c   8.60098500
_cell_angle_alpha   90.00000000
_cell_angle_beta   90.00000000
_cell_angle_gamma   90.00000000
_symmetry_Int_Tables_number   1
_chemical_formula_structural   HfMg30BO31
_chemical_formula_sum   'Hf1 Mg30 B1 O31'
_cell_volume   633.51140599
_cell_formula_units_Z   1
loop_
 _symmetry_equiv_pos_site_id
 _symmetry_equiv_pos_as_xyz
  1  'x, y, z'
loop_
 _atom_site_type_symbol
 _atom_site_label
 _atom_site_symmetry_multiplicity
 _atom_site_fract_x
 _atom_site_fract_y
 _atom_site_fract_z
 _atom_site_occupancy
  Hf  Hf0  1  0.01421200  0.00000000  0.50000000  1
  Mg  Mg0  1  0.00005500  0.50000000  0.00000000  1
  Mg  Mg1  1  0.99812000  0.50000000  0.50000000  1
  Mg  Mg2  1  0.50044300  0.00000000  0.00000000  1
  Mg  Mg3  1  0.50006500  0.00000000  0.50000000  1
  Mg  Mg4  1  0.50002100  0.50000000  0.00000000  1
  Mg  Mg5  1  0.50033600  0.50000000  0.50000000  1
  Mg  Mg6  1  0.99997100  0.25425400  0.24253900  1
  Mg  Mg7  1  0.99997100  0.25425400  0.75746100  1
  Mg  Mg8  1  0.99997100  0.74574600  0.24253900  1
  Mg  Mg9  1  0.99997100  0.74574600  0.75746100  1
  Mg  Mg10  1  0.49980700  0.25061900  0.24855700  1
  Mg  Mg11  1  0.49980700  0.25061900  0.75144300  1
  Mg  Mg12  1  0.49980700  0.74938100  0.24855700  1
  Mg  Mg13  1  0.49980700  0.74938100  0.75144300  1
  Mg  Mg14  1  0.25449500  0.00000000  0.24086600  1
  Mg  Mg15  1  0.25449500  0.00000000  0.75913400  1
  Mg  Mg16  1  0.25050800  0.50000000  0.24762100  1
  Mg  Mg17  1  0.25050800  0.50000000  0.75237900  1
  Mg  Mg18  1  0.74727200  0.00000000  0.24388000  1
  Mg  Mg19  1  0.74727200  0.00000000  0.75612000  1
  Mg  Mg20  1  0.74942200  0.50000000  0.24863000  1
  Mg  Mg21  1  0.74942200  0.50000000  0.75137000  1
  Mg  Mg22  1  0.24854400  0.24932600  0.00000000  1
  Mg  Mg23  1  0.25209000  0.25508400  0.50000000  1
  Mg  Mg24  1  0.24854400  0.75067400  0.00000000  1
  Mg  Mg25  1  0.25209000  0.74491600  0.50000000  1
  Mg  Mg26  1  0.75145100  0.24824200  0.00000000  1
  Mg  Mg27  1  0.74713700  0.25250200  0.50000000  1
  Mg  Mg28  1  0.75145100  0.75175800  0.00000000  1
  Mg  Mg29  1  0.74713700  0.74749800  0.50000000  1
  B  B0  1  0.99977300  0.00000000  0.00000000  1
  O  O0  1  0.26502900  0.00000000  0.00000000  1
  O  O1  1  0.25199600  0.50000000  0.00000000  1
  O  O2  1  0.24981100  0.50000000  0.50000000  1
  O  O3  1  0.73586300  0.00000000  0.00000000  1
  O  O4  1  0.74961300  0.00000000  0.50000000  1
  O  O5  1  0.74794800  0.50000000  0.00000000  1
  O  O6  1  0.74781900  0.50000000  0.50000000  1
  O  O7  1  0.24920400  0.25161200  0.24708600  1
  O  O8  1  0.24920400  0.25161200  0.75291400  1
  O  O9  1  0.24920400  0.74838800  0.24708600  1
  O  O10  1  0.24920400  0.74838800  0.75291400  1
  O  O11  1  0.75085300  0.24856900  0.24949900  1
  O  O12  1  0.75085300  0.24856900  0.75050100  1
  O  O13  1  0.75085300  0.75143100  0.24949900  1
  O  O14  1  0.75085300  0.75143100  0.75050100  1
  O  O15  1  0.00009500  0.00000000  0.26393900  1
  O  O16  1  0.00009500  0.00000000  0.73606100  1
  O  O17  1  0.99961300  0.50000000  0.25245600  1
  O  O18  1  0.99961300  0.50000000  0.74754400  1
  O  O19  1  0.50004900  0.00000000  0.25287500  1
  O  O20  1  0.50004900  0.00000000  0.74712500  1
  O  O21  1  0.50034000  0.50000000  0.25115700  1
  O  O22  1  0.50034000  0.50000000  0.74884300  1
  O  O23  1  0.99951700  0.26477300  0.00000000  1
  O  O24  1  0.99350600  0.25583300  0.50000000  1
  O  O25  1  0.99951700  0.73522700  0.00000000  1
  O  O26  1  0.99350600  0.74416700  0.50000000  1
  O  O27  1  0.50034600  0.25170300  0.00000000  1
  O  O28  1  0.50039500  0.25072400  0.50000000  1
  O  O29  1  0.50034600  0.74829700  0.00000000  1
  O  O30  1  0.50039500  0.74927600  0.50000000  1
loop_
_geom_bond_atom_site_label_1
_geom_bond_atom_site_label_2
_geom_bond_distance
_geom_bond_site_symmetry_2
Hf0 O16 2.033956 1_555
Hf0 O15 2.033956 1_555
Hf0 O24 2.206773 1_455
Hf0 O26 2.206773 1_445
Hf0 O4 2.266736 1_455
Mg0 O25 2.022469 1_455
Mg0 O23 2.022469 1_455
Mg0 O1 2.158299 1_555
Mg0 O5 2.159721 1_455
Mg0 O17 2.171374 1_455
Mg0 O18 2.171374 1_454
Mg1 O26 2.099701 1_555
Mg1 O24 2.099701 1_555
Mg1 O18 2.129161 1_555
Mg1 O17 2.129161 1_555
Mg1 O6 2.144250 1_555
Mg1 O2 2.156157 1_655
Mg2 O0 2.016717 1_555
Mg2 O3 2.016769 1_555
Mg2 O29 2.164123 1_545
Mg2 O27 2.164123 1_555
Mg2 O19 2.174977 1_555
Mg2 O20 2.174977 1_554
Mg3 O20 2.125518 1_555
Mg3 O19 2.125518 1_555
Mg3 O4 2.137799 1_555
Mg3 O28 2.155707 1_555
Mg3 O30 2.155707 1_545
Mg4 O5 2.123912 1_555
Mg4 O1 2.124752 1_555
Mg4 O29 2.134840 1_555
Mg4 O27 2.134840 1_555
Mg4 O21 2.160199 1_555
Mg4 O22 2.160199 1_554
Mg5 O6 2.120109 1_555
Mg5 O22 2.140295 1_555
Mg5 O21 2.140295 1_555
Mg5 O30 2.143256 1_555
Mg5 O28 2.143256 1_555
Mg5 O2 2.146169 1_555
Mg6 O23 2.088038 1_555
Mg6 O17 2.114628 1_555
Mg6 O11 2.135514 1_555
Mg6 O7 2.135579 1_655
Mg6 O15 2.193791 1_655
Mg6 O24 2.215152 1_555
Mg7 O23 2.088038 1_556
Mg7 O18 2.114628 1_555
Mg7 O12 2.135514 1_555
Mg7 O8 2.135579 1_655
Mg7 O16 2.193791 1_655
Mg7 O24 2.215152 1_555
Mg8 O25 2.088038 1_555
Mg8 O17 2.114628 1_555
Mg8 O13 2.135514 1_555
Mg8 O9 2.135579 1_655
Mg8 O15 2.193791 1_665
Mg8 O26 2.215152 1_555
Mg9 O25 2.088038 1_556
Mg9 O18 2.114628 1_555
Mg9 O14 2.135514 1_555
Mg9 O10 2.135579 1_655
Mg9 O16 2.193791 1_665
Mg9 O26 2.215152 1_555
Mg10 O27 2.137860 1_555
Mg10 O21 2.144280 1_555
Mg10 O7 2.146891 1_555
Mg10 O11 2.150719 1_555
Mg10 O19 2.155124 1_555
Mg10 O28 2.162664 1_555
Mg11 O27 2.137860 1_556
Mg11 O22 2.144280 1_555
Mg11 O8 2.146891 1_555
Mg11 O12 2.150719 1_555
Mg11 O20 2.155124 1_555
Mg11 O28 2.162664 1_555
Mg12 O29 2.137860 1_555
Mg12 O21 2.144280 1_555
Mg12 O9 2.146891 1_555
Mg12 O13 2.150719 1_555
Mg12 O19 2.155124 1_565
Mg12 O30 2.162664 1_555
Mg13 O29 2.137860 1_556
Mg13 O22 2.144280 1_555
Mg13 O10 2.146891 1_555
Mg13 O14 2.150719 1_555
Mg13 O20 2.155124 1_565
Mg13 O30 2.162664 1_555
Mg14 O0 2.073649 1_555
Mg14 O19 2.106118 1_555
Mg14 O7 2.164476 1_555
Mg14 O9 2.164476 1_545
Mg14 O15 2.188381 1_555
Mg15 O0 2.073649 1_556
Mg15 O20 2.106118 1_555
Mg15 O8 2.164476 1_555
Mg15 O10 2.164476 1_545
Mg15 O16 2.188381 1_555
Mg16 O1 2.129823 1_555
Mg16 O9 2.135655 1_555
Mg16 O7 2.135655 1_555
Mg16 O21 2.140448 1_555
Mg16 O17 2.149740 1_455
Mg16 O2 2.170716 1_555
Mg17 O1 2.129823 1_556
Mg17 O10 2.135655 1_555
Mg17 O8 2.135655 1_555
Mg17 O22 2.140448 1_555
Mg17 O18 2.149740 1_455
Mg17 O2 2.170716 1_555
Mg18 O3 2.099884 1_555
Mg18 O19 2.119294 1_555
Mg18 O11 2.137943 1_555
Mg18 O13 2.137943 1_545
Mg18 O15 2.172715 1_655
Mg18 O4 2.202976 1_555
Mg19 O3 2.099884 1_556
Mg19 O20 2.119294 1_555
Mg19 O12 2.137943 1_555
Mg19 O14 2.137943 1_545
Mg19 O16 2.172715 1_655
Mg19 O4 2.202976 1_555
Mg20 O21 2.133917 1_555
Mg20 O5 2.138500 1_555
Mg20 O17 2.143560 1_555
Mg20 O13 2.161832 1_555
Mg20 O11 2.161832 1_555
Mg20 O6 2.162073 1_555
Mg21 O22 2.133917 1_555
Mg21 O5 2.138500 1_556
Mg21 O18 2.143560 1_555
Mg21 O14 2.161832 1_555
Mg21 O12 2.161832 1_555
Mg21 O6 2.162073 1_555
Mg22 O7 2.125281 1_555
Mg22 O8 2.125281 1_554
Mg22 O23 2.137466 1_455
Mg22 O0 2.148332 1_555
Mg22 O1 2.155478 1_555
Mg22 O27 2.157205 1_555
Mg23 O2 2.105859 1_555
Mg23 O28 2.127481 1_555
Mg23 O7 2.175655 1_555
Mg23 O8 2.175655 1_555
Mg23 O24 2.215217 1_455
Mg24 O9 2.125281 1_555
Mg24 O10 2.125281 1_554
Mg24 O25 2.137466 1_455
Mg24 O0 2.148332 1_565
Mg24 O1 2.155478 1_555
Mg24 O29 2.157205 1_555
Mg25 O2 2.105859 1_555
Mg25 O30 2.127481 1_555
Mg25 O9 2.175655 1_555
Mg25 O10 2.175655 1_555
Mg25 O26 2.215217 1_455
Mg26 O23 2.129851 1_555
Mg26 O3 2.138539 1_555
Mg26 O11 2.145945 1_555
Mg26 O12 2.145945 1_554
Mg26 O27 2.151343 1_555
Mg26 O5 2.164804 1_555
Mg27 O24 2.110760 1_555
Mg27 O28 2.113816 1_555
Mg27 O6 2.127977 1_555
Mg27 O11 2.155056 1_555
Mg27 O12 2.155056 1_555
Mg27 O4 2.171096 1_555
Mg28 O25 2.129851 1_555
Mg28 O3 2.138539 1_565
Mg28 O13 2.145945 1_555
Mg28 O14 2.145945 1_554
Mg28 O29 2.151343 1_555
Mg28 O5 2.164804 1_555
Mg29 O26 2.110760 1_555
Mg29 O30 2.113816 1_555
Mg29 O6 2.127977 1_555
Mg29 O13 2.155056 1_555
Mg29 O14 2.155056 1_555
Mg29 O4 2.171096 1_565
B0 O3 2.260834 1_555
B0 O16 2.270137 1_654
B0 O15 2.270137 1_655
B0 O0 2.272364 1_655
B0 O23 2.276499 1_555
B0 O25 2.276499 1_545
