# generated using pymatgen
data_CrAsRh
_symmetry_space_group_name_H-M   'P 1'
_cell_length_a   3.73768600
_cell_length_b   6.50480579
_cell_length_c   6.50480579
_cell_angle_alpha   119.99999786
_cell_angle_beta   90.00000000
_cell_angle_gamma   90.00000000
_symmetry_Int_Tables_number   1
_chemical_formula_structural   CrAsRh
_chemical_formula_sum   'Cr3 As3 Rh3'
_cell_volume   136.96264175
_cell_formula_units_Z   3
loop_
 _symmetry_equiv_pos_site_id
 _symmetry_equiv_pos_as_xyz
  1  'x, y, z'
loop_
 _atom_site_type_symbol
 _atom_site_label
 _atom_site_symmetry_multiplicity
 _atom_site_fract_x
 _atom_site_fract_y
 _atom_site_fract_z
 _atom_site_occupancy
  Cr  Cr0  1  0.50000000  0.59249100  0.59249100  1
  Cr  Cr1  1  0.50000000  0.00000000  0.40750900  1
  Cr  Cr2  1  0.50000000  0.40750900  0.00000000  1
  As  As0  1  0.00000000  0.33333300  0.66666700  1
  As  As1  1  0.00000000  0.66666700  0.33333300  1
  As  As2  1  0.50000000  0.00000000  0.00000000  1
  Rh  Rh0  1  0.00000000  0.74518100  0.00000000  1
  Rh  Rh1  1  0.00000000  0.25481900  0.25481900  1
  Rh  Rh2  1  0.00000000  0.00000000  0.74518100  1
loop_
_geom_bond_atom_site_label_1
_geom_bond_atom_site_label_2
_geom_bond_distance
_geom_bond_site_symmetry_2
Cr0 Rh1 2.883946 1_555
Cr0 Rh1 2.883946 1_655
Cr0 Rh0 2.978730 1_556
Cr0 Rh0 2.978730 1_656
Cr0 Rh2 2.978730 1_565
Cr0 Rh2 2.978730 1_665
Cr1 Rh2 2.883946 1_555
Cr1 Rh2 2.883946 1_655
Cr1 Rh1 2.978730 1_555
Cr1 Rh1 2.978730 1_655
Cr1 Rh0 2.978730 1_645
Cr1 Rh0 2.978730 1_545
Cr2 Rh0 2.883946 1_555
Cr2 Rh0 2.883946 1_655
Cr2 Rh1 2.978730 1_655
Cr2 Rh1 2.978730 1_555
Cr2 Rh2 2.978730 1_654
Cr2 Rh2 2.978730 1_554
As0 Rh2 2.463653 1_555
As0 Rh0 2.463657 1_556
As0 Rh1 2.463659 1_555
As0 Cr2 2.716721 1_456
As0 Cr2 2.716721 1_556
As0 Cr1 2.716722 1_555
As0 Cr1 2.716722 1_455
As0 Cr0 2.716725 1_455
As0 Cr0 2.716725 1_555
As1 Rh0 2.463653 1_555
As1 Rh2 2.463657 1_565
As1 Rh1 2.463659 1_555
As1 Cr1 2.716721 1_465
As1 Cr1 2.716721 1_565
As1 Cr2 2.716722 1_455
As1 Cr2 2.716722 1_555
As1 Cr0 2.716725 1_455
As1 Cr0 2.716725 1_555
As2 Rh2 2.498007 1_654
As2 Rh0 2.498007 1_645
As2 Rh0 2.498007 1_545
As2 Rh2 2.498007 1_554
As2 Rh1 2.498007 1_555
As2 Rh1 2.498007 1_655
As2 Cr2 2.650767 1_555
As2 Cr1 2.650767 1_555
As2 Cr0 2.650767 1_544
