# generated using pymatgen
data_NaPrEuNiO6
_symmetry_space_group_name_H-M   'P 1'
_cell_length_a   5.23855751
_cell_length_b   5.23855751
_cell_length_c   9.59449017
_cell_angle_alpha   90.00000000
_cell_angle_beta   90.00000000
_cell_angle_gamma   90.00000000
_symmetry_Int_Tables_number   1
_chemical_formula_structural   NaPrEuNiO6
_chemical_formula_sum   'Na2 Pr2 Eu2 Ni2 O12'
_cell_volume   263.29665052
_cell_formula_units_Z   2
loop_
 _symmetry_equiv_pos_site_id
 _symmetry_equiv_pos_as_xyz
  1  'x, y, z'
loop_
 _atom_site_type_symbol
 _atom_site_label
 _atom_site_symmetry_multiplicity
 _atom_site_fract_x
 _atom_site_fract_y
 _atom_site_fract_z
 _atom_site_occupancy
  Na  Na0  1  0.00000000  -0.00000000  -0.00000000  1
  Na  Na1  1  0.50000000  0.50000000  0.50000000  1
  Pr  Pr0  1  0.50000000  0.00000000  0.25000000  1
  Pr  Pr1  1  0.00000000  0.50000000  0.75000000  1
  Eu  Eu0  1  0.00000000  0.50000000  0.25000000  1
  Eu  Eu1  1  0.50000000  -0.00000000  0.75000000  1
  Ni  Ni0  1  0.00000000  0.00000000  0.50000000  1
  Ni  Ni1  1  0.50000000  0.50000000  -0.00000000  1
  O  O0  1  -0.00000000  -0.00000000  0.26395370  1
  O  O1  1  0.50000000  0.50000000  0.23604630  1
  O  O2  1  -0.00000000  -0.00000000  0.73604630  1
  O  O3  1  0.50000000  0.50000000  0.76395370  1
  O  O4  1  0.41039204  0.11948217  0.00161288  1
  O  O5  1  0.58960796  0.88051783  0.00161288  1
  O  O6  1  0.88051783  0.41039204  0.99838712  1
  O  O7  1  0.11948217  0.58960796  0.99838712  1
  O  O8  1  0.91039204  0.38051783  0.50161288  1
  O  O9  1  0.08960796  0.61948217  0.50161288  1
  O  O10  1  0.38051783  0.08960796  0.49838712  1
  O  O11  1  0.61948217  0.91039204  0.49838712  1
loop_
_geom_bond_atom_site_label_1
_geom_bond_atom_site_label_2
_geom_bond_distance
_geom_bond_site_symmetry_2
Na0 O7 2.239178 1_544
Na0 O5 2.239178 1_445
Na0 O6 2.239178 1_454
Na0 O4 2.239178 1_555
Na0 O0 2.532501 1_555
Na0 O2 2.532501 1_554
Na1 O10 2.239178 1_555
Na1 O9 2.239178 1_555
Na1 O8 2.239178 1_555
Na1 O11 2.239178 1_555
Na1 O3 2.532501 1_555
Na1 O1 2.532501 1_555
Eu0 O7 2.537713 1_554
Eu0 O6 2.537713 1_454
Eu0 O8 2.537713 1_455
Eu0 O9 2.537713 1_555
Eu0 O0 2.622698 1_555
Eu0 O1 2.622698 1_455
Eu0 O1 2.622698 1_555
Eu0 O0 2.622698 1_565
Eu1 O5 2.537713 1_546
Eu1 O4 2.537713 1_556
Eu1 O11 2.537713 1_545
Eu1 O10 2.537713 1_555
Eu1 O3 2.622698 1_545
Eu1 O3 2.622698 1_555
Eu1 O2 2.622698 1_555
Eu1 O2 2.622698 1_655
Ni0 O10 2.047949 1_555
Ni0 O11 2.047949 1_445
Ni0 O8 2.047949 1_455
Ni0 O9 2.047949 1_545
Ni0 O2 2.264744 1_555
Ni0 O0 2.264744 1_555
Ni1 O4 2.047949 1_555
Ni1 O7 2.047949 1_554
Ni1 O5 2.047949 1_555
Ni1 O6 2.047949 1_554
Ni1 O1 2.264744 1_555
Ni1 O3 2.264744 1_554
O0 Pr0 2.622698 1_555
O0 Pr0 2.622698 1_455
O1 Pr0 2.622698 1_555
O1 Pr0 2.622698 1_565
O2 Pr1 2.622698 1_555
O2 Pr1 2.622698 1_545
O3 Pr1 2.622698 1_655
O3 Pr1 2.622698 1_555
O4 O5 1.564762 1_545
O4 Pr0 2.508289 1_555
O5 Pr0 2.508289 1_565
O6 O7 1.564762 1_655
O6 Pr1 2.508289 1_655
O7 Pr1 2.508289 1_555
O8 O9 1.564762 1_655
O8 Pr1 2.508289 1_655
O9 Pr1 2.508289 1_555
O10 O11 1.564762 1_545
O10 Pr0 2.508289 1_555
O11 Pr0 2.508289 1_565
