# generated using pymatgen
data_Sr2TiMnO6
_symmetry_space_group_name_H-M   'P 1'
_cell_length_a   5.50737700
_cell_length_b   9.53969408
_cell_length_c   5.50848026
_cell_angle_alpha   73.23978264
_cell_angle_beta   119.99338091
_cell_angle_gamma   106.77750395
_symmetry_Int_Tables_number   1
_chemical_formula_structural   Sr2TiMnO6
_chemical_formula_sum   'Sr4 Ti2 Mn2 O12'
_cell_volume   236.33243217
_cell_formula_units_Z   2
loop_
 _symmetry_equiv_pos_site_id
 _symmetry_equiv_pos_as_xyz
  1  'x, y, z'
loop_
 _atom_site_type_symbol
 _atom_site_label
 _atom_site_symmetry_multiplicity
 _atom_site_fract_x
 _atom_site_fract_y
 _atom_site_fract_z
 _atom_site_occupancy
  Sr  Sr0  1  0.37500000  0.12500000  0.62500000  1
  Sr  Sr1  1  0.87500000  0.62500000  0.12500000  1
  Sr  Sr2  1  0.12500000  0.37500000  0.87500000  1
  Sr  Sr3  1  0.62500000  0.87500000  0.37500000  1
  Ti  Ti0  1  0.75000000  0.25000000  0.25000000  1
  Ti  Ti1  1  0.25000000  0.75000000  0.75000000  1
  Mn  Mn0  1  0.50000000  0.50000000  0.50000000  1
  Mn  Mn1  1  0.00000000  0.00000000  0.00000000  1
  O  O0  1  0.62371000  0.37629000  0.87113100  1
  O  O1  1  0.12371000  0.87629000  0.37113100  1
  O  O2  1  0.87629000  0.12371000  0.62886900  1
  O  O3  1  0.37629000  0.62371000  0.12886900  1
  O  O4  1  0.13236000  0.37272700  0.37272700  1
  O  O5  1  0.63236000  0.87272700  0.87272700  1
  O  O6  1  0.36764000  0.12727300  0.12727300  1
  O  O7  1  0.86764000  0.62727300  0.62727300  1
  O  O8  1  0.63436200  0.37981600  0.37981600  1
  O  O9  1  0.13436200  0.87981600  0.87981600  1
  O  O10  1  0.86563800  0.12018400  0.12018400  1
  O  O11  1  0.36563800  0.62018400  0.62018400  1
loop_
_geom_bond_atom_site_label_1
_geom_bond_atom_site_label_2
_geom_bond_distance
_geom_bond_site_symmetry_2
Mn0 O3 1.927833 1_555
Mn0 O0 1.927833 1_555
Mn0 O7 1.928132 1_555
Mn0 O4 1.928132 1_555
Mn0 O11 1.928136 1_555
Mn0 O8 1.928136 1_555
Mn1 O1 1.927833 1_545
Mn1 O2 1.927833 1_454
Mn1 O5 1.928132 1_444
Mn1 O6 1.928132 1_555
Mn1 O9 1.928136 1_544
Mn1 O10 1.928136 1_455
O0 Ti0 1.968030 1_556
O0 Sr2 2.753759 1_555
O0 Sr1 2.753759 1_556
O0 Sr2 2.753765 1_655
O0 Sr0 2.753765 1_555
O1 Ti1 1.968030 1_555
O1 Sr3 2.753759 1_455
O1 Sr0 2.753759 1_565
O1 Sr3 2.753765 1_555
O1 Sr1 2.753765 1_455
O2 Ti0 1.968030 1_555
O2 Sr0 2.753759 1_655
O2 Sr3 2.753759 1_545
O2 Sr0 2.753765 1_555
O2 Sr2 2.753765 1_655
O3 Ti1 1.968030 1_554
O3 Sr1 2.753759 1_555
O3 Sr2 2.753759 1_554
O3 Sr1 2.753765 1_455
O3 Sr3 2.753765 1_555
O4 Ti0 1.967737 1_455
O4 Sr0 2.715556 1_555
O4 Sr2 2.715556 1_554
O4 Sr1 2.793620 1_455
O4 Sr2 2.793620 1_555
O5 Ti1 1.967737 1_555
O5 Sr1 2.715556 1_556
O5 Sr3 2.715556 1_555
O5 Sr0 2.793620 1_565
O5 Sr3 2.793620 1_556
O6 Ti0 1.967737 1_555
O6 Sr2 2.715556 1_554
O6 Sr0 2.715556 1_555
O6 Sr3 2.793620 1_545
O6 Sr0 2.793620 1_554
O7 Ti1 1.967737 1_655
O7 Sr3 2.715556 1_555
O7 Sr1 2.715556 1_556
O7 Sr2 2.793620 1_655
O7 Sr1 2.793620 1_555
O8 Ti0 1.967733 1_555
O8 Sr2 2.715559 1_655
O8 Sr1 2.715559 1_555
O8 Sr0 2.793617 1_555
O8 Sr2 2.793617 1_554
O9 Ti1 1.967733 1_555
O9 Sr3 2.715559 1_556
O9 Sr0 2.715559 1_565
O9 Sr1 2.793617 1_456
O9 Sr3 2.793617 1_455
O10 Ti0 1.967733 1_555
O10 Sr0 2.715559 1_554
O10 Sr3 2.715559 1_545
O10 Sr2 2.793617 1_654
O10 Sr0 2.793617 1_655
O11 Ti1 1.967733 1_555
O11 Sr1 2.715559 1_455
O11 Sr2 2.715559 1_555
O11 Sr3 2.793617 1_555
O11 Sr1 2.793617 1_556
