# generated using pymatgen
data_Nd2Mg
_symmetry_space_group_name_H-M   'P 1'
_cell_length_a   6.93591249
_cell_length_b   6.93591249
_cell_length_c   7.75598249
_cell_angle_alpha   74.13042302
_cell_angle_beta   74.13042302
_cell_angle_gamma   32.14706180
_symmetry_Int_Tables_number   1
_chemical_formula_structural   Nd2Mg
_chemical_formula_sum   'Nd4 Mg2'
_cell_volume   190.32445012
_cell_formula_units_Z   2
loop_
 _symmetry_equiv_pos_site_id
 _symmetry_equiv_pos_as_xyz
  1  'x, y, z'
loop_
 _atom_site_type_symbol
 _atom_site_label
 _atom_site_symmetry_multiplicity
 _atom_site_fract_x
 _atom_site_fract_y
 _atom_site_fract_z
 _atom_site_occupancy
  Nd  Nd0  1  0.85101635  0.85101635  0.56496505  1
  Nd  Nd1  1  0.14898365  0.14898365  0.43503495  1
  Nd  Nd2  1  0.83680811  0.83680811  0.09074244  1
  Nd  Nd3  1  0.16319189  0.16319189  0.90925756  1
  Mg  Mg0  1  0.49192977  0.49192977  0.77001638  1
  Mg  Mg1  1  0.50807023  0.50807023  0.22998362  1
loop_
_geom_bond_atom_site_label_1
_geom_bond_atom_site_label_2
_geom_bond_distance
_geom_bond_site_symmetry_2
Mg0 Nd2 3.350166 1_456
Mg0 Nd2 3.350166 1_546
Mg0 Nd0 3.383084 1_455
Mg0 Nd0 3.383084 1_545
Mg0 Nd3 3.386529 1_655
Mg0 Nd3 3.386529 1_565
Mg0 Nd1 3.424161 1_565
Mg0 Nd1 3.424161 1_655
Mg1 Nd3 3.350166 1_564
Mg1 Nd3 3.350166 1_654
Mg1 Nd1 3.383084 1_565
Mg1 Nd1 3.383084 1_655
Mg1 Nd2 3.386529 1_545
Mg1 Nd2 3.386529 1_455
Mg1 Nd0 3.424161 1_455
Mg1 Nd0 3.424161 1_545
