# generated using pymatgen
data_YMn2AsO4
_symmetry_space_group_name_H-M   'P 1'
_cell_length_a   6.51962900
_cell_length_b   7.01986900
_cell_length_c   12.97226700
_cell_angle_alpha   90.00000000
_cell_angle_beta   90.00000000
_cell_angle_gamma   90.00000000
_symmetry_Int_Tables_number   1
_chemical_formula_structural   YMn2AsO4
_chemical_formula_sum   'Y4 Mn8 As4 O16'
_cell_volume   593.70098502
_cell_formula_units_Z   4
loop_
 _symmetry_equiv_pos_site_id
 _symmetry_equiv_pos_as_xyz
  1  'x, y, z'
loop_
 _atom_site_type_symbol
 _atom_site_label
 _atom_site_symmetry_multiplicity
 _atom_site_fract_x
 _atom_site_fract_y
 _atom_site_fract_z
 _atom_site_occupancy
  Y  Y0  1  0.00000000  0.75000000  0.25000000  1
  Y  Y1  1  0.00000000  0.25000000  0.75000000  1
  Y  Y2  1  0.00000000  0.25000000  0.25000000  1
  Y  Y3  1  0.00000000  0.75000000  0.75000000  1
  Mn  Mn0  1  0.20452700  0.32521200  0.04796400  1
  Mn  Mn1  1  0.20452700  0.67478800  0.95203600  1
  Mn  Mn2  1  0.79547300  0.67478800  0.04796400  1
  Mn  Mn3  1  0.79547300  0.17478800  0.45203600  1
  Mn  Mn4  1  0.79547300  0.32521200  0.95203600  1
  Mn  Mn5  1  0.79547300  0.82521200  0.54796400  1
  Mn  Mn6  1  0.20452700  0.82521200  0.45203600  1
  Mn  Mn7  1  0.20452700  0.17478800  0.54796400  1
  As  As0  1  0.50000000  0.25000000  0.25000000  1
  As  As1  1  0.50000000  0.75000000  0.75000000  1
  As  As2  1  0.50000000  0.75000000  0.25000000  1
  As  As3  1  0.50000000  0.25000000  0.75000000  1
  O  O0  1  0.14009600  0.63886900  0.10104600  1
  O  O1  1  0.14009600  0.36113100  0.89895400  1
  O  O2  1  0.85990400  0.36113100  0.10104600  1
  O  O3  1  0.85990400  0.86113100  0.39895400  1
  O  O4  1  0.85990400  0.63886900  0.89895400  1
  O  O5  1  0.85990400  0.13886900  0.60104600  1
  O  O6  1  0.14009600  0.13886900  0.39895400  1
  O  O7  1  0.14009600  0.86113100  0.60104600  1
  O  O8  1  0.25667800  0.14101500  0.15993300  1
  O  O9  1  0.25667800  0.85898500  0.84006700  1
  O  O10  1  0.74332200  0.85898500  0.15993300  1
  O  O11  1  0.74332200  0.35898500  0.34006700  1
  O  O12  1  0.74332200  0.14101500  0.84006700  1
  O  O13  1  0.74332200  0.64101500  0.65993300  1
  O  O14  1  0.25667800  0.64101500  0.34006700  1
  O  O15  1  0.25667800  0.35898500  0.65993300  1
loop_
_geom_bond_atom_site_label_1
_geom_bond_atom_site_label_2
_geom_bond_distance
_geom_bond_site_symmetry_2
Mn0 O8 1.974154 1_555
Mn0 O1 1.994120 1_554
Mn0 O0 2.344926 1_555
Mn0 O2 2.363454 1_455
Mn1 O9 1.974154 1_555
Mn1 O0 1.994120 1_556
Mn1 O1 2.344926 1_555
Mn1 O4 2.363454 1_455
Mn2 O10 1.974154 1_555
Mn2 O4 1.994120 1_554
Mn2 O2 2.344926 1_555
Mn2 O0 2.363454 1_655
Mn3 O11 1.974154 1_555
Mn3 O5 1.994120 1_555
Mn3 O3 2.344926 1_545
Mn3 O6 2.363454 1_655
Mn4 O12 1.974154 1_555
Mn4 O2 1.994120 1_556
Mn4 O4 2.344926 1_555
Mn4 O1 2.363454 1_655
Mn5 O13 1.974154 1_555
Mn5 O3 1.994120 1_555
Mn5 O5 2.344926 1_565
Mn5 O7 2.363454 1_655
Mn6 O14 1.974154 1_555
Mn6 O7 1.994120 1_555
Mn6 O6 2.344926 1_565
Mn6 O3 2.363454 1_455
Mn7 O15 1.974154 1_555
Mn7 O6 1.994120 1_555
Mn7 O7 2.344926 1_545
Mn7 O5 2.363454 1_455
As0 O8 2.113523 1_555
As0 O11 2.113523 1_555
As1 O9 2.113523 1_555
As1 O13 2.113523 1_555
As2 O14 2.113523 1_555
As2 O10 2.113523 1_555
As3 O15 2.113523 1_555
As3 O12 2.113523 1_555
O0 Y0 2.275196 1_555
O1 Y1 2.275196 1_555
O2 Y2 2.275196 1_655
O3 Y0 2.275196 1_655
O4 Y3 2.275196 1_655
O5 Y1 2.275196 1_655
O6 Y2 2.275196 1_555
O7 Y3 2.275196 1_555
O8 Y2 2.179640 1_555
O9 Y3 2.179640 1_555
O10 Y0 2.179640 1_655
O11 Y2 2.179640 1_655
O12 Y1 2.179640 1_655
O13 Y3 2.179640 1_655
O14 Y0 2.179640 1_555
O15 Y1 2.179640 1_555
