# generated using pymatgen
data_Sr5As3
_symmetry_space_group_name_H-M   'P 1'
_cell_length_a   9.00956521
_cell_length_b   9.00956511
_cell_length_c   7.26955946
_cell_angle_alpha   90.00000000
_cell_angle_beta   90.00000000
_cell_angle_gamma   120.00000307
_symmetry_Int_Tables_number   1
_chemical_formula_structural   Sr5As3
_chemical_formula_sum   'Sr10 As6'
_cell_volume   511.02997253
_cell_formula_units_Z   2
loop_
 _symmetry_equiv_pos_site_id
 _symmetry_equiv_pos_as_xyz
  1  'x, y, z'
loop_
 _atom_site_type_symbol
 _atom_site_label
 _atom_site_symmetry_multiplicity
 _atom_site_fract_x
 _atom_site_fract_y
 _atom_site_fract_z
 _atom_site_occupancy
  Sr  Sr0  1  0.00000000  0.25536663  0.75000000  1
  Sr  Sr1  1  -0.00000000  0.74463337  0.25000000  1
  Sr  Sr2  1  0.25536663  0.25536563  0.25000000  1
  Sr  Sr3  1  0.25536663  0.00000000  0.75000000  1
  Sr  Sr4  1  0.74463337  0.74463437  0.75000000  1
  Sr  Sr5  1  0.74463337  -0.00000000  0.25000000  1
  Sr  Sr6  1  0.33333300  0.66666700  0.50000000  1
  Sr  Sr7  1  0.66666700  0.33333300  0.00000000  1
  Sr  Sr8  1  0.66666700  0.33333300  0.50000000  1
  Sr  Sr9  1  0.33333300  0.66666700  -0.00000000  1
  As  As0  1  0.60917042  -0.00000000  0.75000000  1
  As  As1  1  0.60917042  0.60917042  0.25000000  1
  As  As2  1  0.00000000  0.39082958  0.25000000  1
  As  As3  1  -0.00000000  0.60917042  0.75000000  1
  As  As4  1  0.39082958  0.39082958  0.75000000  1
  As  As5  1  0.39082958  0.00000000  0.25000000  1
loop_
_geom_bond_atom_site_label_1
_geom_bond_atom_site_label_2
_geom_bond_distance
_geom_bond_site_symmetry_2
As0 Sr4 3.096911 1_545
As0 Sr0 3.096920 1_655
As0 Sr3 3.187618 1_555
As0 Sr8 3.321847 1_555
As0 Sr7 3.321847 1_556
As0 Sr9 3.321849 1_546
As0 Sr6 3.321849 1_545
As1 Sr5 3.096920 1_565
As1 Sr1 3.096920 1_655
As1 Sr2 3.187623 1_555
As1 Sr7 3.321854 1_555
As1 Sr8 3.321854 1_555
As1 Sr9 3.321854 1_555
As1 Sr6 3.321854 1_555
As2 Sr5 3.096920 1_455
As2 Sr2 3.096927 1_555
As2 Sr1 3.187618 1_555
As2 Sr7 3.321847 1_455
As2 Sr8 3.321847 1_455
As2 Sr6 3.321849 1_555
As2 Sr9 3.321849 1_555
As3 Sr3 3.096920 1_565
As3 Sr4 3.096927 1_455
As3 Sr0 3.187618 1_555
As3 Sr9 3.321847 1_556
As3 Sr6 3.321847 1_555
As3 Sr8 3.321849 1_455
As3 Sr7 3.321849 1_456
As4 Sr3 3.096920 1_555
As4 Sr0 3.096920 1_555
As4 Sr4 3.187623 1_555
As4 Sr9 3.321854 1_556
As4 Sr6 3.321854 1_555
As4 Sr8 3.321854 1_555
As4 Sr7 3.321854 1_556
As5 Sr2 3.096911 1_555
As5 Sr1 3.096920 1_545
As5 Sr5 3.187618 1_555
As5 Sr6 3.321847 1_545
As5 Sr9 3.321847 1_545
As5 Sr7 3.321849 1_555
As5 Sr8 3.321849 1_555
