# generated using pymatgen
data_YNiAs
_symmetry_space_group_name_H-M   'P 1'
_cell_length_a   4.00860837
_cell_length_b   4.00860837
_cell_length_c   3.93611651
_cell_angle_alpha   90.00000000
_cell_angle_beta   90.00000000
_cell_angle_gamma   119.99999523
_symmetry_Int_Tables_number   1
_chemical_formula_structural   YNiAs
_chemical_formula_sum   'Y1 Ni1 As1'
_cell_volume   54.77543761
_cell_formula_units_Z   1
loop_
 _symmetry_equiv_pos_site_id
 _symmetry_equiv_pos_as_xyz
  1  'x, y, z'
loop_
 _atom_site_type_symbol
 _atom_site_label
 _atom_site_symmetry_multiplicity
 _atom_site_fract_x
 _atom_site_fract_y
 _atom_site_fract_z
 _atom_site_occupancy
  Y  Y0  1  0.66666700  0.33333300  0.50000000  1
  Ni  Ni0  1  0.33333300  0.66666700  -0.00000000  1
  As  As0  1  0.00000000  0.00000000  0.00000000  1
loop_
_geom_bond_atom_site_label_1
_geom_bond_atom_site_label_2
_geom_bond_distance
_geom_bond_site_symmetry_2
Ni0 Y0 3.038019 1_455
Ni0 Y0 3.038019 1_454
Ni0 Y0 3.038019 1_564
Ni0 Y0 3.038019 1_565
Ni0 Y0 3.038024 1_555
Ni0 Y0 3.038024 1_554
As0 Ni0 2.314369 1_545
As0 Ni0 2.314372 1_555
As0 Ni0 2.314372 1_445
As0 Y0 3.038018 1_454
As0 Y0 3.038018 1_455
As0 Y0 3.038021 1_554
As0 Y0 3.038021 1_444
As0 Y0 3.038021 1_555
As0 Y0 3.038021 1_445
