# generated using pymatgen
data_Ba3ZnHg10
_symmetry_space_group_name_H-M   'P 1'
_cell_length_a   6.27195500
_cell_length_b   7.42611500
_cell_length_c   17.67919200
_cell_angle_alpha   90.00000000
_cell_angle_beta   90.00000000
_cell_angle_gamma   90.00000000
_symmetry_Int_Tables_number   1
_chemical_formula_structural   Ba3ZnHg10
_chemical_formula_sum   'Ba6 Zn2 Hg20'
_cell_volume   823.43062736
_cell_formula_units_Z   2
loop_
 _symmetry_equiv_pos_site_id
 _symmetry_equiv_pos_as_xyz
  1  'x, y, z'
loop_
 _atom_site_type_symbol
 _atom_site_label
 _atom_site_symmetry_multiplicity
 _atom_site_fract_x
 _atom_site_fract_y
 _atom_site_fract_z
 _atom_site_occupancy
  Ba  Ba0  1  0.45628000  0.75000000  0.75000000  1
  Ba  Ba1  1  0.54598500  0.25000000  0.25000000  1
  Ba  Ba2  1  0.82282400  0.75000000  0.07093800  1
  Ba  Ba3  1  0.82282400  0.75000000  0.42906200  1
  Ba  Ba4  1  0.17542200  0.25000000  0.93258100  1
  Ba  Ba5  1  0.17542200  0.25000000  0.56741900  1
  Zn  Zn0  1  0.02600100  0.25000000  0.36073500  1
  Zn  Zn1  1  0.02600100  0.25000000  0.13926500  1
  Hg  Hg0  1  0.35725500  0.75000000  0.54293600  1
  Hg  Hg1  1  0.35725500  0.75000000  0.95706400  1
  Hg  Hg2  1  0.67027100  0.25000000  0.44921100  1
  Hg  Hg3  1  0.67027100  0.25000000  0.05078900  1
  Hg  Hg4  1  0.66052500  0.04043500  0.60187200  1
  Hg  Hg5  1  0.66052500  0.45956500  0.60187200  1
  Hg  Hg6  1  0.66052500  0.04043500  0.89812800  1
  Hg  Hg7  1  0.66052500  0.45956500  0.89812800  1
  Hg  Hg8  1  0.32550700  0.97291500  0.39615700  1
  Hg  Hg9  1  0.32550700  0.52708500  0.39615700  1
  Hg  Hg10  1  0.32550700  0.97291500  0.10384300  1
  Hg  Hg11  1  0.32550700  0.52708500  0.10384300  1
  Hg  Hg12  1  0.98324900  0.05358000  0.75000000  1
  Hg  Hg13  1  0.98324900  0.44642000  0.75000000  1
  Hg  Hg14  1  0.01491600  0.96163900  0.25000000  1
  Hg  Hg15  1  0.01491600  0.53836100  0.25000000  1
  Hg  Hg16  1  0.52018400  0.75000000  0.25000000  1
  Hg  Hg17  1  0.47706500  0.25000000  0.75000000  1
  Hg  Hg18  1  0.97824200  0.75000000  0.63673500  1
  Hg  Hg19  1  0.97824200  0.75000000  0.86326500  1
loop_
_geom_bond_atom_site_label_1
_geom_bond_atom_site_label_2
_geom_bond_distance
_geom_bond_site_symmetry_2
Ba0 Hg18 3.605432 1_455
Ba0 Hg19 3.605432 1_455
Ba0 Hg6 3.626407 1_565
Ba0 Hg7 3.626407 1_555
Ba0 Hg5 3.626407 1_555
Ba0 Hg4 3.626407 1_565
Ba0 Hg1 3.713037 1_555
Ba0 Hg0 3.713037 1_555
Ba0 Hg17 3.715345 1_565
Ba0 Hg17 3.715345 1_555
Ba0 Hg12 3.726189 1_465
Ba0 Hg13 3.726189 1_455
Ba0 Hg18 3.837577 1_555
Ba0 Hg19 3.837577 1_555
Ba0 Hg12 4.000783 1_565
Ba0 Hg13 4.000783 1_555
Ba1 Hg10 3.580912 1_545
Ba1 Hg9 3.580912 1_555
Ba1 Hg11 3.580912 1_555
Ba1 Hg8 3.580912 1_545
Ba1 Zn1 3.591177 1_655
Ba1 Zn0 3.591177 1_655
Ba1 Hg3 3.607125 1_555
Ba1 Hg2 3.607125 1_555
Ba1 Hg15 3.638098 1_655
Ba1 Hg14 3.638098 1_645
Ba1 Hg16 3.716582 1_545
Ba1 Hg16 3.716582 1_555
Ba1 Zn0 3.803787 1_555
Ba1 Zn1 3.803787 1_555
Ba1 Hg15 3.959811 1_555
Ba1 Hg14 3.959811 1_545
Ba2 Hg1 3.546764 1_554
Ba2 Hg10 3.578803 1_555
Ba2 Hg11 3.578803 1_555
Ba2 Hg10 3.608174 1_655
Ba2 Hg11 3.608174 1_655
Ba2 Hg16 3.691128 1_555
Ba2 Hg15 3.734046 1_655
Ba2 Hg14 3.734046 1_655
Ba2 Hg19 3.798688 1_554
Ba2 Hg3 3.850865 1_555
Ba2 Hg3 3.850865 1_565
Ba2 Hg6 3.875806 1_564
Ba2 Hg7 3.875806 1_554
Ba2 Hg1 3.910037 1_654
Ba3 Hg0 3.546764 1_555
Ba3 Hg9 3.578803 1_555
Ba3 Hg8 3.578803 1_555
Ba3 Hg9 3.608174 1_655
Ba3 Hg8 3.608174 1_655
Ba3 Hg16 3.691128 1_555
Ba3 Hg15 3.734046 1_655
Ba3 Hg14 3.734046 1_655
Ba3 Hg18 3.798688 1_555
Ba3 Hg2 3.850865 1_555
Ba3 Hg2 3.850865 1_565
Ba3 Hg4 3.875806 1_565
Ba3 Hg5 3.875806 1_555
Ba3 Hg0 3.910037 1_655
Ba4 Hg7 3.471312 1_555
Ba4 Hg6 3.471312 1_555
Ba4 Hg6 3.636210 1_455
Ba4 Hg7 3.636210 1_455
Ba4 Hg17 3.741456 1_555
Ba4 Hg12 3.741605 1_455
Ba4 Hg13 3.741605 1_455
Ba4 Hg3 3.741674 1_556
Ba4 Zn1 3.772272 1_556
Ba4 Hg11 3.779880 1_556
Ba4 Hg10 3.779880 1_546
Ba4 Hg3 3.795442 1_456
Ba4 Hg1 3.908295 1_545
Ba4 Hg1 3.908295 1_555
Ba4 Hg19 4.100971 1_455
Ba4 Hg19 4.100971 1_445
Ba5 Hg4 3.471312 1_555
Ba5 Hg5 3.471312 1_555
Ba5 Hg5 3.636210 1_455
Ba5 Hg4 3.636210 1_455
Ba5 Hg17 3.741456 1_555
Ba5 Hg12 3.741605 1_455
Ba5 Hg13 3.741605 1_455
Ba5 Hg2 3.741674 1_555
Ba5 Zn0 3.772272 1_555
Ba5 Hg8 3.779880 1_545
Ba5 Hg9 3.779880 1_555
Ba5 Hg2 3.795442 1_455
Ba5 Hg0 3.908295 1_555
Ba5 Hg0 3.908295 1_545
Ba5 Hg18 4.100971 1_445
Ba5 Hg18 4.100971 1_455
Hg0 Hg18 2.898410 1_455
Hg0 Hg5 3.058662 1_555
Hg0 Hg4 3.058662 1_565
Hg0 Hg8 3.084422 1_555
Hg0 Hg9 3.084422 1_555
Hg1 Hg19 2.898410 1_455
Hg1 Hg6 3.058662 1_565
Hg1 Hg7 3.058662 1_555
Hg1 Hg10 3.084422 1_556
Hg1 Hg11 3.084422 1_556
Hg2 Zn0 2.724808 1_655
Hg2 Hg4 3.116063 1_555
Hg2 Hg5 3.116063 1_555
Hg2 Hg8 3.128813 1_545
Hg2 Hg9 3.128813 1_555
Hg3 Zn1 2.724808 1_655
Hg3 Hg6 3.116063 1_554
Hg3 Hg7 3.116063 1_554
Hg4 Hg5 3.112508 1_555
Hg6 Hg7 3.112508 1_555
Hg8 Zn0 2.855673 1_565
Hg8 Hg9 3.310785 1_555
Hg9 Zn0 2.855673 1_555
Hg10 Zn1 2.855673 1_565
Hg10 Hg3 3.128813 1_565
Hg10 Hg14 3.237051 1_555
Hg10 Hg16 3.302713 1_555
Hg10 Hg11 3.310785 1_555
Hg11 Zn1 2.855673 1_555
Hg11 Hg3 3.128813 1_555
Hg11 Hg15 3.237051 1_555
Hg11 Hg16 3.302713 1_555
Hg12 Hg13 2.917275 1_555
Hg12 Hg19 3.015483 1_545
Hg12 Hg18 3.015483 1_545
Hg12 Hg6 3.311280 1_555
Hg12 Hg4 3.311280 1_555
Hg13 Hg18 3.015483 1_555
Hg13 Hg19 3.015483 1_555
Hg13 Hg7 3.311280 1_555
Hg13 Hg5 3.311280 1_555
Hg14 Zn0 2.902248 1_565
Hg14 Zn1 2.902248 1_565
Hg14 Hg8 3.237051 1_555
Hg15 Zn0 2.902248 1_555
Hg15 Zn1 2.902248 1_555
Hg15 Hg9 3.237051 1_555
Hg16 Hg8 3.302713 1_555
Hg16 Hg9 3.302713 1_555
Hg17 Hg5 3.256371 1_555
Hg17 Hg6 3.256371 1_555
Hg17 Hg4 3.256371 1_555
Hg17 Hg7 3.256371 1_555
Hg18 Hg4 3.000428 1_565
Hg18 Hg5 3.000428 1_555
Hg19 Hg6 3.000428 1_565
Hg19 Hg7 3.000428 1_555
