# generated using pymatgen
data_Gd3(CoGe2)2
_symmetry_space_group_name_H-M   'P 1'
_cell_length_a   5.77636320
_cell_length_b   5.77636320
_cell_length_c   8.08163557
_cell_angle_alpha   73.64306855
_cell_angle_beta   73.64306855
_cell_angle_gamma   42.62702055
_symmetry_Int_Tables_number   1
_chemical_formula_structural   Gd3(CoGe2)2
_chemical_formula_sum   'Gd3 Co2 Ge4'
_cell_volume   174.07262777
_cell_formula_units_Z   1
loop_
 _symmetry_equiv_pos_site_id
 _symmetry_equiv_pos_as_xyz
  1  'x, y, z'
loop_
 _atom_site_type_symbol
 _atom_site_label
 _atom_site_symmetry_multiplicity
 _atom_site_fract_x
 _atom_site_fract_y
 _atom_site_fract_z
 _atom_site_occupancy
  Gd  Gd0  1  0.37743900  0.37743900  0.69195100  1
  Gd  Gd1  1  0.62256100  0.62256100  0.30804900  1
  Gd  Gd2  1  0.00000000  0.00000000  0.00000000  1
  Co  Co0  1  0.30725600  0.30725600  0.37330600  1
  Co  Co1  1  0.69274400  0.69274400  0.62669400  1
  Ge  Ge0  1  0.10095300  0.10095300  0.59958300  1
  Ge  Ge1  1  0.89904700  0.89904700  0.40041700  1
  Ge  Ge2  1  0.71096500  0.71096500  0.91961900  1
  Ge  Ge3  1  0.28903500  0.28903500  0.08038100  1
loop_
_geom_bond_atom_site_label_1
_geom_bond_atom_site_label_2
_geom_bond_distance
_geom_bond_site_symmetry_2
Gd0 Ge3 2.992283 1_556
Gd0 Ge2 3.001746 1_545
Gd0 Ge2 3.001746 1_455
Gd0 Ge0 3.109096 1_655
Gd0 Ge0 3.109096 1_565
Gd0 Ge1 3.111584 1_455
Gd0 Ge1 3.111584 1_545
Gd0 Ge0 3.279488 1_555
Gd1 Ge2 2.992283 1_554
Gd1 Ge3 3.001746 1_655
Gd1 Ge3 3.001746 1_565
Gd1 Ge1 3.109096 1_545
Gd1 Ge1 3.109096 1_455
Gd1 Ge0 3.111584 1_655
Gd1 Ge0 3.111584 1_565
Gd1 Ge1 3.279488 1_555
Gd2 Ge2 3.015562 1_544
Gd2 Ge2 3.015562 1_454
Gd2 Ge3 3.015562 1_455
Gd2 Ge3 3.015562 1_545
Gd2 Ge1 3.086524 1_445
Gd2 Ge0 3.086524 1_554
Gd2 Ge3 3.364608 1_555
Gd2 Ge2 3.364608 1_444
Co0 Ge1 2.358580 1_545
Co0 Ge1 2.358580 1_455
Co0 Ge0 2.412307 1_555
Co0 Ge3 2.433784 1_555
Co0 Gd0 2.894494 1_555
Co0 Gd1 3.044888 1_545
Co0 Gd1 3.044888 1_455
Co0 Gd1 3.272909 1_555
Co1 Ge0 2.358580 1_565
Co1 Ge0 2.358580 1_655
Co1 Ge1 2.412307 1_555
Co1 Ge2 2.433784 1_555
Co1 Gd1 2.894494 1_555
Co1 Gd0 3.044888 1_565
Co1 Gd0 3.044888 1_655
Co1 Gd0 3.272909 1_555
Ge0 Ge1 3.070423 1_445
Ge2 Ge3 2.731673 1_656
Ge2 Ge3 2.731673 1_566
