# generated using pymatgen
data_Li7Co5O12
_symmetry_space_group_name_H-M   'P 1'
_cell_length_a   7.58218964
_cell_length_b   7.58218964
_cell_length_c   9.81913361
_cell_angle_alpha   78.99958110
_cell_angle_beta   78.99958110
_cell_angle_gamma   22.02900719
_symmetry_Int_Tables_number   1
_chemical_formula_structural   Li7Co5O12
_chemical_formula_sum   'Li7 Co5 O12'
_cell_volume   207.69045955
_cell_formula_units_Z   1
loop_
 _symmetry_equiv_pos_site_id
 _symmetry_equiv_pos_as_xyz
  1  'x, y, z'
loop_
 _atom_site_type_symbol
 _atom_site_label
 _atom_site_symmetry_multiplicity
 _atom_site_fract_x
 _atom_site_fract_y
 _atom_site_fract_z
 _atom_site_occupancy
  Li  Li0  1  0.91773600  0.91773600  0.75301400  1
  Li  Li1  1  0.08226400  0.08226400  0.24698600  1
  Li  Li2  1  0.24991200  0.24991200  0.75032000  1
  Li  Li3  1  0.57899400  0.57899400  0.76037600  1
  Li  Li4  1  0.75008800  0.75008800  0.24968000  1
  Li  Li5  1  0.42100600  0.42100600  0.23962400  1
  Li  Li6  1  0.00000000  0.00000000  0.00000000  1
  Co  Co0  1  0.33690000  0.33690000  0.99589300  1
  Co  Co1  1  0.66310000  0.66310000  0.00410700  1
  Co  Co2  1  0.50000000  0.50000000  0.50000000  1
  Co  Co3  1  0.83412100  0.83412100  0.49771800  1
  Co  Co4  1  0.16587900  0.16587900  0.50228200  1
  O  O0  1  0.79065000  0.79065000  0.89488100  1
  O  O1  1  0.95584200  0.95584200  0.38099600  1
  O  O2  1  0.13353300  0.13353300  0.89306700  1
  O  O3  1  0.44656900  0.44656900  0.88339100  1
  O  O4  1  0.62022200  0.62022200  0.38773900  1
  O  O5  1  0.28708000  0.28708000  0.38027100  1
  O  O6  1  0.04415800  0.04415800  0.61900400  1
  O  O7  1  0.20935000  0.20935000  0.10511900  1
  O  O8  1  0.37977800  0.37977800  0.61226100  1
  O  O9  1  0.71292000  0.71292000  0.61972900  1
  O  O10  1  0.86646700  0.86646700  0.10693300  1
  O  O11  1  0.55343100  0.55343100  0.11660900  1
loop_
_geom_bond_atom_site_label_1
_geom_bond_atom_site_label_2
_geom_bond_distance
_geom_bond_site_symmetry_2
Li0 O3 2.033528 1_655
Li0 O3 2.033528 1_565
Li0 O6 2.076035 1_665
Li0 O0 2.120002 1_555
Li0 O8 2.152092 1_655
Li0 O8 2.152092 1_565
Li1 O11 2.033528 1_545
Li1 O11 2.033528 1_455
Li1 O1 2.076035 1_445
Li1 O7 2.120002 1_555
Li1 O4 2.152092 1_545
Li1 O4 2.152092 1_455
Li2 O2 2.005363 1_555
Li2 O9 2.078584 1_455
Li2 O9 2.078584 1_545
Li2 O8 2.134383 1_555
Li2 O0 2.194487 1_545
Li2 O0 2.194487 1_455
Li3 O3 2.102084 1_555
Li3 O6 2.138747 1_655
Li3 O6 2.138747 1_565
Li3 O9 2.193372 1_555
Li3 O2 2.205991 1_565
Li3 O2 2.205991 1_655
Li4 O10 2.005363 1_555
Li4 O5 2.078584 1_655
Li4 O5 2.078584 1_565
Li4 O4 2.134383 1_555
Li4 O7 2.194487 1_655
Li4 O7 2.194487 1_565
Li5 O11 2.102084 1_555
Li5 O1 2.138747 1_545
Li5 O1 2.138747 1_455
Li5 O5 2.193372 1_555
Li5 O10 2.205991 1_545
Li5 O10 2.205991 1_455
Li6 O2 2.059560 1_554
Li6 O10 2.059560 1_445
Li6 O11 2.096701 1_545
Li6 O11 2.096701 1_455
Li6 O3 2.096701 1_544
Li6 O3 2.096701 1_454
Co0 O3 1.784378 1_555
Co0 O10 1.915095 1_546
Co0 O10 1.915095 1_456
Co0 O0 1.954923 1_545
Co0 O0 1.954923 1_455
Co0 O7 1.990783 1_556
Co1 O11 1.784378 1_555
Co1 O2 1.915095 1_564
Co1 O2 1.915095 1_654
Co1 O7 1.954923 1_655
Co1 O7 1.954923 1_565
Co1 O0 1.990783 1_554
Co2 O4 1.910625 1_555
Co2 O8 1.910625 1_555
Co2 O6 2.048078 1_565
Co2 O6 2.048078 1_655
Co2 O1 2.048078 1_455
Co2 O1 2.048078 1_545
Co3 O1 1.946513 1_555
Co3 O9 1.962062 1_555
Co3 O8 2.030410 1_565
Co3 O8 2.030410 1_655
Co3 O5 2.057356 1_565
Co3 O5 2.057356 1_655
Co4 O6 1.946513 1_555
Co4 O5 1.962062 1_555
Co4 O4 2.030410 1_545
Co4 O4 2.030410 1_455
Co4 O9 2.057356 1_455
Co4 O9 2.057356 1_545
