# generated using pymatgen
data_BaMoO3
_symmetry_space_group_name_H-M   'P 1'
_cell_length_a   4.04839936
_cell_length_b   4.04839936
_cell_length_c   4.04839936
_cell_angle_alpha   90.00000000
_cell_angle_beta   90.00000000
_cell_angle_gamma   90.00000000
_symmetry_Int_Tables_number   1
_chemical_formula_structural   BaMoO3
_chemical_formula_sum   'Ba1 Mo1 O3'
_cell_volume   66.35139263
_cell_formula_units_Z   1
loop_
 _symmetry_equiv_pos_site_id
 _symmetry_equiv_pos_as_xyz
  1  'x, y, z'
loop_
 _atom_site_type_symbol
 _atom_site_label
 _atom_site_symmetry_multiplicity
 _atom_site_fract_x
 _atom_site_fract_y
 _atom_site_fract_z
 _atom_site_occupancy
  Ba  Ba0  1  0.50000000  0.50000000  0.50000000  1
  Mo  Mo0  1  0.00000000  0.00000000  0.00000000  1
  O  O0  1  -0.00000000  0.50000000  -0.00000000  1
  O  O1  1  0.00000000  -0.00000000  0.50000000  1
  O  O2  1  0.50000000  -0.00000000  -0.00000000  1
loop_
_geom_bond_atom_site_label_1
_geom_bond_atom_site_label_2
_geom_bond_distance
_geom_bond_site_symmetry_2
Ba0 O0 2.862651 1_556
Ba0 O1 2.862651 1_665
Ba0 O2 2.862651 1_556
Ba0 O2 2.862651 1_565
Ba0 O2 2.862651 1_566
Ba0 O0 2.862651 1_656
Ba0 O0 2.862651 1_655
Ba0 O1 2.862651 1_555
Ba0 O0 2.862651 1_555
Ba0 O2 2.862651 1_555
Ba0 O1 2.862651 1_565
Ba0 O1 2.862651 1_655
Mo0 O1 2.024200 1_555
Mo0 O1 2.024200 1_554
Mo0 O0 2.024200 1_545
Mo0 O2 2.024200 1_455
Mo0 O0 2.024200 1_555
Mo0 O2 2.024200 1_555
