# generated using pymatgen
data_Li7Mn2(CoO4)3
_symmetry_space_group_name_H-M   'P 1'
_cell_length_a   2.98989335
_cell_length_b   2.98989335
_cell_length_c   29.79528677
_cell_angle_alpha   88.80215430
_cell_angle_beta   88.80215430
_cell_angle_gamma   58.22645459
_symmetry_Int_Tables_number   1
_chemical_formula_structural   Li7Mn2(CoO4)3
_chemical_formula_sum   'Li7 Mn2 Co3 O12'
_cell_volume   226.37213316
_cell_formula_units_Z   1
loop_
 _symmetry_equiv_pos_site_id
 _symmetry_equiv_pos_as_xyz
  1  'x, y, z'
loop_
 _atom_site_type_symbol
 _atom_site_label
 _atom_site_symmetry_multiplicity
 _atom_site_fract_x
 _atom_site_fract_y
 _atom_site_fract_z
 _atom_site_occupancy
  Li  Li0  1  0.32073600  0.32073600  0.91098900  1
  Li  Li1  1  0.01052400  0.01052400  0.74927800  1
  Li  Li2  1  0.67008800  0.67008800  0.58422100  1
  Li  Li3  1  0.33453900  0.33453900  0.41929400  1
  Li  Li4  1  0.99665600  0.99665600  0.24792600  1
  Li  Li5  1  0.66893600  0.66893600  0.08786600  1
  Li  Li6  1  0.66900500  0.66900500  0.83302100  1
  Mn  Mn0  1  0.99815100  0.99815100  0.00180600  1
  Mn  Mn1  1  0.66685000  0.66685000  0.33350500  1
  Co  Co0  1  0.33461300  0.33461300  0.66504200  1
  Co  Co1  1  0.00139400  0.00139400  0.50091900  1
  Co  Co2  1  0.33341200  0.33341200  0.16671200  1
  O  O0  1  0.65091700  0.65091700  0.96654400  1
  O  O1  1  0.33253100  0.33253100  0.78935600  1
  O  O2  1  0.00931300  0.00931300  0.62725100  1
  O  O3  1  0.66862900  0.66862900  0.46303500  1
  O  O4  1  0.30703600  0.30703600  0.29525400  1
  O  O5  1  0.00331600  0.00331600  0.12823700  1
  O  O6  1  0.99809700  0.99809700  0.87621100  1
  O  O7  1  0.65213100  0.65213100  0.70069000  1
  O  O8  1  0.33528700  0.33528700  0.53746000  1
  O  O9  1  0.02674500  0.02674500  0.37176100  1
  O  O10  1  0.65980600  0.65980600  0.20449500  1
  O  O11  1  0.35128700  0.35128700  0.03912600  1
loop_
_geom_bond_atom_site_label_1
_geom_bond_atom_site_label_2
_geom_bond_distance
_geom_bond_site_symmetry_2
Li0 O6 1.999615 1_445
Li0 O6 2.000626 1_455
Li0 O6 2.000626 1_545
Li0 O0 2.360698 1_545
Li0 O0 2.360698 1_455
Li0 O0 2.419109 1_555
Li1 O1 2.086168 1_555
Li1 O1 2.086540 1_455
Li1 O1 2.086540 1_545
Li1 O7 2.169792 1_545
Li1 O7 2.169792 1_455
Li1 O7 2.394000 1_445
Li2 O2 2.100917 1_655
Li2 O2 2.100917 1_565
Li2 O8 2.178213 1_655
Li2 O8 2.178213 1_565
Li2 O2 2.212065 1_665
Li2 O8 2.262110 1_555
Li3 O3 2.124119 1_455
Li3 O3 2.124119 1_545
Li3 O9 2.168056 1_555
Li3 O3 2.203125 1_555
Li3 O9 2.249926 1_655
Li3 O9 2.249926 1_565
Li4 O10 2.112908 1_565
Li4 O10 2.112908 1_655
Li4 O4 2.174230 1_665
Li4 O10 2.209170 1_555
Li4 O4 2.240348 1_655
Li4 O4 2.240348 1_565
Li5 O5 2.064429 1_655
Li5 O5 2.064429 1_565
Li5 O5 2.144553 1_665
Li5 O11 2.231188 1_555
Li5 O11 2.250873 1_655
Li5 O11 2.250873 1_565
Li6 O1 2.117881 1_655
Li6 O1 2.117881 1_565
Li6 O6 2.124707 1_455
Li6 O6 2.124707 1_545
Li6 O6 2.172048 1_555
Li6 O1 2.211805 1_555
Mn0 O0 1.953666 1_654
Mn0 O0 1.953666 1_564
Mn0 O11 1.974956 1_655
Mn0 O11 1.974956 1_565
Mn0 O0 2.117983 1_554
Mn0 O11 2.176750 1_665
Mn1 O9 1.977679 1_655
Mn1 O9 1.977679 1_565
Mn1 O4 1.977745 1_565
Mn1 O4 1.977745 1_655
Mn1 O4 2.221486 1_555
Mn1 O9 2.221928 1_665
Co0 O7 1.991008 1_555
Co0 O7 2.026001 1_545
Co0 O7 2.026001 1_455
Co0 O2 2.041522 1_565
Co0 O2 2.041522 1_655
Co0 O2 2.060975 1_555
Co1 O8 2.002339 1_545
Co1 O8 2.002339 1_455
Co1 O3 2.026420 1_545
Co1 O3 2.026420 1_455
Co1 O8 2.078231 1_555
Co1 O3 2.095298 1_445
Co2 O10 2.038919 1_545
Co2 O10 2.038919 1_455
Co2 O5 2.041935 1_655
Co2 O5 2.041935 1_565
Co2 O10 2.065630 1_555
Co2 O5 2.093502 1_555
