# generated using pymatgen
data_Ca4(CuO2)5
_symmetry_space_group_name_H-M   'P 1'
_cell_length_a   8.70224939
_cell_length_b   8.70224939
_cell_length_c   6.36021681
_cell_angle_alpha   90.00000000
_cell_angle_beta   90.00000000
_cell_angle_gamma   104.59671920
_symmetry_Int_Tables_number   1
_chemical_formula_structural   Ca4(CuO2)5
_chemical_formula_sum   'Ca8 Cu10 O20'
_cell_volume   466.10772833
_cell_formula_units_Z   2
loop_
 _symmetry_equiv_pos_site_id
 _symmetry_equiv_pos_as_xyz
  1  'x, y, z'
loop_
 _atom_site_type_symbol
 _atom_site_label
 _atom_site_symmetry_multiplicity
 _atom_site_fract_x
 _atom_site_fract_y
 _atom_site_fract_z
 _atom_site_occupancy
  Ca  Ca0  1  0.81356138  0.68643862  0.75000000  1
  Ca  Ca1  1  0.18643862  0.31356138  0.25000000  1
  Ca  Ca2  1  0.68643862  0.81356138  0.25000000  1
  Ca  Ca3  1  0.31356138  0.18643862  0.75000000  1
  Ca  Ca4  1  0.56072151  0.93927849  0.75000000  1
  Ca  Ca5  1  0.43927849  0.06072151  0.25000000  1
  Ca  Ca6  1  0.93927849  0.56072151  0.25000000  1
  Ca  Ca7  1  0.06072151  0.43927849  0.75000000  1
  Cu  Cu0  1  0.00000000  -0.00000000  -0.00000000  1
  Cu  Cu1  1  0.50000000  0.50000000  0.50000000  1
  Cu  Cu2  1  0.60173071  0.39826929  0.97643867  1
  Cu  Cu3  1  0.39826929  0.60173071  0.02356133  1
  Cu  Cu4  1  0.10173071  0.89826929  0.52356133  1
  Cu  Cu5  1  0.89826929  0.10173071  0.47643867  1
  Cu  Cu6  1  0.70053413  0.29946587  0.45919028  1
  Cu  Cu7  1  0.29946587  0.70053413  0.54080972  1
  Cu  Cu8  1  0.20053413  0.79946587  0.04080972  1
  Cu  Cu9  1  0.79946587  0.20053413  0.95919028  1
  O  O0  1  0.38413105  0.38413105  -0.00000000  1
  O  O1  1  0.61586895  0.61586895  -0.00000000  1
  O  O2  1  0.11586895  0.11586895  0.50000000  1
  O  O3  1  0.88413105  0.88413105  0.50000000  1
  O  O4  1  0.57082998  0.17758143  0.93820893  1
  O  O5  1  0.42917002  0.82241857  0.06179107  1
  O  O6  1  0.32241857  0.92917002  0.56179107  1
  O  O7  1  0.17758143  0.57082998  0.06179107  1
  O  O8  1  0.67758143  0.07082998  0.43820893  1
  O  O9  1  0.82241857  0.42917002  0.93820893  1
  O  O10  1  0.92917002  0.32241857  0.43820893  1
  O  O11  1  0.07082998  0.67758143  0.56179107  1
  O  O12  1  0.71340022  0.52577509  0.45929225  1
  O  O13  1  0.28659978  0.47422491  0.54070775  1
  O  O14  1  0.97422491  0.78659978  0.04070775  1
  O  O15  1  0.52577509  0.71340022  0.54070775  1
  O  O16  1  0.02577509  0.21340022  0.95929225  1
  O  O17  1  0.47422491  0.28659978  0.45929225  1
  O  O18  1  0.78659978  0.97422491  0.95929225  1
  O  O19  1  0.21340022  0.02577509  0.04070775  1
loop_
_geom_bond_atom_site_label_1
_geom_bond_atom_site_label_2
_geom_bond_distance
_geom_bond_site_symmetry_2
Ca0 O1 2.309236 1_556
Ca0 O3 2.309236 1_555
Ca0 O14 2.349244 1_556
Ca0 O12 2.349244 1_555
Ca0 O9 2.556979 1_555
Ca0 O11 2.556979 1_655
Ca0 O18 2.897433 1_555
Ca0 O15 2.897433 1_555
Ca1 O2 2.309236 1_555
Ca1 O0 2.309236 1_555
Ca1 O13 2.349244 1_555
Ca1 O16 2.349244 1_554
Ca1 O10 2.556979 1_455
Ca1 O7 2.556979 1_555
Ca1 O19 2.897433 1_555
Ca1 O17 2.897433 1_555
Ca2 O1 2.309236 1_555
Ca2 O3 2.309236 1_555
Ca2 O15 2.349244 1_555
Ca2 O18 2.349244 1_554
Ca2 O5 2.556979 1_555
Ca2 O8 2.556979 1_565
Ca2 O12 2.897433 1_555
Ca2 O14 2.897433 1_555
Ca3 O2 2.309236 1_555
Ca3 O0 2.309236 1_556
Ca3 O19 2.349244 1_556
Ca3 O17 2.349244 1_555
Ca3 O4 2.556979 1_555
Ca3 O6 2.556979 1_545
Ca3 O16 2.897433 1_555
Ca3 O13 2.897433 1_555
Ca4 O15 2.329573 1_555
Ca4 O18 2.329573 1_555
Ca4 O6 2.376815 1_555
Ca4 O4 2.376815 1_565
Ca4 O5 2.385470 1_556
Ca4 O8 2.385470 1_565
Ca5 O19 2.329573 1_555
Ca5 O17 2.329573 1_555
Ca5 O8 2.376815 1_555
Ca5 O5 2.376815 1_545
Ca5 O4 2.385470 1_554
Ca5 O6 2.385470 1_545
Ca6 O14 2.329573 1_555
Ca6 O12 2.329573 1_555
Ca6 O10 2.376815 1_555
Ca6 O7 2.376815 1_655
Ca6 O9 2.385470 1_554
Ca6 O11 2.385470 1_655
Ca7 O16 2.329573 1_555
Ca7 O13 2.329573 1_555
Ca7 O11 2.376815 1_555
Ca7 O9 2.376815 1_455
Ca7 O7 2.385470 1_556
Ca7 O10 2.385470 1_455
Cu0 O19 1.831960 1_555
Cu0 O16 1.831960 1_554
Cu0 O18 1.831960 1_444
Cu0 O14 1.831960 1_445
Cu1 O13 1.831960 1_555
Cu1 O17 1.831960 1_555
Cu1 O15 1.831960 1_555
Cu1 O12 1.831960 1_555
Cu2 O1 1.872408 1_556
Cu2 O0 1.872408 1_556
Cu2 O9 1.886633 1_555
Cu2 O4 1.886633 1_555
Cu3 O1 1.872408 1_555
Cu3 O0 1.872408 1_555
Cu3 O5 1.886633 1_555
Cu3 O7 1.886633 1_555
Cu4 O3 1.872408 1_455
Cu4 O2 1.872408 1_565
Cu4 O11 1.886633 1_555
Cu4 O6 1.886633 1_555
Cu5 O3 1.872408 1_545
Cu5 O2 1.872408 1_655
Cu5 O8 1.886633 1_555
Cu5 O10 1.886633 1_555
Cu6 O12 1.944204 1_555
Cu6 O17 1.944204 1_555
Cu6 O8 1.953482 1_555
Cu6 O10 1.953482 1_555
Cu7 O15 1.944204 1_555
Cu7 O13 1.944204 1_555
Cu7 O11 1.953482 1_555
Cu7 O6 1.953482 1_555
Cu8 O19 1.944204 1_565
Cu8 O14 1.944204 1_455
Cu8 O5 1.953482 1_555
Cu8 O7 1.953482 1_555
Cu9 O16 1.944204 1_655
Cu9 O18 1.944204 1_545
Cu9 O9 1.953482 1_555
Cu9 O4 1.953482 1_555
