# generated using pymatgen
data_V2AgP3O11
_symmetry_space_group_name_H-M   'P 1'
_cell_length_a   7.31880576
_cell_length_b   7.31880576
_cell_length_c   8.90182973
_cell_angle_alpha   70.69536804
_cell_angle_beta   70.69536804
_cell_angle_gamma   72.86602453
_symmetry_Int_Tables_number   1
_chemical_formula_structural   V2AgP3O11
_chemical_formula_sum   'V4 Ag2 P6 O22'
_cell_volume   415.41942075
_cell_formula_units_Z   2
loop_
 _symmetry_equiv_pos_site_id
 _symmetry_equiv_pos_as_xyz
  1  'x, y, z'
loop_
 _atom_site_type_symbol
 _atom_site_label
 _atom_site_symmetry_multiplicity
 _atom_site_fract_x
 _atom_site_fract_y
 _atom_site_fract_z
 _atom_site_occupancy
  V  V0  1  0.88460200  0.36324200  0.21017900  1
  V  V1  1  0.63675800  0.11539800  0.78982100  1
  V  V2  1  0.11418500  0.63636200  0.29118700  1
  V  V3  1  0.36363800  0.88581500  0.70881300  1
  Ag  Ag0  1  0.98500200  0.51645200  0.75816200  1
  Ag  Ag1  1  0.48354800  0.01499800  0.24183800  1
  P  P0  1  0.32524600  0.45254500  0.96475500  1
  P  P1  1  0.54745500  0.67475400  0.03524500  1
  P  P2  1  0.67399900  0.54822500  0.53520500  1
  P  P3  1  0.45177500  0.32600100  0.46479500  1
  P  P4  1  0.95838700  0.04161300  0.00000000  1
  P  P5  1  0.04172300  0.95827700  0.50000000  1
  O  O0  1  0.51351800  0.48648200  0.00000000  1
  O  O1  1  0.48612400  0.51387600  0.50000000  1
  O  O2  1  0.61491200  0.27546500  0.31610600  1
  O  O3  1  0.72453500  0.38508800  0.68389400  1
  O  O4  1  0.38499500  0.72493800  0.18399200  1
  O  O5  1  0.27506200  0.61500500  0.81600800  1
  O  O6  1  0.75609900  0.61484600  0.05833500  1
  O  O7  1  0.38515400  0.24390100  0.94166500  1
  O  O8  1  0.24455500  0.38495600  0.44009500  1
  O  O9  1  0.61504400  0.75544500  0.55990500  1
  O  O10  1  0.95179900  0.24667000  0.02271900  1
  O  O11  1  0.75333000  0.04820100  0.97728100  1
  O  O12  1  0.04734000  0.75332200  0.47820200  1
  O  O13  1  0.24667800  0.95266000  0.52179800  1
  O  O14  1  0.01703300  0.12480000  0.34472900  1
  O  O15  1  0.87520000  0.98296700  0.65527100  1
  O  O16  1  0.98431900  0.87495000  0.15479000  1
  O  O17  1  0.12505000  0.01568100  0.84521000  1
  O  O18  1  0.15666600  0.46817400  0.12523200  1
  O  O19  1  0.53182600  0.84333400  0.87476800  1
  O  O20  1  0.84296900  0.53150400  0.37497000  1
  O  O21  1  0.46849600  0.15703100  0.62503000  1
loop_
_geom_bond_atom_site_label_1
_geom_bond_atom_site_label_2
_geom_bond_distance
_geom_bond_site_symmetry_2
Ag0 O12 2.506404 1_655
Ag0 O10 2.516683 1_556
Ag0 O5 2.676314 1_655
Ag0 O3 2.707190 1_555
Ag0 O6 2.840226 1_556
Ag1 O13 2.506404 1_545
Ag1 O11 2.516683 1_554
Ag1 O4 2.676314 1_545
Ag1 O2 2.707190 1_555
Ag1 O7 2.840226 1_554
O0 P0 1.611778 1_554
O0 P1 1.611778 1_555
O1 P2 1.610209 1_555
O1 P3 1.610209 1_555
O2 P3 1.527376 1_555
O2 V0 2.076969 1_555
O3 P2 1.527376 1_555
O3 V1 2.076969 1_555
O4 P1 1.524869 1_555
O4 V2 2.087279 1_555
O5 P0 1.524869 1_555
O5 V3 2.087279 1_555
O6 P1 1.523068 1_555
O6 V0 2.068058 1_555
O7 P0 1.523068 1_555
O7 V1 2.068058 1_555
O8 P3 1.518810 1_555
O8 V2 2.059672 1_555
O9 P2 1.518810 1_555
O9 V3 2.059672 1_555
O10 P4 1.564334 1_555
O10 V0 1.976342 1_555
O11 P4 1.564334 1_556
O11 V1 1.976342 1_555
O12 P5 1.562133 1_555
O12 V2 1.974979 1_555
O13 P5 1.562133 1_555
O13 V3 1.974979 1_555
O14 P5 1.532988 1_545
O14 V0 1.951505 1_455
O15 P5 1.532988 1_655
O15 V1 1.951505 1_565
O16 P4 1.532235 1_565
O16 V2 1.951938 1_655
O17 P4 1.532235 1_456
O17 V3 1.951938 1_545
O18 P0 1.560643 1_554
O18 V2 2.113632 1_555
O18 V0 2.155904 1_455
O19 P1 1.560643 1_556
O19 V3 2.113632 1_555
O19 V1 2.155904 1_565
O20 P2 1.561674 1_555
O20 V0 2.106916 1_555
O20 V2 2.150729 1_655
O21 P3 1.561674 1_555
O21 V1 2.106916 1_555
O21 V3 2.150729 1_545
