# generated using pymatgen
data_Mo3W(Se3S)2
_symmetry_space_group_name_H-M   'P 1'
_cell_length_a   3.29153754
_cell_length_b   3.29153754
_cell_length_c   37.63743600
_cell_angle_alpha   90.00000000
_cell_angle_beta   90.00000000
_cell_angle_gamma   119.99999085
_symmetry_Int_Tables_number   1
_chemical_formula_structural   Mo3W(Se3S)2
_chemical_formula_sum   'Mo3 W1 Se6 S2'
_cell_volume   353.14115103
_cell_formula_units_Z   1
loop_
 _symmetry_equiv_pos_site_id
 _symmetry_equiv_pos_as_xyz
  1  'x, y, z'
loop_
 _atom_site_type_symbol
 _atom_site_label
 _atom_site_symmetry_multiplicity
 _atom_site_fract_x
 _atom_site_fract_y
 _atom_site_fract_z
 _atom_site_occupancy
  Mo  Mo0  1  0.33333300  0.66666700  0.09334500  1
  Mo  Mo1  1  0.33333300  0.66666700  0.46883200  1
  Mo  Mo2  1  0.66666700  0.33333300  0.28185200  1
  W  W0  1  0.66666700  0.33333300  0.65890700  1
  Se  Se0  1  0.33333300  0.66666700  0.70390800  1
  Se  Se1  1  0.66666700  0.33333300  0.04857300  1
  Se  Se2  1  0.66666700  0.33333300  0.42404100  1
  Se  Se3  1  0.66666700  0.33333300  0.13811000  1
  Se  Se4  1  0.66666700  0.33333300  0.51359300  1
  Se  Se5  1  0.33333300  0.66666700  0.61390800  1
  S  S0  1  0.33333300  0.66666700  0.32256800  1
  S  S1  1  0.33333300  0.66666700  0.24111200  1
loop_
_geom_bond_atom_site_label_1
_geom_bond_atom_site_label_2
_geom_bond_distance
_geom_bond_site_symmetry_2
Mo0 Se3 2.539702 1_455
Mo0 Se3 2.539702 1_565
Mo0 Se3 2.539706 1_555
Mo0 Se1 2.539877 1_565
Mo0 Se1 2.539877 1_455
Mo0 Se1 2.539881 1_555
Mo1 Se4 2.539602 1_455
Mo1 Se4 2.539602 1_565
Mo1 Se4 2.539606 1_555
Mo1 Se2 2.540351 1_455
Mo1 Se2 2.540351 1_565
Mo1 Se2 2.540355 1_555
Mo2 S0 2.441268 1_545
Mo2 S0 2.441268 1_655
Mo2 S0 2.441272 1_555
Mo2 S1 2.441835 1_545
Mo2 S1 2.441835 1_655
Mo2 S1 2.441840 1_555
Se0 W0 2.545603 1_455
Se0 W0 2.545603 1_565
Se0 W0 2.545607 1_555
Se5 W0 2.545553 1_455
Se5 W0 2.545553 1_565
Se5 W0 2.545557 1_555
