# generated using pymatgen
data_Gd2US5
_symmetry_space_group_name_H-M   'P 1'
_cell_length_a   7.44396690
_cell_length_b   8.00870386
_cell_length_c   11.77541072
_cell_angle_alpha   89.99970639
_cell_angle_beta   89.99995997
_cell_angle_gamma   89.99990333
_symmetry_Int_Tables_number   1
_chemical_formula_structural   Gd2US5
_chemical_formula_sum   'Gd8 U4 S20'
_cell_volume   702.00908494
_cell_formula_units_Z   4
loop_
 _symmetry_equiv_pos_site_id
 _symmetry_equiv_pos_as_xyz
  1  'x, y, z'
loop_
 _atom_site_type_symbol
 _atom_site_label
 _atom_site_symmetry_multiplicity
 _atom_site_fract_x
 _atom_site_fract_y
 _atom_site_fract_z
 _atom_site_occupancy
  Gd  Gd0  1  0.51611344  -0.00093472  0.82182760  1
  Gd  Gd1  1  0.98359876  0.50101845  0.32151484  1
  Gd  Gd2  1  0.48388157  0.49907011  0.17817088  1
  Gd  Gd3  1  0.01639871  0.00101073  0.67848385  1
  Gd  Gd4  1  0.48360364  0.00101357  0.17849291  1
  Gd  Gd5  1  0.01612015  0.49907275  0.67817528  1
  Gd  Gd6  1  0.51640346  0.50101905  0.82150950  1
  Gd  Gd7  1  0.98388201  -0.00093155  0.32182686  1
  U  U0  1  0.07537721  0.25004937  0.99015748  1
  U  U1  1  0.42462173  0.25004081  0.49016521  1
  U  U2  1  0.92462022  0.75004085  0.00983809  1
  U  U3  1  0.57538125  0.75004242  0.50983294  1
  S  S0  1  0.83933662  0.45697793  0.09947896  1
  S  S1  1  0.66029647  0.04254655  0.59998386  1
  S  S2  1  0.16065334  0.95698039  0.90051764  1
  S  S3  1  0.33970025  0.54254721  0.40001082  1
  S  S4  1  0.16031086  0.54255925  0.90002480  1
  S  S5  1  0.33933574  0.95698074  0.40052290  1
  S  S6  1  0.83969710  0.04256413  0.09998422  1
  S  S7  1  0.66066472  0.45697107  0.59947685  1
  S  S8  1  0.82703692  0.25037329  0.81464744  1
  S  S9  1  0.67296486  0.25038046  0.31464932  1
  S  S10  1  0.17296284  0.75037512  0.18535326  1
  S  S11  1  0.32703504  0.75038064  0.68535220  1
  S  S12  1  0.45993490  0.24990591  -0.00018289  1
  S  S13  1  0.04006604  0.24990678  0.49981646  1
  S  S14  1  0.54006189  0.74991032  0.00018316  1
  S  S15  1  0.95993592  0.74990521  0.50018328  1
  S  S16  1  0.20148366  0.25005666  0.21622177  1
  S  S17  1  0.29851512  0.25005733  0.71622762  1
  S  S18  1  0.79851538  0.75005363  0.78377958  1
  S  S19  1  0.70148819  0.75005354  0.28377331  1
loop_
_geom_bond_atom_site_label_1
_geom_bond_atom_site_label_2
_geom_bond_distance
_geom_bond_site_symmetry_2
Gd0 S2 2.823772 1_545
Gd0 S1 2.845580 1_555
Gd0 S17 2.865404 1_555
Gd0 S14 2.902460 1_546
Gd0 S11 2.920675 1_545
Gd0 S18 2.932065 1_545
Gd0 S12 2.933161 1_556
Gd0 S8 3.068364 1_555
Gd1 S3 2.826974 1_655
Gd1 S0 2.848435 1_555
Gd1 S16 2.864882 1_655
Gd1 S15 2.903537 1_555
Gd1 S10 2.923331 1_655
Gd1 S19 2.930086 1_555
Gd1 S13 2.937566 1_655
Gd1 S9 3.063120 1_555
Gd2 S0 2.823751 1_555
Gd2 S3 2.845533 1_555
Gd2 S19 2.865415 1_555
Gd2 S12 2.902510 1_555
Gd2 S9 2.920725 1_555
Gd2 S16 2.932060 1_555
Gd2 S14 2.933131 1_555
Gd2 S10 3.068318 1_555
Gd3 S1 2.826999 1_455
Gd3 S2 2.848378 1_545
Gd3 S18 2.864858 1_445
Gd3 S13 2.903567 1_555
Gd3 S8 2.923376 1_455
Gd3 S17 2.930192 1_555
Gd3 S15 2.937534 1_445
Gd3 S11 3.063087 1_545
Gd4 S6 2.826985 1_555
Gd4 S5 2.848376 1_545
Gd4 S19 2.864798 1_545
Gd4 S12 2.903618 1_555
Gd4 S9 2.923356 1_555
Gd4 S16 2.930160 1_555
Gd4 S14 2.937593 1_545
Gd4 S10 3.063159 1_545
Gd5 S7 2.823790 1_455
Gd5 S4 2.845674 1_555
Gd5 S18 2.865398 1_455
Gd5 S13 2.902562 1_555
Gd5 S8 2.920740 1_455
Gd5 S17 2.932054 1_555
Gd5 S15 2.933128 1_455
Gd5 S11 3.068315 1_555
Gd6 S4 2.826995 1_555
Gd6 S7 2.848404 1_555
Gd6 S17 2.864844 1_555
Gd6 S14 2.903605 1_556
Gd6 S11 2.923344 1_555
Gd6 S18 2.930074 1_555
Gd6 S12 2.937626 1_556
Gd6 S8 3.063152 1_555
Gd7 S5 2.823754 1_645
Gd7 S6 2.845589 1_555
Gd7 S16 2.865425 1_655
Gd7 S15 2.902512 1_545
Gd7 S10 2.920715 1_645
Gd7 S19 2.932055 1_545
Gd7 S13 2.933156 1_655
Gd7 S9 3.068344 1_555
S0 U2 2.650637 1_555
S0 U0 2.736950 1_654
S1 U3 2.648430 1_545
S1 U1 2.740701 1_555
S2 U0 2.650670 1_565
S2 U2 2.736958 1_456
S3 U1 2.648463 1_555
S3 U3 2.740766 1_555
S4 U0 2.648408 1_555
S4 U2 2.740692 1_456
S5 U1 2.650638 1_565
S5 U3 2.736951 1_555
S6 U2 2.648555 1_545
S6 U0 2.740730 1_654
S7 U3 2.650709 1_555
S7 U1 2.736920 1_555
S8 U0 2.772856 1_655
S9 U1 2.772920 1_555
S10 U2 2.772913 1_455
S11 U3 2.772965 1_555
S12 U0 2.864894 1_554
S13 U1 2.864875 1_555
S14 U2 2.864896 1_555
S15 U3 2.864867 1_555
S16 U0 2.822670 1_554
S17 U1 2.822648 1_555
S18 U2 2.822602 1_556
S19 U3 2.822618 1_555
