# generated using pymatgen
data_La4Al
_symmetry_space_group_name_H-M   'P 1'
_cell_length_a   8.21592602
_cell_length_b   8.21592602
_cell_length_c   8.21592602
_cell_angle_alpha   60.00000000
_cell_angle_beta   60.00000000
_cell_angle_gamma   60.00000000
_symmetry_Int_Tables_number   1
_chemical_formula_structural   La4Al
_chemical_formula_sum   'La8 Al2'
_cell_volume   392.15211503
_cell_formula_units_Z   2
loop_
 _symmetry_equiv_pos_site_id
 _symmetry_equiv_pos_as_xyz
  1  'x, y, z'
loop_
 _atom_site_type_symbol
 _atom_site_label
 _atom_site_symmetry_multiplicity
 _atom_site_fract_x
 _atom_site_fract_y
 _atom_site_fract_z
 _atom_site_occupancy
  La  La0  1  0.60561500  0.60561500  0.60561500  1
  La  La1  1  0.18315500  0.60561500  0.60561500  1
  La  La2  1  0.60561500  0.18315500  0.60561500  1
  La  La3  1  0.56684500  0.14438500  0.14438500  1
  La  La4  1  0.14438500  0.14438500  0.14438500  1
  La  La5  1  0.60561500  0.60561500  0.18315500  1
  La  La6  1  0.14438500  0.56684500  0.14438500  1
  La  La7  1  0.14438500  0.14438500  0.56684500  1
  Al  Al0  1  0.00000000  0.00000000  0.00000000  1
  Al  Al1  1  0.75000000  0.75000000  0.75000000  1
loop_
_geom_bond_atom_site_label_1
_geom_bond_atom_site_label_2
_geom_bond_distance
_geom_bond_site_symmetry_2
Al0 La6 2.905723 1_545
Al0 La3 2.905723 1_455
Al0 La7 2.905723 1_554
Al0 La4 2.905723 1_555
Al1 La5 2.905723 1_556
Al1 La2 2.905723 1_565
Al1 La1 2.905723 1_655
Al1 La0 2.905723 1_555
