# generated using pymatgen
data_Rb2Al(H2N)2
_symmetry_space_group_name_H-M   'P 1'
_cell_length_a   11.60242100
_cell_length_b   11.60242100
_cell_length_c   5.66174200
_cell_angle_alpha   90.00000000
_cell_angle_beta   90.00000000
_cell_angle_gamma   90.00000000
_symmetry_Int_Tables_number   1
_chemical_formula_structural   Rb2Al(H2N)2
_chemical_formula_sum   'Rb8 Al4 H16 N8'
_cell_volume   762.16204090
_cell_formula_units_Z   4
loop_
 _symmetry_equiv_pos_site_id
 _symmetry_equiv_pos_as_xyz
  1  'x, y, z'
loop_
 _atom_site_type_symbol
 _atom_site_label
 _atom_site_symmetry_multiplicity
 _atom_site_fract_x
 _atom_site_fract_y
 _atom_site_fract_z
 _atom_site_occupancy
  Rb  Rb0  1  0.99174700  0.24457300  0.40406800  1
  Rb  Rb1  1  0.00825300  0.75542700  0.40406800  1
  Rb  Rb2  1  0.74457300  0.50825300  0.40406800  1
  Rb  Rb3  1  0.50825300  0.25542700  0.59593200  1
  Rb  Rb4  1  0.25542700  0.49174700  0.40406800  1
  Rb  Rb5  1  0.49174700  0.74457300  0.59593200  1
  Rb  Rb6  1  0.75542700  0.99174700  0.59593200  1
  Rb  Rb7  1  0.24457300  0.00825300  0.59593200  1
  Al  Al0  1  0.75000000  0.25000000  0.00000000  1
  Al  Al1  1  0.25000000  0.75000000  0.00000000  1
  Al  Al2  1  0.75000000  0.75000000  0.00000000  1
  Al  Al3  1  0.25000000  0.25000000  0.00000000  1
  H  H0  1  0.49865300  0.53322800  0.20141000  1
  H  H1  1  0.50134700  0.46677200  0.20141000  1
  H  H2  1  0.03322800  0.00134700  0.20141000  1
  H  H3  1  0.00134700  0.96677200  0.79859000  1
  H  H4  1  0.96677200  0.99865300  0.20141000  1
  H  H5  1  0.99865300  0.03322800  0.79859000  1
  H  H6  1  0.46677200  0.49865300  0.79859000  1
  H  H7  1  0.53322800  0.50134700  0.79859000  1
  H  H8  1  0.60514200  0.07730600  0.12448300  1
  H  H9  1  0.39485800  0.92269400  0.12448300  1
  H  H10  1  0.57730600  0.89485800  0.12448300  1
  H  H11  1  0.89485800  0.42269400  0.87551700  1
  H  H12  1  0.42269400  0.10514200  0.12448300  1
  H  H13  1  0.10514200  0.57730600  0.87551700  1
  H  H14  1  0.92269400  0.60514200  0.87551700  1
  H  H15  1  0.07730600  0.39485800  0.87551700  1
  N  N0  1  0.57390400  0.05467300  0.95561100  1
  N  N1  1  0.42609600  0.94532700  0.95561100  1
  N  N2  1  0.55467300  0.92609600  0.95561100  1
  N  N3  1  0.92609600  0.44532700  0.04438900  1
  N  N4  1  0.44532700  0.07390400  0.95561100  1
  N  N5  1  0.07390400  0.55467300  0.04438900  1
  N  N6  1  0.94532700  0.57390400  0.04438900  1
  N  N7  1  0.05467300  0.42609600  0.04438900  1
loop_
_geom_bond_atom_site_label_1
_geom_bond_atom_site_label_2
_geom_bond_distance
_geom_bond_site_symmetry_2
Al0 Rb3 3.620063 1_554
Al0 Rb0 3.620063 1_555
Al0 Rb6 3.770390 1_544
Al0 Rb2 3.770390 1_555
Al1 Rb1 3.620063 1_555
Al1 Rb5 3.620063 1_554
Al1 Rb4 3.770390 1_555
Al1 Rb7 3.770390 1_564
Al2 Rb6 3.620063 1_554
Al2 Rb2 3.620063 1_555
Al2 Rb5 3.770390 1_554
Al2 Rb1 3.770390 1_655
Al3 Rb4 3.620063 1_555
Al3 Rb7 3.620063 1_554
Al3 Rb3 3.770390 1_554
Al3 Rb0 3.770390 1_455
H0 H1 0.771684 1_555
H2 H4 0.771684 1_445
H3 H5 0.771684 1_465
H6 H7 0.771684 1_555
H8 N0 1.055681 1_554
H9 N1 1.055681 1_554
H10 N2 1.055681 1_554
H11 N3 1.055681 1_556
H12 N4 1.055681 1_554
H13 N5 1.055681 1_556
H14 N6 1.055681 1_556
H15 N7 1.055681 1_556
N0 Rb6 3.019219 1_545
N1 Rb7 3.019219 1_565
N2 Rb5 3.019219 1_555
N3 Rb2 3.019219 1_555
N4 Rb3 3.019219 1_555
N5 Rb4 3.019219 1_555
N6 Rb1 3.019219 1_655
N7 Rb0 3.019219 1_455
