# generated using pymatgen
data_Ba2MnTeO6
_symmetry_space_group_name_H-M   'P 1'
_cell_length_a   8.33849900
_cell_length_b   8.33842840
_cell_length_c   10.21485182
_cell_angle_alpha   65.90854427
_cell_angle_beta   114.09169664
_cell_angle_gamma   90.00173222
_symmetry_Int_Tables_number   1
_chemical_formula_structural   Ba2MnTeO6
_chemical_formula_sum   'Ba8 Mn4 Te4 O24'
_cell_volume   579.94857425
_cell_formula_units_Z   4
loop_
 _symmetry_equiv_pos_site_id
 _symmetry_equiv_pos_as_xyz
  1  'x, y, z'
loop_
 _atom_site_type_symbol
 _atom_site_label
 _atom_site_symmetry_multiplicity
 _atom_site_fract_x
 _atom_site_fract_y
 _atom_site_fract_z
 _atom_site_occupancy
  Ba  Ba0  1  0.87499500  0.62501900  0.24999600  1
  Ba  Ba1  1  0.62501000  0.37500600  0.74999800  1
  Ba  Ba2  1  0.37499500  0.12499200  0.24999600  1
  Ba  Ba3  1  0.12498200  0.87500500  0.74999700  1
  Ba  Ba4  1  0.12499300  0.37499400  0.75000300  1
  Ba  Ba5  1  0.87500600  0.12498100  0.25000400  1
  Ba  Ba6  1  0.62502000  0.87499300  0.75000500  1
  Ba  Ba7  1  0.37500700  0.62500800  0.25000400  1
  Mn  Mn0  1  0.49999900  0.50001000  0.00000500  1
  Mn  Mn1  1  0.24999400  0.24999600  0.49998700  1
  Mn  Mn2  1  0.74996400  0.74999400  0.49998000  1
  Mn  Mn3  1  0.00001800  0.00001400  0.00001200  1
  Te  Te0  1  0.50000200  0.99999500  0.00000600  1
  Te  Te1  1  0.24999900  0.75000400  0.49999400  1
  Te  Te2  1  0.99999700  0.50000100  0.99999500  1
  Te  Te3  1  0.75000400  0.24999800  0.50000600  1
  O  O0  1  0.38188400  0.11811700  0.76375800  1
  O  O1  1  0.13187900  0.86812100  0.26374800  1
  O  O2  1  0.88187900  0.61812100  0.76375000  1
  O  O3  1  0.63188300  0.36811700  0.26375700  1
  O  O4  1  0.26368400  0.00002000  0.99996500  1
  O  O5  1  0.01371500  0.74998900  0.50002800  1
  O  O6  1  0.76369600  0.50001900  0.99996600  1
  O  O7  1  0.51372700  0.24998800  0.50002800  1
  O  O8  1  0.50001200  0.23627400  0.00002700  1
  O  O9  1  0.24998100  0.98630200  0.49996700  1
  O  O10  1  0.00001200  0.73628700  0.00002800  1
  O  O11  1  0.74998100  0.48631900  0.49996600  1
  O  O12  1  0.61812200  0.88187900  0.23625200  1
  O  O13  1  0.36811800  0.63188100  0.73624600  1
  O  O14  1  0.11811800  0.38188300  0.23624300  1
  O  O15  1  0.86812200  0.13187700  0.73625400  1
  O  O16  1  0.50002100  0.76369700  0.00003500  1
  O  O17  1  0.24998900  0.51372500  0.49997400  1
  O  O18  1  0.00002100  0.26368200  0.00003500  1
  O  O19  1  0.74998900  0.01371200  0.49997300  1
  O  O20  1  0.73628800  0.00001100  0.99997300  1
  O  O21  1  0.48631600  0.74998000  0.50003500  1
  O  O22  1  0.23627500  0.50001000  0.99997400  1
  O  O23  1  0.98630400  0.24998000  0.50003400  1
loop_
_geom_bond_atom_site_label_1
_geom_bond_atom_site_label_2
_geom_bond_distance
_geom_bond_site_symmetry_2
Ba0 O1 2.950196 1_655
Ba0 O12 2.950294 1_555
Ba0 O3 2.950364 1_555
Ba0 O16 2.950433 1_555
Ba0 O14 2.950444 1_655
Ba0 O17 2.950601 1_655
Ba0 O11 2.950628 1_555
Ba0 O10 2.950639 1_655
Ba0 O20 2.950709 1_564
Ba0 O5 2.950900 1_655
Ba0 O23 2.951036 1_555
Ba0 O6 2.951074 1_554
Ba1 O2 2.950184 1_555
Ba1 O15 2.950282 1_555
Ba1 O0 2.950369 1_555
Ba1 O21 2.950431 1_555
Ba1 O13 2.950450 1_555
Ba1 O6 2.950587 1_555
Ba1 O20 2.950591 1_555
Ba1 O7 2.950645 1_555
Ba1 O18 2.950875 1_656
Ba1 O17 2.950898 1_555
Ba1 O11 2.950929 1_555
Ba1 O8 2.951056 1_556
Ba2 O1 2.950202 1_545
Ba2 O12 2.950276 1_545
Ba2 O3 2.950358 1_555
Ba2 O18 2.950436 1_555
Ba2 O14 2.950450 1_555
Ba2 O19 2.950602 1_555
Ba2 O9 2.950633 1_545
Ba2 O8 2.950643 1_555
Ba2 O22 2.950864 1_554
Ba2 O21 2.950876 1_545
Ba2 O4 2.950914 1_554
Ba2 O7 2.951057 1_555
Ba3 O2 2.950202 1_455
Ba3 O15 2.950294 1_465
Ba3 O0 2.950364 1_565
Ba3 O23 2.950432 1_465
Ba3 O13 2.950438 1_555
Ba3 O22 2.950592 1_555
Ba3 O4 2.950604 1_565
Ba3 O5 2.950629 1_555
Ba3 O19 2.950729 1_465
Ba3 O10 2.950904 1_556
Ba3 O16 2.951048 1_556
Ba3 O9 2.951081 1_555
Ba4 O15 2.950207 1_455
Ba4 O2 2.950301 1_455
Ba4 O13 2.950351 1_555
Ba4 O4 2.950428 1_555
Ba4 O0 2.950439 1_555
Ba4 O5 2.950591 1_555
Ba4 O23 2.950602 1_455
Ba4 O22 2.950642 1_555
Ba4 O11 2.950880 1_455
Ba4 O8 2.950887 1_556
Ba4 O18 2.950935 1_556
Ba4 O17 2.951044 1_555
Ba5 O12 2.950196 1_545
Ba5 O1 2.950294 1_645
Ba5 O14 2.950364 1_655
Ba5 O3 2.950444 1_555
Ba5 O9 2.950444 1_645
Ba5 O8 2.950598 1_555
Ba5 O18 2.950625 1_655
Ba5 O19 2.950647 1_555
Ba5 O5 2.950712 1_645
Ba5 O20 2.950890 1_554
Ba5 O6 2.951030 1_554
Ba5 O23 2.951068 1_555
Ba6 O15 2.950195 1_565
Ba6 O2 2.950277 1_555
Ba6 O13 2.950363 1_555
Ba6 O6 2.950420 1_555
Ba6 O0 2.950450 1_565
Ba6 O7 2.950592 1_565
Ba6 O21 2.950610 1_555
Ba6 O20 2.950632 1_565
Ba6 O10 2.950720 1_656
Ba6 O19 2.950907 1_565
Ba6 O9 2.951048 1_555
Ba6 O16 2.951082 1_556
Ba7 O12 2.950196 1_555
Ba7 O1 2.950282 1_555
Ba7 O14 2.950364 1_555
Ba7 O11 2.950439 1_555
Ba7 O3 2.950444 1_555
Ba7 O10 2.950605 1_555
Ba7 O16 2.950615 1_555
Ba7 O17 2.950658 1_555
Ba7 O4 2.950875 1_564
Ba7 O7 2.950881 1_555
Ba7 O21 2.950914 1_555
Ba7 O22 2.951051 1_554
Mn0 O16 2.198860 1_555
Mn0 O22 2.198933 1_554
Mn0 O6 2.199000 1_554
Mn0 O8 2.199052 1_555
Mn0 O3 2.199952 1_555
Mn0 O13 2.200010 1_554
Mn1 O9 2.198877 1_545
Mn1 O7 2.198966 1_555
Mn1 O23 2.198975 1_455
Mn1 O17 2.199031 1_555
Mn1 O14 2.199885 1_555
Mn1 O0 2.200110 1_555
Mn2 O21 2.198658 1_555
Mn2 O11 2.198693 1_555
Mn2 O19 2.198964 1_565
Mn2 O5 2.199087 1_655
Mn2 O12 2.199752 1_555
Mn2 O2 2.200102 1_555
Mn3 O18 2.198673 1_555
Mn3 O4 2.198775 1_554
Mn3 O20 2.198950 1_454
Mn3 O10 2.199002 1_545
Mn3 O1 2.199818 1_545
Mn3 O15 2.200002 1_454
O0 Te0 1.970541 1_546
O1 Te1 1.970525 1_555
O2 Te2 1.970516 1_555
O3 Te3 1.970550 1_555
O4 Te0 1.970366 1_546
O5 Te1 1.970396 1_555
O6 Te2 1.970275 1_555
O7 Te3 1.970287 1_555
O8 Te0 1.970283 1_545
O9 Te1 1.970241 1_555
O10 Te2 1.970392 1_454
O11 Te3 1.970379 1_555
O12 Te0 1.970525 1_555
O13 Te1 1.970575 1_555
O14 Te2 1.970541 1_454
O15 Te3 1.970541 1_555
O16 Te0 1.970233 1_555
O17 Te1 1.970279 1_555
O18 Te2 1.970362 1_454
O19 Te3 1.970392 1_555
O20 Te0 1.970408 1_546
O21 Te1 1.970358 1_555
O22 Te2 1.970291 1_455
O23 Te3 1.970271 1_555
