# generated using pymatgen
data_Sr(H8O5)2
_symmetry_space_group_name_H-M   'P 1'
_cell_length_a   6.28280800
_cell_length_b   6.31125480
_cell_length_c   6.72771012
_cell_angle_alpha   90.65968769
_cell_angle_beta   90.94062604
_cell_angle_gamma   90.20348256
_symmetry_Int_Tables_number   1
_chemical_formula_structural   Sr(H8O5)2
_chemical_formula_sum   'Sr1 H16 O10'
_cell_volume   266.71437218
_cell_formula_units_Z   1
loop_
 _symmetry_equiv_pos_site_id
 _symmetry_equiv_pos_as_xyz
  1  'x, y, z'
loop_
 _atom_site_type_symbol
 _atom_site_label
 _atom_site_symmetry_multiplicity
 _atom_site_fract_x
 _atom_site_fract_y
 _atom_site_fract_z
 _atom_site_occupancy
  Sr  Sr0  1  0.99202100  0.99999100  0.99066300  1
  H  H0  1  0.67097400  0.65537100  0.68378700  1
  H  H1  1  0.75359400  0.88758000  0.63552100  1
  H  H2  1  0.33095900  0.32290900  0.69216300  1
  H  H3  1  0.27555800  0.07314500  0.68768200  1
  H  H4  1  0.07568200  0.71985400  0.68794700  1
  H  H5  1  0.32735500  0.67011900  0.69099200  1
  H  H6  1  0.67463400  0.32886800  0.68884600  1
  H  H7  1  0.92672400  0.28334700  0.68415800  1
  H  H8  1  0.26711500  0.07570700  0.31025200  1
  H  H9  1  0.32678500  0.32567300  0.30431200  1
  H  H10  1  0.66556300  0.68032700  0.30674300  1
  H  H11  1  0.71920100  0.93347400  0.30031000  1
  H  H12  1  0.67276300  0.33105900  0.30681400  1
  H  H13  1  0.92213700  0.26388300  0.31307100  1
  H  H14  1  0.32390700  0.67232700  0.30327400  1
  H  H15  1  0.07670800  0.73667200  0.31516000  1
  O  O0  1  0.49692700  0.49766500  0.60823000  1
  O  O1  1  0.49920700  0.50088200  0.38546200  1
  O  O2  1  0.78415200  0.76821500  0.72254500  1
  O  O3  1  0.22972000  0.21087700  0.74235600  1
  O  O4  1  0.21491300  0.77390900  0.73717200  1
  O  O5  1  0.79164100  0.22978500  0.73524700  1
  O  O6  1  0.21869700  0.21374600  0.25968800  1
  O  O7  1  0.76948900  0.79178000  0.25885100  1
  O  O8  1  0.78082100  0.22274100  0.25882500  1
  O  O9  1  0.21275500  0.77831900  0.25686600  1
loop_
_geom_bond_atom_site_label_1
_geom_bond_atom_site_label_2
_geom_bond_distance
_geom_bond_site_symmetry_2
H0 O2 1.032894 1_555
H0 O0 1.551510 1_555
H1 O2 0.977065 1_555
H2 O3 1.013855 1_555
H2 O0 1.627309 1_555
H3 O3 0.985773 1_555
H4 O4 0.988452 1_555
H5 O4 1.015131 1_555
H5 O0 1.625870 1_555
H6 O5 1.014468 1_555
H6 O0 1.636308 1_555
H7 O5 0.981284 1_555
H8 O6 0.986184 1_555
H9 O6 1.017506 1_555
H9 O1 1.628660 1_555
H10 O7 1.016761 1_555
H10 O1 1.636786 1_555
H11 O7 0.988177 1_555
H12 O8 1.018775 1_555
H12 O1 1.622318 1_555
H13 O8 0.987143 1_555
H14 O9 1.016672 1_555
H14 O1 1.640674 1_555
H15 O9 0.982492 1_555
O0 O1 1.499393 1_555
O2 Sr0 2.635812 1_555
O3 Sr0 2.628959 1_445
O4 Sr0 2.634773 1_455
O5 Sr0 2.576896 1_545
O6 Sr0 2.639985 1_444
O7 Sr0 2.657326 1_554
O8 Sr0 2.650544 1_544
O9 Sr0 2.660444 1_454
