# generated using pymatgen
data_CoAs
_symmetry_space_group_name_H-M   'P 1'
_cell_length_a   3.53475996
_cell_length_b   4.97744133
_cell_length_c   6.10679364
_cell_angle_alpha   90.00000000
_cell_angle_beta   90.00000000
_cell_angle_gamma   90.00000000
_symmetry_Int_Tables_number   1
_chemical_formula_structural   CoAs
_chemical_formula_sum   'Co4 As4'
_cell_volume   107.44329564
_cell_formula_units_Z   4
loop_
 _symmetry_equiv_pos_site_id
 _symmetry_equiv_pos_as_xyz
  1  'x, y, z'
loop_
 _atom_site_type_symbol
 _atom_site_label
 _atom_site_symmetry_multiplicity
 _atom_site_fract_x
 _atom_site_fract_y
 _atom_site_fract_z
 _atom_site_occupancy
  Co  Co0  1  0.25000000  0.50000000  0.25000000  1
  Co  Co1  1  0.25000000  -0.00000000  0.25000000  1
  Co  Co2  1  0.75000000  0.00000000  0.75000000  1
  Co  Co3  1  0.75000000  0.50000000  0.75000000  1
  As  As0  1  0.75000000  0.75000000  0.41616595  1
  As  As1  1  0.25000000  0.75000000  0.91616595  1
  As  As2  1  0.25000000  0.25000000  0.58383405  1
  As  As3  1  0.75000000  0.25000000  0.08383405  1
loop_
_geom_bond_atom_site_label_1
_geom_bond_atom_site_label_2
_geom_bond_distance
_geom_bond_site_symmetry_2
As0 Co0 2.387837 1_555
As0 Co1 2.387837 1_665
As0 Co0 2.387837 1_655
As0 Co1 2.387837 1_565
As0 Co2 2.388420 1_565
As0 Co3 2.388420 1_555
As1 Co2 2.387837 1_465
As1 Co2 2.387837 1_565
As1 Co3 2.387837 1_555
As1 Co3 2.387837 1_455
As1 Co1 2.388420 1_566
As1 Co0 2.388420 1_556
As2 Co2 2.387837 1_555
As2 Co3 2.387837 1_555
As2 Co2 2.387837 1_455
As2 Co3 2.387837 1_455
As2 Co0 2.388420 1_555
As2 Co1 2.388420 1_555
As3 Co1 2.387837 1_655
As3 Co0 2.387837 1_555
As3 Co0 2.387837 1_655
As3 Co1 2.387837 1_555
As3 Co3 2.388420 1_554
As3 Co2 2.388420 1_554
