# generated using pymatgen
data_NiH16C4(N5O)2
_symmetry_space_group_name_H-M   'P 1'
_cell_length_a   6.78821600
_cell_length_b   7.12566548
_cell_length_c   21.84666416
_cell_angle_alpha   90.00000000
_cell_angle_beta   90.00000000
_cell_angle_gamma   90.00000000
_symmetry_Int_Tables_number   1
_chemical_formula_structural   NiH16C4(N5O)2
_chemical_formula_sum   'Ni4 H64 C16 N40 O8'
_cell_volume   1056.73530138
_cell_formula_units_Z   4
loop_
 _symmetry_equiv_pos_site_id
 _symmetry_equiv_pos_as_xyz
  1  'x, y, z'
loop_
 _atom_site_type_symbol
 _atom_site_label
 _atom_site_symmetry_multiplicity
 _atom_site_fract_x
 _atom_site_fract_y
 _atom_site_fract_z
 _atom_site_occupancy
  Ni  Ni0  1  0.00000000  0.50000000  0.50000000  1
  Ni  Ni1  1  0.50000000  0.00000000  0.50000000  1
  Ni  Ni2  1  0.00000000  0.00000000  -0.00000000  1
  Ni  Ni3  1  0.50000000  0.50000000  -0.00000000  1
  H  H0  1  0.12568037  0.17020609  0.50088066  1
  H  H1  1  0.62568037  0.32979391  0.49911934  1
  H  H2  1  0.87431963  0.67020609  0.99911934  1
  H  H3  1  0.37431963  0.82979391  0.00088066  1
  H  H4  1  0.87431963  0.82979391  0.49911934  1
  H  H5  1  0.37431963  0.67020609  0.50088066  1
  H  H6  1  0.12568037  0.32979391  0.00088066  1
  H  H7  1  0.62568037  0.17020609  0.99911934  1
  H  H8  1  0.17301639  0.94162800  0.43516120  1
  H  H9  1  0.67301639  0.55837200  0.56483880  1
  H  H10  1  0.82698361  0.44162800  0.06483880  1
  H  H11  1  0.32698361  0.05837200  0.93516120  1
  H  H12  1  0.82698361  0.05837200  0.56483880  1
  H  H13  1  0.32698361  0.44162800  0.43516120  1
  H  H14  1  0.17301639  0.55837200  0.93516120  1
  H  H15  1  0.67301639  0.94162800  0.06483880  1
  H  H16  1  0.10076714  0.96753320  0.36041629  1
  H  H17  1  0.60076714  0.53246680  0.63958371  1
  H  H18  1  0.89923286  0.46753320  0.13958371  1
  H  H19  1  0.39923286  0.03246680  0.86041629  1
  H  H20  1  0.89923286  0.03246680  0.63958371  1
  H  H21  1  0.39923286  0.46753320  0.36041629  1
  H  H22  1  0.10076714  0.53246680  0.86041629  1
  H  H23  1  0.60076714  0.96753320  0.13958371  1
  H  H24  1  0.87086722  0.70076185  0.41571642  1
  H  H25  1  0.37086722  0.79923815  0.58428358  1
  H  H26  1  0.12913278  0.20076185  0.08428358  1
  H  H27  1  0.62913278  0.29923815  0.91571642  1
  H  H28  1  0.12913278  0.29923815  0.58428358  1
  H  H29  1  0.62913278  0.20076185  0.41571642  1
  H  H30  1  0.87086722  0.79923815  0.91571642  1
  H  H31  1  0.37086722  0.70076185  0.08428358  1
  H  H32  1  0.75870335  0.65106598  0.32128312  1
  H  H33  1  0.25870335  0.84893402  0.67871688  1
  H  H34  1  0.24129665  0.15106598  0.17871688  1
  H  H35  1  0.74129665  0.34893402  0.82128312  1
  H  H36  1  0.24129665  0.34893402  0.67871688  1
  H  H37  1  0.74129665  0.15106598  0.32128312  1
  H  H38  1  0.75870335  0.84893402  0.82128312  1
  H  H39  1  0.25870335  0.65106598  0.17871688  1
  H  H40  1  0.84791426  0.46372428  0.28138839  1
  H  H41  1  0.34791426  0.03627572  0.71861161  1
  H  H42  1  0.15208574  0.96372428  0.21861161  1
  H  H43  1  0.65208574  0.53627572  0.78138839  1
  H  H44  1  0.15208574  0.53627572  0.71861161  1
  H  H45  1  0.65208574  0.96372428  0.28138839  1
  H  H46  1  0.84791426  0.03627572  0.78138839  1
  H  H47  1  0.34791426  0.46372428  0.21861161  1
  H  H48  1  0.30503903  0.78071709  0.30826210  1
  H  H49  1  0.80503903  0.71928291  0.69173790  1
  H  H50  1  0.69496097  0.28071709  0.19173790  1
  H  H51  1  0.19496097  0.21928291  0.80826210  1
  H  H52  1  0.69496097  0.21928291  0.69173790  1
  H  H53  1  0.19496097  0.28071709  0.30826210  1
  H  H54  1  0.30503903  0.71928291  0.80826210  1
  H  H55  1  0.80503903  0.78071709  0.19173790  1
  H  H56  1  0.08539686  0.71248549  0.29572976  1
  H  H57  1  0.58539686  0.78751451  0.70427024  1
  H  H58  1  0.91460314  0.21248549  0.20427024  1
  H  H59  1  0.41460314  0.28751451  0.79572976  1
  H  H60  1  0.91460314  0.28751451  0.70427024  1
  H  H61  1  0.41460314  0.21248549  0.29572976  1
  H  H62  1  0.08539686  0.78751451  0.79572976  1
  H  H63  1  0.58539686  0.71248549  0.20427024  1
  C  C0  1  0.04488252  0.19334210  0.41534112  1
  C  C1  1  0.54488252  0.30665790  0.58465888  1
  C  C2  1  0.95511748  0.69334210  0.08465888  1
  C  C3  1  0.45511748  0.80665790  0.91534112  1
  C  C4  1  0.95511748  0.80665790  0.58465888  1
  C  C5  1  0.45511748  0.69334210  0.41534112  1
  C  C6  1  0.04488252  0.30665790  0.91534112  1
  C  C7  1  0.54488252  0.19334210  0.08465888  1
  C  C8  1  0.92120998  0.46884466  0.37148341  1
  C  C9  1  0.42120998  0.03115534  0.62851659  1
  C  C10  1  0.07879002  0.96884466  0.12851659  1
  C  C11  1  0.57879002  0.53115534  0.87148341  1
  C  C12  1  0.07879002  0.53115534  0.62851659  1
  C  C13  1  0.57879002  0.96884466  0.37148341  1
  C  C14  1  0.92120998  0.03115534  0.87148341  1
  C  C15  1  0.42120998  0.46884466  0.12851659  1
  N  N0  1  0.06856831  0.26493850  0.47083418  1
  N  N1  1  0.56856831  0.23506150  0.52916582  1
  N  N2  1  0.93143169  0.76493850  0.02916582  1
  N  N3  1  0.43143169  0.73506150  0.97083418  1
  N  N4  1  0.93143169  0.73506150  0.52916582  1
  N  N5  1  0.43143169  0.76493850  0.47083418  1
  N  N6  1  0.06856831  0.23506150  0.97083418  1
  N  N7  1  0.56856831  0.26493850  0.02916582  1
  N  N8  1  0.08424710  0.00861500  0.40482759  1
  N  N9  1  0.58424710  0.49138500  0.59517241  1
  N  N10  1  0.91575290  0.50861500  0.09517241  1
  N  N11  1  0.41575290  0.99138500  0.90482759  1
  N  N12  1  0.91575290  0.99138500  0.59517241  1
  N  N13  1  0.41575290  0.50861500  0.40482759  1
  N  N14  1  0.08424710  0.49138500  0.90482759  1
  N  N15  1  0.58424710  0.00861500  0.09517241  1
  N  N16  1  0.97964656  0.28878366  0.36579677  1
  N  N17  1  0.47964656  0.21121634  0.63420323  1
  N  N18  1  0.02035344  0.78878366  0.13420323  1
  N  N19  1  0.52035344  0.71121634  0.86579677  1
  N  N20  1  0.02035344  0.71121634  0.63420323  1
  N  N21  1  0.52035344  0.78878366  0.36579677  1
  N  N22  1  0.97964656  0.21121634  0.86579677  1
  N  N23  1  0.47964656  0.28878366  0.13420323  1
  N  N24  1  0.91609274  0.56650017  0.42269700  1
  N  N25  1  0.41609274  0.93349983  0.57730300  1
  N  N26  1  0.08390726  0.06650017  0.07730300  1
  N  N27  1  0.58390726  0.43349983  0.92269700  1
  N  N28  1  0.08390726  0.43349983  0.57730300  1
  N  N29  1  0.58390726  0.06650017  0.42269700  1
  N  N30  1  0.91609274  0.93349983  0.92269700  1
  N  N31  1  0.41609274  0.56650017  0.07730300  1
  N  N32  1  0.86895972  0.55440265  0.31711062  1
  N  N33  1  0.36895972  0.94559735  0.68288938  1
  N  N34  1  0.13104028  0.05440265  0.18288938  1
  N  N35  1  0.63104028  0.44559735  0.81711062  1
  N  N36  1  0.13104028  0.44559735  0.68288938  1
  N  N37  1  0.63104028  0.05440265  0.31711062  1
  N  N38  1  0.86895972  0.94559735  0.81711062  1
  N  N39  1  0.36895972  0.55440265  0.18288938  1
  O  O0  1  0.17958335  0.81527695  0.28891034  1
  O  O1  1  0.67958335  0.68472305  0.71108966  1
  O  O2  1  0.82041665  0.31527695  0.21108966  1
  O  O3  1  0.32041665  0.18472305  0.78891034  1
  O  O4  1  0.82041665  0.18472305  0.71108966  1
  O  O5  1  0.32041665  0.31527695  0.28891034  1
  O  O6  1  0.17958335  0.68472305  0.78891034  1
  O  O7  1  0.67958335  0.81527695  0.21108966  1
loop_
_geom_bond_atom_site_label_1
_geom_bond_atom_site_label_2
_geom_bond_distance
_geom_bond_site_symmetry_2
H0 N0 1.018259 1_555
H1 N1 1.018259 1_555
H2 N2 1.018259 1_556
H3 N3 1.018259 1_554
H4 N4 1.018259 1_555
H5 N5 1.018259 1_555
H6 N6 1.018259 1_554
H7 N7 1.018259 1_556
H8 N8 1.014941 1_565
H9 N9 1.014941 1_555
H10 N10 1.014941 1_555
H11 N11 1.014941 1_545
H12 N12 1.014941 1_545
H13 N13 1.014941 1_555
H14 N14 1.014941 1_555
H15 N15 1.014941 1_565
H16 N8 1.019624 1_565
H17 N9 1.019624 1_555
H18 N10 1.019624 1_555
H19 N11 1.019624 1_545
H20 N12 1.019624 1_545
H21 N13 1.019624 1_555
H22 N14 1.019624 1_555
H23 N15 1.019624 1_565
H24 N24 1.016262 1_555
H25 N25 1.016262 1_555
H26 N26 1.016262 1_555
H27 N27 1.016262 1_555
H28 N28 1.016262 1_555
H29 N29 1.016262 1_555
H30 N30 1.016262 1_555
H31 N31 1.016262 1_555
H32 N32 1.021230 1_555
H33 N33 1.021230 1_555
H34 N34 1.021230 1_555
H35 N35 1.021230 1_555
H36 N36 1.021230 1_555
H37 N37 1.021230 1_555
H38 N38 1.021230 1_555
H39 N39 1.021230 1_555
H40 N32 1.023207 1_555
H41 N33 1.023207 1_545
H42 N34 1.023207 1_565
H43 N35 1.023207 1_555
H44 N36 1.023207 1_555
H45 N37 1.023207 1_565
H46 N38 1.023207 1_545
H47 N39 1.023207 1_555
H48 O0 0.982160 1_555
H49 O1 0.982160 1_555
H50 O2 0.982160 1_555
H51 O3 0.982160 1_555
H52 O4 0.982160 1_555
H53 O5 0.982160 1_555
H54 O6 0.982160 1_555
H55 O7 0.982160 1_555
H56 O0 0.983600 1_555
H57 O1 0.983600 1_555
H58 O2 0.983600 1_555
H59 O3 0.983600 1_555
H60 O4 0.983600 1_555
H61 O5 0.983600 1_555
H62 O6 0.983600 1_555
H63 O7 0.983600 1_555
C0 N0 1.325100 1_555
C0 N16 1.352835 1_455
C0 N8 1.362650 1_555
C1 N1 1.325100 1_555
C1 N17 1.352835 1_555
C1 N9 1.362650 1_555
C2 N2 1.325100 1_555
C2 N18 1.352835 1_655
C2 N10 1.362650 1_555
C3 N3 1.325100 1_555
C3 N19 1.352835 1_555
C3 N11 1.362650 1_555
C4 N4 1.325100 1_555
C4 N20 1.352835 1_655
C4 N12 1.362650 1_555
C5 N5 1.325100 1_555
C5 N21 1.352835 1_555
C5 N13 1.362650 1_555
C6 N6 1.325100 1_555
C6 N22 1.352835 1_455
C6 N14 1.362650 1_555
C7 N7 1.325100 1_555
C7 N23 1.352835 1_555
C7 N15 1.362650 1_555
C8 N24 1.318046 1_555
C8 N16 1.348710 1_555
C8 N32 1.381487 1_555
C9 N25 1.318046 1_545
C9 N17 1.348710 1_555
C9 N33 1.381487 1_545
C10 N26 1.318046 1_565
C10 N18 1.348710 1_555
C10 N34 1.381487 1_565
C11 N27 1.318046 1_555
C11 N19 1.348710 1_555
C11 N35 1.381487 1_555
C12 N28 1.318046 1_555
C12 N20 1.348710 1_555
C12 N36 1.381487 1_555
C13 N29 1.318046 1_565
C13 N21 1.348710 1_555
C13 N37 1.381487 1_565
C14 N30 1.318046 1_545
C14 N22 1.348710 1_555
C14 N38 1.381487 1_545
C15 N31 1.318046 1_555
C15 N23 1.348710 1_555
C15 N39 1.381487 1_555
N0 Ni0 1.851531 1_555
N1 Ni1 1.851531 1_555
N2 Ni2 1.851531 1_665
N3 Ni3 1.851531 1_556
N4 Ni0 1.851531 1_655
N5 Ni1 1.851531 1_565
N6 Ni2 1.851531 1_556
N7 Ni3 1.851531 1_555
N24 Ni0 1.844194 1_655
N25 Ni1 1.844194 1_565
N26 Ni2 1.844194 1_555
N27 Ni3 1.844194 1_556
N28 Ni0 1.844194 1_555
N29 Ni1 1.844194 1_555
N30 Ni2 1.844194 1_666
N31 Ni3 1.844194 1_555
