# generated using pymatgen
data_NpB4
_symmetry_space_group_name_H-M   'P 1'
_cell_length_a   4.02421787
_cell_length_b   7.10933145
_cell_length_c   7.10933145
_cell_angle_alpha   89.90556009
_cell_angle_beta   90.00000000
_cell_angle_gamma   90.00000000
_symmetry_Int_Tables_number   1
_chemical_formula_structural   NpB4
_chemical_formula_sum   'Np4 B16'
_cell_volume   203.39413258
_cell_formula_units_Z   4
loop_
 _symmetry_equiv_pos_site_id
 _symmetry_equiv_pos_as_xyz
  1  'x, y, z'
loop_
 _atom_site_type_symbol
 _atom_site_label
 _atom_site_symmetry_multiplicity
 _atom_site_fract_x
 _atom_site_fract_y
 _atom_site_fract_z
 _atom_site_occupancy
  Np  Np0  1  0.00000000  0.31393234  0.81393234  1
  Np  Np1  1  0.00000000  0.68606766  0.18606766  1
  Np  Np2  1  0.00000000  0.18701048  0.31298952  1
  Np  Np3  1  0.00000000  0.81298952  0.68701048  1
  B  B0  1  0.79862113  0.50000000  0.50000000  1
  B  B1  1  0.79862113  0.00000000  -0.00000000  1
  B  B2  1  0.20137887  0.50000000  0.50000000  1
  B  B3  1  0.20137887  0.00000000  -0.00000000  1
  B  B4  1  0.50000000  0.08732738  0.58732738  1
  B  B5  1  0.50000000  0.91267262  0.41267262  1
  B  B6  1  0.50000000  0.41220568  0.08779432  1
  B  B7  1  0.50000000  0.58779432  0.91220568  1
  B  B8  1  0.50000000  0.53821267  0.67726222  1
  B  B9  1  0.50000000  0.46178733  0.32273778  1
  B  B10  1  0.50000000  0.96160516  0.17721947  1
  B  B11  1  0.50000000  0.03839484  0.82278053  1
  B  B12  1  0.50000000  0.67721947  0.46160516  1
  B  B13  1  0.50000000  0.32278053  0.53839484  1
  B  B14  1  0.50000000  0.17726222  0.03821267  1
  B  B15  1  0.50000000  0.82273778  0.96178733  1
loop_
_geom_bond_atom_site_label_1
_geom_bond_atom_site_label_2
_geom_bond_distance
_geom_bond_site_symmetry_2
B0 B2 1.620785 1_655
B0 B13 1.762066 1_555
B0 B12 1.762066 1_555
B0 B9 1.762725 1_555
B0 B8 1.762725 1_555
B0 Np0 2.716247 1_655
B0 Np1 2.716247 1_655
B0 Np2 2.717607 1_655
B0 Np3 2.717607 1_655
B1 B3 1.620785 1_655
B1 B11 1.762066 1_554
B1 B10 1.762066 1_545
B1 B15 1.762725 1_544
B1 B14 1.762725 1_555
B1 Np0 2.716247 1_654
B1 Np1 2.716247 1_645
B1 Np2 2.717607 1_655
B1 Np3 2.717607 1_644
B2 B9 1.762725 1_555
B2 B8 1.762725 1_555
B2 Np0 2.716247 1_555
B2 Np1 2.716247 1_555
B2 Np2 2.717607 1_555
B2 Np3 2.717607 1_555
B3 Np0 2.716247 1_554
B3 Np1 2.716247 1_545
B3 Np2 2.717607 1_555
B3 Np3 2.717607 1_544
B4 B5 1.757445 1_545
B4 Np3 2.889663 1_645
B4 Np3 2.889663 1_545
B4 Np2 2.889663 1_655
B4 Np2 2.889663 1_555
B4 Np0 3.041027 1_555
B4 Np0 3.041027 1_655
B5 Np3 2.889663 1_555
B5 Np3 2.889663 1_655
B5 Np2 2.889663 1_565
B5 Np2 2.889663 1_665
B5 Np1 3.041027 1_655
B5 Np1 3.041027 1_555
B6 B9 1.707649 1_555
B6 B7 1.763932 1_554
B6 Np1 2.886504 1_555
B6 Np0 2.886504 1_654
B6 Np1 2.886504 1_655
B6 Np0 2.886504 1_554
B6 Np2 3.027615 1_655
B6 Np2 3.027615 1_555
B7 B8 1.707649 1_555
B7 Np0 2.886504 1_655
B7 Np0 2.886504 1_555
B7 Np1 2.886504 1_556
B7 Np1 2.886504 1_656
B7 Np3 3.027615 1_655
B7 Np3 3.027615 1_555
B8 Np0 2.744070 1_655
B8 Np0 2.744070 1_555
B8 Np3 2.805337 1_655
B8 Np3 2.805337 1_555
B9 Np1 2.744070 1_655
B9 Np1 2.744070 1_555
B9 Np2 2.805337 1_555
B9 Np2 2.805337 1_655
B10 B5 1.709119 1_555
B10 B3 1.762066 1_565
B10 B14 1.822709 1_565
B10 B15 1.823565 1_554
B10 Np2 2.748328 1_565
B10 Np2 2.748328 1_665
B10 Np1 2.808803 1_655
B10 Np1 2.808803 1_555
B11 B4 1.709119 1_555
B11 B3 1.762066 1_556
B11 B15 1.822709 1_545
B11 B14 1.823565 1_556
B11 Np3 2.748328 1_545
B11 Np3 2.748328 1_645
B11 Np0 2.808803 1_655
B11 Np0 2.808803 1_555
B12 B5 1.709119 1_555
B12 B2 1.762066 1_555
B12 B8 1.822709 1_555
B12 B9 1.823565 1_555
B12 Np3 2.748328 1_655
B12 Np3 2.748328 1_555
B12 Np1 2.808803 1_655
B12 Np1 2.808803 1_555
B13 B4 1.709119 1_555
B13 B2 1.762066 1_555
B13 B9 1.822709 1_555
B13 B8 1.823565 1_555
B13 Np2 2.748328 1_655
B13 Np2 2.748328 1_555
B13 Np0 2.808803 1_655
B13 Np0 2.808803 1_555
B14 B6 1.707649 1_555
B14 B3 1.762725 1_555
B14 Np0 2.744070 1_654
B14 Np0 2.744070 1_554
B14 Np2 2.805337 1_655
B14 Np2 2.805337 1_555
B15 B7 1.707649 1_555
B15 B3 1.762725 1_566
B15 Np1 2.744070 1_556
B15 Np1 2.744070 1_656
B15 Np3 2.805337 1_555
B15 Np3 2.805337 1_655
