# generated using pymatgen
data_Dy12Co5Bi
_symmetry_space_group_name_H-M   'P 1'
_cell_length_a   8.30576987
_cell_length_b   8.30576263
_cell_length_c   8.30576357
_cell_angle_alpha   111.03472639
_cell_angle_beta   110.30930782
_cell_angle_gamma   107.09638289
_symmetry_Int_Tables_number   1
_chemical_formula_structural   Dy12Co5Bi
_chemical_formula_sum   'Dy12 Co5 Bi1'
_cell_volume   440.49528882
_cell_formula_units_Z   1
loop_
 _symmetry_equiv_pos_site_id
 _symmetry_equiv_pos_as_xyz
  1  'x, y, z'
loop_
 _atom_site_type_symbol
 _atom_site_label
 _atom_site_symmetry_multiplicity
 _atom_site_fract_x
 _atom_site_fract_y
 _atom_site_fract_z
 _atom_site_occupancy
  Dy  Dy0  1  0.81814381  0.71189958  0.53004535  1
  Dy  Dy1  1  0.18185596  0.28810169  0.46995861  1
  Dy  Dy2  1  0.18185449  0.71190029  0.89375669  1
  Dy  Dy3  1  0.81814291  0.28810251  0.10624641  1
  Dy  Dy4  1  0.68964099  0.38117954  0.69153883  1
  Dy  Dy5  1  0.31036368  0.61881409  0.30844952  1
  Dy  Dy6  1  0.68964092  0.99810465  0.30846327  1
  Dy  Dy7  1  0.31036397  0.00191419  0.69155019  1
  Dy  Dy8  1  0.59470784  0.79194521  0.80276270  1
  Dy  Dy9  1  0.40529267  0.20804630  0.19724674  1
  Dy  Dy10  1  0.98918454  0.79194807  0.19723736  1
  Dy  Dy11  1  0.01080229  0.20804851  0.80275360  1
  Co  Co0  1  0.61863156  -0.00000611  0.61863913  1
  Co  Co1  1  0.38135484  -0.00000681  0.38136358  1
  Co  Co2  1  0.10969712  0.60969530  0.49999948  1
  Co  Co3  1  0.89032084  0.39032001  0.50000291  1
  Co  Co4  1  -0.00000036  -0.00001108  0.99998681  1
  Bi  Bi0  1  0.50000192  0.50000204  0.00000081  1
loop_
_geom_bond_atom_site_label_1
_geom_bond_atom_site_label_2
_geom_bond_distance
_geom_bond_site_symmetry_2
Co0 Co1 2.252037 1_555
Co0 Dy11 2.696349 1_655
Co0 Dy8 2.696350 1_545
Co0 Dy7 2.831263 1_555
Co0 Dy5 2.831265 1_545
Co0 Dy4 2.831311 1_555
Co0 Dy6 2.831311 1_545
Co0 Dy0 3.305599 1_545
Co0 Dy3 3.305603 1_556
Co1 Dy10 2.696332 1_445
Co1 Dy9 2.696344 1_555
Co1 Dy7 2.831250 1_555
Co1 Dy5 2.831256 1_545
Co1 Dy4 2.831310 1_555
Co1 Dy6 2.831315 1_545
Co1 Dy2 3.305595 1_544
Co1 Dy1 3.305606 1_555
Co2 Co3 2.165186 1_455
Co2 Dy5 2.677269 1_555
Co2 Dy7 2.677279 1_565
Co2 Dy3 2.850042 1_455
Co2 Dy1 2.850044 1_555
Co2 Dy2 2.850076 1_555
Co2 Dy0 2.850081 1_455
Co2 Dy8 3.390121 1_555
Co2 Dy10 3.390149 1_455
Co3 Dy6 2.677267 1_545
Co3 Dy4 2.677274 1_555
Co3 Dy2 2.849986 1_655
Co3 Dy1 2.849992 1_655
Co3 Dy3 2.850005 1_555
Co3 Dy0 2.850007 1_555
Co3 Dy11 3.390153 1_655
Co3 Dy9 3.390193 1_555
Co4 Dy10 2.778675 1_446
Co4 Dy9 2.778677 1_556
Co4 Dy8 2.778679 1_445
Co4 Dy11 2.778679 1_555
Co4 Dy0 3.212456 1_445
Co4 Dy2 3.212469 1_545
Co4 Dy3 3.212686 1_456
Co4 Dy1 3.212686 1_556
Bi0 Dy8 3.436117 1_554
Bi0 Dy10 3.436130 1_555
Bi0 Dy11 3.436240 1_554
Bi0 Dy9 3.436259 1_555
Bi0 Dy5 3.452282 1_555
Bi0 Dy7 3.452284 1_554
Bi0 Dy4 3.452389 1_554
Bi0 Dy6 3.452395 1_555
Bi0 Dy3 3.617899 1_555
Bi0 Dy1 3.617905 1_554
Bi0 Dy0 3.617919 1_555
Bi0 Dy2 3.617931 1_554
