# generated using pymatgen
data_Li7Mn2(CoO4)3
_symmetry_space_group_name_H-M   'P 1'
_cell_length_a   5.06506000
_cell_length_b   5.90969346
_cell_length_c   7.73512819
_cell_angle_alpha   78.62021532
_cell_angle_beta   76.81574286
_cell_angle_gamma   74.23648958
_symmetry_Int_Tables_number   1
_chemical_formula_structural   Li7Mn2(CoO4)3
_chemical_formula_sum   'Li7 Mn2 Co3 O12'
_cell_volume   214.67884500
_cell_formula_units_Z   1
loop_
 _symmetry_equiv_pos_site_id
 _symmetry_equiv_pos_as_xyz
  1  'x, y, z'
loop_
 _atom_site_type_symbol
 _atom_site_label
 _atom_site_symmetry_multiplicity
 _atom_site_fract_x
 _atom_site_fract_y
 _atom_site_fract_z
 _atom_site_occupancy
  Li  Li0  1  0.50000000  0.50000000  0.50000000  1
  Li  Li1  1  0.99239900  0.66966100  0.33476800  1
  Li  Li2  1  0.00760100  0.33033900  0.66523200  1
  Li  Li3  1  0.50384900  0.83762500  0.16969600  1
  Li  Li4  1  0.00000000  0.00000000  0.00000000  1
  Li  Li5  1  0.49615100  0.16237500  0.83030400  1
  Li  Li6  1  0.50000000  0.00000000  0.50000000  1
  Mn  Mn0  1  0.00043300  0.83890600  0.66461000  1
  Mn  Mn1  1  0.99956700  0.16109400  0.33539000  1
  Co  Co0  1  0.50223200  0.32413200  0.17427900  1
  Co  Co1  1  0.00000000  0.50000000  0.00000000  1
  Co  Co2  1  0.49776800  0.67586800  0.82572100  1
  O  O0  1  0.21801100  0.85256100  0.42393500  1
  O  O1  1  0.76360500  0.01585400  0.25319500  1
  O  O2  1  0.75242300  0.67414000  0.60335300  1
  O  O3  1  0.23920000  0.17119100  0.09612300  1
  O  O4  1  0.74522100  0.34991700  0.93234600  1
  O  O5  1  0.23396600  0.52586200  0.74424300  1
  O  O6  1  0.78198900  0.14743900  0.57606500  1
  O  O7  1  0.24757700  0.32586000  0.39664700  1
  O  O8  1  0.23639500  0.98414600  0.74680500  1
  O  O9  1  0.76603400  0.47413800  0.25575700  1
  O  O10  1  0.25477900  0.65008300  0.06765400  1
  O  O11  1  0.76080000  0.82880900  0.90387700  1
loop_
_geom_bond_atom_site_label_1
_geom_bond_atom_site_label_2
_geom_bond_distance
_geom_bond_site_symmetry_2
Li0 O5 2.061335 1_555
Li0 O9 2.061335 1_555
Li0 O2 2.199699 1_555
Li0 O7 2.199699 1_555
Li0 O0 2.238295 1_555
Li0 O6 2.238295 1_555
Li1 O0 2.067537 1_655
Li1 O9 2.083598 1_555
Li1 O1 2.112511 1_565
Li1 O7 2.121155 1_655
Li1 O2 2.155594 1_555
Li1 O10 2.192439 1_655
Li2 O6 2.067537 1_455
Li2 O5 2.083598 1_555
Li2 O8 2.112511 1_545
Li2 O2 2.121155 1_455
Li2 O7 2.155594 1_555
Li2 O4 2.192439 1_455
Li3 O3 2.115702 1_565
Li3 O1 2.160231 1_565
Li3 O0 2.161379 1_555
Li3 O11 2.170022 1_554
Li3 O10 2.236522 1_555
Li3 O9 2.260538 1_555
Li4 O8 2.054236 1_544
Li4 O1 2.054236 1_455
Li4 O11 2.101895 1_444
Li4 O3 2.101895 1_555
Li4 O4 2.155569 1_454
Li4 O10 2.155569 1_545
Li5 O11 2.115702 1_545
Li5 O8 2.160231 1_545
Li5 O6 2.161379 1_555
Li5 O3 2.170022 1_556
Li5 O4 2.236522 1_555
Li5 O5 2.260538 1_555
Li6 O1 2.066556 1_555
Li6 O8 2.066556 1_545
Li6 O6 2.099340 1_555
Li6 O0 2.099340 1_545
Li6 O7 2.122073 1_555
Li6 O2 2.122073 1_545
Mn0 O8 1.920601 1_555
Mn0 O0 1.933887 1_555
Mn0 O6 1.942831 1_465
Mn0 O2 1.966932 1_455
Mn0 O11 1.968027 1_455
Mn0 O5 1.973515 1_555
Mn1 O1 1.920601 1_555
Mn1 O6 1.933887 1_555
Mn1 O0 1.942831 1_645
Mn1 O7 1.966932 1_655
Mn1 O3 1.968027 1_655
Mn1 O9 1.973515 1_555
Co0 O7 1.900022 1_555
Co0 O4 1.994685 1_554
Co0 O1 2.015848 1_555
Co0 O3 2.048081 1_555
Co0 O9 2.053444 1_555
Co0 O10 2.120022 1_555
Co1 O4 1.959324 1_454
Co1 O10 1.959324 1_555
Co1 O9 2.061815 1_455
Co1 O5 2.061815 1_554
Co1 O11 2.087633 1_454
Co1 O3 2.087633 1_555
Co2 O2 1.900022 1_555
Co2 O10 1.994685 1_556
Co2 O8 2.015848 1_555
Co2 O11 2.048081 1_555
Co2 O5 2.053444 1_555
Co2 O4 2.120022 1_555
