# generated using pymatgen
data_YbMgCu4
_symmetry_space_group_name_H-M   'P 1'
_cell_length_a   5.06550085
_cell_length_b   5.06550085
_cell_length_c   5.06550085
_cell_angle_alpha   60.00000000
_cell_angle_beta   60.00000000
_cell_angle_gamma   60.00000000
_symmetry_Int_Tables_number   1
_chemical_formula_structural   YbMgCu4
_chemical_formula_sum   'Yb1 Mg1 Cu4'
_cell_volume   91.90775957
_cell_formula_units_Z   1
loop_
 _symmetry_equiv_pos_site_id
 _symmetry_equiv_pos_as_xyz
  1  'x, y, z'
loop_
 _atom_site_type_symbol
 _atom_site_label
 _atom_site_symmetry_multiplicity
 _atom_site_fract_x
 _atom_site_fract_y
 _atom_site_fract_z
 _atom_site_occupancy
  Yb  Yb0  1  0.25000000  0.25000000  0.25000000  1
  Mg  Mg0  1  0.00000000  0.00000000  0.00000000  1
  Cu  Cu0  1  0.62530500  0.62530500  0.62530500  1
  Cu  Cu1  1  0.62530500  0.62530500  0.12408400  1
  Cu  Cu2  1  0.62530500  0.12408400  0.62530500  1
  Cu  Cu3  1  0.12408400  0.62530500  0.62530500  1
loop_
_geom_bond_atom_site_label_1
_geom_bond_atom_site_label_2
_geom_bond_distance
_geom_bond_site_symmetry_2
Mg0 Yb0 3.101973 1_455
Mg0 Yb0 3.101973 1_545
Mg0 Yb0 3.101973 1_555
Mg0 Yb0 3.101973 1_554
Cu0 Cu2 2.526565 1_565
Cu0 Cu3 2.526565 1_655
Cu0 Cu1 2.526565 1_556
Cu0 Cu1 2.538935 1_555
Cu0 Cu2 2.538935 1_555
Cu0 Cu3 2.538935 1_555
Cu0 Mg0 2.969257 1_566
Cu0 Mg0 2.969257 1_656
Cu0 Mg0 2.969257 1_665
Cu0 Yb0 2.970574 1_565
Cu0 Yb0 2.970574 1_556
Cu0 Yb0 2.970574 1_655
Cu1 Cu2 2.526565 1_564
Cu1 Cu3 2.526565 1_654
Cu1 Cu2 2.538935 1_555
Cu1 Cu3 2.538935 1_555
Cu1 Mg0 2.969255 1_655
Cu1 Mg0 2.969255 1_565
Cu1 Mg0 2.969259 1_665
Cu1 Yb0 2.970572 1_555
Cu1 Yb0 2.970576 1_655
Cu1 Yb0 2.970576 1_565
Cu2 Cu3 2.526565 1_645
Cu2 Cu3 2.538935 1_555
Cu2 Mg0 2.969255 1_556
Cu2 Mg0 2.969255 1_655
Cu2 Mg0 2.969259 1_656
Cu2 Yb0 2.970572 1_555
Cu2 Yb0 2.970576 1_655
Cu2 Yb0 2.970576 1_556
Cu3 Mg0 2.969255 1_556
Cu3 Mg0 2.969255 1_565
Cu3 Mg0 2.969259 1_566
Cu3 Yb0 2.970572 1_555
Cu3 Yb0 2.970576 1_565
Cu3 Yb0 2.970576 1_556
