# generated using pymatgen
data_K8MgCo2(Mo4O15)2
_symmetry_space_group_name_H-M   'P 1'
_cell_length_a   10.67634502
_cell_length_b   10.67798523
_cell_length_c   8.76336621
_cell_angle_alpha   90.01986718
_cell_angle_beta   90.00080262
_cell_angle_gamma   119.98826672
_symmetry_Int_Tables_number   1
_chemical_formula_structural   K8MgCo2(Mo4O15)2
_chemical_formula_sum   'K8 Mg1 Co2 Mo8 O30'
_cell_volume   865.29622204
_cell_formula_units_Z   1
loop_
 _symmetry_equiv_pos_site_id
 _symmetry_equiv_pos_as_xyz
  1  'x, y, z'
loop_
 _atom_site_type_symbol
 _atom_site_label
 _atom_site_symmetry_multiplicity
 _atom_site_fract_x
 _atom_site_fract_y
 _atom_site_fract_z
 _atom_site_occupancy
  K  K0  1  0.07768300  0.66141400  0.15604900  1
  K  K1  1  0.58364700  0.92224600  0.15624800  1
  K  K2  1  0.32230900  0.04189200  0.84671800  1
  K  K3  1  0.99954100  0.99976900  0.05982200  1
  K  K4  1  0.95846400  0.28022700  0.84682200  1
  K  K5  1  0.71992500  0.67748300  0.84676200  1
  K  K6  1  0.33921000  0.41658800  0.15646100  1
  K  K7  1  0.99968200  0.99975700  0.51599200  1
  Mg  Mg0  1  0.66621500  0.33325800  0.35298900  1
  Co  Co0  1  0.33293500  0.66662600  0.48288100  1
  Co  Co1  1  0.66660900  0.33339300  0.71015000  1
  Mo  Mo0  1  0.00863600  0.33093900  0.36448100  1
  Mo  Mo1  1  0.01752100  0.66756600  0.63603100  1
  Mo  Mo2  1  0.32189800  0.99103000  0.36427100  1
  Mo  Mo3  1  0.66690300  0.33312000  0.00676900  1
  Mo  Mo4  1  0.64942300  0.98242500  0.63532400  1
  Mo  Mo5  1  0.33338200  0.66664900  0.85449600  1
  Mo  Mo6  1  0.66876400  0.67786900  0.36445700  1
  Mo  Mo7  1  0.33247700  0.35012700  0.63510200  1
  O  O0  1  0.47278600  0.81483500  0.66297300  1
  O  O1  1  0.64003900  0.49786700  0.32689900  1
  O  O2  1  0.71027100  0.98247800  0.44904600  1
  O  O3  1  0.49167000  0.66299300  0.35657000  1
  O  O4  1  0.18801900  0.51443600  0.94485000  1
  O  O5  1  0.17082900  0.50811000  0.35622900  1
  O  O6  1  0.26496900  0.01118100  0.54764700  1
  O  O7  1  0.33729100  0.82909500  0.35584600  1
  O  O8  1  0.48401100  0.29714500  0.01535100  1
  O  O9  1  0.85770500  0.48799500  0.65699600  1
  O  O10  1  0.34085300  0.52645900  0.66292700  1
  O  O11  1  0.85718700  0.35955700  0.32793900  1
  O  O12  1  0.98873200  0.25358700  0.54762800  1
  O  O13  1  0.74654200  0.73484600  0.54760400  1
  O  O14  1  0.32695300  0.81229900  0.94484700  1
  O  O15  1  0.81375200  0.51594500  0.01556600  1
  O  O16  1  0.19873000  0.97930800  0.21852100  1
  O  O17  1  0.01771900  0.72772500  0.44944000  1
  O  O18  1  0.70301500  0.18632600  0.01542300  1
  O  O19  1  0.77709600  0.98791600  0.76988700  1
  O  O20  1  0.01977500  0.21952100  0.21831000  1
  O  O21  1  0.50169000  0.14255900  0.32696300  1
  O  O22  1  0.51231200  0.37024000  0.65584700  1
  O  O23  1  0.18503900  0.65856800  0.66400100  1
  O  O24  1  0.27184400  0.28920700  0.44877300  1
  O  O25  1  0.62967300  0.14234900  0.65582500  1
  O  O26  1  0.78010500  0.80049500  0.21837500  1
  O  O27  1  0.01217700  0.79009600  0.77036800  1
  O  O28  1  0.48599400  0.67330500  0.94377100  1
  O  O29  1  0.21049400  0.22242600  0.76968700  1
loop_
_geom_bond_atom_site_label_1
_geom_bond_atom_site_label_2
_geom_bond_distance
_geom_bond_site_symmetry_2
K0 O15 2.737092 1_455
K0 O17 2.823766 1_555
K0 O5 2.894013 1_555
K0 O14 2.969828 1_554
K0 O7 2.998404 1_555
K0 O16 3.017567 1_555
K0 O4 3.020335 1_554
K0 O11 3.258583 1_455
K1 O18 2.740207 1_565
K1 O2 2.820399 1_555
K1 O7 2.890131 1_555
K1 O28 2.974249 1_554
K1 O3 2.999250 1_555
K1 O14 3.017127 1_554
K1 O26 3.018637 1_555
K1 O21 3.254737 1_565
K2 O14 2.622065 1_545
K2 O6 2.673936 1_555
K2 O8 2.808291 1_556
K2 O29 2.810396 1_555
K2 O27 3.120787 1_545
K3 O26 2.639272 1_555
K3 O16 2.639876 1_655
K3 O20 2.640603 1_665
K4 O4 2.621123 1_655
K4 O12 2.674200 1_555
K4 O18 2.809610 1_556
K4 O19 2.811265 1_545
K4 O29 3.120569 1_655
K5 O28 2.617452 1_555
K5 O13 2.675074 1_555
K5 O27 2.807077 1_655
K5 O15 2.809990 1_556
K5 O19 3.129425 1_555
K6 O8 2.741491 1_555
K6 O24 2.820263 1_555
K6 O3 2.891876 1_555
K6 O4 2.970396 1_554
K6 O5 3.001102 1_555
K6 O28 3.025480 1_554
K6 O20 3.029775 1_555
K6 O1 3.242217 1_555
K7 O13 2.782236 1_555
K7 O12 2.784419 1_565
K7 O6 2.787169 1_665
K7 O2 3.058659 1_555
K7 O24 3.060473 1_665
K7 O17 3.061506 1_655
K7 O27 3.209535 1_655
K7 O29 3.210657 1_665
K7 O19 3.211508 1_555
Mg0 O21 1.925616 1_555
Mg0 O1 1.926440 1_555
Mg0 O11 1.926601 1_555
Co0 O5 2.040206 1_555
Co0 O3 2.040720 1_555
Co0 O7 2.042514 1_555
Co0 O0 2.204708 1_555
Co0 O10 2.205642 1_555
Co0 O23 2.210030 1_555
Co1 O9 1.933492 1_555
Co1 O25 1.933590 1_555
Co1 O22 1.934677 1_555
Mo0 O12 1.768847 1_455
Mo0 O20 1.791868 1_555
Mo0 O11 1.817786 1_455
Mo0 O5 1.818818 1_555
Mo1 O17 1.756641 1_555
Mo1 O27 1.781728 1_555
Mo1 O9 1.830693 1_455
Mo1 O23 1.854657 1_555
Mo2 O6 1.768800 1_565
Mo2 O16 1.792080 1_555
Mo2 O21 1.817997 1_565
Mo2 O7 1.818340 1_555
Mo3 O15 1.793143 1_555
Mo3 O18 1.793191 1_555
Mo3 O8 1.793362 1_555
Mo4 O2 1.756841 1_555
Mo4 O19 1.781015 1_555
Mo4 O25 1.831010 1_565
Mo4 O0 1.855868 1_555
Mo5 O28 1.776522 1_555
Mo5 O14 1.776593 1_555
Mo5 O4 1.776677 1_555
Mo5 O23 2.272835 1_555
Mo5 O10 2.276656 1_555
Mo5 O0 2.276748 1_555
Mo6 O13 1.769159 1_555
Mo6 O26 1.792110 1_555
Mo6 O3 1.817851 1_555
Mo6 O1 1.818517 1_555
Mo7 O24 1.756915 1_555
Mo7 O29 1.781127 1_555
Mo7 O22 1.831191 1_555
Mo7 O10 1.855807 1_555
