# generated using pymatgen
data_Li2VOF4
_symmetry_space_group_name_H-M   'P 1'
_cell_length_a   5.31422374
_cell_length_b   7.40945419
_cell_length_c   10.85940793
_cell_angle_alpha   69.98839543
_cell_angle_beta   96.73347773
_cell_angle_gamma   109.95453903
_symmetry_Int_Tables_number   1
_chemical_formula_structural   Li2VOF4
_chemical_formula_sum   'Li8 V4 O4 F16'
_cell_volume   377.65654243
_cell_formula_units_Z   4
loop_
 _symmetry_equiv_pos_site_id
 _symmetry_equiv_pos_as_xyz
  1  'x, y, z'
loop_
 _atom_site_type_symbol
 _atom_site_label
 _atom_site_symmetry_multiplicity
 _atom_site_fract_x
 _atom_site_fract_y
 _atom_site_fract_z
 _atom_site_occupancy
  Li  Li0  1  0.72899600  0.96799800  0.92254900  1
  Li  Li1  1  0.72909900  0.46811100  0.92248700  1
  Li  Li2  1  0.27147200  0.35934400  0.42241000  1
  Li  Li3  1  0.27142900  0.85933700  0.42241000  1
  Li  Li4  1  0.63379000  0.28606000  0.24889100  1
  Li  Li5  1  0.63369200  0.78605300  0.24885800  1
  Li  Li6  1  0.36688300  0.21471500  0.74893900  1
  Li  Li7  1  0.36675500  0.71465300  0.74888400  1
  V  V0  1  0.72409900  0.63029600  0.55900300  1
  V  V1  1  0.27563200  0.06077600  0.05876200  1
  V  V2  1  0.72395600  0.13010200  0.55911400  1
  V  V3  1  0.27579300  0.56066300  0.05877900  1
  O  O0  1  0.68418800  0.38660400  0.56762800  1
  O  O1  1  0.68410200  0.88655000  0.56761400  1
  O  O2  1  0.31538700  0.29579900  0.06716700  1
  O  O3  1  0.31609100  0.79577200  0.06729400  1
  F  F0  1  0.91993900  0.41493300  0.12307500  1
  F  F1  1  0.92018600  0.91442900  0.12331800  1
  F  F2  1  0.07909500  0.21192600  0.62398100  1
  F  F3  1  0.07923900  0.71218600  0.62386100  1
  F  F4  1  0.89352300  0.27831100  0.39080800  1
  F  F5  1  0.89357800  0.77838100  0.39073900  1
  F  F6  1  0.10674300  0.08211000  0.89024400  1
  F  F7  1  0.10702700  0.58259600  0.89021900  1
  F  F8  1  0.60916300  0.17342800  0.95148100  1
  F  F9  1  0.60908600  0.67322200  0.95157100  1
  F  F10  1  0.39078700  0.12526100  0.45107400  1
  F  F11  1  0.39079700  0.62536300  0.45084100  1
  F  F12  1  0.54593700  0.01785100  0.73715900  1
  F  F13  1  0.54589900  0.51798900  0.73712900  1
  F  F14  1  0.45374000  0.49443000  0.23685800  1
  F  F15  1  0.45389600  0.99475700  0.23684800  1
loop_
_geom_bond_atom_site_label_1
_geom_bond_atom_site_label_2
_geom_bond_distance
_geom_bond_site_symmetry_2
Li0 O3 2.537462 1_556
Li1 O2 2.540358 1_556
Li2 O0 2.538234 1_555
Li3 O1 2.537977 1_555
Li4 O2 2.442437 1_555
Li5 O3 2.438602 1_555
Li6 O0 2.436919 1_555
Li7 O1 2.436739 1_555
O0 V0 1.715096 1_555
O0 V2 2.016000 1_555
O1 V2 1.714532 1_565
O1 V0 2.015101 1_555
O2 V1 1.714224 1_555
O2 V3 2.014689 1_555
O3 V3 1.714657 1_555
O3 V1 2.017239 1_565
F0 V3 1.905136 1_655
F0 Li4 1.922015 1_555
F0 Li1 2.257412 1_554
F1 V1 1.904602 1_665
F1 Li5 1.921475 1_555
F1 Li0 2.259819 1_554
F2 V2 1.903992 1_455
F2 Li6 1.921386 1_555
F2 Li2 2.270659 1_555
F3 V0 1.904013 1_455
F3 Li7 1.920842 1_555
F3 Li3 2.269157 1_555
F4 Li2 1.915370 1_655
F4 V2 1.922380 1_555
F4 Li4 1.943775 1_555
F5 Li3 1.915003 1_655
F5 V0 1.921751 1_555
F5 Li5 1.944012 1_555
F6 Li0 1.916085 1_445
F6 V1 1.921752 1_556
F6 Li6 1.941555 1_555
F7 Li1 1.916966 1_455
F7 V3 1.921528 1_556
F7 Li7 1.940434 1_555
F8 Li0 1.963911 1_545
F8 Li1 1.974703 1_555
F8 V1 2.001111 1_556
F8 Li6 2.394429 1_555
F9 Li1 1.963035 1_555
F9 Li0 1.975301 1_555
F9 V3 1.999712 1_556
F9 Li7 2.395833 1_555
F10 Li2 1.960104 1_555
F10 Li3 1.975332 1_545
F10 V2 2.002729 1_555
F10 Li4 2.394184 1_555
F11 Li3 1.959977 1_555
F11 Li2 1.974836 1_555
F11 V0 2.003892 1_555
F11 Li5 2.392151 1_555
F12 V2 2.028861 1_555
F12 Li6 2.037905 1_555
F12 Li7 2.083841 1_545
F12 Li0 2.100695 1_545
F13 V0 2.030015 1_555
F13 Li7 2.036822 1_555
F13 Li6 2.084029 1_555
F13 Li1 2.100711 1_555
F14 V3 2.028097 1_555
F14 Li4 2.038907 1_555
F14 Li5 2.086510 1_555
F14 Li2 2.101381 1_555
F15 V1 2.028778 1_565
F15 Li5 2.040214 1_555
F15 Li4 2.084514 1_565
F15 Li3 2.101886 1_555
