# generated using pymatgen
data_LaTaTiO6
_symmetry_space_group_name_H-M   'P 1'
_cell_length_a   5.45807530
_cell_length_b   7.55951748
_cell_length_c   10.97911444
_cell_angle_alpha   90.00000000
_cell_angle_beta   90.00000000
_cell_angle_gamma   90.00000000
_symmetry_Int_Tables_number   1
_chemical_formula_structural   LaTaTiO6
_chemical_formula_sum   'La4 Ta4 Ti4 O24'
_cell_volume   453.00282513
_cell_formula_units_Z   4
loop_
 _symmetry_equiv_pos_site_id
 _symmetry_equiv_pos_as_xyz
  1  'x, y, z'
loop_
 _atom_site_type_symbol
 _atom_site_label
 _atom_site_symmetry_multiplicity
 _atom_site_fract_x
 _atom_site_fract_y
 _atom_site_fract_z
 _atom_site_occupancy
  La  La0  1  0.45749387  0.74916002  0.95840180  1
  La  La1  1  0.04250613  0.74916002  0.45840180  1
  La  La2  1  0.54250613  0.24916002  0.04159820  1
  La  La3  1  0.95749387  0.24916002  0.54159820  1
  Ta  Ta0  1  0.46093662  0.50451852  0.64501792  1
  Ta  Ta1  1  0.53906338  0.00451852  0.35498208  1
  Ta  Ta2  1  0.96093662  0.00451852  0.85498208  1
  Ta  Ta3  1  0.03906338  0.50451852  0.14501792  1
  Ti  Ti0  1  0.03687053  0.99389752  0.14224482  1
  Ti  Ti1  1  0.96312947  0.49389752  0.85775518  1
  Ti  Ti2  1  0.53687053  0.49389752  0.35775518  1
  Ti  Ti3  1  0.46312947  0.99389752  0.64224482  1
  O  O0  1  0.04097570  0.74895593  0.85594486  1
  O  O1  1  0.45902430  0.74895593  0.35594486  1
  O  O2  1  0.95902430  0.24895593  0.14405514  1
  O  O3  1  0.54097570  0.24895593  0.64405514  1
  O  O4  1  0.63327525  0.55473740  0.79094124  1
  O  O5  1  0.87051471  0.94618195  0.28717966  1
  O  O6  1  0.36672475  0.05473740  0.20905876  1
  O  O7  1  0.12948529  0.44618195  0.71282034  1
  O  O8  1  0.37051471  0.44618195  0.21282034  1
  O  O9  1  0.13327525  0.05473740  0.70905876  1
  O  O10  1  0.62948529  0.94618195  0.78717966  1
  O  O11  1  0.86672475  0.55473740  0.29094124  1
  O  O12  1  0.14946001  0.75198141  0.12443976  1
  O  O13  1  0.35053999  0.75198141  0.62443976  1
  O  O14  1  0.85053999  0.25198141  0.87556024  1
  O  O15  1  0.64946001  0.25198141  0.37556024  1
  O  O16  1  0.22955014  0.03607835  0.97290819  1
  O  O17  1  0.27422080  0.46448989  0.47497511  1
  O  O18  1  0.77044986  0.53607835  0.02709181  1
  O  O19  1  0.72577920  0.96448989  0.52502489  1
  O  O20  1  0.77422080  0.96448989  0.02502489  1
  O  O21  1  0.72955014  0.53607835  0.52709181  1
  O  O22  1  0.22577920  0.46448989  0.97497511  1
  O  O23  1  0.27044986  0.03607835  0.47290819  1
loop_
_geom_bond_atom_site_label_1
_geom_bond_atom_site_label_2
_geom_bond_distance
_geom_bond_site_symmetry_2
La0 O18 2.465997 1_556
La0 O12 2.479975 1_556
La0 O20 2.484594 1_556
La0 O22 2.502716 1_555
La0 O16 2.505522 1_565
La0 O0 2.536467 1_555
La0 O4 2.541845 1_555
La0 O10 2.575543 1_555
La1 O21 2.465997 1_455
La1 O13 2.479975 1_555
La1 O19 2.484594 1_455
La1 O17 2.502716 1_555
La1 O23 2.505522 1_565
La1 O1 2.536467 1_555
La1 O11 2.541845 1_455
La1 O5 2.575543 1_455
La2 O16 2.465997 1_554
La2 O14 2.479975 1_554
La2 O22 2.484594 1_554
La2 O20 2.502716 1_545
La2 O18 2.505522 1_555
La2 O2 2.536467 1_555
La2 O6 2.541845 1_555
La2 O8 2.575543 1_555
La3 O23 2.465997 1_655
La3 O15 2.479975 1_555
La3 O17 2.484594 1_655
La3 O19 2.502716 1_545
La3 O21 2.505522 1_555
La3 O3 2.536467 1_555
La3 O9 2.541845 1_655
La3 O7 2.575543 1_655
O0 Ti1 1.974479 1_455
O0 Ta2 1.980735 1_465
O1 Ti2 1.974479 1_555
O1 Ta1 1.980735 1_565
O2 Ti0 1.974479 1_645
O2 Ta3 1.980735 1_655
O3 Ti3 1.974479 1_545
O3 Ta0 1.980735 1_555
O4 Ta0 1.896225 1_555
O4 Ti1 1.997739 1_555
O5 Ti0 1.867254 1_655
O5 Ta1 2.005347 1_565
O6 Ta1 1.896225 1_555
O6 Ti0 1.997739 1_545
O7 Ti1 1.867254 1_455
O7 Ta0 2.005347 1_555
O8 Ti2 1.867254 1_555
O8 Ta3 2.005347 1_555
O9 Ta2 1.896225 1_455
O9 Ti3 1.997739 1_545
O10 Ti3 1.867254 1_555
O10 Ta2 2.005347 1_565
O11 Ta3 1.896225 1_655
O11 Ti2 1.997739 1_555
O12 Ti0 1.939136 1_555
O12 Ta3 1.978290 1_555
O13 Ti3 1.939136 1_555
O13 Ta0 1.978290 1_555
O14 Ti1 1.939136 1_555
O14 Ta2 1.978290 1_555
O15 Ti2 1.939136 1_555
O15 Ta1 1.978290 1_555
O16 Ta2 1.970461 1_455
O16 Ti0 2.159667 1_546
O17 Ti2 1.939282 1_555
O17 Ta0 2.148380 1_555
O18 Ta3 1.970461 1_655
O18 Ti1 2.159667 1_554
O19 Ti3 1.939282 1_555
O19 Ta1 2.148380 1_565
O20 Ti0 1.939282 1_655
O20 Ta2 2.148380 1_564
O21 Ta0 1.970461 1_555
O21 Ti2 2.159667 1_555
O22 Ti1 1.939282 1_455
O22 Ta3 2.148380 1_556
O23 Ta1 1.970461 1_555
O23 Ti3 2.159667 1_545
