# generated using pymatgen
data_Zn2CrWO6
_symmetry_space_group_name_H-M   'P 1'
_cell_length_a   5.24893665
_cell_length_b   5.28651940
_cell_length_c   7.71138165
_cell_angle_alpha   90.07807949
_cell_angle_beta   89.69020044
_cell_angle_gamma   90.02977132
_symmetry_Int_Tables_number   1
_chemical_formula_structural   Zn2CrWO6
_chemical_formula_sum   'Zn4 Cr2 W2 O12'
_cell_volume   213.97673209
_cell_formula_units_Z   2
loop_
 _symmetry_equiv_pos_site_id
 _symmetry_equiv_pos_as_xyz
  1  'x, y, z'
loop_
 _atom_site_type_symbol
 _atom_site_label
 _atom_site_symmetry_multiplicity
 _atom_site_fract_x
 _atom_site_fract_y
 _atom_site_fract_z
 _atom_site_occupancy
  Zn  Zn0  1  0.00883600  0.02892800  0.25023600  1
  Zn  Zn1  1  0.49071200  0.52858500  0.24961300  1
  Zn  Zn2  1  0.99117400  0.97107100  0.74976100  1
  Zn  Zn3  1  0.50928300  0.47143300  0.75038200  1
  Cr  Cr0  1  0.49992800  0.99993300  0.99996800  1
  Cr  Cr1  1  0.00011800  0.49997900  0.50009300  1
  W  W0  1  0.00001000  0.50001300  0.99997900  1
  W  W1  1  0.49996400  0.99998900  0.50001500  1
  O  O0  1  0.67299200  0.32352400  0.43163000  1
  O  O1  1  0.82602800  0.82317400  0.06763300  1
  O  O2  1  0.32698900  0.67648500  0.56834400  1
  O  O3  1  0.17397300  0.17683800  0.93237400  1
  O  O4  1  0.17742300  0.17285500  0.56066800  1
  O  O5  1  0.32323500  0.67269300  0.93939900  1
  O  O6  1  0.82257100  0.82716900  0.43931100  1
  O  O7  1  0.67676600  0.32732000  0.06060900  1
  O  O8  1  0.11450800  0.41500300  0.24939800  1
  O  O9  1  0.38489200  0.91467500  0.25060400  1
  O  O10  1  0.61511200  0.08533600  0.74939300  1
  O  O11  1  0.88548800  0.58499800  0.75058900  1
loop_
_geom_bond_atom_site_label_1
_geom_bond_atom_site_label_2
_geom_bond_distance
_geom_bond_site_symmetry_2
Cr0 O5 2.017894 1_555
Cr0 O7 2.019040 1_566
Cr0 O3 2.021432 1_565
Cr0 O1 2.021864 1_556
Cr0 O10 2.071844 1_565
Cr0 O9 2.071892 1_556
Cr1 O4 2.020779 1_555
Cr1 O6 2.022041 1_455
Cr1 O2 2.024391 1_555
Cr1 O0 2.025835 1_455
Cr1 O11 2.068993 1_455
Cr1 O8 2.070014 1_555
O0 W1 2.005987 1_545
O0 Zn1 2.020013 1_555
O1 W0 2.004697 1_654
O1 Zn0 2.023865 1_665
O2 W1 2.005609 1_555
O2 Zn3 2.020135 1_555
O3 W0 2.004617 1_555
O3 Zn2 2.023933 1_445
O4 W1 1.977883 1_545
O4 Zn2 2.051253 1_445
O5 W0 1.980144 1_555
O5 Zn3 2.047361 1_555
O6 W1 1.978157 1_555
O6 Zn0 2.051125 1_665
O7 W0 1.980350 1_654
O7 Zn1 2.047318 1_555
O8 Zn1 2.063655 1_555
O8 W0 2.068243 1_554
O8 Zn0 2.114750 1_555
O9 Zn0 2.064555 1_565
O9 W1 2.068151 1_555
O9 Zn1 2.115571 1_555
O10 Zn2 2.064604 1_545
O10 W1 2.068070 1_545
O10 Zn3 2.115619 1_555
O11 Zn3 2.063634 1_555
O11 W0 2.068043 1_655
O11 Zn2 2.114759 1_555
