# generated using pymatgen
data_SrGaGe
_symmetry_space_group_name_H-M   'P 1'
_cell_length_a   4.25369748
_cell_length_b   4.25369748
_cell_length_c   19.04214190
_cell_angle_alpha   90.00000000
_cell_angle_beta   90.00000000
_cell_angle_gamma   119.99999074
_symmetry_Int_Tables_number   1
_chemical_formula_structural   SrGaGe
_chemical_formula_sum   'Sr4 Ga4 Ge4'
_cell_volume   298.38684347
_cell_formula_units_Z   4
loop_
 _symmetry_equiv_pos_site_id
 _symmetry_equiv_pos_as_xyz
  1  'x, y, z'
loop_
 _atom_site_type_symbol
 _atom_site_label
 _atom_site_symmetry_multiplicity
 _atom_site_fract_x
 _atom_site_fract_y
 _atom_site_fract_z
 _atom_site_occupancy
  Sr  Sr0  1  -0.00000000  -0.00000000  0.50000000  1
  Sr  Sr1  1  -0.00000000  -0.00000000  -0.00000000  1
  Sr  Sr2  1  -0.00000000  -0.00000000  0.25000000  1
  Sr  Sr3  1  -0.00000000  -0.00000000  0.75000000  1
  Ga  Ga0  1  0.33333300  0.66666700  0.35705927  1
  Ga  Ga1  1  0.66666700  0.33333300  0.64294073  1
  Ga  Ga2  1  0.66666700  0.33333300  0.85705927  1
  Ga  Ga3  1  0.33333300  0.66666700  0.14294073  1
  Ge  Ge0  1  0.33333300  0.66666700  0.88765347  1
  Ge  Ge1  1  0.66666700  0.33333300  0.11234653  1
  Ge  Ge2  1  0.66666700  0.33333300  0.38765347  1
  Ge  Ge3  1  0.33333300  0.66666700  0.61234653  1
loop_
_geom_bond_atom_site_label_1
_geom_bond_atom_site_label_2
_geom_bond_distance
_geom_bond_site_symmetry_2
Ga0 Ge2 2.524025 1_455
Ga0 Ge2 2.524025 1_565
Ga0 Ge2 2.524032 1_555
Ga0 Sr2 3.191762 1_565
Ga0 Sr2 3.191765 1_555
Ga0 Sr2 3.191765 1_665
Ga1 Ge3 2.524025 1_545
Ga1 Ge3 2.524025 1_655
Ga1 Ge3 2.524032 1_555
Ga1 Sr3 3.191762 1_655
Ga1 Sr3 3.191765 1_665
Ga1 Sr3 3.191765 1_555
Ga2 Ge0 2.524025 1_545
Ga2 Ge0 2.524025 1_655
Ga2 Ge0 2.524032 1_555
Ga2 Sr3 3.191762 1_655
Ga2 Sr3 3.191765 1_665
Ga2 Sr3 3.191765 1_555
Ga3 Ge1 2.524025 1_565
Ga3 Ge1 2.524025 1_455
Ga3 Ge1 2.524032 1_555
Ga3 Sr2 3.191762 1_565
Ga3 Sr2 3.191765 1_665
Ga3 Sr2 3.191765 1_555
Ge0 Sr1 3.256990 1_566
Ge0 Sr1 3.256993 1_666
Ge0 Sr1 3.256993 1_556
Ge1 Sr1 3.256990 1_655
Ge1 Sr1 3.256993 1_555
Ge1 Sr1 3.256993 1_665
Ge2 Sr0 3.256990 1_655
Ge2 Sr0 3.256993 1_665
Ge2 Sr0 3.256993 1_555
Ge3 Sr0 3.256990 1_565
Ge3 Sr0 3.256993 1_665
Ge3 Sr0 3.256993 1_555
