# generated using pymatgen
data_K6Zn3Cl10
_symmetry_space_group_name_H-M   'P 1'
_cell_length_a   27.15753000
_cell_length_b   12.44873500
_cell_length_c   7.22609100
_cell_angle_alpha   90.00000000
_cell_angle_beta   90.00000000
_cell_angle_gamma   90.00000000
_symmetry_Int_Tables_number   1
_chemical_formula_structural   K6Zn3Cl10
_chemical_formula_sum   'K24 Zn12 Cl40'
_cell_volume   2442.97440266
_cell_formula_units_Z   4
loop_
 _symmetry_equiv_pos_site_id
 _symmetry_equiv_pos_as_xyz
  1  'x, y, z'
loop_
 _atom_site_type_symbol
 _atom_site_label
 _atom_site_symmetry_multiplicity
 _atom_site_fract_x
 _atom_site_fract_y
 _atom_site_fract_z
 _atom_site_occupancy
  K  K0  1  0.70855900  0.91557300  0.78744000  1
  K  K1  1  0.29144100  0.08442700  0.28744000  1
  K  K2  1  0.79144100  0.41557300  0.28744000  1
  K  K3  1  0.20855900  0.58442700  0.78744000  1
  K  K4  1  0.54275100  0.57457100  0.71830000  1
  K  K5  1  0.45724900  0.42542900  0.21830000  1
  K  K6  1  0.95724900  0.07457100  0.21830000  1
  K  K7  1  0.04275100  0.92542900  0.71830000  1
  K  K8  1  0.88103300  0.58411600  0.74448700  1
  K  K9  1  0.11896700  0.41588400  0.24448700  1
  K  K10  1  0.61896700  0.08411600  0.24448700  1
  K  K11  1  0.38103300  0.91588400  0.74448700  1
  K  K12  1  0.66722600  0.32116400  0.75448000  1
  K  K13  1  0.33277400  0.67883600  0.25448000  1
  K  K14  1  0.83277400  0.82116400  0.25448000  1
  K  K15  1  0.16722600  0.17883600  0.75448000  1
  K  K16  1  0.83340200  0.18850900  0.76616400  1
  K  K17  1  0.16659800  0.81149100  0.26616400  1
  K  K18  1  0.66659800  0.68850900  0.26616400  1
  K  K19  1  0.33340200  0.31149100  0.76616400  1
  K  K20  1  0.00048900  0.32173100  0.69820000  1
  K  K21  1  0.99951100  0.67826900  0.19820000  1
  K  K22  1  0.49951100  0.82173100  0.19820000  1
  K  K23  1  0.50048900  0.17826900  0.69820000  1
  Zn  Zn0  1  0.57353200  0.90384200  0.72645500  1
  Zn  Zn1  1  0.42646800  0.09615800  0.22645500  1
  Zn  Zn2  1  0.92646800  0.40384200  0.22645500  1
  Zn  Zn3  1  0.07353200  0.59615800  0.72645500  1
  Zn  Zn4  1  0.74643200  0.58955800  0.72604800  1
  Zn  Zn5  1  0.25356800  0.41044200  0.22604800  1
  Zn  Zn6  1  0.75356800  0.08955800  0.22604800  1
  Zn  Zn7  1  0.24643200  0.91044200  0.72604800  1
  Zn  Zn8  1  0.90491800  0.92009200  0.72228100  1
  Zn  Zn9  1  0.09508200  0.07990800  0.22228100  1
  Zn  Zn10  1  0.59508200  0.42009200  0.22228100  1
  Zn  Zn11  1  0.40491800  0.57990800  0.72228100  1
  Cl  Cl0  1  0.65965400  0.57740100  0.67834500  1
  Cl  Cl1  1  0.34034600  0.42259900  0.17834500  1
  Cl  Cl2  1  0.84034600  0.07740100  0.17834500  1
  Cl  Cl3  1  0.15965400  0.92259900  0.67834500  1
  Cl  Cl4  1  0.82313000  0.93450000  0.68247400  1
  Cl  Cl5  1  0.17687000  0.06550000  0.18247400  1
  Cl  Cl6  1  0.67687000  0.43450000  0.18247400  1
  Cl  Cl7  1  0.32313000  0.56550000  0.68247400  1
  Cl  Cl8  1  0.99219800  0.55724900  0.82231400  1
  Cl  Cl9  1  0.00780200  0.44275100  0.32231400  1
  Cl  Cl10  1  0.50780200  0.05724900  0.32231400  1
  Cl  Cl11  1  0.49219800  0.94275100  0.82231400  1
  Cl  Cl12  1  0.61682200  0.07420400  0.69265400  1
  Cl  Cl13  1  0.38317800  0.92579600  0.19265400  1
  Cl  Cl14  1  0.88317800  0.57420400  0.19265400  1
  Cl  Cl15  1  0.11682200  0.42579600  0.69265400  1
  Cl  Cl16  1  0.77915300  0.42014700  0.84083900  1
  Cl  Cl17  1  0.22084700  0.57985300  0.34083900  1
  Cl  Cl18  1  0.72084700  0.92014700  0.34083900  1
  Cl  Cl19  1  0.27915300  0.07985300  0.84083900  1
  Cl  Cl20  1  0.94418100  0.08485300  0.69625700  1
  Cl  Cl21  1  0.05581900  0.91514700  0.19625700  1
  Cl  Cl22  1  0.55581900  0.58485300  0.19625700  1
  Cl  Cl23  1  0.44418100  0.41514700  0.69625700  1
  Cl  Cl24  1  0.61004700  0.85919000  0.02683500  1
  Cl  Cl25  1  0.38995300  0.14081000  0.52683500  1
  Cl  Cl26  1  0.88995300  0.35919000  0.52683500  1
  Cl  Cl27  1  0.11004700  0.64081000  0.02683500  1
  Cl  Cl28  1  0.75572900  0.70596800  0.98525900  1
  Cl  Cl29  1  0.24427100  0.29403200  0.48525900  1
  Cl  Cl30  1  0.74427100  0.20596800  0.48525900  1
  Cl  Cl31  1  0.25572900  0.79403200  0.98525900  1
  Cl  Cl32  1  0.93061000  0.85183800  0.99868700  1
  Cl  Cl33  1  0.06939000  0.14816200  0.49868700  1
  Cl  Cl34  1  0.56939000  0.35183800  0.49868700  1
  Cl  Cl35  1  0.43061000  0.64816200  0.99868700  1
  Cl  Cl36  1  0.56332900  0.30810200  0.00048200  1
  Cl  Cl37  1  0.43667100  0.69189800  0.50048200  1
  Cl  Cl38  1  0.93667100  0.80810200  0.50048200  1
  Cl  Cl39  1  0.06332900  0.19189800  0.00048200  1
loop_
_geom_bond_atom_site_label_1
_geom_bond_atom_site_label_2
_geom_bond_distance
_geom_bond_site_symmetry_2
K8 Zn4 3.658486 1_555
K9 Zn5 3.658486 1_555
K10 Zn6 3.658486 1_555
K11 Zn7 3.658486 1_555
Cl0 Zn4 2.386556 1_555
Cl0 K4 3.188092 1_555
Cl0 K12 3.243448 1_555
Cl0 K18 3.289360 1_555
Cl1 Zn5 2.386556 1_555
Cl1 K5 3.188092 1_555
Cl1 K13 3.243448 1_555
Cl1 K19 3.289360 1_554
Cl2 Zn6 2.386556 1_555
Cl2 K6 3.188092 1_555
Cl2 K14 3.243448 1_545
Cl2 K16 3.289360 1_554
Cl3 Zn7 2.386556 1_555
Cl3 K7 3.188092 1_555
Cl3 K15 3.243448 1_565
Cl3 K17 3.289360 1_555
Cl4 Zn8 2.246879 1_555
Cl4 K0 3.211237 1_555
Cl4 K16 3.231464 1_565
Cl4 K14 3.409420 1_555
Cl5 Zn9 2.246879 1_555
Cl5 K1 3.211237 1_555
Cl5 K17 3.231464 1_545
Cl5 K15 3.409420 1_554
Cl6 Zn10 2.246879 1_555
Cl6 K2 3.211237 1_555
Cl6 K18 3.231464 1_555
Cl6 K12 3.409420 1_554
Cl7 Zn11 2.246879 1_555
Cl7 K3 3.211237 1_555
Cl7 K19 3.231464 1_555
Cl7 K13 3.409420 1_555
Cl8 Zn3 2.365028 1_655
Cl8 K20 3.074264 1_655
Cl8 K8 3.089062 1_555
Cl8 K21 3.112361 1_556
Cl9 Zn2 2.365028 1_455
Cl9 K21 3.074264 1_455
Cl9 K9 3.089062 1_555
Cl9 K20 3.112361 1_555
Cl10 Zn1 2.365028 1_555
Cl10 K22 3.074264 1_545
Cl10 K10 3.089062 1_555
Cl10 K23 3.112361 1_555
Cl11 Zn0 2.365028 1_555
Cl11 K23 3.074264 1_565
Cl11 K11 3.089062 1_555
Cl11 K22 3.112361 1_556
Cl12 Zn0 2.437122 1_545
Cl12 K10 3.241369 1_555
Cl12 K0 3.252017 1_545
Cl12 K12 3.394835 1_555
Cl12 K23 3.414843 1_555
Cl13 Zn1 2.437122 1_565
Cl13 K11 3.241369 1_554
Cl13 K1 3.252017 1_565
Cl13 K13 3.394835 1_555
Cl13 K22 3.414843 1_555
Cl14 Zn2 2.437122 1_555
Cl14 K8 3.241369 1_554
Cl14 K2 3.252017 1_555
Cl14 K14 3.394835 1_555
Cl14 K21 3.414843 1_555
Cl15 Zn3 2.437122 1_555
Cl15 K9 3.241369 1_555
Cl15 K3 3.252017 1_555
Cl15 K15 3.394835 1_555
Cl15 K20 3.414843 1_555
Cl16 Zn4 2.434211 1_555
Cl16 K2 3.244887 1_556
Cl16 K16 3.282811 1_555
Cl16 K12 3.338759 1_555
Cl16 K8 3.508065 1_555
Cl17 Zn5 2.434211 1_555
Cl17 K3 3.244887 1_555
Cl17 K17 3.282811 1_555
Cl17 K13 3.338759 1_555
Cl17 K9 3.508065 1_555
Cl18 Zn6 2.434211 1_565
Cl18 K0 3.244887 1_555
Cl18 K18 3.282811 1_555
Cl18 K14 3.338759 1_555
Cl18 K10 3.508065 1_565
Cl19 Zn7 2.434211 1_545
Cl19 K1 3.244887 1_556
Cl19 K19 3.282811 1_555
Cl19 K15 3.338759 1_555
Cl19 K11 3.508065 1_545
Cl20 Zn8 2.319311 1_545
Cl20 K16 3.312288 1_555
Cl20 K20 3.321779 1_655
Cl20 K7 3.336166 1_645
Cl20 K6 3.474305 1_555
Cl21 Zn9 2.319311 1_565
Cl21 K17 3.312288 1_555
Cl21 K21 3.321779 1_455
Cl21 K6 3.336166 1_465
Cl21 K7 3.474305 1_554
Cl22 Zn10 2.319311 1_555
Cl22 K18 3.312288 1_555
Cl22 K22 3.321779 1_555
Cl22 K5 3.336166 1_555
Cl22 K4 3.474305 1_554
Cl23 Zn11 2.319311 1_555
Cl23 K19 3.312288 1_555
Cl23 K23 3.321779 1_555
Cl23 K4 3.336166 1_555
Cl23 K5 3.474305 1_555
Cl24 Zn0 2.450256 1_554
Cl24 K18 3.140720 1_555
Cl24 K10 3.220644 1_565
Cl24 K0 3.262305 1_554
Cl24 K22 3.280571 1_555
Cl25 Zn1 2.450256 1_555
Cl25 K19 3.140720 1_555
Cl25 K11 3.220644 1_545
Cl25 K1 3.262305 1_555
Cl25 K23 3.280571 1_555
Cl26 Zn2 2.450256 1_555
Cl26 K16 3.140720 1_555
Cl26 K8 3.220644 1_555
Cl26 K2 3.262305 1_555
Cl26 K20 3.280571 1_655
Cl27 Zn3 2.450256 1_554
Cl27 K17 3.140720 1_555
Cl27 K9 3.220644 1_555
Cl27 K3 3.262305 1_554
Cl27 K21 3.280571 1_455
Cl28 Zn4 2.381647 1_555
Cl28 K18 3.166497 1_556
Cl28 K14 3.196727 1_556
Cl28 K0 3.239275 1_555
Cl29 Zn5 2.381647 1_555
Cl29 K19 3.166497 1_555
Cl29 K15 3.196727 1_555
Cl29 K1 3.239275 1_555
Cl30 Zn6 2.381647 1_555
Cl30 K16 3.166497 1_555
Cl30 K12 3.196727 1_555
Cl30 K2 3.239275 1_555
Cl31 Zn7 2.381647 1_555
Cl31 K17 3.166497 1_556
Cl31 K13 3.196727 1_556
Cl31 K3 3.239275 1_555
Cl32 Zn8 2.279940 1_555
Cl32 K21 3.201328 1_556
Cl32 K14 3.259125 1_556
Cl32 K6 3.275649 1_566
Cl33 Zn9 2.279940 1_555
Cl33 K20 3.201328 1_555
Cl33 K15 3.259125 1_555
Cl33 K7 3.275649 1_545
Cl34 Zn10 2.279940 1_555
Cl34 K23 3.201328 1_555
Cl34 K12 3.259125 1_555
Cl34 K4 3.275649 1_555
Cl35 Zn11 2.279940 1_555
Cl35 K22 3.201328 1_556
Cl35 K13 3.259125 1_556
Cl35 K5 3.275649 1_556
Cl36 Zn10 2.292597 1_555
Cl36 K23 3.208729 1_554
Cl36 K12 3.338827 1_554
Cl36 K5 3.593060 1_555
Cl36 K10 3.628612 1_555
Cl37 Zn11 2.292597 1_555
Cl37 K22 3.208729 1_555
Cl37 K13 3.338827 1_555
Cl37 K4 3.593060 1_555
Cl37 K11 3.628612 1_555
Cl38 Zn8 2.292597 1_555
Cl38 K21 3.208729 1_555
Cl38 K14 3.338827 1_555
Cl38 K7 3.593060 1_655
Cl38 K8 3.628612 1_555
Cl39 Zn9 2.292597 1_555
Cl39 K20 3.208729 1_554
Cl39 K15 3.338827 1_554
Cl39 K6 3.593060 1_455
Cl39 K9 3.628612 1_555
