# generated using pymatgen
data_La4Mg3Ag10
_symmetry_space_group_name_H-M   'P 1'
_cell_length_a   8.84073039
_cell_length_b   8.84073039
_cell_length_c   10.39459139
_cell_angle_alpha   90.00000000
_cell_angle_beta   90.00000000
_cell_angle_gamma   108.45319257
_symmetry_Int_Tables_number   1
_chemical_formula_structural   La4Mg3Ag10
_chemical_formula_sum   'La8 Mg6 Ag20'
_cell_volume   770.65295804
_cell_formula_units_Z   2
loop_
 _symmetry_equiv_pos_site_id
 _symmetry_equiv_pos_as_xyz
  1  'x, y, z'
loop_
 _atom_site_type_symbol
 _atom_site_label
 _atom_site_symmetry_multiplicity
 _atom_site_fract_x
 _atom_site_fract_y
 _atom_site_fract_z
 _atom_site_occupancy
  La  La0  1  0.70311091  0.29688909  0.00000000  1
  La  La1  1  0.29688909  0.70311091  0.00000000  1
  La  La2  1  0.79688909  0.20311091  0.50000000  1
  La  La3  1  0.20311091  0.79688909  0.50000000  1
  La  La4  1  0.30270927  0.30270927  0.20281194  1
  La  La5  1  0.69729073  0.69729073  0.79718806  1
  La  La6  1  0.19729073  0.19729073  0.70281194  1
  La  La7  1  0.80270927  0.80270927  0.29718806  1
  Mg  Mg0  1  0.01538071  0.51538071  0.25000000  1
  Mg  Mg1  1  0.98461929  0.48461929  0.75000000  1
  Mg  Mg2  1  0.48461929  0.98461929  0.75000000  1
  Mg  Mg3  1  0.51538071  0.01538071  0.25000000  1
  Mg  Mg4  1  -0.00000000  -0.00000000  0.00000000  1
  Mg  Mg5  1  0.50000000  0.50000000  0.50000000  1
  Ag  Ag0  1  0.09676582  0.09676582  0.40464374  1
  Ag  Ag1  1  0.90323418  0.90323418  0.59535626  1
  Ag  Ag2  1  0.40323418  0.40323418  0.90464374  1
  Ag  Ag3  1  0.59676582  0.59676582  0.09535626  1
  Ag  Ag4  1  0.89555358  0.17104926  0.20371470  1
  Ag  Ag5  1  0.10444642  0.82895074  0.79628530  1
  Ag  Ag6  1  0.60444642  0.32895074  0.70371470  1
  Ag  Ag7  1  0.67104926  0.39555358  0.29628530  1
  Ag  Ag8  1  0.39555358  0.67104926  0.29628530  1
  Ag  Ag9  1  0.32895074  0.60444642  0.70371470  1
  Ag  Ag10  1  0.82895074  0.10444642  0.79628530  1
  Ag  Ag11  1  0.17104926  0.89555358  0.20371470  1
  Ag  Ag12  1  0.93279048  0.66185721  0.02686594  1
  Ag  Ag13  1  0.06720952  0.33814279  0.97313406  1
  Ag  Ag14  1  0.56720952  0.83814279  0.52686594  1
  Ag  Ag15  1  0.16185721  0.43279048  0.47313406  1
  Ag  Ag16  1  0.43279048  0.16185721  0.47313406  1
  Ag  Ag17  1  0.83814279  0.56720952  0.52686594  1
  Ag  Ag18  1  0.33814279  0.06720952  0.97313406  1
  Ag  Ag19  1  0.66185721  0.93279048  0.02686594  1
loop_
_geom_bond_atom_site_label_1
_geom_bond_atom_site_label_2
_geom_bond_distance
_geom_bond_site_symmetry_2
Ag0 Ag1 2.816272 1_445
Ag0 Ag16 2.929309 1_555
Ag0 Ag15 2.929309 1_555
Ag0 Ag4 2.949124 1_455
Ag0 Ag11 2.949124 1_545
Ag0 La4 2.988766 1_555
Ag0 La2 3.236165 1_455
Ag0 La3 3.236165 1_545
Ag0 La7 3.238178 1_445
Ag0 La6 3.268870 1_555
Ag1 Ag17 2.929309 1_555
Ag1 Ag14 2.929309 1_555
Ag1 Ag5 2.949124 1_655
Ag1 Ag10 2.949124 1_565
Ag1 La5 2.988766 1_555
Ag1 La3 3.236165 1_655
Ag1 La2 3.236165 1_565
Ag1 La6 3.238178 1_665
Ag1 La7 3.268870 1_555
Ag2 Ag3 2.816272 1_556
Ag2 Ag9 2.949124 1_555
Ag2 Ag6 2.949124 1_555
Ag2 La6 2.988766 1_555
Ag2 La1 3.236165 1_556
Ag2 La0 3.236165 1_556
Ag2 La5 3.238178 1_555
Ag2 La4 3.268870 1_556
Ag3 Ag7 2.949124 1_555
Ag3 Ag8 2.949124 1_555
Ag3 La7 2.988766 1_555
Ag3 La1 3.236165 1_555
Ag3 La0 3.236165 1_555
Ag3 La4 3.238178 1_555
Ag3 La5 3.268870 1_554
Ag4 Mg4 2.916726 1_655
Ag4 Mg0 2.928993 1_655
Ag4 La0 3.132794 1_555
Ag4 La2 3.237694 1_555
Ag4 Mg3 3.239384 1_555
Ag4 La7 3.244962 1_545
Ag4 Ag7 3.361319 1_555
Ag4 La4 3.414575 1_655
Ag5 Mg4 2.916726 1_566
Ag5 Mg1 2.928993 1_455
Ag5 La1 3.132794 1_556
Ag5 La3 3.237694 1_555
Ag5 Mg2 3.239384 1_555
Ag5 La6 3.244962 1_565
Ag5 Ag9 3.361319 1_555
Ag5 La5 3.414575 1_455
Ag6 Mg5 2.916726 1_555
Ag6 Mg2 2.928993 1_545
Ag6 La2 3.132794 1_555
Ag6 La0 3.237694 1_556
Ag6 Mg1 3.239384 1_555
Ag6 La5 3.244962 1_555
Ag6 La6 3.414575 1_555
Ag7 Mg5 2.916726 1_555
Ag7 Mg0 2.928993 1_655
Ag7 La2 3.132794 1_555
Ag7 La0 3.237694 1_555
Ag7 Mg3 3.239384 1_555
Ag7 La4 3.244962 1_555
Ag7 La7 3.414575 1_555
Ag8 Mg5 2.916726 1_555
Ag8 Mg3 2.928993 1_565
Ag8 La3 3.132794 1_555
Ag8 La1 3.237694 1_555
Ag8 Mg0 3.239384 1_555
Ag8 La4 3.244962 1_555
Ag8 La7 3.414575 1_555
Ag9 Mg5 2.916726 1_555
Ag9 Mg1 2.928993 1_455
Ag9 La3 3.132794 1_555
Ag9 La1 3.237694 1_556
Ag9 Mg2 3.239384 1_555
Ag9 La5 3.244962 1_555
Ag9 La6 3.414575 1_555
Ag10 Mg4 2.916726 1_656
Ag10 Mg2 2.928993 1_545
Ag10 Ag19 2.968270 1_546
Ag10 Ag13 3.054444 1_655
Ag10 La0 3.132794 1_556
Ag10 La2 3.237694 1_555
Ag10 Mg1 3.239384 1_555
Ag10 La6 3.244962 1_655
Ag10 Ag6 3.361319 1_555
Ag10 La5 3.414575 1_545
Ag11 Mg4 2.916726 1_565
Ag11 Mg3 2.928993 1_565
Ag11 Ag18 2.968270 1_564
Ag11 Ag12 3.054444 1_455
Ag11 La1 3.132794 1_555
Ag11 La3 3.237694 1_555
Ag11 Mg0 3.239384 1_555
Ag11 La7 3.244962 1_455
Ag11 Ag8 3.361319 1_555
Ag11 La4 3.414575 1_565
Ag12 Mg0 2.861500 1_655
Ag12 Mg4 2.871105 1_665
Ag12 Ag3 2.929309 1_555
Ag12 Ag5 2.968270 1_654
Ag12 La1 3.135141 1_655
Ag12 La0 3.234856 1_555
Ag12 La5 3.247370 1_554
Ag12 Mg1 3.376690 1_554
Ag12 La7 3.416896 1_555
Ag13 Mg1 2.861500 1_455
Ag13 Mg4 2.871105 1_556
Ag13 Ag2 2.929309 1_555
Ag13 Ag4 2.968270 1_456
Ag13 La0 3.135141 1_456
Ag13 La1 3.234856 1_556
Ag13 La4 3.247370 1_556
Ag13 Mg0 3.376690 1_556
Ag13 La6 3.416896 1_555
Ag14 Mg2 2.861500 1_555
Ag14 Mg5 2.871105 1_555
Ag14 Ag8 2.968270 1_555
Ag14 Ag9 3.054444 1_555
Ag14 La3 3.135141 1_555
Ag14 La2 3.234856 1_565
Ag14 La7 3.247370 1_555
Ag14 Mg3 3.376690 1_565
Ag14 La5 3.416896 1_555
Ag15 Mg0 2.861500 1_555
Ag15 Mg5 2.871105 1_555
Ag15 Ag9 2.968270 1_555
Ag15 Ag8 3.054444 1_555
Ag15 La3 3.135141 1_555
Ag15 La2 3.234856 1_455
Ag15 La6 3.247370 1_555
Ag15 Mg1 3.376690 1_455
Ag15 La4 3.416896 1_555
Ag16 Mg3 2.861500 1_555
Ag16 Mg5 2.871105 1_555
Ag16 Ag6 2.968270 1_555
Ag16 Ag7 3.054444 1_555
Ag16 La2 3.135141 1_555
Ag16 La3 3.234856 1_545
Ag16 La6 3.247370 1_555
Ag16 Mg2 3.376690 1_545
Ag16 La4 3.416896 1_555
Ag17 Mg1 2.861500 1_555
Ag17 Mg5 2.871105 1_555
Ag17 Ag7 2.968270 1_555
Ag17 Ag6 3.054444 1_555
Ag17 La2 3.135141 1_555
Ag17 La3 3.234856 1_655
Ag17 La7 3.247370 1_555
Ag17 Mg0 3.376690 1_655
Ag17 La5 3.416896 1_555
Ag18 Mg2 2.861500 1_545
Ag18 Mg4 2.871105 1_556
Ag18 Ag2 2.929309 1_555
Ag18 Ag5 3.054444 1_545
Ag18 La1 3.135141 1_546
Ag18 La0 3.234856 1_556
Ag18 La4 3.247370 1_556
Ag18 Mg3 3.376690 1_556
Ag18 La6 3.416896 1_555
Ag19 Mg3 2.861500 1_565
Ag19 Mg4 2.871105 1_665
Ag19 Ag3 2.929309 1_555
Ag19 Ag4 3.054444 1_565
Ag19 La0 3.135141 1_565
Ag19 La1 3.234856 1_555
Ag19 La5 3.247370 1_554
Ag19 Mg2 3.376690 1_554
Ag19 La7 3.416896 1_555
