# generated using pymatgen
data_Zn2Fe3O8
_symmetry_space_group_name_H-M   'P 1'
_cell_length_a   5.94454700
_cell_length_b   5.94454700
_cell_length_c   9.44058400
_cell_angle_alpha   90.00000000
_cell_angle_beta   90.00000000
_cell_angle_gamma   120.00001108
_symmetry_Int_Tables_number   1
_chemical_formula_structural   Zn2Fe3O8
_chemical_formula_sum   'Zn4 Fe6 O16'
_cell_volume   288.91292666
_cell_formula_units_Z   2
loop_
 _symmetry_equiv_pos_site_id
 _symmetry_equiv_pos_as_xyz
  1  'x, y, z'
loop_
 _atom_site_type_symbol
 _atom_site_label
 _atom_site_symmetry_multiplicity
 _atom_site_fract_x
 _atom_site_fract_y
 _atom_site_fract_z
 _atom_site_occupancy
  Zn  Zn0  1  0.66666700  0.33333300  0.02843100  1
  Zn  Zn1  1  0.33333300  0.66666700  0.52843100  1
  Zn  Zn2  1  0.66666700  0.33333300  0.42037100  1
  Zn  Zn3  1  0.33333300  0.66666700  0.92037100  1
  Fe  Fe0  1  0.67189700  0.83594800  0.24315100  1
  Fe  Fe1  1  0.83594800  0.16405200  0.74315100  1
  Fe  Fe2  1  0.16405200  0.32810300  0.24315100  1
  Fe  Fe3  1  0.83594800  0.67189700  0.74315100  1
  Fe  Fe4  1  0.32810300  0.16405200  0.74315100  1
  Fe  Fe5  1  0.16405200  0.83594800  0.24315100  1
  O  O0  1  0.83521800  0.16478200  0.14215600  1
  O  O1  1  0.67043600  0.83521800  0.64215600  1
  O  O2  1  0.16478200  0.32956400  0.64215600  1
  O  O3  1  0.83521800  0.67043600  0.14215600  1
  O  O4  1  0.32956400  0.16478200  0.14215600  1
  O  O5  1  0.16478200  0.83521800  0.64215600  1
  O  O6  1  0.51887500  0.48112500  0.86809900  1
  O  O7  1  0.03775000  0.51887500  0.36809900  1
  O  O8  1  0.48112500  0.96225000  0.36809900  1
  O  O9  1  0.51887500  0.03775000  0.86809900  1
  O  O10  1  0.00000000  0.00000000  0.35187500  1
  O  O11  1  0.00000000  0.00000000  0.85187500  1
  O  O12  1  0.33333300  0.66666700  0.13260600  1
  O  O13  1  0.96225000  0.48112500  0.86809900  1
  O  O14  1  0.48112500  0.51887500  0.36809900  1
  O  O15  1  0.66666700  0.33333300  0.63260600  1
loop_
_geom_bond_atom_site_label_1
_geom_bond_atom_site_label_2
_geom_bond_distance
_geom_bond_site_symmetry_2
Fe0 O3 1.942920 1_555
Fe0 O0 1.942924 1_565
Fe0 O10 1.976524 1_665
Fe0 O14 2.023028 1_555
Fe0 O8 2.023032 1_555
Fe0 O12 2.031519 1_555
Fe1 O1 1.942924 1_545
Fe1 O2 1.942924 1_655
Fe1 O11 1.976529 1_655
Fe1 O13 2.023028 1_555
Fe1 O9 2.023028 1_555
Fe1 O15 2.031510 1_555
Fe2 O4 1.942920 1_555
Fe2 O0 1.942924 1_455
Fe2 O10 1.976524 1_555
Fe2 O14 2.023028 1_555
Fe2 O7 2.023032 1_555
Fe2 O12 2.031519 1_555
Fe3 O1 1.942920 1_555
Fe3 O5 1.942924 1_655
Fe3 O11 1.976524 1_665
Fe3 O6 2.023028 1_555
Fe3 O13 2.023032 1_555
Fe3 O15 2.031519 1_555
Fe4 O2 1.942920 1_555
Fe4 O5 1.942924 1_545
Fe4 O11 1.976524 1_555
Fe4 O6 2.023028 1_555
Fe4 O9 2.023032 1_555
Fe4 O15 2.031519 1_555
Fe5 O3 1.942924 1_455
Fe5 O4 1.942924 1_565
Fe5 O10 1.976529 1_565
Fe5 O8 2.023028 1_555
Fe5 O7 2.023028 1_555
Fe5 O12 2.031510 1_555
O0 Zn0 2.040698 1_555
O1 Zn1 2.040703 1_555
O2 Zn1 2.040703 1_555
O3 Zn0 2.040703 1_555
O4 Zn0 2.040703 1_555
O5 Zn1 2.040698 1_555
O6 Zn3 1.973095 1_555
O6 Zn0 2.146312 1_556
O7 Zn2 1.973090 1_455
O7 Zn1 2.146308 1_555
O8 Zn2 1.973090 1_565
O8 Zn1 2.146308 1_555
O9 Zn3 1.973090 1_545
O9 Zn0 2.146308 1_556
O12 Zn3 2.003622 1_554
O13 Zn3 1.973090 1_655
O13 Zn0 2.146308 1_556
O14 Zn2 1.973095 1_555
O14 Zn1 2.146312 1_555
O15 Zn2 2.003622 1_555
