# generated using pymatgen
data_Li3Mn4O8
_symmetry_space_group_name_H-M   'P 1'
_cell_length_a   8.35787200
_cell_length_b   8.88809956
_cell_length_c   10.12754406
_cell_angle_alpha   116.01511995
_cell_angle_beta   114.00596833
_cell_angle_gamma   89.78675433
_symmetry_Int_Tables_number   1
_chemical_formula_structural   Li3Mn4O8
_chemical_formula_sum   'Li12 Mn16 O32'
_cell_volume   603.47285634
_cell_formula_units_Z   4
loop_
 _symmetry_equiv_pos_site_id
 _symmetry_equiv_pos_as_xyz
  1  'x, y, z'
loop_
 _atom_site_type_symbol
 _atom_site_label
 _atom_site_symmetry_multiplicity
 _atom_site_fract_x
 _atom_site_fract_y
 _atom_site_fract_z
 _atom_site_occupancy
  Li  Li0  1  0.74994000  0.23741200  0.00055700  1
  Li  Li1  1  0.62705300  0.88046100  0.75085100  1
  Li  Li2  1  0.12510500  0.87332400  0.75072300  1
  Li  Li3  1  0.62462000  0.37474500  0.74925600  1
  Li  Li4  1  0.24964300  0.73628000  0.99907400  1
  Li  Li5  1  0.12232800  0.36568400  0.74801300  1
  Li  Li6  1  0.50046300  0.51407900  0.50349100  1
  Li  Li7  1  0.99939400  0.98563700  0.49626400  1
  Li  Li8  1  0.87256700  0.61596600  0.24852700  1
  Li  Li9  1  0.37497400  0.62475600  0.24970900  1
  Li  Li10  1  0.87553500  0.12321900  0.25125000  1
  Li  Li11  1  0.37753400  0.13265000  0.25156500  1
  Mn  Mn0  1  0.37451300  0.12397200  0.74949600  1
  Mn  Mn1  1  0.00064800  0.50042300  0.50094200  1
  Mn  Mn2  1  0.24962000  0.74952200  0.49974800  1
  Mn  Mn3  1  0.12550200  0.37508200  0.25027100  1
  Mn  Mn4  1  0.75018600  0.74969600  0.50004700  1
  Mn  Mn5  1  0.25025700  0.24970700  0.50012500  1
  Mn  Mn6  1  0.49894000  0.99839200  0.99970300  1
  Mn  Mn7  1  0.87484900  0.62490800  0.75000100  1
  Mn  Mn8  1  0.49932000  0.99816500  0.49912000  1
  Mn  Mn9  1  0.74968600  0.24953100  0.49982200  1
  Mn  Mn10  1  0.00291200  0.99878800  0.00151000  1
  Mn  Mn11  1  0.62486200  0.87417100  0.24963400  1
  Mn  Mn12  1  0.25006600  0.25034600  0.99995700  1
  Mn  Mn13  1  0.50092200  0.49868100  0.99939700  1
  Mn  Mn14  1  0.75010500  0.75036100  0.00004600  1
  Mn  Mn15  1  0.99854500  0.49864300  0.99960500  1
  O  O0  1  0.48207000  0.25007300  0.98847900  1
  O  O1  1  0.37893800  0.90997400  0.75744200  1
  O  O2  1  0.98224600  0.74988800  0.98898300  1
  O  O3  1  0.59922800  0.11789500  0.73928100  1
  O  O4  1  0.23442300  0.50133000  0.48888400  1
  O  O5  1  0.24063100  0.47350100  0.99902600  1
  O  O6  1  0.87066700  0.83957200  0.74304600  1
  O  O7  1  0.15000500  0.13034600  0.76050900  1
  O  O8  1  0.74133100  0.97445300  0.99978200  1
  O  O9  1  0.37056600  0.33816700  0.74200700  1
  O  O10  1  0.99132600  0.72541200  0.49958200  1
  O  O11  1  0.65062200  0.63026600  0.76107600  1
  O  O12  1  0.26556100  0.99791100  0.51115100  1
  O  O13  1  0.90059800  0.38022400  0.26072000  1
  O  O14  1  0.49092900  0.22076000  0.49922600  1
  O  O15  1  0.11957600  0.58883000  0.24215100  1
  O  O16  1  0.87916300  0.40995900  0.75710700  1
  O  O17  1  0.50868700  0.77329600  0.50033600  1
  O  O18  1  0.09963300  0.62137500  0.74017700  1
  O  O19  1  0.73350100  0.99919300  0.48808300  1
  O  O20  1  0.35000800  0.37074000  0.23955800  1
  O  O21  1  0.00919300  0.27797900  0.50082000  1
  O  O22  1  0.63029000  0.65964100  0.25718100  1
  O  O23  1  0.25905400  0.02991800  0.00089800  1
  O  O24  1  0.84917400  0.87112200  0.23893000  1
  O  O25  1  0.13048200  0.16106800  0.25828200  1
  O  O26  1  0.75833900  0.52887300  0.00028600  1
  O  O27  1  0.76633800  0.49998000  0.51187200  1
  O  O28  1  0.40015400  0.87680100  0.25979100  1
  O  O29  1  0.01807200  0.24906800  0.01161300  1
  O  O30  1  0.61929000  0.08891300  0.24247100  1
  O  O31  1  0.51766900  0.74905700  0.01095700  1
loop_
_geom_bond_atom_site_label_1
_geom_bond_atom_site_label_2
_geom_bond_distance
_geom_bond_site_symmetry_2
Li0 O13 2.125457 1_555
Li0 O3 2.132854 1_554
Li0 O0 2.197118 1_554
Li0 O29 2.198361 1_655
Li0 O8 2.335052 1_544
Li0 O26 2.592981 1_555
Li1 O8 2.040855 1_555
Li1 O17 2.041505 1_555
Li1 O6 2.093861 1_555
Li1 O1 2.113474 1_555
Li1 O3 2.170813 1_565
Li1 O11 2.275252 1_555
Li2 O10 2.052169 1_455
Li2 O23 2.054303 1_566
Li2 O6 2.113778 1_455
Li2 O1 2.116544 1_555
Li2 O18 2.201511 1_555
Li2 O7 2.249430 1_565
Li3 O14 2.050061 1_555
Li3 O26 2.057541 1_556
Li3 O16 2.115600 1_555
Li3 O9 2.115908 1_555
Li3 O11 2.227881 1_555
Li3 O3 2.247392 1_555
Li4 O18 2.115538 1_555
Li4 O28 2.128473 1_556
Li4 O31 2.194561 1_556
Li4 O2 2.200616 1_455
Li4 O5 2.336881 1_555
Li4 O23 2.603090 1_566
Li5 O21 2.033851 1_555
Li5 O5 2.045317 1_555
Li5 O16 2.099597 1_455
Li5 O9 2.110432 1_555
Li5 O7 2.156283 1_555
Li5 O18 2.312957 1_555
Li6 O11 2.104610 1_555
Li6 O20 2.153827 1_555
Li6 O4 2.167564 1_555
Li6 O27 2.194230 1_555
Li6 O17 2.319797 1_555
Li6 O14 2.589378 1_555
Li7 O24 2.103471 1_555
Li7 O7 2.156911 1_665
Li7 O12 2.167466 1_655
Li7 O19 2.194754 1_555
Li7 O10 2.329462 1_555
Li7 O21 2.579472 1_665
Li8 O26 2.043677 1_555
Li8 O10 2.044566 1_555
Li8 O22 2.089828 1_555
Li8 O15 2.101304 1_655
Li8 O13 2.158747 1_555
Li8 O24 2.316338 1_555
Li9 O17 2.048880 1_555
Li9 O5 2.052157 1_554
Li9 O22 2.123285 1_555
Li9 O15 2.124843 1_555
Li9 O28 2.204221 1_555
Li9 O20 2.221228 1_555
Li10 O21 2.047595 1_655
Li10 O8 2.055523 1_544
Li10 O30 2.124557 1_555
Li10 O25 2.125901 1_655
Li10 O24 2.195619 1_545
Li10 O13 2.250794 1_555
Li11 O14 2.037361 1_555
Li11 O23 2.046192 1_555
Li11 O30 2.087211 1_555
Li11 O25 2.104110 1_555
Li11 O20 2.178354 1_555
Li11 O28 2.316027 1_545
Mn0 O3 1.921839 1_555
Mn0 O7 1.923672 1_555
Mn0 O9 1.937887 1_555
Mn0 O1 1.938274 1_545
Mn0 O12 1.938523 1_545
Mn0 O0 1.944165 1_555
Mn1 O18 1.949672 1_555
Mn1 O13 1.957232 1_455
Mn1 O21 1.977605 1_555
Mn1 O27 2.006031 1_455
Mn1 O10 2.006810 1_455
Mn1 O4 2.006907 1_555
Mn2 O15 2.112592 1_555
Mn2 O1 2.112940 1_555
Mn2 O12 2.161267 1_555
Mn2 O4 2.161546 1_555
Mn2 O10 2.169439 1_455
Mn2 O17 2.173660 1_555
Mn3 O20 1.922380 1_555
Mn3 O13 1.924474 1_455
Mn3 O15 1.936890 1_555
Mn3 O25 1.938720 1_555
Mn3 O4 1.940761 1_555
Mn3 O29 1.941539 1_555
Mn4 O22 1.992015 1_555
Mn4 O6 1.993401 1_555
Mn4 O10 2.027833 1_555
Mn4 O17 2.029565 1_555
Mn4 O19 2.274055 1_555
Mn4 O27 2.275199 1_555
Mn5 O25 1.984926 1_555
Mn5 O9 1.985512 1_555
Mn5 O14 2.030130 1_555
Mn5 O21 2.031935 1_555
Mn5 O4 2.289338 1_555
Mn5 O12 2.289736 1_545
Mn6 O1 1.988834 1_555
Mn6 O30 1.990615 1_566
Mn6 O23 2.027565 1_566
Mn6 O8 2.035941 1_555
Mn6 O31 2.270050 1_556
Mn6 O0 2.290084 1_565
Mn7 O18 1.920773 1_655
Mn7 O11 1.921622 1_555
Mn7 O27 1.936584 1_555
Mn7 O6 1.939553 1_555
Mn7 O16 1.942789 1_555
Mn7 O2 1.943918 1_555
Mn8 O28 1.950373 1_555
Mn8 O3 1.956805 1_565
Mn8 O14 1.978973 1_565
Mn8 O17 2.005133 1_555
Mn8 O19 2.005608 1_555
Mn8 O12 2.006457 1_555
Mn9 O16 2.109902 1_555
Mn9 O30 2.110733 1_555
Mn9 O14 2.175927 1_555
Mn9 O27 2.177061 1_555
Mn9 O19 2.177222 1_545
Mn9 O21 2.179972 1_655
Mn10 O25 2.108274 1_565
Mn10 O6 2.117599 1_454
Mn10 O23 2.162484 1_565
Mn10 O2 2.163049 1_454
Mn10 O29 2.183316 1_565
Mn10 O8 2.189952 1_454
Mn11 O24 1.920849 1_555
Mn11 O28 1.921736 1_555
Mn11 O19 1.939173 1_555
Mn11 O22 1.941141 1_555
Mn11 O30 1.941242 1_565
Mn11 O31 1.941534 1_555
Mn12 O7 1.950719 1_555
Mn12 O20 1.952092 1_556
Mn12 O23 1.964394 1_556
Mn12 O5 1.988696 1_555
Mn12 O0 1.989118 1_555
Mn12 O29 1.990294 1_556
Mn13 O9 2.110889 1_555
Mn13 O22 2.114225 1_556
Mn13 O26 2.165013 1_556
Mn13 O0 2.166496 1_555
Mn13 O31 2.178531 1_556
Mn13 O5 2.186103 1_555
Mn14 O24 1.946660 1_555
Mn14 O11 1.947076 1_554
Mn14 O26 1.970586 1_555
Mn14 O2 1.988308 1_554
Mn14 O31 1.990546 1_555
Mn14 O8 1.993962 1_554
Mn15 O15 1.989138 1_656
Mn15 O16 1.990536 1_555
Mn15 O26 2.026911 1_556
Mn15 O5 2.036897 1_655
Mn15 O29 2.275927 1_656
Mn15 O2 2.283279 1_555
