# generated using pymatgen
data_NaLuTiO4
_symmetry_space_group_name_H-M   'P 1'
_cell_length_a   5.26407200
_cell_length_b   5.40383800
_cell_length_c   12.30041100
_cell_angle_alpha   90.00000000
_cell_angle_beta   90.00000000
_cell_angle_gamma   90.00000000
_symmetry_Int_Tables_number   1
_chemical_formula_structural   NaLuTiO4
_chemical_formula_sum   'Na4 Lu4 Ti4 O16'
_cell_volume   349.89985678
_cell_formula_units_Z   4
loop_
 _symmetry_equiv_pos_site_id
 _symmetry_equiv_pos_as_xyz
  1  'x, y, z'
loop_
 _atom_site_type_symbol
 _atom_site_label
 _atom_site_symmetry_multiplicity
 _atom_site_fract_x
 _atom_site_fract_y
 _atom_site_fract_z
 _atom_site_occupancy
  Na  Na0  1  0.25000000  0.49949200  0.58671600  1
  Na  Na1  1  0.75000000  0.50050800  0.41328400  1
  Na  Na2  1  0.25000000  0.99949200  0.41328400  1
  Na  Na3  1  0.75000000  0.00050800  0.58671600  1
  Lu  Lu0  1  0.25000000  0.96991900  0.10405300  1
  Lu  Lu1  1  0.75000000  0.03008100  0.89594700  1
  Lu  Lu2  1  0.25000000  0.46991900  0.89594700  1
  Lu  Lu3  1  0.75000000  0.53008100  0.10405300  1
  Ti  Ti0  1  0.25000000  0.49127400  0.25746700  1
  Ti  Ti1  1  0.75000000  0.50872600  0.74253300  1
  Ti  Ti2  1  0.25000000  0.99127400  0.74253300  1
  Ti  Ti3  1  0.75000000  0.00872600  0.25746700  1
  O  O0  1  0.25000000  0.58200100  0.05956300  1
  O  O1  1  0.75000000  0.41799900  0.94043700  1
  O  O2  1  0.25000000  0.08200100  0.94043700  1
  O  O3  1  0.75000000  0.91799900  0.05956300  1
  O  O4  1  0.00000000  0.75000000  0.23698600  1
  O  O5  1  0.00000000  0.25000000  0.76301400  1
  O  O6  1  0.50000000  0.25000000  0.76301400  1
  O  O7  1  0.50000000  0.75000000  0.23698600  1
  O  O8  1  0.25000000  0.95902400  0.59986100  1
  O  O9  1  0.75000000  0.04097600  0.40013900  1
  O  O10  1  0.25000000  0.45902400  0.40013900  1
  O  O11  1  0.75000000  0.54097600  0.59986100  1
  O  O12  1  0.00000000  0.75000000  0.79640500  1
  O  O13  1  0.00000000  0.25000000  0.20359500  1
  O  O14  1  0.50000000  0.25000000  0.20359500  1
  O  O15  1  0.50000000  0.75000000  0.79640500  1
loop_
_geom_bond_atom_site_label_1
_geom_bond_atom_site_label_2
_geom_bond_distance
_geom_bond_site_symmetry_2
Na0 O10 2.305369 1_555
Na0 O8 2.488495 1_555
Na0 O11 2.646509 1_555
Na0 O11 2.646509 1_455
Na0 O6 2.872654 1_555
Na0 O5 2.872654 1_555
Na0 O8 2.925074 1_545
Na1 O11 2.305369 1_555
Na1 O9 2.488495 1_555
Na1 O10 2.646509 1_555
Na1 O10 2.646509 1_655
Na1 O7 2.872654 1_555
Na1 O4 2.872654 1_655
Na1 O9 2.925074 1_565
Na2 O8 2.305369 1_555
Na2 O10 2.488495 1_565
Na2 O9 2.646509 1_565
Na2 O9 2.646509 1_465
Na2 O4 2.872654 1_555
Na2 O7 2.872654 1_555
Na2 O10 2.925074 1_555
Na3 O9 2.305369 1_555
Na3 O11 2.488495 1_545
Na3 O8 2.646509 1_545
Na3 O8 2.646509 1_645
Na3 O6 2.872654 1_555
Na3 O5 2.872654 1_655
Na3 O11 2.925074 1_555
Lu0 O2 2.101707 1_564
Lu0 O0 2.166501 1_555
Lu0 O13 2.349850 1_565
Lu0 O14 2.349850 1_565
Lu0 O4 2.412025 1_555
Lu0 O7 2.412025 1_555
Lu0 O3 2.702926 1_455
Lu0 O3 2.702926 1_555
Lu1 O3 2.101707 1_546
Lu1 O1 2.166501 1_555
Lu1 O15 2.349850 1_545
Lu1 O12 2.349850 1_645
Lu1 O6 2.412025 1_555
Lu1 O5 2.412025 1_655
Lu1 O2 2.702926 1_655
Lu1 O2 2.702926 1_555
Lu2 O0 2.101707 1_556
Lu2 O2 2.166501 1_555
Lu2 O15 2.349850 1_555
Lu2 O12 2.349850 1_555
Lu2 O6 2.412025 1_555
Lu2 O5 2.412025 1_555
Lu2 O1 2.702926 1_455
Lu2 O1 2.702926 1_555
Lu3 O1 2.101707 1_554
Lu3 O3 2.166501 1_555
Lu3 O14 2.349850 1_555
Lu3 O13 2.349850 1_655
Lu3 O7 2.412025 1_555
Lu3 O4 2.412025 1_655
Lu3 O0 2.702926 1_555
Lu3 O0 2.702926 1_655
O0 Ti0 2.483181 1_555
O1 Ti1 2.483181 1_555
O2 Ti2 2.483181 1_545
O3 Ti3 2.483181 1_565
O4 Ti3 1.936515 1_465
O4 Ti0 1.936515 1_555
O5 Ti2 1.936515 1_545
O5 Ti1 1.936515 1_455
O6 Ti2 1.936515 1_545
O6 Ti1 1.936515 1_555
O7 Ti3 1.936515 1_565
O7 Ti0 1.936515 1_555
O8 Ti2 1.763556 1_555
O9 Ti3 1.763556 1_555
O10 Ti0 1.763556 1_555
O11 Ti1 1.763556 1_555
O12 Ti2 1.967464 1_555
O12 Ti1 1.967464 1_455
O13 Ti0 1.967464 1_555
O13 Ti3 1.967464 1_455
O14 Ti0 1.967464 1_555
O14 Ti3 1.967464 1_555
O15 Ti2 1.967464 1_555
O15 Ti1 1.967464 1_555
