# generated using pymatgen
data_Hf2CoCu
_symmetry_space_group_name_H-M   'P 1'
_cell_length_a   4.50884801
_cell_length_b   4.50884801
_cell_length_c   4.50884801
_cell_angle_alpha   60.00000000
_cell_angle_beta   60.00000000
_cell_angle_gamma   60.00000000
_symmetry_Int_Tables_number   1
_chemical_formula_structural   Hf2CoCu
_chemical_formula_sum   'Hf2 Co1 Cu1'
_cell_volume   64.81593469
_cell_formula_units_Z   1
loop_
 _symmetry_equiv_pos_site_id
 _symmetry_equiv_pos_as_xyz
  1  'x, y, z'
loop_
 _atom_site_type_symbol
 _atom_site_label
 _atom_site_symmetry_multiplicity
 _atom_site_fract_x
 _atom_site_fract_y
 _atom_site_fract_z
 _atom_site_occupancy
  Hf  Hf0  1  0.25000000  0.25000000  0.25000000  1
  Hf  Hf1  1  0.75000000  0.75000000  0.75000000  1
  Co  Co0  1  0.50000000  0.50000000  0.50000000  1
  Cu  Cu0  1  0.00000000  0.00000000  0.00000000  1
loop_
_geom_bond_atom_site_label_1
_geom_bond_atom_site_label_2
_geom_bond_distance
_geom_bond_site_symmetry_2
Co0 Hf1 2.761094 1_455
Co0 Hf0 2.761094 1_655
Co0 Hf0 2.761094 1_565
Co0 Hf1 2.761094 1_545
Co0 Hf0 2.761094 1_555
Co0 Hf0 2.761094 1_556
Co0 Hf1 2.761094 1_554
Co0 Hf1 2.761094 1_555
Cu0 Hf0 2.761094 1_545
Cu0 Hf1 2.761094 1_454
Cu0 Hf0 2.761094 1_455
Cu0 Hf1 2.761094 1_544
Cu0 Hf0 2.761094 1_555
Cu0 Hf0 2.761094 1_554
Cu0 Hf1 2.761094 1_445
Cu0 Hf1 2.761094 1_444
