# generated using pymatgen
data_Li7Mn4CoO12
_symmetry_space_group_name_H-M   'P 1'
_cell_length_a   5.08488983
_cell_length_b   10.32993338
_cell_length_c   8.64715297
_cell_angle_alpha   90.27782869
_cell_angle_beta   106.50517206
_cell_angle_gamma   97.86421682
_symmetry_Int_Tables_number   1
_chemical_formula_structural   Li7Mn4CoO12
_chemical_formula_sum   'Li14 Mn8 Co2 O24'
_cell_volume   430.93632050
_cell_formula_units_Z   2
loop_
 _symmetry_equiv_pos_site_id
 _symmetry_equiv_pos_as_xyz
  1  'x, y, z'
loop_
 _atom_site_type_symbol
 _atom_site_label
 _atom_site_symmetry_multiplicity
 _atom_site_fract_x
 _atom_site_fract_y
 _atom_site_fract_z
 _atom_site_occupancy
  Li  Li0  1  0.99794800  0.25140400  0.83333400  1
  Li  Li1  1  0.00142000  0.74903500  0.83060400  1
  Li  Li2  1  0.47644100  0.12511500  0.91061700  1
  Li  Li3  1  0.49491200  0.62824100  0.90898700  1
  Li  Li4  1  0.51551100  0.37627600  0.75279500  1
  Li  Li5  1  0.51197600  0.86932000  0.75075300  1
  Li  Li6  1  0.49742000  0.37701100  0.08201900  1
  Li  Li7  1  0.50156600  0.87609900  0.07877700  1
  Li  Li8  1  0.49062400  0.12132100  0.58428900  1
  Li  Li9  1  0.49999600  0.61530300  0.58927800  1
  Li  Li10  1  0.51406400  0.38526600  0.42063000  1
  Li  Li11  1  0.50453700  0.87668600  0.42081800  1
  Li  Li12  1  0.49799800  0.12399700  0.25128000  1
  Li  Li13  1  0.49242700  0.62003600  0.25205500  1
  Mn  Mn0  1  0.99225200  0.99821500  0.99651100  1
  Mn  Mn1  1  0.00688100  0.50374900  0.99973100  1
  Mn  Mn2  1  0.99967900  0.99932400  0.66590000  1
  Mn  Mn3  1  0.00298200  0.49968400  0.66785400  1
  Mn  Mn4  1  0.99601800  0.24911400  0.16434200  1
  Mn  Mn5  1  0.00127000  0.75185700  0.16242300  1
  Mn  Mn6  1  0.99915700  0.24919200  0.50317600  1
  Mn  Mn7  1  0.00257900  0.75005500  0.50302800  1
  Co  Co0  1  0.00444100  0.50043200  0.33514400  1
  Co  Co1  1  0.99507000  0.99721700  0.33225700  1
  O  O0  1  0.22977000  0.44929000  0.87452600  1
  O  O1  1  0.22468900  0.94722200  0.87050400  1
  O  O2  1  0.76869100  0.05043900  0.79542000  1
  O  O3  1  0.77894700  0.55503700  0.79781700  1
  O  O4  1  0.21233300  0.17042200  0.04480800  1
  O  O5  1  0.22434100  0.68187400  0.04757200  1
  O  O6  1  0.78045200  0.32532400  0.62330200  1
  O  O7  1  0.78413400  0.82479500  0.62238100  1
  O  O8  1  0.21724800  0.17408300  0.69668000  1
  O  O9  1  0.22728600  0.67575200  0.69598900  1
  O  O10  1  0.77910700  0.33159400  0.97440900  1
  O  O11  1  0.77848100  0.82124100  0.97008000  1
  O  O12  1  0.24211900  0.44049500  0.55372700  1
  O  O13  1  0.22913500  0.94749600  0.53861300  1
  O  O14  1  0.76450200  0.04945900  0.12604100  1
  O  O15  1  0.78206800  0.58090400  0.12048100  1
  O  O16  1  0.20839000  0.17331400  0.36722100  1
  O  O17  1  0.22734500  0.69799300  0.36668900  1
  O  O18  1  0.77081500  0.30586500  0.29557800  1
  O  O19  1  0.78633700  0.81933300  0.29411600  1
  O  O20  1  0.24390400  0.44455500  0.19638200  1
  O  O21  1  0.21340600  0.93106200  0.19958700  1
  O  O22  1  0.76682200  0.05035600  0.46053500  1
  O  O23  1  0.76251100  0.55814000  0.47094000  1
loop_
_geom_bond_atom_site_label_1
_geom_bond_atom_site_label_2
_geom_bond_distance
_geom_bond_site_symmetry_2
Li0 O6 2.051326 1_555
Li0 O8 2.064238 1_655
Li0 O4 2.088976 1_656
Li0 O10 2.103897 1_555
Li0 O0 2.188591 1_655
Li0 O2 2.211341 1_555
Li1 O7 2.048183 1_455
Li1 O9 2.058181 1_555
Li1 O11 2.072575 1_455
Li1 O5 2.074994 1_556
Li1 O3 2.137276 1_455
Li1 O1 2.175720 1_555
Li2 O8 2.054591 1_555
Li2 O1 2.057593 1_545
Li2 O4 2.102670 1_556
Li2 O2 2.223298 1_555
Li2 O14 2.236813 1_556
Li2 O10 2.414564 1_555
Li3 O9 2.062151 1_555
Li3 O15 2.098214 1_556
Li3 O0 2.099525 1_555
Li3 O3 2.159308 1_555
Li3 O5 2.185151 1_556
Li3 O11 2.259037 1_555
Li4 O12 2.059001 1_555
Li4 O3 2.091803 1_555
Li4 O6 2.095533 1_555
Li4 O10 2.097695 1_555
Li4 O0 2.224679 1_555
Li4 O8 2.367112 1_555
Li5 O2 2.095659 1_565
Li5 O7 2.097862 1_555
Li5 O11 2.100708 1_555
Li5 O13 2.217831 1_555
Li5 O1 2.242093 1_555
Li5 O9 2.264337 1_555
Li6 O10 2.018556 1_554
Li6 O20 2.022460 1_555
Li6 O0 2.128972 1_554
Li6 O18 2.171866 1_555
Li6 O15 2.350983 1_555
Li6 O4 2.375055 1_555
Li7 O11 2.037761 1_554
Li7 O14 2.046650 1_565
Li7 O19 2.149146 1_555
Li7 O1 2.149556 1_554
Li7 O21 2.156925 1_555
Li7 O5 2.256098 1_555
Li8 O8 2.035616 1_555
Li8 O13 2.046828 1_545
Li8 O16 2.135733 1_555
Li8 O2 2.167482 1_555
Li8 O22 2.187023 1_555
Li8 O6 2.363754 1_555
Li9 O9 2.030454 1_555
Li9 O23 2.040495 1_555
Li9 O12 2.047512 1_555
Li9 O3 2.109613 1_555
Li9 O17 2.276007 1_555
Li9 O7 2.399139 1_555
Li10 O23 2.009246 1_555
Li10 O6 2.044697 1_555
Li10 O18 2.152463 1_555
Li10 O12 2.162418 1_555
Li10 O20 2.179573 1_555
Li10 O16 2.464536 1_555
Li11 O7 2.038648 1_555
Li11 O22 2.047957 1_565
Li11 O17 2.125518 1_555
Li11 O13 2.148776 1_555
Li11 O19 2.173174 1_555
Li11 O21 2.189856 1_555
Li12 O4 2.062264 1_555
Li12 O16 2.114833 1_555
Li12 O18 2.139749 1_555
Li12 O22 2.147985 1_555
Li12 O14 2.171037 1_555
Li12 O21 2.258451 1_545
Li13 O20 2.033133 1_555
Li13 O5 2.067002 1_555
Li13 O17 2.120482 1_555
Li13 O23 2.156937 1_555
Li13 O15 2.176590 1_555
Li13 O19 2.333685 1_555
Mn0 O2 1.913295 1_565
Mn0 O1 1.938602 1_655
Mn0 O4 1.942596 1_666
Mn0 O14 1.942924 1_566
Mn0 O11 1.971511 1_555
Mn0 O21 1.983096 1_656
Mn1 O0 1.907602 1_555
Mn1 O3 1.923445 1_455
Mn1 O20 1.940446 1_556
Mn1 O10 1.959693 1_455
Mn1 O15 1.987892 1_456
Mn1 O5 1.988828 1_556
Mn2 O13 1.937615 1_655
Mn2 O1 1.938173 1_655
Mn2 O7 1.952322 1_555
Mn2 O22 1.954115 1_565
Mn2 O2 1.955543 1_565
Mn2 O8 1.958365 1_665
Mn3 O12 1.925054 1_555
Mn3 O3 1.946051 1_455
Mn3 O23 1.946311 1_455
Mn3 O0 1.948575 1_555
Mn3 O6 1.964872 1_455
Mn3 O9 1.984532 1_555
Mn4 O4 1.954883 1_655
Mn4 O18 1.964295 1_555
Mn4 O10 1.970105 1_554
Mn4 O16 2.006286 1_655
Mn4 O20 2.200284 1_655
Mn4 O14 2.203765 1_555
Mn5 O5 1.911298 1_555
Mn5 O15 1.928181 1_455
Mn5 O11 1.930419 1_454
Mn5 O17 1.944688 1_555
Mn5 O19 1.971047 1_455
Mn5 O21 1.986081 1_555
Mn6 O6 1.954998 1_555
Mn6 O8 1.955830 1_655
Mn6 O18 1.981224 1_555
Mn6 O16 2.014537 1_655
Mn6 O12 2.153883 1_655
Mn6 O22 2.198075 1_555
Mn7 O7 1.942516 1_455
Mn7 O9 1.961609 1_555
Mn7 O17 1.978142 1_555
Mn7 O19 2.020846 1_455
Mn7 O23 2.153436 1_455
Mn7 O13 2.175113 1_555
Co0 O23 2.064526 1_455
Co0 O20 2.066726 1_555
Co0 O12 2.081989 1_555
Co0 O15 2.120078 1_455
Co0 O18 2.162607 1_455
Co0 O17 2.170223 1_555
Co1 O22 1.943888 1_565
Co1 O13 1.958023 1_655
Co1 O14 1.959614 1_565
Co1 O16 1.960965 1_665
Co1 O19 1.968080 1_555
Co1 O21 1.984792 1_655
