# generated using pymatgen
data_BaLaCuS3
_symmetry_space_group_name_H-M   'P 1'
_cell_length_a   4.25783500
_cell_length_b   11.35338900
_cell_length_c   11.89310300
_cell_angle_alpha   90.00000000
_cell_angle_beta   90.00000000
_cell_angle_gamma   90.00000000
_symmetry_Int_Tables_number   1
_chemical_formula_structural   BaLaCuS3
_chemical_formula_sum   'Ba4 La4 Cu4 S12'
_cell_volume   574.92279204
_cell_formula_units_Z   4
loop_
 _symmetry_equiv_pos_site_id
 _symmetry_equiv_pos_as_xyz
  1  'x, y, z'
loop_
 _atom_site_type_symbol
 _atom_site_label
 _atom_site_symmetry_multiplicity
 _atom_site_fract_x
 _atom_site_fract_y
 _atom_site_fract_z
 _atom_site_occupancy
  Ba  Ba0  1  0.25000000  0.31665600  0.00780900  1
  Ba  Ba1  1  0.75000000  0.68334400  0.99219100  1
  Ba  Ba2  1  0.75000000  0.18334400  0.50780900  1
  Ba  Ba3  1  0.25000000  0.81665600  0.49219100  1
  La  La0  1  0.25000000  0.98961200  0.81800300  1
  La  La1  1  0.75000000  0.01038800  0.18199700  1
  La  La2  1  0.25000000  0.48961200  0.68199700  1
  La  La3  1  0.75000000  0.51038800  0.31800300  1
  Cu  Cu0  1  0.25000000  0.74788800  0.20836100  1
  Cu  Cu1  1  0.25000000  0.24788800  0.29163900  1
  Cu  Cu2  1  0.75000000  0.25211200  0.79163900  1
  Cu  Cu3  1  0.75000000  0.75211200  0.70836100  1
  S  S0  1  0.75000000  0.94879900  0.65137100  1
  S  S1  1  0.25000000  0.05120100  0.34862900  1
  S  S2  1  0.75000000  0.44879900  0.84862900  1
  S  S3  1  0.25000000  0.55120100  0.15137100  1
  S  S4  1  0.25000000  0.88939400  0.06018300  1
  S  S5  1  0.75000000  0.11060600  0.93981700  1
  S  S6  1  0.25000000  0.38939400  0.43981700  1
  S  S7  1  0.75000000  0.77487000  0.29581300  1
  S  S8  1  0.25000000  0.72513000  0.79581300  1
  S  S9  1  0.75000000  0.27487000  0.20418700  1
  S  S10  1  0.25000000  0.22513000  0.70418700  1
  S  S11  1  0.75000000  0.61060600  0.56018300  1
loop_
_geom_bond_atom_site_label_1
_geom_bond_atom_site_label_2
_geom_bond_distance
_geom_bond_site_symmetry_2
Ba0 S3 3.163248 1_555
Ba0 S9 3.195641 1_455
Ba0 S9 3.195641 1_555
Ba0 S2 3.219798 1_554
Ba0 S2 3.219798 1_454
Ba0 S5 3.264784 1_454
Ba0 S5 3.264784 1_554
Ba1 S2 3.163248 1_555
Ba1 S8 3.195641 1_555
Ba1 S8 3.195641 1_655
Ba1 S3 3.219798 1_556
Ba1 S3 3.219798 1_656
Ba1 S4 3.264784 1_556
Ba1 S4 3.264784 1_656
Ba2 S0 3.163248 1_545
Ba2 S10 3.195641 1_555
Ba2 S10 3.195641 1_655
Ba2 S1 3.219798 1_655
Ba2 S1 3.219798 1_555
Ba2 S6 3.264784 1_555
Ba2 S6 3.264784 1_655
Ba3 S1 3.163248 1_565
Ba3 S7 3.195641 1_455
Ba3 S7 3.195641 1_555
Ba3 S0 3.219798 1_455
Ba3 S0 3.219798 1_555
Ba3 S11 3.264784 1_455
Ba3 S11 3.264784 1_555
La0 S5 2.918593 1_465
La0 S5 2.918593 1_565
La0 S0 2.945236 1_455
La0 S0 2.945236 1_555
La0 S10 2.997030 1_565
La0 S8 3.014342 1_555
La0 S4 3.096867 1_556
La1 S4 2.918593 1_645
La1 S4 2.918593 1_545
La1 S1 2.945236 1_555
La1 S1 2.945236 1_655
La1 S7 2.997030 1_545
La1 S9 3.014342 1_555
La1 S5 3.096867 1_554
La2 S11 2.918593 1_455
La2 S11 2.918593 1_555
La2 S2 2.945236 1_555
La2 S2 2.945236 1_455
La2 S8 2.997030 1_555
La2 S10 3.014342 1_555
La2 S6 3.096867 1_555
La3 S6 2.918593 1_555
La3 S6 2.918593 1_655
La3 S3 2.945236 1_555
La3 S3 2.945236 1_655
La3 S9 2.997030 1_555
La3 S7 3.014342 1_555
La3 S11 3.096867 1_555
Cu0 S3 2.333661 1_555
Cu0 S4 2.384694 1_555
Cu0 S7 2.389119 1_455
Cu0 S7 2.389119 1_555
Cu1 S1 2.333661 1_555
Cu1 S6 2.384694 1_555
Cu1 S9 2.389119 1_455
Cu1 S9 2.389119 1_555
Cu2 S2 2.333661 1_555
Cu2 S5 2.384694 1_555
Cu2 S10 2.389119 1_655
Cu2 S10 2.389119 1_555
Cu3 S0 2.333661 1_555
Cu3 S11 2.384694 1_555
Cu3 S8 2.389119 1_655
Cu3 S8 2.389119 1_555
