# generated using pymatgen
data_MgScBO4
_symmetry_space_group_name_H-M   'P 1'
_cell_length_a   3.26244100
_cell_length_b   9.52631100
_cell_length_c   9.54241400
_cell_angle_alpha   90.00000000
_cell_angle_beta   90.00000000
_cell_angle_gamma   90.00000000
_symmetry_Int_Tables_number   1
_chemical_formula_structural   MgScBO4
_chemical_formula_sum   'Mg4 Sc4 B4 O16'
_cell_volume   296.56894793
_cell_formula_units_Z   4
loop_
 _symmetry_equiv_pos_site_id
 _symmetry_equiv_pos_as_xyz
  1  'x, y, z'
loop_
 _atom_site_type_symbol
 _atom_site_label
 _atom_site_symmetry_multiplicity
 _atom_site_fract_x
 _atom_site_fract_y
 _atom_site_fract_z
 _atom_site_occupancy
  Mg  Mg0  1  0.50000000  0.44178500  0.09797300  1
  Mg  Mg1  1  0.50000000  0.55821500  0.59797300  1
  Mg  Mg2  1  0.50000000  0.81869800  0.11889800  1
  Mg  Mg3  1  0.50000000  0.18130200  0.61889800  1
  Sc  Sc0  1  0.00000000  0.05667600  0.90285200  1
  Sc  Sc1  1  0.00000000  0.94332400  0.40285200  1
  Sc  Sc2  1  0.00000000  0.66747500  0.89160800  1
  Sc  Sc3  1  0.00000000  0.33252500  0.39160800  1
  B  B0  1  0.50000000  0.12812500  0.17473900  1
  B  B1  1  0.50000000  0.87187500  0.67473900  1
  B  B2  1  0.00000000  0.37392800  0.82614100  1
  B  B3  1  0.00000000  0.62607200  0.32614100  1
  O  O0  1  0.50000000  0.36565700  0.51014100  1
  O  O1  1  0.50000000  0.63434300  0.01014100  1
  O  O2  1  0.00000000  0.13204000  0.48621000  1
  O  O3  1  0.00000000  0.86796000  0.98621000  1
  O  O4  1  0.50000000  0.25913200  0.23416300  1
  O  O5  1  0.50000000  0.74086800  0.73416300  1
  O  O6  1  0.00000000  0.24096000  0.76310500  1
  O  O7  1  0.00000000  0.75904000  0.26310500  1
  O  O8  1  0.50000000  0.11500500  0.02927400  1
  O  O9  1  0.50000000  0.88499500  0.52927400  1
  O  O10  1  0.00000000  0.38976500  0.96949600  1
  O  O11  1  0.00000000  0.61023500  0.46949600  1
  O  O12  1  0.50000000  0.00271400  0.25266000  1
  O  O13  1  0.50000000  0.99728600  0.75266000  1
  O  O14  1  0.00000000  0.49560600  0.74273900  1
  O  O15  1  0.00000000  0.50439400  0.24273900  1
loop_
_geom_bond_atom_site_label_1
_geom_bond_atom_site_label_2
_geom_bond_distance
_geom_bond_site_symmetry_2
Mg0 O1 2.016771 1_555
Mg0 O10 2.099878 1_654
Mg0 O10 2.099878 1_554
Mg0 O4 2.171761 1_555
Mg0 O15 2.219217 1_555
Mg0 O15 2.219217 1_655
Mg1 O0 2.016771 1_555
Mg1 O11 2.099878 1_655
Mg1 O11 2.099878 1_555
Mg1 O5 2.171761 1_555
Mg1 O14 2.219217 1_655
Mg1 O14 2.219217 1_555
Mg2 O1 2.039941 1_555
Mg2 O3 2.117612 1_654
Mg2 O3 2.117612 1_554
Mg2 O12 2.168459 1_565
Mg2 O7 2.208500 1_655
Mg2 O7 2.208500 1_555
Mg3 O0 2.039941 1_555
Mg3 O2 2.117612 1_555
Mg3 O2 2.117612 1_655
Mg3 O13 2.168459 1_545
Mg3 O6 2.208500 1_655
Mg3 O6 2.208500 1_555
B0 O4 1.370796 1_555
B0 O8 1.393703 1_555
B0 O12 1.407193 1_555
B1 O5 1.370796 1_555
B1 O9 1.393703 1_555
B1 O13 1.407193 1_555
B2 O10 1.376247 1_555
B2 O6 1.402261 1_555
B2 O14 1.406058 1_555
B3 O11 1.376247 1_555
B3 O7 1.402261 1_555
B3 O15 1.406058 1_555
O0 Sc3 2.009942 1_555
O0 Sc3 2.009942 1_655
O1 Sc2 2.009942 1_654
O1 Sc2 2.009942 1_554
O2 Sc1 1.965881 1_545
O2 Sc3 2.112481 1_555
O3 Sc0 1.965881 1_565
O3 Sc2 2.112481 1_555
O4 Sc3 2.325281 1_655
O4 Sc3 2.325281 1_555
O5 Sc2 2.325281 1_655
O5 Sc2 2.325281 1_555
O6 Sc0 2.204593 1_555
O7 Sc1 2.204593 1_555
O8 Sc0 2.103561 1_554
O8 Sc0 2.103561 1_654
O9 Sc1 2.103561 1_555
O9 Sc1 2.103561 1_655
O12 Sc1 2.243885 1_545
O12 Sc1 2.243885 1_645
O13 Sc0 2.243885 1_665
O13 Sc0 2.243885 1_565
O14 Sc2 2.167648 1_555
O15 Sc3 2.167648 1_555
