# generated using pymatgen
data_Ho(ClO2)3
_symmetry_space_group_name_H-M   'P 1'
_cell_length_a   6.93414000
_cell_length_b   7.15752273
_cell_length_c   7.17924211
_cell_angle_alpha   106.40658664
_cell_angle_beta   90.00000000
_cell_angle_gamma   90.00000000
_symmetry_Int_Tables_number   1
_chemical_formula_structural   Ho(ClO2)3
_chemical_formula_sum   'Ho2 Cl6 O12'
_cell_volume   341.80626209
_cell_formula_units_Z   2
loop_
 _symmetry_equiv_pos_site_id
 _symmetry_equiv_pos_as_xyz
  1  'x, y, z'
loop_
 _atom_site_type_symbol
 _atom_site_label
 _atom_site_symmetry_multiplicity
 _atom_site_fract_x
 _atom_site_fract_y
 _atom_site_fract_z
 _atom_site_occupancy
  Ho  Ho0  1  0.18828100  0.25000000  0.75000000  1
  Ho  Ho1  1  0.81171900  0.75000000  0.25000000  1
  Cl  Cl0  1  0.13645300  0.74368400  0.49885400  1
  Cl  Cl1  1  0.86354700  0.25631600  0.50114600  1
  Cl  Cl2  1  0.13645300  0.75631600  0.00114600  1
  Cl  Cl3  1  0.86354700  0.24368400  0.99885400  1
  Cl  Cl4  1  0.64861100  0.75000000  0.75000000  1
  Cl  Cl5  1  0.35138900  0.25000000  0.25000000  1
  O  O0  1  0.07904400  0.94628700  0.66132100  1
  O  O1  1  0.92095600  0.05371300  0.33867900  1
  O  O2  1  0.07904400  0.55371300  0.83867900  1
  O  O3  1  0.92095600  0.44628700  0.16132100  1
  O  O4  1  0.49003900  0.44428400  0.91502900  1
  O  O5  1  0.50996100  0.55571600  0.08497100  1
  O  O6  1  0.49003900  0.05571600  0.58497100  1
  O  O7  1  0.50996100  0.94428400  0.41502900  1
  O  O8  1  0.32544100  0.18262000  0.00377900  1
  O  O9  1  0.67455900  0.81738000  0.99622100  1
  O  O10  1  0.32544100  0.31738000  0.49622100  1
  O  O11  1  0.67455900  0.68262000  0.50377900  1
loop_
_geom_bond_atom_site_label_1
_geom_bond_atom_site_label_2
_geom_bond_distance
_geom_bond_site_symmetry_2
Ho0 O2 2.218742 1_555
Ho0 O0 2.218742 1_545
Ho0 O8 2.225531 1_556
Ho0 O10 2.225531 1_555
Ho0 O4 2.604808 1_555
Ho0 O6 2.604808 1_555
Ho1 O1 2.218742 1_565
Ho1 O3 2.218742 1_555
Ho1 O11 2.225531 1_555
Ho1 O9 2.225531 1_554
Ho1 O7 2.604808 1_555
Ho1 O5 2.604808 1_555
Cl0 O0 1.632892 1_555
Cl0 Ho1 2.882695 1_455
Cl1 O1 1.632892 1_555
Cl1 Ho0 2.882695 1_655
Cl2 O2 1.632892 1_554
Cl2 Ho1 2.882695 1_455
Cl3 O3 1.632892 1_556
Cl3 Ho0 2.882695 1_655
Cl4 O9 1.705307 1_555
Cl4 O11 1.705307 1_555
Cl5 O10 1.705307 1_555
Cl5 O8 1.705307 1_555
O4 O5 1.262555 1_556
O6 O7 1.262555 1_545
