# generated using pymatgen
data_ErAlCu4
_symmetry_space_group_name_H-M   'P 1'
_cell_length_a   5.15299648
_cell_length_b   5.15299648
_cell_length_c   4.01290400
_cell_angle_alpha   90.00000000
_cell_angle_beta   90.00000000
_cell_angle_gamma   120.00000621
_symmetry_Int_Tables_number   1
_chemical_formula_structural   ErAlCu4
_chemical_formula_sum   'Er1 Al1 Cu4'
_cell_volume   92.28031473
_cell_formula_units_Z   1
loop_
 _symmetry_equiv_pos_site_id
 _symmetry_equiv_pos_as_xyz
  1  'x, y, z'
loop_
 _atom_site_type_symbol
 _atom_site_label
 _atom_site_symmetry_multiplicity
 _atom_site_fract_x
 _atom_site_fract_y
 _atom_site_fract_z
 _atom_site_occupancy
  Er  Er0  1  0.66666700  0.33333300  0.00000000  1
  Al  Al0  1  0.00000000  0.00000000  0.00000000  1
  Cu  Cu0  1  0.33333300  0.66666700  0.00000000  1
  Cu  Cu1  1  0.66531400  0.83265700  0.50000000  1
  Cu  Cu2  1  0.16734300  0.83265700  0.50000000  1
  Cu  Cu3  1  0.16734300  0.33468600  0.50000000  1
loop_
_geom_bond_atom_site_label_1
_geom_bond_atom_site_label_2
_geom_bond_distance
_geom_bond_site_symmetry_2
Al0 Cu3 2.501325 1_554
Al0 Cu3 2.501325 1_555
Al0 Cu1 2.501325 1_444
Al0 Cu1 2.501325 1_445
Al0 Cu2 2.501325 1_545
Al0 Cu2 2.501325 1_544
Al0 Cu0 2.975081 1_545
Al0 Er0 2.975081 1_455
Al0 Cu0 2.975085 1_555
Al0 Cu0 2.975085 1_445
Al0 Er0 2.975085 1_445
Al0 Er0 2.975085 1_555
Cu0 Cu2 2.494133 1_555
Cu0 Cu2 2.494133 1_554
Cu0 Cu3 2.494136 1_554
Cu0 Cu1 2.494136 1_554
Cu0 Cu3 2.494136 1_555
Cu0 Cu1 2.494136 1_555
Cu0 Er0 2.975081 1_455
Cu0 Er0 2.975081 1_565
Cu0 Er0 2.975090 1_555
Cu1 Cu3 2.566043 1_555
Cu1 Cu2 2.566043 1_555
Cu1 Cu3 2.586953 1_665
Cu1 Cu2 2.586954 1_655
Cu1 Er0 3.265611 1_565
Cu1 Er0 3.265611 1_566
Cu1 Er0 3.265615 1_556
Cu1 Er0 3.265615 1_555
Cu2 Cu3 2.566043 1_555
Cu2 Cu3 2.586954 1_565
Cu2 Er0 3.265613 1_455
Cu2 Er0 3.265613 1_456
Cu2 Er0 3.265613 1_565
Cu2 Er0 3.265613 1_566
Cu3 Er0 3.265611 1_455
Cu3 Er0 3.265611 1_456
Cu3 Er0 3.265615 1_555
Cu3 Er0 3.265615 1_556
