# generated using pymatgen
data_Mg14VZn
_symmetry_space_group_name_H-M   'P 1'
_cell_length_a   6.29540259
_cell_length_b   6.29540209
_cell_length_c   10.08960370
_cell_angle_alpha   90.00000000
_cell_angle_beta   90.00000000
_cell_angle_gamma   120.00000260
_symmetry_Int_Tables_number   1
_chemical_formula_structural   Mg14VZn
_chemical_formula_sum   'Mg14 V1 Zn1'
_cell_volume   346.29937730
_cell_formula_units_Z   1
loop_
 _symmetry_equiv_pos_site_id
 _symmetry_equiv_pos_as_xyz
  1  'x, y, z'
loop_
 _atom_site_type_symbol
 _atom_site_label
 _atom_site_symmetry_multiplicity
 _atom_site_fract_x
 _atom_site_fract_y
 _atom_site_fract_z
 _atom_site_occupancy
  Mg  Mg0  1  0.16548915  0.83274408  0.12500000  1
  Mg  Mg1  1  0.16871763  0.83435831  0.62500000  1
  Mg  Mg2  1  0.66725592  0.33451085  0.12500000  1
  Mg  Mg3  1  0.66564169  0.33128237  0.62500000  1
  Mg  Mg4  1  0.66725592  0.83274408  0.12500000  1
  Mg  Mg5  1  0.66564169  0.83435831  0.62500000  1
  Mg  Mg6  1  0.32946490  0.17053510  0.37533425  1
  Mg  Mg7  1  0.32946490  0.17053510  0.87466575  1
  Mg  Mg8  1  0.32946490  0.65893080  0.37533425  1
  Mg  Mg9  1  0.32946490  0.65893080  0.87466575  1
  Mg  Mg10  1  0.84106920  0.17053510  0.37533425  1
  Mg  Mg11  1  0.84106920  0.17053510  0.87466575  1
  Mg  Mg12  1  0.83333300  0.66666700  0.37467044  1
  Mg  Mg13  1  0.83333300  0.66666700  0.87532956  1
  V  V0  1  0.16666700  0.33333300  0.62500000  1
  Zn  Zn0  1  0.16666700  0.33333300  0.12500000  1
loop_
_geom_bond_atom_site_label_1
_geom_bond_atom_site_label_2
_geom_bond_distance
_geom_bond_site_symmetry_2
Mg0 Mg13 3.102440 1_454
Mg0 Mg12 3.102440 1_455
Mg0 Mg9 3.126028 1_554
Mg0 Mg8 3.126028 1_555
Mg0 Mg6 3.126034 1_565
Mg0 Mg7 3.126034 1_564
Mg0 Mg2 3.136579 1_455
Mg0 Mg4 3.136579 1_455
Mg0 Zn0 3.147708 1_565
Mg0 Zn0 3.147708 1_555
Mg0 Mg2 3.158824 1_565
Mg0 Mg4 3.158824 1_555
Mg1 Mg8 3.115583 1_555
Mg1 Mg9 3.115583 1_555
Mg1 Mg6 3.115590 1_565
Mg1 Mg7 3.115590 1_565
Mg1 Mg12 3.118131 1_455
Mg1 Mg13 3.118131 1_455
Mg1 Mg3 3.128337 1_565
Mg1 Mg5 3.128337 1_555
Mg1 V0 3.147721 1_555
Mg1 V0 3.147721 1_565
Mg1 Mg3 3.167065 1_455
Mg1 Mg5 3.167066 1_455
Mg2 Mg7 3.126034 1_554
Mg2 Mg6 3.126034 1_555
Mg2 Mg4 3.136579 1_555
Mg2 Zn0 3.147708 1_555
Mg2 Zn0 3.147708 1_655
Mg2 Mg4 3.158824 1_545
Mg3 Mg7 3.115590 1_555
Mg3 Mg6 3.115590 1_555
Mg3 Mg5 3.128337 1_545
Mg3 V0 3.147721 1_655
Mg3 V0 3.147721 1_555
Mg3 Mg5 3.167065 1_555
Mg4 Mg8 3.126034 1_555
Mg4 Mg9 3.126034 1_554
Mg4 Zn0 3.147708 1_665
Mg4 Zn0 3.147708 1_555
Mg5 Mg8 3.115590 1_555
Mg5 Mg9 3.115590 1_555
Mg5 V0 3.147721 1_555
Mg5 V0 3.147721 1_665
Mg6 Mg8 3.074647 1_555
Mg6 V0 3.081660 1_555
Mg6 Zn0 3.087176 1_555
Mg6 Mg8 3.220755 1_545
Mg7 Mg9 3.074647 1_555
Mg7 V0 3.081660 1_555
Mg7 Zn0 3.087176 1_556
Mg7 Mg9 3.220755 1_545
Mg8 V0 3.081667 1_555
Mg8 Zn0 3.087183 1_555
Mg9 V0 3.081667 1_555
Mg9 Zn0 3.087183 1_556
Mg10 Mg8 3.074647 1_655
Mg10 Mg6 3.074648 1_655
Mg10 V0 3.081667 1_655
Mg10 Zn0 3.087183 1_655
Mg10 Mg3 3.115583 1_555
Mg10 Mg5 3.115590 1_545
Mg10 Mg2 3.126028 1_555
Mg10 Mg4 3.126034 1_545
Mg10 Mg12 3.147991 1_545
Mg10 Mg12 3.147991 1_555
Mg10 Mg8 3.220755 1_545
Mg10 Mg6 3.220755 1_555
Mg11 Mg9 3.074647 1_655
Mg11 Mg7 3.074648 1_655
Mg11 V0 3.081667 1_655
Mg11 Zn0 3.087183 1_656
Mg11 Mg3 3.115583 1_555
Mg11 Mg5 3.115590 1_545
Mg11 Mg2 3.126028 1_556
Mg11 Mg4 3.126034 1_546
Mg11 Mg13 3.147991 1_545
Mg11 Mg13 3.147991 1_555
Mg11 Mg9 3.220755 1_545
Mg11 Mg7 3.220755 1_555
Mg12 Mg4 3.102433 1_555
Mg12 Mg2 3.102439 1_555
Mg12 Mg5 3.118124 1_555
Mg12 Mg3 3.118131 1_555
Mg12 Mg6 3.147991 1_665
Mg12 Mg6 3.147991 1_555
Mg12 Mg8 3.147991 1_655
Mg12 Mg8 3.147991 1_555
Mg13 Mg4 3.102433 1_556
Mg13 Mg2 3.102439 1_556
Mg13 Mg5 3.118124 1_555
Mg13 Mg3 3.118131 1_555
Mg13 Mg7 3.147991 1_665
Mg13 Mg7 3.147991 1_555
Mg13 Mg9 3.147991 1_655
Mg13 Mg9 3.147991 1_555
