# generated using pymatgen
data_U11(PbO12)3
_symmetry_space_group_name_H-M   'P 1'
_cell_length_a   6.82896900
_cell_length_b   8.47455500
_cell_length_c   28.68048300
_cell_angle_alpha   90.00000000
_cell_angle_beta   90.00000000
_cell_angle_gamma   90.00000000
_symmetry_Int_Tables_number   1
_chemical_formula_structural   U11(PbO12)3
_chemical_formula_sum   'U22 Pb6 O72'
_cell_volume   1659.81048905
_cell_formula_units_Z   2
loop_
 _symmetry_equiv_pos_site_id
 _symmetry_equiv_pos_as_xyz
  1  'x, y, z'
loop_
 _atom_site_type_symbol
 _atom_site_label
 _atom_site_symmetry_multiplicity
 _atom_site_fract_x
 _atom_site_fract_y
 _atom_site_fract_z
 _atom_site_occupancy
  U  U0  1  0.32115400  0.00000000  0.00000000  1
  U  U1  1  0.67884600  0.50000000  0.50000000  1
  U  U2  1  0.24832700  0.00000000  0.86614800  1
  U  U3  1  0.24832700  0.00000000  0.13385200  1
  U  U4  1  0.75167300  0.50000000  0.63385200  1
  U  U5  1  0.75167300  0.50000000  0.36614800  1
  U  U6  1  0.77220200  0.00000000  0.78690800  1
  U  U7  1  0.77220200  0.00000000  0.21309200  1
  U  U8  1  0.22779800  0.50000000  0.71309200  1
  U  U9  1  0.22779800  0.50000000  0.28690800  1
  U  U10  1  0.77946000  0.00000000  0.92811200  1
  U  U11  1  0.77946000  0.00000000  0.07188800  1
  U  U12  1  0.22054000  0.50000000  0.57188800  1
  U  U13  1  0.22054000  0.50000000  0.42811200  1
  U  U14  1  0.22314400  0.00000000  0.57285700  1
  U  U15  1  0.22314400  0.00000000  0.42714300  1
  U  U16  1  0.77685600  0.50000000  0.92714300  1
  U  U17  1  0.77685600  0.50000000  0.07285700  1
  U  U18  1  0.22745500  0.00000000  0.71941500  1
  U  U19  1  0.22745500  0.00000000  0.28058500  1
  U  U20  1  0.77254500  0.50000000  0.78058500  1
  U  U21  1  0.77254500  0.50000000  0.21941500  1
  Pb  Pb0  1  0.76312000  0.00000000  0.50000000  1
  Pb  Pb1  1  0.23688000  0.50000000  0.00000000  1
  Pb  Pb2  1  0.69231400  0.00000000  0.64629700  1
  Pb  Pb3  1  0.69231400  0.00000000  0.35370300  1
  Pb  Pb4  1  0.30768600  0.50000000  0.85370300  1
  Pb  Pb5  1  0.30768600  0.50000000  0.14629700  1
  O  O0  1  0.32222500  0.78150600  0.00000000  1
  O  O1  1  0.32222500  0.21849400  0.00000000  1
  O  O2  1  0.67777500  0.71849400  0.50000000  1
  O  O3  1  0.67777500  0.28150600  0.50000000  1
  O  O4  1  0.24426000  0.78107400  0.86533800  1
  O  O5  1  0.24426000  0.78107400  0.13466200  1
  O  O6  1  0.24426000  0.21892600  0.86533800  1
  O  O7  1  0.24426000  0.21892600  0.13466200  1
  O  O8  1  0.75574000  0.71892600  0.63466200  1
  O  O9  1  0.75574000  0.71892600  0.36533800  1
  O  O10  1  0.75574000  0.28107400  0.63466200  1
  O  O11  1  0.75574000  0.28107400  0.36533800  1
  O  O12  1  0.22234600  0.72757800  0.71729000  1
  O  O13  1  0.22234600  0.72757800  0.28271000  1
  O  O14  1  0.22234600  0.27242200  0.71729000  1
  O  O15  1  0.22234600  0.27242200  0.28271000  1
  O  O16  1  0.77765400  0.77242200  0.78271000  1
  O  O17  1  0.77765400  0.77242200  0.21729000  1
  O  O18  1  0.77765400  0.22757800  0.78271000  1
  O  O19  1  0.77765400  0.22757800  0.21729000  1
  O  O20  1  0.22249000  0.73539500  0.57210400  1
  O  O21  1  0.22249000  0.73539500  0.42789600  1
  O  O22  1  0.22249000  0.26460500  0.57210400  1
  O  O23  1  0.22249000  0.26460500  0.42789600  1
  O  O24  1  0.77751000  0.76460500  0.92789600  1
  O  O25  1  0.77751000  0.76460500  0.07210400  1
  O  O26  1  0.77751000  0.23539500  0.92789600  1
  O  O27  1  0.77751000  0.23539500  0.07210400  1
  O  O28  1  0.08308800  0.00000000  0.94302000  1
  O  O29  1  0.08308800  0.00000000  0.05698000  1
  O  O30  1  0.91691200  0.50000000  0.55698000  1
  O  O31  1  0.91691200  0.50000000  0.44302000  1
  O  O32  1  0.14070000  0.00000000  0.78657800  1
  O  O33  1  0.14070000  0.00000000  0.21342200  1
  O  O34  1  0.85930000  0.50000000  0.71342200  1
  O  O35  1  0.85930000  0.50000000  0.28657800  1
  O  O36  1  0.28378700  0.00000000  0.64996800  1
  O  O37  1  0.28378700  0.00000000  0.35003200  1
  O  O38  1  0.71621300  0.50000000  0.85003200  1
  O  O39  1  0.71621300  0.50000000  0.14996800  1
  O  O40  1  0.15184200  0.00000000  0.50000000  1
  O  O41  1  0.84815800  0.50000000  0.00000000  1
  O  O42  1  0.69009200  0.00000000  0.00000000  1
  O  O43  1  0.30990800  0.50000000  0.50000000  1
  O  O44  1  0.90714500  0.00000000  0.85906000  1
  O  O45  1  0.90714500  0.00000000  0.14094000  1
  O  O46  1  0.09285500  0.50000000  0.64094000  1
  O  O47  1  0.09285500  0.50000000  0.35906000  1
  O  O48  1  0.93752200  0.00000000  0.71124300  1
  O  O49  1  0.93752200  0.00000000  0.28875700  1
  O  O50  1  0.06247800  0.50000000  0.78875700  1
  O  O51  1  0.06247800  0.50000000  0.21124300  1
  O  O52  1  0.94944700  0.00000000  0.58449500  1
  O  O53  1  0.94944700  0.00000000  0.41550500  1
  O  O54  1  0.05055300  0.50000000  0.91550500  1
  O  O55  1  0.05055300  0.50000000  0.08449500  1
  O  O56  1  0.46521000  0.00000000  0.92606100  1
  O  O57  1  0.46521000  0.00000000  0.07393900  1
  O  O58  1  0.53479000  0.50000000  0.57393900  1
  O  O59  1  0.53479000  0.50000000  0.42606100  1
  O  O60  1  0.53069000  0.00000000  0.82825700  1
  O  O61  1  0.53069000  0.00000000  0.17174300  1
  O  O62  1  0.46931000  0.50000000  0.67174300  1
  O  O63  1  0.46931000  0.50000000  0.32825700  1
  O  O64  1  0.51613900  0.00000000  0.73064000  1
  O  O65  1  0.51613900  0.00000000  0.26936000  1
  O  O66  1  0.48386100  0.50000000  0.76936000  1
  O  O67  1  0.48386100  0.50000000  0.23064000  1
  O  O68  1  0.49868100  0.00000000  0.56369700  1
  O  O69  1  0.49868100  0.00000000  0.43630300  1
  O  O70  1  0.50131900  0.50000000  0.93630300  1
  O  O71  1  0.50131900  0.50000000  0.06369700  1
loop_
_geom_bond_atom_site_label_1
_geom_bond_atom_site_label_2
_geom_bond_distance
_geom_bond_site_symmetry_2
O0 U0 1.851654 1_565
O0 Pb1 2.455799 1_555
O1 U0 1.851654 1_555
O1 Pb1 2.455799 1_555
O2 U1 1.851654 1_555
O2 Pb0 2.455799 1_565
O3 U1 1.851654 1_555
O3 Pb0 2.455799 1_555
O4 U2 1.855654 1_565
O4 Pb4 2.443926 1_555
O5 U3 1.855654 1_565
O5 Pb5 2.443926 1_555
O6 U2 1.855654 1_555
O6 Pb4 2.443926 1_555
O7 U3 1.855654 1_555
O7 Pb5 2.443926 1_555
O8 U4 1.855654 1_555
O8 Pb2 2.443926 1_565
O9 U5 1.855654 1_555
O9 Pb3 2.443926 1_565
O10 U4 1.855654 1_555
O10 Pb2 2.443926 1_555
O11 U5 1.855654 1_555
O11 Pb3 2.443926 1_555
O12 U8 1.932735 1_555
O12 U18 2.309723 1_565
O13 U9 1.932735 1_555
O13 U19 2.309723 1_565
O14 U8 1.932735 1_555
O14 U18 2.309723 1_555
O15 U9 1.932735 1_555
O15 U19 2.309723 1_555
O16 U6 1.932735 1_565
O16 U20 2.309723 1_555
O17 U7 1.932735 1_565
O17 U21 2.309723 1_555
O18 U6 1.932735 1_555
O18 U20 2.309723 1_555
O19 U7 1.932735 1_555
O19 U21 2.309723 1_555
O20 U12 1.994922 1_555
O20 U14 2.242518 1_565
O21 U13 1.994922 1_555
O21 U15 2.242518 1_565
O22 U12 1.994922 1_555
O22 U14 2.242518 1_555
O23 U13 1.994922 1_555
O23 U15 2.242518 1_555
O24 U10 1.994922 1_565
O24 U16 2.242518 1_555
O25 U11 1.994922 1_565
O25 U17 2.242518 1_555
O26 U10 1.994922 1_555
O26 U16 2.242518 1_555
O27 U11 1.994922 1_555
O27 U17 2.242518 1_555
O28 U10 2.117092 1_455
O28 U0 2.305147 1_556
O28 U2 2.476718 1_555
O29 U11 2.117092 1_455
O29 U0 2.305147 1_555
O29 U3 2.476718 1_555
O30 U12 2.117092 1_655
O30 U1 2.305147 1_555
O30 U4 2.476718 1_555
O31 U13 2.117092 1_655
O31 U1 2.305147 1_555
O31 U5 2.476718 1_555
O32 U18 2.015316 1_555
O32 U2 2.397542 1_555
O32 U6 2.516479 1_455
O33 U19 2.015316 1_555
O33 U3 2.397542 1_555
O33 U7 2.516479 1_455
O34 U20 2.015316 1_555
O34 U4 2.397542 1_555
O34 U8 2.516479 1_655
O35 U21 2.015316 1_555
O35 U5 2.397542 1_555
O35 U9 2.516479 1_655
O36 U18 2.028583 1_555
O36 U14 2.250021 1_555
O36 Pb2 2.791804 1_555
O37 U19 2.028583 1_555
O37 U15 2.250021 1_555
O37 Pb3 2.791804 1_555
O38 U20 2.028583 1_555
O38 U16 2.250021 1_555
O38 Pb4 2.791804 1_555
O39 U21 2.028583 1_555
O39 U17 2.250021 1_555
O39 Pb5 2.791804 1_555
O40 U14 2.145556 1_555
O40 U15 2.145556 1_555
O40 Pb0 2.654570 1_455
O41 U17 2.145556 1_555
O41 U16 2.145556 1_554
O41 Pb1 2.654570 1_655
O42 U11 2.150210 1_555
O42 U10 2.150210 1_554
O42 U0 2.519466 1_555
O43 U12 2.150210 1_555
O43 U13 2.150210 1_555
O43 U1 2.519466 1_555
O44 U10 2.163902 1_555
O44 U6 2.265266 1_555
O44 U2 2.338773 1_655
O45 U11 2.163902 1_555
O45 U7 2.265266 1_555
O45 U3 2.338773 1_655
O46 U12 2.163902 1_555
O46 U8 2.265266 1_555
O46 U4 2.338773 1_455
O47 U13 2.163902 1_555
O47 U9 2.265266 1_555
O47 U5 2.338773 1_455
O48 U18 1.993767 1_655
O48 U6 2.446208 1_555
O48 Pb2 2.504715 1_555
O49 U19 1.993767 1_655
O49 U7 2.446208 1_555
O49 Pb3 2.504715 1_555
O50 U20 1.993767 1_455
O50 U8 2.446208 1_555
O50 Pb4 2.504715 1_555
O51 U21 1.993767 1_455
O51 U9 2.446208 1_555
O51 Pb5 2.504715 1_555
O52 U14 1.898638 1_655
O52 Pb2 2.495029 1_555
O52 Pb0 2.737100 1_555
O53 U15 1.898638 1_655
O53 Pb3 2.495029 1_555
O53 Pb0 2.737100 1_555
O54 U16 1.898638 1_455
O54 Pb4 2.495029 1_555
O54 Pb1 2.737100 1_556
O55 U17 1.898638 1_455
O55 Pb5 2.495029 1_555
O55 Pb1 2.737100 1_555
O56 U10 2.146810 1_555
O56 U2 2.268544 1_555
O56 U0 2.337679 1_556
O57 U11 2.146810 1_555
O57 U3 2.268544 1_555
O57 U0 2.337679 1_555
O58 U12 2.146810 1_555
O58 U4 2.268544 1_555
O58 U1 2.337679 1_555
O59 U13 2.146810 1_555
O59 U5 2.268544 1_555
O59 U1 2.337679 1_555
O60 U6 2.031379 1_555
O60 U2 2.213397 1_555
O61 U7 2.031379 1_555
O61 U3 2.213397 1_555
O62 U8 2.031379 1_555
O62 U4 2.213397 1_555
O63 U9 2.031379 1_555
O63 U5 2.213397 1_555
O64 U18 1.997528 1_555
O64 U6 2.379515 1_555
O64 Pb2 2.701663 1_555
O65 U19 1.997528 1_555
O65 U7 2.379515 1_555
O65 Pb3 2.701663 1_555
O66 U20 1.997528 1_555
O66 U8 2.379515 1_555
O66 Pb4 2.701663 1_555
O67 U21 1.997528 1_555
O67 U9 2.379515 1_555
O67 Pb5 2.701663 1_555
O68 U14 1.899885 1_555
O68 Pb0 2.568754 1_555
O68 Pb2 2.713063 1_555
O69 U15 1.899885 1_555
O69 Pb0 2.568754 1_555
O69 Pb3 2.713063 1_555
O70 U16 1.899885 1_555
O70 Pb1 2.568754 1_556
O70 Pb4 2.713063 1_555
O71 U17 1.899885 1_555
O71 Pb1 2.568754 1_555
O71 Pb5 2.713063 1_555
