# generated using pymatgen
data_KLu(WO4)2
_symmetry_space_group_name_H-M   'P 1'
_cell_length_a   7.60414672
_cell_length_b   7.60414672
_cell_length_c   7.41870926
_cell_angle_alpha   61.77139534
_cell_angle_beta   61.77139534
_cell_angle_gamma   87.16348096
_symmetry_Int_Tables_number   1
_chemical_formula_structural   KLu(WO4)2
_chemical_formula_sum   'K2 Lu2 W4 O16'
_cell_volume   324.50644942
_cell_formula_units_Z   2
loop_
 _symmetry_equiv_pos_site_id
 _symmetry_equiv_pos_as_xyz
  1  'x, y, z'
loop_
 _atom_site_type_symbol
 _atom_site_label
 _atom_site_symmetry_multiplicity
 _atom_site_fract_x
 _atom_site_fract_y
 _atom_site_fract_z
 _atom_site_occupancy
  K  K0  1  0.79016600  0.20983400  0.75000000  1
  K  K1  1  0.20983400  0.79016600  0.25000000  1
  Lu  Lu0  1  0.22322000  0.77678000  0.75000000  1
  Lu  Lu1  1  0.77678000  0.22322000  0.25000000  1
  W  W0  1  0.29886300  0.30702400  0.71041500  1
  W  W1  1  0.69297600  0.70113700  0.78958500  1
  W  W2  1  0.70113700  0.69297600  0.28958500  1
  W  W3  1  0.30702400  0.29886300  0.21041500  1
  O  O0  1  0.23954300  0.03653300  0.80293500  1
  O  O1  1  0.96346700  0.76045700  0.69706500  1
  O  O2  1  0.76045700  0.96346700  0.19706500  1
  O  O3  1  0.03653300  0.23954300  0.30293500  1
  O  O4  1  0.37736900  0.24553100  0.94179500  1
  O  O5  1  0.75446900  0.62263100  0.55820500  1
  O  O6  1  0.62263100  0.75446900  0.05820500  1
  O  O7  1  0.24553100  0.37736900  0.44179500  1
  O  O8  1  0.37417700  0.59987800  0.95773700  1
  O  O9  1  0.40012200  0.62582300  0.54226300  1
  O  O10  1  0.62582300  0.40012200  0.04226300  1
  O  O11  1  0.59987800  0.37417700  0.45773700  1
  O  O12  1  0.34865200  0.04867600  0.38650000  1
  O  O13  1  0.95132400  0.65134800  0.11350000  1
  O  O14  1  0.65134800  0.95132400  0.61350000  1
  O  O15  1  0.04867600  0.34865200  0.88650000  1
loop_
_geom_bond_atom_site_label_1
_geom_bond_atom_site_label_2
_geom_bond_distance
_geom_bond_site_symmetry_2
K0 O5 2.829722 1_555
K0 O4 2.829722 1_555
K0 O2 2.831278 1_546
K0 O3 2.831278 1_655
K0 O10 2.929558 1_556
K0 O11 2.929558 1_555
K0 O6 3.005401 1_546
K0 O7 3.005401 1_655
K0 O14 3.017214 1_545
K0 O15 3.017214 1_655
K1 O6 2.829722 1_555
K1 O7 2.829722 1_555
K1 O1 2.831278 1_455
K1 O0 2.831278 1_564
K1 O9 2.929558 1_555
K1 O8 2.929558 1_554
K1 O5 3.005401 1_455
K1 O4 3.005401 1_564
K1 O13 3.017214 1_455
K1 O12 3.017214 1_565
Lu0 O0 2.207985 1_565
Lu0 O1 2.207985 1_455
Lu0 O13 2.223577 1_456
Lu0 O12 2.223577 1_565
Lu0 O8 2.249859 1_555
Lu0 O9 2.249859 1_555
Lu1 O3 2.207985 1_655
Lu1 O2 2.207985 1_545
Lu1 O14 2.223577 1_545
Lu1 O15 2.223577 1_654
Lu1 O11 2.249859 1_555
Lu1 O10 2.249859 1_555
O0 W0 1.835390 1_555
O1 W1 1.835390 1_555
O2 W2 1.835390 1_555
O3 W3 1.835390 1_555
O4 W0 1.924573 1_555
O4 W3 2.038762 1_556
O5 W1 1.924573 1_555
O5 W2 2.038762 1_555
O6 W2 1.924573 1_555
O6 W1 2.038762 1_554
O7 W3 1.924573 1_555
O7 W0 2.038762 1_555
O8 W3 2.040885 1_556
O8 W1 2.107397 1_555
O9 W2 2.040885 1_555
O9 W0 2.107397 1_555
O10 W1 2.040885 1_554
O10 W3 2.107397 1_555
O11 W0 2.040885 1_555
O11 W2 2.107397 1_555
O12 W3 1.845704 1_555
O13 W2 1.845704 1_555
O14 W1 1.845704 1_555
O15 W0 1.845704 1_555
