# generated using pymatgen
data_Sr4Ru6ClO18
_symmetry_space_group_name_H-M   'P 1'
_cell_length_a   8.10104585
_cell_length_b   8.10104585
_cell_length_c   8.10104585
_cell_angle_alpha   109.47122063
_cell_angle_beta   109.47122063
_cell_angle_gamma   109.47122063
_symmetry_Int_Tables_number   1
_chemical_formula_structural   Sr4Ru6ClO18
_chemical_formula_sum   'Sr4 Ru6 Cl1 O18'
_cell_volume   409.26195941
_cell_formula_units_Z   1
loop_
 _symmetry_equiv_pos_site_id
 _symmetry_equiv_pos_as_xyz
  1  'x, y, z'
loop_
 _atom_site_type_symbol
 _atom_site_label
 _atom_site_symmetry_multiplicity
 _atom_site_fract_x
 _atom_site_fract_y
 _atom_site_fract_z
 _atom_site_occupancy
  Sr  Sr0  1  0.00000000  0.00000000  0.37438900  1
  Sr  Sr1  1  0.62561100  0.62561100  0.62561100  1
  Sr  Sr2  1  0.00000000  0.37438900  0.00000000  1
  Sr  Sr3  1  0.37438900  0.00000000  0.00000000  1
  Ru  Ru0  1  0.50000000  0.66345100  0.16345100  1
  Ru  Ru1  1  0.33654900  0.83654900  0.50000000  1
  Ru  Ru2  1  0.83654900  0.50000000  0.33654900  1
  Ru  Ru3  1  0.50000000  0.33654900  0.83654900  1
  Ru  Ru4  1  0.16345100  0.50000000  0.66345100  1
  Ru  Ru5  1  0.66345100  0.16345100  0.50000000  1
  Cl  Cl0  1  0.00000000  0.00000000  0.00000000  1
  O  O0  1  0.64719700  0.95619900  0.26646400  1
  O  O1  1  0.38073300  0.73353600  0.68973500  1
  O  O2  1  0.69099800  0.31026500  0.04380100  1
  O  O3  1  0.68973500  0.38073300  0.73353600  1
  O  O4  1  0.04380100  0.69099800  0.31026500  1
  O  O5  1  0.26646400  0.64719700  0.95619900  1
  O  O6  1  0.31026500  0.04380100  0.69099800  1
  O  O7  1  0.95619900  0.26646400  0.64719700  1
  O  O8  1  0.73353600  0.68973500  0.38073300  1
  O  O9  1  0.35280300  0.61926700  0.30900200  1
  O  O10  1  0.61926700  0.30900200  0.35280300  1
  O  O11  1  0.30900200  0.35280300  0.61926700  1
  O  O12  1  0.62657800  0.62657800  0.00000000  1
  O  O13  1  0.62657800  0.00000000  0.62657800  1
  O  O14  1  0.00000000  0.37342200  0.37342200  1
  O  O15  1  0.37342200  0.00000000  0.37342200  1
  O  O16  1  0.00000000  0.62657800  0.62657800  1
  O  O17  1  0.37342200  0.37342200  0.00000000  1
loop_
_geom_bond_atom_site_label_1
_geom_bond_atom_site_label_2
_geom_bond_distance
_geom_bond_site_symmetry_2
Cl0 Sr1 3.032942 1_444
Cl0 Sr0 3.032942 1_555
Cl0 Sr2 3.032942 1_555
Cl0 Sr3 3.032942 1_555
O0 Ru0 1.968386 1_555
O0 Ru5 1.996099 1_565
O0 Sr0 2.551489 1_665
O0 Sr3 2.742782 1_565
O1 Ru1 1.968386 1_555
O1 Ru4 1.996099 1_555
O1 Sr1 2.551489 1_555
O1 Sr3 2.742782 1_566
O2 Ru2 1.968386 1_555
O2 Ru3 1.996099 1_554
O2 Sr2 2.551489 1_655
O2 Sr3 2.742782 1_555
O3 Ru3 1.968386 1_555
O3 Ru5 1.996099 1_555
O3 Sr1 2.551489 1_555
O3 Sr2 2.742782 1_656
O4 Ru1 1.968386 1_555
O4 Ru2 1.996099 1_455
O4 Sr0 2.551489 1_565
O4 Sr2 2.742782 1_555
O5 Ru4 1.968386 1_555
O5 Ru0 1.996099 1_556
O5 Sr3 2.551489 1_566
O5 Sr2 2.742782 1_556
O6 Ru3 1.968386 1_555
O6 Ru1 1.996099 1_545
O6 Sr3 2.551489 1_556
O6 Sr0 2.742782 1_555
O7 Ru5 1.968386 1_555
O7 Ru4 1.996099 1_655
O7 Sr2 2.551489 1_656
O7 Sr0 2.742782 1_655
O8 Ru2 1.968386 1_555
O8 Ru0 1.996099 1_555
O8 Sr1 2.551489 1_555
O8 Sr0 2.742782 1_665
O9 Ru0 1.968386 1_555
O9 Ru1 1.996099 1_555
O9 Sr2 2.551489 1_555
O9 Sr1 2.742782 1_555
O10 Ru5 1.968386 1_555
O10 Ru2 1.996099 1_555
O10 Sr3 2.551489 1_555
O10 Sr1 2.742782 1_555
O11 Ru4 1.968386 1_555
O11 Ru3 1.996099 1_555
O11 Sr0 2.551489 1_555
O11 Sr1 2.742782 1_555
O12 Ru0 1.933832 1_555
O12 Ru3 1.933832 1_554
O12 Sr0 3.027729 1_665
O12 Sr1 3.027729 1_554
O13 Ru1 1.933832 1_545
O13 Ru5 1.933832 1_555
O13 Sr2 3.027729 1_656
O13 Sr1 3.027729 1_545
O14 Ru2 1.933832 1_455
O14 Ru4 1.933832 1_555
O14 Sr0 3.027729 1_555
O14 Sr2 3.027729 1_555
O15 Ru1 1.933832 1_545
O15 Ru5 1.933832 1_555
O15 Sr3 3.027729 1_555
O15 Sr0 3.027729 1_555
O16 Ru4 1.933832 1_555
O16 Ru2 1.933832 1_455
O16 Sr1 3.027729 1_455
O16 Sr3 3.027729 1_566
O17 Ru0 1.933832 1_555
O17 Ru3 1.933832 1_554
O17 Sr3 3.027729 1_555
O17 Sr2 3.027729 1_555
