# generated using pymatgen
data_Zn8P18(N12Cl)3
_symmetry_space_group_name_H-M   'P 1'
_cell_length_a   13.73885560
_cell_length_b   13.73885560
_cell_length_c   8.28283697
_cell_angle_alpha   72.71782059
_cell_angle_beta   72.71782059
_cell_angle_gamma   35.33188858
_symmetry_Int_Tables_number   1
_chemical_formula_structural   Zn8P18(N12Cl)3
_chemical_formula_sum   'Zn8 P18 N36 Cl3'
_cell_volume   859.08528018
_cell_formula_units_Z   1
loop_
 _symmetry_equiv_pos_site_id
 _symmetry_equiv_pos_as_xyz
  1  'x, y, z'
loop_
 _atom_site_type_symbol
 _atom_site_label
 _atom_site_symmetry_multiplicity
 _atom_site_fract_x
 _atom_site_fract_y
 _atom_site_fract_z
 _atom_site_occupancy
  Zn  Zn0  1  0.88119500  0.90388600  0.42893300  1
  Zn  Zn1  1  0.89629800  0.21760200  0.11246000  1
  Zn  Zn2  1  0.24200000  0.54540400  0.78648400  1
  Zn  Zn3  1  0.57075000  0.88078800  0.45312500  1
  Zn  Zn4  1  0.09611400  0.11880500  0.57106700  1
  Zn  Zn5  1  0.78239800  0.10370200  0.88754000  1
  Zn  Zn6  1  0.11921200  0.42925000  0.54687500  1
  Zn  Zn7  1  0.45459600  0.75800000  0.21351600  1
  P  P0  1  0.16740100  0.83391500  0.74986000  1
  P  P1  1  0.49707200  0.17051900  0.41618200  1
  P  P2  1  0.83493800  0.50037500  0.08258200  1
  P  P3  1  0.91694100  0.08305900  0.50000000  1
  P  P4  1  0.25070200  0.41686700  0.16786800  1
  P  P5  1  0.58313300  0.74929800  0.83213200  1
  P  P6  1  0.08329800  0.75130500  0.08385100  1
  P  P7  1  0.41494900  0.08552700  0.75540800  1
  P  P8  1  0.74844800  0.41761900  0.41738500  1
  P  P9  1  0.74867400  0.91676200  0.16514100  1
  P  P10  1  0.08323800  0.25132600  0.83485900  1
  P  P11  1  0.41715700  0.58284300  0.50000000  1
  P  P12  1  0.49962500  0.16506200  0.91741800  1
  P  P13  1  0.82948100  0.50292800  0.58381800  1
  P  P14  1  0.16608500  0.83259900  0.25014000  1
  P  P15  1  0.58238100  0.25155200  0.58261500  1
  P  P16  1  0.91447300  0.58505100  0.24459200  1
  P  P17  1  0.24869500  0.91670200  0.91614900  1
  N  N0  1  0.99637200  0.94561600  0.38931700  1
  N  N1  1  0.34024500  0.27490400  0.06025200  1
  N  N2  1  0.66578500  0.61313900  0.72054700  1
  N  N3  1  0.90471600  0.85533000  0.20482600  1
  N  N4  1  0.23998600  0.18474400  0.86815400  1
  N  N5  1  0.57592600  0.51513900  0.53421400  1
  N  N6  1  0.63366000  0.12551700  0.48178500  1
  N  N7  1  0.96045900  0.46693600  0.14471300  1
  N  N8  1  0.29102100  0.80144000  0.81571100  1
  N  N9  1  0.60922700  0.00044100  0.33467900  1
  N  N10  1  0.94388300  0.33119500  0.00269200  1
  N  N11  1  0.27447300  0.66787500  0.66657800  1
  N  N12  1  0.18093200  0.57704700  0.03491300  1
  N  N13  1  0.51622700  0.90982100  0.70165600  1
  N  N14  1  0.85485300  0.23892900  0.36633200  1
  N  N15  1  0.46136400  0.29873100  0.76024700  1
  N  N16  1  0.79291300  0.63366400  0.42588600  1
  N  N17  1  0.12792700  0.96759500  0.09642400  1
  N  N18  1  0.05438400  0.00362800  0.61068300  1
  N  N19  1  0.38686100  0.33421500  0.27945300  1
  N  N20  1  0.72509600  0.65975500  0.93974800  1
  N  N21  1  0.48486100  0.42407400  0.46578600  1
  N  N22  1  0.81525600  0.76001400  0.13184600  1
  N  N23  1  0.14467000  0.09528400  0.79517400  1
  N  N24  1  0.19856000  0.70897900  0.18428900  1
  N  N25  1  0.53306400  0.03954100  0.85528700  1
  N  N26  1  0.87448300  0.36634000  0.51821500  1
  N  N27  1  0.66880500  0.05611700  0.99730800  1
  N  N28  1  0.99955900  0.39077300  0.66532100  1
  N  N29  1  0.33212500  0.72552700  0.33342200  1
  N  N30  1  0.76107100  0.14514700  0.63366800  1
  N  N31  1  0.09017900  0.48377300  0.29834400  1
  N  N32  1  0.42295300  0.81906800  0.96508700  1
  N  N33  1  0.03240500  0.87207300  0.90357600  1
  N  N34  1  0.36633600  0.20708700  0.57411400  1
  N  N35  1  0.70126900  0.53863600  0.23975300  1
  Cl  Cl0  1  0.01756300  0.65833700  0.64710900  1
  Cl  Cl1  1  0.34166300  0.98243700  0.35289100  1
  Cl  Cl2  1  0.69531600  0.30468400  0.00000000  1
loop_
_geom_bond_atom_site_label_1
_geom_bond_atom_site_label_2
_geom_bond_distance
_geom_bond_site_symmetry_2
N0 P3 1.633688 1_565
N0 P14 1.654019 1_655
N0 Zn0 2.000083 1_555
N1 P4 1.605771 1_555
N1 P12 1.612986 1_554
N2 P5 1.606492 1_555
N2 P13 1.607019 1_555
N3 P9 1.648636 1_555
N3 P6 1.653825 1_655
N3 Zn0 2.005665 1_555
N4 P10 1.593511 1_555
N4 P7 1.607692 1_555
N5 P8 1.604861 1_555
N5 P11 1.613602 1_555
N6 P15 1.646623 1_555
N6 P1 1.646870 1_555
N6 Zn0 2.010060 1_545
N7 P16 1.590969 1_555
N7 P2 1.594988 1_555
N8 P17 1.590822 1_555
N8 P0 1.597036 1_555
N9 P9 1.652593 1_545
N9 P1 1.653644 1_555
N9 Zn3 2.023824 1_545
N10 P10 1.642946 1_654
N10 P2 1.652166 1_555
N10 Zn1 2.039151 1_555
N11 P0 1.643285 1_555
N11 P11 1.650861 1_555
N11 Zn2 1.996314 1_555
N12 P6 1.645920 1_555
N12 P4 1.649229 1_555
N12 Zn2 2.009392 1_554
N13 P5 1.656235 1_555
N13 P7 1.658814 1_565
N13 Zn3 2.010465 1_555
N14 P3 1.646583 1_555
N14 P8 1.654282 1_555
N14 Zn1 2.052855 1_555
N15 P15 1.644385 1_555
N15 P12 1.659715 1_555
N15 Zn2 1.999722 1_555
N16 P13 1.646776 1_555
N16 P16 1.666142 1_555
N16 Zn3 2.007959 1_555
N17 P17 1.651325 1_554
N17 P14 1.656153 1_555
N17 Zn1 2.031706 1_465
N18 P3 1.633688 1_455
N18 P0 1.654019 1_545
N18 Zn4 2.000083 1_555
N19 P4 1.606492 1_555
N19 P1 1.607019 1_555
N20 P5 1.605771 1_555
N20 P2 1.612986 1_556
N21 P15 1.604861 1_555
N21 P11 1.613602 1_555
N22 P9 1.593511 1_555
N22 P16 1.607692 1_555
N23 P10 1.648636 1_555
N23 P17 1.653825 1_545
N23 Zn4 2.005665 1_555
N24 P6 1.590822 1_555
N24 P14 1.597036 1_555
N25 P7 1.590969 1_555
N25 P12 1.594988 1_555
N26 P8 1.646623 1_555
N26 P13 1.646870 1_555
N26 Zn4 2.010060 1_655
N27 P9 1.642946 1_546
N27 P12 1.652166 1_555
N27 Zn5 2.039151 1_555
N28 P10 1.652593 1_655
N28 P13 1.653644 1_555
N28 Zn6 2.023824 1_655
N29 P14 1.643285 1_555
N29 P11 1.650861 1_555
N29 Zn7 1.996314 1_555
N30 P3 1.646583 1_555
N30 P15 1.654282 1_555
N30 Zn5 2.052855 1_555
N31 P4 1.656235 1_555
N31 P16 1.658814 1_455
N31 Zn6 2.010465 1_555
N32 P17 1.645920 1_555
N32 P5 1.649229 1_555
N32 Zn7 2.009392 1_556
N33 P6 1.651325 1_556
N33 P0 1.656153 1_555
N33 Zn5 2.031706 1_465
N34 P1 1.646776 1_555
N34 P7 1.666142 1_555
N34 Zn6 2.007959 1_555
N35 P8 1.644385 1_555
N35 P2 1.659715 1_555
N35 Zn7 1.999722 1_555
Cl0 Zn0 2.496682 1_455
Cl0 Zn6 2.497512 1_555
Cl0 Zn2 2.548070 1_555
Cl1 Zn4 2.496682 1_565
Cl1 Zn3 2.497512 1_555
Cl1 Zn7 2.548070 1_555
Cl2 Zn1 2.323672 1_555
Cl2 Zn5 2.323672 1_554
