# generated using pymatgen
data_Mg6VBi
_symmetry_space_group_name_H-M   'P 1'
_cell_length_a   5.22081100
_cell_length_b   6.20890100
_cell_length_c   11.09155200
_cell_angle_alpha   90.00000000
_cell_angle_beta   90.00000000
_cell_angle_gamma   90.00000000
_symmetry_Int_Tables_number   1
_chemical_formula_structural   Mg6VBi
_chemical_formula_sum   'Mg12 V2 Bi2'
_cell_volume   359.53818876
_cell_formula_units_Z   2
loop_
 _symmetry_equiv_pos_site_id
 _symmetry_equiv_pos_as_xyz
  1  'x, y, z'
loop_
 _atom_site_type_symbol
 _atom_site_label
 _atom_site_symmetry_multiplicity
 _atom_site_fract_x
 _atom_site_fract_y
 _atom_site_fract_z
 _atom_site_occupancy
  Mg  Mg0  1  0.50000000  0.74857600  0.91668900  1
  Mg  Mg1  1  0.50000000  0.25142400  0.91668900  1
  Mg  Mg2  1  0.00000000  0.26154100  0.58214500  1
  Mg  Mg3  1  0.00000000  0.73845900  0.58214500  1
  Mg  Mg4  1  0.00000000  0.50000000  0.82946700  1
  Mg  Mg5  1  0.00000000  0.00000000  0.83839100  1
  Mg  Mg6  1  0.50000000  0.24857600  0.41668900  1
  Mg  Mg7  1  0.50000000  0.75142400  0.41668900  1
  Mg  Mg8  1  0.00000000  0.76154100  0.08214500  1
  Mg  Mg9  1  0.00000000  0.23845900  0.08214500  1
  Mg  Mg10  1  0.00000000  0.00000000  0.32946700  1
  Mg  Mg11  1  0.00000000  0.50000000  0.33839100  1
  V  V0  1  0.50000000  0.50000000  0.66650000  1
  V  V1  1  0.50000000  0.00000000  0.16650000  1
  Bi  Bi0  1  0.50000000  0.00000000  0.66796900  1
  Bi  Bi1  1  0.50000000  0.50000000  0.16796900  1
loop_
_geom_bond_atom_site_label_1
_geom_bond_atom_site_label_2
_geom_bond_distance
_geom_bond_site_symmetry_2
Mg0 Mg1 3.086768 1_555
Mg0 Mg1 3.122133 1_565
Mg0 Mg5 3.163123 1_565
Mg0 Mg5 3.163123 1_665
Mg0 V0 3.175306 1_555
Mg0 V1 3.180286 1_566
Mg0 Mg4 3.183106 1_655
Mg0 Mg4 3.183106 1_555
Mg0 Mg8 3.191947 1_656
Mg0 Mg8 3.191947 1_556
Mg1 Mg5 3.163123 1_555
Mg1 Mg5 3.163123 1_655
Mg1 V0 3.175306 1_555
Mg1 V1 3.180286 1_556
Mg1 Mg4 3.183106 1_655
Mg1 Mg4 3.183106 1_555
Mg1 Mg9 3.191947 1_656
Mg1 Mg9 3.191947 1_556
Mg2 Mg3 2.961137 1_555
Mg2 Mg4 3.117234 1_555
Mg2 V0 3.143517 1_455
Mg2 V0 3.143517 1_555
Mg2 Mg6 3.191947 1_455
Mg2 Mg6 3.191947 1_555
Mg2 Mg3 3.247764 1_545
Mg2 Mg5 3.273362 1_555
Mg3 Mg4 3.117234 1_555
Mg3 V0 3.143517 1_455
Mg3 V0 3.143517 1_555
Mg3 Mg7 3.191947 1_455
Mg3 Mg7 3.191947 1_555
Mg3 Mg5 3.273362 1_565
Mg4 Mg5 3.106028 1_555
Mg4 Mg5 3.106028 1_565
Mg4 V0 3.175134 1_455
Mg4 V0 3.175134 1_555
Mg4 Mg8 3.239060 1_556
Mg4 Mg9 3.239060 1_556
Mg5 Mg9 3.082465 1_556
Mg5 Mg8 3.082465 1_546
Mg6 Mg7 3.086768 1_545
Mg6 Mg7 3.122133 1_555
Mg6 V1 3.175306 1_555
Mg6 V0 3.180286 1_555
Mg7 V1 3.175306 1_565
Mg7 V0 3.180286 1_555
Mg8 Mg9 2.961137 1_565
Mg8 V1 3.143517 1_565
Mg8 V1 3.143517 1_465
Mg8 Mg9 3.247764 1_555
Mg9 V1 3.143517 1_455
Mg9 V1 3.143517 1_555
Mg10 Mg11 3.106028 1_555
Mg10 Mg11 3.106028 1_545
Mg10 Mg9 3.117234 1_555
Mg10 Mg8 3.117234 1_545
Mg10 V1 3.175134 1_455
Mg10 V1 3.175134 1_555
Mg10 Mg7 3.183106 1_545
Mg10 Mg7 3.183106 1_445
Mg10 Mg6 3.183106 1_555
Mg10 Mg6 3.183106 1_455
Mg10 Mg2 3.239060 1_555
Mg10 Mg3 3.239060 1_545
Mg11 Mg3 3.082465 1_555
Mg11 Mg2 3.082465 1_555
Mg11 Mg7 3.163123 1_455
Mg11 Mg7 3.163123 1_555
Mg11 Mg6 3.163123 1_455
Mg11 Mg6 3.163123 1_555
Mg11 Mg8 3.273362 1_555
Mg11 Mg9 3.273362 1_555
Bi0 V0 3.104493 1_545
Bi0 V0 3.104493 1_555
Bi0 Mg0 3.169748 1_545
Bi0 Mg1 3.169748 1_555
Bi0 Mg7 3.185887 1_545
Bi0 Mg6 3.185887 1_555
Bi0 Mg2 3.218286 1_655
Bi0 Mg2 3.218286 1_555
Bi0 Mg3 3.218286 1_645
Bi0 Mg3 3.218286 1_545
Bi0 Mg5 3.222924 1_655
Bi0 Mg5 3.222924 1_555
Bi1 V1 3.104493 1_565
Bi1 V1 3.104493 1_555
Bi1 Mg6 3.169748 1_555
Bi1 Mg7 3.169748 1_555
Bi1 Mg0 3.185887 1_554
Bi1 Mg1 3.185887 1_554
Bi1 Mg8 3.218286 1_655
Bi1 Mg8 3.218286 1_555
Bi1 Mg9 3.218286 1_555
Bi1 Mg9 3.218286 1_655
Bi1 Mg11 3.222924 1_555
Bi1 Mg11 3.222924 1_655
