# generated using pymatgen
data_KO2
_symmetry_space_group_name_H-M   'P 1'
_cell_length_a   5.67314000
_cell_length_b   5.51347100
_cell_length_c   8.22318388
_cell_angle_alpha   54.14013063
_cell_angle_beta   90.00000000
_cell_angle_gamma   90.00000000
_symmetry_Int_Tables_number   1
_chemical_formula_structural   KO2
_chemical_formula_sum   'K4 O8'
_cell_volume   208.45675479
_cell_formula_units_Z   4
loop_
 _symmetry_equiv_pos_site_id
 _symmetry_equiv_pos_as_xyz
  1  'x, y, z'
loop_
 _atom_site_type_symbol
 _atom_site_label
 _atom_site_symmetry_multiplicity
 _atom_site_fract_x
 _atom_site_fract_y
 _atom_site_fract_z
 _atom_site_occupancy
  K  K0  1  0.75229000  0.74215600  0.55043400  1
  K  K1  1  0.25229000  0.25784400  0.94956600  1
  K  K2  1  0.24771000  0.25784400  0.44956600  1
  K  K3  1  0.74771000  0.74215600  0.05043400  1
  O  O0  1  0.25376400  0.66440600  0.54802200  1
  O  O1  1  0.75376400  0.33559400  0.95197800  1
  O  O2  1  0.74623600  0.33559400  0.45197800  1
  O  O3  1  0.24623600  0.66440600  0.04802200  1
  O  O4  1  0.69050700  0.16548000  0.65013100  1
  O  O5  1  0.19050700  0.83452000  0.84986900  1
  O  O6  1  0.30949300  0.83452000  0.34986900  1
  O  O7  1  0.80949300  0.16548000  0.15013100  1
loop_
_geom_bond_atom_site_label_1
_geom_bond_atom_site_label_2
_geom_bond_distance
_geom_bond_site_symmetry_2
K0 O1 2.693683 1_555
K0 O7 2.717926 1_565
K0 O2 2.794201 1_555
K0 O4 2.801812 1_555
K0 O0 2.862320 1_555
K0 O2 2.873746 1_565
K0 O0 2.878846 1_655
K0 O6 2.881984 1_555
K0 O4 2.912780 1_565
K1 O0 2.693683 1_555
K1 O6 2.717926 1_546
K1 O3 2.794201 1_556
K1 O5 2.801812 1_555
K1 O1 2.862320 1_455
K1 O3 2.873746 1_546
K1 O1 2.878846 1_555
K1 O7 2.881984 1_456
K1 O5 2.912780 1_545
K2 O3 2.693683 1_555
K2 O5 2.717926 1_545
K2 O0 2.794201 1_555
K2 O6 2.801812 1_555
K2 O2 2.862320 1_555
K2 O0 2.873746 1_545
K2 O2 2.878846 1_455
K2 O4 2.881984 1_555
K2 O6 2.912780 1_545
K3 O2 2.693683 1_555
K3 O4 2.717926 1_564
K3 O1 2.794201 1_554
K3 O7 2.801812 1_555
K3 O3 2.862320 1_655
K3 O1 2.873746 1_564
K3 O3 2.878846 1_555
K3 O5 2.881984 1_654
K3 O7 2.912780 1_565
O0 O6 1.358010 1_555
O1 O7 1.358010 1_556
O2 O4 1.358010 1_555
O3 O5 1.358010 1_554
