# generated using pymatgen
data_Ho3Sn7
_symmetry_space_group_name_H-M   'P 1'
_cell_length_a   4.36676772
_cell_length_b   4.40762609
_cell_length_c   13.47578857
_cell_angle_alpha   89.99987722
_cell_angle_beta   99.23089689
_cell_angle_gamma   90.00042613
_symmetry_Int_Tables_number   1
_chemical_formula_structural   Ho3Sn7
_chemical_formula_sum   'Ho3 Sn7'
_cell_volume   256.01071110
_cell_formula_units_Z   1
loop_
 _symmetry_equiv_pos_site_id
 _symmetry_equiv_pos_as_xyz
  1  'x, y, z'
loop_
 _atom_site_type_symbol
 _atom_site_label
 _atom_site_symmetry_multiplicity
 _atom_site_fract_x
 _atom_site_fract_y
 _atom_site_fract_z
 _atom_site_occupancy
  Ho  Ho0  1  -0.00000000  0.50000000  -0.00000000  1
  Ho  Ho1  1  0.31122935  -0.00000000  0.62364343  1
  Ho  Ho2  1  0.68877065  0.00000000  0.37635657  1
  Sn  Sn0  1  0.49999900  0.00000000  -0.00000000  1
  Sn  Sn1  1  0.40302910  0.50000000  0.80677815  1
  Sn  Sn2  1  0.59697190  0.50000000  0.19322185  1
  Sn  Sn3  1  0.09717303  -0.00000000  0.19303644  1
  Sn  Sn4  1  0.90282697  0.00000000  0.80696356  1
  Sn  Sn5  1  0.21288613  0.50000000  0.42476560  1
  Sn  Sn6  1  0.78711287  0.50000000  0.57523440  1
loop_
_geom_bond_atom_site_label_1
_geom_bond_atom_site_label_2
_geom_bond_distance
_geom_bond_site_symmetry_2
Ho0 Sn0 3.102236 1_565
Ho0 Sn0 3.102242 1_455
Ho0 Sn0 3.102259 1_555
Ho0 Sn0 3.102265 1_465
Ho0 Sn2 3.368593 1_455
Ho0 Sn1 3.368596 1_554
Ho0 Sn1 3.376057 1_454
Ho0 Sn2 3.376060 1_555
Ho0 Sn4 3.383720 1_464
Ho0 Sn3 3.383720 1_555
Ho0 Sn4 3.383723 1_454
Ho0 Sn3 3.383723 1_565
Ho1 Sn6 3.167900 1_555
Ho1 Sn6 3.167923 1_545
Ho1 Sn6 3.168817 1_445
Ho1 Sn6 3.168839 1_455
Ho1 Sn4 3.270591 1_455
Ho1 Sn4 3.275531 1_555
Ho1 Sn1 3.284896 1_545
Ho1 Sn1 3.284899 1_555
Ho1 Sn5 3.443043 1_555
Ho1 Sn5 3.443046 1_545
Ho2 Sn5 3.167903 1_545
Ho2 Sn5 3.167926 1_555
Ho2 Sn5 3.168814 1_655
Ho2 Sn5 3.168836 1_645
Ho2 Sn3 3.270591 1_655
Ho2 Sn3 3.275531 1_555
Ho2 Sn2 3.284896 1_555
Ho2 Sn2 3.284899 1_545
Ho2 Sn6 3.443043 1_545
Ho2 Sn6 3.443046 1_555
Sn0 Sn3 3.365881 1_555
Sn0 Sn4 3.365887 1_554
Sn0 Sn4 3.375010 1_454
Sn0 Sn3 3.375015 1_655
Sn0 Sn1 3.385589 1_554
Sn0 Sn2 3.385589 1_545
Sn0 Sn1 3.385592 1_544
Sn0 Sn2 3.385592 1_555
Sn1 Sn4 3.101337 1_565
Sn1 Sn4 3.101360 1_555
Sn1 Sn4 3.103143 1_455
Sn1 Sn4 3.103166 1_465
Sn2 Sn3 3.101340 1_555
Sn2 Sn3 3.101363 1_565
Sn2 Sn3 3.103140 1_665
Sn2 Sn3 3.103163 1_655
Sn5 Sn6 2.961066 1_555
Sn5 Sn6 2.962742 1_455
