# generated using pymatgen
data_Na3CaSc3Zn(SiO3)8
_symmetry_space_group_name_H-M   'P 1'
_cell_length_a   9.12738100
_cell_length_b   5.37676800
_cell_length_c   9.86001240
_cell_angle_alpha   75.33170251
_cell_angle_beta   90.00000000
_cell_angle_gamma   90.00000000
_symmetry_Int_Tables_number   1
_chemical_formula_structural   Na3CaSc3Zn(SiO3)8
_chemical_formula_sum   'Na3 Ca1 Sc3 Zn1 Si8 O24'
_cell_volume   468.11722124
_cell_formula_units_Z   1
loop_
 _symmetry_equiv_pos_site_id
 _symmetry_equiv_pos_as_xyz
  1  'x, y, z'
loop_
 _atom_site_type_symbol
 _atom_site_label
 _atom_site_symmetry_multiplicity
 _atom_site_fract_x
 _atom_site_fract_y
 _atom_site_fract_z
 _atom_site_occupancy
  Na  Na0  1  0.80541500  0.50000000  0.50000000  1
  Na  Na1  1  0.30025400  0.00000000  0.00000000  1
  Na  Na2  1  0.19461100  0.00000000  0.50000000  1
  Ca  Ca0  1  0.70339300  0.50000000  0.00000000  1
  Sc  Sc0  1  0.39280000  0.50000000  0.50000000  1
  Sc  Sc1  1  0.60616700  0.00000000  0.50000000  1
  Sc  Sc2  1  0.10144200  0.50000000  0.00000000  1
  Zn  Zn0  1  0.90172600  0.00000000  0.00000000  1
  Si  Si0  1  0.08708700  0.70062500  0.28885500  1
  Si  Si1  1  0.58918300  0.19848200  0.78979400  1
  Si  Si2  1  0.08708700  0.29937500  0.71114500  1
  Si  Si3  1  0.58918300  0.80151800  0.21020600  1
  Si  Si4  1  0.91289200  0.80019900  0.70998400  1
  Si  Si5  1  0.41020600  0.29925100  0.21082800  1
  Si  Si6  1  0.91289200  0.19980100  0.29001600  1
  Si  Si7  1  0.41020600  0.70074900  0.78917200  1
  O  O0  1  0.24720200  0.69839600  0.36018000  1
  O  O1  1  0.74617900  0.20764100  0.86185500  1
  O  O2  1  0.24720200  0.30160400  0.63982000  1
  O  O3  1  0.74617900  0.79235900  0.13814500  1
  O  O4  1  0.75206500  0.80174400  0.64049500  1
  O  O5  1  0.25171100  0.30047400  0.13985800  1
  O  O6  1  0.75206500  0.19825600  0.35950500  1
  O  O7  1  0.25171100  0.69952600  0.86014200  1
  O  O8  1  0.01054700  0.41228900  0.34991000  1
  O  O9  1  0.51275900  0.90876800  0.84998100  1
  O  O10  1  0.01054700  0.58771100  0.65009000  1
  O  O11  1  0.51275900  0.09123200  0.15001900  1
  O  O12  1  0.98951000  0.08671200  0.65090600  1
  O  O13  1  0.49110500  0.58502600  0.14990700  1
  O  O14  1  0.98951000  0.91328800  0.34909400  1
  O  O15  1  0.49110500  0.41497400  0.85009300  1
  O  O16  1  0.08271500  0.77487800  0.11790400  1
  O  O17  1  0.57893000  0.27604300  0.61816100  1
  O  O18  1  0.08271500  0.22512200  0.88209600  1
  O  O19  1  0.57893000  0.72395700  0.38183900  1
  O  O20  1  0.91488300  0.71715800  0.88215800  1
  O  O21  1  0.42012300  0.22300600  0.38220800  1
  O  O22  1  0.91488300  0.28284200  0.11784200  1
  O  O23  1  0.42012300  0.77699400  0.61779200  1
loop_
_geom_bond_atom_site_label_1
_geom_bond_atom_site_label_2
_geom_bond_distance
_geom_bond_site_symmetry_2
Na0 O4 2.434453 1_555
Na0 O6 2.434453 1_555
Na0 O10 2.504299 1_655
Na0 O8 2.504299 1_655
Na0 O19 2.523939 1_555
Na0 O17 2.523939 1_555
Na0 O12 2.881115 1_555
Na0 O14 2.881115 1_555
Na1 O5 2.415855 1_555
Na1 O7 2.415855 1_544
Na1 O16 2.458948 1_545
Na1 O18 2.458948 1_554
Na1 O11 2.560898 1_555
Na1 O9 2.560898 1_544
Na1 O15 2.920156 1_554
Na1 O13 2.920156 1_545
Na2 O0 2.427557 1_545
Na2 O2 2.427557 1_555
Na2 O12 2.507423 1_455
Na2 O14 2.507423 1_445
Na2 O21 2.513583 1_555
Na2 O23 2.513583 1_545
Na2 O8 2.874931 1_555
Na2 O10 2.874931 1_545
Ca0 O3 2.358656 1_555
Ca0 O1 2.358656 1_554
Ca0 O22 2.398447 1_555
Ca0 O20 2.398447 1_554
Ca0 O13 2.547622 1_555
Ca0 O15 2.547622 1_554
Ca0 O9 2.898213 1_554
Ca0 O11 2.898213 1_555
O0 Si0 1.620567 1_555
O0 Sc0 2.014891 1_555
O1 Si1 1.605730 1_555
O1 Zn0 2.085012 1_556
O2 Si2 1.620567 1_555
O2 Sc0 2.014891 1_555
O3 Si3 1.605730 1_555
O3 Zn0 2.085012 1_565
O4 Si4 1.619089 1_555
O4 Sc1 2.020097 1_565
O5 Si5 1.606289 1_555
O5 Sc2 2.045606 1_555
O6 Si6 1.619089 1_555
O6 Sc1 2.020097 1_555
O7 Si7 1.606289 1_555
O7 Sc2 2.045606 1_556
O8 Si0 1.667717 1_555
O8 Si6 1.670401 1_455
O9 Si1 1.672451 1_565
O9 Si7 1.681150 1_555
O10 Si2 1.667717 1_555
O10 Si4 1.670401 1_455
O11 Si3 1.672451 1_545
O11 Si5 1.681150 1_555
O12 Si4 1.657433 1_545
O12 Si2 1.672544 1_655
O13 Si5 1.673196 1_555
O13 Si3 1.691248 1_555
O14 Si6 1.657433 1_565
O14 Si0 1.672544 1_655
O15 Si7 1.673196 1_555
O15 Si1 1.691248 1_555
O16 Si0 1.631364 1_555
O16 Sc2 2.105996 1_555
O16 Zn0 2.198393 1_465
O17 Si1 1.639861 1_555
O17 Sc1 2.120813 1_555
O17 Sc0 2.232281 1_555
O18 Si2 1.631364 1_555
O18 Sc2 2.105996 1_556
O18 Zn0 2.198393 1_456
O19 Si3 1.639861 1_555
O19 Sc1 2.120813 1_565
O19 Sc0 2.232281 1_555
O20 Si4 1.642493 1_555
O20 Zn0 2.138258 1_566
O20 Sc2 2.219416 1_656
O21 Si5 1.637337 1_555
O21 Sc0 2.122558 1_555
O21 Sc1 2.228203 1_555
O22 Si6 1.642493 1_555
O22 Zn0 2.138258 1_555
O22 Sc2 2.219416 1_655
O23 Si7 1.637337 1_555
O23 Sc0 2.122558 1_555
O23 Sc1 2.228203 1_565
