# generated using pymatgen
data_Na3Mo4P5O24
_symmetry_space_group_name_H-M   'P 1'
_cell_length_a   8.64756500
_cell_length_b   9.57358947
_cell_length_c   14.18902885
_cell_angle_alpha   93.18197141
_cell_angle_beta   72.25825201
_cell_angle_gamma   116.84872570
_symmetry_Int_Tables_number   1
_chemical_formula_structural   Na3Mo4P5O24
_chemical_formula_sum   'Na6 Mo8 P10 O48'
_cell_volume   993.53836288
_cell_formula_units_Z   2
loop_
 _symmetry_equiv_pos_site_id
 _symmetry_equiv_pos_as_xyz
  1  'x, y, z'
loop_
 _atom_site_type_symbol
 _atom_site_label
 _atom_site_symmetry_multiplicity
 _atom_site_fract_x
 _atom_site_fract_y
 _atom_site_fract_z
 _atom_site_occupancy
  Na  Na0  1  0.30238900  0.02319200  0.73080900  1
  Na  Na1  1  0.01581700  0.47766100  0.76703500  1
  Na  Na2  1  0.69480900  0.97766100  0.26703500  1
  Na  Na3  1  0.98999400  0.52319200  0.23080900  1
  Na  Na4  1  0.54156900  0.46328400  0.92698100  1
  Na  Na5  1  0.99473400  0.96328400  0.42698100  1
  Mo  Mo0  1  0.46821200  0.49086700  0.67936300  1
  Mo  Mo1  1  0.66102500  0.00935300  0.81912800  1
  Mo  Mo2  1  0.52920000  0.50935300  0.31912800  1
  Mo  Mo3  1  0.34329200  0.99086700  0.17936300  1
  Mo  Mo4  1  0.81061200  0.22198100  0.48393800  1
  Mo  Mo5  1  0.07200400  0.27997500  0.01813600  1
  Mo  Mo6  1  0.18983500  0.77997500  0.51813600  1
  Mo  Mo7  1  0.92743100  0.72198100  0.98393800  1
  P  P0  1  0.85162900  0.74948300  0.75001800  1
  P  P1  1  0.14783600  0.24948300  0.25001800  1
  P  P2  1  0.19512100  0.44247300  0.54069000  1
  P  P3  1  0.29467000  0.05722800  0.95836700  1
  P  P4  1  0.80419100  0.55722800  0.45836700  1
  P  P5  1  0.70666100  0.94247300  0.04069000  1
  P  P6  1  0.55830800  0.87377300  0.60426600  1
  P  P7  1  0.28803100  0.62720700  0.89533900  1
  P  P8  1  0.44383600  0.12720700  0.39533900  1
  P  P9  1  0.71119900  0.37377300  0.10426600  1
  O  O0  1  0.24466300  0.40232800  0.62796600  1
  O  O1  1  0.47277700  0.10013900  0.87186900  1
  O  O2  1  0.75549300  0.60013900  0.37186900  1
  O  O3  1  0.52969900  0.90232800  0.12796600  1
  O  O4  1  0.05104300  0.28951100  0.51521300  1
  O  O5  1  0.28153100  0.21295300  0.98250700  1
  O  O6  1  0.94891500  0.71295300  0.48250700  1
  O  O7  1  0.72325500  0.78951100  0.01521300  1
  O  O8  1  0.68885300  0.60625000  0.73018500  1
  O  O9  1  0.81165400  0.89076000  0.77315700  1
  O  O10  1  0.30594900  0.39076000  0.27315700  1
  O  O11  1  0.18721200  0.10625000  0.23018500  1
  O  O12  1  0.60984600  0.12820900  0.41672000  1
  O  O13  1  0.89750300  0.37229800  0.08369500  1
  O  O14  1  0.39110000  0.87229800  0.58369500  1
  O  O15  1  0.10164400  0.62820900  0.91672000  1
  O  O16  1  0.55180700  0.71258500  0.60450900  1
  O  O17  1  0.44271600  0.78823600  0.89483000  1
  O  O18  1  0.45069000  0.28823600  0.39483000  1
  O  O19  1  0.55626900  0.21258500  0.10450900  1
  O  O20  1  0.63442400  0.47376300  0.54853900  1
  O  O21  1  0.70815300  0.02604300  0.95132000  1
  O  O22  1  0.36657000  0.52604300  0.45132000  1
  O  O23  1  0.29080000  0.97376300  0.04853900  1
  O  O24  1  0.40287700  0.30942100  0.73591300  1
  O  O25  1  0.82753800  0.19389700  0.76589600  1
  O  O26  1  0.60046200  0.69389700  0.26589600  1
  O  O27  1  0.17063100  0.80942100  0.23591300  1
  O  O28  1  0.96799700  0.18573700  0.33956200  1
  O  O29  1  0.11327000  0.30669800  0.16230200  1
  O  O30  1  0.03112600  0.80669800  0.66230200  1
  O  O31  1  0.87817800  0.68573700  0.83956200  1
  O  O32  1  0.73898100  0.98591900  0.52288600  1
  O  O33  1  0.28003900  0.51273300  0.97350400  1
  O  O34  1  0.25919000  0.01273300  0.47350400  1
  O  O35  1  0.72405300  0.48591900  0.02288600  1
  O  O36  1  0.89185900  0.44461600  0.42053000  1
  O  O37  1  0.86776500  0.05609700  0.07955900  1
  O  O38  1  0.10877200  0.55609700  0.57955900  1
  O  O39  1  0.13222600  0.94461600  0.92053000  1
  O  O40  1  0.31243800  0.56142800  0.79173900  1
  O  O41  1  0.54501500  0.93946400  0.70738700  1
  O  O42  1  0.68706200  0.43946400  0.20738700  1
  O  O43  1  0.45725200  0.06142800  0.29173900  1
  O  O44  1  0.68753000  0.23852700  0.59909800  1
  O  O45  1  0.04755200  0.26001000  0.90274300  1
  O  O46  1  0.30971600  0.76001000  0.40274300  1
  O  O47  1  0.95189800  0.73852700  0.09909800  1
loop_
_geom_bond_atom_site_label_1
_geom_bond_atom_site_label_2
_geom_bond_distance
_geom_bond_site_symmetry_2
Na0 O24 2.476837 1_555
Na0 O41 2.493932 1_545
Na0 O14 2.592861 1_545
Na0 O39 2.605492 1_545
Na0 O1 2.715316 1_555
Na0 O30 2.741836 1_545
Na1 O40 2.450339 1_555
Na1 O25 2.459099 1_455
Na1 O38 2.580602 1_555
Na1 O15 2.606467 1_555
Na1 O0 2.661098 1_555
Na1 O31 2.758892 1_455
Na2 O43 2.450331 1_565
Na2 O26 2.459098 1_555
Na2 O37 2.580601 1_565
Na2 O12 2.606465 1_565
Na2 O3 2.661098 1_555
Na2 O28 2.758892 1_565
Na3 O27 2.476837 1_655
Na3 O42 2.493932 1_555
Na3 O13 2.592861 1_555
Na3 O36 2.605490 1_555
Na3 O2 2.715316 1_555
Na3 O29 2.741835 1_655
Na4 O35 2.314319 1_556
Na4 O5 2.383880 1_555
Na4 O33 2.407742 1_555
Na4 O31 2.653367 1_555
Na4 O8 2.823980 1_555
Na5 O32 2.314312 1_555
Na5 O6 2.383880 1_555
Na5 O34 2.407742 1_665
Na5 O28 2.653367 1_565
Na5 O11 2.823980 1_665
Mo0 O24 1.724083 1_555
Mo0 O20 2.022680 1_555
Mo0 O40 2.051023 1_555
Mo0 O8 2.055977 1_555
Mo0 O0 2.073134 1_555
Mo0 O16 2.133673 1_555
Mo1 O25 1.718336 1_555
Mo1 O21 2.020784 1_555
Mo1 O9 2.036424 1_545
Mo1 O41 2.052609 1_545
Mo1 O1 2.104475 1_555
Mo1 O17 2.146090 1_545
Mo2 O26 1.718338 1_555
Mo2 O22 2.020784 1_555
Mo2 O10 2.036424 1_555
Mo2 O42 2.052609 1_555
Mo2 O2 2.104475 1_555
Mo2 O18 2.146090 1_555
Mo3 O27 1.724083 1_555
Mo3 O23 2.022680 1_555
Mo3 O43 2.051028 1_565
Mo3 O11 2.055977 1_565
Mo3 O3 2.073134 1_555
Mo3 O19 2.133673 1_565
Mo4 O44 1.700455 1_555
Mo4 O12 2.058163 1_555
Mo4 O4 2.062530 1_655
Mo4 O36 2.078702 1_555
Mo4 O32 2.112358 1_545
Mo4 O28 2.194935 1_555
Mo5 O45 1.703465 1_554
Mo5 O13 2.044897 1_455
Mo5 O37 2.079106 1_455
Mo5 O5 2.099076 1_554
Mo5 O33 2.108130 1_554
Mo5 O29 2.163675 1_555
Mo6 O46 1.703469 1_555
Mo6 O14 2.044897 1_555
Mo6 O38 2.079103 1_555
Mo6 O6 2.099076 1_455
Mo6 O34 2.108130 1_565
Mo6 O30 2.163676 1_555
Mo7 O47 1.700452 1_556
Mo7 O15 2.058170 1_655
Mo7 O7 2.062530 1_556
Mo7 O39 2.078700 1_655
Mo7 O35 2.112356 1_556
Mo7 O31 2.194935 1_555
O0 P2 1.545864 1_555
O1 P3 1.542616 1_555
O2 P4 1.542616 1_555
O3 P5 1.545858 1_555
O4 P2 1.547624 1_555
O5 P3 1.557387 1_555
O6 P4 1.557387 1_555
O7 P5 1.547628 1_555
O8 P0 1.547900 1_555
O9 P0 1.536386 1_555
O10 P1 1.536386 1_555
O11 P1 1.547900 1_555
O12 P8 1.551030 1_555
O13 P9 1.553853 1_555
O14 P6 1.553853 1_555
O15 P7 1.551013 1_555
O16 P6 1.518746 1_555
O17 P7 1.516122 1_555
O18 P8 1.516118 1_555
O19 P9 1.518746 1_555
O20 P4 1.529661 1_555
O21 P5 1.530233 1_546
O22 P2 1.530238 1_555
O23 P3 1.529661 1_564
O28 P1 1.558794 1_655
O29 P1 1.545552 1_555
O30 P0 1.545552 1_455
O31 P0 1.558794 1_555
O32 P6 1.565253 1_555
O33 P7 1.567070 1_555
O34 P8 1.567066 1_555
O35 P9 1.565249 1_555
O36 P4 1.565640 1_555
O37 P5 1.568800 1_545
O38 P2 1.568800 1_555
O39 P3 1.565646 1_565
O40 P7 1.558902 1_555
O41 P6 1.552508 1_555
O42 P9 1.552508 1_555
O43 P8 1.558901 1_555
