# generated using pymatgen
data_CsHoS2
_symmetry_space_group_name_H-M   'P 1'
_cell_length_a   4.05739686
_cell_length_b   4.05739686
_cell_length_c   16.10172705
_cell_angle_alpha   90.00000000
_cell_angle_beta   90.00000000
_cell_angle_gamma   119.99948572
_symmetry_Int_Tables_number   1
_chemical_formula_structural   CsHoS2
_chemical_formula_sum   'Cs2 Ho2 S4'
_cell_volume   229.56216945
_cell_formula_units_Z   2
loop_
 _symmetry_equiv_pos_site_id
 _symmetry_equiv_pos_as_xyz
  1  'x, y, z'
loop_
 _atom_site_type_symbol
 _atom_site_label
 _atom_site_symmetry_multiplicity
 _atom_site_fract_x
 _atom_site_fract_y
 _atom_site_fract_z
 _atom_site_occupancy
  Cs  Cs0  1  0.66667865  0.33332135  0.75000000  1
  Cs  Cs1  1  0.33332135  0.66667865  0.25000000  1
  Ho  Ho0  1  -0.00000000  0.00000000  0.50000000  1
  Ho  Ho1  1  -0.00000000  0.00000000  0.00000000  1
  S  S0  1  0.66666542  0.33333458  0.09050378  1
  S  S1  1  0.33333458  0.66666542  0.90949622  1
  S  S2  1  0.33333458  0.66666542  0.59050378  1
  S  S3  1  0.66666542  0.33333458  0.40949622  1
loop_
_geom_bond_atom_site_label_1
_geom_bond_atom_site_label_2
_geom_bond_distance
_geom_bond_site_symmetry_2
Cs0 S1 3.476038 1_545
Cs0 S1 3.476038 1_655
Cs0 S2 3.476038 1_545
Cs0 S2 3.476038 1_655
Cs0 S2 3.476102 1_555
Cs0 S1 3.476102 1_555
Cs1 S0 3.476038 1_455
Cs1 S3 3.476038 1_565
Cs1 S0 3.476038 1_565
Cs1 S3 3.476038 1_455
Cs1 S0 3.476102 1_555
Cs1 S3 3.476102 1_555
Ho0 S3 2.758828 1_455
Ho0 S2 2.758828 1_545
Ho0 S3 2.758832 1_555
Ho0 S3 2.758832 1_445
Ho0 S2 2.758832 1_555
Ho0 S2 2.758832 1_445
Ho1 S0 2.758828 1_455
Ho1 S1 2.758828 1_544
Ho1 S0 2.758832 1_555
Ho1 S0 2.758832 1_445
Ho1 S1 2.758832 1_554
Ho1 S1 2.758832 1_444
