# generated using pymatgen
data_Mn4ZnO6
_symmetry_space_group_name_H-M   'P 1'
_cell_length_a   5.33183904
_cell_length_b   5.33183904
_cell_length_c   15.58112100
_cell_angle_alpha   90.00000000
_cell_angle_beta   90.00000000
_cell_angle_gamma   146.77776091
_symmetry_Int_Tables_number   1
_chemical_formula_structural   Mn4ZnO6
_chemical_formula_sum   'Mn8 Zn2 O12'
_cell_volume   242.68588864
_cell_formula_units_Z   2
loop_
 _symmetry_equiv_pos_site_id
 _symmetry_equiv_pos_as_xyz
  1  'x, y, z'
loop_
 _atom_site_type_symbol
 _atom_site_label
 _atom_site_symmetry_multiplicity
 _atom_site_fract_x
 _atom_site_fract_y
 _atom_site_fract_z
 _atom_site_occupancy
  Mn  Mn0  1  0.13567100  0.86432900  0.04531100  1
  Mn  Mn1  1  0.59685200  0.40314800  0.64049600  1
  Mn  Mn2  1  0.86432900  0.13567100  0.95468900  1
  Mn  Mn3  1  0.40314800  0.59685200  0.35950400  1
  Mn  Mn4  1  0.13567100  0.86432900  0.45468900  1
  Mn  Mn5  1  0.86432900  0.13567100  0.54531100  1
  Mn  Mn6  1  0.40314800  0.59685200  0.14049600  1
  Mn  Mn7  1  0.59685200  0.40314800  0.85950400  1
  Zn  Zn0  1  0.34062000  0.65938000  0.75000000  1
  Zn  Zn1  1  0.65938000  0.34062000  0.25000000  1
  O  O0  1  0.50000000  0.50000000  0.50000000  1
  O  O1  1  0.50000000  0.50000000  0.00000000  1
  O  O2  1  0.94974800  0.05025200  0.84261700  1
  O  O3  1  0.05025200  0.94974800  0.15738300  1
  O  O4  1  0.05025200  0.94974800  0.34261700  1
  O  O5  1  0.94974800  0.05025200  0.65738300  1
  O  O6  1  0.21968800  0.78031200  0.92842300  1
  O  O7  1  0.78031200  0.21968800  0.07157700  1
  O  O8  1  0.78031200  0.21968800  0.42842300  1
  O  O9  1  0.21968800  0.78031200  0.57157700  1
  O  O10  1  0.70858200  0.29141800  0.75000000  1
  O  O11  1  0.29141800  0.70858200  0.25000000  1
loop_
_geom_bond_atom_site_label_1
_geom_bond_atom_site_label_2
_geom_bond_distance
_geom_bond_site_symmetry_2
Mn0 O3 1.952213 1_555
Mn0 O6 2.013462 1_554
Mn0 O7 2.162261 1_565
Mn0 O7 2.162261 1_455
Mn0 O1 2.178018 1_565
Mn0 O1 2.178018 1_455
Mn1 O10 2.052961 1_555
Mn1 O5 2.156884 1_565
Mn1 O5 2.156884 1_455
Mn1 O9 2.247663 1_545
Mn1 O9 2.247663 1_655
Mn1 O0 2.402414 1_555
Mn2 O2 1.952213 1_555
Mn2 O7 2.013462 1_556
Mn2 O6 2.162261 1_655
Mn2 O6 2.162261 1_545
Mn2 O1 2.178018 1_546
Mn2 O1 2.178018 1_656
Mn3 O11 2.052961 1_555
Mn3 O4 2.156884 1_655
Mn3 O4 2.156884 1_545
Mn3 O8 2.247663 1_455
Mn3 O8 2.247663 1_565
Mn3 O0 2.402414 1_555
Mn4 O4 1.952213 1_555
Mn4 O9 2.013462 1_555
Mn4 O8 2.162261 1_565
Mn4 O8 2.162261 1_455
Mn4 O0 2.178018 1_455
Mn4 O0 2.178018 1_565
Mn5 O5 1.952213 1_555
Mn5 O8 2.013462 1_555
Mn5 O9 2.162261 1_655
Mn5 O9 2.162261 1_545
Mn5 O0 2.178018 1_545
Mn5 O0 2.178018 1_655
Mn6 O11 2.052961 1_555
Mn6 O3 2.156884 1_655
Mn6 O3 2.156884 1_545
Mn6 O7 2.247663 1_455
Mn6 O7 2.247663 1_565
Mn6 O1 2.402414 1_555
Mn7 O10 2.052961 1_555
Mn7 O2 2.156884 1_565
Mn7 O2 2.156884 1_455
Mn7 O6 2.247663 1_545
Mn7 O6 2.247663 1_655
Mn7 O1 2.402414 1_556
O2 Zn0 2.376827 1_655
O2 Zn0 2.376827 1_545
O3 Zn1 2.376827 1_565
O3 Zn1 2.376827 1_455
O4 Zn1 2.376827 1_565
O4 Zn1 2.376827 1_455
O5 Zn0 2.376827 1_655
O5 Zn0 2.376827 1_545
O10 Zn0 2.035626 1_655
O10 Zn0 2.035626 1_545
O11 Zn1 2.035626 1_565
O11 Zn1 2.035626 1_455
