# generated using pymatgen
data_PrH10N(ClO4)2
_symmetry_space_group_name_H-M   'P 1'
_cell_length_a   12.15535700
_cell_length_b   6.60356900
_cell_length_c   12.72304900
_cell_angle_alpha   90.00000000
_cell_angle_beta   92.99220342
_cell_angle_gamma   90.00000000
_symmetry_Int_Tables_number   1
_chemical_formula_structural   PrH10N(ClO4)2
_chemical_formula_sum   'Pr4 H40 N4 Cl8 O32'
_cell_volume   1019.87075371
_cell_formula_units_Z   4
loop_
 _symmetry_equiv_pos_site_id
 _symmetry_equiv_pos_as_xyz
  1  'x, y, z'
loop_
 _atom_site_type_symbol
 _atom_site_label
 _atom_site_symmetry_multiplicity
 _atom_site_fract_x
 _atom_site_fract_y
 _atom_site_fract_z
 _atom_site_occupancy
  Pr  Pr0  1  0.50000000  0.71830300  0.25000000  1
  Pr  Pr1  1  0.50000000  0.28169700  0.75000000  1
  Pr  Pr2  1  0.00000000  0.25637100  0.25000000  1
  Pr  Pr3  1  0.00000000  0.74362900  0.75000000  1
  H  H0  1  0.54613100  0.09945300  0.10278300  1
  H  H1  1  0.45386900  0.09945300  0.39721700  1
  H  H2  1  0.45386900  0.90054700  0.89721700  1
  H  H3  1  0.54613100  0.90054700  0.60278300  1
  H  H4  1  0.58792800  0.15434400  0.21774700  1
  H  H5  1  0.41207200  0.15434400  0.28225300  1
  H  H6  1  0.41207200  0.84565600  0.78225300  1
  H  H7  1  0.58792800  0.84565600  0.71774700  1
  H  H8  1  0.71458700  0.58408800  0.12650100  1
  H  H9  1  0.28541300  0.58408800  0.37349900  1
  H  H10  1  0.28541300  0.41591200  0.87349900  1
  H  H11  1  0.71458700  0.41591200  0.62650100  1
  H  H12  1  0.62014800  0.59947500  0.03741200  1
  H  H13  1  0.37985200  0.59947500  0.46258800  1
  H  H14  1  0.37985200  0.40052500  0.96258800  1
  H  H15  1  0.62014800  0.40052500  0.53741200  1
  H  H16  1  0.21802600  0.36444200  0.13798500  1
  H  H17  1  0.78197400  0.36444200  0.36201500  1
  H  H18  1  0.78197400  0.63555800  0.86201500  1
  H  H19  1  0.21802600  0.63555800  0.63798500  1
  H  H20  1  0.12195100  0.40500400  0.05069600  1
  H  H21  1  0.87804900  0.40500400  0.44930400  1
  H  H22  1  0.87804900  0.59499600  0.94930400  1
  H  H23  1  0.12195100  0.59499600  0.55069600  1
  H  H24  1  0.98838700  0.84869500  0.12790300  1
  H  H25  1  0.01161300  0.84869500  0.37209700  1
  H  H26  1  0.01161300  0.15130500  0.87209700  1
  H  H27  1  0.98838700  0.15130500  0.62790300  1
  H  H28  1  0.10189800  0.94419000  0.09298500  1
  H  H29  1  0.89810200  0.94419000  0.40701500  1
  H  H30  1  0.89810200  0.05581000  0.90701500  1
  H  H31  1  0.10189800  0.05581000  0.59298500  1
  H  H32  1  0.78079800  0.99978900  0.23089700  1
  H  H33  1  0.21920200  0.99978900  0.26910300  1
  H  H34  1  0.21920200  0.00021100  0.76910300  1
  H  H35  1  0.78079800  0.00021100  0.73089700  1
  H  H36  1  0.78046300  0.10843200  0.12050700  1
  H  H37  1  0.21953700  0.10843200  0.37949300  1
  H  H38  1  0.21953700  0.89156800  0.87949300  1
  H  H39  1  0.78046300  0.89156800  0.62050700  1
  N  N0  1  0.31358200  0.85044200  0.08742700  1
  N  N1  1  0.68641800  0.85044200  0.41257300  1
  N  N2  1  0.68641800  0.14955800  0.91257300  1
  N  N3  1  0.31358200  0.14955800  0.58742700  1
  Cl  Cl0  1  0.39088700  0.37484600  0.14779000  1
  Cl  Cl1  1  0.60911300  0.37484600  0.35221000  1
  Cl  Cl2  1  0.60911300  0.62515400  0.85221000  1
  Cl  Cl3  1  0.39088700  0.62515400  0.64779000  1
  Cl  Cl4  1  0.89321300  0.56181800  0.11765600  1
  Cl  Cl5  1  0.10678700  0.56181800  0.38234400  1
  Cl  Cl6  1  0.10678700  0.43818200  0.88234400  1
  Cl  Cl7  1  0.89321300  0.43818200  0.61765600  1
  O  O0  1  0.40950300  0.81898200  0.05580500  1
  O  O1  1  0.59049700  0.81898200  0.44419500  1
  O  O2  1  0.59049700  0.18101800  0.94419500  1
  O  O3  1  0.40950300  0.18101800  0.55580500  1
  O  O4  1  0.23383000  0.89794700  0.02586900  1
  O  O5  1  0.76617000  0.89794700  0.47413100  1
  O  O6  1  0.76617000  0.10205300  0.97413100  1
  O  O7  1  0.23383000  0.10205300  0.52586900  1
  O  O8  1  0.30022700  0.82990300  0.18584600  1
  O  O9  1  0.69977300  0.82990300  0.31415400  1
  O  O10  1  0.69977300  0.17009700  0.81415400  1
  O  O11  1  0.30022700  0.17009700  0.68584600  1
  O  O12  1  0.57646300  0.03938500  0.16852000  1
  O  O13  1  0.42353700  0.03938500  0.33148000  1
  O  O14  1  0.42353700  0.96061500  0.83148000  1
  O  O15  1  0.57646300  0.96061500  0.66852000  1
  O  O16  1  0.63376500  0.59583300  0.11454300  1
  O  O17  1  0.36623500  0.59583300  0.38545700  1
  O  O18  1  0.36623500  0.40416700  0.88545700  1
  O  O19  1  0.63376500  0.40416700  0.61454300  1
  O  O20  1  0.13682500  0.36964000  0.12555400  1
  O  O21  1  0.86317500  0.36964000  0.37444600  1
  O  O22  1  0.86317500  0.63036000  0.87444600  1
  O  O23  1  0.13682500  0.63036000  0.62555400  1
  O  O24  1  0.03366000  0.97255200  0.12943500  1
  O  O25  1  0.96634000  0.97255200  0.37056500  1
  O  O26  1  0.96634000  0.02744800  0.87056500  1
  O  O27  1  0.03366000  0.02744800  0.62943500  1
  O  O28  1  0.81992600  0.10067700  0.19015000  1
  O  O29  1  0.18007400  0.10067700  0.30985000  1
  O  O30  1  0.18007400  0.89932300  0.80985000  1
  O  O31  1  0.81992600  0.89932300  0.69015000  1
loop_
_geom_bond_atom_site_label_1
_geom_bond_atom_site_label_2
_geom_bond_distance
_geom_bond_site_symmetry_2
H0 O12 0.980106 1_555
H1 O13 0.980106 1_555
H2 O14 0.980106 1_555
H3 O15 0.980106 1_555
H4 O12 0.989382 1_555
H5 O13 0.989382 1_555
H6 O14 0.989382 1_555
H7 O15 0.989382 1_555
H8 O16 0.989297 1_555
H9 O17 0.989297 1_555
H10 O18 0.989297 1_555
H11 O19 0.989297 1_555
H12 O16 0.986939 1_555
H13 O17 0.986939 1_555
H14 O18 0.986939 1_555
H15 O19 0.986939 1_555
H16 O20 0.992027 1_555
H17 O21 0.992027 1_555
H18 O22 0.992027 1_555
H19 O23 0.992027 1_555
H20 O20 0.988106 1_555
H21 O21 0.988106 1_555
H22 O22 0.988106 1_555
H23 O23 0.988106 1_555
H24 O24 0.985423 1_655
H25 O25 0.985423 1_455
H26 O26 0.985423 1_455
H27 O27 0.985423 1_655
H28 O24 0.989093 1_555
H29 O25 0.989093 1_555
H30 O26 0.989093 1_555
H31 O27 0.989093 1_555
H32 O28 0.982124 1_565
H33 O29 0.982124 1_565
H34 O30 0.982124 1_545
H35 O31 0.982124 1_545
H36 O28 0.986646 1_555
H37 O29 0.986646 1_555
H38 O30 0.986646 1_555
H39 O31 0.986646 1_555
N0 O4 1.253921 1_555
N0 O0 1.270216 1_555
N0 O8 1.278260 1_555
N1 O5 1.253921 1_555
N1 O1 1.270216 1_555
N1 O9 1.278260 1_555
N2 O6 1.253921 1_555
N2 O2 1.270216 1_555
N2 O10 1.278260 1_555
N3 O7 1.253921 1_555
N3 O3 1.270216 1_555
N3 O11 1.278260 1_555
Cl0 H16 2.099501 1_555
Cl0 Pr0 2.900714 1_555
Cl1 H17 2.099501 1_555
Cl1 Pr0 2.900714 1_555
Cl2 H18 2.099501 1_555
Cl2 Pr1 2.900714 1_555
Cl3 H19 2.099501 1_555
Cl3 Pr1 2.900714 1_555
Cl4 Pr2 2.891437 1_655
Cl5 Pr2 2.891437 1_555
Cl6 Pr3 2.891437 1_555
Cl7 Pr3 2.891437 1_655
O0 Pr0 2.733667 1_555
O1 Pr0 2.733667 1_555
O2 Pr1 2.733667 1_555
O3 Pr1 2.733667 1_555
O8 Pr0 2.626617 1_555
O9 Pr0 2.626617 1_555
O10 Pr1 2.626617 1_555
O11 Pr1 2.626617 1_555
O12 Pr0 2.556316 1_545
O13 Pr0 2.556316 1_545
O14 Pr1 2.556316 1_565
O15 Pr1 2.556316 1_565
O16 Pr0 2.561359 1_555
O17 Pr0 2.561359 1_555
O18 Pr1 2.561359 1_555
O19 Pr1 2.561359 1_555
O20 Pr2 2.471321 1_555
O21 Pr2 2.471321 1_655
O22 Pr3 2.471321 1_655
O23 Pr3 2.471321 1_555
O24 Pr2 2.469542 1_565
O25 Pr2 2.469542 1_665
O26 Pr3 2.469542 1_645
O27 Pr3 2.469542 1_545
O28 Pr2 2.500804 1_655
O29 Pr2 2.500804 1_555
O30 Pr3 2.500804 1_555
O31 Pr3 2.500804 1_655
