# generated using pymatgen
data_KSn2
_symmetry_space_group_name_H-M   'P 1'
_cell_length_a   6.52522427
_cell_length_b   6.52522427
_cell_length_c   10.16364467
_cell_angle_alpha   90.00000000
_cell_angle_beta   90.00000000
_cell_angle_gamma   119.98258028
_symmetry_Int_Tables_number   1
_chemical_formula_structural   KSn2
_chemical_formula_sum   'K4 Sn8'
_cell_volume   374.84109412
_cell_formula_units_Z   4
loop_
 _symmetry_equiv_pos_site_id
 _symmetry_equiv_pos_as_xyz
  1  'x, y, z'
loop_
 _atom_site_type_symbol
 _atom_site_label
 _atom_site_symmetry_multiplicity
 _atom_site_fract_x
 _atom_site_fract_y
 _atom_site_fract_z
 _atom_site_occupancy
  K  K0  1  0.66663500  0.33336500  0.56719614  1
  K  K1  1  0.33336500  0.66663500  0.43280386  1
  K  K2  1  0.33336500  0.66663500  0.06719614  1
  K  K3  1  0.66663500  0.33336500  0.93280386  1
  Sn  Sn0  1  -0.00000000  0.00000000  0.50000000  1
  Sn  Sn1  1  -0.00000000  0.00000000  0.00000000  1
  Sn  Sn2  1  0.16762168  0.33535293  0.75000000  1
  Sn  Sn3  1  0.16780886  0.83219114  0.75000000  1
  Sn  Sn4  1  0.66464707  0.83237832  0.75000000  1
  Sn  Sn5  1  0.83237832  0.66464707  0.25000000  1
  Sn  Sn6  1  0.83219114  0.16780886  0.25000000  1
  Sn  Sn7  1  0.33535293  0.16762168  0.25000000  1
loop_
_geom_bond_atom_site_label_1
_geom_bond_atom_site_label_2
_geom_bond_distance
_geom_bond_site_symmetry_2
K0 Sn6 3.727439 1_555
K0 Sn7 3.728168 1_555
K0 Sn5 3.728168 1_555
K0 Sn4 3.754526 1_545
K0 Sn2 3.754526 1_655
K0 Sn2 3.754603 1_555
K0 Sn4 3.754603 1_555
K0 Sn3 3.755318 1_545
K0 Sn3 3.755318 1_655
K0 Sn0 3.828771 1_655
K0 Sn0 3.829219 1_555
K0 Sn0 3.829219 1_665
K1 Sn3 3.727439 1_555
K1 Sn2 3.728168 1_555
K1 Sn4 3.728168 1_555
K1 Sn5 3.754526 1_455
K1 Sn7 3.754526 1_565
K1 Sn7 3.754603 1_555
K1 Sn5 3.754603 1_555
K1 Sn6 3.755318 1_455
K1 Sn6 3.755318 1_565
K1 Sn0 3.828771 1_565
K1 Sn0 3.829219 1_555
K1 Sn0 3.829219 1_665
K2 Sn3 3.727439 1_554
K2 Sn2 3.728168 1_554
K2 Sn4 3.728168 1_554
K2 Sn5 3.754526 1_455
K2 Sn7 3.754526 1_565
K2 Sn7 3.754603 1_555
K2 Sn5 3.754603 1_555
K2 Sn6 3.755318 1_455
K2 Sn6 3.755318 1_565
K2 Sn1 3.828771 1_565
K2 Sn1 3.829219 1_555
K2 Sn1 3.829219 1_665
K3 Sn6 3.727439 1_556
K3 Sn7 3.728168 1_556
K3 Sn5 3.728168 1_556
K3 Sn4 3.754526 1_545
K3 Sn2 3.754526 1_655
K3 Sn2 3.754603 1_555
K3 Sn4 3.754603 1_555
K3 Sn3 3.755318 1_545
K3 Sn3 3.755318 1_655
K3 Sn1 3.828771 1_656
K3 Sn1 3.829219 1_556
K3 Sn1 3.829219 1_666
Sn0 Sn4 3.169989 1_445
Sn0 Sn7 3.169989 1_555
Sn0 Sn2 3.169989 1_555
Sn0 Sn5 3.169989 1_445
Sn0 Sn6 3.170585 1_455
Sn0 Sn3 3.170585 1_545
Sn1 Sn7 3.169989 1_555
Sn1 Sn4 3.169989 1_444
Sn1 Sn5 3.169989 1_445
Sn1 Sn2 3.169989 1_554
Sn1 Sn6 3.170585 1_455
Sn1 Sn3 3.170585 1_544
Sn2 Sn3 3.241371 1_555
Sn2 Sn4 3.244056 1_555
Sn2 Sn4 3.282886 1_445
Sn2 Sn3 3.283854 1_545
Sn3 Sn4 3.241371 1_555
Sn3 Sn4 3.283854 1_455
Sn5 Sn6 3.241371 1_555
Sn5 Sn7 3.244056 1_555
Sn5 Sn7 3.282886 1_665
Sn5 Sn6 3.283854 1_565
Sn6 Sn7 3.241371 1_555
Sn6 Sn7 3.283854 1_655
