# generated using pymatgen
data_SiGe3
_symmetry_space_group_name_H-M   'P 1'
_cell_length_a   5.47157511
_cell_length_b   5.47157511
_cell_length_c   5.47157511
_cell_angle_alpha   137.37537128
_cell_angle_beta   137.37537128
_cell_angle_gamma   61.86100596
_symmetry_Int_Tables_number   1
_chemical_formula_structural   SiGe3
_chemical_formula_sum   'Si1 Ge3'
_cell_volume   74.24575368
_cell_formula_units_Z   1
loop_
 _symmetry_equiv_pos_site_id
 _symmetry_equiv_pos_as_xyz
  1  'x, y, z'
loop_
 _atom_site_type_symbol
 _atom_site_label
 _atom_site_symmetry_multiplicity
 _atom_site_fract_x
 _atom_site_fract_y
 _atom_site_fract_z
 _atom_site_occupancy
  Si  Si0  1  0.00000000  0.00000000  0.00000000  1
  Ge  Ge0  1  0.75000000  0.25000000  0.50000000  1
  Ge  Ge1  1  0.25000000  0.75000000  0.50000000  1
  Ge  Ge2  1  0.50000000  0.50000000  0.00000000  1
loop_
_geom_bond_atom_site_label_1
_geom_bond_atom_site_label_2
_geom_bond_distance
_geom_bond_site_symmetry_2
Ge0 Ge1 2.812379 1_555
Ge0 Ge1 2.812379 1_645
Ge0 Ge1 2.812379 1_544
Ge0 Ge1 2.812379 1_656
Ge0 Si0 3.076020 1_656
Ge0 Ge2 3.076020 1_545
Ge0 Si0 3.076020 1_555
Ge0 Si0 3.076020 1_655
Ge0 Ge2 3.076020 1_555
Ge0 Si0 3.076020 1_666
Ge0 Ge2 3.076020 1_656
Ge0 Ge2 3.076020 1_556
Ge1 Ge2 3.076020 1_566
Ge1 Si0 3.076020 1_555
Ge1 Si0 3.076020 1_566
Ge1 Si0 3.076020 1_565
Ge1 Ge2 3.076020 1_555
Ge1 Ge2 3.076020 1_455
Ge1 Si0 3.076020 1_666
Ge1 Ge2 3.076020 1_556
Ge2 Si0 2.812379 1_655
Ge2 Si0 2.812379 1_565
Ge2 Si0 2.812379 1_666
Ge2 Si0 2.812379 1_554
