# generated using pymatgen
data_In23Se28
_symmetry_space_group_name_H-M   'P 1'
_cell_length_a   10.45237271
_cell_length_b   10.45237271
_cell_length_c   18.69537386
_cell_angle_alpha   72.75137071
_cell_angle_beta   72.75137071
_cell_angle_gamma   46.47205727
_symmetry_Int_Tables_number   1
_chemical_formula_structural   In23Se28
_chemical_formula_sum   'In23 Se28'
_cell_volume   1401.67498798
_cell_formula_units_Z   1
loop_
 _symmetry_equiv_pos_site_id
 _symmetry_equiv_pos_as_xyz
  1  'x, y, z'
loop_
 _atom_site_type_symbol
 _atom_site_label
 _atom_site_symmetry_multiplicity
 _atom_site_fract_x
 _atom_site_fract_y
 _atom_site_fract_z
 _atom_site_occupancy
  In  In0  1  0.19308500  0.19308500  0.53276200  1
  In  In1  1  0.69309400  0.69309400  0.53471600  1
  In  In2  1  0.30263500  0.80437900  0.46862500  1
  In  In3  1  0.80437900  0.30263500  0.46862500  1
  In  In4  1  0.41656500  0.41656500  0.39748700  1
  In  In5  1  0.91615000  0.91615000  0.39752200  1
  In  In6  1  0.08218300  0.58278200  0.60489200  1
  In  In7  1  0.58278200  0.08218300  0.60489200  1
  In  In8  1  0.80861400  0.80861400  0.81027200  1
  In  In9  1  0.30991200  0.30991200  0.81112600  1
  In  In10  1  0.69098700  0.19053400  0.18769300  1
  In  In11  1  0.19053400  0.69098700  0.18769300  1
  In  In12  1  0.28033000  0.28033000  0.04484300  1
  In  In13  1  0.77967500  0.77967500  0.04591400  1
  In  In14  1  0.22129000  0.72212900  0.95304500  1
  In  In15  1  0.72212900  0.22129000  0.95304500  1
  In  In16  1  0.15260100  0.15260100  0.87649400  1
  In  In17  1  0.65216000  0.65216000  0.87603300  1
  In  In18  1  0.34658800  0.84711700  0.12178500  1
  In  In19  1  0.84711700  0.34658800  0.12178500  1
  In  In20  1  0.02808900  0.02808900  0.72579100  1
  In  In21  1  0.97114700  0.47037300  0.27556700  1
  In  In22  1  0.47037300  0.97114700  0.27556700  1
  Se  Se0  1  0.53976900  0.53976900  0.00796000  1
  Se  Se1  1  0.03991900  0.03991900  0.00935100  1
  Se  Se2  1  0.95901300  0.46171700  0.99337100  1
  Se  Se3  1  0.46171700  0.95901300  0.99337100  1
  Se  Se4  1  0.16139400  0.16139400  0.17759700  1
  Se  Se5  1  0.66039500  0.66039500  0.17882000  1
  Se  Se6  1  0.33866100  0.84231800  0.82259500  1
  Se  Se7  1  0.84231800  0.33866100  0.82259500  1
  Se  Se8  1  0.36675500  0.36675500  0.27206300  1
  Se  Se9  1  0.86651000  0.86651000  0.27216200  1
  Se  Se10  1  0.13221000  0.63467400  0.72743800  1
  Se  Se11  1  0.63467400  0.13221000  0.72743800  1
  Se  Se12  1  0.89306500  0.89306500  0.90788400  1
  Se  Se13  1  0.39232300  0.39232300  0.90951100  1
  Se  Se14  1  0.60733200  0.10634900  0.09268400  1
  Se  Se15  1  0.10634900  0.60733200  0.09268400  1
  Se  Se16  1  0.94464800  0.94464800  0.53235500  1
  Se  Se17  1  0.44436900  0.44436900  0.53257900  1
  Se  Se18  1  0.55709700  0.05705100  0.46717400  1
  Se  Se19  1  0.05705100  0.55709700  0.46717400  1
  Se  Se20  1  0.23770400  0.23770400  0.65695700  1
  Se  Se21  1  0.73808600  0.73808600  0.65694600  1
  Se  Se22  1  0.26219700  0.76260900  0.34279200  1
  Se  Se23  1  0.76260900  0.26219700  0.34279200  1
  Se  Se24  1  0.15683200  0.15683200  0.40349100  1
  Se  Se25  1  0.65629800  0.65629800  0.40605900  1
  Se  Se26  1  0.34355900  0.84772600  0.59149300  1
  Se  Se27  1  0.84772600  0.34355900  0.59149300  1
loop_
_geom_bond_atom_site_label_1
_geom_bond_atom_site_label_2
_geom_bond_distance
_geom_bond_site_symmetry_2
In0 Se20 2.722141 1_555
In0 Se24 2.722485 1_555
In0 Se26 2.750157 1_545
In0 Se27 2.750157 1_455
In0 Se18 2.969369 1_555
In0 Se19 2.969369 1_555
In1 Se21 2.691354 1_555
In1 Se25 2.717028 1_555
In1 Se27 2.769630 1_555
In1 Se26 2.769630 1_555
In1 Se18 2.975613 1_565
In1 Se19 2.975613 1_655
In2 Se26 2.670508 1_555
In2 Se22 2.712281 1_555
In2 Se25 2.838524 1_555
In2 Se24 2.843219 1_565
In2 Se16 2.899279 1_455
In2 Se17 2.913380 1_555
In3 Se27 2.670508 1_555
In3 Se23 2.712281 1_555
In3 Se25 2.838524 1_555
In3 Se24 2.843219 1_655
In3 Se16 2.899279 1_545
In3 Se17 2.913380 1_555
In4 Se22 2.734591 1_555
In4 Se23 2.734591 1_555
In4 Se17 2.744894 1_555
In4 Se8 2.803883 1_555
In4 Se18 2.933326 1_555
In4 Se19 2.933326 1_555
In5 Se23 2.736547 1_565
In5 Se22 2.736547 1_655
In5 Se16 2.746715 1_555
In5 Se9 2.800756 1_555
In5 Se18 2.928353 1_565
In5 Se19 2.928353 1_655
In6 Se21 2.708714 1_455
In6 Se20 2.716564 1_555
In6 Se10 2.766685 1_555
In6 Se19 2.770969 1_555
In6 Se17 2.972042 1_555
In6 Se16 2.972637 1_455
In7 Se21 2.708714 1_545
In7 Se20 2.716564 1_555
In7 Se11 2.766685 1_555
In7 Se18 2.770969 1_555
In7 Se17 2.972042 1_555
In7 Se16 2.972637 1_545
In8 Se10 2.690173 1_655
In8 Se11 2.690173 1_565
In8 Se12 2.805790 1_555
In9 Se11 2.703672 1_555
In9 Se10 2.703672 1_555
In9 Se13 2.787188 1_555
In10 Se9 2.705165 1_545
In10 Se8 2.705655 1_555
In10 Se14 2.757097 1_555
In11 Se9 2.705165 1_455
In11 Se8 2.705655 1_555
In11 Se15 2.757097 1_555
In12 Se13 2.741633 1_554
In12 Se4 2.778471 1_555
In12 Se2 2.804313 1_454
In12 Se3 2.804313 1_544
In12 Se14 2.841871 1_555
In12 Se15 2.841871 1_555
In13 Se5 2.783786 1_555
In13 Se12 2.788510 1_554
In13 Se3 2.790498 1_554
In13 Se2 2.790498 1_554
In13 Se14 2.834190 1_565
In13 Se15 2.834190 1_655
In14 Se6 2.750023 1_555
In14 Se0 2.809787 1_556
In14 Se1 2.819909 1_566
In14 Se15 2.822474 1_556
In14 Se13 2.838011 1_555
In14 Se12 2.838153 1_455
In15 Se7 2.750023 1_555
In15 Se0 2.809787 1_556
In15 Se1 2.819909 1_656
In15 Se14 2.822474 1_556
In15 Se13 2.838011 1_555
In15 Se12 2.838153 1_545
In16 Se1 2.717481 1_556
In16 Se6 2.721029 1_545
In16 Se7 2.721029 1_455
In17 Se0 2.703267 1_556
In17 Se6 2.734746 1_555
In17 Se7 2.734746 1_555
In18 Se3 2.672038 1_554
In18 Se4 2.775403 1_565
In18 Se5 2.779742 1_555
In19 Se2 2.672038 1_554
In19 Se4 2.775403 1_655
In19 Se5 2.779742 1_555
In20 Se27 3.172639 1_455
In20 Se26 3.172639 1_545
In20 Se6 3.209573 1_545
In20 Se7 3.209573 1_455
In21 Se24 3.093585 1_655
In21 Se25 3.130436 1_555
In21 Se5 3.199056 1_555
In21 Se4 3.200181 1_655
In22 Se24 3.093585 1_565
In22 Se25 3.130436 1_555
In22 Se5 3.199056 1_555
In22 Se4 3.200181 1_565
