# generated using pymatgen
data_Li4MnCo2O7
_symmetry_space_group_name_H-M   'P 1'
_cell_length_a   4.99433900
_cell_length_b   5.89822968
_cell_length_c   8.84226592
_cell_angle_alpha   90.62579448
_cell_angle_beta   95.23823766
_cell_angle_gamma   105.98089707
_symmetry_Int_Tables_number   1
_chemical_formula_structural   Li4MnCo2O7
_chemical_formula_sum   'Li8 Mn2 Co4 O14'
_cell_volume   249.18425001
_cell_formula_units_Z   2
loop_
 _symmetry_equiv_pos_site_id
 _symmetry_equiv_pos_as_xyz
  1  'x, y, z'
loop_
 _atom_site_type_symbol
 _atom_site_label
 _atom_site_symmetry_multiplicity
 _atom_site_fract_x
 _atom_site_fract_y
 _atom_site_fract_z
 _atom_site_occupancy
  Li  Li0  1  0.42188500  0.36213800  0.84756700  1
  Li  Li1  1  0.69846900  0.92294300  0.43653000  1
  Li  Li2  1  0.85662900  0.21648100  0.70805200  1
  Li  Li3  1  0.14771200  0.78137700  0.29615500  1
  Li  Li4  1  0.28803700  0.06824900  0.56986700  1
  Li  Li5  1  0.57364400  0.64169000  0.14642300  1
  Li  Li6  1  0.00622900  0.50000600  0.99843200  1
  Li  Li7  1  0.28411600  0.57574500  0.57623300  1
  Mn  Mn0  1  0.00085800  0.99739300  0.99617100  1
  Mn  Mn1  1  0.85603000  0.71155900  0.71144700  1
  Co  Co0  1  0.57461900  0.14633100  0.14618400  1
  Co  Co1  1  0.13803300  0.29061200  0.29889300  1
  Co  Co2  1  0.42913900  0.85630000  0.85511600  1
  Co  Co3  1  0.70802900  0.43884000  0.43270000  1
  O  O0  1  0.27488200  0.28905700  0.06789300  1
  O  O1  1  0.58227600  0.88199400  0.66209400  1
  O  O2  1  0.71652700  0.15034800  0.93082900  1
  O  O3  1  0.98208000  0.74738000  0.51599100  1
  O  O4  1  0.14033900  0.01221100  0.79440800  1
  O  O5  1  0.43487500  0.59004600  0.35457500  1
  O  O6  1  0.85567900  0.45387100  0.21419200  1
  O  O7  1  0.59940100  0.41549500  0.64711500  1
  O  O8  1  0.85852900  0.97418300  0.19294300  1
  O  O9  1  0.99467400  0.25415800  0.48664600  1
  O  O10  1  0.28210600  0.83734000  0.05462600  1
  O  O11  1  0.43189900  0.11330500  0.35086700  1
  O  O12  1  0.71963300  0.70376100  0.91949300  1
  O  O13  1  0.14366800  0.56718800  0.78856100  1
loop_
_geom_bond_atom_site_label_1
_geom_bond_atom_site_label_2
_geom_bond_distance
_geom_bond_site_symmetry_2
Li0 O7 2.042576 1_555
Li0 O13 2.114815 1_555
Li0 O0 2.150695 1_556
Li0 O4 2.172125 1_555
Li0 O12 2.196665 1_555
Li0 O2 2.258847 1_555
Li1 O3 2.052826 1_555
Li1 O11 2.065050 1_565
Li1 O9 2.114561 1_565
Li1 O5 2.117778 1_555
Li1 O1 2.125510 1_555
Li1 O8 2.359039 1_555
Li2 O7 2.009078 1_555
Li2 O1 2.080189 1_545
Li2 O9 2.128150 1_555
Li2 O2 2.154124 1_555
Li2 O4 2.192025 1_655
Li2 O13 2.233704 1_655
Li3 O5 2.089484 1_555
Li3 O11 2.098887 1_565
Li3 O6 2.146866 1_455
Li3 O3 2.171138 1_455
Li3 O8 2.213249 1_455
Li3 O10 2.296886 1_555
Li4 O3 2.097299 1_445
Li4 O11 2.120584 1_555
Li4 O9 2.143819 1_455
Li4 O1 2.172810 1_545
Li4 O4 2.177821 1_555
Li4 O7 2.258620 1_555
Li5 O5 2.022278 1_555
Li5 O6 2.071230 1_555
Li5 O8 2.092526 1_555
Li5 O12 2.197316 1_554
Li5 O10 2.200103 1_555
Li5 O0 2.259425 1_555
Li6 O13 2.042259 1_555
Li6 O6 2.107067 1_456
Li6 O10 2.109021 1_556
Li6 O0 2.123928 1_556
Li6 O12 2.182519 1_455
Li6 O2 2.208205 1_455
Li7 O13 2.059726 1_555
Li7 O3 2.071229 1_455
Li7 O1 2.083068 1_555
Li7 O7 2.101896 1_555
Li7 O9 2.136185 1_455
Li7 O5 2.157215 1_555
Mn0 O8 1.931003 1_456
Mn0 O2 1.931644 1_465
Mn0 O10 1.933813 1_556
Mn0 O0 1.938018 1_566
Mn0 O4 1.967873 1_565
Mn0 O12 1.973057 1_455
Mn1 O3 1.887138 1_555
Mn1 O7 1.904858 1_555
Mn1 O1 1.930732 1_555
Mn1 O13 1.939371 1_655
Mn1 O12 2.015863 1_555
Mn1 O4 2.023333 1_665
Co0 O8 1.976707 1_545
Co0 O0 1.986532 1_555
Co0 O11 1.997103 1_555
Co0 O6 2.010570 1_555
Co0 O2 2.089764 1_554
Co0 O10 2.096885 1_545
Co1 O9 1.858782 1_455
Co1 O5 1.991357 1_555
Co1 O6 2.011810 1_455
Co1 O11 2.047300 1_555
Co1 O8 2.144313 1_445
Co1 O0 2.212969 1_555
Co2 O1 1.923823 1_555
Co2 O13 1.942443 1_555
Co2 O4 1.952946 1_565
Co2 O12 1.953855 1_555
Co2 O10 1.964562 1_556
Co2 O2 1.986150 1_565
Co3 O5 1.909196 1_555
Co3 O7 2.014986 1_555
Co3 O3 2.035363 1_555
Co3 O9 2.051567 1_555
Co3 O11 2.107500 1_555
Co3 O6 2.124281 1_555
