# generated using pymatgen
data_La3SmV2Cr2O12
_symmetry_space_group_name_H-M   'P 1'
_cell_length_a   3.90908000
_cell_length_b   7.88329900
_cell_length_c   7.88550700
_cell_angle_alpha   90.00000000
_cell_angle_beta   90.00000000
_cell_angle_gamma   90.00000000
_symmetry_Int_Tables_number   1
_chemical_formula_structural   La3SmV2Cr2O12
_chemical_formula_sum   'La3 Sm1 V2 Cr2 O12'
_cell_volume   243.00330424
_cell_formula_units_Z   1
loop_
 _symmetry_equiv_pos_site_id
 _symmetry_equiv_pos_as_xyz
  1  'x, y, z'
loop_
 _atom_site_type_symbol
 _atom_site_label
 _atom_site_symmetry_multiplicity
 _atom_site_fract_x
 _atom_site_fract_y
 _atom_site_fract_z
 _atom_site_occupancy
  La  La0  1  0.50000000  0.25054900  0.50000000  1
  La  La1  1  0.50000000  0.74607800  0.50000000  1
  La  La2  1  0.50000000  0.74905000  0.00000000  1
  Sm  Sm0  1  0.50000000  0.25462000  0.00000000  1
  V  V0  1  0.00000000  0.00108800  0.75085700  1
  V  V1  1  0.00000000  0.00108800  0.24914300  1
  Cr  Cr0  1  0.00000000  0.49940600  0.75073900  1
  Cr  Cr1  1  0.00000000  0.49940600  0.24926100  1
  O  O0  1  0.00000000  0.99703200  0.50000000  1
  O  O1  1  0.00000000  0.49887600  0.50000000  1
  O  O2  1  0.00000000  0.00735000  0.00000000  1
  O  O3  1  0.00000000  0.49652700  0.00000000  1
  O  O4  1  0.00000000  0.25286100  0.75541600  1
  O  O5  1  0.00000000  0.74744500  0.74900000  1
  O  O6  1  0.00000000  0.25286100  0.24458400  1
  O  O7  1  0.00000000  0.74744500  0.25100000  1
  O  O8  1  0.50000000  0.00167300  0.75170100  1
  O  O9  1  0.50000000  0.49748500  0.75250000  1
  O  O10  1  0.50000000  0.00167300  0.24829900  1
  O  O11  1  0.50000000  0.49748500  0.24750000  1
loop_
_geom_bond_atom_site_label_1
_geom_bond_atom_site_label_2
_geom_bond_distance
_geom_bond_site_symmetry_2
La0 O1 2.766327 1_555
La0 O1 2.766327 1_655
La0 O9 2.784595 1_555
La0 O11 2.784595 1_555
La0 O8 2.790823 1_555
La0 O10 2.790823 1_555
La0 O0 2.795430 1_545
La0 O0 2.795430 1_645
La0 O4 2.806616 1_555
La0 O4 2.806616 1_655
La0 O6 2.806616 1_655
La0 O6 2.806616 1_555
La1 O1 2.760058 1_555
La1 O1 2.760058 1_655
La1 O7 2.770495 1_655
La1 O5 2.770495 1_655
La1 O5 2.770495 1_555
La1 O7 2.770495 1_555
La1 O0 2.781021 1_555
La1 O0 2.781021 1_655
La1 O9 2.793742 1_555
La1 O11 2.793742 1_555
La1 O10 2.828311 1_565
La1 O8 2.828311 1_565
La2 O5 2.781702 1_654
La2 O7 2.781702 1_655
La2 O5 2.781702 1_554
La2 O7 2.781702 1_555
La2 O11 2.782431 1_555
La2 O9 2.782431 1_554
La2 O3 2.789833 1_555
La2 O3 2.789833 1_655
La2 O10 2.792795 1_565
La2 O8 2.792795 1_564
La2 O2 2.822511 1_565
La2 O2 2.822511 1_665
Cr0 O4 1.943938 1_555
Cr0 O9 1.954648 1_555
Cr0 O9 1.954648 1_455
Cr0 O5 1.955414 1_555
Cr0 O3 1.965680 1_556
Cr0 O1 1.977209 1_555
Cr1 O6 1.943938 1_555
Cr1 O11 1.954648 1_555
Cr1 O11 1.954648 1_455
Cr1 O7 1.955414 1_555
Cr1 O3 1.965680 1_555
Cr1 O1 1.977209 1_555
O0 V0 1.978393 1_565
O0 V1 1.978393 1_565
O2 V1 1.965239 1_555
O2 V0 1.965239 1_554
O2 Sm0 2.760437 1_555
O2 Sm0 2.760437 1_455
O3 Sm0 2.730746 1_555
O3 Sm0 2.730746 1_455
O4 V0 1.985127 1_555
O4 Sm0 2.745939 1_456
O4 Sm0 2.745939 1_556
O5 V0 1.999597 1_565
O6 V1 1.985127 1_555
O6 Sm0 2.745939 1_455
O6 Sm0 2.745939 1_555
O7 V1 1.999597 1_565
O8 V0 1.954557 1_555
O8 V0 1.954557 1_655
O8 Sm0 2.794617 1_556
O9 Sm0 2.733971 1_556
O10 V1 1.954557 1_655
O10 V1 1.954557 1_555
O10 Sm0 2.794617 1_555
O11 Sm0 2.733971 1_555
