# generated using pymatgen
data_KMg6Nb
_symmetry_space_group_name_H-M   'P 1'
_cell_length_a   5.13090900
_cell_length_b   6.54720400
_cell_length_c   11.23844700
_cell_angle_alpha   90.00000000
_cell_angle_beta   90.00000000
_cell_angle_gamma   90.00000000
_symmetry_Int_Tables_number   1
_chemical_formula_structural   KMg6Nb
_chemical_formula_sum   'K2 Mg12 Nb2'
_cell_volume   377.53436302
_cell_formula_units_Z   2
loop_
 _symmetry_equiv_pos_site_id
 _symmetry_equiv_pos_as_xyz
  1  'x, y, z'
loop_
 _atom_site_type_symbol
 _atom_site_label
 _atom_site_symmetry_multiplicity
 _atom_site_fract_x
 _atom_site_fract_y
 _atom_site_fract_z
 _atom_site_occupancy
  K  K0  1  0.00000000  0.00000000  0.91725500  1
  K  K1  1  0.00000000  0.50000000  0.41725500  1
  Mg  Mg0  1  0.00000000  0.77135900  0.65816900  1
  Mg  Mg1  1  0.00000000  0.22864100  0.65816900  1
  Mg  Mg2  1  0.00000000  0.00000000  0.42287900  1
  Mg  Mg3  1  0.50000000  0.76139900  0.33217200  1
  Mg  Mg4  1  0.50000000  0.23860100  0.33217200  1
  Mg  Mg5  1  0.50000000  0.00000000  0.09598200  1
  Mg  Mg6  1  0.00000000  0.27135900  0.15816900  1
  Mg  Mg7  1  0.00000000  0.72864100  0.15816900  1
  Mg  Mg8  1  0.00000000  0.50000000  0.92287900  1
  Mg  Mg9  1  0.50000000  0.26139900  0.83217200  1
  Mg  Mg10  1  0.50000000  0.73860100  0.83217200  1
  Mg  Mg11  1  0.50000000  0.50000000  0.59598200  1
  Nb  Nb0  1  0.50000000  0.00000000  0.58320200  1
  Nb  Nb1  1  0.50000000  0.50000000  0.08320200  1
loop_
_geom_bond_atom_site_label_1
_geom_bond_atom_site_label_2
_geom_bond_distance
_geom_bond_site_symmetry_2
K0 Mg9 3.228758 1_555
K0 Mg9 3.228758 1_455
K0 Mg10 3.228758 1_545
K0 Mg10 3.228758 1_445
K0 Mg6 3.238366 1_556
K0 Mg7 3.238366 1_546
K0 Mg5 3.258234 1_556
K0 Mg5 3.258234 1_456
K0 Mg1 3.273992 1_555
K0 Mg0 3.273992 1_545
K0 Mg8 3.274212 1_545
K0 Mg8 3.274212 1_555
K1 Mg3 3.228758 1_455
K1 Mg3 3.228758 1_555
K1 Mg4 3.228758 1_455
K1 Mg4 3.228758 1_555
K1 Mg0 3.238366 1_555
K1 Mg1 3.238366 1_555
K1 Mg11 3.258234 1_455
K1 Mg11 3.258234 1_555
K1 Mg7 3.273992 1_555
K1 Mg6 3.273992 1_555
K1 Mg2 3.274212 1_555
K1 Mg2 3.274212 1_565
Mg0 Mg1 2.993919 1_565
Mg0 Mg2 3.038615 1_565
Mg0 Nb0 3.087438 1_565
Mg0 Nb0 3.087438 1_465
Mg0 Mg11 3.197883 1_555
Mg0 Mg11 3.197883 1_455
Mg0 Mg10 3.232898 1_455
Mg0 Mg10 3.232898 1_555
Mg0 Mg8 3.465063 1_555
Mg0 Mg1 3.553285 1_555
Mg1 Mg2 3.038615 1_555
Mg1 Nb0 3.087438 1_455
Mg1 Nb0 3.087438 1_555
Mg1 Mg11 3.197883 1_455
Mg1 Mg11 3.197883 1_555
Mg1 Mg9 3.232898 1_455
Mg1 Mg9 3.232898 1_555
Mg1 Mg8 3.465063 1_555
Mg2 Nb0 3.134960 1_455
Mg2 Nb0 3.134960 1_555
Mg2 Mg4 3.171927 1_455
Mg2 Mg4 3.171927 1_555
Mg2 Mg3 3.171927 1_545
Mg2 Mg3 3.171927 1_445
Mg2 Mg6 3.465063 1_555
Mg2 Mg7 3.465063 1_545
Mg3 Mg5 3.079977 1_565
Mg3 Mg4 3.124339 1_565
Mg3 Nb0 3.224821 1_565
Mg3 Mg7 3.232898 1_555
Mg3 Mg7 3.232898 1_655
Mg3 Nb1 3.279940 1_555
Mg3 Mg4 3.422865 1_555
Mg4 Mg5 3.079977 1_555
Mg4 Nb0 3.224821 1_555
Mg4 Mg6 3.232898 1_655
Mg4 Mg6 3.232898 1_555
Mg4 Nb1 3.279940 1_555
Mg5 Mg6 3.197883 1_555
Mg5 Mg6 3.197883 1_655
Mg5 Mg7 3.197883 1_645
Mg5 Mg7 3.197883 1_545
Mg5 Nb1 3.276751 1_555
Mg5 Nb1 3.276751 1_545
Mg5 Mg9 3.423321 1_554
Mg6 Mg7 2.993919 1_555
Mg6 Mg8 3.038615 1_554
Mg6 Nb1 3.087438 1_555
Mg6 Nb1 3.087438 1_455
Mg6 Mg7 3.553285 1_545
Mg7 Mg8 3.038615 1_554
Mg7 Nb1 3.087438 1_555
Mg7 Nb1 3.087438 1_455
Mg8 Nb1 3.134960 1_556
Mg8 Nb1 3.134960 1_456
Mg8 Mg9 3.171927 1_455
Mg8 Mg9 3.171927 1_555
Mg9 Nb1 3.224821 1_556
Mg9 Nb0 3.279940 1_555
Mg10 Mg11 3.079977 1_555
Mg10 Mg9 3.124339 1_555
Mg10 Mg8 3.171927 1_655
Mg10 Mg8 3.171927 1_555
Mg10 Nb1 3.224821 1_556
Mg10 Nb0 3.279940 1_565
Mg10 Mg9 3.422865 1_565
Mg10 Mg5 3.423321 1_566
Mg11 Mg9 3.079977 1_555
Mg11 Nb0 3.276751 1_565
Mg11 Nb0 3.276751 1_555
Mg11 Mg3 3.423321 1_555
Mg11 Mg4 3.423321 1_555
