# generated using pymatgen
data_Cs3PrCl6
_symmetry_space_group_name_H-M   'P 1'
_cell_length_a   8.54752374
_cell_length_b   8.54752374
_cell_length_c   8.54752374
_cell_angle_alpha   60.00000000
_cell_angle_beta   60.00000000
_cell_angle_gamma   60.00000000
_symmetry_Int_Tables_number   1
_chemical_formula_structural   Cs3PrCl6
_chemical_formula_sum   'Cs3 Pr1 Cl6'
_cell_volume   441.57649653
_cell_formula_units_Z   1
loop_
 _symmetry_equiv_pos_site_id
 _symmetry_equiv_pos_as_xyz
  1  'x, y, z'
loop_
 _atom_site_type_symbol
 _atom_site_label
 _atom_site_symmetry_multiplicity
 _atom_site_fract_x
 _atom_site_fract_y
 _atom_site_fract_z
 _atom_site_occupancy
  Cs  Cs0  1  0.50000000  0.50000000  0.50000000  1
  Cs  Cs1  1  0.25000000  0.25000000  0.25000000  1
  Cs  Cs2  1  0.75000000  0.75000000  0.75000000  1
  Pr  Pr0  1  0.00000000  0.00000000  0.00000000  1
  Cl  Cl0  1  0.77179700  0.22820300  0.22820300  1
  Cl  Cl1  1  0.22820300  0.77179700  0.77179700  1
  Cl  Cl2  1  0.22820300  0.77179700  0.22820300  1
  Cl  Cl3  1  0.77179700  0.22820300  0.77179700  1
  Cl  Cl4  1  0.22820300  0.22820300  0.77179700  1
  Cl  Cl5  1  0.77179700  0.77179700  0.22820300  1
loop_
_geom_bond_atom_site_label_1
_geom_bond_atom_site_label_2
_geom_bond_distance
_geom_bond_site_symmetry_2
Cl0 Pr0 2.758523 1_655
Cl0 Cs0 3.285489 1_555
Cl1 Pr0 2.758523 1_566
Cl1 Cs0 3.285489 1_555
Cl2 Pr0 2.758523 1_565
Cl2 Cs0 3.285489 1_555
Cl3 Pr0 2.758523 1_656
Cl3 Cs0 3.285489 1_555
Cl4 Pr0 2.758523 1_556
Cl4 Cs0 3.285489 1_555
Cl5 Pr0 2.758523 1_665
Cl5 Cs0 3.285489 1_555
