# generated using pymatgen
data_KMnF3
_symmetry_space_group_name_H-M   'P 1'
_cell_length_a   6.01160500
_cell_length_b   6.02230300
_cell_length_c   8.49730500
_cell_angle_alpha   90.00000000
_cell_angle_beta   90.00000000
_cell_angle_gamma   90.00000000
_symmetry_Int_Tables_number   1
_chemical_formula_structural   KMnF3
_chemical_formula_sum   'K4 Mn4 F12'
_cell_volume   307.63393903
_cell_formula_units_Z   4
loop_
 _symmetry_equiv_pos_site_id
 _symmetry_equiv_pos_as_xyz
  1  'x, y, z'
loop_
 _atom_site_type_symbol
 _atom_site_label
 _atom_site_symmetry_multiplicity
 _atom_site_fract_x
 _atom_site_fract_y
 _atom_site_fract_z
 _atom_site_occupancy
  K  K0  1  0.50711400  0.51075700  0.25000000  1
  K  K1  1  0.99288600  0.01075700  0.25000000  1
  K  K2  1  0.49288600  0.48924300  0.75000000  1
  K  K3  1  0.00711400  0.98924300  0.75000000  1
  Mn  Mn0  1  0.00000000  0.50000000  0.00000000  1
  Mn  Mn1  1  0.50000000  0.00000000  0.50000000  1
  Mn  Mn2  1  0.00000000  0.50000000  0.50000000  1
  Mn  Mn3  1  0.50000000  0.00000000  0.00000000  1
  F  F0  1  0.45471200  0.99443400  0.25000000  1
  F  F1  1  0.04528800  0.49443400  0.25000000  1
  F  F2  1  0.54528800  0.00556600  0.75000000  1
  F  F3  1  0.95471200  0.50556600  0.75000000  1
  F  F4  1  0.75249100  0.75213000  0.02509700  1
  F  F5  1  0.74750900  0.25213000  0.47490300  1
  F  F6  1  0.24750900  0.24787000  0.52509700  1
  F  F7  1  0.25249100  0.74787000  0.97490300  1
  F  F8  1  0.24750900  0.24787000  0.97490300  1
  F  F9  1  0.25249100  0.74787000  0.52509700  1
  F  F10  1  0.75249100  0.75213000  0.47490300  1
  F  F11  1  0.74750900  0.25213000  0.02509700  1
loop_
_geom_bond_atom_site_label_1
_geom_bond_atom_site_label_2
_geom_bond_distance
_geom_bond_site_symmetry_2
F0 Mn3 2.141963 1_565
F0 Mn1 2.141963 1_565
F0 K1 2.778055 1_465
F0 K0 2.929834 1_555
F0 K0 3.125370 1_565
F0 K1 3.236783 1_565
F1 Mn2 2.141963 1_555
F1 Mn0 2.141963 1_555
F1 K0 2.778055 1_555
F1 K1 2.929834 1_455
F1 K1 3.125370 1_465
F1 K0 3.236783 1_455
F2 Mn3 2.141963 1_556
F2 Mn1 2.141963 1_555
F2 K3 2.778055 1_645
F2 K2 2.929834 1_555
F2 K2 3.125370 1_545
F2 K3 3.236783 1_545
F3 Mn0 2.141963 1_656
F3 Mn2 2.141963 1_655
F3 K2 2.778055 1_555
F3 K3 2.929834 1_655
F3 K3 3.125370 1_645
F3 K2 3.236783 1_655
F4 Mn0 2.136575 1_655
F4 Mn3 2.139562 1_565
F4 K0 2.818005 1_555
F4 K1 2.857722 1_565
F4 K3 3.137898 1_654
F4 K2 3.225891 1_554
F5 Mn1 2.136575 1_555
F5 Mn2 2.139562 1_655
F5 K1 2.818005 1_555
F5 K0 2.857722 1_555
F5 K2 3.137898 1_555
F5 K3 3.225891 1_645
F6 Mn2 2.136575 1_555
F6 Mn1 2.139562 1_555
F6 K2 2.818005 1_555
F6 K3 2.857722 1_545
F6 K1 3.137898 1_455
F6 K0 3.225891 1_555
F7 Mn3 2.136575 1_566
F7 Mn0 2.139562 1_556
F7 K3 2.818005 1_555
F7 K2 2.857722 1_555
F7 K0 3.137898 1_556
F7 K1 3.225891 1_466
F8 Mn0 2.136575 1_556
F8 Mn3 2.139562 1_556
F8 K2 2.818005 1_555
F8 K3 2.857722 1_545
F8 K1 3.137898 1_456
F8 K0 3.225891 1_556
F9 Mn1 2.136575 1_565
F9 Mn2 2.139562 1_555
F9 K3 2.818005 1_555
F9 K2 2.857722 1_555
F9 K0 3.137898 1_555
F9 K1 3.225891 1_465
F10 Mn2 2.136575 1_655
F10 Mn1 2.139562 1_565
F10 K0 2.818005 1_555
F10 K1 2.857722 1_565
F10 K3 3.137898 1_655
F10 K2 3.225891 1_555
F11 Mn3 2.136575 1_555
F11 Mn0 2.139562 1_655
F11 K1 2.818005 1_555
F11 K0 2.857722 1_555
F11 K2 3.137898 1_554
F11 K3 3.225891 1_644
