# generated using pymatgen
data_Zr4Ni2N
_symmetry_space_group_name_H-M   'P 1'
_cell_length_a   8.68040749
_cell_length_b   8.68040749
_cell_length_c   8.68040749
_cell_angle_alpha   60.00000000
_cell_angle_beta   60.00000000
_cell_angle_gamma   60.00000000
_symmetry_Int_Tables_number   1
_chemical_formula_structural   Zr4Ni2N
_chemical_formula_sum   'Zr16 Ni8 N4'
_cell_volume   462.49318891
_cell_formula_units_Z   4
loop_
 _symmetry_equiv_pos_site_id
 _symmetry_equiv_pos_as_xyz
  1  'x, y, z'
loop_
 _atom_site_type_symbol
 _atom_site_label
 _atom_site_symmetry_multiplicity
 _atom_site_fract_x
 _atom_site_fract_y
 _atom_site_fract_z
 _atom_site_occupancy
  Zr  Zr0  1  0.12500000  0.62500000  0.62500000  1
  Zr  Zr1  1  0.62500000  0.12500000  0.62500000  1
  Zr  Zr2  1  0.62500000  0.62500000  0.12500000  1
  Zr  Zr3  1  0.62500000  0.62500000  0.62500000  1
  Zr  Zr4  1  0.81648600  0.81648600  0.18351400  1
  Zr  Zr5  1  0.18351400  0.18351400  0.81648600  1
  Zr  Zr6  1  0.81648600  0.18351400  0.81648600  1
  Zr  Zr7  1  0.18351400  0.81648600  0.18351400  1
  Zr  Zr8  1  0.18351400  0.81648600  0.81648600  1
  Zr  Zr9  1  0.81648600  0.18351400  0.18351400  1
  Zr  Zr10  1  0.43351400  0.43351400  0.06648600  1
  Zr  Zr11  1  0.06648600  0.06648600  0.43351400  1
  Zr  Zr12  1  0.43351400  0.06648600  0.43351400  1
  Zr  Zr13  1  0.06648600  0.43351400  0.06648600  1
  Zr  Zr14  1  0.06648600  0.43351400  0.43351400  1
  Zr  Zr15  1  0.43351400  0.06648600  0.06648600  1
  Ni  Ni0  1  0.76768300  0.41077200  0.41077200  1
  Ni  Ni1  1  0.41077200  0.76768300  0.41077200  1
  Ni  Ni2  1  0.41077200  0.41077200  0.76768300  1
  Ni  Ni3  1  0.41077200  0.41077200  0.41077200  1
  Ni  Ni4  1  0.48231700  0.83922800  0.83922800  1
  Ni  Ni5  1  0.83922800  0.48231700  0.83922800  1
  Ni  Ni6  1  0.83922800  0.83922800  0.48231700  1
  Ni  Ni7  1  0.83922800  0.83922800  0.83922800  1
  N  N0  1  0.62500000  0.12500000  0.12500000  1
  N  N1  1  0.12500000  0.62500000  0.12500000  1
  N  N2  1  0.12500000  0.12500000  0.62500000  1
  N  N3  1  0.12500000  0.12500000  0.12500000  1
loop_
_geom_bond_atom_site_label_1
_geom_bond_atom_site_label_2
_geom_bond_distance
_geom_bond_site_symmetry_2
Ni0 Zr2 2.702180 1_555
Ni0 Zr1 2.702180 1_555
Ni0 Zr3 2.702187 1_555
Ni0 Zr13 2.805064 1_655
Ni0 Zr11 2.805064 1_655
Ni0 Zr14 2.805069 1_655
Ni1 Zr0 2.702180 1_555
Ni1 Zr2 2.702180 1_555
Ni1 Zr3 2.702187 1_555
Ni1 Zr15 2.805064 1_565
Ni1 Zr11 2.805064 1_565
Ni1 Zr12 2.805069 1_565
Ni2 Zr0 2.702180 1_555
Ni2 Zr1 2.702180 1_555
Ni2 Zr3 2.702187 1_555
Ni2 Zr15 2.805064 1_556
Ni2 Zr13 2.805064 1_556
Ni2 Zr10 2.805069 1_556
Ni3 Zr0 2.702185 1_555
Ni3 Zr1 2.702185 1_555
Ni3 Zr2 2.702185 1_555
Ni3 Zr10 2.805060 1_555
Ni3 Zr12 2.805060 1_555
Ni3 Zr14 2.805060 1_555
Ni4 Zr2 2.702180 1_556
Ni4 Zr1 2.702180 1_565
Ni4 Zr3 2.702187 1_555
Ni4 Zr5 2.805064 1_565
Ni4 Zr7 2.805064 1_556
Ni4 Zr8 2.805069 1_555
Ni5 Zr0 2.702180 1_655
Ni5 Zr2 2.702180 1_556
Ni5 Zr3 2.702187 1_555
Ni5 Zr5 2.805064 1_655
Ni5 Zr9 2.805064 1_556
Ni5 Zr6 2.805069 1_555
Ni6 Zr0 2.702180 1_655
Ni6 Zr1 2.702180 1_565
Ni6 Zr3 2.702187 1_555
Ni6 Zr7 2.805064 1_655
Ni6 Zr9 2.805064 1_565
Ni6 Zr4 2.805069 1_555
Ni7 Zr2 2.702185 1_556
Ni7 Zr0 2.702185 1_655
Ni7 Zr1 2.702185 1_565
Ni7 Zr8 2.805060 1_655
Ni7 Zr6 2.805060 1_565
Ni7 Zr4 2.805060 1_556
N0 Zr9 2.285896 1_555
N0 Zr10 2.285896 1_555
N0 Zr12 2.285896 1_555
N0 Zr6 2.285896 1_554
N0 Zr4 2.285896 1_545
N0 Zr15 2.285896 1_555
N1 Zr7 2.285896 1_555
N1 Zr10 2.285896 1_555
N1 Zr14 2.285896 1_555
N1 Zr4 2.285896 1_455
N1 Zr8 2.285896 1_554
N1 Zr13 2.285896 1_555
N2 Zr5 2.285896 1_555
N2 Zr14 2.285896 1_555
N2 Zr12 2.285896 1_555
N2 Zr8 2.285896 1_545
N2 Zr6 2.285896 1_455
N2 Zr11 2.285896 1_555
N3 Zr11 2.285896 1_555
N3 Zr15 2.285896 1_555
N3 Zr13 2.285896 1_555
N3 Zr7 2.285896 1_545
N3 Zr5 2.285896 1_554
N3 Zr9 2.285896 1_455
