# generated using pymatgen
data_CuBi3PbS6
_symmetry_space_group_name_H-M   'P 1'
_cell_length_a   4.06291100
_cell_length_b   11.21371600
_cell_length_c   11.66076000
_cell_angle_alpha   90.00000000
_cell_angle_beta   90.00000000
_cell_angle_gamma   90.00000000
_symmetry_Int_Tables_number   1
_chemical_formula_structural   CuBi3PbS6
_chemical_formula_sum   'Cu2 Bi6 Pb2 S12'
_cell_volume   531.26807467
_cell_formula_units_Z   2
loop_
 _symmetry_equiv_pos_site_id
 _symmetry_equiv_pos_as_xyz
  1  'x, y, z'
loop_
 _atom_site_type_symbol
 _atom_site_label
 _atom_site_symmetry_multiplicity
 _atom_site_fract_x
 _atom_site_fract_y
 _atom_site_fract_z
 _atom_site_occupancy
  Cu  Cu0  1  0.00000000  0.78926900  0.51204600  1
  Cu  Cu1  1  0.50000000  0.28926900  0.48795400  1
  Bi  Bi0  1  0.00000000  0.32096100  0.73967000  1
  Bi  Bi1  1  0.00000000  0.17965000  0.22583400  1
  Bi  Bi2  1  0.50000000  0.67965000  0.77416600  1
  Bi  Bi3  1  0.50000000  0.82096100  0.26033000  1
  Bi  Bi4  1  0.00000000  0.97863600  0.91203000  1
  Bi  Bi5  1  0.50000000  0.47863600  0.08797000  1
  Pb  Pb0  1  0.00000000  0.51778200  0.41262100  1
  Pb  Pb1  1  0.50000000  0.01778200  0.58737900  1
  S  S0  1  0.00000000  0.85890500  0.70769700  1
  S  S1  1  0.00000000  0.63000500  0.20032800  1
  S  S2  1  0.50000000  0.13000500  0.79967200  1
  S  S3  1  0.50000000  0.35890500  0.29230300  1
  S  S4  1  0.00000000  0.55053200  0.87159500  1
  S  S5  1  0.00000000  0.93999600  0.36828800  1
  S  S6  1  0.50000000  0.43999600  0.63171200  1
  S  S7  1  0.50000000  0.05053200  0.12840500  1
  S  S8  1  0.00000000  0.20682900  0.52945100  1
  S  S9  1  0.00000000  0.31603700  0.03710200  1
  S  S10  1  0.50000000  0.81603700  0.96289800  1
  S  S11  1  0.50000000  0.70682900  0.47054900  1
loop_
_geom_bond_atom_site_label_1
_geom_bond_atom_site_label_2
_geom_bond_distance
_geom_bond_site_symmetry_2
Cu0 S11 2.283765 1_555
Cu0 S11 2.283765 1_455
Cu0 S5 2.380522 1_555
Cu0 S0 2.411376 1_555
Cu1 S8 2.283765 1_555
Cu1 S8 2.283765 1_655
Cu1 S6 2.380522 1_555
Cu1 S3 2.411376 1_555
Bi0 S6 2.737394 1_455
Bi0 S6 2.737394 1_555
Bi0 S8 2.765310 1_555
Bi0 S4 2.998959 1_555
Bi0 S2 3.033418 1_455
Bi0 S2 3.033418 1_555
Bi1 S9 2.680003 1_555
Bi1 S7 2.741153 1_455
Bi1 S7 2.741153 1_555
Bi1 S3 2.961101 1_455
Bi1 S3 2.961101 1_555
Bi1 S5 3.159353 1_545
Bi2 S10 2.680003 1_555
Bi2 S4 2.741153 1_555
Bi2 S4 2.741153 1_655
Bi2 S0 2.961101 1_555
Bi2 S0 2.961101 1_655
Bi2 S6 3.159353 1_555
Bi3 S5 2.737394 1_555
Bi3 S5 2.737394 1_655
Bi3 S11 2.765310 1_555
Bi3 S7 2.998959 1_565
Bi3 S1 3.033418 1_555
Bi3 S1 3.033418 1_655
Bi4 S0 2.734924 1_555
Bi4 S10 2.793423 1_555
Bi4 S10 2.793423 1_455
Bi4 S2 2.953740 1_565
Bi4 S2 2.953740 1_465
Bi5 S3 2.734924 1_555
Bi5 S9 2.793423 1_555
Bi5 S9 2.793423 1_655
Bi5 S1 2.953740 1_555
Bi5 S1 2.953740 1_655
Pb0 S1 2.777004 1_555
Pb0 S11 3.012831 1_555
Pb0 S11 3.012831 1_455
Pb0 S3 3.044556 1_455
Pb0 S3 3.044556 1_555
Pb1 S2 2.777004 1_555
Pb1 S8 3.012831 1_655
Pb1 S8 3.012831 1_555
Pb1 S0 3.044556 1_645
Pb1 S0 3.044556 1_545
