# generated using pymatgen
data_Ba2Pr2Co4O11
_symmetry_space_group_name_H-M   'P 1'
_cell_length_a   8.66207178
_cell_length_b   8.66207178
_cell_length_c   8.66207178
_cell_angle_alpha   141.86051472
_cell_angle_beta   141.86051472
_cell_angle_gamma   55.03896592
_symmetry_Int_Tables_number   1
_chemical_formula_structural   Ba2Pr2Co4O11
_chemical_formula_sum   'Ba2 Pr2 Co4 O11'
_cell_volume   246.10797405
_cell_formula_units_Z   1
loop_
 _symmetry_equiv_pos_site_id
 _symmetry_equiv_pos_as_xyz
  1  'x, y, z'
loop_
 _atom_site_type_symbol
 _atom_site_label
 _atom_site_symmetry_multiplicity
 _atom_site_fract_x
 _atom_site_fract_y
 _atom_site_fract_z
 _atom_site_occupancy
  Ba  Ba0  1  0.75000000  0.25000000  0.50000000  1
  Ba  Ba1  1  0.25000000  0.75000000  0.50000000  1
  Pr  Pr0  1  0.00000000  0.50000000  0.50000000  1
  Pr  Pr1  1  0.50000000  0.00000000  0.50000000  1
  Co  Co0  1  0.37481000  0.37481000  0.00000000  1
  Co  Co1  1  0.87911900  0.87911900  0.00000000  1
  Co  Co2  1  0.62519000  0.62519000  0.00000000  1
  Co  Co3  1  0.12088100  0.12088100  0.00000000  1
  O  O0  1  0.15785500  0.15785500  0.52556400  1
  O  O1  1  0.63229100  0.63229100  0.47443600  1
  O  O2  1  0.36770900  0.36770900  0.52556400  1
  O  O3  1  0.84214500  0.84214500  0.47443600  1
  O  O4  1  0.63229100  0.15785500  0.00000000  1
  O  O5  1  0.15785500  0.63229100  0.00000000  1
  O  O6  1  0.36770900  0.84214500  0.00000000  1
  O  O7  1  0.84214500  0.36770900  0.00000000  1
  O  O8  1  0.23895100  0.23895100  0.00000000  1
  O  O9  1  0.76104900  0.76104900  0.00000000  1
  O  O10  1  0.00000000  0.00000000  0.00000000  1
loop_
_geom_bond_atom_site_label_1
_geom_bond_atom_site_label_2
_geom_bond_distance
_geom_bond_site_symmetry_2
Ba0 O8 2.835149 1_656
Ba0 O9 2.835149 1_556
Ba0 O9 2.835149 1_545
Ba0 O8 2.835149 1_555
Ba0 O4 2.997179 1_555
Ba0 O5 2.997179 1_656
Ba0 O1 2.997179 1_555
Ba0 O2 2.997179 1_555
Ba0 O0 2.997179 1_655
Ba0 O6 2.997179 1_545
Ba0 O3 2.997179 1_545
Ba0 O7 2.997179 1_556
Ba1 O9 2.835149 1_556
Ba1 O8 2.835149 1_566
Ba1 O9 2.835149 1_455
Ba1 O8 2.835149 1_555
Ba1 O5 2.997179 1_555
Ba1 O1 2.997179 1_555
Ba1 O4 2.997179 1_566
Ba1 O0 2.997179 1_565
Ba1 O2 2.997179 1_555
Ba1 O3 2.997179 1_455
Ba1 O7 2.997179 1_455
Ba1 O6 2.997179 1_556
Co0 O5 1.924193 1_555
Co0 O1 1.924193 1_555
Co0 O4 1.924193 1_555
Co0 O0 1.924193 1_554
Co0 O8 2.087335 1_555
Co1 O9 1.814025 1_555
Co1 O10 1.857214 1_665
Co1 O0 2.117705 1_665
Co1 O5 2.117705 1_655
Co1 O1 2.117705 1_554
Co1 O4 2.117705 1_565
Co2 O3 1.924193 1_555
Co2 O6 1.924193 1_555
Co2 O7 1.924193 1_555
Co2 O2 1.924193 1_554
Co2 O9 2.087335 1_555
Co3 O8 1.814025 1_555
Co3 O10 1.857214 1_555
Co3 O2 2.117705 1_555
Co3 O3 2.117705 1_444
Co3 O7 2.117705 1_455
Co3 O6 2.117705 1_545
O0 Pr0 2.571760 1_555
O0 Pr1 2.571760 1_555
O1 Pr1 2.571760 1_565
O1 Pr0 2.571760 1_655
O2 Pr1 2.571760 1_555
O2 Pr0 2.571760 1_555
O3 Pr0 2.571760 1_655
O3 Pr1 2.571760 1_565
O4 Pr1 2.571760 1_554
O4 Pr0 2.571760 1_655
O5 Pr0 2.571760 1_554
O5 Pr1 2.571760 1_565
O6 Pr0 2.571760 1_554
O6 Pr1 2.571760 1_565
O7 Pr1 2.571760 1_554
O7 Pr0 2.571760 1_655
O10 Pr1 2.830062 1_454
O10 Pr1 2.830062 1_555
O10 Pr0 2.830062 1_544
O10 Pr0 2.830062 1_555
