# generated using pymatgen
data_Te2MoWSeS
_symmetry_space_group_name_H-M   'P 1'
_cell_length_a   3.39821790
_cell_length_b   3.39821790
_cell_length_c   38.71046100
_cell_angle_alpha   90.00000000
_cell_angle_beta   90.00000000
_cell_angle_gamma   119.99999805
_symmetry_Int_Tables_number   1
_chemical_formula_structural   Te2MoWSeS
_chemical_formula_sum   'Te4 Mo2 W2 Se2 S2'
_cell_volume   387.13410255
_cell_formula_units_Z   2
loop_
 _symmetry_equiv_pos_site_id
 _symmetry_equiv_pos_as_xyz
  1  'x, y, z'
loop_
 _atom_site_type_symbol
 _atom_site_label
 _atom_site_symmetry_multiplicity
 _atom_site_fract_x
 _atom_site_fract_y
 _atom_site_fract_z
 _atom_site_occupancy
  Te  Te0  1  0.00000000  0.00000000  0.70620200  1
  Te  Te1  1  0.33333300  0.66666700  0.04553500  1
  Te  Te2  1  0.33333300  0.66666700  0.14228300  1
  Te  Te3  1  0.00000000  0.00000000  0.60884200  1
  Mo  Mo0  1  0.00000000  0.00000000  0.09389600  1
  Mo  Mo1  1  0.00000000  0.00000000  0.46966000  1
  W  W0  1  0.33333300  0.66666700  0.28182400  1
  W  W1  1  0.33333300  0.66666700  0.65754600  1
  Se  Se0  1  0.00000000  0.00000000  0.32460000  1
  Se  Se1  1  0.00000000  0.00000000  0.23903800  1
  S  S0  1  0.33333300  0.66666700  0.43082400  1
  S  S1  1  0.33333300  0.66666700  0.50849800  1
loop_
_geom_bond_atom_site_label_1
_geom_bond_atom_site_label_2
_geom_bond_distance
_geom_bond_site_symmetry_2
Te0 W1 2.719714 1_545
Te0 W1 2.719716 1_555
Te0 W1 2.719716 1_445
Te3 W1 2.721001 1_545
Te3 W1 2.721003 1_445
Te3 W1 2.721003 1_555
Mo0 Te1 2.711818 1_545
Mo0 Te1 2.711820 1_445
Mo0 Te1 2.711820 1_555
Mo0 Te2 2.712513 1_545
Mo0 Te2 2.712515 1_555
Mo0 Te2 2.712515 1_445
Mo1 S0 2.471715 1_545
Mo1 S0 2.471718 1_445
Mo1 S0 2.471718 1_555
Mo1 S1 2.471762 1_545
Mo1 S1 2.471765 1_555
Mo1 S1 2.471765 1_445
Se0 W0 2.567337 1_545
Se0 W0 2.567340 1_445
Se0 W0 2.567340 1_555
Se1 W0 2.567587 1_545
Se1 W0 2.567589 1_555
Se1 W0 2.567589 1_445
