# generated using pymatgen
data_Na3MnPCO7
_symmetry_space_group_name_H-M   'P 1'
_cell_length_a   6.82547000
_cell_length_b   5.20647200
_cell_length_c   9.09342716
_cell_angle_alpha   89.91866307
_cell_angle_beta   90.00000000
_cell_angle_gamma   90.00000000
_symmetry_Int_Tables_number   1
_chemical_formula_structural   Na3MnPCO7
_chemical_formula_sum   'Na6 Mn2 P2 C2 O14'
_cell_volume   323.14932580
_cell_formula_units_Z   2
loop_
 _symmetry_equiv_pos_site_id
 _symmetry_equiv_pos_as_xyz
  1  'x, y, z'
loop_
 _atom_site_type_symbol
 _atom_site_label
 _atom_site_symmetry_multiplicity
 _atom_site_fract_x
 _atom_site_fract_y
 _atom_site_fract_z
 _atom_site_occupancy
  Na  Na0  1  0.49770600  0.75000300  0.74292900  1
  Na  Na1  1  0.99770600  0.24999700  0.25707100  1
  Na  Na2  1  0.50229400  0.24999700  0.25707100  1
  Na  Na3  1  0.00229400  0.75000300  0.74292900  1
  Na  Na4  1  0.75000000  0.76026500  0.08554700  1
  Na  Na5  1  0.25000000  0.23973500  0.91445300  1
  Mn  Mn0  1  0.25000000  0.78062200  0.36137400  1
  Mn  Mn1  1  0.75000000  0.21937800  0.63862600  1
  P  P0  1  0.75000000  0.70068700  0.41294800  1
  P  P1  1  0.25000000  0.29931300  0.58705200  1
  C  C0  1  0.25000000  0.74108900  0.06076700  1
  C  C1  1  0.75000000  0.25891100  0.93923300  1
  O  O0  1  0.25000000  0.96952100  0.11934800  1
  O  O1  1  0.75000000  0.03047900  0.88065200  1
  O  O2  1  0.25000000  0.54115800  0.14699200  1
  O  O3  1  0.75000000  0.45884200  0.85300800  1
  O  O4  1  0.25000000  0.71268000  0.91928700  1
  O  O5  1  0.75000000  0.28732000  0.08071300  1
  O  O6  1  0.93288300  0.78478500  0.32205500  1
  O  O7  1  0.43288300  0.21521500  0.67794500  1
  O  O8  1  0.06711700  0.21521500  0.67794500  1
  O  O9  1  0.56711700  0.78478500  0.32205500  1
  O  O10  1  0.75000000  0.81793500  0.57003100  1
  O  O11  1  0.25000000  0.18206500  0.42996900  1
  O  O12  1  0.25000000  0.59879500  0.57136000  1
  O  O13  1  0.75000000  0.40120500  0.42864000  1
loop_
_geom_bond_atom_site_label_1
_geom_bond_atom_site_label_2
_geom_bond_distance
_geom_bond_site_symmetry_2
Na0 O4 2.338210 1_555
Na0 O10 2.358137 1_555
Na0 O12 2.432249 1_555
Na0 O3 2.502213 1_555
Na0 O7 2.531309 1_565
Na0 O1 2.582915 1_565
Na0 O7 2.881368 1_555
Na1 O5 2.338210 1_555
Na1 O11 2.358137 1_655
Na1 O13 2.432249 1_555
Na1 O2 2.502213 1_655
Na1 O6 2.531309 1_545
Na1 O0 2.582915 1_645
Na1 O6 2.881368 1_555
Na2 O5 2.338210 1_555
Na2 O11 2.358137 1_555
Na2 O13 2.432249 1_555
Na2 O2 2.502213 1_555
Na2 O9 2.531309 1_545
Na2 O0 2.582915 1_545
Na2 O9 2.881368 1_555
Na3 O4 2.338210 1_555
Na3 O10 2.358137 1_455
Na3 O12 2.432249 1_555
Na3 O3 2.502213 1_455
Na3 O8 2.531309 1_565
Na3 O1 2.582915 1_465
Na3 O8 2.881368 1_555
Na4 O1 2.333093 1_564
Na4 O5 2.462830 1_555
Na4 O6 2.490102 1_555
Na4 O9 2.490102 1_555
Na4 O3 2.635093 1_554
Na4 O5 2.744387 1_565
Na5 O0 2.333093 1_546
Na5 O4 2.462830 1_555
Na5 O7 2.490102 1_555
Na5 O8 2.490102 1_555
Na5 O2 2.635093 1_556
Na5 O4 2.744387 1_545
Mn0 O12 2.130077 1_555
Mn0 O11 2.182042 1_565
Mn0 O6 2.193907 1_455
Mn0 O9 2.193907 1_555
Mn0 O2 2.315543 1_555
Mn0 O0 2.409324 1_555
Mn1 O13 2.130077 1_555
Mn1 O10 2.182042 1_545
Mn1 O7 2.193907 1_555
Mn1 O8 2.193907 1_655
Mn1 O3 2.315543 1_555
Mn1 O1 2.409324 1_555
C0 O4 1.295221 1_554
C0 O2 1.302310 1_555
C0 O0 1.303865 1_555
C1 O5 1.295221 1_556
C1 O3 1.302310 1_555
C1 O1 1.303865 1_555
O6 P0 1.559486 1_555
O7 P1 1.559486 1_555
O8 P1 1.559486 1_555
O9 P0 1.559486 1_555
O10 P0 1.554193 1_555
O11 P1 1.554193 1_555
O12 P1 1.565559 1_555
O13 P0 1.565559 1_555
