# generated using pymatgen
data_CdGeO3
_symmetry_space_group_name_H-M   'P 1'
_cell_length_a   5.31191300
_cell_length_b   5.36356000
_cell_length_c   7.58068100
_cell_angle_alpha   90.00000000
_cell_angle_beta   90.00000000
_cell_angle_gamma   90.00000000
_symmetry_Int_Tables_number   1
_chemical_formula_structural   CdGeO3
_chemical_formula_sum   'Cd4 Ge4 O12'
_cell_volume   215.97939401
_cell_formula_units_Z   4
loop_
 _symmetry_equiv_pos_site_id
 _symmetry_equiv_pos_as_xyz
  1  'x, y, z'
loop_
 _atom_site_type_symbol
 _atom_site_label
 _atom_site_symmetry_multiplicity
 _atom_site_fract_x
 _atom_site_fract_y
 _atom_site_fract_z
 _atom_site_occupancy
  Cd  Cd0  1  0.00832800  0.96436400  0.75000000  1
  Cd  Cd1  1  0.50832800  0.53563600  0.25000000  1
  Cd  Cd2  1  0.49167200  0.46436400  0.75000000  1
  Cd  Cd3  1  0.99167200  0.03563600  0.25000000  1
  Ge  Ge0  1  0.00000000  0.50000000  0.50000000  1
  Ge  Ge1  1  0.50000000  0.00000000  0.50000000  1
  Ge  Ge2  1  0.50000000  0.00000000  0.00000000  1
  Ge  Ge3  1  0.00000000  0.50000000  0.00000000  1
  O  O0  1  0.70532000  0.28967000  0.45231200  1
  O  O1  1  0.20532000  0.21033000  0.54768800  1
  O  O2  1  0.79468000  0.78967000  0.04768800  1
  O  O3  1  0.29468000  0.71033000  0.95231200  1
  O  O4  1  0.29468000  0.71033000  0.54768800  1
  O  O5  1  0.79468000  0.78967000  0.45231200  1
  O  O6  1  0.20532000  0.21033000  0.95231200  1
  O  O7  1  0.70532000  0.28967000  0.04768800  1
  O  O8  1  0.09009100  0.47089300  0.25000000  1
  O  O9  1  0.59009100  0.02910700  0.75000000  1
  O  O10  1  0.40990900  0.97089300  0.25000000  1
  O  O11  1  0.90990900  0.52910700  0.75000000  1
loop_
_geom_bond_atom_site_label_1
_geom_bond_atom_site_label_2
_geom_bond_distance
_geom_bond_site_symmetry_2
Cd0 O9 2.248613 1_465
Cd0 O6 2.277611 1_565
Cd0 O1 2.277611 1_565
Cd0 O11 2.392348 1_455
Cd0 O4 2.553875 1_555
Cd0 O3 2.553875 1_555
Cd0 O5 2.694157 1_455
Cd0 O2 2.694157 1_456
Cd1 O8 2.248613 1_555
Cd1 O0 2.277611 1_555
Cd1 O7 2.277611 1_555
Cd1 O10 2.392348 1_555
Cd1 O5 2.553875 1_555
Cd1 O2 2.553875 1_555
Cd1 O3 2.694157 1_554
Cd1 O4 2.694157 1_555
Cd2 O11 2.248613 1_555
Cd2 O3 2.277611 1_555
Cd2 O4 2.277611 1_555
Cd2 O9 2.392348 1_555
Cd2 O1 2.553875 1_555
Cd2 O6 2.553875 1_555
Cd2 O0 2.694157 1_555
Cd2 O7 2.694157 1_556
Cd3 O10 2.248613 1_645
Cd3 O2 2.277611 1_545
Cd3 O5 2.277611 1_545
Cd3 O8 2.392348 1_655
Cd3 O0 2.553875 1_555
Cd3 O7 2.553875 1_555
Cd3 O1 2.694157 1_655
Cd3 O6 2.694157 1_654
Ge0 O1 1.932370 1_555
Ge0 O5 1.932370 1_455
Ge0 O11 1.960882 1_455
Ge0 O8 1.960882 1_555
Ge0 O4 1.963045 1_555
Ge0 O0 1.963045 1_455
Ge1 O4 1.932370 1_545
Ge1 O0 1.932370 1_555
Ge1 O10 1.960882 1_545
Ge1 O9 1.960882 1_555
Ge1 O1 1.963045 1_555
Ge1 O5 1.963045 1_545
Ge2 O7 1.932370 1_555
Ge2 O3 1.932370 1_544
Ge2 O10 1.960882 1_545
Ge2 O9 1.960882 1_554
Ge2 O6 1.963045 1_554
Ge2 O2 1.963045 1_545
Ge3 O2 1.932370 1_455
Ge3 O6 1.932370 1_554
Ge3 O11 1.960882 1_454
Ge3 O8 1.960882 1_555
Ge3 O3 1.963045 1_554
Ge3 O7 1.963045 1_455
