# generated using pymatgen
data_Ti2Zn2O5
_symmetry_space_group_name_H-M   'P 1'
_cell_length_a   3.53795700
_cell_length_b   5.44535600
_cell_length_c   11.03561600
_cell_angle_alpha   90.00000000
_cell_angle_beta   90.00000000
_cell_angle_gamma   90.00000000
_symmetry_Int_Tables_number   1
_chemical_formula_structural   Ti2Zn2O5
_chemical_formula_sum   'Ti4 Zn4 O10'
_cell_volume   212.60594690
_cell_formula_units_Z   2
loop_
 _symmetry_equiv_pos_site_id
 _symmetry_equiv_pos_as_xyz
  1  'x, y, z'
loop_
 _atom_site_type_symbol
 _atom_site_label
 _atom_site_symmetry_multiplicity
 _atom_site_fract_x
 _atom_site_fract_y
 _atom_site_fract_z
 _atom_site_occupancy
  Ti  Ti0  1  0.00000000  0.28092400  0.13781000  1
  Ti  Ti1  1  0.00000000  0.71907600  0.86219000  1
  Ti  Ti2  1  0.00000000  0.21907600  0.63781000  1
  Ti  Ti3  1  0.00000000  0.78092400  0.36219000  1
  Zn  Zn0  1  0.50000000  0.27284800  0.39516300  1
  Zn  Zn1  1  0.50000000  0.72715200  0.60483700  1
  Zn  Zn2  1  0.50000000  0.77284800  0.10483700  1
  Zn  Zn3  1  0.50000000  0.22715200  0.89516300  1
  O  O0  1  0.00000000  0.50000000  0.00000000  1
  O  O1  1  0.00000000  0.09440900  0.79595300  1
  O  O2  1  0.00000000  0.59440900  0.70404700  1
  O  O3  1  0.00000000  0.40559100  0.29595300  1
  O  O4  1  0.50000000  0.32750200  0.58634700  1
  O  O5  1  0.50000000  0.67249800  0.41365300  1
  O  O6  1  0.00000000  0.90559100  0.20404700  1
  O  O7  1  0.50000000  0.17249800  0.08634700  1
  O  O8  1  0.00000000  0.00000000  0.50000000  1
  O  O9  1  0.50000000  0.82750200  0.91365300  1
loop_
_geom_bond_atom_site_label_1
_geom_bond_atom_site_label_2
_geom_bond_distance
_geom_bond_site_symmetry_2
O0 Ti1 1.932876 1_554
O0 Ti0 1.932876 1_555
O1 Ti2 1.872589 1_555
O1 Ti1 2.170603 1_545
O1 Zn3 2.202375 1_555
O1 Zn3 2.202375 1_455
O2 Ti1 1.872589 1_555
O2 Ti2 2.170603 1_555
O2 Zn1 2.202375 1_455
O2 Zn1 2.202375 1_555
O3 Ti0 1.872589 1_555
O3 Ti3 2.170603 1_555
O3 Zn0 2.202375 1_555
O3 Zn0 2.202375 1_455
O4 Ti2 1.949466 1_655
O4 Ti2 1.949466 1_555
O4 Zn0 2.130720 1_555
O4 Zn1 2.185782 1_555
O5 Ti3 1.949466 1_655
O5 Ti3 1.949466 1_555
O5 Zn1 2.130720 1_555
O5 Zn0 2.185782 1_555
O6 Ti3 1.872589 1_555
O6 Ti0 2.170603 1_565
O6 Zn2 2.202375 1_455
O6 Zn2 2.202375 1_555
O7 Ti0 1.949466 1_555
O7 Ti0 1.949466 1_655
O7 Zn3 2.130720 1_554
O7 Zn2 2.185782 1_545
O8 Ti3 1.932876 1_545
O8 Ti2 1.932876 1_555
O9 Ti1 1.949466 1_555
O9 Ti1 1.949466 1_655
O9 Zn2 2.130720 1_556
O9 Zn3 2.185782 1_565
