# generated using pymatgen
data_InAg3
_symmetry_space_group_name_H-M   'P 1'
_cell_length_a   6.04926642
_cell_length_b   6.04926642
_cell_length_c   19.71990800
_cell_angle_alpha   90.00000000
_cell_angle_beta   90.00000000
_cell_angle_gamma   118.26047666
_symmetry_Int_Tables_number   1
_chemical_formula_structural   InAg3
_chemical_formula_sum   'In8 Ag24'
_cell_volume   635.60846536
_cell_formula_units_Z   8
loop_
 _symmetry_equiv_pos_site_id
 _symmetry_equiv_pos_as_xyz
  1  'x, y, z'
loop_
 _atom_site_type_symbol
 _atom_site_label
 _atom_site_symmetry_multiplicity
 _atom_site_fract_x
 _atom_site_fract_y
 _atom_site_fract_z
 _atom_site_occupancy
  In  In0_0  1  0.00000000  0.00000000  0.00000000  1
  In  In0_1  1  0.00000000  0.00000000  0.50000000  1
  In  In0_2  1  0.00000000  0.50000000  0.00000000  1
  In  In0_3  1  0.00000000  0.50000000  0.50000000  1
  In  In0_4  1  0.50000000  0.00000000  0.00000000  1
  In  In0_5  1  0.50000000  0.00000000  0.50000000  1
  In  In0_6  1  0.50000000  0.50000000  0.00000000  1
  In  In0_7  1  0.50000000  0.50000000  0.50000000  1
  Ag  Ag0_0  1  0.25000000  0.25000000  0.37143550  1
  Ag  Ag0_1  1  0.25000000  0.25000000  0.87143550  1
  Ag  Ag0_2  1  0.25000000  0.75000000  0.37143550  1
  Ag  Ag0_3  1  0.25000000  0.75000000  0.87143550  1
  Ag  Ag0_4  1  0.75000000  0.25000000  0.37143550  1
  Ag  Ag0_5  1  0.75000000  0.25000000  0.87143550  1
  Ag  Ag0_6  1  0.75000000  0.75000000  0.37143550  1
  Ag  Ag0_7  1  0.75000000  0.75000000  0.87143550  1
  Ag  Ag1_0  1  0.00000000  0.00000000  0.25000000  1
  Ag  Ag1_1  1  0.00000000  0.00000000  0.75000000  1
  Ag  Ag1_2  1  0.00000000  0.50000000  0.25000000  1
  Ag  Ag1_3  1  0.00000000  0.50000000  0.75000000  1
  Ag  Ag1_4  1  0.50000000  0.00000000  0.25000000  1
  Ag  Ag1_5  1  0.50000000  0.00000000  0.75000000  1
  Ag  Ag1_6  1  0.50000000  0.50000000  0.25000000  1
  Ag  Ag1_7  1  0.50000000  0.50000000  0.75000000  1
  Ag  Ag2_0  1  0.25000000  0.25000000  0.12856450  1
  Ag  Ag2_1  1  0.25000000  0.25000000  0.62856450  1
  Ag  Ag2_2  1  0.25000000  0.75000000  0.12856450  1
  Ag  Ag2_3  1  0.25000000  0.75000000  0.62856450  1
  Ag  Ag2_4  1  0.75000000  0.25000000  0.12856450  1
  Ag  Ag2_5  1  0.75000000  0.25000000  0.62856450  1
  Ag  Ag2_6  1  0.75000000  0.75000000  0.12856450  1
  Ag  Ag2_7  1  0.75000000  0.75000000  0.62856450  1
loop_
_geom_bond_atom_site_label_1
_geom_bond_atom_site_label_2
_geom_bond_distance
_geom_bond_site_symmetry_2
In0_0 In0_4 3.024633 1_555
In0_0 In0_2 3.024633 1_545
In0_0 In0_2 3.024633 1_555
In0_0 In0_4 3.024633 1_455
In0_0 In0_6 3.103808 1_445
In0_0 In0_6 3.103808 1_555
In0_1 In0_5 3.024633 1_555
In0_1 In0_5 3.024633 1_455
In0_1 In0_3 3.024633 1_555
In0_1 In0_3 3.024633 1_545
In0_1 In0_7 3.103808 1_445
In0_1 In0_7 3.103808 1_555
In0_2 In0_6 3.024633 1_455
In0_2 In0_6 3.024633 1_555
In0_2 In0_4 3.103808 1_565
In0_2 In0_4 3.103808 1_455
In0_3 In0_7 3.024633 1_455
In0_3 In0_7 3.024633 1_555
In0_3 In0_5 3.103808 1_565
In0_3 In0_5 3.103808 1_455
In0_4 In0_6 3.024633 1_555
In0_4 In0_6 3.024633 1_545
In0_5 In0_7 3.024633 1_555
In0_5 In0_7 3.024633 1_545
Ag0_0 Ag1_6 2.853591 1_555
Ag0_0 Ag1_0 2.853591 1_555
Ag0_0 In0_7 2.972550 1_555
Ag0_0 In0_1 2.972550 1_555
Ag0_0 Ag0_2 3.024633 1_555
Ag0_0 Ag0_4 3.024633 1_455
Ag0_0 Ag0_2 3.024633 1_545
Ag0_0 Ag0_4 3.024633 1_555
Ag0_0 Ag0_6 3.103808 1_555
Ag0_0 Ag0_6 3.103808 1_445
Ag0_1 Ag1_7 2.853591 1_555
Ag0_1 Ag1_1 2.853591 1_555
Ag0_1 In0_0 2.972550 1_556
Ag0_1 In0_6 2.972550 1_556
Ag0_1 Ag0_3 3.024633 1_555
Ag0_1 Ag0_5 3.024633 1_455
Ag0_1 Ag0_5 3.024633 1_555
Ag0_1 Ag0_3 3.024633 1_545
Ag0_1 Ag0_7 3.103808 1_555
Ag0_1 Ag0_7 3.103808 1_445
Ag0_2 Ag1_2 2.853591 1_555
Ag0_2 Ag1_4 2.853591 1_565
Ag0_2 In0_5 2.972550 1_565
Ag0_2 In0_3 2.972550 1_555
Ag0_2 Ag0_6 3.024633 1_455
Ag0_2 Ag0_6 3.024633 1_555
Ag0_2 Ag0_4 3.103808 1_455
Ag0_2 Ag0_4 3.103808 1_565
Ag0_3 Ag1_5 2.853591 1_565
Ag0_3 Ag1_3 2.853591 1_555
Ag0_3 In0_4 2.972550 1_566
Ag0_3 In0_2 2.972550 1_556
Ag0_3 Ag0_7 3.024633 1_455
Ag0_3 Ag0_7 3.024633 1_555
Ag0_3 Ag0_5 3.103808 1_565
Ag0_3 Ag0_5 3.103808 1_455
Ag0_4 Ag1_4 2.853591 1_555
Ag0_4 Ag1_2 2.853591 1_655
Ag0_4 In0_5 2.972550 1_555
Ag0_4 In0_3 2.972550 1_655
Ag0_4 Ag0_6 3.024633 1_555
Ag0_4 Ag0_6 3.024633 1_545
Ag0_5 Ag1_3 2.853591 1_655
Ag0_5 Ag1_5 2.853591 1_555
Ag0_5 In0_2 2.972550 1_656
Ag0_5 In0_4 2.972550 1_556
Ag0_5 Ag0_7 3.024633 1_555
Ag0_5 Ag0_7 3.024633 1_545
Ag0_6 Ag1_6 2.853591 1_555
Ag0_6 Ag1_0 2.853591 1_665
Ag0_6 In0_7 2.972550 1_555
Ag0_6 In0_1 2.972550 1_665
Ag0_7 Ag1_7 2.853591 1_555
Ag0_7 Ag1_1 2.853591 1_665
Ag0_7 In0_6 2.972550 1_556
Ag0_7 In0_0 2.972550 1_666
Ag1_0 Ag2_6 2.853591 1_445
Ag1_0 Ag2_0 2.853591 1_555
Ag1_0 Ag1_4 3.024633 1_555
Ag1_0 Ag1_4 3.024633 1_455
Ag1_0 Ag1_2 3.024633 1_555
Ag1_0 Ag1_2 3.024633 1_545
Ag1_0 Ag1_6 3.103808 1_555
Ag1_0 Ag1_6 3.103808 1_445
Ag1_1 Ag2_7 2.853591 1_445
Ag1_1 Ag2_1 2.853591 1_555
Ag1_1 Ag1_5 3.024633 1_555
Ag1_1 Ag1_5 3.024633 1_455
Ag1_1 Ag1_3 3.024633 1_545
Ag1_1 Ag1_3 3.024633 1_555
Ag1_1 Ag1_7 3.103808 1_445
Ag1_1 Ag1_7 3.103808 1_555
Ag1_2 Ag2_2 2.853591 1_555
Ag1_2 Ag2_4 2.853591 1_455
Ag1_2 Ag1_6 3.024633 1_555
Ag1_2 Ag1_6 3.024633 1_455
Ag1_2 Ag1_4 3.103808 1_565
Ag1_2 Ag1_4 3.103808 1_455
Ag1_3 Ag2_5 2.853591 1_455
Ag1_3 Ag2_3 2.853591 1_555
Ag1_3 Ag1_7 3.024633 1_455
Ag1_3 Ag1_7 3.024633 1_555
Ag1_3 Ag1_5 3.103808 1_565
Ag1_3 Ag1_5 3.103808 1_455
Ag1_4 Ag2_4 2.853591 1_555
Ag1_4 Ag2_2 2.853591 1_545
Ag1_4 Ag1_6 3.024633 1_555
Ag1_4 Ag1_6 3.024633 1_545
Ag1_5 Ag2_3 2.853591 1_545
Ag1_5 Ag2_5 2.853591 1_555
Ag1_5 Ag1_7 3.024633 1_555
Ag1_5 Ag1_7 3.024633 1_545
Ag1_6 Ag2_6 2.853591 1_555
Ag1_6 Ag2_0 2.853591 1_555
Ag1_7 Ag2_7 2.853591 1_555
Ag1_7 Ag2_1 2.853591 1_555
Ag2_0 In0_6 2.972550 1_555
Ag2_0 In0_0 2.972550 1_555
Ag2_0 Ag2_2 3.024633 1_555
Ag2_0 Ag2_4 3.024633 1_555
Ag2_0 Ag2_4 3.024633 1_455
Ag2_0 Ag2_2 3.024633 1_545
Ag2_0 Ag2_6 3.103808 1_555
Ag2_0 Ag2_6 3.103808 1_445
Ag2_1 In0_1 2.972550 1_555
Ag2_1 In0_7 2.972550 1_555
Ag2_1 Ag2_3 3.024633 1_555
Ag2_1 Ag2_5 3.024633 1_555
Ag2_1 Ag2_5 3.024633 1_455
Ag2_1 Ag2_3 3.024633 1_545
Ag2_1 Ag2_7 3.103808 1_555
Ag2_1 Ag2_7 3.103808 1_445
Ag2_2 In0_4 2.972550 1_565
Ag2_2 In0_2 2.972550 1_555
Ag2_2 Ag2_6 3.024633 1_455
Ag2_2 Ag2_6 3.024633 1_555
Ag2_2 Ag2_4 3.103808 1_455
Ag2_2 Ag2_4 3.103808 1_565
Ag2_3 In0_5 2.972550 1_565
Ag2_3 In0_3 2.972550 1_555
Ag2_3 Ag2_7 3.024633 1_455
Ag2_3 Ag2_7 3.024633 1_555
Ag2_3 Ag2_5 3.103808 1_455
Ag2_3 Ag2_5 3.103808 1_565
Ag2_4 In0_4 2.972550 1_555
Ag2_4 In0_2 2.972550 1_655
Ag2_4 Ag2_6 3.024633 1_555
Ag2_4 Ag2_6 3.024633 1_545
Ag2_5 In0_5 2.972550 1_555
Ag2_5 In0_3 2.972550 1_655
Ag2_5 Ag2_7 3.024633 1_555
Ag2_5 Ag2_7 3.024633 1_545
Ag2_6 In0_6 2.972550 1_555
Ag2_6 In0_0 2.972550 1_665
Ag2_7 In0_7 2.972550 1_555
Ag2_7 In0_1 2.972550 1_665
