# generated using pymatgen
data_Mg3V2(BiO6)2
_symmetry_space_group_name_H-M   'P 1'
_cell_length_a   5.52717400
_cell_length_b   7.58080916
_cell_length_c   7.41581842
_cell_angle_alpha   114.96754857
_cell_angle_beta   90.00000000
_cell_angle_gamma   90.00000000
_symmetry_Int_Tables_number   1
_chemical_formula_structural   Mg3V2(BiO6)2
_chemical_formula_sum   'Mg3 V2 Bi2 O12'
_cell_volume   281.68785046
_cell_formula_units_Z   1
loop_
 _symmetry_equiv_pos_site_id
 _symmetry_equiv_pos_as_xyz
  1  'x, y, z'
loop_
 _atom_site_type_symbol
 _atom_site_label
 _atom_site_symmetry_multiplicity
 _atom_site_fract_x
 _atom_site_fract_y
 _atom_site_fract_z
 _atom_site_occupancy
  Mg  Mg0  1  0.75000000  0.10019100  0.27260100  1
  Mg  Mg1  1  0.24999900  0.90020500  0.72631800  1
  Mg  Mg2  1  0.24999900  0.28549800  0.10691800  1
  V  V0  1  0.75000000  0.19375900  0.80005200  1
  V  V1  1  0.24999900  0.80284900  0.20123400  1
  Bi  Bi0  1  0.24999900  0.40988100  0.59542900  1
  Bi  Bi1  1  0.75000000  0.58592500  0.40855300  1
  O  O0  1  0.75000000  0.10216300  0.54432900  1
  O  O1  1  0.24999900  0.89608000  0.45532400  1
  O  O2  1  0.24999900  0.54767800  0.09805200  1
  O  O3  1  0.75000000  0.43693500  0.89839300  1
  O  O4  1  0.00272300  0.89742900  0.12591200  1
  O  O5  1  0.48548500  0.11780000  0.88677000  1
  O  O6  1  0.01451500  0.11780000  0.88677000  1
  O  O7  1  0.49727700  0.89742900  0.12591200  1
  O  O8  1  0.50069600  0.32746300  0.33077400  1
  O  O9  1  0.01699600  0.66746800  0.65437200  1
  O  O10  1  0.99930400  0.32746300  0.33077400  1
  O  O11  1  0.48300400  0.66746800  0.65437200  1
loop_
_geom_bond_atom_site_label_1
_geom_bond_atom_site_label_2
_geom_bond_distance
_geom_bond_site_symmetry_2
Mg0 O0 2.008821 1_555
Mg0 O7 2.021289 1_545
Mg0 O4 2.021289 1_645
Mg0 O10 2.103753 1_555
Mg0 O8 2.103753 1_555
Mg1 O1 1.996644 1_555
Mg1 O6 2.043012 1_565
Mg1 O5 2.043019 1_565
Mg1 O9 2.064317 1_555
Mg1 O11 2.064324 1_555
Mg2 O2 2.016171 1_555
Mg2 O6 2.055092 1_554
Mg2 O5 2.055099 1_554
Mg2 O10 2.081153 1_455
Mg2 O8 2.081160 1_555
Bi0 O9 2.223094 1_555
Bi0 O11 2.223100 1_555
Bi0 O10 2.264305 1_455
Bi0 O8 2.264312 1_555
Bi1 O9 2.220751 1_655
Bi1 O11 2.220751 1_555
Bi1 O8 2.261948 1_555
Bi1 O10 2.261948 1_555
O0 V0 1.722443 1_555
O1 V1 1.710489 1_555
O2 V1 1.754378 1_555
O3 V0 1.671907 1_555
O4 V1 1.741309 1_555
O5 V0 1.787529 1_555
O6 V0 1.787529 1_455
O7 V1 1.741317 1_555
