# generated using pymatgen
data_Li6Gd(BO3)3
_symmetry_space_group_name_H-M   'P 1'
_cell_length_a   16.60485200
_cell_length_b   6.76253100
_cell_length_c   7.30322070
_cell_angle_alpha   74.52030229
_cell_angle_beta   90.00000000
_cell_angle_gamma   90.00000000
_symmetry_Int_Tables_number   1
_chemical_formula_structural   Li6Gd(BO3)3
_chemical_formula_sum   'Li24 Gd4 B12 O36'
_cell_volume   790.33618658
_cell_formula_units_Z   4
loop_
 _symmetry_equiv_pos_site_id
 _symmetry_equiv_pos_as_xyz
  1  'x, y, z'
loop_
 _atom_site_type_symbol
 _atom_site_label
 _atom_site_symmetry_multiplicity
 _atom_site_fract_x
 _atom_site_fract_y
 _atom_site_fract_z
 _atom_site_occupancy
  Li  Li0  1  0.03508700  0.44455000  0.69328800  1
  Li  Li1  1  0.55214000  0.58306400  0.86118900  1
  Li  Li2  1  0.05214000  0.91693600  0.13881100  1
  Li  Li3  1  0.44786000  0.41693600  0.13881100  1
  Li  Li4  1  0.49630800  0.82422000  0.07155100  1
  Li  Li5  1  0.99630800  0.67578000  0.92844900  1
  Li  Li6  1  0.50369200  0.17578000  0.92844900  1
  Li  Li7  1  0.00369200  0.32422000  0.07155100  1
  Li  Li8  1  0.53004400  0.32989900  0.54668400  1
  Li  Li9  1  0.03004400  0.17010100  0.45331600  1
  Li  Li10  1  0.46995600  0.67010100  0.45331600  1
  Li  Li11  1  0.96995600  0.82989900  0.54668400  1
  Li  Li12  1  0.79430600  0.13438300  0.71417200  1
  Li  Li13  1  0.29430600  0.36561700  0.28582800  1
  Li  Li14  1  0.20569400  0.86561700  0.28582800  1
  Li  Li15  1  0.70569400  0.63438300  0.71417200  1
  Li  Li16  1  0.53508700  0.05545000  0.30671200  1
  Li  Li17  1  0.94786000  0.08306400  0.86118900  1
  Li  Li18  1  0.46491300  0.94455000  0.69328800  1
  Li  Li19  1  0.96491300  0.55545000  0.30671200  1
  Li  Li20  1  0.70422500  0.04688400  0.43916600  1
  Li  Li21  1  0.20422500  0.45311600  0.56083400  1
  Li  Li22  1  0.29577500  0.95311600  0.56083400  1
  Li  Li23  1  0.79577500  0.54688400  0.43916600  1
  Gd  Gd0  1  0.81038600  0.34730100  0.07955300  1
  Gd  Gd1  1  0.31038600  0.15269900  0.92044700  1
  Gd  Gd2  1  0.18961400  0.65269900  0.92044700  1
  Gd  Gd3  1  0.68961400  0.84730100  0.07955300  1
  B  B0  1  0.13509400  0.16176700  0.91724600  1
  B  B1  1  0.86490600  0.83823300  0.08275400  1
  B  B2  1  0.36490600  0.66176700  0.91724600  1
  B  B3  1  0.63509400  0.33823300  0.08275400  1
  B  B4  1  0.61446800  0.68866600  0.44032800  1
  B  B5  1  0.11446800  0.81133400  0.55967200  1
  B  B6  1  0.38553200  0.31133400  0.55967200  1
  B  B7  1  0.88553200  0.18866600  0.44032800  1
  B  B8  1  0.88007400  0.50044900  0.71242800  1
  B  B9  1  0.38007400  0.99955100  0.28757200  1
  B  B10  1  0.11992600  0.49955100  0.28757200  1
  B  B11  1  0.61992600  0.00044900  0.71242800  1
  O  O0  1  0.67329500  0.52627000  0.00407600  1
  O  O1  1  0.17329500  0.97373000  0.99592400  1
  O  O2  1  0.68445100  0.16714700  0.14908500  1
  O  O3  1  0.32670500  0.47373000  0.99592400  1
  O  O4  1  0.57764900  0.57678500  0.60486800  1
  O  O5  1  0.07764900  0.92321500  0.39513200  1
  O  O6  1  0.42235100  0.42321500  0.39513200  1
  O  O7  1  0.92235100  0.07678500  0.60486800  1
  O  O8  1  0.69699200  0.72647000  0.42395200  1
  O  O9  1  0.19699200  0.77353000  0.57604800  1
  O  O10  1  0.30300800  0.27353000  0.57604800  1
  O  O11  1  0.80300800  0.22647000  0.42395200  1
  O  O12  1  0.93185200  0.27077400  0.27792800  1
  O  O13  1  0.43185200  0.22922600  0.72207200  1
  O  O14  1  0.06814800  0.72922600  0.72207200  1
  O  O15  1  0.56814800  0.77077400  0.27792800  1
  O  O16  1  0.91223000  0.58715600  0.53654700  1
  O  O17  1  0.41223000  0.91284400  0.46345300  1
  O  O18  1  0.08777000  0.41284400  0.46345300  1
  O  O19  1  0.58777000  0.08715600  0.53654700  1
  O  O20  1  0.70117700  0.94449900  0.73753900  1
  O  O21  1  0.20117700  0.55550100  0.26246100  1
  O  O22  1  0.29882300  0.05550100  0.26246100  1
  O  O23  1  0.79882300  0.44449900  0.73753900  1
  O  O24  1  0.92690800  0.45950200  0.87726500  1
  O  O25  1  0.42690800  0.04049800  0.12273500  1
  O  O26  1  0.07309200  0.54049800  0.12273500  1
  O  O27  1  0.57309200  0.95950200  0.87726500  1
  O  O28  1  0.94685700  0.82384300  0.08584400  1
  O  O29  1  0.44685700  0.67615700  0.91415600  1
  O  O30  1  0.05314300  0.17615700  0.91415600  1
  O  O31  1  0.55314300  0.32384300  0.08584400  1
  O  O32  1  0.81554900  0.66714700  0.14908500  1
  O  O33  1  0.31554900  0.83285300  0.85091500  1
  O  O34  1  0.18445100  0.33285300  0.85091500  1
  O  O35  1  0.82670500  0.02627000  0.00407600  1
loop_
_geom_bond_atom_site_label_1
_geom_bond_atom_site_label_2
_geom_bond_distance
_geom_bond_site_symmetry_2
Li0 O18 1.954695 1_555
Li0 O14 2.065844 1_555
Li0 O30 2.103165 1_555
Li0 O24 2.261582 1_455
Li0 O16 2.410977 1_455
Li1 O4 1.930781 1_555
Li1 O29 1.931888 1_555
Li1 O31 2.056672 1_556
Li1 O0 2.251603 1_556
Li1 O27 2.602848 1_555
Li2 O5 1.930781 1_555
Li2 O28 1.931888 1_455
Li2 O30 2.056672 1_564
Li2 O1 2.251603 1_554
Li2 O26 2.602848 1_555
Li3 O6 1.930781 1_555
Li3 O31 1.931888 1_555
Li3 O29 2.056672 1_554
Li3 O3 2.251603 1_554
Li3 O25 2.602848 1_555
Li4 O15 1.880037 1_555
Li4 O29 1.900662 1_554
Li4 O27 1.944979 1_554
Li4 O25 1.974514 1_565
Li5 O14 1.880037 1_655
Li5 O28 1.900662 1_556
Li5 O26 1.944979 1_656
Li5 O24 1.974514 1_555
Li6 O13 1.880037 1_555
Li6 O31 1.900662 1_556
Li6 O25 1.944979 1_556
Li6 O27 1.974514 1_545
Li7 O12 1.880037 1_455
Li7 O30 1.900662 1_554
Li7 O24 1.944979 1_454
Li7 O26 1.974514 1_555
Li8 O19 1.919334 1_555
Li8 O4 1.992886 1_555
Li8 O13 2.072948 1_555
Li8 O6 2.109074 1_555
Li9 O18 1.919334 1_555
Li9 O5 1.992886 1_545
Li9 O12 2.072948 1_455
Li9 O7 2.109074 1_455
Li10 O17 1.919334 1_555
Li10 O6 1.992886 1_555
Li10 O15 2.072948 1_555
Li10 O4 2.109074 1_555
Li11 O16 1.919334 1_555
Li11 O7 1.992886 1_565
Li11 O14 2.072948 1_655
Li11 O5 2.109074 1_655
Li12 O20 1.988061 1_545
Li12 O11 2.048553 1_555
Li12 O35 2.116683 1_556
Li12 O23 2.150327 1_555
Li12 O7 2.339983 1_555
Li13 O21 1.988061 1_555
Li13 O10 2.048553 1_555
Li13 O3 2.116683 1_554
Li13 O22 2.150327 1_555
Li13 O6 2.339983 1_555
Li14 O22 1.988061 1_565
Li14 O9 2.048553 1_555
Li14 O1 2.116683 1_554
Li14 O21 2.150327 1_555
Li14 O5 2.339983 1_555
Li15 O23 1.988061 1_555
Li15 O8 2.048553 1_555
Li15 O0 2.116683 1_556
Li15 O20 2.150327 1_555
Li15 O4 2.339983 1_555
Li16 O19 1.954695 1_555
Li16 O15 2.065844 1_545
Li16 O31 2.103165 1_555
Li16 O25 2.261582 1_555
Li16 O17 2.410977 1_545
Li17 O7 1.930781 1_555
Li17 O30 1.931888 1_655
Li17 O28 2.056672 1_546
Li17 O35 2.251603 1_556
Li17 O24 2.602848 1_555
Li18 O17 1.954695 1_555
Li18 O13 2.065844 1_565
Li18 O29 2.103165 1_555
Li18 O27 2.261582 1_555
Li18 O19 2.410977 1_565
Li19 O16 1.954695 1_555
Li19 O12 2.065844 1_555
Li19 O28 2.103165 1_555
Li19 O26 2.261582 1_655
Li19 O18 2.410977 1_655
Li20 O11 2.026260 1_555
Li20 O2 2.082711 1_555
Li20 O19 2.103003 1_555
Li20 O20 2.103567 1_545
Li20 O8 2.202351 1_545
Li21 O10 2.026260 1_555
Li21 O34 2.082711 1_555
Li21 O18 2.103003 1_555
Li21 O21 2.103567 1_555
Li21 O9 2.202351 1_555
Li22 O9 2.026260 1_555
Li22 O33 2.082711 1_555
Li22 O17 2.103003 1_555
Li22 O22 2.103567 1_565
Li22 O10 2.202351 1_565
Li23 O8 2.026260 1_555
Li23 O32 2.082711 1_555
Li23 O16 2.103003 1_555
Li23 O23 2.103567 1_555
Li23 O11 2.202351 1_555
Gd0 O32 2.351586 1_555
Gd0 O35 2.393581 1_555
Gd0 O2 2.405143 1_555
Gd0 O23 2.414859 1_554
Gd0 O24 2.429712 1_554
Gd0 O11 2.431453 1_555
Gd0 O12 2.456531 1_555
Gd0 O0 2.567958 1_555
Gd1 O33 2.351586 1_545
Gd1 O3 2.393581 1_555
Gd1 O34 2.405143 1_555
Gd1 O22 2.414859 1_556
Gd1 O25 2.429712 1_556
Gd1 O10 2.431453 1_555
Gd1 O13 2.456531 1_555
Gd1 O1 2.567958 1_545
Gd2 O34 2.351586 1_555
Gd2 O1 2.393581 1_555
Gd2 O33 2.405143 1_555
Gd2 O21 2.414859 1_556
Gd2 O26 2.429712 1_556
Gd2 O9 2.431453 1_555
Gd2 O14 2.456531 1_555
Gd2 O3 2.567958 1_555
Gd3 O2 2.351586 1_565
Gd3 O0 2.393581 1_555
Gd3 O32 2.405143 1_555
Gd3 O20 2.414859 1_554
Gd3 O27 2.429712 1_554
Gd3 O8 2.431453 1_555
Gd3 O15 2.456531 1_555
Gd3 O35 2.567958 1_565
B0 O30 1.364016 1_555
B0 O34 1.394910 1_555
B0 O1 1.399817 1_545
B1 O28 1.364016 1_555
B1 O32 1.394910 1_555
B1 O35 1.399817 1_565
B2 O29 1.364016 1_555
B2 O33 1.394910 1_555
B2 O3 1.399817 1_555
B3 O31 1.364016 1_555
B3 O2 1.394910 1_555
B3 O0 1.399817 1_555
B4 O4 1.380188 1_555
B4 O8 1.393219 1_555
B4 O15 1.398229 1_555
B5 O5 1.380188 1_555
B5 O9 1.393219 1_555
B5 O14 1.398229 1_555
B6 O6 1.380188 1_555
B6 O10 1.393219 1_555
B6 O13 1.398229 1_555
B7 O7 1.380188 1_555
B7 O11 1.393219 1_555
B7 O12 1.398229 1_555
B8 O16 1.369966 1_555
B8 O24 1.397406 1_555
B8 O23 1.399995 1_555
B9 O17 1.369966 1_555
B9 O25 1.397406 1_565
B9 O22 1.399995 1_565
B10 O18 1.369966 1_555
B10 O26 1.397406 1_555
B10 O21 1.399995 1_555
B11 O19 1.369966 1_555
B11 O27 1.397406 1_545
B11 O20 1.399995 1_545
