# generated using pymatgen
data_CaCr2O4
_symmetry_space_group_name_H-M   'P 1'
_cell_length_a   6.20531934
_cell_length_b   6.20531934
_cell_length_c   15.58050900
_cell_angle_alpha   90.00000000
_cell_angle_beta   90.00000000
_cell_angle_gamma   119.99999300
_symmetry_Int_Tables_number   1
_chemical_formula_structural   CaCr2O4
_chemical_formula_sum   'Ca6 Cr12 O24'
_cell_volume   519.56582448
_cell_formula_units_Z   6
loop_
 _symmetry_equiv_pos_site_id
 _symmetry_equiv_pos_as_xyz
  1  'x, y, z'
loop_
 _atom_site_type_symbol
 _atom_site_label
 _atom_site_symmetry_multiplicity
 _atom_site_fract_x
 _atom_site_fract_y
 _atom_site_fract_z
 _atom_site_occupancy
  Ca  Ca0  1  0.33333300  0.66666700  0.95593600  1
  Ca  Ca1  1  0.00000000  0.00000000  0.62172900  1
  Ca  Ca2  1  0.66666700  0.33333300  0.66121700  1
  Ca  Ca3  1  0.66666700  0.33333300  0.28986200  1
  Ca  Ca4  1  0.00000000  0.00000000  0.00214700  1
  Ca  Ca5  1  0.00000000  0.00000000  0.37944500  1
  Cr  Cr0  1  0.32718900  0.16359400  0.83390300  1
  Cr  Cr1  1  0.83640600  0.16359400  0.83390300  1
  Cr  Cr2  1  0.99945800  0.49972900  0.49636400  1
  Cr  Cr3  1  0.83640600  0.67281100  0.83390300  1
  Cr  Cr4  1  0.50027100  0.49972900  0.49636400  1
  Cr  Cr5  1  0.33333300  0.66666700  0.33570600  1
  Cr  Cr6  1  0.33333300  0.66666700  0.71703600  1
  Cr  Cr7  1  0.65834700  0.82917400  0.17146600  1
  Cr  Cr8  1  0.50027100  0.00054200  0.49636400  1
  Cr  Cr9  1  0.17082600  0.82917400  0.17146600  1
  Cr  Cr10  1  0.17082600  0.34165300  0.17146600  1
  Cr  Cr11  1  0.66666700  0.33333300  0.05202000  1
  O  O0  1  0.70253800  0.85126900  0.90151300  1
  O  O1  1  0.00000000  0.00000000  0.76730000  1
  O  O2  1  0.14873100  0.85126900  0.90151300  1
  O  O3  1  0.14873100  0.29746200  0.90151300  1
  O  O4  1  0.36185000  0.18092500  0.56134200  1
  O  O5  1  0.50308000  0.00615900  0.76154200  1
  O  O6  1  0.66666700  0.33333300  0.42969500  1
  O  O7  1  0.50308000  0.49692000  0.76154200  1
  O  O8  1  0.66666700  0.33333300  0.90751700  1
  O  O9  1  0.81907500  0.18092500  0.56134200  1
  O  O10  1  0.81907500  0.63815000  0.56134200  1
  O  O11  1  0.99384100  0.49692000  0.76154200  1
  O  O12  1  0.05206400  0.52603200  0.24531700  1
  O  O13  1  0.19341200  0.38682300  0.41994400  1
  O  O14  1  0.19341200  0.80658800  0.41994400  1
  O  O15  1  0.33333300  0.66666700  0.10443300  1
  O  O16  1  0.33333300  0.66666700  0.57522000  1
  O  O17  1  0.47396800  0.52603200  0.24531700  1
  O  O18  1  0.47396800  0.94793600  0.24531700  1
  O  O19  1  0.61317700  0.80658800  0.41994400  1
  O  O20  1  0.83270000  0.66540000  0.09933400  1
  O  O21  1  0.83270000  0.16730000  0.09933400  1
  O  O22  1  0.00000000  0.00000000  0.23121700  1
  O  O23  1  0.33460000  0.16730000  0.09933400  1
loop_
_geom_bond_atom_site_label_1
_geom_bond_atom_site_label_2
_geom_bond_distance
_geom_bond_site_symmetry_2
Ca0 O2 2.157686 1_555
Ca0 O3 2.157691 1_555
Ca0 O0 2.157691 1_555
Ca0 O15 2.313659 1_556
Ca1 O9 2.160224 1_455
Ca1 O10 2.160224 1_445
Ca1 O4 2.160224 1_555
Ca1 O1 2.268070 1_555
Ca2 O9 2.259365 1_555
Ca2 O4 2.259369 1_555
Ca2 O10 2.259369 1_555
Ca2 O7 2.352588 1_555
Ca2 O5 2.352588 1_555
Ca2 O11 2.352588 1_555
Ca3 O6 2.178669 1_555
Ca3 O18 2.184303 1_545
Ca3 O12 2.184303 1_655
Ca3 O17 2.184308 1_555
Ca4 O2 2.239143 1_544
Ca4 O3 2.239144 1_554
Ca4 O0 2.239144 1_444
Ca4 O21 2.350774 1_455
Ca4 O23 2.350774 1_555
Ca4 O20 2.350774 1_445
Ca5 O13 2.172430 1_555
Ca5 O19 2.172430 1_445
Ca5 O14 2.172435 1_545
Ca5 O22 2.309468 1_555
Cr0 O2 1.986427 1_545
Cr0 O3 1.986432 1_555
Cr0 O1 2.041682 1_555
Cr0 O5 2.117321 1_555
Cr0 O7 2.117321 1_555
Cr0 O8 2.154926 1_555
Cr1 O3 1.986427 1_655
Cr1 O0 1.986427 1_545
Cr1 O1 2.041677 1_655
Cr1 O11 2.117321 1_555
Cr1 O5 2.117321 1_555
Cr1 O8 2.154926 1_555
Cr2 O10 1.994262 1_555
Cr2 O9 1.994262 1_555
Cr2 O14 2.049458 1_655
Cr2 O13 2.049462 1_655
Cr2 O6 2.068181 1_555
Cr2 O16 2.174573 1_655
Cr3 O2 1.986427 1_655
Cr3 O0 1.986432 1_555
Cr3 O1 2.041682 1_665
Cr3 O11 2.117321 1_555
Cr3 O7 2.117321 1_555
Cr3 O8 2.154926 1_555
Cr4 O10 1.994262 1_555
Cr4 O4 1.994262 1_555
Cr4 O19 2.049457 1_555
Cr4 O13 2.049457 1_555
Cr4 O6 2.068186 1_555
Cr4 O16 2.174578 1_555
Cr5 O14 1.996040 1_555
Cr5 O19 1.996049 1_555
Cr5 O13 1.996049 1_555
Cr5 O12 2.065926 1_555
Cr5 O18 2.065926 1_555
Cr5 O17 2.065930 1_555
Cr6 O11 1.951753 1_455
Cr6 O5 1.951753 1_565
Cr6 O7 1.951763 1_555
Cr6 O16 2.209565 1_555
Cr7 O18 2.004813 1_555
Cr7 O17 2.004818 1_555
Cr7 O15 2.035055 1_555
Cr7 O22 2.058563 1_665
Cr7 O21 2.136795 1_565
Cr7 O20 2.136799 1_555
Cr8 O4 1.994262 1_555
Cr8 O9 1.994262 1_555
Cr8 O14 2.049458 1_545
Cr8 O19 2.049462 1_545
Cr8 O6 2.068181 1_555
Cr8 O16 2.174573 1_545
Cr9 O12 2.004818 1_555
Cr9 O18 2.004818 1_555
Cr9 O15 2.035055 1_555
Cr9 O22 2.058558 1_565
Cr9 O20 2.136795 1_455
Cr9 O23 2.136795 1_565
Cr10 O12 2.004813 1_555
Cr10 O17 2.004818 1_555
Cr10 O15 2.035055 1_555
Cr10 O22 2.058563 1_555
Cr10 O21 2.136795 1_455
Cr10 O23 2.136799 1_555
Cr11 O21 1.930779 1_555
Cr11 O23 1.930784 1_555
Cr11 O20 1.930784 1_555
Cr11 O8 2.251430 1_554
