# generated using pymatgen
data_Hf10VSb5
_symmetry_space_group_name_H-M   'P 1'
_cell_length_a   5.57723346
_cell_length_b   8.25858651
_cell_length_c   8.25852494
_cell_angle_alpha   96.54645194
_cell_angle_beta   109.74690698
_cell_angle_gamma   70.25323517
_symmetry_Int_Tables_number   1
_chemical_formula_structural   Hf10VSb5
_chemical_formula_sum   'Hf10 V1 Sb5'
_cell_volume   336.96589584
_cell_formula_units_Z   1
loop_
 _symmetry_equiv_pos_site_id
 _symmetry_equiv_pos_as_xyz
  1  'x, y, z'
loop_
 _atom_site_type_symbol
 _atom_site_label
 _atom_site_symmetry_multiplicity
 _atom_site_fract_x
 _atom_site_fract_y
 _atom_site_fract_z
 _atom_site_occupancy
  Hf  Hf0  1  0.93714853  0.86044508  0.70798909  1
  Hf  Hf1  1  0.08963943  0.13962430  0.29204815  1
  Hf  Hf2  1  0.41035236  0.29205785  0.13961649  1
  Hf  Hf3  1  0.56286032  0.70797997  0.86045193  1
  Hf  Hf4  1  0.22917644  0.70798387  0.13953687  1
  Hf  Hf5  1  0.79759789  0.29205255  0.86039009  1
  Hf  Hf6  1  0.27082457  0.13954461  0.70799487  1
  Hf  Hf7  1  0.70239980  0.86038257  0.29204387  1
  Hf  Hf8  1  0.24999708  0.49998906  0.49998902  1
  Hf  Hf9  1  0.75000249  0.50001195  0.50001143  1
  V  V0  1  0.25000004  0.99992859  0.99992779  1
  Sb  Sb0  1  0.33638806  0.82706132  0.50002798  1
  Sb  Sb1  1  0.66363021  0.17290671  0.49996479  1
  Sb  Sb2  1  0.83636915  0.49996458  0.17290504  1
  Sb  Sb3  1  0.16361290  0.50002783  0.82706262  1
  Sb  Sb4  1  0.74999974  0.00004016  0.00003998  1
loop_
_geom_bond_atom_site_label_1
_geom_bond_atom_site_label_2
_geom_bond_distance
_geom_bond_site_symmetry_2
Hf0 V0 2.840163 1_655
Hf0 Sb4 2.913736 1_566
Hf0 Sb1 2.918459 1_565
Hf0 Sb3 2.951238 1_655
Hf0 Sb0 3.169377 1_655
Hf0 Sb0 3.298457 1_555
Hf1 V0 2.842024 1_544
Hf1 Sb4 2.913334 1_455
Hf1 Sb0 2.919003 1_545
Hf1 Sb2 2.950835 1_455
Hf1 Sb1 3.169336 1_555
Hf1 Sb1 3.298024 1_455
Hf2 V0 2.842069 1_544
Hf2 Sb4 2.913378 1_555
Hf2 Sb3 2.918892 1_554
Hf2 Sb1 2.950894 1_555
Hf2 Sb2 3.169309 1_455
Hf2 Sb2 3.297995 1_555
Hf3 V0 2.840213 1_555
Hf3 Sb4 2.913780 1_566
Hf3 Sb2 2.918356 1_556
Hf3 Sb0 2.951287 1_555
Hf3 Sb3 3.169355 1_555
Hf3 Sb3 3.298430 1_655
Hf4 V0 2.840693 1_554
Hf4 Sb4 2.912799 1_465
Hf4 Sb3 2.918696 1_554
Hf4 Sb0 2.952079 1_555
Hf4 Sb2 3.168832 1_555
Hf4 Sb2 3.299375 1_455
Hf5 V0 2.840853 1_645
Hf5 Sb4 2.913780 1_556
Hf5 Sb2 2.918811 1_556
Hf5 Sb1 2.951716 1_555
Hf5 Sb3 3.170116 1_655
Hf5 Sb3 3.297677 1_555
Hf6 V0 2.840624 1_545
Hf6 Sb4 2.912742 1_556
Hf6 Sb0 2.918811 1_545
Hf6 Sb3 2.952017 1_555
Hf6 Sb1 3.168861 1_455
Hf6 Sb1 3.299409 1_555
Hf7 V0 2.840811 1_554
Hf7 Sb4 2.913743 1_565
Hf7 Sb1 2.918918 1_565
Hf7 Sb2 2.951665 1_555
Hf7 Sb0 3.170131 1_555
Hf7 Sb0 3.297710 1_655
Hf8 Sb3 2.899548 1_555
Hf8 Sb0 2.899574 1_555
Hf8 Sb2 2.899625 1_455
Hf8 Sb1 2.899648 1_555
Hf9 Sb3 2.899387 1_655
Hf9 Sb0 2.899407 1_555
Hf9 Sb2 2.899757 1_555
Hf9 Sb1 2.899783 1_555
Sb4 V0 2.788614 1_544
Sb4 V0 2.788620 1_644
