# generated using pymatgen
data_Sr2CrWO6
_symmetry_space_group_name_H-M   'P 1'
_cell_length_a   5.67273535
_cell_length_b   7.97347500
_cell_length_c   5.67233923
_cell_angle_alpha   89.99854309
_cell_angle_beta   89.39944064
_cell_angle_gamma   90.00271631
_symmetry_Int_Tables_number   1
_chemical_formula_structural   Sr2CrWO6
_chemical_formula_sum   'Sr4 Cr2 W2 O12'
_cell_volume   256.55382715
_cell_formula_units_Z   2
loop_
 _symmetry_equiv_pos_site_id
 _symmetry_equiv_pos_as_xyz
  1  'x, y, z'
loop_
 _atom_site_type_symbol
 _atom_site_label
 _atom_site_symmetry_multiplicity
 _atom_site_fract_x
 _atom_site_fract_y
 _atom_site_fract_z
 _atom_site_occupancy
  Sr  Sr0  1  0.49999300  0.75628700  0.99997000  1
  Sr  Sr1  1  0.00001200  0.24379700  0.50000100  1
  Sr  Sr2  1  0.50000500  0.24370200  0.99997600  1
  Sr  Sr3  1  0.99999700  0.75619200  0.50000600  1
  Cr  Cr0  1  0.99994700  0.50004000  0.00008900  1
  Cr  Cr1  1  0.50003500  0.99998900  0.49994900  1
  W  W0  1  0.49997600  0.49999300  0.50004900  1
  W  W1  1  0.00001200  0.00003200  0.99997300  1
  O  O0  1  0.25382200  0.50001300  0.74588600  1
  O  O1  1  0.74874200  0.99998300  0.25121000  1
  O  O2  1  0.74612700  0.49999300  0.25418600  1
  O  O3  1  0.25127000  0.99998300  0.74872700  1
  O  O4  1  0.24731400  0.50000500  0.24760600  1
  O  O5  1  0.74983400  0.99997800  0.74982900  1
  O  O6  1  0.75270400  0.50000000  0.75245600  1
  O  O7  1  0.25018700  0.99999200  0.25011900  1
  O  O8  1  0.99999300  0.75361400  0.00000400  1
  O  O9  1  0.50002800  0.24859000  0.49996400  1
  O  O10  1  0.00000600  0.24643500  0.00001600  1
  O  O11  1  0.49999500  0.75138400  0.49998400  1
loop_
_geom_bond_atom_site_label_1
_geom_bond_atom_site_label_2
_geom_bond_distance
_geom_bond_site_symmetry_2
Cr0 O6 1.995368 1_554
Cr0 O4 1.995400 1_655
Cr0 O8 2.021866 1_555
Cr0 O10 2.022113 1_655
Cr0 O2 2.026596 1_555
Cr0 O0 2.027238 1_654
Cr1 O9 1.982214 1_565
Cr1 O11 1.982246 1_555
Cr1 O1 1.984816 1_555
Cr1 O3 1.985203 1_555
Cr1 O7 2.014730 1_555
Cr1 O5 2.014734 1_555
O0 W0 1.963051 1_555
O0 Sr3 2.869336 1_455
O0 Sr1 2.869470 1_555
O0 Sr0 2.871383 1_555
O0 Sr2 2.871686 1_555
O1 W1 2.005009 1_664
O1 Sr0 2.799968 1_554
O1 Sr2 2.800085 1_564
O1 Sr3 2.800717 1_555
O1 Sr1 2.800830 1_665
O2 W0 1.963143 1_555
O2 Sr3 2.869365 1_555
O2 Sr1 2.869424 1_655
O2 Sr2 2.871706 1_554
O2 Sr0 2.871816 1_554
O3 W1 2.004998 1_565
O3 Sr0 2.799944 1_555
O3 Sr2 2.800081 1_565
O3 Sr3 2.800509 1_455
O3 Sr1 2.800651 1_565
O4 W0 2.036612 1_555
O4 Sr1 2.854564 1_555
O4 Sr3 2.854647 1_455
O4 Sr0 2.856709 1_554
O4 Sr2 2.856994 1_554
O5 W1 2.017326 1_665
O5 Sr0 2.784755 1_555
O5 Sr2 2.785066 1_565
O5 Sr3 2.785440 1_555
O5 Sr1 2.785536 1_665
O6 W0 2.036733 1_555
O6 Sr3 2.854602 1_555
O6 Sr1 2.854868 1_655
O6 Sr2 2.856536 1_555
O6 Sr0 2.856639 1_555
O7 W1 2.017322 1_564
O7 Sr2 2.784801 1_564
O7 Sr0 2.784900 1_554
O7 Sr3 2.785633 1_455
O7 Sr1 2.785748 1_565
O8 W1 1.964808 1_664
O8 Sr3 2.836232 1_554
O8 Sr3 2.836256 1_555
O8 Sr0 2.836445 1_654
O8 Sr0 2.836451 1_554
O9 W0 2.004556 1_555
O9 Sr2 2.836372 1_554
O9 Sr2 2.836503 1_555
O9 Sr1 2.836538 1_655
O9 Sr1 2.836712 1_555
O10 W1 1.964688 1_554
O10 Sr1 2.836162 1_555
O10 Sr1 2.836333 1_554
O10 Sr2 2.836444 1_554
O10 Sr2 2.836458 1_454
O11 W0 2.004460 1_555
O11 Sr0 2.836361 1_555
O11 Sr0 2.836518 1_554
O11 Sr3 2.836616 1_455
O11 Sr3 2.836638 1_555
