# generated using pymatgen
data_Na3(CoO2)5
_symmetry_space_group_name_H-M   'P 1'
_cell_length_a   6.46451075
_cell_length_b   8.62959560
_cell_length_c   7.62260831
_cell_angle_alpha   75.12927627
_cell_angle_beta   80.52188345
_cell_angle_gamma   99.50367863
_symmetry_Int_Tables_number   1
_chemical_formula_structural   Na3(CoO2)5
_chemical_formula_sum   'Na6 Co10 O20'
_cell_volume   395.67554460
_cell_formula_units_Z   2
loop_
 _symmetry_equiv_pos_site_id
 _symmetry_equiv_pos_as_xyz
  1  'x, y, z'
loop_
 _atom_site_type_symbol
 _atom_site_label
 _atom_site_symmetry_multiplicity
 _atom_site_fract_x
 _atom_site_fract_y
 _atom_site_fract_z
 _atom_site_occupancy
  Na  Na0  1  0.13604900  0.63159200  0.79948100  1
  Na  Na1  1  0.63693800  0.13028300  0.79980500  1
  Na  Na2  1  0.03928900  0.53244400  0.19295700  1
  Na  Na3  1  0.53641600  0.03434300  0.19960000  1
  Na  Na4  1  0.23485300  0.73266300  0.40270000  1
  Na  Na5  1  0.73545000  0.22936500  0.39904500  1
  Co  Co0  1  0.79062900  0.80188500  0.80007700  1
  Co  Co1  1  0.00073300  0.99926500  0.00158400  1
  Co  Co2  1  0.60385600  0.60047600  0.60044400  1
  Co  Co3  1  0.19727300  0.20111800  0.19751300  1
  Co  Co4  1  0.39481900  0.40304700  0.40048300  1
  Co  Co5  1  0.29597800  0.30650500  0.80289300  1
  Co  Co6  1  0.50402600  0.49838700  0.99950700  1
  Co  Co7  1  0.10892000  0.09947300  0.59313800  1
  Co  Co8  1  0.69509200  0.70111000  0.20130000  1
  Co  Co9  1  0.89489100  0.90003700  0.40024500  1
  O  O0  1  0.01473300  0.18838900  0.81281100  1
  O  O1  1  0.51871600  0.68995000  0.79769200  1
  O  O2  1  0.07237000  0.89962600  0.81256900  1
  O  O3  1  0.57838100  0.40581400  0.80056200  1
  O  O4  1  0.91239200  0.09144600  0.19605500  1
  O  O5  1  0.41300000  0.59393700  0.19915800  1
  O  O6  1  0.10401300  0.29388700  0.39411300  1
  O  O7  1  0.60975300  0.79194200  0.39741600  1
  O  O8  1  0.21652400  0.39663500  0.99818000  1
  O  O9  1  0.71074200  0.89430700  0.00355200  1
  O  O10  1  0.31322400  0.49830300  0.60534200  1
  O  O11  1  0.80369500  0.98847700  0.60206000  1
  O  O12  1  0.78709600  0.61294800  0.99986200  1
  O  O13  1  0.28606400  0.11128600  0.99781300  1
  O  O14  1  0.88635700  0.71117500  0.60314600  1
  O  O15  1  0.39589400  0.21773900  0.60515200  1
  O  O16  1  0.69029600  0.51533300  0.39163600  1
  O  O17  1  0.18737200  0.00261500  0.38852600  1
  O  O18  1  0.97764600  0.80556500  0.20212300  1
  O  O19  1  0.48452000  0.30462700  0.20145700  1
loop_
_geom_bond_atom_site_label_1
_geom_bond_atom_site_label_2
_geom_bond_distance
_geom_bond_site_symmetry_2
Na0 O10 2.361209 1_555
Na0 O8 2.389000 1_555
Na0 O1 2.438697 1_555
Na0 O2 2.439024 1_555
Na0 O14 2.439458 1_455
Na0 O12 2.463095 1_455
Na1 O9 2.393340 1_546
Na1 O15 2.402967 1_555
Na1 O11 2.403934 1_545
Na1 O0 2.434493 1_655
Na1 O13 2.464251 1_555
Na1 O3 2.469905 1_555
Na2 O6 2.374813 1_555
Na2 O8 2.380526 1_554
Na2 O5 2.397362 1_555
Na2 O12 2.438531 1_454
Na2 O16 2.460724 1_455
Na2 O18 2.470682 1_455
Na3 O4 2.393099 1_555
Na3 O17 2.400757 1_555
Na3 O9 2.405320 1_545
Na3 O7 2.412074 1_545
Na3 O19 2.413879 1_555
Na3 O13 2.465051 1_554
Na4 O17 2.377114 1_565
Na4 O7 2.384273 1_555
Na4 O10 2.392802 1_555
Na4 O5 2.446797 1_555
Na4 O14 2.455047 1_455
Na4 O18 2.487362 1_455
Na5 O6 2.347297 1_655
Na5 O11 2.405659 1_545
Na5 O4 2.435366 1_555
Na5 O19 2.443779 1_555
Na5 O15 2.450968 1_555
Na5 O16 2.519948 1_555
Co0 O1 1.866024 1_555
Co0 O11 1.882504 1_555
Co0 O2 1.904927 1_655
Co0 O12 1.918293 1_555
Co0 O14 1.925166 1_555
Co0 O9 1.953355 1_556
Co1 O0 1.856154 1_564
Co1 O2 1.891370 1_554
Co1 O4 1.906001 1_465
Co1 O18 1.919384 1_455
Co1 O13 1.927968 1_564
Co1 O9 1.938549 1_455
Co2 O1 1.903528 1_555
Co2 O3 1.920048 1_555
Co2 O14 1.922110 1_555
Co2 O10 1.929157 1_555
Co2 O7 1.942633 1_555
Co2 O16 1.956634 1_555
Co3 O17 1.926489 1_555
Co3 O13 1.926783 1_554
Co3 O8 1.929626 1_554
Co3 O4 1.929760 1_455
Co3 O6 1.930749 1_555
Co3 O19 1.931668 1_555
Co4 O5 1.913528 1_555
Co4 O15 1.928192 1_555
Co4 O6 1.972962 1_555
Co4 O19 1.973184 1_555
Co4 O16 1.976070 1_555
Co4 O10 1.980703 1_555
Co5 O3 1.879474 1_555
Co5 O8 1.886551 1_555
Co5 O10 1.903679 1_555
Co5 O0 1.911392 1_555
Co5 O13 1.923020 1_555
Co5 O15 1.926479 1_555
Co6 O3 1.917681 1_555
Co6 O8 1.922813 1_555
Co6 O1 1.924339 1_555
Co6 O19 1.930471 1_556
Co6 O12 1.931720 1_555
Co6 O5 1.962550 1_556
Co7 O6 1.960688 1_555
Co7 O17 1.984198 1_555
Co7 O15 1.992550 1_555
Co7 O2 2.020507 1_545
Co7 O11 2.028203 1_445
Co7 O0 2.059456 1_555
Co8 O16 1.857695 1_555
Co8 O18 1.900503 1_555
Co8 O7 1.904249 1_555
Co8 O5 1.908329 1_555
Co8 O9 1.914711 1_555
Co8 O12 1.933529 1_554
Co9 O14 1.923477 1_555
Co9 O17 1.928105 1_665
Co9 O7 1.929742 1_555
Co9 O4 1.929882 1_565
Co9 O18 1.934283 1_555
Co9 O11 1.936257 1_555
