# generated using pymatgen
data_Cs3ScF6
_symmetry_space_group_name_H-M   'P 1'
_cell_length_a   6.69022781
_cell_length_b   6.69022781
_cell_length_c   9.80885877
_cell_angle_alpha   90.00000000
_cell_angle_beta   90.00000000
_cell_angle_gamma   90.00000000
_symmetry_Int_Tables_number   1
_chemical_formula_structural   Cs3ScF6
_chemical_formula_sum   'Cs6 Sc2 F12'
_cell_volume   439.03616287
_cell_formula_units_Z   2
loop_
 _symmetry_equiv_pos_site_id
 _symmetry_equiv_pos_as_xyz
  1  'x, y, z'
loop_
 _atom_site_type_symbol
 _atom_site_label
 _atom_site_symmetry_multiplicity
 _atom_site_fract_x
 _atom_site_fract_y
 _atom_site_fract_z
 _atom_site_occupancy
  Cs  Cs0  1  -0.00000000  0.50000000  0.25000000  1
  Cs  Cs1  1  -0.00000000  0.50000000  0.75000000  1
  Cs  Cs2  1  0.50000000  0.00000000  0.25000000  1
  Cs  Cs3  1  0.50000000  0.00000000  0.75000000  1
  Cs  Cs4  1  -0.00000000  0.00000000  0.50000000  1
  Cs  Cs5  1  0.50000000  0.50000000  -0.00000000  1
  Sc  Sc0  1  -0.00000000  0.00000000  -0.00000000  1
  Sc  Sc1  1  0.50000000  0.50000000  0.50000000  1
  F  F0  1  0.13836646  0.26946570  -0.00000000  1
  F  F1  1  0.86163354  0.73053430  -0.00000000  1
  F  F2  1  0.73053430  0.13836646  -0.00000000  1
  F  F3  1  0.36163354  0.76946570  0.50000000  1
  F  F4  1  0.26946570  0.86163354  -0.00000000  1
  F  F5  1  0.63836646  0.23053430  0.50000000  1
  F  F6  1  0.76946570  0.63836646  0.50000000  1
  F  F7  1  0.23053430  0.36163354  0.50000000  1
  F  F8  1  -0.00000000  0.00000000  0.20782148  1
  F  F9  1  -0.00000000  0.00000000  0.79217852  1
  F  F10  1  0.50000000  0.50000000  0.29217852  1
  F  F11  1  0.50000000  0.50000000  0.70782148  1
loop_
_geom_bond_atom_site_label_1
_geom_bond_atom_site_label_2
_geom_bond_distance
_geom_bond_site_symmetry_2
Cs0 F6 3.041226 1_455
Cs0 F0 3.041226 1_555
Cs0 F1 3.041226 1_455
Cs0 F7 3.041226 1_555
Cs0 F10 3.370601 1_455
Cs0 F8 3.370601 1_565
Cs0 F10 3.370601 1_555
Cs0 F8 3.370601 1_555
Cs1 F6 3.041226 1_455
Cs1 F0 3.041226 1_556
Cs1 F7 3.041226 1_555
Cs1 F1 3.041226 1_456
Cs1 F9 3.370601 1_565
Cs1 F9 3.370601 1_555
Cs1 F11 3.370601 1_455
Cs1 F11 3.370601 1_555
Cs2 F2 3.041226 1_555
Cs2 F3 3.041226 1_545
Cs2 F4 3.041226 1_545
Cs2 F5 3.041226 1_555
Cs2 F10 3.370601 1_545
Cs2 F8 3.370601 1_655
Cs2 F10 3.370601 1_555
Cs2 F8 3.370601 1_555
Cs3 F3 3.041226 1_545
Cs3 F2 3.041226 1_556
Cs3 F4 3.041226 1_546
Cs3 F5 3.041226 1_555
Cs3 F11 3.370601 1_545
Cs3 F9 3.370601 1_555
Cs3 F9 3.370601 1_655
Cs3 F11 3.370601 1_555
Cs4 F8 2.865938 1_555
Cs4 F9 2.865938 1_555
Cs4 F3 2.869202 1_545
Cs4 F6 2.869202 1_445
Cs4 F7 2.869202 1_555
Cs4 F5 2.869202 1_455
Cs5 F10 2.865938 1_555
Cs5 F11 2.865938 1_554
Cs5 F4 2.869202 1_555
Cs5 F1 2.869202 1_555
Cs5 F2 2.869202 1_555
Cs5 F0 2.869202 1_555
F0 Sc0 2.026565 1_555
F1 Sc0 2.026565 1_665
F2 Sc0 2.026565 1_655
F3 Sc1 2.026565 1_555
F4 Sc0 2.026565 1_565
F5 Sc1 2.026565 1_555
F6 Sc1 2.026565 1_555
F7 Sc1 2.026565 1_555
F8 Sc0 2.038492 1_555
F9 Sc0 2.038492 1_556
F10 Sc1 2.038492 1_555
F11 Sc1 2.038492 1_555
