# generated using pymatgen
data_Mg3MnNi3O8
_symmetry_space_group_name_H-M   'P 1'
_cell_length_a   5.94826563
_cell_length_b   5.94826563
_cell_length_c   5.94826585
_cell_angle_alpha   60.51667304
_cell_angle_beta   60.51667304
_cell_angle_gamma   60.51667251
_symmetry_Int_Tables_number   1
_chemical_formula_structural   Mg3MnNi3O8
_chemical_formula_sum   'Mg3 Mn1 Ni3 O8'
_cell_volume   150.55573537
_cell_formula_units_Z   1
loop_
 _symmetry_equiv_pos_site_id
 _symmetry_equiv_pos_as_xyz
  1  'x, y, z'
loop_
 _atom_site_type_symbol
 _atom_site_label
 _atom_site_symmetry_multiplicity
 _atom_site_fract_x
 _atom_site_fract_y
 _atom_site_fract_z
 _atom_site_occupancy
  Mg  Mg0  1  0.50000000  0.50000000  0.00000000  1
  Mg  Mg1  1  0.00000000  0.50000000  0.50000000  1
  Mg  Mg2  1  0.50000000  0.00000000  0.50000000  1
  Mn  Mn0  1  0.00000000  0.00000000  0.00000000  1
  Ni  Ni0  1  0.00000000  0.00000000  0.50000000  1
  Ni  Ni1  1  0.50000000  0.00000000  0.00000000  1
  Ni  Ni2  1  0.00000000  0.50000000  0.00000000  1
  O  O0  1  0.74889000  0.74889000  0.74889000  1
  O  O1  1  0.25111000  0.25111000  0.25111000  1
  O  O2  1  0.77050700  0.77050700  0.23031800  1
  O  O3  1  0.23031800  0.77050700  0.77050700  1
  O  O4  1  0.77050700  0.23031800  0.77050700  1
  O  O5  1  0.22949300  0.22949300  0.76968200  1
  O  O6  1  0.76968200  0.22949300  0.22949300  1
  O  O7  1  0.22949300  0.76968200  0.22949300  1
loop_
_geom_bond_atom_site_label_1
_geom_bond_atom_site_label_2
_geom_bond_distance
_geom_bond_site_symmetry_2
Mg0 O0 2.102060 1_554
Mg0 O1 2.102060 1_555
Mg0 O3 2.116234 1_554
Mg0 O6 2.116234 1_555
Mg0 O4 2.116234 1_554
Mg0 O7 2.116234 1_555
Mg1 O0 2.102060 1_455
Mg1 O1 2.102060 1_555
Mg1 O7 2.116234 1_555
Mg1 O4 2.116234 1_455
Mg1 O2 2.116234 1_455
Mg1 O5 2.116234 1_555
Mg2 O0 2.102060 1_545
Mg2 O1 2.102060 1_555
Mg2 O3 2.116234 1_545
Mg2 O6 2.116234 1_555
Mg2 O5 2.116234 1_555
Mg2 O2 2.116234 1_545
Mn0 O2 1.938126 1_445
Mn0 O5 1.938126 1_554
Mn0 O3 1.938126 1_544
Mn0 O4 1.938126 1_454
Mn0 O6 1.938126 1_455
Mn0 O7 1.938126 1_545
Ni0 O4 2.120442 1_455
Ni0 O3 2.120442 1_545
Ni0 O6 2.120442 1_455
Ni0 O7 2.120442 1_545
Ni0 O0 2.120516 1_445
Ni0 O1 2.120516 1_555
Ni1 O7 2.120442 1_545
Ni1 O4 2.120442 1_554
Ni1 O2 2.120442 1_545
Ni1 O5 2.120442 1_554
Ni1 O1 2.120516 1_555
Ni1 O0 2.120516 1_544
Ni2 O6 2.120442 1_455
Ni2 O3 2.120442 1_554
Ni2 O2 2.120442 1_455
Ni2 O5 2.120442 1_554
Ni2 O1 2.120516 1_555
Ni2 O0 2.120516 1_454
