# generated using pymatgen
data_Li4NbCo3O8
_symmetry_space_group_name_H-M   'P 1'
_cell_length_a   6.00336351
_cell_length_b   8.53585432
_cell_length_c   6.01711318
_cell_angle_alpha   90.15555110
_cell_angle_beta   89.50961277
_cell_angle_gamma   90.34073786
_symmetry_Int_Tables_number   1
_chemical_formula_structural   Li4NbCo3O8
_chemical_formula_sum   'Li8 Nb2 Co6 O16'
_cell_volume   308.32212275
_cell_formula_units_Z   2
loop_
 _symmetry_equiv_pos_site_id
 _symmetry_equiv_pos_as_xyz
  1  'x, y, z'
loop_
 _atom_site_type_symbol
 _atom_site_label
 _atom_site_symmetry_multiplicity
 _atom_site_fract_x
 _atom_site_fract_y
 _atom_site_fract_z
 _atom_site_occupancy
  Li  Li0  1  0.99958100  0.49983200  0.00027300  1
  Li  Li1  1  0.50042700  0.00017700  0.49972200  1
  Li  Li2  1  0.74999600  0.74999700  0.74998900  1
  Li  Li3  1  0.24999200  0.25000100  0.24999700  1
  Li  Li4  1  0.25000700  0.74999400  0.75000100  1
  Li  Li5  1  0.75000700  0.25000800  0.24999700  1
  Li  Li6  1  0.50011100  0.49833900  0.99992700  1
  Li  Li7  1  0.99989400  0.00167500  0.50007300  1
  Nb  Nb0  1  0.49810200  0.50073000  0.49881900  1
  Nb  Nb1  1  0.00190800  0.99924900  0.00118800  1
  Co  Co0  1  0.25000600  0.74999800  0.25001400  1
  Co  Co1  1  0.75000200  0.24999000  0.75000900  1
  Co  Co2  1  0.74998900  0.74999900  0.25000000  1
  Co  Co3  1  0.25000100  0.25000500  0.75000600  1
  Co  Co4  1  0.50203900  0.00061800  0.99780300  1
  Co  Co5  1  0.99796600  0.49938700  0.50219100  1
  O  O0  1  0.48113100  0.75933600  0.03714100  1
  O  O1  1  0.98327000  0.25666500  0.53008300  1
  O  O2  1  0.01884900  0.74066400  0.46286000  1
  O  O3  1  0.51673400  0.24334800  0.96991300  1
  O  O4  1  0.24139000  0.00025300  0.76153900  1
  O  O5  1  0.74057100  0.50215500  0.26138000  1
  O  O6  1  0.25862600  0.49975500  0.73847700  1
  O  O7  1  0.75940700  0.99784300  0.23860100  1
  O  O8  1  0.76479300  0.00035700  0.75803100  1
  O  O9  1  0.26477700  0.49807500  0.25903900  1
  O  O10  1  0.50396400  0.26171800  0.49840600  1
  O  O11  1  0.00062500  0.76174200  0.99387300  1
  O  O12  1  0.73521900  0.49964800  0.74195400  1
  O  O13  1  0.23521200  0.00192000  0.24097200  1
  O  O14  1  0.49936200  0.73825200  0.50612400  1
  O  O15  1  0.99603700  0.23827200  0.00159500  1
loop_
_geom_bond_atom_site_label_1
_geom_bond_atom_site_label_2
_geom_bond_distance
_geom_bond_site_symmetry_2
Li0 O5 2.201130 1_555
Li0 O6 2.204080 1_654
Li0 O12 2.230898 1_554
Li0 O15 2.232648 1_555
Li0 O11 2.236032 1_654
Li0 O9 2.236532 1_655
Li1 O7 2.201064 1_545
Li1 O4 2.204136 1_555
Li1 O8 2.230873 1_555
Li1 O10 2.232485 1_555
Li1 O14 2.236160 1_545
Li1 O13 2.236544 1_555
Li2 O14 2.112432 1_555
Li2 O11 2.112490 1_655
Li2 O12 2.138689 1_555
Li2 O8 2.138787 1_565
Li2 O2 2.355710 1_655
Li2 O0 2.355861 1_556
Li3 O9 2.119426 1_555
Li3 O13 2.119482 1_555
Li3 O15 2.145874 1_455
Li3 O10 2.145973 1_555
Li3 O1 2.315558 1_455
Li3 O3 2.315629 1_554
Li4 O14 2.089907 1_555
Li4 O11 2.090004 1_555
Li4 O6 2.137860 1_555
Li4 O4 2.138033 1_565
Li4 O0 2.226136 1_556
Li4 O2 2.226266 1_555
Li5 O15 2.094937 1_555
Li5 O10 2.095010 1_555
Li5 O5 2.154260 1_555
Li5 O7 2.154409 1_545
Li5 O1 2.200782 1_555
Li5 O3 2.200812 1_554
Li6 O12 2.089061 1_555
Li6 O9 2.095014 1_556
Li6 O5 2.144277 1_556
Li6 O6 2.148504 1_555
Li6 O3 2.186356 1_555
Li6 O0 2.241927 1_556
Li7 O8 2.088967 1_555
Li7 O13 2.094901 1_655
Li7 O7 2.144473 1_545
Li7 O4 2.148620 1_655
Li7 O1 2.186346 1_555
Li7 O2 2.242036 1_645
Nb0 O9 2.019464 1_555
Nb0 O6 2.027531 1_555
Nb0 O14 2.027781 1_555
Nb0 O5 2.030878 1_555
Nb0 O10 2.040679 1_555
Nb0 O12 2.050024 1_555
Nb1 O13 2.019394 1_565
Nb1 O4 2.027518 1_564
Nb1 O11 2.027654 1_554
Nb1 O7 2.030905 1_455
Nb1 O15 2.040774 1_465
Nb1 O8 2.050113 1_464
Co0 O0 1.881770 1_555
Co0 O2 1.881800 1_555
Co0 O9 2.153584 1_555
Co0 O13 2.153585 1_565
Co0 O14 2.160535 1_555
Co0 O11 2.160773 1_554
Co1 O3 1.919084 1_555
Co1 O1 1.919182 1_555
Co1 O15 2.127006 1_556
Co1 O10 2.127096 1_555
Co1 O8 2.133902 1_555
Co1 O12 2.134118 1_555
Co2 O0 2.071093 1_555
Co2 O2 2.071106 1_655
Co2 O5 2.117257 1_555
Co2 O7 2.117261 1_555
Co2 O14 2.146699 1_555
Co2 O11 2.146748 1_654
Co3 O3 2.087105 1_555
Co3 O1 2.087158 1_455
Co3 O6 2.133452 1_555
Co3 O4 2.133469 1_555
Co3 O15 2.141439 1_456
Co3 O10 2.141474 1_555
Co4 O0 2.076676 1_546
Co4 O3 2.080435 1_555
Co4 O4 2.123096 1_555
Co4 O7 2.127462 1_546
Co4 O8 2.128561 1_555
Co4 O13 2.160315 1_556
Co5 O2 2.076621 1_655
Co5 O1 2.080368 1_555
Co5 O6 2.123235 1_655
Co5 O5 2.127633 1_555
Co5 O12 2.128494 1_555
Co5 O9 2.160177 1_655
