# generated using pymatgen
data_TmCuTe2
_symmetry_space_group_name_H-M   'P 1'
_cell_length_a   4.21822971
_cell_length_b   4.21822971
_cell_length_c   6.64276900
_cell_angle_alpha   90.00000000
_cell_angle_beta   90.00000000
_cell_angle_gamma   119.99999540
_symmetry_Int_Tables_number   1
_chemical_formula_structural   TmCuTe2
_chemical_formula_sum   'Tm1 Cu1 Te2'
_cell_volume   102.36235143
_cell_formula_units_Z   1
loop_
 _symmetry_equiv_pos_site_id
 _symmetry_equiv_pos_as_xyz
  1  'x, y, z'
loop_
 _atom_site_type_symbol
 _atom_site_label
 _atom_site_symmetry_multiplicity
 _atom_site_fract_x
 _atom_site_fract_y
 _atom_site_fract_z
 _atom_site_occupancy
  Tm  Tm0  1  0.00000000  0.00000000  0.00000000  1
  Cu  Cu0  1  0.00000000  0.00000000  0.50000000  1
  Te  Te0  1  0.66666700  0.33333300  0.72599400  1
  Te  Te1  1  0.33333300  0.66666700  0.27400600  1
loop_
_geom_bond_atom_site_label_1
_geom_bond_atom_site_label_2
_geom_bond_distance
_geom_bond_site_symmetry_2
Cu0 Te1 2.860913 1_545
Cu0 Te0 2.860913 1_455
Cu0 Te0 2.860916 1_445
Cu0 Te1 2.860916 1_445
Cu0 Te1 2.860916 1_555
Cu0 Te0 2.860916 1_555
Cu0 Tm0 3.321385 1_555
Cu0 Tm0 3.321385 1_556
Te0 Tm0 3.040414 1_656
Te0 Tm0 3.040417 1_666
Te0 Tm0 3.040417 1_556
Te1 Tm0 3.040414 1_565
Te1 Tm0 3.040417 1_665
Te1 Tm0 3.040417 1_555
