# generated using pymatgen
data_Ba2(CuO2)3
_symmetry_space_group_name_H-M   'P 1'
_cell_length_a   4.49436725
_cell_length_b   4.49436725
_cell_length_c   11.63852463
_cell_angle_alpha   86.75099644
_cell_angle_beta   86.75099644
_cell_angle_gamma   106.13121175
_symmetry_Int_Tables_number   1
_chemical_formula_structural   Ba2(CuO2)3
_chemical_formula_sum   'Ba2 Cu3 O6'
_cell_volume   224.82775233
_cell_formula_units_Z   1
loop_
 _symmetry_equiv_pos_site_id
 _symmetry_equiv_pos_as_xyz
  1  'x, y, z'
loop_
 _atom_site_type_symbol
 _atom_site_label
 _atom_site_symmetry_multiplicity
 _atom_site_fract_x
 _atom_site_fract_y
 _atom_site_fract_z
 _atom_site_occupancy
  Ba  Ba0  1  0.06085000  0.04755700  0.25073600  1
  Ba  Ba1  1  0.95244300  0.93915000  0.74926400  1
  Cu  Cu0  1  0.26594000  0.73406000  0.50000000  1
  Cu  Cu1  1  0.27749200  0.72250800  0.00000000  1
  Cu  Cu2  1  0.74237700  0.25762300  0.50000000  1
  O  O0  1  0.52736300  0.01796500  0.39050400  1
  O  O1  1  0.98203500  0.47263700  0.60949600  1
  O  O2  1  0.43790900  0.92105400  0.86905900  1
  O  O3  1  0.07894600  0.56209100  0.13094100  1
  O  O4  1  0.48101500  0.97306900  0.60625900  1
  O  O5  1  0.02693100  0.51898500  0.39374100  1
loop_
_geom_bond_atom_site_label_1
_geom_bond_atom_site_label_2
_geom_bond_distance
_geom_bond_site_symmetry_2
Ba0 O3 2.610625 1_555
Ba0 O3 2.672378 1_545
Ba0 O0 2.752620 1_555
Ba0 O5 2.785435 1_545
Ba0 O0 2.787274 1_455
Ba0 O5 2.798748 1_555
Ba1 O2 2.610625 1_555
Ba1 O2 2.672378 1_655
Ba1 O1 2.752620 1_555
Ba1 O4 2.785435 1_655
Ba1 O1 2.787274 1_565
Ba1 O4 2.798748 1_555
Cu0 O4 1.823947 1_555
Cu0 O5 1.823947 1_555
Cu0 O0 1.856206 1_565
Cu0 O1 1.856206 1_455
Cu1 O2 1.732727 1_554
Cu1 O3 1.732727 1_555
Cu2 O4 1.834691 1_545
Cu2 O5 1.834691 1_655
Cu2 O0 1.853328 1_555
Cu2 O1 1.853328 1_555
