# generated using pymatgen
data_Mg5Si6
_symmetry_space_group_name_H-M   'P 1'
_cell_length_a   4.31621000
_cell_length_b   8.53291212
_cell_length_c   11.70362943
_cell_angle_alpha   91.38491876
_cell_angle_beta   99.99911553
_cell_angle_gamma   92.71783261
_symmetry_Int_Tables_number   1
_chemical_formula_structural   Mg5Si6
_chemical_formula_sum   'Mg10 Si12'
_cell_volume   423.78787735
_cell_formula_units_Z   2
loop_
 _symmetry_equiv_pos_site_id
 _symmetry_equiv_pos_as_xyz
  1  'x, y, z'
loop_
 _atom_site_type_symbol
 _atom_site_label
 _atom_site_symmetry_multiplicity
 _atom_site_fract_x
 _atom_site_fract_y
 _atom_site_fract_z
 _atom_site_occupancy
  Mg  Mg0  1  0.82597000  0.91019800  0.96372800  1
  Mg  Mg1  1  0.59167900  0.41085100  0.54186900  1
  Mg  Mg2  1  0.11627400  0.11004800  0.60860800  1
  Mg  Mg3  1  0.00545600  0.91070700  0.35261200  1
  Mg  Mg4  1  0.41099800  0.77788300  0.16953100  1
  Mg  Mg5  1  0.29882600  0.21501600  0.88338400  1
  Mg  Mg6  1  0.12334000  0.68982700  0.57833200  1
  Mg  Mg7  1  0.98498000  0.28357600  0.34373300  1
  Mg  Mg8  1  0.40779200  0.40105900  0.14565300  1
  Mg  Mg9  1  0.28132300  0.61814900  0.91086400  1
  Si  Si0  1  0.86135500  0.37298900  0.97480200  1
  Si  Si1  1  0.85637700  0.62725400  0.07562200  1
  Si  Si2  1  0.60958900  0.88149200  0.51990400  1
  Si  Si3  1  0.50434900  0.13085800  0.43522500  1
  Si  Si4  1  0.70048400  0.81557700  0.72367100  1
  Si  Si5  1  0.89422900  0.15977300  0.10986900  1
  Si  Si6  1  0.51636700  0.64748500  0.39179100  1
  Si  Si7  1  0.16325600  0.41983800  0.69911000  1
  Si  Si8  1  0.70462700  0.53831200  0.76405600  1
  Si  Si9  1  0.96320900  0.58590300  0.28395100  1
  Si  Si10  1  0.43441600  0.08675100  0.22084600  1
  Si  Si11  1  0.24510500  0.91008100  0.79921100  1
loop_
_geom_bond_atom_site_label_1
_geom_bond_atom_site_label_2
_geom_bond_distance
_geom_bond_site_symmetry_2
Mg0 Si5 2.671487 1_566
Mg0 Si1 2.772076 1_556
Mg0 Si4 2.856428 1_555
Mg0 Si11 2.861782 1_655
Mg0 Si11 2.883811 1_555
Mg1 Si3 2.648591 1_555
Mg1 Si6 2.702460 1_555
Mg1 Si8 2.748707 1_555
Mg1 Si7 2.806686 1_655
Mg1 Si7 2.828485 1_555
Mg2 Si7 2.808894 1_555
Mg2 Si11 2.835509 1_545
Mg2 Si3 2.850342 1_555
Mg2 Si2 2.893656 1_445
Mg2 Si3 3.053826 1_455
Mg2 Mg3 3.358184 1_545
Mg3 Si3 2.811781 1_565
Mg3 Si2 2.821351 1_455
Mg3 Si9 2.855499 1_455
Mg3 Si10 2.983695 1_565
Mg3 Si2 3.001218 1_555
Mg3 Si6 3.106065 1_455
Mg3 Si10 3.138909 1_465
Mg3 Mg4 3.186966 1_455
Mg3 Si3 3.188340 1_465
Mg3 Mg7 3.190771 1_465
Mg3 Si6 3.207219 1_555
Mg3 Mg4 3.211368 1_555
Mg3 Mg6 3.264172 1_555
Mg4 Si10 2.682189 1_565
Mg4 Si1 2.704958 1_455
Mg4 Si1 2.730410 1_555
Mg4 Si6 2.826384 1_555
Mg4 Si9 2.986118 1_455
Mg4 Si9 3.086357 1_555
Mg5 Si0 2.720358 1_455
Mg5 Si11 2.744835 1_545
Mg5 Si0 2.752217 1_555
Mg5 Si7 2.808762 1_555
Mg6 Si7 2.728685 1_555
Mg6 Si2 2.788196 1_555
Mg6 Si2 2.816180 1_455
Mg6 Si4 2.904652 1_555
Mg6 Si4 2.924287 1_455
Mg6 Si6 3.013433 1_555
Mg6 Si6 3.105846 1_455
Mg6 Si11 3.112995 1_555
Mg7 Si9 2.690869 1_555
Mg7 Si3 2.716779 1_655
Mg7 Si3 2.780428 1_555
Mg7 Si5 2.865237 1_555
Mg7 Si10 2.975585 1_555
Mg7 Si10 3.132618 1_655
Mg8 Si0 2.811390 1_454
Mg8 Si10 2.844078 1_555
Mg8 Si1 2.901558 1_555
Mg8 Si5 2.920788 1_455
Mg8 Si9 3.004187 1_555
Mg8 Si0 3.044480 1_554
Mg8 Si5 3.081580 1_555
Mg8 Si1 3.145834 1_455
Mg8 Si9 3.167335 1_455
Mg9 Si8 2.811770 1_555
Mg9 Si8 2.812383 1_455
Mg9 Si11 2.839118 1_555
Mg9 Si1 2.863088 1_556
Mg9 Si1 2.884933 1_456
Mg9 Si0 2.899828 1_455
Mg9 Si7 2.922668 1_555
Si0 Si5 2.432003 1_556
Si0 Si1 2.447345 1_556
Si1 Si9 2.438967 1_555
Si2 Si3 2.398623 1_565
Si2 Si4 2.432787 1_555
Si2 Si6 2.442682 1_555
Si4 Si8 2.424093 1_555
Si6 Si9 2.524276 1_455
Si6 Si9 2.549153 1_555
Si7 Si8 2.486326 1_555
Si7 Si8 2.488667 1_455
Si10 Si3 2.491683 1_555
Si10 Si5 2.576169 1_455
Si10 Si5 2.613627 1_555
Si11 Si4 2.452431 1_555
Si11 Si4 2.453925 1_455
