# generated using pymatgen
data_Dy2S3O20
_symmetry_space_group_name_H-M   'P 1'
_cell_length_a   7.55957404
_cell_length_b   7.55957404
_cell_length_c   18.17304973
_cell_angle_alpha   82.63492523
_cell_angle_beta   82.63492523
_cell_angle_gamma   52.29821468
_symmetry_Int_Tables_number   1
_chemical_formula_structural   Dy2S3O20
_chemical_formula_sum   'Dy4 S6 O40'
_cell_volume   813.27407666
_cell_formula_units_Z   2
loop_
 _symmetry_equiv_pos_site_id
 _symmetry_equiv_pos_as_xyz
  1  'x, y, z'
loop_
 _atom_site_type_symbol
 _atom_site_label
 _atom_site_symmetry_multiplicity
 _atom_site_fract_x
 _atom_site_fract_y
 _atom_site_fract_z
 _atom_site_occupancy
  Dy  Dy0  1  0.81525600  0.84447100  0.89277400  1
  Dy  Dy1  1  0.18474400  0.15552900  0.10722600  1
  Dy  Dy2  1  0.15552900  0.18474400  0.60722600  1
  Dy  Dy3  1  0.84447100  0.81525600  0.39277400  1
  S  S0  1  0.75303900  0.80486300  0.59186700  1
  S  S1  1  0.24696100  0.19513700  0.40813300  1
  S  S2  1  0.19513700  0.24696100  0.90813300  1
  S  S3  1  0.80486300  0.75303900  0.09186700  1
  S  S4  1  0.72008200  0.27991800  0.75000000  1
  S  S5  1  0.27991800  0.72008200  0.25000000  1
  O  O0  1  0.34176700  0.27954200  0.68831400  1
  O  O1  1  0.65823300  0.72045800  0.31168600  1
  O  O2  1  0.72045800  0.65823300  0.81168600  1
  O  O3  1  0.27954200  0.34176700  0.18831400  1
  O  O4  1  0.30131400  0.38639800  0.57605100  1
  O  O5  1  0.69868600  0.61360200  0.42394900  1
  O  O6  1  0.61360200  0.69868600  0.92394900  1
  O  O7  1  0.38639800  0.30131400  0.07605100  1
  O  O8  1  0.52172700  0.87794700  0.61507200  1
  O  O9  1  0.47827300  0.12205300  0.38492800  1
  O  O10  1  0.12205300  0.47827300  0.88492800  1
  O  O11  1  0.87794700  0.52172700  0.11507200  1
  O  O12  1  0.75796300  0.89709400  0.51506500  1
  O  O13  1  0.24203700  0.10290600  0.48493500  1
  O  O14  1  0.10290600  0.24203700  0.98493500  1
  O  O15  1  0.89709400  0.75796300  0.01506500  1
  O  O16  1  0.55076300  0.37602800  0.69263400  1
  O  O17  1  0.44923700  0.62397200  0.30736600  1
  O  O18  1  0.62397200  0.44923700  0.80736600  1
  O  O19  1  0.37602800  0.55076300  0.19263400  1
  O  O20  1  0.81495200  0.88361700  0.64705000  1
  O  O21  1  0.18504800  0.11638300  0.35295000  1
  O  O22  1  0.11638300  0.18504800  0.85295000  1
  O  O23  1  0.88361700  0.81495200  0.14705000  1
  O  O24  1  0.44463100  0.09659500  0.90783400  1
  O  O25  1  0.55536900  0.90340500  0.09216600  1
  O  O26  1  0.90340500  0.55536900  0.59216600  1
  O  O27  1  0.09659500  0.44463100  0.40783400  1
  O  O28  1  0.10195500  0.88055800  0.61655900  1
  O  O29  1  0.89804500  0.11944200  0.38344100  1
  O  O30  1  0.11944200  0.89804500  0.88344100  1
  O  O31  1  0.88055800  0.10195500  0.11655900  1
  O  O32  1  0.82170900  0.10798600  0.94516400  1
  O  O33  1  0.17829100  0.89201400  0.05483600  1
  O  O34  1  0.89201400  0.17829100  0.55483600  1
  O  O35  1  0.10798600  0.82170900  0.44516400  1
  O  O36  1  0.76816900  0.06920400  0.78761700  1
  O  O37  1  0.23183100  0.93079600  0.21238300  1
  O  O38  1  0.93079600  0.23183100  0.71238300  1
  O  O39  1  0.06920400  0.76816900  0.28761700  1
loop_
_geom_bond_atom_site_label_1
_geom_bond_atom_site_label_2
_geom_bond_distance
_geom_bond_site_symmetry_2
Dy0 O24 2.227821 1_565
Dy0 O10 2.286126 1_655
Dy0 O15 2.287906 1_556
Dy0 O36 2.295062 1_565
Dy0 O32 2.343966 1_565
Dy0 O6 2.352174 1_555
Dy0 O30 2.549908 1_655
Dy0 O2 2.589193 1_555
Dy1 O25 2.227821 1_545
Dy1 O11 2.286126 1_455
Dy1 O14 2.287906 1_554
Dy1 O37 2.295062 1_545
Dy1 O33 2.343966 1_545
Dy1 O7 2.352174 1_555
Dy1 O31 2.549908 1_455
Dy1 O3 2.589193 1_555
Dy2 O26 2.227821 1_455
Dy2 O8 2.286126 1_545
Dy2 O13 2.287906 1_555
Dy2 O38 2.295062 1_455
Dy2 O34 2.343966 1_455
Dy2 O4 2.352174 1_555
Dy2 O28 2.549908 1_545
Dy2 O0 2.589193 1_555
Dy3 O27 2.227821 1_655
Dy3 O9 2.286126 1_565
Dy3 O12 2.287906 1_555
Dy3 O39 2.295062 1_655
Dy3 O35 2.343966 1_655
Dy3 O5 2.352174 1_555
Dy3 O29 2.549908 1_565
Dy3 O1 2.589193 1_555
O8 S0 1.493252 1_555
O9 S1 1.493252 1_555
O10 S2 1.493252 1_555
O11 S3 1.493252 1_555
O12 S0 1.484753 1_555
O13 S1 1.484753 1_555
O14 S2 1.484753 1_555
O15 S3 1.484753 1_555
O16 S4 1.504504 1_555
O17 S5 1.504504 1_555
O18 S4 1.504504 1_555
O19 S5 1.504504 1_555
O20 S0 1.481016 1_555
O21 S1 1.481016 1_555
O22 S2 1.481016 1_555
O23 S3 1.481016 1_555
O24 S2 1.492020 1_555
O25 S3 1.492020 1_555
O26 S0 1.492020 1_555
O27 S1 1.492020 1_555
O36 S4 1.487657 1_555
O37 S5 1.487657 1_555
O38 S4 1.487657 1_555
O39 S5 1.487657 1_555
