# generated using pymatgen
data_Y3Si6N11
_symmetry_space_group_name_H-M   'P 1'
_cell_length_a   9.90037716
_cell_length_b   9.90037716
_cell_length_c   4.85122253
_cell_angle_alpha   90.00000000
_cell_angle_beta   90.00000000
_cell_angle_gamma   90.00000000
_symmetry_Int_Tables_number   1
_chemical_formula_structural   Y3Si6N11
_chemical_formula_sum   'Y6 Si12 N22'
_cell_volume   475.50454866
_cell_formula_units_Z   2
loop_
 _symmetry_equiv_pos_site_id
 _symmetry_equiv_pos_as_xyz
  1  'x, y, z'
loop_
 _atom_site_type_symbol
 _atom_site_label
 _atom_site_symmetry_multiplicity
 _atom_site_fract_x
 _atom_site_fract_y
 _atom_site_fract_z
 _atom_site_occupancy
  Y  Y0  1  0.31747607  0.81747607  0.98735538  1
  Y  Y1  1  0.68252393  0.18252393  0.98735538  1
  Y  Y2  1  0.18252393  0.31747607  0.98735538  1
  Y  Y3  1  0.81747607  0.68252393  0.98735538  1
  Y  Y4  1  0.50000000  0.50000000  0.97504265  1
  Y  Y5  1  0.00000000  0.00000000  0.97504265  1
  Si  Si0  1  0.42012415  0.29179305  0.53266990  1
  Si  Si1  1  0.57987585  0.70820695  0.53266990  1
  Si  Si2  1  0.07987585  0.79179305  0.53266990  1
  Si  Si3  1  0.92012415  0.20820695  0.53266990  1
  Si  Si4  1  0.29179305  0.57987585  0.53266990  1
  Si  Si5  1  0.70820695  0.42012415  0.53266990  1
  Si  Si6  1  0.79179305  0.92012415  0.53266990  1
  Si  Si7  1  0.20820695  0.07987585  0.53266990  1
  Si  Si8  1  0.88088808  0.38088808  0.04449714  1
  Si  Si9  1  0.11911192  0.61911192  0.04449714  1
  Si  Si10  1  0.61911192  0.88088808  0.04449714  1
  Si  Si11  1  0.38088808  0.11911192  0.04449714  1
  N  N0  1  0.31877212  0.42080997  0.65433507  1
  N  N1  1  0.68122788  0.57919003  0.65433507  1
  N  N2  1  0.18122788  0.92080997  0.65433507  1
  N  N3  1  0.81877212  0.07919003  0.65433507  1
  N  N4  1  0.42080997  0.68122788  0.65433507  1
  N  N5  1  0.57919003  0.31877212  0.65433507  1
  N  N6  1  0.92080997  0.81877212  0.65433507  1
  N  N7  1  0.07919003  0.18122788  0.65433507  1
  N  N8  1  0.42094596  0.27643013  0.17839612  1
  N  N9  1  0.57905404  0.72356987  0.17839612  1
  N  N10  1  0.07905404  0.77643013  0.17839612  1
  N  N11  1  0.92094596  0.22356987  0.17839612  1
  N  N12  1  0.27643013  0.57905404  0.17839612  1
  N  N13  1  0.72356987  0.42094596  0.17839612  1
  N  N14  1  0.77643013  0.92094596  0.17839612  1
  N  N15  1  0.22356987  0.07905404  0.17839612  1
  N  N16  1  0.84748222  0.34748222  0.69655714  1
  N  N17  1  0.15251778  0.65251778  0.69655714  1
  N  N18  1  0.65251778  0.84748222  0.69655714  1
  N  N19  1  0.34748222  0.15251778  0.69655714  1
  N  N20  1  0.50000000  0.00000000  0.07507365  1
  N  N21  1  0.00000000  0.50000000  0.07507365  1
loop_
_geom_bond_atom_site_label_1
_geom_bond_atom_site_label_2
_geom_bond_distance
_geom_bond_site_symmetry_2
N0 Si4 1.702863 1_555
N0 Si0 1.728225 1_555
N0 Y2 2.340127 1_555
N0 Y4 2.500900 1_555
N1 Si5 1.702863 1_555
N1 Si1 1.728225 1_555
N1 Y3 2.340127 1_555
N1 Y4 2.500900 1_555
N2 Si7 1.702863 1_565
N2 Si2 1.728225 1_555
N2 Y0 2.340127 1_555
N2 Y5 2.500900 1_565
N3 Si6 1.702863 1_545
N3 Si3 1.728225 1_555
N3 Y1 2.340127 1_555
N3 Y5 2.500900 1_655
N4 Si1 1.702863 1_555
N4 Si4 1.728225 1_555
N4 Y0 2.340127 1_555
N4 Y4 2.500900 1_555
N5 Si0 1.702863 1_555
N5 Si5 1.728225 1_555
N5 Y1 2.340127 1_555
N5 Y4 2.500900 1_555
N6 Si2 1.702863 1_655
N6 Si6 1.728225 1_555
N6 Y3 2.340127 1_555
N6 Y5 2.500900 1_665
N7 Si3 1.702863 1_455
N7 Si7 1.728225 1_555
N7 Y2 2.340127 1_555
N7 Y5 2.500900 1_555
N8 Si0 1.725397 1_555
N8 Si11 1.733512 1_555
N8 Y4 2.546572 1_554
N8 Y2 2.568242 1_554
N8 Y1 2.903434 1_554
N9 Si1 1.725397 1_555
N9 Si10 1.733512 1_555
N9 Y4 2.546572 1_554
N9 Y3 2.568242 1_554
N9 Y0 2.903434 1_554
N10 Si2 1.725397 1_555
N10 Si9 1.733512 1_555
N10 Y5 2.546572 1_564
N10 Y0 2.568242 1_554
N10 Y3 2.903434 1_454
N11 Si3 1.725397 1_555
N11 Si8 1.733512 1_555
N11 Y5 2.546572 1_654
N11 Y1 2.568242 1_554
N11 Y2 2.903434 1_654
N12 Si4 1.725397 1_555
N12 Si9 1.733512 1_555
N12 Y4 2.546572 1_554
N12 Y0 2.568242 1_554
N12 Y2 2.903434 1_554
N13 Si5 1.725397 1_555
N13 Si8 1.733512 1_555
N13 Y4 2.546572 1_554
N13 Y1 2.568242 1_554
N13 Y3 2.903434 1_554
N14 Si6 1.725397 1_555
N14 Si10 1.733512 1_555
N14 Y5 2.546572 1_664
N14 Y3 2.568242 1_554
N14 Y1 2.903434 1_564
N15 Si7 1.725397 1_555
N15 Si11 1.733512 1_555
N15 Y5 2.546572 1_554
N15 Y2 2.568242 1_554
N15 Y0 2.903434 1_544
N16 Si3 1.746607 1_555
N16 Si5 1.746607 1_555
N16 Si8 1.751539 1_556
N16 Y1 2.706382 1_555
N17 Si2 1.746607 1_555
N17 Si4 1.746607 1_555
N17 Si9 1.751539 1_556
N17 Y0 2.706382 1_555
N18 Si6 1.746607 1_555
N18 Si1 1.746607 1_555
N18 Si10 1.751539 1_556
N18 Y3 2.706382 1_555
N19 Si0 1.746607 1_555
N19 Si7 1.746607 1_555
N19 Si11 1.751539 1_556
N19 Y2 2.706382 1_555
N20 Si10 1.674299 1_545
N20 Si11 1.674299 1_555
N20 Y0 2.590750 1_544
N20 Y1 2.590750 1_554
N21 Si8 1.674299 1_455
N21 Si9 1.674299 1_555
N21 Y3 2.590750 1_454
N21 Y2 2.590750 1_554
