# generated using pymatgen
data_Cu3Ag3(PS4)2
_symmetry_space_group_name_H-M   'P 1'
_cell_length_a   6.26054981
_cell_length_b   6.35123772
_cell_length_c   7.69943952
_cell_angle_alpha   89.54133114
_cell_angle_beta   89.65000586
_cell_angle_gamma   89.52383945
_symmetry_Int_Tables_number   1
_chemical_formula_structural   Cu3Ag3(PS4)2
_chemical_formula_sum   'Cu3 Ag3 P2 S8'
_cell_volume   306.12099281
_cell_formula_units_Z   1
loop_
 _symmetry_equiv_pos_site_id
 _symmetry_equiv_pos_as_xyz
  1  'x, y, z'
loop_
 _atom_site_type_symbol
 _atom_site_label
 _atom_site_symmetry_multiplicity
 _atom_site_fract_x
 _atom_site_fract_y
 _atom_site_fract_z
 _atom_site_occupancy
  Cu  Cu0  1  0.50513385  0.68050449  0.74971166  1
  Cu  Cu1  1  0.50382741  0.69854642  0.25137368  1
  Cu  Cu2  1  0.01440377  0.32846411  0.74987197  1
  Ag  Ag0  1  0.02138318  0.31250955  0.24470750  1
  Ag  Ag1  1  0.01337676  0.84039994  0.50424564  1
  Ag  Ag2  1  0.49802450  0.13677418  0.99549619  1
  P  P0  1  0.50683127  0.18750829  0.50545576  1
  P  P1  1  0.99333779  0.81432691  0.99577727  1
  S  S0  1  0.41313696  0.87170189  0.50340796  1
  S  S1  1  0.90316148  0.12503737  0.97933210  1
  S  S2  1  0.83243162  0.20312706  0.51838844  1
  S  S3  1  0.32500257  0.77450103  0.99938242  1
  S  S4  1  0.87072228  0.65742724  0.78230480  1
  S  S5  1  0.86679748  0.68687061  0.21971971  1
  S  S6  1  0.37498677  0.34072102  0.71971767  1
  S  S7  1  0.41344231  0.34157886  0.28110623  1
loop_
_geom_bond_atom_site_label_1
_geom_bond_atom_site_label_2
_geom_bond_distance
_geom_bond_site_symmetry_2
Cu0 S3 2.303082 1_555
Cu0 S4 2.307346 1_555
Cu0 S0 2.316792 1_555
Cu0 S6 2.326775 1_555
Cu1 S5 2.284598 1_555
Cu1 S3 2.291944 1_554
Cu1 S0 2.303861 1_555
Cu1 S7 2.350355 1_555
Cu2 S6 2.269860 1_555
Cu2 S2 2.273925 1_455
Cu2 S4 2.282793 1_455
Cu2 S1 2.288881 1_455
Ag0 S7 2.480724 1_555
Ag0 S1 2.492474 1_454
Ag0 S2 2.506391 1_455
Ag0 S5 2.565850 1_455
Ag1 S0 2.512214 1_555
Ag1 S2 2.561562 1_465
Ag1 S5 2.581800 1_455
Ag1 S4 2.585655 1_455
Ag2 S1 2.539177 1_555
Ag2 S3 2.551124 1_545
Ag2 S6 2.595980 1_555
Ag2 S7 2.613097 1_556
P0 S2 2.044745 1_555
P0 S7 2.063718 1_555
P0 S6 2.084571 1_555
P0 S0 2.094654 1_545
P1 S1 2.051195 1_565
P1 S5 2.056088 1_556
P1 S4 2.082818 1_555
P1 S3 2.089992 1_655
