# generated using pymatgen
data_Nd4Mg7Ge6
_symmetry_space_group_name_H-M   'P 1'
_cell_length_a   8.62331167
_cell_length_b   8.62331167
_cell_length_c   12.51698698
_cell_angle_alpha   58.81522492
_cell_angle_beta   58.81522492
_cell_angle_gamma   29.63535683
_symmetry_Int_Tables_number   1
_chemical_formula_structural   Nd4Mg7Ge6
_chemical_formula_sum   'Nd4 Mg7 Ge6'
_cell_volume   388.66601318
_cell_formula_units_Z   1
loop_
 _symmetry_equiv_pos_site_id
 _symmetry_equiv_pos_as_xyz
  1  'x, y, z'
loop_
 _atom_site_type_symbol
 _atom_site_label
 _atom_site_symmetry_multiplicity
 _atom_site_fract_x
 _atom_site_fract_y
 _atom_site_fract_z
 _atom_site_occupancy
  Nd  Nd0  1  0.26700826  0.26700826  0.61326453  1
  Nd  Nd1  1  0.73299174  0.73299174  0.38673547  1
  Nd  Nd2  1  0.36998611  0.36998611  0.84071069  1
  Nd  Nd3  1  0.63001389  0.63001389  0.15928931  1
  Mg  Mg0  1  0.04015353  0.04015353  0.86076569  1
  Mg  Mg1  1  0.95984647  0.95984647  0.13923431  1
  Mg  Mg2  1  0.06209958  0.06209958  0.60350783  1
  Mg  Mg3  1  0.93790042  0.93790042  0.39649217  1
  Mg  Mg4  1  0.68989177  0.68989177  0.84541904  1
  Mg  Mg5  1  0.31010823  0.31010823  0.15458096  1
  Mg  Mg6  1  0.50000000  0.50000000  0.50000000  1
  Ge  Ge0  1  0.12014637  0.12014637  0.34834901  1
  Ge  Ge1  1  0.87985363  0.87985363  0.65165099  1
  Ge  Ge2  1  0.14852344  0.14852344  0.97498933  1
  Ge  Ge3  1  0.85147656  0.85147656  0.02501067  1
  Ge  Ge4  1  0.60840536  0.60840536  0.68845643  1
  Ge  Ge5  1  0.39159464  0.39159464  0.31154357  1
loop_
_geom_bond_atom_site_label_1
_geom_bond_atom_site_label_2
_geom_bond_distance
_geom_bond_site_symmetry_2
Ge0 Mg3 2.763102 1_445
Ge0 Mg5 2.772192 1_555
Ge0 Mg2 2.797492 1_555
Ge0 Mg6 2.899367 1_545
Ge0 Mg6 2.899367 1_455
Ge0 Nd1 3.098847 1_545
Ge0 Nd1 3.098847 1_455
Ge0 Nd3 3.173916 1_545
Ge0 Nd3 3.173916 1_455
Ge1 Mg2 2.763102 1_665
Ge1 Mg4 2.772192 1_555
Ge1 Mg3 2.797492 1_555
Ge1 Mg6 2.899367 1_565
Ge1 Mg6 2.899367 1_655
Ge1 Nd0 3.098847 1_565
Ge1 Nd0 3.098847 1_655
Ge1 Nd2 3.173916 1_655
Ge1 Nd2 3.173916 1_565
Ge2 Mg4 2.602187 1_455
Ge2 Mg4 2.602187 1_545
Ge2 Mg1 2.682307 1_446
Ge2 Mg0 2.841868 1_555
Ge2 Nd3 3.085112 1_546
Ge2 Nd3 3.085112 1_456
Ge2 Nd2 3.132264 1_555
Ge3 Mg5 2.602187 1_655
Ge3 Mg5 2.602187 1_565
Ge3 Mg0 2.682307 1_664
Ge3 Mg1 2.841868 1_555
Ge3 Nd2 3.085112 1_654
Ge3 Nd2 3.085112 1_564
Ge3 Nd3 3.132264 1_555
Ge4 Mg2 2.733075 1_565
Ge4 Mg2 2.733075 1_655
Ge4 Mg0 2.860275 1_565
Ge4 Mg0 2.860275 1_655
Ge4 Mg4 2.926658 1_555
Ge4 Nd0 3.174297 1_655
Ge4 Nd0 3.174297 1_565
Ge4 Nd1 3.189700 1_555
Ge4 Nd2 3.364325 1_555
Ge5 Mg3 2.733075 1_545
Ge5 Mg3 2.733075 1_455
Ge5 Mg1 2.860275 1_455
Ge5 Mg1 2.860275 1_545
Ge5 Mg5 2.926658 1_555
Ge5 Nd1 3.174297 1_455
Ge5 Nd1 3.174297 1_545
Ge5 Nd0 3.189700 1_555
Ge5 Nd3 3.364325 1_555
