# generated using pymatgen
data_BaSrErCu3O7
_symmetry_space_group_name_H-M   'P 1'
_cell_length_a   3.78149400
_cell_length_b   3.89942700
_cell_length_c   11.66169100
_cell_angle_alpha   90.00000000
_cell_angle_beta   90.00000000
_cell_angle_gamma   90.00000000
_symmetry_Int_Tables_number   1
_chemical_formula_structural   BaSrErCu3O7
_chemical_formula_sum   'Ba1 Sr1 Er1 Cu3 O7'
_cell_volume   171.95932822
_cell_formula_units_Z   1
loop_
 _symmetry_equiv_pos_site_id
 _symmetry_equiv_pos_as_xyz
  1  'x, y, z'
loop_
 _atom_site_type_symbol
 _atom_site_label
 _atom_site_symmetry_multiplicity
 _atom_site_fract_x
 _atom_site_fract_y
 _atom_site_fract_z
 _atom_site_occupancy
  Ba  Ba0  1  0.50000000  0.50000000  0.17980800  1
  Sr  Sr0  1  0.50000000  0.50000000  0.82057700  1
  Er  Er0  1  0.50000000  0.50000000  0.50290200  1
  Cu  Cu0  1  0.00000000  0.00000000  0.35530800  1
  Cu  Cu1  1  0.00000000  0.00000000  0.65057700  1
  Cu  Cu2  1  0.00000000  0.00000000  0.99649600  1
  O  O0  1  0.00000000  0.00000000  0.15769500  1
  O  O1  1  0.00000000  0.00000000  0.83512800  1
  O  O2  1  0.50000000  0.00000000  0.38325400  1
  O  O3  1  0.50000000  0.00000000  0.62168800  1
  O  O4  1  0.00000000  0.50000000  0.38086500  1
  O  O5  1  0.00000000  0.50000000  0.62552500  1
  O  O6  1  0.00000000  0.50000000  0.99017700  1
loop_
_geom_bond_atom_site_label_1
_geom_bond_atom_site_label_2
_geom_bond_distance
_geom_bond_site_symmetry_2
Ba0 O0 2.728151 1_565
Ba0 O0 2.728151 1_665
Ba0 O0 2.728151 1_655
Ba0 O0 2.728151 1_555
Ba0 O6 2.909518 1_554
Ba0 O6 2.909518 1_654
Ba0 O4 3.012039 1_655
Ba0 O4 3.012039 1_555
Ba0 O2 3.070872 1_555
Ba0 O2 3.070872 1_565
Er0 O4 2.366496 1_555
Er0 O4 2.366496 1_655
Er0 O5 2.370612 1_655
Er0 O5 2.370612 1_555
Er0 O3 2.391712 1_555
Er0 O3 2.391712 1_565
Er0 O2 2.397549 1_565
Er0 O2 2.397549 1_555
Cu0 O2 1.918628 1_455
Cu0 O2 1.918628 1_555
Cu0 O4 1.972361 1_545
Cu0 O4 1.972361 1_555
Cu0 O0 2.304502 1_555
Cu1 O3 1.920527 1_555
Cu1 O3 1.920527 1_455
Cu1 O5 1.971480 1_545
Cu1 O5 1.971480 1_555
Cu1 O1 2.152177 1_555
Cu2 O0 1.879853 1_556
Cu2 O1 1.881824 1_555
Cu2 O6 1.951106 1_555
Cu2 O6 1.951106 1_545
O1 Sr0 2.721232 1_545
O1 Sr0 2.721232 1_455
O1 Sr0 2.721232 1_555
O1 Sr0 2.721232 1_445
O3 Sr0 3.030003 1_555
O3 Sr0 3.030003 1_545
O5 Sr0 2.957853 1_555
O5 Sr0 2.957853 1_455
O6 Sr0 2.736185 1_455
O6 Sr0 2.736185 1_555
