# generated using pymatgen
data_KCaMg14
_symmetry_space_group_name_H-M   'P 1'
_cell_length_a   6.67158523
_cell_length_b   6.48878837
_cell_length_c   10.66059546
_cell_angle_alpha   90.00000000
_cell_angle_beta   90.00000000
_cell_angle_gamma   119.09770830
_symmetry_Int_Tables_number   1
_chemical_formula_structural   KCaMg14
_chemical_formula_sum   'K1 Ca1 Mg14'
_cell_volume   403.25709247
_cell_formula_units_Z   1
loop_
 _symmetry_equiv_pos_site_id
 _symmetry_equiv_pos_as_xyz
  1  'x, y, z'
loop_
 _atom_site_type_symbol
 _atom_site_label
 _atom_site_symmetry_multiplicity
 _atom_site_fract_x
 _atom_site_fract_y
 _atom_site_fract_z
 _atom_site_occupancy
  K  K0  1  0.16483852  0.83241876  0.12500000  1
  Ca  Ca0  1  0.17187589  0.33593745  0.12500000  1
  Mg  Mg0  1  0.15756148  0.32878025  0.62500000  1
  Mg  Mg1  1  0.15940287  0.82970094  0.62500000  1
  Mg  Mg2  1  0.66399653  0.33003285  0.12500000  1
  Mg  Mg3  1  0.66765167  0.33235952  0.62500000  1
  Mg  Mg4  1  0.66399653  0.83396269  0.12500000  1
  Mg  Mg5  1  0.66765167  0.83529116  0.62500000  1
  Mg  Mg6  1  0.34430243  0.17500228  0.39337437  1
  Mg  Mg7  1  0.34430243  0.17500228  0.85662563  1
  Mg  Mg8  1  0.34430243  0.66930116  0.39337437  1
  Mg  Mg9  1  0.34430243  0.66930116  0.85662563  1
  Mg  Mg10  1  0.82713613  0.16356857  0.37726811  1
  Mg  Mg11  1  0.82713613  0.16356857  0.87273189  1
  Mg  Mg12  1  0.82577140  0.66288620  0.38289847  1
  Mg  Mg13  1  0.82577140  0.66288620  0.86710153  1
loop_
_geom_bond_atom_site_label_1
_geom_bond_atom_site_label_2
_geom_bond_distance
_geom_bond_site_symmetry_2
K0 Mg2 3.325315 1_565
K0 Mg4 3.325315 1_555
K0 Mg2 3.346293 1_455
K0 Mg4 3.346293 1_455
K0 Mg12 3.386141 1_455
K0 Mg13 3.386141 1_454
K0 Mg9 3.460041 1_554
K0 Mg8 3.460041 1_555
K0 Mg7 3.460047 1_564
K0 Mg6 3.460047 1_565
Ca0 K0 3.244654 1_555
Ca0 K0 3.244654 1_545
Ca0 Mg4 3.302026 1_555
Ca0 Mg2 3.302026 1_555
Ca0 Mg10 3.357280 1_455
Ca0 Mg11 3.357280 1_454
Ca0 Mg4 3.369894 1_445
Ca0 Mg2 3.369895 1_455
Ca0 Mg7 3.430409 1_554
Ca0 Mg6 3.430409 1_555
Ca0 Mg8 3.430415 1_555
Ca0 Mg9 3.430415 1_554
Mg0 Mg6 3.139142 1_555
Mg0 Mg7 3.139142 1_555
Mg0 Mg8 3.139148 1_555
Mg0 Mg9 3.139148 1_555
Mg0 Mg1 3.244412 1_555
Mg0 Mg1 3.244412 1_545
Mg0 Mg10 3.268810 1_455
Mg0 Mg11 3.268810 1_455
Mg0 Mg5 3.279832 1_445
Mg0 Mg3 3.279832 1_455
Mg0 Mg5 3.391876 1_555
Mg0 Mg3 3.391876 1_555
Mg1 Mg8 3.154516 1_555
Mg1 Mg9 3.154516 1_555
Mg1 Mg7 3.154523 1_565
Mg1 Mg6 3.154523 1_565
Mg1 Mg12 3.231724 1_455
Mg1 Mg13 3.231724 1_455
Mg1 Mg3 3.298552 1_455
Mg1 Mg5 3.298552 1_455
Mg1 Mg3 3.373334 1_565
Mg1 Mg5 3.373334 1_555
Mg2 Mg4 3.218894 1_545
Mg2 Mg4 3.269894 1_555
Mg2 Mg7 3.414642 1_554
Mg2 Mg6 3.414642 1_555
Mg3 Mg6 3.106646 1_555
Mg3 Mg7 3.106646 1_555
Mg3 Mg5 3.225371 1_545
Mg3 Mg5 3.263417 1_555
Mg4 Mg9 3.414642 1_554
Mg4 Mg8 3.414642 1_555
Mg5 Mg8 3.106646 1_555
Mg5 Mg9 3.106646 1_555
Mg6 Mg8 3.207401 1_555
Mg6 Mg8 3.281388 1_545
Mg7 Mg9 3.207401 1_555
Mg7 Mg9 3.281388 1_545
Mg10 Mg3 3.231075 1_555
Mg10 Mg5 3.231081 1_545
Mg10 Mg12 3.244959 1_555
Mg10 Mg12 3.244959 1_545
Mg10 Mg8 3.262511 1_545
Mg10 Mg6 3.262512 1_555
Mg10 Mg2 3.275249 1_555
Mg10 Mg4 3.275255 1_545
Mg10 Mg8 3.419169 1_655
Mg10 Mg6 3.419169 1_655
Mg11 Mg3 3.231075 1_555
Mg11 Mg5 3.231081 1_545
Mg11 Mg13 3.244959 1_555
Mg11 Mg13 3.244959 1_545
Mg11 Mg9 3.262511 1_545
Mg11 Mg7 3.262512 1_555
Mg11 Mg2 3.275249 1_556
Mg11 Mg4 3.275255 1_546
Mg11 Mg9 3.419169 1_655
Mg11 Mg7 3.419169 1_655
Mg12 Mg5 3.189576 1_555
Mg12 Mg3 3.189583 1_555
Mg12 Mg6 3.234537 1_555
Mg12 Mg8 3.234537 1_555
Mg12 Mg4 3.334870 1_555
Mg12 Mg2 3.334877 1_555
Mg12 Mg6 3.441186 1_665
Mg12 Mg8 3.441187 1_655
Mg13 Mg5 3.189576 1_555
Mg13 Mg3 3.189583 1_555
Mg13 Mg7 3.234537 1_555
Mg13 Mg9 3.234537 1_555
Mg13 Mg4 3.334870 1_556
Mg13 Mg2 3.334877 1_556
Mg13 Mg7 3.441186 1_665
Mg13 Mg9 3.441187 1_655
