# generated using pymatgen
data_NaCaAlF6
_symmetry_space_group_name_H-M   'P 1'
_cell_length_a   8.87635163
_cell_length_b   8.87635137
_cell_length_c   5.03968594
_cell_angle_alpha   90.00000000
_cell_angle_beta   90.00000000
_cell_angle_gamma   120.00000101
_symmetry_Int_Tables_number   1
_chemical_formula_structural   NaCaAlF6
_chemical_formula_sum   'Na3 Ca3 Al3 F18'
_cell_volume   343.87696414
_cell_formula_units_Z   3
loop_
 _symmetry_equiv_pos_site_id
 _symmetry_equiv_pos_as_xyz
  1  'x, y, z'
loop_
 _atom_site_type_symbol
 _atom_site_label
 _atom_site_symmetry_multiplicity
 _atom_site_fract_x
 _atom_site_fract_y
 _atom_site_fract_z
 _atom_site_occupancy
  Na  Na0  1  -0.00000000  0.71214011  0.50000000  1
  Na  Na1  1  0.71214011  0.00000000  0.50000000  1
  Na  Na2  1  0.28785989  0.28785989  0.50000000  1
  Ca  Ca0  1  0.62812972  0.62812972  -0.00000000  1
  Ca  Ca1  1  -0.00000000  0.37187028  -0.00000000  1
  Ca  Ca2  1  0.37187028  0.00000000  -0.00000000  1
  Al  Al0  1  0.66666700  0.33333300  0.50126769  1
  Al  Al1  1  0.33333300  0.66666700  0.49873231  1
  Al  Al2  1  0.00000000  0.00000000  -0.00000000  1
  F  F0  1  0.77539804  0.25061494  0.29414840  1
  F  F1  1  0.74938506  0.52478410  0.29414840  1
  F  F2  1  0.47521690  0.22460196  0.29414840  1
  F  F3  1  0.52478410  0.74938506  0.70585160  1
  F  F4  1  0.22460196  0.47521690  0.70585160  1
  F  F5  1  0.25061494  0.77539804  0.70585160  1
  F  F6  1  0.40874054  0.55165025  0.29075282  1
  F  F7  1  0.44834975  0.85708829  0.29075282  1
  F  F8  1  0.14291171  0.59125946  0.29075282  1
  F  F9  1  0.91413005  0.10824070  0.79864459  1
  F  F10  1  0.89175930  0.80588935  0.79864459  1
  F  F11  1  0.19411065  0.08586995  0.79864459  1
  F  F12  1  0.80588935  0.89175930  0.20135541  1
  F  F13  1  0.08586995  0.19411065  0.20135541  1
  F  F14  1  0.10824070  0.91413005  0.20135541  1
  F  F15  1  0.55165025  0.40874054  0.70924718  1
  F  F16  1  0.59125946  0.14291171  0.70924718  1
  F  F17  1  0.85708829  0.44834975  0.70924718  1
loop_
_geom_bond_atom_site_label_1
_geom_bond_atom_site_label_2
_geom_bond_distance
_geom_bond_site_symmetry_2
Ca0 F15 2.253495 1_554
Ca0 F6 2.253495 1_555
Ca0 F3 2.277019 1_554
Ca0 F1 2.277019 1_555
Ca0 F12 2.302828 1_555
Ca0 F10 2.302828 1_554
Ca1 F8 2.253497 1_555
Ca1 F17 2.253508 1_454
Ca1 F0 2.277025 1_455
Ca1 F4 2.277025 1_554
Ca1 F9 2.302828 1_454
Ca1 F13 2.302828 1_555
Ca2 F16 2.253497 1_554
Ca2 F7 2.253508 1_545
Ca2 F5 2.277025 1_544
Ca2 F2 2.277025 1_555
Ca2 F14 2.302828 1_545
Ca2 F11 2.302828 1_554
Al0 F0 1.807975 1_555
Al0 F2 1.807981 1_555
Al0 F1 1.807988 1_555
Al0 F16 1.808928 1_555
Al0 F17 1.808930 1_555
Al0 F15 1.808948 1_555
Al1 F5 1.807975 1_555
Al1 F4 1.807981 1_555
Al1 F3 1.807988 1_555
Al1 F8 1.808928 1_555
Al1 F7 1.808930 1_555
Al1 F6 1.808948 1_555
Al2 F10 1.807248 1_444
Al2 F13 1.807248 1_555
Al2 F12 1.807248 1_445
Al2 F9 1.807248 1_454
Al2 F11 1.807248 1_554
Al2 F14 1.807248 1_545
F0 Na1 2.256338 1_555
F1 Na0 2.256336 1_655
F2 Na2 2.256338 1_555
F3 Na1 2.256336 1_565
F4 Na2 2.256338 1_555
F5 Na0 2.256338 1_555
F6 Na2 2.287699 1_555
F7 Na1 2.287700 1_565
F8 Na0 2.287713 1_555
F9 Na1 2.163411 1_555
F10 Na0 2.163411 1_655
F11 Na2 2.163411 1_555
F12 Na1 2.163411 1_565
F13 Na2 2.163411 1_555
F14 Na0 2.163411 1_555
F15 Na2 2.287699 1_555
F16 Na1 2.287713 1_555
F17 Na0 2.287700 1_655
