# generated using pymatgen
data_Ba4Ti12O27
_symmetry_space_group_name_H-M   'P 1'
_cell_length_a   11.56919501
_cell_length_b   11.56919501
_cell_length_c   10.03618554
_cell_angle_alpha   73.63662822
_cell_angle_beta   73.63662822
_cell_angle_gamma   59.85512659
_symmetry_Int_Tables_number   1
_chemical_formula_structural   Ba4Ti12O27
_chemical_formula_sum   'Ba8 Ti24 O54'
_cell_volume   1098.54485268
_cell_formula_units_Z   2
loop_
 _symmetry_equiv_pos_site_id
 _symmetry_equiv_pos_as_xyz
  1  'x, y, z'
loop_
 _atom_site_type_symbol
 _atom_site_label
 _atom_site_symmetry_multiplicity
 _atom_site_fract_x
 _atom_site_fract_y
 _atom_site_fract_z
 _atom_site_occupancy
  Ba  Ba0  1  0.20460100  0.20460100  0.87364700  1
  Ba  Ba1  1  0.79539900  0.79539900  0.12635300  1
  Ba  Ba2  1  0.07623700  0.07623700  0.28889900  1
  Ba  Ba3  1  0.92376300  0.92376300  0.71110100  1
  Ba  Ba4  1  0.20981500  0.66054800  0.21542700  1
  Ba  Ba5  1  0.33945200  0.79018500  0.78457300  1
  Ba  Ba6  1  0.79018500  0.33945200  0.78457300  1
  Ba  Ba7  1  0.66054800  0.20981500  0.21542700  1
  Ti  Ti0  1  0.00000000  0.00000000  0.00000000  1
  Ti  Ti1  1  0.50000000  0.50000000  0.50000000  1
  Ti  Ti2  1  0.00000000  0.50000000  0.50000000  1
  Ti  Ti3  1  0.50000000  0.00000000  0.50000000  1
  Ti  Ti4  1  0.23023700  0.76976300  0.50000000  1
  Ti  Ti5  1  0.76976300  0.23023700  0.50000000  1
  Ti  Ti6  1  0.38667600  0.38667600  0.92168900  1
  Ti  Ti7  1  0.61332400  0.61332400  0.07831100  1
  Ti  Ti8  1  0.26352900  0.26352900  0.48330000  1
  Ti  Ti9  1  0.73647100  0.73647100  0.51670000  1
  Ti  Ti10  1  0.11111300  0.11111300  0.61058900  1
  Ti  Ti11  1  0.88888700  0.88888700  0.38941100  1
  Ti  Ti12  1  0.88038000  0.36332200  0.07784300  1
  Ti  Ti13  1  0.63667800  0.11962000  0.92215700  1
  Ti  Ti14  1  0.11962000  0.63667800  0.92215700  1
  Ti  Ti15  1  0.36332200  0.88038000  0.07784300  1
  Ti  Ti16  1  0.49093000  0.77027800  0.34146500  1
  Ti  Ti17  1  0.22972200  0.50907000  0.65853500  1
  Ti  Ti18  1  0.50907000  0.22972200  0.65853500  1
  Ti  Ti19  1  0.77027800  0.49093000  0.34146500  1
  Ti  Ti20  1  0.38739600  0.12048300  0.21437600  1
  Ti  Ti21  1  0.87951700  0.61260400  0.78562400  1
  Ti  Ti22  1  0.61260400  0.87951700  0.78562400  1
  Ti  Ti23  1  0.12048300  0.38739600  0.21437600  1
  O  O0  1  0.43284800  0.43284800  0.69385400  1
  O  O1  1  0.56715200  0.56715200  0.30614600  1
  O  O2  1  0.31371200  0.31371200  0.11101600  1
  O  O3  1  0.68628800  0.68628800  0.88898400  1
  O  O4  1  0.31628000  0.31628000  0.61497100  1
  O  O5  1  0.68372000  0.68372000  0.38502900  1
  O  O6  1  0.20536500  0.20536500  0.34390300  1
  O  O7  1  0.79463500  0.79463500  0.65609700  1
  O  O8  1  0.06874500  0.06874500  0.80043700  1
  O  O9  1  0.93125500  0.93125500  0.19956300  1
  O  O10  1  0.93499600  0.18524800  0.05172800  1
  O  O11  1  0.81475200  0.06500400  0.94827200  1
  O  O12  1  0.06500400  0.81475200  0.94827200  1
  O  O13  1  0.18524800  0.93499600  0.05172800  1
  O  O14  1  0.81953500  0.31284500  0.30147600  1
  O  O15  1  0.68715500  0.18046500  0.69852400  1
  O  O16  1  0.18046500  0.68715500  0.69852400  1
  O  O17  1  0.31284500  0.81953500  0.30147600  1
  O  O18  1  0.68964900  0.43328300  0.05681100  1
  O  O19  1  0.56671700  0.31035100  0.94318900  1
  O  O20  1  0.31035100  0.56671700  0.94318900  1
  O  O21  1  0.43328300  0.68964900  0.05681100  1
  O  O22  1  0.79319200  0.55004000  0.14187800  1
  O  O23  1  0.44996000  0.20680800  0.85812200  1
  O  O24  1  0.20680800  0.44996000  0.85812200  1
  O  O25  1  0.55004000  0.79319200  0.14187800  1
  O  O26  1  0.05319500  0.32207100  0.12374900  1
  O  O27  1  0.67792900  0.94680500  0.87625100  1
  O  O28  1  0.94680500  0.67792900  0.87625100  1
  O  O29  1  0.32207100  0.05319500  0.12374900  1
  O  O30  1  0.45234800  0.94448000  0.36068200  1
  O  O31  1  0.05552000  0.54765200  0.63931800  1
  O  O32  1  0.82625300  0.06331700  0.44040000  1
  O  O33  1  0.93668300  0.17374700  0.55960000  1
  O  O34  1  0.17374700  0.93668300  0.55960000  1
  O  O35  1  0.06331700  0.82625300  0.44040000  1
  O  O36  1  0.31064400  0.57157000  0.46913300  1
  O  O37  1  0.42843000  0.68935600  0.53086700  1
  O  O38  1  0.68935600  0.42843000  0.53086700  1
  O  O39  1  0.57157000  0.31064400  0.46913300  1
  O  O40  1  0.56671400  0.07653500  0.11302200  1
  O  O41  1  0.92346500  0.43328600  0.88697800  1
  O  O42  1  0.43328600  0.92346500  0.88697800  1
  O  O43  1  0.07653500  0.56671400  0.11302200  1
  O  O44  1  0.69517000  0.92379100  0.40423600  1
  O  O45  1  0.07620900  0.30483000  0.59576400  1
  O  O46  1  0.30483000  0.07620900  0.59576400  1
  O  O47  1  0.92379100  0.69517000  0.40423600  1
  O  O48  1  0.17660800  0.44074400  0.36936700  1
  O  O49  1  0.55925600  0.82339200  0.63063300  1
  O  O50  1  0.82339200  0.55925600  0.63063300  1
  O  O51  1  0.44074400  0.17660800  0.36936700  1
  O  O52  1  0.94448000  0.45234800  0.36068200  1
  O  O53  1  0.54765200  0.05552000  0.63931800  1
loop_
_geom_bond_atom_site_label_1
_geom_bond_atom_site_label_2
_geom_bond_distance
_geom_bond_site_symmetry_2
Ba0 O24 2.811398 1_555
Ba0 O23 2.811398 1_555
Ba0 O4 2.824046 1_555
Ba0 O29 2.875664 1_556
Ba0 O26 2.875664 1_556
Ba0 O42 2.984612 1_545
Ba0 O41 2.984612 1_455
Ba0 O8 3.043552 1_555
Ba0 O46 3.179768 1_555
Ba0 O45 3.179768 1_555
Ba0 O13 3.210631 1_546
Ba0 O10 3.210631 1_456
Ba1 O25 2.811398 1_555
Ba1 O22 2.811398 1_555
Ba1 O5 2.824046 1_555
Ba1 O27 2.875664 1_554
Ba1 O28 2.875664 1_554
Ba1 O40 2.984612 1_565
Ba1 O43 2.984612 1_655
Ba1 O9 3.043552 1_555
Ba1 O44 3.179768 1_555
Ba1 O47 3.179768 1_555
Ba1 O12 3.210631 1_654
Ba1 O11 3.210631 1_564
Ba2 O26 2.781820 1_555
Ba2 O29 2.781820 1_555
Ba2 O6 2.817645 1_555
Ba2 O14 2.854363 1_455
Ba2 O17 2.854363 1_545
Ba2 O13 2.890798 1_545
Ba2 O10 2.890798 1_455
Ba2 O35 2.920090 1_545
Ba2 O32 2.920090 1_455
Ba2 O33 2.947274 1_455
Ba2 O34 2.947274 1_545
Ba2 O9 3.309258 1_445
Ba3 O27 2.781820 1_555
Ba3 O28 2.781820 1_555
Ba3 O7 2.817645 1_555
Ba3 O15 2.854363 1_565
Ba3 O16 2.854363 1_655
Ba3 O11 2.890798 1_565
Ba3 O12 2.890798 1_655
Ba3 O33 2.920090 1_565
Ba3 O34 2.920090 1_655
Ba3 O32 2.947274 1_565
Ba3 O35 2.947274 1_655
Ba3 O8 3.309258 1_665
Ba4 O48 2.726579 1_555
Ba4 O21 2.754048 1_555
Ba4 O43 2.795565 1_555
Ba4 O36 2.809697 1_555
Ba4 O20 2.934073 1_554
Ba4 O35 2.943640 1_555
Ba4 O17 3.037587 1_555
Ba4 O13 3.046134 1_555
Ba4 O12 3.164226 1_554
Ba4 O9 3.176583 1_455
Ba4 O47 3.203812 1_455
Ba5 O49 2.726579 1_555
Ba5 O20 2.754048 1_555
Ba5 O42 2.795565 1_555
Ba5 O37 2.809697 1_555
Ba5 O21 2.934073 1_556
Ba5 O34 2.943640 1_555
Ba5 O16 3.037587 1_555
Ba5 O12 3.046134 1_555
Ba5 O13 3.164226 1_556
Ba5 O8 3.176583 1_565
Ba5 O46 3.203812 1_565
Ba6 O50 2.726579 1_555
Ba6 O19 2.754048 1_555
Ba6 O41 2.795565 1_555
Ba6 O38 2.809697 1_555
Ba6 O18 2.934073 1_556
Ba6 O33 2.943640 1_555
Ba6 O15 3.037587 1_555
Ba6 O11 3.046134 1_555
Ba6 O10 3.164226 1_556
Ba6 O8 3.176583 1_655
Ba6 O45 3.203812 1_655
Ba7 O51 2.726579 1_555
Ba7 O18 2.754048 1_555
Ba7 O40 2.795565 1_555
Ba7 O39 2.809697 1_555
Ba7 O19 2.934073 1_554
Ba7 O32 2.943640 1_555
Ba7 O14 3.037587 1_555
Ba7 O10 3.046134 1_555
Ba7 O11 3.164226 1_554
Ba7 O9 3.176583 1_545
Ba7 O44 3.203812 1_545
O0 Ti1 1.973627 1_555
O0 Ti17 2.153522 1_555
O0 Ti18 2.153522 1_555
O0 Ti6 2.170100 1_555
O1 Ti1 1.973627 1_555
O1 Ti19 2.153522 1_555
O1 Ti16 2.153522 1_555
O1 Ti7 2.170100 1_555
O2 Ti6 1.985887 1_554
O2 Ti20 2.019366 1_555
O2 Ti23 2.019366 1_555
O3 Ti7 1.985887 1_556
O3 Ti21 2.019366 1_555
O3 Ti22 2.019366 1_555
O4 Ti8 1.942706 1_555
O4 Ti18 2.056260 1_555
O4 Ti17 2.056260 1_555
O5 Ti9 1.942706 1_555
O5 Ti19 2.056260 1_555
O5 Ti16 2.056260 1_555
O6 Ti23 2.046680 1_555
O6 Ti20 2.046680 1_555
O6 Ti8 2.092495 1_555
O6 Ti10 2.728926 1_555
O7 Ti21 2.046680 1_555
O7 Ti22 2.046680 1_555
O7 Ti9 2.092495 1_555
O7 Ti11 2.728926 1_555
O8 Ti10 1.816516 1_555
O8 Ti0 2.028972 1_556
O9 Ti11 1.816516 1_555
O9 Ti0 2.028972 1_665
O10 Ti12 1.901511 1_555
O10 Ti0 2.053384 1_655
O11 Ti13 1.901511 1_555
O11 Ti0 2.053384 1_656
O12 Ti14 1.901511 1_555
O12 Ti0 2.053384 1_566
O13 Ti15 1.901511 1_555
O13 Ti0 2.053384 1_565
O14 Ti19 1.971919 1_555
O14 Ti5 2.011980 1_555
O14 Ti12 2.158269 1_555
O15 Ti18 1.971919 1_555
O15 Ti5 2.011980 1_555
O15 Ti13 2.158269 1_555
O16 Ti17 1.971919 1_555
O16 Ti4 2.011980 1_555
O16 Ti14 2.158269 1_555
O17 Ti16 1.971919 1_555
O17 Ti4 2.011980 1_555
O17 Ti15 2.158269 1_555
O18 Ti7 1.861034 1_555
O18 Ti12 1.985227 1_555
O19 Ti6 1.861034 1_555
O19 Ti13 1.985227 1_555
O20 Ti6 1.861034 1_555
O20 Ti14 1.985227 1_555
O21 Ti7 1.861034 1_555
O21 Ti15 1.985227 1_555
O22 Ti19 1.913467 1_555
O22 Ti7 2.056195 1_555
O22 Ti12 2.079741 1_555
O23 Ti18 1.913467 1_555
O23 Ti6 2.056195 1_555
O23 Ti13 2.079741 1_555
O24 Ti17 1.913467 1_555
O24 Ti6 2.056195 1_555
O24 Ti14 2.079741 1_555
O25 Ti16 1.913467 1_555
O25 Ti7 2.056195 1_555
O25 Ti15 2.079741 1_555
O26 Ti23 1.838926 1_555
O26 Ti12 1.968282 1_455
O27 Ti22 1.838926 1_555
O27 Ti13 1.968282 1_565
O28 Ti21 1.838926 1_555
O28 Ti14 1.968282 1_655
O29 Ti20 1.838926 1_555
O29 Ti15 1.968282 1_545
O30 Ti16 1.888164 1_555
O30 Ti3 1.991874 1_565
O30 Ti20 2.065706 1_565
O31 Ti17 1.888164 1_555
O31 Ti2 1.991874 1_555
O31 Ti21 2.065706 1_455
O32 Ti5 1.917593 1_555
O32 Ti11 1.939992 1_545
O33 Ti5 1.917593 1_555
O33 Ti10 1.939992 1_655
O34 Ti4 1.917593 1_555
O34 Ti10 1.939992 1_565
O35 Ti4 1.917593 1_555
O35 Ti11 1.939992 1_455
O36 Ti17 1.978726 1_555
O36 Ti1 1.999181 1_555
O36 Ti4 2.077114 1_555
O37 Ti16 1.978726 1_555
O37 Ti1 1.999181 1_555
O37 Ti4 2.077114 1_555
O38 Ti19 1.978726 1_555
O38 Ti1 1.999181 1_555
O38 Ti5 2.077114 1_555
O39 Ti18 1.978726 1_555
O39 Ti1 1.999181 1_555
O39 Ti5 2.077114 1_555
O40 Ti13 1.888539 1_554
O40 Ti20 1.907880 1_555
O41 Ti12 1.888539 1_556
O41 Ti21 1.907880 1_555
O42 Ti15 1.888539 1_556
O42 Ti22 1.907880 1_555
O43 Ti14 1.888539 1_554
O43 Ti23 1.907880 1_555
O44 Ti3 2.013614 1_565
O44 Ti9 2.020988 1_555
O44 Ti11 2.035917 1_555
O45 Ti2 2.013614 1_555
O45 Ti8 2.020988 1_555
O45 Ti10 2.035917 1_555
O46 Ti3 2.013614 1_555
O46 Ti8 2.020988 1_555
O46 Ti10 2.035917 1_555
O47 Ti2 2.013614 1_655
O47 Ti9 2.020988 1_555
O47 Ti11 2.035917 1_555
O48 Ti8 1.943811 1_555
O48 Ti2 1.988410 1_555
O48 Ti23 2.175948 1_555
O49 Ti9 1.943811 1_555
O49 Ti3 1.988410 1_565
O49 Ti22 2.175948 1_555
O50 Ti9 1.943811 1_555
O50 Ti2 1.988410 1_655
O50 Ti21 2.175948 1_555
O51 Ti8 1.943811 1_555
O51 Ti3 1.988410 1_555
O51 Ti20 2.175948 1_555
O52 Ti19 1.888164 1_555
O52 Ti2 1.991874 1_655
O52 Ti23 2.065706 1_655
O53 Ti18 1.888164 1_555
O53 Ti3 1.991874 1_555
O53 Ti22 2.065706 1_545
