# generated using pymatgen
data_Ce2MgS4
_symmetry_space_group_name_H-M   'P 1'
_cell_length_a   14.06618500
_cell_length_b   8.34107500
_cell_length_c   6.64134100
_cell_angle_alpha   90.00000000
_cell_angle_beta   90.00000000
_cell_angle_gamma   90.00000000
_symmetry_Int_Tables_number   1
_chemical_formula_structural   Ce2MgS4
_chemical_formula_sum   'Ce8 Mg4 S16'
_cell_volume   779.20930653
_cell_formula_units_Z   4
loop_
 _symmetry_equiv_pos_site_id
 _symmetry_equiv_pos_as_xyz
  1  'x, y, z'
loop_
 _atom_site_type_symbol
 _atom_site_label
 _atom_site_symmetry_multiplicity
 _atom_site_fract_x
 _atom_site_fract_y
 _atom_site_fract_z
 _atom_site_occupancy
  Ce  Ce0  1  0.00000000  0.00000000  0.50000000  1
  Ce  Ce1  1  0.50000000  0.00000000  0.00000000  1
  Ce  Ce2  1  0.50000000  0.50000000  0.00000000  1
  Ce  Ce3  1  0.00000000  0.50000000  0.50000000  1
  Ce  Ce4  1  0.23069000  0.75000000  0.99857500  1
  Ce  Ce5  1  0.76931000  0.25000000  0.00142500  1
  Ce  Ce6  1  0.26931000  0.25000000  0.49857500  1
  Ce  Ce7  1  0.73069000  0.75000000  0.50142500  1
  Mg  Mg0  1  0.09273000  0.25000000  0.92248800  1
  Mg  Mg1  1  0.90727000  0.75000000  0.07751200  1
  Mg  Mg2  1  0.40727000  0.75000000  0.42248800  1
  Mg  Mg3  1  0.59273000  0.25000000  0.57751200  1
  S  S0  1  0.16679000  0.01852100  0.74918400  1
  S  S1  1  0.83321000  0.98147900  0.25081600  1
  S  S2  1  0.33321000  0.98147900  0.24918400  1
  S  S3  1  0.66679000  0.01852100  0.75081600  1
  S  S4  1  0.66679000  0.48147900  0.75081600  1
  S  S5  1  0.33321000  0.51852100  0.24918400  1
  S  S6  1  0.83321000  0.51852100  0.25081600  1
  S  S7  1  0.16679000  0.48147900  0.74918400  1
  S  S8  1  0.06543600  0.75000000  0.24304600  1
  S  S9  1  0.93456400  0.25000000  0.75695400  1
  S  S10  1  0.43456400  0.25000000  0.74304600  1
  S  S11  1  0.56543600  0.75000000  0.25695400  1
  S  S12  1  0.09253900  0.25000000  0.28696700  1
  S  S13  1  0.90746100  0.75000000  0.71303300  1
  S  S14  1  0.40746100  0.75000000  0.78696700  1
  S  S15  1  0.59253900  0.25000000  0.21303300  1
loop_
_geom_bond_atom_site_label_1
_geom_bond_atom_site_label_2
_geom_bond_distance
_geom_bond_site_symmetry_2
Ce0 S13 2.836269 1_445
Ce0 S12 2.836269 1_555
Ce0 S9 2.847412 1_455
Ce0 S8 2.847412 1_545
Ce0 S1 2.875203 1_445
Ce0 S0 2.875203 1_555
Ce1 S15 2.836269 1_555
Ce1 S14 2.836269 1_544
Ce1 S11 2.847412 1_545
Ce1 S10 2.847412 1_554
Ce1 S2 2.875203 1_545
Ce1 S3 2.875203 1_554
Ce2 S15 2.836269 1_555
Ce2 S14 2.836269 1_554
Ce2 S11 2.847412 1_555
Ce2 S10 2.847412 1_554
Ce2 S5 2.875203 1_555
Ce2 S4 2.875203 1_554
Ce3 S13 2.836269 1_455
Ce3 S12 2.836269 1_555
Ce3 S9 2.847412 1_455
Ce3 S8 2.847412 1_555
Ce3 S6 2.875203 1_455
Ce3 S7 2.875203 1_555
Ce4 S8 2.835383 1_556
Ce4 S14 2.856167 1_555
Ce4 S7 2.927062 1_555
Ce4 S0 2.927062 1_565
Ce4 S5 2.928761 1_556
Ce4 S2 2.928761 1_556
Ce5 S9 2.835383 1_554
Ce5 S15 2.856167 1_555
Ce5 S1 2.927062 1_545
Ce5 S6 2.927062 1_555
Ce5 S4 2.928761 1_554
Ce5 S3 2.928761 1_554
Ce6 S10 2.835383 1_555
Ce6 S12 2.856167 1_555
Ce6 S5 2.927062 1_555
Ce6 S2 2.927062 1_545
Ce6 S0 2.928761 1_555
Ce6 S7 2.928761 1_555
Ce7 S11 2.835383 1_555
Ce7 S13 2.856167 1_555
Ce7 S4 2.927062 1_555
Ce7 S3 2.927062 1_565
Ce7 S6 2.928761 1_555
Ce7 S1 2.928761 1_555
Mg0 S12 2.420631 1_556
Mg0 S7 2.477476 1_555
Mg0 S0 2.477476 1_555
Mg0 S9 2.481594 1_455
Mg1 S13 2.420631 1_554
Mg1 S6 2.477476 1_555
Mg1 S1 2.477476 1_555
Mg1 S8 2.481594 1_655
Mg2 S14 2.420631 1_555
Mg2 S5 2.477476 1_555
Mg2 S2 2.477476 1_555
Mg2 S11 2.481594 1_555
Mg3 S15 2.420631 1_555
Mg3 S3 2.477476 1_555
Mg3 S4 2.477476 1_555
Mg3 S10 2.481594 1_555
