# generated using pymatgen
data_Ba5As3
_symmetry_space_group_name_H-M   'P 1'
_cell_length_a   9.54814115
_cell_length_b   9.54818993
_cell_length_c   7.75271094
_cell_angle_alpha   90.00000000
_cell_angle_beta   90.00000000
_cell_angle_gamma   120.00042248
_symmetry_Int_Tables_number   1
_chemical_formula_structural   Ba5As3
_chemical_formula_sum   'Ba10 As6'
_cell_volume   612.09982368
_cell_formula_units_Z   2
loop_
 _symmetry_equiv_pos_site_id
 _symmetry_equiv_pos_as_xyz
  1  'x, y, z'
loop_
 _atom_site_type_symbol
 _atom_site_label
 _atom_site_symmetry_multiplicity
 _atom_site_fract_x
 _atom_site_fract_y
 _atom_site_fract_z
 _atom_site_occupancy
  Ba  Ba0  1  0.00000100  0.25739591  0.75000000  1
  Ba  Ba1  1  0.99999900  0.74260409  0.25000000  1
  Ba  Ba2  1  0.25739691  0.25739691  0.25000000  1
  Ba  Ba3  1  0.25739691  0.00000100  0.75000000  1
  Ba  Ba4  1  0.74260309  0.74260309  0.75000000  1
  Ba  Ba5  1  0.74260409  0.99999900  0.25000000  1
  Ba  Ba6  1  0.33333300  0.66666700  0.50000000  1
  Ba  Ba7  1  0.66666700  0.33333300  0.00000000  1
  Ba  Ba8  1  0.66666700  0.33333300  0.50000000  1
  Ba  Ba9  1  0.33333300  0.66666700  -0.00000000  1
  As  As0  1  0.60765956  0.00000100  0.75000000  1
  As  As1  1  0.60765856  0.60765856  0.25000000  1
  As  As2  1  0.99999900  0.39234044  0.25000000  1
  As  As3  1  0.00000100  0.60765956  0.75000000  1
  As  As4  1  0.39234144  0.39234144  0.75000000  1
  As  As5  1  0.39234044  0.99999900  0.25000000  1
loop_
_geom_bond_atom_site_label_1
_geom_bond_atom_site_label_2
_geom_bond_distance
_geom_bond_site_symmetry_2
As0 Ba0 3.296476 1_655
As0 Ba4 3.296515 1_545
As0 Ba3 3.344357 1_555
As0 Ba9 3.522846 1_546
As0 Ba6 3.522846 1_545
As0 Ba8 3.522847 1_555
As0 Ba7 3.522847 1_556
As1 Ba1 3.296474 1_555
As1 Ba5 3.296493 1_555
As1 Ba2 3.344335 1_555
As1 Ba6 3.522854 1_555
As1 Ba9 3.522854 1_555
As1 Ba7 3.522864 1_555
As1 Ba8 3.522864 1_555
As2 Ba5 3.296488 1_545
As2 Ba2 3.296508 1_655
As2 Ba1 3.344384 1_555
As2 Ba7 3.522833 1_555
As2 Ba8 3.522833 1_555
As2 Ba9 3.522842 1_655
As2 Ba6 3.522842 1_655
As3 Ba3 3.296490 1_565
As3 Ba4 3.296508 1_455
As3 Ba0 3.344384 1_555
As3 Ba9 3.522833 1_556
As3 Ba6 3.522833 1_555
As3 Ba7 3.522842 1_456
As3 Ba8 3.522842 1_455
As4 Ba0 3.296474 1_555
As4 Ba3 3.296495 1_555
As4 Ba4 3.344335 1_555
As4 Ba7 3.522854 1_556
As4 Ba8 3.522854 1_555
As4 Ba6 3.522864 1_555
As4 Ba9 3.522864 1_556
As5 Ba1 3.296476 1_455
As5 Ba2 3.296515 1_565
As5 Ba5 3.344367 1_555
As5 Ba7 3.522846 1_565
As5 Ba8 3.522846 1_565
As5 Ba6 3.522847 1_555
As5 Ba9 3.522847 1_555
