# generated using pymatgen
data_NaMg30BO31
_symmetry_space_group_name_H-M   'P 1'
_cell_length_a   8.43320400
_cell_length_b   8.55545500
_cell_length_c   8.66678200
_cell_angle_alpha   90.00000000
_cell_angle_beta   90.00000000
_cell_angle_gamma   90.00000000
_symmetry_Int_Tables_number   1
_chemical_formula_structural   NaMg30BO31
_chemical_formula_sum   'Na1 Mg30 B1 O31'
_cell_volume   625.30743146
_cell_formula_units_Z   1
loop_
 _symmetry_equiv_pos_site_id
 _symmetry_equiv_pos_as_xyz
  1  'x, y, z'
loop_
 _atom_site_type_symbol
 _atom_site_label
 _atom_site_symmetry_multiplicity
 _atom_site_fract_x
 _atom_site_fract_y
 _atom_site_fract_z
 _atom_site_occupancy
  Na  Na0  1  0.00000000  0.99093300  0.00000000  1
  Mg  Mg0  1  0.00000000  0.99989600  0.50000000  1
  Mg  Mg1  1  0.50000000  0.99741400  0.50000000  1
  Mg  Mg2  1  0.00000000  0.50074700  0.00000000  1
  Mg  Mg3  1  0.50000000  0.49450200  0.00000000  1
  Mg  Mg4  1  0.00000000  0.49985200  0.50000000  1
  Mg  Mg5  1  0.50000000  0.50148900  0.50000000  1
  Mg  Mg6  1  0.25633500  0.99979700  0.25660600  1
  Mg  Mg7  1  0.74366500  0.99979700  0.25660600  1
  Mg  Mg8  1  0.25633500  0.99979700  0.74339400  1
  Mg  Mg9  1  0.74366500  0.99979700  0.74339400  1
  Mg  Mg10  1  0.24990600  0.49958300  0.24971800  1
  Mg  Mg11  1  0.75009400  0.49958300  0.24971800  1
  Mg  Mg12  1  0.24990600  0.49958300  0.75028200  1
  Mg  Mg13  1  0.75009400  0.49958300  0.75028200  1
  Mg  Mg14  1  0.26541700  0.74618900  0.00000000  1
  Mg  Mg15  1  0.73458300  0.74618900  0.00000000  1
  Mg  Mg16  1  0.25123000  0.74929100  0.50000000  1
  Mg  Mg17  1  0.74877000  0.74929100  0.50000000  1
  Mg  Mg18  1  0.24447500  0.25237200  0.00000000  1
  Mg  Mg19  1  0.75552500  0.25237200  0.00000000  1
  Mg  Mg20  1  0.24784500  0.25012300  0.50000000  1
  Mg  Mg21  1  0.75215500  0.25012300  0.50000000  1
  Mg  Mg22  1  0.00000000  0.75246500  0.25231200  1
  Mg  Mg23  1  0.50000000  0.75383900  0.24425100  1
  Mg  Mg24  1  0.00000000  0.75246500  0.74768800  1
  Mg  Mg25  1  0.50000000  0.75383900  0.75574900  1
  Mg  Mg26  1  0.00000000  0.24668500  0.24915400  1
  Mg  Mg27  1  0.50000000  0.24794000  0.26178700  1
  Mg  Mg28  1  0.00000000  0.24668500  0.75084600  1
  Mg  Mg29  1  0.50000000  0.24794000  0.73821300  1
  B  B0  1  0.50000000  0.06289300  0.00000000  1
  O  O0  1  0.50000000  0.72438900  0.00000000  1
  O  O1  1  0.00000000  0.74762400  0.50000000  1
  O  O2  1  0.50000000  0.74605000  0.50000000  1
  O  O3  1  0.00000000  0.25452900  0.00000000  1
  O  O4  1  0.50000000  0.23448600  0.00000000  1
  O  O5  1  0.00000000  0.25210700  0.50000000  1
  O  O6  1  0.50000000  0.25394700  0.50000000  1
  O  O7  1  0.25163200  0.75171200  0.24802800  1
  O  O8  1  0.74836800  0.75171200  0.24802800  1
  O  O9  1  0.25163200  0.75171200  0.75197200  1
  O  O10  1  0.74836800  0.75171200  0.75197200  1
  O  O11  1  0.25020900  0.24765600  0.24747200  1
  O  O12  1  0.74979100  0.24765600  0.24747200  1
  O  O13  1  0.25020900  0.24765600  0.75252800  1
  O  O14  1  0.74979100  0.24765600  0.75252800  1
  O  O15  1  0.33755500  0.00810200  0.00000000  1
  O  O16  1  0.66244500  0.00810200  0.00000000  1
  O  O17  1  0.24855300  0.99993200  0.50000000  1
  O  O18  1  0.75144700  0.99993200  0.50000000  1
  O  O19  1  0.25146600  0.49363900  0.00000000  1
  O  O20  1  0.74853400  0.49363900  0.00000000  1
  O  O21  1  0.24981400  0.49957000  0.50000000  1
  O  O22  1  0.75018600  0.49957000  0.50000000  1
  O  O23  1  0.00000000  0.00005600  0.25849700  1
  O  O24  1  0.50000000  0.00337800  0.26894800  1
  O  O25  1  0.00000000  0.00005600  0.74150300  1
  O  O26  1  0.50000000  0.00337800  0.73105200  1
  O  O27  1  0.00000000  0.49993500  0.25063100  1
  O  O28  1  0.50000000  0.49355500  0.24954500  1
  O  O29  1  0.00000000  0.49993500  0.74936900  1
  O  O30  1  0.50000000  0.49355500  0.75045500  1
loop_
_geom_bond_atom_site_label_1
_geom_bond_atom_site_label_2
_geom_bond_distance
_geom_bond_site_symmetry_2
Na0 O23 2.241696 1_565
Na0 O25 2.241696 1_564
Na0 O3 2.255184 1_565
Mg0 O25 2.093054 1_565
Mg0 O23 2.093054 1_565
Mg0 O17 2.096098 1_555
Mg0 O18 2.096098 1_455
Mg0 O5 2.157780 1_565
Mg0 O1 2.158302 1_555
Mg1 O26 2.003127 1_565
Mg1 O24 2.003127 1_565
Mg1 O17 2.120613 1_555
Mg1 O18 2.120613 1_555
Mg1 O2 2.150533 1_555
Mg1 O6 2.194757 1_565
Mg2 O3 2.106507 1_555
Mg2 O19 2.121536 1_555
Mg2 O20 2.121536 1_455
Mg2 O27 2.172175 1_555
Mg2 O29 2.172175 1_554
Mg3 O0 1.966788 1_555
Mg3 O20 2.095951 1_555
Mg3 O19 2.095951 1_555
Mg3 O28 2.162767 1_555
Mg3 O30 2.162767 1_554
Mg3 O4 2.224555 1_555
Mg4 O21 2.106734 1_555
Mg4 O22 2.106734 1_455
Mg4 O5 2.119571 1_555
Mg4 O1 2.119802 1_555
Mg4 O29 2.161227 1_555
Mg4 O27 2.161227 1_555
Mg5 O2 2.092331 1_555
Mg5 O22 2.109933 1_555
Mg5 O21 2.109933 1_555
Mg5 O6 2.117834 1_555
Mg5 O30 2.171700 1_555
Mg5 O28 2.171700 1_555
Mg6 O24 2.057887 1_565
Mg6 O17 2.110464 1_555
Mg6 O11 2.122652 1_565
Mg6 O7 2.124152 1_555
Mg6 O23 2.161789 1_565
Mg6 O15 2.328120 1_565
Mg7 O24 2.057887 1_565
Mg7 O18 2.110464 1_555
Mg7 O12 2.122652 1_565
Mg7 O8 2.124152 1_555
Mg7 O23 2.161789 1_665
Mg7 O16 2.328120 1_565
Mg8 O26 2.057887 1_565
Mg8 O17 2.110464 1_555
Mg8 O13 2.122652 1_565
Mg8 O9 2.124152 1_555
Mg8 O25 2.161789 1_565
Mg8 O15 2.328120 1_566
Mg9 O26 2.057887 1_565
Mg9 O18 2.110464 1_555
Mg9 O14 2.122652 1_565
Mg9 O10 2.124152 1_555
Mg9 O25 2.161789 1_665
Mg9 O16 2.328120 1_566
Mg10 O27 2.107525 1_555
Mg10 O28 2.109725 1_555
Mg10 O11 2.155440 1_555
Mg10 O7 2.157177 1_555
Mg10 O19 2.164889 1_555
Mg10 O21 2.169140 1_555
Mg11 O27 2.107525 1_655
Mg11 O28 2.109725 1_555
Mg11 O12 2.155440 1_555
Mg11 O8 2.157177 1_555
Mg11 O20 2.164889 1_555
Mg11 O22 2.169140 1_555
Mg12 O29 2.107525 1_555
Mg12 O30 2.109725 1_555
Mg12 O13 2.155440 1_555
Mg12 O9 2.157177 1_555
Mg12 O19 2.164889 1_556
Mg12 O21 2.169140 1_555
Mg13 O29 2.107525 1_655
Mg13 O30 2.109725 1_555
Mg13 O14 2.155440 1_555
Mg13 O10 2.157177 1_555
Mg13 O20 2.164889 1_556
Mg13 O22 2.169140 1_555
Mg14 O0 1.987059 1_555
Mg14 O7 2.153264 1_555
Mg14 O9 2.153264 1_554
Mg14 O19 2.163881 1_555
Mg14 O15 2.321898 1_565
Mg15 O0 1.987059 1_555
Mg15 O8 2.153264 1_555
Mg15 O10 2.153264 1_554
Mg15 O20 2.163881 1_555
Mg15 O16 2.321898 1_565
Mg16 O2 2.098111 1_555
Mg16 O1 2.118722 1_555
Mg16 O21 2.136510 1_555
Mg16 O17 2.144467 1_555
Mg16 O7 2.183887 1_555
Mg16 O9 2.183887 1_555
Mg17 O2 2.098111 1_555
Mg17 O1 2.118722 1_655
Mg17 O22 2.136510 1_555
Mg17 O18 2.144467 1_555
Mg17 O8 2.183887 1_555
Mg17 O10 2.183887 1_555
Mg18 O3 2.061790 1_555
Mg18 O19 2.064991 1_555
Mg18 O11 2.145710 1_555
Mg18 O13 2.145710 1_554
Mg18 O4 2.160321 1_555
Mg18 O15 2.232398 1_555
Mg19 O3 2.061790 1_655
Mg19 O20 2.064991 1_555
Mg19 O12 2.145710 1_555
Mg19 O14 2.145710 1_554
Mg19 O4 2.160321 1_555
Mg19 O16 2.232398 1_555
Mg20 O5 2.090196 1_555
Mg20 O6 2.126726 1_555
Mg20 O21 2.134197 1_555
Mg20 O17 2.140506 1_545
Mg20 O13 2.188798 1_555
Mg20 O11 2.188798 1_555
Mg21 O5 2.090196 1_655
Mg21 O6 2.126726 1_555
Mg21 O22 2.134197 1_555
Mg21 O18 2.140506 1_545
Mg21 O12 2.188798 1_555
Mg21 O14 2.188798 1_555
Mg22 O23 2.118932 1_565
Mg22 O7 2.122399 1_555
Mg22 O8 2.122399 1_455
Mg22 O1 2.147057 1_555
Mg22 O27 2.160558 1_555
Mg23 O8 2.094873 1_555
Mg23 O7 2.094873 1_555
Mg23 O0 2.131812 1_555
Mg23 O24 2.145623 1_565
Mg23 O2 2.217522 1_555
Mg23 O28 2.227321 1_555
Mg24 O25 2.118932 1_565
Mg24 O9 2.122399 1_555
Mg24 O10 2.122399 1_455
Mg24 O1 2.147057 1_555
Mg24 O29 2.160558 1_555
Mg25 O10 2.094873 1_555
Mg25 O9 2.094873 1_555
Mg25 O0 2.131812 1_556
Mg25 O26 2.145623 1_565
Mg25 O2 2.217522 1_555
Mg25 O30 2.227321 1_555
Mg26 O12 2.110130 1_455
Mg26 O11 2.110130 1_555
Mg26 O23 2.111576 1_555
Mg26 O3 2.160406 1_555
Mg26 O27 2.166707 1_555
Mg26 O5 2.174522 1_555
Mg27 O6 2.065180 1_555
Mg27 O24 2.093259 1_555
Mg27 O28 2.104025 1_555
Mg27 O12 2.110190 1_555
Mg27 O11 2.110190 1_555
Mg27 O4 2.271769 1_555
Mg28 O14 2.110130 1_455
Mg28 O13 2.110130 1_555
Mg28 O25 2.111576 1_555
Mg28 O3 2.160406 1_556
Mg28 O29 2.166707 1_555
Mg28 O5 2.174522 1_555
Mg29 O6 2.065180 1_555
Mg29 O26 2.093259 1_555
Mg29 O30 2.104025 1_555
Mg29 O14 2.110190 1_555
Mg29 O13 2.110190 1_555
Mg29 O4 2.271769 1_556
B0 O16 1.447913 1_555
B0 O15 1.447913 1_555
B0 O4 1.468056 1_555
