# generated using pymatgen
data_TbGe2
_symmetry_space_group_name_H-M   'P 1'
_cell_length_a   15.85489726
_cell_length_b   15.85489726
_cell_length_c   3.99648700
_cell_angle_alpha   90.00000000
_cell_angle_beta   90.00000000
_cell_angle_gamma   164.98525512
_symmetry_Int_Tables_number   1
_chemical_formula_structural   TbGe2
_chemical_formula_sum   'Tb4 Ge8'
_cell_volume   260.26657374
_cell_formula_units_Z   4
loop_
 _symmetry_equiv_pos_site_id
 _symmetry_equiv_pos_as_xyz
  1  'x, y, z'
loop_
 _atom_site_type_symbol
 _atom_site_label
 _atom_site_symmetry_multiplicity
 _atom_site_fract_x
 _atom_site_fract_y
 _atom_site_fract_z
 _atom_site_occupancy
  Tb  Tb0  1  0.31283000  0.68717000  0.50000000  1
  Tb  Tb1  1  0.68717000  0.31283000  0.50000000  1
  Tb  Tb2  1  0.42930500  0.57069500  0.00000000  1
  Tb  Tb3  1  0.57069500  0.42930500  0.00000000  1
  Ge  Ge0  1  0.09520000  0.90480000  0.50000000  1
  Ge  Ge1  1  0.90480000  0.09520000  0.50000000  1
  Ge  Ge2  1  0.22751800  0.77248200  0.00000000  1
  Ge  Ge3  1  0.77248200  0.22751800  0.00000000  1
  Ge  Ge4  1  0.00000000  0.00000000  0.00000000  1
  Ge  Ge5  1  0.50000000  0.50000000  0.50000000  1
  Ge  Ge6  1  0.85287300  0.14712700  0.00000000  1
  Ge  Ge7  1  0.14712700  0.85287300  0.00000000  1
loop_
_geom_bond_atom_site_label_1
_geom_bond_atom_site_label_2
_geom_bond_distance
_geom_bond_site_symmetry_2
Ge0 Ge7 2.580304 1_556
Ge0 Ge7 2.580304 1_555
Ge0 Tb3 2.979529 1_456
Ge0 Tb3 2.979529 1_455
Ge0 Tb3 2.979529 1_565
Ge0 Tb3 2.979529 1_566
Ge0 Tb1 3.556829 1_455
Ge0 Tb1 3.556829 1_565
Ge1 Ge6 2.580304 1_555
Ge1 Ge6 2.580304 1_556
Ge1 Tb2 2.979529 1_545
Ge1 Tb2 2.979529 1_546
Ge1 Tb2 2.979529 1_656
Ge1 Tb2 2.979529 1_655
Ge1 Tb0 3.556829 1_545
Ge1 Tb0 3.556829 1_655
Ge2 Ge3 2.507852 1_455
Ge2 Ge3 2.507852 1_565
Ge2 Ge7 2.527331 1_555
Ge2 Tb1 3.145328 1_564
Ge2 Tb1 3.145328 1_565
Ge2 Tb1 3.145328 1_455
Ge2 Tb1 3.145328 1_454
Ge2 Tb0 3.344593 1_554
Ge2 Tb0 3.344593 1_555
Ge3 Ge6 2.527331 1_555
Ge3 Tb0 3.145328 1_545
Ge3 Tb0 3.145328 1_544
Ge3 Tb0 3.145328 1_655
Ge3 Tb0 3.145328 1_654
Ge3 Tb1 3.344593 1_554
Ge3 Tb1 3.344593 1_555
Ge4 Ge5 2.878211 1_554
Ge4 Ge5 2.878211 1_445
Ge4 Ge5 2.878211 1_444
Ge4 Ge5 2.878211 1_555
Ge4 Tb2 3.038201 1_445
Ge4 Tb3 3.038201 1_445
Ge4 Tb3 3.038201 1_555
Ge4 Tb2 3.038201 1_555
Ge5 Tb2 2.988732 1_555
Ge5 Tb2 2.988732 1_556
Ge5 Tb3 2.988732 1_556
Ge5 Tb3 2.988732 1_555
Ge6 Tb0 3.141473 1_544
Ge6 Tb0 3.141473 1_545
Ge6 Tb0 3.141473 1_655
Ge6 Tb0 3.141473 1_654
Ge6 Tb2 3.172522 1_545
Ge6 Tb2 3.172522 1_655
Ge7 Tb1 3.141473 1_454
Ge7 Tb1 3.141473 1_455
Ge7 Tb1 3.141473 1_564
Ge7 Tb1 3.141473 1_565
Ge7 Tb3 3.172522 1_455
Ge7 Tb3 3.172522 1_565
