# generated using pymatgen
data_Lu6Al43Mo4
_symmetry_space_group_name_H-M   'P 1'
_cell_length_a   11.02416257
_cell_length_b   11.02416257
_cell_length_c   17.48551300
_cell_angle_alpha   90.00000000
_cell_angle_beta   90.00000000
_cell_angle_gamma   120.00000339
_symmetry_Int_Tables_number   1
_chemical_formula_structural   Lu6Al43Mo4
_chemical_formula_sum   'Lu12 Al86 Mo8'
_cell_volume   1840.34909912
_cell_formula_units_Z   2
loop_
 _symmetry_equiv_pos_site_id
 _symmetry_equiv_pos_as_xyz
  1  'x, y, z'
loop_
 _atom_site_type_symbol
 _atom_site_label
 _atom_site_symmetry_multiplicity
 _atom_site_fract_x
 _atom_site_fract_y
 _atom_site_fract_z
 _atom_site_occupancy
  Lu  Lu0  1  0.46847800  0.46847800  0.90471800  1
  Lu  Lu1  1  0.53152200  0.00000000  0.90471800  1
  Lu  Lu2  1  0.00000000  0.53152200  0.90471800  1
  Lu  Lu3  1  0.53152200  0.53152200  0.09528200  1
  Lu  Lu4  1  0.46847800  0.00000000  0.09528200  1
  Lu  Lu5  1  0.00000000  0.46847800  0.09528200  1
  Lu  Lu6  1  0.53152200  0.53152200  0.40471800  1
  Lu  Lu7  1  0.46847800  0.00000000  0.40471800  1
  Lu  Lu8  1  0.00000000  0.46847800  0.40471800  1
  Lu  Lu9  1  0.46847800  0.46847800  0.59528200  1
  Lu  Lu10  1  0.53152200  0.00000000  0.59528200  1
  Lu  Lu11  1  0.00000000  0.53152200  0.59528200  1
  Al  Al0  1  0.84201200  0.23668600  0.83682000  1
  Al  Al1  1  0.76331400  0.60532700  0.83682000  1
  Al  Al2  1  0.39467300  0.15798800  0.83682000  1
  Al  Al3  1  0.23668600  0.84201200  0.83682000  1
  Al  Al4  1  0.60532700  0.76331400  0.83682000  1
  Al  Al5  1  0.15798800  0.39467300  0.83682000  1
  Al  Al6  1  0.15798800  0.76331400  0.16318000  1
  Al  Al7  1  0.23668600  0.39467300  0.16318000  1
  Al  Al8  1  0.60532700  0.84201200  0.16318000  1
  Al  Al9  1  0.76331400  0.15798800  0.16318000  1
  Al  Al10  1  0.39467300  0.23668600  0.16318000  1
  Al  Al11  1  0.84201200  0.60532700  0.16318000  1
  Al  Al12  1  0.15798800  0.76331400  0.33682000  1
  Al  Al13  1  0.23668600  0.39467300  0.33682000  1
  Al  Al14  1  0.60532700  0.84201200  0.33682000  1
  Al  Al15  1  0.76331400  0.15798800  0.33682000  1
  Al  Al16  1  0.39467300  0.23668600  0.33682000  1
  Al  Al17  1  0.84201200  0.60532700  0.33682000  1
  Al  Al18  1  0.84201200  0.23668600  0.66318000  1
  Al  Al19  1  0.76331400  0.60532700  0.66318000  1
  Al  Al20  1  0.39467300  0.15798800  0.66318000  1
  Al  Al21  1  0.23668600  0.84201200  0.66318000  1
  Al  Al22  1  0.60532700  0.76331400  0.66318000  1
  Al  Al23  1  0.15798800  0.39467300  0.66318000  1
  Al  Al24  1  0.84081400  0.84081400  0.38521000  1
  Al  Al25  1  0.15918600  0.00000000  0.38521000  1
  Al  Al26  1  0.00000000  0.15918600  0.38521000  1
  Al  Al27  1  0.15918600  0.15918600  0.61479000  1
  Al  Al28  1  0.84081400  0.00000000  0.61479000  1
  Al  Al29  1  0.00000000  0.84081400  0.61479000  1
  Al  Al30  1  0.15918600  0.15918600  0.88521000  1
  Al  Al31  1  0.84081400  0.00000000  0.88521000  1
  Al  Al32  1  0.00000000  0.84081400  0.88521000  1
  Al  Al33  1  0.84081400  0.84081400  0.11479000  1
  Al  Al34  1  0.15918600  0.00000000  0.11479000  1
  Al  Al35  1  0.00000000  0.15918600  0.11479000  1
  Al  Al36  1  0.74517700  0.74517700  0.96942300  1
  Al  Al37  1  0.25482300  0.00000000  0.96942300  1
  Al  Al38  1  0.00000000  0.25482300  0.96942300  1
  Al  Al39  1  0.25482300  0.25482300  0.03057700  1
  Al  Al40  1  0.74517700  0.00000000  0.03057700  1
  Al  Al41  1  0.00000000  0.74517700  0.03057700  1
  Al  Al42  1  0.25482300  0.25482300  0.46942300  1
  Al  Al43  1  0.74517700  0.00000000  0.46942300  1
  Al  Al44  1  0.00000000  0.74517700  0.46942300  1
  Al  Al45  1  0.74517700  0.74517700  0.53057700  1
  Al  Al46  1  0.25482300  0.00000000  0.53057700  1
  Al  Al47  1  0.00000000  0.25482300  0.53057700  1
  Al  Al48  1  0.85256200  0.44848600  0.75000000  1
  Al  Al49  1  0.55151400  0.40407600  0.75000000  1
  Al  Al50  1  0.59592400  0.14743800  0.75000000  1
  Al  Al51  1  0.44848600  0.85256200  0.75000000  1
  Al  Al52  1  0.40407600  0.55151400  0.75000000  1
  Al  Al53  1  0.14743800  0.59592400  0.75000000  1
  Al  Al54  1  0.14743800  0.55151400  0.25000000  1
  Al  Al55  1  0.44848600  0.59592400  0.25000000  1
  Al  Al56  1  0.40407600  0.85256200  0.25000000  1
  Al  Al57  1  0.55151400  0.14743800  0.25000000  1
  Al  Al58  1  0.59592400  0.44848600  0.25000000  1
  Al  Al59  1  0.85256200  0.40407600  0.25000000  1
  Al  Al60  1  0.75318600  0.24681400  0.00000000  1
  Al  Al61  1  0.75318600  0.50637300  0.00000000  1
  Al  Al62  1  0.49362700  0.24681400  0.00000000  1
  Al  Al63  1  0.24681400  0.75318600  0.00000000  1
  Al  Al64  1  0.50637300  0.75318600  0.00000000  1
  Al  Al65  1  0.24681400  0.49362700  0.00000000  1
  Al  Al66  1  0.24681400  0.75318600  0.50000000  1
  Al  Al67  1  0.24681400  0.49362700  0.50000000  1
  Al  Al68  1  0.50637300  0.75318600  0.50000000  1
  Al  Al69  1  0.75318600  0.24681400  0.50000000  1
  Al  Al70  1  0.49362700  0.24681400  0.50000000  1
  Al  Al71  1  0.75318600  0.50637300  0.50000000  1
  Al  Al72  1  0.66666700  0.33333300  0.87404300  1
  Al  Al73  1  0.33333300  0.66666700  0.87404300  1
  Al  Al74  1  0.33333300  0.66666700  0.12595700  1
  Al  Al75  1  0.66666700  0.33333300  0.12595700  1
  Al  Al76  1  0.33333300  0.66666700  0.37404300  1
  Al  Al77  1  0.66666700  0.33333300  0.37404300  1
  Al  Al78  1  0.66666700  0.33333300  0.62595700  1
  Al  Al79  1  0.33333300  0.66666700  0.62595700  1
  Al  Al80  1  0.85306700  0.85306700  0.75000000  1
  Al  Al81  1  0.14693300  0.00000000  0.75000000  1
  Al  Al82  1  0.00000000  0.14693300  0.75000000  1
  Al  Al83  1  0.14693300  0.14693300  0.25000000  1
  Al  Al84  1  0.85306700  0.00000000  0.25000000  1
  Al  Al85  1  0.00000000  0.85306700  0.25000000  1
  Mo  Mo0  1  0.27224300  0.27224300  0.75000000  1
  Mo  Mo1  1  0.72775700  0.00000000  0.75000000  1
  Mo  Mo2  1  0.00000000  0.72775700  0.75000000  1
  Mo  Mo3  1  0.72775700  0.72775700  0.25000000  1
  Mo  Mo4  1  0.27224300  0.00000000  0.25000000  1
  Mo  Mo5  1  0.00000000  0.27224300  0.25000000  1
  Mo  Mo6  1  0.00000000  0.00000000  0.00000000  1
  Mo  Mo7  1  0.00000000  0.00000000  0.50000000  1
loop_
_geom_bond_atom_site_label_1
_geom_bond_atom_site_label_2
_geom_bond_distance
_geom_bond_site_symmetry_2
Lu0 Lu3 3.403820 1_556
Lu0 Mo0 3.463922 1_555
Lu1 Lu4 3.403820 1_556
Lu1 Mo1 3.463922 1_555
Lu2 Lu5 3.403820 1_556
Lu2 Mo2 3.463922 1_555
Lu3 Mo3 3.463922 1_555
Lu4 Mo4 3.463922 1_555
Lu5 Mo5 3.463922 1_555
Lu6 Lu9 3.403820 1_555
Lu6 Mo3 3.463922 1_555
Lu7 Mo4 3.463922 1_555
Lu8 Mo5 3.463922 1_555
Lu9 Mo0 3.463922 1_555
Lu10 Lu7 3.403820 1_555
Lu10 Mo1 3.463922 1_555
Lu11 Lu8 3.403820 1_555
Lu11 Mo2 3.463922 1_555
Al0 Al72 2.712006 1_555
Al0 Mo1 2.722652 1_555
Al0 Al31 2.736769 1_555
Al0 Al48 2.738322 1_555
Al0 Al50 2.821939 1_555
Al0 Al82 2.835560 1_655
Al0 Al38 2.846271 1_655
Al0 Al5 3.016687 1_655
Al0 Al18 3.036184 1_555
Al0 Al60 3.036764 1_556
Al0 Lu2 3.057210 1_655
Al0 Lu1 3.317038 1_555
Al1 Al72 2.712026 1_555
Al1 Mo2 2.722652 1_655
Al1 Al32 2.736763 1_655
Al1 Al49 2.738326 1_555
Al1 Al48 2.821948 1_555
Al1 Al80 2.835551 1_555
Al1 Al36 2.846264 1_555
Al1 Al4 3.016669 1_555
Al1 Al19 3.036184 1_555
Al1 Al61 3.036764 1_556
Al1 Lu0 3.057209 1_555
Al1 Lu2 3.317045 1_655
Al2 Al72 2.712022 1_555
Al2 Mo0 2.722644 1_555
Al2 Al30 2.736758 1_555
Al2 Al50 2.738331 1_555
Al2 Al49 2.821941 1_555
Al2 Al81 2.835553 1_555
Al2 Al37 2.846268 1_555
Al2 Al3 3.016687 1_545
Al2 Al20 3.036184 1_555
Al2 Al62 3.036764 1_556
Al2 Lu1 3.057218 1_555
Al2 Lu0 3.317035 1_555
Al3 Al73 2.712006 1_555
Al3 Mo2 2.722652 1_555
Al3 Al32 2.736769 1_555
Al3 Al51 2.738322 1_555
Al3 Al53 2.821939 1_555
Al3 Al81 2.835560 1_565
Al3 Al37 2.846271 1_565
Al3 Al63 3.036764 1_556
Al3 Lu1 3.057210 1_565
Al3 Lu2 3.317038 1_555
Al4 Al73 2.712026 1_555
Al4 Mo1 2.722652 1_565
Al4 Al52 2.738326 1_555
Al4 Al51 2.821948 1_555
Al4 Al80 2.835551 1_555
Al4 Al64 3.036764 1_556
Al4 Lu0 3.057209 1_555
Al4 Lu1 3.317045 1_565
Al5 Al73 2.712022 1_555
Al5 Mo0 2.722644 1_555
Al5 Al53 2.738331 1_555
Al5 Al52 2.821941 1_555
Al5 Al82 2.835553 1_555
Al5 Al65 3.036764 1_556
Al5 Lu2 3.057218 1_555
Al5 Lu0 3.317035 1_555
Al6 Al74 2.712006 1_555
Al6 Mo4 2.722652 1_565
Al6 Al85 2.835560 1_555
Al6 Al63 3.036764 1_555
Al6 Lu5 3.057210 1_555
Al6 Lu4 3.317038 1_565
Al7 Al74 2.712026 1_555
Al7 Mo5 2.722652 1_555
Al7 Al83 2.835551 1_555
Al7 Lu3 3.057209 1_555
Al7 Lu5 3.317045 1_555
Al8 Mo3 2.722644 1_555
Al8 Al84 2.835553 1_565
Al8 Al9 3.016687 1_565
Al8 Lu4 3.057218 1_565
Al8 Lu3 3.317035 1_555
Al9 Mo5 2.722652 1_655
Al9 Lu4 3.057210 1_555
Al9 Lu5 3.317038 1_655
Al10 Al75 2.712026 1_555
Al10 Mo4 2.722652 1_555
Al10 Al34 2.736763 1_555
Al10 Al58 2.738326 1_555
Al10 Al57 2.821948 1_555
Al10 Al83 2.835551 1_555
Al10 Al39 2.846264 1_555
Al10 Al7 3.016669 1_555
Al10 Al16 3.036184 1_555
Al10 Al62 3.036764 1_555
Al10 Lu3 3.057209 1_555
Al10 Lu4 3.317045 1_555
Al11 Al75 2.712022 1_555
Al11 Mo3 2.722644 1_555
Al11 Al33 2.736758 1_555
Al11 Al59 2.738331 1_555
Al11 Al58 2.821941 1_555
Al11 Al85 2.835553 1_655
Al11 Al41 2.846268 1_655
Al11 Al6 3.016687 1_655
Al11 Al17 3.036184 1_555
Al11 Al61 3.036764 1_555
Al11 Lu5 3.057218 1_655
Al11 Lu3 3.317035 1_555
Al12 Al76 2.712006 1_555
Al12 Mo4 2.722652 1_565
Al12 Al25 2.736769 1_565
Al12 Al54 2.738322 1_555
Al12 Al56 2.821939 1_555
Al12 Al85 2.835560 1_555
Al12 Al44 2.846271 1_555
Al12 Al17 3.016687 1_455
Al12 Al6 3.036184 1_555
Al12 Al66 3.036764 1_555
Al12 Lu8 3.057210 1_555
Al12 Lu7 3.317038 1_565
Al13 Al76 2.712026 1_555
Al13 Mo5 2.722652 1_555
Al13 Al26 2.736763 1_555
Al13 Al55 2.738326 1_555
Al13 Al54 2.821948 1_555
Al13 Al83 2.835551 1_555
Al13 Al42 2.846264 1_555
Al13 Al16 3.016669 1_555
Al13 Al7 3.036184 1_555
Al13 Al67 3.036764 1_555
Al13 Lu6 3.057209 1_555
Al13 Lu8 3.317045 1_555
Al14 Al76 2.712022 1_555
Al14 Mo3 2.722644 1_555
Al14 Al24 2.736758 1_555
Al14 Al56 2.738331 1_555
Al14 Al55 2.821941 1_555
Al14 Al84 2.835553 1_565
Al14 Al43 2.846268 1_565
Al14 Al15 3.016687 1_565
Al14 Al8 3.036184 1_555
Al14 Al68 3.036764 1_555
Al14 Lu7 3.057218 1_565
Al14 Lu6 3.317035 1_555
Al15 Al77 2.712006 1_555
Al15 Mo5 2.722652 1_655
Al15 Al26 2.736769 1_655
Al15 Al57 2.738322 1_555
Al15 Al59 2.821939 1_555
Al15 Al84 2.835560 1_555
Al15 Al43 2.846271 1_555
Al15 Al9 3.036184 1_555
Al15 Al69 3.036764 1_555
Al15 Lu7 3.057210 1_555
Al15 Lu8 3.317038 1_655
Al16 Al77 2.712026 1_555
Al16 Mo4 2.722652 1_555
Al16 Al25 2.736763 1_555
Al16 Al58 2.738326 1_555
Al16 Al57 2.821948 1_555
Al16 Al83 2.835551 1_555
Al16 Al42 2.846264 1_555
Al16 Al70 3.036764 1_555
Al16 Lu6 3.057209 1_555
Al16 Lu7 3.317045 1_555
Al17 Al77 2.712022 1_555
Al17 Mo3 2.722644 1_555
Al17 Al24 2.736758 1_555
Al17 Al59 2.738331 1_555
Al17 Al58 2.821941 1_555
Al17 Al85 2.835553 1_655
Al17 Al44 2.846268 1_655
Al17 Al71 3.036764 1_555
Al17 Lu8 3.057218 1_655
Al17 Lu6 3.317035 1_555
Al18 Al78 2.712006 1_555
Al18 Mo1 2.722652 1_555
Al18 Al28 2.736769 1_555
Al18 Al48 2.738322 1_555
Al18 Al50 2.821939 1_555
Al18 Al82 2.835560 1_655
Al18 Al47 2.846271 1_655
Al18 Al23 3.016687 1_655
Al18 Al69 3.036764 1_555
Al18 Lu11 3.057210 1_655
Al18 Lu10 3.317038 1_555
Al19 Al78 2.712026 1_555
Al19 Mo2 2.722652 1_655
Al19 Al29 2.736763 1_655
Al19 Al49 2.738326 1_555
Al19 Al48 2.821948 1_555
Al19 Al80 2.835551 1_555
Al19 Al45 2.846264 1_555
Al19 Al22 3.016669 1_555
Al19 Al71 3.036764 1_555
Al19 Lu9 3.057209 1_555
Al19 Lu11 3.317045 1_655
Al20 Al78 2.712022 1_555
Al20 Mo0 2.722644 1_555
Al20 Al27 2.736758 1_555
Al20 Al50 2.738331 1_555
Al20 Al49 2.821941 1_555
Al20 Al81 2.835553 1_555
Al20 Al46 2.846268 1_555
Al20 Al21 3.016687 1_545
Al20 Al70 3.036764 1_555
Al20 Lu10 3.057218 1_555
Al20 Lu9 3.317035 1_555
Al21 Al79 2.712006 1_555
Al21 Mo2 2.722652 1_555
Al21 Al29 2.736769 1_555
Al21 Al51 2.738322 1_555
Al21 Al53 2.821939 1_555
Al21 Al81 2.835560 1_565
Al21 Al46 2.846271 1_565
Al21 Al3 3.036184 1_555
Al21 Al66 3.036764 1_555
Al21 Lu10 3.057210 1_565
Al21 Lu11 3.317038 1_555
Al22 Al79 2.712026 1_555
Al22 Mo1 2.722652 1_565
Al22 Al28 2.736763 1_565
Al22 Al52 2.738326 1_555
Al22 Al51 2.821948 1_555
Al22 Al80 2.835551 1_555
Al22 Al45 2.846264 1_555
Al22 Al4 3.036184 1_555
Al22 Al68 3.036764 1_555
Al22 Lu9 3.057209 1_555
Al22 Lu10 3.317045 1_565
Al23 Al79 2.712022 1_555
Al23 Mo0 2.722644 1_555
Al23 Al27 2.736758 1_555
Al23 Al53 2.738331 1_555
Al23 Al52 2.821941 1_555
Al23 Al82 2.835553 1_555
Al23 Al47 2.846268 1_555
Al23 Al5 3.036184 1_555
Al23 Al67 3.036764 1_555
Al23 Lu11 3.057218 1_555
Al23 Lu9 3.317035 1_555
Al24 Mo7 2.666148 1_665
Al24 Mo3 2.672626 1_555
Al24 Al45 2.751803 1_555
Al24 Al44 2.865262 1_655
Al24 Al43 2.865262 1_565
Al24 Lu6 3.426705 1_555
Al25 Mo7 2.666148 1_555
Al25 Mo4 2.672626 1_555
Al25 Al46 2.751803 1_555
Al25 Al44 2.865262 1_545
Al25 Al42 2.865262 1_555
Al25 Lu7 3.426705 1_555
Al26 Mo7 2.666148 1_555
Al26 Mo5 2.672626 1_555
Al26 Al47 2.751803 1_555
Al26 Al43 2.865262 1_455
Al26 Al42 2.865262 1_555
Al26 Lu8 3.426705 1_555
Al27 Mo7 2.666148 1_555
Al27 Mo0 2.672626 1_555
Al27 Al42 2.751803 1_555
Al27 Al46 2.865262 1_555
Al27 Al47 2.865262 1_555
Al27 Lu9 3.426705 1_555
Al28 Mo7 2.666148 1_655
Al28 Mo1 2.672626 1_555
Al28 Al43 2.751803 1_555
Al28 Al47 2.865262 1_655
Al28 Al45 2.865262 1_545
Al28 Lu10 3.426705 1_555
Al29 Mo7 2.666148 1_565
Al29 Mo2 2.672626 1_555
Al29 Al44 2.751803 1_555
Al29 Al46 2.865262 1_565
Al29 Al45 2.865262 1_455
Al29 Lu11 3.426705 1_555
Al30 Mo6 2.666148 1_556
Al30 Mo0 2.672626 1_555
Al30 Al5 2.736758 1_555
Al30 Al39 2.751803 1_556
Al30 Al37 2.865262 1_555
Al30 Al38 2.865262 1_555
Al30 Lu0 3.426705 1_555
Al31 Mo6 2.666148 1_656
Al31 Mo1 2.672626 1_555
Al31 Al4 2.736763 1_545
Al31 Al40 2.751803 1_556
Al31 Al38 2.865262 1_655
Al31 Al36 2.865262 1_545
Al31 Lu1 3.426705 1_555
Al32 Mo6 2.666148 1_566
Al32 Mo2 2.672626 1_555
Al32 Al41 2.751803 1_556
Al32 Al37 2.865262 1_565
Al32 Al36 2.865262 1_455
Al32 Lu2 3.426705 1_555
Al33 Mo6 2.666148 1_665
Al33 Mo3 2.672626 1_555
Al33 Al8 2.736758 1_555
Al33 Al36 2.751803 1_554
Al33 Al40 2.865262 1_565
Al33 Al41 2.865262 1_655
Al33 Lu3 3.426705 1_555
Al34 Mo6 2.666148 1_555
Al34 Mo4 2.672626 1_555
Al34 Al6 2.736769 1_545
Al34 Al37 2.751803 1_554
Al34 Al41 2.865262 1_545
Al34 Al39 2.865262 1_555
Al34 Lu4 3.426705 1_555
Al35 Mo6 2.666148 1_555
Al35 Mo5 2.672626 1_555
Al35 Al7 2.736763 1_555
Al35 Al9 2.736769 1_455
Al35 Al38 2.751803 1_554
Al35 Al40 2.865262 1_455
Al35 Al39 2.865262 1_555
Al35 Lu5 3.426705 1_555
Al36 Al64 2.730705 1_556
Al36 Al61 2.730705 1_556
Al36 Al4 2.846264 1_555
Al36 Mo6 2.859636 1_666
Al36 Al41 3.005842 1_656
Al36 Al40 3.005842 1_566
Al36 Lu3 3.223488 1_556
Al36 Lu0 3.253437 1_555
Al37 Al62 2.730710 1_556
Al37 Al63 2.730716 1_546
Al37 Mo6 2.859636 1_556
Al37 Al41 3.005841 1_546
Al37 Al39 3.005842 1_556
Al37 Lu4 3.223488 1_556
Al37 Lu1 3.253437 1_555
Al38 Al65 2.730710 1_556
Al38 Al60 2.730716 1_456
Al38 Al5 2.846268 1_555
Al38 Mo6 2.859636 1_556
Al38 Al40 3.005841 1_456
Al38 Al39 3.005842 1_556
Al38 Lu5 3.223488 1_556
Al38 Lu2 3.253437 1_555
Al39 Al62 2.730705 1_555
Al39 Al65 2.730705 1_555
Al39 Al7 2.846264 1_555
Al39 Mo6 2.859636 1_555
Al39 Lu0 3.223488 1_554
Al39 Lu3 3.253437 1_555
Al40 Al64 2.730710 1_545
Al40 Al60 2.730716 1_555
Al40 Al8 2.846268 1_545
Al40 Al9 2.846271 1_555
Al40 Mo6 2.859636 1_655
Al40 Lu1 3.223488 1_554
Al40 Lu4 3.253437 1_555
Al41 Al61 2.730710 1_455
Al41 Al63 2.730716 1_555
Al41 Al6 2.846271 1_555
Al41 Mo6 2.859636 1_565
Al41 Lu2 3.223488 1_554
Al41 Lu5 3.253437 1_555
Al42 Al67 2.730705 1_555
Al42 Al70 2.730705 1_555
Al42 Mo7 2.859636 1_555
Al42 Al47 3.005842 1_555
Al42 Al46 3.005842 1_555
Al42 Lu9 3.223488 1_555
Al42 Lu6 3.253437 1_555
Al43 Al68 2.730710 1_545
Al43 Al69 2.730716 1_555
Al43 Mo7 2.859636 1_655
Al43 Al47 3.005841 1_655
Al43 Al45 3.005842 1_545
Al43 Lu10 3.223488 1_555
Al43 Lu7 3.253437 1_555
Al44 Al71 2.730710 1_455
Al44 Al66 2.730716 1_555
Al44 Mo7 2.859636 1_565
Al44 Al46 3.005841 1_565
Al44 Al45 3.005842 1_455
Al44 Lu11 3.223488 1_555
Al44 Lu8 3.253437 1_555
Al45 Al71 2.730705 1_555
Al45 Al68 2.730705 1_555
Al45 Mo7 2.859636 1_665
Al45 Lu6 3.223488 1_555
Al45 Lu9 3.253437 1_555
Al46 Al70 2.730710 1_555
Al46 Al66 2.730716 1_545
Al46 Mo7 2.859636 1_555
Al46 Lu7 3.223488 1_555
Al46 Lu10 3.253437 1_555
Al47 Al67 2.730710 1_555
Al47 Al69 2.730716 1_455
Al47 Mo7 2.859636 1_555
Al47 Lu8 3.223488 1_555
Al47 Lu11 3.253437 1_555
Al48 Mo2 2.667644 1_655
Al48 Al78 2.813206 1_555
Al48 Al72 2.813206 1_555
Al48 Lu2 3.051348 1_655
Al48 Lu11 3.051348 1_655
Al49 Mo0 2.667644 1_555
Al49 Al78 2.813212 1_555
Al49 Al72 2.813212 1_555
Al49 Lu0 3.051348 1_555
Al49 Lu9 3.051348 1_555
Al50 Mo1 2.667645 1_555
Al50 Al78 2.813205 1_555
Al50 Al72 2.813205 1_555
Al50 Lu1 3.051348 1_555
Al50 Lu10 3.051348 1_555
Al51 Mo1 2.667644 1_565
Al51 Al73 2.813206 1_555
Al51 Al79 2.813206 1_555
Al51 Lu1 3.051348 1_565
Al51 Lu10 3.051348 1_565
Al52 Mo0 2.667644 1_555
Al52 Al73 2.813212 1_555
Al52 Al79 2.813212 1_555
Al52 Lu0 3.051348 1_555
Al52 Lu9 3.051348 1_555
Al53 Mo2 2.667645 1_555
Al53 Al73 2.813205 1_555
Al53 Al79 2.813205 1_555
Al53 Lu2 3.051348 1_555
Al53 Lu11 3.051348 1_555
Al54 Mo5 2.667644 1_555
Al54 Al6 2.738322 1_555
Al54 Al76 2.813206 1_555
Al54 Al74 2.813206 1_555
Al54 Al7 2.821948 1_555
Al54 Lu8 3.051348 1_555
Al54 Lu5 3.051348 1_555
Al55 Mo3 2.667644 1_555
Al55 Al7 2.738326 1_555
Al55 Al76 2.813212 1_555
Al55 Al74 2.813212 1_555
Al55 Al8 2.821941 1_555
Al55 Lu6 3.051348 1_555
Al55 Lu3 3.051348 1_555
Al56 Mo4 2.667645 1_565
Al56 Al8 2.738331 1_555
Al56 Al76 2.813205 1_555
Al56 Al74 2.813205 1_555
Al56 Al6 2.821939 1_555
Al56 Lu7 3.051348 1_565
Al56 Lu4 3.051348 1_565
Al57 Mo4 2.667644 1_555
Al57 Al9 2.738322 1_555
Al57 Al77 2.813206 1_555
Al57 Al75 2.813206 1_555
Al57 Lu7 3.051348 1_555
Al57 Lu4 3.051348 1_555
Al58 Mo3 2.667644 1_555
Al58 Al77 2.813212 1_555
Al58 Al75 2.813212 1_555
Al58 Lu6 3.051348 1_555
Al58 Lu3 3.051348 1_555
Al59 Mo5 2.667645 1_655
Al59 Al77 2.813205 1_555
Al59 Al75 2.813205 1_555
Al59 Al9 2.821939 1_555
Al59 Lu8 3.051348 1_655
Al59 Lu5 3.051348 1_655
Al60 Al75 2.753156 1_555
Al60 Al72 2.753156 1_554
Al60 Al62 2.861421 1_555
Al60 Al61 2.861421 1_555
Al60 Al9 3.036764 1_555
Al60 Lu5 3.082468 1_655
Al60 Lu1 3.082468 1_554
Al60 Lu4 3.389736 1_555
Al60 Lu2 3.389736 1_654
Al61 Al75 2.753167 1_555
Al61 Al72 2.753167 1_554
Al61 Al62 2.861420 1_555
Al61 Lu3 3.082462 1_555
Al61 Lu2 3.082472 1_654
Al61 Lu0 3.389732 1_554
Al61 Lu5 3.389741 1_655
Al62 Al75 2.753167 1_555
Al62 Al72 2.753167 1_554
Al62 Lu0 3.082462 1_554
Al62 Lu4 3.082472 1_555
Al62 Lu3 3.389732 1_555
Al62 Lu1 3.389741 1_554
Al63 Al74 2.753156 1_555
Al63 Al73 2.753156 1_554
Al63 Al65 2.861421 1_555
Al63 Al64 2.861421 1_555
Al63 Lu4 3.082468 1_565
Al63 Lu2 3.082468 1_554
Al63 Lu5 3.389736 1_555
Al63 Lu1 3.389736 1_564
Al64 Al74 2.753167 1_555
Al64 Al73 2.753167 1_554
Al64 Al65 2.861420 1_555
Al64 Al8 3.036764 1_555
Al64 Lu3 3.082462 1_555
Al64 Lu1 3.082472 1_564
Al64 Lu0 3.389732 1_554
Al64 Lu4 3.389741 1_565
Al65 Al74 2.753167 1_555
Al65 Al73 2.753167 1_554
Al65 Al7 3.036764 1_555
Al65 Lu0 3.082462 1_554
Al65 Lu5 3.082472 1_555
Al65 Lu3 3.389732 1_555
Al65 Lu2 3.389741 1_554
Al66 Al79 2.753156 1_555
Al66 Al76 2.753156 1_555
Al66 Al67 2.861421 1_555
Al66 Al68 2.861421 1_555
Al66 Lu11 3.082468 1_555
Al66 Lu7 3.082468 1_565
Al66 Lu8 3.389736 1_555
Al66 Lu10 3.389736 1_565
Al67 Al79 2.753167 1_555
Al67 Al76 2.753167 1_555
Al67 Al68 2.861420 1_555
Al67 Lu9 3.082462 1_555
Al67 Lu8 3.082472 1_555
Al67 Lu6 3.389732 1_555
Al67 Lu11 3.389741 1_555
Al68 Al79 2.753167 1_555
Al68 Al76 2.753167 1_555
Al68 Lu6 3.082462 1_555
Al68 Lu10 3.082472 1_565
Al68 Lu9 3.389732 1_555
Al68 Lu7 3.389741 1_565
Al69 Al78 2.753156 1_555
Al69 Al77 2.753156 1_555
Al69 Al70 2.861421 1_555
Al69 Al71 2.861421 1_555
Al69 Lu10 3.082468 1_555
Al69 Lu8 3.082468 1_655
Al69 Lu7 3.389736 1_555
Al69 Lu11 3.389736 1_655
Al70 Al78 2.753167 1_555
Al70 Al77 2.753167 1_555
Al70 Al71 2.861420 1_555
Al70 Lu9 3.082462 1_555
Al70 Lu7 3.082472 1_555
Al70 Lu6 3.389732 1_555
Al70 Lu10 3.389741 1_555
Al71 Al78 2.753167 1_555
Al71 Al77 2.753167 1_555
Al71 Lu6 3.082462 1_555
Al71 Lu11 3.082472 1_655
Al71 Lu9 3.389732 1_555
Al71 Lu8 3.389741 1_655
Al72 Lu1 3.245937 1_555
Al72 Lu2 3.245938 1_655
Al72 Lu0 3.245947 1_555
Al73 Lu2 3.245937 1_555
Al73 Lu1 3.245938 1_565
Al73 Lu0 3.245947 1_555
Al74 Al8 2.712022 1_555
Al74 Lu4 3.245937 1_565
Al74 Lu5 3.245938 1_555
Al74 Lu3 3.245947 1_555
Al75 Al9 2.712006 1_555
Al75 Lu5 3.245937 1_655
Al75 Lu4 3.245938 1_555
Al75 Lu3 3.245947 1_555
Al76 Lu7 3.245937 1_565
Al76 Lu8 3.245938 1_555
Al76 Lu6 3.245947 1_555
Al77 Lu8 3.245937 1_655
Al77 Lu7 3.245938 1_555
Al77 Lu6 3.245947 1_555
Al78 Lu10 3.245937 1_555
Al78 Lu11 3.245938 1_655
Al78 Lu9 3.245947 1_555
Al79 Lu11 3.245937 1_555
Al79 Lu10 3.245938 1_565
Al79 Lu9 3.245947 1_555
Al80 Mo1 2.601891 1_565
Al80 Mo2 2.601891 1_655
Al81 Mo2 2.601891 1_545
Al81 Mo0 2.601891 1_555
Al82 Mo1 2.601891 1_455
Al82 Mo0 2.601891 1_555
Al83 Mo4 2.601891 1_555
Al83 Mo5 2.601891 1_555
Al84 Mo5 2.601891 1_655
Al84 Mo3 2.601891 1_545
Al84 Al9 2.835560 1_555
Al85 Mo4 2.601891 1_565
Al85 Mo3 2.601891 1_455
