# generated using pymatgen
data_YbEu3O6
_symmetry_space_group_name_H-M   'P 1'
_cell_length_a   9.42300591
_cell_length_b   9.42300591
_cell_length_c   9.42300591
_cell_angle_alpha   109.47122063
_cell_angle_beta   109.47122063
_cell_angle_gamma   109.47122063
_symmetry_Int_Tables_number   1
_chemical_formula_structural   YbEu3O6
_chemical_formula_sum   'Yb4 Eu12 O24'
_cell_volume   644.08991638
_cell_formula_units_Z   4
loop_
 _symmetry_equiv_pos_site_id
 _symmetry_equiv_pos_as_xyz
  1  'x, y, z'
loop_
 _atom_site_type_symbol
 _atom_site_label
 _atom_site_symmetry_multiplicity
 _atom_site_fract_x
 _atom_site_fract_y
 _atom_site_fract_z
 _atom_site_occupancy
  Yb  Yb0  1  0.50000000  0.50000000  0.50000000  1
  Yb  Yb1  1  0.00000000  0.50000000  0.00000000  1
  Yb  Yb2  1  0.00000000  0.00000000  0.50000000  1
  Yb  Yb3  1  0.50000000  0.00000000  0.00000000  1
  Eu  Eu0  1  0.21822300  0.96822300  0.25000000  1
  Eu  Eu1  1  0.78177700  0.03177700  0.75000000  1
  Eu  Eu2  1  0.28177700  0.53177700  0.75000000  1
  Eu  Eu3  1  0.96822300  0.25000000  0.21822300  1
  Eu  Eu4  1  0.71822300  0.46822300  0.25000000  1
  Eu  Eu5  1  0.03177700  0.75000000  0.78177700  1
  Eu  Eu6  1  0.53177700  0.75000000  0.28177700  1
  Eu  Eu7  1  0.46822300  0.25000000  0.71822300  1
  Eu  Eu8  1  0.25000000  0.21822300  0.96822300  1
  Eu  Eu9  1  0.75000000  0.78177700  0.03177700  1
  Eu  Eu10  1  0.75000000  0.28177700  0.53177700  1
  Eu  Eu11  1  0.25000000  0.71822300  0.46822300  1
  O  O0  1  0.04241200  0.26932300  0.00857800  1
  O  O1  1  0.95758800  0.73067700  0.99142200  1
  O  O2  1  0.45758800  0.46616700  0.22691100  1
  O  O3  1  0.73925600  0.23067700  0.27308900  1
  O  O4  1  0.26932300  0.00857800  0.04241200  1
  O  O5  1  0.54241200  0.53383300  0.77308900  1
  O  O6  1  0.26074400  0.76932300  0.72691100  1
  O  O7  1  0.73067700  0.99142200  0.95758800  1
  O  O8  1  0.76074400  0.03383300  0.49142200  1
  O  O9  1  0.46616700  0.22691100  0.45758800  1
  O  O10  1  0.23925600  0.96616700  0.50857800  1
  O  O11  1  0.53383300  0.77308900  0.54241200  1
  O  O12  1  0.23067700  0.27308900  0.73925600  1
  O  O13  1  0.76932300  0.72691100  0.26074400  1
  O  O14  1  0.03383300  0.49142200  0.76074400  1
  O  O15  1  0.96616700  0.50857800  0.23925600  1
  O  O16  1  0.00857800  0.04241200  0.26932300  1
  O  O17  1  0.99142200  0.95758800  0.73067700  1
  O  O18  1  0.27308900  0.73925600  0.23067700  1
  O  O19  1  0.72691100  0.26074400  0.76932300  1
  O  O20  1  0.49142200  0.76074400  0.03383300  1
  O  O21  1  0.50857800  0.23925600  0.96616700  1
  O  O22  1  0.22691100  0.45758800  0.46616700  1
  O  O23  1  0.77308900  0.54241200  0.53383300  1
loop_
_geom_bond_atom_site_label_1
_geom_bond_atom_site_label_2
_geom_bond_distance
_geom_bond_site_symmetry_2
Eu0 O4 2.281348 1_565
Eu0 O9 2.281352 1_565
Eu0 O18 2.345208 1_555
Eu0 O16 2.345217 1_565
Eu0 O10 2.385094 1_555
Eu0 O1 2.385100 1_454
Eu1 O7 2.281348 1_545
Eu1 O11 2.281352 1_545
Eu1 O19 2.345208 1_555
Eu1 O17 2.345217 1_545
Eu1 O8 2.385094 1_555
Eu1 O0 2.385100 1_656
Eu2 O12 2.281352 1_555
Eu2 O14 2.281353 1_555
Eu2 O22 2.345208 1_555
Eu2 O20 2.345209 1_556
Eu2 O6 2.385104 1_555
Eu2 O5 2.385104 1_555
Eu3 O16 2.281348 1_655
Eu3 O22 2.281352 1_655
Eu3 O3 2.345208 1_555
Eu3 O0 2.345217 1_655
Eu3 O15 2.385094 1_555
Eu3 O7 2.385100 1_544
Eu4 O13 2.281352 1_555
Eu4 O15 2.281353 1_555
Eu4 O23 2.345208 1_555
Eu4 O21 2.345209 1_554
Eu4 O2 2.385104 1_555
Eu4 O3 2.385104 1_555
Eu5 O17 2.281348 1_455
Eu5 O23 2.281352 1_455
Eu5 O6 2.345208 1_555
Eu5 O1 2.345217 1_455
Eu5 O14 2.385094 1_555
Eu5 O4 2.385100 1_566
Eu6 O18 2.281352 1_555
Eu6 O20 2.281353 1_555
Eu6 O2 2.345208 1_555
Eu6 O8 2.345209 1_565
Eu6 O13 2.385104 1_555
Eu6 O11 2.385104 1_555
Eu7 O19 2.281352 1_555
Eu7 O21 2.281353 1_555
Eu7 O5 2.345208 1_555
Eu7 O10 2.345209 1_545
Eu7 O9 2.385104 1_555
Eu7 O12 2.385104 1_555
Eu8 O0 2.281348 1_556
Eu8 O2 2.281352 1_556
Eu8 O12 2.345208 1_555
Eu8 O4 2.345217 1_556
Eu8 O21 2.385094 1_555
Eu8 O17 2.385100 1_445
Eu9 O1 2.281348 1_554
Eu9 O5 2.281352 1_554
Eu9 O13 2.345208 1_555
Eu9 O7 2.345217 1_554
Eu9 O20 2.385094 1_555
Eu9 O16 2.385100 1_665
Eu10 O3 2.281352 1_555
Eu10 O8 2.281353 1_555
Eu10 O9 2.345208 1_555
Eu10 O14 2.345209 1_655
Eu10 O19 2.385104 1_555
Eu10 O23 2.385104 1_555
Eu11 O6 2.281352 1_555
Eu11 O10 2.281353 1_555
Eu11 O11 2.345208 1_555
Eu11 O15 2.345209 1_455
Eu11 O22 2.385104 1_555
Eu11 O18 2.385104 1_555
O0 Yb1 2.359201 1_555
O1 Yb1 2.359201 1_656
O2 Yb0 2.359204 1_555
O3 Yb3 2.359204 1_555
O4 Yb3 2.359201 1_555
O5 Yb0 2.359204 1_555
O6 Yb3 2.359204 1_566
O7 Yb3 2.359201 1_566
O8 Yb2 2.359206 1_655
O9 Yb0 2.359204 1_555
O10 Yb2 2.359206 1_565
O11 Yb0 2.359204 1_555
O12 Yb2 2.359204 1_555
O13 Yb2 2.359204 1_665
O14 Yb1 2.359206 1_556
O15 Yb1 2.359206 1_655
O16 Yb2 2.359201 1_555
O17 Yb2 2.359201 1_665
O18 Yb1 2.359204 1_555
O19 Yb1 2.359204 1_656
O20 Yb3 2.359206 1_565
O21 Yb3 2.359206 1_556
O22 Yb0 2.359204 1_555
O23 Yb0 2.359204 1_555
