# generated using pymatgen
data_Pr5Ge3
_symmetry_space_group_name_H-M   'P 1'
_cell_length_a   8.89979553
_cell_length_b   8.89979867
_cell_length_c   6.82712416
_cell_angle_alpha   90.00000000
_cell_angle_beta   90.00000000
_cell_angle_gamma   120.00001667
_symmetry_Int_Tables_number   1
_chemical_formula_structural   Pr5Ge3
_chemical_formula_sum   'Pr10 Ge6'
_cell_volume   468.30475873
_cell_formula_units_Z   2
loop_
 _symmetry_equiv_pos_site_id
 _symmetry_equiv_pos_as_xyz
  1  'x, y, z'
loop_
 _atom_site_type_symbol
 _atom_site_label
 _atom_site_symmetry_multiplicity
 _atom_site_fract_x
 _atom_site_fract_y
 _atom_site_fract_z
 _atom_site_occupancy
  Pr  Pr0  1  -0.00000000  0.75272685  0.75000000  1
  Pr  Pr1  1  0.00000000  0.24727315  0.25000000  1
  Pr  Pr2  1  0.75272585  0.75272585  0.25000000  1
  Pr  Pr3  1  0.75272585  -0.00000000  0.75000000  1
  Pr  Pr4  1  0.24727415  0.24727415  0.75000000  1
  Pr  Pr5  1  0.24727415  0.00000000  0.25000000  1
  Pr  Pr6  1  0.33333300  0.66666700  0.50000000  1
  Pr  Pr7  1  0.66666700  0.33333300  -0.00000000  1
  Pr  Pr8  1  0.66666700  0.33333300  0.50000000  1
  Pr  Pr9  1  0.33333300  0.66666700  -0.00000000  1
  Ge  Ge0  1  0.39220103  -0.00000000  0.75000000  1
  Ge  Ge1  1  0.39220103  0.39220103  0.25000000  1
  Ge  Ge2  1  0.00000000  0.60779897  0.25000000  1
  Ge  Ge3  1  -0.00000000  0.39220103  0.75000000  1
  Ge  Ge4  1  0.60779897  0.60779897  0.75000000  1
  Ge  Ge5  1  0.60779897  0.00000000  0.25000000  1
loop_
_geom_bond_atom_site_label_1
_geom_bond_atom_site_label_2
_geom_bond_distance
_geom_bond_site_symmetry_2
Ge0 Pr0 3.056984 1_545
Ge0 Pr4 3.056986 1_555
Ge0 Pr3 3.208597 1_555
Ge0 Pr6 3.230177 1_545
Ge0 Pr9 3.230177 1_546
Ge0 Pr7 3.230179 1_556
Ge0 Pr8 3.230179 1_555
Ge0 Pr5 3.649115 1_555
Ge0 Pr5 3.649115 1_556
Ge1 Pr1 3.056984 1_555
Ge1 Pr5 3.056986 1_555
Ge1 Pr2 3.208597 1_555
Ge1 Pr8 3.230184 1_555
Ge1 Pr7 3.230184 1_555
Ge1 Pr6 3.230184 1_555
Ge1 Pr9 3.230184 1_555
Ge1 Pr4 3.649115 1_554
Ge1 Pr4 3.649115 1_555
Ge2 Pr5 3.056986 1_565
Ge2 Pr2 3.056986 1_455
Ge2 Pr1 3.208607 1_555
Ge2 Pr6 3.230176 1_555
Ge2 Pr9 3.230176 1_555
Ge2 Pr8 3.230178 1_455
Ge2 Pr7 3.230178 1_455
Ge2 Pr0 3.649118 1_554
Ge2 Pr0 3.649118 1_555
Ge3 Pr3 3.056986 1_455
Ge3 Pr4 3.056986 1_555
Ge3 Pr0 3.208607 1_555
Ge3 Pr7 3.230176 1_456
Ge3 Pr8 3.230176 1_455
Ge3 Pr6 3.230178 1_555
Ge3 Pr9 3.230178 1_556
Ge3 Pr1 3.649118 1_556
Ge3 Pr1 3.649118 1_555
Ge4 Pr0 3.056984 1_655
Ge4 Pr3 3.056986 1_565
Ge4 Pr4 3.208597 1_555
Ge4 Pr6 3.230184 1_555
Ge4 Pr9 3.230184 1_556
Ge4 Pr7 3.230184 1_556
Ge4 Pr8 3.230184 1_555
Ge4 Pr2 3.649115 1_556
Ge4 Pr2 3.649115 1_555
Ge5 Pr1 3.056984 1_655
Ge5 Pr2 3.056986 1_545
Ge5 Pr5 3.208597 1_555
Ge5 Pr7 3.230177 1_555
Ge5 Pr8 3.230177 1_555
Ge5 Pr6 3.230179 1_545
Ge5 Pr9 3.230179 1_545
Ge5 Pr3 3.649115 1_554
Ge5 Pr3 3.649115 1_555
