# generated using pymatgen
data_Ti2Fe
_symmetry_space_group_name_H-M   'P 1'
_cell_length_a   7.93410719
_cell_length_b   7.93410719
_cell_length_c   7.93410719
_cell_angle_alpha   60.00000000
_cell_angle_beta   60.00000000
_cell_angle_gamma   60.00000000
_symmetry_Int_Tables_number   1
_chemical_formula_structural   Ti2Fe
_chemical_formula_sum   'Ti16 Fe8'
_cell_volume   353.16624960
_cell_formula_units_Z   8
loop_
 _symmetry_equiv_pos_site_id
 _symmetry_equiv_pos_as_xyz
  1  'x, y, z'
loop_
 _atom_site_type_symbol
 _atom_site_label
 _atom_site_symmetry_multiplicity
 _atom_site_fract_x
 _atom_site_fract_y
 _atom_site_fract_z
 _atom_site_occupancy
  Ti  Ti0  1  0.12500000  0.62500000  0.62500000  1
  Ti  Ti1  1  0.62500000  0.12500000  0.62500000  1
  Ti  Ti2  1  0.62500000  0.62500000  0.12500000  1
  Ti  Ti3  1  0.62500000  0.62500000  0.62500000  1
  Ti  Ti4  1  0.81025200  0.81025200  0.18974800  1
  Ti  Ti5  1  0.18974800  0.18974800  0.81025200  1
  Ti  Ti6  1  0.81025200  0.18974800  0.81025200  1
  Ti  Ti7  1  0.18974800  0.81025200  0.18974800  1
  Ti  Ti8  1  0.18974800  0.81025200  0.81025200  1
  Ti  Ti9  1  0.81025200  0.18974800  0.18974800  1
  Ti  Ti10  1  0.43974800  0.43974800  0.06025200  1
  Ti  Ti11  1  0.06025200  0.06025200  0.43974800  1
  Ti  Ti12  1  0.43974800  0.06025200  0.43974800  1
  Ti  Ti13  1  0.06025200  0.43974800  0.06025200  1
  Ti  Ti14  1  0.06025200  0.43974800  0.43974800  1
  Ti  Ti15  1  0.43974800  0.06025200  0.06025200  1
  Fe  Fe0  1  0.76394200  0.41201900  0.41201900  1
  Fe  Fe1  1  0.41201900  0.76394200  0.41201900  1
  Fe  Fe2  1  0.41201900  0.41201900  0.76394200  1
  Fe  Fe3  1  0.41201900  0.41201900  0.41201900  1
  Fe  Fe4  1  0.48605800  0.83798100  0.83798100  1
  Fe  Fe5  1  0.83798100  0.48605800  0.83798100  1
  Fe  Fe6  1  0.83798100  0.83798100  0.48605800  1
  Fe  Fe7  1  0.83798100  0.83798100  0.83798100  1
loop_
_geom_bond_atom_site_label_1
_geom_bond_atom_site_label_2
_geom_bond_distance
_geom_bond_site_symmetry_2
Ti0 Ti8 2.873161 1_555
Ti0 Ti5 2.873161 1_555
Ti0 Ti11 2.873161 1_565
Ti0 Ti13 2.873161 1_556
Ti0 Ti7 2.873161 1_555
Ti0 Ti14 2.873161 1_555
Ti1 Ti6 2.873161 1_555
Ti1 Ti5 2.873161 1_555
Ti1 Ti9 2.873161 1_555
Ti1 Ti15 2.873161 1_556
Ti1 Ti11 2.873161 1_655
Ti1 Ti12 2.873161 1_555
Ti2 Ti9 2.873161 1_555
Ti2 Ti7 2.873161 1_555
Ti2 Ti4 2.873161 1_555
Ti3 Ti8 2.873161 1_555
Ti3 Ti6 2.873161 1_555
Ti3 Ti4 2.873161 1_555
Ti4 Ti7 3.010962 1_655
Ti4 Ti8 3.010962 1_654
Ti4 Ti9 3.010962 1_565
Ti4 Ti6 3.010962 1_564
Ti5 Ti8 3.010962 1_545
Ti5 Ti6 3.010962 1_455
Ti5 Ti7 3.010962 1_546
Ti5 Ti9 3.010962 1_456
Ti6 Ti9 3.010962 1_556
Ti6 Ti8 3.010962 1_645
Ti7 Ti9 3.010962 1_465
Ti7 Ti8 3.010962 1_554
Ti10 Ti3 2.873161 1_554
Ti10 Ti2 2.873161 1_555
Ti10 Ti6 2.963590 1_554
Ti10 Ti8 2.963590 1_554
Ti10 Ti7 2.963590 1_555
Ti10 Ti9 2.963590 1_555
Ti10 Ti12 3.010962 1_555
Ti10 Ti14 3.010962 1_555
Ti10 Ti15 3.010962 1_555
Ti10 Ti13 3.010962 1_555
Ti11 Ti7 2.963590 1_545
Ti11 Ti9 2.963590 1_455
Ti11 Ti8 2.963590 1_545
Ti11 Ti6 2.963590 1_455
Ti11 Ti14 3.010962 1_555
Ti11 Ti15 3.010962 1_555
Ti11 Ti13 3.010962 1_555
Ti11 Ti12 3.010962 1_555
Ti12 Ti3 2.873161 1_545
Ti12 Ti4 2.963590 1_545
Ti12 Ti8 2.963590 1_545
Ti12 Ti9 2.963590 1_555
Ti12 Ti5 2.963590 1_555
Ti12 Ti14 3.010962 1_555
Ti12 Ti15 3.010962 1_555
Ti13 Ti2 2.873161 1_455
Ti13 Ti5 2.963590 1_554
Ti13 Ti9 2.963590 1_455
Ti13 Ti8 2.963590 1_554
Ti13 Ti4 2.963590 1_455
Ti13 Ti14 3.010962 1_555
Ti13 Ti15 3.010962 1_555
Ti14 Ti3 2.873161 1_455
Ti14 Ti6 2.963590 1_455
Ti14 Ti4 2.963590 1_455
Ti14 Ti7 2.963590 1_555
Ti14 Ti5 2.963590 1_555
Ti15 Ti2 2.873161 1_545
Ti15 Ti5 2.963590 1_554
Ti15 Ti7 2.963590 1_545
Ti15 Ti6 2.963590 1_554
Ti15 Ti4 2.963590 1_545
Fe0 Ti1 2.460892 1_555
Fe0 Ti2 2.460892 1_555
Fe0 Ti3 2.460898 1_555
Fe0 Ti13 2.589714 1_655
Fe0 Ti11 2.589714 1_655
Fe0 Ti14 2.589718 1_655
Fe0 Fe1 2.792195 1_555
Fe0 Fe3 2.792195 1_555
Fe0 Fe2 2.792195 1_555
Fe0 Ti9 2.858163 1_555
Fe0 Ti4 2.858170 1_555
Fe0 Ti6 2.858170 1_555
Fe1 Ti0 2.460892 1_555
Fe1 Ti2 2.460892 1_555
Fe1 Ti3 2.460898 1_555
Fe1 Ti11 2.589714 1_565
Fe1 Ti15 2.589714 1_565
Fe1 Ti12 2.589718 1_565
Fe1 Fe2 2.792195 1_555
Fe1 Fe3 2.792195 1_555
Fe1 Ti7 2.858163 1_555
Fe1 Ti4 2.858170 1_555
Fe1 Ti8 2.858170 1_555
Fe2 Ti0 2.460892 1_555
Fe2 Ti1 2.460892 1_555
Fe2 Ti3 2.460898 1_555
Fe2 Ti15 2.589714 1_556
Fe2 Ti13 2.589714 1_556
Fe2 Ti10 2.589718 1_556
Fe2 Fe3 2.792195 1_555
Fe2 Ti5 2.858163 1_555
Fe2 Ti6 2.858170 1_555
Fe2 Ti8 2.858170 1_555
Fe3 Ti0 2.460897 1_555
Fe3 Ti1 2.460897 1_555
Fe3 Ti2 2.460897 1_555
Fe3 Ti12 2.589710 1_555
Fe3 Ti10 2.589710 1_555
Fe3 Ti14 2.589710 1_555
Fe3 Ti5 2.858167 1_555
Fe3 Ti9 2.858167 1_555
Fe3 Ti7 2.858167 1_555
Fe4 Ti1 2.460892 1_565
Fe4 Ti2 2.460892 1_556
Fe4 Ti3 2.460898 1_555
Fe4 Ti7 2.589714 1_556
Fe4 Ti5 2.589714 1_565
Fe4 Ti8 2.589718 1_555
Fe4 Fe6 2.792195 1_555
Fe4 Fe7 2.792195 1_555
Fe4 Fe5 2.792195 1_555
Fe4 Ti15 2.858163 1_566
Fe4 Ti12 2.858170 1_565
Fe4 Ti10 2.858170 1_556
Fe5 Ti0 2.460892 1_655
Fe5 Ti2 2.460892 1_556
Fe5 Ti3 2.460898 1_555
Fe5 Ti9 2.589714 1_556
Fe5 Ti5 2.589714 1_655
Fe5 Ti6 2.589718 1_555
Fe5 Fe6 2.792195 1_555
Fe5 Fe7 2.792195 1_555
Fe5 Ti13 2.858163 1_656
Fe5 Ti10 2.858170 1_556
Fe5 Ti14 2.858170 1_655
Fe6 Ti0 2.460892 1_655
Fe6 Ti1 2.460892 1_565
Fe6 Ti3 2.460898 1_555
Fe6 Ti7 2.589714 1_655
Fe6 Ti9 2.589714 1_565
Fe6 Ti4 2.589718 1_555
Fe6 Fe7 2.792195 1_555
Fe6 Ti11 2.858163 1_665
Fe6 Ti12 2.858170 1_565
Fe6 Ti14 2.858170 1_655
Fe7 Ti2 2.460897 1_556
Fe7 Ti0 2.460897 1_655
Fe7 Ti1 2.460897 1_565
Fe7 Ti6 2.589710 1_565
Fe7 Ti8 2.589710 1_655
Fe7 Ti4 2.589710 1_556
Fe7 Ti11 2.858167 1_665
Fe7 Ti13 2.858167 1_656
Fe7 Ti15 2.858167 1_566
