# generated using pymatgen
data_Nd6Nb4Al43
_symmetry_space_group_name_H-M   'P 1'
_cell_length_a   11.12994046
_cell_length_b   11.12993751
_cell_length_c   17.98112137
_cell_angle_alpha   90.00011011
_cell_angle_beta   90.00013795
_cell_angle_gamma   120.00000704
_symmetry_Int_Tables_number   1
_chemical_formula_structural   Nd6Nb4Al43
_chemical_formula_sum   'Nd12 Nb8 Al86'
_cell_volume   1929.00316555
_cell_formula_units_Z   2
loop_
 _symmetry_equiv_pos_site_id
 _symmetry_equiv_pos_as_xyz
  1  'x, y, z'
loop_
 _atom_site_type_symbol
 _atom_site_label
 _atom_site_symmetry_multiplicity
 _atom_site_fract_x
 _atom_site_fract_y
 _atom_site_fract_z
 _atom_site_occupancy
  Nd  Nd0  1  0.53015423  -0.00000002  0.59561054  1
  Nd  Nd1  1  0.46984659  -0.00000021  0.40435274  1
  Nd  Nd2  1  -0.00000009  0.53015416  0.59561009  1
  Nd  Nd3  1  0.46984830  -0.00000063  0.09563954  1
  Nd  Nd4  1  0.00000032  0.53015694  0.90439820  1
  Nd  Nd5  1  0.00000001  0.46984528  0.40435241  1
  Nd  Nd6  1  0.53015745  0.00000035  0.90439742  1
  Nd  Nd7  1  0.00000052  0.46984501  0.09564092  1
  Nd  Nd8  1  0.46984544  0.46984571  0.59561062  1
  Nd  Nd9  1  0.53015522  0.53015442  0.40435262  1
  Nd  Nd10  1  0.53015436  0.53015353  0.09563979  1
  Nd  Nd11  1  0.46984279  0.46984266  0.90439770  1
  Nb  Nb0  1  -0.00000006  -0.00000004  0.49999154  1
  Nb  Nb1  1  0.00000087  -0.00000126  0.00000809  1
  Nb  Nb2  1  0.72789440  -0.00000046  0.75000039  1
  Nb  Nb3  1  0.27211326  0.00000014  0.25000087  1
  Nb  Nb4  1  0.00000176  0.72789624  0.74999891  1
  Nb  Nb5  1  0.00000023  0.27211292  0.25000041  1
  Nb  Nb6  1  0.27210410  0.27210521  0.74999900  1
  Nb  Nb7  1  0.72788805  0.72788763  0.25000092  1
  Al  Al0  1  0.15409826  0.59845936  0.75000130  1
  Al  Al1  1  0.84590154  0.40154406  0.24999978  1
  Al  Al2  1  0.40154019  0.55564054  0.75000161  1
  Al  Al3  1  0.59846060  0.15410063  0.75000118  1
  Al  Al4  1  0.59845463  0.44435744  0.24999925  1
  Al  Al5  1  0.40154575  0.84590223  0.24999938  1
  Al  Al6  1  0.44436054  0.84590282  0.75000134  1
  Al  Al7  1  0.55563820  0.40154081  0.75000144  1
  Al  Al8  1  0.55564358  0.15409633  0.24999927  1
  Al  Al9  1  0.44435890  0.59845514  0.24999898  1
  Al  Al10  1  0.84590253  0.44436013  0.75000133  1
  Al  Al11  1  0.15409841  0.55564383  0.24999930  1
  Al  Al12  1  0.15774814  -0.00000112  0.11577409  1
  Al  Al13  1  0.84225158  -0.00000003  0.88424122  1
  Al  Al14  1  0.00000078  0.15774935  0.11577269  1
  Al  Al15  1  0.84224659  0.00000070  0.61576123  1
  Al  Al16  1  0.00000041  0.15775318  0.38422204  1
  Al  Al17  1  -0.00000041  0.84224771  0.88424306  1
  Al  Al18  1  0.15775104  0.00000035  0.38422181  1
  Al  Al19  1  0.99999896  0.84224533  0.61576093  1
  Al  Al20  1  0.84225068  0.84224961  0.11577318  1
  Al  Al21  1  0.15774956  0.15775010  0.88424218  1
  Al  Al22  1  0.15775376  0.15775448  0.61576050  1
  Al  Al23  1  0.84224852  0.84224882  0.38422194  1
  Al  Al24  1  0.24747441  0.49494501  0.49999692  1
  Al  Al25  1  0.75252939  0.50505478  0.49999662  1
  Al  Al26  1  0.50505459  0.75252917  0.49999662  1
  Al  Al27  1  0.75252694  0.50505581  0.00000487  1
  Al  Al28  1  0.49494618  0.24747440  0.00000394  1
  Al  Al29  1  0.49494380  0.24747391  0.49999665  1
  Al  Al30  1  0.24747518  0.49494456  0.00000409  1
  Al  Al31  1  0.50505522  0.75252956  0.00000344  1
  Al  Al32  1  0.24746966  0.75252531  0.49999617  1
  Al  Al33  1  0.75252569  0.24746925  0.49999652  1
  Al  Al34  1  0.75252599  0.24747036  0.00000391  1
  Al  Al35  1  0.24747100  0.75252434  0.00000391  1
  Al  Al36  1  0.14691098  -0.00000066  0.75000117  1
  Al  Al37  1  0.85309118  0.00000157  0.24999183  1
  Al  Al38  1  -0.00000041  0.14691411  0.75000119  1
  Al  Al39  1  0.00000098  0.85309020  0.24999184  1
  Al  Al40  1  0.85308656  0.85308556  0.75000126  1
  Al  Al41  1  0.14691423  0.14691522  0.24999819  1
  Al  Al42  1  0.33333309  0.66666727  0.62562438  1
  Al  Al43  1  0.66667867  0.33333708  0.37435769  1
  Al  Al44  1  0.66665196  0.33331756  0.12563786  1
  Al  Al45  1  0.66666608  0.33333329  0.87437512  1
  Al  Al46  1  0.33333233  0.66666665  0.87437512  1
  Al  Al47  1  0.33332260  0.66667056  0.12563614  1
  Al  Al48  1  0.33333400  0.66668321  0.37436252  1
  Al  Al49  1  0.66666576  0.33333307  0.62562434  1
  Al  Al50  1  0.25238158  -0.00000011  0.53004903  1
  Al  Al51  1  0.74762190  -0.00000225  0.46993149  1
  Al  Al52  1  0.00000029  0.25238296  0.53004922  1
  Al  Al53  1  0.74762521  -0.00000008  0.03006504  1
  Al  Al54  1  0.00000119  0.25238328  0.96995198  1
  Al  Al55  1  0.99999866  0.74762086  0.46992916  1
  Al  Al56  1  0.25238278  -0.00000103  0.96995197  1
  Al  Al57  1  -0.00000016  0.74761937  0.03007104  1
  Al  Al58  1  0.74761722  0.74761720  0.53004981  1
  Al  Al59  1  0.25237792  0.25237936  0.46992875  1
  Al  Al60  1  0.25237790  0.25237588  0.03006805  1
  Al  Al61  1  0.74761768  0.74761631  0.96995196  1
  Al  Al62  1  0.15761628  0.39351289  0.66432667  1
  Al  Al63  1  0.84238513  0.60648722  0.33566509  1
  Al  Al64  1  0.60648708  0.76410476  0.66432738  1
  Al  Al65  1  0.84238308  0.60648309  0.16433179  1
  Al  Al66  1  0.39351187  0.15761434  0.83567963  1
  Al  Al67  1  0.39351327  0.23589788  0.33566454  1
  Al  Al68  1  0.15761308  0.39351341  0.83568057  1
  Al  Al69  1  0.60648520  0.84238320  0.16433007  1
  Al  Al70  1  0.23589406  0.84238389  0.66432711  1
  Al  Al71  1  0.39351866  0.23589627  0.16432851  1
  Al  Al72  1  0.76410139  0.60648597  0.83568107  1
  Al  Al73  1  0.76410343  0.15761543  0.33566610  1
  Al  Al74  1  0.60648607  0.76410202  0.83568106  1
  Al  Al75  1  0.23589927  0.39351598  0.16432987  1
  Al  Al76  1  0.60648796  0.84238575  0.33566461  1
  Al  Al77  1  0.39350972  0.15761512  0.66432807  1
  Al  Al78  1  0.76410206  0.15761735  0.16432900  1
  Al  Al79  1  0.23589574  0.39351543  0.33566594  1
  Al  Al80  1  0.23589794  0.84238629  0.83568010  1
  Al  Al81  1  0.76410448  0.60648735  0.66432722  1
  Al  Al82  1  0.84238419  0.23589837  0.83568124  1
  Al  Al83  1  0.15762167  0.76410201  0.16432965  1
  Al  Al84  1  0.15761664  0.76410328  0.33566608  1
  Al  Al85  1  0.84238401  0.23589646  0.66432714  1
loop_
_geom_bond_atom_site_label_1
_geom_bond_atom_site_label_2
_geom_bond_distance
_geom_bond_site_symmetry_2
Nd0 Nd1 3.503919 1_555
Nd2 Nd5 3.503920 1_555
Nd3 Nd6 3.503648 1_554
Nd4 Nd7 3.503665 1_556
Nd8 Nd9 3.503931 1_555
Nd10 Nd11 3.503648 1_554
Nb2 Nd0 3.542655 1_555
Nb2 Nd6 3.542744 1_555
Nb3 Nd1 3.542073 1_555
Nb3 Nd3 3.542228 1_555
Nb4 Nd2 3.542647 1_555
Nb4 Nd4 3.542783 1_555
Nb5 Nd5 3.542068 1_555
Nb5 Nd7 3.542176 1_555
Nb6 Nd8 3.542650 1_555
Nb6 Nd11 3.542760 1_555
Nb7 Nd9 3.542078 1_555
Nb7 Nd10 3.542202 1_555
Al0 Nb4 2.736368 1_555
Al0 Al62 2.768972 1_555
Al0 Al68 2.769003 1_555
Al0 Al46 2.835977 1_555
Al0 Al42 2.836035 1_555
Al0 Al70 2.846215 1_555
Al0 Al80 2.846266 1_555
Al0 Al10 2.970640 1_455
Al0 Al2 3.020628 1_555
Al0 Al6 3.020645 1_555
Al0 Nd2 3.150002 1_555
Al0 Nd4 3.150101 1_555
Al1 Nb5 2.736336 1_655
Al1 Al63 2.768840 1_555
Al1 Al65 2.768843 1_555
Al1 Al43 2.835691 1_555
Al1 Al44 2.835889 1_555
Al1 Al73 2.846171 1_555
Al1 Al78 2.846187 1_555
Al1 Al11 2.970651 1_655
Al1 Al8 3.020633 1_555
Al1 Al4 3.020646 1_555
Al1 Nd5 3.149392 1_655
Al1 Nd7 3.149503 1_655
Al2 Nb6 2.736387 1_555
Al2 Al64 2.768976 1_555
Al2 Al74 2.769000 1_555
Al2 Al46 2.835976 1_555
Al2 Al42 2.836029 1_555
Al2 Al62 2.846207 1_555
Al2 Al68 2.846279 1_555
Al2 Al7 2.970660 1_555
Al2 Al6 3.020638 1_555
Al2 Nd8 3.150011 1_555
Al2 Nd11 3.150095 1_555
Al3 Nb2 2.736384 1_555
Al3 Al77 2.768981 1_555
Al3 Al66 2.769016 1_555
Al3 Al45 2.835972 1_555
Al3 Al49 2.836021 1_555
Al3 Al85 2.846205 1_555
Al3 Al82 2.846253 1_555
Al3 Al6 2.970659 1_545
Al3 Al7 3.020633 1_555
Al3 Nd0 3.150003 1_555
Al3 Nd6 3.150101 1_555
Al4 Nb7 2.736337 1_555
Al4 Al67 2.768840 1_555
Al4 Al71 2.768867 1_555
Al4 Al43 2.835814 1_555
Al4 Al44 2.835834 1_555
Al4 Al63 2.846169 1_555
Al4 Al65 2.846174 1_555
Al4 Al9 2.970618 1_555
Al4 Al8 3.020664 1_555
Al4 Nd9 3.149400 1_555
Al4 Nd10 3.149496 1_555
Al5 Nb3 2.736341 1_565
Al5 Al76 2.768831 1_555
Al5 Al69 2.768864 1_555
Al5 Al83 2.846152 1_555
Al5 Al84 2.846178 1_555
Al5 Al8 2.970624 1_565
Al5 Al9 3.020646 1_555
Al5 Nd1 3.149400 1_565
Al5 Nd3 3.149509 1_565
Al6 Nb2 2.736372 1_565
Al6 Al70 2.768982 1_555
Al6 Al80 2.769008 1_555
Al6 Al64 2.846207 1_555
Al6 Al74 2.846271 1_555
Al6 Nd0 3.150000 1_565
Al6 Nd6 3.150077 1_565
Al7 Nb6 2.736376 1_555
Al7 Al81 2.768985 1_555
Al7 Al72 2.769007 1_555
Al7 Al77 2.846206 1_555
Al7 Nd8 3.149997 1_555
Al7 Nd11 3.150084 1_555
Al8 Nb3 2.736339 1_555
Al8 Nd1 3.149407 1_555
Al8 Nd3 3.149497 1_555
Al9 Nb7 2.736328 1_555
Al9 Nd9 3.149406 1_555
Al9 Nd10 3.149495 1_555
Al10 Nb4 2.736394 1_655
Al10 Al85 2.768957 1_555
Al10 Al82 2.769003 1_555
Al10 Al45 2.836000 1_555
Al10 Al49 2.836036 1_555
Al10 Al81 2.846214 1_555
Al10 Al72 2.846277 1_555
Al10 Al3 3.020619 1_555
Al10 Al7 3.020666 1_555
Al10 Nd2 3.150009 1_655
Al10 Nd4 3.150090 1_655
Al11 Nb5 2.736345 1_555
Al11 Al83 2.768845 1_555
Al11 Al84 2.768846 1_555
Al11 Al47 2.835783 1_555
Al11 Al48 2.835846 1_555
Al11 Al79 2.846146 1_555
Al11 Al75 2.846192 1_555
Al11 Al5 3.020634 1_555
Al11 Al9 3.020657 1_555
Al11 Nd5 3.149410 1_555
Al11 Nd7 3.149481 1_555
Al12 Nb1 2.723159 1_555
Al12 Nb3 2.728626 1_555
Al12 Al71 2.766204 1_555
Al12 Al83 2.766212 1_545
Al12 Al56 2.825691 1_554
Al12 Al57 2.901011 1_545
Al12 Al60 2.901029 1_555
Al12 Al39 2.951231 1_545
Al12 Al41 2.951348 1_555
Al12 Al20 3.041020 1_445
Al12 Al14 3.041024 1_555
Al12 Nd3 3.492470 1_555
Al13 Nb1 2.723190 1_656
Al13 Nb2 2.728810 1_555
Al13 Al74 2.766213 1_545
Al13 Al82 2.766221 1_555
Al13 Al53 2.825685 1_556
Al13 Al54 2.901114 1_655
Al13 Al61 2.901126 1_545
Al13 Al40 2.951573 1_545
Al13 Al38 2.951577 1_655
Al13 Al21 3.041025 1_655
Al13 Al17 3.041047 1_645
Al13 Nd6 3.492449 1_555
Al14 Nb1 2.723165 1_555
Al14 Nb5 2.728638 1_555
Al14 Al75 2.766205 1_555
Al14 Al78 2.766208 1_455
Al14 Al54 2.825663 1_554
Al14 Al60 2.901022 1_555
Al14 Al53 2.901027 1_455
Al14 Al37 2.951256 1_455
Al14 Al41 2.951351 1_555
Al14 Al20 3.041041 1_445
Al14 Nd7 3.492418 1_555
Al15 Nb0 2.723263 1_655
Al15 Nb2 2.728761 1_555
Al15 Al85 2.766199 1_555
Al15 Al64 2.766212 1_545
Al15 Al51 2.825766 1_555
Al15 Al58 2.901129 1_545
Al15 Al52 2.901134 1_655
Al15 Al38 2.951579 1_655
Al15 Al40 2.951601 1_545
Al15 Al22 3.041114 1_655
Al15 Al19 3.041119 1_545
Al15 Nd0 3.492411 1_555
Al16 Nb0 2.723254 1_555
Al16 Nb5 2.728524 1_555
Al16 Al73 2.766153 1_455
Al16 Al79 2.766166 1_555
Al16 Al52 2.825751 1_555
Al16 Al59 2.901036 1_555
Al16 Al51 2.901085 1_455
Al16 Al41 2.951349 1_555
Al16 Al37 2.951419 1_455
Al16 Al18 3.041078 1_555
Al16 Al23 3.041086 1_445
Al16 Nd5 3.492376 1_555
Al17 Nb1 2.723169 1_566
Al17 Nb4 2.728840 1_555
Al17 Al72 2.766205 1_455
Al17 Al80 2.766207 1_555
Al17 Al57 2.825762 1_556
Al17 Al61 2.901098 1_455
Al17 Al56 2.901098 1_565
Al17 Al40 2.951601 1_455
Al17 Al36 2.951609 1_565
Al17 Al21 3.041067 1_565
Al17 Nd4 3.492410 1_555
Al18 Nb0 2.723243 1_555
Al18 Nb3 2.728527 1_555
Al18 Al84 2.766171 1_545
Al18 Al67 2.766185 1_555
Al18 Al50 2.825755 1_555
Al18 Al59 2.901050 1_555
Al18 Al55 2.901067 1_445
Al18 Al41 2.951347 1_555
Al18 Al39 2.951413 1_545
Al18 Al23 3.041069 1_445
Al18 Nd1 3.492417 1_555
Al19 Nb0 2.723261 1_665
Al19 Nb4 2.728736 1_655
Al19 Al70 2.766187 1_655
Al19 Al81 2.766197 1_555
Al19 Al55 2.825805 1_555
Al19 Al58 2.901113 1_555
Al19 Al50 2.901138 1_665
Al19 Al36 2.951583 1_665
Al19 Al40 2.951590 1_555
Al19 Al22 3.041132 1_665
Al19 Nd2 3.492407 1_655
Al20 Nb1 2.723173 1_665
Al20 Nb7 2.728637 1_555
Al20 Al69 2.766207 1_555
Al20 Al65 2.766220 1_555
Al20 Al61 2.825663 1_554
Al20 Al57 2.901009 1_655
Al20 Al53 2.901040 1_565
Al20 Al39 2.951249 1_655
Al20 Al37 2.951260 1_565
Al20 Nd10 3.492424 1_555
Al21 Nb1 2.723187 1_556
Al21 Nb6 2.728844 1_555
Al21 Al66 2.766217 1_555
Al21 Al68 2.766225 1_555
Al21 Al60 2.825715 1_556
Al21 Al54 2.901097 1_555
Al21 Al56 2.901121 1_555
Al21 Al36 2.951586 1_555
Al21 Al38 2.951588 1_555
Al21 Nd11 3.492428 1_555
Al22 Nb0 2.723247 1_555
Al22 Nb6 2.728737 1_555
Al22 Al77 2.766193 1_555
Al22 Al62 2.766201 1_555
Al22 Al59 2.825811 1_555
Al22 Al52 2.901119 1_555
Al22 Al50 2.901126 1_555
Al22 Al36 2.951603 1_555
Al22 Al38 2.951605 1_555
Al22 Nd8 3.492405 1_555
Al23 Nb0 2.723235 1_665
Al23 Nb7 2.728513 1_555
Al23 Al76 2.766171 1_555
Al23 Al63 2.766177 1_555
Al23 Al58 2.825775 1_555
Al23 Al55 2.901047 1_555
Al23 Al51 2.901049 1_565
Al23 Al37 2.951433 1_565
Al23 Al39 2.951436 1_655
Al23 Nd9 3.492396 1_555
Al24 Al52 2.780465 1_555
Al24 Al59 2.780508 1_555
Al24 Al42 2.800426 1_555
Al24 Al48 2.800627 1_555
Al24 Al26 2.866874 1_555
Al24 Al32 2.866879 1_555
Al24 Nd8 3.138585 1_555
Al24 Nd5 3.138923 1_555
Al24 Al79 3.142723 1_555
Al24 Al62 3.142726 1_555
Al24 Nd2 3.431517 1_555
Al24 Nd9 3.431770 1_555
Al25 Al58 2.780469 1_555
Al25 Al55 2.780512 1_555
Al25 Al49 2.800436 1_555
Al25 Al43 2.800566 1_555
Al25 Al29 2.866885 1_555
Al25 Al33 2.866890 1_555
Al25 Nd2 3.138583 1_655
Al25 Nd9 3.138914 1_555
Al25 Al81 3.142733 1_555
Al25 Al63 3.142753 1_555
Al25 Nd8 3.431529 1_555
Al25 Nd5 3.431761 1_655
Al26 Al58 2.780471 1_555
Al26 Al51 2.780506 1_565
Al26 Al42 2.800436 1_555
Al26 Al48 2.800512 1_555
Al26 Al32 2.866883 1_555
Al26 Nd0 3.138589 1_565
Al26 Nd9 3.138925 1_555
Al26 Al64 3.142735 1_555
Al26 Al76 3.142764 1_555
Al26 Nd8 3.431522 1_555
Al26 Nd1 3.431749 1_565
Al27 Al61 2.780433 1_554
Al27 Al57 2.780510 1_655
Al27 Al45 2.800460 1_554
Al27 Al44 2.800607 1_555
Al27 Al28 2.866861 1_555
Al27 Al34 2.866905 1_555
Al27 Nd4 3.138543 1_654
Al27 Nd10 3.138805 1_555
Al27 Al72 3.142615 1_554
Al27 Al65 3.142655 1_555
Al27 Nd11 3.431445 1_554
Al27 Nd7 3.431718 1_655
Al28 Al56 2.780473 1_554
Al28 Al60 2.780514 1_555
Al28 Al44 2.800425 1_555
Al28 Al45 2.800442 1_554
Al28 Al34 2.866870 1_555
Al28 Nd11 3.138512 1_554
Al28 Nd3 3.138855 1_555
Al28 Al71 3.142613 1_555
Al28 Al66 3.142633 1_554
Al28 Nd6 3.431459 1_554
Al28 Nd10 3.431675 1_555
Al29 Al50 2.780465 1_555
Al29 Al59 2.780521 1_555
Al29 Al49 2.800427 1_555
Al29 Al43 2.800675 1_555
Al29 Al33 2.866897 1_555
Al29 Nd8 3.138590 1_555
Al29 Nd1 3.138924 1_555
Al29 Al67 3.142749 1_555
Al29 Al77 3.142759 1_555
Al29 Nd0 3.431524 1_555
Al29 Nd9 3.431756 1_555
Al30 Al54 2.780455 1_554
Al30 Al60 2.780524 1_555
Al30 Al46 2.800456 1_554
Al30 Al47 2.800514 1_555
Al30 Al35 2.866870 1_555
Al30 Al31 2.866877 1_555
Al30 Nd11 3.138501 1_554
Al30 Nd7 3.138858 1_555
Al30 Al68 3.142616 1_554
Al30 Al75 3.142640 1_555
Al30 Nd4 3.431467 1_554
Al30 Nd10 3.431671 1_555
Al31 Al61 2.780473 1_554
Al31 Al53 2.780514 1_565
Al31 Al46 2.800442 1_554
Al31 Al47 2.800571 1_555
Al31 Al35 2.866868 1_555
Al31 Nd6 3.138507 1_564
Al31 Nd10 3.138858 1_555
Al31 Al74 3.142597 1_554
Al31 Al69 3.142652 1_555
Al31 Nd11 3.431461 1_554
Al31 Nd3 3.431660 1_565
Al32 Al50 2.780469 1_565
Al32 Al55 2.780519 1_455
Al32 Al48 2.800431 1_555
Al32 Al42 2.800437 1_555
Al32 Nd2 3.138593 1_555
Al32 Nd1 3.138931 1_565
Al32 Al84 3.142715 1_555
Al32 Al70 3.142745 1_555
Al32 Nd0 3.431524 1_565
Al32 Nd5 3.431743 1_555
Al33 Al52 2.780460 1_655
Al33 Al51 2.780521 1_555
Al33 Al49 2.800445 1_555
Al33 Al43 2.800553 1_555
Al33 Nd0 3.138592 1_555
Al33 Nd5 3.138934 1_655
Al33 Al73 3.142723 1_555
Al33 Al85 3.142732 1_555
Al33 Nd2 3.431517 1_655
Al33 Nd1 3.431737 1_555
Al34 Al54 2.780470 1_654
Al34 Al53 2.780514 1_555
Al34 Al45 2.800453 1_554
Al34 Al44 2.800519 1_555
Al34 Nd6 3.138498 1_554
Al34 Nd7 3.138847 1_655
Al34 Al82 3.142599 1_554
Al34 Al78 3.142629 1_555
Al34 Nd4 3.431469 1_654
Al34 Nd3 3.431675 1_555
Al35 Al56 2.780469 1_564
Al35 Al57 2.780522 1_555
Al35 Al47 2.800403 1_555
Al35 Al46 2.800432 1_554
Al35 Nd4 3.138490 1_554
Al35 Nd3 3.138846 1_565
Al35 Al83 3.142631 1_555
Al35 Al80 3.142635 1_554
Al35 Nd6 3.431482 1_564
Al35 Nd7 3.431694 1_555
Al36 Nb4 2.625532 1_545
Al36 Nb6 2.625560 1_555
Al36 Al40 2.832118 1_445
Al36 Al38 2.832135 1_555
Al36 Al77 2.858109 1_555
Al36 Al70 2.858110 1_545
Al36 Al66 2.858164 1_555
Al36 Al80 2.858165 1_545
Al37 Nb5 2.625609 1_655
Al37 Nb7 2.625634 1_545
Al37 Al39 2.832087 1_645
Al37 Al41 2.832105 1_655
Al37 Al69 2.858044 1_545
Al37 Al78 2.858049 1_555
Al37 Al73 2.858132 1_555
Al37 Al76 2.858138 1_545
Al38 Nb6 2.625548 1_555
Al38 Nb2 2.625555 1_455
Al38 Al40 2.832157 1_445
Al38 Al85 2.858105 1_455
Al38 Al62 2.858123 1_555
Al38 Al68 2.858159 1_555
Al38 Al82 2.858178 1_455
Al39 Nb3 2.625619 1_565
Al39 Nb7 2.625626 1_455
Al39 Al41 2.832123 1_565
Al39 Al65 2.858035 1_455
Al39 Al83 2.858080 1_555
Al39 Al63 2.858140 1_455
Al39 Al84 2.858141 1_555
Al40 Nb4 2.625549 1_655
Al40 Nb2 2.625564 1_565
Al40 Al81 2.858104 1_555
Al40 Al64 2.858116 1_555
Al40 Al72 2.858176 1_555
Al40 Al74 2.858187 1_555
Al41 Nb5 2.625616 1_555
Al41 Nb3 2.625639 1_555
Al41 Al67 2.858037 1_555
Al41 Al79 2.858062 1_555
Al41 Al75 2.858075 1_555
Al41 Al71 2.858128 1_555
Al42 Al64 2.757919 1_555
Al42 Al62 2.757924 1_555
Al42 Al70 2.757933 1_555
Al42 Al6 2.836029 1_555
Al42 Nd0 3.275184 1_565
Al42 Nd2 3.275185 1_555
Al42 Nd8 3.275194 1_555
Al43 Al73 2.757815 1_555
Al43 Al63 2.757826 1_555
Al43 Al67 2.757986 1_555
Al43 Al8 2.835802 1_555
Al43 Nd5 3.275014 1_655
Al43 Nd1 3.275182 1_555
Al43 Nd9 3.275194 1_555
Al44 Al71 2.757688 1_555
Al44 Al78 2.757808 1_555
Al44 Al65 2.757998 1_555
Al44 Al8 2.835724 1_555
Al44 Nd3 3.274985 1_555
Al44 Nd10 3.275161 1_555
Al44 Nd7 3.275276 1_655
Al45 Al72 2.757873 1_555
Al45 Al82 2.757875 1_555
Al45 Al66 2.757890 1_555
Al45 Al7 2.835987 1_555
Al45 Nd11 3.275211 1_555
Al45 Nd6 3.275215 1_555
Al45 Nd4 3.275224 1_655
Al46 Al68 2.757878 1_555
Al46 Al74 2.757884 1_555
Al46 Al80 2.757891 1_555
Al46 Al6 2.835999 1_555
Al46 Nd4 3.275207 1_555
Al46 Nd6 3.275218 1_565
Al46 Nd11 3.275227 1_555
Al47 Al83 2.757672 1_555
Al47 Al75 2.757911 1_555
Al47 Al69 2.757942 1_555
Al47 Al5 2.835797 1_555
Al47 Al9 2.835929 1_555
Al47 Nd7 3.275036 1_555
Al47 Nd3 3.275078 1_565
Al47 Nd10 3.275286 1_555
Al48 Al84 2.757754 1_555
Al48 Al76 2.757876 1_555
Al48 Al79 2.758027 1_555
Al48 Al5 2.835735 1_555
Al48 Al9 2.835938 1_555
Al48 Nd1 3.274947 1_565
Al48 Nd5 3.275145 1_555
Al48 Nd9 3.275266 1_555
Al49 Al81 2.757919 1_555
Al49 Al85 2.757930 1_555
Al49 Al77 2.757947 1_555
Al49 Al7 2.836037 1_555
Al49 Nd8 3.275183 1_555
Al49 Nd0 3.275184 1_555
Al49 Nd2 3.275199 1_655
Al50 Nb0 2.860514 1_555
Al50 Al70 2.935789 1_545
Al50 Al77 2.935791 1_555
Al50 Al55 3.009814 1_445
Al50 Al59 3.009826 1_555
Al50 Nd0 3.308725 1_555
Al50 Nd1 3.311579 1_555
Al51 Nb0 2.860471 1_655
Al51 Al76 2.935615 1_545
Al51 Al73 2.935628 1_555
Al51 Al58 3.009781 1_545
Al51 Al52 3.009808 1_655
Al51 Nd1 3.308874 1_555
Al51 Nd0 3.311398 1_555
Al52 Nb0 2.860527 1_555
Al52 Al62 2.935775 1_555
Al52 Al85 2.935792 1_455
Al52 Al59 3.009809 1_555
Al52 Nd2 3.308708 1_555
Al52 Nd5 3.311563 1_555
Al53 Nb1 2.860455 1_655
Al53 Al78 2.935611 1_555
Al53 Al69 2.935632 1_545
Al53 Al61 3.009760 1_544
Al53 Al54 3.009765 1_654
Al53 Nd3 3.308855 1_555
Al53 Nd6 3.311243 1_554
Al54 Nb1 2.860540 1_556
Al54 Al68 2.935683 1_555
Al54 Al82 2.935687 1_455
Al54 Al60 3.009786 1_556
Al54 Nd4 3.308695 1_555
Al54 Nd7 3.311457 1_556
Al55 Nb0 2.860495 1_665
Al55 Al63 2.935578 1_555
Al55 Al84 2.935594 1_655
Al55 Al58 3.009812 1_555
Al55 Nd5 3.308860 1_655
Al55 Nd2 3.311408 1_655
Al56 Nb1 2.860513 1_556
Al56 Al80 2.935678 1_545
Al56 Al66 2.935707 1_555
Al56 Al60 3.009775 1_556
Al56 Al57 3.009820 1_546
Al56 Nd6 3.308700 1_555
Al56 Nd3 3.311466 1_556
Al57 Nb1 2.860503 1_565
Al57 Al83 2.935545 1_555
Al57 Al65 2.935559 1_455
Al57 Al61 3.009807 1_454
Al57 Nd7 3.308804 1_555
Al57 Nd4 3.311264 1_554
Al58 Nb0 2.860531 1_665
Al58 Al81 2.935786 1_555
Al58 Al64 2.935793 1_555
Al58 Nd8 3.308717 1_555
Al58 Nd9 3.311557 1_555
Al59 Nb0 2.860502 1_555
Al59 Al79 2.935591 1_555
Al59 Al67 2.935605 1_555
Al59 Nd9 3.308862 1_555
Al59 Nd8 3.311406 1_555
Al60 Nb1 2.860470 1_555
Al60 Al71 2.935572 1_555
Al60 Al75 2.935584 1_555
Al60 Nd10 3.308834 1_555
Al60 Nd11 3.311270 1_554
Al61 Nb1 2.860520 1_666
Al61 Al72 2.935676 1_555
Al61 Al74 2.935691 1_555
Al61 Nd11 3.308693 1_555
Al61 Nd10 3.311462 1_556
Al62 Nb6 2.746729 1_555
Al62 Al85 3.038464 1_455
Al62 Al68 3.081135 1_555
Al62 Nd2 3.095948 1_555
Al62 Nd8 3.372298 1_555
Al63 Nb7 2.746662 1_555
Al63 Al84 3.038457 1_655
Al63 Al65 3.080765 1_555
Al63 Nd5 3.095730 1_655
Al63 Nd9 3.372118 1_555
Al64 Nb2 2.746726 1_565
Al64 Al81 3.038489 1_555
Al64 Al74 3.081131 1_555
Al64 Nd8 3.095958 1_555
Al64 Nd0 3.372289 1_565
Al65 Nb7 2.746729 1_555
Al65 Al83 3.038525 1_655
Al65 Nd7 3.095747 1_655
Al65 Nd10 3.372137 1_555
Al66 Nb6 2.746838 1_555
Al66 Al7 2.846265 1_555
Al66 Al80 3.038423 1_545
Al66 Al77 3.081093 1_555
Al66 Nd6 3.095973 1_555
Al66 Nd11 3.372301 1_555
Al67 Nb3 2.746654 1_555
Al67 Al8 2.846181 1_555
Al67 Al79 3.038491 1_555
Al67 Al71 3.080814 1_555
Al67 Nd9 3.095729 1_555
Al67 Nd1 3.372133 1_555
Al68 Nb6 2.746853 1_555
Al68 Al82 3.038432 1_455
Al68 Nd4 3.095943 1_555
Al68 Nd11 3.372314 1_555
Al69 Nb7 2.746737 1_555
Al69 Al9 2.846186 1_555
Al69 Al78 3.038481 1_565
Al69 Al76 3.080787 1_555
Al69 Nd3 3.095722 1_565
Al69 Nd10 3.372131 1_555
Al70 Nb4 2.746703 1_555
Al70 Al77 3.038453 1_565
Al70 Al80 3.081119 1_555
Al70 Nd0 3.095975 1_565
Al70 Nd2 3.372293 1_555
Al71 Nb3 2.746739 1_555
Al71 Al8 2.846172 1_555
Al71 Al75 3.038530 1_555
Al71 Nd10 3.095751 1_555
Al71 Nd3 3.372097 1_555
Al72 Nb4 2.746873 1_655
Al72 Al74 3.038455 1_555
Al72 Al81 3.081134 1_555
Al72 Nd11 3.095961 1_555
Al72 Nd4 3.372299 1_655
Al73 Nb5 2.746677 1_655
Al73 Al8 2.768846 1_555
Al73 Al76 3.038438 1_545
Al73 Al78 3.080833 1_555
Al73 Nd1 3.095731 1_555
Al73 Nd5 3.372098 1_655
Al74 Nb2 2.746834 1_565
Al74 Nd11 3.095967 1_555
Al74 Nd6 3.372285 1_565
Al75 Nb5 2.746744 1_555
Al75 Al9 2.768858 1_555
Al75 Al79 3.080815 1_555
Al75 Nd10 3.095741 1_555
Al75 Nd7 3.372111 1_555
Al76 Nb7 2.746663 1_555
Al76 Al9 2.846166 1_555
Al76 Nd1 3.095724 1_565
Al76 Nd9 3.372134 1_555
Al77 Nb6 2.746717 1_555
Al77 Nd0 3.095972 1_555
Al77 Nd8 3.372312 1_555
Al78 Nb5 2.746736 1_655
Al78 Al8 2.768865 1_555
Al78 Nd3 3.095717 1_555
Al78 Nd7 3.372109 1_655
Al79 Nb5 2.746655 1_555
Al79 Al9 2.768866 1_555
Al79 Nd9 3.095747 1_555
Al79 Nd5 3.372074 1_555
Al80 Nb4 2.746819 1_555
Al80 Nd6 3.095964 1_565
Al80 Nd4 3.372317 1_555
Al81 Nb4 2.746732 1_655
Al81 Nd8 3.095957 1_555
Al81 Nd2 3.372297 1_655
Al82 Nb2 2.746837 1_555
Al82 Al85 3.081139 1_555
Al82 Nd4 3.095954 1_655
Al82 Nd6 3.372287 1_555
Al83 Nb3 2.746734 1_565
Al83 Al84 3.080821 1_555
Al83 Nd7 3.095740 1_555
Al83 Nd3 3.372113 1_565
Al84 Nb3 2.746672 1_565
Al84 Nd5 3.095738 1_555
Al84 Nd1 3.372101 1_565
Al85 Nb2 2.746754 1_555
Al85 Nd2 3.095956 1_655
Al85 Nd0 3.372297 1_555
