# generated using pymatgen
data_Cs2Ge(TeO4)3
_symmetry_space_group_name_H-M   'P 1'
_cell_length_a   7.03082172
_cell_length_b   7.03082172
_cell_length_c   7.03082202
_cell_angle_alpha   61.50314131
_cell_angle_beta   61.50314131
_cell_angle_gamma   61.50313959
_symmetry_Int_Tables_number   1
_chemical_formula_structural   Cs2Ge(TeO4)3
_chemical_formula_sum   'Cs2 Ge1 Te3 O12'
_cell_volume   254.04753300
_cell_formula_units_Z   1
loop_
 _symmetry_equiv_pos_site_id
 _symmetry_equiv_pos_as_xyz
  1  'x, y, z'
loop_
 _atom_site_type_symbol
 _atom_site_label
 _atom_site_symmetry_multiplicity
 _atom_site_fract_x
 _atom_site_fract_y
 _atom_site_fract_z
 _atom_site_occupancy
  Cs  Cs0  1  0.37175004  0.37175004  0.37175004  1
  Cs  Cs1  1  0.62824996  0.62824996  0.62824996  1
  Ge  Ge0  1  -0.00000000  -0.00000000  0.00000000  1
  Te  Te0  1  0.50000000  -0.00000000  0.00000000  1
  Te  Te1  1  -0.00000000  -0.00000000  0.50000000  1
  Te  Te2  1  -0.00000000  0.50000000  0.00000000  1
  O  O0  1  0.93387499  0.32350061  0.32350061  1
  O  O1  1  0.31566946  0.93254046  0.93254046  1
  O  O2  1  0.32350061  0.32350061  0.93387499  1
  O  O3  1  0.93254046  0.93254046  0.31566946  1
  O  O4  1  0.93254046  0.31566946  0.93254046  1
  O  O5  1  0.32350061  0.93387499  0.32350061  1
  O  O6  1  0.06612501  0.67649939  0.67649939  1
  O  O7  1  0.68433054  0.06745954  0.06745954  1
  O  O8  1  0.67649939  0.67649939  0.06612501  1
  O  O9  1  0.06745954  0.06745954  0.68433054  1
  O  O10  1  0.06745954  0.68433054  0.06745954  1
  O  O11  1  0.67649939  0.06612501  0.67649939  1
loop_
_geom_bond_atom_site_label_1
_geom_bond_atom_site_label_2
_geom_bond_distance
_geom_bond_site_symmetry_2
Cs0 O10 3.062437 1_555
Cs0 O7 3.062437 1_555
Cs0 O9 3.062437 1_555
Cs0 O11 3.064834 1_555
Cs0 O6 3.064834 1_555
Cs0 O8 3.064834 1_555
Cs1 O1 3.062437 1_555
Cs1 O4 3.062437 1_555
Cs1 O3 3.062437 1_555
Cs1 O0 3.064834 1_555
Cs1 O5 3.064834 1_555
Cs1 O2 3.064834 1_555
Ge0 O7 1.892468 1_455
Ge0 O10 1.892468 1_545
Ge0 O1 1.892468 1_544
Ge0 O4 1.892468 1_454
Ge0 O9 1.892469 1_554
Ge0 O3 1.892469 1_445
O0 Te1 1.943586 1_655
O0 Te2 1.943586 1_655
O1 Te0 1.875438 1_566
O2 Te0 1.943586 1_556
O2 Te2 1.943586 1_556
O3 Te1 1.875438 1_665
O4 Te2 1.875438 1_656
O5 Te1 1.943586 1_565
O5 Te0 1.943586 1_565
O6 Te1 1.943586 1_565
O6 Te2 1.943586 1_556
O7 Te0 1.875438 1_555
O8 Te0 1.943586 1_565
O8 Te2 1.943586 1_655
O9 Te1 1.875438 1_555
O10 Te2 1.875438 1_555
O11 Te1 1.943586 1_655
O11 Te0 1.943586 1_556
