# generated using pymatgen
data_B6P2H14N2O19
_symmetry_space_group_name_H-M   'P 1'
_cell_length_a   4.55080700
_cell_length_b   9.54405319
_cell_length_c   11.05001432
_cell_angle_alpha   81.85674500
_cell_angle_beta   81.97173858
_cell_angle_gamma   82.23648570
_symmetry_Int_Tables_number   1
_chemical_formula_structural   B6P2H14N2O19
_chemical_formula_sum   'B6 P2 H14 N2 O19'
_cell_volume   467.17538251
_cell_formula_units_Z   1
loop_
 _symmetry_equiv_pos_site_id
 _symmetry_equiv_pos_as_xyz
  1  'x, y, z'
loop_
 _atom_site_type_symbol
 _atom_site_label
 _atom_site_symmetry_multiplicity
 _atom_site_fract_x
 _atom_site_fract_y
 _atom_site_fract_z
 _atom_site_occupancy
  B  B0  1  0.08545300  0.73208700  0.26324400  1
  B  B1  1  0.91454700  0.26791300  0.73675600  1
  B  B2  1  0.80771600  0.70113300  0.47551300  1
  B  B3  1  0.19228400  0.29886700  0.52448700  1
  B  B4  1  0.79320000  0.93520100  0.35563200  1
  B  B5  1  0.20680000  0.06479900  0.64436800  1
  P  P0  1  0.64621800  0.68186300  0.12495800  1
  P  P1  1  0.35378200  0.31813700  0.87504200  1
  H  H0  1  0.20251900  0.25131800  0.12549400  1
  H  H1  1  0.79748100  0.74868200  0.87450600  1
  H  H2  1  0.19117500  0.47872400  0.40618600  1
  H  H3  1  0.80882500  0.52127600  0.59381400  1
  H  H4  1  0.91271200  0.36738400  0.18201600  1
  H  H5  1  0.08728800  0.63261600  0.81798400  1
  H  H6  1  0.43405600  0.89139300  0.57916100  1
  H  H7  1  0.56594400  0.10860700  0.42083900  1
  H  H8  1  0.94739300  0.19851400  0.25021000  1
  H  H9  1  0.05260700  0.80148600  0.74979000  1
  H  H10  1  0.19144200  0.31064300  0.26800100  1
  H  H11  1  0.80855800  0.68935700  0.73199900  1
  H  H12  1  0.68928300  0.49841300  0.02236800  1
  H  H13  1  0.31071700  0.50158700  0.97763200  1
  N  N0  1  0.06618900  0.28125600  0.20633100  1
  N  N1  1  0.93381100  0.71874400  0.79366900  1
  O  O0  1  0.41850400  0.70813600  0.23934300  1
  O  O1  1  0.58149600  0.29186400  0.76065700  1
  O  O2  1  0.63065400  0.51364800  0.10863300  1
  O  O3  1  0.36934600  0.48635200  0.89136700  1
  O  O4  1  0.96377800  0.67332300  0.16482300  1
  O  O5  1  0.03622200  0.32667700  0.83517700  1
  O  O6  1  0.59822500  0.77138800  0.00578300  1
  O  O7  1  0.40177500  0.22861200  0.99421700  1
  O  O8  1  0.98569400  0.88186600  0.26446100  1
  O  O9  1  0.01430600  0.11813400  0.73553900  1
  O  O10  1  0.00535200  0.64641600  0.38435700  1
  O  O11  1  0.99464800  0.35358400  0.61564300  1
  O  O12  1  0.28015600  0.37648700  0.41419200  1
  O  O13  1  0.71984400  0.62351300  0.58580800  1
  O  O14  1  0.29559800  0.92099200  0.65158400  1
  O  O15  1  0.70440200  0.07900800  0.34841600  1
  O  O16  1  0.68998700  0.84524200  0.46163600  1
  O  O17  1  0.31001300  0.15475800  0.53836400  1
  O  O18  1  0.00000000  0.00000000  0.00000000  1
loop_
_geom_bond_atom_site_label_1
_geom_bond_atom_site_label_2
_geom_bond_distance
_geom_bond_site_symmetry_2
B0 O8 1.441582 1_455
B0 O10 1.492224 1_555
B0 O4 1.492928 1_455
B0 O0 1.493617 1_555
B1 O9 1.441582 1_655
B1 O11 1.492224 1_555
B1 O5 1.492928 1_655
B1 O1 1.493617 1_555
B2 O10 1.365767 1_655
B2 O13 1.371937 1_555
B2 O16 1.402267 1_555
B3 O11 1.365767 1_455
B3 O12 1.371937 1_555
B3 O17 1.402267 1_555
B4 O8 1.348974 1_555
B4 O15 1.371703 1_565
B4 O16 1.414279 1_555
B5 O9 1.348974 1_555
B5 O14 1.371703 1_545
B5 O17 1.414279 1_555
H0 N0 1.064924 1_555
H0 O7 1.625433 1_554
H1 N1 1.064924 1_555
H1 O6 1.625433 1_556
H2 O12 1.001349 1_555
H3 O13 1.001349 1_555
H4 N0 1.034626 1_655
H5 N1 1.034626 1_455
H6 O14 0.996178 1_555
H6 O16 1.684632 1_555
H7 O15 0.996178 1_555
H7 O17 1.684632 1_555
H8 N0 1.041455 1_655
H9 N1 1.041455 1_455
H10 N0 1.036235 1_555
H11 N1 1.036235 1_555
H12 O2 0.979143 1_555
H13 O3 0.979143 1_555
O0 P0 1.545336 1_555
O1 P1 1.545336 1_555
O2 P0 1.652687 1_555
O3 P1 1.652687 1_555
O4 P0 1.557237 1_555
O5 P1 1.557237 1_555
O6 P0 1.491006 1_555
O7 P1 1.491006 1_555
