# generated using pymatgen
data_NaAl(SO7)2
_symmetry_space_group_name_H-M   'P 1'
_cell_length_a   6.22605914
_cell_length_b   7.53586468
_cell_length_c   25.82975800
_cell_angle_alpha   90.00000000
_cell_angle_beta   90.00000000
_cell_angle_gamma   94.77043299
_symmetry_Int_Tables_number   1
_chemical_formula_structural   NaAl(SO7)2
_chemical_formula_sum   'Na4 Al4 S8 O56'
_cell_volume   1207.70154530
_cell_formula_units_Z   4
loop_
 _symmetry_equiv_pos_site_id
 _symmetry_equiv_pos_as_xyz
  1  'x, y, z'
loop_
 _atom_site_type_symbol
 _atom_site_label
 _atom_site_symmetry_multiplicity
 _atom_site_fract_x
 _atom_site_fract_y
 _atom_site_fract_z
 _atom_site_occupancy
  Na  Na0  1  0.19655700  0.11789600  0.44657100  1
  Na  Na1  1  0.80344300  0.38210400  0.94657100  1
  Na  Na2  1  0.80344300  0.88210400  0.55342900  1
  Na  Na3  1  0.19655700  0.61789600  0.05342900  1
  Al  Al0  1  0.67904000  0.64242200  0.35499900  1
  Al  Al1  1  0.32096000  0.85757800  0.85499900  1
  Al  Al2  1  0.32096000  0.35757800  0.64500100  1
  Al  Al3  1  0.67904000  0.14242200  0.14500100  1
  S  S0  1  0.21030100  0.14334900  0.31700900  1
  S  S1  1  0.78969900  0.35665100  0.81700900  1
  S  S2  1  0.78969900  0.85665100  0.68299100  1
  S  S3  1  0.21030100  0.64334900  0.18299100  1
  S  S4  1  0.74451800  0.20377800  0.47878800  1
  S  S5  1  0.25548200  0.29622200  0.97878800  1
  S  S6  1  0.25548200  0.79622200  0.52121200  1
  S  S7  1  0.74451800  0.70377800  0.02121200  1
  O  O0  1  0.04749600  0.06038600  0.28007900  1
  O  O1  1  0.95250400  0.43961400  0.78007900  1
  O  O2  1  0.95250400  0.93961400  0.71992100  1
  O  O3  1  0.04749600  0.56038600  0.21992100  1
  O  O4  1  0.14218700  0.31486400  0.33677500  1
  O  O5  1  0.85781300  0.18513600  0.83677500  1
  O  O6  1  0.85781300  0.68513600  0.66322500  1
  O  O7  1  0.14218700  0.81486400  0.16322500  1
  O  O8  1  0.23429000  0.01520200  0.35966900  1
  O  O9  1  0.76571000  0.48479800  0.85966900  1
  O  O10  1  0.76571000  0.98479800  0.64033100  1
  O  O11  1  0.23429000  0.51520200  0.14033100  1
  O  O12  1  0.41634000  0.18215000  0.28846500  1
  O  O13  1  0.58366000  0.31785000  0.78846500  1
  O  O14  1  0.58366000  0.81785000  0.71153500  1
  O  O15  1  0.41634000  0.68215000  0.21153500  1
  O  O16  1  0.25687900  0.78765200  0.46296000  1
  O  O17  1  0.74312100  0.71234800  0.96296000  1
  O  O18  1  0.74312100  0.21234800  0.53704000  1
  O  O19  1  0.25687900  0.28765200  0.03704000  1
  O  O20  1  0.54008800  0.25500100  0.45783900  1
  O  O21  1  0.45991200  0.24499900  0.95783900  1
  O  O22  1  0.45991200  0.74499900  0.54216100  1
  O  O23  1  0.54008800  0.75500100  0.04216100  1
  O  O24  1  0.79557200  0.02308400  0.46312700  1
  O  O25  1  0.20442800  0.47691600  0.96312700  1
  O  O26  1  0.20442800  0.97691600  0.53687300  1
  O  O27  1  0.79557200  0.52308400  0.03687300  1
  O  O28  1  0.92858700  0.33631600  0.46472100  1
  O  O29  1  0.07141300  0.16368400  0.96472100  1
  O  O30  1  0.07141300  0.66368400  0.53527900  1
  O  O31  1  0.92858700  0.83631600  0.03527900  1
  O  O32  1  0.43083000  0.62301900  0.31587000  1
  O  O33  1  0.56917000  0.87698100  0.81587000  1
  O  O34  1  0.56917000  0.37698100  0.68413000  1
  O  O35  1  0.43083000  0.12301900  0.18413000  1
  O  O36  1  0.50323700  0.56501200  0.41013100  1
  O  O37  1  0.49676300  0.93498800  0.91013100  1
  O  O38  1  0.49676300  0.43498800  0.58986900  1
  O  O39  1  0.50323700  0.06501200  0.08986900  1
  O  O40  1  0.63883100  0.87541600  0.37276000  1
  O  O41  1  0.36116900  0.62458400  0.87276100  1
  O  O42  1  0.36116900  0.12458400  0.62723900  1
  O  O43  1  0.63883100  0.37541600  0.12724000  1
  O  O44  1  0.72695600  0.41144300  0.33733300  1
  O  O45  1  0.27304400  0.08855700  0.83733300  1
  O  O46  1  0.27304400  0.58855700  0.66266700  1
  O  O47  1  0.72695600  0.91144300  0.16266700  1
  O  O48  1  0.83968300  0.73498000  0.29982200  1
  O  O49  1  0.16031700  0.76502000  0.79982200  1
  O  O50  1  0.16031700  0.26502000  0.70017800  1
  O  O51  1  0.83968300  0.23498000  0.20017800  1
  O  O52  1  0.91590900  0.63843500  0.39731200  1
  O  O53  1  0.08409100  0.86156500  0.89731200  1
  O  O54  1  0.08409100  0.36156500  0.60268800  1
  O  O55  1  0.91590900  0.13843500  0.10268800  1
loop_
_geom_bond_atom_site_label_1
_geom_bond_atom_site_label_2
_geom_bond_distance
_geom_bond_site_symmetry_2
Na0 O20 2.315020 1_555
Na0 O8 2.392242 1_555
Na0 O28 2.483818 1_455
Na0 O26 2.565195 1_545
Na0 O24 2.574777 1_455
Na0 O16 2.582482 1_545
Na1 O21 2.315020 1_555
Na1 O9 2.392242 1_555
Na1 O29 2.483818 1_655
Na1 O27 2.565195 1_556
Na1 O25 2.574777 1_655
Na1 O17 2.582482 1_555
Na2 O22 2.315020 1_555
Na2 O10 2.392242 1_555
Na2 O30 2.483818 1_655
Na2 O24 2.565195 1_565
Na2 O26 2.574777 1_655
Na2 O18 2.582482 1_565
Na3 O23 2.315020 1_555
Na3 O11 2.392242 1_555
Na3 O31 2.483818 1_455
Na3 O25 2.565195 1_554
Na3 O27 2.574777 1_455
Na3 O19 2.582482 1_555
Al0 O52 1.837851 1_555
Al0 O32 1.842136 1_555
Al0 O48 1.844463 1_555
Al0 O44 1.847530 1_555
Al0 O40 1.851788 1_555
Al0 O36 1.860125 1_555
Al1 O53 1.837851 1_555
Al1 O33 1.842136 1_555
Al1 O49 1.844463 1_555
Al1 O45 1.847530 1_565
Al1 O41 1.851794 1_555
Al1 O37 1.860125 1_555
Al2 O54 1.837851 1_555
Al2 O34 1.842136 1_555
Al2 O50 1.844463 1_555
Al2 O46 1.847530 1_555
Al2 O42 1.851794 1_555
Al2 O38 1.860125 1_555
Al3 O55 1.837851 1_555
Al3 O35 1.842136 1_555
Al3 O51 1.844463 1_555
Al3 O47 1.847530 1_545
Al3 O43 1.851788 1_555
Al3 O39 1.860125 1_555
O0 S0 1.490917 1_555
O1 S1 1.490917 1_555
O2 S2 1.490917 1_555
O3 S3 1.490917 1_555
O4 S0 1.484004 1_555
O5 S1 1.484004 1_555
O6 S2 1.484004 1_555
O7 S3 1.484004 1_555
O8 S0 1.480895 1_555
O9 S1 1.480895 1_555
O10 S2 1.480895 1_555
O11 S3 1.480895 1_555
O12 S0 1.487381 1_555
O13 S1 1.487381 1_555
O14 S2 1.487381 1_555
O15 S3 1.487381 1_555
O16 S6 1.506077 1_555
O17 S7 1.506077 1_556
O18 S4 1.506077 1_555
O19 S5 1.506077 1_554
O20 S4 1.464077 1_555
O21 S5 1.464077 1_555
O22 S6 1.464077 1_555
O23 S7 1.464077 1_555
O24 S4 1.480153 1_555
O25 S5 1.480153 1_555
O26 S6 1.480153 1_555
O27 S7 1.480153 1_555
O28 S4 1.500862 1_555
O29 S5 1.500862 1_555
O30 S6 1.500862 1_555
O31 S7 1.500862 1_555
