# generated using pymatgen
data_Te6Mo3WSe2
_symmetry_space_group_name_H-M   'P 1'
_cell_length_a   3.49926802
_cell_length_b   3.49926802
_cell_length_c   39.55989200
_cell_angle_alpha   90.00000000
_cell_angle_beta   90.00000000
_cell_angle_gamma   120.00000028
_symmetry_Int_Tables_number   1
_chemical_formula_structural   Te6Mo3WSe2
_chemical_formula_sum   'Te6 Mo3 W1 Se2'
_cell_volume   419.50789835
_cell_formula_units_Z   1
loop_
 _symmetry_equiv_pos_site_id
 _symmetry_equiv_pos_as_xyz
  1  'x, y, z'
loop_
 _atom_site_type_symbol
 _atom_site_label
 _atom_site_symmetry_multiplicity
 _atom_site_fract_x
 _atom_site_fract_y
 _atom_site_fract_z
 _atom_site_occupancy
  Te  Te0  1  0.33333300  0.66666700  0.32811400  1
  Te  Te1  1  0.33333300  0.66666700  0.70412600  1
  Te  Te2  1  0.66666700  0.33333300  0.04761700  1
  Te  Te3  1  0.66666700  0.33333300  0.14022900  1
  Te  Te4  1  0.33333300  0.66666700  0.23550000  1
  Te  Te5  1  0.33333300  0.66666700  0.61092600  1
  Mo  Mo0  1  0.33333300  0.66666700  0.09390100  1
  Mo  Mo1  1  0.33333300  0.66666700  0.46966100  1
  Mo  Mo2  1  0.66666700  0.33333300  0.28182600  1
  W  W0  1  0.66666700  0.33333300  0.65753100  1
  Se  Se0  1  0.66666700  0.33333300  0.42873800  1
  Se  Se1  1  0.66666700  0.33333300  0.51057700  1
loop_
_geom_bond_atom_site_label_1
_geom_bond_atom_site_label_2
_geom_bond_distance
_geom_bond_site_symmetry_2
Te1 W0 2.734839 1_455
Te1 W0 2.734839 1_565
Te1 W0 2.734844 1_555
Te5 W0 2.735106 1_455
Te5 W0 2.735106 1_565
Te5 W0 2.735111 1_555
Mo0 Te2 2.726562 1_455
Mo0 Te2 2.726562 1_565
Mo0 Te2 2.726567 1_555
Mo0 Te3 2.727731 1_565
Mo0 Te3 2.727731 1_455
Mo0 Te3 2.727736 1_555
Mo1 Se1 2.588743 1_455
Mo1 Se1 2.588743 1_565
Mo1 Se1 2.588747 1_555
Mo1 Se0 2.588916 1_455
Mo1 Se0 2.588916 1_565
Mo1 Se0 2.588921 1_555
Mo2 Te0 2.726669 1_545
Mo2 Te0 2.726669 1_655
Mo2 Te0 2.726673 1_555
Mo2 Te4 2.727678 1_545
Mo2 Te4 2.727678 1_655
Mo2 Te4 2.727683 1_555
