# generated using pymatgen
data_Nb3TlCuCl9
_symmetry_space_group_name_H-M   'P 1'
_cell_length_a   9.37858200
_cell_length_b   9.38646857
_cell_length_c   9.40366541
_cell_angle_alpha   119.46482337
_cell_angle_beta   105.21942018
_cell_angle_gamma   96.11559677
_symmetry_Int_Tables_number   1
_chemical_formula_structural   Nb3TlCuCl9
_chemical_formula_sum   'Nb6 Tl2 Cu2 Cl18'
_cell_volume   667.54802661
_cell_formula_units_Z   2
loop_
 _symmetry_equiv_pos_site_id
 _symmetry_equiv_pos_as_xyz
  1  'x, y, z'
loop_
 _atom_site_type_symbol
 _atom_site_label
 _atom_site_symmetry_multiplicity
 _atom_site_fract_x
 _atom_site_fract_y
 _atom_site_fract_z
 _atom_site_occupancy
  Nb  Nb0  1  0.14171900  0.18022500  0.02035300  1
  Nb  Nb1  1  0.85828100  0.81977500  0.97964700  1
  Nb  Nb2  1  0.86655100  0.05010900  0.10680000  1
  Nb  Nb3  1  0.13344900  0.94989100  0.89320000  1
  Nb  Nb4  1  0.13973700  0.82380700  0.24962900  1
  Nb  Nb5  1  0.86026300  0.17619300  0.75037100  1
  Tl  Tl0  1  0.66025600  0.71470600  0.51829600  1
  Tl  Tl1  1  0.33974400  0.28529400  0.48170400  1
  Cu  Cu0  1  0.62024400  0.36009400  0.19001900  1
  Cu  Cu1  1  0.37975600  0.63990600  0.80998100  1
  Cl  Cl0  1  0.33124700  0.00467800  0.32064200  1
  Cl  Cl1  1  0.66875300  0.99532200  0.67935800  1
  Cl  Cl2  1  0.33018900  0.59912000  0.57255200  1
  Cl  Cl3  1  0.66981100  0.40088000  0.42744800  1
  Cl  Cl4  1  0.32252700  0.73096700  0.17036600  1
  Cl  Cl5  1  0.67747300  0.26903300  0.82963400  1
  Cl  Cl6  1  0.00642700  0.84813800  0.41900900  1
  Cl  Cl7  1  0.99357300  0.15186200  0.58099100  1
  Cl  Cl8  1  0.01067200  0.27106400  0.15058300  1
  Cl  Cl9  1  0.98932800  0.72893600  0.84941700  1
  Cl  Cl10  1  0.33197600  0.40987700  0.05215100  1
  Cl  Cl11  1  0.66802400  0.59012300  0.94784900  1
  Cl  Cl12  1  0.69578600  0.10688900  0.24607100  1
  Cl  Cl13  1  0.30421400  0.89311100  0.75392900  1
  Cl  Cl14  1  0.32328700  0.15284700  0.89984900  1
  Cl  Cl15  1  0.67671300  0.84715300  0.10015100  1
  Cl  Cl16  1  0.00085000  0.42057900  0.73032500  1
  Cl  Cl17  1  0.99915000  0.57942100  0.26967500  1
loop_
_geom_bond_atom_site_label_1
_geom_bond_atom_site_label_2
_geom_bond_distance
_geom_bond_site_symmetry_2
Nb0 Nb3 1.866130 1_544
Nb1 Nb2 1.866130 1_566
Cl0 Nb4 2.039470 1_545
Cl0 Tl1 2.281545 1_555
Cl1 Nb5 2.039470 1_565
Cl1 Tl0 2.281545 1_555
Cl2 Cu1 1.980878 1_555
Cl2 Tl1 2.652516 1_555
Cl3 Cu0 1.980878 1_555
Cl3 Tl0 2.652516 1_555
Cl4 Nb4 2.145698 1_555
Cl5 Nb5 2.145698 1_555
Cl6 Nb4 2.213780 1_555
Cl7 Nb5 2.213780 1_555
Cl8 Nb0 1.929653 1_555
Cl8 Nb2 2.137373 1_455
Cl9 Nb1 1.929653 1_555
Cl9 Nb3 2.137373 1_655
Cl10 Cl14 2.091900 1_554
Cl10 Nb0 2.487207 1_555
Cl10 Cl4 2.672039 1_555
Cl10 Cu0 2.869362 1_555
Cl11 Cl15 2.091900 1_556
Cl11 Nb1 2.487207 1_555
Cl11 Cl5 2.672039 1_555
Cl11 Cu1 2.869362 1_555
Cl12 Cl15 2.084667 1_545
Cl12 Nb2 2.271693 1_555
Cl13 Cl14 2.084667 1_565
Cl13 Nb3 2.271693 1_555
Cl14 Nb0 2.251602 1_556
Cl14 Nb3 2.429948 1_545
Cl14 Cu0 2.935978 1_556
Cl15 Nb1 2.251602 1_554
Cl15 Nb2 2.429948 1_565
Cl15 Cu1 2.935978 1_554
Cl16 Cl7 2.183373 1_455
Cl16 Cl9 2.566057 1_455
Cl16 Nb5 2.635817 1_455
Cl17 Cl6 2.183373 1_655
Cl17 Cl8 2.566057 1_655
Cl17 Nb4 2.635817 1_655
