# generated using pymatgen
data_YMg6Bi
_symmetry_space_group_name_H-M   'P 1'
_cell_length_a   5.15646000
_cell_length_b   6.82920600
_cell_length_c   11.45822600
_cell_angle_alpha   90.00000000
_cell_angle_beta   90.00000000
_cell_angle_gamma   90.00000000
_symmetry_Int_Tables_number   1
_chemical_formula_structural   YMg6Bi
_chemical_formula_sum   'Y2 Mg12 Bi2'
_cell_volume   403.49601539
_cell_formula_units_Z   2
loop_
 _symmetry_equiv_pos_site_id
 _symmetry_equiv_pos_as_xyz
  1  'x, y, z'
loop_
 _atom_site_type_symbol
 _atom_site_label
 _atom_site_symmetry_multiplicity
 _atom_site_fract_x
 _atom_site_fract_y
 _atom_site_fract_z
 _atom_site_occupancy
  Y  Y0  1  0.00000000  0.50000000  0.33195300  1
  Y  Y1  1  0.00000000  0.00000000  0.83195300  1
  Mg  Mg0  1  0.00000000  0.23766500  0.07955800  1
  Mg  Mg1  1  0.00000000  0.76233500  0.07955800  1
  Mg  Mg2  1  0.00000000  0.50000000  0.83601800  1
  Mg  Mg3  1  0.50000000  0.26283400  0.91969800  1
  Mg  Mg4  1  0.50000000  0.73716600  0.91969800  1
  Mg  Mg5  1  0.50000000  0.50000000  0.66865500  1
  Mg  Mg6  1  0.00000000  0.73766500  0.57955800  1
  Mg  Mg7  1  0.00000000  0.26233500  0.57955800  1
  Mg  Mg8  1  0.00000000  0.00000000  0.33601800  1
  Mg  Mg9  1  0.50000000  0.76283400  0.41969800  1
  Mg  Mg10  1  0.50000000  0.23716600  0.41969800  1
  Mg  Mg11  1  0.50000000  0.00000000  0.16865500  1
  Bi  Bi0  1  0.50000000  0.50000000  0.16486400  1
  Bi  Bi1  1  0.50000000  0.00000000  0.66486400  1
loop_
_geom_bond_atom_site_label_1
_geom_bond_atom_site_label_2
_geom_bond_distance
_geom_bond_site_symmetry_2
Mg0 Mg3 3.167331 1_554
Mg0 Mg3 3.167331 1_454
Mg0 Mg11 3.213071 1_455
Mg0 Mg11 3.213071 1_555
Mg0 Mg1 3.246126 1_545
Mg0 Y1 3.268570 1_554
Mg0 Mg2 3.316128 1_554
Mg0 Mg8 3.357018 1_555
Mg0 Y0 3.401951 1_555
Mg1 Mg4 3.167331 1_554
Mg1 Mg4 3.167331 1_454
Mg1 Mg11 3.213071 1_465
Mg1 Mg11 3.213071 1_565
Mg1 Y1 3.268570 1_564
Mg1 Mg2 3.316128 1_554
Mg1 Mg8 3.357018 1_565
Mg1 Y0 3.401951 1_555
Mg2 Mg3 3.192162 1_455
Mg2 Mg4 3.192162 1_455
Mg2 Mg3 3.192162 1_555
Mg2 Mg4 3.192162 1_555
Mg2 Mg5 3.213219 1_455
Mg2 Mg5 3.213219 1_555
Mg2 Mg7 3.357018 1_555
Mg2 Mg6 3.357018 1_555
Mg2 Y1 3.414921 1_565
Mg2 Y1 3.414921 1_555
Mg3 Mg4 3.239311 1_555
Mg3 Y1 3.298475 1_555
Mg3 Y1 3.298475 1_655
Mg3 Mg5 3.301148 1_555
Mg4 Y1 3.298475 1_665
Mg4 Y1 3.298475 1_565
Mg4 Mg5 3.301148 1_555
Mg5 Mg7 3.213071 1_555
Mg5 Mg6 3.213071 1_655
Mg5 Mg7 3.213071 1_655
Mg5 Mg6 3.213071 1_555
Mg5 Mg9 3.370341 1_555
Mg6 Mg9 3.167331 1_555
Mg6 Mg9 3.167331 1_455
Mg6 Mg7 3.246126 1_555
Mg6 Y0 3.268570 1_555
Mg6 Mg8 3.316128 1_565
Mg6 Y1 3.401951 1_565
Mg7 Y0 3.268570 1_555
Mg7 Mg8 3.316128 1_555
Mg7 Y1 3.401951 1_555
Mg8 Mg9 3.192162 1_545
Mg8 Mg9 3.192162 1_445
Mg8 Y0 3.414921 1_545
Mg8 Y0 3.414921 1_555
Mg9 Y0 3.298475 1_555
Mg9 Y0 3.298475 1_655
Mg10 Mg7 3.167331 1_555
Mg10 Mg7 3.167331 1_655
Mg10 Mg8 3.192162 1_555
Mg10 Mg8 3.192162 1_655
Mg10 Mg9 3.239311 1_545
Mg10 Y0 3.298475 1_555
Mg10 Y0 3.298475 1_655
Mg10 Mg11 3.301148 1_555
Mg10 Mg5 3.370341 1_555
Mg11 Mg8 3.213219 1_555
Mg11 Mg8 3.213219 1_655
Mg11 Mg9 3.301148 1_545
Mg11 Mg4 3.370341 1_544
Mg11 Mg3 3.370341 1_554
Bi0 Y0 3.211347 1_555
Bi0 Y0 3.211347 1_655
Bi0 Mg4 3.242639 1_554
Bi0 Mg3 3.242639 1_554
Bi0 Mg1 3.288207 1_655
Bi0 Mg0 3.288207 1_555
Bi0 Mg1 3.288207 1_555
Bi0 Mg0 3.288207 1_655
Bi0 Mg11 3.414879 1_565
Bi0 Mg11 3.414879 1_555
Bi0 Mg9 3.427524 1_555
Bi0 Mg10 3.427524 1_555
Bi1 Y1 3.211347 1_555
Bi1 Y1 3.211347 1_655
Bi1 Mg9 3.242639 1_545
Bi1 Mg10 3.242639 1_555
Bi1 Mg7 3.288207 1_655
Bi1 Mg6 3.288207 1_545
Bi1 Mg6 3.288207 1_645
Bi1 Mg7 3.288207 1_555
Bi1 Mg5 3.414879 1_555
Bi1 Mg5 3.414879 1_545
Bi1 Mg3 3.427524 1_555
Bi1 Mg4 3.427524 1_545
