# generated using pymatgen
data_Rb2PH4Se3O2
_symmetry_space_group_name_H-M   'P 1'
_cell_length_a   7.70262700
_cell_length_b   9.96975900
_cell_length_c   12.68311300
_cell_angle_alpha   90.00000000
_cell_angle_beta   90.00000000
_cell_angle_gamma   90.00000000
_symmetry_Int_Tables_number   1
_chemical_formula_structural   Rb2PH4Se3O2
_chemical_formula_sum   'Rb8 P4 H16 Se12 O8'
_cell_volume   973.97854364
_cell_formula_units_Z   4
loop_
 _symmetry_equiv_pos_site_id
 _symmetry_equiv_pos_as_xyz
  1  'x, y, z'
loop_
 _atom_site_type_symbol
 _atom_site_label
 _atom_site_symmetry_multiplicity
 _atom_site_fract_x
 _atom_site_fract_y
 _atom_site_fract_z
 _atom_site_occupancy
  Rb  Rb0  1  0.00000000  0.00000000  0.00000000  1
  Rb  Rb1  1  0.50000000  0.50000000  0.50000000  1
  Rb  Rb2  1  0.50000000  0.00000000  0.00000000  1
  Rb  Rb3  1  0.00000000  0.50000000  0.50000000  1
  Rb  Rb4  1  0.50000000  0.39625400  0.15778900  1
  Rb  Rb5  1  0.50000000  0.60374600  0.84221100  1
  Rb  Rb6  1  0.00000000  0.89625400  0.34221100  1
  Rb  Rb7  1  0.00000000  0.10374600  0.65778900  1
  P  P0  1  0.00000000  0.38443000  0.00819900  1
  P  P1  1  0.00000000  0.61557000  0.99180100  1
  P  P2  1  0.50000000  0.88443000  0.49180100  1
  P  P3  1  0.50000000  0.11557000  0.50819900  1
  H  H0  1  0.79704700  0.85010300  0.80822200  1
  H  H1  1  0.79704700  0.14989700  0.19177800  1
  H  H2  1  0.70295300  0.35010300  0.69177800  1
  H  H3  1  0.70295300  0.64989700  0.30822200  1
  H  H4  1  0.20295300  0.14989700  0.19177800  1
  H  H5  1  0.20295300  0.85010300  0.80822200  1
  H  H6  1  0.29704700  0.64989700  0.30822200  1
  H  H7  1  0.29704700  0.35010300  0.69177800  1
  H  H8  1  0.67942700  0.96935300  0.76857900  1
  H  H9  1  0.67942700  0.03064700  0.23142100  1
  H  H10  1  0.82057300  0.46935300  0.73142100  1
  H  H11  1  0.82057300  0.53064700  0.26857900  1
  H  H12  1  0.32057300  0.03064700  0.23142100  1
  H  H13  1  0.32057300  0.96935300  0.76857900  1
  H  H14  1  0.17942700  0.53064700  0.26857900  1
  H  H15  1  0.17942700  0.46935300  0.73142100  1
  Se  Se0  1  0.23778200  0.31109000  0.93211000  1
  Se  Se1  1  0.23778200  0.68891000  0.06789000  1
  Se  Se2  1  0.26221800  0.81109000  0.56789000  1
  Se  Se3  1  0.26221800  0.18891000  0.43211000  1
  Se  Se4  1  0.76221800  0.68891000  0.06789000  1
  Se  Se5  1  0.76221800  0.31109000  0.93211000  1
  Se  Se6  1  0.73778200  0.18891000  0.43211000  1
  Se  Se7  1  0.73778200  0.81109000  0.56789000  1
  Se  Se8  1  0.00000000  0.34769400  0.18258100  1
  Se  Se9  1  0.00000000  0.65230600  0.81741900  1
  Se  Se10  1  0.50000000  0.84769400  0.31741900  1
  Se  Se11  1  0.50000000  0.15230600  0.68258100  1
  O  O0  1  0.74503600  0.93610800  0.83033900  1
  O  O1  1  0.74503600  0.06389200  0.16966100  1
  O  O2  1  0.75496400  0.43610800  0.66966100  1
  O  O3  1  0.75496400  0.56389200  0.33033900  1
  O  O4  1  0.25496400  0.06389200  0.16966100  1
  O  O5  1  0.25496400  0.93610800  0.83033900  1
  O  O6  1  0.24503600  0.56389200  0.33033900  1
  O  O7  1  0.24503600  0.43610800  0.66966100  1
loop_
_geom_bond_atom_site_label_1
_geom_bond_atom_site_label_2
_geom_bond_distance
_geom_bond_site_symmetry_2
Rb4 Se5 3.604609 1_554
Rb4 Se0 3.604609 1_554
Rb4 Se4 3.727270 1_555
Rb4 Se1 3.727270 1_555
Rb5 Se4 3.604609 1_556
Rb5 Se1 3.604609 1_556
Rb5 Se5 3.727270 1_555
Rb5 Se0 3.727270 1_555
Rb6 Se7 3.604609 1_455
Rb6 Se2 3.604609 1_555
Rb6 Se6 3.727270 1_465
Rb6 Se3 3.727270 1_565
Rb7 Se6 3.604609 1_455
Rb7 Se3 3.604609 1_555
Rb7 Se7 3.727270 1_445
Rb7 Se2 3.727270 1_545
P0 Se0 2.195564 1_554
P0 Se5 2.195564 1_454
P0 Se8 2.241826 1_555
P1 Se1 2.195564 1_556
P1 Se4 2.195564 1_456
P1 Se9 2.241826 1_555
P2 Se7 2.195564 1_555
P2 Se2 2.195564 1_555
P2 Se10 2.241826 1_555
P3 Se6 2.195564 1_555
P3 Se3 2.195564 1_555
P3 Se11 2.241826 1_555
H0 O0 0.987119 1_555
H1 O1 0.987119 1_555
H2 O2 0.987119 1_555
H3 O3 0.987119 1_555
H4 O4 0.987119 1_555
H5 O5 0.987119 1_555
H6 O6 0.987119 1_555
H7 O7 0.987119 1_555
H8 O0 0.989353 1_555
H8 Rb7 3.141168 1_665
H9 O1 0.989353 1_555
H9 Rb6 3.141168 1_645
H10 O2 0.989353 1_555
H10 Rb5 3.141168 1_555
H11 O3 0.989353 1_555
H11 Rb4 3.141168 1_555
H12 O4 0.989353 1_555
H12 Rb6 3.141168 1_545
H13 O5 0.989353 1_555
H13 Rb7 3.141168 1_565
H14 O6 0.989353 1_555
H14 Rb4 3.141168 1_555
H15 O7 0.989353 1_555
H15 Rb5 3.141168 1_555
O0 Rb2 2.932317 1_566
O0 Rb0 2.982113 1_666
O1 Rb2 2.932317 1_555
O1 Rb0 2.982113 1_655
O2 Rb3 2.932317 1_655
O2 Rb1 2.982113 1_555
O3 Rb3 2.932317 1_655
O3 Rb1 2.982113 1_555
O4 Rb2 2.932317 1_555
O4 Rb0 2.982113 1_555
O5 Rb2 2.932317 1_566
O5 Rb0 2.982113 1_566
O6 Rb3 2.932317 1_555
O6 Rb1 2.982113 1_555
O7 Rb3 2.932317 1_555
O7 Rb1 2.982113 1_555
