# generated using pymatgen
data_NbInCo2
_symmetry_space_group_name_H-M   'P 1'
_cell_length_a   10.54617777
_cell_length_b   10.54617777
_cell_length_c   10.54617777
_cell_angle_alpha   127.86663660
_cell_angle_beta   116.32536430
_cell_angle_gamma   86.71551851
_symmetry_Int_Tables_number   1
_chemical_formula_structural   NbInCo2
_chemical_formula_sum   'Nb1 In1 Co2'
_cell_volume   790.74210883
_cell_formula_units_Z   1
loop_
 _symmetry_equiv_pos_site_id
 _symmetry_equiv_pos_as_xyz
  1  'x, y, z'
loop_
 _atom_site_type_symbol
 _atom_site_label
 _atom_site_symmetry_multiplicity
 _atom_site_fract_x
 _atom_site_fract_y
 _atom_site_fract_z
 _atom_site_occupancy
  Nb  Nb0  1  -0.00000000  0.00000000  -0.00000000  1
  In  In0  1  -0.00000000  0.50000000  0.50000000  1
  Co  Co0  1  0.00000000  0.22102616  0.22102616  1
  Co  Co1  1  -0.00000000  0.77897384  0.77897384  1
loop_
_geom_bond_atom_site_label_1
_geom_bond_atom_site_label_2
_geom_bond_distance
_geom_bond_site_symmetry_2
Co0 Nb0 2.048545 1_555
Co0 In0 2.585624 1_555
Co1 Nb0 2.048545 1_566
Co1 In0 2.585624 1_555
