# generated using pymatgen
data_TaCr3(CuS4)2
_symmetry_space_group_name_H-M   'P 1'
_cell_length_a   12.19502100
_cell_length_b   5.74575000
_cell_length_c   8.92965446
_cell_angle_alpha   50.87768145
_cell_angle_beta   90.00000000
_cell_angle_gamma   90.00000000
_symmetry_Int_Tables_number   1
_chemical_formula_structural   TaCr3(CuS4)2
_chemical_formula_sum   'Ta2 Cr6 Cu4 S16'
_cell_volume   485.41600077
_cell_formula_units_Z   2
loop_
 _symmetry_equiv_pos_site_id
 _symmetry_equiv_pos_as_xyz
  1  'x, y, z'
loop_
 _atom_site_type_symbol
 _atom_site_label
 _atom_site_symmetry_multiplicity
 _atom_site_fract_x
 _atom_site_fract_y
 _atom_site_fract_z
 _atom_site_occupancy
  Ta  Ta0  1  0.50000000  0.00000000  0.00000000  1
  Ta  Ta1  1  0.00000000  0.00000000  0.50000000  1
  Cr  Cr0  1  0.00000000  0.50000000  0.00000000  1
  Cr  Cr1  1  0.50000000  0.50000000  0.50000000  1
  Cr  Cr2  1  0.75187700  0.22889300  0.76247800  1
  Cr  Cr3  1  0.24812300  0.77110700  0.23752200  1
  Cr  Cr4  1  0.74812300  0.22889300  0.26247800  1
  Cr  Cr5  1  0.25187700  0.77110700  0.73752200  1
  Cu  Cu0  1  0.91499700  0.85218000  0.25648800  1
  Cu  Cu1  1  0.08500300  0.14782000  0.74351200  1
  Cu  Cu2  1  0.58500300  0.85218000  0.75648800  1
  Cu  Cu3  1  0.41499700  0.14782000  0.24351200  1
  S  S0  1  0.83023000  0.27377600  0.99992700  1
  S  S1  1  0.16977000  0.72622400  0.00007300  1
  S  S2  1  0.67087900  0.74771800  0.01597900  1
  S  S3  1  0.32912100  0.25228200  0.98402100  1
  S  S4  1  0.33023000  0.72622400  0.50007300  1
  S  S5  1  0.66977000  0.27377600  0.49992700  1
  S  S6  1  0.17087900  0.25228200  0.48402100  1
  S  S7  1  0.82912100  0.74771800  0.51597900  1
  S  S8  1  0.91359400  0.99056100  0.75698700  1
  S  S9  1  0.08640600  0.00943900  0.24301300  1
  S  S10  1  0.58640600  0.99056100  0.25698700  1
  S  S11  1  0.41359400  0.00943900  0.74301300  1
  S  S12  1  0.91262700  0.47557200  0.24828100  1
  S  S13  1  0.08737300  0.52442800  0.75171900  1
  S  S14  1  0.58737300  0.47557200  0.74828100  1
  S  S15  1  0.41262700  0.52442800  0.25171900  1
loop_
_geom_bond_atom_site_label_1
_geom_bond_atom_site_label_2
_geom_bond_distance
_geom_bond_site_symmetry_2
Cr0 S13 2.382792 1_554
Cr0 S12 2.382792 1_455
Cr0 S0 2.444783 1_454
Cr0 S1 2.444783 1_555
Cr0 S8 2.458718 1_454
Cr0 S9 2.458718 1_555
Cr1 S15 2.382792 1_555
Cr1 S14 2.382792 1_555
Cr1 S5 2.444783 1_555
Cr1 S4 2.444783 1_555
Cr1 S10 2.458718 1_555
Cr1 S11 2.458718 1_555
Cr2 S5 2.408887 1_555
Cr2 S14 2.413042 1_555
Cr2 S2 2.417791 1_546
Cr2 S8 2.419035 1_545
Cr2 S0 2.483021 1_555
Cr2 S7 2.517620 1_555
Cr3 S4 2.408887 1_555
Cr3 S15 2.413042 1_555
Cr3 S3 2.417791 1_564
Cr3 S9 2.419035 1_565
Cr3 S1 2.483021 1_555
Cr3 S6 2.517620 1_555
Cr4 S0 2.408887 1_554
Cr4 S12 2.413042 1_555
Cr4 S7 2.417791 1_545
Cr4 S10 2.419035 1_545
Cr4 S5 2.483021 1_555
Cr4 S2 2.517620 1_555
Cr5 S1 2.408887 1_556
Cr5 S13 2.413042 1_555
Cr5 S6 2.417791 1_565
Cr5 S11 2.419035 1_565
Cr5 S4 2.483021 1_555
Cr5 S3 2.517620 1_555
Cu0 S12 2.211057 1_555
Cu0 S9 2.250160 1_665
Cu0 S7 2.251920 1_555
Cu0 S0 2.276353 1_564
Cu1 S13 2.211057 1_555
Cu1 S8 2.250160 1_445
Cu1 S6 2.251920 1_555
Cu1 S1 2.276353 1_546
Cu2 S14 2.211057 1_555
Cu2 S11 2.250160 1_565
Cu2 S2 2.251920 1_556
Cu2 S5 2.276353 1_565
Cu3 S15 2.211057 1_555
Cu3 S10 2.250160 1_545
Cu3 S3 2.251920 1_554
Cu3 S4 2.276353 1_545
S2 Ta0 2.490596 1_565
S3 Ta0 2.490596 1_556
S6 Ta1 2.490596 1_555
S7 Ta1 2.490596 1_665
S8 Ta1 2.494463 1_665
S9 Ta1 2.494463 1_555
S10 Ta0 2.494463 1_565
S11 Ta0 2.494463 1_556
S12 Ta1 2.429695 1_655
S13 Ta1 2.429695 1_565
S14 Ta0 2.429695 1_556
S15 Ta0 2.429695 1_565
