# generated using pymatgen
data_Cs3Hf2P5S18
_symmetry_space_group_name_H-M   'P 1'
_cell_length_a   6.91583835
_cell_length_b   6.91583835
_cell_length_c   34.37521385
_cell_angle_alpha   86.71855071
_cell_angle_beta   86.71855071
_cell_angle_gamma   92.97785313
_symmetry_Int_Tables_number   1
_chemical_formula_structural   Cs3Hf2P5S18
_chemical_formula_sum   'Cs6 Hf4 P10 S36'
_cell_volume   1636.22149196
_cell_formula_units_Z   2
loop_
 _symmetry_equiv_pos_site_id
 _symmetry_equiv_pos_as_xyz
  1  'x, y, z'
loop_
 _atom_site_type_symbol
 _atom_site_label
 _atom_site_symmetry_multiplicity
 _atom_site_fract_x
 _atom_site_fract_y
 _atom_site_fract_z
 _atom_site_occupancy
  Cs  Cs0  1  0.55911123  0.84740010  0.25368380  1
  Cs  Cs1  1  0.84740010  0.55911123  0.75368380  1
  Cs  Cs2  1  0.50553864  0.72694864  0.06894608  1
  Cs  Cs3  1  0.72694864  0.50553864  0.56894608  1
  Cs  Cs4  1  0.22375276  0.02313630  0.86471618  1
  Cs  Cs5  1  0.02313630  0.22375276  0.36471618  1
  Hf  Hf0  1  0.97458050  0.15493639  0.15376976  1
  Hf  Hf1  1  0.15493639  0.97458050  0.65376976  1
  Hf  Hf2  1  0.96088243  0.37293478  0.96420196  1
  Hf  Hf3  1  0.37293478  0.96088243  0.46420196  1
  P  P0  1  0.85027581  0.34550899  0.23692994  1
  P  P1  1  0.34550899  0.85027581  0.73692994  1
  P  P2  1  0.06551722  0.70067315  0.17314960  1
  P  P3  1  0.70067315  0.06551722  0.67314960  1
  P  P4  1  0.93900243  0.23801665  0.05859782  1
  P  P5  1  0.23801665  0.93900243  0.55859782  1
  P  P6  1  0.42355396  0.48297479  0.94536279  1
  P  P7  1  0.48297479  0.42355396  0.44536279  1
  P  P8  1  0.75455482  0.30660782  0.88103740  1
  P  P9  1  0.30660782  0.75455482  0.38103740  1
  S  S0  1  0.70582181  0.34274884  0.28768170  1
  S  S1  1  0.34274884  0.70582181  0.78768170  1
  S  S2  1  0.04601773  0.14296785  0.22743589  1
  S  S3  1  0.14296785  0.04601773  0.72743589  1
  S  S4  1  0.69275209  0.32807552  0.18909013  1
  S  S5  1  0.32807552  0.69275209  0.68909013  1
  S  S6  1  0.01886711  0.62043053  0.23344166  1
  S  S7  1  0.62043053  0.01886711  0.73344166  1
  S  S8  1  0.27057873  0.92047060  0.16810260  1
  S  S9  1  0.92047060  0.27057873  0.66810260  1
  S  S10  1  0.81546603  0.80924350  0.15491047  1
  S  S11  1  0.80924350  0.81546603  0.65491047  1
  S  S12  1  0.16691304  0.48345215  0.14200769  1
  S  S13  1  0.48345215  0.16691304  0.64200769  1
  S  S14  1  0.72411484  0.23677138  0.10197340  1
  S  S15  1  0.23677138  0.72411484  0.60197340  1
  S  S16  1  0.16064294  0.12335430  0.08738305  1
  S  S17  1  0.12335430  0.16064294  0.58738305  1
  S  S18  1  0.01056675  0.50670241  0.03295034  1
  S  S19  1  0.50670241  0.01056675  0.53295034  1
  S  S20  1  0.86025692  0.08115028  0.01325447  1
  S  S21  1  0.08115028  0.86025692  0.51325447  1
  S  S22  1  0.22272867  0.68164994  0.95088869  1
  S  S23  1  0.68164994  0.22272867  0.45088869  1
  S  S24  1  0.29242971  0.22137824  0.96386844  1
  S  S25  1  0.22137824  0.29242971  0.46386844  1
  S  S26  1  0.65406412  0.56491076  0.97581745  1
  S  S27  1  0.56491076  0.65406412  0.47581745  1
  S  S28  1  0.50017164  0.47470114  0.88479457  1
  S  S29  1  0.47470114  0.50017164  0.38479457  1
  S  S30  1  0.75584081  0.11732533  0.92832031  1
  S  S31  1  0.11732533  0.75584081  0.42832031  1
  S  S32  1  0.98127912  0.49230656  0.89066214  1
  S  S33  1  0.49230656  0.98127912  0.39066214  1
  S  S34  1  0.74211226  0.19267395  0.83019968  1
  S  S35  1  0.19267395  0.74211226  0.33019968  1
loop_
_geom_bond_atom_site_label_1
_geom_bond_atom_site_label_2
_geom_bond_distance
_geom_bond_site_symmetry_2
Cs0 S35 3.563232 1_555
Cs0 S6 3.667185 1_655
Cs0 S8 3.674017 1_555
Cs0 S10 3.768728 1_555
Cs0 S0 3.789989 1_565
Cs0 S0 3.822659 1_555
Cs0 S2 3.880395 1_665
Cs0 S4 3.928880 1_565
Cs0 S6 4.089121 1_555
Cs1 S34 3.563232 1_555
Cs1 S7 3.667185 1_565
Cs1 S9 3.674017 1_555
Cs1 S11 3.768728 1_555
Cs1 S1 3.789989 1_655
Cs1 S1 3.822659 1_555
Cs1 S3 3.880395 1_665
Cs1 S5 3.928880 1_655
Cs1 S7 4.089121 1_555
Cs2 S26 3.565554 1_554
Cs2 S12 3.613946 1_555
Cs2 S20 3.739612 1_565
Cs2 S16 3.783122 1_565
Cs2 S10 3.800172 1_555
Cs2 S14 3.918457 1_555
Cs2 S18 3.965856 1_555
Cs2 S14 4.013304 1_565
Cs2 S8 4.020430 1_555
Cs2 S18 4.040275 1_655
Cs3 S27 3.565554 1_555
Cs3 S13 3.613946 1_555
Cs3 S21 3.739612 1_655
Cs3 S17 3.783122 1_655
Cs3 S11 3.800172 1_555
Cs3 S15 3.918457 1_555
Cs3 S19 3.965856 1_555
Cs3 S15 4.013304 1_655
Cs3 S9 4.020430 1_555
Cs3 S19 4.040275 1_565
Cs4 S1 3.620609 1_545
Cs4 S22 3.680640 1_545
Cs4 S28 3.696104 1_555
Cs4 S24 3.791430 1_555
Cs4 S34 3.814586 1_555
Cs4 S34 3.817950 1_455
Cs4 S32 3.855000 1_455
Cs4 S30 3.904930 1_455
Cs4 S32 3.987359 1_445
Cs5 S0 3.620609 1_455
Cs5 S23 3.680640 1_455
Cs5 S29 3.696104 1_555
Cs5 S25 3.791430 1_555
Cs5 S35 3.814586 1_555
Cs5 S35 3.817950 1_545
Cs5 S33 3.855000 1_545
Cs5 S31 3.904930 1_545
Cs5 S33 3.987359 1_445
Hf0 S12 2.571739 1_655
Hf0 S10 2.576653 1_545
Hf0 S16 2.580964 1_655
Hf0 S2 2.605168 1_655
Hf0 S14 2.613532 1_555
Hf0 S4 2.616264 1_555
Hf0 S8 2.726079 1_645
Hf1 S13 2.571739 1_565
Hf1 S11 2.576653 1_455
Hf1 S17 2.580964 1_565
Hf1 S3 2.605168 1_565
Hf1 S15 2.613532 1_555
Hf1 S5 2.616264 1_555
Hf1 S9 2.726079 1_465
Hf2 S24 2.569886 1_655
Hf2 S26 2.584770 1_555
Hf2 S20 2.594187 1_556
Hf2 S32 2.607703 1_555
Hf2 S30 2.616592 1_555
Hf2 S18 2.620884 1_656
Hf2 S22 2.727386 1_655
Hf3 S25 2.569886 1_565
Hf3 S27 2.584770 1_555
Hf3 S21 2.594187 1_555
Hf3 S33 2.607703 1_555
Hf3 S31 2.616592 1_555
Hf3 S19 2.620884 1_565
Hf3 S23 2.727386 1_565
P0 S0 1.958755 1_555
P0 S2 2.024825 1_655
P0 S4 2.029751 1_555
P0 S6 2.171721 1_655
P1 S1 1.958755 1_555
P1 S3 2.024825 1_565
P1 S5 2.029751 1_555
P1 S7 2.171721 1_565
P2 S8 2.017332 1_555
P2 S12 2.025376 1_555
P2 S10 2.037780 1_455
P2 S6 2.116767 1_555
P3 S9 2.017332 1_555
P3 S13 2.025376 1_555
P3 S11 2.037780 1_545
P3 S7 2.116767 1_555
P4 S20 2.032828 1_555
P4 S18 2.035201 1_655
P4 S16 2.041471 1_655
P4 S14 2.043376 1_555
P5 S21 2.032828 1_555
P5 S19 2.035201 1_565
P5 S17 2.041471 1_565
P5 S15 2.043376 1_555
P6 S22 2.012684 1_555
P6 S26 2.030656 1_555
P6 S24 2.032688 1_555
P6 S28 2.123545 1_555
P7 S23 2.012684 1_555
P7 S27 2.030656 1_555
P7 S25 2.032688 1_555
P7 S29 2.123545 1_555
P8 S34 1.962150 1_555
P8 S30 2.028488 1_555
P8 S32 2.028840 1_555
P8 S28 2.160280 1_555
P9 S35 1.962150 1_555
P9 S31 2.028488 1_555
P9 S33 2.028840 1_555
P9 S29 2.160280 1_555
