# generated using pymatgen
data_Nb3AlV3Sn
_symmetry_space_group_name_H-M   'P 1'
_cell_length_a   5.09325395
_cell_length_b   5.09325395
_cell_length_c   5.09325431
_cell_angle_alpha   90.13251157
_cell_angle_beta   90.13251157
_cell_angle_gamma   90.13252182
_symmetry_Int_Tables_number   1
_chemical_formula_structural   Nb3AlV3Sn
_chemical_formula_sum   'Nb3 Al1 V3 Sn1'
_cell_volume   132.12424932
_cell_formula_units_Z   1
loop_
 _symmetry_equiv_pos_site_id
 _symmetry_equiv_pos_as_xyz
  1  'x, y, z'
loop_
 _atom_site_type_symbol
 _atom_site_label
 _atom_site_symmetry_multiplicity
 _atom_site_fract_x
 _atom_site_fract_y
 _atom_site_fract_z
 _atom_site_occupancy
  Nb  Nb0  1  0.73599900  0.00064700  0.50185200  1
  Nb  Nb1  1  0.00064700  0.50185200  0.73599900  1
  Nb  Nb2  1  0.50185200  0.73599900  0.00064700  1
  Al  Al0  1  0.49632400  0.49632400  0.49632400  1
  V  V0  1  0.25829800  0.99676800  0.50288000  1
  V  V1  1  0.99676800  0.50288000  0.25829800  1
  V  V2  1  0.50288000  0.25829800  0.99676800  1
  Sn  Sn0  1  0.00723300  0.00723300  0.00723300  1
loop_
_geom_bond_atom_site_label_1
_geom_bond_atom_site_label_2
_geom_bond_distance
_geom_bond_site_symmetry_2
Nb0 V0 2.433105 1_545
Nb0 V0 2.660314 1_645
Nb0 Sn0 2.876163 1_655
Nb0 Sn0 2.918588 1_656
Nb0 V2 3.080859 1_555
Nb0 Nb2 3.116988 1_546
Nb0 Nb1 3.116989 1_645
Nb0 Nb1 3.117416 1_655
Nb0 Nb2 3.117416 1_545
Nb0 V1 3.120733 1_545
Nb0 V2 3.123845 1_554
Nb0 V1 3.138911 1_555
Nb1 V1 2.433105 1_455
Nb1 V1 2.660314 1_456
Nb1 Sn0 2.876163 1_556
Nb1 Sn0 2.918588 1_566
Nb1 V0 3.080859 1_555
Nb1 Nb2 3.116988 1_456
Nb1 Nb2 3.117416 1_556
Nb1 V2 3.120733 1_455
Nb1 V0 3.123845 1_545
Nb1 V2 3.138911 1_555
Nb2 V2 2.433105 1_554
Nb2 V2 2.660314 1_564
Nb2 Sn0 2.876163 1_565
Nb2 Sn0 2.918588 1_665
Nb2 V1 3.080859 1_555
Nb2 V0 3.120733 1_554
Nb2 V1 3.123844 1_455
Nb2 V0 3.138911 1_555
Al0 Nb1 2.806963 1_555
Al0 Nb2 2.806963 1_555
Al0 Nb0 2.806963 1_555
Al0 V0 2.816196 1_545
Al0 V1 2.816196 1_455
Al0 V2 2.816196 1_554
Al0 V1 2.825203 1_555
Al0 V2 2.825203 1_555
Al0 V0 2.825203 1_555
Al0 Nb0 2.841461 1_565
Al0 Nb1 2.841462 1_655
Al0 Nb2 2.841462 1_556
V0 V1 3.100999 1_455
V0 V2 3.100999 1_565
V0 V2 3.161334 1_564
V0 V1 3.161334 1_465
V1 V2 3.100999 1_554
V1 V2 3.161334 1_654
Sn0 V2 2.827878 1_554
Sn0 V1 2.827878 1_455
Sn0 V0 2.827878 1_545
Sn0 V1 2.872562 1_445
Sn0 V0 2.872562 1_544
Sn0 V2 2.872562 1_454
