# generated using pymatgen
data_Sr2LaMn2O7
_symmetry_space_group_name_H-M   'P 1'
_cell_length_a   5.56035192
_cell_length_b   5.56095930
_cell_length_c   10.42737275
_cell_angle_alpha   90.40607783
_cell_angle_beta   74.53385039
_cell_angle_gamma   91.51258405
_symmetry_Int_Tables_number   1
_chemical_formula_structural   Sr2LaMn2O7
_chemical_formula_sum   'Sr4 La2 Mn4 O14'
_cell_volume   310.63982240
_cell_formula_units_Z   2
loop_
 _symmetry_equiv_pos_site_id
 _symmetry_equiv_pos_as_xyz
  1  'x, y, z'
loop_
 _atom_site_type_symbol
 _atom_site_label
 _atom_site_symmetry_multiplicity
 _atom_site_fract_x
 _atom_site_fract_y
 _atom_site_fract_z
 _atom_site_occupancy
  Sr  Sr0  1  0.31686100  0.00003400  0.36635300  1
  Sr  Sr1  1  0.81699900  0.50003400  0.36595800  1
  Sr  Sr2  1  0.18303700  0.50001600  0.63407000  1
  Sr  Sr3  1  0.68319000  0.99992900  0.63362400  1
  La  La0  1  0.49999700  0.00017500  0.99997400  1
  La  La1  1  0.99988500  0.49991200  0.00000400  1
  Mn  Mn0  1  0.09761500  0.00003700  0.80478800  1
  Mn  Mn1  1  0.90220200  0.00002200  0.19513600  1
  Mn  Mn2  1  0.59887500  0.49985500  0.80233500  1
  Mn  Mn3  1  0.40104900  0.49992600  0.19780100  1
  O  O0  1  0.50015100  0.49962300  0.00001500  1
  O  O1  1  0.99986600  0.00040500  0.99999600  1
  O  O2  1  0.19344400  0.00002600  0.61356200  1
  O  O3  1  0.69421800  0.49982900  0.61137700  1
  O  O4  1  0.30549200  0.50018600  0.38865300  1
  O  O5  1  0.80684000  0.99992600  0.38640800  1
  O  O6  1  0.84632200  0.75465000  0.81639600  1
  O  O7  1  0.33724800  0.24524200  0.81643700  1
  O  O8  1  0.32900500  0.76235600  0.81786100  1
  O  O9  1  0.85339700  0.23766000  0.81767500  1
  O  O10  1  0.66278800  0.75472900  0.18354700  1
  O  O11  1  0.15368900  0.24534200  0.18362900  1
  O  O12  1  0.14681100  0.76238700  0.18207100  1
  O  O13  1  0.67101700  0.23769900  0.18232800  1
loop_
_geom_bond_atom_site_label_1
_geom_bond_atom_site_label_2
_geom_bond_distance
_geom_bond_site_symmetry_2
La0 O8 2.668331 1_545
La0 O12 2.668399 1_546
La0 O9 2.669316 1_555
La0 O13 2.669644 1_556
La0 O7 2.713777 1_555
La0 O11 2.714573 1_556
La0 O6 2.715240 1_545
La0 O10 2.715289 1_546
La0 O0 2.777385 1_556
La0 O1 2.779475 1_555
La0 O1 2.780877 1_455
La0 O0 2.783575 1_546
La1 O12 2.669661 1_655
La1 O9 2.669984 1_554
La1 O13 2.669993 1_555
La1 O8 2.670346 1_654
La1 O10 2.715269 1_555
La1 O7 2.715725 1_654
La1 O6 2.715785 1_554
La1 O11 2.716118 1_655
La1 O1 2.777735 1_554
La1 O0 2.778624 1_555
La1 O0 2.781728 1_655
La1 O1 2.783225 1_564
Mn0 O9 1.898177 1_455
Mn0 O8 1.899158 1_545
Mn0 O7 1.907237 1_555
Mn0 O6 1.908039 1_445
Mn0 O2 1.921779 1_555
Mn0 O1 1.961798 1_455
Mn1 O13 1.897618 1_555
Mn1 O12 1.899548 1_645
Mn1 O10 1.906576 1_545
Mn1 O11 1.908665 1_655
Mn1 O5 1.922242 1_545
Mn1 O1 1.961115 1_554
Mn2 O3 1.919086 1_555
Mn2 O7 1.980596 1_555
Mn2 O6 1.980889 1_555
Mn2 O0 1.986641 1_556
Mn2 O9 2.094605 1_555
Mn2 O8 2.095601 1_555
Mn3 O4 1.918021 1_555
Mn3 O11 1.980030 1_555
Mn3 O10 1.981580 1_555
Mn3 O0 1.987706 1_555
Mn3 O13 2.094967 1_555
Mn3 O12 2.095601 1_555
O2 Sr0 2.484396 1_555
O2 Sr3 2.786264 1_545
O2 Sr2 2.788064 1_555
O2 Sr2 2.788151 1_545
O2 Sr3 2.788690 1_445
O3 Sr1 2.466407 1_555
O3 Sr2 2.788614 1_555
O3 Sr3 2.788925 1_545
O3 Sr3 2.789983 1_555
O3 Sr2 2.790415 1_655
O4 Sr2 2.466387 1_555
O4 Sr1 2.788621 1_455
O4 Sr0 2.788634 1_565
O4 Sr0 2.790360 1_555
O4 Sr1 2.790411 1_555
O5 Sr3 2.484466 1_555
O5 Sr0 2.787411 1_665
O5 Sr1 2.787446 1_555
O5 Sr0 2.787534 1_565
O5 Sr1 2.788684 1_565
O6 Sr2 2.707082 1_655
O6 Sr3 2.709168 1_555
O7 Sr2 2.707512 1_555
O7 Sr3 2.709411 1_545
O8 Sr2 2.680911 1_555
O8 Sr3 2.682413 1_555
O9 Sr2 2.679617 1_655
O9 Sr3 2.682036 1_545
O10 Sr1 2.707639 1_555
O10 Sr0 2.709306 1_565
O11 Sr1 2.707199 1_455
O11 Sr0 2.708972 1_555
O12 Sr1 2.681643 1_455
O12 Sr0 2.683291 1_565
O13 Sr1 2.679604 1_555
O13 Sr0 2.681414 1_555
