# generated using pymatgen
data_Zn2Fe9O13
_symmetry_space_group_name_H-M   'P 1'
_cell_length_a   5.27070601
_cell_length_b   5.27070601
_cell_length_c   17.24113778
_cell_angle_alpha   82.00133061
_cell_angle_beta   82.00133061
_cell_angle_gamma   32.90163974
_symmetry_Int_Tables_number   1
_chemical_formula_structural   Zn2Fe9O13
_chemical_formula_sum   'Zn2 Fe9 O13'
_cell_volume   257.41988220
_cell_formula_units_Z   1
loop_
 _symmetry_equiv_pos_site_id
 _symmetry_equiv_pos_as_xyz
  1  'x, y, z'
loop_
 _atom_site_type_symbol
 _atom_site_label
 _atom_site_symmetry_multiplicity
 _atom_site_fract_x
 _atom_site_fract_y
 _atom_site_fract_z
 _atom_site_occupancy
  Zn  Zn0  1  0.78910700  0.78910700  0.22973100  1
  Zn  Zn1  1  0.21089300  0.21089300  0.77026900  1
  Fe  Fe0  1  0.50000000  0.50000000  0.50000000  1
  Fe  Fe1  1  0.35114100  0.35114100  0.04413400  1
  Fe  Fe2  1  0.64885900  0.64885900  0.95586600  1
  Fe  Fe3  1  0.25175800  0.25175800  0.41612400  1
  Fe  Fe4  1  0.74824200  0.74824200  0.58387600  1
  Fe  Fe5  1  0.06672700  0.06672700  0.13097100  1
  Fe  Fe6  1  0.93327300  0.93327300  0.86902900  1
  Fe  Fe7  1  0.01488700  0.01488700  0.32451700  1
  Fe  Fe8  1  0.98511300  0.98511300  0.67548300  1
  O  O0  1  0.00000000  0.00000000  0.00000000  1
  O  O1  1  0.14989900  0.14989900  0.22856400  1
  O  O2  1  0.85010100  0.85010100  0.77143600  1
  O  O3  1  0.71214900  0.71214900  0.06553400  1
  O  O4  1  0.28785100  0.28785100  0.93446600  1
  O  O5  1  0.41273400  0.41273400  0.14496300  1
  O  O6  1  0.58726600  0.58726600  0.85503700  1
  O  O7  1  0.36671500  0.36671500  0.31517400  1
  O  O8  1  0.63328500  0.63328500  0.68482600  1
  O  O9  1  0.62158100  0.62158100  0.39387800  1
  O  O10  1  0.37841900  0.37841900  0.60612200  1
  O  O11  1  0.85773600  0.85773600  0.46271100  1
  O  O12  1  0.14226400  0.14226400  0.53728900  1
loop_
_geom_bond_atom_site_label_1
_geom_bond_atom_site_label_2
_geom_bond_distance
_geom_bond_site_symmetry_2
Fe0 O9 2.050835 1_555
Fe0 O10 2.050835 1_555
Fe0 O11 2.231187 1_545
Fe0 O11 2.231187 1_455
Fe0 O12 2.231187 1_655
Fe0 O12 2.231187 1_565
Fe1 O5 1.929749 1_555
Fe1 O3 2.046503 1_545
Fe1 O3 2.046503 1_455
Fe1 O4 2.082213 1_554
Fe1 O0 2.177037 1_655
Fe1 O0 2.177037 1_565
Fe2 O6 1.929749 1_555
Fe2 O4 2.046503 1_655
Fe2 O4 2.046503 1_565
Fe2 O3 2.082213 1_556
Fe2 O0 2.177037 1_566
Fe2 O0 2.177037 1_656
Fe3 O7 1.947576 1_555
Fe3 O9 2.062415 1_545
Fe3 O9 2.062415 1_455
Fe3 O11 2.066579 1_455
Fe3 O11 2.066579 1_545
Fe3 O12 2.217739 1_555
Fe4 O8 1.947576 1_555
Fe4 O10 2.062415 1_565
Fe4 O10 2.062415 1_655
Fe4 O12 2.066579 1_565
Fe4 O12 2.066579 1_655
Fe4 O11 2.217739 1_555
Fe5 O1 1.987157 1_555
Fe5 O5 2.144976 1_455
Fe5 O5 2.144976 1_545
Fe5 O3 2.276169 1_545
Fe5 O3 2.276169 1_455
Fe5 O0 2.448691 1_555
Fe6 O2 1.987157 1_555
Fe6 O6 2.144976 1_655
Fe6 O6 2.144976 1_565
Fe6 O4 2.276169 1_655
Fe6 O4 2.276169 1_565
Fe6 O0 2.448691 1_666
Fe7 O1 1.986123 1_555
Fe7 O7 2.137265 1_455
Fe7 O7 2.137265 1_545
Fe7 O9 2.279438 1_545
Fe7 O9 2.279438 1_455
Fe7 O11 2.665078 1_445
Fe8 O2 1.986123 1_555
Fe8 O8 2.137265 1_655
Fe8 O8 2.137265 1_565
Fe8 O10 2.279438 1_655
Fe8 O10 2.279438 1_565
Fe8 O12 2.665078 1_665
O1 Zn0 2.053595 1_455
O1 Zn0 2.053595 1_545
O2 Zn1 2.053595 1_655
O2 Zn1 2.053595 1_565
O5 Zn0 2.322923 1_545
O5 Zn0 2.322923 1_455
O6 Zn1 2.322923 1_565
O6 Zn1 2.322923 1_655
O7 Zn0 2.312803 1_545
O7 Zn0 2.312803 1_455
O8 Zn1 2.312803 1_565
O8 Zn1 2.312803 1_655
