# generated using pymatgen
data_LuCuSn
_symmetry_space_group_name_H-M   'P 1'
_cell_length_a   4.51858440
_cell_length_b   4.51858440
_cell_length_c   7.55346200
_cell_angle_alpha   90.00000000
_cell_angle_beta   90.00000000
_cell_angle_gamma   120.00000592
_symmetry_Int_Tables_number   1
_chemical_formula_structural   LuCuSn
_chemical_formula_sum   'Lu2 Cu2 Sn2'
_cell_volume   133.56155065
_cell_formula_units_Z   2
loop_
 _symmetry_equiv_pos_site_id
 _symmetry_equiv_pos_as_xyz
  1  'x, y, z'
loop_
 _atom_site_type_symbol
 _atom_site_label
 _atom_site_symmetry_multiplicity
 _atom_site_fract_x
 _atom_site_fract_y
 _atom_site_fract_z
 _atom_site_occupancy
  Lu  Lu0  1  0.00000000  0.00000000  0.20266600  1
  Lu  Lu1  1  0.00000000  0.00000000  0.79733400  1
  Cu  Cu0  1  0.33333300  0.66666700  0.02110800  1
  Cu  Cu1  1  0.66666700  0.33333300  0.97889200  1
  Sn  Sn0  1  0.66666700  0.33333300  0.57963700  1
  Sn  Sn1  1  0.33333300  0.66666700  0.42036300  1
loop_
_geom_bond_atom_site_label_1
_geom_bond_atom_site_label_2
_geom_bond_distance
_geom_bond_site_symmetry_2
Lu0 Lu1 3.061660 1_554
Lu0 Sn1 3.083796 1_545
Lu0 Sn1 3.083799 1_445
Lu0 Sn1 3.083799 1_555
Lu1 Sn0 3.083796 1_455
Lu1 Sn0 3.083799 1_555
Lu1 Sn0 3.083799 1_445
Cu0 Cu1 2.628219 1_454
Cu0 Cu1 2.628219 1_564
Cu0 Cu1 2.628227 1_554
Cu0 Lu0 2.947299 1_565
Cu0 Lu0 2.947302 1_665
Cu0 Lu0 2.947302 1_555
Cu0 Sn1 3.015757 1_555
Cu0 Lu1 3.108515 1_564
Cu0 Lu1 3.108518 1_554
Cu0 Lu1 3.108518 1_664
Cu1 Lu1 2.947299 1_655
Cu1 Lu1 2.947302 1_665
Cu1 Lu1 2.947302 1_555
Cu1 Sn0 3.015757 1_555
Cu1 Lu0 3.108515 1_656
Cu1 Lu0 3.108518 1_666
Cu1 Lu0 3.108518 1_556
Sn0 Sn1 2.872844 1_655
Sn0 Sn1 2.872844 1_545
Sn0 Sn1 2.872851 1_555
