# generated using pymatgen
data_Ba2LiTmCu3O7
_symmetry_space_group_name_H-M   'P 1'
_cell_length_a   3.76802000
_cell_length_b   4.03760300
_cell_length_c   12.84907100
_cell_angle_alpha   90.00000000
_cell_angle_beta   90.00000000
_cell_angle_gamma   90.00000000
_symmetry_Int_Tables_number   1
_chemical_formula_structural   Ba2LiTmCu3O7
_chemical_formula_sum   'Ba2 Li1 Tm1 Cu3 O7'
_cell_volume   195.48279621
_cell_formula_units_Z   1
loop_
 _symmetry_equiv_pos_site_id
 _symmetry_equiv_pos_as_xyz
  1  'x, y, z'
loop_
 _atom_site_type_symbol
 _atom_site_label
 _atom_site_symmetry_multiplicity
 _atom_site_fract_x
 _atom_site_fract_y
 _atom_site_fract_z
 _atom_site_occupancy
  Ba  Ba0  1  0.50000000  0.50000000  0.11173000  1
  Ba  Ba1  1  0.50000000  0.50000000  0.79967700  1
  Li  Li0  1  0.50000000  0.00000000  0.26575900  1
  Tm  Tm0  1  0.50000000  0.50000000  0.51243700  1
  Cu  Cu0  1  0.00000000  0.00000000  0.64222300  1
  Cu  Cu1  1  0.00000000  0.00000000  0.40353400  1
  Cu  Cu2  1  0.00000000  0.00000000  0.97706200  1
  O  O0  1  0.50000000  0.00000000  0.40753000  1
  O  O1  1  0.00000000  0.00000000  0.83124700  1
  O  O2  1  0.50000000  0.00000000  0.61877600  1
  O  O3  1  0.00000000  0.50000000  0.40685400  1
  O  O4  1  0.00000000  0.50000000  0.62671900  1
  O  O5  1  0.00000000  0.00000000  0.14389200  1
  O  O6  1  0.00000000  0.50000000  0.97478300  1
loop_
_geom_bond_atom_site_label_1
_geom_bond_atom_site_label_2
_geom_bond_distance
_geom_bond_site_symmetry_2
Ba0 O6 2.577951 1_654
Ba0 O6 2.577951 1_554
Ba0 O5 2.792101 1_665
Ba0 O5 2.792101 1_555
Ba0 O5 2.792101 1_565
Ba0 O5 2.792101 1_655
Ba1 O1 2.790986 1_655
Ba1 O1 2.790986 1_565
Ba1 O1 2.790986 1_665
Ba1 O1 2.790986 1_555
Ba1 O4 2.913474 1_555
Ba1 O4 2.913474 1_655
Ba1 O6 2.934581 1_555
Ba1 O6 2.934581 1_655
Ba1 O2 3.078708 1_555
Ba1 O2 3.078708 1_565
Li0 O0 1.821626 1_555
Li0 O5 2.449789 1_555
Li0 O5 2.449789 1_655
Cu0 O2 1.907946 1_455
Cu0 O2 1.907946 1_555
Cu0 O4 2.028607 1_545
Cu0 O4 2.028607 1_555
Cu0 O1 2.428783 1_555
Cu1 O0 1.884710 1_555
Cu1 O0 1.884710 1_455
Cu1 O3 2.019252 1_545
Cu1 O3 2.019252 1_555
Cu2 O1 1.873587 1_555
Cu2 O6 2.019014 1_545
Cu2 O6 2.019014 1_555
Cu2 O5 2.143611 1_556
O0 Tm0 2.427457 1_545
O0 Tm0 2.427457 1_555
O2 Tm0 2.437723 1_555
O2 Tm0 2.437723 1_545
O3 Tm0 2.321632 1_555
O3 Tm0 2.321632 1_455
O4 Tm0 2.388670 1_455
O4 Tm0 2.388670 1_555
