# generated using pymatgen
data_HfMg14Al
_symmetry_space_group_name_H-M   'P 1'
_cell_length_a   6.37188884
_cell_length_b   6.22463402
_cell_length_c   10.24150169
_cell_angle_alpha   90.00000000
_cell_angle_beta   90.00000000
_cell_angle_gamma   119.23842999
_symmetry_Int_Tables_number   1
_chemical_formula_structural   HfMg14Al
_chemical_formula_sum   'Hf1 Mg14 Al1'
_cell_volume   354.45263091
_cell_formula_units_Z   1
loop_
 _symmetry_equiv_pos_site_id
 _symmetry_equiv_pos_as_xyz
  1  'x, y, z'
loop_
 _atom_site_type_symbol
 _atom_site_label
 _atom_site_symmetry_multiplicity
 _atom_site_fract_x
 _atom_site_fract_y
 _atom_site_fract_z
 _atom_site_occupancy
  Hf  Hf0  1  0.15916129  0.82958014  0.12500000  1
  Mg  Mg0  1  0.16528582  0.33264241  0.62500000  1
  Mg  Mg1  1  0.16622823  0.83311362  0.62500000  1
  Mg  Mg2  1  0.66346107  0.33443691  0.12500000  1
  Mg  Mg3  1  0.66587727  0.33153227  0.62500000  1
  Mg  Mg4  1  0.66346107  0.82902316  0.12500000  1
  Mg  Mg5  1  0.66587727  0.83434400  0.62500000  1
  Mg  Mg6  1  0.33270944  0.16505843  0.37103075  1
  Mg  Mg7  1  0.33270944  0.16505843  0.87896925  1
  Mg  Mg8  1  0.33270944  0.66765201  0.37103075  1
  Mg  Mg9  1  0.33270944  0.66765201  0.87896925  1
  Mg  Mg10  1  0.83697755  0.16848927  0.36946439  1
  Mg  Mg11  1  0.83697755  0.16848927  0.88053561  1
  Mg  Mg12  1  0.83784013  0.66892056  0.37441832  1
  Mg  Mg13  1  0.83784013  0.66892056  0.87558168  1
  Al  Al0  1  0.17017486  0.33508693  0.12500000  1
loop_
_geom_bond_atom_site_label_1
_geom_bond_atom_site_label_2
_geom_bond_distance
_geom_bond_site_symmetry_2
Hf0 Mg9 3.110735 1_554
Hf0 Mg8 3.110735 1_555
Hf0 Mg7 3.110741 1_564
Hf0 Mg6 3.110741 1_565
Hf0 Mg13 3.117192 1_454
Hf0 Mg12 3.117192 1_455
Hf0 Mg2 3.156854 1_455
Hf0 Mg4 3.156855 1_455
Hf0 Mg2 3.215037 1_565
Hf0 Mg4 3.215037 1_555
Mg0 Mg1 3.112321 1_545
Mg0 Mg1 3.112321 1_555
Mg0 Mg6 3.174695 1_555
Mg0 Mg7 3.174695 1_555
Mg0 Mg8 3.174701 1_555
Mg0 Mg9 3.174701 1_555
Mg0 Mg5 3.178806 1_445
Mg0 Mg3 3.178806 1_455
Mg0 Mg11 3.190799 1_455
Mg0 Mg10 3.190799 1_455
Mg0 Mg5 3.193094 1_555
Mg0 Mg3 3.193094 1_555
Mg1 Mg12 3.149578 1_455
Mg1 Mg13 3.149578 1_455
Mg1 Mg9 3.165236 1_555
Mg1 Mg8 3.165236 1_555
Mg1 Mg7 3.165242 1_565
Mg1 Mg6 3.165242 1_565
Mg1 Mg3 3.179974 1_565
Mg1 Mg5 3.179974 1_555
Mg1 Mg3 3.191928 1_455
Mg1 Mg5 3.191929 1_455
Mg2 Mg4 3.078618 1_555
Mg2 Mg7 3.119546 1_554
Mg2 Mg6 3.119546 1_555
Mg2 Mg4 3.146016 1_545
Mg3 Mg5 3.094815 1_545
Mg3 Mg5 3.129819 1_555
Mg3 Mg6 3.193253 1_555
Mg3 Mg7 3.193253 1_555
Mg4 Mg8 3.119546 1_555
Mg4 Mg9 3.119546 1_554
Mg5 Mg8 3.193253 1_555
Mg5 Mg9 3.193253 1_555
Mg6 Mg8 3.096173 1_545
Mg6 Mg8 3.128461 1_555
Mg7 Mg9 3.096173 1_545
Mg7 Mg9 3.128461 1_555
Mg10 Mg2 3.110230 1_555
Mg10 Mg4 3.110236 1_545
Mg10 Mg12 3.112734 1_555
Mg10 Mg12 3.112734 1_545
Mg10 Mg8 3.169275 1_655
Mg10 Mg6 3.169275 1_655
Mg10 Mg3 3.185675 1_555
Mg10 Mg5 3.185681 1_545
Mg10 Mg8 3.202803 1_545
Mg10 Mg6 3.202804 1_555
Mg11 Mg2 3.110230 1_556
Mg11 Mg4 3.110236 1_546
Mg11 Mg13 3.112734 1_555
Mg11 Mg13 3.112734 1_545
Mg11 Mg9 3.169275 1_655
Mg11 Mg7 3.169275 1_655
Mg11 Mg3 3.185675 1_555
Mg11 Mg5 3.185681 1_545
Mg11 Mg9 3.202803 1_545
Mg11 Mg7 3.202804 1_555
Mg12 Mg4 3.136009 1_555
Mg12 Mg2 3.136015 1_555
Mg12 Mg5 3.154230 1_555
Mg12 Mg3 3.154236 1_555
Mg12 Mg6 3.157307 1_665
Mg12 Mg8 3.157307 1_655
Mg12 Mg6 3.214974 1_555
Mg12 Mg8 3.214974 1_555
Mg13 Mg4 3.136009 1_556
Mg13 Mg2 3.136015 1_556
Mg13 Mg5 3.154230 1_555
Mg13 Mg3 3.154236 1_555
Mg13 Mg7 3.157307 1_665
Mg13 Mg9 3.157307 1_655
Mg13 Mg7 3.214974 1_555
Mg13 Mg9 3.214974 1_555
Al0 Mg7 3.100402 1_554
Al0 Mg6 3.100402 1_555
Al0 Mg9 3.100408 1_554
Al0 Mg8 3.100408 1_555
Al0 Hf0 3.112919 1_555
Al0 Hf0 3.112919 1_545
Al0 Mg10 3.114572 1_455
Al0 Mg11 3.114572 1_454
Al0 Mg4 3.145143 1_555
Al0 Mg2 3.145143 1_555
Al0 Mg4 3.226749 1_445
Al0 Mg2 3.226750 1_455
