# generated using pymatgen
data_NdAlPd2
_symmetry_space_group_name_H-M   'P 1'
_cell_length_a   5.84700398
_cell_length_b   7.02062707
_cell_length_c   7.53877099
_cell_angle_alpha   90.00000000
_cell_angle_beta   90.00008029
_cell_angle_gamma   90.00000000
_symmetry_Int_Tables_number   1
_chemical_formula_structural   NdAlPd2
_chemical_formula_sum   'Nd4 Al4 Pd8'
_cell_volume   309.46379312
_cell_formula_units_Z   4
loop_
 _symmetry_equiv_pos_site_id
 _symmetry_equiv_pos_as_xyz
  1  'x, y, z'
loop_
 _atom_site_type_symbol
 _atom_site_label
 _atom_site_symmetry_multiplicity
 _atom_site_fract_x
 _atom_site_fract_y
 _atom_site_fract_z
 _atom_site_occupancy
  Nd  Nd0  1  0.34626861  0.75000000  0.03301218  1
  Nd  Nd1  1  0.15373372  0.75000000  0.53308112  1
  Nd  Nd2  1  0.65373372  0.25000000  0.96691788  1
  Nd  Nd3  1  0.84626861  0.25000000  0.46698782  1
  Al  Al0  1  0.65425705  0.75000000  0.38119591  1
  Al  Al1  1  0.84574803  0.75000000  0.88118316  1
  Al  Al2  1  0.34574803  0.25000000  0.61881584  1
  Al  Al3  1  0.15425705  0.25000000  0.11880509  1
  Pd  Pd0  1  0.91256564  0.55278317  0.17648960  1
  Pd  Pd1  1  0.58742965  0.94720803  0.67652129  1
  Pd  Pd2  1  0.08742965  0.05279197  0.82347671  1
  Pd  Pd3  1  0.41256664  0.44721683  0.32351240  1
  Pd  Pd4  1  0.08743065  0.44720803  0.82347671  1
  Pd  Pd5  1  0.41256664  0.05278317  0.32351140  1
  Pd  Pd6  1  0.91256664  0.94721683  0.17648960  1
  Pd  Pd7  1  0.58742965  0.55279197  0.67652129  1
loop_
_geom_bond_atom_site_label_1
_geom_bond_atom_site_label_2
_geom_bond_distance
_geom_bond_site_symmetry_2
Nd0 Pd4 3.050360 1_554
Nd0 Pd2 3.050363 1_564
Nd0 Pd5 3.076543 1_565
Nd0 Pd3 3.076548 1_555
Nd0 Pd6 3.085062 1_455
Nd0 Pd0 3.085067 1_455
Nd0 Pd1 3.335849 1_554
Nd0 Pd7 3.335849 1_554
Nd1 Pd3 3.050434 1_555
Nd1 Pd5 3.050438 1_565
Nd1 Pd4 3.076034 1_555
Nd1 Pd2 3.076035 1_565
Nd1 Pd1 3.084905 1_555
Nd1 Pd7 3.084905 1_555
Nd1 Pd6 3.336497 1_455
Nd1 Pd0 3.336500 1_455
Nd2 Pd0 3.050441 1_556
Nd2 Pd6 3.050444 1_546
Nd2 Pd1 3.076039 1_545
Nd2 Pd7 3.076039 1_555
Nd2 Pd2 3.084910 1_655
Nd2 Pd4 3.084915 1_655
Nd2 Pd5 3.336513 1_556
Nd2 Pd3 3.336519 1_556
Nd3 Pd7 3.050357 1_555
Nd3 Pd1 3.050357 1_545
Nd3 Pd0 3.076537 1_555
Nd3 Pd6 3.076538 1_545
Nd3 Pd3 3.085055 1_555
Nd3 Pd5 3.085057 1_555
Nd3 Pd2 3.335833 1_655
Nd3 Pd4 3.335836 1_655
Al0 Pd0 2.565104 1_555
Al0 Pd6 2.565107 1_555
Al0 Pd3 2.589374 1_555
Al0 Pd5 2.589375 1_565
Al0 Pd1 2.650736 1_555
Al0 Pd7 2.650736 1_555
Al0 Nd1 3.136887 1_655
Al0 Nd1 3.142589 1_555
Al0 Nd0 3.183219 1_555
Al1 Pd1 2.564900 1_555
Al1 Pd7 2.564900 1_555
Al1 Pd2 2.589426 1_665
Al1 Pd4 2.589429 1_655
Al1 Pd0 2.650639 1_556
Al1 Pd6 2.650640 1_556
Al1 Nd0 3.136751 1_556
Al1 Nd0 3.142416 1_656
Al1 Nd1 3.182706 1_655
Al2 Pd4 2.564894 1_555
Al2 Pd2 2.564898 1_555
Al2 Pd7 2.589424 1_555
Al2 Pd1 2.589424 1_545
Al2 Pd3 2.650622 1_555
Al2 Pd5 2.650628 1_555
Al2 Nd3 3.136745 1_455
Al2 Nd3 3.142416 1_555
Al2 Nd2 3.182702 1_555
Al3 Pd5 2.565104 1_555
Al3 Pd3 2.565109 1_555
Al3 Pd6 2.589376 1_445
Al3 Pd0 2.589379 1_455
Al3 Pd4 2.650753 1_554
Al3 Pd2 2.650754 1_554
Al3 Nd2 3.136896 1_554
Al3 Nd2 3.142591 1_454
Al3 Nd3 3.183217 1_455
