# generated using pymatgen
data_YAlNi
_symmetry_space_group_name_H-M   'P 1'
_cell_length_a   5.33182644
_cell_length_b   5.33181731
_cell_length_c   8.44208897
_cell_angle_alpha   90.00000000
_cell_angle_beta   90.00000000
_cell_angle_gamma   60.53447107
_symmetry_Int_Tables_number   1
_chemical_formula_structural   YAlNi
_chemical_formula_sum   'Y4 Al4 Ni4'
_cell_volume   208.95159437
_cell_formula_units_Z   4
loop_
 _symmetry_equiv_pos_site_id
 _symmetry_equiv_pos_as_xyz
  1  'x, y, z'
loop_
 _atom_site_type_symbol
 _atom_site_label
 _atom_site_symmetry_multiplicity
 _atom_site_fract_x
 _atom_site_fract_y
 _atom_site_fract_z
 _atom_site_occupancy
  Y  Y0  1  0.33323002  0.33322518  0.54278564  1
  Y  Y1  1  0.66962763  0.66962217  0.42555311  1
  Y  Y2  1  0.66962763  0.66962217  0.07444689  1
  Y  Y3  1  0.33323002  0.33322518  0.95721436  1
  Al  Al0  1  0.99578715  0.99579378  0.48790089  1
  Al  Al1  1  0.99578715  0.99579378  0.01209911  1
  Al  Al2  1  0.83318244  0.33967932  0.75000000  1
  Al  Al3  1  0.33968573  0.83319039  0.75000000  1
  Ni  Ni0  1  0.83354260  0.83356366  0.75000000  1
  Ni  Ni1  1  0.16791084  0.66518486  0.25000000  1
  Ni  Ni2  1  0.66519526  0.16790942  0.25000000  1
  Ni  Ni3  1  0.16319253  0.16319111  0.25000000  1
loop_
_geom_bond_atom_site_label_1
_geom_bond_atom_site_label_2
_geom_bond_distance
_geom_bond_site_symmetry_2
Y0 Y1 3.236061 1_545
Y0 Y1 3.236063 1_455
Y0 Y1 3.252458 1_555
Y0 Y3 3.498644 1_555
Y1 Y2 2.964070 1_555
Y2 Y3 3.236061 1_564
Y2 Y3 3.236063 1_654
Y2 Y3 3.252458 1_554
Al0 Ni2 2.528111 1_565
Al0 Ni1 2.528157 1_655
Al0 Ni3 2.531925 1_665
Al0 Ni0 2.669933 1_555
Al0 Al2 2.728645 1_565
Al0 Al3 2.728682 1_655
Al0 Y1 3.049754 1_555
Al0 Y0 3.111010 1_565
Al0 Y0 3.111058 1_655
Al0 Y0 3.142152 1_665
Al0 Y1 3.172117 1_565
Al0 Y1 3.172177 1_655
Al1 Ni2 2.528111 1_565
Al1 Ni1 2.528157 1_655
Al1 Ni3 2.531925 1_665
Al1 Ni0 2.669933 1_554
Al1 Al2 2.728645 1_564
Al1 Al3 2.728682 1_654
Al1 Y2 3.049754 1_555
Al1 Y3 3.111010 1_564
Al1 Y3 3.111058 1_654
Al1 Y3 3.142152 1_664
Al1 Y2 3.172117 1_565
Al1 Y2 3.172177 1_655
Al2 Ni0 2.634246 1_555
Al2 Al3 2.652503 1_555
Al2 Ni0 2.697572 1_545
Al2 Al3 2.722334 1_645
Al2 Y2 3.138178 1_556
Al2 Y1 3.138178 1_555
Al2 Y0 3.174822 1_655
Al2 Y3 3.174822 1_655
Al2 Y0 3.202702 1_555
Al2 Y3 3.202702 1_555
Al3 Ni0 2.634139 1_555
Al3 Ni0 2.697689 1_455
Al3 Y2 3.138177 1_556
Al3 Y1 3.138177 1_555
Al3 Y0 3.174758 1_565
Al3 Y3 3.174758 1_565
Al3 Y3 3.202759 1_555
Al3 Y0 3.202759 1_555
Ni0 Y2 3.127557 1_556
Ni0 Y1 3.127557 1_555
Ni0 Y0 3.206553 1_565
Ni0 Y3 3.206553 1_565
Ni0 Y3 3.206669 1_655
Ni0 Y0 3.206669 1_655
Ni1 Ni3 2.642994 1_565
Ni1 Ni2 2.672799 1_555
Ni1 Ni3 2.689003 1_555
Ni1 Ni2 2.702038 1_465
Ni1 Y3 2.912771 1_554
Ni1 Y0 2.912771 1_555
Ni1 Y1 3.032082 1_455
Ni1 Y2 3.032082 1_455
Ni1 Y1 3.068425 1_555
Ni1 Y2 3.068425 1_555
Ni2 Ni3 2.642951 1_655
Ni2 Ni3 2.689055 1_555
Ni2 Y0 2.912786 1_555
Ni2 Y3 2.912786 1_554
Ni2 Y1 3.032108 1_545
Ni2 Y2 3.032108 1_545
Ni2 Y1 3.068391 1_555
Ni2 Y2 3.068391 1_555
Ni3 Y3 2.926067 1_554
Ni3 Y0 2.926067 1_555
Ni3 Y2 3.069543 1_455
Ni3 Y1 3.069543 1_455
Ni3 Y1 3.069563 1_545
Ni3 Y2 3.069563 1_545
