# generated using pymatgen
data_KCrO2
_symmetry_space_group_name_H-M   'P 1'
_cell_length_a   4.44389305
_cell_length_b   4.44389305
_cell_length_c   8.31879300
_cell_angle_alpha   90.00000000
_cell_angle_beta   90.00000000
_cell_angle_gamma   119.99998587
_symmetry_Int_Tables_number   1
_chemical_formula_structural   KCrO2
_chemical_formula_sum   'K1 Cr1 O2'
_cell_volume   142.27159753
_cell_formula_units_Z   1
loop_
 _symmetry_equiv_pos_site_id
 _symmetry_equiv_pos_as_xyz
  1  'x, y, z'
loop_
 _atom_site_type_symbol
 _atom_site_label
 _atom_site_symmetry_multiplicity
 _atom_site_fract_x
 _atom_site_fract_y
 _atom_site_fract_z
 _atom_site_occupancy
  K  K0  1  0.00000000  0.00000000  0.00000000  1
  Cr  Cr0  1  0.00000000  0.00000000  0.50000000  1
  O  O0  1  0.00000000  0.00000000  0.29279100  1
  O  O1  1  0.00000000  0.00000000  0.70720900  1
loop_
_geom_bond_atom_site_label_1
_geom_bond_atom_site_label_2
_geom_bond_distance
_geom_bond_site_symmetry_2
K0 O0 2.435668 1_555
K0 O1 2.435668 1_554
Cr0 O1 1.723729 1_555
Cr0 O0 1.723729 1_555
