# generated using pymatgen
data_CeTiGe
_symmetry_space_group_name_H-M   'P 1'
_cell_length_a   8.42077994
_cell_length_b   8.42077994
_cell_length_c   8.42077994
_cell_angle_alpha   151.98335293
_cell_angle_beta   151.98335293
_cell_angle_gamma   40.03761318
_symmetry_Int_Tables_number   1
_chemical_formula_structural   CeTiGe
_chemical_formula_sum   'Ce2 Ti2 Ge2'
_cell_volume   131.49436416
_cell_formula_units_Z   2
loop_
 _symmetry_equiv_pos_site_id
 _symmetry_equiv_pos_as_xyz
  1  'x, y, z'
loop_
 _atom_site_type_symbol
 _atom_site_label
 _atom_site_symmetry_multiplicity
 _atom_site_fract_x
 _atom_site_fract_y
 _atom_site_fract_z
 _atom_site_occupancy
  Ce  Ce0  1  0.67507100  0.67507100  0.00000000  1
  Ce  Ce1  1  0.32492900  0.32492900  0.00000000  1
  Ti  Ti0  1  0.00000000  0.50000000  0.50000000  1
  Ti  Ti1  1  0.50000000  0.00000000  0.50000000  1
  Ge  Ge0  1  0.88403500  0.88403500  0.00000000  1
  Ge  Ge1  1  0.11596500  0.11596500  0.00000000  1
loop_
_geom_bond_atom_site_label_1
_geom_bond_atom_site_label_2
_geom_bond_distance
_geom_bond_site_symmetry_2
Ce0 Ge1 3.030607 1_666
Ce0 Ge1 3.030607 1_554
Ce0 Ge1 3.030607 1_565
Ce0 Ge1 3.030607 1_655
Ce0 Ge0 3.306646 1_555
Ce1 Ge0 3.030607 1_455
Ce1 Ge0 3.030607 1_556
Ce1 Ge0 3.030607 1_444
Ce1 Ge0 3.030607 1_545
Ce1 Ge1 3.306646 1_555
Ge0 Ti0 2.742670 1_654
Ge0 Ti1 2.742670 1_564
Ge0 Ti1 2.742670 1_665
Ge0 Ti0 2.742670 1_665
Ge1 Ti0 2.742670 1_544
Ge1 Ti0 2.742670 1_555
Ge1 Ti1 2.742670 1_454
Ge1 Ti1 2.742670 1_555
