# generated using pymatgen
data_LiMg14Sn
_symmetry_space_group_name_H-M   'P 1'
_cell_length_a   6.34243067
_cell_length_b   6.31896126
_cell_length_c   10.45419918
_cell_angle_alpha   90.00000000
_cell_angle_beta   90.00000000
_cell_angle_gamma   119.87767297
_symmetry_Int_Tables_number   1
_chemical_formula_structural   LiMg14Sn
_chemical_formula_sum   'Li1 Mg14 Sn1'
_cell_volume   363.29283836
_cell_formula_units_Z   1
loop_
 _symmetry_equiv_pos_site_id
 _symmetry_equiv_pos_as_xyz
  1  'x, y, z'
loop_
 _atom_site_type_symbol
 _atom_site_label
 _atom_site_symmetry_multiplicity
 _atom_site_fract_x
 _atom_site_fract_y
 _atom_site_fract_z
 _atom_site_occupancy
  Li  Li0  1  0.16664441  0.83332170  0.12500000  1
  Mg  Mg0  1  0.16664848  0.33332374  0.62500000  1
  Mg  Mg1  1  0.16675805  0.83337853  0.62500000  1
  Mg  Mg2  1  0.66702515  0.33397837  0.12500000  1
  Mg  Mg3  1  0.66667826  0.33311679  0.62500000  1
  Mg  Mg4  1  0.66702515  0.83304579  0.12500000  1
  Mg  Mg5  1  0.66667826  0.83356047  0.62500000  1
  Mg  Mg6  1  0.33322652  0.16632659  0.37515574  1
  Mg  Mg7  1  0.33322652  0.16632659  0.87484426  1
  Mg  Mg8  1  0.33322652  0.66690093  0.37515574  1
  Mg  Mg9  1  0.33322652  0.66690093  0.87484426  1
  Mg  Mg10  1  0.83293115  0.16646607  0.37532168  1
  Mg  Mg11  1  0.83293115  0.16646607  0.87467832  1
  Mg  Mg12  1  0.83335367  0.66667734  0.37539531  1
  Mg  Mg13  1  0.83335367  0.66667734  0.87460469  1
  Sn  Sn0  1  0.16706652  0.33353276  0.12500000  1
loop_
_geom_bond_atom_site_label_1
_geom_bond_atom_site_label_2
_geom_bond_distance
_geom_bond_site_symmetry_2
Li0 Sn0 3.159481 1_555
Li0 Sn0 3.159482 1_565
Li0 Mg2 3.167932 1_455
Li0 Mg4 3.167932 1_455
Li0 Mg2 3.174499 1_565
Li0 Mg4 3.174499 1_555
Li0 Mg9 3.188769 1_554
Li0 Mg8 3.188769 1_555
Li0 Mg7 3.188775 1_564
Li0 Mg6 3.188775 1_565
Li0 Mg12 3.195600 1_455
Li0 Mg13 3.195600 1_454
Mg0 Mg1 3.159481 1_545
Mg0 Mg1 3.159481 1_555
Mg0 Mg5 3.170375 1_445
Mg0 Mg3 3.170375 1_455
Mg0 Mg5 3.172056 1_555
Mg0 Mg3 3.172056 1_555
Mg0 Mg6 3.187891 1_555
Mg0 Mg7 3.187891 1_555
Mg0 Mg8 3.187898 1_555
Mg0 Mg9 3.187898 1_555
Mg0 Mg10 3.190812 1_455
Mg0 Mg11 3.190812 1_455
Mg1 Mg3 3.170136 1_565
Mg1 Mg5 3.170137 1_555
Mg1 Mg3 3.172294 1_455
Mg1 Mg5 3.172294 1_455
Mg1 Mg8 3.185919 1_555
Mg1 Mg9 3.185919 1_555
Mg1 Mg6 3.185925 1_565
Mg1 Mg7 3.185925 1_565
Mg1 Mg12 3.189192 1_455
Mg1 Mg13 3.189192 1_455
Mg2 Mg4 3.153588 1_555
Mg2 Mg4 3.165374 1_545
Mg2 Sn0 3.169551 1_555
Mg2 Sn0 3.172881 1_655
Mg2 Mg7 3.195156 1_554
Mg2 Mg6 3.195156 1_555
Mg3 Mg5 3.156677 1_545
Mg3 Mg5 3.162284 1_555
Mg3 Mg6 3.191391 1_555
Mg3 Mg7 3.191391 1_555
Mg4 Sn0 3.169551 1_555
Mg4 Sn0 3.172881 1_665
Mg4 Mg9 3.195156 1_554
Mg4 Mg8 3.195156 1_555
Mg5 Mg8 3.191391 1_555
Mg5 Mg9 3.191391 1_555
Mg6 Mg8 3.155851 1_545
Mg6 Mg8 3.163110 1_555
Mg6 Sn0 3.189901 1_555
Mg7 Mg9 3.155851 1_545
Mg7 Mg9 3.163110 1_555
Mg7 Sn0 3.189901 1_556
Mg8 Sn0 3.189907 1_555
Mg9 Sn0 3.189907 1_556
Mg10 Mg12 3.159482 1_545
Mg10 Mg12 3.159482 1_555
Mg10 Mg8 3.168903 1_545
Mg10 Mg6 3.168903 1_555
Mg10 Mg8 3.173528 1_655
Mg10 Mg6 3.173528 1_655
Mg10 Mg3 3.184361 1_555
Mg10 Mg5 3.184367 1_545
Mg10 Mg2 3.191484 1_555
Mg10 Mg4 3.191491 1_545
Mg10 Sn0 3.197636 1_655
Mg11 Mg13 3.159482 1_545
Mg11 Mg13 3.159482 1_555
Mg11 Mg9 3.168903 1_545
Mg11 Mg7 3.168903 1_555
Mg11 Mg9 3.173528 1_655
Mg11 Mg7 3.173528 1_655
Mg11 Mg3 3.184361 1_555
Mg11 Mg5 3.184367 1_545
Mg11 Mg2 3.191484 1_556
Mg11 Mg4 3.191491 1_546
Mg11 Sn0 3.197636 1_656
Mg12 Mg6 3.169706 1_665
Mg12 Mg8 3.169706 1_655
Mg12 Mg6 3.172727 1_555
Mg12 Mg8 3.172727 1_555
Mg12 Mg5 3.185789 1_555
Mg12 Mg3 3.185795 1_555
Mg12 Mg4 3.189863 1_555
Mg12 Mg2 3.189870 1_555
Mg13 Mg7 3.169706 1_665
Mg13 Mg9 3.169706 1_655
Mg13 Mg7 3.172727 1_555
Mg13 Mg9 3.172727 1_555
Mg13 Mg5 3.185789 1_555
Mg13 Mg3 3.185795 1_555
Mg13 Mg4 3.189863 1_556
Mg13 Mg2 3.189870 1_556
