# generated using pymatgen
data_Li(FeO2)8
_symmetry_space_group_name_H-M   'P 1'
_cell_length_a   2.95700901
_cell_length_b   10.44811192
_cell_length_c   10.36403530
_cell_angle_alpha   89.83883781
_cell_angle_beta   90.00255217
_cell_angle_gamma   90.00857918
_symmetry_Int_Tables_number   1
_chemical_formula_structural   Li(FeO2)8
_chemical_formula_sum   'Li1 Fe8 O16'
_cell_volume   320.19726943
_cell_formula_units_Z   1
loop_
 _symmetry_equiv_pos_site_id
 _symmetry_equiv_pos_as_xyz
  1  'x, y, z'
loop_
 _atom_site_type_symbol
 _atom_site_label
 _atom_site_symmetry_multiplicity
 _atom_site_fract_x
 _atom_site_fract_y
 _atom_site_fract_z
 _atom_site_occupancy
  Li  Li0  1  0.22597000  0.97449200  0.50335300  1
  Fe  Fe0  1  0.99021700  0.13698300  0.33192600  1
  Fe  Fe1  1  0.00250800  0.64165900  0.14677400  1
  Fe  Fe2  1  0.49776600  0.61571500  0.83578300  1
  Fe  Fe3  1  0.50969100  0.14308400  0.66665000  1
  Fe  Fe4  1  0.99081600  0.81183300  0.67468000  1
  Fe  Fe5  1  0.00237000  0.30703100  0.86022900  1
  Fe  Fe6  1  0.49757600  0.33319100  0.17124000  1
  Fe  Fe7  1  0.50994400  0.80602900  0.33993600  1
  O  O0  1  0.99611900  0.32962600  0.29292500  1
  O  O1  1  0.99899000  0.31994700  0.05016900  1
  O  O2  1  0.00721000  0.68731300  0.33935800  1
  O  O3  1  0.00470800  0.93375900  0.33796200  1
  O  O4  1  0.49365400  0.80783400  0.79412500  1
  O  O5  1  0.49583900  0.81515700  0.54475200  1
  O  O6  1  0.50388000  0.18639900  0.85987100  1
  O  O7  1  0.50101800  0.42684600  0.84406100  1
  O  O8  1  0.99620500  0.61920900  0.71405700  1
  O  O9  1  0.99918600  0.62888400  0.95681200  1
  O  O10  1  0.00704300  0.26181100  0.66749400  1
  O  O11  1  0.00479700  0.01546300  0.66859300  1
  O  O12  1  0.49319200  0.14122800  0.21239300  1
  O  O13  1  0.49541400  0.13384300  0.46184100  1
  O  O14  1  0.50398900  0.76233500  0.14693900  1
  O  O15  1  0.50106300  0.52182800  0.16308000  1
loop_
_geom_bond_atom_site_label_1
_geom_bond_atom_site_label_2
_geom_bond_distance
_geom_bond_site_symmetry_2
Li0 O11 1.883645 1_565
Li0 O3 1.884494 1_555
Li0 O13 1.894059 1_565
Li0 O5 1.894372 1_555
Fe0 O12 1.922574 1_555
Fe0 O12 1.936131 1_655
Fe0 O13 1.988635 1_555
Fe0 O13 2.011275 1_655
Fe0 O0 2.051898 1_555
Fe0 O3 2.124491 1_645
Fe1 O14 1.939929 1_455
Fe1 O15 1.941335 1_555
Fe1 O14 1.946306 1_555
Fe1 O15 1.947559 1_455
Fe1 O9 1.973691 1_454
Fe1 O2 2.053504 1_555
Fe2 O8 1.940396 1_555
Fe2 O9 1.940901 1_455
Fe2 O9 1.947171 1_555
Fe2 O8 1.947340 1_455
Fe2 O7 1.974972 1_555
Fe2 O4 2.052038 1_555
Fe3 O10 1.923862 1_655
Fe3 O10 1.936144 1_555
Fe3 O11 1.980450 1_655
Fe3 O11 2.001647 1_555
Fe3 O6 2.054364 1_555
Fe3 O13 2.125531 1_555
Fe4 O4 1.922318 1_555
Fe4 O4 1.935109 1_655
Fe4 O5 1.989053 1_555
Fe4 O5 2.011093 1_655
Fe4 O8 2.052457 1_555
Fe4 O11 2.128702 1_665
Fe5 O6 1.939285 1_455
Fe5 O7 1.941041 1_555
Fe5 O6 1.946368 1_555
Fe5 O7 1.947396 1_455
Fe5 O1 1.973569 1_456
Fe5 O10 2.053967 1_555
Fe6 O0 1.940289 1_555
Fe6 O1 1.941136 1_455
Fe6 O0 1.946921 1_455
Fe6 O1 1.947612 1_555
Fe6 O15 1.972502 1_555
Fe6 O12 2.049365 1_555
Fe7 O2 1.923863 1_655
Fe7 O2 1.935965 1_555
Fe7 O3 1.980178 1_655
Fe7 O3 2.003459 1_555
Fe7 O14 2.052989 1_555
Fe7 O5 2.125541 1_555
