# generated using pymatgen
data_Ti6H2O13
_symmetry_space_group_name_H-M   'P 1'
_cell_length_a   7.69184659
_cell_length_b   7.69184659
_cell_length_c   9.38482795
_cell_angle_alpha   82.61624507
_cell_angle_beta   82.61624507
_cell_angle_gamma   28.37423309
_symmetry_Int_Tables_number   1
_chemical_formula_structural   Ti6H2O13
_chemical_formula_sum   'Ti6 H2 O13'
_cell_volume   261.54147560
_cell_formula_units_Z   1
loop_
 _symmetry_equiv_pos_site_id
 _symmetry_equiv_pos_as_xyz
  1  'x, y, z'
loop_
 _atom_site_type_symbol
 _atom_site_label
 _atom_site_symmetry_multiplicity
 _atom_site_fract_x
 _atom_site_fract_y
 _atom_site_fract_z
 _atom_site_occupancy
  Ti  Ti0  1  0.11450700  0.11450700  0.90802000  1
  Ti  Ti1  1  0.88549300  0.88549300  0.09198000  1
  Ti  Ti2  1  0.16645300  0.16645300  0.55167800  1
  Ti  Ti3  1  0.83354700  0.83354700  0.44832200  1
  Ti  Ti4  1  0.22873500  0.22873500  0.22710800  1
  Ti  Ti5  1  0.77126500  0.77126500  0.77289200  1
  H  H0  1  0.99982800  0.99982800  0.68686300  1
  H  H1  1  0.00017200  0.00017200  0.31313700  1
  O  O0  1  0.00000000  0.00000000  0.00000000  1
  O  O1  1  0.23737500  0.23737500  0.75148900  1
  O  O2  1  0.76262500  0.76262500  0.24851100  1
  O  O3  1  0.06436900  0.06436900  0.69830700  1
  O  O4  1  0.93563100  0.93563100  0.30169300  1
  O  O5  1  0.29702600  0.29702600  0.43421200  1
  O  O6  1  0.70297400  0.70297400  0.56578800  1
  O  O7  1  0.12549600  0.12549600  0.38164000  1
  O  O8  1  0.87450400  0.87450400  0.61836000  1
  O  O9  1  0.35750100  0.35750100  0.12508400  1
  O  O10  1  0.64249900  0.64249900  0.87491600  1
  O  O11  1  0.16980600  0.16980600  0.07606600  1
  O  O12  1  0.83019400  0.83019400  0.92393400  1
loop_
_geom_bond_atom_site_label_1
_geom_bond_atom_site_label_2
_geom_bond_distance
_geom_bond_site_symmetry_2
H0 O3 0.982617 1_665
H1 O4 0.982617 1_445
O0 Ti0 1.808573 1_554
O0 Ti1 1.808573 1_445
O1 Ti5 1.968930 1_545
O1 Ti5 1.968930 1_455
O1 Ti0 2.191445 1_555
O1 Ti2 2.271799 1_555
O2 Ti4 1.968930 1_565
O2 Ti4 1.968930 1_655
O2 Ti1 2.191445 1_555
O2 Ti3 2.271799 1_555
O3 Ti2 1.912137 1_555
O3 Ti0 2.196100 1_555
O4 Ti3 1.912137 1_555
O4 Ti1 2.196100 1_555
O5 Ti3 1.971621 1_545
O5 Ti3 1.971621 1_455
O5 Ti2 2.106800 1_555
O5 Ti4 2.310832 1_555
O6 Ti2 1.971621 1_565
O6 Ti2 1.971621 1_655
O6 Ti3 2.106800 1_555
O6 Ti5 2.310832 1_555
O7 Ti2 1.782716 1_555
O7 Ti4 1.970301 1_555
O8 Ti3 1.782716 1_555
O8 Ti5 1.970301 1_555
O9 Ti1 1.946887 1_455
O9 Ti1 1.946887 1_545
O9 Ti4 2.029165 1_555
O10 Ti0 1.946887 1_565
O10 Ti0 1.946887 1_655
O10 Ti5 2.029165 1_555
O11 Ti4 1.764104 1_555
O11 Ti0 1.874100 1_554
O12 Ti5 1.764104 1_555
O12 Ti1 1.874100 1_556
