# generated using pymatgen
data_MgCd5
_symmetry_space_group_name_H-M   'P 1'
_cell_length_a   5.18342366
_cell_length_b   5.18342366
_cell_length_c   5.56435952
_cell_angle_alpha   90.00000000
_cell_angle_beta   90.00000000
_cell_angle_gamma   120.00001280
_symmetry_Int_Tables_number   1
_chemical_formula_structural   MgCd5
_chemical_formula_sum   'Mg1 Cd5'
_cell_volume   129.47298840
_cell_formula_units_Z   1
loop_
 _symmetry_equiv_pos_site_id
 _symmetry_equiv_pos_as_xyz
  1  'x, y, z'
loop_
 _atom_site_type_symbol
 _atom_site_label
 _atom_site_symmetry_multiplicity
 _atom_site_fract_x
 _atom_site_fract_y
 _atom_site_fract_z
 _atom_site_occupancy
  Mg  Mg0  1  0.00000000  -0.00000000  0.50000000  1
  Cd  Cd0  1  0.00000000  0.33176630  0.00000000  1
  Cd  Cd1  1  0.66823370  0.66823370  0.00000000  1
  Cd  Cd2  1  0.33176630  0.00000000  -0.00000000  1
  Cd  Cd3  1  0.66666700  0.33333300  0.50000000  1
  Cd  Cd4  1  0.33333300  0.66666700  0.50000000  1
loop_
_geom_bond_atom_site_label_1
_geom_bond_atom_site_label_2
_geom_bond_distance
_geom_bond_site_symmetry_2
Cd0 Cd1 2.978582 1_445
Cd0 Cd2 2.978582 1_555
Cd0 Cd1 2.999710 1_555
Cd0 Cd2 2.999710 1_455
Cd0 Cd2 2.999710 1_565
Cd0 Cd1 2.999710 1_455
Cd0 Mg0 3.270756 1_555
Cd0 Mg0 3.270756 1_554
Cd0 Cd3 3.277184 1_455
Cd0 Cd3 3.277184 1_454
Cd0 Cd4 3.277185 1_555
Cd0 Cd4 3.277185 1_554
Cd1 Cd2 2.978582 1_665
Cd1 Cd2 2.999710 1_555
Cd1 Cd2 2.999710 1_565
Cd1 Mg0 3.270755 1_665
Cd1 Mg0 3.270755 1_664
Cd1 Cd3 3.277187 1_554
Cd1 Cd4 3.277187 1_555
Cd1 Cd4 3.277187 1_554
Cd1 Cd3 3.277187 1_555
Cd2 Mg0 3.270756 1_555
Cd2 Mg0 3.270756 1_554
Cd2 Cd4 3.277184 1_544
Cd2 Cd4 3.277184 1_545
Cd2 Cd3 3.277185 1_554
Cd2 Cd3 3.277185 1_555
Cd3 Cd4 2.992648 1_545
Cd3 Cd4 2.992648 1_655
Cd3 Mg0 2.992648 1_655
Cd3 Mg0 2.992652 1_555
Cd3 Mg0 2.992652 1_665
Cd3 Cd4 2.992657 1_555
Cd4 Mg0 2.992648 1_565
Cd4 Mg0 2.992652 1_555
Cd4 Mg0 2.992652 1_665
