# generated using pymatgen
data_Nd2Ti2O7
_symmetry_space_group_name_H-M   'P 1'
_cell_length_a   5.48381544
_cell_length_b   7.67899035
_cell_length_c   13.10133776
_cell_angle_alpha   81.50506386
_cell_angle_beta   90.00000000
_cell_angle_gamma   90.00000000
_symmetry_Int_Tables_number   1
_chemical_formula_structural   Nd2Ti2O7
_chemical_formula_sum   'Nd8 Ti8 O28'
_cell_volume   545.64676794
_cell_formula_units_Z   4
loop_
 _symmetry_equiv_pos_site_id
 _symmetry_equiv_pos_as_xyz
  1  'x, y, z'
loop_
 _atom_site_type_symbol
 _atom_site_label
 _atom_site_symmetry_multiplicity
 _atom_site_fract_x
 _atom_site_fract_y
 _atom_site_fract_z
 _atom_site_occupancy
  Nd  Nd0  1  0.75368668  0.72909357  0.09015815  1
  Nd  Nd1  1  0.25368668  0.27090643  0.90984185  1
  Nd  Nd2  1  0.74191228  0.21852563  0.12110615  1
  Nd  Nd3  1  0.24191228  0.78147437  0.87889385  1
  Nd  Nd4  1  0.34862354  0.64516533  0.42814429  1
  Nd  Nd5  1  0.84862354  0.35483467  0.57185571  1
  Nd  Nd6  1  0.28060613  0.14885035  0.38315137  1
  Nd  Nd7  1  0.78060613  0.85114965  0.61684863  1
  Ti  Ti0  1  0.25525695  0.97203674  0.12131742  1
  Ti  Ti1  1  0.75525695  0.02796326  0.87868258  1
  Ti  Ti2  1  0.25670605  0.46883504  0.11886756  1
  Ti  Ti3  1  0.75670605  0.53116496  0.88113244  1
  Ti  Ti4  1  0.78821928  0.91421891  0.32531890  1
  Ti  Ti5  1  0.28821928  0.08578109  0.67468110  1
  Ti  Ti6  1  0.78063645  0.42612885  0.32015863  1
  Ti  Ti7  1  0.28063645  0.57387115  0.67984137  1
  O  O0  1  0.01824742  0.54317754  0.98109002  1
  O  O1  1  0.51824742  0.45682246  0.01890998  1
  O  O2  1  0.01753306  0.96687881  0.97923166  1
  O  O3  1  0.51753306  0.03312119  0.02076834  1
  O  O4  1  0.31017985  0.72297870  0.10864236  1
  O  O5  1  0.81017985  0.27702130  0.89135764  1
  O  O6  1  0.16740322  0.22729364  0.09158912  1
  O  O7  1  0.66740322  0.77270636  0.90841088  1
  O  O8  1  0.93620202  0.93271824  0.18121635  1
  O  O9  1  0.43620202  0.06728176  0.81878365  1
  O  O10  1  0.94057244  0.47784074  0.18301099  1
  O  O11  1  0.44057244  0.52215926  0.81698901  1
  O  O12  1  0.44982153  0.00282662  0.23045905  1
  O  O13  1  0.94982153  0.99717338  0.76954095  1
  O  O14  1  0.45391358  0.38365570  0.22747536  1
  O  O15  1  0.95391358  0.61634430  0.77252464  1
  O  O16  1  0.68868357  0.67413025  0.30454170  1
  O  O17  1  0.18868357  0.32586975  0.69545830  1
  O  O18  1  0.84735736  0.17300557  0.30594955  1
  O  O19  1  0.34735736  0.82699443  0.69405045  1
  O  O20  1  0.07332070  0.87371819  0.38827192  1
  O  O21  1  0.06386189  0.63034360  0.57086824  1
  O  O22  1  0.57332070  0.12628181  0.61172808  1
  O  O23  1  0.54925566  0.57868927  0.59378814  1
  O  O24  1  0.58099634  0.90923449  0.44170431  1
  O  O25  1  0.08099634  0.09076551  0.55829569  1
  O  O26  1  0.56386189  0.36965640  0.42913176  1
  O  O27  1  0.04925566  0.42131073  0.40621186  1
loop_
_geom_bond_atom_site_label_1
_geom_bond_atom_site_label_2
_geom_bond_distance
_geom_bond_site_symmetry_2
Nd0 O8 2.328312 1_555
Nd0 O10 2.357797 1_555
Nd0 O7 2.402131 1_554
Nd0 O4 2.443900 1_555
Nd0 O2 2.599156 1_654
Nd0 O0 2.605299 1_654
Nd0 O3 2.706837 1_565
Nd0 O1 2.736088 1_555
Nd0 O16 2.800684 1_555
Nd1 O9 2.328312 1_555
Nd1 O11 2.357797 1_555
Nd1 O6 2.402131 1_556
Nd1 O5 2.443900 1_455
Nd1 O3 2.599156 1_556
Nd1 O1 2.605299 1_556
Nd1 O2 2.706837 1_545
Nd1 O0 2.736088 1_555
Nd1 O17 2.800684 1_555
Nd2 O6 2.364475 1_655
Nd2 O3 2.412883 1_555
Nd2 O1 2.433449 1_555
Nd2 O8 2.462010 1_545
Nd2 O18 2.463953 1_555
Nd2 O10 2.507376 1_555
Nd2 O14 2.562486 1_555
Nd2 O12 2.580818 1_555
Nd3 O7 2.364475 1_555
Nd3 O2 2.412883 1_555
Nd3 O0 2.433449 1_555
Nd3 O9 2.462010 1_565
Nd3 O19 2.463953 1_555
Nd3 O11 2.507376 1_555
Nd3 O15 2.562486 1_455
Nd3 O13 2.580818 1_455
Nd4 O20 2.315483 1_555
Nd4 O23 2.419374 1_555
Nd4 O26 2.420980 1_555
Nd4 O24 2.423575 1_555
Nd4 O27 2.424559 1_555
Nd4 O21 2.425910 1_555
Nd4 O16 2.458243 1_555
Nd5 O22 2.315483 1_555
Nd5 O27 2.419374 1_655
Nd5 O21 2.420980 1_655
Nd5 O25 2.423575 1_655
Nd5 O23 2.424559 1_555
Nd5 O26 2.425910 1_555
Nd5 O17 2.458243 1_655
Nd6 O20 2.391319 1_545
Nd6 O26 2.439759 1_555
Nd6 O27 2.502993 1_555
Nd6 O24 2.504122 1_545
Nd6 O25 2.521918 1_555
Nd6 O18 2.578119 1_455
Nd6 O12 2.604430 1_555
Nd6 O14 2.688424 1_555
Nd7 O22 2.391319 1_565
Nd7 O21 2.439759 1_655
Nd7 O23 2.502993 1_555
Nd7 O25 2.504122 1_665
Nd7 O24 2.521918 1_555
Nd7 O19 2.578119 1_555
Nd7 O13 2.604430 1_555
Nd7 O15 2.688424 1_555
O0 Ti3 1.953523 1_455
O0 Ti2 2.233767 1_556
O1 Ti2 1.953523 1_555
O1 Ti3 2.233767 1_554
O2 Ti1 1.959961 1_465
O2 Ti0 2.277728 1_556
O3 Ti0 1.959961 1_545
O3 Ti1 2.277728 1_554
O4 Ti2 1.958394 1_555
O4 Ti0 1.967189 1_555
O5 Ti3 1.958394 1_555
O5 Ti1 1.967189 1_555
O6 Ti0 2.000076 1_545
O6 Ti2 2.000913 1_555
O7 Ti1 2.000076 1_565
O7 Ti3 2.000913 1_555
O8 Ti0 1.923079 1_655
O8 Ti4 2.040538 1_555
O9 Ti1 1.923079 1_555
O9 Ti5 2.040538 1_555
O10 Ti2 1.932252 1_655
O10 Ti6 1.986119 1_555
O11 Ti3 1.932252 1_555
O11 Ti7 1.986119 1_555
O12 Ti0 1.827238 1_545
O12 Ti4 2.280642 1_545
O13 Ti1 1.827238 1_565
O13 Ti5 2.280642 1_665
O14 Ti2 1.829498 1_555
O14 Ti6 2.215398 1_555
O15 Ti3 1.829498 1_555
O15 Ti7 2.215398 1_655
O16 Ti6 1.951347 1_555
O16 Ti4 1.979724 1_555
O17 Ti7 1.951347 1_555
O17 Ti5 1.979724 1_555
O18 Ti4 1.992392 1_545
O18 Ti6 2.013336 1_555
O19 Ti5 1.992392 1_565
O19 Ti7 2.013336 1_555
O20 Ti4 1.773567 1_455
O21 Ti7 1.859187 1_555
O22 Ti5 1.773567 1_555
O23 Ti7 1.852027 1_555
O24 Ti4 1.897523 1_555
O25 Ti5 1.897523 1_555
O26 Ti6 1.859187 1_555
O27 Ti6 1.852027 1_455
