# generated using pymatgen
data_NbNi6Mo
_symmetry_space_group_name_H-M   'P 1'
_cell_length_a   4.21449266
_cell_length_b   4.46927193
_cell_length_c   5.02850644
_cell_angle_alpha   90.00000000
_cell_angle_beta   90.00000000
_cell_angle_gamma   90.00000000
_symmetry_Int_Tables_number   1
_chemical_formula_structural   NbNi6Mo
_chemical_formula_sum   'Nb1 Ni6 Mo1'
_cell_volume   94.71550787
_cell_formula_units_Z   1
loop_
 _symmetry_equiv_pos_site_id
 _symmetry_equiv_pos_as_xyz
  1  'x, y, z'
loop_
 _atom_site_type_symbol
 _atom_site_label
 _atom_site_symmetry_multiplicity
 _atom_site_fract_x
 _atom_site_fract_y
 _atom_site_fract_z
 _atom_site_occupancy
  Nb  Nb0  1  0.00000000  0.34611555  0.00000000  1
  Ni  Ni0  1  0.00000000  0.33164005  0.50000000  1
  Ni  Ni1  1  0.50000000  0.68099182  0.00000000  1
  Ni  Ni2  1  0.50000000  0.15614743  0.74499322  1
  Ni  Ni3  1  0.50000000  0.15614743  0.25500678  1
  Ni  Ni4  1  0.00000000  0.83941605  0.74367297  1
  Ni  Ni5  1  0.00000000  0.83941605  0.25632703  1
  Mo  Mo0  1  0.50000000  0.65012463  0.50000000  1
loop_
_geom_bond_atom_site_label_1
_geom_bond_atom_site_label_2
_geom_bond_distance
_geom_bond_site_symmetry_2
Nb0 Ni0 2.515085 1_555
Nb0 Ni0 2.515085 1_554
Nb0 Ni4 2.553830 1_554
Nb0 Ni5 2.553830 1_555
Nb0 Ni1 2.584658 1_555
Nb0 Ni1 2.584658 1_455
Nb0 Ni4 2.605702 1_544
Nb0 Ni5 2.605702 1_545
Nb0 Ni2 2.608759 1_454
Nb0 Ni3 2.608759 1_455
Nb0 Ni2 2.608759 1_554
Nb0 Ni3 2.608759 1_555
Ni0 Ni4 2.518109 1_545
Ni0 Ni5 2.518109 1_545
Ni0 Ni3 2.563855 1_555
Ni0 Ni2 2.563855 1_455
Ni0 Ni2 2.563855 1_555
Ni0 Ni3 2.563855 1_455
Ni0 Ni5 2.579053 1_555
Ni0 Ni4 2.579053 1_555
Ni1 Ni2 2.480721 1_564
Ni1 Ni3 2.480721 1_565
Ni1 Ni4 2.569666 1_554
Ni1 Ni5 2.569666 1_655
Ni1 Ni4 2.569666 1_654
Ni1 Ni5 2.569666 1_555
Ni1 Ni3 2.673290 1_555
Ni1 Ni2 2.673290 1_554
Ni2 Ni3 2.463900 1_555
Ni2 Ni4 2.538570 1_545
Ni2 Ni4 2.538570 1_645
Ni2 Ni3 2.564606 1_556
Ni3 Ni5 2.538570 1_545
Ni3 Ni5 2.538570 1_645
Ni4 Ni5 2.450622 1_555
Ni4 Ni5 2.577884 1_556
Mo0 Ni1 2.518035 1_556
Mo0 Ni1 2.518035 1_555
Mo0 Ni2 2.528185 1_555
Mo0 Ni3 2.528185 1_555
Mo0 Ni0 2.542939 1_555
Mo0 Ni0 2.542939 1_655
Mo0 Ni2 2.575330 1_565
Mo0 Ni3 2.575330 1_565
Mo0 Ni5 2.580229 1_555
Mo0 Ni4 2.580229 1_655
Mo0 Ni5 2.580229 1_655
Mo0 Ni4 2.580229 1_555
