# generated using pymatgen
data_NaMg14Sb
_symmetry_space_group_name_H-M   'P 1'
_cell_length_a   6.44837262
_cell_length_b   6.36579784
_cell_length_c   10.50412148
_cell_angle_alpha   90.00000000
_cell_angle_beta   90.00000000
_cell_angle_gamma   119.57729863
_symmetry_Int_Tables_number   1
_chemical_formula_structural   NaMg14Sb
_chemical_formula_sum   'Na1 Mg14 Sb1'
_cell_volume   374.99671505
_cell_formula_units_Z   1
loop_
 _symmetry_equiv_pos_site_id
 _symmetry_equiv_pos_as_xyz
  1  'x, y, z'
loop_
 _atom_site_type_symbol
 _atom_site_label
 _atom_site_symmetry_multiplicity
 _atom_site_fract_x
 _atom_site_fract_y
 _atom_site_fract_z
 _atom_site_occupancy
  Na  Na0  1  0.16598977  0.33299439  0.12500000  1
  Mg  Mg0  1  0.16728980  0.33364440  0.62500000  1
  Mg  Mg1  1  0.16583067  0.83291484  0.62500000  1
  Mg  Mg2  1  0.66759195  0.33139698  0.12500000  1
  Mg  Mg3  1  0.66623321  0.33428446  0.62500000  1
  Mg  Mg4  1  0.66759195  0.83619397  0.12500000  1
  Mg  Mg5  1  0.66623321  0.83194775  0.62500000  1
  Mg  Mg6  1  0.33558890  0.16722380  0.37981397  1
  Mg  Mg7  1  0.33558890  0.16722380  0.87018603  1
  Mg  Mg8  1  0.33558890  0.66836609  0.37981397  1
  Mg  Mg9  1  0.33558890  0.66836609  0.87018603  1
  Mg  Mg10  1  0.82954051  0.16477075  0.38039408  1
  Mg  Mg11  1  0.82954051  0.16477075  0.86960592  1
  Mg  Mg12  1  0.83008212  0.66504156  0.37527816  1
  Mg  Mg13  1  0.83008212  0.66504156  0.87472184  1
  Sb  Sb0  1  0.17163858  0.83581879  0.12500000  1
loop_
_geom_bond_atom_site_label_1
_geom_bond_atom_site_label_2
_geom_bond_distance
_geom_bond_site_symmetry_2
Na0 Sb0 3.183057 1_555
Na0 Sb0 3.183057 1_545
Mg0 Mg6 3.173030 1_555
Mg0 Mg7 3.173030 1_555
Mg0 Mg8 3.173036 1_555
Mg0 Mg9 3.173036 1_555
Mg0 Mg1 3.182909 1_545
Mg0 Mg1 3.182909 1_555
Mg0 Mg11 3.192082 1_455
Mg0 Mg10 3.192082 1_455
Mg0 Mg5 3.215364 1_555
Mg0 Mg3 3.215364 1_555
Mg0 Mg5 3.233012 1_445
Mg0 Mg3 3.233013 1_455
Mg1 Mg8 3.171827 1_555
Mg1 Mg9 3.171827 1_555
Mg1 Mg6 3.171833 1_565
Mg1 Mg7 3.171833 1_565
Mg1 Mg3 3.218556 1_455
Mg1 Mg5 3.218556 1_455
Mg1 Mg13 3.228938 1_455
Mg1 Mg12 3.228938 1_455
Mg1 Mg3 3.229825 1_565
Mg1 Mg5 3.229825 1_555
Mg2 Mg4 3.152362 1_545
Mg2 Sb0 3.196914 1_545
Mg2 Na0 3.208848 1_655
Mg2 Mg4 3.213436 1_555
Mg2 Na0 3.239549 1_555
Mg2 Sb0 3.251460 1_655
Mg2 Mg7 3.260520 1_554
Mg2 Mg6 3.260520 1_555
Mg3 Mg5 3.168024 1_555
Mg3 Mg6 3.173563 1_555
Mg3 Mg7 3.173563 1_555
Mg3 Mg5 3.197774 1_545
Mg4 Sb0 3.196914 1_555
Mg4 Na0 3.208848 1_665
Mg4 Na0 3.239549 1_555
Mg4 Sb0 3.251460 1_655
Mg4 Mg9 3.260519 1_554
Mg4 Mg8 3.260519 1_555
Mg5 Mg8 3.173563 1_555
Mg5 Mg9 3.173563 1_555
Mg6 Mg8 3.175627 1_545
Mg6 Mg8 3.190171 1_555
Mg6 Sb0 3.245108 1_545
Mg6 Na0 3.257774 1_555
Mg7 Mg9 3.175627 1_545
Mg7 Mg9 3.190171 1_555
Mg7 Sb0 3.245108 1_546
Mg7 Na0 3.257774 1_556
Mg8 Sb0 3.245102 1_555
Mg8 Na0 3.257780 1_555
Mg9 Sb0 3.245102 1_556
Mg9 Na0 3.257780 1_556
Mg10 Mg3 3.161779 1_555
Mg10 Mg5 3.161786 1_545
Mg10 Mg12 3.183354 1_545
Mg10 Mg12 3.183354 1_555
Mg10 Mg8 3.192926 1_545
Mg10 Mg6 3.192927 1_555
Mg10 Mg2 3.241299 1_555
Mg10 Mg4 3.241306 1_545
Mg10 Mg8 3.255515 1_655
Mg10 Mg6 3.255515 1_655
Mg10 Na0 3.279784 1_655
Mg11 Mg3 3.161779 1_555
Mg11 Mg5 3.161786 1_545
Mg11 Mg13 3.183354 1_545
Mg11 Mg13 3.183354 1_555
Mg11 Mg9 3.192926 1_545
Mg11 Mg7 3.192927 1_555
Mg11 Mg2 3.241299 1_556
Mg11 Mg4 3.241306 1_546
Mg11 Mg9 3.255515 1_655
Mg11 Mg7 3.255515 1_655
Mg11 Na0 3.279784 1_656
Mg12 Mg5 3.199080 1_555
Mg12 Mg3 3.199086 1_555
Mg12 Mg6 3.199530 1_555
Mg12 Mg8 3.199530 1_555
Mg12 Mg4 3.212990 1_555
Mg12 Mg2 3.212996 1_555
Mg12 Mg6 3.249651 1_665
Mg12 Mg8 3.249651 1_655
Mg12 Sb0 3.252760 1_655
Mg13 Mg5 3.199080 1_555
Mg13 Mg3 3.199086 1_555
Mg13 Mg7 3.199530 1_555
Mg13 Mg9 3.199530 1_555
Mg13 Mg4 3.212990 1_556
Mg13 Mg2 3.212996 1_556
Mg13 Mg7 3.249651 1_665
Mg13 Mg9 3.249651 1_655
Mg13 Sb0 3.252760 1_656
