# generated using pymatgen
data_Mg6ZrSb
_symmetry_space_group_name_H-M   'P 1'
_cell_length_a   5.04857700
_cell_length_b   6.53837300
_cell_length_c   10.95964700
_cell_angle_alpha   90.00000000
_cell_angle_beta   90.00000000
_cell_angle_gamma   90.00000000
_symmetry_Int_Tables_number   1
_chemical_formula_structural   Mg6ZrSb
_chemical_formula_sum   'Mg12 Zr2 Sb2'
_cell_volume   361.77224347
_cell_formula_units_Z   2
loop_
 _symmetry_equiv_pos_site_id
 _symmetry_equiv_pos_as_xyz
  1  'x, y, z'
loop_
 _atom_site_type_symbol
 _atom_site_label
 _atom_site_symmetry_multiplicity
 _atom_site_fract_x
 _atom_site_fract_y
 _atom_site_fract_z
 _atom_site_occupancy
  Mg  Mg0  1  0.00000000  0.24274500  0.08083200  1
  Mg  Mg1  1  0.00000000  0.75725500  0.08083200  1
  Mg  Mg2  1  0.00000000  0.50000000  0.83524400  1
  Mg  Mg3  1  0.50000000  0.25425300  0.91751700  1
  Mg  Mg4  1  0.50000000  0.74574700  0.91751700  1
  Mg  Mg5  1  0.50000000  0.50000000  0.66695200  1
  Mg  Mg6  1  0.00000000  0.74274500  0.58083200  1
  Mg  Mg7  1  0.00000000  0.25725500  0.58083200  1
  Mg  Mg8  1  0.00000000  0.00000000  0.33524400  1
  Mg  Mg9  1  0.50000000  0.75425300  0.41751700  1
  Mg  Mg10  1  0.50000000  0.24574700  0.41751700  1
  Mg  Mg11  1  0.50000000  0.00000000  0.16695200  1
  Zr  Zr0  1  0.00000000  0.50000000  0.33223600  1
  Zr  Zr1  1  0.00000000  0.00000000  0.83223600  1
  Sb  Sb0  1  0.50000000  0.50000000  0.16887000  1
  Sb  Sb1  1  0.50000000  0.00000000  0.66887000  1
loop_
_geom_bond_atom_site_label_1
_geom_bond_atom_site_label_2
_geom_bond_distance
_geom_bond_site_symmetry_2
Mg0 Mg3 3.095375 1_554
Mg0 Mg3 3.095375 1_454
Mg0 Mg11 3.127610 1_455
Mg0 Mg11 3.127610 1_555
Mg0 Zr1 3.153110 1_554
Mg0 Mg2 3.173910 1_554
Mg0 Mg1 3.174315 1_545
Mg0 Sb0 3.183115 1_455
Mg0 Sb0 3.183115 1_555
Mg0 Mg8 3.208348 1_555
Mg0 Zr0 3.228141 1_555
Mg0 Mg1 3.364058 1_555
Mg1 Mg4 3.095375 1_554
Mg1 Mg4 3.095375 1_454
Mg1 Mg11 3.127610 1_565
Mg1 Mg11 3.127610 1_465
Mg1 Zr1 3.153110 1_564
Mg1 Mg2 3.173910 1_554
Mg1 Sb0 3.183115 1_455
Mg1 Sb0 3.183115 1_555
Mg1 Mg8 3.208348 1_565
Mg1 Zr0 3.228141 1_555
Mg2 Mg4 3.125192 1_455
Mg2 Mg4 3.125192 1_555
Mg2 Mg3 3.125192 1_455
Mg2 Mg3 3.125192 1_555
Mg2 Mg5 3.126327 1_555
Mg2 Mg5 3.126327 1_455
Mg2 Mg6 3.208348 1_555
Mg2 Mg7 3.208348 1_555
Mg2 Zr1 3.269353 1_565
Mg2 Zr1 3.269353 1_555
Mg3 Zr1 3.163729 1_555
Mg3 Zr1 3.163729 1_655
Mg3 Mg5 3.181642 1_555
Mg3 Sb0 3.189099 1_556
Mg3 Sb1 3.192124 1_555
Mg3 Mg4 3.213571 1_555
Mg3 Mg4 3.324802 1_545
Mg4 Zr1 3.163729 1_565
Mg4 Zr1 3.163729 1_665
Mg4 Mg5 3.181642 1_555
Mg4 Sb0 3.189099 1_556
Mg4 Sb1 3.192124 1_565
Mg5 Mg7 3.127610 1_555
Mg5 Mg6 3.127610 1_655
Mg5 Mg7 3.127610 1_655
Mg5 Mg6 3.127610 1_555
Mg5 Mg9 3.199500 1_555
Mg5 Sb1 3.269254 1_555
Mg5 Sb1 3.269254 1_565
Mg6 Mg9 3.095375 1_455
Mg6 Mg9 3.095375 1_555
Mg6 Zr0 3.153110 1_555
Mg6 Mg8 3.173910 1_565
Mg6 Mg7 3.174315 1_555
Mg6 Sb1 3.183115 1_565
Mg6 Sb1 3.183115 1_465
Mg6 Zr1 3.228141 1_565
Mg6 Mg7 3.364058 1_565
Mg7 Zr0 3.153110 1_555
Mg7 Mg8 3.173910 1_555
Mg7 Sb1 3.183115 1_455
Mg7 Sb1 3.183115 1_555
Mg7 Zr1 3.228141 1_555
Mg8 Mg9 3.125192 1_545
Mg8 Mg9 3.125192 1_445
Mg8 Zr0 3.269353 1_555
Mg8 Zr0 3.269353 1_545
Mg9 Zr0 3.163729 1_555
Mg9 Zr0 3.163729 1_655
Mg9 Sb1 3.189099 1_565
Mg9 Sb0 3.192124 1_555
Mg10 Mg7 3.095375 1_655
Mg10 Mg7 3.095375 1_555
Mg10 Mg8 3.125192 1_655
Mg10 Mg8 3.125192 1_555
Mg10 Zr0 3.163729 1_555
Mg10 Zr0 3.163729 1_655
Mg10 Mg11 3.181642 1_555
Mg10 Sb1 3.189099 1_555
Mg10 Sb0 3.192124 1_555
Mg10 Mg5 3.199500 1_555
Mg10 Mg9 3.213571 1_545
Mg10 Mg9 3.324802 1_555
Mg11 Mg8 3.126327 1_655
Mg11 Mg8 3.126327 1_555
Mg11 Mg9 3.181642 1_545
Mg11 Mg3 3.199500 1_554
Mg11 Mg4 3.199500 1_544
Mg11 Sb0 3.269254 1_545
Mg11 Sb0 3.269254 1_555
Sb0 Zr0 3.094784 1_555
Sb0 Zr0 3.094784 1_655
Sb1 Zr1 3.094784 1_555
Sb1 Zr1 3.094784 1_655
