# generated using pymatgen
data_La5S7
_symmetry_space_group_name_H-M   'P 1'
_cell_length_a   10.99548554
_cell_length_b   10.99548554
_cell_length_c   5.42147821
_cell_angle_alpha   89.86690439
_cell_angle_beta   89.86690439
_cell_angle_gamma   89.92019840
_symmetry_Int_Tables_number   1
_chemical_formula_structural   La5S7
_chemical_formula_sum   'La10 S14'
_cell_volume   655.45635520
_cell_formula_units_Z   2
loop_
 _symmetry_equiv_pos_site_id
 _symmetry_equiv_pos_as_xyz
  1  'x, y, z'
loop_
 _atom_site_type_symbol
 _atom_site_label
 _atom_site_symmetry_multiplicity
 _atom_site_fract_x
 _atom_site_fract_y
 _atom_site_fract_z
 _atom_site_occupancy
  La  La0  1  0.83234700  0.83234700  0.54272400  1
  La  La1  1  0.16259200  0.16259200  0.54425600  1
  La  La2  1  0.63880400  0.34726500  0.54422000  1
  La  La3  1  0.34726500  0.63880400  0.54422000  1
  La  La4  1  0.16696400  0.81903700  0.04698500  1
  La  La5  1  0.81903700  0.16696400  0.04698500  1
  La  La6  1  0.32914900  0.32914900  0.03307500  1
  La  La7  1  0.66008000  0.66008000  0.03792500  1
  La  La8  1  0.50208500  0.99569200  0.82986000  1
  La  La9  1  0.99569200  0.50208500  0.82986000  1
  S  S0  1  0.05745900  0.26030600  0.01488200  1
  S  S1  1  0.92348800  0.72714800  0.04058200  1
  S  S2  1  0.41757800  0.77195900  0.03774200  1
  S  S3  1  0.56904100  0.22666200  0.03623600  1
  S  S4  1  0.77195900  0.41757800  0.03774200  1
  S  S5  1  0.22666200  0.56904100  0.03623600  1
  S  S6  1  0.26030600  0.05745900  0.01488200  1
  S  S7  1  0.72714800  0.92348800  0.04058200  1
  S  S8  1  0.40900500  0.20497400  0.53537200  1
  S  S9  1  0.57686900  0.77851900  0.54390600  1
  S  S10  1  0.11894000  0.79503700  0.54722500  1
  S  S11  1  0.79503700  0.11894000  0.54722500  1
  S  S12  1  0.20497400  0.40900500  0.53537200  1
  S  S13  1  0.77851900  0.57686900  0.54390600  1
loop_
_geom_bond_atom_site_label_1
_geom_bond_atom_site_label_2
_geom_bond_distance
_geom_bond_site_symmetry_2
La0 S9 2.871575 1_555
La0 S13 2.871575 1_555
La0 S1 3.101997 1_556
La0 S7 3.101997 1_556
La0 S1 3.122851 1_555
La0 S7 3.122851 1_555
La0 S10 3.177397 1_655
La0 S11 3.177397 1_565
La1 S8 2.750147 1_555
La1 S12 2.750147 1_555
La1 S0 2.999390 1_556
La1 S6 2.999390 1_556
La1 S6 3.274926 1_555
La1 S0 3.274926 1_555
La2 S13 2.957099 1_555
La2 S8 2.974314 1_555
La2 S11 3.040076 1_555
La2 S3 3.072316 1_556
La2 S4 3.151384 1_556
La2 S3 3.156134 1_555
La2 S4 3.202449 1_555
La3 S9 2.957099 1_555
La3 S12 2.974314 1_555
La3 S10 3.040076 1_555
La3 S5 3.072316 1_556
La3 S2 3.151384 1_556
La3 S5 3.156134 1_555
La3 S2 3.202449 1_555
La4 S10 2.773814 1_555
La4 S10 2.774866 1_554
La4 S2 2.803467 1_555
La4 S6 2.821492 1_565
La4 S5 2.825926 1_555
La4 S1 2.863081 1_455
La5 S11 2.773814 1_555
La5 S11 2.774866 1_554
La5 S4 2.803467 1_555
La5 S0 2.821492 1_655
La5 S3 2.825926 1_555
La5 S7 2.863081 1_545
La6 S3 2.866991 1_555
La6 S5 2.866991 1_555
La6 S0 3.084652 1_555
La6 S6 3.084652 1_555
La6 S8 3.149400 1_554
La6 S12 3.149400 1_554
La6 S8 3.168828 1_555
La6 S12 3.168828 1_555
La7 S2 2.934963 1_555
La7 S4 2.934963 1_555
La7 S7 2.989778 1_555
La7 S1 2.989778 1_555
La7 S9 3.114212 1_554
La7 S13 3.114212 1_554
La7 S9 3.171698 1_555
La7 S13 3.171698 1_555
La8 S7 2.839527 1_556
La8 S2 2.859034 1_556
La8 S3 2.875032 1_566
La8 S6 2.919024 1_566
La8 S9 2.964379 1_555
La8 S8 2.979222 1_565
La9 S1 2.839527 1_556
La9 S4 2.859034 1_556
La9 S5 2.875032 1_656
La9 S0 2.919024 1_656
La9 S13 2.964379 1_555
La9 S12 2.979222 1_655
