# generated using pymatgen
data_NdCo9Si2
_symmetry_space_group_name_H-M   'P 1'
_cell_length_a   7.52315848
_cell_length_b   7.52315848
_cell_length_c   7.52315848
_cell_angle_alpha   99.99554704
_cell_angle_beta   99.99554704
_cell_angle_gamma   130.75733434
_symmetry_Int_Tables_number   1
_chemical_formula_structural   NdCo9Si2
_chemical_formula_sum   'Nd2 Co18 Si4'
_cell_volume   293.20759911
_cell_formula_units_Z   2
loop_
 _symmetry_equiv_pos_site_id
 _symmetry_equiv_pos_as_xyz
  1  'x, y, z'
loop_
 _atom_site_type_symbol
 _atom_site_label
 _atom_site_symmetry_multiplicity
 _atom_site_fract_x
 _atom_site_fract_y
 _atom_site_fract_z
 _atom_site_occupancy
  Nd  Nd0  1  0.00000000  0.00000000  0.00000000  1
  Nd  Nd1  1  0.25000000  0.75000000  0.50000000  1
  Co  Co0  1  0.75000000  0.25000000  0.50000000  1
  Co  Co1  1  0.50000000  0.50000000  0.00000000  1
  Co  Co2  1  0.18305100  0.51506600  0.08044000  1
  Co  Co3  1  0.18305100  0.10261100  0.66798500  1
  Co  Co4  1  0.76506600  0.93305100  0.58044000  1
  Co  Co5  1  0.76506600  0.18462600  0.83201500  1
  Co  Co6  1  0.43462600  0.51506600  0.33201500  1
  Co  Co7  1  0.43462600  0.10261100  0.91956000  1
  Co  Co8  1  0.35261100  0.93305100  0.16798500  1
  Co  Co9  1  0.35261100  0.18462600  0.41956000  1
  Co  Co10  1  0.06694900  0.23493400  0.41956000  1
  Co  Co11  1  0.06694900  0.64738900  0.83201500  1
  Co  Co12  1  0.48493400  0.81694900  0.91956000  1
  Co  Co13  1  0.48493400  0.56537400  0.66798500  1
  Co  Co14  1  0.81537400  0.23493400  0.16798500  1
  Co  Co15  1  0.81537400  0.64738900  0.58044000  1
  Co  Co16  1  0.89738900  0.81694900  0.33201500  1
  Co  Co17  1  0.89738900  0.56537400  0.08044000  1
  Si  Si0  1  0.12500000  0.37500000  0.75000000  1
  Si  Si1  1  0.62500000  0.87500000  0.25000000  1
  Si  Si2  1  0.62500000  0.37500000  0.75000000  1
  Si  Si3  1  0.62500000  0.37500000  0.25000000  1
loop_
_geom_bond_atom_site_label_1
_geom_bond_atom_site_label_2
_geom_bond_distance
_geom_bond_site_symmetry_2
Co0 Si3 2.541801 1_555
Co0 Si1 2.541801 1_545
Co0 Si0 2.541801 1_655
Co0 Si2 2.541801 1_555
Co0 Co5 2.625777 1_555
Co0 Co10 2.625777 1_655
Co0 Co11 2.625777 1_655
Co0 Co15 2.625777 1_555
Co0 Co9 2.625777 1_555
Co0 Co8 2.625777 1_545
Co0 Co14 2.625777 1_555
Co0 Co4 2.625777 1_545
Co0 Nd1 3.134293 1_545
Co0 Nd1 3.134293 1_655
Co1 Si3 2.541801 1_555
Co1 Si2 2.541801 1_554
Co1 Si1 2.541801 1_555
Co1 Si0 2.541801 1_554
Co1 Co3 2.625777 1_554
Co1 Co6 2.625777 1_555
Co1 Co13 2.625777 1_554
Co1 Co16 2.625777 1_555
Co1 Co17 2.625777 1_555
Co1 Co2 2.625777 1_555
Co1 Co12 2.625777 1_554
Co1 Co7 2.625777 1_554
Co1 Nd0 3.134293 1_665
Co1 Nd0 3.134293 1_555
Co2 Si1 2.363742 1_555
Co2 Si0 2.365148 1_554
Co2 Co8 2.387697 1_555
Co2 Co5 2.387697 1_454
Co2 Co6 2.433242 1_555
Co2 Nd0 3.034267 1_555
Co2 Nd1 3.112817 1_555
Co3 Si2 2.363742 1_555
Co3 Si0 2.365148 1_555
Co3 Co4 2.387697 1_445
Co3 Co9 2.387697 1_555
Co3 Co7 2.433242 1_555
Co3 Nd0 3.034267 1_556
Co3 Nd1 3.112817 1_545
Co4 Si0 2.363742 1_665
Co4 Si1 2.365148 1_555
Co4 Co6 2.387697 1_555
Co4 Co5 2.433242 1_565
Co4 Nd1 3.034267 1_555
Co4 Nd0 3.112817 1_666
Co5 Si0 2.363742 1_655
Co5 Si2 2.365148 1_555
Co5 Co7 2.387697 1_555
Co5 Nd1 3.034267 1_545
Co5 Nd0 3.112817 1_656
Co6 Si1 2.363742 1_555
Co6 Si3 2.365148 1_555
Co6 Co9 2.387697 1_555
Co6 Nd0 3.034267 1_555
Co6 Nd1 3.112817 1_555
Co7 Si2 2.363742 1_555
Co7 Si3 2.365148 1_556
Co7 Co8 2.387697 1_546
Co7 Nd0 3.034267 1_556
Co7 Nd1 3.112817 1_545
Co8 Si3 2.363742 1_565
Co8 Si1 2.365148 1_555
Co8 Co9 2.433242 1_565
Co8 Nd1 3.034267 1_555
Co8 Nd0 3.112817 1_565
Co9 Si3 2.363742 1_555
Co9 Si2 2.365148 1_555
Co9 Nd1 3.034267 1_545
Co9 Nd0 3.112817 1_555
Co10 Si1 2.363742 1_445
Co10 Si0 2.365148 1_555
Co10 Co16 2.387697 1_445
Co10 Co13 2.387697 1_555
Co10 Co9 2.413260 1_555
Co10 Co14 2.433242 1_455
Co10 Co6 2.455430 1_555
Co10 Co3 2.541921 1_555
Co10 Co4 2.637126 1_445
Co10 Nd1 3.034267 1_555
Co10 Nd0 3.112817 1_555
Co11 Si2 2.363742 1_455
Co11 Si0 2.365148 1_555
Co11 Co12 2.387697 1_555
Co11 Co17 2.387697 1_456
Co11 Co8 2.413260 1_556
Co11 Co15 2.433242 1_455
Co11 Co7 2.455430 1_565
Co11 Co2 2.541921 1_556
Co11 Co5 2.637126 1_455
Co11 Nd1 3.034267 1_555
Co11 Nd0 3.112817 1_566
Co12 Si0 2.363742 1_555
Co12 Si1 2.365148 1_556
Co12 Co14 2.387697 1_566
Co12 Co7 2.413260 1_565
Co12 Co13 2.433242 1_555
Co12 Co5 2.455430 1_565
Co12 Co8 2.541921 1_556
Co12 Co2 2.637126 1_556
Co12 Nd0 3.034267 1_666
Co12 Nd1 3.112817 1_555
Co13 Si0 2.363742 1_555
Co13 Si2 2.365148 1_555
Co13 Co15 2.387697 1_555
Co13 Co6 2.413260 1_555
Co13 Co4 2.455430 1_555
Co13 Co9 2.541921 1_555
Co13 Co3 2.637126 1_555
Co13 Nd0 3.034267 1_666
Co13 Nd1 3.112817 1_555
Co14 Si1 2.363742 1_545
Co14 Si3 2.365148 1_555
Co14 Co17 2.387697 1_555
Co14 Co5 2.413260 1_554
Co14 Co2 2.455430 1_655
Co14 Co7 2.541921 1_554
Co14 Co8 2.637126 1_545
Co14 Nd1 3.034267 1_655
Co14 Nd0 3.112817 1_655
Co15 Si2 2.363742 1_555
Co15 Si3 2.365148 1_555
Co15 Co16 2.387697 1_555
Co15 Co4 2.413260 1_555
Co15 Co3 2.455430 1_665
Co15 Co6 2.541921 1_555
Co15 Co9 2.637126 1_555
Co15 Nd1 3.034267 1_655
Co15 Nd0 3.112817 1_666
Co16 Si3 2.363742 1_555
Co16 Si1 2.365148 1_555
Co16 Co3 2.413260 1_665
Co16 Co17 2.433242 1_555
Co16 Co9 2.455430 1_665
Co16 Co4 2.541921 1_555
Co16 Co6 2.637126 1_555
Co16 Nd0 3.034267 1_665
Co16 Nd1 3.112817 1_655
Co17 Si3 2.363742 1_555
Co17 Si2 2.365148 1_554
Co17 Co2 2.413260 1_655
Co17 Co8 2.455430 1_655
Co17 Co5 2.541921 1_554
Co17 Co7 2.637126 1_554
Co17 Nd0 3.034267 1_665
Co17 Nd1 3.112817 1_655
