# generated using pymatgen
data_ZnAg3
_symmetry_space_group_name_H-M   'P 1'
_cell_length_a   5.68868303
_cell_length_b   5.68867481
_cell_length_c   4.69993027
_cell_angle_alpha   90.00000000
_cell_angle_beta   90.00000000
_cell_angle_gamma   119.99975914
_symmetry_Int_Tables_number   1
_chemical_formula_structural   ZnAg3
_chemical_formula_sum   'Zn2 Ag6'
_cell_volume   131.71824765
_cell_formula_units_Z   2
loop_
 _symmetry_equiv_pos_site_id
 _symmetry_equiv_pos_as_xyz
  1  'x, y, z'
loop_
 _atom_site_type_symbol
 _atom_site_label
 _atom_site_symmetry_multiplicity
 _atom_site_fract_x
 _atom_site_fract_y
 _atom_site_fract_z
 _atom_site_occupancy
  Zn  Zn0  1  0.33333245  0.66666687  0.75000000  1
  Zn  Zn1  1  0.66666678  0.33333281  0.25000000  1
  Ag  Ag0  1  0.16841224  0.33682309  0.25000000  1
  Ag  Ag1  1  0.66317869  0.83158868  0.25000000  1
  Ag  Ag2  1  0.16841227  0.83158867  0.25000000  1
  Ag  Ag3  1  0.83158693  0.66317720  0.75000000  1
  Ag  Ag4  1  0.33682315  0.16841259  0.75000000  1
  Ag  Ag5  1  0.83158849  0.16841109  0.75000000  1
loop_
_geom_bond_atom_site_label_1
_geom_bond_atom_site_label_2
_geom_bond_distance
_geom_bond_site_symmetry_2
Ag0 Ag2 2.814560 1_555
Ag0 Ag1 2.814575 1_555
Ag0 Zn1 2.844392 1_555
Ag0 Zn1 2.844395 1_455
Ag0 Zn0 2.857085 1_555
Ag0 Zn0 2.857085 1_554
Ag0 Ag2 2.874114 1_545
Ag0 Ag1 2.874124 1_445
Ag0 Ag4 2.876772 1_555
Ag0 Ag4 2.876772 1_554
Ag0 Ag5 2.876783 1_454
Ag0 Ag5 2.876783 1_455
Ag1 Ag2 2.814569 1_555
Ag1 Zn1 2.844389 1_555
Ag1 Zn1 2.844390 1_565
Ag1 Zn0 2.857093 1_554
Ag1 Zn0 2.857093 1_555
Ag1 Ag2 2.874114 1_655
Ag1 Ag3 2.876768 1_554
Ag1 Ag3 2.876768 1_555
Ag1 Ag5 2.876778 1_565
Ag1 Ag5 2.876778 1_564
Ag2 Zn1 2.844398 1_565
Ag2 Zn1 2.844406 1_455
Ag2 Zn0 2.857077 1_554
Ag2 Zn0 2.857077 1_555
Ag2 Ag4 2.876782 1_565
Ag2 Ag4 2.876782 1_564
Ag2 Ag3 2.876788 1_454
Ag2 Ag3 2.876788 1_455
Ag3 Ag4 2.814565 1_555
Ag3 Ag5 2.814568 1_555
Ag3 Zn0 2.844389 1_555
Ag3 Zn0 2.844397 1_655
Ag3 Zn1 2.857086 1_555
Ag3 Zn1 2.857086 1_556
Ag3 Ag5 2.874107 1_565
Ag3 Ag4 2.874135 1_665
Ag4 Ag5 2.814567 1_555
Ag4 Zn0 2.844387 1_555
Ag4 Zn0 2.844392 1_545
Ag4 Zn1 2.857086 1_555
Ag4 Zn1 2.857086 1_556
Ag4 Ag5 2.874116 1_455
Ag5 Zn0 2.844401 1_655
Ag5 Zn0 2.844402 1_545
Ag5 Zn1 2.857081 1_555
Ag5 Zn1 2.857081 1_556
