# generated using pymatgen
data_V5NiO23
_symmetry_space_group_name_H-M   'P 1'
_cell_length_a   8.70747000
_cell_length_b   10.56928292
_cell_length_c   10.70467126
_cell_angle_alpha   70.21608260
_cell_angle_beta   75.18411012
_cell_angle_gamma   77.41212370
_symmetry_Int_Tables_number   1
_chemical_formula_structural   V5NiO23
_chemical_formula_sum   'V10 Ni2 O46'
_cell_volume   886.80303257
_cell_formula_units_Z   2
loop_
 _symmetry_equiv_pos_site_id
 _symmetry_equiv_pos_as_xyz
  1  'x, y, z'
loop_
 _atom_site_type_symbol
 _atom_site_label
 _atom_site_symmetry_multiplicity
 _atom_site_fract_x
 _atom_site_fract_y
 _atom_site_fract_z
 _atom_site_occupancy
  V  V0  1  0.14303900  0.80951500  0.79610500  1
  V  V1  1  0.85696100  0.19048500  0.20389500  1
  V  V2  1  0.80063700  0.76031900  0.78926700  1
  V  V3  1  0.19936300  0.23968100  0.21073300  1
  V  V4  1  0.85471000  0.73650800  0.07029600  1
  V  V5  1  0.14529000  0.26349200  0.92970400  1
  V  V6  1  0.81382600  0.47913400  0.98407300  1
  V  V7  1  0.18617400  0.52086600  0.01592700  1
  V  V8  1  0.90322000  0.44697600  0.27983900  1
  V  V9  1  0.09678000  0.55302400  0.72016100  1
  Ni  Ni0  1  0.21707600  0.83211900  0.24951600  1
  Ni  Ni1  1  0.78292400  0.16788100  0.75048400  1
  O  O0  1  0.24840700  0.93170700  0.72287000  1
  O  O1  1  0.75159300  0.06829300  0.27713000  1
  O  O2  1  0.19495700  0.70320000  0.68167800  1
  O  O3  1  0.80504300  0.29680000  0.31832200  1
  O  O4  1  0.93808900  0.87343500  0.72944200  1
  O  O5  1  0.06191100  0.12656500  0.27055800  1
  O  O6  1  0.64079600  0.87196000  0.68458100  1
  O  O7  1  0.35920400  0.12804000  0.31541900  1
  O  O8  1  0.68117600  0.58356200  0.89190600  1
  O  O9  1  0.31882400  0.41643800  0.10809400  1
  O  O10  1  0.71789900  0.79898700  0.94956200  1
  O  O11  1  0.28210100  0.20101300  0.05043800  1
  O  O12  1  0.76820000  0.80169700  0.19180300  1
  O  O13  1  0.23180000  0.19830300  0.80819700  1
  O  O14  1  0.00726400  0.84750400  0.95895800  1
  O  O15  1  0.99273600  0.15249600  0.04104200  1
  O  O16  1  0.96026600  0.62303200  0.90852500  1
  O  O17  1  0.03973400  0.37696800  0.09147500  1
  O  O18  1  0.73863500  0.32640600  0.08132900  1
  O  O19  1  0.26136500  0.67359400  0.91867100  1
  O  O20  1  0.76946900  0.55104200  0.13887800  1
  O  O21  1  0.23053100  0.44895800  0.86112200  1
  O  O22  1  0.81642700  0.50686900  0.40540600  1
  O  O23  1  0.18357300  0.49313100  0.59459400  1
  O  O24  1  0.09596800  0.34560000  0.32288300  1
  O  O25  1  0.90403200  0.65440000  0.67711700  1
  O  O26  1  0.03087700  0.59804400  0.14625500  1
  O  O27  1  0.96912300  0.40195600  0.85374500  1
  O  O28  1  0.44354800  0.60920900  0.28365700  1
  O  O29  1  0.55645200  0.39079100  0.71634300  1
  O  O30  1  0.38498700  0.70111200  0.17198200  1
  O  O31  1  0.61501300  0.29888800  0.82801800  1
  O  O32  1  0.07165600  0.91667000  0.13310700  1
  O  O33  1  0.92834400  0.08333000  0.86689300  1
  O  O34  1  0.01164900  0.86214000  0.40387700  1
  O  O35  1  0.98835100  0.13786000  0.59612300  1
  O  O36  1  0.06883400  0.67342500  0.35206400  1
  O  O37  1  0.93116600  0.32657500  0.64793600  1
  O  O38  1  0.38417900  0.93716700  0.24903300  1
  O  O39  1  0.61582100  0.06283300  0.75096700  1
  O  O40  1  0.47617000  0.49729600  0.73779200  1
  O  O41  1  0.52383000  0.50270400  0.26220800  1
  O  O42  1  0.37128400  0.98491700  0.35145600  1
  O  O43  1  0.62871600  0.01508300  0.64854400  1
  O  O44  1  0.96316100  0.74743700  0.41931700  1
  O  O45  1  0.03683900  0.25256300  0.58068300  1
loop_
_geom_bond_atom_site_label_1
_geom_bond_atom_site_label_2
_geom_bond_distance
_geom_bond_site_symmetry_2
Ni0 O32 1.874752 1_555
Ni0 O30 2.004678 1_555
Ni0 O38 2.011549 1_555
Ni0 O34 2.150950 1_555
Ni0 O36 2.158033 1_555
Ni1 O33 1.874752 1_555
Ni1 O31 2.004678 1_555
Ni1 O39 2.011549 1_555
Ni1 O35 2.150950 1_555
Ni1 O37 2.158033 1_555
O0 V0 1.608581 1_555
O1 V1 1.608581 1_555
O2 V9 1.840809 1_555
O2 V0 1.842424 1_555
O3 V8 1.840809 1_555
O3 V1 1.842424 1_555
O4 V2 1.727815 1_555
O4 V0 1.987427 1_655
O5 V3 1.727815 1_555
O5 V1 1.987427 1_455
O6 V2 1.942159 1_555
O7 V3 1.942159 1_555
O8 V6 1.678015 1_555
O8 V2 2.156935 1_555
O9 V7 1.678015 1_555
O9 V3 2.156935 1_555
O10 V2 1.828812 1_555
O10 V4 1.841829 1_556
O11 V3 1.828812 1_555
O11 V5 1.841829 1_554
O12 V4 1.616573 1_555
O13 V5 1.616573 1_555
O14 V4 1.866640 1_456
O14 V0 1.952144 1_555
O15 V5 1.866640 1_654
O15 V1 1.952144 1_555
O16 V6 2.019499 1_555
O16 V2 2.107522 1_555
O16 V4 2.322398 1_556
O16 V9 2.329606 1_655
O16 V7 2.397423 1_656
O16 V0 2.578361 1_655
O17 V7 2.019499 1_555
O17 V3 2.107522 1_555
O17 V5 2.322398 1_554
O17 V8 2.329606 1_455
O17 V6 2.397423 1_454
O17 V1 2.578361 1_455
O18 V6 1.758599 1_554
O18 V1 1.901846 1_555
O19 V7 1.758599 1_556
O19 V0 1.901846 1_555
O20 V6 1.967282 1_554
O20 V8 2.014933 1_555
O20 V4 2.076952 1_555
O21 V7 1.967282 1_556
O21 V9 2.014933 1_555
O21 V5 2.076952 1_555
O22 V8 1.620671 1_555
O23 V9 1.620671 1_555
O24 V3 1.850080 1_555
O24 V8 1.858675 1_455
O25 V2 1.850080 1_555
O25 V9 1.858675 1_655
O26 V7 1.940380 1_555
O26 V4 2.002450 1_455
O26 V8 2.060306 1_455
O27 V6 1.940380 1_555
O27 V5 2.002450 1_655
O27 V9 2.060306 1_655
O28 O41 1.248374 1_555
O28 O30 1.393707 1_555
O29 O40 1.248374 1_555
O29 O31 1.393707 1_555
O34 O44 1.314188 1_455
O35 O45 1.314188 1_655
O36 O44 1.305979 1_455
O37 O45 1.305979 1_655
O38 O42 1.325268 1_555
O39 O43 1.325268 1_555
O42 O7 1.415814 1_565
O43 O6 1.415814 1_545
