# generated using pymatgen
data_TaP2O7
_symmetry_space_group_name_H-M   'P 1'
_cell_length_a   8.38900800
_cell_length_b   8.38900800
_cell_length_c   8.38900800
_cell_angle_alpha   90.00000000
_cell_angle_beta   90.00000000
_cell_angle_gamma   90.00000000
_symmetry_Int_Tables_number   1
_chemical_formula_structural   TaP2O7
_chemical_formula_sum   'Ta4 P8 O28'
_cell_volume   590.38025688
_cell_formula_units_Z   4
loop_
 _symmetry_equiv_pos_site_id
 _symmetry_equiv_pos_as_xyz
  1  'x, y, z'
loop_
 _atom_site_type_symbol
 _atom_site_label
 _atom_site_symmetry_multiplicity
 _atom_site_fract_x
 _atom_site_fract_y
 _atom_site_fract_z
 _atom_site_occupancy
  Ta  Ta0  1  0.50000000  0.50000000  0.50000000  1
  Ta  Ta1  1  0.00000000  0.50000000  0.00000000  1
  Ta  Ta2  1  0.50000000  0.00000000  0.00000000  1
  Ta  Ta3  1  0.00000000  0.00000000  0.50000000  1
  P  P0  1  0.10993900  0.10993900  0.10993900  1
  P  P1  1  0.89006100  0.89006100  0.89006100  1
  P  P2  1  0.39006100  0.89006100  0.60993900  1
  P  P3  1  0.89006100  0.60993900  0.39006100  1
  P  P4  1  0.60993900  0.10993900  0.39006100  1
  P  P5  1  0.10993900  0.39006100  0.60993900  1
  P  P6  1  0.60993900  0.39006100  0.89006100  1
  P  P7  1  0.39006100  0.60993900  0.10993900  1
  O  O0  1  0.00000000  0.00000000  0.00000000  1
  O  O1  1  0.50000000  0.00000000  0.50000000  1
  O  O2  1  0.00000000  0.50000000  0.50000000  1
  O  O3  1  0.50000000  0.50000000  0.00000000  1
  O  O4  1  0.05671400  0.28118200  0.08618900  1
  O  O5  1  0.94328600  0.71881800  0.91381100  1
  O  O6  1  0.44328600  0.71881800  0.58618900  1
  O  O7  1  0.94328600  0.78118200  0.41381100  1
  O  O8  1  0.08618900  0.05671400  0.28118200  1
  O  O9  1  0.55671400  0.28118200  0.41381100  1
  O  O10  1  0.05671400  0.21881800  0.58618900  1
  O  O11  1  0.91381100  0.94328600  0.71881800  1
  O  O12  1  0.55671400  0.21881800  0.91381100  1
  O  O13  1  0.58618900  0.44328600  0.71881800  1
  O  O14  1  0.44328600  0.78118200  0.08618900  1
  O  O15  1  0.41381100  0.55671400  0.28118200  1
  O  O16  1  0.41381100  0.94328600  0.78118200  1
  O  O17  1  0.58618900  0.05671400  0.21881800  1
  O  O18  1  0.91381100  0.55671400  0.21881800  1
  O  O19  1  0.08618900  0.44328600  0.78118200  1
  O  O20  1  0.28118200  0.08618900  0.05671400  1
  O  O21  1  0.71881800  0.91381100  0.94328600  1
  O  O22  1  0.78118200  0.41381100  0.94328600  1
  O  O23  1  0.21881800  0.58618900  0.05671400  1
  O  O24  1  0.21881800  0.91381100  0.55671400  1
  O  O25  1  0.78118200  0.08618900  0.44328600  1
  O  O26  1  0.71881800  0.58618900  0.44328600  1
  O  O27  1  0.28118200  0.41381100  0.55671400  1
loop_
_geom_bond_atom_site_label_1
_geom_bond_atom_site_label_2
_geom_bond_distance
_geom_bond_site_symmetry_2
O0 P0 1.597434 1_555
O0 P1 1.597434 1_444
O1 P4 1.597434 1_555
O1 P2 1.597434 1_545
O2 P3 1.597434 1_455
O2 P5 1.597434 1_555
O3 P7 1.597434 1_555
O3 P6 1.597434 1_554
O4 P0 1.517486 1_555
O4 Ta1 2.029487 1_555
O5 P1 1.517486 1_555
O5 Ta1 2.029487 1_656
O6 P2 1.517486 1_555
O6 Ta0 2.029487 1_555
O7 P3 1.517486 1_555
O7 Ta3 2.029487 1_665
O8 P0 1.517486 1_555
O8 Ta3 2.029487 1_555
O9 P4 1.517486 1_555
O9 Ta0 2.029487 1_555
O10 P5 1.517486 1_555
O10 Ta3 2.029487 1_555
O11 P1 1.517486 1_555
O11 Ta3 2.029487 1_665
O12 P6 1.517486 1_555
O12 Ta2 2.029487 1_556
O13 P6 1.517486 1_555
O13 Ta0 2.029487 1_555
O14 P7 1.517486 1_555
O14 Ta2 2.029487 1_565
O15 P7 1.517486 1_555
O15 Ta0 2.029487 1_555
O16 P2 1.517486 1_555
O16 Ta2 2.029487 1_566
O17 P4 1.517486 1_555
O17 Ta2 2.029487 1_555
O18 P3 1.517486 1_555
O18 Ta1 2.029487 1_655
O19 P5 1.517486 1_555
O19 Ta1 2.029487 1_556
O20 P0 1.517486 1_555
O20 Ta2 2.029487 1_555
O21 P1 1.517486 1_555
O21 Ta2 2.029487 1_566
O22 P6 1.517486 1_555
O22 Ta1 2.029487 1_656
O23 P7 1.517486 1_555
O23 Ta1 2.029487 1_555
O24 P2 1.517486 1_555
O24 Ta3 2.029487 1_565
O25 P4 1.517486 1_555
O25 Ta3 2.029487 1_655
O26 P3 1.517486 1_555
O26 Ta0 2.029487 1_555
O27 P5 1.517486 1_555
O27 Ta0 2.029487 1_555
