# generated using pymatgen
data_DyCoSi
_symmetry_space_group_name_H-M   'P 1'
_cell_length_a   4.21745365
_cell_length_b   6.93343009
_cell_length_c   6.77218557
_cell_angle_alpha   90.00210517
_cell_angle_beta   90.00001532
_cell_angle_gamma   90.00005609
_symmetry_Int_Tables_number   1
_chemical_formula_structural   DyCoSi
_chemical_formula_sum   'Dy4 Co4 Si4'
_cell_volume   198.02832278
_cell_formula_units_Z   4
loop_
 _symmetry_equiv_pos_site_id
 _symmetry_equiv_pos_as_xyz
  1  'x, y, z'
loop_
 _atom_site_type_symbol
 _atom_site_label
 _atom_site_symmetry_multiplicity
 _atom_site_fract_x
 _atom_site_fract_y
 _atom_site_fract_z
 _atom_site_occupancy
  Dy  Dy0  1  0.24999952  0.47656554  0.81138603  1
  Dy  Dy1  1  0.75000003  0.52343889  0.18859272  1
  Dy  Dy2  1  0.25000038  0.97654381  0.68851867  1
  Dy  Dy3  1  0.75000058  0.02345392  0.31148396  1
  Co  Co0  1  0.75000051  0.85221901  0.93176559  1
  Co  Co1  1  0.25000194  0.14778384  0.06823977  1
  Co  Co2  1  0.74999756  0.35202350  0.56837386  1
  Co  Co3  1  0.24999735  0.64797156  0.43162337  1
  Si  Si0  1  0.25000095  0.80709790  0.10784143  1
  Si  Si1  1  0.75000084  0.19288489  0.89214275  1
  Si  Si2  1  0.25000006  0.30713514  0.39216884  1
  Si  Si3  1  0.75000030  0.69288200  0.60786301  1
loop_
_geom_bond_atom_site_label_1
_geom_bond_atom_site_label_2
_geom_bond_distance
_geom_bond_site_symmetry_2
Dy0 Si3 2.931896 1_455
Dy0 Si3 2.931899 1_555
Dy0 Si1 2.935046 1_455
Dy0 Si1 2.935056 1_555
Dy0 Si0 3.046690 1_556
Dy0 Si2 3.072421 1_555
Dy1 Si2 2.932021 1_555
Dy1 Si2 2.932023 1_655
Dy1 Si0 2.934942 1_555
Dy1 Si0 2.934945 1_655
Dy1 Si1 3.046778 1_554
Dy1 Si3 3.072787 1_555
Dy2 Si1 2.932255 1_465
Dy2 Si1 2.932255 1_565
Dy2 Si3 2.934808 1_455
Dy2 Si3 2.934810 1_555
Dy2 Si2 3.046637 1_565
Dy2 Si0 3.073202 1_556
Dy3 Si0 2.932364 1_545
Dy3 Si0 2.932369 1_645
Dy3 Si2 2.934933 1_655
Dy3 Si2 2.934939 1_555
Dy3 Si3 3.046666 1_545
Dy3 Si1 3.073278 1_554
Co0 Si1 2.377186 1_565
Co0 Si0 2.442638 1_556
Co0 Si0 2.442641 1_656
Co0 Si3 2.455986 1_555
Co0 Dy2 2.811318 1_655
Co0 Dy2 2.811320 1_555
Co0 Dy3 2.832324 1_566
Co0 Dy1 2.867376 1_556
Co1 Si0 2.377308 1_545
Co1 Si1 2.442688 1_554
Co1 Si1 2.442696 1_454
Co1 Si2 2.456190 1_555
Co1 Dy3 2.811315 1_555
Co1 Dy3 2.811323 1_455
Co1 Dy2 2.832356 1_544
Co1 Dy0 2.867494 1_554
Co2 Si3 2.378391 1_555
Co2 Si2 2.442840 1_555
Co2 Si2 2.442859 1_655
Co2 Si1 2.454631 1_555
Co2 Dy0 2.810808 1_555
Co2 Dy0 2.810818 1_655
Co2 Dy1 2.833314 1_555
Co2 Dy3 2.866372 1_555
Co3 Si2 2.378213 1_555
Co3 Si3 2.442973 1_455
Co3 Si3 2.442994 1_555
Co3 Si0 2.454672 1_555
Co3 Dy1 2.810857 1_455
Co3 Dy1 2.810876 1_555
Co3 Dy0 2.833173 1_555
Co3 Dy2 2.866409 1_555
