# generated using pymatgen
data_LaHfMg30O32
_symmetry_space_group_name_H-M   'P 1'
_cell_length_a   8.72655200
_cell_length_b   8.72655200
_cell_length_c   8.68294400
_cell_angle_alpha   90.00000000
_cell_angle_beta   90.00000000
_cell_angle_gamma   90.00000000
_symmetry_Int_Tables_number   1
_chemical_formula_structural   LaHfMg30O32
_chemical_formula_sum   'La1 Hf1 Mg30 O32'
_cell_volume   661.22971472
_cell_formula_units_Z   1
loop_
 _symmetry_equiv_pos_site_id
 _symmetry_equiv_pos_as_xyz
  1  'x, y, z'
loop_
 _atom_site_type_symbol
 _atom_site_label
 _atom_site_symmetry_multiplicity
 _atom_site_fract_x
 _atom_site_fract_y
 _atom_site_fract_z
 _atom_site_occupancy
  La  La0  1  0.00000000  0.00000000  0.00000000  1
  Hf  Hf0  1  0.50000000  0.50000000  0.00000000  1
  Mg  Mg0  1  0.50000000  0.00000000  0.00000000  1
  Mg  Mg1  1  0.00000000  0.50000000  0.00000000  1
  Mg  Mg2  1  0.00000000  0.00000000  0.50000000  1
  Mg  Mg3  1  0.50000000  0.00000000  0.50000000  1
  Mg  Mg4  1  0.00000000  0.50000000  0.50000000  1
  Mg  Mg5  1  0.50000000  0.50000000  0.50000000  1
  Mg  Mg6  1  0.25595400  0.25595400  0.00000000  1
  Mg  Mg7  1  0.74404600  0.25595400  0.00000000  1
  Mg  Mg8  1  0.25595400  0.74404600  0.00000000  1
  Mg  Mg9  1  0.74404600  0.74404600  0.00000000  1
  Mg  Mg10  1  0.25040100  0.25040100  0.50000000  1
  Mg  Mg11  1  0.74959900  0.25040100  0.50000000  1
  Mg  Mg12  1  0.25040100  0.74959900  0.50000000  1
  Mg  Mg13  1  0.74959900  0.74959900  0.50000000  1
  Mg  Mg14  1  0.25780300  0.00000000  0.25879300  1
  Mg  Mg15  1  0.74219700  0.00000000  0.25879300  1
  Mg  Mg16  1  0.24530500  0.50000000  0.25485500  1
  Mg  Mg17  1  0.75469500  0.50000000  0.25485500  1
  Mg  Mg18  1  0.25780300  0.00000000  0.74120700  1
  Mg  Mg19  1  0.74219700  0.00000000  0.74120700  1
  Mg  Mg20  1  0.24530500  0.50000000  0.74514500  1
  Mg  Mg21  1  0.75469500  0.50000000  0.74514500  1
  Mg  Mg22  1  0.00000000  0.25780300  0.25879300  1
  Mg  Mg23  1  0.50000000  0.24530500  0.25485500  1
  Mg  Mg24  1  0.00000000  0.74219700  0.25879300  1
  Mg  Mg25  1  0.50000000  0.75469500  0.25485500  1
  Mg  Mg26  1  0.00000000  0.25780300  0.74120700  1
  Mg  Mg27  1  0.50000000  0.24530500  0.74514500  1
  Mg  Mg28  1  0.00000000  0.74219700  0.74120700  1
  Mg  Mg29  1  0.50000000  0.75469500  0.74514500  1
  O  O0  1  0.00000000  0.00000000  0.26786000  1
  O  O1  1  0.50000000  0.00000000  0.25443600  1
  O  O2  1  0.00000000  0.50000000  0.25443600  1
  O  O3  1  0.50000000  0.50000000  0.24819900  1
  O  O4  1  0.00000000  0.00000000  0.73214000  1
  O  O5  1  0.50000000  0.00000000  0.74556400  1
  O  O6  1  0.00000000  0.50000000  0.74556400  1
  O  O7  1  0.50000000  0.50000000  0.75180100  1
  O  O8  1  0.24947100  0.24947100  0.24986300  1
  O  O9  1  0.75052900  0.24947100  0.24986300  1
  O  O10  1  0.24947100  0.75052900  0.24986300  1
  O  O11  1  0.75052900  0.75052900  0.24986300  1
  O  O12  1  0.24947100  0.24947100  0.75013700  1
  O  O13  1  0.75052900  0.24947100  0.75013700  1
  O  O14  1  0.24947100  0.75052900  0.75013700  1
  O  O15  1  0.75052900  0.75052900  0.75013700  1
  O  O16  1  0.26705100  0.00000000  0.00000000  1
  O  O17  1  0.73294900  0.00000000  0.00000000  1
  O  O18  1  0.24350200  0.50000000  0.00000000  1
  O  O19  1  0.75649800  0.50000000  0.00000000  1
  O  O20  1  0.25339000  0.00000000  0.50000000  1
  O  O21  1  0.74661000  0.00000000  0.50000000  1
  O  O22  1  0.25160200  0.50000000  0.50000000  1
  O  O23  1  0.74839800  0.50000000  0.50000000  1
  O  O24  1  0.00000000  0.26705100  0.00000000  1
  O  O25  1  0.50000000  0.24350200  0.00000000  1
  O  O26  1  0.00000000  0.73294900  0.00000000  1
  O  O27  1  0.50000000  0.75649800  0.00000000  1
  O  O28  1  0.00000000  0.25339000  0.50000000  1
  O  O29  1  0.50000000  0.25160200  0.50000000  1
  O  O30  1  0.00000000  0.74661000  0.50000000  1
  O  O31  1  0.50000000  0.74839800  0.50000000  1
loop_
_geom_bond_atom_site_label_1
_geom_bond_atom_site_label_2
_geom_bond_distance
_geom_bond_site_symmetry_2
La0 O4 2.325813 1_554
La0 O0 2.325813 1_555
La0 O24 2.330434 1_555
La0 O16 2.330434 1_555
La0 O17 2.330434 1_455
La0 O26 2.330434 1_545
Hf0 O3 2.155098 1_555
Hf0 O7 2.155098 1_554
Hf0 O25 2.238343 1_555
Hf0 O18 2.238343 1_555
Hf0 O19 2.238343 1_555
Hf0 O27 2.238343 1_555
Mg0 O17 2.032842 1_555
Mg0 O16 2.032842 1_555
Mg0 O25 2.124933 1_555
Mg0 O27 2.124933 1_545
Mg0 O1 2.209254 1_555
Mg0 O5 2.209254 1_554
Mg1 O26 2.032842 1_555
Mg1 O24 2.032842 1_555
Mg1 O19 2.124933 1_455
Mg1 O18 2.124933 1_555
Mg1 O6 2.209254 1_554
Mg1 O2 2.209254 1_555
Mg2 O0 2.015659 1_555
Mg2 O4 2.015659 1_555
Mg2 O30 2.211221 1_545
Mg2 O21 2.211221 1_455
Mg2 O20 2.211221 1_555
Mg2 O28 2.211221 1_555
Mg3 O1 2.132218 1_555
Mg3 O5 2.132218 1_555
Mg3 O20 2.152055 1_555
Mg3 O21 2.152055 1_555
Mg3 O29 2.195618 1_555
Mg3 O31 2.195618 1_545
Mg4 O2 2.132218 1_555
Mg4 O6 2.132218 1_555
Mg4 O28 2.152055 1_555
Mg4 O30 2.152055 1_555
Mg4 O23 2.195618 1_455
Mg4 O22 2.195618 1_555
Mg5 O23 2.167658 1_555
Mg5 O22 2.167658 1_555
Mg5 O29 2.167658 1_555
Mg5 O31 2.167658 1_555
Mg5 O7 2.186374 1_555
Mg5 O3 2.186374 1_555
Mg6 O25 2.132450 1_555
Mg6 O18 2.132450 1_555
Mg6 O8 2.171021 1_555
Mg6 O12 2.171021 1_554
Mg6 O24 2.235694 1_555
Mg6 O16 2.235694 1_555
Mg7 O25 2.132450 1_555
Mg7 O19 2.132450 1_555
Mg7 O9 2.171021 1_555
Mg7 O13 2.171021 1_554
Mg7 O24 2.235694 1_655
Mg7 O17 2.235694 1_555
Mg8 O18 2.132450 1_555
Mg8 O27 2.132450 1_555
Mg8 O10 2.171021 1_555
Mg8 O14 2.171021 1_554
Mg8 O26 2.235694 1_555
Mg8 O16 2.235694 1_565
Mg9 O27 2.132450 1_555
Mg9 O19 2.132450 1_555
Mg9 O11 2.171021 1_555
Mg9 O15 2.171021 1_554
Mg9 O17 2.235694 1_565
Mg9 O26 2.235694 1_655
Mg10 O12 2.171956 1_555
Mg10 O8 2.171956 1_555
Mg10 O22 2.178164 1_555
Mg10 O29 2.178164 1_555
Mg10 O28 2.185293 1_555
Mg10 O20 2.185293 1_555
Mg11 O13 2.171956 1_555
Mg11 O9 2.171956 1_555
Mg11 O23 2.178164 1_555
Mg11 O29 2.178164 1_555
Mg11 O28 2.185293 1_655
Mg11 O21 2.185293 1_555
Mg12 O14 2.171956 1_555
Mg12 O10 2.171956 1_555
Mg12 O31 2.178164 1_555
Mg12 O22 2.178164 1_555
Mg12 O20 2.185293 1_565
Mg12 O30 2.185293 1_555
Mg13 O15 2.171956 1_555
Mg13 O11 2.171956 1_555
Mg13 O31 2.178164 1_555
Mg13 O23 2.178164 1_555
Mg13 O21 2.185293 1_565
Mg13 O30 2.185293 1_655
Mg14 O20 2.094741 1_555
Mg14 O1 2.113883 1_555
Mg14 O8 2.179615 1_555
Mg14 O10 2.179615 1_545
Mg14 O16 2.248534 1_555
Mg14 O0 2.251108 1_555
Mg15 O21 2.094741 1_555
Mg15 O1 2.113883 1_555
Mg15 O9 2.179615 1_555
Mg15 O11 2.179615 1_545
Mg15 O17 2.248534 1_555
Mg15 O0 2.251108 1_655
Mg16 O22 2.129289 1_555
Mg16 O2 2.140670 1_555
Mg16 O8 2.186986 1_555
Mg16 O10 2.186986 1_555
Mg16 O18 2.212948 1_555
Mg16 O3 2.223360 1_555
Mg17 O23 2.129289 1_555
Mg17 O2 2.140670 1_655
Mg17 O9 2.186986 1_555
Mg17 O11 2.186986 1_555
Mg17 O19 2.212948 1_555
Mg17 O3 2.223360 1_555
Mg18 O20 2.094741 1_555
Mg18 O5 2.113883 1_555
Mg18 O14 2.179615 1_545
Mg18 O12 2.179615 1_555
Mg18 O16 2.248534 1_556
Mg18 O4 2.251108 1_555
Mg19 O21 2.094741 1_555
Mg19 O5 2.113883 1_555
Mg19 O15 2.179615 1_545
Mg19 O13 2.179615 1_555
Mg19 O17 2.248534 1_556
Mg19 O4 2.251108 1_655
Mg20 O22 2.129289 1_555
Mg20 O6 2.140670 1_555
Mg20 O12 2.186986 1_555
Mg20 O14 2.186986 1_555
Mg20 O18 2.212948 1_556
Mg20 O7 2.223360 1_555
Mg21 O23 2.129289 1_555
Mg21 O6 2.140670 1_655
Mg21 O15 2.186986 1_555
Mg21 O13 2.186986 1_555
Mg21 O19 2.212948 1_556
Mg21 O7 2.223360 1_555
Mg22 O28 2.094741 1_555
Mg22 O2 2.113883 1_555
Mg22 O8 2.179615 1_555
Mg22 O9 2.179615 1_455
Mg22 O24 2.248534 1_555
Mg22 O0 2.251108 1_555
Mg23 O29 2.129289 1_555
Mg23 O1 2.140670 1_555
Mg23 O8 2.186986 1_555
Mg23 O9 2.186986 1_555
Mg23 O25 2.212948 1_555
Mg23 O3 2.223360 1_555
Mg24 O30 2.094741 1_555
Mg24 O2 2.113883 1_555
Mg24 O10 2.179615 1_555
Mg24 O11 2.179615 1_455
Mg24 O26 2.248534 1_555
Mg24 O0 2.251108 1_565
Mg25 O31 2.129289 1_555
Mg25 O1 2.140670 1_565
Mg25 O10 2.186986 1_555
Mg25 O11 2.186986 1_555
Mg25 O27 2.212948 1_555
Mg25 O3 2.223360 1_555
Mg26 O28 2.094741 1_555
Mg26 O6 2.113883 1_555
Mg26 O12 2.179615 1_555
Mg26 O13 2.179615 1_455
Mg26 O24 2.248534 1_556
Mg26 O4 2.251108 1_555
Mg27 O29 2.129289 1_555
Mg27 O5 2.140670 1_555
Mg27 O13 2.186986 1_555
Mg27 O12 2.186986 1_555
Mg27 O25 2.212948 1_556
Mg27 O7 2.223360 1_555
Mg28 O30 2.094741 1_555
Mg28 O6 2.113883 1_555
Mg28 O14 2.179615 1_555
Mg28 O15 2.179615 1_455
Mg28 O26 2.248534 1_556
Mg28 O4 2.251108 1_565
Mg29 O31 2.129289 1_555
Mg29 O5 2.140670 1_565
Mg29 O15 2.186986 1_555
Mg29 O14 2.186986 1_555
Mg29 O27 2.212948 1_556
Mg29 O7 2.223360 1_555
