# generated using pymatgen
data_Li5Mn2CoO8
_symmetry_space_group_name_H-M   'P 1'
_cell_length_a   2.89593894
_cell_length_b   10.19735574
_cell_length_c   9.78050947
_cell_angle_alpha   100.57881310
_cell_angle_beta   89.06457391
_cell_angle_gamma   90.97001476
_symmetry_Int_Tables_number   1
_chemical_formula_structural   Li5Mn2CoO8
_chemical_formula_sum   'Li10 Mn4 Co2 O16'
_cell_volume   283.85196814
_cell_formula_units_Z   2
loop_
 _symmetry_equiv_pos_site_id
 _symmetry_equiv_pos_as_xyz
  1  'x, y, z'
loop_
 _atom_site_type_symbol
 _atom_site_label
 _atom_site_symmetry_multiplicity
 _atom_site_fract_x
 _atom_site_fract_y
 _atom_site_fract_z
 _atom_site_occupancy
  Li  Li0  1  0.49994000  0.24999600  0.99999900  1
  Li  Li1  1  0.00007400  0.24997700  0.49997700  1
  Li  Li2  1  0.49286300  0.14060400  0.25446600  1
  Li  Li3  1  0.98564900  0.14060000  0.75441900  1
  Li  Li4  1  0.01451000  0.35944500  0.24556800  1
  Li  Li5  1  0.50712100  0.35942700  0.74549600  1
  Li  Li6  1  0.50043600  0.62112400  0.24371900  1
  Li  Li7  1  0.00592600  0.62054100  0.74389000  1
  Li  Li8  1  0.99424900  0.87949700  0.25610100  1
  Li  Li9  1  0.49963200  0.87890800  0.75626400  1
  Mn  Mn0  1  0.49225500  0.01046800  0.50883300  1
  Mn  Mn1  1  0.50866800  0.48957900  0.49133900  1
  Mn  Mn2  1  0.99593200  0.01037000  0.00863300  1
  Mn  Mn3  1  0.00316700  0.48950500  0.99122000  1
  Co  Co0  1  0.49989300  0.75000800  0.99998800  1
  Co  Co1  1  0.00010100  0.74998600  0.49998700  1
  O  O0  1  0.99923500  0.17252200  0.12171800  1
  O  O1  1  0.49395000  0.17247300  0.62180600  1
  O  O2  1  0.50629300  0.32756200  0.37822400  1
  O  O3  1  0.00044200  0.32746600  0.87822800  1
  O  O4  1  0.49648000  0.44615700  0.10514900  1
  O  O5  1  0.00196200  0.44597500  0.60522700  1
  O  O6  1  0.99852000  0.05397700  0.39486200  1
  O  O7  1  0.50291700  0.05385000  0.89485000  1
  O  O8  1  0.01899500  0.68297600  0.11066100  1
  O  O9  1  0.52174400  0.68302200  0.61093000  1
  O  O10  1  0.47841900  0.81696300  0.38907300  1
  O  O11  1  0.98077100  0.81705600  0.88931200  1
  O  O12  1  0.48673800  0.94052000  0.11476500  1
  O  O13  1  0.98269800  0.94044500  0.61458300  1
  O  O14  1  0.01766100  0.55950900  0.38548600  1
  O  O15  1  0.51276000  0.55949400  0.88522700  1
loop_
_geom_bond_atom_site_label_1
_geom_bond_atom_site_label_2
_geom_bond_distance
_geom_bond_site_symmetry_2
Li0 O7 2.074464 1_555
Li0 O4 2.074618 1_556
Li0 O3 2.096111 1_655
Li0 O0 2.096209 1_456
Li0 O0 2.138293 1_556
Li0 O3 2.139003 1_555
Li1 O6 2.072937 1_455
Li1 O5 2.073335 1_555
Li1 O1 2.107663 1_455
Li1 O2 2.107773 1_555
Li1 O2 2.128043 1_455
Li1 O1 2.128306 1_555
Li2 O0 2.004710 1_555
Li2 O0 2.016598 1_455
Li2 O2 2.062279 1_555
Li2 O12 2.237434 1_545
Li2 O6 2.248039 1_455
Li2 O6 2.316251 1_555
Li3 O1 2.007726 1_655
Li3 O1 2.011527 1_555
Li3 O3 2.061776 1_655
Li3 O7 2.228201 1_555
Li3 O13 2.238595 1_545
Li3 O7 2.339043 1_655
Li4 O2 2.007858 1_455
Li4 O2 2.012021 1_555
Li4 O0 2.062439 1_455
Li4 O4 2.226580 1_555
Li4 O14 2.238208 1_555
Li4 O4 2.340221 1_455
Li5 O3 2.005363 1_555
Li5 O3 2.015976 1_655
Li5 O1 2.061959 1_555
Li5 O15 2.237422 1_555
Li5 O5 2.247701 1_655
Li5 O5 2.314076 1_555
Li6 O4 2.032793 1_555
Li6 O8 2.103723 1_555
Li6 O14 2.121036 1_555
Li6 O8 2.133552 1_655
Li6 O10 2.229843 1_555
Li6 O14 2.231685 1_655
Li7 O5 2.030168 1_555
Li7 O9 2.111183 1_455
Li7 O9 2.130018 1_555
Li7 O15 2.135302 1_455
Li7 O15 2.205876 1_555
Li7 O11 2.235852 1_455
Li8 O6 2.029995 1_565
Li8 O10 2.111470 1_655
Li8 O10 2.130334 1_555
Li8 O12 2.133917 1_655
Li8 O12 2.207103 1_555
Li8 O8 2.235938 1_655
Li9 O7 2.032678 1_565
Li9 O11 2.103064 1_555
Li9 O13 2.120670 1_555
Li9 O11 2.134091 1_455
Li9 O9 2.230133 1_555
Li9 O13 2.230208 1_455
Mn0 O1 1.811008 1_555
Mn0 O6 1.922261 1_555
Mn0 O6 1.933625 1_455
Mn0 O13 1.985652 1_445
Mn0 O13 1.987543 1_545
Mn0 O10 2.101776 1_545
Mn1 O2 1.811717 1_555
Mn1 O5 1.923037 1_555
Mn1 O5 1.932489 1_655
Mn1 O14 1.984622 1_655
Mn1 O14 1.988894 1_555
Mn1 O9 2.100585 1_555
Mn2 O0 1.812685 1_555
Mn2 O7 1.922608 1_654
Mn2 O7 1.930793 1_554
Mn2 O12 1.986256 1_545
Mn2 O12 1.989723 1_645
Mn2 O11 2.098546 1_544
Mn3 O3 1.811362 1_555
Mn3 O4 1.922395 1_456
Mn3 O4 1.931876 1_556
Mn3 O15 1.986941 1_555
Mn3 O15 1.988727 1_455
Mn3 O8 2.100365 1_556
Co0 O8 1.941291 1_556
Co0 O11 1.941341 1_555
Co0 O15 2.058127 1_555
Co0 O12 2.058189 1_556
Co0 O8 2.063585 1_656
Co0 O11 2.063717 1_455
Co1 O10 1.937246 1_555
Co1 O9 1.937441 1_455
Co1 O14 2.057251 1_555
Co1 O13 2.057427 1_455
Co1 O10 2.070298 1_455
Co1 O9 2.070326 1_555
