# generated using pymatgen
data_KMg14Ni
_symmetry_space_group_name_H-M   'P 1'
_cell_length_a   6.37952109
_cell_length_b   6.37952059
_cell_length_c   10.52576401
_cell_angle_alpha   90.00000000
_cell_angle_beta   90.00000000
_cell_angle_gamma   120.00000256
_symmetry_Int_Tables_number   1
_chemical_formula_structural   KMg14Ni
_chemical_formula_sum   'K1 Mg14 Ni1'
_cell_volume   370.98843391
_cell_formula_units_Z   1
loop_
 _symmetry_equiv_pos_site_id
 _symmetry_equiv_pos_as_xyz
  1  'x, y, z'
loop_
 _atom_site_type_symbol
 _atom_site_label
 _atom_site_symmetry_multiplicity
 _atom_site_fract_x
 _atom_site_fract_y
 _atom_site_fract_z
 _atom_site_occupancy
  K  K0  1  0.16666700  0.33333300  0.62500000  1
  Mg  Mg0  1  0.15567770  0.82783835  0.12500000  1
  Mg  Mg1  1  0.17331502  0.83665701  0.62500000  1
  Mg  Mg2  1  0.67216165  0.34432230  0.12500000  1
  Mg  Mg3  1  0.66334299  0.32668498  0.62500000  1
  Mg  Mg4  1  0.67216165  0.82783835  0.12500000  1
  Mg  Mg5  1  0.66334299  0.83665701  0.62500000  1
  Mg  Mg6  1  0.32973910  0.17026090  0.34602020  1
  Mg  Mg7  1  0.32973910  0.17026090  0.90397980  1
  Mg  Mg8  1  0.32973910  0.65947920  0.34602020  1
  Mg  Mg9  1  0.32973910  0.65947920  0.90397980  1
  Mg  Mg10  1  0.84052080  0.17026090  0.34602020  1
  Mg  Mg11  1  0.84052080  0.17026090  0.90397980  1
  Mg  Mg12  1  0.83333300  0.66666700  0.38437507  1
  Mg  Mg13  1  0.83333300  0.66666700  0.86562493  1
  Ni  Ni0  1  0.16666700  0.33333300  0.12500000  1
loop_
_geom_bond_atom_site_label_1
_geom_bond_atom_site_label_2
_geom_bond_distance
_geom_bond_site_symmetry_2
K0 Mg1 3.189972 1_555
K0 Mg5 3.189972 1_555
K0 Mg1 3.189972 1_545
K0 Mg5 3.189972 1_445
K0 Mg3 3.189972 1_555
K0 Mg3 3.189972 1_455
K0 Mg6 3.445243 1_555
K0 Mg7 3.445243 1_555
K0 Mg8 3.445248 1_555
K0 Mg9 3.445248 1_555
K0 Mg10 3.445248 1_455
K0 Mg11 3.445248 1_455
Mg0 Mg8 2.998576 1_555
Mg0 Mg9 2.998576 1_554
Mg0 Mg6 2.998583 1_565
Mg0 Mg7 2.998583 1_564
Mg0 Mg2 3.084601 1_455
Mg0 Mg4 3.084601 1_455
Mg0 Ni0 3.190338 1_565
Mg0 Ni0 3.190338 1_555
Mg0 Mg12 3.259626 1_455
Mg0 Mg13 3.259626 1_454
Mg0 Mg2 3.294920 1_565
Mg0 Mg4 3.294920 1_555
Mg1 Mg13 3.153260 1_455
Mg1 Mg12 3.153260 1_455
Mg2 Mg6 2.998583 1_555
Mg2 Mg7 2.998583 1_554
Mg2 Mg4 3.084601 1_555
Mg2 Ni0 3.190338 1_655
Mg2 Ni0 3.190338 1_555
Mg2 Mg4 3.294920 1_545
Mg4 Mg8 2.998583 1_555
Mg4 Mg9 2.998583 1_554
Mg4 Ni0 3.190338 1_665
Mg4 Ni0 3.190338 1_555
Mg6 Ni0 2.942614 1_555
Mg7 Ni0 2.942614 1_556
Mg8 Ni0 2.942620 1_555
Mg9 Ni0 2.942620 1_556
Mg10 Ni0 2.942621 1_655
Mg10 Mg2 2.998576 1_555
Mg10 Mg4 2.998583 1_545
Mg10 Mg12 3.215452 1_545
Mg10 Mg12 3.215452 1_555
Mg11 Ni0 2.942621 1_656
Mg11 Mg2 2.998576 1_556
Mg11 Mg4 2.998583 1_546
Mg11 Mg13 3.215452 1_545
Mg11 Mg13 3.215452 1_555
Mg12 Mg5 3.153253 1_555
Mg12 Mg3 3.153260 1_555
Mg12 Mg6 3.215452 1_665
Mg12 Mg6 3.215452 1_555
Mg12 Mg8 3.215452 1_655
Mg12 Mg8 3.215452 1_555
Mg12 Mg4 3.259620 1_555
Mg12 Mg2 3.259626 1_555
Mg13 Mg5 3.153253 1_555
Mg13 Mg3 3.153260 1_555
Mg13 Mg7 3.215452 1_665
Mg13 Mg7 3.215452 1_555
Mg13 Mg9 3.215452 1_655
Mg13 Mg9 3.215452 1_555
Mg13 Mg4 3.259620 1_556
Mg13 Mg2 3.259626 1_556
