# generated using pymatgen
data_Tm3TlS6
_symmetry_space_group_name_H-M   'P 1'
_cell_length_a   10.47181721
_cell_length_b   10.47181721
_cell_length_c   51.02854200
_cell_angle_alpha   90.00000000
_cell_angle_beta   90.00000000
_cell_angle_gamma   92.90084999
_symmetry_Int_Tables_number   1
_chemical_formula_structural   Tm3TlS6
_chemical_formula_sum   'Tm3 Tl1 S6'
_cell_volume   5588.56628643
_cell_formula_units_Z   1
loop_
 _symmetry_equiv_pos_site_id
 _symmetry_equiv_pos_as_xyz
  1  'x, y, z'
loop_
 _atom_site_type_symbol
 _atom_site_label
 _atom_site_symmetry_multiplicity
 _atom_site_fract_x
 _atom_site_fract_y
 _atom_site_fract_z
 _atom_site_occupancy
  Tm  Tm0  1  0.00000000  0.00000000  0.50000000  1
  Tm  Tm1  1  0.50000000  0.00000000  0.00000000  1
  Tm  Tm2  1  0.00000000  0.50000000  0.00000000  1
  Tl  Tl0  1  0.00000000  0.00000000  0.00000000  1
  S  S0  1  0.00000000  0.00000000  0.23117600  1
  S  S1  1  0.00000000  0.00000000  0.76882400  1
  S  S2  1  0.27103200  0.01035200  0.00000000  1
  S  S3  1  0.72896800  0.98964800  0.00000000  1
  S  S4  1  0.01035200  0.27103200  0.00000000  1
  S  S5  1  0.98964800  0.72896800  0.00000000  1
loop_
_geom_bond_atom_site_label_1
_geom_bond_atom_site_label_2
_geom_bond_distance
_geom_bond_site_symmetry_2
S2 Tm1 2.405635 1_555
S2 Tl0 2.834780 1_555
S3 Tm1 2.405635 1_565
S3 Tl0 2.834780 1_665
S4 Tm2 2.405635 1_555
S4 Tl0 2.834780 1_555
S5 Tm2 2.405635 1_655
S5 Tl0 2.834780 1_665
