# generated using pymatgen
data_ZnS
_symmetry_space_group_name_H-M   'P 1'
_cell_length_a   13.03185278
_cell_length_b   13.51041239
_cell_length_c   14.50061413
_cell_angle_alpha   83.34442669
_cell_angle_beta   88.29971414
_cell_angle_gamma   85.36570175
_symmetry_Int_Tables_number   1
_chemical_formula_structural   ZnS
_chemical_formula_sum   'Zn50 S50'
_cell_volume   2527.03304219
_cell_formula_units_Z   50
loop_
 _symmetry_equiv_pos_site_id
 _symmetry_equiv_pos_as_xyz
  1  'x, y, z'
loop_
 _atom_site_type_symbol
 _atom_site_label
 _atom_site_symmetry_multiplicity
 _atom_site_fract_x
 _atom_site_fract_y
 _atom_site_fract_z
 _atom_site_occupancy
  Zn  Zn0  1  0.55803287  0.95097222  0.37604193  1
  Zn  Zn1  1  0.14743776  0.60971516  0.62518200  1
  Zn  Zn2  1  0.38540244  0.66729618  0.47021613  1
  Zn  Zn3  1  0.92392637  0.32168164  0.27815839  1
  Zn  Zn4  1  0.35536285  0.55866830  0.93308735  1
  Zn  Zn5  1  0.24448995  0.00264131  0.68764818  1
  Zn  Zn6  1  0.73937984  0.09571392  0.23764155  1
  Zn  Zn7  1  0.65372998  0.53252084  0.44843612  1
  Zn  Zn8  1  0.08165513  0.41324551  0.80207996  1
  Zn  Zn9  1  0.39227554  0.22596716  0.52845195  1
  Zn  Zn10  1  0.02749158  0.88959087  0.23517886  1
  Zn  Zn11  1  0.13649086  0.00425236  0.27699063  1
  Zn  Zn12  1  0.32395496  0.84151601  0.01325825  1
  Zn  Zn13  1  0.86594023  -0.00045784  0.01910074  1
  Zn  Zn14  1  0.03290062  0.26240734  0.04163145  1
  Zn  Zn15  1  0.18897094  0.71900890  0.01063839  1
  Zn  Zn16  1  0.07448265  0.15843914  0.75269580  1
  Zn  Zn17  1  0.62117365  0.35849762  0.19345143  1
  Zn  Zn18  1  0.87780399  0.29873444  0.80564436  1
  Zn  Zn19  1  0.51271103  0.00244499  0.60205515  1
  Zn  Zn20  1  0.64228387  0.77211320  0.48736444  1
  Zn  Zn21  1  0.39718732  0.45087484  0.34581673  1
  Zn  Zn22  1  0.61108849  0.60622884  0.92625182  1
  Zn  Zn23  1  0.37366022  0.98727529  0.89110802  1
  Zn  Zn24  1  0.64819545  0.04945683  0.77516390  1
  Zn  Zn25  1  0.65186486  0.30103144  0.40998626  1
  Zn  Zn26  1  0.78871983  0.58926601  0.16807207  1
  Zn  Zn27  1  0.97603277  0.05056270  0.87164163  1
  Zn  Zn28  1  0.86217119  0.62777808  0.57081700  1
  Zn  Zn29  1  0.88712255  0.10931278  0.71821741  1
  Zn  Zn30  1  0.23218687  0.03471895  0.43834266  1
  Zn  Zn31  1  0.57141845  0.75873179  0.05565226  1
  Zn  Zn32  1  0.99928470  0.82922952  0.72053299  1
  Zn  Zn33  1  0.19769173  0.23698058  0.28512829  1
  Zn  Zn34  1  0.44349810  0.74186929  0.25285165  1
  Zn  Zn35  1  0.20933353  0.53834303  0.11083063  1
  Zn  Zn36  1  0.49570836  0.42643911  0.08363914  1
  Zn  Zn37  1  0.10726966  0.79491296  0.47035278  1
  Zn  Zn38  1  0.83763341  0.91221960  0.88284810  1
  Zn  Zn39  1  0.66570575  0.25896124  0.62396136  1
  Zn  Zn40  1  0.15925944  0.40188499  0.53060634  1
  Zn  Zn41  1  0.19447943  0.11821784  0.93726548  1
  Zn  Zn42  1  0.19212704  0.89420983  0.90003468  1
  Zn  Zn43  1  0.94229960  0.59281515  0.36266832  1
  Zn  Zn44  1  0.17536152  0.64153826  0.23753780  1
  Zn  Zn45  1  0.70374939  0.87921236  0.19731835  1
  Zn  Zn46  1  0.84843108  0.41890871  0.95203713  1
  Zn  Zn47  1  0.33821125  0.25300314  0.92113024  1
  Zn  Zn48  1  0.91367237  0.35837823  0.52144398  1
  Zn  Zn49  1  0.81088907  0.69666876  0.92272106  1
  S  S0  1  0.18472342  0.56955078  0.94318204  1
  S  S1  1  0.56898740  0.18886662  0.52202058  1
  S  S2  1  0.24190086  0.13928236  0.76984372  1
  S  S3  1  -0.00214963  0.72007438  0.60631850  1
  S  S4  1  0.72852633  0.60471828  0.68255911  1
  S  S5  1  0.28653108  0.07840444  0.28929483  1
  S  S6  1  0.48330426  0.03133762  0.75706901  1
  S  S7  1  0.64432036  0.93972029  0.51212555  1
  S  S8  1  0.95573538  0.77260987  0.88133256  1
  S  S9  1  0.72779259  0.19563704  0.76474051  1
  S  S10  1  0.31607591  0.38926470  0.11195200  1
  S  S11  1  0.97307456  0.24007724  0.42613013  1
  S  S12  1  0.17116092  0.86419747  0.75025352  1
  S  S13  1  0.59344920  0.66909023  0.62507427  1
  S  S14  1  0.57931877  0.45127773  0.33127436  1
  S  S15  1  0.08441342  -0.00007899  0.99404872  1
  S  S16  1  0.91966590  0.49891278  0.24156514  1
  S  S17  1  0.60264006  0.49293023  0.82168032  1
  S  S18  1  0.15163328  0.30145433  0.92709960  1
  S  S19  1  0.73817837  0.37878274  0.52469477  1
  S  S20  1  0.12957558  0.25949091  0.44129940  1
  S  S21  1  0.77063919  0.55013060  0.01659290  1
  S  S22  1  0.51909168  0.56234798  0.55703615  1
  S  S23  1  0.96333847  0.26161589  0.66572561  1
  S  S24  1  0.19218120  0.45015397  0.68296291  1
  S  S25  1  0.90993667  0.46718959  0.80599629  1
  S  S26  1  0.35747256  0.10418261  0.00429331  1
  S  S27  1  0.59276169  0.01512413  0.22947558  1
  S  S28  1  0.04938898  0.72585212  0.32688379  1
  S  S29  1  0.85245148  0.96719711  0.17785680  1
  S  S30  1  0.76975214  0.65887962  0.42940841  1
  S  S31  1  0.67016379  0.71861970  0.19106430  1
  S  S32  1  0.33974427  0.05896956  0.55574415  1
  S  S33  1  0.47797531  0.42973911  0.89552896  1
  S  S34  1  0.33905590  0.62082346  0.32069783  1
  S  S35  1  0.07911683  0.96691630  0.45034552  1
  S  S36  1  0.47262281  0.60459680  0.03374784  1
  S  S37  1  0.25127326  0.72555471  0.55467542  1
  S  S38  1  -0.00327577  0.50285625  0.50326282  1
  S  S39  1  0.33726369  0.38673770  0.49357644  1
  S  S40  1  0.64643343  0.77769570  0.90922903  1
  S  S41  1  0.75332112  0.91156838  0.74108600  1
  S  S42  1  0.75312079  0.25182505  0.27590529  1
  S  S43  1  0.43977924  0.85350820  0.12225735  1
  S  S44  1  0.43273904  0.33217203  0.80860147  1
  S  S45  1  0.34055349  0.33454989  0.25112880  1
  S  S46  1  0.87508964  0.24627918  0.97201239  1
  S  S47  1  0.87491151  0.96233754  0.65281691  1
  S  S48  1  0.49042134  0.79607868  0.39164512  1
  S  S49  1  0.04873175  0.23328666  0.19568589  1
loop_
_geom_bond_atom_site_label_1
_geom_bond_atom_site_label_2
_geom_bond_distance
_geom_bond_site_symmetry_2
Zn10 Zn11 2.325832 1_565
Zn17 Zn36 2.371641 1_555
S0 Zn4 2.218319 1_555
S0 Zn15 2.348682 1_556
S0 Zn35 2.444842 1_556
S1 Zn39 2.301847 1_555
S1 Zn9 2.318357 1_555
S1 Zn25 2.385755 1_555
S1 Zn19 2.792608 1_555
S2 Zn16 2.194302 1_555
S2 Zn5 2.308097 1_555
S2 Zn41 2.477086 1_555
S3 Zn32 2.343195 1_455
S3 Zn28 2.346354 1_455
S3 Zn1 2.359130 1_555
S3 Zn37 2.558676 1_555
S4 Zn28 2.357761 1_555
S5 Zn30 2.280807 1_555
S5 Zn11 2.288529 1_555
S5 Zn33 2.346776 1_555
S6 Zn24 2.208988 1_555
S6 Zn19 2.340923 1_555
S6 Zn23 2.424509 1_545
S7 Zn0 2.283855 1_555
S7 Zn19 2.291035 1_565
S7 Zn20 2.335820 1_555
S8 Zn49 2.253651 1_555
S8 Zn38 2.337834 1_555
S8 Zn32 2.433559 1_555
S9 Zn39 2.266091 1_555
S9 Zn24 2.291685 1_555
S9 Zn29 2.415479 1_555
S9 Zn18 2.610365 1_555
S10 S45 2.091748 1_555
S10 Zn35 2.352220 1_555
S10 Zn36 2.446625 1_555
S11 S20 2.098373 1_655
S11 Zn48 2.304922 1_555
S11 Zn3 2.376719 1_555
S12 Zn5 2.253796 1_565
S12 Zn42 2.283321 1_555
S12 Zn32 2.387759 1_455
S13 S4 2.054633 1_555
S13 S22 2.145801 1_555
S13 Zn20 2.398608 1_555
S14 Zn25 2.352415 1_555
S14 Zn21 2.377008 1_555
S14 Zn7 2.394468 1_555
S14 Zn17 2.503670 1_555
S15 Zn41 2.298924 1_555
S15 Zn27 2.307520 1_455
S15 Zn42 2.425375 1_545
S15 Zn13 2.859821 1_456
S16 Zn26 2.237774 1_555
S16 Zn43 2.321187 1_555
S16 Zn3 2.388275 1_555
S17 S33 2.103313 1_555
S17 Zn22 2.286852 1_555
S18 Zn14 2.281879 1_556
S18 Zn8 2.374891 1_555
S18 Zn47 2.468081 1_555
S18 Zn41 2.481739 1_555
S19 Zn48 2.281091 1_555
S19 Zn39 2.282722 1_555
S19 Zn25 2.417100 1_555
S19 Zn7 2.432811 1_555
S20 Zn33 2.450613 1_555
S20 Zn40 2.501035 1_555
S21 Zn46 2.254996 1_554
S21 Zn26 2.340925 1_555
S21 Zn49 2.355488 1_554
S21 Zn22 2.508110 1_554
S22 Zn7 2.364262 1_555
S22 Zn2 2.438830 1_555
S23 Zn16 2.237432 1_655
S23 Zn18 2.371027 1_555
S23 Zn29 2.392124 1_555
S23 Zn48 2.411383 1_555
S24 Zn8 2.252892 1_555
S24 Zn1 2.257520 1_555
S24 Zn40 2.434259 1_555
S25 Zn46 2.283873 1_555
S25 Zn8 2.297974 1_655
S25 Zn18 2.347746 1_555
S26 Zn47 2.221313 1_554
S26 Zn41 2.346732 1_554
S26 Zn23 2.399885 1_544
S27 Zn0 2.247723 1_545
S27 Zn6 2.286873 1_555
S27 Zn45 2.326036 1_545
S28 Zn44 2.363222 1_555
S28 Zn43 2.365087 1_455
S28 Zn10 2.445832 1_555
S28 Zn37 2.534626 1_555
S29 Zn13 2.297076 1_565
S29 Zn45 2.347341 1_555
S29 Zn6 2.407760 1_565
S29 Zn10 2.552971 1_655
S30 Zn7 2.357917 1_555
S30 Zn20 2.368670 1_555
S30 Zn28 2.386791 1_555
S30 Zn43 2.556615 1_555
S31 Zn45 2.260241 1_555
S31 Zn26 2.284855 1_555
S31 Zn31 2.365541 1_555
S32 Zn30 2.305488 1_555
S32 Zn5 2.335124 1_555
S32 Zn9 2.396304 1_555
S32 Zn19 2.409940 1_555
S33 S44 2.056400 1_555
S33 Zn4 2.366952 1_555
S33 Zn36 2.739227 1_556
S34 Zn34 2.324252 1_555
S34 Zn21 2.349462 1_555
S34 Zn2 2.431919 1_555
S34 Zn44 2.461934 1_555
S35 Zn30 2.255286 1_565
S35 Zn37 2.308951 1_555
S35 Zn11 2.605364 1_565
S36 Zn4 2.312196 1_554
S36 Zn22 2.349011 1_554
S36 Zn36 2.428935 1_555
S36 Zn31 2.589566 1_555
S37 Zn2 2.246969 1_555
S37 Zn1 2.283617 1_555
S37 Zn37 2.341222 1_555
S38 Zn48 2.292646 1_455
S38 Zn43 2.347056 1_455
S38 Zn40 2.441760 1_555
S38 Zn28 2.585695 1_455
S39 Zn9 2.236713 1_555
S39 Zn21 2.351837 1_555
S39 Zn40 2.363508 1_555
S40 Zn31 2.306644 1_556
S40 Zn49 2.329361 1_555
S40 Zn22 2.381764 1_555
S41 S47 2.114550 1_555
S41 Zn24 2.313514 1_565
S41 Zn38 2.360667 1_555
S42 Zn6 2.264183 1_555
S42 Zn17 2.405292 1_555
S42 Zn25 2.443138 1_555
S42 Zn3 2.489464 1_555
S43 Zn12 2.245697 1_555
S43 Zn34 2.279238 1_555
S43 Zn31 2.312733 1_555
S44 Zn47 2.239016 1_555
S45 Zn33 2.374511 1_555
S45 Zn21 2.376470 1_555
S46 Zn46 2.315738 1_555
S46 Zn14 2.354292 1_656
S46 Zn18 2.434345 1_555
S47 Zn29 2.316075 1_565
S47 Zn32 2.457513 1_555
S48 Zn0 2.320171 1_555
S48 Zn34 2.334079 1_555
S48 Zn20 2.429666 1_555
S48 Zn2 2.455835 1_555
S49 Zn14 2.235642 1_555
S49 Zn3 2.324545 1_455
S49 Zn33 2.373403 1_555
