# generated using pymatgen
data_K3Gd(BH4)6
_symmetry_space_group_name_H-M   'P 1'
_cell_length_a   7.43862294
_cell_length_b   8.68908900
_cell_length_c   12.67891143
_cell_angle_alpha   90.00000000
_cell_angle_beta   87.81502769
_cell_angle_gamma   90.00000000
_symmetry_Int_Tables_number   1
_chemical_formula_structural   K3Gd(BH4)6
_chemical_formula_sum   'K6 Gd2 B12 H48'
_cell_volume   818.90380673
_cell_formula_units_Z   2
loop_
 _symmetry_equiv_pos_site_id
 _symmetry_equiv_pos_as_xyz
  1  'x, y, z'
loop_
 _atom_site_type_symbol
 _atom_site_label
 _atom_site_symmetry_multiplicity
 _atom_site_fract_x
 _atom_site_fract_y
 _atom_site_fract_z
 _atom_site_occupancy
  K  K0  1  0.53137800  0.02764300  0.75204400  1
  K  K1  1  0.03137800  0.47235700  0.25204400  1
  K  K2  1  0.46862200  0.97235700  0.24795600  1
  K  K3  1  0.96862200  0.52764300  0.74795600  1
  K  K4  1  0.00000000  0.00000000  0.50000000  1
  K  K5  1  0.50000000  0.50000000  0.00000000  1
  Gd  Gd0  1  0.50000000  0.50000000  0.50000000  1
  Gd  Gd1  1  0.00000000  0.00000000  0.00000000  1
  B  B0  1  0.33656000  0.77076400  0.42686200  1
  B  B1  1  0.83656000  0.72923600  0.92686200  1
  B  B2  1  0.66344000  0.22923600  0.57313800  1
  B  B3  1  0.16344000  0.27076400  0.07313800  1
  B  B4  1  0.09709900  0.04077300  0.75636700  1
  B  B5  1  0.59709900  0.45922700  0.25636700  1
  B  B6  1  0.90290100  0.95922700  0.24363300  1
  B  B7  1  0.40290100  0.54077300  0.74363300  1
  B  B8  1  0.71627600  0.14909800  0.95778900  1
  B  B9  1  0.21627600  0.35090200  0.45778900  1
  B  B10  1  0.28372400  0.85090200  0.04221100  1
  B  B11  1  0.78372400  0.64909800  0.54221100  1
  H  H0  1  0.23964200  0.74201200  0.35389200  1
  H  H1  1  0.73964200  0.75798800  0.85389200  1
  H  H2  1  0.76035800  0.25798800  0.64610800  1
  H  H3  1  0.26035800  0.24201200  0.14610800  1
  H  H4  1  0.49239700  0.73158100  0.40342200  1
  H  H5  1  0.99239700  0.76841900  0.90342200  1
  H  H6  1  0.50760300  0.26841900  0.59657800  1
  H  H7  1  0.00760300  0.23158100  0.09657800  1
  H  H8  1  0.28054900  0.70339200  0.50756000  1
  H  H9  1  0.78054900  0.79660800  0.00756000  1
  H  H10  1  0.71945100  0.29660800  0.49244000  1
  H  H11  1  0.21945100  0.20339200  0.99244000  1
  H  H12  1  0.34136000  0.90866900  0.44653800  1
  H  H13  1  0.84136000  0.59133100  0.94653800  1
  H  H14  1  0.65864000  0.09133100  0.55346200  1
  H  H15  1  0.15864000  0.40866900  0.05346200  1
  H  H16  1  0.16473700  0.91260700  0.76006600  1
  H  H17  1  0.66473600  0.58739300  0.26006600  1
  H  H18  1  0.83526400  0.08739300  0.23993400  1
  H  H19  1  0.33526300  0.41260700  0.73993400  1
  H  H20  1  0.08784400  0.10164600  0.84507000  1
  H  H21  1  0.58784400  0.39835400  0.34507000  1
  H  H22  1  0.91215600  0.89835400  0.15493000  1
  H  H23  1  0.41215600  0.60164600  0.65493000  1
  H  H24  1  0.94607800  0.03526800  0.72249400  1
  H  H25  1  0.44607800  0.46473200  0.22249400  1
  H  H26  1  0.05392200  0.96473200  0.27750600  1
  H  H27  1  0.55392200  0.53526800  0.77750600  1
  H  H28  1  0.19250900  0.13113200  0.70456400  1
  H  H29  1  0.69250900  0.36886800  0.20456400  1
  H  H30  1  0.80749100  0.86886800  0.29543600  1
  H  H31  1  0.30749100  0.63113200  0.79543600  1
  H  H32  1  0.72430200  0.11844800  0.05285400  1
  H  H33  1  0.22430200  0.38155200  0.55285400  1
  H  H34  1  0.27569800  0.88155200  0.94714600  1
  H  H35  1  0.77569800  0.61844800  0.44714600  1
  H  H36  1  0.57742100  0.21170800  0.93767600  1
  H  H37  1  0.07742100  0.28829200  0.43767600  1
  H  H38  1  0.42257900  0.78829200  0.06232400  1
  H  H39  1  0.92257900  0.71170800  0.56232400  1
  H  H40  1  0.73155700  0.02544500  0.91100300  1
  H  H41  1  0.23155700  0.47455500  0.41100300  1
  H  H42  1  0.26844300  0.97455500  0.08899700  1
  H  H43  1  0.76844300  0.52544500  0.58899700  1
  H  H44  1  0.85210100  0.22418800  0.93215500  1
  H  H45  1  0.35210100  0.27581200  0.43215500  1
  H  H46  1  0.14789900  0.77581200  0.06784500  1
  H  H47  1  0.64789900  0.72418800  0.56784500  1
loop_
_geom_bond_atom_site_label_1
_geom_bond_atom_site_label_2
_geom_bond_distance
_geom_bond_site_symmetry_2
Gd0 H21 2.228860 1_555
Gd0 H23 2.228860 1_555
Gd0 H43 2.341226 1_555
Gd0 H41 2.341226 1_555
Gd0 H4 2.357318 1_555
Gd0 H6 2.357318 1_555
Gd0 H33 2.368413 1_555
Gd0 H35 2.368413 1_555
Gd0 H10 2.405275 1_555
Gd0 H8 2.405275 1_555
Gd0 H47 2.411873 1_555
Gd0 H45 2.411873 1_555
Gd1 H20 2.228860 1_554
Gd1 H22 2.228860 1_445
Gd1 H42 2.341226 1_545
Gd1 H40 2.341226 1_454
Gd1 H7 2.357318 1_555
Gd1 H5 2.357318 1_444
Gd1 H32 2.368413 1_455
Gd1 H34 2.368413 1_544
Gd1 H11 2.405275 1_554
Gd1 H9 2.405275 1_445
Gd1 H46 2.411873 1_545
Gd1 H44 2.411873 1_454
B0 H0 1.220238 1_555
B0 H12 1.224760 1_555
B0 H4 1.233590 1_555
B0 H8 1.237192 1_555
B1 H1 1.220238 1_555
B1 H13 1.224760 1_555
B1 H5 1.233590 1_555
B1 H9 1.237192 1_556
B2 H2 1.220238 1_555
B2 H14 1.224760 1_555
B2 H6 1.233590 1_555
B2 H10 1.237192 1_555
B3 H3 1.220238 1_555
B3 H15 1.224760 1_555
B3 H7 1.233590 1_555
B3 H11 1.237192 1_554
B4 H24 1.218821 1_455
B4 H16 1.223662 1_545
B4 H28 1.231256 1_555
B4 H20 1.242360 1_555
B5 H25 1.218821 1_555
B5 H17 1.223659 1_555
B5 H29 1.231256 1_555
B5 H21 1.242360 1_555
B6 H26 1.218821 1_655
B6 H18 1.223659 1_565
B6 H30 1.231256 1_555
B6 H22 1.242360 1_555
B7 H27 1.218821 1_555
B7 H19 1.223662 1_555
B7 H31 1.231256 1_555
B7 H23 1.242360 1_555
B8 H36 1.203303 1_555
B8 H40 1.230473 1_555
B8 H44 1.235763 1_555
B8 H32 1.238053 1_556
B9 H37 1.203303 1_555
B9 H41 1.230473 1_555
B9 H45 1.235763 1_555
B9 H33 1.238053 1_555
B10 H38 1.203303 1_555
B10 H42 1.230473 1_555
B10 H46 1.235763 1_555
B10 H34 1.238053 1_554
B11 H39 1.203303 1_555
B11 H43 1.230473 1_555
B11 H47 1.235763 1_555
B11 H35 1.238053 1_555
H0 K2 2.921778 1_555
H1 K3 2.921778 1_555
H2 K0 2.921778 1_555
H3 K1 2.921778 1_555
H4 K2 2.884481 1_555
H5 K3 2.884481 1_555
H6 K0 2.884481 1_555
H7 K1 2.884481 1_555
H12 K2 2.712929 1_555
H12 K4 2.721356 1_565
H13 K3 2.712929 1_555
H13 K5 2.721356 1_556
H14 K0 2.712929 1_555
H14 K4 2.721356 1_655
H15 K1 2.712929 1_555
H15 K5 2.721356 1_555
H16 K0 2.902843 1_565
H17 K1 2.902850 1_655
H18 K2 2.902850 1_545
H19 K3 2.902843 1_455
H24 K4 2.850694 1_655
H25 K5 2.850694 1_555
H26 K4 2.850694 1_565
H27 K5 2.850694 1_556
H28 K0 2.764188 1_555
H29 K1 2.764188 1_655
H30 K2 2.764188 1_555
H31 K3 2.764188 1_455
H36 K5 2.682607 1_556
H36 K0 2.876839 1_555
H37 K4 2.682607 1_555
H37 K1 2.876839 1_555
H38 K5 2.682607 1_555
H38 K2 2.876839 1_555
H39 K4 2.682607 1_665
H39 K3 2.876839 1_555
H40 K0 2.551164 1_555
H41 K1 2.551164 1_555
H42 K2 2.551164 1_555
H43 K3 2.551164 1_555
