# generated using pymatgen
data_Tb(Mo3Se4)2
_symmetry_space_group_name_H-M   'P 1'
_cell_length_a   6.78283170
_cell_length_b   6.78283170
_cell_length_c   6.78283199
_cell_angle_alpha   89.16676310
_cell_angle_beta   89.16676310
_cell_angle_gamma   89.16676328
_symmetry_Int_Tables_number   1
_chemical_formula_structural   Tb(Mo3Se4)2
_chemical_formula_sum   'Tb1 Mo6 Se8'
_cell_volume   311.95839069
_cell_formula_units_Z   1
loop_
 _symmetry_equiv_pos_site_id
 _symmetry_equiv_pos_as_xyz
  1  'x, y, z'
loop_
 _atom_site_type_symbol
 _atom_site_label
 _atom_site_symmetry_multiplicity
 _atom_site_fract_x
 _atom_site_fract_y
 _atom_site_fract_z
 _atom_site_occupancy
  Tb  Tb0  1  0.00000000  0.00000000  0.00000000  1
  Mo  Mo0  1  0.76584700  0.57726100  0.44054000  1
  Mo  Mo1  1  0.44054000  0.76584700  0.57726100  1
  Mo  Mo2  1  0.57726100  0.44054000  0.76584700  1
  Mo  Mo3  1  0.23415300  0.42273900  0.55946000  1
  Mo  Mo4  1  0.55946000  0.23415300  0.42273900  1
  Mo  Mo5  1  0.42273900  0.55946000  0.23415300  1
  Se  Se0  1  0.76284500  0.76284500  0.76284500  1
  Se  Se1  1  0.23715500  0.23715500  0.23715500  1
  Se  Se2  1  0.24374600  0.62837500  0.87826200  1
  Se  Se3  1  0.87826200  0.24374600  0.62837500  1
  Se  Se4  1  0.62837500  0.87826200  0.24374600  1
  Se  Se5  1  0.75625400  0.37162500  0.12173800  1
  Se  Se6  1  0.12173800  0.75625400  0.37162500  1
  Se  Se7  1  0.37162500  0.12173800  0.75625400  1
loop_
_geom_bond_atom_site_label_1
_geom_bond_atom_site_label_2
_geom_bond_distance
_geom_bond_site_symmetry_2
Mo0 Se0 2.538141 1_555
Mo0 Se5 2.592301 1_555
Mo0 Se4 2.592502 1_555
Mo0 Se3 2.686319 1_555
Mo0 Se6 2.748736 1_655
Mo1 Se0 2.538141 1_555
Mo1 Se6 2.592301 1_555
Mo1 Se2 2.592502 1_555
Mo1 Se4 2.686319 1_555
Mo1 Se7 2.748736 1_565
Mo2 Se0 2.538141 1_555
Mo2 Se7 2.592301 1_555
Mo2 Se3 2.592502 1_555
Mo2 Se2 2.686319 1_555
Mo2 Se5 2.748736 1_556
Mo3 Se1 2.538141 1_555
Mo3 Se2 2.592301 1_555
Mo3 Se7 2.592502 1_555
Mo3 Se6 2.686319 1_555
Mo3 Se3 2.748736 1_455
Mo4 Se1 2.538141 1_555
Mo4 Se3 2.592301 1_555
Mo4 Se5 2.592502 1_555
Mo4 Se7 2.686319 1_555
Mo4 Se4 2.748736 1_545
Mo5 Se1 2.538141 1_555
Mo5 Se4 2.592301 1_555
Mo5 Se6 2.592502 1_555
Mo5 Se5 2.686319 1_555
Mo5 Se2 2.748736 1_554
Se0 Tb0 2.826373 1_666
Se1 Tb0 2.826373 1_555
Se2 Tb0 3.109436 1_566
Se3 Tb0 3.109436 1_656
Se4 Tb0 3.109436 1_665
Se5 Tb0 3.109436 1_655
Se6 Tb0 3.109436 1_565
Se7 Tb0 3.109436 1_556
