# generated using pymatgen
data_Mg14NbC
_symmetry_space_group_name_H-M   'P 1'
_cell_length_a   6.22025282
_cell_length_b   6.12506314
_cell_length_c   9.97203173
_cell_angle_alpha   90.00000000
_cell_angle_beta   90.00000000
_cell_angle_gamma   119.49505782
_symmetry_Int_Tables_number   1
_chemical_formula_structural   Mg14NbC
_chemical_formula_sum   'Mg14 Nb1 C1'
_cell_volume   330.68936359
_cell_formula_units_Z   1
loop_
 _symmetry_equiv_pos_site_id
 _symmetry_equiv_pos_as_xyz
  1  'x, y, z'
loop_
 _atom_site_type_symbol
 _atom_site_label
 _atom_site_symmetry_multiplicity
 _atom_site_fract_x
 _atom_site_fract_y
 _atom_site_fract_z
 _atom_site_occupancy
  Mg  Mg0  1  0.17001350  0.33500625  0.62500000  1
  Mg  Mg1  1  0.16511623  0.83255761  0.62500000  1
  Mg  Mg2  1  0.66456434  0.32605086  0.12500000  1
  Mg  Mg3  1  0.66205941  0.33379075  0.62500000  1
  Mg  Mg4  1  0.66456434  0.83851248  0.12500000  1
  Mg  Mg5  1  0.66205941  0.82826766  0.62500000  1
  Mg  Mg6  1  0.32766037  0.15863932  0.35750719  1
  Mg  Mg7  1  0.32766037  0.15863932  0.89249281  1
  Mg  Mg8  1  0.32766037  0.66902205  0.35750719  1
  Mg  Mg9  1  0.32766037  0.66902205  0.89249281  1
  Mg  Mg10  1  0.84143029  0.17071564  0.37404621  1
  Mg  Mg11  1  0.84143029  0.17071564  0.87595379  1
  Mg  Mg12  1  0.84917993  0.67459047  0.35857973  1
  Mg  Mg13  1  0.84917993  0.67459047  0.89142027  1
  Nb  Nb0  1  0.15435013  0.32717456  0.12500000  1
  C  C0  1  0.16541070  0.83270485  0.12500000  1
loop_
_geom_bond_atom_site_label_1
_geom_bond_atom_site_label_2
_geom_bond_distance
_geom_bond_site_symmetry_2
Mg0 Mg1 3.062646 1_555
Mg0 Mg1 3.062646 1_545
Mg0 Mg5 3.064322 1_555
Mg0 Mg3 3.064322 1_555
Mg0 Mg10 3.070403 1_455
Mg0 Mg11 3.070403 1_455
Mg0 Mg5 3.155944 1_445
Mg0 Mg3 3.155944 1_455
Mg0 Mg6 3.207321 1_555
Mg0 Mg7 3.207321 1_555
Mg0 Mg8 3.207327 1_555
Mg0 Mg9 3.207327 1_555
Mg1 Mg3 3.104133 1_565
Mg1 Mg5 3.104134 1_555
Mg1 Mg3 3.116287 1_455
Mg1 Mg5 3.116287 1_455
Mg1 Mg12 3.159774 1_455
Mg1 Mg13 3.159774 1_455
Mg1 Mg8 3.184040 1_555
Mg1 Mg9 3.184040 1_555
Mg1 Mg6 3.184046 1_565
Mg1 Mg7 3.184046 1_565
Mg2 Mg7 2.950066 1_554
Mg2 Mg6 2.950066 1_555
Mg2 Mg4 2.986203 1_545
Mg2 Nb0 3.043209 1_655
Mg2 Mg4 3.138860 1_555
Mg2 Nb0 3.177056 1_555
Mg3 Mg5 3.028702 1_555
Mg3 Mg5 3.096361 1_545
Mg3 Mg6 3.224196 1_555
Mg3 Mg7 3.224196 1_555
Mg4 Mg9 2.950066 1_554
Mg4 Mg8 2.950066 1_555
Mg4 Nb0 3.043208 1_665
Mg4 Nb0 3.177056 1_555
Mg5 Mg8 3.224196 1_555
Mg5 Mg9 3.224196 1_555
Mg6 Nb0 2.949466 1_555
Mg6 Mg8 2.998937 1_545
Mg6 Mg8 3.126126 1_555
Mg7 Nb0 2.949466 1_556
Mg7 Mg9 2.998937 1_545
Mg7 Mg9 3.126126 1_555
Mg8 Nb0 2.949473 1_555
Mg9 Nb0 2.949473 1_556
Mg10 Nb0 3.006326 1_655
Mg10 Mg2 3.051890 1_555
Mg10 Mg4 3.051895 1_545
Mg10 Mg8 3.066008 1_655
Mg10 Mg6 3.066008 1_655
Mg10 Mg12 3.066700 1_545
Mg10 Mg12 3.066700 1_555
Mg10 Mg3 3.098797 1_555
Mg10 Mg5 3.098803 1_545
Mg10 Mg8 3.164317 1_545
Mg10 Mg6 3.164318 1_555
Mg11 Nb0 3.006326 1_656
Mg11 Mg2 3.051890 1_556
Mg11 Mg4 3.051895 1_546
Mg11 Mg9 3.066008 1_655
Mg11 Mg7 3.066008 1_655
Mg11 Mg13 3.066700 1_545
Mg11 Mg13 3.066700 1_555
Mg11 Mg3 3.098797 1_555
Mg11 Mg5 3.098803 1_545
Mg11 Mg9 3.164317 1_545
Mg11 Mg7 3.164318 1_555
Mg12 Mg4 2.981211 1_555
Mg12 Mg2 2.981217 1_555
Mg12 Mg6 2.993228 1_665
Mg12 Mg8 2.993228 1_655
Mg12 Mg5 3.221478 1_555
Mg12 Mg3 3.221483 1_555
Mg12 Mg6 3.227345 1_555
Mg12 Mg8 3.227345 1_555
Mg13 Mg4 2.981211 1_556
Mg13 Mg2 2.981217 1_556
Mg13 Mg7 2.993228 1_665
Mg13 Mg9 2.993228 1_655
Mg13 Mg5 3.221478 1_555
Mg13 Mg3 3.221483 1_555
Mg13 Mg7 3.227345 1_555
Mg13 Mg9 3.227345 1_555
C0 Mg12 2.890808 1_455
C0 Mg13 2.890808 1_454
C0 Mg9 2.897550 1_554
C0 Mg8 2.897550 1_555
C0 Mg7 2.897557 1_564
C0 Mg6 2.897557 1_565
C0 Nb0 3.063117 1_565
C0 Nb0 3.063117 1_555
