# generated using pymatgen
data_RbHgC3(NO)3
_symmetry_space_group_name_H-M   'P 1'
_cell_length_a   4.19828300
_cell_length_b   10.74154900
_cell_length_c   18.40606900
_cell_angle_alpha   90.00000000
_cell_angle_beta   90.00000000
_cell_angle_gamma   90.00000000
_symmetry_Int_Tables_number   1
_chemical_formula_structural   RbHgC3(NO)3
_chemical_formula_sum   'Rb4 Hg4 C12 N12 O12'
_cell_volume   830.04123911
_cell_formula_units_Z   4
loop_
 _symmetry_equiv_pos_site_id
 _symmetry_equiv_pos_as_xyz
  1  'x, y, z'
loop_
 _atom_site_type_symbol
 _atom_site_label
 _atom_site_symmetry_multiplicity
 _atom_site_fract_x
 _atom_site_fract_y
 _atom_site_fract_z
 _atom_site_occupancy
  Rb  Rb0  1  0.25000000  0.57028900  0.34227000  1
  Rb  Rb1  1  0.75000000  0.42971100  0.65773000  1
  Rb  Rb2  1  0.75000000  0.92971100  0.84227000  1
  Rb  Rb3  1  0.25000000  0.07028900  0.15773000  1
  Hg  Hg0  1  0.25000000  0.64868800  0.96027500  1
  Hg  Hg1  1  0.75000000  0.35131200  0.03972500  1
  Hg  Hg2  1  0.75000000  0.85131200  0.46027500  1
  Hg  Hg3  1  0.25000000  0.14868800  0.53972500  1
  C  C0  1  0.25000000  0.64275800  0.79452700  1
  C  C1  1  0.75000000  0.35724200  0.20547300  1
  C  C2  1  0.75000000  0.85724200  0.29452700  1
  C  C3  1  0.25000000  0.14275800  0.70547300  1
  C  C4  1  0.25000000  0.63694400  0.52875700  1
  C  C5  1  0.75000000  0.36305600  0.47124300  1
  C  C6  1  0.75000000  0.86305600  0.02875700  1
  C  C7  1  0.25000000  0.13694400  0.97124300  1
  C  C8  1  0.25000000  0.60012400  0.12141000  1
  C  C9  1  0.75000000  0.39987600  0.87859000  1
  C  C10  1  0.75000000  0.89987600  0.62141000  1
  C  C11  1  0.25000000  0.10012400  0.37859000  1
  N  N0  1  0.25000000  0.55168700  0.06190300  1
  N  N1  1  0.75000000  0.44831300  0.93809700  1
  N  N2  1  0.75000000  0.94831300  0.56190300  1
  N  N3  1  0.25000000  0.05168700  0.43809700  1
  N  N4  1  0.25000000  0.22707100  0.01028400  1
  N  N5  1  0.75000000  0.77292900  0.98971600  1
  N  N6  1  0.75000000  0.27292900  0.51028400  1
  N  N7  1  0.25000000  0.72707100  0.48971600  1
  N  N8  1  0.25000000  0.70697900  0.84853900  1
  N  N9  1  0.75000000  0.29302100  0.15146100  1
  N  N10  1  0.75000000  0.79302100  0.34853900  1
  N  N11  1  0.25000000  0.20697900  0.65146100  1
  O  O0  1  0.25000000  0.54504100  0.56709300  1
  O  O1  1  0.75000000  0.45495900  0.43290700  1
  O  O2  1  0.75000000  0.95495900  0.06709300  1
  O  O3  1  0.25000000  0.04504100  0.93290700  1
  O  O4  1  0.25000000  0.63973800  0.18237800  1
  O  O5  1  0.75000000  0.36026200  0.81762200  1
  O  O6  1  0.75000000  0.86026200  0.68237800  1
  O  O7  1  0.25000000  0.13973800  0.31762200  1
  O  O8  1  0.25000000  0.58632900  0.73811300  1
  O  O9  1  0.75000000  0.41367100  0.26188700  1
  O  O10  1  0.75000000  0.91367100  0.23811300  1
  O  O11  1  0.25000000  0.08632900  0.76188700  1
loop_
_geom_bond_atom_site_label_1
_geom_bond_atom_site_label_2
_geom_bond_distance
_geom_bond_site_symmetry_2
Hg0 N0 2.141187 1_556
Hg0 N8 2.149822 1_555
Hg0 N5 2.545789 1_555
Hg0 N5 2.545789 1_455
Hg1 N1 2.141187 1_554
Hg1 N9 2.149822 1_555
Hg1 N4 2.545789 1_555
Hg1 N4 2.545789 1_655
Hg2 N2 2.141187 1_555
Hg2 N10 2.149822 1_555
Hg2 N7 2.545789 1_555
Hg2 N7 2.545789 1_655
Hg3 N3 2.141187 1_555
Hg3 N11 2.149822 1_555
Hg3 N6 2.545789 1_555
Hg3 N6 2.545789 1_455
C0 O8 1.202327 1_555
C0 N8 1.210042 1_555
C1 O9 1.202327 1_555
C1 N9 1.210042 1_555
C2 O10 1.202327 1_555
C2 N10 1.210042 1_555
C3 O11 1.202327 1_555
C3 N11 1.210042 1_555
C4 N7 1.205653 1_555
C4 O0 1.213432 1_555
C5 N6 1.205653 1_555
C5 O1 1.213432 1_555
C6 N5 1.205653 1_554
C6 O2 1.213432 1_555
C7 N4 1.205653 1_556
C7 O3 1.213432 1_555
C8 O4 1.200148 1_555
C8 N0 1.212584 1_555
C9 O5 1.200148 1_555
C9 N1 1.212584 1_555
C10 O6 1.200148 1_555
C10 N2 1.212584 1_555
C11 O7 1.200148 1_555
C11 N3 1.212584 1_555
N4 Rb3 3.193962 1_555
N5 Rb2 3.193962 1_555
N6 Rb1 3.193962 1_555
N7 Rb0 3.193962 1_555
N8 Rb2 3.184918 1_555
N8 Rb2 3.184918 1_455
N9 Rb3 3.184918 1_655
N9 Rb3 3.184918 1_555
N10 Rb0 3.184918 1_655
N10 Rb0 3.184918 1_555
N11 Rb1 3.184918 1_455
N11 Rb1 3.184918 1_555
O0 Rb1 2.953676 1_455
O0 Rb1 2.953676 1_555
O1 Rb0 2.953676 1_555
O1 Rb0 2.953676 1_655
O2 Rb3 2.953676 1_665
O2 Rb3 2.953676 1_565
O3 Rb2 2.953676 1_445
O3 Rb2 2.953676 1_545
O4 Rb0 3.036058 1_555
O5 Rb1 3.036058 1_555
O6 Rb2 3.036058 1_555
O7 Rb3 3.036058 1_555
O8 Rb1 3.070117 1_555
O8 Rb1 3.070117 1_455
O9 Rb0 3.070117 1_555
O9 Rb0 3.070117 1_655
O10 Rb3 3.070117 1_565
O10 Rb3 3.070117 1_665
O11 Rb2 3.070117 1_445
O11 Rb2 3.070117 1_545
