# generated using pymatgen
data_YbCdNi4
_symmetry_space_group_name_H-M   'P 1'
_cell_length_a   4.88301497
_cell_length_b   4.88301497
_cell_length_c   4.88301497
_cell_angle_alpha   60.00000000
_cell_angle_beta   60.00000000
_cell_angle_gamma   60.00000000
_symmetry_Int_Tables_number   1
_chemical_formula_structural   YbCdNi4
_chemical_formula_sum   'Yb1 Cd1 Ni4'
_cell_volume   82.32830424
_cell_formula_units_Z   1
loop_
 _symmetry_equiv_pos_site_id
 _symmetry_equiv_pos_as_xyz
  1  'x, y, z'
loop_
 _atom_site_type_symbol
 _atom_site_label
 _atom_site_symmetry_multiplicity
 _atom_site_fract_x
 _atom_site_fract_y
 _atom_site_fract_z
 _atom_site_occupancy
  Yb  Yb0  1  0.75000000  0.75000000  0.75000000  1
  Cd  Cd0  1  0.00000000  0.00000000  0.00000000  1
  Ni  Ni0  1  0.87484300  0.37505200  0.37505200  1
  Ni  Ni1  1  0.37505200  0.87484300  0.37505200  1
  Ni  Ni2  1  0.37505200  0.37505200  0.87484300  1
  Ni  Ni3  1  0.37505200  0.37505200  0.37505200  1
loop_
_geom_bond_atom_site_label_1
_geom_bond_atom_site_label_2
_geom_bond_distance
_geom_bond_site_symmetry_2
Cd0 Ni2 2.863028 1_554
Cd0 Ni1 2.863028 1_545
Cd0 Ni0 2.863028 1_455
Cd0 Ni3 2.863030 1_545
Cd0 Ni3 2.863030 1_455
Cd0 Ni3 2.863030 1_554
Cd0 Ni0 2.863032 1_445
Cd0 Ni1 2.863032 1_544
Cd0 Ni2 2.863032 1_544
Cd0 Ni1 2.863032 1_445
Cd0 Ni2 2.863032 1_454
Cd0 Ni0 2.863032 1_454
Cd0 Yb0 2.990224 1_454
Cd0 Yb0 2.990224 1_444
Cd0 Yb0 2.990224 1_445
Cd0 Yb0 2.990224 1_544
Ni0 Ni2 2.440487 1_555
Ni0 Ni3 2.440487 1_555
Ni0 Ni1 2.440487 1_555
Ni0 Ni2 2.442528 1_654
Ni0 Ni1 2.442528 1_645
Ni0 Ni3 2.442528 1_655
Ni0 Yb0 2.862811 1_545
Ni0 Yb0 2.862811 1_554
Ni0 Yb0 2.862815 1_555
Ni1 Ni2 2.440487 1_555
Ni1 Ni3 2.440487 1_555
Ni1 Ni2 2.442528 1_564
Ni1 Ni3 2.442528 1_565
Ni1 Yb0 2.862811 1_455
Ni1 Yb0 2.862811 1_554
Ni1 Yb0 2.862815 1_555
Ni2 Ni3 2.440487 1_555
Ni2 Ni3 2.442528 1_556
Ni2 Yb0 2.862811 1_455
Ni2 Yb0 2.862811 1_545
Ni2 Yb0 2.862815 1_555
Ni3 Yb0 2.862813 1_554
Ni3 Yb0 2.862813 1_455
Ni3 Yb0 2.862813 1_545
