# generated using pymatgen
data_LaZnAgP2
_symmetry_space_group_name_H-M   'P 1'
_cell_length_a   4.22923616
_cell_length_b   4.22923616
_cell_length_c   6.86538700
_cell_angle_alpha   90.00000000
_cell_angle_beta   90.00000000
_cell_angle_gamma   120.00000251
_symmetry_Int_Tables_number   1
_chemical_formula_structural   LaZnAgP2
_chemical_formula_sum   'La1 Zn1 Ag1 P2'
_cell_volume   106.34559799
_cell_formula_units_Z   1
loop_
 _symmetry_equiv_pos_site_id
 _symmetry_equiv_pos_as_xyz
  1  'x, y, z'
loop_
 _atom_site_type_symbol
 _atom_site_label
 _atom_site_symmetry_multiplicity
 _atom_site_fract_x
 _atom_site_fract_y
 _atom_site_fract_z
 _atom_site_occupancy
  La  La0  1  0.66666700  0.33333300  0.01250100  1
  Zn  Zn0  1  0.33333300  0.66666700  0.62527300  1
  Ag  Ag0  1  0.00000000  0.00000000  0.36139100  1
  P  P0  1  0.00000000  0.00000000  0.74676400  1
  P  P1  1  0.33333300  0.66666700  0.25407200  1
loop_
_geom_bond_atom_site_label_1
_geom_bond_atom_site_label_2
_geom_bond_distance
_geom_bond_site_symmetry_2
La0 P1 2.951726 1_545
La0 P1 2.951726 1_655
La0 P1 2.951732 1_555
La0 P0 3.048036 1_654
La0 P0 3.048039 1_664
La0 P0 3.048039 1_554
Ag0 P1 2.550488 1_545
Ag0 P1 2.550491 1_555
Ag0 P1 2.550491 1_445
Ag0 P0 2.645735 1_555
P0 Zn0 2.580277 1_545
P0 Zn0 2.580280 1_555
P0 Zn0 2.580280 1_445
P1 Zn0 2.548439 1_555
