# generated using pymatgen
data_Fe2P2H6C2O13
_symmetry_space_group_name_H-M   'P 1'
_cell_length_a   4.95633340
_cell_length_b   7.48925710
_cell_length_c   17.85686500
_cell_angle_alpha   90.00000000
_cell_angle_beta   90.00000000
_cell_angle_gamma   108.86505236
_symmetry_Int_Tables_number   1
_chemical_formula_structural   Fe2P2H6C2O13
_chemical_formula_sum   'Fe4 P4 H12 C4 O26'
_cell_volume   627.22793808
_cell_formula_units_Z   2
loop_
 _symmetry_equiv_pos_site_id
 _symmetry_equiv_pos_as_xyz
  1  'x, y, z'
loop_
 _atom_site_type_symbol
 _atom_site_label
 _atom_site_symmetry_multiplicity
 _atom_site_fract_x
 _atom_site_fract_y
 _atom_site_fract_z
 _atom_site_occupancy
  Fe  Fe0  1  0.92207900  0.93549600  0.15303800  1
  Fe  Fe1  1  0.07792100  0.56450400  0.65303800  1
  Fe  Fe2  1  0.07855100  0.06441100  0.84734500  1
  Fe  Fe3  1  0.92144900  0.43558900  0.34734500  1
  P  P0  1  0.28178000  0.64411000  0.18887200  1
  P  P1  1  0.71822000  0.85589000  0.68887200  1
  P  P2  1  0.71860500  0.35700700  0.81199100  1
  P  P3  1  0.28139500  0.14299300  0.31199100  1
  H  H0  1  0.68739600  0.19297000  0.20165700  1
  H  H1  1  0.31260400  0.30703000  0.70165700  1
  H  H2  1  0.29793700  0.80192300  0.80037100  1
  H  H3  1  0.70206300  0.69807700  0.30037100  1
  H  H4  1  0.64079800  0.18146800  0.11315800  1
  H  H5  1  0.35920200  0.31853200  0.61315800  1
  H  H6  1  0.40847000  0.84573600  0.88355300  1
  H  H7  1  0.59153000  0.65426400  0.38355300  1
  H  H8  1  0.30536800  0.49931700  0.14204900  1
  H  H9  1  0.69463200  0.00068300  0.64204900  1
  H  H10  1  0.69167500  0.50033800  0.85900600  1
  H  H11  1  0.30832500  0.99966200  0.35900600  1
  C  C0  1  0.14983700  0.07204300  0.00719700  1
  C  C1  1  0.85016300  0.42795700  0.50719700  1
  C  C2  1  0.84760200  0.92952600  0.99357300  1
  C  C3  1  0.15239800  0.57047400  0.49357300  1
  O  O0  1  0.13877400  0.05124000  0.23961400  1
  O  O1  1  0.86122600  0.44876000  0.73961400  1
  O  O2  1  0.86250800  0.94539700  0.76162200  1
  O  O3  1  0.13749200  0.55460300  0.26162200  1
  O  O4  1  0.76465700  0.16432800  0.15352400  1
  O  O5  1  0.23534300  0.33567200  0.65352400  1
  O  O6  1  0.24415000  0.83607600  0.85061600  1
  O  O7  1  0.75585000  0.66392400  0.35061600  1
  O  O8  1  0.70760000  0.85488900  0.05074200  1
  O  O9  1  0.29240000  0.64511100  0.55074200  1
  O  O10  1  0.29187900  0.14636000  0.94996200  1
  O  O11  1  0.70812100  0.35364000  0.44996200  1
  O  O12  1  0.22838900  0.10208000  0.07460800  1
  O  O13  1  0.77161100  0.39792000  0.57460800  1
  O  O14  1  0.76729400  0.90240100  0.92588500  1
  O  O15  1  0.23270600  0.59759900  0.42588500  1
  O  O16  1  0.58755400  0.77268200  0.20906200  1
  O  O17  1  0.41244600  0.72731800  0.70906200  1
  O  O18  1  0.41414800  0.22586200  0.79167000  1
  O  O19  1  0.58585200  0.27413800  0.29167000  1
  O  O20  1  0.10649400  0.74156500  0.14391100  1
  O  O21  1  0.89350600  0.75843500  0.64391100  1
  O  O22  1  0.89512100  0.25955200  0.85669900  1
  O  O23  1  0.10487900  0.24044800  0.35669900  1
  O  O24  1  0.75803900  0.38462300  0.01797500  1
  O  O25  1  0.24196100  0.11537700  0.51797500  1
loop_
_geom_bond_atom_site_label_1
_geom_bond_atom_site_label_2
_geom_bond_distance
_geom_bond_site_symmetry_2
Fe0 O0 1.921691 1_665
Fe0 O20 1.957025 1_655
Fe0 O16 1.982240 1_555
Fe0 O4 2.100143 1_565
Fe0 O8 2.101488 1_555
Fe0 O12 2.144277 1_665
Fe1 O1 1.921691 1_455
Fe1 O21 1.957025 1_455
Fe1 O17 1.982240 1_555
Fe1 O5 2.100143 1_555
Fe1 O9 2.101488 1_555
Fe1 O13 2.144277 1_455
Fe2 O2 1.914944 1_445
Fe2 O22 1.962022 1_455
Fe2 O18 1.979013 1_555
Fe2 O10 2.105403 1_555
Fe2 O6 2.123445 1_545
Fe2 O14 2.146758 1_445
Fe3 O3 1.914944 1_655
Fe3 O23 1.962022 1_655
Fe3 O19 1.979013 1_555
Fe3 O11 2.105403 1_555
Fe3 O7 2.123445 1_555
Fe3 O15 2.146758 1_655
H0 O4 0.992228 1_555
H1 O5 0.992228 1_555
H2 O6 0.992768 1_555
H3 O7 0.992768 1_555
H4 O4 0.981765 1_555
H5 O5 0.981765 1_555
H6 O6 0.988100 1_555
H7 O7 0.988100 1_555
H8 P0 1.403795 1_555
H9 P1 1.403795 1_545
H10 P2 1.402704 1_555
H11 P3 1.402704 1_565
C0 O12 1.262758 1_555
C0 O10 1.263557 1_554
C1 O13 1.262758 1_555
C1 O11 1.263557 1_555
C2 O8 1.259075 1_556
C2 O14 1.268209 1_555
C3 O9 1.259075 1_555
C3 O15 1.268209 1_555
O0 P3 1.525816 1_555
O1 P2 1.525816 1_555
O2 P1 1.529182 1_555
O3 P0 1.529182 1_555
O16 P0 1.552503 1_555
O17 P1 1.552503 1_555
O18 P2 1.554013 1_555
O19 P3 1.554013 1_555
O20 P0 1.530398 1_555
O21 P1 1.530398 1_555
O22 P2 1.532446 1_555
O23 P3 1.532446 1_555
