# generated using pymatgen
data_V30Cu34O95
_symmetry_space_group_name_H-M   'P 1'
_cell_length_a   12.95880380
_cell_length_b   12.95880381
_cell_length_c   14.22983553
_cell_angle_alpha   117.08675945
_cell_angle_beta   62.91324057
_cell_angle_gamma   119.99999482
_symmetry_Int_Tables_number   1
_chemical_formula_structural   V30Cu34O95
_chemical_formula_sum   'V30 Cu34 O95'
_cell_volume   1760.33826263
_cell_formula_units_Z   1
loop_
 _symmetry_equiv_pos_site_id
 _symmetry_equiv_pos_as_xyz
  1  'x, y, z'
loop_
 _atom_site_type_symbol
 _atom_site_label
 _atom_site_symmetry_multiplicity
 _atom_site_fract_x
 _atom_site_fract_y
 _atom_site_fract_z
 _atom_site_occupancy
  V  V0  1  0.08404337  0.79900287  0.80345122  1
  V  V1  1  0.68401439  0.19876124  0.00324599  1
  V  V2  1  0.28546906  0.59713383  0.20098262  1
  V  V3  1  0.88417464  0.99892296  0.40334361  1
  V  V4  1  0.48086662  0.40468842  0.60932361  1
  V  V5  1  0.31449819  0.51913338  0.60932361  1
  V  V6  1  0.91150828  0.91595663  0.80345122  1
  V  V7  1  0.51150086  0.31598561  0.00324599  1
  V  V8  1  0.11068215  0.71453094  0.20098262  1
  V  V9  1  0.71140471  0.11582536  0.40334361  1
  V  V10  1  0.00107704  0.28859529  0.40334361  1
  V  V11  1  0.59531158  0.68550181  0.60932361  1
  V  V12  1  0.20099713  0.08849172  0.80345122  1
  V  V13  1  0.80123876  0.48849914  0.00324599  1
  V  V14  1  0.40286617  0.88931785  0.20098262  1
  V  V15  1  0.91582536  0.20107704  0.19665639  1
  V  V16  1  0.51453094  0.60286617  0.39901738  1
  V  V17  1  0.11598561  0.00123876  0.59675401  1
  V  V18  1  0.71595663  0.40099713  0.79654878  1
  V  V19  1  0.31913338  0.79531158  0.99067639  1
  V  V20  1  0.68931785  0.48546906  0.39901738  1
  V  V21  1  0.28849914  0.88401439  0.59675401  1
  V  V22  1  0.88849172  0.28404337  0.79654878  1
  V  V23  1  0.48550181  0.68086662  0.99067639  1
  V  V24  1  0.08859529  0.08417464  0.19665639  1
  V  V25  1  0.99876124  0.71150086  0.59675401  1
  V  V26  1  0.59900287  0.11150828  0.79654878  1
  V  V27  1  0.20468842  0.51449819  0.99067639  1
  V  V28  1  0.79892296  0.91140471  0.19665639  1
  V  V29  1  0.39713383  0.31068215  0.39901738  1
  Cu  Cu0  1  0.99987751  0.00012249  0.00036747  1
  Cu  Cu1  1  0.59950085  0.40049915  0.20149745  1
  Cu  Cu2  1  0.20049915  0.79950085  0.39850255  1
  Cu  Cu3  1  0.80012249  0.19987751  0.59963253  1
  Cu  Cu4  1  0.50258301  0.17939367  0.65687208  1
  Cu  Cu5  1  0.10415994  0.57901884  0.85701073  1
  Cu  Cu6  1  0.70140118  0.97781186  0.05725391  1
  Cu  Cu7  1  0.30343516  0.37914972  0.25775295  1
  Cu  Cu8  1  0.90189378  0.77813493  0.45729681  1
  Cu  Cu9  1  0.21915677  0.29859882  0.05725391  1
  Cu  Cu10  1  0.81796161  0.69656484  0.25775295  1
  Cu  Cu11  1  0.41894434  0.09810622  0.45729681  1
  Cu  Cu12  1  0.01993858  0.49741699  0.65687208  1
  Cu  Cu13  1  0.61784816  0.89584006  0.85701073  1
  Cu  Cu14  1  0.42098116  0.38215184  0.85701073  1
  Cu  Cu15  1  0.02218814  0.78084323  0.05725391  1
  Cu  Cu16  1  0.62085028  0.18203839  0.25775295  1
  Cu  Cu17  1  0.22186507  0.58105566  0.45729681  1
  Cu  Cu18  1  0.82060633  0.98006142  0.65687208  1
  Cu  Cu19  1  0.89810622  0.42186507  0.14270319  1
  Cu  Cu20  1  0.49656484  0.82085028  0.34224705  1
  Cu  Cu21  1  0.09859882  0.22218814  0.54274609  1
  Cu  Cu22  1  0.69584006  0.62098116  0.74298927  1
  Cu  Cu23  1  0.29741699  0.02060633  0.94312792  1
  Cu  Cu24  1  0.18215184  0.30415994  0.74298927  1
  Cu  Cu25  1  0.78006142  0.70258301  0.94312792  1
  Cu  Cu26  1  0.38105566  0.10189378  0.14270319  1
  Cu  Cu27  1  0.98203839  0.50343516  0.34224705  1
  Cu  Cu28  1  0.58084323  0.90140118  0.54274609  1
  Cu  Cu29  1  0.97939367  0.21993858  0.94312792  1
  Cu  Cu30  1  0.57813493  0.61894434  0.14270319  1
  Cu  Cu31  1  0.17914972  0.01796161  0.34224705  1
  Cu  Cu32  1  0.77781186  0.41915677  0.54274609  1
  Cu  Cu33  1  0.37901884  0.81784816  0.74298927  1
  O  O0  1  0.90000000  0.10000000  0.30000000  1
  O  O1  1  0.50028095  0.49971905  0.49915714  1
  O  O2  1  0.10002264  0.89997736  0.69993208  1
  O  O3  1  0.69997736  0.30002264  0.90006792  1
  O  O4  1  0.29971905  0.70028095  0.10084286  1
  O  O5  1  0.82122922  0.26964753  0.48314833  1
  O  O6  1  0.42323778  0.67067595  0.67807886  1
  O  O7  1  0.02136382  0.06950413  0.88289324  1
  O  O8  1  0.62111018  0.46946950  0.08375465  1
  O  O9  1  0.22039441  0.86892227  0.28493699  1
  O  O10  1  0.56935931  0.57676222  0.67807886  1
  O  O11  1  0.16524707  0.97863618  0.88289324  1
  O  O12  1  0.76460467  0.37888982  0.08375465  1
  O  O13  1  0.36359086  0.77960559  0.28493699  1
  O  O14  1  0.96526998  0.17877078  0.48314833  1
  O  O15  1  0.93049587  0.83475293  0.88289324  1
  O  O16  1  0.53053050  0.23539533  0.08375465  1
  O  O17  1  0.13107773  0.63640914  0.28493699  1
  O  O18  1  0.73035247  0.03473002  0.48314833  1
  O  O19  1  0.32932405  0.43064069  0.67807886  1
  O  O20  1  0.17888982  0.73053050  0.51624535  1
  O  O21  1  0.77863618  0.13049587  0.71710676  1
  O  O22  1  0.37676222  0.52932405  0.92192114  1
  O  O23  1  0.97877078  0.93035247  0.11685167  1
  O  O24  1  0.57960559  0.33107773  0.31506301  1
  O  O25  1  0.43640914  0.42039441  0.31506301  1
  O  O26  1  0.03539533  0.82111018  0.51624535  1
  O  O27  1  0.63475293  0.22136382  0.71710676  1
  O  O28  1  0.23064069  0.62323778  0.92192114  1
  O  O29  1  0.83473002  0.02122922  0.11685167  1
  O  O30  1  0.06964753  0.16526998  0.11685167  1
  O  O31  1  0.66892227  0.56359086  0.31506301  1
  O  O32  1  0.26946950  0.96460467  0.51624535  1
  O  O33  1  0.86950413  0.36524707  0.71710676  1
  O  O34  1  0.47067595  0.76935931  0.92192114  1
  O  O35  1  0.98752775  0.33892120  0.30334646  1
  O  O36  1  0.58909607  0.73796941  0.50167732  1
  O  O37  1  0.18750293  0.13891361  0.70326800  1
  O  O38  1  0.78747336  0.53880518  0.90342621  1
  O  O39  1  0.38551187  0.93745417  0.10395234  1
  O  O40  1  0.64719602  0.41090393  0.50167732  1
  O  O41  1  0.24814269  0.81249707  0.70326800  1
  O  O42  1  0.84790561  0.21252664  0.90342621  1
  O  O43  1  0.44798997  0.61448813  0.10395234  1
  O  O44  1  0.04804698  0.01247225  0.30334646  1
  O  O45  1  0.86108639  0.75185731  0.70326800  1
  O  O46  1  0.46119482  0.15209439  0.90342621  1
  O  O47  1  0.06254583  0.55201003  0.10395234  1
  O  O48  1  0.66107880  0.95195302  0.30334646  1
  O  O49  1  0.26203059  0.35280398  0.50167732  1
  O  O50  1  0.01252664  0.66119482  0.69657379  1
  O  O51  1  0.61249707  0.06108639  0.89673200  1
  O  O52  1  0.21090393  0.46203059  0.09832268  1
  O  O53  1  0.81247225  0.86107880  0.29665354  1
  O  O54  1  0.41448813  0.26254583  0.49604766  1
  O  O55  1  0.35201003  0.58551187  0.49604766  1
  O  O56  1  0.95209439  0.98747336  0.69657379  1
  O  O57  1  0.55185731  0.38750293  0.89673200  1
  O  O58  1  0.15280398  0.78909607  0.09832268  1
  O  O59  1  0.75195302  0.18752775  0.29665354  1
  O  O60  1  0.13892120  0.24804698  0.29665354  1
  O  O61  1  0.73745417  0.64798997  0.49604766  1
  O  O62  1  0.33880518  0.04790561  0.69657379  1
  O  O63  1  0.93891361  0.44814269  0.89673200  1
  O  O64  1  0.53796941  0.84719602  0.09832268  1
  O  O65  1  0.27102034  0.53073795  0.28976283  1
  O  O66  1  0.87112726  0.93136168  0.49011676  1
  O  O67  1  0.47051794  0.33189739  0.69075057  1
  O  O68  1  0.07060018  0.73098954  0.89003350  1
  O  O69  1  0.67115675  0.13092312  0.08966978  1
  O  O70  1  0.17062888  0.52948206  0.69075057  1
  O  O71  1  0.77035586  0.92939982  0.89003350  1
  O  O72  1  0.37009659  0.32884325  0.08966978  1
  O  O73  1  0.96995478  0.72897966  0.28976283  1
  O  O74  1  0.57011766  0.12887274  0.49011676  1
  O  O75  1  0.06863832  0.42988234  0.49011676  1
  O  O76  1  0.66810261  0.82937112  0.69075057  1
  O  O77  1  0.26901046  0.22964414  0.89003350  1
  O  O78  1  0.86907688  0.62990341  0.08966978  1
  O  O79  1  0.46926205  0.03004522  0.28976283  1
  O  O80  1  0.72939982  0.46901046  0.70996650  1
  O  O81  1  0.32948206  0.86810261  0.90924943  1
  O  O82  1  0.92887274  0.26863832  0.10988324  1
  O  O83  1  0.52897966  0.66926205  0.31023717  1
  O  O84  1  0.12884325  0.06907688  0.51033022  1
  O  O85  1  0.83004522  0.47102034  0.31023717  1
  O  O86  1  0.42990341  0.87115675  0.51033022  1
  O  O87  1  0.02964414  0.27060018  0.70996650  1
  O  O88  1  0.62937112  0.67051794  0.90924943  1
  O  O89  1  0.22988234  0.07112726  0.10988324  1
  O  O90  1  0.93092312  0.57009659  0.51033022  1
  O  O91  1  0.53098954  0.97035586  0.70996650  1
  O  O92  1  0.13189739  0.37062888  0.90924943  1
  O  O93  1  0.73136168  0.77011766  0.10988324  1
  O  O94  1  0.33073795  0.16995478  0.31023717  1
loop_
_geom_bond_atom_site_label_1
_geom_bond_atom_site_label_2
_geom_bond_distance
_geom_bond_site_symmetry_2
Cu0 O23 2.084315 1_545
Cu0 O29 2.084315 1_555
Cu0 O30 2.084315 1_655
Cu0 O7 2.091603 1_654
Cu0 O11 2.091603 1_644
Cu0 O15 2.091603 1_544
Cu1 O25 2.049362 1_555
Cu1 O24 2.049362 1_555
Cu1 O31 2.049362 1_555
Cu1 O8 2.090594 1_555
Cu1 O12 2.090594 1_555
Cu1 O16 2.090594 1_555
Cu2 O13 2.049362 1_555
Cu2 O9 2.049362 1_555
Cu2 O17 2.049362 1_555
Cu2 O20 2.090594 1_555
Cu2 O26 2.090594 1_555
Cu2 O32 2.090594 1_555
Cu3 O5 2.084315 1_555
Cu3 O14 2.084315 1_555
Cu3 O18 2.084315 1_555
Cu3 O21 2.091603 1_555
Cu3 O27 2.091603 1_555
Cu3 O33 2.091603 1_555
Cu4 O62 1.973660 1_555
Cu4 O27 1.986175 1_555
Cu4 O67 2.020353 1_555
Cu4 O74 2.022922 1_555
Cu5 O28 1.955874 1_555
Cu5 O63 1.980000 1_455
Cu5 O70 2.016266 1_555
Cu5 O68 2.028772 1_555
Cu6 O64 1.969981 1_555
Cu6 O29 1.987147 1_565
Cu6 O69 2.020574 1_565
Cu6 O71 2.029514 1_554
Cu7 O25 1.970253 1_555
Cu7 O60 1.974230 1_555
Cu7 O65 2.019620 1_555
Cu7 O72 2.038014 1_555
Cu8 O61 1.967811 1_555
Cu8 O26 1.984800 1_655
Cu8 O66 2.024206 1_555
Cu8 O73 2.032506 1_555
Cu9 O52 1.969980 1_555
Cu9 O30 1.987147 1_555
Cu9 O72 2.020574 1_555
Cu9 O77 2.029514 1_554
Cu10 O31 1.970253 1_555
Cu10 O53 1.974230 1_555
Cu10 O73 2.019620 1_555
Cu10 O78 2.038014 1_555
Cu11 O54 1.967811 1_555
Cu11 O32 1.984800 1_545
Cu11 O74 2.024206 1_555
Cu11 O79 2.032506 1_555
Cu12 O50 1.973660 1_555
Cu12 O33 1.986175 1_455
Cu12 O70 2.020353 1_555
Cu12 O75 2.022922 1_555
Cu13 O34 1.955874 1_555
Cu13 O51 1.980000 1_565
Cu13 O76 2.016266 1_555
Cu13 O71 2.028773 1_555
Cu14 O22 1.955874 1_555
Cu14 O57 1.980000 1_555
Cu14 O67 2.016266 1_555
Cu14 O77 2.028773 1_555
Cu15 O58 1.969980 1_555
Cu15 O23 1.987147 1_455
Cu15 O78 2.020574 1_455
Cu15 O68 2.029514 1_554
Cu16 O24 1.970253 1_555
Cu16 O59 1.974230 1_555
Cu16 O79 2.019620 1_555
Cu16 O69 2.038014 1_555
Cu17 O55 1.967811 1_555
Cu17 O20 1.984800 1_555
Cu17 O75 2.024206 1_555
Cu17 O65 2.032506 1_555
Cu18 O56 1.973660 1_555
Cu18 O21 1.986175 1_565
Cu18 O76 2.020353 1_555
Cu18 O66 2.022922 1_555
Cu19 O47 1.967811 1_655
Cu19 O12 1.984800 1_555
Cu19 O82 2.024206 1_555
Cu19 O85 2.032506 1_555
Cu20 O13 1.970253 1_555
Cu20 O48 1.974230 1_555
Cu20 O83 2.019620 1_555
Cu20 O86 2.038014 1_555
Cu21 O49 1.969981 1_555
Cu21 O14 1.987147 1_455
Cu21 O84 2.020574 1_555
Cu21 O87 2.029514 1_555
Cu22 O10 1.955874 1_555
Cu22 O45 1.980000 1_555
Cu22 O88 2.016266 1_555
Cu22 O80 2.028772 1_555
Cu23 O46 1.973660 1_555
Cu23 O11 1.986175 1_545
Cu23 O81 2.020353 1_545
Cu23 O89 2.022922 1_556
Cu24 O19 1.955874 1_555
Cu24 O37 1.980000 1_555
Cu24 O92 2.016266 1_555
Cu24 O87 2.028773 1_555
Cu25 O38 1.973660 1_555
Cu25 O15 1.986175 1_555
Cu25 O88 2.020353 1_555
Cu25 O93 2.022922 1_556
Cu26 O39 1.967811 1_545
Cu26 O16 1.984800 1_555
Cu26 O89 2.024206 1_555
Cu26 O94 2.032506 1_555
Cu27 O17 1.970253 1_655
Cu27 O35 1.974230 1_555
Cu27 O85 2.019620 1_555
Cu27 O90 2.038014 1_555
Cu28 O36 1.969980 1_555
Cu28 O18 1.987147 1_565
Cu28 O86 2.020574 1_555
Cu28 O91 2.029514 1_555
Cu29 O42 1.973660 1_555
Cu29 O7 1.986175 1_655
Cu29 O92 2.020353 1_655
Cu29 O82 2.022922 1_556
Cu30 O43 1.967811 1_555
Cu30 O8 1.984800 1_555
Cu30 O93 2.024206 1_555
Cu30 O83 2.032506 1_555
Cu31 O9 1.970253 1_545
Cu31 O44 1.974230 1_555
Cu31 O94 2.019620 1_555
Cu31 O84 2.038014 1_555
Cu32 O40 1.969980 1_555
Cu32 O5 1.987147 1_555
Cu32 O90 2.020574 1_555
Cu32 O80 2.029514 1_555
Cu33 O6 1.955874 1_555
Cu33 O41 1.980000 1_555
Cu33 O81 2.016266 1_555
Cu33 O91 2.028773 1_555
O0 V3 2.265209 1_545
O0 V15 2.265209 1_555
O0 V9 2.265209 1_555
O0 V24 2.265209 1_655
O0 V10 2.265209 1_655
O0 V28 2.265209 1_545
O1 V16 2.258191 1_555
O1 V20 2.258191 1_555
O1 V29 2.258191 1_555
O1 V5 2.264172 1_555
O1 V4 2.264172 1_555
O1 V11 2.264173 1_555
O2 V17 2.264257 1_565
O2 V21 2.264257 1_555
O2 V25 2.264257 1_455
O2 V0 2.265300 1_555
O2 V6 2.265300 1_455
O2 V12 2.265300 1_565
O3 V1 2.264257 1_556
O3 V7 2.264257 1_556
O3 V13 2.264257 1_556
O3 V18 2.265300 1_555
O3 V22 2.265300 1_555
O3 V26 2.265300 1_555
O4 V2 2.258191 1_555
O4 V8 2.258191 1_555
O4 V14 2.258191 1_555
O4 V23 2.264172 1_554
O4 V19 2.264172 1_554
O4 V27 2.264173 1_554
O5 V9 1.965190 1_555
O5 V10 2.013222 1_655
O6 V5 1.880944 1_555
O6 V11 1.929362 1_555
O7 V6 1.961700 1_445
O7 V12 2.010310 1_555
O8 V7 1.966642 1_555
O8 V13 2.017010 1_555
O9 V8 1.994251 1_555
O9 V14 2.044129 1_555
O10 V11 1.880944 1_555
O10 V4 1.929362 1_555
O11 V12 1.961699 1_565
O11 V0 2.010310 1_555
O12 V13 1.966642 1_555
O12 V1 2.017010 1_555
O13 V14 1.994251 1_555
O13 V2 2.044129 1_555
O14 V10 1.965189 1_655
O14 V3 2.013223 1_545
O15 V0 1.961699 1_655
O15 V6 2.010310 1_555
O16 V1 1.966642 1_555
O16 V7 2.017010 1_555
O17 V2 1.994251 1_555
O17 V8 2.044129 1_555
O18 V3 1.965189 1_545
O18 V9 2.013222 1_555
O19 V4 1.880944 1_555
O19 V5 1.929362 1_555
O20 V21 1.966642 1_555
O20 V25 2.017010 1_455
O21 V22 1.961700 1_555
O21 V26 2.010310 1_555
O22 V23 1.880944 1_555
O22 V27 1.929362 1_555
O23 V24 1.965190 1_665
O23 V28 2.013222 1_555
O24 V20 1.994251 1_555
O24 V29 2.044129 1_555
O25 V29 1.994251 1_555
O25 V16 2.044129 1_555
O26 V25 1.966642 1_455
O26 V17 2.017010 1_565
O27 V26 1.961699 1_555
O27 V18 2.010310 1_555
O28 V27 1.880944 1_555
O28 V19 1.929362 1_555
O29 V28 1.965189 1_545
O29 V15 2.013223 1_555
O30 V15 1.965189 1_455
O30 V24 2.013222 1_555
O31 V16 1.994251 1_555
O31 V20 2.044129 1_555
O32 V17 1.966642 1_565
O32 V21 2.017010 1_555
O33 V18 1.961699 1_555
O33 V22 2.010310 1_555
O34 V19 1.880944 1_555
O34 V23 1.929362 1_555
O35 V15 1.874642 1_555
O35 V10 1.915216 1_655
O36 V16 1.843244 1_555
O36 V11 1.982609 1_555
O37 V17 1.871467 1_555
O37 V12 1.918177 1_555
O38 V18 1.875157 1_555
O38 V13 1.914340 1_556
O39 V14 1.885073 1_555
O39 V19 1.924944 1_554
O40 V20 1.843244 1_555
O40 V4 1.982609 1_555
O41 V21 1.871467 1_555
O41 V0 1.918177 1_555
O42 V22 1.875157 1_555
O42 V1 1.914340 1_556
O43 V2 1.885074 1_555
O43 V23 1.924944 1_554
O44 V24 1.874642 1_555
O44 V3 1.915216 1_445
O45 V25 1.871467 1_555
O45 V6 1.918177 1_555
O46 V26 1.875157 1_555
O46 V7 1.914340 1_556
O47 V8 1.885074 1_555
O47 V27 1.924944 1_554
O48 V28 1.874642 1_555
O48 V9 1.915216 1_565
O49 V29 1.843244 1_555
O49 V5 1.982609 1_555
O50 V0 1.875157 1_555
O50 V25 1.914340 1_455
O51 V1 1.871467 1_556
O51 V26 1.918177 1_555
O52 V2 1.843244 1_555
O52 V27 1.982609 1_554
O53 V3 1.874642 1_555
O53 V28 1.915216 1_555
O54 V29 1.885073 1_555
O54 V4 1.924944 1_555
O55 V16 1.885074 1_555
O55 V5 1.924944 1_555
O56 V6 1.875157 1_555
O56 V17 1.914340 1_665
O57 V7 1.871467 1_556
O57 V18 1.918177 1_555
O58 V8 1.843244 1_555
O58 V19 1.982609 1_554
O59 V9 1.874642 1_555
O59 V15 1.915216 1_555
O60 V10 1.874642 1_555
O60 V24 1.915216 1_555
O61 V20 1.885074 1_555
O61 V11 1.924944 1_555
O62 V12 1.875157 1_555
O62 V21 1.914340 1_545
O63 V13 1.871467 1_556
O63 V22 1.918177 1_555
O64 V14 1.843244 1_555
O64 V23 1.982609 1_554
O65 V2 1.727639 1_555
O66 V3 1.722237 1_555
O67 V4 1.725595 1_555
O68 V0 1.721921 1_555
O69 V1 1.721757 1_555
O70 V5 1.725595 1_555
O71 V6 1.721921 1_555
O72 V7 1.721757 1_555
O73 V8 1.727639 1_655
O74 V9 1.722237 1_555
O75 V10 1.722237 1_555
O76 V11 1.725595 1_555
O77 V12 1.721921 1_555
O78 V13 1.721757 1_555
O79 V14 1.727639 1_545
O80 V18 1.721921 1_555
O81 V19 1.725595 1_555
O82 V15 1.722237 1_555
O83 V16 1.727639 1_555
O84 V17 1.721757 1_555
O85 V20 1.727639 1_555
O86 V21 1.721757 1_555
O87 V22 1.721921 1_455
O88 V23 1.725595 1_555
O89 V24 1.722237 1_555
O90 V25 1.721757 1_555
O91 V26 1.721921 1_565
O92 V27 1.725595 1_555
O93 V28 1.722237 1_555
O94 V29 1.727639 1_555
