# generated using pymatgen
data_ZnAsPt5
_symmetry_space_group_name_H-M   'P 1'
_cell_length_a   3.92565930
_cell_length_b   3.92565930
_cell_length_c   7.13713388
_cell_angle_alpha   90.00000000
_cell_angle_beta   90.00000000
_cell_angle_gamma   90.00000000
_symmetry_Int_Tables_number   1
_chemical_formula_structural   ZnAsPt5
_chemical_formula_sum   'Zn1 As1 Pt5'
_cell_volume   109.98894950
_cell_formula_units_Z   1
loop_
 _symmetry_equiv_pos_site_id
 _symmetry_equiv_pos_as_xyz
  1  'x, y, z'
loop_
 _atom_site_type_symbol
 _atom_site_label
 _atom_site_symmetry_multiplicity
 _atom_site_fract_x
 _atom_site_fract_y
 _atom_site_fract_z
 _atom_site_occupancy
  Zn  Zn0  1  0.50000000  0.50000000  -0.00000000  1
  As  As0  1  -0.00000000  0.00000000  0.50000000  1
  Pt  Pt0  1  -0.00000000  0.50000000  0.27513047  1
  Pt  Pt1  1  -0.00000000  0.50000000  0.72486953  1
  Pt  Pt2  1  0.50000000  0.00000000  0.27513047  1
  Pt  Pt3  1  0.50000000  0.00000000  0.72486953  1
  Pt  Pt4  1  -0.00000000  0.00000000  -0.00000000  1
loop_
_geom_bond_atom_site_label_1
_geom_bond_atom_site_label_2
_geom_bond_distance
_geom_bond_site_symmetry_2
As0 Pt2 2.535445 1_555
As0 Pt0 2.535445 1_545
As0 Pt3 2.535445 1_455
As0 Pt3 2.535445 1_555
As0 Pt1 2.535445 1_545
As0 Pt0 2.535445 1_555
As0 Pt2 2.535445 1_455
As0 Pt1 2.535445 1_555
Pt0 Zn0 2.776435 1_555
Pt0 Zn0 2.776435 1_455
Pt0 Pt4 2.776435 1_555
Pt0 Pt4 2.776435 1_565
Pt1 Zn0 2.776435 1_456
Pt1 Pt4 2.776435 1_556
Pt1 Zn0 2.776435 1_556
Pt1 Pt4 2.776435 1_566
Pt2 Zn0 2.776435 1_555
Pt2 Pt4 2.776435 1_655
Pt2 Zn0 2.776435 1_545
Pt2 Pt4 2.776435 1_555
Pt3 Pt4 2.776435 1_656
Pt3 Pt4 2.776435 1_556
Pt3 Zn0 2.776435 1_546
Pt3 Zn0 2.776435 1_556
Pt4 Zn0 2.775860 1_455
Pt4 Zn0 2.775860 1_445
Pt4 Zn0 2.775860 1_555
Pt4 Zn0 2.775860 1_545
