# generated using pymatgen
data_Mg(SbO2)2
_symmetry_space_group_name_H-M   'P 1'
_cell_length_a   9.98432600
_cell_length_b   6.98177600
_cell_length_c   7.12570369
_cell_angle_alpha   88.49421011
_cell_angle_beta   90.00000000
_cell_angle_gamma   90.00000000
_symmetry_Int_Tables_number   1
_chemical_formula_structural   Mg(SbO2)2
_chemical_formula_sum   'Mg4 Sb8 O16'
_cell_volume   496.54935692
_cell_formula_units_Z   4
loop_
 _symmetry_equiv_pos_site_id
 _symmetry_equiv_pos_as_xyz
  1  'x, y, z'
loop_
 _atom_site_type_symbol
 _atom_site_label
 _atom_site_symmetry_multiplicity
 _atom_site_fract_x
 _atom_site_fract_y
 _atom_site_fract_z
 _atom_site_occupancy
  Mg  Mg0  1  0.75118300  0.69025500  0.79134200  1
  Mg  Mg1  1  0.25118300  0.30974500  0.20865800  1
  Mg  Mg2  1  0.23687800  0.02483300  0.63125200  1
  Mg  Mg3  1  0.73687800  0.97516700  0.36874800  1
  Sb  Sb0  1  0.44609900  0.95032400  0.21546300  1
  Sb  Sb1  1  0.06502500  0.93999300  0.23423000  1
  Sb  Sb2  1  0.56502500  0.06000700  0.76577000  1
  Sb  Sb3  1  0.94609900  0.04967600  0.78453700  1
  Sb  Sb4  1  0.56998000  0.39453800  0.10768200  1
  Sb  Sb5  1  0.94599600  0.36817600  0.41420200  1
  Sb  Sb6  1  0.44599600  0.63182400  0.58579800  1
  Sb  Sb7  1  0.06998000  0.60546200  0.89231800  1
  O  O0  1  0.40778200  0.48910800  0.22011200  1
  O  O1  1  0.09461200  0.46833900  0.26947400  1
  O  O2  1  0.59461200  0.53166100  0.73052600  1
  O  O3  1  0.90778200  0.51089200  0.77988800  1
  O  O4  1  0.59207800  0.14971300  0.27654800  1
  O  O5  1  0.90217700  0.11605300  0.26745300  1
  O  O6  1  0.40217700  0.88394700  0.73254700  1
  O  O7  1  0.09207800  0.85028700  0.72345200  1
  O  O8  1  0.65202500  0.88843400  0.95079300  1
  O  O9  1  0.81827700  0.90742600  0.61506100  1
  O  O10  1  0.31827700  0.09257400  0.38493900  1
  O  O11  1  0.15202500  0.11156600  0.04920700  1
  O  O12  1  0.45434600  0.20910000  0.95954100  1
  O  O13  1  0.06575700  0.19941200  0.58441700  1
  O  O14  1  0.56575700  0.80058800  0.41558300  1
  O  O15  1  0.95434600  0.79090000  0.04045900  1
loop_
_geom_bond_atom_site_label_1
_geom_bond_atom_site_label_2
_geom_bond_distance
_geom_bond_site_symmetry_2
Mg0 O2 1.970489 1_555
Mg0 O3 2.006206 1_555
Mg0 O9 2.055599 1_555
Mg0 O8 2.065960 1_555
Mg1 O1 1.970489 1_555
Mg1 O0 2.006206 1_555
Mg1 O10 2.055599 1_555
Mg1 O11 2.065960 1_555
Mg2 O10 1.980183 1_555
Mg2 O7 1.991176 1_545
Mg2 O6 2.043290 1_545
Mg2 O13 2.120074 1_555
Mg3 O9 1.980183 1_555
Mg3 O4 1.991176 1_565
Mg3 O5 2.043290 1_565
Mg3 O14 2.120074 1_555
O0 Sb4 1.930845 1_555
O1 Sb5 1.927809 1_455
O2 Sb6 1.927809 1_555
O3 Sb7 1.930845 1_655
O4 Sb0 2.069670 1_545
O4 Sb4 2.076111 1_555
O5 Sb1 2.055709 1_645
O5 Sb5 2.116637 1_555
O6 Sb2 2.055709 1_565
O6 Sb6 2.116637 1_555
O7 Sb3 2.069670 1_465
O7 Sb7 2.076111 1_555
O8 Sb2 1.960786 1_565
O9 Sb3 2.033841 1_565
O10 Sb0 2.033841 1_545
O11 Sb1 1.960786 1_545
O12 Sb4 2.048239 1_556
O12 Sb2 2.070437 1_555
O12 Sb0 2.534452 1_546
O13 Sb5 2.052833 1_455
O13 Sb3 2.115501 1_455
O14 Sb6 2.052833 1_555
O14 Sb0 2.115501 1_555
O15 Sb7 2.048239 1_654
O15 Sb1 2.070437 1_655
O15 Sb3 2.534452 1_564
