# generated using pymatgen
data_YbCuS2
_symmetry_space_group_name_H-M   'P 1'
_cell_length_a   3.92953000
_cell_length_b   6.29682300
_cell_length_c   13.84312400
_cell_angle_alpha   90.00000000
_cell_angle_beta   90.00000000
_cell_angle_gamma   90.00000000
_symmetry_Int_Tables_number   1
_chemical_formula_structural   YbCuS2
_chemical_formula_sum   'Yb4 Cu4 S8'
_cell_volume   342.52809845
_cell_formula_units_Z   4
loop_
 _symmetry_equiv_pos_site_id
 _symmetry_equiv_pos_as_xyz
  1  'x, y, z'
loop_
 _atom_site_type_symbol
 _atom_site_label
 _atom_site_symmetry_multiplicity
 _atom_site_fract_x
 _atom_site_fract_y
 _atom_site_fract_z
 _atom_site_occupancy
  Yb  Yb0  1  0.25000000  0.01794500  0.63583500  1
  Yb  Yb1  1  0.75000000  0.51794500  0.86416500  1
  Yb  Yb2  1  0.75000000  0.98205500  0.36416500  1
  Yb  Yb3  1  0.25000000  0.48205500  0.13583500  1
  Cu  Cu0  1  0.25000000  0.13094000  0.94704100  1
  Cu  Cu1  1  0.25000000  0.36906000  0.44704100  1
  Cu  Cu2  1  0.75000000  0.86906000  0.05295900  1
  Cu  Cu3  1  0.75000000  0.63094000  0.55295900  1
  S  S0  1  0.25000000  0.73490600  0.47076800  1
  S  S1  1  0.75000000  0.26509400  0.52923200  1
  S  S2  1  0.75000000  0.73853200  0.20162400  1
  S  S3  1  0.25000000  0.76509400  0.97076800  1
  S  S4  1  0.25000000  0.23853200  0.29837600  1
  S  S5  1  0.75000000  0.23490600  0.02923200  1
  S  S6  1  0.75000000  0.76146800  0.70162400  1
  S  S7  1  0.25000000  0.26146800  0.79837600  1
loop_
_geom_bond_atom_site_label_1
_geom_bond_atom_site_label_2
_geom_bond_distance
_geom_bond_site_symmetry_2
Cu0 S7 2.216045 1_555
Cu0 S3 2.326965 1_545
Cu0 S5 2.362926 1_556
Cu0 S5 2.362926 1_456
Cu1 S4 2.216045 1_555
Cu1 S0 2.326965 1_555
Cu1 S1 2.362926 1_555
Cu1 S1 2.362926 1_455
Cu2 S2 2.216045 1_555
Cu2 S5 2.326965 1_565
Cu2 S3 2.362926 1_554
Cu2 S3 2.362926 1_654
Cu3 S6 2.216045 1_555
Cu3 S1 2.326965 1_555
Cu3 S0 2.362926 1_655
Cu3 S0 2.362926 1_555
S0 Yb0 2.897900 1_565
S0 Yb2 2.908603 1_455
S0 Yb2 2.908603 1_555
S1 Yb2 2.897900 1_545
S1 Yb0 2.908603 1_555
S1 Yb0 2.908603 1_655
S2 Yb3 2.701465 1_655
S2 Yb3 2.701465 1_555
S2 Yb2 2.722906 1_555
S3 Yb3 2.897900 1_556
S3 Yb1 2.908603 1_555
S3 Yb1 2.908603 1_455
S4 Yb2 2.701465 1_445
S4 Yb2 2.701465 1_545
S4 Yb3 2.722906 1_555
S5 Yb1 2.897900 1_554
S5 Yb3 2.908603 1_555
S5 Yb3 2.908603 1_655
S6 Yb0 2.701465 1_665
S6 Yb0 2.701465 1_565
S6 Yb1 2.722906 1_555
S7 Yb1 2.701465 1_555
S7 Yb1 2.701465 1_455
S7 Yb0 2.722906 1_555
