# generated using pymatgen
data_Sc2GaN3
_symmetry_space_group_name_H-M   'P 1'
_cell_length_a   5.61015401
_cell_length_b   9.76035111
_cell_length_c   11.08757216
_cell_angle_alpha   90.00000308
_cell_angle_beta   93.48627889
_cell_angle_gamma   150.44498315
_symmetry_Int_Tables_number   1
_chemical_formula_structural   Sc2GaN3
_chemical_formula_sum   'Sc8 Ga4 N12'
_cell_volume   297.18451145
_cell_formula_units_Z   4
loop_
 _symmetry_equiv_pos_site_id
 _symmetry_equiv_pos_as_xyz
  1  'x, y, z'
loop_
 _atom_site_type_symbol
 _atom_site_label
 _atom_site_symmetry_multiplicity
 _atom_site_fract_x
 _atom_site_fract_y
 _atom_site_fract_z
 _atom_site_occupancy
  Sc  Sc0  1  0.45524700  0.01861600  0.86341800  1
  Sc  Sc1  1  0.54475300  0.56336800  0.63658200  1
  Sc  Sc2  1  0.54475300  0.98138400  0.13658200  1
  Sc  Sc3  1  0.45524700  0.43663200  0.36341800  1
  Sc  Sc4  1  0.61362100  0.92034700  0.56783000  1
  Sc  Sc5  1  0.38637900  0.30672600  0.93217000  1
  Sc  Sc6  1  0.38637900  0.07965300  0.43217000  1
  Sc  Sc7  1  0.61362100  0.69327400  0.06783000  1
  Ga  Ga0  1  0.55785800  0.27602200  0.66500600  1
  Ga  Ga1  1  0.44214200  0.71816300  0.83499400  1
  Ga  Ga2  1  0.44214200  0.72397800  0.33499400  1
  Ga  Ga3  1  0.55785800  0.28183700  0.16500600  1
  N  N0  1  0.00000000  0.62985400  0.75000000  1
  N  N1  1  0.00000000  0.37014600  0.25000000  1
  N  N2  1  0.75939000  0.20169900  0.60959900  1
  N  N3  1  0.24061000  0.44231000  0.89040100  1
  N  N4  1  0.24061000  0.79830100  0.39040100  1
  N  N5  1  0.75939000  0.55769000  0.10959900  1
  N  N6  1  0.34573400  0.06606400  0.02175900  1
  N  N7  1  0.65426600  0.72032800  0.47824100  1
  N  N8  1  0.65426600  0.93393600  0.97824100  1
  N  N9  1  0.34573400  0.27967200  0.52175900  1
  N  N10  1  0.00000000  0.96129900  0.75000000  1
  N  N11  1  0.00000000  0.03870100  0.25000000  1
loop_
_geom_bond_atom_site_label_1
_geom_bond_atom_site_label_2
_geom_bond_distance
_geom_bond_site_symmetry_2
Ga0 N2 1.921805 1_555
Ga0 N10 1.936995 1_545
Ga0 N0 1.944189 1_655
Ga0 N9 1.945236 1_555
Ga1 N3 1.921788 1_555
Ga1 N10 1.936993 1_655
Ga1 N0 1.944195 1_555
Ga1 N8 1.945231 1_555
Ga2 N4 1.921805 1_555
Ga2 N11 1.936995 1_665
Ga2 N1 1.944189 1_555
Ga2 N7 1.945236 1_555
Ga3 N5 1.921788 1_555
Ga3 N11 1.936993 1_555
Ga3 N1 1.944195 1_655
Ga3 N6 1.945231 1_555
N0 Sc1 2.291594 1_455
N0 Sc0 2.291601 1_565
N0 Sc4 2.798940 1_555
N0 Sc5 2.798941 1_455
N1 Sc3 2.291594 1_555
N1 Sc2 2.291601 1_445
N1 Sc6 2.798940 1_455
N1 Sc7 2.798941 1_555
N2 Sc4 2.114522 1_545
N2 Sc1 2.178086 1_655
N2 Sc6 2.197890 1_555
N3 Sc5 2.114531 1_555
N3 Sc0 2.178087 1_455
N3 Sc7 2.197887 1_556
N4 Sc6 2.114522 1_565
N4 Sc3 2.178086 1_455
N4 Sc4 2.197890 1_555
N5 Sc7 2.114531 1_555
N5 Sc2 2.178087 1_655
N5 Sc5 2.197887 1_554
N6 Sc0 2.073722 1_554
N6 Sc7 2.150552 1_445
N6 Sc2 2.232299 1_545
N6 Sc5 2.377379 1_554
N7 Sc1 2.073717 1_555
N7 Sc6 2.150552 1_665
N7 Sc3 2.232276 1_555
N7 Sc4 2.377397 1_555
N8 Sc2 2.073722 1_556
N8 Sc5 2.150552 1_665
N8 Sc0 2.232299 1_565
N8 Sc7 2.377379 1_556
N9 Sc3 2.073717 1_555
N9 Sc4 2.150552 1_445
N9 Sc1 2.232276 1_555
N9 Sc6 2.377397 1_555
N10 Sc0 2.353914 1_565
N10 Sc1 2.353922 1_455
N10 Sc4 2.626459 1_455
N10 Sc5 2.626460 1_565
N11 Sc2 2.353914 1_445
N11 Sc3 2.353922 1_555
N11 Sc6 2.626459 1_555
N11 Sc7 2.626460 1_445
