# generated using pymatgen
data_Lu3AlNi8
_symmetry_space_group_name_H-M   'P 1'
_cell_length_a   4.96677447
_cell_length_b   4.96677447
_cell_length_c   15.80812600
_cell_angle_alpha   90.00000000
_cell_angle_beta   90.00000000
_cell_angle_gamma   120.00000624
_symmetry_Int_Tables_number   1
_chemical_formula_structural   Lu3AlNi8
_chemical_formula_sum   'Lu6 Al2 Ni16'
_cell_volume   337.72240491
_cell_formula_units_Z   2
loop_
 _symmetry_equiv_pos_site_id
 _symmetry_equiv_pos_as_xyz
  1  'x, y, z'
loop_
 _atom_site_type_symbol
 _atom_site_label
 _atom_site_symmetry_multiplicity
 _atom_site_fract_x
 _atom_site_fract_y
 _atom_site_fract_z
 _atom_site_occupancy
  Lu  Lu0  1  0.33333300  0.66666700  0.95846200  1
  Lu  Lu1  1  0.66666700  0.33333300  0.04153800  1
  Lu  Lu2  1  0.66666700  0.33333300  0.45846200  1
  Lu  Lu3  1  0.33333300  0.66666700  0.54153800  1
  Lu  Lu4  1  0.33333300  0.66666700  0.75000000  1
  Lu  Lu5  1  0.66666700  0.33333300  0.25000000  1
  Al  Al0  1  0.33333300  0.66666700  0.25000000  1
  Al  Al1  1  0.66666700  0.33333300  0.75000000  1
  Ni  Ni0  1  0.16661600  0.83338400  0.37486300  1
  Ni  Ni1  1  0.16661600  0.33323300  0.37486300  1
  Ni  Ni2  1  0.66676700  0.83338400  0.37486300  1
  Ni  Ni3  1  0.83338400  0.16661600  0.62513700  1
  Ni  Ni4  1  0.83338400  0.66676700  0.62513700  1
  Ni  Ni5  1  0.33323300  0.16661600  0.62513700  1
  Ni  Ni6  1  0.83338400  0.16661600  0.87486300  1
  Ni  Ni7  1  0.83338400  0.66676700  0.87486300  1
  Ni  Ni8  1  0.33323300  0.16661600  0.87486300  1
  Ni  Ni9  1  0.16661600  0.83338400  0.12513700  1
  Ni  Ni10  1  0.16661600  0.33323300  0.12513700  1
  Ni  Ni11  1  0.66676700  0.83338400  0.12513700  1
  Ni  Ni12  1  0.00000000  0.00000000  0.25000000  1
  Ni  Ni13  1  0.00000000  0.00000000  0.75000000  1
  Ni  Ni14  1  0.00000000  0.00000000  0.50000000  1
  Ni  Ni15  1  0.00000000  0.00000000  0.00000000  1
loop_
_geom_bond_atom_site_label_1
_geom_bond_atom_site_label_2
_geom_bond_distance
_geom_bond_site_symmetry_2
Lu0 Ni8 2.813124 1_565
Lu0 Ni7 2.813124 1_455
Lu0 Ni6 2.813128 1_565
Lu0 Ni6 2.813128 1_455
Lu0 Ni8 2.813132 1_555
Lu0 Ni7 2.813132 1_555
Lu0 Ni15 2.941786 1_566
Lu0 Ni15 2.941790 1_556
Lu0 Ni15 2.941790 1_666
Lu0 Ni10 2.999875 1_556
Lu0 Ni11 2.999875 1_556
Lu0 Ni9 2.999875 1_556
Lu1 Ni10 2.813124 1_655
Lu1 Ni11 2.813124 1_545
Lu1 Ni9 2.813128 1_655
Lu1 Ni9 2.813128 1_545
Lu1 Ni10 2.813132 1_555
Lu1 Ni11 2.813132 1_555
Lu1 Ni15 2.941786 1_655
Lu1 Ni15 2.941790 1_665
Lu1 Ni15 2.941790 1_555
Lu1 Ni7 2.999875 1_554
Lu1 Ni8 2.999875 1_554
Lu1 Ni6 2.999875 1_554
Lu2 Ni1 2.813124 1_655
Lu2 Ni2 2.813124 1_545
Lu2 Ni0 2.813128 1_655
Lu2 Ni0 2.813128 1_545
Lu2 Ni2 2.813132 1_555
Lu2 Ni1 2.813132 1_555
Lu2 Ni14 2.941786 1_655
Lu2 Ni14 2.941790 1_555
Lu2 Ni14 2.941790 1_665
Lu2 Ni5 2.999875 1_555
Lu2 Ni4 2.999875 1_555
Lu2 Ni3 2.999875 1_555
Lu3 Ni5 2.813124 1_565
Lu3 Ni4 2.813124 1_455
Lu3 Ni3 2.813128 1_565
Lu3 Ni3 2.813128 1_455
Lu3 Ni5 2.813132 1_555
Lu3 Ni4 2.813132 1_555
Lu3 Ni14 2.941786 1_565
Lu3 Ni14 2.941790 1_555
Lu3 Ni14 2.941790 1_665
Lu3 Ni2 2.999875 1_555
Lu3 Ni1 2.999875 1_555
Lu3 Ni0 2.999875 1_555
Lu4 Ni13 2.867566 1_565
Lu4 Ni13 2.867570 1_665
Lu4 Ni13 2.867570 1_555
Lu4 Ni4 3.172266 1_455
Lu4 Ni5 3.172266 1_565
Lu4 Ni8 3.172266 1_565
Lu4 Ni7 3.172266 1_455
Lu4 Ni6 3.172270 1_565
Lu4 Ni3 3.172270 1_565
Lu4 Ni6 3.172270 1_455
Lu4 Ni3 3.172270 1_455
Lu4 Ni5 3.172274 1_555
Lu4 Ni8 3.172274 1_555
Lu4 Ni7 3.172274 1_555
Lu4 Ni4 3.172274 1_555
Lu5 Ni12 2.867566 1_655
Lu5 Ni12 2.867570 1_665
Lu5 Ni12 2.867570 1_555
Lu5 Ni1 3.172266 1_655
Lu5 Ni10 3.172266 1_655
Lu5 Ni2 3.172266 1_545
Lu5 Ni11 3.172266 1_545
Lu5 Ni9 3.172270 1_655
Lu5 Ni0 3.172270 1_655
Lu5 Ni9 3.172270 1_545
Lu5 Ni0 3.172270 1_545
Lu5 Ni1 3.172274 1_555
Lu5 Ni10 3.172274 1_555
Lu5 Ni11 3.172274 1_555
Lu5 Ni2 3.172274 1_555
Al0 Ni10 2.439890 1_555
Al0 Ni1 2.439890 1_555
Al0 Ni11 2.439890 1_555
Al0 Ni2 2.439890 1_555
Al0 Ni9 2.439890 1_555
Al0 Ni0 2.439890 1_555
Al0 Lu5 2.867566 1_455
Al0 Lu5 2.867566 1_565
Al0 Ni12 2.867566 1_565
Al0 Ni12 2.867570 1_665
Al0 Ni12 2.867570 1_555
Al0 Lu5 2.867574 1_555
Al1 Ni5 2.439890 1_555
Al1 Ni7 2.439890 1_555
Al1 Ni4 2.439890 1_555
Al1 Ni8 2.439890 1_555
Al1 Ni3 2.439890 1_555
Al1 Ni6 2.439890 1_555
Al1 Lu4 2.867566 1_545
Al1 Lu4 2.867566 1_655
Al1 Ni13 2.867566 1_655
Al1 Ni13 2.867570 1_665
Al1 Ni13 2.867570 1_555
Al1 Lu4 2.867574 1_555
Ni0 Ni12 2.439379 1_565
Ni0 Ni14 2.442886 1_565
Ni0 Ni1 2.482637 1_565
Ni0 Ni2 2.482637 1_455
Ni0 Ni1 2.484137 1_555
Ni0 Ni2 2.484137 1_555
Ni1 Ni12 2.439382 1_555
Ni1 Ni14 2.442888 1_555
Ni1 Ni2 2.482637 1_445
Ni1 Ni2 2.484137 1_555
Ni3 Ni5 2.482637 1_655
Ni3 Ni4 2.482637 1_545
Ni3 Ni5 2.484137 1_555
Ni3 Ni4 2.484137 1_555
Ni4 Ni5 2.482637 1_665
Ni4 Ni5 2.484137 1_555
Ni6 Ni8 2.482637 1_655
Ni6 Ni7 2.482637 1_545
Ni6 Ni7 2.484137 1_555
Ni6 Ni8 2.484137 1_555
Ni7 Ni8 2.482637 1_665
Ni7 Ni8 2.484137 1_555
Ni10 Ni12 2.439382 1_555
Ni10 Ni15 2.442888 1_555
Ni10 Ni11 2.482637 1_445
Ni10 Ni9 2.482637 1_545
Ni10 Ni11 2.484137 1_555
Ni10 Ni9 2.484137 1_555
Ni11 Ni12 2.439382 1_665
Ni11 Ni15 2.442888 1_665
Ni11 Ni9 2.482637 1_655
Ni11 Ni9 2.484137 1_555
Ni12 Ni9 2.439379 1_545
Ni12 Ni2 2.439382 1_445
Ni13 Ni3 2.439379 1_455
Ni13 Ni6 2.439379 1_455
Ni13 Ni8 2.439382 1_555
Ni13 Ni4 2.439382 1_445
Ni13 Ni7 2.439382 1_445
Ni13 Ni5 2.439382 1_555
Ni14 Ni3 2.442886 1_455
Ni14 Ni2 2.442888 1_445
Ni14 Ni4 2.442888 1_445
Ni14 Ni5 2.442888 1_555
Ni15 Ni9 2.442886 1_545
Ni15 Ni6 2.442886 1_454
Ni15 Ni8 2.442888 1_554
Ni15 Ni7 2.442888 1_444
