# generated using pymatgen
data_NaNp3FeF15
_symmetry_space_group_name_H-M   'P 1'
_cell_length_a   9.83193775
_cell_length_b   9.82940264
_cell_length_c   13.16974592
_cell_angle_alpha   90.00000050
_cell_angle_beta   90.03686187
_cell_angle_gamma   119.99145842
_symmetry_Int_Tables_number   1
_chemical_formula_structural   NaNp3FeF15
_chemical_formula_sum   'Na4 Np12 Fe4 F60'
_cell_volume   1102.32974722
_cell_formula_units_Z   4
loop_
 _symmetry_equiv_pos_site_id
 _symmetry_equiv_pos_as_xyz
  1  'x, y, z'
loop_
 _atom_site_type_symbol
 _atom_site_label
 _atom_site_symmetry_multiplicity
 _atom_site_fract_x
 _atom_site_fract_y
 _atom_site_fract_z
 _atom_site_occupancy
  Na  Na0  1  0.99979900  0.00054200  0.49989500  1
  Na  Na1  1  0.99979900  0.99925600  0.99989500  1
  Na  Na2  1  0.33360600  0.66665200  0.65834600  1
  Na  Na3  1  0.33360600  0.66695400  0.15834600  1
  Np  Np0  1  0.68246300  0.60090100  0.60175500  1
  Np  Np1  1  0.39978300  0.08178400  0.60109500  1
  Np  Np2  1  0.91899500  0.31778500  0.60132600  1
  Np  Np3  1  0.68246300  0.08156200  0.10175500  1
  Np  Np4  1  0.91899500  0.60121000  0.10132600  1
  Np  Np5  1  0.39978300  0.31799900  0.10109500  1
  Np  Np6  1  0.31991900  0.39827000  0.39753800  1
  Np  Np7  1  0.60184000  0.92210200  0.39802100  1
  Np  Np8  1  0.07875000  0.68042400  0.39803500  1
  Np  Np9  1  0.31991900  0.92164900  0.89753800  1
  Np  Np10  1  0.07875000  0.39832600  0.89803500  1
  Np  Np11  1  0.60184000  0.67973900  0.89802100  1
  Fe  Fe0  1  0.00067500  0.00073900  0.74977800  1
  Fe  Fe1  1  0.00067500  0.99993600  0.24977800  1
  Fe  Fe2  1  0.66785100  0.33639700  0.35325600  1
  Fe  Fe3  1  0.66785100  0.33145400  0.85325600  1
  F  F0  1  0.31440700  0.88105300  0.71831500  1
  F  F1  1  0.11958800  0.43394700  0.71798600  1
  F  F2  1  0.56645200  0.68555500  0.71786800  1
  F  F3  1  0.31440700  0.43335400  0.21831500  1
  F  F4  1  0.56645200  0.88089600  0.21786800  1
  F  F5  1  0.11958800  0.68564100  0.21798600  1
  F  F6  1  0.69067800  0.15096800  0.28781000  1
  F  F7  1  0.85065400  0.54281000  0.28645700  1
  F  F8  1  0.46043300  0.30771300  0.28692600  1
  F  F9  1  0.69067800  0.53971000  0.78781000  1
  F  F10  1  0.46043300  0.15272000  0.78692600  1
  F  F11  1  0.85065400  0.30784400  0.78645700  1
  F  F12  1  0.19115100  0.87960300  0.52005500  1
  F  F13  1  0.12044300  0.31174000  0.51956400  1
  F  F14  1  0.68804600  0.80853700  0.51961400  1
  F  F15  1  0.19115100  0.31154700  0.02005500  1
  F  F16  1  0.68804600  0.87950900  0.01961400  1
  F  F17  1  0.12044300  0.80870300  0.01956400  1
  F  F18  1  0.80867800  0.11940700  0.48053400  1
  F  F19  1  0.88009200  0.68821300  0.48060900  1
  F  F20  1  0.31085700  0.19150700  0.48034500  1
  F  F21  1  0.80867800  0.68927200  0.98053400  1
  F  F22  1  0.31085700  0.11935100  0.98034500  1
  F  F23  1  0.88009200  0.19187900  0.98060900  1
  F  F24  1  0.89330400  0.80907300  0.65996600  1
  F  F25  1  0.19150700  0.08515700  0.66016800  1
  F  F26  1  0.91629000  0.10604400  0.65929500  1
  F  F27  1  0.89330400  0.08423100  0.15996600  1
  F  F28  1  0.91629000  0.81024600  0.15929500  1
  F  F29  1  0.19150700  0.10635000  0.16016800  1
  F  F30  1  0.10659000  0.18827100  0.34138500  1
  F  F31  1  0.81146500  0.91943600  0.34077400  1
  F  F32  1  0.07975800  0.89155600  0.34154600  1
  F  F33  1  0.10659000  0.91831900  0.84138500  1
  F  F34  1  0.07975800  0.18820200  0.84154600  1
  F  F35  1  0.81146500  0.89202900  0.84077400  1
  F  F36  1  0.11059000  0.57945600  0.54661300  1
  F  F37  1  0.42021800  0.53104500  0.54620900  1
  F  F38  1  0.46849900  0.88843500  0.54695100  1
  F  F39  1  0.11059000  0.53113400  0.04661300  1
  F  F40  1  0.46849900  0.58006500  0.04695100  1
  F  F41  1  0.42021800  0.88917300  0.04620900  1
  F  F42  1  0.86255700  0.40366300  0.44651800  1
  F  F43  1  0.59491500  0.45905100  0.44686500  1
  F  F44  1  0.53906300  0.13359700  0.44725600  1
  F  F45  1  0.86255700  0.45889400  0.94651800  1
  F  F46  1  0.53906300  0.40546600  0.94725600  1
  F  F47  1  0.59491500  0.13586400  0.94686500  1
  F  F48  1  0.51260200  0.34190700  0.63366200  1
  F  F49  1  0.65857200  0.17099900  0.63422900  1
  F  F50  1  0.82937900  0.48716700  0.63441100  1
  F  F51  1  0.51260200  0.17069500  0.13366200  1
  F  F52  1  0.82937900  0.34221200  0.13441100  1
  F  F53  1  0.65857200  0.48757300  0.13422900  1
  F  F54  1  0.48865300  0.65941800  0.36275500  1
  F  F55  1  0.34031800  0.82886400  0.36295700  1
  F  F56  1  0.17055900  0.51126500  0.36331100  1
  F  F57  1  0.48865300  0.82923500  0.86275500  1
  F  F58  1  0.17055900  0.65929400  0.86331100  1
  F  F59  1  0.34031800  0.51145400  0.86295700  1
loop_
_geom_bond_atom_site_label_1
_geom_bond_atom_site_label_2
_geom_bond_distance
_geom_bond_site_symmetry_2
F0 Np1 2.307958 1_565
F0 Na2 2.344899 1_555
F0 Np9 2.389874 1_555
F1 Np2 2.301875 1_455
F1 Na2 2.338141 1_555
F1 Np10 2.401473 1_555
F2 Np0 2.298450 1_555
F2 Na2 2.337190 1_555
F2 Np11 2.402547 1_555
F3 Np5 2.307958 1_555
F3 Na3 2.344899 1_555
F3 Np6 2.389874 1_555
F4 Np3 2.298457 1_565
F4 Na3 2.337187 1_555
F4 Np7 2.402549 1_555
F5 Np4 2.301875 1_455
F5 Na3 2.338140 1_555
F5 Np8 2.401473 1_555
F6 Fe2 2.127096 1_555
F6 Np7 2.442869 1_545
F6 Np3 2.533882 1_555
F7 Fe2 2.115921 1_555
F7 Np8 2.445688 1_655
F7 Np4 2.518327 1_555
F8 Fe2 2.103399 1_555
F8 Np6 2.460689 1_555
F8 Np5 2.532530 1_555
F9 Fe3 2.127096 1_555
F9 Np11 2.442876 1_555
F9 Np0 2.533882 1_555
F10 Fe3 2.103400 1_555
F10 Np9 2.460690 1_545
F10 Np1 2.532530 1_555
F11 Fe3 2.115921 1_555
F11 Np10 2.445688 1_655
F11 Np2 2.518326 1_555
F12 Np1 2.284273 1_565
F12 Np8 2.339088 1_555
F12 Na0 2.694145 1_465
F13 Np2 2.281725 1_455
F13 Np6 2.342831 1_555
F13 Na0 2.683857 1_455
F14 Np0 2.286210 1_555
F14 Np7 2.339424 1_555
F14 Na0 2.691112 1_565
F15 Np5 2.284268 1_555
F15 Np10 2.339093 1_554
F15 Na1 2.694146 1_444
F16 Np3 2.286210 1_565
F16 Np11 2.339417 1_554
F16 Na1 2.691113 1_554
F17 Np4 2.281725 1_455
F17 Np9 2.342831 1_554
F17 Na1 2.683848 1_454
F18 Np7 2.265369 1_545
F18 Np2 2.322216 1_555
F18 Na0 2.674954 1_555
F19 Np8 2.270610 1_655
F19 Np0 2.322588 1_555
F19 Na0 2.694804 1_565
F20 Np6 2.268656 1_555
F20 Np1 2.323236 1_555
F20 Na0 2.684166 1_455
F21 Np11 2.265369 1_555
F21 Np4 2.322222 1_556
F21 Na1 2.674939 1_555
F22 Np9 2.268665 1_545
F22 Np5 2.323230 1_556
F22 Na1 2.684163 1_445
F23 Np10 2.270610 1_655
F23 Np3 2.322588 1_556
F23 Na1 2.694813 1_545
F24 Fe0 2.018127 1_665
F24 Np0 2.197548 1_555
F24 Na0 2.667428 1_565
F25 Fe0 2.011953 1_555
F25 Np1 2.206712 1_555
F25 Na0 2.669711 1_455
F26 Fe0 2.009237 1_655
F26 Np2 2.204538 1_555
F26 Na0 2.647617 1_555
F27 Fe1 2.018126 1_645
F27 Np3 2.197547 1_555
F27 Na1 2.667433 1_544
F28 Fe1 2.009238 1_655
F28 Np4 2.204538 1_555
F28 Na1 2.647612 1_554
F29 Fe1 2.011953 1_545
F29 Np5 2.206713 1_555
F29 Na1 2.669711 1_444
F30 Fe1 2.009487 1_545
F30 Np6 2.208297 1_555
F30 Na0 2.632697 1_455
F31 Fe1 2.013511 1_655
F31 Np7 2.207463 1_555
F31 Na0 2.641015 1_565
F32 Fe1 2.006732 1_555
F32 Np8 2.199972 1_555
F32 Na0 2.637931 1_465
F33 Fe0 2.009487 1_565
F33 Np9 2.208297 1_555
F33 Na1 2.632691 1_455
F34 Fe0 2.006732 1_555
F34 Np10 2.199972 1_555
F34 Na1 2.637937 1_445
F35 Fe0 2.013511 1_665
F35 Np11 2.207459 1_555
F35 Na1 2.641015 1_555
F36 Np8 2.285081 1_555
F36 Na2 2.413453 1_555
F36 Np2 2.416841 1_455
F37 Np6 2.284774 1_555
F37 Na2 2.412316 1_555
F37 Np0 2.425333 1_555
F38 Np7 2.290149 1_555
F38 Na2 2.403241 1_555
F38 Np1 2.420975 1_565
F39 Np10 2.285081 1_554
F39 Na3 2.413453 1_555
F39 Np4 2.416840 1_455
F40 Np11 2.290149 1_554
F40 Na3 2.403235 1_555
F40 Np5 2.420984 1_555
F41 Np9 2.284774 1_554
F41 Na3 2.412316 1_555
F41 Np3 2.425334 1_565
F42 Fe2 2.083744 1_555
F42 Np2 2.375694 1_555
F42 Np8 2.558746 1_655
F43 Fe2 2.086389 1_555
F43 Np0 2.375692 1_555
F43 Np6 2.544014 1_555
F44 Fe2 2.141984 1_555
F44 Np1 2.354932 1_555
F44 Np7 2.531087 1_545
F45 Fe3 2.083744 1_555
F45 Np4 2.375694 1_556
F45 Np10 2.558745 1_655
F46 Fe3 2.141983 1_555
F46 Np5 2.354932 1_556
F46 Np11 2.531096 1_555
F47 Fe3 2.086390 1_555
F47 Np3 2.375692 1_556
F47 Np9 2.544014 1_545
F48 Np1 2.261820 1_555
F48 Np0 2.279690 1_555
F49 Np2 2.265737 1_555
F49 Np1 2.280629 1_555
F50 Np0 2.266020 1_555
F50 Np2 2.281499 1_555
F51 Np5 2.261819 1_555
F51 Np3 2.279690 1_555
F52 Np3 2.266020 1_555
F52 Np4 2.281499 1_555
F53 Np4 2.265737 1_555
F53 Np5 2.280629 1_555
F54 Np7 2.290780 1_555
F54 Np6 2.301038 1_555
F55 Np8 2.281715 1_555
F55 Np7 2.303729 1_555
F56 Np6 2.285392 1_555
F56 Np8 2.299919 1_555
F57 Np11 2.290771 1_555
F57 Np9 2.301037 1_555
F58 Np9 2.285392 1_555
F58 Np10 2.299919 1_555
F59 Np10 2.281715 1_555
F59 Np11 2.303731 1_555
