# generated using pymatgen
data_Ba4Sr(FeO3)5
_symmetry_space_group_name_H-M   'P 1'
_cell_length_a   4.01223400
_cell_length_b   4.01223400
_cell_length_c   20.08790000
_cell_angle_alpha   90.00000000
_cell_angle_beta   90.00000000
_cell_angle_gamma   90.00000000
_symmetry_Int_Tables_number   1
_chemical_formula_structural   Ba4Sr(FeO3)5
_chemical_formula_sum   'Ba4 Sr1 Fe5 O15'
_cell_volume   323.37544952
_cell_formula_units_Z   1
loop_
 _symmetry_equiv_pos_site_id
 _symmetry_equiv_pos_as_xyz
  1  'x, y, z'
loop_
 _atom_site_type_symbol
 _atom_site_label
 _atom_site_symmetry_multiplicity
 _atom_site_fract_x
 _atom_site_fract_y
 _atom_site_fract_z
 _atom_site_occupancy
  Ba  Ba0  1  0.50000000  0.50000000  0.19765100  1
  Ba  Ba1  1  0.50000000  0.50000000  0.39992600  1
  Ba  Ba2  1  0.50000000  0.50000000  0.60007400  1
  Ba  Ba3  1  0.50000000  0.50000000  0.80234900  1
  Sr  Sr0  1  0.50000000  0.50000000  0.00000000  1
  Fe  Fe0  1  0.00000000  0.00000000  0.90281700  1
  Fe  Fe1  1  0.00000000  0.00000000  0.09718300  1
  Fe  Fe2  1  0.00000000  0.00000000  0.29927700  1
  Fe  Fe3  1  0.00000000  0.00000000  0.50000000  1
  Fe  Fe4  1  0.00000000  0.00000000  0.70072300  1
  O  O0  1  0.00000000  0.00000000  0.00000000  1
  O  O1  1  0.00000000  0.00000000  0.19579500  1
  O  O2  1  0.00000000  0.00000000  0.40021600  1
  O  O3  1  0.00000000  0.00000000  0.59978400  1
  O  O4  1  0.00000000  0.00000000  0.80420500  1
  O  O5  1  0.00000000  0.50000000  0.90569000  1
  O  O6  1  0.00000000  0.50000000  0.09431000  1
  O  O7  1  0.00000000  0.50000000  0.29871400  1
  O  O8  1  0.00000000  0.50000000  0.50000000  1
  O  O9  1  0.00000000  0.50000000  0.70128600  1
  O  O10  1  0.50000000  0.00000000  0.90569000  1
  O  O11  1  0.50000000  0.00000000  0.09431000  1
  O  O12  1  0.50000000  0.00000000  0.29871400  1
  O  O13  1  0.50000000  0.00000000  0.50000000  1
  O  O14  1  0.50000000  0.00000000  0.70128600  1
loop_
_geom_bond_atom_site_label_1
_geom_bond_atom_site_label_2
_geom_bond_distance
_geom_bond_site_symmetry_2
Ba0 O1 2.837323 1_555
Ba0 O1 2.837323 1_655
Ba0 O1 2.837323 1_565
Ba0 O1 2.837323 1_665
Ba0 O12 2.854118 1_565
Ba0 O7 2.854118 1_555
Ba0 O7 2.854118 1_655
Ba0 O12 2.854118 1_555
Ba0 O11 2.886846 1_555
Ba0 O11 2.886846 1_565
Ba0 O6 2.886846 1_555
Ba0 O6 2.886846 1_655
Ba1 O2 2.837084 1_555
Ba1 O2 2.837084 1_655
Ba1 O2 2.837084 1_565
Ba1 O2 2.837084 1_665
Ba1 O8 2.840021 1_555
Ba1 O13 2.840021 1_565
Ba1 O8 2.840021 1_655
Ba1 O13 2.840021 1_555
Ba1 O12 2.856247 1_555
Ba1 O7 2.856247 1_555
Ba1 O12 2.856247 1_565
Ba1 O7 2.856247 1_655
Ba2 O3 2.837084 1_555
Ba2 O3 2.837084 1_565
Ba2 O3 2.837084 1_655
Ba2 O3 2.837084 1_665
Ba2 O8 2.840021 1_555
Ba2 O13 2.840021 1_565
Ba2 O8 2.840021 1_655
Ba2 O13 2.840021 1_555
Ba2 O9 2.856247 1_555
Ba2 O14 2.856247 1_555
Ba2 O14 2.856247 1_565
Ba2 O9 2.856247 1_655
Ba3 O4 2.837323 1_555
Ba3 O4 2.837323 1_565
Ba3 O4 2.837323 1_665
Ba3 O4 2.837323 1_655
Ba3 O14 2.854118 1_555
Ba3 O14 2.854118 1_565
Ba3 O9 2.854118 1_655
Ba3 O9 2.854118 1_555
Ba3 O10 2.886846 1_565
Ba3 O5 2.886846 1_555
Ba3 O5 2.886846 1_655
Ba3 O10 2.886846 1_555
Fe0 O0 1.952202 1_556
Fe0 O4 1.980908 1_555
Fe0 O5 2.006947 1_555
Fe0 O10 2.006947 1_455
Fe0 O5 2.006947 1_545
Fe0 O10 2.006947 1_555
Fe1 O0 1.952202 1_555
Fe1 O1 1.980908 1_555
Fe1 O6 2.006947 1_555
Fe1 O11 2.006947 1_455
Fe1 O6 2.006947 1_545
Fe1 O11 2.006947 1_555
Fe2 O7 2.006149 1_545
Fe2 O12 2.006149 1_555
Fe2 O7 2.006149 1_555
Fe2 O12 2.006149 1_455
Fe2 O2 2.027653 1_555
Fe2 O1 2.078736 1_555
Fe3 O3 2.004451 1_555
Fe3 O2 2.004451 1_555
Fe3 O13 2.006117 1_555
Fe3 O8 2.006117 1_555
Fe3 O13 2.006117 1_455
Fe3 O8 2.006117 1_545
Fe4 O9 2.006149 1_555
Fe4 O14 2.006149 1_455
Fe4 O9 2.006149 1_545
Fe4 O14 2.006149 1_555
Fe4 O3 2.027653 1_555
Fe4 O4 2.078736 1_555
O0 Sr0 2.837078 1_555
O0 Sr0 2.837078 1_445
O0 Sr0 2.837078 1_455
O0 Sr0 2.837078 1_545
O5 Sr0 2.759275 1_456
O5 Sr0 2.759275 1_556
O6 Sr0 2.759275 1_455
O6 Sr0 2.759275 1_555
O10 Sr0 2.759275 1_546
O10 Sr0 2.759275 1_556
O11 Sr0 2.759275 1_545
O11 Sr0 2.759275 1_555
