# generated using pymatgen
data_Li9Co7O16
_symmetry_space_group_name_H-M   'P 1'
_cell_length_a   2.94187900
_cell_length_b   9.84851847
_cell_length_c   9.98958047
_cell_angle_alpha   79.11213354
_cell_angle_beta   89.20501522
_cell_angle_gamma   88.78412466
_symmetry_Int_Tables_number   1
_chemical_formula_structural   Li9Co7O16
_chemical_formula_sum   'Li9 Co7 O16'
_cell_volume   284.14116713
_cell_formula_units_Z   1
loop_
 _symmetry_equiv_pos_site_id
 _symmetry_equiv_pos_as_xyz
  1  'x, y, z'
loop_
 _atom_site_type_symbol
 _atom_site_label
 _atom_site_symmetry_multiplicity
 _atom_site_fract_x
 _atom_site_fract_y
 _atom_site_fract_z
 _atom_site_occupancy
  Li  Li0  1  0.00332900  0.25106000  0.87417100  1
  Li  Li1  1  0.49321200  0.74790700  0.87289300  1
  Li  Li2  1  0.50678800  0.25209300  0.12710700  1
  Li  Li3  1  0.99667100  0.74894000  0.12582900  1
  Li  Li4  1  0.99557200  0.24485000  0.37620000  1
  Li  Li5  1  0.50311100  0.74947600  0.37244400  1
  Li  Li6  1  0.49688900  0.25052400  0.62755600  1
  Li  Li7  1  0.00442800  0.75515000  0.62380000  1
  Li  Li8  1  0.50000000  0.00000000  0.50000000  1
  Co  Co0  1  0.99385000  0.00133400  0.74156900  1
  Co  Co1  1  0.00615000  0.99866600  0.25843100  1
  Co  Co2  1  0.50675600  0.50079100  0.75198500  1
  Co  Co3  1  0.50000000  0.00000000  0.00000000  1
  Co  Co4  1  0.00000000  0.50000000  0.00000000  1
  Co  Co5  1  0.49324400  0.49920900  0.24801500  1
  Co  Co6  1  0.00000000  0.50000000  0.50000000  1
  O  O0  1  0.53388600  0.11143700  0.82275800  1
  O  O1  1  0.99249700  0.61849100  0.81006600  1
  O  O2  1  0.00918100  0.10475100  0.07057800  1
  O  O3  1  0.49151100  0.61786400  0.06395600  1
  O  O4  1  0.53391300  0.11475300  0.30563000  1
  O  O5  1  0.97635000  0.61511800  0.30995000  1
  O  O6  1  0.99848200  0.11548800  0.58452000  1
  O  O7  1  0.52062100  0.61777300  0.56167300  1
  O  O8  1  0.50848900  0.38213600  0.93604400  1
  O  O9  1  0.99081900  0.89524900  0.92942200  1
  O  O10  1  0.00750300  0.38150900  0.18993400  1
  O  O11  1  0.46611400  0.88856300  0.17724200  1
  O  O12  1  0.47937900  0.38222700  0.43832700  1
  O  O13  1  0.00151800  0.88451200  0.41548000  1
  O  O14  1  0.02365000  0.38488200  0.69005000  1
  O  O15  1  0.46608700  0.88524700  0.69437000  1
loop_
_geom_bond_atom_site_label_1
_geom_bond_atom_site_label_2
_geom_bond_distance
_geom_bond_site_symmetry_2
Li0 O14 2.051362 1_555
Li0 O8 2.089115 1_455
Li0 O0 2.104514 1_455
Li0 O8 2.159941 1_555
Li0 O0 2.178140 1_555
Li0 O2 2.204080 1_556
Li1 O15 2.025931 1_555
Li1 O3 2.088002 1_556
Li1 O1 2.091180 1_555
Li1 O1 2.143776 1_455
Li1 O9 2.191891 1_455
Li1 O9 2.233884 1_555
Li2 O4 2.025931 1_555
Li2 O8 2.088002 1_554
Li2 O10 2.091180 1_555
Li2 O10 2.143776 1_655
Li2 O2 2.191891 1_655
Li2 O2 2.233884 1_555
Li3 O5 2.051362 1_555
Li3 O3 2.089115 1_655
Li3 O11 2.104514 1_655
Li3 O3 2.159941 1_555
Li3 O11 2.178140 1_555
Li3 O9 2.204080 1_554
Li4 O10 2.080636 1_655
Li4 O4 2.103523 1_555
Li4 O12 2.159839 1_655
Li4 O12 2.173847 1_555
Li4 O4 2.207023 1_655
Li4 O6 2.225385 1_555
Li5 O13 2.060593 1_555
Li5 O5 2.070916 1_555
Li5 O7 2.081340 1_555
Li5 O13 2.102286 1_655
Li5 O11 2.163593 1_555
Li5 O5 2.228918 1_455
Li6 O6 2.060593 1_555
Li6 O14 2.070916 1_555
Li6 O12 2.081340 1_555
Li6 O6 2.102286 1_455
Li6 O0 2.163593 1_555
Li6 O14 2.228918 1_655
Li7 O1 2.080636 1_455
Li7 O15 2.103523 1_555
Li7 O7 2.159839 1_455
Li7 O7 2.173847 1_555
Li7 O15 2.207023 1_455
Li7 O13 2.225385 1_555
Li8 O4 2.056141 1_555
Li8 O15 2.056141 1_545
Li8 O13 2.107212 1_645
Li8 O6 2.107212 1_455
Li8 O6 2.150580 1_555
Li8 O13 2.150580 1_545
Co0 O6 1.749047 1_555
Co0 O15 1.891435 1_645
Co0 O9 1.967850 1_545
Co0 O0 1.975895 1_555
Co0 O15 2.058959 1_545
Co0 O0 2.190604 1_655
Co1 O13 1.749047 1_555
Co1 O4 1.891435 1_465
Co1 O2 1.967850 1_565
Co1 O11 1.975895 1_555
Co1 O4 2.058959 1_565
Co1 O11 2.190604 1_455
Co2 O8 1.983588 1_555
Co2 O14 2.016402 1_555
Co2 O1 2.017352 1_555
Co2 O7 2.028724 1_555
Co2 O1 2.030871 1_455
Co2 O14 2.040900 1_655
Co3 O11 1.901318 1_545
Co3 O0 1.901318 1_554
Co3 O2 1.956940 1_555
Co3 O9 1.956940 1_544
Co3 O9 2.043255 1_444
Co3 O2 2.043255 1_655
Co4 O10 2.031227 1_555
Co4 O1 2.031227 1_454
Co4 O3 2.042870 1_455
Co4 O8 2.042870 1_554
Co4 O3 2.055105 1_555
Co4 O8 2.055105 1_454
Co5 O3 1.983588 1_555
Co5 O5 2.016402 1_555
Co5 O10 2.017352 1_555
Co5 O12 2.028724 1_555
Co5 O10 2.030871 1_655
Co5 O5 2.040900 1_455
Co6 O7 1.972361 1_455
Co6 O12 1.972361 1_555
Co6 O5 2.020339 1_455
Co6 O14 2.020339 1_555
Co6 O7 2.107665 1_555
Co6 O12 2.107665 1_455
