# generated using pymatgen
data_Li7Mn2(CoO4)3
_symmetry_space_group_name_H-M   'P 1'
_cell_length_a   2.94101400
_cell_length_b   8.19817300
_cell_length_c   9.78862117
_cell_angle_alpha   66.18280942
_cell_angle_beta   90.00000000
_cell_angle_gamma   90.00000000
_symmetry_Int_Tables_number   1
_chemical_formula_structural   Li7Mn2(CoO4)3
_chemical_formula_sum   'Li7 Mn2 Co3 O12'
_cell_volume   215.91367462
_cell_formula_units_Z   1
loop_
 _symmetry_equiv_pos_site_id
 _symmetry_equiv_pos_as_xyz
  1  'x, y, z'
loop_
 _atom_site_type_symbol
 _atom_site_label
 _atom_site_symmetry_multiplicity
 _atom_site_fract_x
 _atom_site_fract_y
 _atom_site_fract_z
 _atom_site_occupancy
  Li  Li0  1  0.00000000  0.17838100  0.65559800  1
  Li  Li1  1  0.00000000  0.50019600  0.99372300  1
  Li  Li2  1  0.00000000  0.82264900  0.34724100  1
  Li  Li3  1  0.50000000  0.65586800  0.17837000  1
  Li  Li4  1  0.50000000  0.98900400  0.49650000  1
  Li  Li5  1  0.50000000  0.35595400  0.82042400  1
  Li  Li6  1  0.00000000  0.66140300  0.66458500  1
  Mn  Mn0  1  0.00000000  0.00369800  0.99814200  1
  Mn  Mn1  1  0.50000000  0.82500800  0.82852200  1
  Co  Co0  1  0.00000000  0.33773100  0.34414900  1
  Co  Co1  1  0.50000000  0.51182900  0.51258000  1
  Co  Co2  1  0.50000000  0.17753600  0.17297800  1
  O  O0  1  0.00000000  0.77199100  0.98161100  1
  O  O1  1  0.00000000  0.09221800  0.32381000  1
  O  O2  1  0.00000000  0.41559400  0.66012000  1
  O  O3  1  0.50000000  0.25461800  0.49258500  1
  O  O4  1  0.50000000  0.60144400  0.83856600  1
  O  O5  1  0.50000000  0.93111900  0.14204700  1
  O  O6  1  0.00000000  0.57078600  0.33197200  1
  O  O7  1  0.00000000  0.90755600  0.68987300  1
  O  O8  1  0.00000000  0.22811600  0.00808800  1
  O  O9  1  0.50000000  0.06460300  0.85324900  1
  O  O10  1  0.50000000  0.40291500  0.17044800  1
  O  O11  1  0.50000000  0.73978300  0.49482000  1
loop_
_geom_bond_atom_site_label_1
_geom_bond_atom_site_label_2
_geom_bond_distance
_geom_bond_site_symmetry_2
Li0 O2 1.963006 1_555
Li0 O3 2.072132 1_455
Li0 O3 2.072132 1_555
Li0 O7 2.107260 1_545
Li0 O9 2.306105 1_555
Li0 O9 2.306105 1_455
Li1 O4 2.034671 1_455
Li1 O4 2.034671 1_555
Li1 O10 2.162573 1_456
Li1 O10 2.162573 1_556
Li1 O8 2.177579 1_556
Li1 O0 2.183042 1_555
Li2 O11 1.979433 1_555
Li2 O11 1.979433 1_455
Li2 O1 2.127725 1_565
Li2 O6 2.129567 1_555
Li2 O5 2.354773 1_455
Li2 O5 2.354773 1_555
Li3 O6 2.015583 1_655
Li3 O6 2.015583 1_555
Li3 O10 2.106262 1_555
Li3 O5 2.137866 1_555
Li3 O0 2.301590 1_654
Li3 O0 2.301590 1_554
Li4 O11 2.049853 1_555
Li4 O1 2.140238 1_565
Li4 O1 2.140238 1_665
Li4 O3 2.162358 1_565
Li4 O7 2.273844 1_555
Li4 O7 2.273844 1_655
Li5 O2 2.060112 1_655
Li5 O2 2.060112 1_555
Li5 O4 2.090604 1_555
Li5 O8 2.253965 1_556
Li5 O8 2.253965 1_656
Li5 O9 2.277840 1_555
Li6 O2 2.033227 1_555
Li6 O11 2.115267 1_555
Li6 O11 2.115267 1_455
Li6 O7 2.130036 1_555
Li6 O4 2.151334 1_555
Li6 O4 2.151334 1_455
Mn0 O8 1.881242 1_556
Mn0 O5 1.955441 1_446
Mn0 O5 1.955441 1_546
Mn0 O9 1.962482 1_455
Mn0 O9 1.962482 1_555
Mn0 O0 1.970487 1_545
Mn1 O4 1.795368 1_555
Mn1 O7 1.928867 1_555
Mn1 O7 1.928867 1_655
Mn1 O0 2.017638 1_555
Mn1 O0 2.017638 1_655
Mn1 O9 2.073838 1_565
Co0 O6 1.865681 1_555
Co0 O3 1.984500 1_555
Co0 O3 1.984500 1_455
Co0 O1 2.101064 1_555
Co0 O10 2.145955 1_555
Co0 O10 2.145955 1_455
Co1 O11 1.805622 1_555
Co1 O2 1.987549 1_555
Co1 O2 1.987549 1_655
Co1 O3 2.195013 1_555
Co1 O6 2.198036 1_655
Co1 O6 2.198036 1_555
Co2 O10 1.837835 1_555
Co2 O1 1.999361 1_655
Co2 O1 1.999361 1_555
Co2 O8 2.097365 1_555
Co2 O8 2.097365 1_655
Co2 O5 2.160266 1_545
