# generated using pymatgen
data_Mg3Pa
_symmetry_space_group_name_H-M   'P 1'
_cell_length_a   6.62690605
_cell_length_b   6.62690605
_cell_length_c   5.14615800
_cell_angle_alpha   90.00000000
_cell_angle_beta   90.00000000
_cell_angle_gamma   120.00000048
_symmetry_Int_Tables_number   1
_chemical_formula_structural   Mg3Pa
_chemical_formula_sum   'Mg6 Pa2'
_cell_volume   195.72007459
_cell_formula_units_Z   2
loop_
 _symmetry_equiv_pos_site_id
 _symmetry_equiv_pos_as_xyz
  1  'x, y, z'
loop_
 _atom_site_type_symbol
 _atom_site_label
 _atom_site_symmetry_multiplicity
 _atom_site_fract_x
 _atom_site_fract_y
 _atom_site_fract_z
 _atom_site_occupancy
  Mg  Mg0  1  0.16358800  0.32717600  0.25000000  1
  Mg  Mg1  1  0.16358800  0.83641200  0.25000000  1
  Mg  Mg2  1  0.67282400  0.83641200  0.25000000  1
  Mg  Mg3  1  0.32717600  0.16358800  0.75000000  1
  Mg  Mg4  1  0.83641200  0.16358800  0.75000000  1
  Mg  Mg5  1  0.83641200  0.67282400  0.75000000  1
  Pa  Pa0  1  0.66666700  0.33333300  0.25000000  1
  Pa  Pa1  1  0.33333300  0.66666700  0.75000000  1
loop_
_geom_bond_atom_site_label_1
_geom_bond_atom_site_label_2
_geom_bond_distance
_geom_bond_site_symmetry_2
Mg0 Mg4 3.185348 1_455
Mg0 Mg4 3.185348 1_454
Mg0 Mg3 3.185348 1_555
Mg0 Mg3 3.185348 1_554
Mg0 Pa1 3.227515 1_554
Mg0 Pa1 3.227515 1_555
Mg0 Mg2 3.252247 1_445
Mg0 Mg1 3.252247 1_545
Mg0 Pa0 3.313638 1_455
Mg0 Pa0 3.313645 1_555
Mg0 Mg2 3.374659 1_555
Mg0 Mg1 3.374659 1_555
Mg1 Mg3 3.185348 1_565
Mg1 Mg3 3.185348 1_564
Mg1 Mg5 3.185348 1_455
Mg1 Mg5 3.185348 1_454
Mg1 Pa1 3.227511 1_555
Mg1 Pa1 3.227511 1_554
Mg1 Mg2 3.252247 1_455
Mg1 Pa0 3.313641 1_455
Mg1 Pa0 3.313641 1_565
Mg1 Mg2 3.374659 1_555
Mg2 Mg4 3.185348 1_564
Mg2 Mg4 3.185348 1_565
Mg2 Mg5 3.185348 1_555
Mg2 Mg5 3.185348 1_554
Mg2 Pa1 3.227515 1_555
Mg2 Pa1 3.227515 1_554
Mg2 Pa0 3.313638 1_565
Mg2 Pa0 3.313645 1_555
Mg3 Pa0 3.227515 1_555
Mg3 Pa0 3.227515 1_556
Mg3 Mg5 3.252247 1_445
Mg3 Mg4 3.252247 1_455
Mg3 Pa1 3.313638 1_545
Mg3 Pa1 3.313645 1_555
Mg3 Mg5 3.374659 1_555
Mg3 Mg4 3.374659 1_555
Mg4 Pa0 3.227511 1_555
Mg4 Pa0 3.227511 1_556
Mg4 Mg5 3.252247 1_545
Mg4 Pa1 3.313641 1_545
Mg4 Pa1 3.313641 1_655
Mg4 Mg5 3.374659 1_555
Mg5 Pa0 3.227515 1_556
Mg5 Pa0 3.227515 1_555
Mg5 Pa1 3.313638 1_655
Mg5 Pa1 3.313645 1_555
