# generated using pymatgen
data_Yb2Mg
_symmetry_space_group_name_H-M   'P 1'
_cell_length_a   17.20044840
_cell_length_b   17.20044840
_cell_length_c   10.69709327
_cell_angle_alpha   90.00000000
_cell_angle_beta   90.00000000
_cell_angle_gamma   155.71992271
_symmetry_Int_Tables_number   1
_chemical_formula_structural   Yb2Mg
_chemical_formula_sum   'Yb32 Mg16'
_cell_volume   1301.35475921
_cell_formula_units_Z   16
loop_
 _symmetry_equiv_pos_site_id
 _symmetry_equiv_pos_as_xyz
  1  'x, y, z'
loop_
 _atom_site_type_symbol
 _atom_site_label
 _atom_site_symmetry_multiplicity
 _atom_site_fract_x
 _atom_site_fract_y
 _atom_site_fract_z
 _atom_site_occupancy
  Yb  Yb0_0  1  0.29627402  0.20372598  0.37500000  1
  Yb  Yb0_1  1  0.29627402  0.20372598  0.87500000  1
  Yb  Yb0_2  1  0.29627402  0.70372598  0.37500000  1
  Yb  Yb0_3  1  0.29627402  0.70372598  0.87500000  1
  Yb  Yb0_4  1  0.79627402  0.20372598  0.37500000  1
  Yb  Yb0_5  1  0.79627402  0.20372598  0.87500000  1
  Yb  Yb0_6  1  0.79627402  0.70372598  0.37500000  1
  Yb  Yb0_7  1  0.79627402  0.70372598  0.87500000  1
  Yb  Yb1_0  1  0.13584619  0.36415381  0.37500000  1
  Yb  Yb1_1  1  0.13584619  0.36415381  0.87500000  1
  Yb  Yb1_2  1  0.13584619  0.86415381  0.37500000  1
  Yb  Yb1_3  1  0.13584619  0.86415381  0.87500000  1
  Yb  Yb1_4  1  0.63584619  0.36415381  0.37500000  1
  Yb  Yb1_5  1  0.63584619  0.36415381  0.87500000  1
  Yb  Yb1_6  1  0.63584619  0.86415381  0.37500000  1
  Yb  Yb1_7  1  0.63584619  0.86415381  0.87500000  1
  Yb  Yb2_0  1  0.20372598  0.29627402  0.12500000  1
  Yb  Yb2_1  1  0.20372598  0.29627402  0.62500000  1
  Yb  Yb2_2  1  0.20372598  0.79627402  0.12500000  1
  Yb  Yb2_3  1  0.20372598  0.79627402  0.62500000  1
  Yb  Yb2_4  1  0.70372598  0.29627402  0.12500000  1
  Yb  Yb2_5  1  0.70372598  0.29627402  0.62500000  1
  Yb  Yb2_6  1  0.70372598  0.79627402  0.12500000  1
  Yb  Yb2_7  1  0.70372598  0.79627402  0.62500000  1
  Yb  Yb3_0  1  0.36415381  0.13584619  0.12500000  1
  Yb  Yb3_1  1  0.36415381  0.13584619  0.62500000  1
  Yb  Yb3_2  1  0.36415381  0.63584619  0.12500000  1
  Yb  Yb3_3  1  0.36415381  0.63584619  0.62500000  1
  Yb  Yb3_4  1  0.86415381  0.13584619  0.12500000  1
  Yb  Yb3_5  1  0.86415381  0.13584619  0.62500000  1
  Yb  Yb3_6  1  0.86415381  0.63584619  0.12500000  1
  Yb  Yb3_7  1  0.86415381  0.63584619  0.62500000  1
  Mg  Mg0_0  1  0.46624467  0.03375533  0.37500000  1
  Mg  Mg0_1  1  0.46624467  0.03375533  0.87500000  1
  Mg  Mg0_2  1  0.46624467  0.53375533  0.37500000  1
  Mg  Mg0_3  1  0.46624467  0.53375533  0.87500000  1
  Mg  Mg0_4  1  0.96624467  0.03375533  0.37500000  1
  Mg  Mg0_5  1  0.96624467  0.03375533  0.87500000  1
  Mg  Mg0_6  1  0.96624467  0.53375533  0.37500000  1
  Mg  Mg0_7  1  0.96624467  0.53375533  0.87500000  1
  Mg  Mg1_0  1  0.03375533  0.46624467  0.12500000  1
  Mg  Mg1_1  1  0.03375533  0.46624467  0.62500000  1
  Mg  Mg1_2  1  0.03375533  0.96624467  0.12500000  1
  Mg  Mg1_3  1  0.03375533  0.96624467  0.62500000  1
  Mg  Mg1_4  1  0.53375533  0.46624467  0.12500000  1
  Mg  Mg1_5  1  0.53375533  0.46624467  0.62500000  1
  Mg  Mg1_6  1  0.53375533  0.96624467  0.12500000  1
  Mg  Mg1_7  1  0.53375533  0.96624467  0.62500000  1
loop_
_geom_bond_atom_site_label_1
_geom_bond_atom_site_label_2
_geom_bond_distance
_geom_bond_site_symmetry_2
Yb0_0 Yb1_4 3.513696 1_555
Yb0_0 Yb1_2 3.513696 1_545
Yb0_0 Yb3_1 3.516161 1_555
Yb0_0 Yb3_0 3.516161 1_555
Yb0_1 Yb1_5 3.513696 1_555
Yb0_1 Yb1_3 3.513696 1_545
Yb0_1 Yb3_0 3.516161 1_556
Yb0_1 Yb3_1 3.516161 1_555
Yb0_2 Yb1_6 3.513696 1_555
Yb0_2 Yb1_0 3.513696 1_555
Yb0_2 Yb3_3 3.516161 1_555
Yb0_2 Yb3_2 3.516161 1_555
Yb0_3 Yb1_7 3.513696 1_555
Yb0_3 Yb1_1 3.513696 1_555
Yb0_3 Yb3_2 3.516161 1_556
Yb0_3 Yb3_3 3.516161 1_555
Yb0_4 Yb1_6 3.513696 1_545
Yb0_4 Yb1_0 3.513696 1_655
Yb0_4 Yb3_5 3.516161 1_555
Yb0_4 Yb3_4 3.516161 1_555
Yb0_5 Yb1_7 3.513696 1_545
Yb0_5 Yb1_1 3.513696 1_655
Yb0_5 Yb3_4 3.516161 1_556
Yb0_5 Yb3_5 3.516161 1_555
Yb0_6 Yb1_2 3.513696 1_655
Yb0_6 Yb1_4 3.513696 1_555
Yb0_6 Yb3_7 3.516161 1_555
Yb0_6 Yb3_6 3.516161 1_555
Yb0_7 Yb1_3 3.513696 1_655
Yb0_7 Yb1_5 3.513696 1_555
Yb0_7 Yb3_6 3.516161 1_556
Yb0_7 Yb3_7 3.516161 1_555
Yb1_0 Yb3_3 3.309859 1_555
Yb1_0 Yb3_5 3.309859 1_455
Yb1_0 Yb3_2 3.309859 1_555
Yb1_0 Yb3_4 3.309859 1_455
Yb1_0 Yb2_1 3.516161 1_555
Yb1_0 Yb2_0 3.516161 1_555
Yb1_0 Yb1_6 3.617285 1_555
Yb1_0 Yb1_6 3.617285 1_445
Yb1_1 Yb3_2 3.309859 1_556
Yb1_1 Yb3_4 3.309859 1_456
Yb1_1 Yb3_3 3.309859 1_555
Yb1_1 Yb3_5 3.309859 1_455
Yb1_1 Yb2_0 3.516161 1_556
Yb1_1 Yb2_1 3.516161 1_555
Yb1_1 Yb1_7 3.617285 1_555
Yb1_1 Yb1_7 3.617285 1_445
Yb1_2 Yb3_7 3.309859 1_455
Yb1_2 Yb3_1 3.309859 1_565
Yb1_2 Yb3_6 3.309859 1_455
Yb1_2 Yb3_0 3.309859 1_565
Yb1_2 Yb2_3 3.516161 1_555
Yb1_2 Yb2_2 3.516161 1_555
Yb1_2 Yb1_4 3.617285 1_455
Yb1_2 Yb1_4 3.617285 1_565
Yb1_3 Yb3_6 3.309859 1_456
Yb1_3 Yb3_0 3.309859 1_566
Yb1_3 Yb3_7 3.309859 1_455
Yb1_3 Yb3_1 3.309859 1_565
Yb1_3 Yb2_2 3.516161 1_556
Yb1_3 Yb2_3 3.516161 1_555
Yb1_3 Yb1_5 3.617285 1_565
Yb1_3 Yb1_5 3.617285 1_455
Yb1_4 Yb3_7 3.309859 1_555
Yb1_4 Yb3_1 3.309859 1_555
Yb1_4 Yb3_6 3.309859 1_555
Yb1_4 Yb3_0 3.309859 1_555
Yb1_4 Yb2_5 3.516161 1_555
Yb1_4 Yb2_4 3.516161 1_555
Yb1_5 Yb3_6 3.309859 1_556
Yb1_5 Yb3_0 3.309859 1_556
Yb1_5 Yb3_7 3.309859 1_555
Yb1_5 Yb3_1 3.309859 1_555
Yb1_5 Yb2_4 3.516161 1_556
Yb1_5 Yb2_5 3.516161 1_555
Yb1_6 Yb3_5 3.309859 1_565
Yb1_6 Yb3_4 3.309859 1_565
Yb1_6 Yb3_3 3.309859 1_555
Yb1_6 Yb3_2 3.309859 1_555
Yb1_6 Yb2_7 3.516161 1_555
Yb1_6 Yb2_6 3.516161 1_555
Yb1_7 Yb3_4 3.309859 1_566
Yb1_7 Yb3_2 3.309859 1_556
Yb1_7 Yb3_5 3.309859 1_565
Yb1_7 Yb3_3 3.309859 1_555
Yb1_7 Yb2_6 3.516161 1_556
Yb1_7 Yb2_7 3.516161 1_555
Yb2_0 Yb3_2 3.513696 1_555
Yb2_0 Yb3_4 3.513696 1_455
Yb2_1 Yb3_3 3.513696 1_555
Yb2_1 Yb3_5 3.513696 1_455
Yb2_2 Yb3_6 3.513696 1_455
Yb2_2 Yb3_0 3.513696 1_565
Yb2_3 Yb3_7 3.513696 1_455
Yb2_3 Yb3_1 3.513696 1_565
Yb2_4 Yb3_6 3.513696 1_555
Yb2_4 Yb3_0 3.513696 1_555
Yb2_5 Yb3_7 3.513696 1_555
Yb2_5 Yb3_1 3.513696 1_555
Yb2_6 Yb3_4 3.513696 1_565
Yb2_6 Yb3_2 3.513696 1_555
Yb2_7 Yb3_5 3.513696 1_565
Yb2_7 Yb3_3 3.513696 1_555
Yb3_0 Yb3_6 3.617285 1_555
Yb3_0 Yb3_6 3.617285 1_445
Yb3_1 Yb3_7 3.617285 1_555
Yb3_1 Yb3_7 3.617285 1_445
Yb3_2 Yb3_4 3.617285 1_565
Yb3_2 Yb3_4 3.617285 1_455
Yb3_3 Yb3_5 3.617285 1_565
Yb3_3 Yb3_5 3.617285 1_455
Mg0_0 Yb0_4 3.242750 1_555
Mg0_0 Yb0_2 3.242750 1_545
Mg0_0 Yb1_4 3.253062 1_555
Mg0_0 Yb1_2 3.253062 1_545
Mg0_0 Yb2_5 3.255793 1_555
Mg0_0 Yb2_3 3.255793 1_545
Mg0_0 Yb2_4 3.255793 1_555
Mg0_0 Yb2_2 3.255793 1_545
Mg0_1 Yb0_5 3.242750 1_555
Mg0_1 Yb0_3 3.242750 1_545
Mg0_1 Yb1_5 3.253062 1_555
Mg0_1 Yb1_3 3.253062 1_545
Mg0_1 Yb2_4 3.255793 1_556
Mg0_1 Yb2_2 3.255793 1_546
Mg0_1 Yb2_5 3.255793 1_555
Mg0_1 Yb2_3 3.255793 1_545
Mg0_2 Yb0_0 3.242750 1_555
Mg0_2 Yb0_6 3.242750 1_555
Mg0_2 Yb1_0 3.253062 1_555
Mg0_2 Yb1_6 3.253062 1_555
Mg0_2 Yb2_7 3.255793 1_555
Mg0_2 Yb2_1 3.255793 1_555
Mg0_2 Yb2_0 3.255793 1_555
Mg0_2 Yb2_6 3.255793 1_555
Mg0_3 Yb0_1 3.242750 1_555
Mg0_3 Yb0_7 3.242750 1_555
Mg0_3 Yb1_1 3.253062 1_555
Mg0_3 Yb1_7 3.253062 1_555
Mg0_3 Yb2_0 3.255793 1_556
Mg0_3 Yb2_6 3.255793 1_556
Mg0_3 Yb2_7 3.255793 1_555
Mg0_3 Yb2_1 3.255793 1_555
Mg0_4 Yb0_6 3.242750 1_545
Mg0_4 Yb0_0 3.242750 1_655
Mg0_4 Yb1_0 3.253062 1_655
Mg0_4 Yb1_6 3.253062 1_545
Mg0_4 Yb2_7 3.255793 1_545
Mg0_4 Yb2_1 3.255793 1_655
Mg0_4 Yb2_6 3.255793 1_545
Mg0_4 Yb2_0 3.255793 1_655
Mg0_5 Yb0_7 3.242750 1_545
Mg0_5 Yb0_1 3.242750 1_655
Mg0_5 Yb1_1 3.253062 1_655
Mg0_5 Yb1_7 3.253062 1_545
Mg0_5 Yb2_0 3.255793 1_656
Mg0_5 Yb2_6 3.255793 1_546
Mg0_5 Yb2_1 3.255793 1_655
Mg0_5 Yb2_7 3.255793 1_545
Mg0_6 Yb0_4 3.242750 1_555
Mg0_6 Yb0_2 3.242750 1_655
Mg0_6 Yb1_4 3.253062 1_555
Mg0_6 Yb1_2 3.253062 1_655
Mg0_6 Yb2_3 3.255793 1_655
Mg0_6 Yb2_5 3.255793 1_555
Mg0_6 Yb2_2 3.255793 1_655
Mg0_6 Yb2_4 3.255793 1_555
Mg0_7 Yb0_5 3.242750 1_555
Mg0_7 Yb0_3 3.242750 1_655
Mg0_7 Yb1_5 3.253062 1_555
Mg0_7 Yb1_3 3.253062 1_655
Mg0_7 Yb2_2 3.255793 1_656
Mg0_7 Yb2_4 3.255793 1_556
Mg0_7 Yb2_3 3.255793 1_655
Mg0_7 Yb2_5 3.255793 1_555
Mg1_0 Yb2_2 3.242750 1_555
Mg1_0 Yb2_4 3.242750 1_455
Mg1_0 Yb3_2 3.253062 1_555
Mg1_0 Yb3_4 3.253062 1_455
Mg1_0 Yb0_3 3.255793 1_554
Mg1_0 Yb0_5 3.255793 1_454
Mg1_0 Yb0_2 3.255793 1_555
Mg1_0 Yb0_4 3.255793 1_455
Mg1_1 Yb2_3 3.242750 1_555
Mg1_1 Yb2_5 3.242750 1_455
Mg1_1 Yb3_3 3.253062 1_555
Mg1_1 Yb3_5 3.253062 1_455
Mg1_1 Yb0_2 3.255793 1_555
Mg1_1 Yb0_4 3.255793 1_455
Mg1_1 Yb0_5 3.255793 1_455
Mg1_1 Yb0_3 3.255793 1_555
Mg1_2 Yb2_6 3.242750 1_455
Mg1_2 Yb2_0 3.242750 1_565
Mg1_2 Yb3_0 3.253062 1_565
Mg1_2 Yb3_6 3.253062 1_455
Mg1_2 Yb0_7 3.255793 1_454
Mg1_2 Yb0_1 3.255793 1_564
Mg1_2 Yb0_6 3.255793 1_455
Mg1_2 Yb0_0 3.255793 1_565
Mg1_3 Yb2_7 3.242750 1_455
Mg1_3 Yb2_1 3.242750 1_565
Mg1_3 Yb3_1 3.253062 1_565
Mg1_3 Yb3_7 3.253062 1_455
Mg1_3 Yb0_0 3.255793 1_565
Mg1_3 Yb0_6 3.255793 1_455
Mg1_3 Yb0_7 3.255793 1_455
Mg1_3 Yb0_1 3.255793 1_565
Mg1_4 Yb2_0 3.242750 1_555
Mg1_4 Yb2_6 3.242750 1_555
Mg1_4 Yb3_0 3.253062 1_555
Mg1_4 Yb3_6 3.253062 1_555
Mg1_4 Yb0_1 3.255793 1_554
Mg1_4 Yb0_7 3.255793 1_554
Mg1_4 Yb0_0 3.255793 1_555
Mg1_4 Yb0_6 3.255793 1_555
Mg1_5 Yb2_1 3.242750 1_555
Mg1_5 Yb2_7 3.242750 1_555
Mg1_5 Yb3_1 3.253062 1_555
Mg1_5 Yb3_7 3.253062 1_555
Mg1_5 Yb0_6 3.255793 1_555
Mg1_5 Yb0_0 3.255793 1_555
Mg1_5 Yb0_1 3.255793 1_555
Mg1_5 Yb0_7 3.255793 1_555
Mg1_6 Yb2_4 3.242750 1_565
Mg1_6 Yb2_2 3.242750 1_555
Mg1_6 Yb3_2 3.253062 1_555
Mg1_6 Yb3_4 3.253062 1_565
Mg1_6 Yb0_5 3.255793 1_564
Mg1_6 Yb0_3 3.255793 1_554
Mg1_6 Yb0_4 3.255793 1_565
Mg1_6 Yb0_2 3.255793 1_555
Mg1_7 Yb2_5 3.242750 1_565
Mg1_7 Yb2_3 3.242750 1_555
Mg1_7 Yb3_3 3.253062 1_555
Mg1_7 Yb3_5 3.253062 1_565
Mg1_7 Yb0_4 3.255793 1_565
Mg1_7 Yb0_2 3.255793 1_555
Mg1_7 Yb0_5 3.255793 1_565
Mg1_7 Yb0_3 3.255793 1_555
