# generated using pymatgen
data_YCoNi
_symmetry_space_group_name_H-M   'P 1'
_cell_length_a   5.06296441
_cell_length_b   5.06296441
_cell_length_c   5.06296441
_cell_angle_alpha   120.45133581
_cell_angle_beta   120.06109886
_cell_angle_gamma   89.55712332
_symmetry_Int_Tables_number   1
_chemical_formula_structural   YCoNi
_chemical_formula_sum   'Y2 Co2 Ni2'
_cell_volume   91.41006999
_cell_formula_units_Z   2
loop_
 _symmetry_equiv_pos_site_id
 _symmetry_equiv_pos_as_xyz
  1  'x, y, z'
loop_
 _atom_site_type_symbol
 _atom_site_label
 _atom_site_symmetry_multiplicity
 _atom_site_fract_x
 _atom_site_fract_y
 _atom_site_fract_z
 _atom_site_occupancy
  Y  Y0  1  0.37399400  0.12399400  0.25000000  1
  Y  Y1  1  0.62600600  0.87600600  0.75000000  1
  Co  Co0  1  0.00000000  0.00000000  0.50000000  1
  Co  Co1  1  0.00000000  0.50000000  0.00000000  1
  Ni  Ni0  1  0.00000000  0.50000000  0.50000000  1
  Ni  Ni1  1  0.50000000  0.50000000  0.00000000  1
loop_
_geom_bond_atom_site_label_1
_geom_bond_atom_site_label_2
_geom_bond_distance
_geom_bond_site_symmetry_2
Co0 Co1 2.514193 1_545
Co0 Co1 2.514193 1_556
Co0 Ni0 2.531482 1_555
Co0 Ni1 2.531482 1_556
Co0 Ni0 2.531482 1_545
Co0 Ni1 2.531482 1_445
Co0 Y1 2.965999 1_444
Co0 Y1 2.965999 1_545
Co0 Y0 2.965999 1_556
Co0 Y0 2.965999 1_455
Co0 Y0 2.967582 1_555
Co0 Y1 2.967582 1_445
Co1 Ni0 2.531482 1_554
Co1 Ni1 2.531482 1_455
Co1 Ni0 2.531482 1_555
Co1 Ni1 2.531482 1_555
Co1 Y1 2.965999 1_454
Co1 Y1 2.965999 1_555
Co1 Y0 2.965999 1_555
Co1 Y0 2.965999 1_454
Co1 Y0 2.967582 1_565
Co1 Y1 2.967582 1_444
Ni0 Ni1 2.529144 1_556
Ni0 Ni1 2.529144 1_455
Ni0 Y1 2.952052 1_444
Ni0 Y0 2.952052 1_566
Ni0 Y1 2.952052 1_455
Ni0 Y0 2.952052 1_555
Ni0 Y1 2.983849 1_555
Ni0 Y0 2.983849 1_455
Ni1 Y0 2.952052 1_554
Ni1 Y1 2.952052 1_555
Ni1 Y0 2.952052 1_565
Ni1 Y1 2.952052 1_544
Ni1 Y0 2.983849 1_555
Ni1 Y1 2.983849 1_554
