# generated using pymatgen
data_Rb3Br2Cl
_symmetry_space_group_name_H-M   'P 1'
_cell_length_a   10.78894802
_cell_length_b   10.78894802
_cell_length_c   10.78894802
_cell_angle_alpha   154.10401359
_cell_angle_beta   154.10401359
_cell_angle_gamma   36.94844049
_symmetry_Int_Tables_number   1
_chemical_formula_structural   Rb3Br2Cl
_chemical_formula_sum   'Rb3 Br2 Cl1'
_cell_volume   239.20662916
_cell_formula_units_Z   1
loop_
 _symmetry_equiv_pos_site_id
 _symmetry_equiv_pos_as_xyz
  1  'x, y, z'
loop_
 _atom_site_type_symbol
 _atom_site_label
 _atom_site_symmetry_multiplicity
 _atom_site_fract_x
 _atom_site_fract_y
 _atom_site_fract_z
 _atom_site_occupancy
  Rb  Rb0  1  0.66363652  0.66363652  0.00000000  1
  Rb  Rb1  1  0.00000000  0.00000000  -0.00000000  1
  Rb  Rb2  1  0.33636348  0.33636348  -0.00000000  1
  Br  Br0  1  0.83309960  0.83309960  0.00000000  1
  Br  Br1  1  0.16690040  0.16690040  -0.00000000  1
  Cl  Cl0  1  0.50000000  0.50000000  -0.00000000  1
loop_
_geom_bond_atom_site_label_1
_geom_bond_atom_site_label_2
_geom_bond_distance
_geom_bond_site_symmetry_2
Br0 Rb1 3.415768 1_665
Br0 Rb2 3.419432 1_554
Br0 Rb2 3.419432 1_666
Br0 Rb2 3.419432 1_565
Br0 Rb2 3.419432 1_655
Br0 Rb0 3.468216 1_555
Br1 Rb1 3.415768 1_555
Br1 Rb0 3.419432 1_455
Br1 Rb0 3.419432 1_556
Br1 Rb0 3.419432 1_444
Br1 Rb0 3.419432 1_545
Br1 Rb2 3.468216 1_555
Cl0 Rb0 3.348970 1_555
Cl0 Rb2 3.348970 1_555
Cl0 Rb1 3.418780 1_554
Cl0 Rb1 3.418780 1_655
Cl0 Rb1 3.418780 1_565
Cl0 Rb1 3.418780 1_666
