# generated using pymatgen
data_CaHo(NiO3)2
_symmetry_space_group_name_H-M   'P 1'
_cell_length_a   5.27592100
_cell_length_b   5.48135200
_cell_length_c   7.43643600
_cell_angle_alpha   90.00000000
_cell_angle_beta   90.00000000
_cell_angle_gamma   90.00000000
_symmetry_Int_Tables_number   1
_chemical_formula_structural   CaHo(NiO3)2
_chemical_formula_sum   'Ca2 Ho2 Ni4 O12'
_cell_volume   215.05563217
_cell_formula_units_Z   2
loop_
 _symmetry_equiv_pos_site_id
 _symmetry_equiv_pos_as_xyz
  1  'x, y, z'
loop_
 _atom_site_type_symbol
 _atom_site_label
 _atom_site_symmetry_multiplicity
 _atom_site_fract_x
 _atom_site_fract_y
 _atom_site_fract_z
 _atom_site_occupancy
  Ca  Ca0  1  0.48727700  0.19140100  0.00000000  1
  Ca  Ca1  1  0.98727700  0.80859900  0.50000000  1
  Ho  Ho0  1  0.01869300  0.68293500  0.00000000  1
  Ho  Ho1  1  0.51869300  0.31706500  0.50000000  1
  Ni  Ni0  1  0.00083200  0.24516200  0.74965300  1
  Ni  Ni1  1  0.00083200  0.24516200  0.25034700  1
  Ni  Ni2  1  0.50083200  0.75483800  0.24965300  1
  Ni  Ni3  1  0.50083200  0.75483800  0.75034700  1
  O  O0  1  0.10246300  0.22666100  0.50000000  1
  O  O1  1  0.19533000  0.94824300  0.79893000  1
  O  O2  1  0.19533000  0.94824300  0.20107000  1
  O  O3  1  0.29210500  0.46204500  0.79660100  1
  O  O4  1  0.29210500  0.46204500  0.20339900  1
  O  O5  1  0.41490700  0.71799600  0.50000000  1
  O  O6  1  0.60246300  0.77333900  0.00000000  1
  O  O7  1  0.69533000  0.05175700  0.29893000  1
  O  O8  1  0.69533000  0.05175700  0.70107000  1
  O  O9  1  0.79210500  0.53795500  0.70339900  1
  O  O10  1  0.79210500  0.53795500  0.29660100  1
  O  O11  1  0.91490700  0.28200400  0.00000000  1
loop_
_geom_bond_atom_site_label_1
_geom_bond_atom_site_label_2
_geom_bond_distance
_geom_bond_site_symmetry_2
Ca0 O11 2.310155 1_555
Ca0 O3 2.355613 1_554
Ca0 O4 2.355613 1_555
Ca0 O6 2.370758 1_545
Ca0 O2 2.526795 1_545
Ca0 O1 2.526795 1_544
Ca0 O8 2.594685 1_554
Ca0 O7 2.594685 1_555
Ca1 O5 2.310155 1_655
Ca1 O10 2.355613 1_555
Ca1 O9 2.355613 1_555
Ca1 O0 2.370758 1_665
Ca1 O7 2.526795 1_565
Ca1 O8 2.526795 1_565
Ca1 O1 2.594685 1_655
Ca1 O2 2.594685 1_655
Ho0 O6 2.251212 1_455
Ho0 O11 2.264833 1_455
Ho0 O1 2.284528 1_554
Ho0 O2 2.284528 1_555
Ho0 O3 2.415499 1_554
Ho0 O4 2.415499 1_555
Ho0 O10 2.631646 1_455
Ho0 O9 2.631646 1_454
Ho1 O0 2.251212 1_555
Ho1 O5 2.264833 1_555
Ho1 O7 2.284528 1_555
Ho1 O8 2.284528 1_555
Ho1 O10 2.415499 1_555
Ho1 O9 2.415499 1_555
Ho1 O3 2.631646 1_555
Ho1 O4 2.631646 1_555
Ni0 O11 1.926702 1_456
Ni0 O0 1.935068 1_555
Ni0 O1 1.958594 1_545
Ni0 O8 1.962727 1_455
Ni0 O3 1.974009 1_555
Ni0 O9 1.976543 1_455
Ni1 O11 1.926702 1_455
Ni1 O0 1.935068 1_555
Ni1 O2 1.958594 1_545
Ni1 O7 1.962727 1_455
Ni1 O4 1.974009 1_555
Ni1 O10 1.976543 1_455
Ni2 O5 1.926702 1_555
Ni2 O6 1.935068 1_555
Ni2 O7 1.958594 1_565
Ni2 O2 1.962727 1_555
Ni2 O10 1.974009 1_555
Ni2 O4 1.976543 1_555
Ni3 O5 1.926702 1_555
Ni3 O6 1.935068 1_556
Ni3 O8 1.958594 1_565
Ni3 O1 1.962727 1_555
Ni3 O9 1.974009 1_555
Ni3 O3 1.976543 1_555
