# generated using pymatgen
data_Tb3Ni19B10
_symmetry_space_group_name_H-M   'P 1'
_cell_length_a   7.89328525
_cell_length_b   7.89328525
_cell_length_c   5.78733382
_cell_angle_alpha   88.89949824
_cell_angle_beta   88.89949824
_cell_angle_gamma   67.14541253
_symmetry_Int_Tables_number   1
_chemical_formula_structural   Tb3Ni19B10
_chemical_formula_sum   'Tb3 Ni19 B10'
_cell_volume   332.17810653
_cell_formula_units_Z   1
loop_
 _symmetry_equiv_pos_site_id
 _symmetry_equiv_pos_as_xyz
  1  'x, y, z'
loop_
 _atom_site_type_symbol
 _atom_site_label
 _atom_site_symmetry_multiplicity
 _atom_site_fract_x
 _atom_site_fract_y
 _atom_site_fract_z
 _atom_site_occupancy
  Tb  Tb0  1  0.00000000  0.00000000  0.00000000  1
  Tb  Tb1  1  0.62553000  0.62553000  0.61496900  1
  Tb  Tb2  1  0.37447000  0.37447000  0.38503100  1
  Ni  Ni0  1  0.00000000  0.00000000  0.50000000  1
  Ni  Ni1  1  0.62219500  0.62219500  0.12701200  1
  Ni  Ni2  1  0.37780500  0.37780500  0.87298800  1
  Ni  Ni3  1  0.16267400  0.16267400  0.29689500  1
  Ni  Ni4  1  0.83732600  0.83732600  0.70310500  1
  Ni  Ni5  1  0.18209200  0.18209200  0.72910000  1
  Ni  Ni6  1  0.81790800  0.81790800  0.27090000  1
  Ni  Ni7  1  0.48272800  0.95532500  0.30199400  1
  Ni  Ni8  1  0.95532500  0.48272800  0.30199400  1
  Ni  Ni9  1  0.51727200  0.04467500  0.69800600  1
  Ni  Ni10  1  0.04467500  0.51727200  0.69800600  1
  Ni  Ni11  1  0.12201100  0.62289000  0.07306500  1
  Ni  Ni12  1  0.62289000  0.12201100  0.07306500  1
  Ni  Ni13  1  0.87798900  0.37711000  0.92693500  1
  Ni  Ni14  1  0.37711000  0.87798900  0.92693500  1
  Ni  Ni15  1  0.77034000  0.28921000  0.30186200  1
  Ni  Ni16  1  0.28921000  0.77034000  0.30186200  1
  Ni  Ni17  1  0.22966000  0.71079000  0.69813800  1
  Ni  Ni18  1  0.71079000  0.22966000  0.69813800  1
  B  B0  1  0.38403300  0.61596700  0.00000000  1
  B  B1  1  0.61596700  0.38403300  0.00000000  1
  B  B2  1  0.65073700  0.85762800  0.97529500  1
  B  B3  1  0.85762800  0.65073700  0.97529500  1
  B  B4  1  0.34926300  0.14237200  0.02470500  1
  B  B5  1  0.14237200  0.34926300  0.02470500  1
  B  B6  1  0.93564400  0.30020800  0.56930500  1
  B  B7  1  0.30020800  0.93564400  0.56930500  1
  B  B8  1  0.06435600  0.69979200  0.43069500  1
  B  B9  1  0.69979200  0.06435600  0.43069500  1
loop_
_geom_bond_atom_site_label_1
_geom_bond_atom_site_label_2
_geom_bond_distance
_geom_bond_site_symmetry_2
Ni0 Tb0 2.893667 1_555
Ni0 Tb0 2.893667 1_556
Ni1 Ni7 2.638660 1_555
Ni1 Ni8 2.638660 1_555
Ni1 Tb1 2.825322 1_555
Ni1 Tb1 2.962677 1_554
Ni2 Ni9 2.638660 1_555
Ni2 Tb2 2.825322 1_555
Ni2 Tb2 2.962677 1_556
Ni3 Ni8 2.418857 1_455
Ni3 Ni7 2.418857 1_545
Ni3 Tb0 2.774889 1_555
Ni3 Tb2 2.843634 1_555
Ni4 Ni9 2.418857 1_565
Ni4 Tb0 2.774889 1_666
Ni4 Tb1 2.843634 1_555
Ni5 Ni9 2.443061 1_555
Ni5 Tb0 2.832182 1_556
Ni5 Tb2 3.183636 1_555
Ni6 Ni8 2.443061 1_555
Ni6 Ni7 2.443061 1_555
Ni6 Tb0 2.832182 1_665
Ni6 Tb1 3.183636 1_555
Ni7 Ni9 2.461668 1_565
Ni7 Tb1 2.990955 1_555
Ni7 Tb2 3.123475 1_565
Ni8 Tb1 2.990955 1_555
Ni8 Tb2 3.123475 1_655
Ni9 Tb2 2.990955 1_555
Ni9 Tb1 3.123475 1_545
Ni10 Ni13 2.391196 1_455
Ni10 Ni4 2.418857 1_455
Ni10 Ni5 2.443061 1_555
Ni10 Ni8 2.461668 1_455
Ni10 Ni17 2.489546 1_555
Ni10 Ni11 2.508949 1_556
Ni10 Ni2 2.638660 1_555
Ni10 Tb2 2.990955 1_555
Ni10 Tb1 3.123475 1_455
Ni11 Ni8 2.391196 1_455
Ni11 Tb0 2.776175 1_565
Ni11 Tb2 2.835934 1_555
Ni12 Ni7 2.391196 1_545
Ni12 Ni9 2.508949 1_554
Ni12 Tb0 2.776175 1_655
Ni12 Tb2 2.835934 1_555
Ni13 Ni8 2.508949 1_556
Ni13 Tb0 2.776175 1_656
Ni13 Tb1 2.835934 1_555
Ni14 Ni9 2.391196 1_565
Ni14 Ni7 2.508949 1_556
Ni14 Tb0 2.776175 1_566
Ni14 Tb1 2.835934 1_555
Ni15 Ni8 2.489546 1_555
Ni15 Tb0 2.892463 1_655
Ni15 Tb2 2.961352 1_555
Ni15 Tb1 3.063575 1_555
Ni16 Ni7 2.489546 1_555
Ni16 Tb0 2.892463 1_565
Ni16 Tb2 2.961352 1_555
Ni16 Tb1 3.063575 1_555
Ni17 Tb0 2.892463 1_566
Ni17 Tb1 2.961352 1_555
Ni17 Tb2 3.063575 1_555
Ni18 Ni9 2.489546 1_555
Ni18 Tb0 2.892463 1_656
Ni18 Tb1 2.961352 1_555
Ni18 Tb2 3.063575 1_555
B0 B1 2.024758 1_555
B0 Ni2 2.050106 1_554
B0 Ni1 2.050106 1_555
B0 Ni11 2.082979 1_555
B0 Ni14 2.082979 1_554
B0 Ni16 2.102379 1_555
B0 Ni17 2.102379 1_554
B0 Tb2 2.923490 1_555
B0 Tb1 2.923490 1_554
B1 Ni2 2.050106 1_554
B1 Ni1 2.050106 1_555
B1 Ni12 2.082979 1_555
B1 Ni13 2.082979 1_554
B1 Ni15 2.102379 1_555
B1 Ni18 2.102379 1_554
B1 Tb2 2.923490 1_555
B1 Tb1 2.923490 1_554
B2 B3 1.806136 1_555
B2 Ni12 2.099449 1_566
B2 Ni4 2.100831 1_555
B2 Ni6 2.123892 1_556
B2 Ni14 2.126222 1_555
B2 Ni1 2.128396 1_556
B2 Ni9 2.151888 1_565
B2 Ni7 2.256866 1_556
B2 Tb1 2.861868 1_555
B3 Ni11 2.099449 1_656
B3 Ni4 2.100831 1_555
B3 Ni6 2.123892 1_556
B3 Ni13 2.126222 1_555
B3 Ni1 2.128396 1_556
B3 Ni10 2.151888 1_655
B3 Ni8 2.256866 1_556
B3 Tb1 2.861868 1_555
B4 B5 1.806136 1_555
B4 Ni14 2.099449 1_544
B4 Ni3 2.100831 1_555
B4 Ni5 2.123892 1_554
B4 Ni12 2.126222 1_555
B4 Ni2 2.128396 1_554
B4 Ni7 2.151888 1_545
B4 Ni9 2.256866 1_554
B4 Tb2 2.861868 1_555
B5 Ni13 2.099449 1_454
B5 Ni3 2.100831 1_555
B5 Ni5 2.123892 1_554
B5 Ni11 2.126222 1_555
B5 Ni2 2.128396 1_554
B5 Ni8 2.151888 1_455
B5 Ni10 2.256866 1_554
B5 Tb2 2.861868 1_555
B6 Ni5 2.033658 1_655
B6 Ni15 2.067938 1_555
B6 Ni8 2.138217 1_555
B6 Ni13 2.157967 1_555
B6 Ni18 2.171864 1_555
B6 Ni0 2.264442 1_655
B6 Ni3 2.306799 1_655
B6 Ni10 2.334531 1_655
B6 Tb1 2.788218 1_555
B7 Ni5 2.033658 1_565
B7 Ni16 2.067938 1_555
B7 Ni7 2.138217 1_555
B7 Ni14 2.157967 1_555
B7 Ni17 2.171864 1_555
B7 Ni0 2.264442 1_565
B7 Ni3 2.306799 1_565
B7 Ni9 2.334531 1_565
B7 Tb1 2.788218 1_555
B8 Ni6 2.033658 1_455
B8 Ni17 2.067938 1_555
B8 Ni10 2.138217 1_555
B8 Ni11 2.157967 1_555
B8 Ni16 2.171864 1_555
B8 Ni0 2.264442 1_565
B8 Ni4 2.306799 1_455
B8 Ni8 2.334531 1_455
B8 Tb2 2.788218 1_555
B9 Ni6 2.033658 1_545
B9 Ni18 2.067938 1_555
B9 Ni9 2.138217 1_555
B9 Ni12 2.157967 1_555
B9 Ni15 2.171864 1_555
B9 Ni0 2.264442 1_655
B9 Ni4 2.306799 1_545
B9 Ni7 2.334531 1_545
B9 Tb2 2.788218 1_555
