# generated using pymatgen
data_CaTiNbInO6
_symmetry_space_group_name_H-M   'P 1'
_cell_length_a   5.66105791
_cell_length_b   5.66105791
_cell_length_c   5.66105791
_cell_angle_alpha   60.00000000
_cell_angle_beta   60.00000000
_cell_angle_gamma   60.00000000
_symmetry_Int_Tables_number   1
_chemical_formula_structural   CaTiNbInO6
_chemical_formula_sum   'Ca1 Ti1 Nb1 In1 O6'
_cell_volume   128.28556634
_cell_formula_units_Z   1
loop_
 _symmetry_equiv_pos_site_id
 _symmetry_equiv_pos_as_xyz
  1  'x, y, z'
loop_
 _atom_site_type_symbol
 _atom_site_label
 _atom_site_symmetry_multiplicity
 _atom_site_fract_x
 _atom_site_fract_y
 _atom_site_fract_z
 _atom_site_occupancy
  Ca  Ca0  1  0.25000000  0.25000000  0.25000000  1
  Ti  Ti0  1  0.50000000  0.50000000  0.50000000  1
  Nb  Nb0  1  -0.00000000  -0.00000000  -0.00000000  1
  In  In0  1  0.75000000  0.75000000  0.75000000  1
  O  O0  1  0.74773242  0.25226758  0.25226758  1
  O  O1  1  0.25226758  0.74773242  0.74773242  1
  O  O2  1  0.74773242  0.25226758  0.74773242  1
  O  O3  1  0.25226758  0.74773242  0.25226758  1
  O  O4  1  0.74773242  0.74773242  0.25226758  1
  O  O5  1  0.25226758  0.25226758  0.74773242  1
loop_
_geom_bond_atom_site_label_1
_geom_bond_atom_site_label_2
_geom_bond_distance
_geom_bond_site_symmetry_2
Ca0 O0 2.830587 1_555
Ca0 O2 2.830587 1_455
Ca0 O5 2.830587 1_555
Ca0 O3 2.830587 1_555
Ca0 O0 2.830587 1_455
Ca0 O4 2.830587 1_545
Ca0 O4 2.830587 1_455
Ca0 O1 2.830587 1_554
Ca0 O2 2.830587 1_554
Ca0 O1 2.830587 1_545
Ca0 O3 2.830587 1_545
Ca0 O5 2.830587 1_554
Nb0 O0 2.019640 1_455
Nb0 O3 2.019640 1_545
Nb0 O5 2.019640 1_554
Nb0 O2 2.019640 1_454
Nb0 O4 2.019640 1_445
Nb0 O1 2.019640 1_544
In0 O2 2.830587 1_555
In0 O2 2.830587 1_565
In0 O3 2.830587 1_556
In0 O0 2.830587 1_556
In0 O1 2.830587 1_555
In0 O3 2.830587 1_655
In0 O0 2.830587 1_565
In0 O1 2.830587 1_655
In0 O4 2.830587 1_556
In0 O5 2.830587 1_655
In0 O5 2.830587 1_565
In0 O4 2.830587 1_555
O0 Ti0 1.983332 1_555
O1 Ti0 1.983332 1_555
O2 Ti0 1.983332 1_555
O3 Ti0 1.983332 1_555
O4 Ti0 1.983332 1_555
O5 Ti0 1.983332 1_555
