# generated using pymatgen
data_PmGe3
_symmetry_space_group_name_H-M   'P 1'
_cell_length_a   6.19507907
_cell_length_b   6.19512167
_cell_length_c   5.05262318
_cell_angle_alpha   89.99912823
_cell_angle_beta   90.00070751
_cell_angle_gamma   119.99988383
_symmetry_Int_Tables_number   1
_chemical_formula_structural   PmGe3
_chemical_formula_sum   'Pm2 Ge6'
_cell_volume   167.93636342
_cell_formula_units_Z   2
loop_
 _symmetry_equiv_pos_site_id
 _symmetry_equiv_pos_as_xyz
  1  'x, y, z'
loop_
 _atom_site_type_symbol
 _atom_site_label
 _atom_site_symmetry_multiplicity
 _atom_site_fract_x
 _atom_site_fract_y
 _atom_site_fract_z
 _atom_site_occupancy
  Pm  Pm0  1  0.33332727  0.66667016  0.75000788  1
  Pm  Pm1  1  0.66667319  0.33332974  0.24999198  1
  Ge  Ge0  1  0.14442911  0.28884183  0.24999963  1
  Ge  Ge1  1  0.71116055  0.85557336  0.25000034  1
  Ge  Ge2  1  0.14441702  0.85558514  0.25000766  1
  Ge  Ge3  1  0.85557140  0.71115820  0.74999982  1
  Ge  Ge4  1  0.28884009  0.14442677  0.74999911  1
  Ge  Ge5  1  0.85558336  0.14441481  0.74999258  1
loop_
_geom_bond_atom_site_label_1
_geom_bond_atom_site_label_2
_geom_bond_distance
_geom_bond_site_symmetry_2
Ge0 Ge2 2.684040 1_545
Ge0 Ge1 2.684147 1_445
Ge0 Ge4 2.963667 1_555
Ge0 Ge4 2.963714 1_554
Ge0 Ge5 2.963721 1_455
Ge0 Ge5 2.963767 1_454
Ge0 Pm1 3.106722 1_455
Ge0 Pm1 3.106722 1_555
Ge0 Pm0 3.238993 1_554
Ge0 Pm0 3.239091 1_555
Ge1 Ge2 2.684022 1_655
Ge1 Ge3 2.963667 1_555
Ge1 Ge3 2.963713 1_554
Ge1 Ge5 2.963718 1_565
Ge1 Ge5 2.963757 1_564
Ge1 Pm1 3.106742 1_565
Ge1 Pm1 3.106744 1_555
Ge1 Pm0 3.239011 1_554
Ge1 Pm0 3.239088 1_555
Ge2 Ge4 2.963715 1_565
Ge2 Ge3 2.963717 1_455
Ge2 Ge4 2.963761 1_564
Ge2 Ge3 2.963770 1_454
Ge2 Pm1 3.106747 1_455
Ge2 Pm1 3.106748 1_565
Ge2 Pm0 3.239000 1_555
Ge2 Pm0 3.239049 1_554
Ge3 Ge5 2.684040 1_565
Ge3 Ge4 2.684147 1_665
Ge3 Pm0 3.106722 1_655
Ge3 Pm0 3.106722 1_555
Ge3 Pm1 3.238995 1_556
Ge3 Pm1 3.239089 1_555
Ge4 Ge5 2.684023 1_455
Ge4 Pm0 3.106743 1_545
Ge4 Pm0 3.106743 1_555
Ge4 Pm1 3.239012 1_556
Ge4 Pm1 3.239086 1_555
Ge5 Pm0 3.106747 1_655
Ge5 Pm0 3.106748 1_545
Ge5 Pm1 3.239001 1_555
Ge5 Pm1 3.239047 1_556
