# generated using pymatgen
data_Pr2Bi
_symmetry_space_group_name_H-M   'P 1'
_cell_length_a   9.74263789
_cell_length_b   9.74263789
_cell_length_c   9.74263789
_cell_angle_alpha   152.29147638
_cell_angle_beta   152.29147638
_cell_angle_gamma   39.58780223
_symmetry_Int_Tables_number   1
_chemical_formula_structural   Pr2Bi
_chemical_formula_sum   'Pr4 Bi2'
_cell_volume   199.56376638
_cell_formula_units_Z   2
loop_
 _symmetry_equiv_pos_site_id
 _symmetry_equiv_pos_as_xyz
  1  'x, y, z'
loop_
 _atom_site_type_symbol
 _atom_site_label
 _atom_site_symmetry_multiplicity
 _atom_site_fract_x
 _atom_site_fract_y
 _atom_site_fract_z
 _atom_site_occupancy
  Pr  Pr0  1  -0.00000000  0.50000000  0.50000000  1
  Pr  Pr1  1  0.50000000  -0.00000000  0.50000000  1
  Pr  Pr2  1  0.68002019  0.68002019  -0.00000000  1
  Pr  Pr3  1  0.31997981  0.31997981  0.00000000  1
  Bi  Bi0  1  0.86203564  0.86203564  -0.00000000  1
  Bi  Bi1  1  0.13796436  0.13796436  0.00000000  1
loop_
_geom_bond_atom_site_label_1
_geom_bond_atom_site_label_2
_geom_bond_distance
_geom_bond_site_symmetry_2
Pr0 Pr1 3.299225 1_465
Pr0 Pr1 3.299225 1_555
Pr0 Pr1 3.299225 1_566
Pr0 Pr1 3.299225 1_454
Bi0 Pr2 3.337076 1_555
Bi0 Pr3 3.388128 1_554
Bi0 Pr3 3.388128 1_666
Bi0 Pr3 3.388128 1_655
Bi0 Pr3 3.388128 1_565
Bi0 Pr0 3.441006 1_654
Bi0 Pr1 3.441006 1_564
Bi0 Pr1 3.441006 1_665
Bi0 Pr0 3.441006 1_665
Bi1 Pr3 3.337076 1_555
Bi1 Pr2 3.388128 1_444
Bi1 Pr2 3.388128 1_455
Bi1 Pr2 3.388128 1_556
Bi1 Pr2 3.388128 1_545
Bi1 Pr0 3.441006 1_555
Bi1 Pr1 3.441006 1_555
Bi1 Pr1 3.441006 1_454
Bi1 Pr0 3.441006 1_544
