# generated using pymatgen
data_U2Si3Ni
_symmetry_space_group_name_H-M   'P 1'
_cell_length_a   3.85253300
_cell_length_b   4.00486300
_cell_length_c   6.85259300
_cell_angle_alpha   90.00000000
_cell_angle_beta   90.00000000
_cell_angle_gamma   90.00000000
_symmetry_Int_Tables_number   1
_chemical_formula_structural   U2Si3Ni
_chemical_formula_sum   'U2 Si3 Ni1'
_cell_volume   105.72774510
_cell_formula_units_Z   1
loop_
 _symmetry_equiv_pos_site_id
 _symmetry_equiv_pos_as_xyz
  1  'x, y, z'
loop_
 _atom_site_type_symbol
 _atom_site_label
 _atom_site_symmetry_multiplicity
 _atom_site_fract_x
 _atom_site_fract_y
 _atom_site_fract_z
 _atom_site_occupancy
  U  U0  1  0.00000000  0.50000000  0.99942000  1
  U  U1  1  0.00000000  0.00000000  0.50084200  1
  Si  Si0  1  0.50000000  0.00000000  0.83468500  1
  Si  Si1  1  0.50000000  0.00000000  0.17464300  1
  Si  Si2  1  0.50000000  0.50000000  0.65875800  1
  Ni  Ni0  1  0.50000000  0.50000000  0.33165200  1
loop_
_geom_bond_atom_site_label_1
_geom_bond_atom_site_label_2
_geom_bond_distance
_geom_bond_site_symmetry_2
Si0 Si1 2.329594 1_556
Si0 Si2 2.337327 1_545
Si0 Si2 2.337327 1_555
Si0 U1 2.990657 1_555
Si0 U1 2.990657 1_655
Si0 U0 2.999094 1_645
Si0 U0 2.999094 1_655
Si0 U0 2.999094 1_545
Si0 U0 2.999094 1_555
Si1 U1 2.950781 1_655
Si1 U1 2.950781 1_555
Si1 U0 3.026878 1_644
Si1 U0 3.026878 1_544
Si1 U0 3.026878 1_554
Si1 U0 3.026878 1_654
Si2 U1 2.981820 1_565
Si2 U1 2.981820 1_655
Si2 U1 2.981820 1_665
Si2 U1 2.981820 1_555
Si2 U0 3.026551 1_655
Si2 U0 3.026551 1_555
Ni0 Si2 2.241524 1_555
Ni0 Si1 2.273177 1_565
Ni0 Si1 2.273177 1_555
Ni0 U0 2.982221 1_654
Ni0 U0 2.982221 1_554
Ni0 U1 3.010718 1_565
Ni0 U1 3.010718 1_655
Ni0 U1 3.010718 1_665
Ni0 U1 3.010718 1_555
