# generated using pymatgen
data_KInP2O7
_symmetry_space_group_name_H-M   'P 1'
_cell_length_a   10.61027200
_cell_length_b   7.55636000
_cell_length_c   8.58323726
_cell_angle_alpha   72.99167725
_cell_angle_beta   90.00000000
_cell_angle_gamma   90.00000000
_symmetry_Int_Tables_number   1
_chemical_formula_structural   KInP2O7
_chemical_formula_sum   'K4 In4 P8 O28'
_cell_volume   658.06273625
_cell_formula_units_Z   4
loop_
 _symmetry_equiv_pos_site_id
 _symmetry_equiv_pos_as_xyz
  1  'x, y, z'
loop_
 _atom_site_type_symbol
 _atom_site_label
 _atom_site_symmetry_multiplicity
 _atom_site_fract_x
 _atom_site_fract_y
 _atom_site_fract_z
 _atom_site_occupancy
  K  K0  1  0.32083500  0.17311000  0.43644500  1
  K  K1  1  0.67916500  0.82689000  0.56355500  1
  K  K2  1  0.82083500  0.82689000  0.06355500  1
  K  K3  1  0.17916500  0.17311000  0.93644500  1
  In  In0  1  0.39959700  0.76350700  0.25700300  1
  In  In1  1  0.89959700  0.23649300  0.24299700  1
  In  In2  1  0.60040300  0.23649300  0.74299700  1
  In  In3  1  0.10040300  0.76350700  0.75700300  1
  P  P0  1  0.13809700  0.55816100  0.19405600  1
  P  P1  1  0.63809700  0.44183900  0.30594400  1
  P  P2  1  0.86190300  0.44183900  0.80594400  1
  P  P3  1  0.36190300  0.55816100  0.69405600  1
  P  P4  1  0.40000700  0.87174100  0.82202800  1
  P  P5  1  0.09999300  0.87174100  0.32202800  1
  P  P6  1  0.59999300  0.12825900  0.17797200  1
  P  P7  1  0.90000700  0.12825900  0.67797200  1
  O  O0  1  0.09648000  0.86876700  0.49816000  1
  O  O1  1  0.59648000  0.13123300  0.00184000  1
  O  O2  1  0.90352000  0.13123300  0.50184000  1
  O  O3  1  0.40352000  0.86876700  0.99816000  1
  O  O4  1  0.08124900  0.36342500  0.24044300  1
  O  O5  1  0.58124900  0.63657500  0.25955700  1
  O  O6  1  0.91875100  0.63657500  0.75955700  1
  O  O7  1  0.41875100  0.36342500  0.74044300  1
  O  O8  1  0.10643700  0.67691700  0.02229300  1
  O  O9  1  0.60643700  0.32308300  0.47770700  1
  O  O10  1  0.89356300  0.32308300  0.97770700  1
  O  O11  1  0.39356300  0.67691700  0.52229300  1
  O  O12  1  0.07188700  0.66183200  0.31563300  1
  O  O13  1  0.57188700  0.33816800  0.18436700  1
  O  O14  1  0.92811300  0.33816800  0.68436700  1
  O  O15  1  0.42811300  0.66183200  0.81563300  1
  O  O16  1  0.22070000  0.53836400  0.73786900  1
  O  O17  1  0.72070000  0.46163600  0.76213100  1
  O  O18  1  0.77930000  0.46163600  0.26213100  1
  O  O19  1  0.27930000  0.53836400  0.23786900  1
  O  O20  1  0.50365800  0.99196200  0.71715500  1
  O  O21  1  0.00365800  0.00803800  0.78284500  1
  O  O22  1  0.49634200  0.00803800  0.28284500  1
  O  O23  1  0.99634200  0.99196200  0.21715500  1
  O  O24  1  0.27013000  0.93162000  0.74339000  1
  O  O25  1  0.77013000  0.06838000  0.75661000  1
  O  O26  1  0.72987000  0.06838000  0.25661000  1
  O  O27  1  0.22987000  0.93162000  0.24339000  1
loop_
_geom_bond_atom_site_label_1
_geom_bond_atom_site_label_2
_geom_bond_distance
_geom_bond_site_symmetry_2
K0 O22 2.779166 1_555
K0 O24 2.783484 1_545
K0 O19 2.822193 1_555
K0 O27 2.962449 1_545
K0 O20 3.084200 1_545
K0 O4 3.153586 1_555
K0 O0 3.243962 1_545
K0 O9 3.290485 1_555
K1 O20 2.779166 1_555
K1 O26 2.783484 1_565
K1 O17 2.822193 1_555
K1 O25 2.962449 1_565
K1 O22 3.084200 1_565
K1 O6 3.153586 1_555
K1 O2 3.243962 1_565
K1 O11 3.290485 1_555
K2 O23 2.779166 1_555
K2 O25 2.783484 1_564
K2 O18 2.822193 1_555
K2 O26 2.962449 1_565
K2 O21 3.084200 1_664
K2 O5 3.153586 1_555
K2 O1 3.243962 1_565
K2 O8 3.290485 1_655
K3 O21 2.779166 1_555
K3 O27 2.783484 1_546
K3 O16 2.822193 1_555
K3 O24 2.962449 1_545
K3 O23 3.084200 1_446
K3 O7 3.153586 1_555
K3 O3 3.243962 1_545
K3 O10 3.290485 1_455
In0 O3 2.129922 1_554
In0 O5 2.150098 1_555
In0 O19 2.171146 1_555
In0 O11 2.178427 1_555
In0 O22 2.181028 1_565
In0 O27 2.187143 1_555
In1 O2 2.129922 1_555
In1 O4 2.150098 1_655
In1 O18 2.171146 1_555
In1 O10 2.178427 1_554
In1 O23 2.181028 1_545
In1 O26 2.187143 1_555
In2 O1 2.129922 1_556
In2 O7 2.150098 1_555
In2 O17 2.171146 1_555
In2 O9 2.178427 1_555
In2 O20 2.181028 1_545
In2 O25 2.187143 1_555
In3 O0 2.129922 1_555
In3 O6 2.150098 1_455
In3 O16 2.171146 1_555
In3 O8 2.178427 1_556
In3 O21 2.181028 1_565
In3 O24 2.187143 1_555
O0 P5 1.505824 1_555
O1 P6 1.505824 1_555
O2 P7 1.505824 1_555
O3 P4 1.505824 1_555
O4 P0 1.531303 1_555
O5 P1 1.531303 1_555
O6 P2 1.531303 1_555
O7 P3 1.531303 1_555
O8 P0 1.522383 1_555
O9 P1 1.522383 1_555
O10 P2 1.522383 1_555
O11 P3 1.522383 1_555
O12 P5 1.630565 1_555
O12 P0 1.635351 1_555
O13 P6 1.630565 1_555
O13 P1 1.635351 1_555
O14 P7 1.630565 1_555
O14 P2 1.635351 1_555
O15 P4 1.630565 1_555
O15 P3 1.635351 1_555
O16 P3 1.541265 1_555
O17 P2 1.541265 1_555
O18 P1 1.541265 1_555
O19 P0 1.541265 1_555
O20 P4 1.538381 1_555
O21 P7 1.538381 1_455
O22 P6 1.538381 1_555
O23 P5 1.538381 1_655
O24 P4 1.542923 1_555
O25 P7 1.542923 1_555
O26 P6 1.542923 1_555
O27 P5 1.542923 1_555
