# generated using pymatgen
data_Li2Co(CO3)2
_symmetry_space_group_name_H-M   'P 1'
_cell_length_a   6.66534946
_cell_length_b   9.38282073
_cell_length_c   9.36580159
_cell_angle_alpha   67.13105155
_cell_angle_beta   77.66771840
_cell_angle_gamma   102.83674093
_symmetry_Int_Tables_number   1
_chemical_formula_structural   Li2Co(CO3)2
_chemical_formula_sum   'Li8 Co4 C8 O24'
_cell_volume   496.01457709
_cell_formula_units_Z   4
loop_
 _symmetry_equiv_pos_site_id
 _symmetry_equiv_pos_as_xyz
  1  'x, y, z'
loop_
 _atom_site_type_symbol
 _atom_site_label
 _atom_site_symmetry_multiplicity
 _atom_site_fract_x
 _atom_site_fract_y
 _atom_site_fract_z
 _atom_site_occupancy
  Li  Li0  1  0.17997900  0.96169100  0.59892300  1
  Li  Li1  1  0.16138800  0.45609100  0.10138300  1
  Li  Li2  1  0.24868800  0.84429000  0.23668400  1
  Li  Li3  1  0.25157900  0.34450300  0.73563300  1
  Li  Li4  1  0.73614400  0.50845900  0.90848900  1
  Li  Li5  1  0.73499300  0.00778100  0.40905700  1
  Li  Li6  1  0.75532600  0.66113400  0.25661700  1
  Li  Li7  1  0.75447700  0.16032200  0.75727200  1
  Co  Co0  1  0.99531800  0.00089600  0.00054500  1
  Co  Co1  1  0.50074300  0.25549400  0.24923500  1
  Co  Co2  1  0.99527700  0.50090600  0.50078400  1
  Co  Co3  1  0.49988200  0.75358000  0.75090600  1
  C  C0  1  0.13933000  0.29138900  0.44912800  1
  C  C1  1  0.13921000  0.79137100  0.94917300  1
  C  C2  1  0.35254300  0.20037600  0.04309200  1
  C  C3  1  0.35155700  0.70003800  0.54375800  1
  C  C4  1  0.64793300  0.30543000  0.45468500  1
  C  C5  1  0.64795800  0.80567500  0.95484500  1
  C  C6  1  0.85787700  0.21301300  0.05104100  1
  C  C7  1  0.85622000  0.71263300  0.55069000  1
  O  O0  1  0.11842900  0.41197100  0.33115800  1
  O  O1  1  0.12024900  0.91267800  0.83080200  1
  O  O2  1  0.09525900  0.28960200  0.59339700  1
  O  O3  1  0.09405800  0.78924500  0.09355200  1
  O  O4  1  0.19525500  0.17588800  0.42869500  1
  O  O5  1  0.19409000  0.67529000  0.92917200  1
  O  O6  1  0.29315800  0.18024800  0.92783600  1
  O  O7  1  0.29317600  0.68054900  0.42794300  1
  O  O8  1  0.39829300  0.34489200  0.04126800  1
  O  O9  1  0.39654900  0.84418300  0.54275300  1
  O  O10  1  0.37493000  0.08320700  0.16304100  1
  O  O11  1  0.37414500  0.58269700  0.66335400  1
  O  O12  1  0.62701100  0.42470700  0.33490400  1
  O  O13  1  0.62418400  0.92414100  0.83598600  1
  O  O14  1  0.61102000  0.16526200  0.45078400  1
  O  O15  1  0.61404000  0.66602500  0.95029300  1
  O  O16  1  0.81784600  0.33453100  0.07139900  1
  O  O17  1  0.81264400  0.83275800  0.57113100  1
  O  O18  1  0.69699700  0.32320200  0.57463400  1
  O  O19  1  0.69706300  0.82400800  0.07460400  1
  O  O20  1  0.89634700  0.21513400  0.90755500  1
  O  O21  1  0.89755800  0.71528000  0.40674900  1
  O  O22  1  0.87022400  0.08874900  0.17028000  1
  O  O23  1  0.86894700  0.58839500  0.66990300  1
loop_
_geom_bond_atom_site_label_1
_geom_bond_atom_site_label_2
_geom_bond_distance
_geom_bond_site_symmetry_2
Li0 O1 1.964551 1_555
Li0 O4 1.985110 1_565
Li0 O9 2.099945 1_555
Li0 O17 2.593614 1_455
Li1 O0 1.968822 1_555
Li1 O5 1.987780 1_554
Li1 O8 2.169770 1_555
Li1 O16 2.446673 1_455
Li2 O10 1.980204 1_565
Li2 O7 1.986790 1_555
Li2 O3 2.004463 1_555
Li2 O21 2.264943 1_455
Li3 O11 1.974112 1_555
Li3 O6 1.984708 1_555
Li3 O2 2.003343 1_555
Li3 O20 2.290752 1_455
Li4 O15 1.962095 1_555
Li4 O23 1.974012 1_555
Li4 O16 2.025407 1_556
Li4 O8 2.181184 1_556
Li5 O14 1.967821 1_555
Li5 O22 1.976100 1_555
Li5 O17 2.011135 1_545
Li5 O9 2.184907 1_545
Li6 O12 1.953209 1_555
Li6 O19 1.978357 1_555
Li6 O21 2.011128 1_555
Li6 O3 2.183838 1_655
Li7 O13 1.951949 1_545
Li7 O18 1.979047 1_555
Li7 O20 2.013671 1_555
Li7 O2 2.196801 1_655
Co0 O19 2.058613 1_545
Co0 O6 2.069796 1_654
Co0 O3 2.148666 1_645
Co0 O22 2.158605 1_555
Co0 O1 2.160908 1_644
Co0 O20 2.169869 1_554
Co1 O4 2.101308 1_555
Co1 O14 2.108883 1_555
Co1 O8 2.125214 1_555
Co1 O12 2.134882 1_555
Co1 O16 2.152006 1_555
Co1 O10 2.160842 1_555
Co2 O18 2.062631 1_555
Co2 O7 2.071127 1_655
Co2 O2 2.150502 1_655
Co2 O23 2.154014 1_555
Co2 O0 2.161422 1_655
Co2 O21 2.167034 1_555
Co3 O5 2.099833 1_555
Co3 O15 2.105576 1_555
Co3 O9 2.131499 1_555
Co3 O13 2.136939 1_555
Co3 O17 2.138450 1_555
Co3 O11 2.159607 1_555
C0 O4 1.288511 1_555
C0 O0 1.297851 1_555
C0 O2 1.312613 1_555
C1 O5 1.289002 1_555
C1 O1 1.297517 1_555
C1 O3 1.312255 1_556
C2 O6 1.290480 1_554
C2 O10 1.295188 1_555
C2 O8 1.314521 1_555
C3 O7 1.290072 1_555
C3 O11 1.294859 1_555
C3 O9 1.314502 1_555
C4 O18 1.294268 1_555
C4 O14 1.299596 1_555
C4 O12 1.300314 1_555
C5 O19 1.294817 1_556
C5 O15 1.298364 1_555
C5 O13 1.300670 1_555
C6 O22 1.297391 1_555
C6 O16 1.299994 1_555
C6 O20 1.304553 1_554
C7 O17 1.296465 1_555
C7 O23 1.298256 1_555
C7 O21 1.306229 1_555
