# generated using pymatgen
data_NdSiPd2
_symmetry_space_group_name_H-M   'P 1'
_cell_length_a   5.68711758
_cell_length_b   6.91321681
_cell_length_c   7.54267834
_cell_angle_alpha   90.00000000
_cell_angle_beta   90.00000000
_cell_angle_gamma   90.00000000
_symmetry_Int_Tables_number   1
_chemical_formula_structural   NdSiPd2
_chemical_formula_sum   'Nd4 Si4 Pd8'
_cell_volume   296.55002984
_cell_formula_units_Z   4
loop_
 _symmetry_equiv_pos_site_id
 _symmetry_equiv_pos_as_xyz
  1  'x, y, z'
loop_
 _atom_site_type_symbol
 _atom_site_label
 _atom_site_symmetry_multiplicity
 _atom_site_fract_x
 _atom_site_fract_y
 _atom_site_fract_z
 _atom_site_occupancy
  Nd  Nd0  1  0.14613776  0.75000000  0.53058027  1
  Nd  Nd1  1  0.85386224  0.25000000  0.46941973  1
  Nd  Nd2  1  0.64613776  0.25000000  0.96941973  1
  Nd  Nd3  1  0.35386224  0.75000000  0.03058027  1
  Si  Si0  1  0.85146575  0.75000000  0.87414382  1
  Si  Si1  1  0.14853425  0.25000000  0.12585618  1
  Si  Si2  1  0.35146575  0.25000000  0.62585618  1
  Si  Si3  1  0.64853425  0.75000000  0.37414382  1
  Pd  Pd0  1  0.59256614  0.55246503  0.67377270  1
  Pd  Pd1  1  0.40743386  0.44753497  0.32622730  1
  Pd  Pd2  1  0.09256614  0.44753497  0.82622730  1
  Pd  Pd3  1  0.40743386  0.05246503  0.32622730  1
  Pd  Pd4  1  0.90743386  0.55246503  0.17377270  1
  Pd  Pd5  1  0.59256614  0.94753497  0.67377270  1
  Pd  Pd6  1  0.90743386  0.94753497  0.17377270  1
  Pd  Pd7  1  0.09256614  0.05246503  0.82622730  1
loop_
_geom_bond_atom_site_label_1
_geom_bond_atom_site_label_2
_geom_bond_distance
_geom_bond_site_symmetry_2
Nd0 Pd1 2.992722 1_555
Nd0 Pd3 2.992722 1_565
Nd0 Si3 3.066070 1_455
Nd0 Pd7 3.072116 1_565
Nd0 Pd2 3.072116 1_555
Nd0 Pd5 3.078531 1_555
Nd0 Pd0 3.078531 1_555
Nd0 Si0 3.086052 1_455
Nd0 Si3 3.091246 1_555
Nd0 Pd6 3.309198 1_455
Nd0 Pd4 3.309198 1_455
Nd0 Pd0 3.597599 1_455
Nd0 Pd5 3.597599 1_455
Nd1 Pd0 2.992722 1_555
Nd1 Pd5 2.992722 1_545
Nd1 Si2 3.066070 1_655
Nd1 Pd6 3.072116 1_545
Nd1 Pd4 3.072116 1_555
Nd1 Pd1 3.078531 1_555
Nd1 Pd3 3.078531 1_555
Nd1 Si1 3.086052 1_655
Nd1 Si2 3.091246 1_555
Nd1 Pd7 3.309198 1_655
Nd1 Pd2 3.309198 1_655
Nd1 Pd3 3.597599 1_655
Nd1 Pd1 3.597599 1_655
Nd2 Pd6 2.992722 1_546
Nd2 Pd4 2.992722 1_556
Nd2 Si1 3.066070 1_556
Nd2 Pd5 3.072116 1_545
Nd2 Pd0 3.072116 1_555
Nd2 Pd7 3.078531 1_655
Nd2 Pd2 3.078531 1_655
Nd2 Si2 3.086052 1_555
Nd2 Si1 3.091246 1_656
Nd2 Pd3 3.309198 1_556
Nd2 Pd1 3.309198 1_556
Nd2 Pd2 3.597599 1_555
Nd2 Pd7 3.597599 1_555
Nd3 Pd2 2.992722 1_554
Nd3 Pd7 2.992722 1_564
Nd3 Si0 3.066070 1_554
Nd3 Pd1 3.072116 1_555
Nd3 Pd3 3.072116 1_565
Nd3 Pd4 3.078531 1_455
Nd3 Pd6 3.078531 1_455
Nd3 Si3 3.086052 1_555
Nd3 Si0 3.091246 1_454
Nd3 Pd0 3.309198 1_554
Nd3 Pd5 3.309198 1_554
Nd3 Pd6 3.597599 1_555
Nd3 Pd4 3.597599 1_555
Pd0 Si0 2.513353 1_555
Pd0 Si2 2.526466 1_555
Pd0 Si3 2.659662 1_555
Pd0 Pd5 2.731204 1_555
Pd0 Pd1 2.916608 1_555
Pd0 Pd2 3.151880 1_555
Pd0 Pd2 3.151880 1_655
Pd1 Si1 2.513353 1_555
Pd1 Si3 2.526466 1_555
Pd1 Si2 2.659662 1_555
Pd1 Pd3 2.731204 1_555
Pd1 Pd4 3.151880 1_455
Pd1 Pd4 3.151880 1_555
Pd2 Si2 2.513353 1_555
Pd2 Si0 2.526466 1_455
Pd2 Si1 2.659662 1_556
Pd2 Pd7 2.731204 1_555
Pd2 Pd4 2.916608 1_456
Pd3 Si1 2.513353 1_555
Pd3 Si3 2.526466 1_545
Pd3 Si2 2.659662 1_555
Pd3 Pd5 2.916608 1_545
Pd3 Pd6 3.151880 1_445
Pd3 Pd6 3.151880 1_545
Pd4 Si3 2.513353 1_555
Pd4 Si1 2.526466 1_655
Pd4 Si0 2.659662 1_554
Pd4 Pd6 2.731204 1_555
Pd5 Si0 2.513353 1_555
Pd5 Si2 2.526466 1_565
Pd5 Si3 2.659662 1_555
Pd5 Pd7 3.151880 1_565
Pd5 Pd7 3.151880 1_665
Pd6 Si3 2.513353 1_555
Pd6 Si1 2.526466 1_665
Pd6 Si0 2.659662 1_554
Pd6 Pd7 2.916608 1_664
Pd7 Si2 2.513353 1_555
Pd7 Si0 2.526466 1_445
Pd7 Si1 2.659662 1_556
