# generated using pymatgen
data_Ba3MnF12
_symmetry_space_group_name_H-M   'P 1'
_cell_length_a   8.16736363
_cell_length_b   8.16736363
_cell_length_c   6.80009568
_cell_angle_alpha   88.67356185
_cell_angle_beta   88.67356185
_cell_angle_gamma   119.35473064
_symmetry_Int_Tables_number   1
_chemical_formula_structural   Ba3MnF12
_chemical_formula_sum   'Ba3 Mn1 F12'
_cell_volume   394.94783525
_cell_formula_units_Z   1
loop_
 _symmetry_equiv_pos_site_id
 _symmetry_equiv_pos_as_xyz
  1  'x, y, z'
loop_
 _atom_site_type_symbol
 _atom_site_label
 _atom_site_symmetry_multiplicity
 _atom_site_fract_x
 _atom_site_fract_y
 _atom_site_fract_z
 _atom_site_occupancy
  Ba  Ba0  1  0.00000000  0.00000000  0.50000000  1
  Ba  Ba1  1  0.00000000  0.50000000  0.00000000  1
  Ba  Ba2  1  0.50000000  0.00000000  0.00000000  1
  Mn  Mn0  1  0.00000000  0.00000000  0.00000000  1
  F  F0  1  0.13991100  0.28136000  0.22319400  1
  F  F1  1  0.86008900  0.71864000  0.77680600  1
  F  F2  1  0.72337500  0.29219500  0.22070400  1
  F  F3  1  0.71864000  0.86008900  0.77680600  1
  F  F4  1  0.27662500  0.70780500  0.77929600  1
  F  F5  1  0.28136000  0.13991100  0.22319400  1
  F  F6  1  0.01463000  0.19598000  0.83601200  1
  F  F7  1  0.70780500  0.27662500  0.77929600  1
  F  F8  1  0.98537000  0.80402000  0.16398800  1
  F  F9  1  0.29219500  0.72337500  0.22070400  1
  F  F10  1  0.80402000  0.98537000  0.16398800  1
  F  F11  1  0.19598000  0.01463000  0.83601200  1
loop_
_geom_bond_atom_site_label_1
_geom_bond_atom_site_label_2
_geom_bond_distance
_geom_bond_site_symmetry_2
Ba0 F3 2.693541 1_445
Ba0 F1 2.693541 1_445
Ba0 F5 2.693541 1_555
Ba0 F0 2.693541 1_555
Ba0 F8 2.791345 1_445
Ba0 F10 2.791345 1_445
Ba0 F11 2.791345 1_555
Ba0 F6 2.791345 1_555
Ba1 F2 2.490584 1_455
Ba1 F4 2.490584 1_554
Ba1 F9 2.701846 1_555
Ba1 F7 2.701846 1_454
Ba1 F8 2.799324 1_455
Ba1 F6 2.799324 1_554
Ba1 F0 2.958632 1_555
Ba1 F1 2.958632 1_454
Ba2 F9 2.490584 1_545
Ba2 F7 2.490584 1_554
Ba2 F2 2.701846 1_555
Ba2 F4 2.701846 1_544
Ba2 F11 2.799324 1_554
Ba2 F10 2.799324 1_545
Ba2 F5 2.958632 1_555
Ba2 F3 2.958632 1_544
F0 Mn0 2.560708 1_555
F1 Mn0 2.560708 1_666
F3 Mn0 2.560708 1_666
F5 Mn0 2.560708 1_555
F6 Mn0 1.882426 1_556
F8 Mn0 1.882426 1_665
F10 Mn0 1.882426 1_665
F11 Mn0 1.882426 1_556
