# generated using pymatgen
data_Co4Se3Cl2O9
_symmetry_space_group_name_H-M   'P 1'
_cell_length_a   8.08577100
_cell_length_b   9.83472000
_cell_length_c   14.61249700
_cell_angle_alpha   90.00000000
_cell_angle_beta   90.00000000
_cell_angle_gamma   90.00000000
_symmetry_Int_Tables_number   1
_chemical_formula_structural   Co4Se3Cl2O9
_chemical_formula_sum   'Co16 Se12 Cl8 O36'
_cell_volume   1162.00466664
_cell_formula_units_Z   4
loop_
 _symmetry_equiv_pos_site_id
 _symmetry_equiv_pos_as_xyz
  1  'x, y, z'
loop_
 _atom_site_type_symbol
 _atom_site_label
 _atom_site_symmetry_multiplicity
 _atom_site_fract_x
 _atom_site_fract_y
 _atom_site_fract_z
 _atom_site_occupancy
  Co  Co0  1  0.03329000  0.26524900  0.87301800  1
  Co  Co1  1  0.53329000  0.23475100  0.62698200  1
  Co  Co2  1  0.96671000  0.73475100  0.37301800  1
  Co  Co3  1  0.46671000  0.76524900  0.12698200  1
  Co  Co4  1  0.96671000  0.73475100  0.12698200  1
  Co  Co5  1  0.46671000  0.76524900  0.37301800  1
  Co  Co6  1  0.03329000  0.26524900  0.62698200  1
  Co  Co7  1  0.53329000  0.23475100  0.87301800  1
  Co  Co8  1  0.79627500  0.49891700  0.97761400  1
  Co  Co9  1  0.29627500  0.00108300  0.52238600  1
  Co  Co10  1  0.20372500  0.50108300  0.47761400  1
  Co  Co11  1  0.70372500  0.99891700  0.02238600  1
  Co  Co12  1  0.20372500  0.50108300  0.02238600  1
  Co  Co13  1  0.70372500  0.99891700  0.47761400  1
  Co  Co14  1  0.79627500  0.49891700  0.52238600  1
  Co  Co15  1  0.29627500  0.00108300  0.97761400  1
  Se  Se0  1  0.02815100  0.21239100  0.07810700  1
  Se  Se1  1  0.52815100  0.28760900  0.42189300  1
  Se  Se2  1  0.97184900  0.78760900  0.57810700  1
  Se  Se3  1  0.47184900  0.71239100  0.92189300  1
  Se  Se4  1  0.97184900  0.78760900  0.92189300  1
  Se  Se5  1  0.47184900  0.71239100  0.57810700  1
  Se  Se6  1  0.02815100  0.21239100  0.42189300  1
  Se  Se7  1  0.52815100  0.28760900  0.07810700  1
  Se  Se8  1  0.74341900  0.45782100  0.75000000  1
  Se  Se9  1  0.24341900  0.04217900  0.75000000  1
  Se  Se10  1  0.25658100  0.54217900  0.25000000  1
  Se  Se11  1  0.75658100  0.95782100  0.25000000  1
  Cl  Cl0  1  0.27010900  0.41315900  0.86954700  1
  Cl  Cl1  1  0.77010900  0.08684100  0.63045300  1
  Cl  Cl2  1  0.72989100  0.58684100  0.36954700  1
  Cl  Cl3  1  0.22989100  0.91315900  0.13045300  1
  Cl  Cl4  1  0.72989100  0.58684100  0.13045300  1
  Cl  Cl5  1  0.22989100  0.91315900  0.36954700  1
  Cl  Cl6  1  0.27010900  0.41315900  0.63045300  1
  Cl  Cl7  1  0.77010900  0.08684100  0.86954700  1
  O  O0  1  0.83493800  0.14600700  0.09129400  1
  O  O1  1  0.33493800  0.35399300  0.40870600  1
  O  O2  1  0.16506200  0.85399300  0.59129400  1
  O  O3  1  0.66506200  0.64600700  0.90870600  1
  O  O4  1  0.16506200  0.85399300  0.90870600  1
  O  O5  1  0.66506200  0.64600700  0.59129400  1
  O  O6  1  0.83493800  0.14600700  0.40870600  1
  O  O7  1  0.33493800  0.35399300  0.09129400  1
  O  O8  1  0.86470100  0.41289200  0.84339300  1
  O  O9  1  0.36470100  0.08710800  0.65660700  1
  O  O10  1  0.13529900  0.58710800  0.34339300  1
  O  O11  1  0.63529900  0.91289200  0.15660700  1
  O  O12  1  0.13529900  0.58710800  0.15660700  1
  O  O13  1  0.63529900  0.91289200  0.34339300  1
  O  O14  1  0.86470100  0.41289200  0.65660700  1
  O  O15  1  0.36470100  0.08710800  0.84339300  1
  O  O16  1  0.59489700  0.32686300  0.75000000  1
  O  O17  1  0.09489700  0.17313700  0.75000000  1
  O  O18  1  0.40510300  0.67313700  0.25000000  1
  O  O19  1  0.90510300  0.82686300  0.25000000  1
  O  O20  1  0.99146500  0.36775000  0.01995600  1
  O  O21  1  0.49146500  0.13225000  0.48004400  1
  O  O22  1  0.00853500  0.63225000  0.51995600  1
  O  O23  1  0.50853500  0.86775000  0.98004400  1
  O  O24  1  0.00853500  0.63225000  0.98004400  1
  O  O25  1  0.50853500  0.86775000  0.51995600  1
  O  O26  1  0.99146500  0.36775000  0.48004400  1
  O  O27  1  0.49146500  0.13225000  0.01995600  1
  O  O28  1  0.10381900  0.13579800  0.97770000  1
  O  O29  1  0.60381900  0.36420200  0.52230000  1
  O  O30  1  0.89618100  0.86420200  0.47770000  1
  O  O31  1  0.39618100  0.63579800  0.02230000  1
  O  O32  1  0.89618100  0.86420200  0.02230000  1
  O  O33  1  0.39618100  0.63579800  0.47770000  1
  O  O34  1  0.10381900  0.13579800  0.52230000  1
  O  O35  1  0.60381900  0.36420200  0.97770000  1
loop_
_geom_bond_atom_site_label_1
_geom_bond_atom_site_label_2
_geom_bond_distance
_geom_bond_site_symmetry_2
Co0 O8 2.038141 1_455
Co0 O28 2.070246 1_555
Co0 O17 2.073682 1_555
Co0 O20 2.395985 1_456
Co1 O9 2.038141 1_555
Co1 O29 2.070246 1_555
Co1 O16 2.073682 1_555
Co1 O21 2.395985 1_555
Co2 O10 2.038141 1_655
Co2 O30 2.070246 1_555
Co2 O19 2.073682 1_555
Co2 O22 2.395985 1_655
Co3 O11 2.038141 1_555
Co3 O31 2.070246 1_555
Co3 O18 2.073682 1_555
Co3 O23 2.395985 1_554
Co4 O12 2.038141 1_655
Co4 O32 2.070246 1_555
Co4 O19 2.073682 1_555
Co4 O24 2.395985 1_654
Co5 O13 2.038141 1_555
Co5 O33 2.070246 1_555
Co5 O18 2.073682 1_555
Co5 O25 2.395985 1_555
Co6 O14 2.038141 1_455
Co6 O34 2.070246 1_555
Co6 O17 2.073682 1_555
Co6 O26 2.395985 1_455
Co7 O15 2.038141 1_555
Co7 O35 2.070246 1_555
Co7 O16 2.073682 1_555
Co7 O27 2.395985 1_556
Co8 O35 2.043756 1_555
Co8 O3 2.057216 1_555
Co8 O20 2.130212 1_556
Co8 O24 2.160182 1_655
Co8 O8 2.206490 1_555
Co9 O34 2.043756 1_555
Co9 O2 2.057216 1_545
Co9 O21 2.130212 1_555
Co9 O25 2.160182 1_545
Co9 O9 2.206490 1_555
Co10 O33 2.043756 1_555
Co10 O1 2.057216 1_555
Co10 O22 2.130212 1_555
Co10 O26 2.160182 1_455
Co10 O10 2.206490 1_555
Co11 O32 2.043756 1_555
Co11 O0 2.057216 1_565
Co11 O23 2.130212 1_554
Co11 O27 2.160182 1_565
Co11 O11 2.206490 1_555
Co12 O31 2.043756 1_555
Co12 O7 2.057216 1_555
Co12 O24 2.130212 1_554
Co12 O20 2.160182 1_455
Co12 O12 2.206490 1_555
Co13 O30 2.043756 1_555
Co13 O6 2.057216 1_565
Co13 O25 2.130212 1_555
Co13 O21 2.160182 1_565
Co13 O13 2.206490 1_555
Co14 O29 2.043756 1_555
Co14 O5 2.057216 1_555
Co14 O26 2.130212 1_555
Co14 O22 2.160182 1_655
Co14 O14 2.206490 1_555
Co15 O28 2.043756 1_555
Co15 O4 2.057216 1_545
Co15 O27 2.130212 1_556
Co15 O23 2.160182 1_545
Co15 O15 2.206490 1_555
Cl0 Co0 2.405264 1_555
Cl0 Co12 2.454329 1_556
Cl0 Co7 2.758558 1_555
Cl1 Co1 2.405264 1_555
Cl1 Co13 2.454329 1_545
Cl1 Co6 2.758558 1_655
Cl2 Co2 2.405264 1_555
Cl2 Co14 2.454329 1_555
Cl2 Co5 2.758558 1_555
Cl3 Co3 2.405264 1_555
Cl3 Co15 2.454329 1_564
Cl3 Co4 2.758558 1_455
Cl4 Co4 2.405264 1_555
Cl4 Co8 2.454329 1_554
Cl4 Co3 2.758558 1_555
Cl5 Co5 2.405264 1_555
Cl5 Co9 2.454329 1_565
Cl5 Co2 2.758558 1_455
Cl6 Co6 2.405264 1_555
Cl6 Co10 2.454329 1_555
Cl6 Co1 2.758558 1_555
Cl7 Co7 2.405264 1_555
Cl7 Co11 2.454329 1_546
Cl7 Co0 2.758558 1_655
O0 Se0 1.704135 1_655
O1 Se1 1.704135 1_555
O2 Se2 1.704135 1_455
O3 Se3 1.704135 1_555
O4 Se4 1.704135 1_455
O5 Se5 1.704135 1_555
O6 Se6 1.704135 1_655
O7 Se7 1.704135 1_555
O8 Se8 1.737629 1_555
O9 Se9 1.737629 1_555
O10 Se10 1.737629 1_555
O11 Se11 1.737629 1_555
O12 Se10 1.737629 1_555
O13 Se11 1.737629 1_555
O14 Se8 1.737629 1_555
O15 Se9 1.737629 1_555
O16 Se8 1.760958 1_555
O17 Se9 1.760958 1_555
O18 Se10 1.760958 1_555
O19 Se11 1.760958 1_555
O20 Se0 1.773288 1_655
O21 Se1 1.773288 1_555
O22 Se2 1.773288 1_455
O23 Se3 1.773288 1_555
O24 Se4 1.773288 1_455
O25 Se5 1.773288 1_555
O26 Se6 1.773288 1_655
O27 Se7 1.773288 1_555
O28 Se0 1.759098 1_556
O29 Se1 1.759098 1_555
O30 Se2 1.759098 1_555
O31 Se3 1.759098 1_554
O32 Se4 1.759098 1_554
O33 Se5 1.759098 1_555
O34 Se6 1.759098 1_555
O35 Se7 1.759098 1_556
