# generated using pymatgen
data_Na6Sm4Ge4Se17
_symmetry_space_group_name_H-M   'P 1'
_cell_length_a   12.81247054
_cell_length_b   12.81247054
_cell_length_c   6.99168961
_cell_angle_alpha   78.20347702
_cell_angle_beta   78.20347702
_cell_angle_gamma   51.53427954
_symmetry_Int_Tables_number   1
_chemical_formula_structural   Na6Sm4Ge4Se17
_chemical_formula_sum   'Na6 Sm4 Ge4 Se17'
_cell_volume   875.20535932
_cell_formula_units_Z   1
loop_
 _symmetry_equiv_pos_site_id
 _symmetry_equiv_pos_as_xyz
  1  'x, y, z'
loop_
 _atom_site_type_symbol
 _atom_site_label
 _atom_site_symmetry_multiplicity
 _atom_site_fract_x
 _atom_site_fract_y
 _atom_site_fract_z
 _atom_site_occupancy
  Na  Na0  1  0.40960200  0.40337200  0.84276900  1
  Na  Na1  1  0.59662800  0.59039800  0.15723100  1
  Na  Na2  1  0.60182800  0.58863100  0.70524500  1
  Na  Na3  1  0.41136900  0.39817200  0.29475500  1
  Na  Na4  1  0.82215500  0.16438800  0.24269500  1
  Na  Na5  1  0.83561200  0.17784500  0.75730500  1
  Sm  Sm0  1  0.67075200  0.94571300  0.42366900  1
  Sm  Sm1  1  0.05428700  0.32924800  0.57633100  1
  Sm  Sm2  1  0.32769700  0.04348900  0.08435200  1
  Sm  Sm3  1  0.95651100  0.67230300  0.91564800  1
  Ge  Ge0  1  0.34724400  0.94939300  0.61908200  1
  Ge  Ge1  1  0.05060700  0.65275600  0.38091800  1
  Ge  Ge2  1  0.64562800  0.05238300  0.88937100  1
  Ge  Ge3  1  0.94761700  0.35437200  0.11062900  1
  Se  Se0  1  0.62383100  0.18305700  0.57939300  1
  Se  Se1  1  0.81694300  0.37616900  0.42060700  1
  Se  Se2  1  0.36243300  0.82383800  0.92306400  1
  Se  Se3  1  0.17616200  0.63756700  0.07693600  1
  Se  Se4  1  0.86745500  0.65254800  0.34922500  1
  Se  Se5  1  0.34745200  0.13254500  0.65077500  1
  Se  Se6  1  0.13485500  0.34505300  0.14492200  1
  Se  Se7  1  0.65494700  0.86514500  0.85507800  1
  Se  Se8  1  0.52890400  0.82437100  0.37526100  1
  Se  Se9  1  0.17562900  0.47109600  0.62473900  1
  Se  Se10  1  0.46584800  0.16159300  0.14034500  1
  Se  Se11  1  0.83840700  0.53415200  0.85965500  1
  Se  Se12  1  0.84223600  0.95201200  0.04125600  1
  Se  Se13  1  0.04798800  0.15776400  0.95874400  1
  Se  Se14  1  0.15277500  0.05685600  0.45879700  1
  Se  Se15  1  0.94314400  0.84722500  0.54120300  1
  Se  Se16  1  0.61175400  0.38824600  0.00000000  1
loop_
_geom_bond_atom_site_label_1
_geom_bond_atom_site_label_2
_geom_bond_distance
_geom_bond_site_symmetry_2
Na0 Se16 2.899495 1_556
Na0 Se0 3.051631 1_555
Na0 Se3 3.077514 1_556
Na0 Se10 3.105610 1_556
Na0 Se9 3.186668 1_555
Na1 Se16 2.899495 1_555
Na1 Se1 3.051631 1_555
Na1 Se2 3.077514 1_554
Na1 Se11 3.105610 1_554
Na1 Se8 3.186668 1_555
Na2 Se16 2.896977 1_556
Na2 Se11 3.039461 1_555
Na2 Se2 3.045637 1_555
Na2 Se1 3.099249 1_555
Na2 Se8 3.136878 1_555
Na3 Se16 2.896977 1_555
Na3 Se10 3.039461 1_555
Na3 Se3 3.045637 1_555
Na3 Se0 3.099249 1_555
Na3 Se9 3.136878 1_555
Na4 Se16 2.938367 1_555
Na4 Se0 3.013969 1_555
Na4 Se13 3.120171 1_654
Na4 Se12 3.162556 1_545
Na4 Se1 3.167833 1_555
Na5 Se16 2.938367 1_556
Na5 Se1 3.013969 1_555
Na5 Se12 3.120171 1_546
Na5 Se13 3.162556 1_655
Na5 Se0 3.167833 1_555
Ge0 Se2 2.350426 1_555
Ge0 Se14 2.366985 1_565
Ge0 Se8 2.396899 1_555
Ge0 Se5 2.403416 1_565
Ge1 Se3 2.350426 1_555
Ge1 Se15 2.366985 1_455
Ge1 Se9 2.396899 1_555
Ge1 Se4 2.403416 1_455
Ge2 Se12 2.373225 1_546
Ge2 Se10 2.384166 1_556
Ge2 Se7 2.386206 1_545
Ge2 Se0 2.400069 1_555
Ge3 Se13 2.373225 1_654
Ge3 Se11 2.384166 1_554
Ge3 Se6 2.386206 1_655
Ge3 Se1 2.400069 1_555
Se0 Sm0 3.099360 1_545
Se1 Sm1 3.099360 1_655
Se2 Sm2 2.987309 1_566
Se3 Sm3 2.987309 1_454
Se4 Sm3 3.030993 1_554
Se4 Sm0 3.035985 1_555
Se4 Sm1 3.455238 1_655
Se5 Sm2 3.030993 1_556
Se5 Sm1 3.035985 1_555
Se5 Sm0 3.455238 1_545
Se6 Sm1 2.990280 1_555
Se6 Sm2 3.094721 1_555
Se6 Sm3 3.493040 1_454
Se7 Sm0 2.990280 1_555
Se7 Sm3 3.094721 1_555
Se7 Sm2 3.493040 1_566
Se8 Sm2 3.077273 1_565
Se8 Sm0 3.133132 1_555
Se9 Sm3 3.077273 1_455
Se9 Sm1 3.133132 1_555
Se10 Sm0 3.052694 1_545
Se10 Sm2 3.071471 1_555
Se11 Sm1 3.052694 1_655
Se11 Sm3 3.071471 1_555
Se12 Sm0 3.116584 1_555
Se12 Sm3 3.160934 1_554
Se13 Sm1 3.116584 1_555
Se13 Sm2 3.160934 1_556
Se14 Sm2 3.035283 1_555
Se14 Sm1 3.117296 1_555
Se15 Sm3 3.035283 1_555
Se15 Sm0 3.117296 1_555
