# generated using pymatgen
data_Sr3Ho2(BO3)4
_symmetry_space_group_name_H-M   'P 1'
_cell_length_a   7.38784500
_cell_length_b   8.68885700
_cell_length_c   16.33378200
_cell_angle_alpha   90.00000000
_cell_angle_beta   90.00000000
_cell_angle_gamma   90.00000000
_symmetry_Int_Tables_number   1
_chemical_formula_structural   Sr3Ho2(BO3)4
_chemical_formula_sum   'Sr12 Ho8 B16 O48'
_cell_volume   1048.49697025
_cell_formula_units_Z   4
loop_
 _symmetry_equiv_pos_site_id
 _symmetry_equiv_pos_as_xyz
  1  'x, y, z'
loop_
 _atom_site_type_symbol
 _atom_site_label
 _atom_site_symmetry_multiplicity
 _atom_site_fract_x
 _atom_site_fract_y
 _atom_site_fract_z
 _atom_site_occupancy
  Sr  Sr0  1  0.02912500  0.33080700  0.45692300  1
  Sr  Sr1  1  0.97087500  0.66919300  0.95692300  1
  Sr  Sr2  1  0.52912500  0.16919300  0.45692300  1
  Sr  Sr3  1  0.47087500  0.83080700  0.95692300  1
  Sr  Sr4  1  0.17801600  0.84777100  0.41351200  1
  Sr  Sr5  1  0.82198400  0.15222900  0.91351200  1
  Sr  Sr6  1  0.67801600  0.65222900  0.41351200  1
  Sr  Sr7  1  0.32198400  0.34777100  0.91351200  1
  Sr  Sr8  1  0.31508300  0.35323400  0.66382600  1
  Sr  Sr9  1  0.68491700  0.64676600  0.16382600  1
  Sr  Sr10  1  0.81508300  0.14676600  0.66382600  1
  Sr  Sr11  1  0.18491700  0.85323400  0.16382600  1
  Ho  Ho0  1  0.31758800  0.46583600  0.28870200  1
  Ho  Ho1  1  0.68241200  0.53416400  0.78870200  1
  Ho  Ho2  1  0.81758800  0.03416400  0.28870200  1
  Ho  Ho3  1  0.18241200  0.96583600  0.78870200  1
  Ho  Ho4  1  0.02753400  0.33013000  0.11952700  1
  Ho  Ho5  1  0.97246600  0.66987000  0.61952700  1
  Ho  Ho6  1  0.52753400  0.16987000  0.11952700  1
  Ho  Ho7  1  0.47246600  0.83013000  0.61952700  1
  B  B0  1  0.17049700  0.06410500  0.99918900  1
  B  B1  1  0.82950300  0.93589500  0.49918900  1
  B  B2  1  0.67049700  0.43589500  0.99918900  1
  B  B3  1  0.32950300  0.56410500  0.49918900  1
  B  B4  1  0.00570700  0.37462000  0.78497900  1
  B  B5  1  0.99429300  0.62538000  0.28497900  1
  B  B6  1  0.50570700  0.12538000  0.78497900  1
  B  B7  1  0.49429300  0.87462000  0.28497900  1
  B  B8  1  0.16037200  0.04439500  0.58699700  1
  B  B9  1  0.83962800  0.95560500  0.08699700  1
  B  B10  1  0.66037200  0.45560500  0.58699700  1
  B  B11  1  0.33962800  0.54439500  0.08699700  1
  B  B12  1  0.21128100  0.15200100  0.28629400  1
  B  B13  1  0.78871900  0.84799900  0.78629400  1
  B  B14  1  0.71128100  0.34799900  0.28629400  1
  B  B15  1  0.28871900  0.65200100  0.78629400  1
  O  O0  1  0.23494000  0.22748900  0.21199700  1
  O  O1  1  0.76506000  0.77251100  0.71199700  1
  O  O2  1  0.73494000  0.27251100  0.21199700  1
  O  O3  1  0.26506000  0.72748900  0.71199700  1
  O  O4  1  0.09526000  0.19277200  0.58351000  1
  O  O5  1  0.90474000  0.80722800  0.08351000  1
  O  O6  1  0.59526000  0.30722800  0.58351000  1
  O  O7  1  0.40474000  0.69277200  0.08351000  1
  O  O8  1  0.08674500  0.20782600  0.00404500  1
  O  O9  1  0.91325500  0.79217400  0.50404500  1
  O  O10  1  0.58674500  0.29217400  0.00404500  1
  O  O11  1  0.41325500  0.70782600  0.50404500  1
  O  O12  1  0.12189700  0.01388500  0.29173700  1
  O  O13  1  0.87810300  0.98611500  0.79173700  1
  O  O14  1  0.62189700  0.48611500  0.29173700  1
  O  O15  1  0.37810300  0.51388500  0.79173700  1
  O  O16  1  0.19785900  0.49759600  0.03732300  1
  O  O17  1  0.80214100  0.50240400  0.53732300  1
  O  O18  1  0.69785900  0.00240400  0.03732300  1
  O  O19  1  0.30214100  0.99759600  0.53732300  1
  O  O20  1  0.11102800  0.24220400  0.78358900  1
  O  O21  1  0.88897200  0.75779600  0.28358900  1
  O  O22  1  0.61102800  0.25779600  0.78358900  1
  O  O23  1  0.38897200  0.74220400  0.28358900  1
  O  O24  1  0.04732400  0.54759200  0.21323800  1
  O  O25  1  0.95267600  0.45240800  0.71323800  1
  O  O26  1  0.54732400  0.95240800  0.21323800  1
  O  O27  1  0.45267600  0.04759200  0.71323800  1
  O  O28  1  0.27386600  0.22864300  0.35410300  1
  O  O29  1  0.72613400  0.77135700  0.85410300  1
  O  O30  1  0.77386600  0.27135700  0.35410300  1
  O  O31  1  0.22613400  0.72864300  0.85410300  1
  O  O32  1  0.38233900  0.46541500  0.43798400  1
  O  O33  1  0.61766100  0.53458500  0.93798400  1
  O  O34  1  0.88233900  0.03458500  0.43798400  1
  O  O35  1  0.11766100  0.96541500  0.93798400  1
  O  O36  1  0.41271400  0.44180300  0.14404800  1
  O  O37  1  0.58728600  0.55819700  0.64404800  1
  O  O38  1  0.91271400  0.05819700  0.14404800  1
  O  O39  1  0.08728600  0.94180300  0.64404800  1
  O  O40  1  0.30957900  0.03195000  0.05394600  1
  O  O41  1  0.69042100  0.96805000  0.55394600  1
  O  O42  1  0.80957900  0.46805000  0.05394600  1
  O  O43  1  0.19042100  0.53195000  0.55394600  1
  O  O44  1  0.06574100  0.56934500  0.35753000  1
  O  O45  1  0.93425900  0.43065500  0.85753000  1
  O  O46  1  0.56574100  0.93065500  0.35753000  1
  O  O47  1  0.43425900  0.06934500  0.85753000  1
loop_
_geom_bond_atom_site_label_1
_geom_bond_atom_site_label_2
_geom_bond_distance
_geom_bond_site_symmetry_2
Ho0 O14 2.255627 1_555
Ho0 O28 2.343703 1_555
Ho0 O44 2.352574 1_555
Ho0 O24 2.451660 1_555
Ho0 O23 2.459969 1_555
Ho0 O36 2.473878 1_555
Ho0 O32 2.484824 1_555
Ho0 O0 2.496282 1_555
Ho1 O15 2.255627 1_555
Ho1 O29 2.343703 1_555
Ho1 O45 2.352574 1_555
Ho1 O25 2.451660 1_555
Ho1 O22 2.459969 1_555
Ho1 O37 2.473878 1_555
Ho1 O33 2.484824 1_555
Ho1 O1 2.496282 1_555
Ho2 O12 2.255627 1_655
Ho2 O30 2.343703 1_555
Ho2 O46 2.352574 1_545
Ho2 O26 2.451660 1_545
Ho2 O21 2.459969 1_545
Ho2 O38 2.473878 1_555
Ho2 O34 2.484824 1_555
Ho2 O2 2.496282 1_555
Ho3 O13 2.255627 1_455
Ho3 O31 2.343703 1_555
Ho3 O47 2.352574 1_565
Ho3 O27 2.451660 1_565
Ho3 O20 2.459969 1_565
Ho3 O39 2.473878 1_555
Ho3 O35 2.484824 1_555
Ho3 O3 2.496282 1_555
Ho4 O8 2.208759 1_555
Ho4 O42 2.275154 1_455
Ho4 O0 2.329060 1_555
Ho4 O16 2.345962 1_555
Ho4 O24 2.436078 1_555
Ho4 O38 2.542193 1_455
Ho4 O2 2.684137 1_455
Ho5 O9 2.208759 1_555
Ho5 O43 2.275154 1_655
Ho5 O1 2.329060 1_555
Ho5 O17 2.345962 1_555
Ho5 O25 2.436078 1_555
Ho5 O39 2.542193 1_655
Ho5 O3 2.684137 1_655
Ho6 O10 2.208759 1_555
Ho6 O40 2.275154 1_555
Ho6 O2 2.329060 1_555
Ho6 O18 2.345962 1_555
Ho6 O26 2.436078 1_545
Ho6 O36 2.542193 1_555
Ho6 O0 2.684137 1_555
Ho7 O11 2.208759 1_555
Ho7 O41 2.275154 1_555
Ho7 O3 2.329060 1_555
Ho7 O19 2.345962 1_555
Ho7 O27 2.436078 1_565
Ho7 O37 2.542193 1_555
Ho7 O1 2.684137 1_555
B0 O35 1.373717 1_545
B0 O40 1.390604 1_556
B0 O8 1.395911 1_556
B1 O34 1.373717 1_565
B1 O41 1.390604 1_555
B1 O9 1.395911 1_555
B2 O33 1.373717 1_555
B2 O42 1.390604 1_556
B2 O10 1.395911 1_556
B3 O32 1.373717 1_555
B3 O43 1.390604 1_555
B3 O11 1.395911 1_555
B4 O45 1.385632 1_455
B4 O20 1.389136 1_555
B4 O25 1.408347 1_455
B5 O44 1.385632 1_655
B5 O21 1.389136 1_555
B5 O24 1.408347 1_655
B6 O47 1.385632 1_555
B6 O22 1.389136 1_555
B6 O27 1.408347 1_555
B7 O46 1.385632 1_555
B7 O23 1.389136 1_555
B7 O26 1.408347 1_555
B8 O4 1.377224 1_555
B8 O19 1.385871 1_545
B8 O39 1.398038 1_545
B9 O5 1.377224 1_555
B9 O18 1.385871 1_565
B9 O38 1.398038 1_565
B10 O6 1.377224 1_555
B10 O17 1.385871 1_555
B10 O37 1.398038 1_555
B11 O7 1.377224 1_555
B11 O16 1.385871 1_555
B11 O36 1.398038 1_555
B12 O28 1.372580 1_555
B12 O12 1.372640 1_555
B12 O0 1.390492 1_555
B13 O29 1.372580 1_555
B13 O13 1.372640 1_555
B13 O1 1.390492 1_555
B14 O30 1.372580 1_555
B14 O14 1.372640 1_555
B14 O2 1.390492 1_555
B15 O31 1.372580 1_555
B15 O15 1.372640 1_555
B15 O3 1.390492 1_555
O4 Sr0 2.439746 1_555
O4 Sr10 2.482999 1_455
O4 Sr8 2.510439 1_555
O5 Sr1 2.439746 1_554
O5 Sr11 2.482999 1_655
O5 Sr9 2.510439 1_555
O6 Sr2 2.439746 1_555
O6 Sr8 2.482999 1_555
O6 Sr10 2.510439 1_555
O7 Sr3 2.439746 1_554
O7 Sr9 2.482999 1_555
O7 Sr11 2.510439 1_555
O8 Sr5 2.499208 1_454
O8 Sr7 2.585649 1_554
O9 Sr4 2.499208 1_655
O9 Sr6 2.585649 1_555
O10 Sr7 2.499208 1_554
O10 Sr5 2.585649 1_554
O11 Sr6 2.499208 1_555
O11 Sr4 2.585649 1_555
O12 Sr4 2.492274 1_545
O12 Sr11 2.555441 1_545
O13 Sr5 2.492274 1_565
O13 Sr10 2.555441 1_565
O14 Sr6 2.492274 1_555
O14 Sr9 2.555441 1_555
O15 Sr7 2.492274 1_555
O15 Sr8 2.555441 1_555
O16 Sr7 2.573971 1_554
O16 Sr1 2.599939 1_454
O17 Sr6 2.573971 1_555
O17 Sr0 2.599939 1_655
O18 Sr5 2.573971 1_554
O18 Sr3 2.599939 1_544
O19 Sr4 2.573971 1_555
O19 Sr2 2.599939 1_565
O20 Sr8 2.651411 1_555
O20 Sr7 2.788147 1_555
O20 Sr10 3.048709 1_455
O21 Sr9 2.651411 1_555
O21 Sr6 2.788147 1_555
O21 Sr11 3.048709 1_655
O22 Sr10 2.651411 1_555
O22 Sr5 2.788147 1_555
O22 Sr8 3.048709 1_555
O23 Sr11 2.651411 1_555
O23 Sr4 2.788147 1_555
O23 Sr9 3.048709 1_555
O24 Sr9 2.926164 1_455
O24 Sr11 2.955897 1_555
O25 Sr8 2.926164 1_655
O25 Sr10 2.955897 1_555
O26 Sr11 2.926164 1_555
O26 Sr9 2.955897 1_555
O27 Sr10 2.926164 1_555
O27 Sr8 2.955897 1_555
O28 Sr2 2.577525 1_555
O28 Sr0 2.622549 1_555
O29 Sr3 2.577525 1_555
O29 Sr1 2.622549 1_555
O30 Sr0 2.577525 1_655
O30 Sr2 2.622549 1_555
O31 Sr1 2.577525 1_455
O31 Sr3 2.622549 1_555
O32 Sr6 2.750678 1_555
O32 Sr2 2.810034 1_555
O32 Sr0 2.876295 1_555
O33 Sr7 2.750678 1_555
O33 Sr3 2.810034 1_555
O33 Sr1 2.876295 1_555
O34 Sr4 2.750678 1_645
O34 Sr0 2.810034 1_655
O34 Sr2 2.876295 1_555
O35 Sr5 2.750678 1_465
O35 Sr1 2.810034 1_455
O35 Sr3 2.876295 1_555
O36 Sr9 2.705557 1_555
O37 Sr8 2.705557 1_555
O38 Sr11 2.705557 1_645
O39 Sr10 2.705557 1_465
O40 Sr11 2.545715 1_545
O40 Sr3 2.643083 1_544
O41 Sr10 2.545715 1_565
O41 Sr2 2.643083 1_565
O42 Sr9 2.545715 1_555
O42 Sr1 2.643083 1_554
O43 Sr8 2.545715 1_555
O43 Sr0 2.643083 1_555
O44 Sr0 2.646616 1_555
O44 Sr4 2.716006 1_555
O45 Sr1 2.646616 1_555
O45 Sr5 2.716006 1_555
O46 Sr2 2.646616 1_565
O46 Sr6 2.716006 1_555
O47 Sr3 2.646616 1_545
O47 Sr7 2.716006 1_555
