# generated using pymatgen
data_Ba2LiLaCu3O7
_symmetry_space_group_name_H-M   'P 1'
_cell_length_a   3.95471800
_cell_length_b   3.95471600
_cell_length_c   13.40236800
_cell_angle_alpha   90.00000000
_cell_angle_beta   90.00000000
_cell_angle_gamma   90.00000000
_symmetry_Int_Tables_number   1
_chemical_formula_structural   Ba2LiLaCu3O7
_chemical_formula_sum   'Ba2 Li1 La1 Cu3 O7'
_cell_volume   209.61017479
_cell_formula_units_Z   1
loop_
 _symmetry_equiv_pos_site_id
 _symmetry_equiv_pos_as_xyz
  1  'x, y, z'
loop_
 _atom_site_type_symbol
 _atom_site_label
 _atom_site_symmetry_multiplicity
 _atom_site_fract_x
 _atom_site_fract_y
 _atom_site_fract_z
 _atom_site_occupancy
  Ba  Ba0  1  0.50000000  0.50000000  0.76467500  1
  Ba  Ba1  1  0.50000000  0.50000000  0.21327100  1
  Li  Li0  1  0.50000000  0.50000000  0.01129900  1
  La  La0  1  0.50000000  0.50000000  0.48870200  1
  Cu  Cu0  1  0.00000000  0.00000000  0.62748800  1
  Cu  Cu1  1  0.00000000  0.00000000  0.36079200  1
  Cu  Cu2  1  0.00000000  0.00000000  0.04626700  1
  O  O0  1  0.50000000  0.00000000  0.59897300  1
  O  O1  1  0.00000000  0.50000000  0.59897500  1
  O  O2  1  0.50000000  0.00000000  0.36095500  1
  O  O3  1  0.00000000  0.50000000  0.36095400  1
  O  O4  1  0.00000000  0.50000000  0.05799000  1
  O  O5  1  0.50000000  0.00000000  0.05799200  1
  O  O6  1  0.00000000  0.00000000  0.77966900  1
loop_
_geom_bond_atom_site_label_1
_geom_bond_atom_site_label_2
_geom_bond_distance
_geom_bond_site_symmetry_2
Ba0 O6 2.803618 1_555
Ba0 O6 2.803618 1_565
Ba0 O6 2.803618 1_655
Ba0 O6 2.803618 1_665
Ba0 O1 2.973513 1_555
Ba0 O1 2.973513 1_655
Ba0 O0 2.973532 1_555
Ba0 O0 2.973532 1_565
Ba1 O3 2.797782 1_655
Ba1 O3 2.797782 1_555
Ba1 O2 2.797791 1_555
Ba1 O2 2.797791 1_565
Ba1 O5 2.870705 1_555
Ba1 O5 2.870705 1_565
Ba1 O4 2.870725 1_555
Ba1 O4 2.870725 1_655
Li0 O4 2.074015 1_555
Li0 O4 2.074015 1_655
Li0 O5 2.074022 1_565
Li0 O5 2.074022 1_555
La0 O0 2.468625 1_555
La0 O0 2.468625 1_565
La0 O1 2.468642 1_555
La0 O1 2.468642 1_655
La0 O2 2.615583 1_555
La0 O2 2.615583 1_565
La0 O3 2.615592 1_655
La0 O3 2.615592 1_555
Cu0 O1 2.013946 1_545
Cu0 O1 2.013946 1_555
Cu0 O0 2.013952 1_555
Cu0 O0 2.013952 1_455
Cu0 O6 2.039586 1_555
Cu1 O3 1.977359 1_555
Cu1 O3 1.977359 1_545
Cu1 O2 1.977360 1_555
Cu1 O2 1.977360 1_455
Cu2 O4 1.983590 1_555
Cu2 O4 1.983590 1_545
Cu2 O5 1.983593 1_555
Cu2 O5 1.983593 1_455
