# generated using pymatgen
data_NaEu(MoO4)2
_symmetry_space_group_name_H-M   'P 1'
_cell_length_a   6.93983624
_cell_length_b   6.93983624
_cell_length_c   6.93983624
_cell_angle_alpha   134.68269228
_cell_angle_beta   134.68269228
_cell_angle_gamma   66.02362583
_symmetry_Int_Tables_number   1
_chemical_formula_structural   NaEu(MoO4)2
_chemical_formula_sum   'Na1 Eu1 Mo2 O8'
_cell_volume   166.38115365
_cell_formula_units_Z   1
loop_
 _symmetry_equiv_pos_site_id
 _symmetry_equiv_pos_as_xyz
  1  'x, y, z'
loop_
 _atom_site_type_symbol
 _atom_site_label
 _atom_site_symmetry_multiplicity
 _atom_site_fract_x
 _atom_site_fract_y
 _atom_site_fract_z
 _atom_site_occupancy
  Na  Na0  1  0.50000000  0.50000000  0.00000000  1
  Eu  Eu0  1  0.75000000  0.25000000  0.50000000  1
  Mo  Mo0  1  0.25000000  0.75000000  0.50000000  1
  Mo  Mo1  1  0.00000000  0.00000000  0.00000000  1
  O  O0  1  0.84594600  0.23218800  0.90549600  1
  O  O1  1  0.32669100  0.94045000  0.09450400  1
  O  O2  1  0.76781300  0.67330900  0.61375900  1
  O  O3  1  0.05955000  0.15405400  0.38624100  1
  O  O4  1  0.17488900  0.59447500  0.10396700  1
  O  O5  1  0.49050700  0.07092200  0.89603300  1
  O  O6  1  0.40552500  0.50949300  0.58041400  1
  O  O7  1  0.92907800  0.82511100  0.41958600  1
loop_
_geom_bond_atom_site_label_1
_geom_bond_atom_site_label_2
_geom_bond_distance
_geom_bond_site_symmetry_2
Na0 O4 2.542214 1_555
Na0 O7 2.542214 1_555
Na0 O5 2.542216 1_554
Na0 O6 2.542219 1_554
Na0 O0 2.553824 1_554
Na0 O2 2.553825 1_555
Na0 O3 2.553825 1_554
Na0 O1 2.553825 1_555
Eu0 O0 2.482903 1_555
Eu0 O1 2.482908 1_545
Eu0 O2 2.482908 1_555
Eu0 O3 2.482908 1_655
Eu0 O5 2.496686 1_554
Eu0 O4 2.496688 1_656
Eu0 O7 2.496688 1_545
Eu0 O6 2.496689 1_555
Mo0 O6 1.805813 1_555
Mo0 O5 1.805817 1_565
Mo0 O7 1.805819 1_455
Mo0 O4 1.805819 1_555
Mo1 O3 1.808202 1_555
Mo1 O1 1.808202 1_545
Mo1 O2 1.808202 1_444
Mo1 O0 1.808208 1_454
