# generated using pymatgen
data_Mg6Si5
_symmetry_space_group_name_H-M   'P 1'
_cell_length_a   4.46521300
_cell_length_b   6.94528609
_cell_length_c   13.56171131
_cell_angle_alpha   90.36415990
_cell_angle_beta   92.79767579
_cell_angle_gamma   91.43760107
_symmetry_Int_Tables_number   1
_chemical_formula_structural   Mg6Si5
_chemical_formula_sum   'Mg12 Si10'
_cell_volume   419.93265143
_cell_formula_units_Z   2
loop_
 _symmetry_equiv_pos_site_id
 _symmetry_equiv_pos_as_xyz
  1  'x, y, z'
loop_
 _atom_site_type_symbol
 _atom_site_label
 _atom_site_symmetry_multiplicity
 _atom_site_fract_x
 _atom_site_fract_y
 _atom_site_fract_z
 _atom_site_occupancy
  Mg  Mg0  1  0.18676500  0.69338100  0.95326200  1
  Mg  Mg1  1  0.65611600  0.65802700  0.50392100  1
  Mg  Mg2  1  0.18036700  0.48124500  0.65308200  1
  Mg  Mg3  1  0.14045600  0.80424000  0.35406600  1
  Mg  Mg4  1  0.71436200  0.20107200  0.14949600  1
  Mg  Mg5  1  0.68272700  0.46034500  0.83636400  1
  Mg  Mg6  1  0.18736000  0.97143300  0.57201800  1
  Mg  Mg7  1  0.14204300  0.37030500  0.43559800  1
  Mg  Mg8  1  0.17990200  0.93131900  0.13011300  1
  Mg  Mg9  1  0.68170500  0.98748400  0.92373100  1
  Mg  Mg10  1  0.19255100  0.27263400  0.99225200  1
  Mg  Mg11  1  0.16852100  0.50777700  0.18467500  1
  Si  Si0  1  0.65046100  0.02631700  0.41971700  1
  Si  Si1  1  0.68862400  0.25911800  0.55406000  1
  Si  Si2  1  0.18996100  0.19766000  0.79624400  1
  Si  Si3  1  0.69457600  0.54119600  0.04104300  1
  Si  Si4  1  0.65104800  0.48190800  0.31844800  1
  Si  Si5  1  0.66173200  0.77016600  0.70022000  1
  Si  Si6  1  0.17380200  0.84544400  0.77525200  1
  Si  Si7  1  0.32994000  0.17069500  0.28914900  1
  Si  Si8  1  0.66883100  0.74717500  0.19858300  1
  Si  Si9  1  0.67835700  0.12475100  0.71506700  1
loop_
_geom_bond_atom_site_label_1
_geom_bond_atom_site_label_2
_geom_bond_distance
_geom_bond_site_symmetry_2
Mg0 Si6 2.639802 1_555
Mg0 Si3 2.742121 1_456
Mg0 Si3 2.747473 1_556
Mg0 Mg9 3.014494 1_555
Mg0 Mg9 3.093869 1_455
Mg1 Si5 2.767744 1_555
Mg1 Si4 2.788827 1_555
Mg1 Si0 2.808023 1_565
Mg1 Si1 2.862481 1_555
Mg2 Si2 2.774041 1_555
Mg2 Si1 2.918997 1_455
Mg2 Si5 2.947596 1_555
Mg2 Si6 3.016513 1_555
Mg2 Si1 3.127429 1_555
Mg2 Si5 3.187421 1_455
Mg3 Si7 2.821666 1_565
Mg3 Si0 2.822419 1_565
Mg3 Si0 2.881102 1_465
Mg3 Si8 2.924414 1_455
Mg3 Si4 3.107792 1_455
Mg4 Si7 2.623399 1_555
Mg4 Si3 2.791648 1_555
Mg4 Si4 3.027932 1_555
Mg4 Mg9 3.388809 1_544
Mg5 Si3 2.826222 1_556
Mg5 Si9 2.843387 1_555
Mg5 Si5 2.844597 1_555
Mg5 Si2 2.852191 1_555
Mg5 Si2 3.011541 1_655
Mg6 Si6 2.900047 1_555
Mg6 Si1 2.982667 1_565
Mg6 Si0 3.012442 1_565
Mg6 Si9 3.024151 1_565
Mg6 Si1 3.031073 1_465
Mg6 Si5 3.046880 1_555
Mg6 Si0 3.119503 1_465
Mg7 Si7 2.599327 1_555
Mg7 Si1 2.744307 1_455
Mg7 Si4 2.773526 1_455
Mg7 Si4 2.927523 1_555
Mg7 Si1 2.976817 1_555
Mg7 Si0 3.202569 1_455
Mg8 Si8 2.687276 1_555
Mg8 Si7 2.760819 1_565
Mg8 Si8 2.789468 1_455
Mg9 Si9 2.991320 1_565
Mg9 Si6 3.096441 1_555
Mg9 Si2 3.124685 1_565
Mg9 Si6 3.220488 1_655
Mg9 Si2 3.243370 1_665
Mg10 Si2 2.704890 1_555
Mg10 Si3 2.927740 1_556
Mg10 Si3 3.032695 1_456
Mg10 Mg9 3.087369 1_445
Mg10 Mg9 3.154064 1_545
Mg11 Si8 2.749422 1_555
Mg11 Si4 2.758224 1_555
Mg11 Si3 2.820414 1_455
Mg11 Si8 2.828728 1_455
Mg11 Si7 2.834608 1_555
Mg11 Si4 3.009167 1_455
Mg11 Si3 3.129021 1_555
Si0 Si1 2.425103 1_555
Si0 Si7 2.456924 1_555
Si1 Si9 2.382085 1_555
Si2 Si6 2.459804 1_545
Si2 Si9 2.525142 1_455
Si2 Si9 2.550870 1_555
Si3 Si8 2.572517 1_555
Si4 Si8 2.467063 1_555
Si4 Si7 2.581394 1_555
Si5 Si9 2.468599 1_565
Si5 Si6 2.498600 1_655
Si5 Si6 2.514433 1_555
