# generated using pymatgen
data_LiAlGeO4
_symmetry_space_group_name_H-M   'P 1'
_cell_length_a   8.63487424
_cell_length_b   8.63487424
_cell_length_c   8.63487430
_cell_angle_alpha   107.82906755
_cell_angle_beta   107.82906755
_cell_angle_gamma   107.82905956
_symmetry_Int_Tables_number   1
_chemical_formula_structural   LiAlGeO4
_chemical_formula_sum   'Li6 Al6 Ge6 O24'
_cell_volume   523.58445848
_cell_formula_units_Z   6
loop_
 _symmetry_equiv_pos_site_id
 _symmetry_equiv_pos_as_xyz
  1  'x, y, z'
loop_
 _atom_site_type_symbol
 _atom_site_label
 _atom_site_symmetry_multiplicity
 _atom_site_fract_x
 _atom_site_fract_y
 _atom_site_fract_z
 _atom_site_occupancy
  Li  Li0  1  0.23958300  0.46848800  0.07128000  1
  Li  Li1  1  0.46848800  0.07128000  0.23958300  1
  Li  Li2  1  0.07128000  0.23958300  0.46848800  1
  Li  Li3  1  0.76041700  0.53151200  0.92872000  1
  Li  Li4  1  0.53151200  0.92872000  0.76041700  1
  Li  Li5  1  0.92872000  0.76041700  0.53151200  1
  Al  Al0  1  0.56811000  0.78909300  0.38440400  1
  Al  Al1  1  0.38440400  0.56811000  0.78909300  1
  Al  Al2  1  0.43189000  0.21090700  0.61559600  1
  Al  Al3  1  0.21090700  0.61559600  0.43189000  1
  Al  Al4  1  0.61559600  0.43189000  0.21090700  1
  Al  Al5  1  0.78909300  0.38440400  0.56811000  1
  Ge  Ge0  1  0.13322100  0.72045600  0.89352500  1
  Ge  Ge1  1  0.72045600  0.89352500  0.13322100  1
  Ge  Ge2  1  0.10647500  0.86677900  0.27954400  1
  Ge  Ge3  1  0.86677900  0.27954400  0.10647500  1
  Ge  Ge4  1  0.27954400  0.10647500  0.86677900  1
  Ge  Ge5  1  0.89352500  0.13322100  0.72045600  1
  O  O0  1  0.34484000  0.68491100  0.65967900  1
  O  O1  1  0.37928700  0.32278000  0.04814500  1
  O  O2  1  0.04814500  0.37928700  0.32278000  1
  O  O3  1  0.32278000  0.04814500  0.37928700  1
  O  O4  1  0.62071300  0.67722000  0.95185500  1
  O  O5  1  0.95185500  0.62071300  0.67722000  1
  O  O6  1  0.67722000  0.95185500  0.62071300  1
  O  O7  1  0.68491100  0.65967900  0.34484000  1
  O  O8  1  0.73979200  0.40108100  0.07910600  1
  O  O9  1  0.65967900  0.34484000  0.68491100  1
  O  O10  1  0.31508900  0.34032100  0.65516000  1
  O  O11  1  0.65516000  0.31508900  0.34032100  1
  O  O12  1  0.26020800  0.59891900  0.92089400  1
  O  O13  1  0.59891900  0.92089400  0.26020800  1
  O  O14  1  0.92089400  0.26020800  0.59891900  1
  O  O15  1  0.97312400  0.27972900  0.95504900  1
  O  O16  1  0.40108100  0.07910600  0.73979200  1
  O  O17  1  0.07910600  0.73979200  0.40108100  1
  O  O18  1  0.04495100  0.02687600  0.72027100  1
  O  O19  1  0.27972900  0.95504900  0.97312400  1
  O  O20  1  0.95504900  0.97312400  0.27972900  1
  O  O21  1  0.02687600  0.72027100  0.04495100  1
  O  O22  1  0.72027100  0.04495100  0.02687600  1
  O  O23  1  0.34032100  0.65516000  0.31508900  1
loop_
_geom_bond_atom_site_label_1
_geom_bond_atom_site_label_2
_geom_bond_distance
_geom_bond_site_symmetry_2
Li0 O23 1.931054 1_555
Li0 O12 1.975047 1_554
Li0 O1 2.000298 1_555
Li0 O15 2.060472 1_454
Li1 O11 1.931055 1_555
Li1 O13 1.975047 1_545
Li1 O3 2.000298 1_555
Li1 O19 2.060472 1_544
Li2 O10 1.931054 1_555
Li2 O14 1.975047 1_455
Li2 O2 2.000298 1_555
Li2 O20 2.060472 1_445
Li3 O9 1.931054 1_555
Li3 O8 1.975047 1_556
Li3 O4 2.000298 1_555
Li3 O21 2.060472 1_656
Li4 O0 1.931055 1_555
Li4 O16 1.975047 1_565
Li4 O6 2.000298 1_555
Li4 O22 2.060472 1_566
Li5 O7 1.931054 1_555
Li5 O17 1.975047 1_655
Li5 O5 2.000298 1_555
Li5 O18 2.060472 1_665
Al0 O23 1.739770 1_555
Al0 O7 1.746431 1_555
Al0 O13 1.803545 1_555
Al0 O6 1.811724 1_555
Al1 O10 1.739770 1_555
Al1 O0 1.746431 1_555
Al1 O12 1.803545 1_555
Al1 O4 1.811724 1_555
Al2 O9 1.739770 1_555
Al2 O10 1.746431 1_555
Al2 O16 1.803545 1_555
Al2 O3 1.811724 1_555
Al3 O0 1.739770 1_555
Al3 O23 1.746431 1_555
Al3 O17 1.803544 1_555
Al3 O2 1.811725 1_555
Al4 O7 1.739770 1_555
Al4 O11 1.746431 1_555
Al4 O8 1.803545 1_555
Al4 O1 1.811724 1_555
Al5 O11 1.739770 1_555
Al5 O9 1.746431 1_555
Al5 O14 1.803544 1_555
Al5 O5 1.811725 1_555
Ge0 O12 1.748547 1_555
Ge0 O5 1.755198 1_455
Ge0 O19 1.794973 1_555
Ge0 O21 1.813432 1_556
Ge1 O13 1.748547 1_555
Ge1 O4 1.755199 1_554
Ge1 O20 1.794973 1_555
Ge1 O22 1.813432 1_565
Ge2 O17 1.748547 1_555
Ge2 O3 1.755199 1_565
Ge2 O21 1.794973 1_555
Ge2 O20 1.813432 1_455
Ge3 O8 1.748547 1_555
Ge3 O2 1.755198 1_655
Ge3 O22 1.794973 1_555
Ge3 O15 1.813432 1_554
Ge4 O16 1.748547 1_555
Ge4 O1 1.755199 1_556
Ge4 O18 1.794973 1_555
Ge4 O19 1.813432 1_545
Ge5 O14 1.748547 1_555
Ge5 O6 1.755199 1_545
Ge5 O15 1.794973 1_555
Ge5 O18 1.813432 1_655
