# generated using pymatgen
data_Na4V20(CuO4)15
_symmetry_space_group_name_H-M   'P 1'
_cell_length_a   10.39526871
_cell_length_b   10.39526871
_cell_length_c   12.18955340
_cell_angle_alpha   90.00000000
_cell_angle_beta   64.76064328
_cell_angle_gamma   60.00000000
_symmetry_Int_Tables_number   1
_chemical_formula_structural   Na4V20(CuO4)15
_chemical_formula_sum   'Na4 V20 Cu15 O60'
_cell_volume   992.89456369
_cell_formula_units_Z   1
loop_
 _symmetry_equiv_pos_site_id
 _symmetry_equiv_pos_as_xyz
  1  'x, y, z'
loop_
 _atom_site_type_symbol
 _atom_site_label
 _atom_site_symmetry_multiplicity
 _atom_site_fract_x
 _atom_site_fract_y
 _atom_site_fract_z
 _atom_site_occupancy
  Na  Na0  1  0.00036200  0.99981900  0.99945700  1
  Na  Na1  1  0.60105000  0.19947500  0.59842500  1
  Na  Na2  1  0.19895000  0.40052500  0.20157500  1
  Na  Na3  1  0.79963800  0.60018100  0.80054300  1
  V  V0  1  0.20198500  0.89900800  0.69702300  1
  V  V1  1  0.59801500  0.70099200  0.10297700  1
  V  V2  1  0.00021500  0.49989300  0.49967800  1
  V  V3  1  0.40000000  0.30000000  0.90000000  1
  V  V4  1  0.79978500  0.10010700  0.30032200  1
  V  V5  1  0.09980400  0.20039300  0.10136000  1
  V  V6  1  0.50138800  0.99331600  0.49732600  1
  V  V7  1  0.90000000  0.80000000  0.90000000  1
  V  V8  1  0.29861200  0.60668400  0.30267400  1
  V  V9  1  0.70019600  0.39960700  0.69864000  1
  V  V10  1  0.40000000  0.80000000  0.90000000  1
  V  V11  1  0.79203100  0.60128600  0.30267400  1
  V  V12  1  0.20155600  0.39883600  0.69864000  1
  V  V13  1  0.59844400  0.20116300  0.10136000  1
  V  V14  1  0.00796900  0.99871400  0.49732600  1
  V  V15  1  0.49599000  0.50529600  0.49732600  1
  V  V16  1  0.90000000  0.30000000  0.90000000  1
  V  V17  1  0.30401000  0.09470400  0.30267400  1
  V  V18  1  0.70096700  0.90019700  0.69864000  1
  V  V19  1  0.09903300  0.69980300  0.10136000  1
  Cu  Cu0  1  0.90000000  0.30000000  0.40000000  1
  Cu  Cu1  1  0.29915800  0.10020400  0.79995300  1
  Cu  Cu2  1  0.69958000  0.90099700  0.19952900  1
  Cu  Cu3  1  0.10042000  0.69900300  0.60047100  1
  Cu  Cu4  1  0.50084200  0.49979600  0.00004700  1
  Cu  Cu5  1  0.60010600  0.70089000  0.60047100  1
  Cu  Cu6  1  0.99931400  0.50089000  0.00004700  1
  Cu  Cu7  1  0.40000000  0.30000000  0.40000000  1
  Cu  Cu8  1  0.80068600  0.09911000  0.79995300  1
  Cu  Cu9  1  0.19989400  0.89911000  0.19952900  1
  Cu  Cu10  1  0.70146700  0.39942300  0.19952900  1
  Cu  Cu11  1  0.09853300  0.20057700  0.60047100  1
  Cu  Cu12  1  0.49974900  0.99936100  0.00004700  1
  Cu  Cu13  1  0.90000000  0.80000000  0.40000000  1
  Cu  Cu14  1  0.30025100  0.60063900  0.79995300  1
  O  O0  1  0.96978000  0.60476800  0.14928700  1
  O  O1  1  0.57115500  0.80415900  0.74956400  1
  O  O2  1  0.16302200  0.00633800  0.35133100  1
  O  O3  1  0.76904300  0.20519800  0.94827800  1
  O  O4  1  0.36755600  0.40419800  0.54887300  1
  O  O5  1  0.22884500  0.79584100  0.05043600  1
  O  O6  1  0.83022000  0.99523200  0.65071300  1
  O  O7  1  0.43244400  0.19580200  0.25112700  1
  O  O8  1  0.03095700  0.39480200  0.85172200  1
  O  O9  1  0.63697800  0.59366200  0.44866900  1
  O  O10  1  0.38357500  0.71670100  0.20412200  1
  O  O11  1  0.98458100  0.91716300  0.80428900  1
  O  O12  1  0.58617000  0.11896800  0.40354300  1
  O  O13  1  0.18722500  0.31814300  0.00375900  1
  O  O14  1  0.78966200  0.51628400  0.60384400  1
  O  O15  1  0.81541900  0.68283700  0.99571100  1
  O  O16  1  0.41642500  0.88329900  0.59587800  1
  O  O17  1  0.01033800  0.08371600  0.19615600  1
  O  O18  1  0.61277500  0.28185700  0.79624100  1
  O  O19  1  0.21383000  0.48103200  0.39645800  1
  O  O20  1  0.12062700  0.68357100  0.25112700  1
  O  O21  1  0.72251900  0.88267900  0.85172200  1
  O  O22  1  0.32069000  0.08564700  0.44866900  1
  O  O23  1  0.92487700  0.27928100  0.05043600  1
  O  O24  1  0.52383600  0.48093200  0.65071300  1
  O  O25  1  0.07748100  0.71732100  0.94827800  1
  O  O26  1  0.67937300  0.91642900  0.54887300  1
  O  O27  1  0.27616400  0.11906800  0.14928700  1
  O  O28  1  0.87512300  0.32071900  0.74956400  1
  O  O29  1  0.47931000  0.51435300  0.35133100  1
  O  O30  1  0.30912700  0.40901600  0.79624100  1
  O  O31  1  0.90868000  0.61028700  0.39645800  1
  O  O32  1  0.50603300  0.81113000  0.99571100  1
  O  O33  1  0.10439800  0.01230300  0.59587800  1
  O  O34  1  0.70979000  0.20649400  0.19615600  1
  O  O35  1  0.89132000  0.98971300  0.40354300  1
  O  O36  1  0.49087300  0.19098400  0.00375900  1
  O  O37  1  0.09021000  0.39350600  0.60384400  1
  O  O38  1  0.69560200  0.58769700  0.20412200  1
  O  O39  1  0.29396700  0.78887000  0.80428900  1
  O  O40  1  0.31438400  0.49463200  0.00375900  1
  O  O41  1  0.91244000  0.69405400  0.60384400  1
  O  O42  1  0.51257800  0.89972400  0.20412200  1
  O  O43  1  0.11287400  0.09825600  0.80428900  1
  O  O44  1  0.71542500  0.29486200  0.40354300  1
  O  O45  1  0.88756000  0.90594600  0.19615600  1
  O  O46  1  0.48561600  0.10536800  0.79624100  1
  O  O47  1  0.08457500  0.30513800  0.39645800  1
  O  O48  1  0.68712600  0.50174400  0.99571100  1
  O  O49  1  0.28742200  0.70027600  0.59587800  1
  O  O50  1  0.65500700  0.83064000  0.35133100  1
  O  O51  1  0.25692100  0.02575800  0.94827800  1
  O  O52  1  0.85532500  0.22824600  0.54887300  1
  O  O53  1  0.45548100  0.42545200  0.14928700  1
  O  O54  1  0.05459500  0.62468600  0.74956400  1
  O  O55  1  0.54307900  0.57424200  0.85172200  1
  O  O56  1  0.14499300  0.76936000  0.44866900  1
  O  O57  1  0.74540500  0.97531400  0.05043600  1
  O  O58  1  0.34451900  0.17454800  0.65071300  1
  O  O59  1  0.94467500  0.37175400  0.25112700  1
loop_
_geom_bond_atom_site_label_1
_geom_bond_atom_site_label_2
_geom_bond_distance
_geom_bond_site_symmetry_2
Na0 O23 2.597301 1_466
Na0 O5 2.597305 1_556
Na0 O57 2.597305 1_456
Na0 O34 2.612028 1_466
Na0 O17 2.612028 1_566
Na0 O45 2.612028 1_456
Na0 O3 2.622023 1_465
Na0 O25 2.622023 1_555
Na0 O51 2.622027 1_565
Na0 O43 2.626530 1_565
Na0 O39 2.626530 1_555
Na0 O11 2.626530 1_455
Na1 O12 2.609645 1_555
Na1 O44 2.609645 1_555
Na1 O35 2.609648 1_545
Na1 O24 2.612701 1_555
Na1 O58 2.612707 1_555
Na1 O6 2.612707 1_545
Na1 O26 2.621085 1_545
Na1 O4 2.621085 1_555
Na1 O52 2.621085 1_555
Na1 O30 2.630129 1_555
Na1 O18 2.630129 1_555
Na1 O46 2.630129 1_555
Na2 O31 2.609653 1_455
Na2 O47 2.609653 1_555
Na2 O19 2.609656 1_555
Na2 O27 2.612701 1_555
Na2 O0 2.612707 1_455
Na2 O53 2.612707 1_555
Na2 O59 2.621085 1_455
Na2 O20 2.621085 1_555
Na2 O7 2.621085 1_555
Na2 O13 2.630129 1_555
Na2 O36 2.630129 1_555
Na2 O40 2.630129 1_555
Na3 O28 2.597301 1_555
Na3 O54 2.597305 1_655
Na3 O1 2.597305 1_555
Na3 O37 2.612028 1_655
Na3 O14 2.612028 1_555
Na3 O41 2.612028 1_555
Na3 O8 2.622023 1_655
Na3 O21 2.622023 1_555
Na3 O55 2.622027 1_555
Na3 O48 2.626530 1_555
Na3 O32 2.626530 1_555
Na3 O15 2.626530 1_555
Cu0 O59 1.921682 1_555
Cu0 O52 1.921682 1_555
Cu0 O44 1.928203 1_555
Cu0 O47 1.928208 1_655
Cu1 O43 1.924853 1_555
Cu1 O51 1.929611 1_555
Cu1 O58 1.939552 1_555
Cu1 O46 1.947080 1_555
Cu2 O42 1.927461 1_555
Cu2 O57 1.938123 1_555
Cu2 O50 1.944555 1_555
Cu2 O45 1.963382 1_555
Cu3 O49 1.927461 1_555
Cu3 O54 1.938123 1_555
Cu3 O56 1.944555 1_555
Cu3 O41 1.963382 1_455
Cu4 O48 1.924853 1_554
Cu4 O55 1.929611 1_554
Cu4 O53 1.939552 1_555
Cu4 O40 1.947080 1_555
Cu5 O16 1.927456 1_555
Cu5 O1 1.938128 1_555
Cu5 O9 1.944550 1_555
Cu5 O14 1.963377 1_555
Cu6 O15 1.924842 1_554
Cu6 O8 1.929606 1_654
Cu6 O0 1.939552 1_555
Cu6 O13 1.947090 1_655
Cu7 O4 1.921682 1_555
Cu7 O7 1.921682 1_555
Cu7 O19 1.928197 1_555
Cu7 O12 1.928203 1_555
Cu8 O11 1.924842 1_545
Cu8 O3 1.929606 1_555
Cu8 O6 1.939552 1_545
Cu8 O18 1.947090 1_555
Cu9 O10 1.927456 1_555
Cu9 O5 1.938128 1_555
Cu9 O2 1.944550 1_565
Cu9 O17 1.963377 1_565
Cu10 O38 1.927456 1_555
Cu10 O23 1.938123 1_555
Cu10 O29 1.944545 1_555
Cu10 O34 1.963377 1_555
Cu11 O33 1.927456 1_555
Cu11 O28 1.938123 1_455
Cu11 O22 1.944545 1_555
Cu11 O37 1.963377 1_555
Cu12 O32 1.924842 1_554
Cu12 O21 1.929606 1_554
Cu12 O27 1.939558 1_565
Cu12 O36 1.947090 1_565
Cu13 O26 1.921682 1_555
Cu13 O20 1.921682 1_655
Cu13 O31 1.928208 1_555
Cu13 O35 1.928208 1_555
Cu14 O39 1.924842 1_555
Cu14 O25 1.929606 1_555
Cu14 O24 1.939558 1_555
Cu14 O30 1.947090 1_555
O0 V19 1.944366 1_655
O0 V11 2.007980 1_555
O1 V10 1.955665 1_555
O1 V18 1.958523 1_555
O2 V14 1.858176 1_545
O2 V17 1.987101 1_555
O3 V16 1.956814 1_555
O3 V13 1.970034 1_556
O4 V12 1.929578 1_555
O4 V15 1.992360 1_555
O5 V10 1.955665 1_554
O5 V19 1.958523 1_555
O6 V18 1.944366 1_555
O6 V14 2.007980 1_655
O7 V13 1.929573 1_555
O7 V17 1.992360 1_555
O8 V16 1.956814 1_455
O8 V12 1.970029 1_555
O9 V11 1.858176 1_555
O9 V15 1.987101 1_555
O10 V8 1.906938 1_555
O10 V1 1.951429 1_555
O11 V7 1.952856 1_555
O11 V0 1.976410 1_655
O12 V4 1.932476 1_555
O12 V6 2.020318 1_545
O13 V3 1.929936 1_554
O13 V5 1.982396 1_555
O14 V2 1.920655 1_655
O14 V9 1.970485 1_555
O15 V7 1.952856 1_555
O15 V1 1.976410 1_556
O16 V6 1.906938 1_555
O16 V0 1.951429 1_555
O17 V4 1.920655 1_455
O17 V5 1.970485 1_555
O18 V3 1.929936 1_555
O18 V9 1.982396 1_555
O19 V2 1.932474 1_555
O19 V8 2.020323 1_555
O20 V19 1.929573 1_555
O20 V8 1.992360 1_555
O21 V7 1.956814 1_555
O21 V18 1.970035 1_555
O22 V17 1.858166 1_555
O22 V6 1.987110 1_545
O23 V16 1.955660 1_554
O23 V5 1.958532 1_655
O24 V9 1.944358 1_555
O24 V15 2.007991 1_555
O25 V7 1.956814 1_455
O25 V19 1.970035 1_556
O26 V18 1.929573 1_555
O26 V6 1.992360 1_555
O27 V5 1.944358 1_555
O27 V17 2.007991 1_555
O28 V16 1.955660 1_555
O28 V9 1.958532 1_555
O29 V15 1.858166 1_555
O29 V8 1.987110 1_555
O30 V3 1.929936 1_555
O30 V12 1.982405 1_555
O31 V2 1.932475 1_655
O31 V11 2.020310 1_555
O32 V10 1.952856 1_555
O32 V1 1.976405 1_556
O33 V14 1.906946 1_545
O33 V0 1.951434 1_545
O34 V4 1.920650 1_555
O34 V13 1.970480 1_555
O35 V4 1.932486 1_565
O35 V14 2.020300 1_655
O36 V3 1.929936 1_554
O36 V13 1.982402 1_555
O37 V2 1.920650 1_555
O37 V12 1.970477 1_555
O38 V11 1.906946 1_555
O38 V1 1.951434 1_555
O39 V10 1.952856 1_555
O39 V0 1.976405 1_555
O40 V3 1.929936 1_554
O40 V19 1.982396 1_555
O41 V2 1.920647 1_655
O41 V18 1.970485 1_555
O42 V17 1.906934 1_565
O42 V1 1.951434 1_555
O43 V16 1.952856 1_455
O43 V0 1.976402 1_545
O44 V4 1.932484 1_555
O44 V15 2.020318 1_555
O45 V4 1.920647 1_565
O45 V19 1.970485 1_655
O46 V3 1.929936 1_555
O46 V18 1.982396 1_545
O47 V2 1.932479 1_555
O47 V17 2.020319 1_555
O48 V16 1.952856 1_555
O48 V1 1.976402 1_556
O49 V15 1.906934 1_555
O49 V0 1.951434 1_555
O50 V6 1.858171 1_555
O50 V11 1.987101 1_555
O51 V10 1.956805 1_545
O51 V5 1.970040 1_556
O52 V9 1.929573 1_555
O52 V14 1.992359 1_645
O53 V13 1.944375 1_555
O53 V8 2.007985 1_555
O54 V7 1.955665 1_455
O54 V12 1.958522 1_555
O55 V10 1.956805 1_555
O55 V9 1.970040 1_555
O56 V8 1.858171 1_555
O56 V14 1.987101 1_555
O57 V7 1.955665 1_554
O57 V13 1.958514 1_565
O58 V12 1.944366 1_555
O58 V6 2.007985 1_545
O59 V5 1.929573 1_655
O59 V11 1.992359 1_555
