# generated using pymatgen
data_BaMg14B
_symmetry_space_group_name_H-M   'P 1'
_cell_length_a   6.67827903
_cell_length_b   6.27961879
_cell_length_c   10.33311840
_cell_angle_alpha   90.00000000
_cell_angle_beta   90.00000000
_cell_angle_gamma   118.04419988
_symmetry_Int_Tables_number   1
_chemical_formula_structural   BaMg14B
_chemical_formula_sum   'Ba1 Mg14 B1'
_cell_volume   382.45986656
_cell_formula_units_Z   1
loop_
 _symmetry_equiv_pos_site_id
 _symmetry_equiv_pos_as_xyz
  1  'x, y, z'
loop_
 _atom_site_type_symbol
 _atom_site_label
 _atom_site_symmetry_multiplicity
 _atom_site_fract_x
 _atom_site_fract_y
 _atom_site_fract_z
 _atom_site_occupancy
  Ba  Ba0  1  0.11679090  0.30839495  0.12500000  1
  Mg  Mg0  1  0.16898070  0.33448985  0.62500000  1
  Mg  Mg1  1  0.15737075  0.82868487  0.62500000  1
  Mg  Mg2  1  0.60318253  0.28909222  0.12500000  1
  Mg  Mg3  1  0.65996056  0.33613962  0.62500000  1
  Mg  Mg4  1  0.60318253  0.81408932  0.12500000  1
  Mg  Mg5  1  0.65996056  0.82381994  0.62500000  1
  Mg  Mg6  1  0.34343522  0.16250976  0.38161324  1
  Mg  Mg7  1  0.34343522  0.16250976  0.86838676  1
  Mg  Mg8  1  0.34343522  0.68092645  0.38161324  1
  Mg  Mg9  1  0.34343522  0.68092645  0.86838676  1
  Mg  Mg10  1  0.82229676  0.16114888  0.39672948  1
  Mg  Mg11  1  0.82229676  0.16114888  0.85327052  1
  Mg  Mg12  1  0.86612041  0.68306071  0.33865564  1
  Mg  Mg13  1  0.86612041  0.68306071  0.91134436  1
  B  B0  1  0.27999626  0.88999763  0.12500000  1
loop_
_geom_bond_atom_site_label_1
_geom_bond_atom_site_label_2
_geom_bond_distance
_geom_bond_site_symmetry_2
Ba0 Mg11 3.301029 1_454
Ba0 Mg10 3.301029 1_455
Ba0 Mg4 3.306979 1_555
Ba0 Mg2 3.306979 1_555
Ba0 Mg4 3.374727 1_445
Ba0 Mg2 3.374727 1_455
Ba0 Mg7 3.386017 1_554
Ba0 Mg6 3.386017 1_555
Ba0 Mg9 3.386023 1_554
Ba0 Mg8 3.386023 1_555
Mg0 Mg10 3.120769 1_455
Mg0 Mg11 3.120769 1_455
Mg0 Mg1 3.140555 1_555
Mg0 Mg1 3.140555 1_545
Mg0 Mg6 3.167294 1_555
Mg0 Mg7 3.167294 1_555
Mg0 Mg8 3.167300 1_555
Mg0 Mg9 3.167300 1_555
Mg0 Mg5 3.274042 1_555
Mg0 Mg3 3.274043 1_555
Mg0 Mg5 3.404261 1_445
Mg0 Mg3 3.404262 1_455
Mg1 Mg8 3.132737 1_555
Mg1 Mg9 3.132737 1_555
Mg1 Mg6 3.132743 1_565
Mg1 Mg7 3.132743 1_565
Mg1 Mg3 3.307591 1_455
Mg1 Mg5 3.307591 1_455
Mg1 Mg3 3.370906 1_565
Mg1 Mg5 3.370906 1_555
Mg1 Mg12 3.420766 1_455
Mg1 Mg13 3.420766 1_455
Mg3 Mg5 3.062446 1_555
Mg3 Mg6 3.132874 1_555
Mg3 Mg7 3.132874 1_555
Mg3 Mg5 3.217172 1_545
Mg5 Mg8 3.132874 1_555
Mg5 Mg9 3.132874 1_555
Mg10 Mg3 3.011104 1_555
Mg10 Mg5 3.011110 1_545
Mg10 Mg8 3.205805 1_545
Mg10 Mg6 3.205805 1_555
Mg10 Mg12 3.207058 1_545
Mg10 Mg12 3.207059 1_555
Mg10 Mg2 3.431629 1_555
Mg10 Mg4 3.431634 1_545
Mg10 Mg8 3.479805 1_655
Mg10 Mg6 3.479806 1_655
Mg11 Mg3 3.011104 1_555
Mg11 Mg5 3.011110 1_545
Mg11 Mg9 3.205805 1_545
Mg11 Mg7 3.205805 1_555
Mg11 Mg13 3.207058 1_545
Mg11 Mg13 3.207059 1_555
Mg11 Mg2 3.431629 1_556
Mg11 Mg4 3.431634 1_546
Mg11 Mg9 3.479805 1_655
Mg11 Mg7 3.479806 1_655
Mg12 Mg5 3.546246 1_555
Mg12 Mg3 3.546251 1_555
Mg13 Mg5 3.546246 1_555
Mg13 Mg3 3.546251 1_555
B0 Mg2 2.419298 1_565
B0 Mg4 2.419299 1_555
B0 Ba0 3.283864 1_555
B0 Ba0 3.283864 1_565
