# generated using pymatgen
data_K2HgAsI6
_symmetry_space_group_name_H-M   'P 1'
_cell_length_a   8.46142783
_cell_length_b   8.46142783
_cell_length_c   8.46142783
_cell_angle_alpha   60.00000000
_cell_angle_beta   60.00000000
_cell_angle_gamma   60.00000000
_symmetry_Int_Tables_number   1
_chemical_formula_structural   K2HgAsI6
_chemical_formula_sum   'K2 Hg1 As1 I6'
_cell_volume   428.36696025
_cell_formula_units_Z   1
loop_
 _symmetry_equiv_pos_site_id
 _symmetry_equiv_pos_as_xyz
  1  'x, y, z'
loop_
 _atom_site_type_symbol
 _atom_site_label
 _atom_site_symmetry_multiplicity
 _atom_site_fract_x
 _atom_site_fract_y
 _atom_site_fract_z
 _atom_site_occupancy
  K  K0  1  0.75000000  0.75000000  0.75000000  1
  K  K1  1  0.25000000  0.25000000  0.25000000  1
  Hg  Hg0  1  0.50000000  0.50000000  0.50000000  1
  As  As0  1  0.00000000  0.00000000  0.00000000  1
  I  I0  1  0.75844500  0.24155500  0.24155500  1
  I  I1  1  0.24155500  0.24155500  0.75844500  1
  I  I2  1  0.24155500  0.75844500  0.75844500  1
  I  I3  1  0.24155500  0.75844500  0.24155500  1
  I  I4  1  0.75844500  0.24155500  0.75844500  1
  I  I5  1  0.75844500  0.75844500  0.24155500  1
loop_
_geom_bond_atom_site_label_1
_geom_bond_atom_site_label_2
_geom_bond_distance
_geom_bond_site_symmetry_2
Hg0 I5 3.092622 1_555
Hg0 I2 3.092622 1_555
Hg0 I4 3.092622 1_555
Hg0 I3 3.092622 1_555
Hg0 I0 3.092622 1_555
Hg0 I1 3.092622 1_555
As0 I1 2.890511 1_554
As0 I3 2.890511 1_545
As0 I0 2.890511 1_455
As0 I2 2.890511 1_544
As0 I4 2.890511 1_454
As0 I5 2.890511 1_445
