# generated using pymatgen
data_LiCaSi2
_symmetry_space_group_name_H-M   'P 1'
_cell_length_a   3.79957847
_cell_length_b   7.95136547
_cell_length_c   10.65169884
_cell_angle_alpha   90.00000000
_cell_angle_beta   90.00000000
_cell_angle_gamma   90.00000000
_symmetry_Int_Tables_number   1
_chemical_formula_structural   LiCaSi2
_chemical_formula_sum   'Li4 Ca4 Si8'
_cell_volume   321.80738963
_cell_formula_units_Z   4
loop_
 _symmetry_equiv_pos_site_id
 _symmetry_equiv_pos_as_xyz
  1  'x, y, z'
loop_
 _atom_site_type_symbol
 _atom_site_label
 _atom_site_symmetry_multiplicity
 _atom_site_fract_x
 _atom_site_fract_y
 _atom_site_fract_z
 _atom_site_occupancy
  Li  Li0  1  0.25000000  0.49996627  0.88744718  1
  Li  Li1  1  0.75000000  0.50003373  0.11255282  1
  Li  Li2  1  0.25000000  0.99996627  0.61255282  1
  Li  Li3  1  0.75000000  0.00003373  0.38744718  1
  Ca  Ca0  1  0.25000000  0.63298164  0.36470214  1
  Ca  Ca1  1  0.75000000  0.36701836  0.63529786  1
  Ca  Ca2  1  0.25000000  0.13298164  0.13529786  1
  Ca  Ca3  1  0.75000000  0.86701836  0.86470214  1
  Si  Si0  1  0.75000000  0.77030777  0.56936603  1
  Si  Si1  1  0.25000000  0.22969223  0.43063397  1
  Si  Si2  1  0.75000000  0.27030777  0.93063397  1
  Si  Si3  1  0.25000000  0.72969223  0.06936603  1
  Si  Si4  1  0.75000000  0.33064098  0.32599516  1
  Si  Si5  1  0.25000000  0.66935902  0.67400484  1
  Si  Si6  1  0.75000000  0.83064098  0.17400484  1
  Si  Si7  1  0.25000000  0.16935902  0.82599516  1
loop_
_geom_bond_atom_site_label_1
_geom_bond_atom_site_label_2
_geom_bond_distance
_geom_bond_site_symmetry_2
Li0 Si5 2.642548 1_555
Li0 Si3 2.662978 1_556
Li0 Si2 2.674967 1_555
Li0 Si2 2.674967 1_455
Li0 Si7 2.709048 1_555
Li1 Si4 2.642548 1_555
Li1 Si2 2.662978 1_554
Li1 Si3 2.674967 1_655
Li1 Si3 2.674967 1_555
Li1 Si6 2.709048 1_555
Li2 Si7 2.642548 1_565
Li2 Si1 2.662978 1_565
Li2 Si0 2.674967 1_555
Li2 Si0 2.674967 1_455
Li2 Si5 2.709048 1_555
Li3 Si6 2.642548 1_545
Li3 Si0 2.662978 1_545
Li3 Si1 2.674967 1_555
Li3 Si1 2.674967 1_655
Li3 Si4 2.709048 1_555
Ca0 Si0 3.090953 1_555
Ca0 Si0 3.090953 1_455
Ca0 Si4 3.091683 1_555
Ca0 Si4 3.091683 1_455
Ca0 Si6 3.194573 1_555
Ca0 Si6 3.194573 1_455
Ca0 Si3 3.238454 1_555
Ca0 Si1 3.282703 1_555
Ca0 Si5 3.307272 1_555
Ca1 Si1 3.090953 1_555
Ca1 Si1 3.090953 1_655
Ca1 Si5 3.091683 1_555
Ca1 Si5 3.091683 1_655
Ca1 Si7 3.194573 1_655
Ca1 Si7 3.194573 1_555
Ca1 Si2 3.238454 1_555
Ca1 Si0 3.282703 1_555
Ca1 Si4 3.307272 1_555
Ca2 Si2 3.090953 1_554
Ca2 Si2 3.090953 1_454
Ca2 Si6 3.091683 1_545
Ca2 Si6 3.091683 1_445
Ca2 Si4 3.194573 1_455
Ca2 Si4 3.194573 1_555
Ca2 Si1 3.238454 1_555
Ca2 Si3 3.282703 1_545
Ca2 Si7 3.307272 1_554
Ca3 Si3 3.090953 1_556
Ca3 Si3 3.090953 1_656
Ca3 Si7 3.091683 1_565
Ca3 Si7 3.091683 1_665
Ca3 Si5 3.194573 1_555
Ca3 Si5 3.194573 1_655
Ca3 Si0 3.238454 1_555
Ca3 Si2 3.282703 1_565
Ca3 Si6 3.307272 1_556
Si0 Si5 2.344309 1_655
Si0 Si5 2.344309 1_555
Si1 Si4 2.344309 1_555
Si1 Si4 2.344309 1_455
Si2 Si7 2.344309 1_655
Si2 Si7 2.344309 1_555
Si3 Si6 2.344309 1_455
Si3 Si6 2.344309 1_555
