# generated using pymatgen
data_Sr2Cu(OF)2
_symmetry_space_group_name_H-M   'P 1'
_cell_length_a   7.07138020
_cell_length_b   7.07138020
_cell_length_c   7.07138020
_cell_angle_alpha   147.09116127
_cell_angle_beta   147.09116127
_cell_angle_gamma   47.22882202
_symmetry_Int_Tables_number   1
_chemical_formula_structural   Sr2Cu(OF)2
_chemical_formula_sum   'Sr2 Cu1 O2 F2'
_cell_volume   103.97757511
_cell_formula_units_Z   1
loop_
 _symmetry_equiv_pos_site_id
 _symmetry_equiv_pos_as_xyz
  1  'x, y, z'
loop_
 _atom_site_type_symbol
 _atom_site_label
 _atom_site_symmetry_multiplicity
 _atom_site_fract_x
 _atom_site_fract_y
 _atom_site_fract_z
 _atom_site_occupancy
  Sr  Sr0  1  0.36545800  0.36545800  0.00000000  1
  Sr  Sr1  1  0.63454200  0.63454200  0.00000000  1
  Cu  Cu0  1  0.00000000  0.00000000  0.00000000  1
  O  O0  1  0.50000000  0.00000000  0.50000000  1
  O  O1  1  0.00000000  0.50000000  0.50000000  1
  F  F0  1  0.75000000  0.25000000  0.50000000  1
  F  F1  1  0.25000000  0.75000000  0.50000000  1
loop_
_geom_bond_atom_site_label_1
_geom_bond_atom_site_label_2
_geom_bond_distance
_geom_bond_site_symmetry_2
Cu0 O1 2.002986 1_555
Cu0 O0 2.002986 1_555
Cu0 O0 2.002986 1_454
Cu0 O1 2.002986 1_544
O0 Sr1 2.655485 1_545
O0 Sr1 2.655485 1_556
O0 Sr0 2.655485 1_545
O0 Sr0 2.655485 1_556
O1 Sr1 2.655485 1_455
O1 Sr1 2.655485 1_556
O1 Sr0 2.655485 1_455
O1 Sr0 2.655485 1_556
F0 Sr0 2.500089 1_555
F0 Sr0 2.500089 1_656
F0 Sr1 2.500089 1_545
F0 Sr1 2.500089 1_556
F1 Sr0 2.500089 1_555
F1 Sr0 2.500089 1_566
F1 Sr1 2.500089 1_556
F1 Sr1 2.500089 1_455
