# generated using pymatgen
data_CsFe(SeO4)2
_symmetry_space_group_name_H-M   'P 1'
_cell_length_a   5.23426125
_cell_length_b   5.23426125
_cell_length_c   9.18697500
_cell_angle_alpha   90.00000000
_cell_angle_beta   90.00000000
_cell_angle_gamma   119.99999056
_symmetry_Int_Tables_number   1
_chemical_formula_structural   CsFe(SeO4)2
_chemical_formula_sum   'Cs1 Fe1 Se2 O8'
_cell_volume   217.97867001
_cell_formula_units_Z   1
loop_
 _symmetry_equiv_pos_site_id
 _symmetry_equiv_pos_as_xyz
  1  'x, y, z'
loop_
 _atom_site_type_symbol
 _atom_site_label
 _atom_site_symmetry_multiplicity
 _atom_site_fract_x
 _atom_site_fract_y
 _atom_site_fract_z
 _atom_site_occupancy
  Cs  Cs0  1  0.00000000  0.00000000  0.50000000  1
  Fe  Fe0  1  0.00000000  0.00000000  0.00000000  1
  Se  Se0  1  0.66666700  0.33333300  0.80147300  1
  Se  Se1  1  0.33333300  0.66666700  0.19852700  1
  O  O0  1  0.92645400  0.25887100  0.85986900  1
  O  O1  1  0.33241700  0.07354600  0.85986900  1
  O  O2  1  0.66758300  0.74112900  0.14013100  1
  O  O3  1  0.74112900  0.66758300  0.85986900  1
  O  O4  1  0.25887100  0.92645400  0.14013100  1
  O  O5  1  0.07354600  0.33241700  0.14013100  1
  O  O6  1  0.66666700  0.33333300  0.62184900  1
  O  O7  1  0.33333300  0.66666700  0.37815100  1
loop_
_geom_bond_atom_site_label_1
_geom_bond_atom_site_label_2
_geom_bond_distance
_geom_bond_site_symmetry_2
Cs0 O7 3.222668 1_545
Cs0 O6 3.222668 1_455
Cs0 O6 3.222672 1_445
Cs0 O6 3.222672 1_555
Cs0 O7 3.222672 1_555
Cs0 O7 3.222672 1_445
Fe0 O0 2.040387 1_454
Fe0 O4 2.040387 1_545
Fe0 O1 2.040387 1_554
Fe0 O5 2.040387 1_555
Fe0 O3 2.040387 1_444
Fe0 O2 2.040387 1_445
O0 Se0 1.678911 1_555
O1 Se0 1.678915 1_555
O2 Se1 1.678916 1_555
O3 Se0 1.678916 1_555
O4 Se1 1.678911 1_555
O5 Se1 1.678915 1_555
O6 Se0 1.650201 1_555
O7 Se1 1.650201 1_555
