# generated using pymatgen
data_Pr4CdIr
_symmetry_space_group_name_H-M   'P 1'
_cell_length_a   10.00553908
_cell_length_b   10.00558142
_cell_length_c   10.00553785
_cell_angle_alpha   59.99988980
_cell_angle_beta   59.99979799
_cell_angle_gamma   59.99986756
_symmetry_Int_Tables_number   1
_chemical_formula_structural   Pr4CdIr
_chemical_formula_sum   'Pr16 Cd4 Ir4'
_cell_volume   708.28297817
_cell_formula_units_Z   4
loop_
 _symmetry_equiv_pos_site_id
 _symmetry_equiv_pos_as_xyz
  1  'x, y, z'
loop_
 _atom_site_type_symbol
 _atom_site_label
 _atom_site_symmetry_multiplicity
 _atom_site_fract_x
 _atom_site_fract_y
 _atom_site_fract_z
 _atom_site_occupancy
  Pr  Pr0  1  0.34796671  0.34797406  0.34798808  1
  Pr  Pr1  1  0.34796735  0.34797517  0.95607149  1
  Pr  Pr2  1  0.34796131  0.95607524  0.34798367  1
  Pr  Pr3  1  0.95607735  0.34796607  0.34798033  1
  Pr  Pr4  1  0.80891850  0.19109230  0.19110162  1
  Pr  Pr5  1  0.19109210  0.80891513  0.80888886  1
  Pr  Pr6  1  0.19109072  0.80891359  0.19110364  1
  Pr  Pr7  1  0.80892155  0.19109281  0.80888509  1
  Pr  Pr8  1  0.19109253  0.19109766  0.80890195  1
  Pr  Pr9  1  0.80891433  0.80889407  0.19109685  1
  Pr  Pr10  1  0.93958149  0.56041801  0.56042173  1
  Pr  Pr11  1  0.56041883  0.93957700  0.93957561  1
  Pr  Pr12  1  0.56041815  0.93957844  0.56042428  1
  Pr  Pr13  1  0.93957951  0.56041904  0.93957685  1
  Pr  Pr14  1  0.56042292  0.56042541  0.93957576  1
  Pr  Pr15  1  0.93958120  0.93957958  0.56041851  1
  Cd  Cd0  1  0.57891392  0.57891377  0.57891542  1
  Cd  Cd1  1  0.57890621  0.57892009  0.26326093  1
  Cd  Cd2  1  0.57891181  0.26325760  0.57891174  1
  Cd  Cd3  1  0.26325871  0.57891529  0.57891099  1
  Ir  Ir0  1  0.14132814  0.14132778  0.14132817  1
  Ir  Ir1  1  0.14132974  0.14132812  0.57601595  1
  Ir  Ir2  1  0.14132926  0.57601485  0.14132925  1
  Ir  Ir3  1  0.57601565  0.14132793  0.14132923  1
loop_
_geom_bond_atom_site_label_1
_geom_bond_atom_site_label_2
_geom_bond_distance
_geom_bond_site_symmetry_2
Cd0 Cd1 3.158300 1_555
Cd0 Cd3 3.158315 1_555
Cd0 Cd2 3.158352 1_555
Cd0 Pr14 3.433582 1_555
Cd0 Pr12 3.433608 1_555
Cd0 Pr10 3.433610 1_555
Cd0 Pr1 3.580348 1_555
Cd0 Pr3 3.580366 1_555
Cd0 Pr2 3.580373 1_555
Cd0 Pr5 3.617243 1_555
Cd0 Pr9 3.617255 1_555
Cd0 Pr7 3.617259 1_555
Cd1 Cd3 3.158226 1_555
Cd1 Cd2 3.158316 1_555
Cd1 Pr11 3.433587 1_554
Cd1 Pr14 3.433619 1_554
Cd1 Pr13 3.433659 1_554
Cd1 Pr2 3.580325 1_555
Cd1 Pr0 3.580372 1_555
Cd1 Pr3 3.580435 1_555
Cd1 Pr6 3.617210 1_555
Cd1 Pr9 3.617273 1_555
Cd1 Pr4 3.617336 1_555
Cd2 Cd3 3.158303 1_555
Cd2 Pr12 3.433590 1_545
Cd2 Pr11 3.433602 1_545
Cd2 Pr15 3.433620 1_545
Cd2 Pr0 3.580265 1_555
Cd2 Pr1 3.580327 1_555
Cd2 Pr3 3.580337 1_555
Cd2 Pr4 3.617195 1_555
Cd2 Pr8 3.617251 1_555
Cd2 Pr7 3.617270 1_555
Cd3 Pr10 3.433588 1_455
Cd3 Pr15 3.433592 1_455
Cd3 Pr13 3.433596 1_455
Cd3 Pr0 3.580268 1_555
Cd3 Pr2 3.580278 1_555
Cd3 Pr1 3.580297 1_555
Cd3 Pr6 3.617186 1_555
Cd3 Pr5 3.617223 1_555
Cd3 Pr8 3.617279 1_555
Ir0 Pr4 2.914335 1_455
Ir0 Pr6 2.914394 1_545
Ir0 Pr8 2.914507 1_554
Ir0 Pr1 2.931819 1_554
Ir0 Pr2 2.931833 1_545
Ir0 Pr3 2.931851 1_455
Ir0 Pr15 3.588650 1_445
Ir0 Pr11 3.588673 1_544
Ir0 Pr13 3.588681 1_454
Ir1 Pr7 2.914312 1_455
Ir1 Pr5 2.914369 1_545
Ir1 Pr8 2.914443 1_555
Ir1 Pr0 2.931791 1_555
Ir1 Pr2 2.931808 1_545
Ir1 Pr3 2.931828 1_455
Ir1 Pr12 3.588644 1_545
Ir1 Pr10 3.588666 1_455
Ir1 Pr15 3.588698 1_445
Ir2 Pr9 2.914393 1_455
Ir2 Pr6 2.914598 1_555
Ir2 Pr5 2.914627 1_554
Ir2 Pr0 2.931888 1_555
Ir2 Pr1 2.931898 1_554
Ir2 Pr3 2.931927 1_455
Ir2 Pr10 3.588663 1_455
Ir2 Pr14 3.588693 1_554
Ir2 Pr13 3.588725 1_454
Ir3 Pr9 2.914586 1_545
Ir3 Pr4 2.914636 1_555
Ir3 Pr7 2.914664 1_554
Ir3 Pr0 2.931953 1_555
Ir3 Pr1 2.931958 1_554
Ir3 Pr2 2.931971 1_545
Ir3 Pr12 3.588687 1_545
Ir3 Pr14 3.588737 1_554
Ir3 Pr11 3.588758 1_544
