# generated using pymatgen
data_YSc
_symmetry_space_group_name_H-M   'P 1'
_cell_length_a   7.04033166
_cell_length_b   7.04033166
_cell_length_c   10.80823244
_cell_angle_alpha   90.00000000
_cell_angle_beta   90.00000000
_cell_angle_gamma   120.00000431
_symmetry_Int_Tables_number   1
_chemical_formula_structural   YSc
_chemical_formula_sum   'Y8 Sc8'
_cell_volume   463.95037052
_cell_formula_units_Z   8
loop_
 _symmetry_equiv_pos_site_id
 _symmetry_equiv_pos_as_xyz
  1  'x, y, z'
loop_
 _atom_site_type_symbol
 _atom_site_label
 _atom_site_symmetry_multiplicity
 _atom_site_fract_x
 _atom_site_fract_y
 _atom_site_fract_z
 _atom_site_occupancy
  Y  Y0_0  1  0.00000000  0.00000000  0.00000000  1
  Y  Y0_1  1  0.00000000  0.00000000  0.50000000  1
  Y  Y0_2  1  0.00000000  0.50000000  0.00000000  1
  Y  Y0_3  1  0.00000000  0.50000000  0.50000000  1
  Y  Y0_4  1  0.50000000  0.00000000  0.00000000  1
  Y  Y0_5  1  0.50000000  0.00000000  0.50000000  1
  Y  Y0_6  1  0.50000000  0.50000000  0.00000000  1
  Y  Y0_7  1  0.50000000  0.50000000  0.50000000  1
  Sc  Sc0_0  1  0.16666650  0.33333350  0.25000000  1
  Sc  Sc0_1  1  0.16666650  0.33333350  0.75000000  1
  Sc  Sc0_2  1  0.16666650  0.83333350  0.25000000  1
  Sc  Sc0_3  1  0.16666650  0.83333350  0.75000000  1
  Sc  Sc0_4  1  0.66666650  0.33333350  0.25000000  1
  Sc  Sc0_5  1  0.66666650  0.33333350  0.75000000  1
  Sc  Sc0_6  1  0.66666650  0.83333350  0.25000000  1
  Sc  Sc0_7  1  0.66666650  0.83333350  0.75000000  1
loop_
_geom_bond_atom_site_label_1
_geom_bond_atom_site_label_2
_geom_bond_distance
_geom_bond_site_symmetry_2
Y0_0 Y0_6 3.520166 1_555
Y0_0 Y0_6 3.520166 1_445
Y0_0 Y0_2 3.520166 1_555
Y0_0 Y0_2 3.520166 1_545
Y0_0 Y0_4 3.520166 1_455
Y0_0 Y0_4 3.520166 1_555
Y0_1 Y0_7 3.520166 1_555
Y0_1 Y0_7 3.520166 1_445
Y0_1 Y0_5 3.520166 1_555
Y0_1 Y0_3 3.520166 1_545
Y0_1 Y0_3 3.520166 1_555
Y0_1 Y0_5 3.520166 1_455
Y0_2 Y0_4 3.520166 1_455
Y0_2 Y0_4 3.520166 1_565
Y0_2 Y0_6 3.520166 1_455
Y0_2 Y0_6 3.520166 1_555
Y0_3 Y0_5 3.520166 1_455
Y0_3 Y0_5 3.520166 1_565
Y0_3 Y0_7 3.520166 1_455
Y0_3 Y0_7 3.520166 1_555
Y0_4 Y0_6 3.520166 1_545
Y0_4 Y0_6 3.520166 1_555
Y0_5 Y0_7 3.520166 1_545
Y0_5 Y0_7 3.520166 1_555
Sc0_0 Y0_2 3.381070 1_555
Sc0_0 Y0_3 3.381070 1_555
Sc0_0 Y0_7 3.381071 1_555
Sc0_0 Y0_1 3.381071 1_555
Sc0_0 Y0_6 3.381071 1_555
Sc0_0 Y0_0 3.381071 1_555
Sc0_0 Sc0_6 3.520166 1_555
Sc0_0 Sc0_6 3.520166 1_445
Sc0_0 Sc0_2 3.520166 1_555
Sc0_0 Sc0_4 3.520166 1_555
Sc0_0 Sc0_2 3.520166 1_545
Sc0_0 Sc0_4 3.520166 1_455
Sc0_1 Y0_2 3.381070 1_556
Sc0_1 Y0_3 3.381070 1_555
Sc0_1 Y0_6 3.381071 1_556
Sc0_1 Y0_0 3.381071 1_556
Sc0_1 Y0_7 3.381071 1_555
Sc0_1 Y0_1 3.381071 1_555
Sc0_1 Sc0_7 3.520166 1_555
Sc0_1 Sc0_7 3.520166 1_445
Sc0_1 Sc0_5 3.520166 1_555
Sc0_1 Sc0_3 3.520166 1_555
Sc0_1 Sc0_3 3.520166 1_545
Sc0_1 Sc0_5 3.520166 1_455
Sc0_2 Y0_1 3.381070 1_565
Sc0_2 Y0_0 3.381070 1_565
Sc0_2 Y0_4 3.381071 1_565
Sc0_2 Y0_2 3.381071 1_555
Sc0_2 Y0_5 3.381071 1_565
Sc0_2 Y0_3 3.381071 1_555
Sc0_2 Sc0_4 3.520166 1_565
Sc0_2 Sc0_4 3.520166 1_455
Sc0_2 Sc0_6 3.520166 1_555
Sc0_2 Sc0_6 3.520166 1_455
Sc0_3 Y0_0 3.381070 1_566
Sc0_3 Y0_1 3.381070 1_565
Sc0_3 Y0_2 3.381071 1_556
Sc0_3 Y0_4 3.381071 1_566
Sc0_3 Y0_5 3.381071 1_565
Sc0_3 Y0_3 3.381071 1_555
Sc0_3 Sc0_5 3.520166 1_565
Sc0_3 Sc0_5 3.520166 1_455
Sc0_3 Sc0_7 3.520166 1_555
Sc0_3 Sc0_7 3.520166 1_455
Sc0_4 Y0_6 3.381070 1_555
Sc0_4 Y0_7 3.381070 1_555
Sc0_4 Y0_4 3.381071 1_555
Sc0_4 Y0_5 3.381071 1_555
Sc0_4 Y0_3 3.381071 1_655
Sc0_4 Y0_2 3.381071 1_655
Sc0_4 Sc0_6 3.520166 1_545
Sc0_4 Sc0_6 3.520166 1_555
Sc0_5 Y0_6 3.381070 1_556
Sc0_5 Y0_7 3.381070 1_555
Sc0_5 Y0_4 3.381071 1_556
Sc0_5 Y0_2 3.381071 1_656
Sc0_5 Y0_5 3.381071 1_555
Sc0_5 Y0_3 3.381071 1_655
Sc0_5 Sc0_7 3.520166 1_545
Sc0_5 Sc0_7 3.520166 1_555
Sc0_6 Y0_4 3.381070 1_565
Sc0_6 Y0_5 3.381070 1_565
Sc0_6 Y0_7 3.381071 1_555
Sc0_6 Y0_6 3.381071 1_555
Sc0_6 Y0_1 3.381071 1_665
Sc0_6 Y0_0 3.381071 1_665
Sc0_7 Y0_4 3.381070 1_566
Sc0_7 Y0_5 3.381070 1_565
Sc0_7 Y0_6 3.381071 1_556
Sc0_7 Y0_0 3.381071 1_666
Sc0_7 Y0_7 3.381071 1_555
Sc0_7 Y0_1 3.381071 1_665
