# generated using pymatgen
data_PrHIClO13
_symmetry_space_group_name_H-M   'P 1'
_cell_length_a   7.37840700
_cell_length_b   12.56912629
_cell_length_c   13.36486082
_cell_angle_alpha   112.42604291
_cell_angle_beta   90.00000000
_cell_angle_gamma   90.00000000
_symmetry_Int_Tables_number   1
_chemical_formula_structural   PrHIClO13
_chemical_formula_sum   'Pr4 H4 I4 Cl4 O52'
_cell_volume   1145.72202538
_cell_formula_units_Z   4
loop_
 _symmetry_equiv_pos_site_id
 _symmetry_equiv_pos_as_xyz
  1  'x, y, z'
loop_
 _atom_site_type_symbol
 _atom_site_label
 _atom_site_symmetry_multiplicity
 _atom_site_fract_x
 _atom_site_fract_y
 _atom_site_fract_z
 _atom_site_occupancy
  Pr  Pr0  1  0.86533300  0.97734800  0.31227000  1
  Pr  Pr1  1  0.36533300  0.02265200  0.18773000  1
  Pr  Pr2  1  0.13466700  0.02265200  0.68773000  1
  Pr  Pr3  1  0.63466700  0.97734800  0.81227000  1
  H  H0  1  0.80636500  0.27228100  0.13756600  1
  H  H1  1  0.30636400  0.72771900  0.36243400  1
  H  H2  1  0.19363500  0.72771900  0.86243400  1
  H  H3  1  0.69363500  0.27228100  0.63756600  1
  I  I0  1  0.87055700  0.06960300  0.09225300  1
  I  I1  1  0.37055700  0.93039700  0.40774700  1
  I  I2  1  0.12944300  0.93039700  0.90774700  1
  I  I3  1  0.62944300  0.06960300  0.59225300  1
  Cl  Cl0  1  0.22702200  0.46445100  0.12311800  1
  Cl  Cl1  1  0.72702200  0.53554900  0.37688200  1
  Cl  Cl2  1  0.77297800  0.53554900  0.87688200  1
  Cl  Cl3  1  0.27297800  0.46445100  0.62311800  1
  O  O0  1  0.07654200  0.09287500  0.00587600  1
  O  O1  1  0.57654200  0.90712500  0.49412400  1
  O  O2  1  0.92345800  0.90712500  0.99412400  1
  O  O3  1  0.42345800  0.09287500  0.50587600  1
  O  O4  1  0.69860700  0.02102800  0.17004900  1
  O  O5  1  0.19860700  0.97897200  0.32995100  1
  O  O6  1  0.30139300  0.97897200  0.82995100  1
  O  O7  1  0.80139300  0.02102800  0.67004900  1
  O  O8  1  0.69813800  0.08020000  0.99629600  1
  O  O9  1  0.19813800  0.91980000  0.50370400  1
  O  O10  1  0.30186200  0.91980000  0.00370400  1
  O  O11  1  0.80186200  0.08020000  0.49629600  1
  O  O12  1  0.03701300  0.05520600  0.19424500  1
  O  O13  1  0.53701300  0.94479400  0.30575500  1
  O  O14  1  0.96298700  0.94479400  0.80575500  1
  O  O15  1  0.46298700  0.05520600  0.69424500  1
  O  O16  1  0.86803000  0.23003300  0.17729200  1
  O  O17  1  0.36803000  0.76996700  0.32270800  1
  O  O18  1  0.13197000  0.76996700  0.82270800  1
  O  O19  1  0.63197000  0.23003300  0.67729200  1
  O  O20  1  0.90346700  0.77994300  0.31345000  1
  O  O21  1  0.40346700  0.22005700  0.18655000  1
  O  O22  1  0.09653300  0.22005700  0.68655000  1
  O  O23  1  0.59653300  0.77994300  0.81345000  1
  O  O24  1  0.83042300  0.28693800  0.44902600  1
  O  O25  1  0.33042300  0.71306200  0.05097400  1
  O  O26  1  0.16957700  0.71306200  0.55097400  1
  O  O27  1  0.66957700  0.28693800  0.94902600  1
  O  O28  1  0.92518000  0.77134500  0.21424300  1
  O  O29  1  0.42518000  0.22865500  0.28575700  1
  O  O30  1  0.07482000  0.22865500  0.78575700  1
  O  O31  1  0.57482000  0.77134500  0.71424300  1
  O  O32  1  0.40009500  0.51573100  0.11700700  1
  O  O33  1  0.90009500  0.48426900  0.38299300  1
  O  O34  1  0.59990500  0.48426900  0.88299300  1
  O  O35  1  0.09990500  0.51573100  0.61700700  1
  O  O36  1  0.08449800  0.55255500  0.15459200  1
  O  O37  1  0.58449800  0.44744500  0.34540800  1
  O  O38  1  0.91550200  0.44744500  0.84540800  1
  O  O39  1  0.41550200  0.55255500  0.65459200  1
  O  O40  1  0.71564800  0.34738100  0.04177400  1
  O  O41  1  0.21564800  0.65261900  0.45822600  1
  O  O42  1  0.28435200  0.65261900  0.95822600  1
  O  O43  1  0.78435200  0.34738100  0.54177400  1
  O  O44  1  0.23068500  0.42048300  0.21150400  1
  O  O45  1  0.73068500  0.57951700  0.28849600  1
  O  O46  1  0.76931500  0.57951700  0.78849600  1
  O  O47  1  0.26931500  0.42048300  0.71150400  1
  O  O48  1  0.18240200  0.37164600  0.02198300  1
  O  O49  1  0.68240200  0.62835400  0.47801700  1
  O  O50  1  0.81759800  0.62835400  0.97801700  1
  O  O51  1  0.31759800  0.37164600  0.52198300  1
loop_
_geom_bond_atom_site_label_1
_geom_bond_atom_site_label_2
_geom_bond_distance
_geom_bond_site_symmetry_2
H0 O16 0.992975 1_555
H1 O17 0.992978 1_555
H2 O18 0.992975 1_555
H3 O19 0.992975 1_555
I0 O8 1.846941 1_554
I0 O4 1.883559 1_555
I0 O12 1.894054 1_655
I0 O16 1.899895 1_555
I0 O0 1.996446 1_655
I0 O2 1.999860 1_544
I1 O9 1.846941 1_555
I1 O5 1.883559 1_555
I1 O13 1.894054 1_555
I1 O17 1.899895 1_555
I1 O1 1.996446 1_555
I1 O3 1.999860 1_565
I2 O10 1.846941 1_556
I2 O6 1.883559 1_555
I2 O14 1.894054 1_455
I2 O18 1.899895 1_555
I2 O2 1.996446 1_455
I2 O0 1.999860 1_566
I3 O11 1.846941 1_555
I3 O7 1.883559 1_555
I3 O15 1.894054 1_555
I3 O19 1.899895 1_555
I3 O3 1.996446 1_555
I3 O1 1.999860 1_545
Cl0 O32 1.446724 1_555
Cl0 O48 1.446740 1_555
Cl0 O36 1.467552 1_555
Cl0 O44 1.483110 1_555
Cl1 O33 1.446724 1_555
Cl1 O49 1.446740 1_555
Cl1 O37 1.467552 1_555
Cl1 O45 1.483110 1_555
Cl2 O34 1.446724 1_555
Cl2 O50 1.446740 1_555
Cl2 O38 1.467552 1_555
Cl2 O46 1.483110 1_555
Cl3 O35 1.446724 1_555
Cl3 O51 1.446740 1_555
Cl3 O39 1.467552 1_555
Cl3 O47 1.483110 1_555
O4 Pr1 2.469698 1_555
O4 Pr0 2.494767 1_545
O5 Pr0 2.469698 1_455
O5 Pr1 2.494767 1_565
O6 Pr3 2.469698 1_555
O6 Pr2 2.494767 1_565
O7 Pr2 2.469698 1_655
O7 Pr3 2.494767 1_545
O8 Pr3 2.348124 1_545
O9 Pr2 2.348124 1_565
O10 Pr1 2.348124 1_565
O11 Pr0 2.348124 1_545
O12 Pr1 2.452799 1_555
O12 Pr0 2.495633 1_445
O13 Pr0 2.452799 1_555
O13 Pr1 2.495633 1_565
O14 Pr3 2.452799 1_555
O14 Pr2 2.495633 1_665
O15 Pr2 2.452799 1_555
O15 Pr3 2.495633 1_545
O20 O28 1.298460 1_555
O20 Pr0 2.503131 1_555
O21 O29 1.298460 1_555
O21 Pr1 2.503131 1_555
O22 O30 1.298460 1_555
O22 Pr2 2.503131 1_555
O23 O31 1.298460 1_555
O23 Pr3 2.503131 1_555
O24 O43 1.229117 1_555
O25 O42 1.229117 1_554
O26 O41 1.229117 1_555
O27 O40 1.229117 1_556
O28 Pr0 2.455102 1_555
O29 Pr1 2.455102 1_555
O30 Pr2 2.455102 1_555
O31 Pr3 2.455102 1_555
