# generated using pymatgen
data_Ti2Cu
_symmetry_space_group_name_H-M   'P 1'
_cell_length_a   8.09881782
_cell_length_b   8.09881782
_cell_length_c   8.09881782
_cell_angle_alpha   60.00000000
_cell_angle_beta   60.00000000
_cell_angle_gamma   60.00000000
_symmetry_Int_Tables_number   1
_chemical_formula_structural   Ti2Cu
_chemical_formula_sum   'Ti16 Cu8'
_cell_volume   375.62102328
_cell_formula_units_Z   8
loop_
 _symmetry_equiv_pos_site_id
 _symmetry_equiv_pos_as_xyz
  1  'x, y, z'
loop_
 _atom_site_type_symbol
 _atom_site_label
 _atom_site_symmetry_multiplicity
 _atom_site_fract_x
 _atom_site_fract_y
 _atom_site_fract_z
 _atom_site_occupancy
  Ti  Ti0  1  0.12500000  0.62500000  0.62500000  1
  Ti  Ti1  1  0.62500000  0.12500000  0.62500000  1
  Ti  Ti2  1  0.62500000  0.62500000  0.12500000  1
  Ti  Ti3  1  0.62500000  0.62500000  0.62500000  1
  Ti  Ti4  1  0.81634600  0.81634600  0.18365400  1
  Ti  Ti5  1  0.18365400  0.18365400  0.81634600  1
  Ti  Ti6  1  0.81634600  0.18365400  0.81634600  1
  Ti  Ti7  1  0.18365400  0.81634600  0.18365400  1
  Ti  Ti8  1  0.18365400  0.81634600  0.81634600  1
  Ti  Ti9  1  0.81634600  0.18365400  0.18365400  1
  Ti  Ti10  1  0.43365400  0.43365400  0.06634600  1
  Ti  Ti11  1  0.06634600  0.06634600  0.43365400  1
  Ti  Ti12  1  0.43365400  0.06634600  0.43365400  1
  Ti  Ti13  1  0.06634600  0.43365400  0.06634600  1
  Ti  Ti14  1  0.06634600  0.43365400  0.43365400  1
  Ti  Ti15  1  0.43365400  0.06634600  0.06634600  1
  Cu  Cu0  1  0.75730200  0.41423300  0.41423300  1
  Cu  Cu1  1  0.41423300  0.75730200  0.41423300  1
  Cu  Cu2  1  0.41423300  0.41423300  0.75730200  1
  Cu  Cu3  1  0.41423300  0.41423300  0.41423300  1
  Cu  Cu4  1  0.49269800  0.83576700  0.83576700  1
  Cu  Cu5  1  0.83576700  0.49269800  0.83576700  1
  Cu  Cu6  1  0.83576700  0.83576700  0.49269800  1
  Cu  Cu7  1  0.83576700  0.83576700  0.83576700  1
loop_
_geom_bond_atom_site_label_1
_geom_bond_atom_site_label_2
_geom_bond_distance
_geom_bond_site_symmetry_2
Cu0 Ti3 2.496252 1_555
Cu0 Ti1 2.496259 1_555
Cu0 Ti2 2.496259 1_555
Cu0 Ti14 2.669462 1_655
Cu0 Ti13 2.669466 1_655
Cu0 Ti11 2.669466 1_655
Cu1 Ti3 2.496252 1_555
Cu1 Ti2 2.496259 1_555
Cu1 Ti0 2.496259 1_555
Cu1 Ti12 2.669462 1_565
Cu1 Ti11 2.669466 1_565
Cu1 Ti15 2.669466 1_565
Cu2 Ti3 2.496252 1_555
Cu2 Ti0 2.496259 1_555
Cu2 Ti1 2.496259 1_555
Cu2 Ti10 2.669462 1_556
Cu2 Ti15 2.669466 1_556
Cu2 Ti13 2.669466 1_556
Cu3 Ti2 2.496254 1_555
Cu3 Ti0 2.496254 1_555
Cu3 Ti1 2.496254 1_555
Cu3 Ti14 2.669470 1_555
Cu3 Ti12 2.669470 1_555
Cu3 Ti10 2.669470 1_555
Cu4 Ti3 2.496252 1_555
Cu4 Ti2 2.496259 1_556
Cu4 Ti1 2.496259 1_565
Cu4 Ti8 2.669462 1_555
Cu4 Ti7 2.669466 1_556
Cu4 Ti5 2.669466 1_565
Cu5 Ti3 2.496252 1_555
Cu5 Ti2 2.496259 1_556
Cu5 Ti0 2.496259 1_655
Cu5 Ti6 2.669462 1_555
Cu5 Ti5 2.669466 1_655
Cu5 Ti9 2.669466 1_556
Cu6 Ti3 2.496252 1_555
Cu6 Ti1 2.496259 1_565
Cu6 Ti0 2.496259 1_655
Cu6 Ti4 2.669462 1_555
Cu6 Ti9 2.669466 1_565
Cu6 Ti7 2.669466 1_655
Cu7 Ti0 2.496254 1_655
Cu7 Ti1 2.496254 1_565
Cu7 Ti2 2.496254 1_556
Cu7 Ti8 2.669470 1_655
Cu7 Ti4 2.669470 1_556
Cu7 Ti6 2.669470 1_565
