# generated using pymatgen
data_Ti6Ga16Ni7
_symmetry_space_group_name_H-M   'P 1'
_cell_length_a   8.38596964
_cell_length_b   8.38596964
_cell_length_c   8.38596964
_cell_angle_alpha   60.00000000
_cell_angle_beta   60.00000000
_cell_angle_gamma   60.00000000
_symmetry_Int_Tables_number   1
_chemical_formula_structural   Ti6Ga16Ni7
_chemical_formula_sum   'Ti6 Ga16 Ni7'
_cell_volume   417.00845416
_cell_formula_units_Z   1
loop_
 _symmetry_equiv_pos_site_id
 _symmetry_equiv_pos_as_xyz
  1  'x, y, z'
loop_
 _atom_site_type_symbol
 _atom_site_label
 _atom_site_symmetry_multiplicity
 _atom_site_fract_x
 _atom_site_fract_y
 _atom_site_fract_z
 _atom_site_occupancy
  Ti  Ti0  1  0.68885300  0.68885300  0.31114700  1
  Ti  Ti1  1  0.31114700  0.68885300  0.31114700  1
  Ti  Ti2  1  0.68885300  0.31114700  0.31114700  1
  Ti  Ti3  1  0.31114700  0.31114700  0.68885300  1
  Ti  Ti4  1  0.68885300  0.31114700  0.68885300  1
  Ti  Ti5  1  0.31114700  0.68885300  0.68885300  1
  Ga  Ga0  1  0.87898300  0.87898300  0.36305100  1
  Ga  Ga1  1  0.87898300  0.36305100  0.87898300  1
  Ga  Ga2  1  0.36305100  0.87898300  0.87898300  1
  Ga  Ga3  1  0.87898300  0.87898300  0.87898300  1
  Ga  Ga4  1  0.12101700  0.12101700  0.63694900  1
  Ga  Ga5  1  0.12101700  0.63694900  0.12101700  1
  Ga  Ga6  1  0.63694900  0.12101700  0.12101700  1
  Ga  Ga7  1  0.12101700  0.12101700  0.12101700  1
  Ga  Ga8  1  0.65648000  0.65648000  0.03055900  1
  Ga  Ga9  1  0.65648000  0.03055900  0.65648000  1
  Ga  Ga10  1  0.03055900  0.65648000  0.65648000  1
  Ga  Ga11  1  0.65648000  0.65648000  0.65648000  1
  Ga  Ga12  1  0.34352000  0.34352000  0.96944100  1
  Ga  Ga13  1  0.34352000  0.96944100  0.34352000  1
  Ga  Ga14  1  0.96944100  0.34352000  0.34352000  1
  Ga  Ga15  1  0.34352000  0.34352000  0.34352000  1
  Ni  Ni0  1  0.00000000  0.00000000  0.00000000  1
  Ni  Ni1  1  0.00000000  0.00000000  0.50000000  1
  Ni  Ni2  1  0.50000000  0.00000000  0.50000000  1
  Ni  Ni3  1  0.00000000  0.50000000  0.50000000  1
  Ni  Ni4  1  0.50000000  0.50000000  0.00000000  1
  Ni  Ni5  1  0.00000000  0.50000000  0.00000000  1
  Ni  Ni6  1  0.50000000  0.00000000  0.00000000  1
loop_
_geom_bond_atom_site_label_1
_geom_bond_atom_site_label_2
_geom_bond_distance
_geom_bond_site_symmetry_2
Ti0 Ti4 3.167431 1_555
Ti0 Ti1 3.167431 1_555
Ti0 Ti2 3.167431 1_555
Ti0 Ti5 3.167431 1_555
Ti1 Ti2 3.167431 1_555
Ti1 Ti5 3.167431 1_555
Ti1 Ti3 3.167431 1_555
Ti2 Ti4 3.167431 1_555
Ti2 Ti3 3.167431 1_555
Ti3 Ti4 3.167431 1_555
Ti3 Ti5 3.167431 1_555
Ti4 Ti5 3.167431 1_555
Ga0 Ni0 2.485852 1_665
Ga0 Ni2 2.596087 1_565
Ga0 Ni3 2.596087 1_655
Ga0 Ni1 2.596087 1_665
Ga0 Ga9 2.704983 1_565
Ga0 Ga10 2.704983 1_655
Ga0 Ga11 2.704988 1_555
Ga0 Ga5 2.870415 1_655
Ga0 Ga6 2.870415 1_565
Ga0 Ga7 2.870415 1_665
Ga0 Ti1 3.033813 1_655
Ga0 Ti2 3.033813 1_565
Ga0 Ti0 3.033813 1_555
Ga1 Ni0 2.485852 1_656
Ga1 Ni3 2.596087 1_655
Ga1 Ni4 2.596087 1_556
Ga1 Ni5 2.596087 1_656
Ga1 Ga10 2.704983 1_655
Ga1 Ga8 2.704983 1_556
Ga1 Ga11 2.704988 1_555
Ga1 Ga4 2.870415 1_655
Ga1 Ga6 2.870415 1_556
Ga1 Ga7 2.870415 1_656
Ga1 Ti3 3.033813 1_655
Ga1 Ti2 3.033813 1_556
Ga1 Ti4 3.033813 1_555
Ga2 Ni0 2.485852 1_566
Ga2 Ni2 2.596087 1_565
Ga2 Ni4 2.596087 1_556
Ga2 Ni6 2.596087 1_566
Ga2 Ga9 2.704983 1_565
Ga2 Ga8 2.704983 1_556
Ga2 Ga4 2.870415 1_565
Ga2 Ga5 2.870415 1_556
Ga2 Ga7 2.870415 1_566
Ga2 Ti3 3.033813 1_565
Ga2 Ti1 3.033813 1_556
Ga2 Ti5 3.033813 1_555
Ga3 Ni0 2.485852 1_666
Ga3 Ni1 2.596087 1_665
Ga3 Ni6 2.596087 1_566
Ga3 Ni5 2.596087 1_656
Ga3 Ga8 2.704989 1_556
Ga3 Ga9 2.704989 1_565
Ga3 Ga6 2.870415 1_566
Ga3 Ga4 2.870415 1_665
Ga3 Ga5 2.870415 1_656
Ga3 Ti5 3.033813 1_655
Ga3 Ti4 3.033813 1_565
Ga3 Ti0 3.033813 1_556
Ga4 Ni0 2.485852 1_556
Ga4 Ni1 2.596087 1_555
Ga4 Ni2 2.596087 1_555
Ga4 Ni3 2.596087 1_555
Ga4 Ti3 3.033813 1_555
Ga4 Ti4 3.033813 1_455
Ga4 Ti5 3.033813 1_545
Ga5 Ni0 2.485852 1_565
Ga5 Ni5 2.596087 1_555
Ga5 Ni4 2.596087 1_555
Ga5 Ni3 2.596087 1_555
Ga5 Ti1 3.033813 1_555
Ga5 Ti5 3.033813 1_554
Ga5 Ti0 3.033813 1_455
Ga6 Ni0 2.485852 1_655
Ga6 Ni2 2.596087 1_555
Ga6 Ni4 2.596087 1_555
Ga6 Ni6 2.596087 1_555
Ga6 Ti2 3.033813 1_555
Ga6 Ti0 3.033813 1_545
Ga6 Ti4 3.033813 1_554
Ga7 Ni0 2.485852 1_555
Ga7 Ni1 2.596087 1_555
Ga7 Ni5 2.596087 1_555
Ga7 Ni6 2.596087 1_555
Ga7 Ti1 3.033813 1_545
Ga7 Ti2 3.033813 1_455
Ga7 Ti3 3.033813 1_554
Ga8 Ni4 2.429842 1_555
Ga8 Ni6 2.429849 1_565
Ga8 Ni5 2.429849 1_655
Ga8 Ti1 2.652410 1_555
Ga8 Ti2 2.652410 1_555
Ga8 Ti0 2.652415 1_555
Ga9 Ni2 2.429842 1_555
Ga9 Ni1 2.429849 1_655
Ga9 Ni6 2.429849 1_556
Ga9 Ti3 2.652410 1_555
Ga9 Ti2 2.652410 1_555
Ga9 Ti4 2.652415 1_555
Ga10 Ni3 2.429842 1_555
Ga10 Ni5 2.429849 1_556
Ga10 Ni1 2.429849 1_565
Ga10 Ti3 2.652410 1_555
Ga10 Ti1 2.652410 1_555
Ga10 Ti5 2.652415 1_555
Ga10 Ga3 2.704989 1_455
Ga11 Ni2 2.429847 1_565
Ga11 Ni3 2.429847 1_655
Ga11 Ni4 2.429847 1_556
Ga11 Ti0 2.652407 1_555
Ga11 Ti4 2.652407 1_555
Ga11 Ti5 2.652407 1_555
Ga11 Ga2 2.704988 1_555
Ga12 Ni4 2.429842 1_556
Ga12 Ni5 2.429849 1_556
Ga12 Ni6 2.429849 1_556
Ga12 Ti4 2.652410 1_555
Ga12 Ti5 2.652410 1_555
Ga12 Ti3 2.652415 1_555
Ga12 Ga6 2.704983 1_556
Ga12 Ga5 2.704983 1_556
Ga12 Ga7 2.704989 1_556
Ga13 Ni2 2.429842 1_565
Ga13 Ni1 2.429849 1_565
Ga13 Ni6 2.429849 1_565
Ga13 Ti0 2.652410 1_555
Ga13 Ti5 2.652410 1_555
Ga13 Ti1 2.652415 1_555
Ga13 Ga6 2.704983 1_565
Ga13 Ga4 2.704983 1_565
Ga13 Ga7 2.704989 1_565
Ga14 Ni3 2.429842 1_655
Ga14 Ni5 2.429849 1_655
Ga14 Ni1 2.429849 1_655
Ga14 Ti0 2.652410 1_555
Ga14 Ti4 2.652410 1_555
Ga14 Ti2 2.652415 1_555
Ga14 Ga4 2.704983 1_655
Ga14 Ga5 2.704983 1_655
Ga14 Ga7 2.704989 1_655
Ga15 Ni4 2.429847 1_555
Ga15 Ni3 2.429847 1_555
Ga15 Ni2 2.429847 1_555
Ga15 Ti2 2.652407 1_555
Ga15 Ti3 2.652407 1_555
Ga15 Ti1 2.652407 1_555
Ga15 Ga5 2.704988 1_555
Ga15 Ga4 2.704988 1_555
Ga15 Ga6 2.704988 1_555
Ni1 Ti5 3.052285 1_545
Ni1 Ti4 3.052285 1_455
Ni1 Ti1 3.052285 1_545
Ni1 Ti2 3.052285 1_455
Ni2 Ti3 3.052285 1_555
Ni2 Ti2 3.052285 1_555
Ni2 Ti0 3.052285 1_545
Ni2 Ti5 3.052285 1_545
Ni3 Ti3 3.052285 1_555
Ni3 Ti1 3.052285 1_555
Ni3 Ti0 3.052285 1_455
Ni3 Ti4 3.052285 1_455
Ni4 Ti1 3.052285 1_555
Ni4 Ti2 3.052285 1_555
Ni4 Ti4 3.052285 1_554
Ni4 Ti5 3.052285 1_554
Ni5 Ti5 3.052285 1_554
Ni5 Ti0 3.052285 1_455
Ni5 Ti3 3.052285 1_554
Ni5 Ti2 3.052285 1_455
Ni6 Ti0 3.052285 1_545
Ni6 Ti4 3.052285 1_554
Ni6 Ti3 3.052285 1_554
Ni6 Ti1 3.052285 1_545
