# generated using pymatgen
data_Rb2LaNb2O7
_symmetry_space_group_name_H-M   'P 1'
_cell_length_a   11.71241008
_cell_length_b   11.71241008
_cell_length_c   5.77161000
_cell_angle_alpha   90.00000000
_cell_angle_beta   90.00000000
_cell_angle_gamma   151.46000748
_symmetry_Int_Tables_number   1
_chemical_formula_structural   Rb2LaNb2O7
_chemical_formula_sum   'Rb4 La2 Nb4 O14'
_cell_volume   378.27728622
_cell_formula_units_Z   2
loop_
 _symmetry_equiv_pos_site_id
 _symmetry_equiv_pos_as_xyz
  1  'x, y, z'
loop_
 _atom_site_type_symbol
 _atom_site_label
 _atom_site_symmetry_multiplicity
 _atom_site_fract_x
 _atom_site_fract_y
 _atom_site_fract_z
 _atom_site_occupancy
  Rb  Rb0  1  0.93052900  0.54725500  0.25000000  1
  Rb  Rb1  1  0.45274500  0.06947100  0.75000000  1
  Rb  Rb2  1  0.06947100  0.45274500  0.75000000  1
  Rb  Rb3  1  0.54725500  0.93052900  0.25000000  1
  La  La0  1  0.26174900  0.26174900  0.75000000  1
  La  La1  1  0.73825100  0.73825100  0.25000000  1
  Nb  Nb0  1  0.34251200  0.15579600  0.25000000  1
  Nb  Nb1  1  0.84420400  0.65748800  0.75000000  1
  Nb  Nb2  1  0.65748800  0.84420400  0.75000000  1
  Nb  Nb3  1  0.15579600  0.34251200  0.25000000  1
  O  O0  1  0.69954700  0.69954700  0.75000000  1
  O  O1  1  0.30045300  0.30045300  0.25000000  1
  O  O2  1  0.94580700  0.59391700  0.75000000  1
  O  O3  1  0.40608300  0.05419300  0.25000000  1
  O  O4  1  0.05419300  0.40608300  0.25000000  1
  O  O5  1  0.59391700  0.94580700  0.75000000  1
  O  O6  1  0.58676400  0.41323600  0.50000000  1
  O  O7  1  0.58676400  0.41323600  0.00000000  1
  O  O8  1  0.41323600  0.58676400  0.50000000  1
  O  O9  1  0.41323600  0.58676400  0.00000000  1
  O  O10  1  0.07339000  0.92661000  0.50000000  1
  O  O11  1  0.07339000  0.92661000  0.00000000  1
  O  O12  1  0.92661000  0.07339000  0.50000000  1
  O  O13  1  0.92661000  0.07339000  0.00000000  1
loop_
_geom_bond_atom_site_label_1
_geom_bond_atom_site_label_2
_geom_bond_distance
_geom_bond_site_symmetry_2
La0 O0 2.527854 1_555
La0 O12 2.672457 1_455
La0 O10 2.672457 1_545
La0 O11 2.672457 1_546
La0 O13 2.672457 1_456
La0 O7 2.802539 1_556
La0 O6 2.802539 1_555
La0 O9 2.802539 1_556
La0 O8 2.802539 1_555
La0 O1 2.894445 1_555
La0 O1 2.894445 1_556
La1 O1 2.527854 1_555
La1 O11 2.672457 1_655
La1 O12 2.672457 1_565
La1 O13 2.672457 1_565
La1 O10 2.672457 1_655
La1 O8 2.802539 1_555
La1 O9 2.802539 1_555
La1 O7 2.802539 1_555
La1 O6 2.802539 1_555
La1 O0 2.894445 1_554
La1 O0 2.894445 1_555
Nb0 O3 1.878106 1_555
Nb0 O7 2.049929 1_555
Nb0 O6 2.049929 1_555
Nb0 O10 2.087364 1_545
Nb0 O11 2.087364 1_545
Nb0 O1 2.140015 1_555
Nb1 O2 1.878106 1_555
Nb1 O6 2.049929 1_555
Nb1 O7 2.049929 1_556
Nb1 O11 2.087364 1_656
Nb1 O10 2.087364 1_655
Nb1 O0 2.140015 1_555
Nb2 O5 1.878106 1_555
Nb2 O9 2.049929 1_556
Nb2 O8 2.049929 1_555
Nb2 O12 2.087364 1_565
Nb2 O13 2.087364 1_566
Nb2 O0 2.140015 1_555
Nb3 O4 1.878106 1_555
Nb3 O9 2.049929 1_555
Nb3 O8 2.049929 1_555
Nb3 O13 2.087364 1_455
Nb3 O12 2.087364 1_455
Nb3 O1 2.140015 1_555
O2 Rb1 2.858747 1_665
O2 Rb0 2.913204 1_555
O2 Rb0 2.913204 1_556
O2 Rb1 2.959078 1_555
O2 Rb2 3.006584 1_655
O3 Rb0 2.858747 1_445
O3 Rb1 2.913204 1_555
O3 Rb1 2.913204 1_554
O3 Rb0 2.959078 1_555
O3 Rb3 3.006584 1_545
O4 Rb3 2.858747 1_445
O4 Rb2 2.913204 1_554
O4 Rb2 2.913204 1_555
O4 Rb3 2.959078 1_555
O4 Rb0 3.006584 1_455
O5 Rb2 2.858747 1_665
O5 Rb3 2.913204 1_556
O5 Rb3 2.913204 1_555
O5 Rb2 2.959078 1_555
O5 Rb1 3.006584 1_565
O6 Rb0 3.106925 1_555
O6 Rb1 3.106925 1_555
O7 Rb0 3.106925 1_555
O7 Rb1 3.106925 1_554
O8 Rb3 3.106925 1_555
O8 Rb2 3.106925 1_555
O9 Rb3 3.106925 1_555
O9 Rb2 3.106925 1_554
O10 Rb1 3.400179 1_565
O10 Rb0 3.400179 1_455
O11 Rb1 3.400179 1_564
O11 Rb0 3.400179 1_455
O12 Rb2 3.400179 1_655
O12 Rb3 3.400179 1_545
O13 Rb2 3.400179 1_654
O13 Rb3 3.400179 1_545
