# generated using pymatgen
data_PrTl(SO5)2
_symmetry_space_group_name_H-M   'P 1'
_cell_length_a   11.87342200
_cell_length_b   7.27414000
_cell_length_c   13.22254825
_cell_angle_alpha   58.30705997
_cell_angle_beta   90.00000000
_cell_angle_gamma   90.00000000
_symmetry_Int_Tables_number   1
_chemical_formula_structural   PrTl(SO5)2
_chemical_formula_sum   'Pr4 Tl4 S8 O40'
_cell_volume   971.71502405
_cell_formula_units_Z   4
loop_
 _symmetry_equiv_pos_site_id
 _symmetry_equiv_pos_as_xyz
  1  'x, y, z'
loop_
 _atom_site_type_symbol
 _atom_site_label
 _atom_site_symmetry_multiplicity
 _atom_site_fract_x
 _atom_site_fract_y
 _atom_site_fract_z
 _atom_site_occupancy
  Pr  Pr0  1  0.92047700  0.58611200  0.16409500  1
  Pr  Pr1  1  0.57952300  0.58611200  0.66409500  1
  Pr  Pr2  1  0.07952300  0.41388800  0.83590500  1
  Pr  Pr3  1  0.42047700  0.41388800  0.33590500  1
  Tl  Tl0  1  0.63178500  0.07174300  0.17929500  1
  Tl  Tl1  1  0.86821500  0.07174300  0.67929500  1
  Tl  Tl2  1  0.36821500  0.92825700  0.82070500  1
  Tl  Tl3  1  0.13178500  0.92825700  0.32070500  1
  S  S0  1  0.55679600  0.17681100  0.57017200  1
  S  S1  1  0.94320400  0.17681100  0.07017200  1
  S  S2  1  0.44320400  0.82318900  0.42982800  1
  S  S3  1  0.05679600  0.82318900  0.92982800  1
  S  S4  1  0.90665300  0.63285400  0.61925900  1
  S  S5  1  0.59334700  0.63285400  0.11925900  1
  S  S6  1  0.09334700  0.36714600  0.38074100  1
  S  S7  1  0.40665300  0.36714600  0.88074100  1
  O  O0  1  0.43076600  0.19106500  0.56554900  1
  O  O1  1  0.06923400  0.19106500  0.06554900  1
  O  O2  1  0.56923400  0.80893500  0.43445100  1
  O  O3  1  0.93076600  0.80893500  0.93445100  1
  O  O4  1  0.59583400  0.94906800  0.63561300  1
  O  O5  1  0.90416600  0.94906800  0.13561300  1
  O  O6  1  0.40416600  0.05093200  0.36438700  1
  O  O7  1  0.09583400  0.05093200  0.86438700  1
  O  O8  1  0.60462600  0.28685200  0.62846800  1
  O  O9  1  0.89537400  0.28685200  0.12846800  1
  O  O10  1  0.39537400  0.71314800  0.37153200  1
  O  O11  1  0.10462600  0.71314800  0.87153200  1
  O  O12  1  0.95837000  0.72195100  0.69029600  1
  O  O13  1  0.54163000  0.72195100  0.19029600  1
  O  O14  1  0.04163000  0.27804900  0.30970400  1
  O  O15  1  0.45837000  0.27804900  0.80970400  1
  O  O16  1  0.96195800  0.41215900  0.67694400  1
  O  O17  1  0.53804200  0.41215900  0.17694400  1
  O  O18  1  0.03804200  0.58784100  0.32305600  1
  O  O19  1  0.46195800  0.58784100  0.82305600  1
  O  O20  1  0.92947000  0.76737400  0.49326000  1
  O  O21  1  0.57053000  0.76737400  0.99326000  1
  O  O22  1  0.07053000  0.23262600  0.50674000  1
  O  O23  1  0.42947000  0.23262600  0.00674000  1
  O  O24  1  0.59381200  0.28848900  0.44322000  1
  O  O25  1  0.90618800  0.28848900  0.94322000  1
  O  O26  1  0.40618800  0.71151100  0.55678000  1
  O  O27  1  0.09381200  0.71151100  0.05678000  1
  O  O28  1  0.78233200  0.60405100  0.64302500  1
  O  O29  1  0.71766800  0.60405100  0.14302500  1
  O  O30  1  0.21766800  0.39594900  0.35697500  1
  O  O31  1  0.28233200  0.39594900  0.85697500  1
  O  O32  1  0.81606200  0.33334100  0.40526100  1
  O  O33  1  0.68393800  0.33334100  0.90526100  1
  O  O34  1  0.18393800  0.66665900  0.59473900  1
  O  O35  1  0.31606200  0.66665900  0.09473900  1
  O  O36  1  0.79556400  0.51993100  0.38009200  1
  O  O37  1  0.70443600  0.51993100  0.88009200  1
  O  O38  1  0.20443600  0.48006900  0.61990800  1
  O  O39  1  0.29556400  0.48006900  0.11990800  1
loop_
_geom_bond_atom_site_label_1
_geom_bond_atom_site_label_2
_geom_bond_distance
_geom_bond_site_symmetry_2
O0 S0 1.499021 1_555
O0 Pr3 2.586680 1_555
O1 S1 1.499021 1_455
O1 Pr2 2.586680 1_554
O2 S2 1.499021 1_555
O2 Pr1 2.586680 1_555
O3 S3 1.499021 1_655
O3 Pr0 2.586680 1_556
O4 S0 1.483852 1_565
O4 Pr1 2.470871 1_555
O5 S1 1.483852 1_565
O5 Pr0 2.470871 1_555
O6 S2 1.483852 1_545
O6 Pr3 2.470871 1_555
O7 S3 1.483852 1_545
O7 Pr2 2.470871 1_555
O8 S0 1.485166 1_555
O8 Pr1 2.475272 1_555
O9 S1 1.485166 1_555
O9 Pr0 2.475272 1_555
O10 S2 1.485166 1_555
O10 Pr3 2.475272 1_555
O11 S3 1.485166 1_555
O11 Pr2 2.475272 1_555
O12 S4 1.522831 1_555
O12 Pr2 2.502883 1_655
O12 Tl1 2.693006 1_565
O13 S5 1.522831 1_555
O13 Pr3 2.502883 1_555
O13 Tl0 2.693006 1_565
O14 S6 1.522831 1_555
O14 Pr0 2.502883 1_455
O14 Tl3 2.693006 1_545
O15 S7 1.522831 1_555
O15 Pr1 2.502883 1_555
O15 Tl2 2.693006 1_545
O16 S4 1.517753 1_555
O16 Pr2 2.528700 1_655
O16 Tl1 2.700129 1_555
O17 S5 1.517753 1_555
O17 Pr3 2.528700 1_555
O17 Tl0 2.700129 1_555
O18 S6 1.517753 1_555
O18 Pr0 2.528700 1_455
O18 Tl3 2.700129 1_555
O19 S7 1.517753 1_555
O19 Pr1 2.528700 1_555
O19 Tl2 2.700129 1_555
O20 S4 1.446926 1_555
O21 S5 1.446926 1_556
O22 S6 1.446926 1_555
O23 S7 1.446926 1_554
O24 S0 1.496013 1_555
O24 Pr3 2.391909 1_555
O25 S1 1.496013 1_556
O25 Pr2 2.391909 1_655
O26 S2 1.496013 1_555
O26 Pr1 2.391909 1_555
O27 S3 1.496013 1_554
O27 Pr0 2.391909 1_455
O28 S4 1.500795 1_555
O28 Pr1 2.419729 1_555
O29 S5 1.500795 1_555
O29 Pr0 2.419729 1_555
O30 S6 1.500795 1_555
O30 Pr3 2.419729 1_555
O31 S7 1.500795 1_555
O31 Pr2 2.419729 1_555
O32 O36 1.239994 1_555
O32 Pr0 2.987590 1_555
O33 O37 1.239994 1_555
O33 Pr1 2.987590 1_555
O34 O38 1.239994 1_555
O34 Pr2 2.987590 1_555
O35 O39 1.239994 1_555
O35 Pr3 2.987590 1_555
