# generated using pymatgen
data_ZnCuBiO5
_symmetry_space_group_name_H-M   'P 1'
_cell_length_a   5.22458300
_cell_length_b   9.69020500
_cell_length_c   15.03574800
_cell_angle_alpha   90.00000000
_cell_angle_beta   90.00000000
_cell_angle_gamma   90.00000000
_symmetry_Int_Tables_number   1
_chemical_formula_structural   ZnCuBiO5
_chemical_formula_sum   'Zn8 Cu8 Bi8 O40'
_cell_volume   761.21902866
_cell_formula_units_Z   8
loop_
 _symmetry_equiv_pos_site_id
 _symmetry_equiv_pos_as_xyz
  1  'x, y, z'
loop_
 _atom_site_type_symbol
 _atom_site_label
 _atom_site_symmetry_multiplicity
 _atom_site_fract_x
 _atom_site_fract_y
 _atom_site_fract_z
 _atom_site_occupancy
  Zn  Zn0  1  0.55805700  0.37432700  0.56319400  1
  Zn  Zn1  1  0.05805700  0.12567300  0.56319400  1
  Zn  Zn2  1  0.05805700  0.62567300  0.93680600  1
  Zn  Zn3  1  0.94194300  0.37432700  0.06319400  1
  Zn  Zn4  1  0.44194300  0.12567300  0.06319400  1
  Zn  Zn5  1  0.94194300  0.87432700  0.43680600  1
  Zn  Zn6  1  0.44194300  0.62567300  0.43680600  1
  Zn  Zn7  1  0.55805700  0.87432700  0.93680600  1
  Cu  Cu0  1  0.02669600  0.38476800  0.42787200  1
  Cu  Cu1  1  0.47330400  0.88476800  0.57212800  1
  Cu  Cu2  1  0.97330400  0.61523200  0.57212800  1
  Cu  Cu3  1  0.52669600  0.11523200  0.42787200  1
  Cu  Cu4  1  0.97330400  0.11523200  0.92787200  1
  Cu  Cu5  1  0.02669600  0.88476800  0.07212800  1
  Cu  Cu6  1  0.47330400  0.38476800  0.92787200  1
  Cu  Cu7  1  0.52669600  0.61523200  0.07212800  1
  Bi  Bi0  1  0.02197200  0.86321500  0.74989000  1
  Bi  Bi1  1  0.97802800  0.13678500  0.25011000  1
  Bi  Bi2  1  0.47802800  0.36321500  0.25011000  1
  Bi  Bi3  1  0.97802800  0.63678500  0.24989000  1
  Bi  Bi4  1  0.52197200  0.13678500  0.75011000  1
  Bi  Bi5  1  0.52197200  0.63678500  0.74989000  1
  Bi  Bi6  1  0.47802800  0.86321500  0.24989000  1
  Bi  Bi7  1  0.02197200  0.36321500  0.75011000  1
  O  O0  1  0.82758800  0.31870000  0.32894000  1
  O  O1  1  0.23418300  0.97716400  0.98158600  1
  O  O2  1  0.26581700  0.47716400  0.01841400  1
  O  O3  1  0.35592200  0.80834100  0.82720200  1
  O  O4  1  0.14407800  0.30834100  0.17279800  1
  O  O5  1  0.82758800  0.81870100  0.17106000  1
  O  O6  1  0.14407800  0.80834100  0.32720200  1
  O  O7  1  0.67241200  0.81870100  0.67106000  1
  O  O8  1  0.23418300  0.47716400  0.51841400  1
  O  O9  1  0.17241200  0.68129900  0.67106000  1
  O  O10  1  0.67241200  0.31870000  0.82894000  1
  O  O11  1  0.83413100  0.26268500  0.49515500  1
  O  O12  1  0.73418300  0.02283600  0.51841400  1
  O  O13  1  0.64407800  0.69165900  0.32720200  1
  O  O14  1  0.22272600  0.99837900  0.15288600  1
  O  O15  1  0.73418300  0.52283600  0.98158600  1
  O  O16  1  0.17241200  0.18130000  0.82894000  1
  O  O17  1  0.85592200  0.19165900  0.67279800  1
  O  O18  1  0.33413100  0.73731500  0.00484500  1
  O  O19  1  0.26581700  0.97716400  0.48158600  1
  O  O20  1  0.16586900  0.73731500  0.50484500  1
  O  O21  1  0.77727400  0.00162100  0.84711400  1
  O  O22  1  0.64407800  0.19165900  0.17279800  1
  O  O23  1  0.72272600  0.00162100  0.34711400  1
  O  O24  1  0.16586900  0.23731500  0.99515500  1
  O  O25  1  0.33413100  0.23731500  0.49515500  1
  O  O26  1  0.76581700  0.52283600  0.48158600  1
  O  O27  1  0.76581700  0.02283600  0.01841400  1
  O  O28  1  0.72272600  0.50162100  0.15288600  1
  O  O29  1  0.66586900  0.76268500  0.50484500  1
  O  O30  1  0.66586900  0.26268500  0.99515500  1
  O  O31  1  0.83413100  0.76268500  0.00484500  1
  O  O32  1  0.77727400  0.50162100  0.65288600  1
  O  O33  1  0.85592200  0.69165900  0.82720200  1
  O  O34  1  0.35592200  0.30834100  0.67279800  1
  O  O35  1  0.22272600  0.49837900  0.34711400  1
  O  O36  1  0.27727400  0.49837900  0.84711400  1
  O  O37  1  0.32758800  0.18130000  0.32894000  1
  O  O38  1  0.27727400  0.99837900  0.65288600  1
  O  O39  1  0.32758800  0.68129900  0.17106000  1
loop_
_geom_bond_atom_site_label_1
_geom_bond_atom_site_label_2
_geom_bond_distance
_geom_bond_site_symmetry_2
Cu0 O11 1.853410 1_455
Cu0 O0 1.924763 1_455
Cu0 O35 1.932709 1_555
Cu0 O8 1.957057 1_555
Cu0 O26 2.073641 1_455
Cu0 O25 2.375919 1_555
Cu1 O29 1.853410 1_555
Cu1 O7 1.924759 1_555
Cu1 O38 1.932709 1_555
Cu1 O19 1.957057 1_555
Cu1 O12 2.073641 1_565
Cu1 O20 2.375919 1_555
Cu2 O20 1.853410 1_655
Cu2 O9 1.924759 1_655
Cu2 O32 1.932709 1_555
Cu2 O26 1.957057 1_555
Cu2 O8 2.073641 1_655
Cu2 O29 2.375919 1_555
Cu3 O25 1.853410 1_555
Cu3 O37 1.924763 1_555
Cu3 O23 1.932709 1_555
Cu3 O12 1.957057 1_555
Cu3 O19 2.073641 1_545
Cu3 O11 2.375919 1_555
Cu4 O24 1.853410 1_655
Cu4 O16 1.924763 1_655
Cu4 O21 1.932709 1_555
Cu4 O27 1.957057 1_556
Cu4 O1 2.073641 1_645
Cu4 O30 2.375919 1_555
Cu5 O31 1.853410 1_455
Cu5 O5 1.924759 1_455
Cu5 O14 1.932709 1_555
Cu5 O1 1.957057 1_554
Cu5 O27 2.073641 1_465
Cu5 O18 2.375919 1_555
Cu6 O30 1.853410 1_555
Cu6 O10 1.924763 1_555
Cu6 O36 1.932709 1_555
Cu6 O2 1.957057 1_556
Cu6 O15 2.073641 1_555
Cu6 O24 2.375919 1_555
Cu7 O18 1.853410 1_555
Cu7 O39 1.924759 1_555
Cu7 O28 1.932709 1_555
Cu7 O15 1.957057 1_554
Cu7 O2 2.073641 1_555
Cu7 O31 2.375919 1_555
Bi0 O3 2.162909 1_555
Bi0 O33 2.206246 1_455
Bi0 O7 2.219530 1_455
Bi0 O9 2.264975 1_555
Bi0 O21 2.360118 1_465
Bi0 O38 2.371063 1_555
Bi1 O22 2.162909 1_555
Bi1 O4 2.206246 1_655
Bi1 O37 2.219532 1_655
Bi1 O0 2.264967 1_555
Bi1 O14 2.360118 1_645
Bi1 O23 2.371063 1_555
Bi2 O4 2.162909 1_555
Bi2 O22 2.206246 1_555
Bi2 O0 2.219532 1_555
Bi2 O37 2.264967 1_555
Bi2 O28 2.360118 1_555
Bi2 O35 2.371063 1_555
Bi3 O13 2.162909 1_555
Bi3 O6 2.206246 1_655
Bi3 O39 2.219530 1_655
Bi3 O5 2.264975 1_555
Bi3 O35 2.360118 1_655
Bi3 O28 2.371063 1_555
Bi4 O17 2.162909 1_555
Bi4 O34 2.206246 1_555
Bi4 O16 2.219532 1_555
Bi4 O10 2.264967 1_555
Bi4 O38 2.360118 1_545
Bi4 O21 2.371063 1_555
Bi5 O33 2.162909 1_555
Bi5 O3 2.206246 1_555
Bi5 O9 2.219530 1_555
Bi5 O7 2.264975 1_555
Bi5 O36 2.360118 1_555
Bi5 O32 2.371063 1_555
Bi6 O6 2.162909 1_555
Bi6 O13 2.206246 1_555
Bi6 O5 2.219530 1_555
Bi6 O39 2.264975 1_555
Bi6 O23 2.360118 1_565
Bi6 O14 2.371063 1_555
Bi7 O34 2.162909 1_555
Bi7 O17 2.206246 1_455
Bi7 O10 2.219532 1_455
Bi7 O16 2.264967 1_555
Bi7 O32 2.360118 1_455
Bi7 O36 2.371063 1_555
O1 Zn7 2.075956 1_555
O1 Zn4 2.180551 1_566
O2 Zn3 2.075956 1_455
O2 Zn2 2.180551 1_554
O3 Zn7 2.059120 1_555
O4 Zn3 2.059120 1_455
O6 Zn5 2.059120 1_455
O8 Zn0 2.075956 1_555
O8 Zn6 2.180551 1_555
O11 Zn1 2.044015 1_655
O11 Zn0 2.073009 1_555
O12 Zn1 2.075956 1_655
O12 Zn5 2.180551 1_545
O13 Zn6 2.059120 1_555
O14 Zn4 2.156843 1_565
O15 Zn2 2.075956 1_655
O15 Zn3 2.180551 1_556
O17 Zn1 2.059120 1_655
O18 Zn7 2.044015 1_554
O18 Zn2 2.073009 1_554
O19 Zn5 2.075956 1_455
O19 Zn1 2.180551 1_565
O20 Zn5 2.044015 1_455
O20 Zn6 2.073009 1_555
O21 Zn7 2.156843 1_545
O22 Zn4 2.059120 1_555
O23 Zn5 2.156843 1_545
O24 Zn3 2.044015 1_456
O24 Zn4 2.073009 1_556
O25 Zn0 2.044015 1_555
O25 Zn1 2.073009 1_555
O26 Zn6 2.075956 1_555
O26 Zn0 2.180551 1_555
O27 Zn4 2.075956 1_555
O27 Zn7 2.180551 1_544
O28 Zn3 2.156843 1_555
O29 Zn6 2.044015 1_555
O29 Zn5 2.073009 1_555
O30 Zn4 2.044015 1_556
O30 Zn3 2.073009 1_556
O31 Zn2 2.044015 1_654
O31 Zn7 2.073009 1_554
O32 Zn0 2.156843 1_555
O33 Zn2 2.059120 1_655
O34 Zn0 2.059120 1_555
O35 Zn6 2.156843 1_555
O36 Zn2 2.156843 1_555
O38 Zn1 2.156843 1_565
