# generated using pymatgen
data_LaGe2Rh
_symmetry_space_group_name_H-M   'P 1'
_cell_length_a   8.91538088
_cell_length_b   8.91538088
_cell_length_c   4.34880812
_cell_angle_alpha   90.00000000
_cell_angle_beta   90.00000000
_cell_angle_gamma   151.38872840
_symmetry_Int_Tables_number   1
_chemical_formula_structural   LaGe2Rh
_chemical_formula_sum   'La2 Ge4 Rh2'
_cell_volume   165.52467986
_cell_formula_units_Z   2
loop_
 _symmetry_equiv_pos_site_id
 _symmetry_equiv_pos_as_xyz
  1  'x, y, z'
loop_
 _atom_site_type_symbol
 _atom_site_label
 _atom_site_symmetry_multiplicity
 _atom_site_fract_x
 _atom_site_fract_y
 _atom_site_fract_z
 _atom_site_occupancy
  La  La0  1  0.89096295  0.10903705  0.75000000  1
  La  La1  1  0.10903705  0.89096295  0.25000000  1
  Ge  Ge0  1  0.54149875  0.45850125  0.75000000  1
  Ge  Ge1  1  0.45850125  0.54149875  0.25000000  1
  Ge  Ge2  1  0.25011118  0.74988882  0.75000000  1
  Ge  Ge3  1  0.74988882  0.25011118  0.25000000  1
  Rh  Rh0  1  0.68094636  0.31905364  0.75000000  1
  Rh  Rh1  1  0.31905364  0.68094636  0.25000000  1
loop_
_geom_bond_atom_site_label_1
_geom_bond_atom_site_label_2
_geom_bond_distance
_geom_bond_site_symmetry_2
La0 Rh1 3.335361 1_546
La0 Rh1 3.335361 1_656
La0 Rh1 3.335361 1_655
La0 Rh1 3.335361 1_545
La1 Rh0 3.335361 1_454
La1 Rh0 3.335361 1_455
La1 Rh0 3.335361 1_564
La1 Rh0 3.335361 1_565
Ge0 Rh0 2.409356 1_555
Ge0 Ge1 2.604696 1_555
Ge0 Ge1 2.604696 1_556
Ge0 La1 3.307971 1_545
Ge0 La1 3.307971 1_655
Ge0 La1 3.307971 1_656
Ge0 La1 3.307971 1_546
Ge0 La0 3.408491 1_565
Ge0 La0 3.408491 1_455
Ge1 Rh1 2.409356 1_555
Ge1 La0 3.307971 1_565
Ge1 La0 3.307971 1_564
Ge1 La0 3.307971 1_455
Ge1 La0 3.307971 1_454
Ge1 La1 3.408491 1_655
Ge1 La1 3.408491 1_545
Ge2 Rh1 2.479302 1_556
Ge2 Rh1 2.479302 1_555
Ge2 Rh0 2.506196 1_565
Ge2 Rh0 2.506196 1_455
Ge2 La1 3.266380 1_556
Ge2 La1 3.266380 1_555
Ge2 La0 3.282596 1_565
Ge2 La0 3.282596 1_455
Ge3 Rh0 2.479302 1_554
Ge3 Rh0 2.479302 1_555
Ge3 Rh1 2.506196 1_655
Ge3 Rh1 2.506196 1_545
Ge3 La0 3.266380 1_555
Ge3 La0 3.266380 1_554
Ge3 La1 3.282596 1_545
Ge3 La1 3.282596 1_655
