# generated using pymatgen
data_Rb2LiPr2(WO4)4
_symmetry_space_group_name_H-M   'P 1'
_cell_length_a   8.10122162
_cell_length_b   7.73344407
_cell_length_c   7.60297271
_cell_angle_alpha   63.14380761
_cell_angle_beta   62.79707285
_cell_angle_gamma   89.91566733
_symmetry_Int_Tables_number   1
_chemical_formula_structural   Rb2LiPr2(WO4)4
_chemical_formula_sum   'Rb2 Li1 Pr2 W4 O16'
_cell_volume   365.11319749
_cell_formula_units_Z   1
loop_
 _symmetry_equiv_pos_site_id
 _symmetry_equiv_pos_as_xyz
  1  'x, y, z'
loop_
 _atom_site_type_symbol
 _atom_site_label
 _atom_site_symmetry_multiplicity
 _atom_site_fract_x
 _atom_site_fract_y
 _atom_site_fract_z
 _atom_site_occupancy
  Rb  Rb0  1  0.87518800  0.15131500  0.74267600  1
  Rb  Rb1  1  0.20121200  0.79509900  0.24632700  1
  Li  Li0  1  0.61305500  0.36488500  0.74879800  1
  Pr  Pr0  1  0.21145900  0.76022200  0.75617800  1
  Pr  Pr1  1  0.78540400  0.24890300  0.23877000  1
  W  W0  1  0.29216100  0.31464400  0.70266100  1
  W  W1  1  0.69020000  0.69002300  0.29414200  1
  W  W2  1  0.68142400  0.70590700  0.79354900  1
  W  W3  1  0.31019000  0.29803000  0.20300000  1
  O  O0  1  0.35734200  0.24448500  0.95322200  1
  O  O1  1  0.62386400  0.74062500  0.06644700  1
  O  O2  1  0.74083200  0.63504000  0.55975500  1
  O  O3  1  0.26631700  0.37695700  0.42298600  1
  O  O4  1  0.65177100  0.95270600  0.62854700  1
  O  O5  1  0.34246600  0.05331200  0.37291600  1
  O  O6  1  0.06955600  0.39319600  0.85369700  1
  O  O7  1  0.91751600  0.62861100  0.13913100  1
  O  O8  1  0.41720100  0.63325600  0.52286000  1
  O  O9  1  0.59118000  0.37303800  0.48719600  1
  O  O10  1  0.38394600  0.59880000  0.95960100  1
  O  O11  1  0.62168700  0.40107000  0.01398000  1
  O  O12  1  0.22641900  0.04248200  0.80207800  1
  O  O13  1  0.76614600  0.95560700  0.19824700  1
  O  O14  1  0.93545200  0.77093200  0.70607900  1
  O  O15  1  0.05301200  0.24585500  0.29548800  1
loop_
_geom_bond_atom_site_label_1
_geom_bond_atom_site_label_2
_geom_bond_distance
_geom_bond_site_symmetry_2
Li0 O0 1.824413 1_555
Li0 O2 1.853436 1_555
Li0 O9 2.049448 1_555
Li0 O11 2.187890 1_556
Li0 Rb0 2.684862 1_555
O0 W3 1.992632 1_556
O0 W0 2.046283 1_555
O0 Rb1 3.013670 1_546
O1 W1 1.917482 1_555
O1 W2 2.052521 1_554
O1 Rb0 2.943665 1_564
O1 Rb1 3.163314 1_555
O2 W2 1.946490 1_555
O2 W1 2.099576 1_555
O2 Rb1 3.216156 1_655
O3 W3 1.916906 1_555
O3 W0 2.068430 1_555
O3 Rb0 2.852302 1_455
O3 Rb1 3.042593 1_555
O4 W2 1.839875 1_555
O4 Pr1 2.478303 1_565
O4 Rb0 3.006027 1_565
O5 W3 1.848599 1_555
O5 Pr0 2.442746 1_545
O5 Rb1 2.995572 1_545
O6 W0 1.916642 1_555
O6 Pr1 2.451474 1_456
O6 Pr0 2.693802 1_555
O6 Rb0 3.056369 1_455
O7 W1 1.877395 1_555
O7 Pr0 2.484837 1_654
O7 Pr1 2.756846 1_555
O7 Rb1 3.205221 1_655
O8 W1 1.976057 1_555
O8 W0 2.159632 1_555
O8 Pr0 2.398870 1_555
O8 Rb1 3.166726 1_555
O9 W0 2.112412 1_555
O9 W1 2.117912 1_555
O9 Pr1 2.425168 1_555
O10 W3 2.072658 1_556
O10 W2 2.089756 1_555
O10 Pr0 2.475761 1_555
O10 Rb1 3.046495 1_556
O11 W2 2.071865 1_554
O11 W3 2.173451 1_555
O11 Pr1 2.513079 1_555
O12 W0 1.866227 1_555
O12 Pr0 2.372546 1_545
O12 Rb1 2.939776 1_546
O12 Rb0 3.135776 1_455
O13 W1 1.835527 1_555
O13 Pr1 2.437276 1_565
O13 Rb0 2.745582 1_564
O14 W2 1.838438 1_555
O14 Pr0 2.429250 1_655
O14 Rb1 3.069028 1_655
O14 Rb0 3.095206 1_565
O15 W3 1.845185 1_555
O15 Pr1 2.394146 1_455
O15 Rb0 2.729214 1_455
