# generated using pymatgen
data_Na2Al2(SiO4)3
_symmetry_space_group_name_H-M   'P 1'
_cell_length_a   12.95382541
_cell_length_b   9.78480397
_cell_length_c   9.74285187
_cell_angle_alpha   83.11264864
_cell_angle_beta   48.58252916
_cell_angle_gamma   48.30482219
_symmetry_Int_Tables_number   1
_chemical_formula_structural   Na2Al2(SiO4)3
_chemical_formula_sum   'Na4 Al4 Si6 O24'
_cell_volume   567.35072766
_cell_formula_units_Z   2
loop_
 _symmetry_equiv_pos_site_id
 _symmetry_equiv_pos_as_xyz
  1  'x, y, z'
loop_
 _atom_site_type_symbol
 _atom_site_label
 _atom_site_symmetry_multiplicity
 _atom_site_fract_x
 _atom_site_fract_y
 _atom_site_fract_z
 _atom_site_occupancy
  Na  Na0  1  0.11444600  0.44789800  0.83019300  1
  Na  Na1  1  0.60746400  0.83019300  0.44789800  1
  Na  Na2  1  0.41980700  0.64253600  0.13555400  1
  Na  Na3  1  0.80210200  0.13555400  0.64253600  1
  Al  Al0  1  0.00262800  0.69111700  0.56554300  1
  Al  Al1  1  0.74071200  0.56554300  0.69111700  1
  Al  Al2  1  0.68445700  0.50928800  0.24737200  1
  Al  Al3  1  0.55888300  0.24737200  0.50928800  1
  Si  Si0  1  0.26570400  0.23429600  0.23429600  1
  Si  Si1  1  0.01570400  0.98429600  0.98429600  1
  Si  Si2  1  0.24524600  0.68276900  0.55834800  1
  Si  Si3  1  0.51363700  0.55834800  0.68276900  1
  Si  Si4  1  0.69165200  0.73636300  0.00475400  1
  Si  Si5  1  0.56723100  0.00475400  0.73636300  1
  O  O0  1  0.20758800  0.43129300  0.32890300  1
  O  O1  1  0.03221600  0.32890300  0.43129300  1
  O  O2  1  0.92109700  0.21778400  0.04241200  1
  O  O3  1  0.81870700  0.04241200  0.21778400  1
  O  O4  1  0.11548700  0.75984500  0.51642800  1
  O  O5  1  0.60824000  0.51642800  0.75984600  1
  O  O6  1  0.73357200  0.64176000  0.13451300  1
  O  O7  1  0.49015500  0.13451300  0.64176000  1
  O  O8  1  0.89940100  0.67566300  0.79633700  1
  O  O9  1  0.62860000  0.79633700  0.67566300  1
  O  O10  1  0.45366300  0.62140000  0.35059900  1
  O  O11  1  0.57433700  0.35059900  0.62140000  1
  O  O12  1  0.33572600  0.46719800  0.56970300  1
  O  O13  1  0.62737200  0.56970300  0.46719800  1
  O  O14  1  0.68029700  0.62262800  0.91427400  1
  O  O15  1  0.78280200  0.91427400  0.62262800  1
  O  O16  1  0.06279900  0.90016900  0.79539500  1
  O  O17  1  0.24163700  0.79539500  0.90016900  1
  O  O18  1  0.45460500  0.00836300  0.18720100  1
  O  O19  1  0.34983100  0.18720100  0.00836300  1
  O  O20  1  0.50809400  0.32424100  0.05982200  1
  O  O21  1  0.10784300  0.05982200  0.32424100  1
  O  O22  1  0.19017800  0.14215700  0.74190600  1
  O  O23  1  0.92575900  0.74190600  0.14215700  1
loop_
_geom_bond_atom_site_label_1
_geom_bond_atom_site_label_2
_geom_bond_distance
_geom_bond_site_symmetry_2
Na0 O8 2.369792 1_455
Na0 O12 2.381842 1_555
Na0 O7 2.476798 1_555
Na0 O22 2.499687 1_555
Na0 O6 2.505031 1_456
Na0 O23 2.530197 1_456
Na1 O9 2.369792 1_555
Na1 O13 2.381856 1_555
Na1 O6 2.476807 1_555
Na1 O23 2.499679 1_555
Na1 O7 2.505022 1_565
Na1 O22 2.530204 1_565
Na2 O10 2.369792 1_555
Na2 O14 2.381856 1_554
Na2 O5 2.476789 1_554
Na2 O20 2.499678 1_555
Na2 O4 2.505027 1_555
Na2 O21 2.530203 1_565
Na3 O11 2.369792 1_555
Na3 O15 2.381837 1_545
Na3 O4 2.476802 1_645
Na3 O21 2.499685 1_655
Na3 O5 2.505030 1_555
Na3 O20 2.530203 1_556
Al0 O8 1.753945 1_455
Al0 O15 1.763515 1_455
Al0 O4 1.767395 1_555
Al0 O0 1.776313 1_555
Al1 O9 1.753945 1_555
Al1 O14 1.763523 1_555
Al1 O5 1.767392 1_555
Al1 O1 1.776313 1_655
Al2 O10 1.753949 1_555
Al2 O13 1.763513 1_555
Al2 O6 1.767395 1_555
Al2 O2 1.776313 1_555
Al3 O11 1.753938 1_555
Al3 O12 1.763521 1_555
Al3 O7 1.767395 1_555
Al3 O3 1.776313 1_555
O0 Si0 1.646039 1_555
O1 Si0 1.646039 1_555
O2 Si1 1.646039 1_644
O3 Si1 1.646039 1_644
O4 Si2 1.645881 1_555
O5 Si3 1.645890 1_555
O6 Si4 1.645881 1_555
O7 Si5 1.645881 1_555
O8 Si4 1.628209 1_556
O9 Si5 1.628202 1_565
O10 Si2 1.628203 1_555
O11 Si3 1.628211 1_555
O12 Si2 1.631522 1_555
O13 Si3 1.631521 1_555
O14 Si4 1.631514 1_556
O15 Si5 1.631526 1_565
O16 Si1 1.626877 1_555
O16 Si2 1.647076 1_555
O17 Si1 1.626877 1_555
O17 Si3 1.647076 1_555
O18 Si0 1.626877 1_555
O18 Si4 1.647076 1_545
O19 Si0 1.626877 1_555
O19 Si5 1.647076 1_554
