# generated using pymatgen
data_Zr5Sn3C
_symmetry_space_group_name_H-M   'P 1'
_cell_length_a   8.47886982
_cell_length_b   8.47886982
_cell_length_c   5.84987270
_cell_angle_alpha   90.00000000
_cell_angle_beta   90.00000000
_cell_angle_gamma   120.00000714
_symmetry_Int_Tables_number   1
_chemical_formula_structural   Zr5Sn3C
_chemical_formula_sum   'Zr10 Sn6 C2'
_cell_volume   364.21090931
_cell_formula_units_Z   2
loop_
 _symmetry_equiv_pos_site_id
 _symmetry_equiv_pos_as_xyz
  1  'x, y, z'
loop_
 _atom_site_type_symbol
 _atom_site_label
 _atom_site_symmetry_multiplicity
 _atom_site_fract_x
 _atom_site_fract_y
 _atom_site_fract_z
 _atom_site_occupancy
  Zr  Zr0  1  0.33333300  0.66666700  0.50000000  1
  Zr  Zr1  1  0.66666700  0.33333300  0.50000000  1
  Zr  Zr2  1  0.66666700  0.33333300  0.00000000  1
  Zr  Zr3  1  0.33333300  0.66666700  0.00000000  1
  Zr  Zr4  1  0.21952643  -0.00000000  0.75000000  1
  Zr  Zr5  1  0.78047357  0.00000000  0.25000000  1
  Zr  Zr6  1  -0.00000000  0.21952643  0.75000000  1
  Zr  Zr7  1  0.00000000  0.78047357  0.25000000  1
  Zr  Zr8  1  0.78047357  0.78047357  0.75000000  1
  Zr  Zr9  1  0.21952643  0.21952643  0.25000000  1
  Sn  Sn0  1  0.59596201  0.00000000  0.75000000  1
  Sn  Sn1  1  0.40403799  -0.00000000  0.25000000  1
  Sn  Sn2  1  0.00000000  0.59596201  0.75000000  1
  Sn  Sn3  1  -0.00000000  0.40403799  0.25000000  1
  Sn  Sn4  1  0.40403799  0.40403799  0.75000000  1
  Sn  Sn5  1  0.59596201  0.59596201  0.25000000  1
  C  C0  1  -0.00000000  -0.00000000  0.50000000  1
  C  C1  1  -0.00000000  -0.00000000  0.00000000  1
loop_
_geom_bond_atom_site_label_1
_geom_bond_atom_site_label_2
_geom_bond_distance
_geom_bond_site_symmetry_2
Sn0 Zr2 2.965089 1_556
Sn0 Zr1 2.965089 1_555
Sn0 Zr3 2.965092 1_546
Sn0 Zr0 2.965092 1_545
Sn0 Zr6 2.970528 1_655
Sn0 Zr8 2.970529 1_545
Sn0 Zr4 3.191748 1_555
Sn0 Zr5 3.317040 1_556
Sn0 Zr5 3.317040 1_555
Sn1 Zr3 2.965089 1_545
Sn1 Zr0 2.965089 1_545
Sn1 Zr1 2.965092 1_555
Sn1 Zr2 2.965092 1_555
Sn1 Zr7 2.970528 1_545
Sn1 Zr9 2.970529 1_555
Sn1 Zr5 3.191748 1_555
Sn1 Zr4 3.317040 1_555
Sn1 Zr4 3.317040 1_554
Sn2 Zr0 2.965089 1_555
Sn2 Zr3 2.965089 1_556
Sn2 Zr1 2.965092 1_455
Sn2 Zr2 2.965092 1_456
Sn2 Zr4 2.970528 1_565
Sn2 Zr8 2.970529 1_455
Sn2 Zr6 3.191748 1_555
Sn2 Zr7 3.317040 1_555
Sn2 Zr7 3.317040 1_556
Sn3 Zr2 2.965089 1_455
Sn3 Zr1 2.965089 1_455
Sn3 Zr3 2.965092 1_555
Sn3 Zr0 2.965092 1_555
Sn3 Zr5 2.970528 1_455
Sn3 Zr9 2.970529 1_555
Sn3 Zr7 3.191748 1_555
Sn3 Zr6 3.317040 1_554
Sn3 Zr6 3.317040 1_555
Sn4 Zr1 2.965097 1_555
Sn4 Zr0 2.965097 1_555
Sn4 Zr3 2.965097 1_556
Sn4 Zr2 2.965097 1_556
Sn4 Zr4 2.970528 1_555
Sn4 Zr6 2.970528 1_555
Sn4 Zr8 3.191748 1_555
Sn4 Zr9 3.317040 1_556
Sn4 Zr9 3.317040 1_555
Sn5 Zr2 2.965097 1_555
Sn5 Zr1 2.965097 1_555
Sn5 Zr3 2.965097 1_555
Sn5 Zr0 2.965097 1_555
Sn5 Zr5 2.970528 1_565
Sn5 Zr7 2.970528 1_655
Sn5 Zr9 3.191748 1_555
Sn5 Zr8 3.317040 1_555
Sn5 Zr8 3.317040 1_554
C0 Zr8 2.367147 1_445
C0 Zr9 2.367147 1_555
C0 Zr5 2.367147 1_455
C0 Zr7 2.367147 1_545
C0 Zr4 2.367147 1_555
C0 Zr6 2.367147 1_555
C1 Zr8 2.367147 1_444
C1 Zr9 2.367147 1_555
C1 Zr5 2.367147 1_455
C1 Zr7 2.367147 1_545
C1 Zr6 2.367147 1_554
C1 Zr4 2.367147 1_554
