# generated using pymatgen
data_KCoCl3
_symmetry_space_group_name_H-M   'P 1'
_cell_length_a   6.88799912
_cell_length_b   6.88799912
_cell_length_c   6.88799949
_cell_angle_alpha   60.59571006
_cell_angle_beta   60.59571006
_cell_angle_gamma   60.59570643
_symmetry_Int_Tables_number   1
_chemical_formula_structural   KCoCl3
_chemical_formula_sum   'K2 Co2 Cl6'
_cell_volume   234.19010166
_cell_formula_units_Z   2
loop_
 _symmetry_equiv_pos_site_id
 _symmetry_equiv_pos_as_xyz
  1  'x, y, z'
loop_
 _atom_site_type_symbol
 _atom_site_label
 _atom_site_symmetry_multiplicity
 _atom_site_fract_x
 _atom_site_fract_y
 _atom_site_fract_z
 _atom_site_occupancy
  K  K0  1  0.73985200  0.73985200  0.73985200  1
  K  K1  1  0.23985200  0.23985200  0.23985200  1
  Co  Co0  1  0.99516100  0.99516100  0.99516100  1
  Co  Co1  1  0.49516100  0.49516100  0.49516100  1
  Cl  Cl0  1  0.74558300  0.19992600  0.29097800  1
  Cl  Cl1  1  0.19992600  0.29097800  0.74558300  1
  Cl  Cl2  1  0.29097800  0.74558300  0.19992600  1
  Cl  Cl3  1  0.79097800  0.69992600  0.24558300  1
  Cl  Cl4  1  0.24558300  0.79097800  0.69992600  1
  Cl  Cl5  1  0.69992600  0.24558300  0.79097800  1
loop_
_geom_bond_atom_site_label_1
_geom_bond_atom_site_label_2
_geom_bond_distance
_geom_bond_site_symmetry_2
Cl0 Co1 2.463867 1_555
Cl0 Co0 2.469391 1_544
Cl0 K0 3.159983 1_545
Cl0 K1 3.381928 1_655
Cl0 K1 3.535962 1_555
Cl1 Co1 2.463867 1_555
Cl1 Co0 2.469391 1_445
Cl1 K0 3.159983 1_455
Cl1 K1 3.381928 1_556
Cl1 K1 3.535962 1_555
Cl2 Co1 2.463867 1_555
Cl2 Co0 2.469391 1_454
Cl2 K0 3.159983 1_554
Cl2 K1 3.381927 1_565
Cl2 K1 3.535962 1_555
Cl3 Co0 2.463867 1_554
Cl3 Co1 2.469391 1_555
Cl3 K1 3.159983 1_655
Cl3 K0 3.381928 1_555
Cl3 K0 3.535962 1_554
Cl4 Co0 2.463867 1_455
Cl4 Co1 2.469391 1_555
Cl4 K1 3.159983 1_565
Cl4 K0 3.381927 1_555
Cl4 K0 3.535962 1_455
Cl5 Co0 2.463867 1_545
Cl5 Co1 2.469391 1_555
Cl5 K1 3.159983 1_556
Cl5 K0 3.381928 1_555
Cl5 K0 3.535962 1_545
