# generated using pymatgen
data_NaNbO3
_symmetry_space_group_name_H-M   'P 1'
_cell_length_a   5.61558468
_cell_length_b   5.61558468
_cell_length_c   5.61558468
_cell_angle_alpha   89.23746549
_cell_angle_beta   60.12555079
_cell_angle_gamma   119.24798477
_symmetry_Int_Tables_number   1
_chemical_formula_structural   NaNbO3
_chemical_formula_sum   'Na2 Nb2 O6'
_cell_volume   126.03267711
_cell_formula_units_Z   2
loop_
 _symmetry_equiv_pos_site_id
 _symmetry_equiv_pos_as_xyz
  1  'x, y, z'
loop_
 _atom_site_type_symbol
 _atom_site_label
 _atom_site_symmetry_multiplicity
 _atom_site_fract_x
 _atom_site_fract_y
 _atom_site_fract_z
 _atom_site_occupancy
  Na  Na0  1  0.00506000  0.25000000  0.74494000  1
  Na  Na1  1  0.99494000  0.75000000  0.25506000  1
  Nb  Nb0  1  0.50000000  0.00000000  0.50000000  1
  Nb  Nb1  1  0.50000000  0.50000000  0.00000000  1
  O  O0  1  0.43567800  0.75000000  0.81432200  1
  O  O1  1  0.56432200  0.25000000  0.18567800  1
  O  O2  1  0.50000000  0.71674200  0.28325800  1
  O  O3  1  0.00000000  0.78325800  0.71674200  1
  O  O4  1  0.50000000  0.28325800  0.71674200  1
  O  O5  1  0.00000000  0.21674200  0.28325800  1
loop_
_geom_bond_atom_site_label_1
_geom_bond_atom_site_label_2
_geom_bond_distance
_geom_bond_site_symmetry_2
Na0 O1 2.479697 1_456
Na0 O2 2.615039 1_555
Na0 O4 2.615039 1_555
Na0 O3 2.615039 1_545
Na0 O5 2.615039 1_555
Na0 O0 2.866352 1_445
Na0 O0 2.866352 1_555
Na1 O0 2.479697 1_654
Na1 O2 2.615039 1_555
Na1 O5 2.615039 1_665
Na1 O3 2.615039 1_655
Na1 O4 2.615039 1_555
Na1 O1 2.866352 1_665
Na1 O1 2.866352 1_555
Nb0 O1 2.005082 1_555
Nb0 O0 2.005082 1_545
Nb0 O2 2.015723 1_545
Nb0 O4 2.015723 1_555
Nb0 O3 2.015723 1_545
Nb0 O5 2.015723 1_655
Nb1 O1 2.005082 1_555
Nb1 O0 2.005082 1_554
Nb1 O2 2.015723 1_555
Nb1 O4 2.015723 1_554
Nb1 O5 2.015723 1_555
Nb1 O3 2.015723 1_654
