# generated using pymatgen
data_Mg14TiSb
_symmetry_space_group_name_H-M   'P 1'
_cell_length_a   6.34189731
_cell_length_b   6.34189680
_cell_length_c   10.30142608
_cell_angle_alpha   90.00000000
_cell_angle_beta   90.00000000
_cell_angle_gamma   120.00000270
_symmetry_Int_Tables_number   1
_chemical_formula_structural   Mg14TiSb
_chemical_formula_sum   'Mg14 Ti1 Sb1'
_cell_volume   358.81149409
_cell_formula_units_Z   1
loop_
 _symmetry_equiv_pos_site_id
 _symmetry_equiv_pos_as_xyz
  1  'x, y, z'
loop_
 _atom_site_type_symbol
 _atom_site_label
 _atom_site_symmetry_multiplicity
 _atom_site_fract_x
 _atom_site_fract_y
 _atom_site_fract_z
 _atom_site_occupancy
  Mg  Mg0  1  0.16873242  0.83436571  0.12500000  1
  Mg  Mg1  1  0.16481343  0.83240622  0.62500000  1
  Mg  Mg2  1  0.66563429  0.33126758  0.12500000  1
  Mg  Mg3  1  0.66759378  0.33518657  0.62500000  1
  Mg  Mg4  1  0.66563429  0.83436571  0.12500000  1
  Mg  Mg5  1  0.66759378  0.83240622  0.62500000  1
  Mg  Mg6  1  0.33149284  0.16850716  0.37138098  1
  Mg  Mg7  1  0.33149284  0.16850716  0.87861902  1
  Mg  Mg8  1  0.33149284  0.66298669  0.37138098  1
  Mg  Mg9  1  0.33149284  0.66298669  0.87861902  1
  Mg  Mg10  1  0.83701331  0.16850716  0.37138098  1
  Mg  Mg11  1  0.83701331  0.16850716  0.87861902  1
  Mg  Mg12  1  0.83333300  0.66666700  0.37336641  1
  Mg  Mg13  1  0.83333300  0.66666700  0.87663359  1
  Ti  Ti0  1  0.16666700  0.33333300  0.12500000  1
  Sb  Sb0  1  0.16666700  0.33333300  0.62500000  1
loop_
_geom_bond_atom_site_label_1
_geom_bond_atom_site_label_2
_geom_bond_distance
_geom_bond_site_symmetry_2
Mg0 Mg9 3.132163 1_554
Mg0 Mg8 3.132163 1_555
Mg0 Mg6 3.132169 1_565
Mg0 Mg7 3.132169 1_564
Mg0 Mg2 3.151300 1_565
Mg0 Mg4 3.151301 1_555
Mg0 Mg13 3.152679 1_454
Mg0 Mg12 3.152679 1_455
Mg0 Ti0 3.170969 1_555
Mg0 Ti0 3.170969 1_565
Mg0 Mg2 3.190596 1_455
Mg0 Mg4 3.190597 1_455
Mg1 Mg3 3.153316 1_455
Mg1 Mg5 3.153316 1_455
Mg1 Mg12 3.167634 1_455
Mg1 Mg13 3.167634 1_455
Mg1 Sb0 3.170965 1_565
Mg1 Sb0 3.170965 1_555
Mg1 Mg3 3.188581 1_565
Mg1 Mg5 3.188581 1_555
Mg1 Mg8 3.198974 1_555
Mg1 Mg9 3.198974 1_555
Mg1 Mg6 3.198980 1_565
Mg1 Mg7 3.198980 1_565
Mg2 Mg7 3.132169 1_554
Mg2 Mg6 3.132169 1_555
Mg2 Mg4 3.151300 1_545
Mg2 Ti0 3.170969 1_655
Mg2 Ti0 3.170969 1_555
Mg2 Mg4 3.190596 1_555
Mg3 Mg5 3.153316 1_555
Mg3 Sb0 3.170965 1_555
Mg3 Sb0 3.170965 1_655
Mg3 Mg5 3.188581 1_545
Mg3 Mg6 3.198980 1_555
Mg3 Mg7 3.198980 1_555
Mg4 Mg9 3.132169 1_554
Mg4 Mg8 3.132169 1_555
Mg4 Ti0 3.170969 1_555
Mg4 Ti0 3.170969 1_665
Mg5 Sb0 3.170965 1_665
Mg5 Sb0 3.170965 1_555
Mg5 Mg8 3.198980 1_555
Mg5 Mg9 3.198980 1_555
Mg6 Ti0 3.117665 1_555
Mg6 Mg8 3.135938 1_555
Mg6 Sb0 3.178661 1_555
Mg6 Mg8 3.205959 1_545
Mg7 Ti0 3.117665 1_556
Mg7 Mg9 3.135938 1_555
Mg7 Sb0 3.178661 1_555
Mg7 Mg9 3.205959 1_545
Mg8 Ti0 3.117672 1_555
Mg8 Sb0 3.178667 1_555
Mg9 Ti0 3.117672 1_556
Mg9 Sb0 3.178667 1_555
Mg10 Ti0 3.117672 1_655
Mg10 Mg2 3.132163 1_555
Mg10 Mg4 3.132169 1_545
Mg10 Mg8 3.135938 1_655
Mg10 Mg6 3.135938 1_655
Mg10 Mg12 3.171079 1_555
Mg10 Mg12 3.171079 1_545
Mg10 Sb0 3.178667 1_655
Mg10 Mg3 3.198974 1_555
Mg10 Mg5 3.198980 1_545
Mg10 Mg8 3.205959 1_545
Mg10 Mg6 3.205959 1_555
Mg11 Ti0 3.117672 1_656
Mg11 Mg2 3.132163 1_556
Mg11 Mg4 3.132169 1_546
Mg11 Mg9 3.135938 1_655
Mg11 Mg7 3.135938 1_655
Mg11 Mg13 3.171079 1_555
Mg11 Mg13 3.171079 1_545
Mg11 Sb0 3.178667 1_655
Mg11 Mg3 3.198974 1_555
Mg11 Mg5 3.198980 1_545
Mg11 Mg9 3.205959 1_545
Mg11 Mg7 3.205959 1_555
Mg12 Mg4 3.152672 1_555
Mg12 Mg2 3.152679 1_555
Mg12 Mg5 3.167627 1_555
Mg12 Mg3 3.167633 1_555
Mg12 Mg6 3.171079 1_665
Mg12 Mg6 3.171079 1_555
Mg12 Mg8 3.171079 1_655
Mg12 Mg8 3.171079 1_555
Mg13 Mg4 3.152672 1_556
Mg13 Mg2 3.152679 1_556
Mg13 Mg5 3.167627 1_555
Mg13 Mg3 3.167633 1_555
Mg13 Mg7 3.171079 1_665
Mg13 Mg7 3.171079 1_555
Mg13 Mg9 3.171079 1_655
Mg13 Mg9 3.171079 1_555
