# generated using pymatgen
data_PuB2Ru3
_symmetry_space_group_name_H-M   'P 1'
_cell_length_a   5.88802200
_cell_length_b   11.13424660
_cell_length_c   11.13424660
_cell_angle_alpha   119.99999166
_cell_angle_beta   90.00000000
_cell_angle_gamma   90.00000000
_symmetry_Int_Tables_number   1
_chemical_formula_structural   PuB2Ru3
_chemical_formula_sum   'Pu8 B16 Ru24'
_cell_volume   632.15235988
_cell_formula_units_Z   8
loop_
 _symmetry_equiv_pos_site_id
 _symmetry_equiv_pos_as_xyz
  1  'x, y, z'
loop_
 _atom_site_type_symbol
 _atom_site_label
 _atom_site_symmetry_multiplicity
 _atom_site_fract_x
 _atom_site_fract_y
 _atom_site_fract_z
 _atom_site_occupancy
  Pu  Pu0_0  1  0.00000000  0.00000000  0.00000000  1
  Pu  Pu0_1  1  0.00000000  0.00000000  0.50000000  1
  Pu  Pu0_2  1  0.00000000  0.50000000  0.00000000  1
  Pu  Pu0_3  1  0.00000000  0.50000000  0.50000000  1
  Pu  Pu0_4  1  0.50000000  0.00000000  0.00000000  1
  Pu  Pu0_5  1  0.50000000  0.00000000  0.50000000  1
  Pu  Pu0_6  1  0.50000000  0.50000000  0.00000000  1
  Pu  Pu0_7  1  0.50000000  0.50000000  0.50000000  1
  B  B0_0  1  0.00000000  0.16666650  0.33333350  1
  B  B0_1  1  0.00000000  0.16666650  0.83333350  1
  B  B0_2  1  0.00000000  0.66666650  0.33333350  1
  B  B0_3  1  0.00000000  0.66666650  0.83333350  1
  B  B0_4  1  0.50000000  0.16666650  0.33333350  1
  B  B0_5  1  0.50000000  0.16666650  0.83333350  1
  B  B0_6  1  0.50000000  0.66666650  0.33333350  1
  B  B0_7  1  0.50000000  0.66666650  0.83333350  1
  B  B1_0  1  0.00000000  0.33333350  0.16666650  1
  B  B1_1  1  0.00000000  0.33333350  0.66666650  1
  B  B1_2  1  0.00000000  0.83333350  0.16666650  1
  B  B1_3  1  0.00000000  0.83333350  0.66666650  1
  B  B1_4  1  0.50000000  0.33333350  0.16666650  1
  B  B1_5  1  0.50000000  0.33333350  0.66666650  1
  B  B1_6  1  0.50000000  0.83333350  0.16666650  1
  B  B1_7  1  0.50000000  0.83333350  0.66666650  1
  Ru  Ru0_0  1  0.25000000  0.25000000  0.25000000  1
  Ru  Ru0_1  1  0.25000000  0.25000000  0.75000000  1
  Ru  Ru0_2  1  0.25000000  0.75000000  0.25000000  1
  Ru  Ru0_3  1  0.25000000  0.75000000  0.75000000  1
  Ru  Ru0_4  1  0.75000000  0.25000000  0.25000000  1
  Ru  Ru0_5  1  0.75000000  0.25000000  0.75000000  1
  Ru  Ru0_6  1  0.75000000  0.75000000  0.25000000  1
  Ru  Ru0_7  1  0.75000000  0.75000000  0.75000000  1
  Ru  Ru1_0  1  0.25000000  0.25000000  0.00000000  1
  Ru  Ru1_1  1  0.25000000  0.25000000  0.50000000  1
  Ru  Ru1_2  1  0.25000000  0.75000000  0.00000000  1
  Ru  Ru1_3  1  0.25000000  0.75000000  0.50000000  1
  Ru  Ru1_4  1  0.75000000  0.25000000  0.00000000  1
  Ru  Ru1_5  1  0.75000000  0.25000000  0.50000000  1
  Ru  Ru1_6  1  0.75000000  0.75000000  0.00000000  1
  Ru  Ru1_7  1  0.75000000  0.75000000  0.50000000  1
  Ru  Ru2_0  1  0.25000000  0.00000000  0.25000000  1
  Ru  Ru2_1  1  0.25000000  0.00000000  0.75000000  1
  Ru  Ru2_2  1  0.25000000  0.50000000  0.25000000  1
  Ru  Ru2_3  1  0.25000000  0.50000000  0.75000000  1
  Ru  Ru2_4  1  0.75000000  0.00000000  0.25000000  1
  Ru  Ru2_5  1  0.75000000  0.00000000  0.75000000  1
  Ru  Ru2_6  1  0.75000000  0.50000000  0.25000000  1
  Ru  Ru2_7  1  0.75000000  0.50000000  0.75000000  1
loop_
_geom_bond_atom_site_label_1
_geom_bond_atom_site_label_2
_geom_bond_distance
_geom_bond_site_symmetry_2
Pu0_0 Pu0_4 2.944011 1_455
Pu0_0 Pu0_4 2.944011 1_555
Pu0_0 Ru1_4 3.148812 1_455
Pu0_0 Ru1_6 3.148812 1_445
Pu0_0 Ru2_4 3.148812 1_455
Pu0_0 Ru2_5 3.148812 1_454
Pu0_0 Ru2_0 3.148812 1_555
Pu0_0 Ru2_1 3.148812 1_554
Pu0_0 Ru1_2 3.148812 1_545
Pu0_0 Ru1_0 3.148812 1_555
Pu0_0 Ru0_7 3.148812 1_444
Pu0_0 Ru0_0 3.148812 1_555
Pu0_0 Ru0_3 3.148812 1_544
Pu0_0 Ru0_4 3.148812 1_455
Pu0_1 Pu0_5 2.944011 1_455
Pu0_1 Pu0_5 2.944011 1_555
Pu0_1 Ru1_5 3.148812 1_455
Pu0_1 Ru2_5 3.148812 1_455
Pu0_1 Ru1_7 3.148812 1_445
Pu0_1 Ru2_4 3.148812 1_455
Pu0_1 Ru2_0 3.148812 1_555
Pu0_1 Ru1_3 3.148812 1_545
Pu0_1 Ru1_1 3.148812 1_555
Pu0_1 Ru2_1 3.148812 1_555
Pu0_1 Ru0_6 3.148812 1_445
Pu0_1 Ru0_1 3.148812 1_555
Pu0_1 Ru0_2 3.148812 1_545
Pu0_1 Ru0_5 3.148812 1_455
Pu0_2 Pu0_6 2.944011 1_555
Pu0_2 Pu0_6 2.944011 1_455
Pu0_2 Ru2_7 3.148812 1_454
Pu0_2 Ru2_6 3.148812 1_455
Pu0_2 Ru1_4 3.148812 1_455
Pu0_2 Ru1_6 3.148812 1_455
Pu0_2 Ru1_2 3.148812 1_555
Pu0_2 Ru2_2 3.148812 1_555
Pu0_2 Ru1_0 3.148812 1_555
Pu0_2 Ru2_3 3.148812 1_554
Pu0_2 Ru0_5 3.148812 1_454
Pu0_2 Ru0_1 3.148812 1_554
Pu0_2 Ru0_6 3.148812 1_455
Pu0_2 Ru0_2 3.148812 1_555
Pu0_3 Pu0_7 2.944011 1_455
Pu0_3 Pu0_7 2.944011 1_555
Pu0_3 Ru1_5 3.148812 1_455
Pu0_3 Ru2_6 3.148812 1_455
Pu0_3 Ru1_7 3.148812 1_455
Pu0_3 Ru2_7 3.148812 1_455
Pu0_3 Ru1_3 3.148812 1_555
Pu0_3 Ru2_2 3.148812 1_555
Pu0_3 Ru1_1 3.148812 1_555
Pu0_3 Ru2_3 3.148812 1_555
Pu0_3 Ru0_0 3.148812 1_555
Pu0_3 Ru0_3 3.148812 1_555
Pu0_3 Ru0_7 3.148812 1_455
Pu0_3 Ru0_4 3.148812 1_455
Pu0_4 Ru2_0 3.148812 1_555
Pu0_4 Ru2_1 3.148812 1_554
Pu0_4 Ru1_2 3.148812 1_545
Pu0_4 Ru1_0 3.148812 1_555
Pu0_4 Ru2_4 3.148812 1_555
Pu0_4 Ru2_5 3.148812 1_554
Pu0_4 Ru1_6 3.148812 1_545
Pu0_4 Ru1_4 3.148812 1_555
Pu0_4 Ru0_0 3.148812 1_555
Pu0_4 Ru0_3 3.148812 1_544
Pu0_4 Ru0_7 3.148812 1_544
Pu0_4 Ru0_4 3.148812 1_555
Pu0_5 Ru2_0 3.148812 1_555
Pu0_5 Ru1_3 3.148812 1_545
Pu0_5 Ru1_1 3.148812 1_555
Pu0_5 Ru2_1 3.148812 1_555
Pu0_5 Ru2_5 3.148812 1_555
Pu0_5 Ru2_4 3.148812 1_555
Pu0_5 Ru1_7 3.148812 1_545
Pu0_5 Ru1_5 3.148812 1_555
Pu0_5 Ru0_1 3.148812 1_555
Pu0_5 Ru0_2 3.148812 1_545
Pu0_5 Ru0_6 3.148812 1_545
Pu0_5 Ru0_5 3.148812 1_555
Pu0_6 Ru1_2 3.148812 1_555
Pu0_6 Ru2_2 3.148812 1_555
Pu0_6 Ru1_0 3.148812 1_555
Pu0_6 Ru2_3 3.148812 1_554
Pu0_6 Ru2_7 3.148812 1_554
Pu0_6 Ru1_6 3.148812 1_555
Pu0_6 Ru2_6 3.148812 1_555
Pu0_6 Ru1_4 3.148812 1_555
Pu0_6 Ru0_1 3.148812 1_554
Pu0_6 Ru0_2 3.148812 1_555
Pu0_6 Ru0_5 3.148812 1_554
Pu0_6 Ru0_6 3.148812 1_555
Pu0_7 Ru1_3 3.148812 1_555
Pu0_7 Ru2_2 3.148812 1_555
Pu0_7 Ru1_1 3.148812 1_555
Pu0_7 Ru2_3 3.148812 1_555
Pu0_7 Ru1_7 3.148812 1_555
Pu0_7 Ru2_7 3.148812 1_555
Pu0_7 Ru1_5 3.148812 1_555
Pu0_7 Ru2_6 3.148812 1_555
Pu0_7 Ru0_0 3.148812 1_555
Pu0_7 Ru0_3 3.148812 1_555
Pu0_7 Ru0_7 3.148812 1_555
Pu0_7 Ru0_4 3.148812 1_555
B0_0 Ru1_5 2.179343 1_455
B0_0 Ru2_4 2.179343 1_455
B0_0 Ru1_1 2.179343 1_555
B0_0 Ru2_0 2.179343 1_555
B0_0 Ru0_4 2.179346 1_455
B0_0 Ru0_0 2.179346 1_555
B0_0 Pu0_1 3.214177 1_555
B0_0 Pu0_0 3.214182 1_555
B0_0 Pu0_3 3.214182 1_555
B0_1 Ru1_4 2.179343 1_456
B0_1 Ru1_0 2.179343 1_556
B0_1 Ru2_5 2.179343 1_455
B0_1 Ru2_1 2.179343 1_555
B0_1 Ru0_5 2.179346 1_455
B0_1 Ru0_1 2.179346 1_555
B0_1 Pu0_0 3.214177 1_556
B0_1 Pu0_2 3.214182 1_556
B0_1 Pu0_1 3.214182 1_555
B0_2 Ru2_6 2.179343 1_455
B0_2 Ru2_2 2.179343 1_555
B0_2 Ru1_7 2.179343 1_455
B0_2 Ru1_3 2.179343 1_555
B0_2 Ru0_6 2.179346 1_455
B0_2 Ru0_2 2.179346 1_555
B0_2 Pu0_3 3.214177 1_555
B0_2 Pu0_2 3.214182 1_555
B0_2 Pu0_1 3.214182 1_565
B0_3 Ru2_7 2.179343 1_455
B0_3 Ru1_6 2.179343 1_456
B0_3 Ru2_3 2.179343 1_555
B0_3 Ru1_2 2.179343 1_556
B0_3 Ru0_3 2.179346 1_555
B0_3 Ru0_7 2.179346 1_455
B0_3 Pu0_2 3.214177 1_556
B0_3 Pu0_3 3.214182 1_555
B0_3 Pu0_0 3.214182 1_566
B0_4 Ru1_1 2.179343 1_555
B0_4 Ru2_0 2.179343 1_555
B0_4 Ru2_4 2.179343 1_555
B0_4 Ru1_5 2.179343 1_555
B0_4 Ru0_0 2.179346 1_555
B0_4 Ru0_4 2.179346 1_555
B0_4 Pu0_5 3.214177 1_555
B0_4 Pu0_7 3.214182 1_555
B0_4 Pu0_4 3.214182 1_555
B0_5 Ru1_0 2.179343 1_556
B0_5 Ru2_1 2.179343 1_555
B0_5 Ru1_4 2.179343 1_556
B0_5 Ru2_5 2.179343 1_555
B0_5 Ru0_1 2.179346 1_555
B0_5 Ru0_5 2.179346 1_555
B0_5 Pu0_4 3.214177 1_556
B0_5 Pu0_6 3.214182 1_556
B0_5 Pu0_5 3.214182 1_555
B0_6 Ru2_2 2.179343 1_555
B0_6 Ru1_3 2.179343 1_555
B0_6 Ru2_6 2.179343 1_555
B0_6 Ru1_7 2.179343 1_555
B0_6 Ru0_2 2.179346 1_555
B0_6 Ru0_6 2.179346 1_555
B0_6 Pu0_7 3.214177 1_555
B0_6 Pu0_6 3.214182 1_555
B0_6 Pu0_5 3.214182 1_565
B0_7 Ru2_3 2.179343 1_555
B0_7 Ru1_2 2.179343 1_556
B0_7 Ru1_6 2.179343 1_556
B0_7 Ru2_7 2.179343 1_555
B0_7 Ru0_3 2.179346 1_555
B0_7 Ru0_7 2.179346 1_555
B0_7 Pu0_6 3.214177 1_556
B0_7 Pu0_4 3.214182 1_566
B0_7 Pu0_7 3.214182 1_555
B1_0 Ru1_4 2.179343 1_455
B1_0 Ru2_6 2.179343 1_455
B1_0 Ru1_0 2.179343 1_555
B1_0 Ru2_2 2.179343 1_555
B1_0 Ru0_4 2.179346 1_455
B1_0 Ru0_0 2.179346 1_555
B1_0 Pu0_2 3.214177 1_555
B1_0 Pu0_0 3.214182 1_555
B1_0 Pu0_3 3.214182 1_555
B1_1 Ru1_5 2.179343 1_455
B1_1 Ru2_7 2.179343 1_455
B1_1 Ru2_3 2.179343 1_555
B1_1 Ru1_1 2.179343 1_555
B1_1 Ru0_5 2.179346 1_455
B1_1 Ru0_1 2.179346 1_555
B1_1 Pu0_3 3.214177 1_555
B1_1 Pu0_2 3.214182 1_556
B1_1 Pu0_1 3.214182 1_555
B1_2 Ru2_4 2.179343 1_465
B1_2 Ru1_6 2.179343 1_455
B1_2 Ru1_2 2.179343 1_555
B1_2 Ru2_0 2.179343 1_565
B1_2 Ru0_6 2.179346 1_455
B1_2 Ru0_2 2.179346 1_555
B1_2 Pu0_0 3.214177 1_565
B1_2 Pu0_2 3.214182 1_555
B1_2 Pu0_1 3.214182 1_565
B1_3 Ru2_5 2.179343 1_465
B1_3 Ru1_7 2.179343 1_455
B1_3 Ru2_1 2.179343 1_565
B1_3 Ru1_3 2.179343 1_555
B1_3 Ru0_7 2.179346 1_455
B1_3 Ru0_3 2.179346 1_555
B1_3 Pu0_1 3.214177 1_565
B1_3 Pu0_0 3.214182 1_566
B1_3 Pu0_3 3.214182 1_555
B1_4 Ru1_0 2.179343 1_555
B1_4 Ru2_2 2.179343 1_555
B1_4 Ru2_6 2.179343 1_555
B1_4 Ru1_4 2.179343 1_555
B1_4 Ru0_0 2.179346 1_555
B1_4 Ru0_4 2.179346 1_555
B1_4 Pu0_6 3.214177 1_555
B1_4 Pu0_7 3.214182 1_555
B1_4 Pu0_4 3.214182 1_555
B1_5 Ru2_3 2.179343 1_555
B1_5 Ru2_7 2.179343 1_555
B1_5 Ru1_1 2.179343 1_555
B1_5 Ru1_5 2.179343 1_555
B1_5 Ru0_1 2.179346 1_555
B1_5 Ru0_5 2.179346 1_555
B1_5 Pu0_7 3.214177 1_555
B1_5 Pu0_6 3.214182 1_556
B1_5 Pu0_5 3.214182 1_555
B1_6 Ru1_2 2.179343 1_555
B1_6 Ru2_0 2.179343 1_565
B1_6 Ru1_6 2.179343 1_555
B1_6 Ru2_4 2.179343 1_565
B1_6 Ru0_2 2.179346 1_555
B1_6 Ru0_6 2.179346 1_555
B1_6 Pu0_4 3.214177 1_565
B1_6 Pu0_6 3.214182 1_555
B1_6 Pu0_5 3.214182 1_565
B1_7 Ru2_1 2.179343 1_565
B1_7 Ru1_3 2.179343 1_555
B1_7 Ru2_5 2.179343 1_565
B1_7 Ru1_7 2.179343 1_555
B1_7 Ru0_3 2.179346 1_555
B1_7 Ru0_7 2.179346 1_555
B1_7 Pu0_5 3.214177 1_565
B1_7 Pu0_4 3.214182 1_566
B1_7 Pu0_7 3.214182 1_555
