# generated using pymatgen
data_Te2Mo2W(SeS)2
_symmetry_space_group_name_H-M   'P 1'
_cell_length_a   3.35189369
_cell_length_b   3.35189369
_cell_length_c   30.99364500
_cell_angle_alpha   90.00000000
_cell_angle_beta   90.00000000
_cell_angle_gamma   119.99999394
_symmetry_Int_Tables_number   1
_chemical_formula_structural   Te2Mo2W(SeS)2
_chemical_formula_sum   'Te2 Mo2 W1 Se2 S2'
_cell_volume   301.56697881
_cell_formula_units_Z   1
loop_
 _symmetry_equiv_pos_site_id
 _symmetry_equiv_pos_as_xyz
  1  'x, y, z'
loop_
 _atom_site_type_symbol
 _atom_site_label
 _atom_site_symmetry_multiplicity
 _atom_site_fract_x
 _atom_site_fract_y
 _atom_site_fract_z
 _atom_site_occupancy
  Te  Te0  1  0.33333300  0.66666700  0.40843200  1
  Te  Te1  1  0.33333300  0.66666700  0.28542100  1
  Mo  Mo0  1  0.33333300  0.66666700  0.11563900  1
  Mo  Mo1  1  0.33333300  0.66666700  0.57837900  1
  W  W0  1  0.66666700  0.33333300  0.34695100  1
  Se  Se0  1  0.66666700  0.33333300  0.52461300  1
  Se  Se1  1  0.66666700  0.33333300  0.63210900  1
  S  S0  1  0.66666700  0.33333300  0.06671300  1
  S  S1  1  0.66666700  0.33333300  0.16458500  1
loop_
_geom_bond_atom_site_label_1
_geom_bond_atom_site_label_2
_geom_bond_distance
_geom_bond_site_symmetry_2
Te0 W0 2.715891 1_455
Te0 W0 2.715891 1_565
Te0 W0 2.715895 1_555
Te1 W0 2.716957 1_455
Te1 W0 2.716957 1_565
Te1 W0 2.716961 1_555
Mo0 S0 2.458559 1_565
Mo0 S0 2.458559 1_455
Mo0 S0 2.458563 1_555
Mo0 S1 2.458941 1_455
Mo0 S1 2.458941 1_565
Mo0 S1 2.458945 1_555
Mo1 Se1 2.553085 1_455
Mo1 Se1 2.553085 1_565
Mo1 Se1 2.553089 1_555
Mo1 Se0 2.553813 1_455
Mo1 Se0 2.553813 1_565
Mo1 Se0 2.553817 1_555
