# generated using pymatgen
data_Rb4Sn(SO)4
_symmetry_space_group_name_H-M   'P 1'
_cell_length_a   7.24819900
_cell_length_b   8.35744213
_cell_length_c   13.54101151
_cell_angle_alpha   102.44021434
_cell_angle_beta   97.03707222
_cell_angle_gamma   94.85914995
_symmetry_Int_Tables_number   1
_chemical_formula_structural   Rb4Sn(SO)4
_chemical_formula_sum   'Rb8 Sn2 S8 O8'
_cell_volume   789.73259869
_cell_formula_units_Z   2
loop_
 _symmetry_equiv_pos_site_id
 _symmetry_equiv_pos_as_xyz
  1  'x, y, z'
loop_
 _atom_site_type_symbol
 _atom_site_label
 _atom_site_symmetry_multiplicity
 _atom_site_fract_x
 _atom_site_fract_y
 _atom_site_fract_z
 _atom_site_occupancy
  Rb  Rb0  1  0.34630900  0.18478200  0.52432000  1
  Rb  Rb1  1  0.65369100  0.81521800  0.47568000  1
  Rb  Rb2  1  0.84923500  0.92730300  0.78820800  1
  Rb  Rb3  1  0.15076500  0.07269700  0.21179200  1
  Rb  Rb4  1  0.66799500  0.49694000  0.89954600  1
  Rb  Rb5  1  0.33200500  0.50306000  0.10045400  1
  Rb  Rb6  1  0.02380700  0.44560900  0.67487800  1
  Rb  Rb7  1  0.97619300  0.55439100  0.32512200  1
  Sn  Sn0  1  0.32307900  0.84519900  0.72839100  1
  Sn  Sn1  1  0.67692100  0.15480100  0.27160900  1
  S  S0  1  0.51562300  0.62322400  0.65236700  1
  S  S1  1  0.48437700  0.37677600  0.34763300  1
  S  S2  1  0.08809500  0.80709500  0.58114700  1
  S  S3  1  0.91190500  0.19290500  0.41885300  1
  S  S4  1  0.23075100  0.78924800  0.92225600  1
  S  S5  1  0.76924900  0.21075200  0.07774400  1
  S  S6  1  0.48418200  0.13683500  0.74614300  1
  S  S7  1  0.51581800  0.86316500  0.25385700  1
  O  O0  1  0.32308800  0.25528500  0.73540100  1
  O  O1  1  0.67691200  0.74471500  0.26459900  1
  O  O2  1  0.70243300  0.60285900  0.72423300  1
  O  O3  1  0.29756700  0.39714100  0.27576700  1
  O  O4  1  0.40601500  0.71631900  0.95485600  1
  O  O5  1  0.59398500  0.28368100  0.04514400  1
  O  O6  1  0.05981300  0.66039500  0.89725500  1
  O  O7  1  0.94018700  0.33960500  0.10274500  1
loop_
_geom_bond_atom_site_label_1
_geom_bond_atom_site_label_2
_geom_bond_distance
_geom_bond_site_symmetry_2
Rb0 S6 3.167400 1_555
Rb0 S3 3.306710 1_455
Rb0 S1 3.356923 1_555
Rb0 S0 3.730775 1_555
Rb0 S2 3.802230 1_545
Rb1 S7 3.167400 1_555
Rb1 S2 3.306710 1_655
Rb1 S0 3.356923 1_555
Rb1 S1 3.730775 1_555
Rb1 S3 3.802230 1_565
Rb2 S2 3.484043 1_655
Rb3 S3 3.484043 1_455
Rb4 S6 3.331150 1_555
Rb5 S7 3.331150 1_555
Rb6 S2 3.537444 1_555
Rb6 S3 3.606032 1_455
Rb7 S3 3.537444 1_555
Rb7 S2 3.606032 1_655
S0 Sn0 2.533146 1_555
S1 Sn1 2.533146 1_555
S2 Sn0 2.404201 1_555
S3 Sn1 2.404201 1_555
S4 Sn0 2.909313 1_555
S5 Sn1 2.909313 1_555
S6 Sn0 2.560964 1_545
S7 Sn1 2.560964 1_565
O0 S6 1.606478 1_555
O0 Rb0 2.820316 1_555
O0 Rb6 2.935635 1_555
O0 Rb4 3.334378 1_555
O1 S7 1.606478 1_555
O1 Rb1 2.820316 1_555
O1 Rb7 2.935635 1_555
O1 Rb5 3.334378 1_555
O2 S0 1.611497 1_555
O2 Rb4 2.737612 1_555
O2 Rb2 2.740134 1_555
O2 Rb6 2.849819 1_655
O3 S1 1.611497 1_555
O3 Rb5 2.737612 1_555
O3 Rb3 2.740134 1_555
O3 Rb7 2.849819 1_455
O4 S4 1.513219 1_555
O4 Rb4 2.806221 1_555
O4 Rb5 2.993733 1_556
O5 S5 1.513219 1_555
O5 Rb5 2.806221 1_555
O5 Rb4 2.993733 1_554
O6 S4 1.524304 1_555
O6 Rb4 3.052073 1_455
O6 Rb6 3.123618 1_555
O7 S5 1.524304 1_555
O7 Rb5 3.052073 1_655
O7 Rb7 3.123618 1_555
