# generated using pymatgen
data_Mg30AlBO32
_symmetry_space_group_name_H-M   'P 1'
_cell_length_a   8.51766000
_cell_length_b   8.51766000
_cell_length_c   8.51546500
_cell_angle_alpha   90.00000000
_cell_angle_beta   90.00000000
_cell_angle_gamma   90.00000000
_symmetry_Int_Tables_number   1
_chemical_formula_structural   Mg30AlBO32
_chemical_formula_sum   'Mg30 Al1 B1 O32'
_cell_volume   617.80151492
_cell_formula_units_Z   1
loop_
 _symmetry_equiv_pos_site_id
 _symmetry_equiv_pos_as_xyz
  1  'x, y, z'
loop_
 _atom_site_type_symbol
 _atom_site_label
 _atom_site_symmetry_multiplicity
 _atom_site_fract_x
 _atom_site_fract_y
 _atom_site_fract_z
 _atom_site_occupancy
  Mg  Mg0  1  0.50000000  0.00000000  0.00000000  1
  Mg  Mg1  1  0.00000000  0.50000000  0.00000000  1
  Mg  Mg2  1  0.00000000  0.00000000  0.50000000  1
  Mg  Mg3  1  0.50000000  0.00000000  0.50000000  1
  Mg  Mg4  1  0.00000000  0.50000000  0.50000000  1
  Mg  Mg5  1  0.50000000  0.50000000  0.50000000  1
  Mg  Mg6  1  0.25398600  0.25398600  0.00000000  1
  Mg  Mg7  1  0.74601400  0.25398600  0.00000000  1
  Mg  Mg8  1  0.25398600  0.74601400  0.00000000  1
  Mg  Mg9  1  0.74601400  0.74601400  0.00000000  1
  Mg  Mg10  1  0.25147100  0.25147100  0.50000000  1
  Mg  Mg11  1  0.74852900  0.25147100  0.50000000  1
  Mg  Mg12  1  0.25147100  0.74852900  0.50000000  1
  Mg  Mg13  1  0.74852900  0.74852900  0.50000000  1
  Mg  Mg14  1  0.25171600  0.00000000  0.25018600  1
  Mg  Mg15  1  0.74828400  0.00000000  0.25018600  1
  Mg  Mg16  1  0.25331800  0.50000000  0.24795300  1
  Mg  Mg17  1  0.74668200  0.50000000  0.24795300  1
  Mg  Mg18  1  0.25171600  0.00000000  0.74981400  1
  Mg  Mg19  1  0.74828400  0.00000000  0.74981400  1
  Mg  Mg20  1  0.25331800  0.50000000  0.75204700  1
  Mg  Mg21  1  0.74668200  0.50000000  0.75204700  1
  Mg  Mg22  1  0.00000000  0.25171600  0.25018600  1
  Mg  Mg23  1  0.50000000  0.25331800  0.24795300  1
  Mg  Mg24  1  0.00000000  0.74828400  0.25018600  1
  Mg  Mg25  1  0.50000000  0.74668200  0.24795300  1
  Mg  Mg26  1  0.00000000  0.25171600  0.74981400  1
  Mg  Mg27  1  0.50000000  0.25331800  0.75204700  1
  Mg  Mg28  1  0.00000000  0.74828400  0.74981400  1
  Mg  Mg29  1  0.50000000  0.74668200  0.75204700  1
  Al  Al0  1  0.00000000  0.00000000  0.00000000  1
  B  B0  1  0.50000000  0.50000000  0.00000000  1
  O  O0  1  0.00000000  0.00000000  0.23597300  1
  O  O1  1  0.50000000  0.00000000  0.24978500  1
  O  O2  1  0.00000000  0.50000000  0.24978500  1
  O  O3  1  0.50000000  0.50000000  0.26386700  1
  O  O4  1  0.00000000  0.00000000  0.76402700  1
  O  O5  1  0.50000000  0.00000000  0.75021500  1
  O  O6  1  0.00000000  0.50000000  0.75021500  1
  O  O7  1  0.50000000  0.50000000  0.73613300  1
  O  O8  1  0.24979300  0.24979300  0.24939300  1
  O  O9  1  0.75020700  0.24979300  0.24939300  1
  O  O10  1  0.24979300  0.75020700  0.24939300  1
  O  O11  1  0.75020700  0.75020700  0.24939300  1
  O  O12  1  0.24979300  0.24979300  0.75060700  1
  O  O13  1  0.75020700  0.24979300  0.75060700  1
  O  O14  1  0.24979300  0.75020700  0.75060700  1
  O  O15  1  0.75020700  0.75020700  0.75060700  1
  O  O16  1  0.23250500  0.00000000  0.00000000  1
  O  O17  1  0.76749500  0.00000000  0.00000000  1
  O  O18  1  0.23318500  0.50000000  0.00000000  1
  O  O19  1  0.76681500  0.50000000  0.00000000  1
  O  O20  1  0.24676400  0.00000000  0.50000000  1
  O  O21  1  0.75323600  0.00000000  0.50000000  1
  O  O22  1  0.24734200  0.50000000  0.50000000  1
  O  O23  1  0.75265800  0.50000000  0.50000000  1
  O  O24  1  0.00000000  0.23250500  0.00000000  1
  O  O25  1  0.50000000  0.23318500  0.00000000  1
  O  O26  1  0.00000000  0.76749500  0.00000000  1
  O  O27  1  0.50000000  0.76681500  0.00000000  1
  O  O28  1  0.00000000  0.24676400  0.50000000  1
  O  O29  1  0.50000000  0.24734200  0.50000000  1
  O  O30  1  0.00000000  0.75323600  0.50000000  1
  O  O31  1  0.50000000  0.75265800  0.50000000  1
loop_
_geom_bond_atom_site_label_1
_geom_bond_atom_site_label_2
_geom_bond_distance
_geom_bond_site_symmetry_2
Mg0 O25 1.986191 1_555
Mg0 O27 1.986191 1_545
Mg0 O1 2.127035 1_555
Mg0 O5 2.127035 1_554
Mg0 O17 2.278431 1_555
Mg0 O16 2.278431 1_555
Mg1 O18 1.986191 1_555
Mg1 O19 1.986191 1_455
Mg1 O2 2.127035 1_555
Mg1 O6 2.127035 1_554
Mg1 O26 2.278431 1_555
Mg1 O24 2.278431 1_555
Mg2 O20 2.101852 1_555
Mg2 O28 2.101852 1_555
Mg2 O21 2.101852 1_455
Mg2 O30 2.101852 1_545
Mg2 O0 2.248313 1_555
Mg2 O4 2.248313 1_555
Mg3 O29 2.106775 1_555
Mg3 O31 2.106775 1_545
Mg3 O5 2.130697 1_555
Mg3 O1 2.130697 1_555
Mg3 O21 2.156978 1_555
Mg3 O20 2.156978 1_555
Mg4 O22 2.106775 1_555
Mg4 O23 2.106775 1_455
Mg4 O6 2.130697 1_555
Mg4 O2 2.130697 1_555
Mg4 O30 2.156978 1_555
Mg4 O28 2.156978 1_555
Mg5 O7 2.010782 1_555
Mg5 O3 2.010782 1_555
Mg5 O31 2.152055 1_555
Mg5 O23 2.152055 1_555
Mg5 O22 2.152055 1_555
Mg5 O29 2.152055 1_555
Mg6 O18 2.102941 1_555
Mg6 O25 2.102941 1_555
Mg6 O8 2.124298 1_555
Mg6 O12 2.124298 1_554
Mg6 O16 2.171090 1_555
Mg6 O24 2.171090 1_555
Mg7 O19 2.102941 1_555
Mg7 O25 2.102941 1_555
Mg7 O9 2.124298 1_555
Mg7 O13 2.124298 1_554
Mg7 O17 2.171090 1_555
Mg7 O24 2.171090 1_655
Mg8 O27 2.102941 1_555
Mg8 O18 2.102941 1_555
Mg8 O10 2.124298 1_555
Mg8 O14 2.124298 1_554
Mg8 O26 2.171090 1_555
Mg8 O16 2.171090 1_565
Mg9 O27 2.102941 1_555
Mg9 O19 2.102941 1_555
Mg9 O11 2.124298 1_555
Mg9 O15 2.124298 1_554
Mg9 O17 2.171090 1_565
Mg9 O26 2.171090 1_655
Mg10 O29 2.117178 1_555
Mg10 O22 2.117178 1_555
Mg10 O12 2.134131 1_555
Mg10 O8 2.134131 1_555
Mg10 O28 2.142320 1_555
Mg10 O20 2.142320 1_555
Mg11 O23 2.117178 1_555
Mg11 O29 2.117178 1_555
Mg11 O13 2.134131 1_555
Mg11 O9 2.134131 1_555
Mg11 O28 2.142320 1_655
Mg11 O21 2.142320 1_555
Mg12 O31 2.117178 1_555
Mg12 O22 2.117178 1_555
Mg12 O14 2.134131 1_555
Mg12 O10 2.134131 1_555
Mg12 O20 2.142320 1_565
Mg12 O30 2.142320 1_555
Mg13 O31 2.117178 1_555
Mg13 O23 2.117178 1_555
Mg13 O15 2.134131 1_555
Mg13 O11 2.134131 1_555
Mg13 O21 2.142320 1_565
Mg13 O30 2.142320 1_655
Mg14 O1 2.114801 1_555
Mg14 O20 2.127700 1_555
Mg14 O8 2.127726 1_555
Mg14 O10 2.127726 1_545
Mg14 O16 2.136725 1_555
Mg14 O0 2.147445 1_555
Mg15 O1 2.114801 1_555
Mg15 O21 2.127700 1_555
Mg15 O9 2.127726 1_555
Mg15 O11 2.127726 1_545
Mg15 O17 2.136725 1_555
Mg15 O0 2.147445 1_655
Mg16 O3 2.105519 1_555
Mg16 O18 2.118388 1_555
Mg16 O10 2.131425 1_555
Mg16 O8 2.131425 1_555
Mg16 O22 2.146901 1_555
Mg16 O2 2.157733 1_555
Mg17 O3 2.105519 1_555
Mg17 O19 2.118388 1_555
Mg17 O11 2.131425 1_555
Mg17 O9 2.131425 1_555
Mg17 O23 2.146901 1_555
Mg17 O2 2.157733 1_655
Mg18 O5 2.114801 1_555
Mg18 O20 2.127700 1_555
Mg18 O12 2.127726 1_555
Mg18 O14 2.127726 1_545
Mg18 O16 2.136725 1_556
Mg18 O4 2.147445 1_555
Mg19 O5 2.114801 1_555
Mg19 O21 2.127700 1_555
Mg19 O13 2.127726 1_555
Mg19 O15 2.127726 1_545
Mg19 O17 2.136725 1_556
Mg19 O4 2.147445 1_655
Mg20 O7 2.105519 1_555
Mg20 O18 2.118388 1_556
Mg20 O14 2.131425 1_555
Mg20 O12 2.131425 1_555
Mg20 O22 2.146901 1_555
Mg20 O6 2.157733 1_555
Mg21 O7 2.105519 1_555
Mg21 O19 2.118388 1_556
Mg21 O15 2.131425 1_555
Mg21 O13 2.131425 1_555
Mg21 O23 2.146901 1_555
Mg21 O6 2.157733 1_655
Mg22 O2 2.114801 1_555
Mg22 O28 2.127700 1_555
Mg22 O8 2.127726 1_555
Mg22 O9 2.127726 1_455
Mg22 O24 2.136725 1_555
Mg22 O0 2.147445 1_555
Mg23 O3 2.105519 1_555
Mg23 O25 2.118388 1_555
Mg23 O9 2.131425 1_555
Mg23 O8 2.131425 1_555
Mg23 O29 2.146901 1_555
Mg23 O1 2.157733 1_555
Mg24 O2 2.114801 1_555
Mg24 O30 2.127700 1_555
Mg24 O10 2.127726 1_555
Mg24 O11 2.127726 1_455
Mg24 O26 2.136725 1_555
Mg24 O0 2.147445 1_565
Mg25 O3 2.105519 1_555
Mg25 O27 2.118388 1_555
Mg25 O11 2.131425 1_555
Mg25 O10 2.131425 1_555
Mg25 O31 2.146901 1_555
Mg25 O1 2.157733 1_565
Mg26 O6 2.114801 1_555
Mg26 O28 2.127700 1_555
Mg26 O12 2.127726 1_555
Mg26 O13 2.127726 1_455
Mg26 O24 2.136725 1_556
Mg26 O4 2.147445 1_555
Mg27 O7 2.105519 1_555
Mg27 O25 2.118388 1_556
Mg27 O13 2.131425 1_555
Mg27 O12 2.131425 1_555
Mg27 O29 2.146901 1_555
Mg27 O5 2.157733 1_555
Mg28 O6 2.114801 1_555
Mg28 O30 2.127700 1_555
Mg28 O14 2.127726 1_555
Mg28 O15 2.127726 1_455
Mg28 O26 2.136725 1_556
Mg28 O4 2.147445 1_565
Mg29 O7 2.105519 1_555
Mg29 O27 2.118388 1_556
Mg29 O15 2.131425 1_555
Mg29 O14 2.131425 1_555
Mg29 O31 2.146901 1_555
Mg29 O5 2.157733 1_565
Al0 O16 1.980399 1_555
Al0 O24 1.980399 1_555
Al0 O17 1.980399 1_455
Al0 O26 1.980399 1_545
Al0 O0 2.009420 1_555
Al0 O4 2.009420 1_554
B0 O3 2.246950 1_555
B0 O7 2.246950 1_554
B0 O27 2.272639 1_555
B0 O19 2.272639 1_555
B0 O18 2.272639 1_555
B0 O25 2.272639 1_555
