# generated using pymatgen
data_Mg14AlNi
_symmetry_space_group_name_H-M   'P 1'
_cell_length_a   6.23420687
_cell_length_b   6.23420638
_cell_length_c   9.96115157
_cell_angle_alpha   90.00000000
_cell_angle_beta   90.00000000
_cell_angle_gamma   120.00000254
_symmetry_Int_Tables_number   1
_chemical_formula_structural   Mg14AlNi
_chemical_formula_sum   'Mg14 Al1 Ni1'
_cell_volume   335.27606731
_cell_formula_units_Z   1
loop_
 _symmetry_equiv_pos_site_id
 _symmetry_equiv_pos_as_xyz
  1  'x, y, z'
loop_
 _atom_site_type_symbol
 _atom_site_label
 _atom_site_symmetry_multiplicity
 _atom_site_fract_x
 _atom_site_fract_y
 _atom_site_fract_z
 _atom_site_occupancy
  Mg  Mg0  1  0.16723103  0.83361502  0.12500000  1
  Mg  Mg1  1  0.16165176  0.83082538  0.62500000  1
  Mg  Mg2  1  0.66638498  0.33276897  0.12500000  1
  Mg  Mg3  1  0.66917462  0.33834824  0.62500000  1
  Mg  Mg4  1  0.66638498  0.83361502  0.12500000  1
  Mg  Mg5  1  0.66917462  0.83082538  0.62500000  1
  Mg  Mg6  1  0.32655238  0.17344762  0.38413216  1
  Mg  Mg7  1  0.32655238  0.17344762  0.86586784  1
  Mg  Mg8  1  0.32655238  0.65310576  0.38413216  1
  Mg  Mg9  1  0.32655238  0.65310576  0.86586784  1
  Mg  Mg10  1  0.84689424  0.17344762  0.38413216  1
  Mg  Mg11  1  0.84689424  0.17344762  0.86586784  1
  Mg  Mg12  1  0.83333300  0.66666700  0.37300385  1
  Mg  Mg13  1  0.83333300  0.66666700  0.87699615  1
  Al  Al0  1  0.16666700  0.33333300  0.12500000  1
  Ni  Ni0  1  0.16666700  0.33333300  0.62500000  1
loop_
_geom_bond_atom_site_label_1
_geom_bond_atom_site_label_2
_geom_bond_distance
_geom_bond_site_symmetry_2
Mg0 Mg12 3.058211 1_455
Mg0 Mg13 3.058211 1_454
Mg0 Mg2 3.111829 1_565
Mg0 Mg4 3.111829 1_555
Mg0 Mg2 3.122378 1_455
Mg0 Mg4 3.122378 1_455
Mg0 Mg9 3.167571 1_554
Mg0 Mg8 3.167571 1_555
Mg0 Mg7 3.167577 1_564
Mg0 Mg6 3.167577 1_565
Mg1 Mg8 3.029868 1_555
Mg1 Mg9 3.029868 1_555
Mg1 Mg6 3.029874 1_565
Mg1 Mg7 3.029874 1_565
Mg1 Mg3 3.070204 1_455
Mg1 Mg5 3.070204 1_455
Mg1 Mg12 3.072951 1_455
Mg1 Mg13 3.072951 1_455
Mg1 Ni0 3.117221 1_565
Mg1 Ni0 3.117221 1_555
Mg1 Mg3 3.164002 1_565
Mg1 Mg5 3.164003 1_555
Mg2 Mg4 3.111829 1_545
Mg2 Mg4 3.122378 1_555
Mg2 Mg7 3.167577 1_554
Mg2 Mg6 3.167577 1_555
Mg3 Mg6 3.029875 1_555
Mg3 Mg7 3.029875 1_555
Mg3 Mg5 3.070204 1_555
Mg3 Ni0 3.117221 1_655
Mg3 Ni0 3.117221 1_555
Mg3 Mg5 3.164002 1_545
Mg4 Mg9 3.167577 1_554
Mg4 Mg8 3.167577 1_555
Mg5 Mg8 3.029874 1_555
Mg5 Mg9 3.029874 1_555
Mg5 Ni0 3.117221 1_665
Mg5 Ni0 3.117221 1_555
Mg6 Ni0 2.955897 1_555
Mg6 Mg8 2.990288 1_555
Mg6 Mg8 3.243919 1_545
Mg7 Ni0 2.955897 1_555
Mg7 Mg9 2.990288 1_555
Mg7 Mg9 3.243919 1_545
Mg8 Ni0 2.955903 1_555
Mg9 Ni0 2.955903 1_555
Mg10 Ni0 2.955903 1_655
Mg10 Mg8 2.990288 1_655
Mg10 Mg6 2.990288 1_655
Mg10 Mg3 3.029868 1_555
Mg10 Mg5 3.029874 1_545
Mg10 Mg12 3.119933 1_545
Mg10 Mg12 3.119933 1_555
Mg10 Mg2 3.167571 1_555
Mg10 Mg4 3.167577 1_545
Mg10 Mg8 3.243919 1_545
Mg10 Mg6 3.243919 1_555
Mg11 Ni0 2.955903 1_655
Mg11 Mg9 2.990288 1_655
Mg11 Mg7 2.990288 1_655
Mg11 Mg3 3.029868 1_555
Mg11 Mg5 3.029874 1_545
Mg11 Mg13 3.119933 1_545
Mg11 Mg13 3.119933 1_555
Mg11 Mg2 3.167571 1_556
Mg11 Mg4 3.167577 1_546
Mg11 Mg9 3.243919 1_545
Mg11 Mg7 3.243919 1_555
Mg12 Mg4 3.058205 1_555
Mg12 Mg2 3.058211 1_555
Mg12 Mg5 3.072945 1_555
Mg12 Mg3 3.072951 1_555
Mg12 Mg6 3.119933 1_665
Mg12 Mg6 3.119933 1_555
Mg12 Mg8 3.119933 1_655
Mg12 Mg8 3.119933 1_555
Mg13 Mg4 3.058205 1_556
Mg13 Mg2 3.058211 1_556
Mg13 Mg5 3.072945 1_555
Mg13 Mg3 3.072951 1_555
Mg13 Mg7 3.119933 1_665
Mg13 Mg7 3.119933 1_555
Mg13 Mg9 3.119933 1_655
Mg13 Mg9 3.119933 1_555
Al0 Mg7 3.105392 1_554
Al0 Mg6 3.105392 1_555
Al0 Mg9 3.105398 1_554
Al0 Mg8 3.105398 1_555
Al0 Mg11 3.105398 1_454
Al0 Mg10 3.105398 1_455
Al0 Mg0 3.117105 1_545
Al0 Mg4 3.117105 1_555
Al0 Mg4 3.117105 1_445
Al0 Mg0 3.117105 1_555
Al0 Mg2 3.117105 1_555
Al0 Mg2 3.117105 1_455
