# generated using pymatgen
data_Cs2InSbI6
_symmetry_space_group_name_H-M   'P 1'
_cell_length_a   8.89448690
_cell_length_b   8.89448690
_cell_length_c   8.89448690
_cell_angle_alpha   60.00000000
_cell_angle_beta   60.00000000
_cell_angle_gamma   60.00000000
_symmetry_Int_Tables_number   1
_chemical_formula_structural   Cs2InSbI6
_chemical_formula_sum   'Cs2 In1 Sb1 I6'
_cell_volume   497.56256863
_cell_formula_units_Z   1
loop_
 _symmetry_equiv_pos_site_id
 _symmetry_equiv_pos_as_xyz
  1  'x, y, z'
loop_
 _atom_site_type_symbol
 _atom_site_label
 _atom_site_symmetry_multiplicity
 _atom_site_fract_x
 _atom_site_fract_y
 _atom_site_fract_z
 _atom_site_occupancy
  Cs  Cs0  1  0.75000000  0.75000000  0.75000000  1
  Cs  Cs1  1  0.25000000  0.25000000  0.25000000  1
  In  In0  1  0.50000000  0.50000000  0.50000000  1
  Sb  Sb0  1  0.00000000  0.00000000  0.00000000  1
  I  I0  1  0.75753300  0.24246700  0.24246700  1
  I  I1  1  0.24246700  0.24246700  0.75753300  1
  I  I2  1  0.24246700  0.75753300  0.75753300  1
  I  I3  1  0.24246700  0.75753300  0.24246700  1
  I  I4  1  0.75753300  0.24246700  0.75753300  1
  I  I5  1  0.75753300  0.75753300  0.24246700  1
loop_
_geom_bond_atom_site_label_1
_geom_bond_atom_site_label_2
_geom_bond_distance
_geom_bond_site_symmetry_2
Cs0 I3 4.448253 1_655
Cs0 I1 4.448253 1_565
Cs0 I3 4.448253 1_556
Cs0 I5 4.448253 1_556
Cs0 I1 4.448253 1_655
Cs0 I5 4.448253 1_555
Cs0 I4 4.448253 1_555
Cs0 I0 4.448253 1_556
Cs0 I0 4.448253 1_565
Cs0 I2 4.448253 1_555
Cs0 I2 4.448253 1_655
Cs0 I4 4.448253 1_565
Cs1 I3 4.448253 1_555
Cs1 I3 4.448253 1_545
Cs1 I5 4.448253 1_455
Cs1 I2 4.448253 1_554
Cs1 I0 4.448253 1_555
Cs1 I0 4.448253 1_455
Cs1 I1 4.448253 1_555
Cs1 I4 4.448253 1_455
Cs1 I5 4.448253 1_545
Cs1 I2 4.448253 1_545
Cs1 I4 4.448253 1_554
Cs1 I1 4.448253 1_554
I0 Sb0 3.049921 1_655
I0 In0 3.239431 1_555
I1 Sb0 3.049921 1_556
I1 In0 3.239431 1_555
I2 Sb0 3.049921 1_566
I2 In0 3.239431 1_555
I3 Sb0 3.049921 1_565
I3 In0 3.239431 1_555
I4 Sb0 3.049921 1_656
I4 In0 3.239431 1_555
I5 Sb0 3.049921 1_665
I5 In0 3.239431 1_555
