# generated using pymatgen
data_Li5Mn3O8
_symmetry_space_group_name_H-M   'P 1'
_cell_length_a   5.05863391
_cell_length_b   5.16175386
_cell_length_c   5.76682473
_cell_angle_alpha   90.02755165
_cell_angle_beta   106.60475506
_cell_angle_gamma   98.79496125
_symmetry_Int_Tables_number   1
_chemical_formula_structural   Li5Mn3O8
_chemical_formula_sum   'Li5 Mn3 O8'
_cell_volume   142.44871012
_cell_formula_units_Z   1
loop_
 _symmetry_equiv_pos_site_id
 _symmetry_equiv_pos_as_xyz
  1  'x, y, z'
loop_
 _atom_site_type_symbol
 _atom_site_label
 _atom_site_symmetry_multiplicity
 _atom_site_fract_x
 _atom_site_fract_y
 _atom_site_fract_z
 _atom_site_occupancy
  Li  Li0  1  0.50554800  0.24873500  0.87267200  1
  Li  Li1  1  0.49445300  0.75127100  0.12733200  1
  Li  Li2  1  0.48641300  0.75965800  0.61775100  1
  Li  Li3  1  0.51358800  0.24034300  0.38224700  1
  Li  Li4  1  0.00000100  0.00000100  0.49999800  1
  Mn  Mn0  1  0.99999000  0.99999500  0.00001400  1
  Mn  Mn1  1  0.99998500  0.49953800  0.25259800  1
  Mn  Mn2  1  0.00001600  0.50045600  0.74739700  1
  O  O0  1  0.21904800  0.85134100  0.81454500  1
  O  O1  1  0.23152900  0.39550800  0.05799800  1
  O  O2  1  0.22865300  0.39915000  0.55727300  1
  O  O3  1  0.22042200  0.85247700  0.29593800  1
  O  O4  1  0.76847000  0.60449000  0.94199900  1
  O  O5  1  0.78095600  0.14865900  0.18545000  1
  O  O6  1  0.77957700  0.14752600  0.70405600  1
  O  O7  1  0.77135000  0.60085100  0.44273200  1
loop_
_geom_bond_atom_site_label_1
_geom_bond_atom_site_label_2
_geom_bond_distance
_geom_bond_site_symmetry_2
Li0 O6 2.032578 1_555
Li0 O5 2.060586 1_556
Li0 O4 2.061406 1_555
Li0 O2 2.179642 1_555
Li0 O1 2.191959 1_556
Li0 O0 2.287583 1_545
Li1 O3 2.032543 1_555
Li1 O0 2.060603 1_554
Li1 O1 2.061444 1_555
Li1 O7 2.179662 1_555
Li1 O4 2.191996 1_554
Li1 O5 2.287567 1_565
Li2 O3 2.062762 1_555
Li2 O2 2.069319 1_555
Li2 O0 2.100867 1_555
Li2 O7 2.227159 1_555
Li2 O4 2.236032 1_555
Li2 O6 2.263756 1_565
Li3 O6 2.062738 1_555
Li3 O7 2.069323 1_555
Li3 O5 2.100894 1_555
Li3 O2 2.227177 1_555
Li3 O1 2.236033 1_555
Li3 O3 2.263754 1_545
Li4 O3 2.053454 1_545
Li4 O6 2.053459 1_455
Li4 O5 2.054163 1_455
Li4 O0 2.054167 1_545
Li4 O2 2.178095 1_555
Li4 O7 2.178098 1_445
Mn0 O5 1.973963 1_565
Mn0 O0 1.974167 1_654
Mn0 O3 1.977070 1_655
Mn0 O6 1.977204 1_564
Mn0 O4 2.166922 1_554
Mn0 O1 2.166992 1_665
Mn1 O2 1.927751 1_655
Mn1 O7 1.929406 1_555
Mn1 O5 1.948925 1_555
Mn1 O3 1.960582 1_655
Mn1 O1 1.965370 1_655
Mn1 O4 1.967074 1_554
Mn2 O7 1.927717 1_455
Mn2 O2 1.929358 1_555
Mn2 O0 1.948956 1_555
Mn2 O6 1.960547 1_455
Mn2 O4 1.965395 1_455
Mn2 O1 1.967071 1_556
