# generated using pymatgen
data_Zr4W
_symmetry_space_group_name_H-M   'P 1'
_cell_length_a   7.11426355
_cell_length_b   7.11426355
_cell_length_c   7.11426355
_cell_angle_alpha   60.00000000
_cell_angle_beta   60.00000000
_cell_angle_gamma   60.00000000
_symmetry_Int_Tables_number   1
_chemical_formula_structural   Zr4W
_chemical_formula_sum   'Zr8 W2'
_cell_volume   254.60964507
_cell_formula_units_Z   2
loop_
 _symmetry_equiv_pos_site_id
 _symmetry_equiv_pos_as_xyz
  1  'x, y, z'
loop_
 _atom_site_type_symbol
 _atom_site_label
 _atom_site_symmetry_multiplicity
 _atom_site_fract_x
 _atom_site_fract_y
 _atom_site_fract_z
 _atom_site_occupancy
  Zr  Zr0  1  0.39479900  0.39479900  0.39479900  1
  Zr  Zr1  1  0.39479900  0.39479900  0.81560300  1
  Zr  Zr2  1  0.39479900  0.81560300  0.39479900  1
  Zr  Zr3  1  0.85520100  0.85520100  0.43439700  1
  Zr  Zr4  1  0.85520100  0.85520100  0.85520100  1
  Zr  Zr5  1  0.81560300  0.39479900  0.39479900  1
  Zr  Zr6  1  0.85520100  0.43439700  0.85520100  1
  Zr  Zr7  1  0.43439700  0.85520100  0.85520100  1
  W  W0  1  0.00000000  0.00000000  0.00000000  1
  W  W1  1  0.25000000  0.25000000  0.25000000  1
loop_
_geom_bond_atom_site_label_1
_geom_bond_atom_site_label_2
_geom_bond_distance
_geom_bond_site_symmetry_2
W0 Zr3 2.523313 1_445
W0 Zr6 2.523313 1_454
W0 Zr7 2.523313 1_544
W0 Zr4 2.523313 1_444
W1 Zr0 2.523313 1_555
W1 Zr1 2.523313 1_554
W1 Zr5 2.523313 1_455
W1 Zr2 2.523313 1_545
