# generated using pymatgen
data_Ca3(TiN2)2
_symmetry_space_group_name_H-M   'P 1'
_cell_length_a   5.85508300
_cell_length_b   10.11812700
_cell_length_c   9.24506500
_cell_angle_alpha   90.00000000
_cell_angle_beta   90.00000000
_cell_angle_gamma   90.00000000
_symmetry_Int_Tables_number   1
_chemical_formula_structural   Ca3(TiN2)2
_chemical_formula_sum   'Ca12 Ti8 N16'
_cell_volume   547.70051725
_cell_formula_units_Z   4
loop_
 _symmetry_equiv_pos_site_id
 _symmetry_equiv_pos_as_xyz
  1  'x, y, z'
loop_
 _atom_site_type_symbol
 _atom_site_label
 _atom_site_symmetry_multiplicity
 _atom_site_fract_x
 _atom_site_fract_y
 _atom_site_fract_z
 _atom_site_occupancy
  Ca  Ca0  1  0.61593800  0.15613000  0.42312500  1
  Ca  Ca1  1  0.88406200  0.84387000  0.42312500  1
  Ca  Ca2  1  0.61593800  0.34387000  0.07687500  1
  Ca  Ca3  1  0.88406200  0.65613000  0.07687500  1
  Ca  Ca4  1  0.38406200  0.84387000  0.57687500  1
  Ca  Ca5  1  0.11593800  0.15613000  0.57687500  1
  Ca  Ca6  1  0.38406200  0.65613000  0.92312500  1
  Ca  Ca7  1  0.11593800  0.34387000  0.92312500  1
  Ca  Ca8  1  0.75000000  0.50000000  0.39915300  1
  Ca  Ca9  1  0.75000000  0.00000000  0.10084700  1
  Ca  Ca10  1  0.25000000  0.50000000  0.60084700  1
  Ca  Ca11  1  0.25000000  0.00000000  0.89915300  1
  Ti  Ti0  1  0.75000000  0.50000000  0.73175700  1
  Ti  Ti1  1  0.75000000  0.00000000  0.76824300  1
  Ti  Ti2  1  0.25000000  0.50000000  0.26824300  1
  Ti  Ti3  1  0.25000000  0.00000000  0.23175700  1
  Ti  Ti4  1  0.63987200  0.25000000  0.75000000  1
  Ti  Ti5  1  0.86012800  0.75000000  0.75000000  1
  Ti  Ti6  1  0.36012800  0.75000000  0.25000000  1
  Ti  Ti7  1  0.13987200  0.25000000  0.25000000  1
  N  N0  1  0.84398000  0.34875200  0.61307400  1
  N  N1  1  0.65602000  0.65124800  0.61307400  1
  N  N2  1  0.84398000  0.15124800  0.88692600  1
  N  N3  1  0.65602000  0.84875200  0.88692600  1
  N  N4  1  0.15602000  0.65124800  0.38692600  1
  N  N5  1  0.34398000  0.34875200  0.38692600  1
  N  N6  1  0.15602000  0.84875200  0.11307400  1
  N  N7  1  0.34398000  0.15124800  0.11307400  1
  N  N8  1  0.48921100  0.41406300  0.83283800  1
  N  N9  1  0.01078900  0.58593700  0.83283800  1
  N  N10  1  0.48921100  0.08593700  0.66716200  1
  N  N11  1  0.01078900  0.91406300  0.66716200  1
  N  N12  1  0.51078900  0.58593700  0.16716200  1
  N  N13  1  0.98921100  0.41406300  0.16716200  1
  N  N14  1  0.51078900  0.91406300  0.33283800  1
  N  N15  1  0.98921100  0.08593700  0.33283800  1
loop_
_geom_bond_atom_site_label_1
_geom_bond_atom_site_label_2
_geom_bond_distance
_geom_bond_site_symmetry_2
Ca0 N15 2.444946 1_555
Ca0 N10 2.478938 1_555
Ca0 N5 2.538904 1_555
Ca0 N14 2.659825 1_545
Ca0 N0 2.943659 1_555
Ca1 N14 2.444946 1_555
Ca1 N11 2.478938 1_655
Ca1 N4 2.538904 1_655
Ca1 N15 2.659825 1_565
Ca1 N1 2.943659 1_555
Ca2 N13 2.444946 1_555
Ca2 N8 2.478938 1_554
Ca2 N7 2.538904 1_555
Ca2 N12 2.659825 1_555
Ca2 N2 2.943659 1_554
Ca3 N12 2.444946 1_555
Ca3 N9 2.478938 1_654
Ca3 N6 2.538904 1_655
Ca3 N13 2.659825 1_555
Ca3 N3 2.943659 1_554
Ca4 N11 2.444946 1_555
Ca4 N14 2.478938 1_555
Ca4 N1 2.538904 1_555
Ca4 N10 2.659825 1_565
Ca4 N4 2.943659 1_555
Ca5 N10 2.444946 1_555
Ca5 N15 2.478938 1_455
Ca5 N0 2.538904 1_455
Ca5 N11 2.659825 1_545
Ca5 N5 2.943659 1_555
Ca6 N9 2.444946 1_555
Ca6 N12 2.478938 1_556
Ca6 N3 2.538904 1_555
Ca6 N8 2.659825 1_555
Ca6 N6 2.943659 1_556
Ca7 N8 2.444946 1_555
Ca7 N13 2.478938 1_456
Ca7 N2 2.538904 1_455
Ca7 N9 2.659825 1_555
Ca7 N7 2.943659 1_556
Ca8 N1 2.560488 1_555
Ca8 N0 2.560488 1_555
Ca8 N12 2.705142 1_555
Ca8 N13 2.705142 1_555
Ca8 N4 2.829523 1_655
Ca8 N5 2.829523 1_555
Ca9 N2 2.560488 1_554
Ca9 N3 2.560488 1_544
Ca9 N15 2.705142 1_555
Ca9 N14 2.705142 1_545
Ca9 N7 2.829523 1_555
Ca9 N6 2.829523 1_645
Ca10 N4 2.560488 1_555
Ca10 N5 2.560488 1_555
Ca10 N9 2.705142 1_555
Ca10 N8 2.705142 1_555
Ca10 N1 2.829523 1_555
Ca10 N0 2.829523 1_455
Ca11 N6 2.560488 1_546
Ca11 N7 2.560488 1_556
Ca11 N10 2.705142 1_555
Ca11 N11 2.705142 1_545
Ca11 N2 2.829523 1_455
Ca11 N3 2.829523 1_545
N0 Ti0 1.961802 1_555
N0 Ti4 2.007247 1_555
N1 Ti0 1.961802 1_555
N1 Ti5 2.007247 1_555
N2 Ti1 1.961802 1_555
N2 Ti4 2.007247 1_555
N3 Ti1 1.961802 1_565
N3 Ti5 2.007247 1_555
N4 Ti2 1.961802 1_555
N4 Ti6 2.007247 1_555
N5 Ti2 1.961802 1_555
N5 Ti7 2.007247 1_555
N6 Ti3 1.961802 1_565
N6 Ti6 2.007247 1_555
N7 Ti3 1.961802 1_555
N7 Ti7 2.007247 1_555
N8 Ti0 1.990203 1_555
N8 Ti4 2.029854 1_555
N9 Ti0 1.990203 1_455
N9 Ti5 2.029854 1_455
N10 Ti1 1.990203 1_555
N10 Ti4 2.029854 1_555
N11 Ti1 1.990203 1_465
N11 Ti5 2.029854 1_455
N12 Ti2 1.990203 1_555
N12 Ti6 2.029854 1_555
N13 Ti2 1.990203 1_655
N13 Ti7 2.029854 1_655
N14 Ti3 1.990203 1_565
N14 Ti6 2.029854 1_555
N15 Ti3 1.990203 1_655
N15 Ti7 2.029854 1_655
