# generated using pymatgen
data_Gd3Al
_symmetry_space_group_name_H-M   'P 1'
_cell_length_a   4.80770796
_cell_length_b   4.80770796
_cell_length_c   4.80770796
_cell_angle_alpha   90.00000000
_cell_angle_beta   90.00000000
_cell_angle_gamma   90.00000000
_symmetry_Int_Tables_number   1
_chemical_formula_structural   Gd3Al
_chemical_formula_sum   'Gd3 Al1'
_cell_volume   111.12563020
_cell_formula_units_Z   1
loop_
 _symmetry_equiv_pos_site_id
 _symmetry_equiv_pos_as_xyz
  1  'x, y, z'
loop_
 _atom_site_type_symbol
 _atom_site_label
 _atom_site_symmetry_multiplicity
 _atom_site_fract_x
 _atom_site_fract_y
 _atom_site_fract_z
 _atom_site_occupancy
  Gd  Gd0  1  0.00000000  0.50000200  0.50000200  1
  Gd  Gd1  1  0.50000200  0.00000000  0.50000200  1
  Gd  Gd2  1  0.50000200  0.50000200  0.00000000  1
  Al  Al0  1  0.00000000  0.00000000  0.00000000  1
loop_
_geom_bond_atom_site_label_1
_geom_bond_atom_site_label_2
_geom_bond_distance
_geom_bond_site_symmetry_2
Gd0 Gd2 3.399549 1_456
Gd0 Gd1 3.399549 1_465
Gd0 Gd2 3.399563 1_455
Gd0 Gd1 3.399563 1_565
Gd0 Gd1 3.399563 1_455
Gd0 Gd2 3.399563 1_556
Gd0 Gd2 3.399576 1_555
Gd0 Gd1 3.399576 1_555
Gd1 Gd2 3.399549 1_546
Gd1 Gd2 3.399563 1_556
Gd1 Gd2 3.399563 1_545
Gd1 Gd2 3.399576 1_555
Al0 Gd1 3.399549 1_454
Al0 Gd2 3.399549 1_445
Al0 Gd0 3.399549 1_544
Al0 Gd1 3.399563 1_554
Al0 Gd2 3.399563 1_545
Al0 Gd2 3.399563 1_455
Al0 Gd0 3.399563 1_545
Al0 Gd1 3.399563 1_455
Al0 Gd0 3.399563 1_554
Al0 Gd2 3.399576 1_555
Al0 Gd0 3.399576 1_555
Al0 Gd1 3.399576 1_555
