# generated using pymatgen
data_KSrPrSbO6
_symmetry_space_group_name_H-M   'P 1'
_cell_length_a   8.65820012
_cell_length_b   8.61521660
_cell_length_c   8.63246895
_cell_angle_alpha   90.00000000
_cell_angle_beta   90.00000000
_cell_angle_gamma   90.00000000
_symmetry_Int_Tables_number   1
_chemical_formula_structural   KSrPrSbO6
_chemical_formula_sum   'K4 Sr4 Pr4 Sb4 O24'
_cell_volume   643.91544951
_cell_formula_units_Z   4
loop_
 _symmetry_equiv_pos_site_id
 _symmetry_equiv_pos_as_xyz
  1  'x, y, z'
loop_
 _atom_site_type_symbol
 _atom_site_label
 _atom_site_symmetry_multiplicity
 _atom_site_fract_x
 _atom_site_fract_y
 _atom_site_fract_z
 _atom_site_occupancy
  K  K0  1  -0.00000000  0.50000000  0.50000000  1
  K  K1  1  0.50000000  0.50000000  0.00000000  1
  K  K2  1  0.50000000  -0.00000000  0.00000000  1
  K  K3  1  0.00000000  -0.00000000  0.50000000  1
  Sr  Sr0  1  0.50000000  -0.00000000  0.50000000  1
  Sr  Sr1  1  0.00000000  0.50000000  0.00000000  1
  Sr  Sr2  1  0.00000000  -0.00000000  0.00000000  1
  Sr  Sr3  1  0.50000000  0.50000000  0.50000000  1
  Pr  Pr0  1  0.75000000  0.75000000  0.75000000  1
  Pr  Pr1  1  0.25000000  0.25000000  0.75000000  1
  Pr  Pr2  1  0.25000000  0.75000000  0.25000000  1
  Pr  Pr3  1  0.75000000  0.25000000  0.25000000  1
  Sb  Sb0  1  0.25000000  0.25000000  0.25000000  1
  Sb  Sb1  1  0.75000000  0.75000000  0.25000000  1
  Sb  Sb2  1  0.75000000  0.25000000  0.75000000  1
  Sb  Sb3  1  0.25000000  0.75000000  0.75000000  1
  O  O0  1  0.01984903  0.22678196  0.25969143  1
  O  O1  1  0.98015097  0.77321804  0.25969143  1
  O  O2  1  0.98015097  0.22678196  0.74030857  1
  O  O3  1  0.01984903  0.77321804  0.74030857  1
  O  O4  1  0.26833951  0.01980353  0.22934520  1
  O  O5  1  0.26833951  0.98019647  0.77065480  1
  O  O6  1  0.73166049  0.98019647  0.22934520  1
  O  O7  1  0.73166049  0.01980353  0.77065480  1
  O  O8  1  0.21447444  0.27046394  0.01957988  1
  O  O9  1  0.78552556  0.27046394  0.98042012  1
  O  O10  1  0.21447444  0.72953606  0.98042012  1
  O  O11  1  0.78552556  0.72953606  0.01957988  1
  O  O12  1  0.48015097  0.27321804  0.24030857  1
  O  O13  1  0.51984903  0.72678196  0.24030857  1
  O  O14  1  0.51984903  0.27321804  0.75969143  1
  O  O15  1  0.48015097  0.72678196  0.75969143  1
  O  O16  1  0.23166049  0.48019647  0.27065480  1
  O  O17  1  0.23166049  0.51980353  0.72934520  1
  O  O18  1  0.76833951  0.51980353  0.27065480  1
  O  O19  1  0.76833951  0.48019647  0.72934520  1
  O  O20  1  0.28552556  0.22953606  0.48042012  1
  O  O21  1  0.71447444  0.22953606  0.51957988  1
  O  O22  1  0.28552556  0.77046394  0.51957988  1
  O  O23  1  0.71447444  0.77046394  0.48042012  1
loop_
_geom_bond_atom_site_label_1
_geom_bond_atom_site_label_2
_geom_bond_distance
_geom_bond_site_symmetry_2
K0 O17 2.823449 1_555
K0 O19 2.823449 1_455
K0 O18 2.823449 1_455
K0 O16 2.823449 1_555
K0 O0 3.142202 1_555
K0 O2 3.142202 1_455
K0 O1 3.142202 1_455
K0 O3 3.142202 1_555
K1 O14 2.854846 1_554
K1 O15 2.854846 1_554
K1 O13 2.854846 1_555
K1 O12 2.854846 1_555
K1 O8 3.170260 1_555
K1 O9 3.170260 1_554
K1 O10 3.170260 1_554
K1 O11 3.170260 1_555
K1 O18 3.299372 1_555
K1 O16 3.299372 1_555
K1 O17 3.299372 1_554
K1 O19 3.299372 1_554
K2 O4 2.823449 1_555
K2 O7 2.823449 1_554
K2 O5 2.823449 1_544
K2 O6 2.823449 1_545
K2 O15 3.142202 1_544
K2 O14 3.142202 1_554
K2 O13 3.142202 1_545
K2 O12 3.142202 1_555
K3 O1 2.854846 1_445
K3 O2 2.854846 1_455
K3 O3 2.854846 1_545
K3 O0 2.854846 1_555
K3 O23 3.170260 1_445
K3 O21 3.170260 1_455
K3 O22 3.170260 1_545
K3 O20 3.170260 1_555
K3 O5 3.299372 1_545
K3 O7 3.299372 1_455
K3 O6 3.299372 1_445
K3 O4 3.299372 1_555
O0 Sb0 2.004454 1_555
O0 Pr3 2.346446 1_455
O0 Sr2 2.978648 1_555
O0 Sr1 3.255093 1_555
O1 Sb1 2.004454 1_555
O1 Pr2 2.346446 1_655
O1 Sr2 2.978648 1_665
O1 Sr1 3.255093 1_655
O2 Sb2 2.004454 1_555
O2 Pr1 2.346446 1_655
O2 Sr2 2.978648 1_656
O2 Sr1 3.255093 1_656
O3 Sb3 2.004454 1_555
O3 Pr0 2.346446 1_455
O3 Sr2 2.978648 1_566
O3 Sr1 3.255093 1_556
O4 Sb0 1.997513 1_555
O4 Pr2 2.336646 1_545
O4 Sr2 3.057233 1_555
O4 Sr0 3.083999 1_555
O5 Sb3 1.997513 1_555
O5 Pr1 2.336646 1_565
O5 Sr2 3.057233 1_566
O5 Sr0 3.083999 1_565
O6 Sb1 1.997513 1_555
O6 Pr3 2.336646 1_565
O6 Sr2 3.057233 1_665
O6 Sr0 3.083999 1_565
O7 Sb2 1.997513 1_555
O7 Pr0 2.336646 1_545
O7 Sr2 3.057233 1_656
O7 Sr0 3.083999 1_555
O8 Sb0 2.020443 1_555
O8 Pr1 2.353991 1_554
O8 Sr1 2.717977 1_555
O8 Sr2 2.984337 1_555
O9 Sb2 2.020443 1_555
O9 Pr3 2.353991 1_556
O9 Sr1 2.717977 1_656
O9 Sr2 2.984337 1_656
O10 Sb3 2.020443 1_555
O10 Pr2 2.353991 1_556
O10 Sr1 2.717977 1_556
O10 Sr2 2.984337 1_566
O11 Sb1 2.020443 1_555
O11 Pr0 2.353991 1_554
O11 Sr1 2.717977 1_655
O11 Sr2 2.984337 1_665
O12 Sb0 2.004454 1_555
O12 Pr3 2.346446 1_555
O12 Sr3 2.978648 1_555
O12 Sr0 3.255093 1_555
O13 Sb1 2.004454 1_555
O13 Pr2 2.346446 1_555
O13 Sr3 2.978648 1_555
O13 Sr0 3.255093 1_565
O14 Sb2 2.004454 1_555
O14 Pr1 2.346446 1_555
O14 Sr3 2.978648 1_555
O14 Sr0 3.255093 1_555
O15 Sb3 2.004454 1_555
O15 Pr0 2.346446 1_555
O15 Sr3 2.978648 1_555
O15 Sr0 3.255093 1_565
O16 Sb0 1.997513 1_555
O16 Pr2 2.336646 1_555
O16 Sr3 3.057233 1_555
O16 Sr1 3.083999 1_555
O17 Sb3 1.997513 1_555
O17 Pr1 2.336646 1_555
O17 Sr3 3.057233 1_555
O17 Sr1 3.083999 1_556
O18 Sb1 1.997513 1_555
O18 Pr3 2.336646 1_555
O18 Sr3 3.057233 1_555
O18 Sr1 3.083999 1_655
O19 Sb2 1.997513 1_555
O19 Pr0 2.336646 1_555
O19 Sr3 3.057233 1_555
O19 Sr1 3.083999 1_656
O20 Sb0 2.020443 1_555
O20 Pr1 2.353991 1_555
O20 Sr0 2.717977 1_555
O20 Sr3 2.984337 1_555
O21 Sb2 2.020443 1_555
O21 Pr3 2.353991 1_555
O21 Sr0 2.717977 1_555
O21 Sr3 2.984337 1_555
O22 Sb3 2.020443 1_555
O22 Pr2 2.353991 1_555
O22 Sr0 2.717977 1_565
O22 Sr3 2.984337 1_555
O23 Sb1 2.020443 1_555
O23 Pr0 2.353991 1_555
O23 Sr0 2.717977 1_565
O23 Sr3 2.984337 1_555
