# generated using pymatgen
data_Ce4Ru
_symmetry_space_group_name_H-M   'P 1'
_cell_length_a   7.38785165
_cell_length_b   7.38785165
_cell_length_c   7.38785165
_cell_angle_alpha   60.00000000
_cell_angle_beta   60.00000000
_cell_angle_gamma   60.00000000
_symmetry_Int_Tables_number   1
_chemical_formula_structural   Ce4Ru
_chemical_formula_sum   'Ce8 Ru2'
_cell_volume   285.12775885
_cell_formula_units_Z   2
loop_
 _symmetry_equiv_pos_site_id
 _symmetry_equiv_pos_as_xyz
  1  'x, y, z'
loop_
 _atom_site_type_symbol
 _atom_site_label
 _atom_site_symmetry_multiplicity
 _atom_site_fract_x
 _atom_site_fract_y
 _atom_site_fract_z
 _atom_site_occupancy
  Ce  Ce0  1  0.60776900  0.60776900  0.60776900  1
  Ce  Ce1  1  0.17669200  0.60776900  0.60776900  1
  Ce  Ce2  1  0.60776900  0.17669200  0.60776900  1
  Ce  Ce3  1  0.57330800  0.14223100  0.14223100  1
  Ce  Ce4  1  0.14223100  0.14223100  0.14223100  1
  Ce  Ce5  1  0.60776900  0.60776900  0.17669200  1
  Ce  Ce6  1  0.14223100  0.57330800  0.14223100  1
  Ce  Ce7  1  0.14223100  0.14223100  0.57330800  1
  Ru  Ru0  1  0.00000000  0.00000000  0.00000000  1
  Ru  Ru1  1  0.75000000  0.75000000  0.75000000  1
loop_
_geom_bond_atom_site_label_1
_geom_bond_atom_site_label_2
_geom_bond_distance
_geom_bond_site_symmetry_2
Ce0 Ru1 2.573879 1_555
Ce0 Ce1 3.184733 1_555
Ce0 Ce5 3.184733 1_555
Ce0 Ce2 3.184733 1_555
Ce0 Ce7 3.711432 1_655
Ce0 Ce3 3.711432 1_565
Ce0 Ce7 3.711432 1_565
Ce0 Ce3 3.711432 1_556
Ce0 Ce6 3.711432 1_556
Ce0 Ce6 3.711432 1_655
Ce1 Ru1 2.573873 1_455
Ce1 Ce2 3.184733 1_555
Ce1 Ce5 3.184733 1_555
Ce1 Ce7 3.711424 1_555
Ce1 Ce6 3.711424 1_555
Ce1 Ce4 3.711432 1_565
Ce1 Ce4 3.711432 1_556
Ce1 Ce6 3.711439 1_556
Ce1 Ce7 3.711439 1_565
Ce2 Ru1 2.573873 1_545
Ce2 Ce5 3.184733 1_555
Ce2 Ce7 3.711424 1_555
Ce2 Ce3 3.711424 1_555
Ce2 Ce4 3.711432 1_655
Ce2 Ce4 3.711432 1_556
Ce2 Ce3 3.711439 1_556
Ce2 Ce7 3.711439 1_655
Ce3 Ru0 2.573873 1_655
Ce3 Ce7 3.184733 1_555
Ce3 Ce4 3.184733 1_555
Ce3 Ce6 3.184733 1_555
Ce3 Ce5 3.711424 1_555
Ce3 Ce5 3.711439 1_545
Ce4 Ru0 2.573879 1_555
Ce4 Ce7 3.184733 1_555
Ce4 Ce6 3.184733 1_555
Ce4 Ce5 3.711432 1_455
Ce4 Ce5 3.711432 1_545
Ce5 Ru1 2.573873 1_554
Ce5 Ce6 3.711424 1_555
Ce5 Ce6 3.711439 1_655
Ce6 Ru0 2.573873 1_565
Ce6 Ce7 3.184733 1_555
Ce7 Ru0 2.573873 1_556
