# generated using pymatgen
data_Li7Mn2(CoO4)3
_symmetry_space_group_name_H-M   'P 1'
_cell_length_a   3.02729200
_cell_length_b   7.53148608
_cell_length_c   9.71028527
_cell_angle_alpha   91.42105797
_cell_angle_beta   95.52015136
_cell_angle_gamma   97.78718513
_symmetry_Int_Tables_number   1
_chemical_formula_structural   Li7Mn2(CoO4)3
_chemical_formula_sum   'Li7 Mn2 Co3 O12'
_cell_volume   218.17492074
_cell_formula_units_Z   1
loop_
 _symmetry_equiv_pos_site_id
 _symmetry_equiv_pos_as_xyz
  1  'x, y, z'
loop_
 _atom_site_type_symbol
 _atom_site_label
 _atom_site_symmetry_multiplicity
 _atom_site_fract_x
 _atom_site_fract_y
 _atom_site_fract_z
 _atom_site_occupancy
  Li  Li0  1  0.74715000  0.74844300  0.74385700  1
  Li  Li1  1  0.92263200  0.58361500  0.25197800  1
  Li  Li2  1  0.08235300  0.41634300  0.74681900  1
  Li  Li3  1  0.25233600  0.24966600  0.25392800  1
  Li  Li4  1  0.40982900  0.08538500  0.74556300  1
  Li  Li5  1  0.58479400  0.91623300  0.25798800  1
  Li  Li6  1  0.16651800  0.83338500  0.50025900  1
  Mn  Mn0  1  0.99533700  0.99722800  0.99960500  1
  Mn  Mn1  1  0.67117400  0.33636200  0.00030500  1
  Co  Co0  1  0.33357900  0.66627600  0.00004900  1
  Co  Co1  1  0.51099400  0.51076000  0.50173500  1
  Co  Co2  1  0.82262100  0.15642700  0.49816700  1
  O  O0  1  0.35184600  0.86774800  0.88294800  1
  O  O1  1  0.53130100  0.68255900  0.38425000  1
  O  O2  1  0.68223500  0.54355000  0.88608400  1
  O  O3  1  0.85565300  0.36540600  0.39050500  1
  O  O4  1  0.01754500  0.20570100  0.88178100  1
  O  O5  1  0.19668500  0.05161200  0.38455700  1
  O  O6  1  0.13679900  0.61441800  0.61557000  1
  O  O7  1  0.31329400  0.46501000  0.11612800  1
  O  O8  1  0.47666100  0.30069900  0.60902900  1
  O  O9  1  0.64782600  0.12766100  0.11740300  1
  O  O10  1  0.80324800  0.98482800  0.61585400  1
  O  O11  1  0.98758800  0.79068500  0.11563600  1
loop_
_geom_bond_atom_site_label_1
_geom_bond_atom_site_label_2
_geom_bond_distance
_geom_bond_site_symmetry_2
Li0 O2 2.098335 1_555
Li0 O6 2.122519 1_655
Li0 O0 2.146109 1_555
Li0 O10 2.193574 1_555
Li0 O6 2.230270 1_555
Li0 O0 2.236291 1_655
Li1 O1 2.023104 1_555
Li1 O11 2.071956 1_555
Li1 O7 2.112985 1_655
Li1 O3 2.150166 1_555
Li1 O1 2.173786 1_655
Li1 O7 2.228824 1_555
Li2 O6 1.986196 1_555
Li2 O4 2.083509 1_555
Li2 O8 2.122470 1_555
Li2 O2 2.186123 1_455
Li2 O8 2.224482 1_455
Li2 O2 2.244171 1_555
Li3 O5 1.982218 1_555
Li3 O3 2.119787 1_455
Li3 O7 2.128139 1_555
Li3 O9 2.139701 1_555
Li3 O3 2.213521 1_555
Li3 O9 2.228891 1_455
Li4 O10 2.015967 1_545
Li4 O8 2.120771 1_555
Li4 O4 2.124940 1_555
Li4 O0 2.138406 1_545
Li4 O10 2.159347 1_445
Li4 O4 2.230680 1_655
Li5 O5 2.114430 1_565
Li5 O9 2.123956 1_565
Li5 O1 2.166721 1_555
Li5 O11 2.205348 1_555
Li5 O5 2.229217 1_665
Li5 O11 2.250438 1_455
Li6 O5 2.010616 1_565
Li6 O6 2.013027 1_555
Li6 O10 2.069820 1_455
Li6 O1 2.072345 1_555
Li6 O1 2.277066 1_455
Li6 O10 2.280534 1_555
Mn0 O11 1.942146 1_556
Mn0 O9 1.958569 1_566
Mn0 O4 1.963170 1_665
Mn0 O0 1.965849 1_655
Mn0 O0 2.243849 1_555
Mn0 O9 2.271315 1_666
Mn1 O2 1.935212 1_554
Mn1 O7 1.960176 1_555
Mn1 O9 1.960239 1_555
Mn1 O4 1.961655 1_654
Mn1 O7 2.235467 1_655
Mn1 O4 2.277355 1_554
Co0 O2 1.905620 1_554
Co0 O7 1.909148 1_555
Co0 O0 1.916614 1_554
Co0 O11 1.916958 1_455
Co0 O2 2.236644 1_454
Co0 O11 2.252818 1_555
Co1 O1 1.744868 1_555
Co1 O6 1.884760 1_555
Co1 O8 1.912392 1_555
Co1 O3 1.980238 1_555
Co1 O6 2.138680 1_655
Co1 O3 2.289422 1_455
Co2 O10 1.745069 1_545
Co2 O5 1.887304 1_655
Co2 O3 1.907676 1_555
Co2 O8 1.975773 1_555
Co2 O5 2.140110 1_555
Co2 O8 2.282259 1_655
