# generated using pymatgen
data_Ba4SnGe2(S4Br)2
_symmetry_space_group_name_H-M   'P 1'
_cell_length_a   9.10716900
_cell_length_b   9.29278000
_cell_length_c   12.10865300
_cell_angle_alpha   90.00000000
_cell_angle_beta   90.00000000
_cell_angle_gamma   90.00000000
_symmetry_Int_Tables_number   1
_chemical_formula_structural   Ba4SnGe2(S4Br)2
_chemical_formula_sum   'Ba8 Sn2 Ge4 S16 Br4'
_cell_volume   1024.76641840
_cell_formula_units_Z   2
loop_
 _symmetry_equiv_pos_site_id
 _symmetry_equiv_pos_as_xyz
  1  'x, y, z'
loop_
 _atom_site_type_symbol
 _atom_site_label
 _atom_site_symmetry_multiplicity
 _atom_site_fract_x
 _atom_site_fract_y
 _atom_site_fract_z
 _atom_site_occupancy
  Ba  Ba0  1  0.88634500  0.74133500  0.08204000  1
  Ba  Ba1  1  0.60222100  0.25545000  0.57267600  1
  Ba  Ba2  1  0.10222100  0.24455000  0.42732400  1
  Ba  Ba3  1  0.38634500  0.75866500  0.91796000  1
  Ba  Ba4  1  0.10222100  0.75545000  0.42732400  1
  Ba  Ba5  1  0.38634500  0.24133500  0.91796000  1
  Ba  Ba6  1  0.88634500  0.25866500  0.08204000  1
  Ba  Ba7  1  0.60222100  0.74455000  0.57267600  1
  Sn  Sn0  1  0.02279500  0.50000000  0.73201300  1
  Sn  Sn1  1  0.52279500  0.00000000  0.26798700  1
  Ge  Ge0  1  0.69391300  0.50000000  0.84978000  1
  Ge  Ge1  1  0.79902800  0.50000000  0.33993000  1
  Ge  Ge2  1  0.29902800  0.00000000  0.66007000  1
  Ge  Ge3  1  0.19391300  0.00000000  0.15022000  1
  S  S0  1  0.82987200  0.69256800  0.80684500  1
  S  S1  1  0.70215500  0.28562200  0.31256400  1
  S  S2  1  0.20215500  0.21437800  0.68743600  1
  S  S3  1  0.32987200  0.80743200  0.19315500  1
  S  S4  1  0.20215500  0.78562200  0.68743600  1
  S  S5  1  0.32987200  0.19256800  0.19315500  1
  S  S6  1  0.82987200  0.30743200  0.80684500  1
  S  S7  1  0.70215500  0.71437800  0.31256400  1
  S  S8  1  0.63072900  0.50000000  0.02703200  1
  S  S9  1  0.86239700  0.50000000  0.52613500  1
  S  S10  1  0.36239700  0.00000000  0.47386500  1
  S  S11  1  0.13072900  0.00000000  0.97296800  1
  S  S12  1  0.98968800  0.00000000  0.24944100  1
  S  S13  1  0.51382100  0.00000000  0.75070700  1
  S  S14  1  0.01382100  0.50000000  0.24929300  1
  S  S15  1  0.48968800  0.50000000  0.75055900  1
  Br  Br0  1  0.14378000  0.50000000  0.97322100  1
  Br  Br1  1  0.35736200  0.50000000  0.46347400  1
  Br  Br2  1  0.85736200  0.00000000  0.53652600  1
  Br  Br3  1  0.64378000  0.00000000  0.02677900  1
loop_
_geom_bond_atom_site_label_1
_geom_bond_atom_site_label_2
_geom_bond_distance
_geom_bond_site_symmetry_2
Ba0 S14 3.237105 1_655
Ba0 S7 3.266212 1_555
Ba0 S12 3.282129 1_565
Ba0 S8 3.300384 1_555
Ba0 Br3 3.332512 1_565
Ba0 S0 3.402016 1_554
Ba0 Br0 3.501783 1_654
Ba0 S11 3.532088 1_664
Ba1 S1 3.290432 1_555
Ba1 S15 3.294571 1_555
Ba1 S13 3.306111 1_555
Ba1 S9 3.331132 1_555
Ba1 Br2 3.350507 1_555
Ba1 S10 3.440498 1_555
Ba1 Br1 3.447565 1_555
Ba1 S6 3.545650 1_555
Ba2 S2 3.290432 1_555
Ba2 S12 3.294571 1_455
Ba2 S14 3.306111 1_555
Ba2 S10 3.331132 1_555
Ba2 Br1 3.350507 1_555
Ba2 S9 3.440498 1_455
Ba2 Br2 3.447565 1_455
Ba2 S5 3.545650 1_555
Ba3 S13 3.237105 1_565
Ba3 S4 3.266212 1_555
Ba3 S15 3.282129 1_555
Ba3 S11 3.300384 1_565
Ba3 Br0 3.332512 1_555
Ba3 S3 3.402016 1_556
Ba3 Br3 3.501783 1_566
Ba3 S8 3.532088 1_556
Ba4 S4 3.290432 1_555
Ba4 S12 3.294571 1_465
Ba4 S14 3.306111 1_555
Ba4 S10 3.331132 1_565
Ba4 Br1 3.350507 1_555
Ba4 S9 3.440498 1_455
Ba4 Br2 3.447565 1_465
Ba4 S3 3.545650 1_555
Ba5 S13 3.237105 1_555
Ba5 S2 3.266212 1_555
Ba5 S15 3.282129 1_555
Ba5 S11 3.300384 1_555
Ba5 Br0 3.332512 1_555
Ba5 S5 3.402016 1_556
Ba5 Br3 3.501783 1_556
Ba5 S8 3.532088 1_556
Ba6 S14 3.237105 1_655
Ba6 S1 3.266212 1_555
Ba6 S12 3.282129 1_555
Ba6 S8 3.300384 1_555
Ba6 Br3 3.332512 1_555
Ba6 S6 3.402016 1_554
Ba6 Br0 3.501783 1_654
Ba6 S11 3.532088 1_654
Ba7 S7 3.290432 1_555
Ba7 S15 3.294571 1_555
Ba7 S13 3.306111 1_565
Ba7 S9 3.331132 1_555
Ba7 Br2 3.350507 1_565
Ba7 S10 3.440498 1_565
Ba7 Br1 3.447565 1_555
Ba7 S0 3.545650 1_555
Ge0 S15 2.214207 1_555
Ge0 S8 2.222082 1_556
Ge0 S0 2.237343 1_555
Ge0 S6 2.237343 1_555
Ge1 S7 2.203833 1_555
Ge1 S1 2.203833 1_555
Ge1 S14 2.242997 1_655
Ge1 S9 2.327379 1_555
Ge2 S4 2.203833 1_545
Ge2 S2 2.203833 1_555
Ge2 S13 2.242997 1_555
Ge2 S10 2.327379 1_555
Ge3 S12 2.214207 1_455
Ge3 S11 2.222082 1_554
Ge3 S3 2.237343 1_545
Ge3 S5 2.237343 1_555
S0 Sn0 2.666517 1_655
S1 Sn1 3.162980 1_555
S2 Sn0 3.162980 1_555
S3 Sn1 2.666517 1_565
S4 Sn0 3.162980 1_555
S5 Sn1 2.666517 1_555
S6 Sn0 2.666517 1_655
S7 Sn1 3.162980 1_565
S9 Sn0 2.889365 1_655
S10 Sn1 2.889365 1_555
Br0 Sn0 3.121625 1_555
Br3 Sn1 3.121625 1_555
