# generated using pymatgen
data_Sr4Pt
_symmetry_space_group_name_H-M   'P 1'
_cell_length_a   8.92380637
_cell_length_b   8.92380637
_cell_length_c   8.92380637
_cell_angle_alpha   60.00000000
_cell_angle_beta   60.00000000
_cell_angle_gamma   60.00000000
_symmetry_Int_Tables_number   1
_chemical_formula_structural   Sr4Pt
_chemical_formula_sum   'Sr8 Pt2'
_cell_volume   502.49924958
_cell_formula_units_Z   2
loop_
 _symmetry_equiv_pos_site_id
 _symmetry_equiv_pos_as_xyz
  1  'x, y, z'
loop_
 _atom_site_type_symbol
 _atom_site_label
 _atom_site_symmetry_multiplicity
 _atom_site_fract_x
 _atom_site_fract_y
 _atom_site_fract_z
 _atom_site_occupancy
  Sr  Sr0  1  0.62039700  0.62039700  0.62039700  1
  Sr  Sr1  1  0.13880800  0.62039700  0.62039700  1
  Sr  Sr2  1  0.62039700  0.13880800  0.62039700  1
  Sr  Sr3  1  0.61119200  0.12960300  0.12960300  1
  Sr  Sr4  1  0.12960300  0.12960300  0.12960300  1
  Sr  Sr5  1  0.62039700  0.62039700  0.13880800  1
  Sr  Sr6  1  0.12960300  0.61119200  0.12960300  1
  Sr  Sr7  1  0.12960300  0.12960300  0.61119200  1
  Pt  Pt0  1  0.00000000  0.00000000  0.00000000  1
  Pt  Pt1  1  0.75000000  0.75000000  0.75000000  1
loop_
_geom_bond_atom_site_label_1
_geom_bond_atom_site_label_2
_geom_bond_distance
_geom_bond_site_symmetry_2
Pt0 Sr3 2.832955 1_455
Pt0 Sr7 2.832955 1_554
Pt0 Sr6 2.832955 1_545
Pt0 Sr4 2.832962 1_555
Pt1 Sr2 2.832955 1_565
Pt1 Sr1 2.832955 1_655
Pt1 Sr5 2.832955 1_556
Pt1 Sr0 2.832962 1_555
