# generated using pymatgen
data_Ca2P4H11NO18
_symmetry_space_group_name_H-M   'P 1'
_cell_length_a   5.55589291
_cell_length_b   6.16495989
_cell_length_c   12.59732419
_cell_angle_alpha   76.42733745
_cell_angle_beta   84.11372102
_cell_angle_gamma   66.34213600
_symmetry_Int_Tables_number   1
_chemical_formula_structural   Ca2P4H11NO18
_chemical_formula_sum   'Ca2 P4 H11 N1 O18'
_cell_volume   384.16484814
_cell_formula_units_Z   1
loop_
 _symmetry_equiv_pos_site_id
 _symmetry_equiv_pos_as_xyz
  1  'x, y, z'
loop_
 _atom_site_type_symbol
 _atom_site_label
 _atom_site_symmetry_multiplicity
 _atom_site_fract_x
 _atom_site_fract_y
 _atom_site_fract_z
 _atom_site_occupancy
  Ca  Ca0  1  0.00845847  0.29116294  0.89974231  1
  Ca  Ca1  1  0.99947794  0.69529747  0.09990963  1
  P  P0  1  0.50319438  0.20519423  0.09361294  1
  P  P1  1  0.50349452  0.78504216  0.90441263  1
  P  P2  1  0.80081094  0.41076356  0.36209328  1
  P  P3  1  0.15234365  0.61322706  0.63862075  1
  H  H0  1  0.96899128  0.06519854  0.70557766  1
  H  H1  1  0.02621499  0.94222120  0.28486101  1
  H  H2  1  0.37771641  0.92223659  0.19934563  1
  H  H3  1  0.62607160  0.07208743  0.79778468  1
  H  H4  1  0.98269226  0.49389230  0.50579854  1
  H  H5  1  0.03229594  0.97487584  0.53046317  1
  H  H6  1  0.75563675  0.32216326  0.69946013  1
  H  H7  1  0.26543590  0.69427725  0.30559276  1
  H  H8  1  0.62256888  0.40696249  0.19050176  1
  H  H9  1  0.37905871  0.58577637  0.80826352  1
  H  H10  1  0.46883536  0.50709730  0.51613821  1
  N  N0  1  0.63764500  0.04876533  0.40975987  1
  O  O0  1  0.52369986  0.54826916  0.39515064  1
  O  O1  1  0.43509068  0.47239052  0.59889444  1
  O  O2  1  0.84446820  0.10906855  0.40810103  1
  O  O3  1  0.09989140  0.89378739  0.60436962  1
  O  O4  1  0.53866073  0.95449662  0.17260535  1
  O  O5  1  0.46791013  0.03520283  0.82491638  1
  O  O6  1  0.46118881  0.39656313  0.16492009  1
  O  O7  1  0.54208539  0.59453661  0.83279343  1
  O  O8  1  0.25203807  0.31244872  0.03117574  1
  O  O9  1  0.75481769  0.67689739  0.96684029  1
  O  O10  1  0.85467280  0.17486353  0.75188196  1
  O  O11  1  0.14973477  0.82116550  0.24721785  1
  O  O12  1  0.85160017  0.43022255  0.24107071  1
  O  O13  1  0.14549324  0.55745558  0.76103041  1
  O  O14  1  0.76198939  0.14420558  0.03423819  1
  O  O15  1  0.24592049  0.84536432  0.96491937  1
  O  O16  1  0.01680552  0.41607560  0.42284278  1
  O  O17  1  0.94858865  0.56884510  0.58569322  1
loop_
_geom_bond_atom_site_label_1
_geom_bond_atom_site_label_2
_geom_bond_distance
_geom_bond_site_symmetry_2
Ca0 O8 2.300892 1_556
Ca0 O14 2.316437 1_456
Ca0 O13 2.389975 1_555
Ca0 O10 2.481616 1_455
Ca0 O15 2.494220 1_545
Ca0 O9 2.522902 1_455
Ca0 O7 2.596493 1_455
Ca0 O5 2.620405 1_555
Ca1 O9 2.313220 1_554
Ca1 O15 2.328741 1_654
Ca1 O12 2.433444 1_555
Ca1 O11 2.501221 1_655
Ca1 O14 2.510605 1_565
Ca1 O8 2.518232 1_655
Ca1 O6 2.564042 1_655
Ca1 O4 2.620984 1_555
H0 O10 0.982460 1_555
H1 O11 0.970112 1_555
H2 O4 1.001049 1_555
H2 O11 1.629932 1_555
H3 O5 1.001484 1_555
H3 O10 1.634683 1_555
H4 O17 1.171017 1_555
H4 O16 1.216489 1_655
H5 O3 0.979972 1_555
H6 O10 0.977522 1_555
H7 O11 0.994642 1_555
H8 O6 1.013394 1_555
H8 O12 1.549562 1_555
H9 O7 1.011584 1_555
H9 O13 1.567615 1_555
H10 O1 1.027211 1_555
H10 O0 1.505162 1_555
N0 O2 1.339149 1_555
O0 P2 1.499718 1_555
O1 P3 1.555677 1_555
O2 P2 1.736355 1_555
O3 P3 1.591775 1_555
O4 P0 1.578509 1_565
O5 P1 1.578434 1_545
O6 P0 1.576927 1_555
O7 P1 1.579517 1_555
O8 P0 1.497840 1_555
O9 P1 1.498231 1_555
O12 P2 1.507113 1_555
O13 P3 1.499050 1_555
O14 P0 1.498578 1_555
O15 P1 1.499802 1_555
O16 P2 1.502830 1_455
O17 P3 1.513258 1_655
