# generated using pymatgen
data_Zn5B3Ir7
_symmetry_space_group_name_H-M   'P 1'
_cell_length_a   5.72731600
_cell_length_b   21.91097400
_cell_length_c   24.88381000
_cell_angle_alpha   90.00000000
_cell_angle_beta   90.00000000
_cell_angle_gamma   90.00000000
_symmetry_Int_Tables_number   1
_chemical_formula_structural   Zn5B3Ir7
_chemical_formula_sum   'Zn80 B48 Ir112'
_cell_volume   3122.69599149
_cell_formula_units_Z   16
loop_
 _symmetry_equiv_pos_site_id
 _symmetry_equiv_pos_as_xyz
  1  'x, y, z'
loop_
 _atom_site_type_symbol
 _atom_site_label
 _atom_site_symmetry_multiplicity
 _atom_site_fract_x
 _atom_site_fract_y
 _atom_site_fract_z
 _atom_site_occupancy
  Zn  Zn0_0  1  0.25000000  0.37500000  0.03150950  1
  Zn  Zn0_1  1  0.25000000  0.37500000  0.53150950  1
  Zn  Zn0_2  1  0.25000000  0.87500000  0.03150950  1
  Zn  Zn0_3  1  0.25000000  0.87500000  0.53150950  1
  Zn  Zn0_4  1  0.75000000  0.37500000  0.03150950  1
  Zn  Zn0_5  1  0.75000000  0.37500000  0.53150950  1
  Zn  Zn0_6  1  0.75000000  0.87500000  0.03150950  1
  Zn  Zn0_7  1  0.75000000  0.87500000  0.53150950  1
  Zn  Zn1_0  1  0.25000000  0.12500000  0.46849050  1
  Zn  Zn1_1  1  0.25000000  0.12500000  0.96849050  1
  Zn  Zn1_2  1  0.25000000  0.62500000  0.46849050  1
  Zn  Zn1_3  1  0.25000000  0.62500000  0.96849050  1
  Zn  Zn1_4  1  0.75000000  0.12500000  0.46849050  1
  Zn  Zn1_5  1  0.75000000  0.12500000  0.96849050  1
  Zn  Zn1_6  1  0.75000000  0.62500000  0.46849050  1
  Zn  Zn1_7  1  0.75000000  0.62500000  0.96849050  1
  Zn  Zn2_0  1  0.25000000  0.22510150  0.42308250  1
  Zn  Zn2_1  1  0.25000000  0.22510150  0.92308250  1
  Zn  Zn2_2  1  0.25000000  0.72510150  0.42308250  1
  Zn  Zn2_3  1  0.25000000  0.72510150  0.92308250  1
  Zn  Zn2_4  1  0.75000000  0.22510150  0.42308250  1
  Zn  Zn2_5  1  0.75000000  0.22510150  0.92308250  1
  Zn  Zn2_6  1  0.75000000  0.72510150  0.42308250  1
  Zn  Zn2_7  1  0.75000000  0.72510150  0.92308250  1
  Zn  Zn3_0  1  0.25000000  0.27489850  0.07691750  1
  Zn  Zn3_1  1  0.25000000  0.27489850  0.57691750  1
  Zn  Zn3_2  1  0.25000000  0.77489850  0.07691750  1
  Zn  Zn3_3  1  0.25000000  0.77489850  0.57691750  1
  Zn  Zn3_4  1  0.75000000  0.27489850  0.07691750  1
  Zn  Zn3_5  1  0.75000000  0.27489850  0.57691750  1
  Zn  Zn3_6  1  0.75000000  0.77489850  0.07691750  1
  Zn  Zn3_7  1  0.75000000  0.77489850  0.57691750  1
  Zn  Zn4_0  1  0.25000000  0.47510150  0.07691750  1
  Zn  Zn4_1  1  0.25000000  0.47510150  0.57691750  1
  Zn  Zn4_2  1  0.25000000  0.97510150  0.07691750  1
  Zn  Zn4_3  1  0.25000000  0.97510150  0.57691750  1
  Zn  Zn4_4  1  0.75000000  0.47510150  0.07691750  1
  Zn  Zn4_5  1  0.75000000  0.47510150  0.57691750  1
  Zn  Zn4_6  1  0.75000000  0.97510150  0.07691750  1
  Zn  Zn4_7  1  0.75000000  0.97510150  0.57691750  1
  Zn  Zn5_0  1  0.25000000  0.02489850  0.42308250  1
  Zn  Zn5_1  1  0.25000000  0.02489850  0.92308250  1
  Zn  Zn5_2  1  0.25000000  0.52489850  0.42308250  1
  Zn  Zn5_3  1  0.25000000  0.52489850  0.92308250  1
  Zn  Zn5_4  1  0.75000000  0.02489850  0.42308250  1
  Zn  Zn5_5  1  0.75000000  0.02489850  0.92308250  1
  Zn  Zn5_6  1  0.75000000  0.52489850  0.42308250  1
  Zn  Zn5_7  1  0.75000000  0.52489850  0.92308250  1
  Zn  Zn6_0  1  0.25000000  0.19092150  0.32142450  1
  Zn  Zn6_1  1  0.25000000  0.19092150  0.82142450  1
  Zn  Zn6_2  1  0.25000000  0.69092150  0.32142450  1
  Zn  Zn6_3  1  0.25000000  0.69092150  0.82142450  1
  Zn  Zn6_4  1  0.75000000  0.19092150  0.32142450  1
  Zn  Zn6_5  1  0.75000000  0.19092150  0.82142450  1
  Zn  Zn6_6  1  0.75000000  0.69092150  0.32142450  1
  Zn  Zn6_7  1  0.75000000  0.69092150  0.82142450  1
  Zn  Zn7_0  1  0.25000000  0.30907850  0.17857550  1
  Zn  Zn7_1  1  0.25000000  0.30907850  0.67857550  1
  Zn  Zn7_2  1  0.25000000  0.80907850  0.17857550  1
  Zn  Zn7_3  1  0.25000000  0.80907850  0.67857550  1
  Zn  Zn7_4  1  0.75000000  0.30907850  0.17857550  1
  Zn  Zn7_5  1  0.75000000  0.30907850  0.67857550  1
  Zn  Zn7_6  1  0.75000000  0.80907850  0.17857550  1
  Zn  Zn7_7  1  0.75000000  0.80907850  0.67857550  1
  Zn  Zn8_0  1  0.25000000  0.44092150  0.17857550  1
  Zn  Zn8_1  1  0.25000000  0.44092150  0.67857550  1
  Zn  Zn8_2  1  0.25000000  0.94092150  0.17857550  1
  Zn  Zn8_3  1  0.25000000  0.94092150  0.67857550  1
  Zn  Zn8_4  1  0.75000000  0.44092150  0.17857550  1
  Zn  Zn8_5  1  0.75000000  0.44092150  0.67857550  1
  Zn  Zn8_6  1  0.75000000  0.94092150  0.17857550  1
  Zn  Zn8_7  1  0.75000000  0.94092150  0.67857550  1
  Zn  Zn9_0  1  0.25000000  0.05907850  0.32142450  1
  Zn  Zn9_1  1  0.25000000  0.05907850  0.82142450  1
  Zn  Zn9_2  1  0.25000000  0.55907850  0.32142450  1
  Zn  Zn9_3  1  0.25000000  0.55907850  0.82142450  1
  Zn  Zn9_4  1  0.75000000  0.05907850  0.32142450  1
  Zn  Zn9_5  1  0.75000000  0.05907850  0.82142450  1
  Zn  Zn9_6  1  0.75000000  0.55907850  0.32142450  1
  Zn  Zn9_7  1  0.75000000  0.55907850  0.82142450  1
  B  B0_0  1  0.25000000  0.37500000  0.42436250  1
  B  B0_1  1  0.25000000  0.37500000  0.92436250  1
  B  B0_2  1  0.25000000  0.87500000  0.42436250  1
  B  B0_3  1  0.25000000  0.87500000  0.92436250  1
  B  B0_4  1  0.75000000  0.37500000  0.42436250  1
  B  B0_5  1  0.75000000  0.37500000  0.92436250  1
  B  B0_6  1  0.75000000  0.87500000  0.42436250  1
  B  B0_7  1  0.75000000  0.87500000  0.92436250  1
  B  B1_0  1  0.25000000  0.12500000  0.07563750  1
  B  B1_1  1  0.25000000  0.12500000  0.57563750  1
  B  B1_2  1  0.25000000  0.62500000  0.07563750  1
  B  B1_3  1  0.25000000  0.62500000  0.57563750  1
  B  B1_4  1  0.75000000  0.12500000  0.07563750  1
  B  B1_5  1  0.75000000  0.12500000  0.57563750  1
  B  B1_6  1  0.75000000  0.62500000  0.07563750  1
  B  B1_7  1  0.75000000  0.62500000  0.57563750  1
  B  B2_0  1  0.25000000  0.43797500  0.29549550  1
  B  B2_1  1  0.25000000  0.43797500  0.79549550  1
  B  B2_2  1  0.25000000  0.93797500  0.29549550  1
  B  B2_3  1  0.25000000  0.93797500  0.79549550  1
  B  B2_4  1  0.75000000  0.43797500  0.29549550  1
  B  B2_5  1  0.75000000  0.43797500  0.79549550  1
  B  B2_6  1  0.75000000  0.93797500  0.29549550  1
  B  B2_7  1  0.75000000  0.93797500  0.79549550  1
  B  B3_0  1  0.25000000  0.06202500  0.20450450  1
  B  B3_1  1  0.25000000  0.06202500  0.70450450  1
  B  B3_2  1  0.25000000  0.56202500  0.20450450  1
  B  B3_3  1  0.25000000  0.56202500  0.70450450  1
  B  B3_4  1  0.75000000  0.06202500  0.20450450  1
  B  B3_5  1  0.75000000  0.06202500  0.70450450  1
  B  B3_6  1  0.75000000  0.56202500  0.20450450  1
  B  B3_7  1  0.75000000  0.56202500  0.70450450  1
  B  B4_0  1  0.25000000  0.18797500  0.20450450  1
  B  B4_1  1  0.25000000  0.18797500  0.70450450  1
  B  B4_2  1  0.25000000  0.68797500  0.20450450  1
  B  B4_3  1  0.25000000  0.68797500  0.70450450  1
  B  B4_4  1  0.75000000  0.18797500  0.20450450  1
  B  B4_5  1  0.75000000  0.18797500  0.70450450  1
  B  B4_6  1  0.75000000  0.68797500  0.20450450  1
  B  B4_7  1  0.75000000  0.68797500  0.70450450  1
  B  B5_0  1  0.25000000  0.31202500  0.29549550  1
  B  B5_1  1  0.25000000  0.31202500  0.79549550  1
  B  B5_2  1  0.25000000  0.81202500  0.29549550  1
  B  B5_3  1  0.25000000  0.81202500  0.79549550  1
  B  B5_4  1  0.75000000  0.31202500  0.29549550  1
  B  B5_5  1  0.75000000  0.31202500  0.79549550  1
  B  B5_6  1  0.75000000  0.81202500  0.29549550  1
  B  B5_7  1  0.75000000  0.81202500  0.79549550  1
  Ir  Ir0_0  1  0.00000000  0.00000000  0.25000000  1
  Ir  Ir0_1  1  0.00000000  0.00000000  0.75000000  1
  Ir  Ir0_2  1  0.00000000  0.50000000  0.25000000  1
  Ir  Ir0_3  1  0.00000000  0.50000000  0.75000000  1
  Ir  Ir0_4  1  0.50000000  0.00000000  0.25000000  1
  Ir  Ir0_5  1  0.50000000  0.00000000  0.75000000  1
  Ir  Ir0_6  1  0.50000000  0.50000000  0.25000000  1
  Ir  Ir0_7  1  0.50000000  0.50000000  0.75000000  1
  Ir  Ir1_0  1  0.00000000  0.25000000  0.25000000  1
  Ir  Ir1_1  1  0.00000000  0.25000000  0.75000000  1
  Ir  Ir1_2  1  0.00000000  0.75000000  0.25000000  1
  Ir  Ir1_3  1  0.00000000  0.75000000  0.75000000  1
  Ir  Ir1_4  1  0.50000000  0.25000000  0.25000000  1
  Ir  Ir1_5  1  0.50000000  0.25000000  0.75000000  1
  Ir  Ir1_6  1  0.50000000  0.75000000  0.25000000  1
  Ir  Ir1_7  1  0.50000000  0.75000000  0.75000000  1
  Ir  Ir2_0  1  0.00000000  0.37500000  0.11549250  1
  Ir  Ir2_1  1  0.00000000  0.37500000  0.61549250  1
  Ir  Ir2_2  1  0.00000000  0.87500000  0.11549250  1
  Ir  Ir2_3  1  0.00000000  0.87500000  0.61549250  1
  Ir  Ir2_4  1  0.50000000  0.37500000  0.11549250  1
  Ir  Ir2_5  1  0.50000000  0.37500000  0.61549250  1
  Ir  Ir2_6  1  0.50000000  0.87500000  0.11549250  1
  Ir  Ir2_7  1  0.50000000  0.87500000  0.61549250  1
  Ir  Ir3_0  1  0.00000000  0.12500000  0.38450750  1
  Ir  Ir3_1  1  0.00000000  0.12500000  0.88450750  1
  Ir  Ir3_2  1  0.00000000  0.62500000  0.38450750  1
  Ir  Ir3_3  1  0.00000000  0.62500000  0.88450750  1
  Ir  Ir3_4  1  0.50000000  0.12500000  0.38450750  1
  Ir  Ir3_5  1  0.50000000  0.12500000  0.88450750  1
  Ir  Ir3_6  1  0.50000000  0.62500000  0.38450750  1
  Ir  Ir3_7  1  0.50000000  0.62500000  0.88450750  1
  Ir  Ir4_0  1  0.00000000  0.37500000  0.25724900  1
  Ir  Ir4_1  1  0.00000000  0.37500000  0.75724900  1
  Ir  Ir4_2  1  0.00000000  0.87500000  0.25724900  1
  Ir  Ir4_3  1  0.00000000  0.87500000  0.75724900  1
  Ir  Ir4_4  1  0.50000000  0.37500000  0.25724900  1
  Ir  Ir4_5  1  0.50000000  0.37500000  0.75724900  1
  Ir  Ir4_6  1  0.50000000  0.87500000  0.25724900  1
  Ir  Ir4_7  1  0.50000000  0.87500000  0.75724900  1
  Ir  Ir5_0  1  0.00000000  0.12500000  0.24275100  1
  Ir  Ir5_1  1  0.00000000  0.12500000  0.74275100  1
  Ir  Ir5_2  1  0.00000000  0.62500000  0.24275100  1
  Ir  Ir5_3  1  0.00000000  0.62500000  0.74275100  1
  Ir  Ir5_4  1  0.50000000  0.12500000  0.24275100  1
  Ir  Ir5_5  1  0.50000000  0.12500000  0.74275100  1
  Ir  Ir5_6  1  0.50000000  0.62500000  0.24275100  1
  Ir  Ir5_7  1  0.50000000  0.62500000  0.74275100  1
  Ir  Ir6_0  1  0.00000000  0.43940450  0.46744300  1
  Ir  Ir6_1  1  0.00000000  0.43940450  0.96744300  1
  Ir  Ir6_2  1  0.00000000  0.93940450  0.46744300  1
  Ir  Ir6_3  1  0.00000000  0.93940450  0.96744300  1
  Ir  Ir6_4  1  0.50000000  0.43940450  0.46744300  1
  Ir  Ir6_5  1  0.50000000  0.43940450  0.96744300  1
  Ir  Ir6_6  1  0.50000000  0.93940450  0.46744300  1
  Ir  Ir6_7  1  0.50000000  0.93940450  0.96744300  1
  Ir  Ir7_0  1  0.00000000  0.06059550  0.03255700  1
  Ir  Ir7_1  1  0.00000000  0.06059550  0.53255700  1
  Ir  Ir7_2  1  0.00000000  0.56059550  0.03255700  1
  Ir  Ir7_3  1  0.00000000  0.56059550  0.53255700  1
  Ir  Ir7_4  1  0.50000000  0.06059550  0.03255700  1
  Ir  Ir7_5  1  0.50000000  0.06059550  0.53255700  1
  Ir  Ir7_6  1  0.50000000  0.56059550  0.03255700  1
  Ir  Ir7_7  1  0.50000000  0.56059550  0.53255700  1
  Ir  Ir8_0  1  0.00000000  0.18940450  0.03255700  1
  Ir  Ir8_1  1  0.00000000  0.18940450  0.53255700  1
  Ir  Ir8_2  1  0.00000000  0.68940450  0.03255700  1
  Ir  Ir8_3  1  0.00000000  0.68940450  0.53255700  1
  Ir  Ir8_4  1  0.50000000  0.18940450  0.03255700  1
  Ir  Ir8_5  1  0.50000000  0.18940450  0.53255700  1
  Ir  Ir8_6  1  0.50000000  0.68940450  0.03255700  1
  Ir  Ir8_7  1  0.50000000  0.68940450  0.53255700  1
  Ir  Ir9_0  1  0.00000000  0.31059550  0.46744300  1
  Ir  Ir9_1  1  0.00000000  0.31059550  0.96744300  1
  Ir  Ir9_2  1  0.00000000  0.81059550  0.46744300  1
  Ir  Ir9_3  1  0.00000000  0.81059550  0.96744300  1
  Ir  Ir9_4  1  0.50000000  0.31059550  0.46744300  1
  Ir  Ir9_5  1  0.50000000  0.31059550  0.96744300  1
  Ir  Ir9_6  1  0.50000000  0.81059550  0.46744300  1
  Ir  Ir9_7  1  0.50000000  0.81059550  0.96744300  1
  Ir  Ir10_0  1  0.00000000  0.44442800  0.35876900  1
  Ir  Ir10_1  1  0.00000000  0.44442800  0.85876900  1
  Ir  Ir10_2  1  0.00000000  0.94442800  0.35876900  1
  Ir  Ir10_3  1  0.00000000  0.94442800  0.85876900  1
  Ir  Ir10_4  1  0.50000000  0.44442800  0.35876900  1
  Ir  Ir10_5  1  0.50000000  0.44442800  0.85876900  1
  Ir  Ir10_6  1  0.50000000  0.94442800  0.35876900  1
  Ir  Ir10_7  1  0.50000000  0.94442800  0.85876900  1
  Ir  Ir11_0  1  0.00000000  0.05557200  0.14123100  1
  Ir  Ir11_1  1  0.00000000  0.05557200  0.64123100  1
  Ir  Ir11_2  1  0.00000000  0.55557200  0.14123100  1
  Ir  Ir11_3  1  0.00000000  0.55557200  0.64123100  1
  Ir  Ir11_4  1  0.50000000  0.05557200  0.14123100  1
  Ir  Ir11_5  1  0.50000000  0.05557200  0.64123100  1
  Ir  Ir11_6  1  0.50000000  0.55557200  0.14123100  1
  Ir  Ir11_7  1  0.50000000  0.55557200  0.64123100  1
  Ir  Ir12_0  1  0.00000000  0.19442800  0.14123100  1
  Ir  Ir12_1  1  0.00000000  0.19442800  0.64123100  1
  Ir  Ir12_2  1  0.00000000  0.69442800  0.14123100  1
  Ir  Ir12_3  1  0.00000000  0.69442800  0.64123100  1
  Ir  Ir12_4  1  0.50000000  0.19442800  0.14123100  1
  Ir  Ir12_5  1  0.50000000  0.19442800  0.64123100  1
  Ir  Ir12_6  1  0.50000000  0.69442800  0.14123100  1
  Ir  Ir12_7  1  0.50000000  0.69442800  0.64123100  1
  Ir  Ir13_0  1  0.00000000  0.30557200  0.35876900  1
  Ir  Ir13_1  1  0.00000000  0.30557200  0.85876900  1
  Ir  Ir13_2  1  0.00000000  0.80557200  0.35876900  1
  Ir  Ir13_3  1  0.00000000  0.80557200  0.85876900  1
  Ir  Ir13_4  1  0.50000000  0.30557200  0.35876900  1
  Ir  Ir13_5  1  0.50000000  0.30557200  0.85876900  1
  Ir  Ir13_6  1  0.50000000  0.80557200  0.35876900  1
  Ir  Ir13_7  1  0.50000000  0.80557200  0.85876900  1
loop_
_geom_bond_atom_site_label_1
_geom_bond_atom_site_label_2
_geom_bond_distance
_geom_bond_site_symmetry_2
Zn0_0 Zn4_0 2.467263 1_555
Zn0_0 Zn3_0 2.467263 1_555
Zn0_1 Zn4_1 2.467263 1_555
Zn0_1 Zn3_1 2.467263 1_555
Zn0_2 Zn4_2 2.467263 1_555
Zn0_2 Zn3_2 2.467263 1_555
Zn0_3 Zn4_3 2.467263 1_555
Zn0_3 Zn3_3 2.467263 1_555
Zn0_4 Zn4_4 2.467263 1_555
Zn0_4 Zn3_4 2.467263 1_555
Zn0_5 Zn4_5 2.467263 1_555
Zn0_5 Zn3_5 2.467263 1_555
Zn0_6 Zn4_6 2.467263 1_555
Zn0_6 Zn3_6 2.467263 1_555
Zn0_7 Zn4_7 2.467263 1_555
Zn0_7 Zn3_7 2.467263 1_555
Zn1_0 Zn2_0 2.467263 1_555
Zn1_0 Zn5_0 2.467263 1_555
Zn1_1 Zn2_1 2.467263 1_555
Zn1_1 Zn5_1 2.467263 1_555
Zn1_2 Zn2_2 2.467263 1_555
Zn1_2 Zn5_2 2.467263 1_555
Zn1_3 Zn2_3 2.467263 1_555
Zn1_3 Zn5_3 2.467263 1_555
Zn1_4 Zn2_4 2.467263 1_555
Zn1_4 Zn5_4 2.467263 1_555
Zn1_5 Zn2_5 2.467263 1_555
Zn1_5 Zn5_5 2.467263 1_555
Zn1_6 Zn2_6 2.467263 1_555
Zn1_6 Zn5_6 2.467263 1_555
Zn1_7 Zn2_7 2.467263 1_555
Zn1_7 Zn5_7 2.467263 1_555
Zn2_0 Zn6_0 2.638171 1_555
Zn2_0 Zn2_4 2.863658 1_555
Zn2_0 Zn2_4 2.863658 1_455
Zn2_1 Zn6_1 2.638171 1_555
Zn2_1 Zn2_5 2.863658 1_555
Zn2_1 Zn2_5 2.863658 1_455
Zn2_2 Zn6_2 2.638171 1_555
Zn2_2 Zn2_6 2.863658 1_555
Zn2_2 Zn2_6 2.863658 1_455
Zn2_3 Zn6_3 2.638171 1_555
Zn2_3 Zn2_7 2.863658 1_555
Zn2_3 Zn2_7 2.863658 1_455
Zn2_4 Zn6_4 2.638171 1_555
Zn2_5 Zn6_5 2.638171 1_555
Zn2_6 Zn6_6 2.638171 1_555
Zn2_7 Zn6_7 2.638171 1_555
Zn3_0 Zn7_0 2.638171 1_555
Zn3_0 Zn3_4 2.863658 1_555
Zn3_0 Zn3_4 2.863658 1_455
Zn3_1 Zn7_1 2.638171 1_555
Zn3_1 Zn3_5 2.863658 1_555
Zn3_1 Zn3_5 2.863658 1_455
Zn3_2 Zn7_2 2.638171 1_555
Zn3_2 Zn3_6 2.863658 1_555
Zn3_2 Zn3_6 2.863658 1_455
Zn3_3 Zn7_3 2.638171 1_555
Zn3_3 Zn3_7 2.863658 1_555
Zn3_3 Zn3_7 2.863658 1_455
Zn3_4 Zn7_4 2.638171 1_555
Zn3_5 Zn7_5 2.638171 1_555
Zn3_6 Zn7_6 2.638171 1_555
Zn3_7 Zn7_7 2.638171 1_555
Zn4_0 Zn8_0 2.638171 1_555
Zn4_0 Zn4_4 2.863658 1_555
Zn4_0 Zn4_4 2.863658 1_455
Zn4_1 Zn8_1 2.638171 1_555
Zn4_1 Zn4_5 2.863658 1_555
Zn4_1 Zn4_5 2.863658 1_455
Zn4_2 Zn8_2 2.638171 1_555
Zn4_2 Zn4_6 2.863658 1_555
Zn4_2 Zn4_6 2.863658 1_455
Zn4_3 Zn8_3 2.638171 1_555
Zn4_3 Zn4_7 2.863658 1_555
Zn4_3 Zn4_7 2.863658 1_455
Zn4_4 Zn8_4 2.638171 1_555
Zn4_5 Zn8_5 2.638171 1_555
Zn4_6 Zn8_6 2.638171 1_555
Zn4_7 Zn8_7 2.638171 1_555
Zn5_0 Zn9_0 2.638171 1_555
Zn5_0 Zn5_4 2.863658 1_555
Zn5_0 Zn5_4 2.863658 1_455
Zn5_1 Zn9_1 2.638171 1_555
Zn5_1 Zn5_5 2.863658 1_555
Zn5_1 Zn5_5 2.863658 1_455
Zn5_2 Zn9_2 2.638171 1_555
Zn5_2 Zn5_6 2.863658 1_555
Zn5_2 Zn5_6 2.863658 1_455
Zn5_3 Zn9_3 2.638171 1_555
Zn5_3 Zn5_7 2.863658 1_555
Zn5_3 Zn5_7 2.863658 1_455
Zn5_4 Zn9_4 2.638171 1_555
Zn5_5 Zn9_5 2.638171 1_555
Zn5_6 Zn9_6 2.638171 1_555
Zn5_7 Zn9_7 2.638171 1_555
B0_0 Ir6_0 2.278315 1_555
B0_0 Ir6_4 2.278315 1_555
B0_0 Ir9_0 2.278315 1_555
B0_0 Ir9_4 2.278315 1_555
B0_0 Ir10_4 2.651117 1_555
B0_0 Ir10_0 2.651117 1_555
B0_0 Ir13_0 2.651117 1_555
B0_0 Ir13_4 2.651117 1_555
B0_0 Zn0_1 2.666226 1_555
B0_1 Ir6_5 2.278315 1_555
B0_1 Ir6_1 2.278315 1_555
B0_1 Ir9_5 2.278315 1_555
B0_1 Ir9_1 2.278315 1_555
B0_1 Ir10_1 2.651117 1_555
B0_1 Ir10_5 2.651117 1_555
B0_1 Ir13_1 2.651117 1_555
B0_1 Ir13_5 2.651117 1_555
B0_1 Zn0_0 2.666226 1_556
B0_2 Ir6_2 2.278315 1_555
B0_2 Ir6_6 2.278315 1_555
B0_2 Ir9_6 2.278315 1_555
B0_2 Ir9_2 2.278315 1_555
B0_2 Ir10_2 2.651117 1_555
B0_2 Ir10_6 2.651117 1_555
B0_2 Ir13_2 2.651117 1_555
B0_2 Ir13_6 2.651117 1_555
B0_2 Zn0_3 2.666226 1_555
B0_3 Ir6_3 2.278315 1_555
B0_3 Ir6_7 2.278315 1_555
B0_3 Ir9_3 2.278315 1_555
B0_3 Ir9_7 2.278315 1_555
B0_3 Ir10_3 2.651117 1_555
B0_3 Ir10_7 2.651117 1_555
B0_3 Ir13_3 2.651117 1_555
B0_3 Ir13_7 2.651117 1_555
B0_3 Zn0_2 2.666226 1_556
B0_4 Ir6_4 2.278315 1_555
B0_4 Ir6_0 2.278315 1_655
B0_4 Ir9_4 2.278315 1_555
B0_4 Ir9_0 2.278315 1_655
B0_4 Ir10_4 2.651117 1_555
B0_4 Ir13_4 2.651117 1_555
B0_4 Ir10_0 2.651117 1_655
B0_4 Ir13_0 2.651117 1_655
B0_4 Zn0_5 2.666226 1_555
B0_5 Ir6_5 2.278315 1_555
B0_5 Ir6_1 2.278315 1_655
B0_5 Ir9_5 2.278315 1_555
B0_5 Ir9_1 2.278315 1_655
B0_5 Ir10_5 2.651117 1_555
B0_5 Ir13_5 2.651117 1_555
B0_5 Ir10_1 2.651117 1_655
B0_5 Ir13_1 2.651117 1_655
B0_5 Zn0_4 2.666226 1_556
B0_6 Ir6_6 2.278315 1_555
B0_6 Ir6_2 2.278315 1_655
B0_6 Ir9_6 2.278315 1_555
B0_6 Ir9_2 2.278315 1_655
B0_6 Ir10_6 2.651117 1_555
B0_6 Ir10_2 2.651117 1_655
B0_6 Ir13_6 2.651117 1_555
B0_6 Ir13_2 2.651117 1_655
B0_6 Zn0_7 2.666226 1_555
B0_7 Ir6_7 2.278315 1_555
B0_7 Ir6_3 2.278315 1_655
B0_7 Ir9_7 2.278315 1_555
B0_7 Ir9_3 2.278315 1_655
B0_7 Ir10_7 2.651117 1_555
B0_7 Ir10_3 2.651117 1_655
B0_7 Ir13_7 2.651117 1_555
B0_7 Ir13_3 2.651117 1_655
B0_7 Zn0_6 2.666226 1_556
B1_0 Ir7_0 2.278315 1_555
B1_0 Ir7_4 2.278315 1_555
B1_0 Ir8_4 2.278315 1_555
B1_0 Ir8_0 2.278315 1_555
B1_0 Ir12_4 2.651117 1_555
B1_0 Ir12_0 2.651117 1_555
B1_0 Ir11_0 2.651117 1_555
B1_0 Ir11_4 2.651117 1_555
B1_0 Zn1_1 2.666226 1_554
B1_1 Ir7_5 2.278315 1_555
B1_1 Ir8_1 2.278315 1_555
B1_1 Ir8_5 2.278315 1_555
B1_1 Ir7_1 2.278315 1_555
B1_1 Ir12_1 2.651117 1_555
B1_1 Ir12_5 2.651117 1_555
B1_1 Ir11_1 2.651117 1_555
B1_1 Ir11_5 2.651117 1_555
B1_1 Zn1_0 2.666226 1_555
B1_2 Ir8_6 2.278315 1_555
B1_2 Ir7_2 2.278315 1_555
B1_2 Ir7_6 2.278315 1_555
B1_2 Ir8_2 2.278315 1_555
B1_2 Ir12_2 2.651117 1_555
B1_2 Ir12_6 2.651117 1_555
B1_2 Ir11_2 2.651117 1_555
B1_2 Ir11_6 2.651117 1_555
B1_2 Zn1_3 2.666226 1_554
B1_3 Ir7_7 2.278315 1_555
B1_3 Ir8_3 2.278315 1_555
B1_3 Ir8_7 2.278315 1_555
B1_3 Ir7_3 2.278315 1_555
B1_3 Ir12_7 2.651117 1_555
B1_3 Ir12_3 2.651117 1_555
B1_3 Ir11_3 2.651117 1_555
B1_3 Ir11_7 2.651117 1_555
B1_3 Zn1_2 2.666226 1_555
B1_4 Ir8_4 2.278315 1_555
B1_4 Ir7_4 2.278315 1_555
B1_4 Ir8_0 2.278315 1_655
B1_4 Ir7_0 2.278315 1_655
B1_4 Ir12_4 2.651117 1_555
B1_4 Ir12_0 2.651117 1_655
B1_4 Ir11_4 2.651117 1_555
B1_4 Ir11_0 2.651117 1_655
B1_4 Zn1_5 2.666226 1_554
B1_5 Ir7_5 2.278315 1_555
B1_5 Ir8_5 2.278315 1_555
B1_5 Ir8_1 2.278315 1_655
B1_5 Ir7_1 2.278315 1_655
B1_5 Ir12_5 2.651117 1_555
B1_5 Ir12_1 2.651117 1_655
B1_5 Ir11_5 2.651117 1_555
B1_5 Ir11_1 2.651117 1_655
B1_5 Zn1_4 2.666226 1_555
B1_6 Ir7_6 2.278315 1_555
B1_6 Ir8_6 2.278315 1_555
B1_6 Ir7_2 2.278315 1_655
B1_6 Ir8_2 2.278315 1_655
B1_6 Ir12_6 2.651117 1_555
B1_6 Ir12_2 2.651117 1_655
B1_6 Ir11_6 2.651117 1_555
B1_6 Ir11_2 2.651117 1_655
B1_6 Zn1_7 2.666226 1_554
B1_7 Ir7_7 2.278315 1_555
B1_7 Ir8_7 2.278315 1_555
B1_7 Ir8_3 2.278315 1_655
B1_7 Ir7_3 2.278315 1_655
B1_7 Ir12_7 2.651117 1_555
B1_7 Ir12_3 2.651117 1_655
B1_7 Ir11_7 2.651117 1_555
B1_7 Ir11_3 2.651117 1_655
B1_7 Zn1_6 2.666226 1_555
B2_0 Ir10_0 2.132869 1_555
B2_0 Ir10_4 2.132869 1_555
B2_0 Ir4_0 2.204512 1_555
B2_0 Ir4_4 2.204512 1_555
B2_0 Ir0_2 2.275686 1_555
B2_0 Ir0_6 2.275686 1_555
B2_1 Ir10_1 2.132869 1_555
B2_1 Ir10_5 2.132869 1_555
B2_1 Ir4_1 2.204512 1_555
B2_1 Ir4_5 2.204512 1_555
B2_1 Ir0_7 2.275686 1_555
B2_1 Ir0_3 2.275686 1_555
B2_2 Ir10_6 2.132869 1_555
B2_2 Ir10_2 2.132869 1_555
B2_2 Ir4_6 2.204512 1_555
B2_2 Ir4_2 2.204512 1_555
B2_2 Ir0_4 2.275686 1_565
B2_2 Ir0_0 2.275686 1_565
B2_3 Ir10_7 2.132869 1_555
B2_3 Ir10_3 2.132869 1_555
B2_3 Ir4_3 2.204512 1_555
B2_3 Ir4_7 2.204512 1_555
B2_3 Ir0_1 2.275686 1_565
B2_3 Ir0_5 2.275686 1_565
B2_4 Ir10_4 2.132869 1_555
B2_4 Ir10_0 2.132869 1_655
B2_4 Ir4_4 2.204512 1_555
B2_4 Ir4_0 2.204512 1_655
B2_4 Ir0_6 2.275686 1_555
B2_4 Ir0_2 2.275686 1_655
B2_5 Ir10_5 2.132869 1_555
B2_5 Ir10_1 2.132869 1_655
B2_5 Ir4_5 2.204512 1_555
B2_5 Ir4_1 2.204512 1_655
B2_5 Ir0_7 2.275686 1_555
B2_5 Ir0_3 2.275686 1_655
B2_6 Ir10_6 2.132869 1_555
B2_6 Ir10_2 2.132869 1_655
B2_6 Ir4_6 2.204512 1_555
B2_6 Ir4_2 2.204512 1_655
B2_6 Ir0_4 2.275686 1_565
B2_6 Ir0_0 2.275686 1_665
B2_7 Ir10_7 2.132869 1_555
B2_7 Ir10_3 2.132869 1_655
B2_7 Ir4_7 2.204512 1_555
B2_7 Ir4_3 2.204512 1_655
B2_7 Ir0_5 2.275686 1_565
B2_7 Ir0_1 2.275686 1_665
B3_0 Ir11_0 2.132869 1_555
B3_0 Ir11_4 2.132869 1_555
B3_0 Ir5_0 2.204512 1_555
B3_0 Ir5_4 2.204512 1_555
B3_0 Ir0_0 2.275686 1_555
B3_0 Ir0_4 2.275686 1_555
B3_1 Ir11_1 2.132869 1_555
B3_1 Ir11_5 2.132869 1_555
B3_1 Ir5_1 2.204512 1_555
B3_1 Ir5_5 2.204512 1_555
B3_1 Ir0_1 2.275686 1_555
B3_1 Ir0_5 2.275686 1_555
B3_2 Ir11_2 2.132869 1_555
B3_2 Ir11_6 2.132869 1_555
B3_2 Ir5_2 2.204512 1_555
B3_2 Ir5_6 2.204512 1_555
B3_2 Ir0_2 2.275686 1_555
B3_2 Ir0_6 2.275686 1_555
B3_3 Ir11_3 2.132869 1_555
B3_3 Ir11_7 2.132869 1_555
B3_3 Ir5_7 2.204512 1_555
B3_3 Ir5_3 2.204512 1_555
B3_3 Ir0_3 2.275686 1_555
B3_3 Ir0_7 2.275686 1_555
B3_4 Ir11_4 2.132869 1_555
B3_4 Ir11_0 2.132869 1_655
B3_4 Ir5_4 2.204512 1_555
B3_4 Ir5_0 2.204512 1_655
B3_4 Ir0_4 2.275686 1_555
B3_4 Ir0_0 2.275686 1_655
B3_5 Ir11_5 2.132869 1_555
B3_5 Ir11_1 2.132869 1_655
B3_5 Ir5_5 2.204512 1_555
B3_5 Ir5_1 2.204512 1_655
B3_5 Ir0_5 2.275686 1_555
B3_5 Ir0_1 2.275686 1_655
B3_6 Ir11_6 2.132869 1_555
B3_6 Ir11_2 2.132869 1_655
B3_6 Ir5_6 2.204512 1_555
B3_6 Ir5_2 2.204512 1_655
B3_6 Ir0_6 2.275686 1_555
B3_6 Ir0_2 2.275686 1_655
B3_7 Ir11_7 2.132869 1_555
B3_7 Ir11_3 2.132869 1_655
B3_7 Ir5_7 2.204512 1_555
B3_7 Ir5_3 2.204512 1_655
B3_7 Ir0_7 2.275686 1_555
B3_7 Ir0_3 2.275686 1_655
B4_0 Ir12_0 2.132869 1_555
B4_0 Ir12_4 2.132869 1_555
B4_0 Ir5_0 2.204512 1_555
B4_0 Ir5_4 2.204512 1_555
B4_0 Ir1_4 2.275686 1_555
B4_0 Ir1_0 2.275686 1_555
B4_1 Ir12_5 2.132869 1_555
B4_1 Ir12_1 2.132869 1_555
B4_1 Ir5_5 2.204512 1_555
B4_1 Ir5_1 2.204512 1_555
B4_1 Ir1_5 2.275686 1_555
B4_1 Ir1_1 2.275686 1_555
B4_2 Ir12_2 2.132869 1_555
B4_2 Ir12_6 2.132869 1_555
B4_2 Ir5_2 2.204512 1_555
B4_2 Ir5_6 2.204512 1_555
B4_2 Ir1_2 2.275686 1_555
B4_2 Ir1_6 2.275686 1_555
B4_3 Ir12_7 2.132869 1_555
B4_3 Ir12_3 2.132869 1_555
B4_3 Ir5_7 2.204512 1_555
B4_3 Ir5_3 2.204512 1_555
B4_3 Ir1_7 2.275686 1_555
B4_3 Ir1_3 2.275686 1_555
B4_4 Ir12_4 2.132869 1_555
B4_4 Ir12_0 2.132869 1_655
B4_4 Ir5_4 2.204512 1_555
B4_4 Ir5_0 2.204512 1_655
B4_4 Ir1_4 2.275686 1_555
B4_4 Ir1_0 2.275686 1_655
B4_5 Ir12_5 2.132869 1_555
B4_5 Ir12_1 2.132869 1_655
B4_5 Ir5_5 2.204512 1_555
B4_5 Ir5_1 2.204512 1_655
B4_5 Ir1_5 2.275686 1_555
B4_5 Ir1_1 2.275686 1_655
B4_6 Ir12_6 2.132869 1_555
B4_6 Ir12_2 2.132869 1_655
B4_6 Ir5_6 2.204512 1_555
B4_6 Ir5_2 2.204512 1_655
B4_6 Ir1_6 2.275686 1_555
B4_6 Ir1_2 2.275686 1_655
B4_7 Ir12_7 2.132869 1_555
B4_7 Ir12_3 2.132869 1_655
B4_7 Ir5_7 2.204512 1_555
B4_7 Ir5_3 2.204512 1_655
B4_7 Ir1_7 2.275686 1_555
B4_7 Ir1_3 2.275686 1_655
B5_0 Ir13_4 2.132869 1_555
B5_0 Ir13_0 2.132869 1_555
B5_0 Ir4_0 2.204512 1_555
B5_0 Ir4_4 2.204512 1_555
B5_0 Ir1_0 2.275686 1_555
B5_0 Ir1_4 2.275686 1_555
B5_1 Ir13_1 2.132869 1_555
B5_1 Ir13_5 2.132869 1_555
B5_1 Ir4_1 2.204512 1_555
B5_1 Ir4_5 2.204512 1_555
B5_1 Ir1_1 2.275686 1_555
B5_1 Ir1_5 2.275686 1_555
B5_2 Ir13_2 2.132869 1_555
B5_2 Ir13_6 2.132869 1_555
B5_2 Ir4_6 2.204512 1_555
B5_2 Ir4_2 2.204512 1_555
B5_2 Ir1_2 2.275686 1_555
B5_2 Ir1_6 2.275686 1_555
B5_3 Ir13_7 2.132869 1_555
B5_3 Ir13_3 2.132869 1_555
B5_3 Ir4_3 2.204512 1_555
B5_3 Ir4_7 2.204512 1_555
B5_3 Ir1_7 2.275686 1_555
B5_3 Ir1_3 2.275686 1_555
B5_4 Ir13_4 2.132869 1_555
B5_4 Ir13_0 2.132869 1_655
B5_4 Ir4_4 2.204512 1_555
B5_4 Ir4_0 2.204512 1_655
B5_4 Ir1_4 2.275686 1_555
B5_4 Ir1_0 2.275686 1_655
B5_5 Ir13_5 2.132869 1_555
B5_5 Ir13_1 2.132869 1_655
B5_5 Ir4_5 2.204512 1_555
B5_5 Ir4_1 2.204512 1_655
B5_5 Ir1_5 2.275686 1_555
B5_5 Ir1_1 2.275686 1_655
B5_6 Ir13_6 2.132869 1_555
B5_6 Ir13_2 2.132869 1_655
B5_6 Ir4_6 2.204512 1_555
B5_6 Ir4_2 2.204512 1_655
B5_6 Ir1_6 2.275686 1_555
B5_6 Ir1_2 2.275686 1_655
B5_7 Ir13_7 2.132869 1_555
B5_7 Ir13_3 2.132869 1_655
B5_7 Ir4_7 2.204512 1_555
B5_7 Ir4_3 2.204512 1_655
B5_7 Ir1_7 2.275686 1_555
B5_7 Ir1_3 2.275686 1_655
Ir0_0 Zn9_4 2.623857 1_455
Ir0_0 Zn9_0 2.623857 1_555
Ir0_0 Zn8_2 2.623857 1_545
Ir0_0 Zn8_6 2.623857 1_445
Ir0_1 Zn9_1 2.623857 1_555
Ir0_1 Zn9_5 2.623857 1_455
Ir0_1 Zn8_3 2.623857 1_545
Ir0_1 Zn8_7 2.623857 1_445
Ir0_2 Zn9_2 2.623857 1_555
Ir0_2 Zn9_6 2.623857 1_455
Ir0_2 Zn8_0 2.623857 1_555
Ir0_2 Zn8_4 2.623857 1_455
Ir0_3 Zn9_3 2.623857 1_555
Ir0_3 Zn9_7 2.623857 1_455
Ir0_3 Zn8_1 2.623857 1_555
Ir0_3 Zn8_5 2.623857 1_455
Ir0_4 Zn9_4 2.623857 1_555
Ir0_4 Zn9_0 2.623857 1_555
Ir0_4 Zn8_6 2.623857 1_545
Ir0_4 Zn8_2 2.623857 1_545
Ir0_5 Zn9_5 2.623857 1_555
Ir0_5 Zn9_1 2.623857 1_555
Ir0_5 Zn8_7 2.623857 1_545
Ir0_5 Zn8_3 2.623857 1_545
Ir0_6 Zn9_6 2.623857 1_555
Ir0_6 Zn9_2 2.623857 1_555
Ir0_6 Zn8_4 2.623857 1_555
Ir0_6 Zn8_0 2.623857 1_555
Ir0_7 Zn9_7 2.623857 1_555
Ir0_7 Zn9_3 2.623857 1_555
Ir0_7 Zn8_5 2.623857 1_555
Ir0_7 Zn8_1 2.623857 1_555
Ir1_0 Zn7_0 2.623857 1_555
Ir1_0 Zn6_0 2.623857 1_555
Ir1_0 Zn7_4 2.623857 1_455
Ir1_0 Zn6_4 2.623857 1_455
Ir1_1 Zn7_1 2.623857 1_555
Ir1_1 Zn7_5 2.623857 1_455
Ir1_1 Zn6_1 2.623857 1_555
Ir1_1 Zn6_5 2.623857 1_455
Ir1_2 Zn7_2 2.623857 1_555
Ir1_2 Zn7_6 2.623857 1_455
Ir1_2 Zn6_2 2.623857 1_555
Ir1_2 Zn6_6 2.623857 1_455
Ir1_3 Zn7_3 2.623857 1_555
Ir1_3 Zn7_7 2.623857 1_455
Ir1_3 Zn6_3 2.623857 1_555
Ir1_3 Zn6_7 2.623857 1_455
Ir1_4 Zn7_4 2.623857 1_555
Ir1_4 Zn6_4 2.623857 1_555
Ir1_4 Zn7_0 2.623857 1_555
Ir1_4 Zn6_0 2.623857 1_555
Ir1_5 Zn7_5 2.623857 1_555
Ir1_5 Zn6_5 2.623857 1_555
Ir1_5 Zn7_1 2.623857 1_555
Ir1_5 Zn6_1 2.623857 1_555
Ir1_6 Zn7_6 2.623857 1_555
Ir1_6 Zn7_2 2.623857 1_555
Ir1_6 Zn6_6 2.623857 1_555
Ir1_6 Zn6_2 2.623857 1_555
Ir1_7 Zn7_7 2.623857 1_555
Ir1_7 Zn7_3 2.623857 1_555
Ir1_7 Zn6_7 2.623857 1_555
Ir1_7 Zn6_3 2.623857 1_555
Ir2_0 Zn0_0 2.533272 1_555
Ir2_0 Zn0_4 2.533272 1_455
Ir2_0 Zn8_0 2.569151 1_555
Ir2_0 Zn8_4 2.569151 1_455
Ir2_0 Zn7_0 2.569151 1_555
Ir2_0 Zn7_4 2.569151 1_455
Ir2_0 Zn4_0 2.789657 1_555
Ir2_0 Zn4_4 2.789657 1_455
Ir2_0 Zn3_0 2.789657 1_555
Ir2_0 Zn3_4 2.789657 1_455
Ir2_1 Zn0_1 2.533272 1_555
Ir2_1 Zn0_5 2.533272 1_455
Ir2_1 Zn8_1 2.569151 1_555
Ir2_1 Zn8_5 2.569151 1_455
Ir2_1 Zn7_1 2.569151 1_555
Ir2_1 Zn7_5 2.569151 1_455
Ir2_1 Zn4_5 2.789657 1_455
Ir2_1 Zn4_1 2.789657 1_555
Ir2_1 Zn3_1 2.789657 1_555
Ir2_1 Zn3_5 2.789657 1_455
Ir2_2 Zn0_2 2.533272 1_555
Ir2_2 Zn0_6 2.533272 1_455
Ir2_2 Zn8_2 2.569151 1_555
Ir2_2 Zn8_6 2.569151 1_455
Ir2_2 Zn7_2 2.569151 1_555
Ir2_2 Zn7_6 2.569151 1_455
Ir2_2 Zn4_2 2.789657 1_555
Ir2_2 Zn4_6 2.789657 1_455
Ir2_2 Zn3_6 2.789657 1_455
Ir2_2 Zn3_2 2.789657 1_555
Ir2_3 Zn0_3 2.533272 1_555
Ir2_3 Zn0_7 2.533272 1_455
Ir2_3 Zn8_3 2.569151 1_555
Ir2_3 Zn8_7 2.569151 1_455
Ir2_3 Zn7_7 2.569151 1_455
Ir2_3 Zn7_3 2.569151 1_555
Ir2_3 Zn4_3 2.789657 1_555
Ir2_3 Zn4_7 2.789657 1_455
Ir2_3 Zn3_3 2.789657 1_555
Ir2_3 Zn3_7 2.789657 1_455
Ir2_4 Zn0_4 2.533272 1_555
Ir2_4 Zn0_0 2.533272 1_555
Ir2_4 Zn8_4 2.569151 1_555
Ir2_4 Zn8_0 2.569151 1_555
Ir2_4 Zn7_4 2.569151 1_555
Ir2_4 Zn7_0 2.569151 1_555
Ir2_4 Zn4_4 2.789657 1_555
Ir2_4 Zn4_0 2.789657 1_555
Ir2_4 Zn3_4 2.789657 1_555
Ir2_4 Zn3_0 2.789657 1_555
Ir2_5 Zn0_5 2.533272 1_555
Ir2_5 Zn0_1 2.533272 1_555
Ir2_5 Zn8_5 2.569151 1_555
Ir2_5 Zn8_1 2.569151 1_555
Ir2_5 Zn7_1 2.569151 1_555
Ir2_5 Zn7_5 2.569151 1_555
Ir2_5 Zn4_5 2.789657 1_555
Ir2_5 Zn4_1 2.789657 1_555
Ir2_5 Zn3_1 2.789657 1_555
Ir2_5 Zn3_5 2.789657 1_555
Ir2_6 Zn0_6 2.533272 1_555
Ir2_6 Zn0_2 2.533272 1_555
Ir2_6 Zn8_6 2.569151 1_555
Ir2_6 Zn8_2 2.569151 1_555
Ir2_6 Zn7_6 2.569151 1_555
Ir2_6 Zn7_2 2.569151 1_555
Ir2_6 Zn4_6 2.789657 1_555
Ir2_6 Zn4_2 2.789657 1_555
Ir2_6 Zn3_6 2.789657 1_555
Ir2_6 Zn3_2 2.789657 1_555
Ir2_7 Zn0_7 2.533272 1_555
Ir2_7 Zn0_3 2.533272 1_555
Ir2_7 Zn8_7 2.569151 1_555
Ir2_7 Zn8_3 2.569151 1_555
Ir2_7 Zn7_7 2.569151 1_555
Ir2_7 Zn7_3 2.569151 1_555
Ir2_7 Zn4_3 2.789657 1_555
Ir2_7 Zn4_7 2.789657 1_555
Ir2_7 Zn3_3 2.789657 1_555
Ir2_7 Zn3_7 2.789657 1_555
Ir3_0 Zn1_0 2.533272 1_555
Ir3_0 Zn1_4 2.533272 1_455
Ir3_0 Zn6_0 2.569151 1_555
Ir3_0 Zn9_0 2.569151 1_555
Ir3_0 Zn9_4 2.569151 1_455
Ir3_0 Zn6_4 2.569151 1_455
Ir3_0 Zn2_0 2.789657 1_555
Ir3_0 Zn2_4 2.789657 1_455
Ir3_0 Zn5_4 2.789657 1_455
Ir3_0 Zn5_0 2.789657 1_555
Ir3_1 Zn1_1 2.533272 1_555
Ir3_1 Zn1_5 2.533272 1_455
Ir3_1 Zn9_1 2.569151 1_555
Ir3_1 Zn6_1 2.569151 1_555
Ir3_1 Zn6_5 2.569151 1_455
Ir3_1 Zn9_5 2.569151 1_455
Ir3_1 Zn2_1 2.789657 1_555
Ir3_1 Zn2_5 2.789657 1_455
Ir3_1 Zn5_1 2.789657 1_555
Ir3_1 Zn5_5 2.789657 1_455
Ir3_2 Zn1_2 2.533272 1_555
Ir3_2 Zn1_6 2.533272 1_455
Ir3_2 Zn9_6 2.569151 1_455
Ir3_2 Zn6_6 2.569151 1_455
Ir3_2 Zn9_2 2.569151 1_555
Ir3_2 Zn6_2 2.569151 1_555
Ir3_2 Zn2_2 2.789657 1_555
Ir3_2 Zn2_6 2.789657 1_455
Ir3_2 Zn5_6 2.789657 1_455
Ir3_2 Zn5_2 2.789657 1_555
Ir3_3 Zn1_3 2.533272 1_555
Ir3_3 Zn1_7 2.533272 1_455
Ir3_3 Zn9_3 2.569151 1_555
Ir3_3 Zn6_3 2.569151 1_555
Ir3_3 Zn6_7 2.569151 1_455
Ir3_3 Zn9_7 2.569151 1_455
Ir3_3 Zn2_3 2.789657 1_555
Ir3_3 Zn2_7 2.789657 1_455
Ir3_3 Zn5_3 2.789657 1_555
Ir3_3 Zn5_7 2.789657 1_455
Ir3_4 Zn1_4 2.533272 1_555
Ir3_4 Zn1_0 2.533272 1_555
Ir3_4 Zn9_4 2.569151 1_555
Ir3_4 Zn6_0 2.569151 1_555
Ir3_4 Zn6_4 2.569151 1_555
Ir3_4 Zn9_0 2.569151 1_555
Ir3_4 Zn2_4 2.789657 1_555
Ir3_4 Zn2_0 2.789657 1_555
Ir3_4 Zn5_4 2.789657 1_555
Ir3_4 Zn5_0 2.789657 1_555
Ir3_5 Zn1_5 2.533272 1_555
Ir3_5 Zn1_1 2.533272 1_555
Ir3_5 Zn9_5 2.569151 1_555
Ir3_5 Zn6_5 2.569151 1_555
Ir3_5 Zn9_1 2.569151 1_555
Ir3_5 Zn6_1 2.569151 1_555
Ir3_5 Zn2_5 2.789657 1_555
Ir3_5 Zn2_1 2.789657 1_555
Ir3_5 Zn5_5 2.789657 1_555
Ir3_5 Zn5_1 2.789657 1_555
Ir3_6 Zn1_6 2.533272 1_555
Ir3_6 Zn1_2 2.533272 1_555
Ir3_6 Zn9_6 2.569151 1_555
Ir3_6 Zn6_6 2.569151 1_555
Ir3_6 Zn9_2 2.569151 1_555
Ir3_6 Zn6_2 2.569151 1_555
Ir3_6 Zn2_6 2.789657 1_555
Ir3_6 Zn2_2 2.789657 1_555
Ir3_6 Zn5_6 2.789657 1_555
Ir3_6 Zn5_2 2.789657 1_555
Ir3_7 Zn1_7 2.533272 1_555
Ir3_7 Zn1_3 2.533272 1_555
Ir3_7 Zn6_7 2.569151 1_555
Ir3_7 Zn9_3 2.569151 1_555
Ir3_7 Zn9_7 2.569151 1_555
Ir3_7 Zn6_3 2.569151 1_555
Ir3_7 Zn2_7 2.789657 1_555
Ir3_7 Zn2_3 2.789657 1_555
Ir3_7 Zn5_7 2.789657 1_555
Ir3_7 Zn5_3 2.789657 1_555
Ir4_0 Zn8_0 2.822944 1_555
Ir4_0 Zn8_4 2.822944 1_455
Ir4_0 Zn7_0 2.822944 1_555
Ir4_0 Zn7_4 2.822944 1_455
Ir4_1 Zn8_1 2.822944 1_555
Ir4_1 Zn8_5 2.822944 1_455
Ir4_1 Zn7_1 2.822944 1_555
Ir4_1 Zn7_5 2.822944 1_455
Ir4_2 Zn8_2 2.822944 1_555
Ir4_2 Zn8_6 2.822944 1_455
Ir4_2 Zn7_2 2.822944 1_555
Ir4_2 Zn7_6 2.822944 1_455
Ir4_3 Zn8_3 2.822944 1_555
Ir4_3 Zn8_7 2.822944 1_455
Ir4_3 Zn7_3 2.822944 1_555
Ir4_3 Zn7_7 2.822944 1_455
Ir4_4 Zn8_0 2.822944 1_555
Ir4_4 Zn8_4 2.822944 1_555
Ir4_4 Zn7_4 2.822944 1_555
Ir4_4 Zn7_0 2.822944 1_555
Ir4_5 Zn8_5 2.822944 1_555
Ir4_5 Zn8_1 2.822944 1_555
Ir4_5 Zn7_1 2.822944 1_555
Ir4_5 Zn7_5 2.822944 1_555
Ir4_6 Zn8_6 2.822944 1_555
Ir4_6 Zn8_2 2.822944 1_555
Ir4_6 Zn7_6 2.822944 1_555
Ir4_6 Zn7_2 2.822944 1_555
Ir4_7 Zn8_7 2.822944 1_555
Ir4_7 Zn8_3 2.822944 1_555
Ir4_7 Zn7_7 2.822944 1_555
Ir4_7 Zn7_3 2.822944 1_555
Ir5_0 Zn9_0 2.822944 1_555
Ir5_0 Zn6_0 2.822944 1_555
Ir5_0 Zn9_4 2.822944 1_455
Ir5_0 Zn6_4 2.822944 1_455
Ir5_1 Zn9_1 2.822944 1_555
Ir5_1 Zn6_1 2.822944 1_555
Ir5_1 Zn6_5 2.822944 1_455
Ir5_1 Zn9_5 2.822944 1_455
Ir5_2 Zn6_2 2.822944 1_555
Ir5_2 Zn9_2 2.822944 1_555
Ir5_2 Zn9_6 2.822944 1_455
Ir5_2 Zn6_6 2.822944 1_455
Ir5_3 Zn6_3 2.822944 1_555
Ir5_3 Zn9_3 2.822944 1_555
Ir5_3 Zn6_7 2.822944 1_455
Ir5_3 Zn9_7 2.822944 1_455
Ir5_4 Zn9_4 2.822944 1_555
Ir5_4 Zn6_4 2.822944 1_555
Ir5_4 Zn9_0 2.822944 1_555
Ir5_4 Zn6_0 2.822944 1_555
Ir5_5 Zn9_5 2.822944 1_555
Ir5_5 Zn6_5 2.822944 1_555
Ir5_5 Zn9_1 2.822944 1_555
Ir5_5 Zn6_1 2.822944 1_555
Ir5_6 Zn6_6 2.822944 1_555
Ir5_6 Zn9_6 2.822944 1_555
Ir5_6 Zn6_2 2.822944 1_555
Ir5_6 Zn9_2 2.822944 1_555
Ir5_7 Zn6_7 2.822944 1_555
Ir5_7 Zn9_7 2.822944 1_555
Ir5_7 Zn6_3 2.822944 1_555
Ir5_7 Zn9_3 2.822944 1_555
Ir6_0 Zn0_1 2.565746 1_555
Ir6_0 Zn0_5 2.565746 1_455
Ir6_0 Zn5_2 2.603407 1_555
Ir6_0 Zn5_6 2.603407 1_455
Ir6_0 Zn4_1 3.175351 1_555
Ir6_0 Zn4_5 3.175351 1_455
Ir6_1 Zn0_0 2.565746 1_556
Ir6_1 Zn0_4 2.565746 1_456
Ir6_1 Zn5_3 2.603407 1_555
Ir6_1 Zn5_7 2.603407 1_455
Ir6_1 Zn4_0 3.175351 1_556
Ir6_1 Zn4_4 3.175351 1_456
Ir6_2 Zn0_3 2.565746 1_555
Ir6_2 Zn0_7 2.565746 1_455
Ir6_2 Zn5_0 2.603407 1_565
Ir6_2 Zn5_4 2.603407 1_465
Ir6_2 Zn4_3 3.175351 1_555
Ir6_2 Zn4_7 3.175351 1_455
Ir6_3 Zn0_2 2.565746 1_556
Ir6_3 Zn0_6 2.565746 1_456
Ir6_3 Zn5_1 2.603407 1_565
Ir6_3 Zn5_5 2.603407 1_465
Ir6_3 Zn4_2 3.175351 1_556
Ir6_3 Zn4_6 3.175351 1_456
Ir6_4 Zn0_1 2.565746 1_555
Ir6_4 Zn0_5 2.565746 1_555
Ir6_4 Zn5_6 2.603407 1_555
Ir6_4 Zn5_2 2.603407 1_555
Ir6_4 Zn4_1 3.175351 1_555
Ir6_4 Zn4_5 3.175351 1_555
Ir6_5 Zn0_0 2.565746 1_556
Ir6_5 Zn0_4 2.565746 1_556
Ir6_5 Zn5_7 2.603407 1_555
Ir6_5 Zn5_3 2.603407 1_555
Ir6_5 Zn4_4 3.175351 1_556
Ir6_5 Zn4_0 3.175351 1_556
Ir6_6 Zn0_7 2.565746 1_555
Ir6_6 Zn0_3 2.565746 1_555
Ir6_6 Zn5_4 2.603407 1_565
Ir6_6 Zn5_0 2.603407 1_565
Ir6_6 Zn4_3 3.175351 1_555
Ir6_6 Zn4_7 3.175351 1_555
Ir6_7 Zn0_6 2.565746 1_556
Ir6_7 Zn0_2 2.565746 1_556
Ir6_7 Zn5_1 2.603407 1_565
Ir6_7 Zn5_5 2.603407 1_565
Ir6_7 Zn4_6 3.175351 1_556
Ir6_7 Zn4_2 3.175351 1_556
Ir7_0 Zn1_1 2.565746 1_554
Ir7_0 Zn1_5 2.565746 1_454
Ir7_0 Zn4_2 2.603407 1_545
Ir7_0 Zn4_6 2.603407 1_445
Ir7_0 Zn5_1 3.175351 1_554
Ir7_0 Zn5_5 3.175351 1_454
Ir7_1 Zn1_0 2.565746 1_555
Ir7_1 Zn1_4 2.565746 1_455
Ir7_1 Zn4_3 2.603407 1_545
Ir7_1 Zn4_7 2.603407 1_445
Ir7_1 Zn5_0 3.175351 1_555
Ir7_1 Zn5_4 3.175351 1_455
Ir7_2 Zn1_3 2.565746 1_554
Ir7_2 Zn1_7 2.565746 1_454
Ir7_2 Zn4_0 2.603407 1_555
Ir7_2 Zn4_4 2.603407 1_455
Ir7_2 Zn5_3 3.175351 1_554
Ir7_2 Zn5_7 3.175351 1_454
Ir7_3 Zn1_2 2.565746 1_555
Ir7_3 Zn1_6 2.565746 1_455
Ir7_3 Zn4_1 2.603407 1_555
Ir7_3 Zn4_5 2.603407 1_455
Ir7_3 Zn5_2 3.175351 1_555
Ir7_3 Zn5_6 3.175351 1_455
Ir7_4 Zn1_5 2.565746 1_554
Ir7_4 Zn1_1 2.565746 1_554
Ir7_4 Zn4_6 2.603407 1_545
Ir7_4 Zn4_2 2.603407 1_545
Ir7_4 Zn5_5 3.175351 1_554
Ir7_4 Zn5_1 3.175351 1_554
Ir7_5 Zn1_4 2.565746 1_555
Ir7_5 Zn1_0 2.565746 1_555
Ir7_5 Zn4_3 2.603407 1_545
Ir7_5 Zn4_7 2.603407 1_545
Ir7_5 Zn5_0 3.175351 1_555
Ir7_5 Zn5_4 3.175351 1_555
Ir7_6 Zn1_7 2.565746 1_554
Ir7_6 Zn1_3 2.565746 1_554
Ir7_6 Zn4_4 2.603407 1_555
Ir7_6 Zn4_0 2.603407 1_555
Ir7_6 Zn5_7 3.175351 1_554
Ir7_6 Zn5_3 3.175351 1_554
Ir7_7 Zn1_6 2.565746 1_555
Ir7_7 Zn1_2 2.565746 1_555
Ir7_7 Zn4_1 2.603407 1_555
Ir7_7 Zn4_5 2.603407 1_555
Ir7_7 Zn5_2 3.175351 1_555
Ir7_7 Zn5_6 3.175351 1_555
Ir8_0 Zn1_1 2.565746 1_554
Ir8_0 Zn1_5 2.565746 1_454
Ir8_0 Zn3_0 2.603407 1_555
Ir8_0 Zn3_4 2.603407 1_455
Ir8_0 Zn2_1 3.175351 1_554
Ir8_0 Zn2_5 3.175351 1_454
Ir8_1 Zn1_0 2.565746 1_555
Ir8_1 Zn1_4 2.565746 1_455
Ir8_1 Zn3_1 2.603407 1_555
Ir8_1 Zn3_5 2.603407 1_455
Ir8_1 Zn2_0 3.175351 1_555
Ir8_1 Zn2_4 3.175351 1_455
Ir8_2 Zn1_3 2.565746 1_554
Ir8_2 Zn1_7 2.565746 1_454
Ir8_2 Zn3_2 2.603407 1_555
Ir8_2 Zn3_6 2.603407 1_455
Ir8_2 Zn2_3 3.175351 1_554
Ir8_2 Zn2_7 3.175351 1_454
Ir8_3 Zn1_2 2.565746 1_555
Ir8_3 Zn1_6 2.565746 1_455
Ir8_3 Zn3_3 2.603407 1_555
Ir8_3 Zn3_7 2.603407 1_455
Ir8_3 Zn2_2 3.175351 1_555
Ir8_3 Zn2_6 3.175351 1_455
Ir8_4 Zn1_5 2.565746 1_554
Ir8_4 Zn1_1 2.565746 1_554
Ir8_4 Zn3_4 2.603407 1_555
Ir8_4 Zn3_0 2.603407 1_555
Ir8_4 Zn2_5 3.175351 1_554
Ir8_4 Zn2_1 3.175351 1_554
Ir8_5 Zn1_4 2.565746 1_555
Ir8_5 Zn1_0 2.565746 1_555
Ir8_5 Zn3_5 2.603407 1_555
Ir8_5 Zn3_1 2.603407 1_555
Ir8_5 Zn2_4 3.175351 1_555
Ir8_5 Zn2_0 3.175351 1_555
Ir8_6 Zn1_7 2.565746 1_554
Ir8_6 Zn1_3 2.565746 1_554
Ir8_6 Zn3_6 2.603407 1_555
Ir8_6 Zn3_2 2.603407 1_555
Ir8_6 Zn2_3 3.175351 1_554
Ir8_6 Zn2_7 3.175351 1_554
Ir8_7 Zn1_6 2.565746 1_555
Ir8_7 Zn1_2 2.565746 1_555
Ir8_7 Zn3_7 2.603407 1_555
Ir8_7 Zn3_3 2.603407 1_555
Ir8_7 Zn2_6 3.175351 1_555
Ir8_7 Zn2_2 3.175351 1_555
Ir9_0 Zn0_1 2.565746 1_555
Ir9_0 Zn0_5 2.565746 1_455
Ir9_0 Zn2_0 2.603407 1_555
Ir9_0 Zn2_4 2.603407 1_455
Ir9_0 Zn3_1 3.175351 1_555
Ir9_0 Zn3_5 3.175351 1_455
Ir9_1 Zn0_0 2.565746 1_556
Ir9_1 Zn0_4 2.565746 1_456
Ir9_1 Zn2_1 2.603407 1_555
Ir9_1 Zn2_5 2.603407 1_455
Ir9_1 Zn3_0 3.175351 1_556
Ir9_1 Zn3_4 3.175351 1_456
Ir9_2 Zn0_3 2.565746 1_555
Ir9_2 Zn0_7 2.565746 1_455
Ir9_2 Zn2_2 2.603407 1_555
Ir9_2 Zn2_6 2.603407 1_455
Ir9_2 Zn3_3 3.175351 1_555
Ir9_2 Zn3_7 3.175351 1_455
Ir9_3 Zn0_2 2.565746 1_556
Ir9_3 Zn0_6 2.565746 1_456
Ir9_3 Zn2_3 2.603407 1_555
Ir9_3 Zn2_7 2.603407 1_455
Ir9_3 Zn3_2 3.175351 1_556
Ir9_3 Zn3_6 3.175351 1_456
Ir9_4 Zn0_5 2.565746 1_555
Ir9_4 Zn0_1 2.565746 1_555
Ir9_4 Zn2_4 2.603407 1_555
Ir9_4 Zn2_0 2.603407 1_555
Ir9_4 Zn3_1 3.175351 1_555
Ir9_4 Zn3_5 3.175351 1_555
Ir9_5 Zn0_4 2.565746 1_556
Ir9_5 Zn0_0 2.565746 1_556
Ir9_5 Zn2_5 2.603407 1_555
Ir9_5 Zn2_1 2.603407 1_555
Ir9_5 Zn3_4 3.175351 1_556
Ir9_5 Zn3_0 3.175351 1_556
Ir9_6 Zn0_7 2.565746 1_555
Ir9_6 Zn0_3 2.565746 1_555
Ir9_6 Zn2_6 2.603407 1_555
Ir9_6 Zn2_2 2.603407 1_555
Ir9_6 Zn3_7 3.175351 1_555
Ir9_6 Zn3_3 3.175351 1_555
Ir9_7 Zn0_6 2.565746 1_556
Ir9_7 Zn0_2 2.565746 1_556
Ir9_7 Zn2_3 2.603407 1_555
Ir9_7 Zn2_7 2.603407 1_555
Ir9_7 Zn3_2 3.175351 1_556
Ir9_7 Zn3_6 3.175351 1_556
Ir10_0 Zn5_2 2.778512 1_555
Ir10_0 Zn5_6 2.778512 1_455
Ir10_1 Zn5_7 2.778512 1_455
Ir10_1 Zn5_3 2.778512 1_555
Ir10_2 Zn5_0 2.778512 1_565
Ir10_2 Zn5_4 2.778512 1_465
Ir10_3 Zn5_1 2.778512 1_565
Ir10_3 Zn5_5 2.778512 1_465
Ir10_4 Zn5_6 2.778512 1_555
Ir10_4 Zn5_2 2.778512 1_555
Ir10_5 Zn5_7 2.778512 1_555
Ir10_5 Zn5_3 2.778512 1_555
Ir10_6 Zn5_4 2.778512 1_565
Ir10_6 Zn5_0 2.778512 1_565
Ir10_7 Zn5_5 2.778512 1_565
Ir10_7 Zn5_1 2.778512 1_565
Ir11_0 Zn4_6 2.778512 1_445
Ir11_0 Zn4_2 2.778512 1_545
Ir11_1 Zn4_3 2.778512 1_545
Ir11_1 Zn4_7 2.778512 1_445
Ir11_2 Zn4_0 2.778512 1_555
Ir11_2 Zn4_4 2.778512 1_455
Ir11_3 Zn4_1 2.778512 1_555
Ir11_3 Zn4_5 2.778512 1_455
Ir11_4 Zn4_6 2.778512 1_545
Ir11_4 Zn4_2 2.778512 1_545
Ir11_5 Zn4_7 2.778512 1_545
Ir11_5 Zn4_3 2.778512 1_545
Ir11_6 Zn4_0 2.778512 1_555
Ir11_6 Zn4_4 2.778512 1_555
Ir11_7 Zn4_5 2.778512 1_555
Ir11_7 Zn4_1 2.778512 1_555
Ir12_0 Zn3_0 2.778512 1_555
Ir12_0 Zn3_4 2.778512 1_455
Ir12_1 Zn3_5 2.778512 1_455
Ir12_1 Zn3_1 2.778512 1_555
Ir12_2 Zn3_2 2.778512 1_555
Ir12_2 Zn3_6 2.778512 1_455
Ir12_3 Zn3_3 2.778512 1_555
Ir12_3 Zn3_7 2.778512 1_455
Ir12_4 Zn3_4 2.778512 1_555
Ir12_4 Zn3_0 2.778512 1_555
Ir12_5 Zn3_5 2.778512 1_555
Ir12_5 Zn3_1 2.778512 1_555
Ir12_6 Zn3_6 2.778512 1_555
Ir12_6 Zn3_2 2.778512 1_555
Ir12_7 Zn3_7 2.778512 1_555
Ir12_7 Zn3_3 2.778512 1_555
Ir13_0 Zn2_0 2.778512 1_555
Ir13_0 Zn2_4 2.778512 1_455
Ir13_1 Zn2_1 2.778512 1_555
Ir13_1 Zn2_5 2.778512 1_455
Ir13_2 Zn2_2 2.778512 1_555
Ir13_2 Zn2_6 2.778512 1_455
Ir13_3 Zn2_3 2.778512 1_555
Ir13_3 Zn2_7 2.778512 1_455
Ir13_4 Zn2_4 2.778512 1_555
Ir13_4 Zn2_0 2.778512 1_555
Ir13_5 Zn2_5 2.778512 1_555
Ir13_5 Zn2_1 2.778512 1_555
Ir13_6 Zn2_6 2.778512 1_555
Ir13_6 Zn2_2 2.778512 1_555
Ir13_7 Zn2_7 2.778512 1_555
Ir13_7 Zn2_3 2.778512 1_555
