# generated using pymatgen
data_Ca4Mn3AlO11
_symmetry_space_group_name_H-M   'P 1'
_cell_length_a   3.78283600
_cell_length_b   7.64634100
_cell_length_c   7.64634100
_cell_angle_alpha   90.00000000
_cell_angle_beta   90.00000000
_cell_angle_gamma   90.00000000
_symmetry_Int_Tables_number   1
_chemical_formula_structural   Ca4Mn3AlO11
_chemical_formula_sum   'Ca4 Mn3 Al1 O11'
_cell_volume   221.16929708
_cell_formula_units_Z   1
loop_
 _symmetry_equiv_pos_site_id
 _symmetry_equiv_pos_as_xyz
  1  'x, y, z'
loop_
 _atom_site_type_symbol
 _atom_site_label
 _atom_site_symmetry_multiplicity
 _atom_site_fract_x
 _atom_site_fract_y
 _atom_site_fract_z
 _atom_site_occupancy
  Ca  Ca0  1  0.50000000  0.26656900  0.26656900  1
  Ca  Ca1  1  0.50000000  0.26656900  0.73343100  1
  Ca  Ca2  1  0.50000000  0.73343100  0.26656900  1
  Ca  Ca3  1  0.50000000  0.73343100  0.73343100  1
  Mn  Mn0  1  0.00000000  0.00000000  0.50000000  1
  Mn  Mn1  1  0.00000000  0.50000000  0.00000000  1
  Mn  Mn2  1  0.00000000  0.50000000  0.50000000  1
  Al  Al0  1  0.00000000  0.00000000  0.00000000  1
  O  O0  1  0.50000000  0.00000000  0.50000000  1
  O  O1  1  0.50000000  0.50000000  0.00000000  1
  O  O2  1  0.50000000  0.50000000  0.50000000  1
  O  O3  1  0.00000000  0.23800300  0.00000000  1
  O  O4  1  0.00000000  0.25046000  0.50000000  1
  O  O5  1  0.00000000  0.76199700  0.00000000  1
  O  O6  1  0.00000000  0.74954000  0.50000000  1
  O  O7  1  0.00000000  0.00000000  0.23800300  1
  O  O8  1  0.00000000  0.00000000  0.76199700  1
  O  O9  1  0.00000000  0.50000000  0.25046000  1
  O  O10  1  0.00000000  0.50000000  0.74954000  1
loop_
_geom_bond_atom_site_label_1
_geom_bond_atom_site_label_2
_geom_bond_distance
_geom_bond_site_symmetry_2
Ca0 O2 2.524220 1_555
Ca0 O4 2.603551 1_555
Ca0 O4 2.603551 1_655
Ca0 O9 2.603551 1_655
Ca0 O9 2.603551 1_555
Ca0 O0 2.709321 1_555
Ca0 O1 2.709321 1_555
Ca0 O3 2.789220 1_555
Ca0 O3 2.789220 1_655
Ca0 O7 2.789220 1_555
Ca0 O7 2.789220 1_655
Ca1 O2 2.524220 1_555
Ca1 O10 2.603551 1_555
Ca1 O10 2.603551 1_655
Ca1 O4 2.603551 1_555
Ca1 O4 2.603551 1_655
Ca1 O1 2.709321 1_556
Ca1 O0 2.709321 1_555
Ca1 O3 2.789220 1_656
Ca1 O3 2.789220 1_556
Ca1 O8 2.789220 1_655
Ca1 O8 2.789220 1_555
Ca2 O2 2.524220 1_555
Ca2 O6 2.603551 1_655
Ca2 O6 2.603551 1_555
Ca2 O9 2.603551 1_655
Ca2 O9 2.603551 1_555
Ca2 O0 2.709321 1_565
Ca2 O1 2.709321 1_555
Ca2 O7 2.789220 1_665
Ca2 O7 2.789220 1_565
Ca2 O5 2.789220 1_655
Ca2 O5 2.789220 1_555
Ca3 O2 2.524220 1_555
Ca3 O6 2.603551 1_555
Ca3 O6 2.603551 1_655
Ca3 O10 2.603551 1_655
Ca3 O10 2.603551 1_555
Ca3 O0 2.709321 1_565
Ca3 O1 2.709321 1_556
Ca3 O5 2.789220 1_556
Ca3 O5 2.789220 1_656
Ca3 O8 2.789220 1_565
Ca3 O8 2.789220 1_665
Mn0 O0 1.891418 1_455
Mn0 O0 1.891418 1_555
Mn0 O4 1.915103 1_555
Mn0 O6 1.915103 1_545
Mn0 O7 2.003318 1_555
Mn0 O8 2.003318 1_555
Mn1 O1 1.891418 1_455
Mn1 O1 1.891418 1_555
Mn1 O10 1.915103 1_554
Mn1 O9 1.915103 1_555
Mn1 O3 2.003318 1_555
Mn1 O5 2.003318 1_555
Mn2 O2 1.891418 1_555
Mn2 O2 1.891418 1_455
Mn2 O9 1.908068 1_555
Mn2 O6 1.908068 1_555
Mn2 O4 1.908068 1_555
Mn2 O10 1.908068 1_555
Al0 O8 1.819852 1_554
Al0 O5 1.819852 1_545
Al0 O3 1.819852 1_555
Al0 O7 1.819852 1_555
