# generated using pymatgen
data_Nd3Sn7
_symmetry_space_group_name_H-M   'P 1'
_cell_length_a   4.50175933
_cell_length_b   4.59655353
_cell_length_c   13.51364318
_cell_angle_alpha   90.00000000
_cell_angle_beta   99.58807326
_cell_angle_gamma   90.00000000
_symmetry_Int_Tables_number   1
_chemical_formula_structural   Nd3Sn7
_chemical_formula_sum   'Nd3 Sn7'
_cell_volume   275.72585578
_cell_formula_units_Z   1
loop_
 _symmetry_equiv_pos_site_id
 _symmetry_equiv_pos_as_xyz
  1  'x, y, z'
loop_
 _atom_site_type_symbol
 _atom_site_label
 _atom_site_symmetry_multiplicity
 _atom_site_fract_x
 _atom_site_fract_y
 _atom_site_fract_z
 _atom_site_occupancy
  Nd  Nd0  1  0.81550103  0.00000000  0.63100207  1
  Nd  Nd1  1  0.18449897  0.00000000  0.36899793  1
  Nd  Nd2  1  -0.00000000  0.00000000  -0.00000000  1
  Sn  Sn0  1  0.90435149  0.50000000  0.80870398  1
  Sn  Sn1  1  0.09564851  0.50000000  0.19129602  1
  Sn  Sn2  1  0.71340112  0.50000000  0.42680423  1
  Sn  Sn3  1  0.28659888  0.50000000  0.57319577  1
  Sn  Sn4  1  0.59480503  0.00000000  0.18961006  1
  Sn  Sn5  1  0.40519497  0.00000000  0.81038994  1
  Sn  Sn6  1  0.50000000  0.50000000  -0.00000000  1
loop_
_geom_bond_atom_site_label_1
_geom_bond_atom_site_label_2
_geom_bond_distance
_geom_bond_site_symmetry_2
Nd0 Sn5 3.283304 1_555
Nd0 Sn5 3.283304 1_655
Nd0 Sn0 3.299820 1_555
Nd0 Sn0 3.299820 1_545
Nd0 Sn3 3.307842 1_555
Nd0 Sn3 3.307842 1_545
Nd0 Sn3 3.307848 1_655
Nd0 Sn3 3.307848 1_645
Nd0 Sn2 3.561660 1_545
Nd0 Sn2 3.561660 1_555
Nd1 Sn4 3.283304 1_555
Nd1 Sn4 3.283304 1_455
Nd1 Sn1 3.299820 1_545
Nd1 Sn1 3.299820 1_555
Nd1 Sn2 3.307842 1_555
Nd1 Sn2 3.307842 1_545
Nd1 Sn2 3.307848 1_455
Nd1 Sn2 3.307848 1_445
Nd1 Sn3 3.561660 1_555
Nd1 Sn3 3.561660 1_545
Nd2 Sn6 3.216914 1_455
Nd2 Sn6 3.216914 1_545
Nd2 Sn6 3.216914 1_445
Nd2 Sn6 3.216914 1_555
Nd2 Sn4 3.383756 1_555
Nd2 Sn5 3.383756 1_454
Nd2 Sn4 3.383756 1_455
Nd2 Sn5 3.383756 1_554
Nd2 Sn1 3.432120 1_545
Nd2 Sn0 3.432120 1_454
Nd2 Sn1 3.432120 1_555
Nd2 Sn0 3.432120 1_444
Sn0 Sn5 3.216991 1_555
Sn0 Sn5 3.216991 1_565
Sn0 Sn5 3.216994 1_655
Sn0 Sn5 3.216994 1_665
Sn0 Sn6 3.400562 1_556
Sn0 Sn6 3.400565 1_656
Sn1 Sn4 3.216991 1_555
Sn1 Sn4 3.216991 1_565
Sn1 Sn4 3.216994 1_465
Sn1 Sn4 3.216994 1_455
Sn1 Sn6 3.400562 1_555
Sn1 Sn6 3.400565 1_455
Sn2 Sn3 2.978497 1_555
Sn2 Sn3 2.978511 1_655
