# generated using pymatgen
data_Ac3Pm
_symmetry_space_group_name_H-M   'P 1'
_cell_length_a   7.97812321
_cell_length_b   7.97812321
_cell_length_c   6.28481113
_cell_angle_alpha   90.00000000
_cell_angle_beta   90.00000000
_cell_angle_gamma   119.99999811
_symmetry_Int_Tables_number   1
_chemical_formula_structural   Ac3Pm
_chemical_formula_sum   'Ac6 Pm2'
_cell_volume   346.43706382
_cell_formula_units_Z   2
loop_
 _symmetry_equiv_pos_site_id
 _symmetry_equiv_pos_as_xyz
  1  'x, y, z'
loop_
 _atom_site_type_symbol
 _atom_site_label
 _atom_site_symmetry_multiplicity
 _atom_site_fract_x
 _atom_site_fract_y
 _atom_site_fract_z
 _atom_site_occupancy
  Ac  Ac0  1  0.83052763  0.16947237  0.75000000  1
  Ac  Ac1  1  0.33894474  0.16947237  0.75000000  1
  Ac  Ac2  1  0.83052763  0.66105526  0.75000000  1
  Ac  Ac3  1  0.16947237  0.83052763  0.25000000  1
  Ac  Ac4  1  0.66105526  0.83052763  0.25000000  1
  Ac  Ac5  1  0.16947237  0.33894474  0.25000000  1
  Pm  Pm0  1  0.66666700  0.33333300  0.25000000  1
  Pm  Pm1  1  0.33333300  0.66666700  0.75000000  1
loop_
_geom_bond_atom_site_label_1
_geom_bond_atom_site_label_2
_geom_bond_distance
_geom_bond_site_symmetry_2
Ac0 Pm0 3.873218 1_556
Ac0 Pm0 3.873218 1_555
Ac0 Ac4 3.919057 1_545
Ac0 Ac4 3.919057 1_546
Ac0 Ac5 3.919057 1_655
Ac0 Ac5 3.919057 1_656
Ac0 Ac1 3.921909 1_555
Ac0 Ac2 3.921909 1_555
Ac0 Pm1 3.989250 1_545
Ac0 Pm1 3.989250 1_655
Ac0 Ac2 4.056214 1_545
Ac0 Ac1 4.056214 1_655
Ac1 Pm0 3.873222 1_556
Ac1 Pm0 3.873222 1_555
Ac1 Ac5 3.919057 1_556
Ac1 Ac5 3.919057 1_555
Ac1 Ac3 3.919057 1_545
Ac1 Ac3 3.919057 1_546
Ac1 Ac2 3.921909 1_555
Ac1 Pm1 3.989246 1_545
Ac1 Pm1 3.989254 1_555
Ac1 Ac2 4.056214 1_445
Ac2 Pm0 3.873222 1_556
Ac2 Pm0 3.873222 1_555
Ac2 Ac4 3.919057 1_555
Ac2 Ac4 3.919057 1_556
Ac2 Ac3 3.919057 1_655
Ac2 Ac3 3.919057 1_656
Ac2 Pm1 3.989246 1_655
Ac2 Pm1 3.989254 1_555
Ac3 Pm1 3.873218 1_555
Ac3 Pm1 3.873218 1_554
Ac3 Ac5 3.921909 1_555
Ac3 Ac4 3.921909 1_555
Ac3 Pm0 3.989250 1_455
Ac3 Pm0 3.989250 1_565
Ac3 Ac4 4.056214 1_455
Ac3 Ac5 4.056214 1_565
Ac4 Pm1 3.873222 1_554
Ac4 Pm1 3.873222 1_555
Ac4 Ac5 3.921909 1_555
Ac4 Pm0 3.989246 1_565
Ac4 Pm0 3.989254 1_555
Ac4 Ac5 4.056214 1_665
Ac5 Pm1 3.873222 1_554
Ac5 Pm1 3.873222 1_555
Ac5 Pm0 3.989246 1_455
Ac5 Pm0 3.989254 1_555
