# generated using pymatgen
data_Mg2Zn
_symmetry_space_group_name_H-M   'P 1'
_cell_length_a   15.47996455
_cell_length_b   15.47996455
_cell_length_c   9.45428984
_cell_angle_alpha   90.00000000
_cell_angle_beta   90.00000000
_cell_angle_gamma   156.29132072
_symmetry_Int_Tables_number   1
_chemical_formula_structural   Mg2Zn
_chemical_formula_sum   'Mg32 Zn16'
_cell_volume   910.93692116
_cell_formula_units_Z   16
loop_
 _symmetry_equiv_pos_site_id
 _symmetry_equiv_pos_as_xyz
  1  'x, y, z'
loop_
 _atom_site_type_symbol
 _atom_site_label
 _atom_site_symmetry_multiplicity
 _atom_site_fract_x
 _atom_site_fract_y
 _atom_site_fract_z
 _atom_site_occupancy
  Mg  Mg0_0  1  0.04629162  0.45370838  0.12500000  1
  Mg  Mg0_1  1  0.04629162  0.45370838  0.62500000  1
  Mg  Mg0_2  1  0.04629162  0.95370838  0.12500000  1
  Mg  Mg0_3  1  0.04629162  0.95370838  0.62500000  1
  Mg  Mg0_4  1  0.54629162  0.45370838  0.12500000  1
  Mg  Mg0_5  1  0.54629162  0.45370838  0.62500000  1
  Mg  Mg0_6  1  0.54629162  0.95370838  0.12500000  1
  Mg  Mg0_7  1  0.54629162  0.95370838  0.62500000  1
  Mg  Mg1_0  1  0.39118876  0.10881124  0.12500000  1
  Mg  Mg1_1  1  0.39118876  0.10881124  0.62500000  1
  Mg  Mg1_2  1  0.39118876  0.60881124  0.12500000  1
  Mg  Mg1_3  1  0.39118876  0.60881124  0.62500000  1
  Mg  Mg1_4  1  0.89118876  0.10881124  0.12500000  1
  Mg  Mg1_5  1  0.89118876  0.10881124  0.62500000  1
  Mg  Mg1_6  1  0.89118876  0.60881124  0.12500000  1
  Mg  Mg1_7  1  0.89118876  0.60881124  0.62500000  1
  Mg  Mg2_0  1  0.10881124  0.39118876  0.37500000  1
  Mg  Mg2_1  1  0.10881124  0.39118876  0.87500000  1
  Mg  Mg2_2  1  0.10881124  0.89118876  0.37500000  1
  Mg  Mg2_3  1  0.10881124  0.89118876  0.87500000  1
  Mg  Mg2_4  1  0.60881124  0.39118876  0.37500000  1
  Mg  Mg2_5  1  0.60881124  0.39118876  0.87500000  1
  Mg  Mg2_6  1  0.60881124  0.89118876  0.37500000  1
  Mg  Mg2_7  1  0.60881124  0.89118876  0.87500000  1
  Mg  Mg3_0  1  0.45370838  0.04629162  0.37500000  1
  Mg  Mg3_1  1  0.45370838  0.04629162  0.87500000  1
  Mg  Mg3_2  1  0.45370838  0.54629162  0.37500000  1
  Mg  Mg3_3  1  0.45370838  0.54629162  0.87500000  1
  Mg  Mg3_4  1  0.95370838  0.04629162  0.37500000  1
  Mg  Mg3_5  1  0.95370838  0.04629162  0.87500000  1
  Mg  Mg3_6  1  0.95370838  0.54629162  0.37500000  1
  Mg  Mg3_7  1  0.95370838  0.54629162  0.87500000  1
  Zn  Zn0_0  1  0.22026494  0.27973506  0.12500000  1
  Zn  Zn0_1  1  0.22026494  0.27973506  0.62500000  1
  Zn  Zn0_2  1  0.22026494  0.77973505  0.12500000  1
  Zn  Zn0_3  1  0.22026494  0.77973505  0.62500000  1
  Zn  Zn0_4  1  0.72026494  0.27973505  0.12500000  1
  Zn  Zn0_5  1  0.72026494  0.27973505  0.62500000  1
  Zn  Zn0_6  1  0.72026494  0.77973505  0.12500000  1
  Zn  Zn0_7  1  0.72026494  0.77973505  0.62500000  1
  Zn  Zn1_0  1  0.27973505  0.22026494  0.37500000  1
  Zn  Zn1_1  1  0.27973505  0.22026494  0.87500000  1
  Zn  Zn1_2  1  0.27973505  0.72026495  0.37500000  1
  Zn  Zn1_3  1  0.27973505  0.72026495  0.87500000  1
  Zn  Zn1_4  1  0.77973505  0.22026494  0.37500000  1
  Zn  Zn1_5  1  0.77973505  0.22026494  0.87500000  1
  Zn  Zn1_6  1  0.77973505  0.72026495  0.37500000  1
  Zn  Zn1_7  1  0.77973505  0.72026495  0.87500000  1
loop_
_geom_bond_atom_site_label_1
_geom_bond_atom_site_label_2
_geom_bond_distance
_geom_bond_site_symmetry_2
Mg0_0 Zn0_2 2.799022 1_555
Mg0_0 Zn0_4 2.799022 1_455
Mg0_0 Zn1_4 2.892434 1_455
Mg0_0 Zn1_3 2.892434 1_554
Mg0_0 Zn1_5 2.892434 1_454
Mg0_0 Zn1_2 2.892434 1_555
Mg0_0 Mg2_0 3.029015 1_555
Mg0_0 Mg2_1 3.029015 1_554
Mg0_0 Mg0_6 3.179961 1_555
Mg0_0 Mg0_6 3.179961 1_445
Mg0_0 Mg1_2 3.285677 1_555
Mg0_0 Mg1_4 3.285677 1_455
Mg0_1 Zn0_3 2.799022 1_555
Mg0_1 Zn0_5 2.799022 1_455
Mg0_1 Zn1_4 2.892434 1_455
Mg0_1 Zn1_5 2.892434 1_455
Mg0_1 Zn1_3 2.892434 1_555
Mg0_1 Zn1_2 2.892434 1_555
Mg0_1 Mg2_0 3.029015 1_555
Mg0_1 Mg2_1 3.029015 1_555
Mg0_1 Mg0_7 3.179961 1_555
Mg0_1 Mg0_7 3.179961 1_445
Mg0_1 Mg1_3 3.285677 1_555
Mg0_1 Mg1_5 3.285677 1_455
Mg0_2 Zn0_0 2.799022 1_565
Mg0_2 Zn0_6 2.799022 1_455
Mg0_2 Zn1_0 2.892434 1_565
Mg0_2 Zn1_7 2.892434 1_454
Mg0_2 Zn1_6 2.892434 1_455
Mg0_2 Zn1_1 2.892434 1_564
Mg0_2 Mg2_3 3.029015 1_554
Mg0_2 Mg2_2 3.029015 1_555
Mg0_2 Mg0_4 3.179961 1_455
Mg0_2 Mg0_4 3.179961 1_565
Mg0_2 Mg1_6 3.285677 1_455
Mg0_2 Mg1_0 3.285677 1_565
Mg0_3 Zn0_1 2.799022 1_565
Mg0_3 Zn0_7 2.799022 1_455
Mg0_3 Zn1_0 2.892434 1_565
Mg0_3 Zn1_6 2.892434 1_455
Mg0_3 Zn1_1 2.892434 1_565
Mg0_3 Zn1_7 2.892434 1_455
Mg0_3 Mg2_2 3.029015 1_555
Mg0_3 Mg2_3 3.029015 1_555
Mg0_3 Mg0_5 3.179961 1_455
Mg0_3 Mg0_5 3.179961 1_565
Mg0_3 Mg1_7 3.285677 1_455
Mg0_3 Mg1_1 3.285677 1_565
Mg0_4 Zn0_6 2.799022 1_555
Mg0_4 Zn0_0 2.799022 1_555
Mg0_4 Zn1_1 2.892434 1_554
Mg0_4 Zn1_0 2.892434 1_555
Mg0_4 Zn1_7 2.892434 1_554
Mg0_4 Zn1_6 2.892434 1_555
Mg0_4 Mg2_4 3.029015 1_555
Mg0_4 Mg2_5 3.029015 1_554
Mg0_4 Mg1_6 3.285677 1_555
Mg0_4 Mg1_0 3.285677 1_555
Mg0_5 Zn0_7 2.799022 1_555
Mg0_5 Zn0_1 2.799022 1_555
Mg0_5 Zn1_1 2.892434 1_555
Mg0_5 Zn1_0 2.892434 1_555
Mg0_5 Zn1_7 2.892434 1_555
Mg0_5 Zn1_6 2.892434 1_555
Mg0_5 Mg2_4 3.029015 1_555
Mg0_5 Mg2_5 3.029015 1_555
Mg0_5 Mg1_7 3.285677 1_555
Mg0_5 Mg1_1 3.285677 1_555
Mg0_6 Zn0_2 2.799022 1_555
Mg0_6 Zn0_4 2.799022 1_565
Mg0_6 Zn1_4 2.892434 1_565
Mg0_6 Zn1_5 2.892434 1_564
Mg0_6 Zn1_2 2.892434 1_555
Mg0_6 Zn1_3 2.892434 1_554
Mg0_6 Mg2_7 3.029015 1_554
Mg0_6 Mg2_6 3.029015 1_555
Mg0_6 Mg1_2 3.285677 1_555
Mg0_6 Mg1_4 3.285677 1_565
Mg0_7 Zn0_5 2.799022 1_565
Mg0_7 Zn0_3 2.799022 1_555
Mg0_7 Zn1_4 2.892434 1_565
Mg0_7 Zn1_5 2.892434 1_565
Mg0_7 Zn1_3 2.892434 1_555
Mg0_7 Zn1_2 2.892434 1_555
Mg0_7 Mg2_7 3.029015 1_555
Mg0_7 Mg2_6 3.029015 1_555
Mg0_7 Mg1_3 3.285677 1_555
Mg0_7 Mg1_5 3.285677 1_565
Mg1_0 Zn0_4 2.875545 1_555
Mg1_0 Zn0_2 2.875545 1_545
Mg1_0 Mg2_4 3.012794 1_555
Mg1_0 Mg2_5 3.012794 1_554
Mg1_0 Mg2_2 3.012794 1_545
Mg1_0 Mg2_3 3.012794 1_544
Mg1_0 Mg3_0 3.029015 1_555
Mg1_0 Mg3_1 3.029015 1_554
Mg1_0 Mg1_6 3.179961 1_555
Mg1_0 Mg1_6 3.179961 1_445
Mg1_1 Zn0_5 2.875545 1_555
Mg1_1 Zn0_3 2.875545 1_545
Mg1_1 Mg2_4 3.012794 1_555
Mg1_1 Mg2_5 3.012794 1_555
Mg1_1 Mg2_2 3.012794 1_545
Mg1_1 Mg2_3 3.012794 1_545
Mg1_1 Mg3_0 3.029015 1_555
Mg1_1 Mg3_1 3.029015 1_555
Mg1_1 Mg1_7 3.179961 1_555
Mg1_1 Mg1_7 3.179961 1_445
Mg1_2 Zn0_0 2.875545 1_555
Mg1_2 Zn0_6 2.875545 1_555
Mg1_2 Mg2_7 3.012794 1_554
Mg1_2 Mg2_0 3.012794 1_555
Mg1_2 Mg2_1 3.012794 1_554
Mg1_2 Mg2_6 3.012794 1_555
Mg1_2 Mg3_3 3.029015 1_554
Mg1_2 Mg3_2 3.029015 1_555
Mg1_2 Mg1_4 3.179961 1_565
Mg1_2 Mg1_4 3.179961 1_455
Mg1_3 Zn0_7 2.875545 1_555
Mg1_3 Zn0_1 2.875545 1_555
Mg1_3 Mg2_7 3.012794 1_555
Mg1_3 Mg2_0 3.012794 1_555
Mg1_3 Mg2_6 3.012794 1_555
Mg1_3 Mg2_1 3.012794 1_555
Mg1_3 Mg3_3 3.029015 1_555
Mg1_3 Mg3_2 3.029015 1_555
Mg1_3 Mg1_5 3.179961 1_565
Mg1_3 Mg1_5 3.179961 1_455
Mg1_4 Zn0_6 2.875545 1_545
Mg1_4 Zn0_0 2.875545 1_655
Mg1_4 Mg2_0 3.012794 1_655
Mg1_4 Mg2_1 3.012794 1_654
Mg1_4 Mg2_6 3.012794 1_545
Mg1_4 Mg2_7 3.012794 1_544
Mg1_4 Mg3_5 3.029015 1_554
Mg1_4 Mg3_4 3.029015 1_555
Mg1_5 Zn0_7 2.875545 1_545
Mg1_5 Zn0_1 2.875545 1_655
Mg1_5 Mg2_0 3.012794 1_655
Mg1_5 Mg2_1 3.012794 1_655
Mg1_5 Mg2_7 3.012794 1_545
Mg1_5 Mg2_6 3.012794 1_545
Mg1_5 Mg3_4 3.029015 1_555
Mg1_5 Mg3_5 3.029015 1_555
Mg1_6 Zn0_2 2.875545 1_655
Mg1_6 Zn0_4 2.875545 1_555
Mg1_6 Mg2_5 3.012794 1_554
Mg1_6 Mg2_4 3.012794 1_555
Mg1_6 Mg2_2 3.012794 1_655
Mg1_6 Mg2_3 3.012794 1_654
Mg1_6 Mg3_6 3.029015 1_555
Mg1_6 Mg3_7 3.029015 1_554
Mg1_7 Zn0_3 2.875545 1_655
Mg1_7 Zn0_5 2.875545 1_555
Mg1_7 Mg2_5 3.012794 1_555
Mg1_7 Mg2_4 3.012794 1_555
Mg1_7 Mg2_2 3.012794 1_655
Mg1_7 Mg2_3 3.012794 1_655
Mg1_7 Mg3_6 3.029015 1_555
Mg1_7 Mg3_7 3.029015 1_555
Mg2_0 Zn1_4 2.875545 1_455
Mg2_0 Zn1_2 2.875545 1_555
Mg2_0 Mg2_6 3.179961 1_555
Mg2_0 Mg2_6 3.179961 1_445
Mg2_0 Mg3_2 3.285677 1_555
Mg2_0 Mg3_4 3.285677 1_455
Mg2_1 Zn1_5 2.875545 1_455
Mg2_1 Zn1_3 2.875545 1_555
Mg2_1 Mg2_7 3.179961 1_555
Mg2_1 Mg2_7 3.179961 1_445
Mg2_1 Mg3_3 3.285677 1_555
Mg2_1 Mg3_5 3.285677 1_455
Mg2_2 Zn1_0 2.875545 1_565
Mg2_2 Zn1_6 2.875545 1_455
Mg2_2 Mg2_4 3.179961 1_565
Mg2_2 Mg2_4 3.179961 1_455
Mg2_2 Mg3_6 3.285677 1_455
Mg2_2 Mg3_0 3.285677 1_565
Mg2_3 Zn1_1 2.875545 1_565
Mg2_3 Zn1_7 2.875545 1_455
Mg2_3 Mg2_5 3.179961 1_565
Mg2_3 Mg2_5 3.179961 1_455
Mg2_3 Mg3_7 3.285677 1_455
Mg2_3 Mg3_1 3.285677 1_565
Mg2_4 Zn1_0 2.875545 1_555
Mg2_4 Zn1_6 2.875545 1_555
Mg2_4 Mg3_6 3.285677 1_555
Mg2_4 Mg3_0 3.285677 1_555
Mg2_5 Zn1_1 2.875545 1_555
Mg2_5 Zn1_7 2.875545 1_555
Mg2_5 Mg3_7 3.285677 1_555
Mg2_5 Mg3_1 3.285677 1_555
Mg2_6 Zn1_4 2.875545 1_565
Mg2_6 Zn1_2 2.875545 1_555
Mg2_6 Mg3_2 3.285677 1_555
Mg2_6 Mg3_4 3.285677 1_565
Mg2_7 Zn1_5 2.875545 1_565
Mg2_7 Zn1_3 2.875545 1_555
Mg2_7 Mg3_3 3.285677 1_555
Mg2_7 Mg3_5 3.285677 1_565
Mg3_0 Zn1_2 2.799022 1_545
Mg3_0 Zn1_4 2.799022 1_555
Mg3_0 Zn0_5 2.892434 1_555
Mg3_0 Zn0_2 2.892434 1_545
Mg3_0 Zn0_3 2.892434 1_545
Mg3_0 Zn0_4 2.892434 1_555
Mg3_0 Mg3_6 3.179961 1_555
Mg3_0 Mg3_6 3.179961 1_445
Mg3_1 Zn1_3 2.799022 1_545
Mg3_1 Zn1_5 2.799022 1_555
Mg3_1 Zn0_4 2.892434 1_556
Mg3_1 Zn0_5 2.892434 1_555
Mg3_1 Zn0_2 2.892434 1_546
Mg3_1 Zn0_3 2.892434 1_545
Mg3_1 Mg3_7 3.179961 1_555
Mg3_1 Mg3_7 3.179961 1_445
Mg3_2 Zn1_6 2.799022 1_555
Mg3_2 Zn1_0 2.799022 1_555
Mg3_2 Zn0_1 2.892434 1_555
Mg3_2 Zn0_6 2.892434 1_555
Mg3_2 Zn0_0 2.892434 1_555
Mg3_2 Zn0_7 2.892434 1_555
Mg3_2 Mg3_4 3.179961 1_565
Mg3_2 Mg3_4 3.179961 1_455
Mg3_3 Zn1_7 2.799022 1_555
Mg3_3 Zn1_1 2.799022 1_555
Mg3_3 Zn0_1 2.892434 1_555
Mg3_3 Zn0_0 2.892434 1_556
Mg3_3 Zn0_6 2.892434 1_556
Mg3_3 Zn0_7 2.892434 1_555
Mg3_3 Mg3_5 3.179961 1_565
Mg3_3 Mg3_5 3.179961 1_455
Mg3_4 Zn1_6 2.799022 1_545
Mg3_4 Zn1_0 2.799022 1_655
Mg3_4 Zn0_6 2.892434 1_545
Mg3_4 Zn0_7 2.892434 1_545
Mg3_4 Zn0_0 2.892434 1_655
Mg3_4 Zn0_1 2.892434 1_655
Mg3_5 Zn1_7 2.799022 1_545
Mg3_5 Zn1_1 2.799022 1_655
Mg3_5 Zn0_6 2.892434 1_546
Mg3_5 Zn0_7 2.892434 1_545
Mg3_5 Zn0_0 2.892434 1_656
Mg3_5 Zn0_1 2.892434 1_655
Mg3_6 Zn1_2 2.799022 1_655
Mg3_6 Zn1_4 2.799022 1_555
Mg3_6 Zn0_5 2.892434 1_555
Mg3_6 Zn0_2 2.892434 1_655
Mg3_6 Zn0_3 2.892434 1_655
Mg3_6 Zn0_4 2.892434 1_555
Mg3_7 Zn1_3 2.799022 1_655
Mg3_7 Zn1_5 2.799022 1_555
Mg3_7 Zn0_4 2.892434 1_556
Mg3_7 Zn0_2 2.892434 1_656
Mg3_7 Zn0_5 2.892434 1_555
Mg3_7 Zn0_3 2.892434 1_655
Zn0_0 Zn1_1 2.972104 1_554
Zn0_0 Zn1_0 2.972104 1_555
Zn0_1 Zn1_0 2.972104 1_555
Zn0_1 Zn1_1 2.972104 1_555
Zn0_2 Zn1_3 2.972104 1_554
Zn0_2 Zn1_2 2.972104 1_555
Zn0_3 Zn1_3 2.972104 1_555
Zn0_3 Zn1_2 2.972104 1_555
Zn0_4 Zn1_5 2.972104 1_554
Zn0_4 Zn1_4 2.972104 1_555
Zn0_5 Zn1_5 2.972104 1_555
Zn0_5 Zn1_4 2.972104 1_555
Zn0_6 Zn1_7 2.972104 1_554
Zn0_6 Zn1_6 2.972104 1_555
Zn0_7 Zn1_7 2.972104 1_555
Zn0_7 Zn1_6 2.972104 1_555
