# generated using pymatgen
data_LiCaAl3N4
_symmetry_space_group_name_H-M   'P 1'
_cell_length_a   10.24701262
_cell_length_b   10.24701262
_cell_length_c   10.24701262
_cell_angle_alpha   113.48400140
_cell_angle_beta   113.48400140
_cell_angle_gamma   101.71326698
_symmetry_Int_Tables_number   1
_chemical_formula_structural   LiCaAl3N4
_chemical_formula_sum   'Li8 Ca8 Al24 N32'
_cell_volume   817.09555044
_cell_formula_units_Z   8
loop_
 _symmetry_equiv_pos_site_id
 _symmetry_equiv_pos_as_xyz
  1  'x, y, z'
loop_
 _atom_site_type_symbol
 _atom_site_label
 _atom_site_symmetry_multiplicity
 _atom_site_fract_x
 _atom_site_fract_y
 _atom_site_fract_z
 _atom_site_occupancy
  Li  Li0  1  0.29544200  0.92584400  0.33929000  1
  Li  Li1  1  0.58655400  0.95615200  0.66071000  1
  Li  Li2  1  0.67584400  0.83655400  0.13040200  1
  Li  Li3  1  0.70615200  0.54544200  0.86959800  1
  Li  Li4  1  0.45455800  0.32415600  0.16071000  1
  Li  Li5  1  0.16344600  0.29384800  0.83929000  1
  Li  Li6  1  0.07415600  0.41344600  0.36959800  1
  Li  Li7  1  0.04384800  0.70455800  0.63040200  1
  Ca  Ca0  1  0.32800400  0.81576300  0.02203600  1
  Ca  Ca1  1  0.79372700  0.30596800  0.97796400  1
  Ca  Ca2  1  0.56576300  0.04372700  0.98775900  1
  Ca  Ca3  1  0.05596800  0.57800400  0.01224100  1
  Ca  Ca4  1  0.42199600  0.43423700  0.47796400  1
  Ca  Ca5  1  0.95627300  0.94403200  0.52203600  1
  Ca  Ca6  1  0.18423700  0.20627300  0.51224100  1
  Ca  Ca7  1  0.69403200  0.67199600  0.48775900  1
  Al  Al0  1  0.21715000  0.01347300  0.86342800  1
  Al  Al1  1  0.15004600  0.35372300  0.13657200  1
  Al  Al2  1  0.76347300  0.40004600  0.29632300  1
  Al  Al3  1  0.10372300  0.46715000  0.70367700  1
  Al  Al4  1  0.53285000  0.23652700  0.63657200  1
  Al  Al5  1  0.59995400  0.89627700  0.36342800  1
  Al  Al6  1  0.98652700  0.84995400  0.20367700  1
  Al  Al7  1  0.64627700  0.78285000  0.79632300  1
  Al  Al8  1  0.45525400  0.27427900  0.86100400  1
  Al  Al9  1  0.41327500  0.59425000  0.13899600  1
  Al  Al10  1  0.02427900  0.66327500  0.31902500  1
  Al  Al11  1  0.34425000  0.70525400  0.68097500  1
  Al  Al12  1  0.29474600  0.97572100  0.63899600  1
  Al  Al13  1  0.33672500  0.65575000  0.36100400  1
  Al  Al14  1  0.72572100  0.58672500  0.18097500  1
  Al  Al15  1  0.40575000  0.54474600  0.81902500  1
  Al  Al16  1  0.96337600  0.77695000  0.85787600  1
  Al  Al17  1  0.91907500  0.10550100  0.14212400  1
  Al  Al18  1  0.52695000  0.16907500  0.31357400  1
  Al  Al19  1  0.85550100  0.21337600  0.68642600  1
  Al  Al20  1  0.78662400  0.47305000  0.64212400  1
  Al  Al21  1  0.83092500  0.14449900  0.35787600  1
  Al  Al22  1  0.22305000  0.08092500  0.18642600  1
  Al  Al23  1  0.89449900  0.03662400  0.81357400  1
  N  N0  1  0.38357900  0.77332900  0.26957300  1
  N  N1  1  0.50375600  0.11400600  0.73042700  1
  N  N2  1  0.52332900  0.75375600  0.88975000  1
  N  N3  1  0.86400600  0.63357900  0.11025000  1
  N  N4  1  0.36642100  0.47667100  0.23042700  1
  N  N5  1  0.24624400  0.13599400  0.76957300  1
  N  N6  1  0.22667100  0.49624400  0.61025000  1
  N  N7  1  0.88599400  0.61642100  0.38975000  1
  N  N8  1  0.09099600  0.86872700  0.09173900  1
  N  N9  1  0.77698800  0.99925700  0.90826100  1
  N  N10  1  0.61872700  0.02698800  0.27773000  1
  N  N11  1  0.74925700  0.34099600  0.72227000  1
  N  N12  1  0.65900400  0.38127300  0.40826100  1
  N  N13  1  0.97301200  0.25074300  0.59173900  1
  N  N14  1  0.13127300  0.22301200  0.22227000  1
  N  N15  1  0.00074300  0.90900400  0.77773000  1
  N  N16  1  0.34985400  0.08973600  0.09140300  1
  N  N17  1  0.99833300  0.25845100  0.90859700  1
  N  N18  1  0.83973600  0.24833300  0.23988200  1
  N  N19  1  0.00845100  0.59985400  0.76011800  1
  N  N20  1  0.40014600  0.16026400  0.40859700  1
  N  N21  1  0.75166700  0.99154900  0.59140300  1
  N  N22  1  0.91026400  0.00166700  0.26011800  1
  N  N23  1  0.74154900  0.65014600  0.73988200  1
  N  N24  1  0.61076800  0.36826500  0.08434800  1
  N  N25  1  0.28391700  0.52642000  0.91565200  1
  N  N26  1  0.11826500  0.53391700  0.25749800  1
  N  N27  1  0.27642000  0.86076800  0.74250200  1
  N  N28  1  0.13923200  0.88173500  0.41565200  1
  N  N29  1  0.46608300  0.72358000  0.58434800  1
  N  N30  1  0.63173500  0.71608300  0.24250200  1
  N  N31  1  0.47358000  0.38923200  0.75749800  1
loop_
_geom_bond_atom_site_label_1
_geom_bond_atom_site_label_2
_geom_bond_distance
_geom_bond_site_symmetry_2
Li0 N0 1.991463 1_555
Li0 N28 2.089285 1_555
Li0 N20 2.100542 1_565
Li0 N8 2.291203 1_555
Li1 N1 1.991463 1_565
Li1 N29 2.089285 1_555
Li1 N21 2.100542 1_555
Li1 N9 2.291203 1_555
Li2 N2 1.991463 1_554
Li2 N30 2.089276 1_555
Li2 N22 2.100542 1_565
Li2 N10 2.291199 1_565
Li3 N3 1.991463 1_556
Li3 N31 2.089287 1_555
Li3 N23 2.100542 1_555
Li3 N11 2.291199 1_555
Li4 N4 1.991463 1_555
Li4 N24 2.089285 1_555
Li4 N16 2.100542 1_555
Li4 N12 2.291203 1_555
Li5 N5 1.991463 1_555
Li5 N25 2.089285 1_555
Li5 N17 2.100542 1_455
Li5 N13 2.291203 1_455
Li6 N6 1.991463 1_555
Li6 N26 2.089276 1_555
Li6 N18 2.100542 1_455
Li6 N14 2.291199 1_555
Li7 N7 1.991463 1_455
Li7 N27 2.089287 1_555
Li7 N19 2.100542 1_555
Li7 N15 2.291199 1_555
Ca0 N16 2.542527 1_565
Ca0 N25 2.582792 1_554
Ca0 N0 2.603000 1_555
Ca0 N10 2.658161 1_565
Ca0 N19 2.853443 1_554
Ca0 N2 2.870438 1_554
Ca0 N8 2.882989 1_555
Ca0 N27 2.939706 1_554
Ca1 N17 2.542527 1_555
Ca1 N24 2.582792 1_556
Ca1 N1 2.603000 1_555
Ca1 N11 2.658153 1_555
Ca1 N18 2.853443 1_556
Ca1 N3 2.870438 1_556
Ca1 N9 2.882989 1_545
Ca1 N26 2.939698 1_656
Ca2 N18 2.542527 1_556
Ca2 N27 2.582794 1_545
Ca2 N2 2.603000 1_545
Ca2 N9 2.658163 1_545
Ca2 N16 2.853443 1_556
Ca2 N1 2.870438 1_555
Ca2 N10 2.882979 1_556
Ca2 N24 2.939696 1_556
Ca3 N19 2.542527 1_554
Ca3 N26 2.582802 1_555
Ca3 N3 2.603000 1_455
Ca3 N8 2.658163 1_555
Ca3 N17 2.853443 1_454
Ca3 N0 2.870438 1_555
Ca3 N11 2.882986 1_454
Ca3 N25 2.939696 1_554
Ca4 N20 2.542527 1_555
Ca4 N29 2.582792 1_555
Ca4 N4 2.603000 1_555
Ca4 N14 2.658161 1_555
Ca4 N23 2.853443 1_555
Ca4 N6 2.870438 1_555
Ca4 N12 2.882989 1_555
Ca4 N31 2.939706 1_555
Ca5 N21 2.542527 1_555
Ca5 N28 2.582792 1_655
Ca5 N5 2.603000 1_665
Ca5 N15 2.658153 1_655
Ca5 N22 2.853443 1_565
Ca5 N7 2.870438 1_555
Ca5 N13 2.882989 1_565
Ca5 N30 2.939698 1_555
Ca6 N22 2.542527 1_455
Ca6 N31 2.582794 1_555
Ca6 N6 2.603000 1_555
Ca6 N13 2.658163 1_455
Ca6 N20 2.853443 1_555
Ca6 N5 2.870438 1_555
Ca6 N14 2.882979 1_555
Ca6 N28 2.939696 1_545
Ca7 N23 2.542527 1_555
Ca7 N30 2.582802 1_555
Ca7 N7 2.603000 1_555
Ca7 N12 2.658163 1_555
Ca7 N21 2.853443 1_555
Ca7 N4 2.870438 1_555
Ca7 N15 2.882986 1_655
Ca7 N29 2.939696 1_555
Al0 N16 1.870522 1_556
Al0 N15 1.889307 1_545
Al0 N5 1.904959 1_555
Al0 N27 1.947601 1_545
Al1 N17 1.870523 1_454
Al1 N14 1.889328 1_555
Al1 N4 1.904949 1_555
Al1 N26 1.947599 1_555
Al2 N18 1.870530 1_555
Al2 N12 1.889311 1_555
Al2 N7 1.904951 1_555
Al2 N24 1.947592 1_555
Al3 N19 1.870530 1_555
Al3 N13 1.889311 1_455
Al3 N6 1.904951 1_555
Al3 N25 1.947592 1_555
Al4 N20 1.870522 1_555
Al4 N11 1.889307 1_555
Al4 N1 1.904959 1_555
Al4 N31 1.947601 1_555
Al5 N21 1.870523 1_555
Al5 N10 1.889328 1_565
Al5 N0 1.904949 1_555
Al5 N30 1.947599 1_555
Al6 N22 1.870530 1_565
Al6 N8 1.889311 1_655
Al6 N3 1.904951 1_555
Al6 N28 1.947592 1_655
Al7 N23 1.870530 1_555
Al7 N9 1.889311 1_555
Al7 N2 1.904951 1_555
Al7 N29 1.947592 1_555
Al8 N24 1.848853 1_556
Al8 N5 1.892927 1_555
Al8 N31 1.900613 1_555
Al8 N1 1.960763 1_555
Al9 N25 1.848853 1_554
Al9 N4 1.892927 1_555
Al9 N30 1.900624 1_555
Al9 N0 1.960763 1_555
Al10 N26 1.848850 1_555
Al10 N7 1.892927 1_455
Al10 N28 1.900622 1_555
Al10 N3 1.960763 1_455
Al11 N27 1.848852 1_555
Al11 N6 1.892927 1_555
Al11 N29 1.900622 1_555
Al11 N2 1.960763 1_555
Al12 N28 1.848853 1_555
Al12 N1 1.892927 1_565
Al12 N27 1.900613 1_555
Al12 N5 1.960763 1_565
Al13 N29 1.848853 1_555
Al13 N0 1.892927 1_555
Al13 N26 1.900624 1_555
Al13 N4 1.960763 1_555
Al14 N30 1.848850 1_555
Al14 N3 1.892927 1_555
Al14 N24 1.900622 1_555
Al14 N7 1.960763 1_555
Al15 N31 1.848852 1_555
Al15 N2 1.892927 1_555
Al15 N25 1.900622 1_555
Al15 N6 1.960763 1_555
Al16 N8 1.882600 1_656
Al16 N15 1.891572 1_655
Al16 N23 1.917122 1_555
Al16 N19 1.941709 1_655
Al17 N9 1.882601 1_544
Al17 N14 1.891550 1_655
Al17 N22 1.917132 1_555
Al17 N18 1.941710 1_555
Al18 N10 1.882609 1_555
Al18 N12 1.891556 1_555
Al18 N20 1.917123 1_555
Al18 N16 1.941706 1_555
Al19 N11 1.882610 1_555
Al19 N13 1.891556 1_555
Al19 N21 1.917123 1_545
Al19 N17 1.941706 1_555
Al20 N12 1.882600 1_555
Al20 N11 1.891572 1_555
Al20 N19 1.917122 1_655
Al20 N23 1.941709 1_555
Al21 N13 1.882601 1_555
Al21 N10 1.891550 1_555
Al21 N18 1.917132 1_555
Al21 N22 1.941710 1_555
Al22 N14 1.882609 1_555
Al22 N8 1.891556 1_545
Al22 N16 1.917123 1_555
Al22 N20 1.941706 1_555
Al23 N15 1.882610 1_645
Al23 N9 1.891556 1_545
Al23 N17 1.917123 1_555
Al23 N21 1.941706 1_545
