# generated using pymatgen
data_ZnBiMoO5
_symmetry_space_group_name_H-M   'P 1'
_cell_length_a   5.39060545
_cell_length_b   8.05024882
_cell_length_c   11.92917900
_cell_angle_alpha   90.00000000
_cell_angle_beta   90.00000000
_cell_angle_gamma   104.64984856
_symmetry_Int_Tables_number   1
_chemical_formula_structural   ZnBiMoO5
_chemical_formula_sum   'Zn4 Bi4 Mo4 O20'
_cell_volume   500.84537178
_cell_formula_units_Z   4
loop_
 _symmetry_equiv_pos_site_id
 _symmetry_equiv_pos_as_xyz
  1  'x, y, z'
loop_
 _atom_site_type_symbol
 _atom_site_label
 _atom_site_symmetry_multiplicity
 _atom_site_fract_x
 _atom_site_fract_y
 _atom_site_fract_z
 _atom_site_occupancy
  Zn  Zn0  1  0.60670500  0.16331700  0.91612100  1
  Zn  Zn1  1  0.39329500  0.83668300  0.08387900  1
  Zn  Zn2  1  0.89329500  0.33668300  0.41612100  1
  Zn  Zn3  1  0.10670500  0.66331700  0.58387900  1
  Bi  Bi0  1  0.09843500  0.16015500  0.10274500  1
  Bi  Bi1  1  0.90156500  0.83984500  0.89725500  1
  Bi  Bi2  1  0.59843500  0.66015500  0.39725500  1
  Bi  Bi3  1  0.40156500  0.33984500  0.60274500  1
  Mo  Mo0  1  0.77795400  0.96942500  0.63648200  1
  Mo  Mo1  1  0.22204600  0.03057500  0.36351800  1
  Mo  Mo2  1  0.72204600  0.53057500  0.13648200  1
  Mo  Mo3  1  0.27795400  0.46942500  0.86351800  1
  O  O0  1  0.53448300  0.33089800  0.06944700  1
  O  O1  1  0.99986500  0.32689700  0.93136100  1
  O  O2  1  0.50313900  0.66620800  0.18494000  1
  O  O3  1  0.75611800  0.51406500  0.52467600  1
  O  O4  1  0.78118400  0.48640000  0.29144900  1
  O  O5  1  0.28118400  0.98640000  0.20855100  1
  O  O6  1  0.49986500  0.82689700  0.56863900  1
  O  O7  1  0.50013500  0.17310300  0.43136100  1
  O  O8  1  0.24388200  0.48593500  0.47532400  1
  O  O9  1  0.96551700  0.16910200  0.56944700  1
  O  O10  1  0.21881600  0.51360000  0.70855100  1
  O  O11  1  0.46551700  0.66910200  0.93055300  1
  O  O12  1  0.03448300  0.83089800  0.43055300  1
  O  O13  1  0.71881600  0.01360000  0.79144900  1
  O  O14  1  0.74388200  0.98593500  0.02467600  1
  O  O15  1  0.25611800  0.01406500  0.97532400  1
  O  O16  1  0.49686100  0.33379200  0.81506000  1
  O  O17  1  0.00013500  0.67310300  0.06863900  1
  O  O18  1  0.99686100  0.83379200  0.68494000  1
  O  O19  1  0.00313900  0.16620800  0.31506000  1
loop_
_geom_bond_atom_site_label_1
_geom_bond_atom_site_label_2
_geom_bond_distance
_geom_bond_site_symmetry_2
Bi0 O15 2.218505 1_554
Bi0 O14 2.265253 1_445
Bi0 O5 2.284106 1_545
Bi0 O0 2.436797 1_555
Bi0 O1 2.573864 1_454
Bi0 O19 2.587222 1_555
Bi1 O14 2.218505 1_556
Bi1 O15 2.265253 1_665
Bi1 O13 2.284106 1_565
Bi1 O11 2.436797 1_555
Bi1 O17 2.573864 1_656
Bi1 O18 2.587222 1_555
Bi2 O3 2.218505 1_555
Bi2 O8 2.265253 1_555
Bi2 O4 2.284106 1_555
Bi2 O12 2.436797 1_655
Bi2 O6 2.573864 1_555
Bi2 O2 2.587222 1_555
Bi3 O8 2.218505 1_555
Bi3 O3 2.265253 1_555
Bi3 O10 2.284106 1_555
Bi3 O9 2.436797 1_455
Bi3 O7 2.573864 1_555
Bi3 O16 2.587222 1_555
Mo0 O6 1.829936 1_555
Mo0 O9 1.850286 1_565
Mo0 O18 1.889600 1_555
Mo0 O13 1.924283 1_565
Mo1 O7 1.829936 1_555
Mo1 O12 1.850286 1_545
Mo1 O19 1.889600 1_555
Mo1 O5 1.924283 1_545
Mo2 O17 1.829936 1_655
Mo2 O0 1.850286 1_555
Mo2 O2 1.889600 1_555
Mo2 O4 1.924283 1_555
Mo3 O1 1.829936 1_455
Mo3 O11 1.850286 1_555
Mo3 O16 1.889600 1_555
Mo3 O10 1.924283 1_555
O0 Zn0 2.362765 1_554
O1 Zn0 2.201635 1_555
O2 Zn1 2.024463 1_555
O3 Zn3 2.089371 1_655
O3 Zn2 2.190200 1_555
O4 Zn2 2.097186 1_555
O5 Zn1 2.097186 1_555
O6 Zn3 2.201635 1_555
O7 Zn2 2.201635 1_555
O8 Zn2 2.089371 1_455
O8 Zn3 2.190200 1_555
O9 Zn2 2.362765 1_555
O10 Zn3 2.097186 1_555
O11 Zn1 2.362765 1_556
O12 Zn3 2.362765 1_555
O13 Zn0 2.097186 1_555
O14 Zn1 2.089371 1_555
O14 Zn0 2.190200 1_564
O15 Zn0 2.089371 1_555
O15 Zn1 2.190200 1_546
O16 Zn0 2.024463 1_555
O17 Zn1 2.201635 1_555
O18 Zn3 2.024463 1_655
O19 Zn2 2.024463 1_455
