# generated using pymatgen
data_HfCdO3
_symmetry_space_group_name_H-M   'P 1'
_cell_length_a   5.49403226
_cell_length_b   5.65745168
_cell_length_c   7.95897904
_cell_angle_alpha   90.00000000
_cell_angle_beta   90.00000000
_cell_angle_gamma   90.00000000
_symmetry_Int_Tables_number   1
_chemical_formula_structural   HfCdO3
_chemical_formula_sum   'Hf4 Cd4 O12'
_cell_volume   247.38275373
_cell_formula_units_Z   4
loop_
 _symmetry_equiv_pos_site_id
 _symmetry_equiv_pos_as_xyz
  1  'x, y, z'
loop_
 _atom_site_type_symbol
 _atom_site_label
 _atom_site_symmetry_multiplicity
 _atom_site_fract_x
 _atom_site_fract_y
 _atom_site_fract_z
 _atom_site_occupancy
  Hf  Hf0  1  -0.00000000  -0.00000000  0.00000000  1
  Hf  Hf1  1  0.50000000  0.50000000  0.00000000  1
  Hf  Hf2  1  -0.00000000  -0.00000000  0.50000000  1
  Hf  Hf3  1  0.50000000  0.50000000  0.50000000  1
  Cd  Cd0  1  0.01049482  0.45468192  0.25000000  1
  Cd  Cd1  1  0.98950518  0.54531808  0.75000000  1
  Cd  Cd2  1  0.51049482  0.04531808  0.75000000  1
  Cd  Cd3  1  0.48950518  0.95468192  0.25000000  1
  O  O0  1  0.30825682  0.19539614  0.05743702  1
  O  O1  1  0.69174318  0.80460386  0.94256298  1
  O  O2  1  0.80825682  0.30460386  0.94256298  1
  O  O3  1  0.69174318  0.80460386  0.55743702  1
  O  O4  1  0.19174318  0.69539614  0.05743702  1
  O  O5  1  0.30825682  0.19539614  0.44256298  1
  O  O6  1  0.19174318  0.69539614  0.44256298  1
  O  O7  1  0.80825682  0.30460386  0.55743702  1
  O  O8  1  0.60798625  0.54538394  0.25000000  1
  O  O9  1  0.39201375  0.45461606  0.75000000  1
  O  O10  1  0.10798625  0.95461606  0.75000000  1
  O  O11  1  0.89201375  0.04538394  0.25000000  1
loop_
_geom_bond_atom_site_label_1
_geom_bond_atom_site_label_2
_geom_bond_distance
_geom_bond_site_symmetry_2
Hf0 O2 2.070850 1_454
Hf0 O4 2.070850 1_545
Hf0 O1 2.073445 1_444
Hf0 O0 2.073445 1_555
Hf0 O10 2.092126 1_544
Hf0 O11 2.092126 1_455
Hf1 O0 2.070850 1_555
Hf1 O1 2.070850 1_554
Hf1 O2 2.073445 1_554
Hf1 O4 2.073445 1_555
Hf1 O9 2.092126 1_554
Hf1 O8 2.092126 1_555
Hf2 O6 2.070850 1_545
Hf2 O7 2.070850 1_455
Hf2 O3 2.073445 1_445
Hf2 O5 2.073445 1_555
Hf2 O10 2.092126 1_545
Hf2 O11 2.092126 1_455
Hf3 O5 2.070850 1_555
Hf3 O3 2.070850 1_555
Hf3 O7 2.073445 1_555
Hf3 O6 2.073445 1_555
Hf3 O9 2.092126 1_555
Hf3 O8 2.092126 1_555
Cd0 O8 2.270150 1_455
Cd0 O6 2.279263 1_555
Cd0 O4 2.279263 1_555
Cd0 O11 2.405338 1_455
Cd0 O5 2.678970 1_555
Cd0 O0 2.678970 1_555
Cd0 O2 2.818279 1_454
Cd0 O7 2.818279 1_455
Cd1 O9 2.270150 1_655
Cd1 O7 2.279263 1_555
Cd1 O2 2.279263 1_555
Cd1 O10 2.405338 1_655
Cd1 O3 2.678970 1_555
Cd1 O1 2.678970 1_555
Cd1 O6 2.818279 1_655
Cd1 O4 2.818279 1_656
Cd2 O10 2.270150 1_545
Cd2 O3 2.279263 1_545
Cd2 O1 2.279263 1_545
Cd2 O9 2.405338 1_555
Cd2 O7 2.678970 1_555
Cd2 O2 2.678970 1_555
Cd2 O5 2.818279 1_555
Cd2 O0 2.818279 1_556
Cd3 O11 2.270150 1_565
Cd3 O5 2.279263 1_565
Cd3 O0 2.279263 1_565
Cd3 O8 2.405338 1_555
Cd3 O4 2.678970 1_555
Cd3 O6 2.678970 1_555
Cd3 O1 2.818279 1_554
Cd3 O3 2.818279 1_555
