# generated using pymatgen
data_KPt
_symmetry_space_group_name_H-M   'P 1'
_cell_length_a   6.00153400
_cell_length_b   6.00185511
_cell_length_c   10.69115600
_cell_angle_alpha   90.00000536
_cell_angle_beta   89.99998928
_cell_angle_gamma   119.99599032
_symmetry_Int_Tables_number   1
_chemical_formula_structural   KPt
_chemical_formula_sum   'K8 Pt8'
_cell_volume   333.51903255
_cell_formula_units_Z   8
loop_
 _symmetry_equiv_pos_site_id
 _symmetry_equiv_pos_as_xyz
  1  'x, y, z'
loop_
 _atom_site_type_symbol
 _atom_site_label
 _atom_site_symmetry_multiplicity
 _atom_site_fract_x
 _atom_site_fract_y
 _atom_site_fract_z
 _atom_site_occupancy
  K  K0_0  1  0.33333650  0.16665550  0.37499950  1
  K  K0_1  1  0.33333650  0.16665550  0.87499950  1
  K  K0_2  1  0.33333650  0.66665550  0.37499950  1
  K  K0_3  1  0.33333650  0.66665550  0.87499950  1
  K  K0_4  1  0.83333650  0.16665550  0.37499950  1
  K  K0_5  1  0.83333650  0.16665550  0.87499950  1
  K  K0_6  1  0.83333650  0.66665550  0.37499950  1
  K  K0_7  1  0.83333650  0.66665550  0.87499950  1
  Pt  Pt0_0  1  0.16666350  0.33334350  0.12500050  1
  Pt  Pt0_1  1  0.16666350  0.33334350  0.62500050  1
  Pt  Pt0_2  1  0.16666350  0.83334350  0.12500050  1
  Pt  Pt0_3  1  0.16666350  0.83334350  0.62500050  1
  Pt  Pt0_4  1  0.66666350  0.33334350  0.12500050  1
  Pt  Pt0_5  1  0.66666350  0.33334350  0.62500050  1
  Pt  Pt0_6  1  0.66666350  0.83334350  0.12500050  1
  Pt  Pt0_7  1  0.66666350  0.83334350  0.62500050  1
loop_
_geom_bond_atom_site_label_1
_geom_bond_atom_site_label_2
_geom_bond_distance
_geom_bond_site_symmetry_2
K0_0 K0_4 3.000767 1_555
K0_0 K0_4 3.000767 1_455
K0_0 K0_2 3.000928 1_555
K0_0 K0_2 3.000928 1_545
K0_0 K0_6 3.001029 1_555
K0_0 K0_6 3.001029 1_445
K0_0 Pt0_4 3.185185 1_555
K0_0 Pt0_2 3.185193 1_545
K0_0 Pt0_5 3.185204 1_555
K0_0 Pt0_3 3.185211 1_545
K0_0 Pt0_0 3.185250 1_555
K0_0 Pt0_1 3.185267 1_555
K0_1 K0_5 3.000767 1_455
K0_1 K0_5 3.000767 1_555
K0_1 K0_3 3.000928 1_545
K0_1 K0_3 3.000928 1_555
K0_1 K0_7 3.001029 1_445
K0_1 K0_7 3.001029 1_555
K0_1 Pt0_5 3.185185 1_555
K0_1 Pt0_3 3.185193 1_545
K0_1 Pt0_4 3.185204 1_556
K0_1 Pt0_2 3.185211 1_546
K0_1 Pt0_1 3.185250 1_555
K0_1 Pt0_0 3.185267 1_556
K0_2 K0_6 3.000767 1_555
K0_2 K0_6 3.000767 1_455
K0_2 K0_4 3.001029 1_455
K0_2 K0_4 3.001029 1_565
K0_2 Pt0_6 3.185185 1_555
K0_2 Pt0_0 3.185193 1_555
K0_2 Pt0_7 3.185204 1_555
K0_2 Pt0_1 3.185211 1_555
K0_2 Pt0_2 3.185250 1_555
K0_2 Pt0_3 3.185267 1_555
K0_3 K0_7 3.000767 1_455
K0_3 K0_7 3.000767 1_555
K0_3 K0_5 3.001029 1_455
K0_3 K0_5 3.001029 1_565
K0_3 Pt0_7 3.185185 1_555
K0_3 Pt0_1 3.185193 1_555
K0_3 Pt0_6 3.185204 1_556
K0_3 Pt0_0 3.185211 1_556
K0_3 Pt0_3 3.185250 1_555
K0_3 Pt0_2 3.185267 1_556
K0_4 K0_6 3.000928 1_545
K0_4 K0_6 3.000928 1_555
K0_4 Pt0_0 3.185185 1_655
K0_4 Pt0_6 3.185193 1_545
K0_4 Pt0_1 3.185204 1_655
K0_4 Pt0_7 3.185211 1_545
K0_4 Pt0_4 3.185250 1_555
K0_4 Pt0_5 3.185267 1_555
K0_5 K0_7 3.000928 1_545
K0_5 K0_7 3.000928 1_555
K0_5 Pt0_1 3.185185 1_655
K0_5 Pt0_7 3.185193 1_545
K0_5 Pt0_0 3.185204 1_656
K0_5 Pt0_6 3.185211 1_546
K0_5 Pt0_5 3.185250 1_555
K0_5 Pt0_4 3.185267 1_556
K0_6 Pt0_2 3.185185 1_655
K0_6 Pt0_4 3.185193 1_555
K0_6 Pt0_3 3.185204 1_655
K0_6 Pt0_5 3.185211 1_555
K0_6 Pt0_6 3.185250 1_555
K0_6 Pt0_7 3.185267 1_555
K0_7 Pt0_3 3.185185 1_655
K0_7 Pt0_5 3.185193 1_555
K0_7 Pt0_2 3.185204 1_656
K0_7 Pt0_4 3.185211 1_556
K0_7 Pt0_7 3.185250 1_555
K0_7 Pt0_6 3.185267 1_556
Pt0_0 Pt0_4 3.000767 1_555
Pt0_0 Pt0_4 3.000767 1_455
Pt0_0 Pt0_2 3.000928 1_545
Pt0_0 Pt0_2 3.000928 1_555
Pt0_0 Pt0_6 3.001029 1_555
Pt0_0 Pt0_6 3.001029 1_445
Pt0_1 Pt0_5 3.000767 1_455
Pt0_1 Pt0_5 3.000767 1_555
Pt0_1 Pt0_3 3.000928 1_545
Pt0_1 Pt0_3 3.000928 1_555
Pt0_1 Pt0_7 3.001029 1_555
Pt0_1 Pt0_7 3.001029 1_445
Pt0_2 Pt0_6 3.000767 1_555
Pt0_2 Pt0_6 3.000767 1_455
Pt0_2 Pt0_4 3.001029 1_565
Pt0_2 Pt0_4 3.001029 1_455
Pt0_3 Pt0_7 3.000767 1_555
Pt0_3 Pt0_7 3.000767 1_455
Pt0_3 Pt0_5 3.001029 1_455
Pt0_3 Pt0_5 3.001029 1_565
Pt0_4 Pt0_6 3.000928 1_555
Pt0_4 Pt0_6 3.000928 1_545
Pt0_5 Pt0_7 3.000928 1_555
Pt0_5 Pt0_7 3.000928 1_545
