# generated using pymatgen
data_Na2LuC2O6F
_symmetry_space_group_name_H-M   'P 1'
_cell_length_a   9.10417110
_cell_length_b   9.10417110
_cell_length_c   11.09230560
_cell_angle_alpha   87.71155891
_cell_angle_beta   87.71155891
_cell_angle_gamma   38.50631889
_symmetry_Int_Tables_number   1
_chemical_formula_structural   Na2LuC2O6F
_chemical_formula_sum   'Na8 Lu4 C8 O24 F4'
_cell_volume   571.90463046
_cell_formula_units_Z   4
loop_
 _symmetry_equiv_pos_site_id
 _symmetry_equiv_pos_as_xyz
  1  'x, y, z'
loop_
 _atom_site_type_symbol
 _atom_site_label
 _atom_site_symmetry_multiplicity
 _atom_site_fract_x
 _atom_site_fract_y
 _atom_site_fract_z
 _atom_site_occupancy
  Na  Na0  1  0.47980617  0.29929584  0.87894932  1
  Na  Na1  1  0.70070416  0.52019383  0.62105068  1
  Na  Na2  1  0.52019383  0.70070416  0.12105068  1
  Na  Na3  1  0.29929584  0.47980617  0.37894932  1
  Na  Na4  1  0.84886565  0.66345397  0.86240801  1
  Na  Na5  1  0.33654603  0.15113435  0.63759199  1
  Na  Na6  1  0.15113435  0.33654603  0.13759199  1
  Na  Na7  1  0.66345397  0.84886565  0.36240801  1
  Lu  Lu0  1  0.09683793  0.78337927  0.62740051  1
  Lu  Lu1  1  0.21662073  0.90316207  0.87259949  1
  Lu  Lu2  1  0.90316207  0.21662073  0.37259949  1
  Lu  Lu3  1  0.78337927  0.09683793  0.12740051  1
  C  C0  1  0.64457712  0.23540540  0.61535461  1
  C  C1  1  0.76459460  0.35542288  0.88464539  1
  C  C2  1  0.35542288  0.76459460  0.38464539  1
  C  C3  1  0.23540540  0.64457712  0.11535461  1
  C  C4  1  0.87611232  0.70922290  0.58160255  1
  C  C5  1  0.29077710  0.12388768  0.91839745  1
  C  C6  1  0.12388768  0.29077710  0.41839745  1
  C  C7  1  0.70922290  0.87611232  0.08160255  1
  O  O0  1  0.43220138  0.42110225  0.58319344  1
  O  O1  1  0.57889775  0.56779862  0.91680656  1
  O  O2  1  0.56779862  0.57889775  0.41680656  1
  O  O3  1  0.42110225  0.43220138  0.08319344  1
  O  O4  1  0.70351287  0.09638984  0.70000891  1
  O  O5  1  0.90361016  0.29648713  0.79999109  1
  O  O6  1  0.29648713  0.90361016  0.29999109  1
  O  O7  1  0.09638984  0.70351287  0.20000891  1
  O  O8  1  0.18252992  0.82629577  0.43719210  1
  O  O9  1  0.17370423  0.81747008  0.06280790  1
  O  O10  1  0.81747008  0.17370423  0.56280790  1
  O  O11  1  0.82629577  0.18252992  0.93719210  1
  O  O12  1  0.00687045  0.60881214  0.67698354  1
  O  O13  1  0.39118786  0.99312955  0.82301646  1
  O  O14  1  0.99312955  0.39118786  0.32301646  1
  O  O15  1  0.60881214  0.00687045  0.17698354  1
  O  O16  1  0.92850453  0.76681177  0.49585727  1
  O  O17  1  0.23318823  0.07149547  0.00414273  1
  O  O18  1  0.07149547  0.23318823  0.50414273  1
  O  O19  1  0.76681177  0.92850453  0.99585727  1
  O  O20  1  0.70311602  0.75810737  0.57174772  1
  O  O21  1  0.24189263  0.29688398  0.92825228  1
  O  O22  1  0.29688398  0.24189263  0.42825228  1
  O  O23  1  0.75810737  0.70311602  0.07174772  1
  F  F0  1  0.18461057  0.69903842  0.81829839  1
  F  F1  1  0.30096158  0.81538943  0.68170161  1
  F  F2  1  0.81538943  0.30096158  0.18170161  1
  F  F3  1  0.69903842  0.18461057  0.31829839  1
loop_
_geom_bond_atom_site_label_1
_geom_bond_atom_site_label_2
_geom_bond_distance
_geom_bond_site_symmetry_2
Na0 O21 2.229355 1_555
Na0 O4 2.362589 1_555
Na0 O3 2.447959 1_556
Na0 O19 2.453730 1_545
Na0 O11 2.521485 1_555
Na1 O20 2.229355 1_555
Na1 O5 2.362589 1_555
Na1 O2 2.447959 1_555
Na1 O18 2.453730 1_655
Na1 O10 2.521485 1_555
Na2 O23 2.229355 1_555
Na2 O6 2.362589 1_555
Na2 O1 2.447959 1_554
Na2 O17 2.453730 1_565
Na2 O9 2.521485 1_555
Na3 O22 2.229355 1_555
Na3 O7 2.362589 1_555
Na3 O0 2.447959 1_555
Na3 O16 2.453730 1_455
Na3 O8 2.521485 1_555
Na4 O12 2.296208 1_655
Na4 O23 2.377365 1_556
Na4 O21 2.408137 1_655
Na4 O19 2.438809 1_555
Na4 O13 2.651201 1_555
Na5 O13 2.296208 1_545
Na5 O22 2.377365 1_555
Na5 O20 2.408137 1_545
Na5 O18 2.438809 1_555
Na5 O12 2.651201 1_555
Na6 O14 2.296208 1_455
Na6 O21 2.377365 1_554
Na6 O23 2.408137 1_455
Na6 O17 2.438809 1_555
Na6 O15 2.651201 1_555
Na7 O15 2.296208 1_565
Na7 O20 2.377365 1_555
Na7 O22 2.408137 1_565
Na7 O16 2.438809 1_555
Na7 O14 2.651201 1_555
Lu0 O0 2.165599 1_555
Lu0 O16 2.249084 1_455
Lu0 O10 2.325276 1_465
Lu0 O12 2.330405 1_555
Lu0 O8 2.343620 1_555
Lu0 O4 2.361023 1_465
Lu1 O1 2.165599 1_555
Lu1 O17 2.249084 1_566
Lu1 O11 2.325276 1_465
Lu1 O13 2.330405 1_555
Lu1 O9 2.343620 1_556
Lu1 O5 2.361023 1_465
Lu2 O2 2.165599 1_555
Lu2 O18 2.249084 1_655
Lu2 O8 2.325276 1_645
Lu2 O14 2.330405 1_555
Lu2 O10 2.343620 1_555
Lu2 O6 2.361023 1_645
Lu3 O3 2.165599 1_555
Lu3 O19 2.249084 1_544
Lu3 O9 2.325276 1_645
Lu3 O15 2.330405 1_555
Lu3 O11 2.343620 1_554
Lu3 O7 2.361023 1_645
C0 O0 1.270770 1_555
C0 O4 1.286059 1_555
C0 O10 1.304583 1_555
C1 O1 1.270770 1_555
C1 O5 1.286059 1_555
C1 O11 1.304583 1_555
C2 O2 1.270770 1_555
C2 O6 1.286059 1_555
C2 O8 1.304583 1_555
C3 O3 1.270770 1_555
C3 O7 1.286059 1_555
C3 O9 1.304583 1_555
C4 O20 1.266265 1_555
C4 O12 1.300898 1_655
C4 O16 1.312391 1_555
C5 O21 1.266265 1_555
C5 O13 1.300898 1_545
C5 O17 1.312391 1_556
C6 O22 1.266265 1_555
C6 O14 1.300898 1_455
C6 O18 1.312391 1_555
C7 O23 1.266265 1_555
C7 O15 1.300898 1_565
C7 O19 1.312391 1_554
F0 Lu0 2.181036 1_555
F0 Lu1 2.202796 1_555
F0 Na0 2.358232 1_555
F1 Lu1 2.181036 1_555
F1 Lu0 2.202796 1_555
F1 Na1 2.358232 1_555
F2 Lu2 2.181036 1_555
F2 Lu3 2.202796 1_555
F2 Na2 2.358232 1_555
F3 Lu3 2.181036 1_555
F3 Lu2 2.202796 1_555
F3 Na3 2.358232 1_555
