# generated using pymatgen
data_Mn2ZnO4
_symmetry_space_group_name_H-M   'P 1'
_cell_length_a   5.71624738
_cell_length_b   5.71623521
_cell_length_c   6.14961926
_cell_angle_alpha   117.73127832
_cell_angle_beta   117.73157321
_cell_angle_gamma   89.96639720
_symmetry_Int_Tables_number   1
_chemical_formula_structural   Mn2ZnO4
_chemical_formula_sum   'Mn4 Zn2 O8'
_cell_volume   151.33353656
_cell_formula_units_Z   2
loop_
 _symmetry_equiv_pos_site_id
 _symmetry_equiv_pos_as_xyz
  1  'x, y, z'
loop_
 _atom_site_type_symbol
 _atom_site_label
 _atom_site_symmetry_multiplicity
 _atom_site_fract_x
 _atom_site_fract_y
 _atom_site_fract_z
 _atom_site_occupancy
  Mn  Mn0  1  0.00000049  -0.00000561  0.99999863  1
  Mn  Mn1  1  0.49999518  -0.00000112  0.49999437  1
  Mn  Mn2  1  0.99999716  -0.00000293  0.49999613  1
  Mn  Mn3  1  0.99999500  0.49999000  0.99999015  1
  Zn  Zn0  1  0.62523451  0.37476345  0.25000067  1
  Zn  Zn1  1  0.37476724  0.62522978  0.74999983  1
  O  O0  1  0.75498282  0.77856726  0.50974081  1
  O  O1  1  0.76885441  0.24523013  0.99023797  1
  O  O2  1  0.22143433  0.24501029  0.99025714  1
  O  O3  1  0.24501331  0.22143413  0.49025368  1
  O  O4  1  0.24522210  0.76885701  0.49024047  1
  O  O5  1  0.23115069  0.75477700  0.00976641  1
  O  O6  1  0.75478458  0.23115607  0.50977398  1
  O  O7  1  0.77856818  0.75499354  0.00974876  1
loop_
_geom_bond_atom_site_label_1
_geom_bond_atom_site_label_2
_geom_bond_distance
_geom_bond_site_symmetry_2
Mn0 O5 1.927852 1_546
Mn0 O1 1.927912 1_455
Mn0 O7 1.928201 1_446
Mn0 O2 1.928235 1_555
Mn0 O3 2.274663 1_556
Mn0 O0 2.274681 1_445
Mn1 O3 1.928041 1_555
Mn1 O0 1.928051 1_545
Mn1 O4 1.928075 1_545
Mn1 O6 1.928102 1_555
Mn1 O5 2.274448 1_545
Mn1 O1 2.274522 1_555
Mn2 O4 1.927842 1_645
Mn2 O6 1.927869 1_555
Mn2 O0 1.928227 1_545
Mn2 O3 1.928253 1_655
Mn2 O7 2.274631 1_545
Mn2 O2 2.274694 1_655
Mn3 O1 1.928021 1_555
Mn3 O2 1.928048 1_655
Mn3 O7 1.928099 1_556
Mn3 O5 1.928099 1_656
Mn3 O6 2.274392 1_555
Mn3 O4 2.274555 1_656
O0 Zn0 1.974241 1_555
O1 Zn0 1.973087 1_556
O2 Zn0 1.974224 1_556
O3 Zn1 1.974207 1_555
O4 Zn1 1.973096 1_555
O5 Zn1 1.973092 1_554
O6 Zn0 1.973077 1_555
O7 Zn1 1.974231 1_554
