# generated using pymatgen
data_AlGa(CuS2)2
_symmetry_space_group_name_H-M   'P 1'
_cell_length_a   5.36085300
_cell_length_b   5.36085300
_cell_length_c   6.49202742
_cell_angle_alpha   65.61414134
_cell_angle_beta   65.61414134
_cell_angle_gamma   90.00000000
_symmetry_Int_Tables_number   1
_chemical_formula_structural   AlGa(CuS2)2
_chemical_formula_sum   'Al1 Ga1 Cu2 S4'
_cell_volume   151.46450862
_cell_formula_units_Z   1
loop_
 _symmetry_equiv_pos_site_id
 _symmetry_equiv_pos_as_xyz
  1  'x, y, z'
loop_
 _atom_site_type_symbol
 _atom_site_label
 _atom_site_symmetry_multiplicity
 _atom_site_fract_x
 _atom_site_fract_y
 _atom_site_fract_z
 _atom_site_occupancy
  Al  Al0  1  0.50000000  0.50000000  0.00000000  1
  Ga  Ga0  1  0.25000000  0.75000000  0.50000000  1
  Cu  Cu0  1  0.75000000  0.25000000  0.50000000  1
  Cu  Cu1  1  0.00000000  0.00000000  0.00000000  1
  S  S0  1  0.37633500  0.87053300  0.75283200  1
  S  S1  1  0.87083300  0.37663500  0.75283200  1
  S  S2  1  0.12946700  0.12916700  0.24716800  1
  S  S3  1  0.62336500  0.62366500  0.24716800  1
loop_
_geom_bond_atom_site_label_1
_geom_bond_atom_site_label_2
_geom_bond_distance
_geom_bond_site_symmetry_2
Al0 S3 2.281756 1_555
Al0 S0 2.281757 1_554
Al0 S1 2.281757 1_554
Al0 S2 2.281757 1_555
Ga0 S0 2.316061 1_555
Ga0 S3 2.316061 1_555
Ga0 S2 2.316061 1_565
Ga0 S1 2.316061 1_455
Cu0 S1 2.317921 1_555
Cu0 S3 2.317921 1_555
Cu0 S2 2.317921 1_655
Cu0 S0 2.317922 1_545
Cu1 S2 2.318007 1_555
Cu1 S0 2.318007 1_544
Cu1 S1 2.318007 1_454
Cu1 S3 2.318007 1_445
