# generated using pymatgen
data_LuCo(CN)6
_symmetry_space_group_name_H-M   'P 1'
_cell_length_a   7.38140382
_cell_length_b   7.38140382
_cell_length_c   12.82075500
_cell_angle_alpha   90.00000000
_cell_angle_beta   90.00000000
_cell_angle_gamma   120.00076922
_symmetry_Int_Tables_number   1
_chemical_formula_structural   LuCo(CN)6
_chemical_formula_sum   'Lu2 Co2 C12 N12'
_cell_volume   604.94904734
_cell_formula_units_Z   2
loop_
 _symmetry_equiv_pos_site_id
 _symmetry_equiv_pos_as_xyz
  1  'x, y, z'
loop_
 _atom_site_type_symbol
 _atom_site_label
 _atom_site_symmetry_multiplicity
 _atom_site_fract_x
 _atom_site_fract_y
 _atom_site_fract_z
 _atom_site_occupancy
  Lu  Lu0  1  0.66667400  0.33332600  0.75000000  1
  Lu  Lu1  1  0.33332600  0.66667400  0.25000000  1
  Co  Co0  1  0.00000000  0.00000000  0.50000000  1
  Co  Co1  1  0.00000000  0.00000000  0.00000000  1
  C  C0  1  0.88118300  0.76236600  0.58404100  1
  C  C1  1  0.88118700  0.11881300  0.58403900  1
  C  C2  1  0.23763400  0.11881700  0.58404100  1
  C  C3  1  0.11881700  0.23763400  0.41595900  1
  C  C4  1  0.11881300  0.88118700  0.41596100  1
  C  C5  1  0.76236600  0.88118300  0.41595900  1
  C  C6  1  0.11881700  0.23763400  0.08404100  1
  C  C7  1  0.11881300  0.88118700  0.08403900  1
  C  C8  1  0.76236600  0.88118300  0.08404100  1
  C  C9  1  0.88118300  0.76236600  0.91595900  1
  C  C10  1  0.88118700  0.11881300  0.91596100  1
  C  C11  1  0.23763400  0.11881700  0.91595900  1
  N  N0  1  0.80711100  0.61421400  0.63765100  1
  N  N1  1  0.80711300  0.19288700  0.63765100  1
  N  N2  1  0.38578600  0.19288900  0.63765100  1
  N  N3  1  0.19288900  0.38578600  0.36234900  1
  N  N4  1  0.19288700  0.80711300  0.36234900  1
  N  N5  1  0.61421400  0.80711100  0.36234900  1
  N  N6  1  0.19288900  0.38578600  0.13765100  1
  N  N7  1  0.19288700  0.80711300  0.13765100  1
  N  N8  1  0.61421400  0.80711100  0.13765100  1
  N  N9  1  0.80711100  0.61421400  0.86234900  1
  N  N10  1  0.80711300  0.19288700  0.86234900  1
  N  N11  1  0.38578600  0.19288900  0.86234900  1
loop_
_geom_bond_atom_site_label_1
_geom_bond_atom_site_label_2
_geom_bond_distance
_geom_bond_site_symmetry_2
Lu0 N10 2.301874 1_555
Lu0 N1 2.301874 1_555
Lu0 N9 2.301907 1_555
Lu0 N0 2.301907 1_555
Lu0 N11 2.301907 1_555
Lu0 N2 2.301907 1_555
Lu1 N4 2.301874 1_555
Lu1 N7 2.301874 1_555
Lu1 N5 2.301907 1_555
Lu1 N8 2.301907 1_555
Lu1 N3 2.301907 1_555
Lu1 N6 2.301907 1_555
C0 N0 1.170178 1_555
C0 Co0 1.862386 1_665
C1 N1 1.170181 1_555
C1 Co0 1.862344 1_655
C2 N2 1.170178 1_555
C2 Co0 1.862386 1_555
C3 N3 1.170178 1_555
C3 Co0 1.862386 1_555
C4 N4 1.170181 1_555
C4 Co0 1.862344 1_565
C5 N5 1.170178 1_555
C5 Co0 1.862386 1_665
C6 N6 1.170178 1_555
C6 Co1 1.862386 1_555
C7 N7 1.170181 1_555
C7 Co1 1.862344 1_565
C8 N8 1.170178 1_555
C8 Co1 1.862386 1_665
C9 N9 1.170178 1_555
C9 Co1 1.862386 1_666
C10 N10 1.170181 1_555
C10 Co1 1.862344 1_656
C11 N11 1.170178 1_555
C11 Co1 1.862386 1_556
