# generated using pymatgen
data_TmTiFe11
_symmetry_space_group_name_H-M   'P 1'
_cell_length_a   4.67445400
_cell_length_b   6.41838400
_cell_length_c   6.41838400
_cell_angle_alpha   98.14530636
_cell_angle_beta   111.35500812
_cell_angle_gamma   68.64499188
_symmetry_Int_Tables_number   1
_chemical_formula_structural   TmTiFe11
_chemical_formula_sum   'Tm1 Ti1 Fe11'
_cell_volume   167.02323866
_cell_formula_units_Z   1
loop_
 _symmetry_equiv_pos_site_id
 _symmetry_equiv_pos_as_xyz
  1  'x, y, z'
loop_
 _atom_site_type_symbol
 _atom_site_label
 _atom_site_symmetry_multiplicity
 _atom_site_fract_x
 _atom_site_fract_y
 _atom_site_fract_z
 _atom_site_occupancy
  Tm  Tm0  1  0.00625100  0.99374900  0.00625100  1
  Ti  Ti0  1  0.63158500  0.36841500  0.63158500  1
  Fe  Fe0  1  0.72871200  0.77128800  0.22871200  1
  Fe  Fe1  1  0.27624000  0.22376000  0.77624000  1
  Fe  Fe2  1  0.49954200  0.78361700  0.78270100  1
  Fe  Fe3  1  0.49954200  0.21729900  0.21638300  1
  Fe  Fe4  1  0.50089800  0.99759700  0.50033100  1
  Fe  Fe5  1  0.00183600  0.99759700  0.50033100  1
  Fe  Fe6  1  0.50089800  0.49966900  0.00240300  1
  Fe  Fe7  1  0.00183600  0.49966900  0.00240300  1
  Fe  Fe8  1  0.35270800  0.64729200  0.35270800  1
  Fe  Fe9  1  0.99997700  0.35568000  0.35563300  1
  Fe  Fe10  1  0.99997700  0.64436700  0.64432000  1
loop_
_geom_bond_atom_site_label_1
_geom_bond_atom_site_label_2
_geom_bond_distance
_geom_bond_site_symmetry_2
Ti0 Tm0 3.183875 1_646
Fe0 Fe4 2.406482 1_555
Fe0 Fe6 2.406482 1_555
Fe0 Fe5 2.406482 1_655
Fe0 Fe7 2.406482 1_655
Fe0 Fe8 2.563772 1_555
Fe0 Fe8 2.563772 1_655
Fe0 Fe9 2.605237 1_555
Fe0 Fe10 2.605237 1_555
Fe0 Fe3 2.667915 1_565
Fe0 Fe2 2.667915 1_554
Fe0 Tm0 3.006067 1_655
Fe0 Tm0 3.006067 1_555
Fe1 Fe6 2.421112 1_556
Fe1 Fe4 2.421112 1_545
Fe1 Fe7 2.421112 1_556
Fe1 Fe5 2.421112 1_545
Fe1 Fe2 2.631735 1_545
Fe1 Fe3 2.631735 1_556
Fe1 Ti0 2.640780 1_555
Fe1 Ti0 2.640780 1_455
Fe1 Fe10 2.642899 1_455
Fe1 Fe9 2.642899 1_455
Fe1 Tm0 3.046823 1_546
Fe1 Tm0 3.046824 1_646
Fe2 Fe4 2.427132 1_555
Fe2 Fe5 2.427132 1_555
Fe2 Fe6 2.454239 1_556
Fe2 Fe7 2.454240 1_656
Fe2 Ti0 2.632331 1_555
Fe2 Fe8 2.688315 1_555
Fe2 Tm0 2.964967 1_556
Fe2 Tm0 2.964967 1_656
Fe3 Fe6 2.427132 1_555
Fe3 Fe7 2.427132 1_555
Fe3 Fe4 2.454239 1_545
Fe3 Fe5 2.454240 1_645
Fe3 Fe9 2.612536 1_455
Fe3 Fe9 2.612541 1_555
Fe3 Ti0 2.632331 1_555
Fe3 Fe8 2.688315 1_555
Fe3 Tm0 2.964967 1_545
Fe3 Tm0 2.964967 1_645
Fe4 Fe5 2.332842 1_555
Fe4 Fe5 2.341612 1_655
Fe4 Fe8 2.546661 1_555
Fe4 Fe9 2.594085 1_465
Fe4 Ti0 2.619822 1_565
Fe4 Tm0 3.175313 1_555
Fe4 Tm0 3.243273 1_656
Fe5 Fe8 2.546662 1_555
Fe5 Fe9 2.594087 1_465
Fe5 Ti0 2.619822 1_465
Fe5 Tm0 3.175313 1_555
Fe5 Tm0 3.243273 1_556
Fe6 Fe7 2.332842 1_555
Fe6 Fe7 2.341612 1_655
Fe6 Fe8 2.546661 1_555
Fe6 Fe9 2.570634 1_555
Fe6 Ti0 2.619822 1_554
Fe6 Tm0 3.175313 1_555
Fe6 Tm0 3.243273 1_645
Fe7 Fe8 2.546662 1_555
Fe7 Fe9 2.570631 1_455
Fe7 Ti0 2.619822 1_454
Fe7 Tm0 3.175313 1_555
Fe7 Tm0 3.243273 1_545
Fe8 Ti0 2.369869 1_555
Fe8 Fe9 2.915855 1_455
Fe8 Fe9 2.915859 1_555
Fe8 Tm0 2.944158 1_555
Fe9 Ti0 2.861265 1_655
Fe9 Ti0 2.861269 1_555
Fe9 Tm0 2.991328 1_645
Fe10 Fe9 2.427680 1_555
Fe10 Fe5 2.570631 1_655
Fe10 Fe4 2.570634 1_555
Fe10 Fe6 2.594085 1_656
Fe10 Fe7 2.594087 1_656
Fe10 Fe2 2.612536 1_655
Fe10 Fe2 2.612541 1_555
Fe10 Ti0 2.861265 1_655
Fe10 Ti0 2.861269 1_555
Fe10 Fe8 2.915855 1_655
Fe10 Fe8 2.915859 1_555
Fe10 Tm0 2.991328 1_656
