# generated using pymatgen
data_Hf2CuSi4
_symmetry_space_group_name_H-M   'P 1'
_cell_length_a   16.37530818
_cell_length_b   16.37530818
_cell_length_c   3.66429600
_cell_angle_alpha   90.00000000
_cell_angle_beta   90.00000000
_cell_angle_gamma   167.08705961
_symmetry_Int_Tables_number   1
_chemical_formula_structural   Hf2CuSi4
_chemical_formula_sum   'Hf4 Cu2 Si8'
_cell_volume   219.57821580
_cell_formula_units_Z   2
loop_
 _symmetry_equiv_pos_site_id
 _symmetry_equiv_pos_as_xyz
  1  'x, y, z'
loop_
 _atom_site_type_symbol
 _atom_site_label
 _atom_site_symmetry_multiplicity
 _atom_site_fract_x
 _atom_site_fract_y
 _atom_site_fract_z
 _atom_site_occupancy
  Hf  Hf0  1  0.95290200  0.04709800  0.75000000  1
  Hf  Hf1  1  0.04709800  0.95290200  0.25000000  1
  Hf  Hf2  1  0.67659600  0.32340400  0.75000000  1
  Hf  Hf3  1  0.32340400  0.67659600  0.25000000  1
  Cu  Cu0  1  0.25005400  0.74994600  0.75000000  1
  Cu  Cu1  1  0.74994600  0.25005400  0.25000000  1
  Si  Si0  1  0.52436600  0.47563400  0.75000000  1
  Si  Si1  1  0.47563400  0.52436600  0.25000000  1
  Si  Si2  1  0.38742600  0.61257400  0.75000000  1
  Si  Si3  1  0.61257400  0.38742600  0.25000000  1
  Si  Si4  1  0.11288400  0.88711600  0.75000000  1
  Si  Si5  1  0.88711600  0.11288400  0.25000000  1
  Si  Si6  1  0.79790300  0.20209700  0.75000000  1
  Si  Si7  1  0.20209700  0.79790300  0.25000000  1
loop_
_geom_bond_atom_site_label_1
_geom_bond_atom_site_label_2
_geom_bond_distance
_geom_bond_site_symmetry_2
Hf0 Si1 2.700867 1_655
Hf0 Si1 2.700867 1_656
Hf0 Si1 2.700867 1_546
Hf0 Si1 2.700867 1_545
Hf0 Si2 2.816182 1_655
Hf0 Si2 2.816182 1_545
Hf0 Si5 2.817814 1_555
Hf0 Si5 2.817814 1_556
Hf0 Si0 2.966360 1_545
Hf0 Si0 2.966360 1_655
Hf1 Si0 2.700867 1_565
Hf1 Si0 2.700867 1_564
Hf1 Si0 2.700867 1_455
Hf1 Si0 2.700867 1_454
Hf1 Si3 2.816182 1_565
Hf1 Si3 2.816182 1_455
Hf1 Si4 2.817814 1_555
Hf1 Si4 2.817814 1_554
Hf1 Si1 2.966360 1_455
Hf1 Si1 2.966360 1_565
Hf2 Si7 2.726926 1_545
Hf2 Si7 2.726926 1_546
Hf2 Si7 2.726926 1_655
Hf2 Si7 2.726926 1_656
Hf2 Si4 2.773002 1_545
Hf2 Si4 2.773002 1_655
Hf2 Si3 2.774451 1_555
Hf2 Si3 2.774451 1_556
Hf3 Si6 2.726926 1_564
Hf3 Si6 2.726926 1_565
Hf3 Si6 2.726926 1_454
Hf3 Si6 2.726926 1_455
Hf3 Si5 2.773002 1_565
Hf3 Si5 2.773002 1_455
Hf3 Si2 2.774451 1_555
Hf3 Si2 2.774451 1_554
Cu0 Si7 2.406746 1_555
Cu0 Si7 2.406746 1_556
Cu0 Si6 2.411507 1_455
Cu0 Si6 2.411507 1_565
Cu0 Cu1 2.597584 1_565
Cu0 Cu1 2.597584 1_566
Cu0 Cu1 2.597584 1_455
Cu0 Cu1 2.597584 1_456
Cu0 Hf3 3.009093 1_555
Cu0 Hf3 3.009093 1_556
Cu0 Hf2 3.017504 1_565
Cu0 Hf2 3.017504 1_455
Cu1 Si6 2.406746 1_555
Cu1 Si6 2.406746 1_554
Cu1 Si7 2.411507 1_655
Cu1 Si7 2.411507 1_545
Cu1 Hf2 3.009093 1_554
Cu1 Hf2 3.009093 1_555
Cu1 Hf3 3.017504 1_655
Cu1 Hf3 3.017504 1_545
Si0 Si1 2.423176 1_555
Si0 Si1 2.423176 1_556
Si2 Si5 2.597602 1_566
Si2 Si5 2.597602 1_455
Si2 Si5 2.597602 1_565
Si2 Si5 2.597602 1_456
Si3 Si4 2.597602 1_545
Si3 Si4 2.597602 1_544
Si3 Si4 2.597602 1_655
Si3 Si4 2.597602 1_654
