# generated using pymatgen
data_MnSO5
_symmetry_space_group_name_H-M   'P 1'
_cell_length_a   5.33487047
_cell_length_b   5.33487047
_cell_length_c   7.42354818
_cell_angle_alpha   70.01201451
_cell_angle_beta   109.98798549
_cell_angle_gamma   80.39134330
_symmetry_Int_Tables_number   1
_chemical_formula_structural   MnSO5
_chemical_formula_sum   'Mn2 S2 O10'
_cell_volume   176.69994424
_cell_formula_units_Z   2
loop_
 _symmetry_equiv_pos_site_id
 _symmetry_equiv_pos_as_xyz
  1  'x, y, z'
loop_
 _atom_site_type_symbol
 _atom_site_label
 _atom_site_symmetry_multiplicity
 _atom_site_fract_x
 _atom_site_fract_y
 _atom_site_fract_z
 _atom_site_occupancy
  Mn  Mn0  1  0.00000000  0.50000000  0.50000000  1
  Mn  Mn1  1  0.50000000  0.00000000  0.00000000  1
  S  S0  1  0.91448500  0.91448500  0.75000000  1
  S  S1  1  0.08551500  0.08551500  0.25000000  1
  O  O0  1  0.32506900  0.32506900  0.75000000  1
  O  O1  1  0.67493100  0.67493100  0.25000000  1
  O  O2  1  0.22674300  0.80829100  0.87472000  1
  O  O3  1  0.80829100  0.22674300  0.62528000  1
  O  O4  1  0.77325700  0.19170900  0.12528000  1
  O  O5  1  0.19170900  0.77325700  0.37472000  1
  O  O6  1  0.83667800  0.77758200  0.60464100  1
  O  O7  1  0.77758200  0.83667800  0.89535900  1
  O  O8  1  0.16332200  0.22241800  0.39535900  1
  O  O9  1  0.22241800  0.16332200  0.10464100  1
loop_
_geom_bond_atom_site_label_1
_geom_bond_atom_site_label_2
_geom_bond_distance
_geom_bond_site_symmetry_2
Mn0 O0 1.843380 1_555
Mn0 O1 1.843380 1_455
Mn0 O5 2.063304 1_555
Mn0 O3 2.063304 1_455
Mn0 O8 2.091401 1_555
Mn0 O6 2.091401 1_455
Mn1 O0 1.843380 1_554
Mn1 O1 1.843380 1_545
Mn1 O4 2.063304 1_555
Mn1 O2 2.063304 1_544
Mn1 O7 2.091401 1_544
Mn1 O9 2.091401 1_555
O2 S0 1.491703 1_455
O3 S0 1.491703 1_545
O4 S1 1.491703 1_655
O5 S1 1.491703 1_565
O6 S0 1.484561 1_555
O7 S0 1.484561 1_555
O8 S1 1.484561 1_555
O9 S1 1.484561 1_555
