# generated using pymatgen
data_CaP3NO9
_symmetry_space_group_name_H-M   'P 1'
_cell_length_a   8.19293505
_cell_length_b   14.10622700
_cell_length_c   10.11579137
_cell_angle_alpha   90.00000000
_cell_angle_beta   93.32390440
_cell_angle_gamma   90.00000000
_symmetry_Int_Tables_number   1
_chemical_formula_structural   CaP3NO9
_chemical_formula_sum   'Ca4 P12 N4 O36'
_cell_volume   1167.12943153
_cell_formula_units_Z   4
loop_
 _symmetry_equiv_pos_site_id
 _symmetry_equiv_pos_as_xyz
  1  'x, y, z'
loop_
 _atom_site_type_symbol
 _atom_site_label
 _atom_site_symmetry_multiplicity
 _atom_site_fract_x
 _atom_site_fract_y
 _atom_site_fract_z
 _atom_site_occupancy
  Ca  Ca0  1  0.26984400  0.27119900  0.99874500  1
  Ca  Ca1  1  0.76984400  0.22880100  0.49874500  1
  Ca  Ca2  1  0.73015600  0.72880100  0.00125500  1
  Ca  Ca3  1  0.23015600  0.77119900  0.50125500  1
  P  P0  1  0.41471600  0.67562000  0.23525700  1
  P  P1  1  0.91471600  0.82438000  0.73525700  1
  P  P2  1  0.58528400  0.32438000  0.76474300  1
  P  P3  1  0.08528400  0.17562000  0.26474300  1
  P  P4  1  0.06879300  0.64551100  0.23132600  1
  P  P5  1  0.56879300  0.85448900  0.73132600  1
  P  P6  1  0.93120700  0.35448900  0.76867400  1
  P  P7  1  0.43120700  0.14551100  0.26867400  1
  P  P8  1  0.29235300  0.48048700  0.23019100  1
  P  P9  1  0.79235300  0.01951300  0.73019100  1
  P  P10  1  0.70764700  0.51951300  0.76980900  1
  P  P11  1  0.20764700  0.98048700  0.26980900  1
  N  N0  1  0.28911000  0.49082400  0.48924900  1
  N  N1  1  0.78911000  0.00917600  0.98924900  1
  N  N2  1  0.71089000  0.50917600  0.51075100  1
  N  N3  1  0.21089000  0.99082400  0.01075100  1
  O  O0  1  0.42723600  0.55821100  0.21253100  1
  O  O1  1  0.92723600  0.94178900  0.71253100  1
  O  O2  1  0.57276400  0.44178900  0.78746900  1
  O  O3  1  0.07276400  0.05821100  0.28746900  1
  O  O4  1  0.23025400  0.69284200  0.17070000  1
  O  O5  1  0.73025400  0.80715800  0.67070000  1
  O  O6  1  0.76974600  0.30715800  0.82930000  1
  O  O7  1  0.26974600  0.19284200  0.32930000  1
  O  O8  1  0.12098500  0.53061200  0.22237700  1
  O  O9  1  0.62098500  0.96938800  0.72237700  1
  O  O10  1  0.87901500  0.46938800  0.77762300  1
  O  O11  1  0.37901500  0.03061200  0.27762300  1
  O  O12  1  0.53223300  0.71881500  0.14700900  1
  O  O13  1  0.03223300  0.78118500  0.64700900  1
  O  O14  1  0.46776700  0.28118500  0.85299100  1
  O  O15  1  0.96776700  0.21881500  0.35299100  1
  O  O16  1  0.42244600  0.69451500  0.38061200  1
  O  O17  1  0.92244600  0.80548500  0.88061200  1
  O  O18  1  0.57755400  0.30548500  0.61938800  1
  O  O19  1  0.07755400  0.19451500  0.11938800  1
  O  O20  1  0.92819500  0.65850800  0.13399500  1
  O  O21  1  0.42819500  0.84149200  0.63399500  1
  O  O22  1  0.07180500  0.34149200  0.86600500  1
  O  O23  1  0.57180500  0.15850800  0.36600500  1
  O  O24  1  0.05905900  0.67097100  0.37360800  1
  O  O25  1  0.55905900  0.82902900  0.87360800  1
  O  O26  1  0.94094100  0.32902900  0.62639200  1
  O  O27  1  0.44094100  0.17097100  0.12639200  1
  O  O28  1  0.32001300  0.43957200  0.38236700  1
  O  O29  1  0.82001300  0.06042800  0.88236700  1
  O  O30  1  0.67998700  0.56042800  0.61763300  1
  O  O31  1  0.17998700  0.93957200  0.11763300  1
  O  O32  1  0.30743800  0.39903100  0.14080300  1
  O  O33  1  0.80743800  0.10096900  0.64080300  1
  O  O34  1  0.69256200  0.60096900  0.85919700  1
  O  O35  1  0.19256200  0.89903100  0.35919700  1
loop_
_geom_bond_atom_site_label_1
_geom_bond_atom_site_label_2
_geom_bond_distance
_geom_bond_site_symmetry_2
Ca0 O14 2.258426 1_555
Ca0 O22 2.272922 1_555
Ca0 O32 2.315215 1_556
Ca0 O19 2.316116 1_556
Ca0 O27 2.328385 1_556
Ca1 O15 2.258426 1_555
Ca1 O23 2.272922 1_555
Ca1 O33 2.315215 1_555
Ca1 O18 2.316116 1_555
Ca1 O26 2.328385 1_555
Ca2 O12 2.258426 1_555
Ca2 O20 2.272922 1_555
Ca2 O34 2.315215 1_554
Ca2 O17 2.316116 1_554
Ca2 O25 2.328385 1_554
Ca3 O13 2.258426 1_555
Ca3 O21 2.272922 1_555
Ca3 O35 2.315215 1_555
Ca3 O16 2.316116 1_555
Ca3 O24 2.328385 1_555
N0 O28 1.336982 1_555
N1 O29 1.336982 1_555
N2 O30 1.336982 1_555
N3 O31 1.336982 1_555
O0 P8 1.574199 1_555
O0 P0 1.676036 1_555
O1 P9 1.574199 1_565
O1 P1 1.676036 1_555
O2 P10 1.574199 1_555
O2 P2 1.676036 1_555
O3 P11 1.574199 1_545
O3 P3 1.676036 1_555
O4 P0 1.629424 1_555
O4 P4 1.632748 1_555
O5 P1 1.629424 1_555
O5 P5 1.632748 1_555
O6 P2 1.629424 1_555
O6 P6 1.632748 1_555
O7 P3 1.629424 1_555
O7 P7 1.632748 1_555
O8 P8 1.569894 1_555
O8 P4 1.680028 1_555
O9 P9 1.569894 1_565
O9 P5 1.680028 1_555
O10 P10 1.569894 1_555
O10 P6 1.680028 1_555
O11 P11 1.569894 1_545
O11 P7 1.680028 1_555
O12 P0 1.481502 1_555
O13 P1 1.481502 1_455
O14 P2 1.481502 1_555
O15 P3 1.481502 1_655
O16 P0 1.492070 1_555
O17 P1 1.492070 1_555
O18 P2 1.492070 1_555
O19 P3 1.492070 1_555
O20 P4 1.482697 1_655
O21 P5 1.482697 1_555
O22 P6 1.482697 1_455
O23 P7 1.482697 1_555
O24 P4 1.490042 1_555
O25 P5 1.490042 1_555
O26 P6 1.490042 1_555
O27 P7 1.490042 1_555
O28 P8 1.647332 1_555
O29 P9 1.647332 1_555
O30 P10 1.647332 1_555
O31 P11 1.647332 1_555
O32 P8 1.471785 1_555
O33 P9 1.471785 1_555
O34 P10 1.471785 1_555
O35 P11 1.471785 1_555
