# generated using pymatgen
data_BaSr3Yb2(ReO6)2
_symmetry_space_group_name_H-M   'P 1'
_cell_length_a   10.20739077
_cell_length_b   10.20739077
_cell_length_c   10.20739118
_cell_angle_alpha   33.53006574
_cell_angle_beta   33.53006574
_cell_angle_gamma   33.53006176
_symmetry_Int_Tables_number   1
_chemical_formula_structural   BaSr3Yb2(ReO6)2
_chemical_formula_sum   'Ba1 Sr3 Yb2 Re2 O12'
_cell_volume   289.02466991
_cell_formula_units_Z   1
loop_
 _symmetry_equiv_pos_site_id
 _symmetry_equiv_pos_as_xyz
  1  'x, y, z'
loop_
 _atom_site_type_symbol
 _atom_site_label
 _atom_site_symmetry_multiplicity
 _atom_site_fract_x
 _atom_site_fract_y
 _atom_site_fract_z
 _atom_site_occupancy
  Ba  Ba0  1  0.37502400  0.37502400  0.37502400  1
  Sr  Sr0  1  0.87499900  0.87499900  0.87499900  1
  Sr  Sr1  1  0.12518300  0.12518300  0.12518300  1
  Sr  Sr2  1  0.62481500  0.62481500  0.62481500  1
  Yb  Yb0  1  0.75011800  0.75011800  0.75011800  1
  Yb  Yb1  1  0.24988700  0.24988700  0.24988700  1
  Re  Re0  1  0.99978300  0.99978300  0.99978300  1
  Re  Re1  1  0.50022700  0.50022700  0.50022700  1
  O  O0  1  0.34800100  0.88392900  0.88392900  1
  O  O1  1  0.84864300  0.38385900  0.38385900  1
  O  O2  1  0.61705900  0.15082200  0.61705900  1
  O  O3  1  0.11514500  0.65251500  0.11514500  1
  O  O4  1  0.88392900  0.88392900  0.34800100  1
  O  O5  1  0.38385900  0.38385900  0.84864300  1
  O  O6  1  0.15082200  0.61705900  0.61705900  1
  O  O7  1  0.65251500  0.11514500  0.11514500  1
  O  O8  1  0.88392900  0.34800100  0.88392900  1
  O  O9  1  0.38385900  0.84864300  0.38385900  1
  O  O10  1  0.61705900  0.61705900  0.15082200  1
  O  O11  1  0.11514500  0.11514500  0.65251500  1
loop_
_geom_bond_atom_site_label_1
_geom_bond_atom_site_label_2
_geom_bond_distance
_geom_bond_site_symmetry_2
Ba0 O4 2.948162 1_545
Ba0 O4 2.948162 1_455
Ba0 O8 2.948163 1_554
Ba0 O0 2.948163 1_554
Ba0 O0 2.948163 1_545
Ba0 O8 2.948163 1_455
Ba0 O6 2.961105 1_555
Ba0 O2 2.961105 1_555
Ba0 O10 2.961105 1_555
Ba0 O7 2.962196 1_555
Ba0 O3 2.962196 1_555
Ba0 O11 2.962196 1_555
O0 Re0 1.935644 1_455
O0 Yb0 2.235048 1_555
O0 Sr2 2.952710 1_555
O0 Sr1 2.955722 1_566
O1 Re1 1.933005 1_555
O1 Yb1 2.226427 1_655
O1 Sr2 2.943962 1_555
O1 Sr1 2.946658 1_655
O1 Sr0 2.947902 1_545
O1 Sr0 2.947902 1_554
O2 Re1 1.937383 1_555
O2 Yb0 2.229560 1_545
O2 Sr0 2.937892 1_545
O2 Sr1 2.947919 1_655
O2 Sr1 2.947919 1_556
O3 Re0 1.931840 1_454
O3 Yb1 2.231554 1_555
O3 Sr0 2.937794 1_454
O3 Sr2 2.948134 1_554
O3 Sr2 2.948135 1_455
O4 Re0 1.935644 1_554
O4 Yb0 2.235048 1_555
O4 Sr2 2.952711 1_555
O4 Sr1 2.955722 1_665
O5 Re1 1.933006 1_555
O5 Yb1 2.226428 1_556
O5 Sr2 2.943962 1_555
O5 Sr1 2.946658 1_556
O5 Sr0 2.947901 1_545
O5 Sr0 2.947901 1_455
O6 Re1 1.937383 1_555
O6 Yb0 2.229560 1_455
O6 Sr0 2.937892 1_455
O6 Sr1 2.947919 1_565
O6 Sr1 2.947919 1_556
O7 Re0 1.931840 1_544
O7 Yb1 2.231554 1_555
O7 Sr0 2.937794 1_544
O7 Sr2 2.948134 1_554
O7 Sr2 2.948135 1_545
O8 Re0 1.935644 1_545
O8 Yb0 2.235048 1_555
O8 Sr2 2.952710 1_555
O8 Sr1 2.955722 1_656
O9 Re1 1.933005 1_555
O9 Yb1 2.226427 1_565
O9 Sr2 2.943962 1_555
O9 Sr1 2.946658 1_565
O9 Sr0 2.947902 1_455
O9 Sr0 2.947902 1_554
O10 Re1 1.937383 1_555
O10 Yb0 2.229560 1_554
O10 Sr0 2.937892 1_554
O10 Sr1 2.947919 1_565
O10 Sr1 2.947919 1_655
O11 Re0 1.931840 1_445
O11 Yb1 2.231554 1_555
O11 Sr0 2.937794 1_445
O11 Sr2 2.948134 1_455
O11 Sr2 2.948134 1_545
