# generated using pymatgen
data_MnH11C5NO6
_symmetry_space_group_name_H-M   'P 1'
_cell_length_a   14.25840461
_cell_length_b   8.32000495
_cell_length_c   8.79858240
_cell_angle_alpha   90.00000000
_cell_angle_beta   120.46091146
_cell_angle_gamma   90.00000000
_symmetry_Int_Tables_number   1
_chemical_formula_structural   MnH11C5NO6
_chemical_formula_sum   'Mn4 H44 C20 N4 O24'
_cell_volume   899.70887152
_cell_formula_units_Z   4
loop_
 _symmetry_equiv_pos_site_id
 _symmetry_equiv_pos_as_xyz
  1  'x, y, z'
loop_
 _atom_site_type_symbol
 _atom_site_label
 _atom_site_symmetry_multiplicity
 _atom_site_fract_x
 _atom_site_fract_y
 _atom_site_fract_z
 _atom_site_occupancy
  Mn  Mn0  1  0.99746746  0.25294000  0.99699150  1
  Mn  Mn1  1  0.99746746  0.74706003  0.49699150  1
  Mn  Mn2  1  0.49746746  0.75293997  0.99699150  1
  Mn  Mn3  1  0.49746746  0.24706000  0.49699150  1
  H  H0  1  0.68872583  0.14967896  0.07697048  1
  H  H1  1  0.68872583  0.85032104  0.57697046  1
  H  H2  1  0.18872583  0.64967896  0.07697048  1
  H  H3  1  0.18872583  0.35032104  0.57697046  1
  H  H4  1  0.69576010  0.34181920  0.99122770  1
  H  H5  1  0.69576010  0.65818080  0.49122770  1
  H  H6  1  0.19576010  0.84181920  0.99122770  1
  H  H7  1  0.19576010  0.15818080  0.49122770  1
  H  H8  1  0.62977855  0.32093259  0.11626097  1
  H  H9  1  0.62977855  0.67906744  0.61626097  1
  H  H10  1  0.12977855  0.82093256  0.11626097  1
  H  H11  1  0.12977855  0.17906741  0.61626097  1
  H  H12  1  0.24813394  0.34604555  0.24869982  1
  H  H13  1  0.24813394  0.65395448  0.74869982  1
  H  H14  1  0.74813394  0.84604552  0.24869982  1
  H  H15  1  0.74813394  0.15395445  0.74869982  1
  H  H16  1  0.52088116  0.06923893  0.83305787  1
  H  H17  1  0.52088116  0.93076107  0.33305787  1
  H  H18  1  0.02088116  0.56923893  0.83305787  1
  H  H19  1  0.02088116  0.43076107  0.33305787  1
  H  H20  1  0.53028770  0.45718598  0.23106345  1
  H  H21  1  0.53028770  0.54281402  0.73106348  1
  H  H22  1  0.03028770  0.95718598  0.23106345  1
  H  H23  1  0.03028770  0.04281402  0.73106348  1
  H  H24  1  0.86263454  0.26122934  0.24747536  1
  H  H25  1  0.86263454  0.73877069  0.74747534  1
  H  H26  1  0.36263454  0.76122931  0.24747536  1
  H  H27  1  0.36263454  0.23877066  0.74747534  1
  H  H28  1  0.81378660  0.43491196  0.28337408  1
  H  H29  1  0.81378660  0.56508804  0.78337405  1
  H  H30  1  0.31378660  0.93491196  0.28337408  1
  H  H31  1  0.31378660  0.06508804  0.78337405  1
  H  H32  1  0.88329734  0.27015384  0.53766702  1
  H  H33  1  0.88329734  0.72984616  0.03766702  1
  H  H34  1  0.38329734  0.77015384  0.53766702  1
  H  H35  1  0.38329734  0.22984616  0.03766702  1
  H  H36  1  0.79565696  0.11174434  0.40625073  1
  H  H37  1  0.79565696  0.88825567  0.90625076  1
  H  H38  1  0.29565696  0.61174433  0.40625073  1
  H  H39  1  0.29565696  0.38825567  0.90625076  1
  H  H40  1  0.73823467  0.29210615  0.43317239  1
  H  H41  1  0.73823467  0.70789388  0.93317239  1
  H  H42  1  0.23823467  0.79210612  0.43317239  1
  H  H43  1  0.23823467  0.20789385  0.93317239  1
  C  C0  1  0.69633447  0.27879267  0.10003495  1
  C  C1  1  0.69633447  0.72120733  0.60003495  1
  C  C2  1  0.19633447  0.77879267  0.10003495  1
  C  C3  1  0.19633447  0.22120733  0.60003495  1
  C  C4  1  0.24577316  0.21335918  0.24692979  1
  C  C5  1  0.24577316  0.78664083  0.74692977  1
  C  C6  1  0.74577316  0.71335917  0.24692979  1
  C  C7  1  0.74577316  0.28664083  0.74692977  1
  C  C8  1  0.03682461  0.47541763  0.76011481  1
  C  C9  1  0.03682461  0.52458237  0.26011481  1
  C  C10  1  0.53682464  0.97541763  0.76011481  1
  C  C11  1  0.53682464  0.02458237  0.26011481  1
  C  C12  1  0.97325489  0.02846960  0.25336580  1
  C  C13  1  0.97325489  0.97153042  0.75336583  1
  C  C14  1  0.47325486  0.52846958  0.25336580  1
  C  C15  1  0.47325486  0.47153039  0.75336583  1
  C  C16  1  0.80500702  0.24154054  0.42231662  1
  C  C17  1  0.80500702  0.75845949  0.92231665  1
  C  C18  1  0.30500702  0.74154051  0.42231662  1
  C  C19  1  0.30500702  0.25845946  0.92231665  1
  N  N0  1  0.80099914  0.31091499  0.26395891  1
  N  N1  1  0.80099914  0.68908501  0.76395891  1
  N  N2  1  0.30099914  0.81091499  0.26395891  1
  N  N3  1  0.30099914  0.18908501  0.76395891  1
  O  O0  1  0.15544001  0.14358806  0.16306656  1
  O  O1  1  0.15544001  0.85641194  0.66306656  1
  O  O2  1  0.65544004  0.64358806  0.16306656  1
  O  O3  1  0.65544004  0.35641194  0.66306656  1
  O  O4  1  0.54394224  0.01841343  0.62878689  1
  O  O5  1  0.54394224  0.98158657  0.12878689  1
  O  O6  1  0.04394224  0.51841343  0.62878689  1
  O  O7  1  0.04394224  0.48158657  0.12878689  1
  O  O8  1  0.04673643  0.33266336  0.81471978  1
  O  O9  1  0.04673643  0.66733661  0.31471978  1
  O  O10  1  0.54673640  0.83266339  0.81471978  1
  O  O11  1  0.54673640  0.16733664  0.31471978  1
  O  O12  1  0.44000989  0.47108338  0.34975621  1
  O  O13  1  0.44000989  0.52891662  0.84975624  1
  O  O14  1  0.94000989  0.97108338  0.34975621  1
  O  O15  1  0.94000989  0.02891662  0.84975624  1
  O  O16  1  0.94497742  0.16515180  0.17862180  1
  O  O17  1  0.94497742  0.83484823  0.67862179  1
  O  O18  1  0.44497745  0.66515177  0.17862180  1
  O  O19  1  0.44497745  0.33484820  0.67862179  1
  O  O20  1  0.33603594  0.13997717  0.33133645  1
  O  O21  1  0.33603594  0.86002285  0.83133642  1
  O  O22  1  0.83603594  0.63997715  0.33133645  1
  O  O23  1  0.83603594  0.36002285  0.83133642  1
loop_
_geom_bond_atom_site_label_1
_geom_bond_atom_site_label_2
_geom_bond_distance
_geom_bond_site_symmetry_2
Mn0 O7 2.150258 1_656
Mn0 O8 2.155853 1_655
Mn0 O0 2.167794 1_656
Mn0 O15 2.178845 1_555
Mn0 O23 2.194246 1_555
Mn0 O16 2.204583 1_556
Mn1 O6 2.150258 1_655
Mn1 O9 2.155854 1_655
Mn1 O1 2.167794 1_655
Mn1 O14 2.178845 1_555
Mn1 O22 2.194246 1_555
Mn1 O17 2.204582 1_555
Mn2 O5 2.150258 1_556
Mn2 O10 2.155853 1_555
Mn2 O2 2.167795 1_556
Mn2 O13 2.178845 1_555
Mn2 O21 2.194246 1_555
Mn2 O18 2.204582 1_556
Mn3 O4 2.150258 1_555
Mn3 O11 2.155853 1_555
Mn3 O3 2.167795 1_555
Mn3 O12 2.178845 1_555
Mn3 O20 2.194246 1_555
Mn3 O19 2.204582 1_555
H24 N0 1.045696 1_555
H25 N1 1.045696 1_555
H26 N2 1.045696 1_555
H27 N3 1.045696 1_555
H28 N0 1.046498 1_555
H29 N1 1.046498 1_555
H30 N2 1.046498 1_555
H31 N3 1.046498 1_555
C0 H8 1.086847 1_555
C0 H4 1.087939 1_554
C0 H0 1.088390 1_555
C0 N0 1.482035 1_555
C1 H9 1.086847 1_555
C1 H5 1.087939 1_555
C1 H1 1.088390 1_555
C1 N1 1.482035 1_555
C2 H10 1.086847 1_555
C2 H6 1.087939 1_554
C2 H2 1.088390 1_555
C2 N2 1.482035 1_555
C3 H11 1.086847 1_555
C3 H7 1.087939 1_555
C3 H3 1.088390 1_555
C3 N3 1.482035 1_555
C4 H12 1.104333 1_555
C4 O0 1.255706 1_555
C4 O20 1.269483 1_555
C5 H13 1.104333 1_555
C5 O1 1.255706 1_555
C5 O21 1.269483 1_555
C6 H14 1.104333 1_555
C6 O2 1.255706 1_555
C6 O22 1.269483 1_555
C7 H15 1.104334 1_555
C7 O3 1.255706 1_555
C7 O23 1.269483 1_555
C8 H18 1.104913 1_555
C8 O6 1.261881 1_555
C8 O8 1.261994 1_555
C9 H19 1.104913 1_555
C9 O7 1.261881 1_555
C9 O9 1.261993 1_555
C10 H16 1.104913 1_565
C10 O4 1.261881 1_565
C10 O10 1.261993 1_555
C11 H17 1.104913 1_545
C11 O5 1.261881 1_545
C11 O11 1.261994 1_555
C12 H22 1.101513 1_645
C12 O14 1.256795 1_545
C12 O16 1.272568 1_555
C13 H23 1.101513 1_665
C13 O15 1.256795 1_565
C13 O17 1.272568 1_555
C14 H20 1.101513 1_555
C14 O12 1.256795 1_555
C14 O18 1.272568 1_555
C15 H21 1.101513 1_555
C15 O13 1.256795 1_555
C15 O19 1.272568 1_555
C16 H32 1.088187 1_555
C16 H40 1.088462 1_555
C16 H36 1.088505 1_555
C16 N0 1.482242 1_555
C17 H33 1.088187 1_556
C17 H41 1.088462 1_555
C17 H37 1.088505 1_555
C17 N1 1.482242 1_555
C18 H34 1.088188 1_555
C18 H42 1.088462 1_555
C18 H38 1.088505 1_555
C18 N2 1.482242 1_555
C19 H35 1.088187 1_556
C19 H43 1.088462 1_555
C19 H39 1.088505 1_555
C19 N3 1.482242 1_555
