# generated using pymatgen
data_Sr2LiFeO3F
_symmetry_space_group_name_H-M   'P 1'
_cell_length_a   5.18035082
_cell_length_b   3.84997861
_cell_length_c   7.41091023
_cell_angle_alpha   78.12894380
_cell_angle_beta   66.53940424
_cell_angle_gamma   92.67795322
_symmetry_Int_Tables_number   1
_chemical_formula_structural   Sr2LiFeO3F
_chemical_formula_sum   'Sr2 Li1 Fe1 O3 F1'
_cell_volume   131.31783836
_cell_formula_units_Z   1
loop_
 _symmetry_equiv_pos_site_id
 _symmetry_equiv_pos_as_xyz
  1  'x, y, z'
loop_
 _atom_site_type_symbol
 _atom_site_label
 _atom_site_symmetry_multiplicity
 _atom_site_fract_x
 _atom_site_fract_y
 _atom_site_fract_z
 _atom_site_occupancy
  Sr  Sr0  1  0.52871900  0.33244000  0.28306300  1
  Sr  Sr1  1  0.47907600  0.62736000  0.76181800  1
  Li  Li0  1  0.10576900  0.86982100  0.14204300  1
  Fe  Fe0  1  0.92097700  0.11452400  0.88256500  1
  O  O0  1  0.01897100  0.40456600  0.04015900  1
  O  O1  1  0.52076200  0.92948200  0.03983400  1
  O  O2  1  0.26798200  0.14513500  0.65340300  1
  F  F0  1  0.77441200  0.77667200  0.39155800  1
loop_
_geom_bond_atom_site_label_1
_geom_bond_atom_site_label_2
_geom_bond_distance
_geom_bond_site_symmetry_2
Li0 O1 1.958028 1_555
Li0 O0 2.174409 1_565
Li0 O0 2.175375 1_555
Fe0 O2 1.896457 1_655
Fe0 O1 1.939244 1_546
Fe0 O0 1.955584 1_656
O0 Sr1 2.416207 1_554
O0 Sr0 2.419877 1_455
O1 Sr0 2.619418 1_565
O1 Sr0 2.626367 1_555
O1 Sr1 2.638448 1_554
O1 Sr1 3.105095 1_564
O2 Sr0 2.453571 1_555
O2 Sr1 2.461594 1_545
O2 Sr1 2.532141 1_555
F0 Li0 1.907021 1_655
F0 Sr1 2.475214 1_555
F0 Sr0 2.523632 1_555
F0 Sr0 2.684448 1_565
