# generated using pymatgen
data_SiTc4
_symmetry_space_group_name_H-M   'P 1'
_cell_length_a   21.70822197
_cell_length_b   21.41976531
_cell_length_c   5.46005503
_cell_angle_alpha   85.74085999
_cell_angle_beta   79.73277187
_cell_angle_gamma   14.52636814
_symmetry_Int_Tables_number   1
_chemical_formula_structural   SiTc4
_chemical_formula_sum   'Si8 Tc32'
_cell_volume   574.79424377
_cell_formula_units_Z   8
loop_
 _symmetry_equiv_pos_site_id
 _symmetry_equiv_pos_as_xyz
  1  'x, y, z'
loop_
 _atom_site_type_symbol
 _atom_site_label
 _atom_site_symmetry_multiplicity
 _atom_site_fract_x
 _atom_site_fract_y
 _atom_site_fract_z
 _atom_site_occupancy
  Si  Si0_0  1  0.00000000  0.00000000  0.00000000  1
  Si  Si0_1  1  0.00000000  0.00000000  0.50000000  1
  Si  Si0_2  1  0.00000000  0.50000000  0.00000000  1
  Si  Si0_3  1  0.00000000  0.50000000  0.50000000  1
  Si  Si0_4  1  0.50000000  0.00000000  0.00000000  1
  Si  Si0_5  1  0.50000000  0.00000000  0.50000000  1
  Si  Si0_6  1  0.50000000  0.50000000  0.00000000  1
  Si  Si0_7  1  0.50000000  0.50000000  0.50000000  1
  Tc  Tc0_0  1  0.20368450  0.20368450  0.29631550  1
  Tc  Tc0_1  1  0.20368450  0.20368450  0.79631550  1
  Tc  Tc0_2  1  0.20368450  0.70368450  0.29631550  1
  Tc  Tc0_3  1  0.20368450  0.70368450  0.79631550  1
  Tc  Tc0_4  1  0.70368450  0.20368450  0.29631550  1
  Tc  Tc0_5  1  0.70368450  0.20368450  0.79631550  1
  Tc  Tc0_6  1  0.70368450  0.70368450  0.29631550  1
  Tc  Tc0_7  1  0.70368450  0.70368450  0.79631550  1
  Tc  Tc1_0  1  0.40139800  0.40139800  0.09860200  1
  Tc  Tc1_1  1  0.40139800  0.40139800  0.59860200  1
  Tc  Tc1_2  1  0.40139800  0.90139800  0.09860200  1
  Tc  Tc1_3  1  0.40139800  0.90139800  0.59860200  1
  Tc  Tc1_4  1  0.90139800  0.40139800  0.09860200  1
  Tc  Tc1_5  1  0.90139800  0.40139800  0.59860200  1
  Tc  Tc1_6  1  0.90139800  0.90139800  0.09860200  1
  Tc  Tc1_7  1  0.90139800  0.90139800  0.59860200  1
  Tc  Tc2_0  1  0.09860200  0.09860200  0.40139800  1
  Tc  Tc2_1  1  0.09860200  0.09860200  0.90139800  1
  Tc  Tc2_2  1  0.09860200  0.59860200  0.40139800  1
  Tc  Tc2_3  1  0.09860200  0.59860200  0.90139800  1
  Tc  Tc2_4  1  0.59860200  0.09860200  0.40139800  1
  Tc  Tc2_5  1  0.59860200  0.09860200  0.90139800  1
  Tc  Tc2_6  1  0.59860200  0.59860200  0.40139800  1
  Tc  Tc2_7  1  0.59860200  0.59860200  0.90139800  1
  Tc  Tc3_0  1  0.29631550  0.29631550  0.20368450  1
  Tc  Tc3_1  1  0.29631550  0.29631550  0.70368450  1
  Tc  Tc3_2  1  0.29631550  0.79631550  0.20368450  1
  Tc  Tc3_3  1  0.29631550  0.79631550  0.70368450  1
  Tc  Tc3_4  1  0.79631550  0.29631550  0.20368450  1
  Tc  Tc3_5  1  0.79631550  0.29631550  0.70368450  1
  Tc  Tc3_6  1  0.79631550  0.79631550  0.20368450  1
  Tc  Tc3_7  1  0.79631550  0.79631550  0.70368450  1
loop_
_geom_bond_atom_site_label_1
_geom_bond_atom_site_label_2
_geom_bond_distance
_geom_bond_site_symmetry_2
Si0_0 Tc0_4 2.456362 1_455
Si0_0 Tc3_4 2.456362 1_455
Si0_0 Tc0_3 2.456362 1_544
Si0_0 Tc3_3 2.456362 1_544
Si0_0 Si0_1 2.730028 1_554
Si0_0 Si0_6 2.730028 1_545
Si0_0 Si0_1 2.730028 1_555
Si0_0 Si0_6 2.730028 1_455
Si0_1 Tc0_5 2.456362 1_455
Si0_1 Tc3_5 2.456362 1_455
Si0_1 Tc0_2 2.456362 1_545
Si0_1 Tc3_2 2.456362 1_545
Si0_1 Si0_7 2.730028 1_545
Si0_1 Si0_7 2.730028 1_455
Si0_2 Tc3_6 2.456362 1_455
Si0_2 Tc3_1 2.456362 1_554
Si0_2 Tc0_1 2.456362 1_554
Si0_2 Tc0_6 2.456362 1_455
Si0_2 Si0_3 2.730028 1_555
Si0_2 Si0_4 2.730028 1_555
Si0_2 Si0_4 2.730028 1_465
Si0_2 Si0_3 2.730028 1_554
Si0_3 Tc3_7 2.456362 1_455
Si0_3 Tc3_0 2.456362 1_555
Si0_3 Tc0_0 2.456362 1_555
Si0_3 Tc0_7 2.456362 1_455
Si0_3 Si0_5 2.730028 1_465
Si0_3 Si0_5 2.730028 1_555
Si0_4 Tc3_7 2.456362 1_544
Si0_4 Tc3_0 2.456362 1_555
Si0_4 Tc0_0 2.456362 1_555
Si0_4 Tc0_7 2.456362 1_544
Si0_4 Si0_5 2.730028 1_555
Si0_4 Si0_5 2.730028 1_554
Si0_5 Tc3_6 2.456362 1_545
Si0_5 Tc3_1 2.456362 1_555
Si0_5 Tc0_1 2.456362 1_555
Si0_5 Tc0_6 2.456362 1_545
Si0_6 Tc0_5 2.456362 1_554
Si0_6 Tc0_2 2.456362 1_555
Si0_6 Tc3_5 2.456362 1_554
Si0_6 Tc3_2 2.456362 1_555
Si0_6 Si0_7 2.730028 1_554
Si0_6 Si0_7 2.730028 1_555
Si0_7 Tc0_3 2.456362 1_555
Si0_7 Tc0_4 2.456362 1_555
Si0_7 Tc3_4 2.456362 1_555
Si0_7 Tc3_3 2.456362 1_555
Tc0_0 Tc1_2 2.663410 1_545
Tc0_0 Tc1_5 2.663410 1_455
Tc0_0 Tc0_1 2.730028 1_554
Tc0_0 Tc0_1 2.730028 1_555
Tc0_0 Tc0_6 2.730028 1_455
Tc0_0 Tc0_6 2.730028 1_545
Tc0_1 Tc1_3 2.663410 1_545
Tc0_1 Tc1_4 2.663410 1_456
Tc0_1 Tc0_7 2.730028 1_545
Tc0_1 Tc0_7 2.730028 1_455
Tc0_2 Tc1_0 2.663410 1_555
Tc0_2 Tc1_7 2.663410 1_455
Tc0_2 Tc0_4 2.730028 1_555
Tc0_2 Tc0_4 2.730028 1_465
Tc0_2 Tc0_3 2.730028 1_555
Tc0_2 Tc0_3 2.730028 1_554
Tc0_3 Tc1_1 2.663410 1_555
Tc0_3 Tc1_6 2.663410 1_456
Tc0_3 Tc0_5 2.730028 1_465
Tc0_3 Tc0_5 2.730028 1_555
Tc0_4 Tc1_1 2.663410 1_555
Tc0_4 Tc1_6 2.663410 1_545
Tc0_4 Tc0_5 2.730028 1_555
Tc0_4 Tc0_5 2.730028 1_554
Tc0_5 Tc1_0 2.663410 1_556
Tc0_5 Tc1_7 2.663410 1_545
Tc0_6 Tc1_3 2.663410 1_555
Tc0_6 Tc1_4 2.663410 1_555
Tc0_6 Tc0_7 2.730028 1_554
Tc0_6 Tc0_7 2.730028 1_555
Tc0_7 Tc1_5 2.663410 1_555
Tc0_7 Tc1_2 2.663410 1_556
Tc1_0 Tc2_5 2.681446 1_554
Tc1_0 Tc2_2 2.681446 1_555
Tc1_0 Tc1_1 2.730028 1_554
Tc1_0 Tc1_6 2.730028 1_455
Tc1_0 Tc1_6 2.730028 1_545
Tc1_0 Tc1_1 2.730028 1_555
Tc1_1 Tc2_3 2.681446 1_555
Tc1_1 Tc2_4 2.681446 1_555
Tc1_1 Tc1_7 2.730028 1_455
Tc1_1 Tc1_7 2.730028 1_545
Tc1_2 Tc2_0 2.681446 1_565
Tc1_2 Tc2_7 2.681446 1_554
Tc1_2 Tc1_4 2.730028 1_465
Tc1_2 Tc1_3 2.730028 1_554
Tc1_2 Tc1_3 2.730028 1_555
Tc1_2 Tc1_4 2.730028 1_555
Tc1_3 Tc2_1 2.681446 1_565
Tc1_3 Tc2_6 2.681446 1_555
Tc1_3 Tc1_5 2.730028 1_465
Tc1_3 Tc1_5 2.730028 1_555
Tc1_4 Tc2_1 2.681446 1_654
Tc1_4 Tc2_6 2.681446 1_555
Tc1_4 Tc1_5 2.730028 1_554
Tc1_4 Tc1_5 2.730028 1_555
Tc1_5 Tc2_0 2.681446 1_655
Tc1_5 Tc2_7 2.681446 1_555
Tc1_6 Tc2_3 2.681446 1_654
Tc1_6 Tc2_4 2.681446 1_565
Tc1_6 Tc1_7 2.730028 1_554
Tc1_6 Tc1_7 2.730028 1_555
Tc1_7 Tc2_2 2.681446 1_655
Tc1_7 Tc2_5 2.681446 1_565
Tc2_0 Tc3_2 2.663410 1_545
Tc2_0 Tc3_5 2.663410 1_455
Tc2_0 Tc2_1 2.730028 1_554
Tc2_0 Tc2_6 2.730028 1_545
Tc2_0 Tc2_1 2.730028 1_555
Tc2_0 Tc2_6 2.730028 1_455
Tc2_1 Tc3_4 2.663410 1_456
Tc2_1 Tc3_3 2.663410 1_545
Tc2_1 Tc2_7 2.730028 1_545
Tc2_1 Tc2_7 2.730028 1_455
Tc2_2 Tc3_0 2.663410 1_555
Tc2_2 Tc3_7 2.663410 1_455
Tc2_2 Tc2_3 2.730028 1_554
Tc2_2 Tc2_4 2.730028 1_555
Tc2_2 Tc2_3 2.730028 1_555
Tc2_2 Tc2_4 2.730028 1_465
Tc2_3 Tc3_1 2.663410 1_555
Tc2_3 Tc3_6 2.663410 1_456
Tc2_3 Tc2_5 2.730028 1_555
Tc2_3 Tc2_5 2.730028 1_465
Tc2_4 Tc3_1 2.663410 1_555
Tc2_4 Tc3_6 2.663410 1_545
Tc2_4 Tc2_5 2.730028 1_554
Tc2_4 Tc2_5 2.730028 1_555
Tc2_5 Tc3_0 2.663410 1_556
Tc2_5 Tc3_7 2.663410 1_545
Tc2_6 Tc3_4 2.663410 1_555
Tc2_6 Tc3_3 2.663410 1_555
Tc2_6 Tc2_7 2.730028 1_555
Tc2_6 Tc2_7 2.730028 1_554
Tc2_7 Tc3_5 2.663410 1_555
Tc2_7 Tc3_2 2.663410 1_556
Tc3_0 Tc3_6 2.730028 1_455
Tc3_0 Tc3_6 2.730028 1_545
Tc3_0 Tc3_1 2.730028 1_555
Tc3_0 Tc3_1 2.730028 1_554
Tc3_1 Tc3_7 2.730028 1_455
Tc3_1 Tc3_7 2.730028 1_545
Tc3_2 Tc3_4 2.730028 1_555
Tc3_2 Tc3_4 2.730028 1_465
Tc3_2 Tc3_3 2.730028 1_555
Tc3_2 Tc3_3 2.730028 1_554
Tc3_3 Tc3_5 2.730028 1_555
Tc3_3 Tc3_5 2.730028 1_465
Tc3_4 Tc3_5 2.730028 1_554
Tc3_4 Tc3_5 2.730028 1_555
Tc3_6 Tc3_7 2.730028 1_554
Tc3_6 Tc3_7 2.730028 1_555
