# generated using pymatgen
data_Sr3(ReN2)2
_symmetry_space_group_name_H-M   'P 1'
_cell_length_a   6.07354938
_cell_length_b   10.17591421
_cell_length_c   9.85875933
_cell_angle_alpha   90.00000000
_cell_angle_beta   90.00000000
_cell_angle_gamma   90.00000000
_symmetry_Int_Tables_number   1
_chemical_formula_structural   Sr3(ReN2)2
_chemical_formula_sum   'Sr12 Re8 N16'
_cell_volume   609.30994770
_cell_formula_units_Z   4
loop_
 _symmetry_equiv_pos_site_id
 _symmetry_equiv_pos_as_xyz
  1  'x, y, z'
loop_
 _atom_site_type_symbol
 _atom_site_label
 _atom_site_symmetry_multiplicity
 _atom_site_fract_x
 _atom_site_fract_y
 _atom_site_fract_z
 _atom_site_occupancy
  Sr  Sr0  1  0.62320454  0.16062747  0.41707122  1
  Sr  Sr1  1  0.87679546  0.83937253  0.41707122  1
  Sr  Sr2  1  0.62320454  0.33937253  0.08292878  1
  Sr  Sr3  1  0.87679546  0.66062747  0.08292878  1
  Sr  Sr4  1  0.37679546  0.83937253  0.58292878  1
  Sr  Sr5  1  0.12320454  0.16062747  0.58292878  1
  Sr  Sr6  1  0.37679546  0.66062747  0.91707122  1
  Sr  Sr7  1  0.12320454  0.33937253  0.91707122  1
  Sr  Sr8  1  0.75000000  0.50000000  0.40377542  1
  Sr  Sr9  1  0.75000000  0.00000000  0.09622458  1
  Sr  Sr10  1  0.25000000  0.50000000  0.59622458  1
  Sr  Sr11  1  0.25000000  0.00000000  0.90377542  1
  Re  Re0  1  0.75000000  0.50000000  0.73776410  1
  Re  Re1  1  0.75000000  0.00000000  0.76223590  1
  Re  Re2  1  0.25000000  0.50000000  0.26223590  1
  Re  Re3  1  0.25000000  0.00000000  0.23776410  1
  Re  Re4  1  0.62404363  0.25000000  0.75000000  1
  Re  Re5  1  0.87595637  0.75000000  0.75000000  1
  Re  Re6  1  0.37595637  0.75000000  0.25000000  1
  Re  Re7  1  0.12404363  0.25000000  0.25000000  1
  N  N0  1  0.87956837  0.35312871  0.63866416  1
  N  N1  1  0.62043163  0.64687129  0.63866416  1
  N  N2  1  0.87956837  0.14687129  0.86133584  1
  N  N3  1  0.62043163  0.85312871  0.86133584  1
  N  N4  1  0.12043163  0.64687129  0.36133584  1
  N  N5  1  0.37956837  0.35312871  0.36133584  1
  N  N6  1  0.12043163  0.85312871  0.13866416  1
  N  N7  1  0.37956837  0.14687129  0.13866416  1
  N  N8  1  0.50963948  0.41719331  0.84155027  1
  N  N9  1  0.99036052  0.58280669  0.84155027  1
  N  N10  1  0.50963948  0.08280669  0.65844973  1
  N  N11  1  0.99036052  0.91719331  0.65844973  1
  N  N12  1  0.49036052  0.58280669  0.15844973  1
  N  N13  1  0.00963948  0.41719331  0.15844973  1
  N  N14  1  0.49036052  0.91719331  0.34155027  1
  N  N15  1  0.00963948  0.08280669  0.34155027  1
loop_
_geom_bond_atom_site_label_1
_geom_bond_atom_site_label_2
_geom_bond_distance
_geom_bond_site_symmetry_2
N0 Re0 1.951278 1_555
N0 Re4 2.171319 1_555
N0 Sr5 2.515700 1_655
N0 Sr10 2.733221 1_655
N0 Sr8 2.866265 1_555
N1 Re0 1.951278 1_555
N1 Re5 2.171319 1_555
N1 Sr4 2.515700 1_555
N1 Sr10 2.733221 1_555
N1 Sr8 2.866265 1_555
N2 Re1 1.951278 1_555
N2 Re4 2.171319 1_555
N2 Sr7 2.515700 1_655
N2 Sr11 2.733221 1_655
N2 Sr9 2.866265 1_556
N3 Re1 1.951278 1_565
N3 Re5 2.171319 1_555
N3 Sr6 2.515700 1_555
N3 Sr11 2.733221 1_565
N3 Sr9 2.866265 1_566
N4 Re2 1.951278 1_555
N4 Re6 2.171319 1_555
N4 Sr1 2.515700 1_455
N4 Sr8 2.733221 1_455
N4 Sr10 2.866265 1_555
N5 Re2 1.951278 1_555
N5 Re7 2.171319 1_555
N5 Sr0 2.515700 1_555
N5 Sr8 2.733221 1_555
N5 Sr10 2.866265 1_555
N6 Re3 1.951278 1_565
N6 Re6 2.171319 1_555
N6 Sr3 2.515700 1_455
N6 Sr9 2.733221 1_465
N6 Sr11 2.866265 1_564
N7 Re3 1.951278 1_555
N7 Re7 2.171319 1_555
N7 Sr2 2.515700 1_555
N7 Sr9 2.733221 1_555
N7 Sr11 2.866265 1_554
N8 Re0 1.971830 1_555
N8 Re4 2.047440 1_555
N8 Sr7 2.586504 1_555
N8 Sr2 2.601112 1_556
N8 Sr6 2.709552 1_555
N8 Sr10 3.007725 1_555
N9 Re0 1.971830 1_555
N9 Re5 2.047440 1_555
N9 Sr6 2.586504 1_655
N9 Sr3 2.601112 1_556
N9 Sr7 2.709552 1_655
N9 Sr10 3.007725 1_655
N10 Re1 1.971830 1_555
N10 Re4 2.047440 1_555
N10 Sr5 2.586504 1_555
N10 Sr0 2.601112 1_555
N10 Sr4 2.709552 1_545
N10 Sr11 3.007725 1_555
N11 Re1 1.971830 1_565
N11 Re5 2.047440 1_555
N11 Sr4 2.586504 1_655
N11 Sr1 2.601112 1_555
N11 Sr5 2.709552 1_665
N11 Sr11 3.007725 1_665
N12 Re2 1.971830 1_555
N12 Re6 2.047440 1_555
N12 Sr3 2.586504 1_555
N12 Sr6 2.601112 1_554
N12 Sr2 2.709552 1_555
N12 Sr8 3.007725 1_555
N13 Re2 1.971830 1_555
N13 Re7 2.047440 1_555
N13 Sr2 2.586504 1_455
N13 Sr7 2.601112 1_554
N13 Sr3 2.709552 1_455
N13 Sr8 3.007725 1_455
N14 Re3 1.971830 1_565
N14 Re6 2.047440 1_555
N14 Sr1 2.586504 1_555
N14 Sr4 2.601112 1_555
N14 Sr0 2.709552 1_565
N14 Sr9 3.007725 1_565
N15 Re3 1.971830 1_555
N15 Re7 2.047440 1_555
N15 Sr0 2.586504 1_455
N15 Sr5 2.601112 1_555
N15 Sr1 2.709552 1_445
N15 Sr9 3.007725 1_455
