# generated using pymatgen
data_Yb3(CuGe)4
_symmetry_space_group_name_H-M   'P 1'
_cell_length_a   7.84417322
_cell_length_b   7.84417322
_cell_length_c   7.84417322
_cell_angle_alpha   149.62895535
_cell_angle_beta   130.52368432
_cell_angle_gamma   59.16739319
_symmetry_Int_Tables_number   1
_chemical_formula_structural   Yb3(CuGe)4
_chemical_formula_sum   'Yb3 Cu4 Ge4'
_cell_volume   184.04153219
_cell_formula_units_Z   1
loop_
 _symmetry_equiv_pos_site_id
 _symmetry_equiv_pos_as_xyz
  1  'x, y, z'
loop_
 _atom_site_type_symbol
 _atom_site_label
 _atom_site_symmetry_multiplicity
 _atom_site_fract_x
 _atom_site_fract_y
 _atom_site_fract_z
 _atom_site_occupancy
  Yb  Yb0  1  0.50000000  0.00000000  0.50000000  1
  Yb  Yb1  1  0.87023841  0.87023841  0.00000000  1
  Yb  Yb2  1  0.12976159  0.12976159  0.00000000  1
  Cu  Cu0  1  0.47923563  0.67016727  0.80906835  1
  Cu  Cu1  1  0.86109892  0.67016727  0.19093165  1
  Cu  Cu2  1  0.13890108  0.32983273  0.80906835  1
  Cu  Cu3  1  0.52076437  0.32983273  0.19093165  1
  Ge  Ge0  1  0.28318065  0.78318065  0.50000000  1
  Ge  Ge1  1  0.71681935  0.21681935  0.50000000  1
  Ge  Ge2  1  0.80779576  0.50000000  0.30779576  1
  Ge  Ge3  1  0.19220424  0.50000000  0.69220424  1
loop_
_geom_bond_atom_site_label_1
_geom_bond_atom_site_label_2
_geom_bond_distance
_geom_bond_site_symmetry_2
Cu0 Ge3 2.445106 1_555
Cu0 Ge1 2.489644 1_555
Cu0 Ge1 2.489644 1_566
Cu0 Cu1 2.506984 1_556
Cu0 Ge0 2.548425 1_555
Cu0 Yb2 2.939900 1_555
Cu0 Yb2 2.939900 1_566
Cu0 Yb1 3.003656 1_556
Cu1 Ge2 2.445106 1_555
Cu1 Ge1 2.489644 1_554
Cu1 Ge1 2.489644 1_565
Cu1 Ge0 2.548425 1_655
Cu1 Yb2 2.939900 1_666
Cu1 Yb2 2.939900 1_655
Cu1 Yb1 3.003656 1_555
Cu2 Ge3 2.445106 1_555
Cu2 Ge0 2.489644 1_545
Cu2 Ge0 2.489644 1_556
Cu2 Cu3 2.506984 1_556
Cu2 Ge1 2.548425 1_455
Cu2 Yb1 2.939900 1_445
Cu2 Yb1 2.939900 1_456
Cu2 Yb2 3.003656 1_556
Cu3 Ge2 2.445106 1_555
Cu3 Ge0 2.489644 1_555
Cu3 Ge0 2.489644 1_544
Cu3 Ge1 2.548425 1_555
Cu3 Yb1 2.939900 1_556
Cu3 Yb1 2.939900 1_545
Cu3 Yb2 3.003656 1_555
Ge0 Yb2 2.933107 1_566
Ge0 Yb2 2.933107 1_555
Ge0 Yb0 2.958097 1_565
Ge1 Yb1 2.933107 1_545
Ge1 Yb1 2.933107 1_556
Ge1 Yb0 2.958097 1_555
Ge2 Ge3 2.523693 1_655
Ge2 Yb0 2.881889 1_554
Ge2 Yb0 2.881889 1_565
Ge2 Yb2 2.991386 1_655
Ge2 Yb2 2.991386 1_666
Ge2 Yb1 2.991386 1_545
Ge2 Yb1 2.991386 1_556
Ge3 Yb0 2.881889 1_566
Ge3 Yb0 2.881889 1_555
Ge3 Yb2 2.991386 1_566
Ge3 Yb2 2.991386 1_555
Ge3 Yb1 2.991386 1_456
Ge3 Yb1 2.991386 1_445
