# generated using pymatgen
data_Sr2CuH2(SeO3)4
_symmetry_space_group_name_H-M   'P 1'
_cell_length_a   5.38283856
_cell_length_b   7.28977242
_cell_length_c   9.21117877
_cell_angle_alpha   68.09969180
_cell_angle_beta   75.42999915
_cell_angle_gamma   80.54707160
_symmetry_Int_Tables_number   1
_chemical_formula_structural   Sr2CuH2(SeO3)4
_chemical_formula_sum   'Sr2 Cu1 H2 Se4 O12'
_cell_volume   323.57577818
_cell_formula_units_Z   1
loop_
 _symmetry_equiv_pos_site_id
 _symmetry_equiv_pos_as_xyz
  1  'x, y, z'
loop_
 _atom_site_type_symbol
 _atom_site_label
 _atom_site_symmetry_multiplicity
 _atom_site_fract_x
 _atom_site_fract_y
 _atom_site_fract_z
 _atom_site_occupancy
  Sr  Sr0  1  0.16682100  0.19031400  0.56093800  1
  Sr  Sr1  1  0.83317900  0.80968600  0.43906200  1
  Cu  Cu0  1  0.00000000  0.00000000  0.00000000  1
  H  H0  1  0.62381100  0.43188700  0.73570600  1
  H  H1  1  0.37618900  0.56811300  0.26429400  1
  Se  Se0  1  0.19022500  0.55945700  0.77200800  1
  Se  Se1  1  0.80977500  0.44054300  0.22799200  1
  Se  Se2  1  0.59785700  0.97107900  0.81239000  1
  Se  Se3  1  0.40214300  0.02892100  0.18761000  1
  O  O0  1  0.11855300  0.79969000  0.75152200  1
  O  O1  1  0.88144700  0.20031000  0.24847800  1
  O  O2  1  0.54804000  0.57045200  0.70703200  1
  O  O3  1  0.45196000  0.42954800  0.29296800  1
  O  O4  1  0.11523800  0.53421700  0.61268800  1
  O  O5  1  0.88476200  0.46578300  0.38731200  1
  O  O6  1  0.65977500  0.04007800  0.60890200  1
  O  O7  1  0.34022500  0.95992200  0.39109800  1
  O  O8  1  0.30241300  0.11352900  0.83718000  1
  O  O9  1  0.69758700  0.88647100  0.16282000  1
  O  O10  1  0.79741300  0.12849600  0.82945000  1
  O  O11  1  0.20258700  0.87150400  0.17055000  1
loop_
_geom_bond_atom_site_label_1
_geom_bond_atom_site_label_2
_geom_bond_distance
_geom_bond_site_symmetry_2
Cu0 O8 1.967832 1_554
Cu0 O9 1.967832 1_445
Cu0 O11 1.990773 1_545
Cu0 O10 1.990773 1_454
H0 O2 0.988069 1_555
H1 O3 0.988069 1_555
O0 Se0 1.679133 1_555
O0 Sr0 2.746330 1_565
O1 Se1 1.679133 1_555
O1 Sr1 2.746330 1_545
O2 Se0 1.873308 1_555
O2 Sr1 2.692902 1_555
O3 Se1 1.873308 1_555
O3 Sr0 2.692902 1_555
O4 Se0 1.695365 1_555
O4 Sr1 2.592266 1_455
O4 Sr0 2.680572 1_555
O5 Se1 1.695365 1_555
O5 Sr0 2.592266 1_655
O5 Sr1 2.680572 1_555
O6 Se2 1.707272 1_545
O6 Sr1 2.617220 1_545
O6 Sr0 2.776680 1_555
O6 Sr0 2.976269 1_655
O7 Se3 1.707272 1_565
O7 Sr0 2.617220 1_565
O7 Sr1 2.776680 1_555
O7 Sr1 2.976269 1_455
O8 Se2 1.763899 1_545
O8 Sr0 2.656742 1_555
O9 Se3 1.763899 1_565
O9 Sr1 2.656742 1_555
O10 Se2 1.766276 1_545
O10 Sr0 2.694959 1_655
O11 Se3 1.766276 1_565
O11 Sr1 2.694959 1_455
