# generated using pymatgen
data_Li7Mn4CoO12
_symmetry_space_group_name_H-M   'P 1'
_cell_length_a   5.18134675
_cell_length_b   6.47720552
_cell_length_c   6.51050918
_cell_angle_alpha   82.92010696
_cell_angle_beta   96.34951462
_cell_angle_gamma   96.20386136
_symmetry_Int_Tables_number   1
_chemical_formula_structural   Li7Mn4CoO12
_chemical_formula_sum   'Li7 Mn4 Co1 O12'
_cell_volume   214.51072503
_cell_formula_units_Z   1
loop_
 _symmetry_equiv_pos_site_id
 _symmetry_equiv_pos_as_xyz
  1  'x, y, z'
loop_
 _atom_site_type_symbol
 _atom_site_label
 _atom_site_symmetry_multiplicity
 _atom_site_fract_x
 _atom_site_fract_y
 _atom_site_fract_z
 _atom_site_occupancy
  Li  Li0  1  0.75810600  0.25518600  0.25155400  1
  Li  Li1  1  0.75765500  0.58230200  0.92415100  1
  Li  Li2  1  0.24189300  0.07814600  0.41511300  1
  Li  Li3  1  0.24695800  0.40774300  0.07110300  1
  Li  Li4  1  0.75304200  0.92559100  0.59556300  1
  Li  Li5  1  0.24234500  0.75103000  0.74251700  1
  Li  Li6  1  0.50000000  0.16666700  0.83333400  1
  Mn  Mn0  1  0.00000100  0.99923400  0.00040800  1
  Mn  Mn1  1  0.00000000  0.33410000  0.66625800  1
  Mn  Mn2  1  0.50029600  0.83683100  0.16291200  1
  Mn  Mn3  1  0.49970400  0.49650300  0.50375500  1
  Co  Co0  1  0.00000100  0.66666700  0.33333400  1
  O  O0  1  0.89550200  0.28119200  0.94699500  1
  O  O1  1  0.89362000  0.61631300  0.61520600  1
  O  O2  1  0.34948700  0.10243800  0.11685900  1
  O  O3  1  0.34900400  0.45121600  0.76859100  1
  O  O4  1  0.89409100  0.94988700  0.28126400  1
  O  O5  1  0.35726000  0.77336700  0.43937500  1
  O  O6  1  0.65051300  0.23089300  0.54980800  1
  O  O7  1  0.64274100  0.55996500  0.22729100  1
  O  O8  1  0.10449700  0.05214200  0.71967100  1
  O  O9  1  0.10590900  0.38344600  0.38540300  1
  O  O10  1  0.65099600  0.88211700  0.89807500  1
  O  O11  1  0.10637900  0.71702100  0.05146100  1
loop_
_geom_bond_atom_site_label_1
_geom_bond_atom_site_label_2
_geom_bond_distance
_geom_bond_site_symmetry_2
Li0 O9 2.050515 1_655
Li0 O6 2.061850 1_555
Li0 O7 2.106341 1_555
Li0 O4 2.149652 1_545
Li0 O0 2.161197 1_554
Li0 O2 2.362389 1_555
Li1 O11 2.054128 1_656
Li1 O10 2.058005 1_555
Li1 O7 2.107471 1_556
Li1 O0 2.131242 1_555
Li1 O1 2.182008 1_555
Li1 O3 2.361982 1_555
Li2 O4 2.050508 1_445
Li2 O2 2.061853 1_555
Li2 O5 2.106346 1_545
Li2 O9 2.149656 1_555
Li2 O8 2.161192 1_555
Li2 O6 2.362391 1_555
Li3 O0 2.038644 1_454
Li3 O3 2.073465 1_554
Li3 O2 2.080478 1_555
Li3 O11 2.188963 1_555
Li3 O9 2.229922 1_555
Li3 O7 2.358048 1_555
Li4 O8 2.038640 1_665
Li4 O10 2.073464 1_555
Li4 O6 2.080460 1_565
Li4 O1 2.188961 1_555
Li4 O4 2.229917 1_555
Li4 O5 2.358049 1_555
Li5 O1 2.054129 1_455
Li5 O3 2.057999 1_555
Li5 O5 2.107485 1_555
Li5 O8 2.131256 1_565
Li5 O11 2.182005 1_556
Li5 O10 2.361979 1_555
Li6 O3 2.057650 1_555
Li6 O10 2.057655 1_545
Li6 O2 2.060961 1_556
Li6 O6 2.060966 1_555
Li6 O0 2.183705 1_555
Li6 O8 2.183713 1_555
Mn0 O0 1.940357 1_464
Mn0 O8 1.943091 1_564
Mn0 O11 1.945033 1_555
Mn0 O4 1.945951 1_455
Mn0 O10 1.962387 1_454
Mn0 O2 1.964772 1_565
Mn1 O8 1.940353 1_555
Mn1 O0 1.943095 1_455
Mn1 O1 1.945036 1_455
Mn1 O9 1.945943 1_555
Mn1 O3 1.962381 1_555
Mn1 O6 1.964780 1_455
Mn2 O2 1.942110 1_565
Mn2 O10 1.947381 1_554
Mn2 O7 1.992173 1_555
Mn2 O5 2.001187 1_555
Mn2 O4 2.182100 1_555
Mn2 O11 2.182520 1_555
Mn3 O6 1.942128 1_555
Mn3 O3 1.947376 1_555
Mn3 O5 1.992159 1_555
Mn3 O7 2.001194 1_555
Mn3 O9 2.182102 1_555
Mn3 O1 2.182516 1_555
Co0 O4 1.950508 1_455
Co0 O9 1.950510 1_555
Co0 O1 1.953262 1_455
Co0 O11 1.953263 1_555
Co0 O5 1.984748 1_555
Co0 O7 1.984760 1_455
