# generated using pymatgen
data_Sr2Ir
_symmetry_space_group_name_H-M   'P 1'
_cell_length_a   5.10846152
_cell_length_b   5.10846152
_cell_length_c   5.10846152
_cell_angle_alpha   60.00000000
_cell_angle_beta   60.00000000
_cell_angle_gamma   60.00000000
_symmetry_Int_Tables_number   1
_chemical_formula_structural   Sr2Ir
_chemical_formula_sum   'Sr2 Ir1'
_cell_volume   94.26606543
_cell_formula_units_Z   1
loop_
 _symmetry_equiv_pos_site_id
 _symmetry_equiv_pos_as_xyz
  1  'x, y, z'
loop_
 _atom_site_type_symbol
 _atom_site_label
 _atom_site_symmetry_multiplicity
 _atom_site_fract_x
 _atom_site_fract_y
 _atom_site_fract_z
 _atom_site_occupancy
  Sr  Sr0  1  0.25000000  0.25000000  0.25000000  1
  Sr  Sr1  1  0.75000000  0.75000000  0.75000000  1
  Ir  Ir0  1  -0.00000000  0.00000000  -0.00000000  1
loop_
_geom_bond_atom_site_label_1
_geom_bond_atom_site_label_2
_geom_bond_distance
_geom_bond_site_symmetry_2
Sr0 Sr1 3.612228 1_544
Sr0 Sr1 3.612228 1_545
Sr0 Sr1 3.612228 1_445
Sr0 Sr1 3.612228 1_454
Sr0 Sr1 3.612228 1_455
Sr0 Sr1 3.612228 1_554
Ir0 Sr0 3.128281 1_455
Ir0 Sr1 3.128281 1_445
Ir0 Sr0 3.128281 1_545
Ir0 Sr1 3.128281 1_444
Ir0 Sr1 3.128281 1_544
Ir0 Sr0 3.128281 1_555
Ir0 Sr0 3.128281 1_554
Ir0 Sr1 3.128281 1_454
