# generated using pymatgen
data_Ba2Lu2CuPtO8
_symmetry_space_group_name_H-M   'P 1'
_cell_length_a   5.67621600
_cell_length_b   10.34510700
_cell_length_c   13.27454300
_cell_angle_alpha   90.00000000
_cell_angle_beta   90.00000000
_cell_angle_gamma   90.00000000
_symmetry_Int_Tables_number   1
_chemical_formula_structural   Ba2Lu2CuPtO8
_chemical_formula_sum   'Ba8 Lu8 Cu4 Pt4 O32'
_cell_volume   779.49526087
_cell_formula_units_Z   4
loop_
 _symmetry_equiv_pos_site_id
 _symmetry_equiv_pos_as_xyz
  1  'x, y, z'
loop_
 _atom_site_type_symbol
 _atom_site_label
 _atom_site_symmetry_multiplicity
 _atom_site_fract_x
 _atom_site_fract_y
 _atom_site_fract_z
 _atom_site_occupancy
  Ba  Ba0  1  0.25000000  0.40688300  0.42278000  1
  Ba  Ba1  1  0.75000000  0.59311700  0.57722000  1
  Ba  Ba2  1  0.75000000  0.90688300  0.07722000  1
  Ba  Ba3  1  0.25000000  0.09311700  0.92278000  1
  Ba  Ba4  1  0.25000000  0.68480900  0.20710000  1
  Ba  Ba5  1  0.75000000  0.31519100  0.79290000  1
  Ba  Ba6  1  0.75000000  0.18480900  0.29290000  1
  Ba  Ba7  1  0.25000000  0.81519100  0.70710000  1
  Lu  Lu0  1  0.25000000  0.01261300  0.41772700  1
  Lu  Lu1  1  0.75000000  0.98738700  0.58227300  1
  Lu  Lu2  1  0.75000000  0.51261300  0.08227300  1
  Lu  Lu3  1  0.25000000  0.48738700  0.91772700  1
  Lu  Lu4  1  0.25000000  0.31268600  0.14064900  1
  Lu  Lu5  1  0.75000000  0.68731400  0.85935100  1
  Lu  Lu6  1  0.75000000  0.81268600  0.35935100  1
  Lu  Lu7  1  0.25000000  0.18731400  0.64064900  1
  Cu  Cu0  1  0.25000000  0.73433300  0.46071000  1
  Cu  Cu1  1  0.75000000  0.26566700  0.53929000  1
  Cu  Cu2  1  0.75000000  0.23433300  0.03929000  1
  Cu  Cu3  1  0.25000000  0.76566700  0.96071000  1
  Pt  Pt0  1  0.25000000  0.03194900  0.19512400  1
  Pt  Pt1  1  0.75000000  0.96805100  0.80487600  1
  Pt  Pt2  1  0.75000000  0.53194900  0.30487600  1
  Pt  Pt3  1  0.25000000  0.46805100  0.69512400  1
  O  O0  1  0.25000000  0.18556300  0.29759600  1
  O  O1  1  0.75000000  0.81443700  0.70240400  1
  O  O2  1  0.75000000  0.68556300  0.20240400  1
  O  O3  1  0.25000000  0.31443700  0.79759600  1
  O  O4  1  0.50918400  0.44238100  0.21278800  1
  O  O5  1  0.49081600  0.55761900  0.78721200  1
  O  O6  1  0.49081600  0.94238100  0.28721200  1
  O  O7  1  0.00918400  0.55761900  0.78721200  1
  O  O8  1  0.50918400  0.05761900  0.71278800  1
  O  O9  1  0.99081600  0.44238100  0.21278800  1
  O  O10  1  0.99081600  0.05761900  0.71278800  1
  O  O11  1  0.00918400  0.94238100  0.28721200  1
  O  O12  1  0.01138000  0.14165600  0.11405100  1
  O  O13  1  0.98862000  0.85834400  0.88594900  1
  O  O14  1  0.98862000  0.64165600  0.38594900  1
  O  O15  1  0.51138000  0.85834400  0.88594900  1
  O  O16  1  0.01138000  0.35834400  0.61405100  1
  O  O17  1  0.48862000  0.14165600  0.11405100  1
  O  O18  1  0.48862000  0.35834400  0.61405100  1
  O  O19  1  0.51138000  0.64165600  0.38594900  1
  O  O20  1  0.50271900  0.36688900  0.00885400  1
  O  O21  1  0.49728100  0.63311100  0.99114600  1
  O  O22  1  0.49728100  0.86688900  0.49114600  1
  O  O23  1  0.00271900  0.63311100  0.99114600  1
  O  O24  1  0.50271900  0.13311100  0.50885400  1
  O  O25  1  0.99728100  0.36688900  0.00885400  1
  O  O26  1  0.99728100  0.13311100  0.50885400  1
  O  O27  1  0.00271900  0.86688900  0.49114600  1
  O  O28  1  0.25000000  0.60964800  0.58841300  1
  O  O29  1  0.75000000  0.39035200  0.41158700  1
  O  O30  1  0.75000000  0.10964800  0.91158700  1
  O  O31  1  0.25000000  0.89035200  0.08841300  1
loop_
_geom_bond_atom_site_label_1
_geom_bond_atom_site_label_2
_geom_bond_distance
_geom_bond_site_symmetry_2
Ba0 O0 2.829067 1_555
Ba0 O29 2.847135 1_555
Ba0 O29 2.847135 1_455
Ba0 O19 2.887748 1_555
Ba0 O14 2.887748 1_455
Ba0 O16 2.921199 1_555
Ba0 O18 2.921199 1_555
Ba0 O28 3.038803 1_555
Ba0 O4 3.173273 1_555
Ba0 O9 3.173273 1_455
Ba0 O26 3.374112 1_455
Ba0 O24 3.374112 1_555
Ba1 O1 2.829067 1_555
Ba1 O28 2.847135 1_655
Ba1 O28 2.847135 1_555
Ba1 O16 2.887748 1_655
Ba1 O18 2.887748 1_555
Ba1 O19 2.921199 1_555
Ba1 O14 2.921199 1_555
Ba1 O29 3.038803 1_555
Ba1 O5 3.173273 1_555
Ba1 O7 3.173273 1_655
Ba1 O27 3.374112 1_655
Ba1 O22 3.374112 1_555
Ba2 O2 2.829067 1_555
Ba2 O31 2.847135 1_655
Ba2 O31 2.847135 1_555
Ba2 O12 2.887748 1_665
Ba2 O17 2.887748 1_565
Ba2 O15 2.921199 1_554
Ba2 O13 2.921199 1_554
Ba2 O30 3.038803 1_564
Ba2 O11 3.173273 1_655
Ba2 O6 3.173273 1_555
Ba2 O23 3.374112 1_654
Ba2 O21 3.374112 1_554
Ba3 O3 2.829067 1_555
Ba3 O30 2.847135 1_455
Ba3 O30 2.847135 1_555
Ba3 O13 2.887748 1_445
Ba3 O15 2.887748 1_545
Ba3 O12 2.921199 1_556
Ba3 O17 2.921199 1_556
Ba3 O31 3.038803 1_546
Ba3 O8 3.173273 1_555
Ba3 O10 3.173273 1_455
Ba3 O25 3.374112 1_456
Ba3 O20 3.374112 1_556
Ba4 O31 2.646446 1_555
Ba4 O14 2.834968 1_455
Ba4 O19 2.834968 1_555
Ba4 O2 2.838803 1_555
Ba4 O2 2.838803 1_455
Ba4 O4 2.908585 1_555
Ba4 O9 2.908585 1_455
Ba4 O11 3.177979 1_555
Ba4 O6 3.177979 1_555
Ba4 O21 3.236371 1_554
Ba4 O23 3.236371 1_554
Ba5 O30 2.646446 1_555
Ba5 O16 2.834968 1_655
Ba5 O18 2.834968 1_555
Ba5 O3 2.838803 1_555
Ba5 O3 2.838803 1_655
Ba5 O5 2.908585 1_555
Ba5 O7 2.908585 1_655
Ba5 O8 3.177979 1_555
Ba5 O10 3.177979 1_555
Ba5 O25 3.236371 1_556
Ba5 O20 3.236371 1_556
Ba6 O29 2.646446 1_555
Ba6 O17 2.834968 1_555
Ba6 O12 2.834968 1_655
Ba6 O0 2.838803 1_555
Ba6 O0 2.838803 1_655
Ba6 O6 2.908585 1_545
Ba6 O11 2.908585 1_645
Ba6 O4 3.177979 1_555
Ba6 O9 3.177979 1_555
Ba6 O26 3.236371 1_555
Ba6 O24 3.236371 1_555
Ba7 O28 2.646446 1_555
Ba7 O15 2.834968 1_555
Ba7 O13 2.834968 1_455
Ba7 O1 2.838803 1_455
Ba7 O1 2.838803 1_555
Ba7 O8 2.908585 1_565
Ba7 O10 2.908585 1_465
Ba7 O5 3.177979 1_555
Ba7 O7 3.177979 1_555
Ba7 O22 3.236371 1_555
Ba7 O27 3.236371 1_555
Lu0 O26 2.252771 1_455
Lu0 O24 2.252771 1_555
Lu0 O27 2.278739 1_545
Lu0 O22 2.278739 1_545
Lu0 O6 2.323363 1_545
Lu0 O11 2.323363 1_545
Lu0 O0 2.396707 1_555
Lu1 O27 2.252771 1_655
Lu1 O22 2.252771 1_555
Lu1 O26 2.278739 1_565
Lu1 O24 2.278739 1_565
Lu1 O10 2.323363 1_565
Lu1 O8 2.323363 1_565
Lu1 O1 2.396707 1_555
Lu2 O23 2.252771 1_654
Lu2 O21 2.252771 1_554
Lu2 O20 2.278739 1_555
Lu2 O25 2.278739 1_555
Lu2 O9 2.323363 1_555
Lu2 O4 2.323363 1_555
Lu2 O2 2.396707 1_555
Lu3 O25 2.252771 1_456
Lu3 O20 2.252771 1_556
Lu3 O23 2.278739 1_555
Lu3 O21 2.278739 1_555
Lu3 O7 2.323363 1_555
Lu3 O5 2.323363 1_555
Lu3 O3 2.396707 1_555
Lu4 O4 2.209431 1_555
Lu4 O9 2.209431 1_455
Lu4 O17 2.256042 1_555
Lu4 O12 2.256042 1_555
Lu4 O25 2.330878 1_455
Lu4 O20 2.330878 1_555
Lu4 O0 2.463746 1_555
Lu5 O5 2.209431 1_555
Lu5 O7 2.209431 1_655
Lu5 O15 2.256042 1_555
Lu5 O13 2.256042 1_555
Lu5 O23 2.330878 1_655
Lu5 O21 2.330878 1_555
Lu5 O1 2.463746 1_555
Lu6 O6 2.209431 1_555
Lu6 O11 2.209431 1_655
Lu6 O19 2.256042 1_555
Lu6 O14 2.256042 1_555
Lu6 O27 2.330878 1_655
Lu6 O22 2.330878 1_555
Lu6 O2 2.463746 1_555
Lu7 O10 2.209431 1_455
Lu7 O8 2.209431 1_555
Lu7 O16 2.256042 1_555
Lu7 O18 2.256042 1_555
Lu7 O24 2.330878 1_555
Lu7 O26 2.330878 1_455
Lu7 O3 2.463746 1_555
Cu0 O22 2.003463 1_555
Cu0 O27 2.003463 1_555
Cu0 O19 2.026158 1_555
Cu0 O14 2.026158 1_455
Cu0 O28 2.130138 1_555
Cu1 O26 2.003463 1_555
Cu1 O24 2.003463 1_555
Cu1 O16 2.026158 1_655
Cu1 O18 2.026158 1_555
Cu1 O29 2.130138 1_555
Cu2 O20 2.003463 1_555
Cu2 O25 2.003463 1_555
Cu2 O12 2.026158 1_655
Cu2 O17 2.026158 1_555
Cu2 O30 2.130138 1_554
Cu3 O23 2.003463 1_555
Cu3 O21 2.003463 1_555
Cu3 O15 2.026158 1_555
Cu3 O13 2.026158 1_455
Cu3 O31 2.130138 1_556
O0 Pt0 2.091827 1_555
O1 Pt1 2.091827 1_555
O2 Pt2 2.091827 1_555
O3 Pt3 2.091827 1_555
O4 Pt2 2.054599 1_555
O5 Pt3 2.054599 1_555
O6 Pt0 2.054599 1_565
O7 Pt3 2.054599 1_555
O8 Pt1 2.054599 1_545
O9 Pt2 2.054599 1_555
O10 Pt1 2.054599 1_545
O11 Pt0 2.054599 1_565
O12 Pt0 2.069021 1_555
O13 Pt1 2.069021 1_555
O14 Pt2 2.069021 1_555
O15 Pt1 2.069021 1_555
O16 Pt3 2.069021 1_555
O17 Pt0 2.069021 1_555
O18 Pt3 2.069021 1_555
O19 Pt2 2.069021 1_555
O28 Pt3 2.037727 1_555
O29 Pt2 2.037727 1_555
O30 Pt1 2.037727 1_545
O31 Pt0 2.037727 1_565
