# generated using pymatgen
data_La7CoI12
_symmetry_space_group_name_H-M   'P 1'
_cell_length_a   10.09590871
_cell_length_b   10.09590871
_cell_length_c   10.09590946
_cell_angle_alpha   107.42806248
_cell_angle_beta   107.42806248
_cell_angle_gamma   107.42806603
_symmetry_Int_Tables_number   1
_chemical_formula_structural   La7CoI12
_chemical_formula_sum   'La7 Co1 I12'
_cell_volume   846.79570556
_cell_formula_units_Z   1
loop_
 _symmetry_equiv_pos_site_id
 _symmetry_equiv_pos_as_xyz
  1  'x, y, z'
loop_
 _atom_site_type_symbol
 _atom_site_label
 _atom_site_symmetry_multiplicity
 _atom_site_fract_x
 _atom_site_fract_y
 _atom_site_fract_z
 _atom_site_occupancy
  La  La0  1  0.53424900  0.60411400  0.80456500  1
  La  La1  1  0.80456500  0.53424900  0.60411400  1
  La  La2  1  0.60411400  0.80456500  0.53424900  1
  La  La3  1  0.46666700  0.39616900  0.19388100  1
  La  La4  1  0.19388100  0.46666700  0.39616900  1
  La  La5  1  0.39616900  0.19388100  0.46666700  1
  La  La6  1  0.98687300  0.98687300  0.98687300  1
  Co  Co0  1  0.49774200  0.49774200  0.49774200  1
  I  I0  1  0.27092800  0.81602300  0.42485600  1
  I  I1  1  0.42485600  0.27092800  0.81602300  1
  I  I2  1  0.81602300  0.42485600  0.27092800  1
  I  I3  1  0.72888500  0.18369800  0.57526700  1
  I  I4  1  0.57526700  0.72888500  0.18369800  1
  I  I5  1  0.18369800  0.57526700  0.72888500  1
  I  I6  1  0.02483600  0.10582900  0.34062800  1
  I  I7  1  0.34062800  0.02483600  0.10582900  1
  I  I8  1  0.10582900  0.34062800  0.02483600  1
  I  I9  1  0.97672900  0.89291700  0.65051300  1
  I  I10  1  0.65051300  0.97672900  0.89291700  1
  I  I11  1  0.89291700  0.65051300  0.97672900  1
loop_
_geom_bond_atom_site_label_1
_geom_bond_atom_site_label_2
_geom_bond_distance
_geom_bond_site_symmetry_2
Co0 La5 2.812018 1_555
Co0 La4 2.812018 1_555
Co0 La3 2.812019 1_555
Co0 La2 2.823281 1_555
Co0 La1 2.823281 1_555
Co0 La0 2.823282 1_555
I0 La2 3.260769 1_555
I0 La4 3.277019 1_555
I0 La5 3.486560 1_565
I1 La0 3.260769 1_555
I1 La5 3.277019 1_555
I1 La3 3.486560 1_556
I2 La1 3.260769 1_555
I2 La3 3.277019 1_555
I2 La4 3.486560 1_655
I3 La5 3.250276 1_555
I3 La1 3.289914 1_555
I3 La2 3.501325 1_545
I4 La3 3.250276 1_555
I4 La2 3.289914 1_555
I4 La0 3.501325 1_554
I5 La4 3.250276 1_555
I5 La0 3.289914 1_555
I5 La1 3.501325 1_455
I6 La6 3.267977 1_444
I6 La5 3.306438 1_555
I6 La4 3.313199 1_555
I7 La6 3.267977 1_444
I7 La3 3.306438 1_555
I7 La5 3.313200 1_555
I8 La6 3.267977 1_444
I8 La4 3.306439 1_555
I8 La3 3.313199 1_555
I9 La6 3.200947 1_555
I9 La2 3.323093 1_555
I9 La1 3.328484 1_555
I10 La6 3.200947 1_555
I10 La0 3.323093 1_555
I10 La2 3.328484 1_555
I11 La6 3.200947 1_555
I11 La1 3.323094 1_555
I11 La0 3.328484 1_555
