# generated using pymatgen
data_CaGe2WO6
_symmetry_space_group_name_H-M   'P 1'
_cell_length_a   8.34771405
_cell_length_b   8.34771405
_cell_length_c   5.37490699
_cell_angle_alpha   81.88371339
_cell_angle_beta   81.88371339
_cell_angle_gamma   62.64910271
_symmetry_Int_Tables_number   1
_chemical_formula_structural   CaGe2WO6
_chemical_formula_sum   'Ca2 Ge4 W2 O12'
_cell_volume   328.10096162
_cell_formula_units_Z   2
loop_
 _symmetry_equiv_pos_site_id
 _symmetry_equiv_pos_as_xyz
  1  'x, y, z'
loop_
 _atom_site_type_symbol
 _atom_site_label
 _atom_site_symmetry_multiplicity
 _atom_site_fract_x
 _atom_site_fract_y
 _atom_site_fract_z
 _atom_site_occupancy
  Ca  Ca0  1  0.65278500  0.34721500  0.25000000  1
  Ca  Ca1  1  0.34721500  0.65278500  0.75000000  1
  Ge  Ge0  1  0.57861700  0.78828800  0.21457800  1
  Ge  Ge1  1  0.21171200  0.42138300  0.28542200  1
  Ge  Ge2  1  0.42138300  0.21171200  0.78542200  1
  Ge  Ge3  1  0.78828800  0.57861700  0.71457800  1
  W  W0  1  0.09146600  0.90853400  0.25000000  1
  W  W1  1  0.90853400  0.09146600  0.75000000  1
  O  O0  1  0.63741700  0.58526800  0.47366100  1
  O  O1  1  0.41473200  0.36258300  0.02633900  1
  O  O2  1  0.36258300  0.41473200  0.52633900  1
  O  O3  1  0.58526800  0.63741700  0.97366100  1
  O  O4  1  0.85342600  0.32169800  0.83377400  1
  O  O5  1  0.67830200  0.14657400  0.66622600  1
  O  O6  1  0.14657400  0.67830200  0.16622600  1
  O  O7  1  0.32169800  0.85342600  0.33377400  1
  O  O8  1  0.84780800  0.01943800  0.10198100  1
  O  O9  1  0.98056200  0.15219200  0.39801900  1
  O  O10  1  0.15219200  0.98056200  0.89801900  1
  O  O11  1  0.01943800  0.84780800  0.60198100  1
loop_
_geom_bond_atom_site_label_1
_geom_bond_atom_site_label_2
_geom_bond_distance
_geom_bond_site_symmetry_2
Ca0 O1 2.409844 1_555
Ca0 O0 2.409844 1_555
Ca0 O2 2.521539 1_555
Ca0 O3 2.521539 1_554
Ca0 O5 2.569883 1_555
Ca0 O4 2.569883 1_554
Ca0 O8 2.631704 1_555
Ca0 O9 2.631704 1_555
Ca1 O2 2.409844 1_555
Ca1 O3 2.409844 1_555
Ca1 O1 2.521539 1_556
Ca1 O0 2.521539 1_555
Ca1 O6 2.569883 1_556
Ca1 O7 2.569883 1_555
Ca1 O11 2.631704 1_555
Ca1 O10 2.631704 1_555
Ge0 O3 1.908393 1_554
Ge0 O0 1.953085 1_555
Ge0 O7 1.986105 1_555
Ge1 O2 1.908393 1_555
Ge1 O1 1.953085 1_555
Ge1 O6 1.986105 1_555
Ge2 O1 1.908393 1_556
Ge2 O2 1.953085 1_555
Ge2 O5 1.986105 1_555
Ge3 O0 1.908393 1_555
Ge3 O3 1.953085 1_555
Ge3 O4 1.986105 1_555
O4 W1 1.865898 1_555
O5 W1 1.865898 1_555
O6 W0 1.865898 1_555
O7 W0 1.865898 1_555
O8 W1 1.971225 1_554
O8 W0 2.036128 1_645
O9 W1 1.971225 1_555
O9 W0 2.036128 1_645
O10 W0 1.971225 1_556
O10 W1 2.036128 1_465
O11 W0 1.971225 1_555
O11 W1 2.036128 1_465
