# generated using pymatgen
data_CsSm(MoO4)2
_symmetry_space_group_name_H-M   'P 1'
_cell_length_a   7.70469880
_cell_length_b   7.70469880
_cell_length_c   7.98412797
_cell_angle_alpha   61.69455859
_cell_angle_beta   61.69455859
_cell_angle_gamma   88.38170079
_symmetry_Int_Tables_number   1
_chemical_formula_structural   CsSm(MoO4)2
_chemical_formula_sum   'Cs2 Sm2 Mo4 O16'
_cell_volume   355.38040472
_cell_formula_units_Z   2
loop_
 _symmetry_equiv_pos_site_id
 _symmetry_equiv_pos_as_xyz
  1  'x, y, z'
loop_
 _atom_site_type_symbol
 _atom_site_label
 _atom_site_symmetry_multiplicity
 _atom_site_fract_x
 _atom_site_fract_y
 _atom_site_fract_z
 _atom_site_occupancy
  Cs  Cs0  1  0.19582600  0.80417400  0.75000000  1
  Cs  Cs1  1  0.80417400  0.19582600  0.25000000  1
  Sm  Sm0  1  0.77019100  0.22980900  0.75000000  1
  Sm  Sm1  1  0.22980900  0.77019100  0.25000000  1
  Mo  Mo0  1  0.69282400  0.69110100  0.76642000  1
  Mo  Mo1  1  0.30717600  0.30889900  0.23358000  1
  Mo  Mo2  1  0.30889900  0.30717600  0.73358000  1
  Mo  Mo3  1  0.69110100  0.69282400  0.26642000  1
  O  O0  1  0.61374500  0.75725100  0.57282800  1
  O  O1  1  0.38625500  0.24274900  0.42717200  1
  O  O2  1  0.24274900  0.38625500  0.92717200  1
  O  O3  1  0.75725100  0.61374500  0.07282800  1
  O  O4  1  0.38257300  0.07229900  0.87310300  1
  O  O5  1  0.61742700  0.92770100  0.12689700  1
  O  O6  1  0.92770100  0.61742700  0.62689700  1
  O  O7  1  0.07229900  0.38257300  0.37310300  1
  O  O8  1  0.58309200  0.37088900  0.96797800  1
  O  O9  1  0.41690800  0.62911100  0.03202200  1
  O  O10  1  0.62911100  0.41690800  0.53202200  1
  O  O11  1  0.37088900  0.58309200  0.46797800  1
  O  O12  1  0.78394200  0.94102900  0.70350400  1
  O  O13  1  0.21605800  0.05897100  0.29649600  1
  O  O14  1  0.05897100  0.21605800  0.79649600  1
  O  O15  1  0.94102900  0.78394200  0.20350400  1
loop_
_geom_bond_atom_site_label_1
_geom_bond_atom_site_label_2
_geom_bond_distance
_geom_bond_site_symmetry_2
Cs0 O0 2.932476 1_555
Cs0 O2 2.932476 1_555
Cs0 O3 2.940815 1_456
Cs0 O1 2.940815 1_565
Cs0 O15 3.119239 1_456
Cs0 O13 3.119239 1_565
Cs0 O9 3.227734 1_556
Cs0 O11 3.227734 1_555
Cs0 O6 3.276958 1_455
Cs0 O4 3.276958 1_565
Cs0 O12 3.446356 1_455
Cs0 O14 3.446356 1_565
Cs1 O3 2.932476 1_555
Cs1 O1 2.932476 1_555
Cs1 O0 2.940815 1_545
Cs1 O2 2.940815 1_654
Cs1 O14 3.119239 1_654
Cs1 O12 3.119239 1_545
Cs1 O8 3.227734 1_554
Cs1 O10 3.227734 1_555
Cs1 O7 3.276958 1_655
Cs1 O5 3.276958 1_545
Cs1 O15 3.446356 1_545
Cs1 O13 3.446356 1_655
Mo0 O0 1.774411 1_555
Mo0 O12 1.810467 1_555
Mo0 O6 1.862223 1_555
Mo0 O9 2.016415 1_556
Mo0 O8 2.110364 1_555
Mo0 O3 2.517674 1_556
Mo1 O1 1.774411 1_555
Mo1 O13 1.810467 1_555
Mo1 O7 1.862223 1_555
Mo1 O8 2.016415 1_554
Mo1 O9 2.110364 1_555
Mo1 O2 2.517674 1_554
Mo2 O2 1.774411 1_555
Mo2 O14 1.810467 1_555
Mo2 O4 1.862223 1_555
Mo2 O11 2.016415 1_555
Mo2 O10 2.110364 1_555
Mo2 O1 2.517674 1_555
Mo3 O3 1.774411 1_555
Mo3 O15 1.810467 1_555
Mo3 O5 1.862223 1_555
Mo3 O10 2.016415 1_555
Mo3 O11 2.110364 1_555
Mo3 O0 2.517674 1_555
O4 Sm1 2.451913 1_546
O4 Sm0 2.765446 1_555
O5 Sm0 2.451913 1_564
O5 Sm1 2.765446 1_555
O6 Sm1 2.451913 1_655
O6 Sm0 2.765446 1_555
O7 Sm0 2.451913 1_455
O7 Sm1 2.765446 1_555
O8 Sm0 2.369544 1_555
O9 Sm1 2.369544 1_555
O10 Sm0 2.369544 1_555
O11 Sm1 2.369544 1_555
O12 Sm0 2.414993 1_565
O13 Sm1 2.414993 1_545
O14 Sm0 2.414993 1_455
O15 Sm1 2.414993 1_655
