# generated using pymatgen
data_BaMgWF7
_symmetry_space_group_name_H-M   'P 1'
_cell_length_a   10.22845400
_cell_length_b   5.72248100
_cell_length_c   9.93760553
_cell_angle_alpha   87.42728433
_cell_angle_beta   90.00000000
_cell_angle_gamma   90.00000000
_symmetry_Int_Tables_number   1
_chemical_formula_structural   BaMgWF7
_chemical_formula_sum   'Ba4 Mg4 W4 F28'
_cell_volume   581.08296641
_cell_formula_units_Z   4
loop_
 _symmetry_equiv_pos_site_id
 _symmetry_equiv_pos_as_xyz
  1  'x, y, z'
loop_
 _atom_site_type_symbol
 _atom_site_label
 _atom_site_symmetry_multiplicity
 _atom_site_fract_x
 _atom_site_fract_y
 _atom_site_fract_z
 _atom_site_occupancy
  Ba  Ba0  1  0.32758100  0.73260300  0.49685800  1
  Ba  Ba1  1  0.82758100  0.26739700  0.00314200  1
  Ba  Ba2  1  0.67241900  0.26739700  0.50314200  1
  Ba  Ba3  1  0.17241900  0.73260300  0.99685800  1
  Mg  Mg0  1  0.39277400  0.31293700  0.80998100  1
  Mg  Mg1  1  0.89277400  0.68706300  0.69001900  1
  Mg  Mg2  1  0.10722600  0.31293700  0.30998100  1
  Mg  Mg3  1  0.60722600  0.68706300  0.19001900  1
  W  W0  1  0.61180200  0.80637300  0.81484800  1
  W  W1  1  0.38819800  0.19362700  0.18515200  1
  W  W2  1  0.88819800  0.80637300  0.31484800  1
  W  W3  1  0.11180200  0.19362700  0.68515200  1
  F  F0  1  0.45410000  0.86631400  0.12344800  1
  F  F1  1  0.05952800  0.62582300  0.37564500  1
  F  F2  1  0.71834300  0.51120800  0.74975300  1
  F  F3  1  0.28165700  0.48879200  0.25024700  1
  F  F4  1  0.45834600  0.10338600  0.37741700  1
  F  F5  1  0.80304600  0.73618800  0.50838200  1
  F  F6  1  0.78795100  0.97369500  0.74944200  1
  F  F7  1  0.95834600  0.89661400  0.12258300  1
  F  F8  1  0.44047200  0.62582300  0.87564500  1
  F  F9  1  0.21834300  0.48879200  0.75024700  1
  F  F10  1  0.04590000  0.86631400  0.62344800  1
  F  F11  1  0.54590000  0.13368600  0.87655200  1
  F  F12  1  0.28795100  0.02630500  0.75055800  1
  F  F13  1  0.95856800  0.60468000  0.86882700  1
  F  F14  1  0.54165400  0.89661400  0.62258300  1
  F  F15  1  0.04165400  0.10338600  0.87741700  1
  F  F16  1  0.21204900  0.02630500  0.25055800  1
  F  F17  1  0.95410000  0.13368600  0.37655300  1
  F  F18  1  0.45856800  0.39532000  0.63117300  1
  F  F19  1  0.94047200  0.37417700  0.62435500  1
  F  F20  1  0.04143200  0.39532000  0.13117300  1
  F  F21  1  0.71204900  0.97369500  0.24944200  1
  F  F22  1  0.54143200  0.60468000  0.36882700  1
  F  F23  1  0.30304600  0.26381200  0.99161800  1
  F  F24  1  0.19695400  0.26381200  0.49161800  1
  F  F25  1  0.69695400  0.73618800  0.00838200  1
  F  F26  1  0.55952800  0.37417700  0.12435500  1
  F  F27  1  0.78165700  0.51120800  0.24975300  1
loop_
_geom_bond_atom_site_label_1
_geom_bond_atom_site_label_2
_geom_bond_distance
_geom_bond_site_symmetry_2
Ba0 F22 2.650068 1_555
Ba0 F18 2.659069 1_555
Ba0 F14 2.709551 1_555
Ba0 F4 2.733820 1_565
Ba0 F3 2.912086 1_555
Ba0 F24 2.999508 1_555
Ba0 F9 3.036505 1_555
Ba0 F1 3.067202 1_555
Ba0 F12 3.118619 1_565
Ba0 F16 3.137325 1_565
Ba0 F10 3.248929 1_555
Ba0 F24 3.318777 1_565
Ba1 F20 2.650068 1_655
Ba1 F13 2.659069 1_554
Ba1 F15 2.709551 1_654
Ba1 F7 2.733820 1_545
Ba1 F27 2.912086 1_555
Ba1 F25 2.999508 1_555
Ba1 F2 3.036505 1_554
Ba1 F26 3.067202 1_555
Ba1 F6 3.118619 1_544
Ba1 F21 3.137325 1_545
Ba1 F11 3.248929 1_554
Ba1 F25 3.318777 1_545
Ba2 F18 2.650068 1_555
Ba2 F22 2.659069 1_555
Ba2 F4 2.709551 1_555
Ba2 F14 2.733820 1_545
Ba2 F2 2.912086 1_555
Ba2 F5 2.999508 1_555
Ba2 F27 3.036505 1_555
Ba2 F19 3.067202 1_555
Ba2 F21 3.118619 1_545
Ba2 F6 3.137325 1_545
Ba2 F17 3.248925 1_555
Ba2 F5 3.318777 1_545
Ba3 F13 2.650068 1_455
Ba3 F20 2.659069 1_556
Ba3 F7 2.709551 1_456
Ba3 F15 2.733820 1_565
Ba3 F9 2.912086 1_555
Ba3 F23 2.999508 1_555
Ba3 F3 3.036505 1_556
Ba3 F8 3.067202 1_555
Ba3 F16 3.118619 1_566
Ba3 F12 3.137325 1_565
Ba3 F0 3.248929 1_556
Ba3 F23 3.318777 1_565
F0 Mg3 1.970288 1_555
F0 W1 2.107552 1_565
F1 Mg2 1.993630 1_555
F1 W2 2.108916 1_455
F2 Mg1 2.120063 1_555
F2 W0 2.134734 1_555
F3 Mg2 2.120063 1_555
F3 W1 2.134734 1_555
F4 W1 2.084108 1_555
F5 Mg1 2.033211 1_555
F5 W2 2.132957 1_555
F6 Mg1 2.067763 1_555
F6 W0 2.128295 1_555
F7 W2 2.084108 1_555
F8 Mg0 1.993630 1_555
F8 W0 2.108916 1_555
F9 Mg0 2.120063 1_555
F9 W3 2.134734 1_555
F10 Mg1 1.970288 1_455
F10 W3 2.107552 1_565
F11 Mg0 1.970288 1_555
F11 W0 2.107552 1_545
F12 Mg0 2.067763 1_555
F12 W3 2.128295 1_555
F13 Mg1 1.938400 1_555
F14 W0 2.084108 1_555
F15 W3 2.084108 1_555
F16 Mg2 2.067763 1_555
F16 W1 2.128295 1_555
F17 Mg2 1.970291 1_655
F17 W2 2.107556 1_545
F18 Mg0 1.938400 1_555
F19 Mg1 1.993630 1_555
F19 W3 2.108916 1_655
F20 Mg2 1.938400 1_555
F21 Mg3 2.067763 1_555
F21 W2 2.128295 1_555
F22 Mg3 1.938400 1_555
F23 Mg0 2.033211 1_555
F23 W1 2.132957 1_556
F24 Mg2 2.033211 1_555
F24 W3 2.132957 1_555
F25 Mg3 2.033211 1_555
F25 W0 2.132957 1_554
F26 Mg3 1.993630 1_555
F26 W1 2.108916 1_555
F27 Mg3 2.120063 1_555
F27 W2 2.134734 1_555
