# generated using pymatgen
data_InAgP2O7
_symmetry_space_group_name_H-M   'P 1'
_cell_length_a   8.41253500
_cell_length_b   7.60782300
_cell_length_c   10.00021619
_cell_angle_alpha   68.06733300
_cell_angle_beta   90.00000000
_cell_angle_gamma   90.00000000
_symmetry_Int_Tables_number   1
_chemical_formula_structural   InAgP2O7
_chemical_formula_sum   'In4 Ag4 P8 O28'
_cell_volume   593.70183314
_cell_formula_units_Z   4
loop_
 _symmetry_equiv_pos_site_id
 _symmetry_equiv_pos_as_xyz
  1  'x, y, z'
loop_
 _atom_site_type_symbol
 _atom_site_label
 _atom_site_symmetry_multiplicity
 _atom_site_fract_x
 _atom_site_fract_y
 _atom_site_fract_z
 _atom_site_occupancy
  In  In0  1  0.99519800  0.75729700  0.74761100  1
  In  In1  1  0.49519800  0.24270300  0.75238900  1
  In  In2  1  0.00480200  0.24270300  0.25238900  1
  In  In3  1  0.50480200  0.75729700  0.24761100  1
  Ag  Ag0  1  0.02715600  0.20899000  0.80478500  1
  Ag  Ag1  1  0.52715600  0.79101000  0.69521500  1
  Ag  Ag2  1  0.97284400  0.79101000  0.19521500  1
  Ag  Ag3  1  0.47284400  0.20899000  0.30478500  1
  P  P0  1  0.24763400  0.42349200  0.96071700  1
  P  P1  1  0.74763400  0.57650800  0.53928300  1
  P  P2  1  0.75236600  0.57650800  0.03928300  1
  P  P3  1  0.25236600  0.42349200  0.46071700  1
  P  P4  1  0.28746700  0.82376200  0.95158200  1
  P  P5  1  0.78746700  0.17623800  0.54841800  1
  P  P6  1  0.71253300  0.17623800  0.04841800  1
  P  P7  1  0.21253300  0.82376200  0.45158200  1
  O  O0  1  0.36714200  0.31983600  0.90498600  1
  O  O1  1  0.86714200  0.68016400  0.59501400  1
  O  O2  1  0.63285800  0.68016400  0.09501400  1
  O  O3  1  0.13285800  0.31983600  0.40498600  1
  O  O4  1  0.21615900  0.31713800  0.12149300  1
  O  O5  1  0.71615900  0.68286200  0.37850700  1
  O  O6  1  0.78384100  0.68286200  0.87850700  1
  O  O7  1  0.28384100  0.31713800  0.62149300  1
  O  O8  1  0.09332400  0.47490600  0.86954600  1
  O  O9  1  0.59332400  0.52509400  0.63045400  1
  O  O10  1  0.90667600  0.52509400  0.13045400  1
  O  O11  1  0.40667600  0.47490600  0.36954600  1
  O  O12  1  0.41097300  0.95449100  0.85101700  1
  O  O13  1  0.91097300  0.04550900  0.64898300  1
  O  O14  1  0.58902700  0.04550900  0.14898300  1
  O  O15  1  0.08902700  0.95449100  0.35101700  1
  O  O16  1  0.29573700  0.80837200  0.10826800  1
  O  O17  1  0.79573700  0.19162800  0.39173200  1
  O  O18  1  0.70426300  0.19162800  0.89173200  1
  O  O19  1  0.20426300  0.80837200  0.60826800  1
  O  O20  1  0.11466500  0.86754300  0.89584400  1
  O  O21  1  0.61466500  0.13245700  0.60415600  1
  O  O22  1  0.88533500  0.13245700  0.10415600  1
  O  O23  1  0.38533500  0.86754300  0.39584400  1
  O  O24  1  0.33507600  0.62150800  0.94239800  1
  O  O25  1  0.83507600  0.37849200  0.55760200  1
  O  O26  1  0.66492400  0.37849200  0.05760200  1
  O  O27  1  0.16492400  0.62150800  0.44239800  1
loop_
_geom_bond_atom_site_label_1
_geom_bond_atom_site_label_2
_geom_bond_distance
_geom_bond_site_symmetry_2
In0 O1 2.121912 1_555
In0 O6 2.154493 1_555
In0 O13 2.160337 1_565
In0 O19 2.186662 1_655
In0 O8 2.197011 1_655
In0 O20 2.199937 1_655
In1 O0 2.121912 1_555
In1 O7 2.154493 1_555
In1 O12 2.160337 1_545
In1 O18 2.186662 1_555
In1 O9 2.197011 1_555
In1 O21 2.199937 1_555
In2 O3 2.121912 1_555
In2 O4 2.154493 1_555
In2 O15 2.160337 1_545
In2 O17 2.186662 1_455
In2 O10 2.197011 1_455
In2 O22 2.199937 1_455
In3 O2 2.121912 1_555
In3 O5 2.154493 1_555
In3 O14 2.160337 1_565
In3 O16 2.186662 1_555
In3 O11 2.197011 1_555
In3 O23 2.199937 1_555
Ag0 O8 2.408465 1_555
Ag0 O20 2.520310 1_545
Ag0 O13 2.525334 1_455
Ag0 O7 2.751904 1_555
Ag0 O25 2.828949 1_455
Ag0 O18 2.840108 1_455
Ag1 O9 2.408465 1_555
Ag1 O21 2.520310 1_565
Ag1 O12 2.525334 1_555
Ag1 O6 2.751904 1_555
Ag1 O24 2.828949 1_555
Ag1 O19 2.840108 1_555
Ag2 O10 2.408465 1_555
Ag2 O22 2.520310 1_565
Ag2 O15 2.525334 1_655
Ag2 O5 2.751904 1_555
Ag2 O27 2.828949 1_655
Ag2 O16 2.840108 1_655
Ag3 O11 2.408465 1_555
Ag3 O23 2.520310 1_545
Ag3 O14 2.525334 1_555
Ag3 O4 2.751904 1_555
Ag3 O26 2.828949 1_555
Ag3 O17 2.840108 1_555
O0 P0 1.507174 1_555
O1 P1 1.507174 1_555
O2 P2 1.507174 1_555
O3 P3 1.507174 1_555
O4 P0 1.529044 1_554
O5 P1 1.529044 1_555
O6 P2 1.529044 1_556
O7 P3 1.529044 1_555
O8 P0 1.550162 1_555
O9 P1 1.550162 1_555
O10 P2 1.550162 1_555
O11 P3 1.550162 1_555
O12 P4 1.527371 1_555
O13 P5 1.527371 1_555
O14 P6 1.527371 1_555
O15 P7 1.527371 1_555
O16 P4 1.528612 1_554
O17 P5 1.528612 1_555
O18 P6 1.528612 1_556
O19 P7 1.528612 1_555
O20 P4 1.547963 1_555
O21 P5 1.547963 1_555
O22 P6 1.547963 1_555
O23 P7 1.547963 1_555
O24 P0 1.624183 1_555
O24 P4 1.625439 1_555
O25 P1 1.624183 1_555
O25 P5 1.625439 1_555
O26 P2 1.624183 1_555
O26 P6 1.625439 1_555
O27 P3 1.624183 1_555
O27 P7 1.625439 1_555
