# generated using pymatgen
data_Ca(AgO2)2
_symmetry_space_group_name_H-M   'P 1'
_cell_length_a   5.61639066
_cell_length_b   5.61639066
_cell_length_c   10.00860500
_cell_angle_alpha   90.00000000
_cell_angle_beta   90.00000000
_cell_angle_gamma   145.43791804
_symmetry_Int_Tables_number   1
_chemical_formula_structural   Ca(AgO2)2
_chemical_formula_sum   'Ca2 Ag4 O8'
_cell_volume   179.10185660
_cell_formula_units_Z   2
loop_
 _symmetry_equiv_pos_site_id
 _symmetry_equiv_pos_as_xyz
  1  'x, y, z'
loop_
 _atom_site_type_symbol
 _atom_site_label
 _atom_site_symmetry_multiplicity
 _atom_site_fract_x
 _atom_site_fract_y
 _atom_site_fract_z
 _atom_site_occupancy
  Ca  Ca0  1  0.60883700  0.39116300  0.75000000  1
  Ca  Ca1  1  0.39116300  0.60883700  0.25000000  1
  Ag  Ag0  1  0.13215100  0.86784900  0.07010900  1
  Ag  Ag1  1  0.86784900  0.13215100  0.92989100  1
  Ag  Ag2  1  0.13215100  0.86784900  0.42989100  1
  Ag  Ag3  1  0.86784900  0.13215100  0.57010900  1
  O  O0  1  0.78014700  0.21985300  0.38703500  1
  O  O1  1  0.21985300  0.78014700  0.61296500  1
  O  O2  1  0.21985300  0.78014700  0.88703500  1
  O  O3  1  0.78014700  0.21985300  0.11296500  1
  O  O4  1  0.04153600  0.95846400  0.25000000  1
  O  O5  1  0.95846400  0.04153600  0.75000000  1
  O  O6  1  0.50000000  0.50000000  0.00000000  1
  O  O7  1  0.50000000  0.50000000  0.50000000  1
loop_
_geom_bond_atom_site_label_1
_geom_bond_atom_site_label_2
_geom_bond_distance
_geom_bond_site_symmetry_2
Ca0 O5 2.320532 1_455
Ca0 O5 2.320532 1_565
Ca0 O2 2.466268 1_655
Ca0 O2 2.466268 1_545
Ca0 O1 2.466268 1_655
Ca0 O1 2.466268 1_545
Ca0 O6 2.761065 1_556
Ca0 O7 2.761065 1_555
Ca1 O4 2.320532 1_545
Ca1 O4 2.320532 1_655
Ca1 O0 2.466268 1_565
Ca1 O0 2.466268 1_455
Ca1 O3 2.466268 1_565
Ca1 O3 2.466268 1_455
Ca1 O6 2.761065 1_555
Ca1 O7 2.761065 1_555
Ag0 O4 2.046035 1_555
Ag0 O2 2.059669 1_554
Ag0 O6 2.298912 1_565
Ag0 O6 2.298912 1_455
Ag0 O3 2.342490 1_565
Ag0 O3 2.342490 1_455
Ag1 O5 2.046035 1_555
Ag1 O3 2.059669 1_556
Ag1 O6 2.298912 1_656
Ag1 O6 2.298912 1_546
Ag1 O2 2.342490 1_655
Ag1 O2 2.342490 1_545
Ag2 O4 2.046035 1_555
Ag2 O1 2.059669 1_555
Ag2 O7 2.298912 1_455
Ag2 O7 2.298912 1_565
Ag2 O0 2.342490 1_565
Ag2 O0 2.342490 1_455
Ag3 O5 2.046035 1_555
Ag3 O0 2.059669 1_555
Ag3 O7 2.298912 1_655
Ag3 O7 2.298912 1_545
Ag3 O1 2.342490 1_655
Ag3 O1 2.342490 1_545
