# generated using pymatgen
data_Li3MnV(PO4)3
_symmetry_space_group_name_H-M   'P 1'
_cell_length_a   9.00003529
_cell_length_b   8.46741965
_cell_length_c   14.67370820
_cell_angle_alpha   91.01609244
_cell_angle_beta   73.41608283
_cell_angle_gamma   63.33593472
_symmetry_Int_Tables_number   1
_chemical_formula_structural   Li3MnV(PO4)3
_chemical_formula_sum   'Li12 Mn4 V4 P12 O48'
_cell_volume   943.76728855
_cell_formula_units_Z   4
loop_
 _symmetry_equiv_pos_site_id
 _symmetry_equiv_pos_as_xyz
  1  'x, y, z'
loop_
 _atom_site_type_symbol
 _atom_site_label
 _atom_site_symmetry_multiplicity
 _atom_site_fract_x
 _atom_site_fract_y
 _atom_site_fract_z
 _atom_site_occupancy
  Li  Li0  1  0.14310300  0.25942200  0.33352300  1
  Li  Li1  1  0.15497400  0.79467800  0.13270900  1
  Li  Li2  1  0.14561600  0.29877000  0.63073600  1
  Li  Li3  1  0.14748000  0.72662900  0.45833800  1
  Li  Li4  1  0.14788200  0.22956200  0.95991500  1
  Li  Li5  1  0.14689000  0.76185100  0.83334400  1
  Li  Li6  1  0.85261600  0.24009500  0.16803700  1
  Li  Li7  1  0.85461300  0.76902900  0.04030100  1
  Li  Li8  1  0.85259000  0.27269400  0.54039900  1
  Li  Li9  1  0.85274300  0.70125500  0.36866500  1
  Li  Li10  1  0.84974100  0.20188600  0.86914100  1
  Li  Li11  1  0.85026900  0.74072800  0.66701300  1
  Mn  Mn0  1  0.04322700  0.97930600  0.32576800  1
  Mn  Mn1  1  0.56343600  0.22257700  0.07239800  1
  Mn  Mn2  1  0.55748400  0.72770100  0.57322900  1
  Mn  Mn3  1  0.43822400  0.77515300  0.92680900  1
  V  V0  1  0.04602100  0.47726000  0.82525900  1
  V  V1  1  0.43621000  0.28221600  0.42700800  1
  V  V2  1  0.95632800  0.52086600  0.17490200  1
  V  V3  1  0.95062800  0.02439300  0.67477300  1
  P  P0  1  0.25469800  0.08520300  0.12279100  1
  P  P1  1  0.24521400  0.02391000  0.47583900  1
  P  P2  1  0.25352900  0.51737100  0.26834100  1
  P  P3  1  0.24639700  0.02633100  0.76889200  1
  P  P4  1  0.24935100  0.58934600  0.62451800  1
  P  P5  1  0.25148500  0.52267600  0.97779800  1
  P  P6  1  0.74982500  0.47695800  0.02241700  1
  P  P7  1  0.74827600  0.41946100  0.37823900  1
  P  P8  1  0.75714300  0.97070700  0.23143800  1
  P  P9  1  0.75079500  0.47566400  0.73107400  1
  P  P10  1  0.74513200  0.98134300  0.52128600  1
  P  P11  1  0.74637000  0.91305300  0.87733900  1
  O  O0  1  0.10275500  0.25621100  0.10315200  1
  O  O1  1  0.19721500  0.06766400  0.23053700  1
  O  O2  1  0.09706300  0.61784600  0.07760000  1
  O  O3  1  0.09043100  0.11952200  0.57577200  1
  O  O4  1  0.09953500  0.47407300  0.26726600  1
  O  O5  1  0.42702800  0.09373800  0.09558000  1
  O  O6  1  0.26136200  0.18220900  0.43056800  1
  O  O7  1  0.20306800  0.70985300  0.24965200  1
  O  O8  1  0.19490800  0.22081500  0.74861200  1
  O  O9  1  0.26667200  0.49629300  0.37102500  1
  O  O10  1  0.42768700  0.38142700  0.19367900  1
  O  O11  1  0.09814000  0.75961500  0.60369200  1
  O  O12  1  0.27202900  0.92440100  0.05905200  1
  O  O13  1  0.26596700  0.42878900  0.56181000  1
  O  O14  1  0.58652600  0.10417200  0.30709100  1
  O  O15  1  0.19085600  0.57363500  0.73264800  1
  O  O16  1  0.18579200  0.92933200  0.41139800  1
  O  O17  1  0.18878500  0.43242000  0.91436700  1
  O  O18  1  0.75297200  0.98971100  0.12841600  1
  O  O19  1  0.58277300  0.61068700  0.00848700  1
  O  O20  1  0.57968400  0.11387200  0.50368900  1
  O  O21  1  0.09481600  0.98026700  0.76588100  1
  O  O22  1  0.73632600  0.31605300  0.06842800  1
  O  O23  1  0.57887400  0.40662800  0.40321500  1
  O  O24  1  0.42163900  0.59757400  0.59737900  1
  O  O25  1  0.26448500  0.68395200  0.93177900  1
  O  O26  1  0.91387400  0.01336000  0.23336500  1
  O  O27  1  0.41011900  0.88640200  0.49058800  1
  O  O28  1  0.41879500  0.38914600  0.99142200  1
  O  O29  1  0.25594800  0.00956000  0.87107600  1
  O  O30  1  0.81255100  0.56728900  0.08574200  1
  O  O31  1  0.80417000  0.07382800  0.58543500  1
  O  O32  1  0.80730700  0.43324900  0.26953900  1
  O  O33  1  0.42065900  0.89277800  0.69336500  1
  O  O34  1  0.72526000  0.58446700  0.44110000  1
  O  O35  1  0.72808500  0.07479300  0.94075000  1
  O  O36  1  0.90085700  0.25358100  0.39864300  1
  O  O37  1  0.57655000  0.60760000  0.80697400  1
  O  O38  1  0.74202300  0.49348300  0.62874400  1
  O  O39  1  0.80841400  0.77630600  0.25057400  1
  O  O40  1  0.80378300  0.28035200  0.75042200  1
  O  O41  1  0.72727500  0.82441600  0.56938800  1
  O  O42  1  0.57523700  0.90312400  0.90300300  1
  O  O43  1  0.90235400  0.52176500  0.73426100  1
  O  O44  1  0.90312000  0.88027800  0.42341100  1
  O  O45  1  0.90473300  0.38093900  0.92258200  1
  O  O46  1  0.80501900  0.93127100  0.76947800  1
  O  O47  1  0.89818900  0.74315500  0.89712500  1
loop_
_geom_bond_atom_site_label_1
_geom_bond_atom_site_label_2
_geom_bond_distance
_geom_bond_site_symmetry_2
Li0 O6 1.965125 1_555
Li0 O1 1.985042 1_555
Li0 O4 2.010745 1_555
Li0 O36 2.139653 1_455
Li1 O7 1.958706 1_555
Li1 O12 1.978705 1_555
Li1 O2 2.016329 1_555
Li1 O26 2.187697 1_465
Li2 O8 1.959590 1_555
Li2 O13 1.972971 1_555
Li2 O3 2.015590 1_555
Li2 O43 2.226141 1_455
Li3 O9 1.960904 1_555
Li3 O16 1.994185 1_555
Li3 O11 2.037470 1_555
Li3 O44 2.211567 1_455
Li4 O29 1.918207 1_555
Li4 O17 2.000113 1_555
Li4 O0 2.011751 1_556
Li4 O45 2.218927 1_455
Li5 O15 1.973944 1_555
Li5 O25 1.980250 1_555
Li5 O21 2.042500 1_555
Li5 O47 2.244661 1_455
Li6 O22 1.986924 1_555
Li6 O32 2.006953 1_555
Li6 O26 2.079835 1_555
Li6 O0 2.247237 1_655
Li7 O18 1.924902 1_555
Li7 O30 1.995649 1_555
Li7 O47 2.012933 1_554
Li7 O2 2.213414 1_655
Li8 O38 1.916713 1_555
Li8 O36 1.987665 1_555
Li8 O31 1.998939 1_555
Li8 O3 2.167947 1_655
Li9 O39 1.942130 1_555
Li9 O34 1.945129 1_555
Li9 O44 1.982502 1_555
Li9 O4 2.241621 1_655
Li10 O40 1.962898 1_555
Li10 O35 1.975330 1_555
Li10 O45 2.002837 1_555
Li10 O21 2.226836 1_645
Li11 O46 2.001069 1_555
Li11 O41 2.004190 1_555
Li11 O43 2.044473 1_555
Li11 O11 2.237817 1_655
Mn0 O16 1.963687 1_555
Mn0 O26 1.972452 1_465
Mn0 O1 2.072523 1_565
Mn0 O44 2.075155 1_455
Mn0 O7 2.137551 1_555
Mn0 O36 2.153561 1_465
Mn1 O10 1.915201 1_555
Mn1 O5 1.946759 1_555
Mn1 O22 2.026405 1_555
Mn1 O35 2.027161 1_554
Mn1 O28 2.095296 1_554
Mn1 O18 2.304889 1_545
Mn2 O33 1.925192 1_555
Mn2 O24 1.951921 1_555
Mn2 O41 2.021046 1_555
Mn2 O34 2.027754 1_555
Mn2 O27 2.100385 1_555
Mn2 O38 2.286600 1_555
Mn3 O37 1.931683 1_555
Mn3 O42 1.945137 1_555
Mn3 O25 2.016769 1_555
Mn3 O12 2.039483 1_556
Mn3 O19 2.095584 1_556
Mn3 O29 2.280474 1_565
O0 P0 1.585035 1_555
O0 V2 2.083447 1_455
O1 P0 1.549110 1_555
O2 P5 1.586416 1_554
O2 V2 2.063969 1_455
O3 P1 1.589312 1_555
O3 V3 2.061571 1_455
O4 P2 1.588661 1_555
O4 V2 2.052544 1_455
O5 P0 1.522594 1_555
O6 P1 1.552528 1_555
O6 V1 2.084892 1_555
O7 P2 1.536362 1_555
O8 P3 1.557678 1_555
O8 V0 2.053581 1_555
O9 P2 1.551930 1_555
O9 V1 2.138868 1_555
O10 P2 1.528981 1_555
O11 P4 1.586222 1_555
O11 V3 2.081372 1_465
O12 P0 1.560106 1_565
O13 P4 1.553035 1_555
O13 V1 2.068029 1_555
O14 P8 1.514052 1_545
O14 V1 1.978836 1_555
O15 P4 1.551092 1_555
O15 V0 2.048095 1_555
O16 P1 1.570888 1_565
O17 P5 1.559000 1_555
O17 V0 2.010856 1_555
O18 P8 1.532379 1_555
O19 P6 1.496688 1_555
O20 P10 1.507723 1_545
O20 V1 2.049292 1_555
O21 P3 1.589527 1_565
O21 V3 2.045429 1_465
O22 P6 1.568829 1_555
O23 P7 1.517149 1_555
O23 V1 1.962497 1_555
O24 P4 1.520937 1_555
O25 P5 1.570199 1_555
O26 P8 1.612647 1_545
O27 P1 1.498853 1_565
O28 P5 1.495851 1_555
O29 P3 1.531659 1_555
O30 P6 1.558509 1_555
O30 V2 2.017110 1_555
O31 P10 1.553854 1_545
O31 V3 2.035148 1_555
O32 P7 1.555171 1_555
O32 V2 2.035689 1_555
O33 P3 1.529167 1_565
O34 P7 1.559263 1_555
O35 P11 1.559990 1_545
O36 P7 1.570580 1_555
O37 P9 1.527808 1_555
O38 P9 1.532546 1_555
O39 P8 1.552408 1_555
O39 V2 2.042084 1_555
O40 P9 1.558567 1_555
O40 V3 2.045125 1_555
O41 P10 1.565192 1_555
O42 P11 1.518998 1_555
O43 P9 1.590226 1_555
O43 V0 2.040328 1_655
O44 P10 1.585985 1_555
O45 P6 1.589138 1_556
O45 V0 2.063273 1_655
O46 P11 1.553146 1_555
O46 V3 2.048660 1_565
O47 P11 1.580472 1_555
O47 V0 2.092272 1_655
