# generated using pymatgen
data_Yb3PbO
_symmetry_space_group_name_H-M   'P 1'
_cell_length_a   4.66856409
_cell_length_b   4.66856409
_cell_length_c   4.66856409
_cell_angle_alpha   90.00000000
_cell_angle_beta   90.00000000
_cell_angle_gamma   90.00000000
_symmetry_Int_Tables_number   1
_chemical_formula_structural   Yb3PbO
_chemical_formula_sum   'Yb3 Pb1 O1'
_cell_volume   101.75364526
_cell_formula_units_Z   1
loop_
 _symmetry_equiv_pos_site_id
 _symmetry_equiv_pos_as_xyz
  1  'x, y, z'
loop_
 _atom_site_type_symbol
 _atom_site_label
 _atom_site_symmetry_multiplicity
 _atom_site_fract_x
 _atom_site_fract_y
 _atom_site_fract_z
 _atom_site_occupancy
  Yb  Yb0  1  0.50000000  0.00000000  0.50000000  1
  Yb  Yb1  1  0.00000000  0.50000000  0.50000000  1
  Yb  Yb2  1  0.50000000  0.50000000  0.00000000  1
  Pb  Pb0  1  0.00000000  0.00000000  0.00000000  1
  O  O0  1  0.50000000  0.50000000  0.50000000  1
loop_
_geom_bond_atom_site_label_1
_geom_bond_atom_site_label_2
_geom_bond_distance
_geom_bond_site_symmetry_2
Pb0 Yb1 3.301173 1_544
Pb0 Yb2 3.301173 1_555
Pb0 Yb0 3.301173 1_455
Pb0 Yb2 3.301173 1_445
Pb0 Yb0 3.301173 1_454
Pb0 Yb2 3.301173 1_545
Pb0 Yb0 3.301173 1_555
Pb0 Yb0 3.301173 1_554
Pb0 Yb1 3.301173 1_545
Pb0 Yb2 3.301173 1_455
Pb0 Yb1 3.301173 1_555
Pb0 Yb1 3.301173 1_554
O0 Yb0 2.334282 1_555
O0 Yb1 2.334282 1_555
O0 Yb0 2.334282 1_565
O0 Yb1 2.334282 1_655
O0 Yb2 2.334282 1_556
O0 Yb2 2.334282 1_555
