# generated using pymatgen
data_Li3Al(FeO3)2
_symmetry_space_group_name_H-M   'P 1'
_cell_length_a   5.39212200
_cell_length_b   5.88893093
_cell_length_c   7.96110367
_cell_angle_alpha   90.53821016
_cell_angle_beta   98.25087529
_cell_angle_gamma   90.38642561
_symmetry_Int_Tables_number   1
_chemical_formula_structural   Li3Al(FeO3)2
_chemical_formula_sum   'Li6 Al2 Fe4 O12'
_cell_volume   250.15952505
_cell_formula_units_Z   2
loop_
 _symmetry_equiv_pos_site_id
 _symmetry_equiv_pos_as_xyz
  1  'x, y, z'
loop_
 _atom_site_type_symbol
 _atom_site_label
 _atom_site_symmetry_multiplicity
 _atom_site_fract_x
 _atom_site_fract_y
 _atom_site_fract_z
 _atom_site_occupancy
  Li  Li0  1  0.82984000  0.84179200  0.90915100  1
  Li  Li1  1  0.65033700  0.66188000  0.57390800  1
  Li  Li2  1  0.49132000  0.83203700  0.25622800  1
  Li  Li3  1  0.50868000  0.16796300  0.74377200  1
  Li  Li4  1  0.34966300  0.33812000  0.42609200  1
  Li  Li5  1  0.17016000  0.15820800  0.09084900  1
  Al  Al0  1  0.00202300  0.66846100  0.24964800  1
  Al  Al1  1  0.99797700  0.33153900  0.75035200  1
  Fe  Fe0  1  0.82501100  0.17213600  0.41101700  1
  Fe  Fe1  1  0.34043600  0.67680200  0.92962600  1
  Fe  Fe2  1  0.65956400  0.32319800  0.07037400  1
  Fe  Fe3  1  0.17498900  0.82786400  0.58898300  1
  O  O0  1  0.01770900  0.64336000  0.74861900  1
  O  O1  1  0.84731300  0.18839600  0.90843400  1
  O  O2  1  0.85339700  0.83580500  0.40522300  1
  O  O3  1  0.69902200  0.33015000  0.58853800  1
  O  O4  1  0.48491100  0.83042700  0.75410900  1
  O  O5  1  0.67526200  0.65715100  0.08892900  1
  O  O6  1  0.32473800  0.34284900  0.91107100  1
  O  O7  1  0.51508900  0.16957300  0.24589100  1
  O  O8  1  0.30097800  0.66985000  0.41146200  1
  O  O9  1  0.14660300  0.16419500  0.59477700  1
  O  O10  1  0.15268700  0.81160400  0.09156600  1
  O  O11  1  0.98229100  0.35664000  0.25138100  1
loop_
_geom_bond_atom_site_label_1
_geom_bond_atom_site_label_2
_geom_bond_distance
_geom_bond_site_symmetry_2
Li0 O1 2.042765 1_565
Li0 O5 2.069990 1_556
Li0 O4 2.079684 1_555
Li0 O0 2.093924 1_655
Li0 O10 2.110564 1_656
Li1 O3 1.975144 1_555
Li1 O4 2.047287 1_555
Li1 O2 2.117565 1_555
Li1 O8 2.127546 1_555
Li1 O0 2.255098 1_655
Li2 O8 1.966191 1_555
Li2 O7 1.994221 1_565
Li2 O5 2.045848 1_555
Li2 O10 2.091429 1_555
Li2 O2 2.133880 1_555
Li3 O3 1.966191 1_555
Li3 O4 1.994221 1_545
Li3 O6 2.045848 1_555
Li3 O1 2.091429 1_555
Li3 O9 2.133880 1_555
Li4 O8 1.975144 1_555
Li4 O7 2.047287 1_555
Li4 O9 2.117565 1_555
Li4 O3 2.127546 1_555
Li4 O11 2.255098 1_455
Li5 O10 2.042765 1_545
Li5 O6 2.069990 1_554
Li5 O7 2.079684 1_555
Li5 O11 2.093924 1_455
Li5 O1 2.110564 1_454
Al0 O10 1.805146 1_555
Al0 O11 1.838951 1_455
Al0 O2 1.849334 1_455
Al0 O8 1.913564 1_555
Al0 O5 2.023794 1_455
Al1 O1 1.805146 1_555
Al1 O0 1.838951 1_655
Al1 O9 1.849334 1_655
Al1 O3 1.913564 1_555
Al1 O6 2.023794 1_655
Fe0 O3 1.893173 1_555
Fe0 O11 1.959022 1_555
Fe0 O7 1.972262 1_555
Fe0 O2 1.988178 1_545
Fe0 O9 2.103237 1_655
Fe1 O10 1.919211 1_556
Fe1 O4 1.924704 1_555
Fe1 O6 1.971120 1_555
Fe1 O5 2.056634 1_556
Fe1 O0 2.100920 1_555
Fe2 O1 1.919211 1_554
Fe2 O7 1.924704 1_555
Fe2 O5 1.971120 1_555
Fe2 O6 2.056634 1_554
Fe2 O11 2.100920 1_555
Fe3 O8 1.893173 1_555
Fe3 O0 1.959022 1_555
Fe3 O4 1.972262 1_555
Fe3 O9 1.988178 1_565
Fe3 O2 2.103237 1_455
