# generated using pymatgen
data_CeInPt4
_symmetry_space_group_name_H-M   'P 1'
_cell_length_a   5.39309881
_cell_length_b   5.39309954
_cell_length_c   5.39309954
_cell_angle_alpha   59.99999107
_cell_angle_beta   60.00000447
_cell_angle_gamma   60.00000447
_symmetry_Int_Tables_number   1
_chemical_formula_structural   CeInPt4
_chemical_formula_sum   'Ce1 In1 Pt4'
_cell_volume   110.91754572
_cell_formula_units_Z   1
loop_
 _symmetry_equiv_pos_site_id
 _symmetry_equiv_pos_as_xyz
  1  'x, y, z'
loop_
 _atom_site_type_symbol
 _atom_site_label
 _atom_site_symmetry_multiplicity
 _atom_site_fract_x
 _atom_site_fract_y
 _atom_site_fract_z
 _atom_site_occupancy
  Ce  Ce0  1  -0.00000000  -0.00000000  -0.00000000  1
  In  In0  1  0.25000000  0.25000000  0.25000000  1
  Pt  Pt0  1  0.62443975  0.62443975  0.12668075  1
  Pt  Pt1  1  0.62443975  0.12668075  0.62443975  1
  Pt  Pt2  1  0.12668075  0.62443975  0.62443975  1
  Pt  Pt3  1  0.62443975  0.62443975  0.62443975  1
loop_
_geom_bond_atom_site_label_1
_geom_bond_atom_site_label_2
_geom_bond_distance
_geom_bond_site_symmetry_2
Ce0 Pt1 3.163281 1_554
Ce0 Pt2 3.163281 1_545
Ce0 Pt2 3.163281 1_554
Ce0 Pt0 3.163281 1_545
Ce0 Pt1 3.163281 1_454
Ce0 Pt3 3.163281 1_454
Ce0 Pt3 3.163281 1_445
Ce0 Pt0 3.163281 1_445
Ce0 Pt1 3.163282 1_455
Ce0 Pt0 3.163282 1_455
Ce0 Pt2 3.163282 1_544
Ce0 Pt3 3.163282 1_544
Ce0 In0 3.302585 1_555
Ce0 In0 3.302585 1_545
Ce0 In0 3.302585 1_554
Ce0 In0 3.302585 1_455
In0 Pt1 3.160705 1_555
In0 Pt3 3.160705 1_554
In0 Pt0 3.160705 1_555
In0 Pt3 3.160705 1_545
In0 Pt0 3.160705 1_455
In0 Pt1 3.160705 1_455
In0 Pt2 3.160705 1_545
In0 Pt2 3.160705 1_554
In0 Pt2 3.160705 1_555
In0 Pt3 3.160705 1_455
In0 Pt0 3.160705 1_545
In0 Pt1 3.160705 1_554
Pt0 Pt1 2.684463 1_555
Pt0 Pt2 2.684464 1_555
Pt0 Pt3 2.684464 1_555
Pt0 Pt1 2.708635 1_564
Pt0 Pt3 2.708636 1_554
Pt0 Pt2 2.708636 1_654
Pt1 Pt2 2.684464 1_555
Pt1 Pt3 2.684464 1_555
Pt1 Pt3 2.708636 1_545
Pt1 Pt2 2.708636 1_645
Pt2 Pt3 2.684463 1_555
Pt2 Pt3 2.708635 1_455
