# generated using pymatgen
data_BaSr4(FeO3)5
_symmetry_space_group_name_H-M   'P 1'
_cell_length_a   3.93804907
_cell_length_b   5.58130290
_cell_length_c   14.21473787
_cell_angle_alpha   101.34429179
_cell_angle_beta   89.99397476
_cell_angle_gamma   89.98140002
_symmetry_Int_Tables_number   1
_chemical_formula_structural   BaSr4(FeO3)5
_chemical_formula_sum   'Ba1 Sr4 Fe5 O15'
_cell_volume   306.32800517
_cell_formula_units_Z   1
loop_
 _symmetry_equiv_pos_site_id
 _symmetry_equiv_pos_as_xyz
  1  'x, y, z'
loop_
 _atom_site_type_symbol
 _atom_site_label
 _atom_site_symmetry_multiplicity
 _atom_site_fract_x
 _atom_site_fract_y
 _atom_site_fract_z
 _atom_site_occupancy
  Ba  Ba0  1  0.50000000  0.49993200  0.99986700  1
  Sr  Sr0  1  0.49999700  0.10049000  0.20141000  1
  Sr  Sr1  1  0.50000000  0.70034600  0.40066000  1
  Sr  Sr2  1  0.49999600  0.29979400  0.59958800  1
  Sr  Sr3  1  0.50000400  0.89945200  0.79849300  1
  Fe  Fe0  1  0.00000300  0.39874000  0.79724700  1
  Fe  Fe1  1  0.00001000  0.20043700  0.40073600  1
  Fe  Fe2  1  0.99998800  0.79954900  0.59921000  1
  Fe  Fe3  1  0.00000300  0.00001300  0.00003100  1
  Fe  Fe4  1  0.99999300  0.60127600  0.20278400  1
  O  O0  1  0.99995800  0.70252800  0.89535500  1
  O  O1  1  0.99999800  0.49998000  0.49995100  1
  O  O2  1  0.00001300  0.09912900  0.69772900  1
  O  O3  1  0.00004100  0.29752300  0.10470100  1
  O  O4  1  0.99998900  0.90089700  0.30225900  1
  O  O5  1  0.99996800  0.59895200  0.69761200  1
  O  O6  1  0.00002900  0.40101900  0.30236400  1
  O  O7  1  0.00000500  0.99996900  0.49995100  1
  O  O8  1  0.00005900  0.19258000  0.89561800  1
  O  O9  1  0.99994200  0.80740800  0.10444300  1
  O  O10  1  0.49999900  0.39698300  0.79396600  1
  O  O11  1  0.50001000  0.20052700  0.40079900  1
  O  O12  1  0.49998900  0.79941100  0.59908300  1
  O  O13  1  0.50000600  0.00003600  0.00006300  1
  O  O14  1  0.49999800  0.60302700  0.20608000  1
loop_
_geom_bond_atom_site_label_1
_geom_bond_atom_site_label_2
_geom_bond_distance
_geom_bond_site_symmetry_2
Ba0 O13 2.790620 1_556
Ba0 O13 2.790685 1_566
Ba0 O8 2.830854 1_655
Ba0 O8 2.831522 1_555
Ba0 O0 2.832557 1_455
Ba0 O0 2.832620 1_555
Ba0 O9 2.833081 1_456
Ba0 O9 2.833755 1_556
Ba0 O3 2.834794 1_656
Ba0 O3 2.834861 1_556
Ba0 O10 2.869647 1_555
Ba0 O14 2.873996 1_556
Fe0 O2 1.966429 1_555
Fe0 O5 1.969051 1_455
Fe0 O10 1.969532 1_555
Fe0 O10 1.969579 1_455
Fe0 O0 1.972168 1_455
Fe0 O8 1.977940 1_555
Fe1 O6 1.955631 1_555
Fe1 O4 1.958016 1_445
Fe1 O1 1.963785 1_455
Fe1 O7 1.965108 1_545
Fe1 O11 1.969024 1_455
Fe1 O11 1.969025 1_555
Fe2 O5 1.956044 1_555
Fe2 O2 1.958502 1_665
Fe2 O1 1.964233 1_555
Fe2 O7 1.965436 1_655
Fe2 O12 1.969022 1_555
Fe2 O12 1.969029 1_655
Fe3 O13 1.969013 1_455
Fe3 O13 1.969036 1_555
Fe3 O8 1.996387 1_554
Fe3 O9 1.996520 1_445
Fe3 O0 1.999707 1_444
Fe3 O3 1.999753 1_555
Fe4 O4 1.966132 1_555
Fe4 O6 1.968579 1_655
Fe4 O14 1.969533 1_555
Fe4 O14 1.969588 1_655
Fe4 O3 1.971836 1_655
Fe4 O9 1.977477 1_555
O0 Sr3 2.752204 1_555
O0 Sr3 2.752766 1_655
O1 Sr1 2.782043 1_555
O1 Sr1 2.782358 1_655
O1 Sr2 2.784427 1_655
O1 Sr2 2.784740 1_555
O2 Sr2 2.773379 1_455
O2 Sr2 2.773592 1_555
O2 Sr3 2.792431 1_545
O2 Sr3 2.792779 1_445
O3 Sr0 2.751254 1_555
O3 Sr0 2.751806 1_455
O4 Sr1 2.775197 1_655
O4 Sr1 2.775443 1_555
O4 Sr0 2.792914 1_565
O4 Sr0 2.793256 1_665
O5 Sr2 2.772886 1_655
O5 Sr2 2.773708 1_555
O5 Sr3 2.792288 1_555
O5 Sr3 2.793468 1_655
O6 Sr1 2.774850 1_455
O6 Sr1 2.775666 1_555
O6 Sr0 2.792790 1_555
O6 Sr0 2.793948 1_455
O7 Sr1 2.781060 1_555
O7 Sr1 2.782066 1_455
O7 Sr2 2.783581 1_465
O7 Sr2 2.784510 1_565
O8 Sr3 2.750933 1_545
O8 Sr3 2.752210 1_445
O9 Sr0 2.749942 1_565
O9 Sr0 2.751220 1_665
O10 Sr2 2.709051 1_555
O10 Sr3 2.790243 1_545
O10 Sr3 2.792487 1_555
O11 Sr2 2.770527 1_555
O11 Sr0 2.778889 1_555
O11 Sr1 2.790031 1_555
O11 Sr1 2.791274 1_545
O12 Sr1 2.765427 1_555
O12 Sr3 2.779182 1_555
O12 Sr2 2.789935 1_555
O12 Sr2 2.791386 1_565
O13 Sr0 2.806179 1_555
O13 Sr3 2.809287 1_544
O14 Sr1 2.711866 1_555
O14 Sr0 2.790309 1_565
O14 Sr0 2.792512 1_555
