# generated using pymatgen
data_ZrU2S5
_symmetry_space_group_name_H-M   'P 1'
_cell_length_a   7.39615668
_cell_length_b   7.83911940
_cell_length_c   11.65911713
_cell_angle_alpha   90.00000000
_cell_angle_beta   90.00000000
_cell_angle_gamma   90.00000000
_symmetry_Int_Tables_number   1
_chemical_formula_structural   ZrU2S5
_chemical_formula_sum   'Zr4 U8 S20'
_cell_volume   675.98809475
_cell_formula_units_Z   4
loop_
 _symmetry_equiv_pos_site_id
 _symmetry_equiv_pos_as_xyz
  1  'x, y, z'
loop_
 _atom_site_type_symbol
 _atom_site_label
 _atom_site_symmetry_multiplicity
 _atom_site_fract_x
 _atom_site_fract_y
 _atom_site_fract_z
 _atom_site_occupancy
  Zr  Zr0  1  0.07677785  0.75000000  0.49508214  1
  Zr  Zr1  1  0.42322215  0.75000000  0.99508214  1
  Zr  Zr2  1  0.92322215  0.25000000  0.50491786  1
  Zr  Zr3  1  0.57677785  0.25000000  0.00491786  1
  U  U0  1  0.52869918  0.49928650  0.32163963  1
  U  U1  1  0.97130082  0.00071350  0.82163963  1
  U  U2  1  0.47130082  0.99928650  0.67836037  1
  U  U3  1  0.02869918  0.50071350  0.17836037  1
  U  U4  1  0.47130082  0.50071350  0.67836037  1
  U  U5  1  0.02869918  0.99928650  0.17836037  1
  U  U6  1  0.52869918  0.00071350  0.32163963  1
  U  U7  1  0.97130082  0.49928650  0.82163963  1
  S  S0  1  0.83553216  0.96319981  0.58911144  1
  S  S1  1  0.66446784  0.53680019  0.08911144  1
  S  S2  1  0.16446784  0.46319981  0.41088856  1
  S  S3  1  0.33553216  0.03680019  0.91088856  1
  S  S4  1  0.16446784  0.03680019  0.41088856  1
  S  S5  1  0.33553216  0.46319981  0.91088856  1
  S  S6  1  0.83553216  0.53680019  0.58911144  1
  S  S7  1  0.66446784  0.96319981  0.08911144  1
  S  S8  1  0.83897677  0.75000000  0.31708683  1
  S  S9  1  0.66102323  0.75000000  0.81708683  1
  S  S10  1  0.16102323  0.25000000  0.68291317  1
  S  S11  1  0.33897677  0.25000000  0.18291317  1
  S  S12  1  0.44671975  0.75000000  0.49754303  1
  S  S13  1  0.05328025  0.75000000  0.99754303  1
  S  S14  1  0.55328025  0.25000000  0.50245697  1
  S  S15  1  0.94671975  0.25000000  0.00245697  1
  S  S16  1  0.18424306  0.75000000  0.70758296  1
  S  S17  1  0.31575694  0.75000000  0.20758296  1
  S  S18  1  0.81575694  0.25000000  0.29241704  1
  S  S19  1  0.68424306  0.25000000  0.79241704  1
loop_
_geom_bond_atom_site_label_1
_geom_bond_atom_site_label_2
_geom_bond_distance
_geom_bond_site_symmetry_2
S0 Zr2 2.537499 1_565
S0 Zr0 2.679329 1_655
S0 U2 2.901717 1_555
S0 U1 2.905985 1_565
S1 Zr3 2.537499 1_555
S1 Zr1 2.679329 1_554
S1 U3 2.901717 1_655
S1 U0 2.905985 1_555
S2 Zr0 2.537499 1_555
S2 Zr2 2.679329 1_455
S2 U0 2.901717 1_555
S2 U3 2.905985 1_555
S3 Zr1 2.537499 1_545
S3 Zr3 2.679329 1_556
S3 U1 2.901717 1_455
S3 U2 2.905985 1_545
S4 Zr0 2.537499 1_545
S4 Zr2 2.679329 1_455
S4 U6 2.901717 1_555
S4 U5 2.905985 1_545
S5 Zr1 2.537499 1_555
S5 Zr3 2.679329 1_556
S5 U7 2.901717 1_455
S5 U4 2.905985 1_555
S6 Zr2 2.537499 1_555
S6 Zr0 2.679329 1_655
S6 U4 2.901717 1_555
S6 U7 2.905985 1_555
S7 Zr3 2.537499 1_565
S7 Zr1 2.679329 1_554
S7 U5 2.901717 1_655
S7 U6 2.905985 1_565
S8 Zr0 2.720324 1_655
S8 U5 2.898954 1_655
S8 U3 2.898954 1_655
S8 U6 3.021903 1_565
S8 U0 3.021903 1_555
S9 Zr1 2.720324 1_555
S9 U2 2.898954 1_555
S9 U4 2.898954 1_555
S9 U1 3.021903 1_565
S9 U7 3.021903 1_555
S10 Zr2 2.720324 1_455
S10 U7 2.898954 1_455
S10 U1 2.898954 1_455
S10 U4 3.021903 1_555
S10 U2 3.021903 1_545
S11 Zr3 2.720324 1_555
S11 U0 2.898954 1_555
S11 U6 2.898954 1_555
S11 U3 3.021903 1_555
S11 U5 3.021903 1_545
S12 Zr0 2.736299 1_555
S12 U2 2.880327 1_555
S12 U4 2.880327 1_555
S12 U6 2.904554 1_565
S12 U0 2.904554 1_555
S13 Zr1 2.736299 1_555
S13 U5 2.880327 1_556
S13 U3 2.880327 1_556
S13 U1 2.904554 1_465
S13 U7 2.904554 1_455
S14 Zr2 2.736299 1_555
S14 U0 2.880327 1_555
S14 U6 2.880327 1_555
S14 U4 2.904554 1_555
S14 U2 2.904554 1_545
S15 Zr3 2.736299 1_555
S15 U7 2.880327 1_554
S15 U1 2.880327 1_554
S15 U3 2.904554 1_655
S15 U5 2.904554 1_645
S16 Zr0 2.601945 1_555
S16 U1 2.848077 1_465
S16 U7 2.848077 1_455
S16 U2 2.905613 1_555
S16 U4 2.905613 1_555
S17 Zr1 2.601945 1_554
S17 U6 2.848077 1_565
S17 U0 2.848077 1_555
S17 U5 2.905613 1_555
S17 U3 2.905613 1_555
S18 Zr2 2.601945 1_555
S18 U3 2.848077 1_655
S18 U5 2.848077 1_645
S18 U0 2.905613 1_555
S18 U6 2.905613 1_555
S19 Zr3 2.601945 1_556
S19 U4 2.848077 1_555
S19 U2 2.848077 1_545
S19 U7 2.905613 1_555
S19 U1 2.905613 1_555
