# generated using pymatgen
data_Ba2YTlCr2O7
_symmetry_space_group_name_H-M   'P 1'
_cell_length_a   3.94983200
_cell_length_b   3.94983200
_cell_length_c   13.16750300
_cell_angle_alpha   90.00000000
_cell_angle_beta   90.00000000
_cell_angle_gamma   90.00000000
_symmetry_Int_Tables_number   1
_chemical_formula_structural   Ba2YTlCr2O7
_chemical_formula_sum   'Ba2 Y1 Tl1 Cr2 O7'
_cell_volume   205.42849002
_cell_formula_units_Z   1
loop_
 _symmetry_equiv_pos_site_id
 _symmetry_equiv_pos_as_xyz
  1  'x, y, z'
loop_
 _atom_site_type_symbol
 _atom_site_label
 _atom_site_symmetry_multiplicity
 _atom_site_fract_x
 _atom_site_fract_y
 _atom_site_fract_z
 _atom_site_occupancy
  Ba  Ba0  1  0.00000000  0.00000000  0.19653800  1
  Ba  Ba1  1  0.00000000  0.00000000  0.80346200  1
  Y  Y0  1  0.00000000  0.00000000  0.50000000  1
  Tl  Tl0  1  0.50000000  0.50000000  0.00000000  1
  Cr  Cr0  1  0.50000000  0.50000000  0.36113300  1
  Cr  Cr1  1  0.50000000  0.50000000  0.63886700  1
  O  O0  1  0.50000000  0.50000000  0.21509500  1
  O  O1  1  0.50000000  0.00000000  0.39281800  1
  O  O2  1  0.00000000  0.50000000  0.39281800  1
  O  O3  1  0.00000000  0.50000000  0.60718200  1
  O  O4  1  0.00000000  0.00000000  0.00000000  1
  O  O5  1  0.50000000  0.00000000  0.60718200  1
  O  O6  1  0.50000000  0.50000000  0.78490500  1
loop_
_geom_bond_atom_site_label_1
_geom_bond_atom_site_label_2
_geom_bond_distance
_geom_bond_site_symmetry_2
Ba0 O4 2.587915 1_555
Ba0 O0 2.803621 1_555
Ba0 O0 2.803621 1_545
Ba0 O0 2.803621 1_445
Ba0 O0 2.803621 1_455
Ba1 O4 2.587915 1_556
Ba1 O6 2.803621 1_545
Ba1 O6 2.803621 1_455
Ba1 O6 2.803621 1_555
Ba1 O6 2.803621 1_445
Cr0 O0 1.922956 1_555
Cr0 O2 2.018504 1_655
Cr0 O1 2.018504 1_555
Cr0 O1 2.018504 1_565
Cr0 O2 2.018504 1_555
Cr1 O6 1.922956 1_555
Cr1 O5 2.018504 1_555
Cr1 O5 2.018504 1_565
Cr1 O3 2.018504 1_555
Cr1 O3 2.018504 1_655
O0 Tl0 2.832264 1_555
O1 Y0 2.427368 1_555
O1 Y0 2.427368 1_655
O2 Y0 2.427368 1_555
O2 Y0 2.427368 1_565
O3 Y0 2.427368 1_555
O3 Y0 2.427368 1_565
O4 Tl0 2.792953 1_455
O4 Tl0 2.792953 1_555
O4 Tl0 2.792953 1_545
O4 Tl0 2.792953 1_445
O5 Y0 2.427368 1_555
O5 Y0 2.427368 1_655
O6 Tl0 2.832264 1_556
