# generated using pymatgen
data_La9In(SiS7)3
_symmetry_space_group_name_H-M   'P 1'
_cell_length_a   11.92812263
_cell_length_b   11.92812263
_cell_length_c   11.92812316
_cell_angle_alpha   98.27430445
_cell_angle_beta   98.27430445
_cell_angle_gamma   98.27430314
_symmetry_Int_Tables_number   1
_chemical_formula_structural   La9In(SiS7)3
_chemical_formula_sum   'La18 In2 Si6 S42'
_cell_volume   1638.33419212
_cell_formula_units_Z   2
loop_
 _symmetry_equiv_pos_site_id
 _symmetry_equiv_pos_as_xyz
  1  'x, y, z'
loop_
 _atom_site_type_symbol
 _atom_site_label
 _atom_site_symmetry_multiplicity
 _atom_site_fract_x
 _atom_site_fract_y
 _atom_site_fract_z
 _atom_site_occupancy
  La  La0  1  0.21016800  0.44751600  0.08440100  1
  La  La1  1  0.54849000  0.77566000  0.43030100  1
  La  La2  1  0.88387100  0.12190300  0.75979000  1
  La  La3  1  0.43030100  0.54849000  0.77566000  1
  La  La4  1  0.75979000  0.88387100  0.12190300  1
  La  La5  1  0.08440100  0.21016800  0.44751600  1
  La  La6  1  0.12190300  0.75979000  0.88387100  1
  La  La7  1  0.44751600  0.08440100  0.21016800  1
  La  La8  1  0.77566000  0.43030100  0.54849000  1
  La  La9  1  0.12061700  0.89421000  0.23946400  1
  La  La10  1  0.45954500  0.22161200  0.58402300  1
  La  La11  1  0.78510200  0.54720800  0.91033800  1
  La  La12  1  0.91033800  0.78510200  0.54720800  1
  La  La13  1  0.23946400  0.12061700  0.89421000  1
  La  La14  1  0.58402300  0.45954500  0.22161200  1
  La  La15  1  0.22161200  0.58402300  0.45954500  1
  La  La16  1  0.54720800  0.91033800  0.78510200  1
  La  La17  1  0.89421000  0.23946400  0.12061700  1
  In  In0  1  0.83866300  0.83866300  0.83866300  1
  In  In1  1  0.33865100  0.33865100  0.33865100  1
  Si  Si0  1  0.88899000  0.55519000  0.22315200  1
  Si  Si1  1  0.22315200  0.88899000  0.55519000  1
  Si  Si2  1  0.55519000  0.22315200  0.88899000  1
  Si  Si3  1  0.72211400  0.05595100  0.38927200  1
  Si  Si4  1  0.05595100  0.38927200  0.72211400  1
  Si  Si5  1  0.38927200  0.72211400  0.05595100  1
  S  S0  1  0.73457900  0.89687400  0.64931500  1
  S  S1  1  0.06201400  0.23169800  0.97477000  1
  S  S2  1  0.39184500  0.55630800  0.30901700  1
  S  S3  1  0.97477000  0.06201400  0.23169800  1
  S  S4  1  0.30901700  0.39184500  0.55630800  1
  S  S5  1  0.64931500  0.73457900  0.89687400  1
  S  S6  1  0.55630800  0.30901700  0.39184500  1
  S  S7  1  0.89687400  0.64931500  0.73457900  1
  S  S8  1  0.23169800  0.97477000  0.06201400  1
  S  S9  1  0.94652200  0.78184300  0.02895700  1
  S  S10  1  0.28575400  0.12356600  0.37130300  1
  S  S11  1  0.61681400  0.44738100  0.70441500  1
  S  S12  1  0.70441500  0.61681400  0.44738100  1
  S  S13  1  0.02895700  0.94652200  0.78184300  1
  S  S14  1  0.37130300  0.28575400  0.12356600  1
  S  S15  1  0.12356600  0.37130300  0.28575400  1
  S  S16  1  0.44738100  0.70441500  0.61681400  1
  S  S17  1  0.78184300  0.02895700  0.94652200  1
  S  S18  1  0.67837500  0.34227500  0.01124000  1
  S  S19  1  0.01124000  0.67837500  0.34227500  1
  S  S20  1  0.34227500  0.01124000  0.67837500  1
  S  S21  1  0.84230200  0.17868400  0.51088400  1
  S  S22  1  0.17868400  0.51088400  0.84230200  1
  S  S23  1  0.51088400  0.84230200  0.17868400  1
  S  S24  1  0.77132700  0.88867200  0.36720500  1
  S  S25  1  0.10658900  0.22236500  0.69701100  1
  S  S26  1  0.44049200  0.55642500  0.02909900  1
  S  S27  1  0.69701100  0.10658900  0.22236500  1
  S  S28  1  0.02909900  0.44049200  0.55642500  1
  S  S29  1  0.36720500  0.77132700  0.88867200  1
  S  S30  1  0.55642500  0.02909900  0.44049200  1
  S  S31  1  0.88867200  0.36720500  0.77132700  1
  S  S32  1  0.22236500  0.69701100  0.10658900  1
  S  S33  1  0.74612000  0.62916300  0.15175200  1
  S  S34  1  0.07914900  0.96182100  0.48560500  1
  S  S35  1  0.40906800  0.29435100  0.82212000  1
  S  S36  1  0.82212000  0.40906800  0.29435100  1
  S  S37  1  0.15175200  0.74612000  0.62916300  1
  S  S38  1  0.48560500  0.07914900  0.96182100  1
  S  S39  1  0.96182100  0.48560500  0.07914900  1
  S  S40  1  0.29435100  0.82212000  0.40906800  1
  S  S41  1  0.62916300  0.15175200  0.74612000  1
loop_
_geom_bond_atom_site_label_1
_geom_bond_atom_site_label_2
_geom_bond_distance
_geom_bond_site_symmetry_2
La0 S1 2.918322 1_554
La0 S32 2.930090 1_555
La0 S14 2.950245 1_555
La0 S15 2.955372 1_555
La0 S39 3.054144 1_455
La0 S26 3.067833 1_555
La0 S22 3.074001 1_554
La0 S2 3.174470 1_555
La1 S12 2.847291 1_555
La1 S16 2.854416 1_555
La1 S30 2.995186 1_565
La1 S2 3.025784 1_555
La1 S24 3.047163 1_555
La1 S40 3.140637 1_555
La1 S0 3.187847 1_555
La1 S23 3.200443 1_555
La2 S31 2.901251 1_555
La2 S13 2.917173 1_645
La2 S17 2.962095 1_555
La2 S25 2.994809 1_655
La2 S0 3.007187 1_545
La2 S1 3.077364 1_655
La2 S41 3.093446 1_555
La2 S21 3.125884 1_555
La3 S16 2.847291 1_555
La3 S11 2.854415 1_555
La3 S26 2.995186 1_556
La3 S4 3.025784 1_555
La3 S29 3.047163 1_555
La3 S35 3.140637 1_555
La3 S5 3.187847 1_555
La3 S22 3.200443 1_555
La4 S24 2.901251 1_555
La4 S17 2.917173 1_564
La4 S9 2.962095 1_555
La4 S27 2.994809 1_565
La4 S5 3.007187 1_554
La4 S3 3.077364 1_565
La4 S33 3.093446 1_555
La4 S23 3.125884 1_555
La5 S3 2.918322 1_455
La5 S25 2.930090 1_555
La5 S15 2.950245 1_555
La5 S10 2.955371 1_555
La5 S34 3.054144 1_545
La5 S28 3.067833 1_555
La5 S21 3.074001 1_455
La5 S4 3.174470 1_555
La6 S29 2.901251 1_555
La6 S9 2.917173 1_456
La6 S13 2.962095 1_555
La6 S32 2.994809 1_556
La6 S7 3.007187 1_455
La6 S8 3.077364 1_556
La6 S37 3.093447 1_555
La6 S22 3.125883 1_555
La7 S8 2.918322 1_545
La7 S27 2.930090 1_555
La7 S10 2.950245 1_555
La7 S14 2.955371 1_555
La7 S38 3.054144 1_554
La7 S30 3.067833 1_555
La7 S23 3.074001 1_545
La7 S6 3.174470 1_555
La8 S11 2.847291 1_555
La8 S12 2.854416 1_555
La8 S28 2.995186 1_655
La8 S6 3.025784 1_555
La8 S31 3.047163 1_555
La8 S36 3.140637 1_555
La8 S7 3.187847 1_555
La8 S21 3.200443 1_555
La9 S3 2.837366 1_465
La9 S8 2.861003 1_555
La9 S40 2.988916 1_555
La9 S9 3.023762 1_455
La9 S34 3.060467 1_555
La9 S32 3.133726 1_555
La9 S10 3.186950 1_565
La9 S19 3.199471 1_555
La10 S41 2.889523 1_555
La10 S4 2.920289 1_555
La10 S6 2.962591 1_555
La10 S10 3.006223 1_555
La10 S35 3.019023 1_555
La10 S11 3.080755 1_555
La10 S30 3.121102 1_555
La10 S20 3.126623 1_555
La11 S11 2.920907 1_555
La11 S39 2.947521 1_556
La11 S5 2.952064 1_555
La11 S7 2.954345 1_555
La11 S33 3.028205 1_556
La11 S31 3.035458 1_555
La11 S18 3.071935 1_556
La11 S9 3.172909 1_556
La12 S12 2.920907 1_555
La12 S34 2.947521 1_655
La12 S7 2.952064 1_555
La12 S0 2.954345 1_555
La12 S37 3.028205 1_655
La12 S24 3.035458 1_555
La12 S19 3.071935 1_655
La12 S13 3.172909 1_655
La13 S8 2.837366 1_546
La13 S1 2.861002 1_555
La13 S35 2.988916 1_555
La13 S13 3.023762 1_545
La13 S38 3.060466 1_555
La13 S25 3.133726 1_555
La13 S14 3.186950 1_556
La13 S20 3.199471 1_555
La14 S33 2.889523 1_555
La14 S6 2.920289 1_555
La14 S2 2.962591 1_555
La14 S14 3.006223 1_555
La14 S36 3.019023 1_555
La14 S12 3.080755 1_555
La14 S26 3.121102 1_555
La14 S18 3.126623 1_555
La15 S37 2.889523 1_555
La15 S2 2.920289 1_555
La15 S4 2.962591 1_555
La15 S15 3.006223 1_555
La15 S40 3.019023 1_555
La15 S16 3.080755 1_555
La15 S28 3.121102 1_555
La15 S19 3.126623 1_555
La16 S16 2.920907 1_555
La16 S38 2.947521 1_565
La16 S0 2.952064 1_555
La16 S5 2.954345 1_555
La16 S41 3.028205 1_565
La16 S29 3.035458 1_555
La16 S20 3.071935 1_565
La16 S17 3.172909 1_565
La17 S1 2.837366 1_654
La17 S3 2.861002 1_555
La17 S36 2.988916 1_555
La17 S17 3.023762 1_554
La17 S39 3.060467 1_555
La17 S27 3.133726 1_555
La17 S15 3.186950 1_655
La17 S18 3.199471 1_555
In0 S7 2.648970 1_555
In0 S5 2.648970 1_555
In0 S0 2.648970 1_555
In0 S17 2.668339 1_565
In0 S13 2.668339 1_655
In0 S9 2.668339 1_556
In1 S15 2.650343 1_555
In1 S10 2.650343 1_555
In1 S14 2.650343 1_555
In1 S6 2.668812 1_555
In1 S2 2.668812 1_555
In1 S4 2.668812 1_555
S18 Si2 2.119058 1_554
S19 Si0 2.119058 1_455
S20 Si1 2.119058 1_545
S21 Si3 2.118690 1_555
S22 Si4 2.118690 1_555
S23 Si5 2.118690 1_555
S24 Si3 2.150727 1_565
S25 Si4 2.155161 1_555
S26 Si5 2.145581 1_555
S27 Si3 2.155161 1_555
S28 Si4 2.145581 1_555
S29 Si5 2.150727 1_556
S30 Si3 2.145581 1_555
S31 Si4 2.150727 1_655
S32 Si5 2.155161 1_555
S33 Si0 2.153936 1_555
S34 Si1 2.149596 1_555
S35 Si2 2.148551 1_555
S36 Si0 2.148551 1_555
S37 Si1 2.153936 1_555
S38 Si2 2.149596 1_555
S39 Si0 2.149596 1_555
S40 Si1 2.148551 1_555
S41 Si2 2.153936 1_555
