# generated using pymatgen
data_SrTb3
_symmetry_space_group_name_H-M   'P 1'
_cell_length_a   6.39266194
_cell_length_b   6.39266194
_cell_length_c   6.39266194
_cell_angle_alpha   131.95653103
_cell_angle_beta   131.95653103
_cell_angle_gamma   70.29769007
_symmetry_Int_Tables_number   1
_chemical_formula_structural   SrTb3
_chemical_formula_sum   'Sr1 Tb3'
_cell_volume   141.59366181
_cell_formula_units_Z   1
loop_
 _symmetry_equiv_pos_site_id
 _symmetry_equiv_pos_as_xyz
  1  'x, y, z'
loop_
 _atom_site_type_symbol
 _atom_site_label
 _atom_site_symmetry_multiplicity
 _atom_site_fract_x
 _atom_site_fract_y
 _atom_site_fract_z
 _atom_site_occupancy
  Sr  Sr0  1  0.00000000  0.00000000  0.00000000  1
  Tb  Tb0  1  0.75000000  0.25000000  0.50000000  1
  Tb  Tb1  1  0.25000000  0.75000000  0.50000000  1
  Tb  Tb2  1  0.50000000  0.50000000  0.00000000  1
loop_
_geom_bond_atom_site_label_1
_geom_bond_atom_site_label_2
_geom_bond_distance
_geom_bond_site_symmetry_2
Sr0 Tb2 3.680272 1_444
Sr0 Tb2 3.680272 1_455
Sr0 Tb2 3.680272 1_545
Sr0 Tb2 3.680272 1_556
Sr0 Tb1 3.688175 1_544
Sr0 Tb0 3.688175 1_455
Sr0 Tb1 3.688175 1_444
Sr0 Tb0 3.688175 1_444
Sr0 Tb0 3.688175 1_555
Sr0 Tb0 3.688175 1_454
Sr0 Tb1 3.688175 1_545
Sr0 Tb1 3.688175 1_555
Tb0 Tb1 3.680272 1_645
Tb0 Tb1 3.680272 1_555
Tb0 Tb1 3.680272 1_656
Tb0 Tb1 3.680272 1_544
Tb0 Tb2 3.688175 1_545
Tb0 Tb2 3.688175 1_556
Tb0 Tb2 3.688175 1_555
Tb0 Tb2 3.688175 1_656
Tb1 Tb2 3.688175 1_455
Tb1 Tb2 3.688175 1_556
Tb1 Tb2 3.688175 1_555
Tb1 Tb2 3.688175 1_566
