# generated using pymatgen
data_V4P3
_symmetry_space_group_name_H-M   'P 1'
_cell_length_a   3.24748728
_cell_length_b   6.81549988
_cell_length_c   17.06263591
_cell_angle_alpha   90.00000000
_cell_angle_beta   90.00000000
_cell_angle_gamma   103.78285984
_symmetry_Int_Tables_number   1
_chemical_formula_structural   V4P3
_chemical_formula_sum   'V16 P12'
_cell_volume   366.77731939
_cell_formula_units_Z   4
loop_
 _symmetry_equiv_pos_site_id
 _symmetry_equiv_pos_as_xyz
  1  'x, y, z'
loop_
 _atom_site_type_symbol
 _atom_site_label
 _atom_site_symmetry_multiplicity
 _atom_site_fract_x
 _atom_site_fract_y
 _atom_site_fract_z
 _atom_site_occupancy
  V  V0  1  0.26478135  0.52956171  0.65970765  1
  V  V1  1  0.73521865  0.47043829  0.34029235  1
  V  V2  1  0.26478135  0.52956171  0.84029235  1
  V  V3  1  0.73521865  0.47043829  0.15970765  1
  V  V4  1  0.46766434  0.93532967  0.61854076  1
  V  V5  1  0.53233566  0.06467033  0.38145924  1
  V  V6  1  0.46766434  0.93532967  0.88145924  1
  V  V7  1  0.53233566  0.06467033  0.11854076  1
  V  V8  1  0.33079493  0.66158985  0.47348317  1
  V  V9  1  0.66920507  0.33841015  0.52651683  1
  V  V10  1  0.33079493  0.66158985  0.02651683  1
  V  V11  1  0.66920507  0.33841015  0.97348317  1
  V  V12  1  -0.00000000  -0.00000000  0.50000000  1
  V  V13  1  -0.00000000  -0.00000000  -0.00000000  1
  V  V14  1  0.93842160  0.87684420  0.25000000  1
  V  V15  1  0.06157840  0.12315580  0.75000000  1
  P  P0  1  0.09894179  0.19788458  0.61670667  1
  P  P1  1  0.90105821  0.80211542  0.38329333  1
  P  P2  1  0.09894179  0.19788458  0.88329333  1
  P  P3  1  0.90105821  0.80211542  0.11670667  1
  P  P4  1  0.15666300  0.31332301  0.42332220  1
  P  P5  1  0.84333700  0.68667699  0.57667780  1
  P  P6  1  0.15666300  0.31332301  0.07667780  1
  P  P7  1  0.84333700  0.68667699  0.92332220  1
  P  P8  1  0.30153455  0.60306810  0.25000000  1
  P  P9  1  0.69846545  0.39693190  0.75000000  1
  P  P10  1  0.57891756  0.15783412  0.25000000  1
  P  P11  1  0.42108244  0.84216588  0.75000000  1
loop_
_geom_bond_atom_site_label_1
_geom_bond_atom_site_label_2
_geom_bond_distance
_geom_bond_site_symmetry_2
P0 V0 2.314811 1_555
P0 V15 2.327505 1_555
P0 V4 2.378629 1_445
P0 V4 2.378630 1_545
P0 V12 2.383500 1_555
P0 V9 2.422788 1_455
P0 V9 2.422790 1_555
P1 V1 2.314811 1_555
P1 V14 2.327505 1_555
P1 V5 2.378629 1_665
P1 V5 2.378630 1_565
P1 V12 2.383500 1_665
P1 V8 2.422788 1_655
P1 V8 2.422790 1_555
P2 V2 2.314811 1_555
P2 V15 2.327505 1_555
P2 V6 2.378629 1_445
P2 V6 2.378630 1_545
P2 V13 2.383500 1_556
P2 V11 2.422788 1_455
P2 V11 2.422790 1_555
P3 V3 2.314811 1_555
P3 V14 2.327505 1_555
P3 V7 2.378629 1_665
P3 V7 2.378630 1_565
P3 V13 2.383500 1_665
P3 V10 2.422788 1_655
P3 V10 2.422790 1_555
P4 V1 2.392729 1_555
P4 V1 2.392738 1_455
P4 V9 2.400921 1_555
P4 V9 2.400928 1_455
P4 V5 2.419859 1_555
P4 V5 2.419863 1_455
P4 V12 2.452150 1_555
P4 V8 2.459020 1_555
P5 V0 2.392729 1_555
P5 V0 2.392738 1_655
P5 V8 2.400921 1_555
P5 V8 2.400928 1_655
P5 V4 2.419859 1_555
P5 V4 2.419863 1_655
P5 V12 2.452150 1_665
P5 V9 2.459020 1_555
P6 V3 2.392729 1_555
P6 V3 2.392738 1_455
P6 V11 2.400921 1_554
P6 V11 2.400928 1_454
P6 V7 2.419859 1_555
P6 V7 2.419863 1_455
P6 V13 2.452150 1_555
P6 V10 2.459020 1_555
P7 V2 2.392729 1_555
P7 V2 2.392738 1_655
P7 V10 2.400921 1_556
P7 V10 2.400928 1_656
P7 V6 2.419859 1_555
P7 V6 2.419863 1_655
P7 V13 2.452150 1_666
P7 V11 2.459020 1_555
P8 V3 2.404327 1_555
P8 V1 2.404327 1_555
P8 V3 2.404331 1_455
P8 V1 2.404331 1_455
P8 V14 2.433223 1_555
P8 V14 2.433228 1_455
P9 V2 2.404327 1_555
P9 V0 2.404327 1_555
P9 V2 2.404331 1_655
P9 V0 2.404331 1_655
P9 V15 2.433223 1_555
P9 V15 2.433228 1_655
P10 V5 2.326268 1_555
P10 V7 2.326268 1_555
P10 V14 2.468992 1_545
P10 V14 2.468996 1_445
P10 V3 2.579756 1_555
P10 V1 2.579756 1_555
P11 V6 2.326268 1_555
P11 V4 2.326268 1_555
P11 V15 2.468992 1_565
P11 V15 2.468996 1_665
P11 V2 2.579756 1_555
P11 V0 2.579756 1_555
