# generated using pymatgen
data_Sr2Cu2TeO7
_symmetry_space_group_name_H-M   'P 1'
_cell_length_a   14.03504871
_cell_length_b   14.03504871
_cell_length_c   14.03504871
_cell_angle_alpha   158.87752858
_cell_angle_beta   158.61356030
_cell_angle_gamma   30.23647293
_symmetry_Int_Tables_number   1
_chemical_formula_structural   Sr2Cu2TeO7
_chemical_formula_sum   'Sr4 Cu4 Te2 O14'
_cell_volume   363.07482248
_cell_formula_units_Z   2
loop_
 _symmetry_equiv_pos_site_id
 _symmetry_equiv_pos_as_xyz
  1  'x, y, z'
loop_
 _atom_site_type_symbol
 _atom_site_label
 _atom_site_symmetry_multiplicity
 _atom_site_fract_x
 _atom_site_fract_y
 _atom_site_fract_z
 _atom_site_occupancy
  Sr  Sr0  1  0.64223800  0.61851100  0.98305200  1
  Sr  Sr1  1  0.35776200  0.34081400  0.97627300  1
  Sr  Sr2  1  0.13545900  0.11851100  0.97627300  1
  Sr  Sr3  1  0.86454100  0.84081400  0.98305200  1
  Cu  Cu0  1  0.56025300  0.03900500  0.47901500  1
  Cu  Cu1  1  0.43974700  0.91876200  0.47875200  1
  Cu  Cu2  1  0.05999000  0.53900500  0.47875200  1
  Cu  Cu3  1  0.94001000  0.41876200  0.47901500  1
  Te  Te0  1  0.24719700  0.75491900  0.50211600  1
  Te  Te1  1  0.75280300  0.25491900  0.50772200  1
  O  O0  1  0.87484400  0.62917900  0.00402200  1
  O  O1  1  0.12515600  0.12917900  0.75433500  1
  O  O2  1  0.32635200  0.30532200  0.48047500  1
  O  O3  1  0.67364800  0.15412300  0.97897000  1
  O  O4  1  0.32484700  0.80532200  0.97897000  1
  O  O5  1  0.67515300  0.65412300  0.48047500  1
  O  O6  1  0.82497100  0.80368700  0.47829700  1
  O  O7  1  0.17502900  0.65332700  0.97871700  1
  O  O8  1  0.82539000  0.30368700  0.97871700  1
  O  O9  1  0.17461000  0.15332700  0.47829700  1
  O  O10  1  0.16085300  0.66623200  0.47445900  1
  O  O11  1  0.83914700  0.31360600  0.50537800  1
  O  O12  1  0.69177300  0.16623200  0.50537800  1
  O  O13  1  0.30822700  0.81360600  0.47445900  1
loop_
_geom_bond_atom_site_label_1
_geom_bond_atom_site_label_2
_geom_bond_distance
_geom_bond_site_symmetry_2
Cu0 O8 1.874147 1_555
Cu0 O6 1.875293 1_545
Cu0 O4 1.877945 1_544
Cu0 O2 1.878419 1_555
Cu1 O9 1.874147 1_565
Cu1 O7 1.875290 1_554
Cu1 O5 1.877945 1_555
Cu1 O3 1.878419 1_565
Cu2 O6 1.874147 1_455
Cu2 O8 1.875287 1_454
Cu2 O2 1.877945 1_555
Cu2 O4 1.878419 1_555
Cu3 O7 1.874150 1_655
Cu3 O9 1.875287 1_655
Cu3 O3 1.877945 1_554
Cu3 O5 1.878419 1_555
O0 Te1 2.027718 1_554
O0 Te0 2.044423 1_655
O0 Sr3 3.120862 1_554
O0 Sr0 3.120888 1_554
O1 Te0 2.027721 1_545
O1 Te1 2.044420 1_455
O1 Sr2 3.120875 1_555
O1 Sr1 3.120875 1_555
O2 Sr0 2.514486 1_555
O2 Sr2 2.518912 1_554
O3 Sr1 2.514486 1_555
O3 Sr3 2.518912 1_545
O4 Sr2 2.514486 1_565
O4 Sr0 2.518912 1_555
O5 Sr3 2.514486 1_555
O5 Sr1 2.518912 1_554
O6 Sr0 2.502559 1_554
O6 Sr2 2.509782 1_665
O7 Sr1 2.502562 1_555
O7 Sr3 2.509779 1_455
O8 Sr2 2.502568 1_655
O8 Sr0 2.509791 1_555
O9 Sr3 2.502568 1_444
O9 Sr1 2.509791 1_555
O10 Te0 1.999391 1_555
O10 Sr0 2.704382 1_454
O10 Sr2 2.717234 1_565
O10 Sr2 2.815374 1_554
O10 Sr0 2.887277 1_555
O11 Te1 1.999405 1_555
O11 Sr1 2.704379 1_655
O11 Sr3 2.717231 1_555
O11 Sr3 2.815367 1_544
O11 Sr1 2.887269 1_554
O12 Te1 1.999378 1_555
O12 Sr2 2.704390 1_655
O12 Sr0 2.717241 1_555
O12 Sr0 2.815376 1_544
O12 Sr2 2.887279 1_554
O13 Te0 1.999391 1_555
O13 Sr3 2.704382 1_454
O13 Sr1 2.717234 1_565
O13 Sr1 2.815374 1_554
O13 Sr3 2.887277 1_555
