# generated using pymatgen
data_VGaNi6
_symmetry_space_group_name_H-M   'P 1'
_cell_length_a   3.52340178
_cell_length_b   3.52340178
_cell_length_c   7.04186369
_cell_angle_alpha   90.00000000
_cell_angle_beta   90.00000000
_cell_angle_gamma   90.00000000
_symmetry_Int_Tables_number   1
_chemical_formula_structural   VGaNi6
_chemical_formula_sum   'V1 Ga1 Ni6'
_cell_volume   87.42023165
_cell_formula_units_Z   1
loop_
 _symmetry_equiv_pos_site_id
 _symmetry_equiv_pos_as_xyz
  1  'x, y, z'
loop_
 _atom_site_type_symbol
 _atom_site_label
 _atom_site_symmetry_multiplicity
 _atom_site_fract_x
 _atom_site_fract_y
 _atom_site_fract_z
 _atom_site_occupancy
  V  V0  1  -0.00000000  0.00000000  0.50000000  1
  Ga  Ga0  1  -0.00000000  0.00000000  -0.00000000  1
  Ni  Ni0  1  0.50000000  0.50000000  0.00000000  1
  Ni  Ni1  1  0.50000000  0.50000000  0.50000000  1
  Ni  Ni2  1  0.50000000  0.00000000  0.25683493  1
  Ni  Ni3  1  0.50000000  0.00000000  0.74316507  1
  Ni  Ni4  1  -0.00000000  0.50000000  0.25683493  1
  Ni  Ni5  1  -0.00000000  0.50000000  0.74316507  1
loop_
_geom_bond_atom_site_label_1
_geom_bond_atom_site_label_2
_geom_bond_distance
_geom_bond_site_symmetry_2
Ga0 Ni0 2.491421 1_555
Ga0 Ni0 2.491421 1_445
Ga0 Ni0 2.491421 1_545
Ga0 Ni0 2.491421 1_455
Ga0 Ni3 2.524799 1_454
Ga0 Ni5 2.524799 1_554
Ga0 Ni4 2.524799 1_545
Ga0 Ni4 2.524799 1_555
Ga0 Ni2 2.524799 1_455
Ga0 Ni3 2.524799 1_554
Ga0 Ni5 2.524799 1_544
Ga0 Ni2 2.524799 1_555
Ni0 Ni2 2.524799 1_565
Ni0 Ni5 2.524799 1_554
Ni0 Ni3 2.524799 1_564
Ni0 Ni4 2.524799 1_555
Ni0 Ni3 2.524799 1_554
Ni0 Ni2 2.524799 1_555
Ni0 Ni4 2.524799 1_655
Ni0 Ni5 2.524799 1_654
Ni1 Ni2 2.456763 1_565
Ni1 Ni4 2.456763 1_655
Ni1 Ni3 2.456763 1_555
Ni1 Ni5 2.456763 1_655
Ni1 Ni4 2.456763 1_555
Ni1 Ni3 2.456763 1_565
Ni1 Ni5 2.456763 1_555
Ni1 Ni2 2.456763 1_555
Ni1 V0 2.491421 1_555
Ni1 V0 2.491421 1_655
Ni1 V0 2.491421 1_565
Ni1 V0 2.491421 1_665
Ni2 V0 2.456763 1_555
Ni2 V0 2.456763 1_655
Ni2 Ni4 2.491421 1_655
Ni2 Ni4 2.491421 1_645
Ni2 Ni4 2.491421 1_545
Ni2 Ni4 2.491421 1_555
Ni3 V0 2.456763 1_555
Ni3 V0 2.456763 1_655
Ni3 Ni5 2.491421 1_545
Ni3 Ni5 2.491421 1_655
Ni3 Ni5 2.491421 1_555
Ni3 Ni5 2.491421 1_645
Ni4 V0 2.456763 1_555
Ni4 V0 2.456763 1_565
Ni5 V0 2.456763 1_555
Ni5 V0 2.456763 1_565
