# generated using pymatgen
data_BaZn2Cu2As3
_symmetry_space_group_name_H-M   'P 1'
_cell_length_a   6.71408199
_cell_length_b   6.71408199
_cell_length_c   12.18305600
_cell_angle_alpha   90.00000000
_cell_angle_beta   90.00000000
_cell_angle_gamma   143.45719820
_symmetry_Int_Tables_number   1
_chemical_formula_structural   BaZn2Cu2As3
_chemical_formula_sum   'Ba2 Zn4 Cu4 As6'
_cell_volume   327.00562365
_cell_formula_units_Z   2
loop_
 _symmetry_equiv_pos_site_id
 _symmetry_equiv_pos_as_xyz
  1  'x, y, z'
loop_
 _atom_site_type_symbol
 _atom_site_label
 _atom_site_symmetry_multiplicity
 _atom_site_fract_x
 _atom_site_fract_y
 _atom_site_fract_z
 _atom_site_occupancy
  Ba  Ba0  1  0.18407600  0.81592400  0.25000000  1
  Ba  Ba1  1  0.81592400  0.18407600  0.75000000  1
  Zn  Zn0  1  0.83264300  0.16735700  0.05837200  1
  Zn  Zn1  1  0.16735700  0.83264300  0.94162800  1
  Zn  Zn2  1  0.16735700  0.83264300  0.55837200  1
  Zn  Zn3  1  0.83264300  0.16735700  0.44162800  1
  Cu  Cu0  1  0.45802600  0.54197400  0.14386400  1
  Cu  Cu1  1  0.54197400  0.45802600  0.85613600  1
  Cu  Cu2  1  0.54197400  0.45802600  0.64386400  1
  Cu  Cu3  1  0.45802600  0.54197400  0.35613600  1
  As  As0  1  0.62524100  0.37475900  0.04560800  1
  As  As1  1  0.37475900  0.62524100  0.95439200  1
  As  As2  1  0.37475900  0.62524100  0.54560800  1
  As  As3  1  0.62524100  0.37475900  0.45439200  1
  As  As4  1  0.91092900  0.08907100  0.25000000  1
  As  As5  1  0.08907100  0.91092900  0.75000000  1
loop_
_geom_bond_atom_site_label_1
_geom_bond_atom_site_label_2
_geom_bond_distance
_geom_bond_site_symmetry_2
Ba0 Zn3 3.670171 1_565
Ba0 Zn3 3.670171 1_455
Ba0 Zn0 3.670171 1_565
Ba0 Zn0 3.670171 1_455
Ba0 Cu3 3.724820 1_555
Ba0 Cu0 3.724820 1_555
Ba0 Zn2 3.762957 1_555
Ba0 Zn1 3.762957 1_554
Ba0 Cu0 3.796208 1_565
Ba0 Cu0 3.796208 1_455
Ba0 Cu3 3.796208 1_455
Ba0 Cu3 3.796208 1_565
Ba1 Zn1 3.670171 1_655
Ba1 Zn1 3.670171 1_545
Ba1 Zn2 3.670171 1_655
Ba1 Zn2 3.670171 1_545
Ba1 Cu2 3.724820 1_555
Ba1 Cu1 3.724820 1_555
Ba1 Zn0 3.762957 1_556
Ba1 Zn3 3.762957 1_555
Ba1 Cu1 3.796208 1_545
Ba1 Cu2 3.796208 1_655
Ba1 Cu2 3.796208 1_545
Ba1 Cu1 3.796208 1_655
As0 Cu0 2.445230 1_555
As0 Zn1 2.514785 1_654
As0 Zn1 2.514785 1_544
As0 Cu1 2.540823 1_554
As0 Zn0 2.649181 1_555
As0 Ba0 3.345817 1_545
As0 Ba0 3.345817 1_655
As1 Cu1 2.445230 1_555
As1 Zn0 2.514785 1_456
As1 Zn0 2.514785 1_566
As1 Cu0 2.540823 1_556
As1 Zn1 2.649181 1_555
As1 Ba1 3.345817 1_455
As1 Ba1 3.345817 1_565
As2 Cu2 2.445230 1_555
As2 Zn3 2.514785 1_455
As2 Zn3 2.514785 1_565
As2 Cu3 2.540823 1_555
As2 Zn2 2.649181 1_555
As2 Ba1 3.345817 1_455
As2 Ba1 3.345817 1_565
As3 Cu3 2.445230 1_555
As3 Zn2 2.514785 1_655
As3 Zn2 2.514785 1_545
As3 Cu2 2.540823 1_555
As3 Zn3 2.649181 1_555
As3 Ba0 3.345817 1_545
As3 Ba0 3.345817 1_655
As4 Zn3 2.539075 1_555
As4 Zn0 2.539075 1_555
As4 Cu3 2.542368 1_655
As4 Cu0 2.542368 1_545
As4 Cu3 2.542368 1_545
As4 Cu0 2.542368 1_655
As4 Ba0 3.482937 1_645
As4 Ba0 3.577474 1_545
As4 Ba0 3.577474 1_655
As5 Zn1 2.539075 1_555
As5 Zn2 2.539075 1_555
As5 Cu2 2.542368 1_565
As5 Cu2 2.542368 1_455
As5 Cu1 2.542368 1_455
As5 Cu1 2.542368 1_565
As5 Ba1 3.482937 1_465
As5 Ba1 3.577474 1_565
As5 Ba1 3.577474 1_455
