# generated using pymatgen
data_Tb4Ga16Co3
_symmetry_space_group_name_H-M   'P 1'
_cell_length_a   5.97483243
_cell_length_b   5.97483243
_cell_length_c   11.00788951
_cell_angle_alpha   90.00000000
_cell_angle_beta   90.00000000
_cell_angle_gamma   90.00000000
_symmetry_Int_Tables_number   1
_chemical_formula_structural   Tb4Ga16Co3
_chemical_formula_sum   'Tb4 Ga16 Co3'
_cell_volume   392.96649287
_cell_formula_units_Z   1
loop_
 _symmetry_equiv_pos_site_id
 _symmetry_equiv_pos_as_xyz
  1  'x, y, z'
loop_
 _atom_site_type_symbol
 _atom_site_label
 _atom_site_symmetry_multiplicity
 _atom_site_fract_x
 _atom_site_fract_y
 _atom_site_fract_z
 _atom_site_occupancy
  Tb  Tb0  1  0.50000000  -0.00000000  0.80463699  1
  Tb  Tb1  1  0.00000000  0.50000000  0.80463699  1
  Tb  Tb2  1  0.50000000  -0.00000000  0.19536301  1
  Tb  Tb3  1  0.00000000  0.50000000  0.19536301  1
  Ga  Ga0  1  0.24945378  0.24945378  0.61459545  1
  Ga  Ga1  1  0.75054622  0.75054622  0.61459545  1
  Ga  Ga2  1  0.75054622  0.24945378  0.61459545  1
  Ga  Ga3  1  0.24945378  0.75054622  0.61459545  1
  Ga  Ga4  1  0.75054622  0.75054622  0.38540455  1
  Ga  Ga5  1  0.24945378  0.24945378  0.38540455  1
  Ga  Ga6  1  0.24945378  0.75054622  0.38540455  1
  Ga  Ga7  1  0.75054622  0.24945378  0.38540455  1
  Ga  Ga8  1  0.28125901  0.28125901  -0.00000000  1
  Ga  Ga9  1  0.71874099  0.71874099  -0.00000000  1
  Ga  Ga10  1  0.71874099  0.28125901  -0.00000000  1
  Ga  Ga11  1  0.28125901  0.71874099  -0.00000000  1
  Ga  Ga12  1  0.50000000  0.50000000  0.80565987  1
  Ga  Ga13  1  0.50000000  0.50000000  0.19434013  1
  Ga  Ga14  1  0.00000000  -0.00000000  0.78102570  1
  Ga  Ga15  1  0.00000000  -0.00000000  0.21897430  1
  Co  Co0  1  0.50000000  -0.00000000  0.50000000  1
  Co  Co1  1  0.00000000  0.50000000  0.50000000  1
  Co  Co2  1  0.00000000  -0.00000000  -0.00000000  1
loop_
_geom_bond_atom_site_label_1
_geom_bond_atom_site_label_2
_geom_bond_distance
_geom_bond_site_symmetry_2
Ga0 Ga5 2.522908 1_555
Ga0 Ga14 2.792712 1_555
Ga0 Tb0 2.972983 1_555
Ga0 Tb1 2.972983 1_555
Ga0 Ga2 2.980889 1_455
Ga0 Ga3 2.980889 1_545
Ga0 Ga12 2.984186 1_555
Ga0 Ga2 2.993943 1_555
Ga0 Ga3 2.993943 1_555
Ga1 Ga4 2.522908 1_555
Ga1 Ga14 2.792712 1_665
Ga1 Tb0 2.972983 1_565
Ga1 Tb1 2.972983 1_655
Ga1 Ga2 2.980889 1_565
Ga1 Ga3 2.980889 1_655
Ga1 Ga12 2.984186 1_555
Ga1 Ga2 2.993943 1_555
Ga1 Ga3 2.993943 1_555
Ga2 Ga7 2.522908 1_555
Ga2 Tb1 2.972983 1_655
Ga2 Tb0 2.972983 1_555
Ga3 Ga6 2.522908 1_555
Ga3 Tb0 2.972983 1_565
Ga3 Tb1 2.972983 1_555
Ga4 Tb3 2.972983 1_655
Ga4 Tb2 2.972983 1_565
Ga4 Ga7 2.980889 1_565
Ga4 Ga6 2.980889 1_655
Ga4 Ga6 2.993943 1_555
Ga4 Ga7 2.993943 1_555
Ga5 Tb2 2.972983 1_555
Ga5 Tb3 2.972983 1_555
Ga5 Ga7 2.980889 1_455
Ga5 Ga6 2.980889 1_545
Ga5 Ga6 2.993943 1_555
Ga5 Ga7 2.993943 1_555
Ga6 Tb2 2.972983 1_565
Ga6 Tb3 2.972983 1_555
Ga7 Tb3 2.972983 1_655
Ga7 Tb2 2.972983 1_555
Ga8 Tb2 3.026035 1_555
Ga8 Tb3 3.026035 1_555
Ga8 Tb0 3.026035 1_554
Ga8 Tb1 3.026035 1_554
Ga9 Tb3 3.026035 1_655
Ga9 Tb0 3.026035 1_564
Ga9 Tb2 3.026035 1_565
Ga9 Tb1 3.026035 1_654
Ga10 Ga9 2.613882 1_555
Ga10 Ga8 2.613882 1_555
Ga10 Ga12 2.827134 1_554
Ga10 Ga13 2.827134 1_555
Ga10 Tb1 3.026035 1_654
Ga10 Tb3 3.026035 1_655
Ga10 Tb2 3.026035 1_555
Ga10 Tb0 3.026035 1_554
Ga11 Ga9 2.613882 1_555
Ga11 Ga8 2.613882 1_555
Ga11 Ga12 2.827134 1_554
Ga11 Ga13 2.827134 1_555
Ga11 Tb2 3.026035 1_565
Ga11 Tb0 3.026035 1_564
Ga11 Tb3 3.026035 1_555
Ga11 Tb1 3.026035 1_554
Ga12 Ga8 2.827134 1_556
Ga12 Ga9 2.827134 1_556
Ga12 Ga2 2.984186 1_555
Ga12 Ga3 2.984186 1_555
Ga12 Tb1 2.987437 1_555
Ga12 Tb0 2.987437 1_565
Ga12 Tb1 2.987437 1_655
Ga12 Tb0 2.987437 1_555
Ga13 Ga8 2.827134 1_555
Ga13 Ga9 2.827134 1_555
Ga13 Ga5 2.984186 1_555
Ga13 Ga6 2.984186 1_555
Ga13 Ga7 2.984186 1_555
Ga13 Ga4 2.984186 1_555
Ga13 Tb2 2.987437 1_555
Ga13 Tb3 2.987437 1_655
Ga13 Tb3 2.987437 1_555
Ga13 Tb2 2.987437 1_565
Ga14 Ga3 2.792712 1_545
Ga14 Ga2 2.792712 1_455
Ga14 Tb1 2.998701 1_545
Ga14 Tb0 2.998701 1_555
Ga14 Tb0 2.998701 1_455
Ga14 Tb1 2.998701 1_555
Ga15 Ga4 2.792712 1_445
Ga15 Ga7 2.792712 1_455
Ga15 Ga6 2.792712 1_545
Ga15 Ga5 2.792712 1_555
Ga15 Tb2 2.998701 1_455
Ga15 Tb2 2.998701 1_555
Ga15 Tb3 2.998701 1_545
Ga15 Tb3 2.998701 1_555
Co0 Ga6 2.460410 1_545
Co0 Ga3 2.460410 1_545
Co0 Ga4 2.460410 1_545
Co0 Ga5 2.460410 1_555
Co0 Ga2 2.460410 1_555
Co0 Ga1 2.460410 1_545
Co0 Ga0 2.460410 1_555
Co0 Ga7 2.460410 1_555
Co1 Ga7 2.460410 1_455
Co1 Ga2 2.460410 1_455
Co1 Ga4 2.460410 1_455
Co1 Ga5 2.460410 1_555
Co1 Ga1 2.460410 1_455
Co1 Ga6 2.460410 1_555
Co1 Ga0 2.460410 1_555
Co1 Ga3 2.460410 1_555
Co2 Ga11 2.376551 1_545
Co2 Ga10 2.376551 1_455
Co2 Ga8 2.376551 1_555
Co2 Ga9 2.376551 1_445
Co2 Ga15 2.410445 1_555
Co2 Ga14 2.410445 1_554
