# generated using pymatgen
data_Ag2AsS2
_symmetry_space_group_name_H-M   'P 1'
_cell_length_a   13.19459200
_cell_length_b   6.92834000
_cell_length_c   9.75737418
_cell_angle_alpha   81.29904016
_cell_angle_beta   90.00000000
_cell_angle_gamma   90.00000000
_symmetry_Int_Tables_number   1
_chemical_formula_structural   Ag2AsS2
_chemical_formula_sum   'Ag16 As8 S16'
_cell_volume   881.72060877
_cell_formula_units_Z   8
loop_
 _symmetry_equiv_pos_site_id
 _symmetry_equiv_pos_as_xyz
  1  'x, y, z'
loop_
 _atom_site_type_symbol
 _atom_site_label
 _atom_site_symmetry_multiplicity
 _atom_site_fract_x
 _atom_site_fract_y
 _atom_site_fract_z
 _atom_site_occupancy
  Ag  Ag0  1  0.59442400  0.07946600  0.23713000  1
  Ag  Ag1  1  0.40557600  0.57946600  0.23713000  1
  Ag  Ag2  1  0.91119200  0.77627200  0.04131500  1
  Ag  Ag3  1  0.08880800  0.27627200  0.04131500  1
  Ag  Ag4  1  0.90696500  0.37535600  0.69331100  1
  Ag  Ag5  1  0.09303500  0.87535600  0.69331100  1
  Ag  Ag6  1  0.89270100  0.86970400  0.35782800  1
  Ag  Ag7  1  0.10729900  0.36970400  0.35782800  1
  Ag  Ag8  1  0.60560300  0.60161100  0.56674400  1
  Ag  Ag9  1  0.39439700  0.10161100  0.56674400  1
  Ag  Ag10  1  0.79179600  0.19315500  0.95990200  1
  Ag  Ag11  1  0.20820400  0.69315500  0.95990200  1
  Ag  Ag12  1  0.49439100  0.84862800  0.84024000  1
  Ag  Ag13  1  0.50560900  0.34862800  0.84024000  1
  Ag  Ag14  1  0.68493500  0.64346700  0.96238600  1
  Ag  Ag15  1  0.31506500  0.14346700  0.96238600  1
  As  As0  1  0.68718600  0.55940400  0.31362200  1
  As  As1  1  0.31281400  0.05940400  0.31362200  1
  As  As2  1  0.68271900  0.14892600  0.61674100  1
  As  As3  1  0.31728100  0.64892600  0.61674100  1
  As  As4  1  0.83300700  0.31481300  0.30704100  1
  As  As5  1  0.16699300  0.81481300  0.30704100  1
  As  As6  1  0.82317300  0.89259600  0.62625600  1
  As  As7  1  0.17682700  0.39259600  0.62625600  1
  S  S0  1  0.58160300  0.45130100  0.15664900  1
  S  S1  1  0.41839700  0.95130100  0.15664900  1
  S  S2  1  0.91843000  0.00361100  0.79323500  1
  S  S3  1  0.08157000  0.50361100  0.79323500  1
  S  S4  1  0.74472000  0.84682300  0.19070700  1
  S  S5  1  0.25528000  0.34682300  0.19070700  1
  S  S6  1  0.75355900  0.61009700  0.73278400  1
  S  S7  1  0.24644100  0.11009700  0.73278400  1
  S  S8  1  0.63060300  0.08936100  0.84639000  1
  S  S9  1  0.36939700  0.58936100  0.84639000  1
  S  S10  1  0.56774100  0.98113900  0.51185000  1
  S  S11  1  0.43225900  0.48113900  0.51185000  1
  S  S12  1  0.89903600  0.39676000  0.08979700  1
  S  S13  1  0.10096400  0.89676000  0.08979700  1
  S  S14  1  0.93484200  0.48840900  0.42837200  1
  S  S15  1  0.06515800  0.98840900  0.42837200  1
loop_
_geom_bond_atom_site_label_1
_geom_bond_atom_site_label_2
_geom_bond_distance
_geom_bond_site_symmetry_2
Ag0 S0 2.582636 1_555
Ag0 S4 2.637562 1_545
Ag0 S1 2.647759 1_545
Ag0 S10 2.687169 1_545
Ag1 S1 2.582636 1_555
Ag1 S5 2.637562 1_555
Ag1 S0 2.647759 1_555
Ag1 S11 2.687169 1_555
Ag2 S12 2.605160 1_555
Ag2 S2 2.682502 1_564
Ag2 S13 2.703694 1_655
Ag2 S4 2.721040 1_555
Ag3 S13 2.605160 1_545
Ag3 S3 2.682502 1_554
Ag3 S12 2.703694 1_455
Ag3 S5 2.721040 1_555
Ag4 S14 2.611316 1_555
Ag4 S2 2.616739 1_555
Ag4 S6 2.660832 1_555
Ag4 S3 2.703707 1_655
Ag5 S15 2.611316 1_555
Ag5 S3 2.616739 1_555
Ag5 S7 2.660832 1_565
Ag5 S2 2.703707 1_465
Ag6 S15 2.549383 1_655
Ag6 S4 2.564147 1_555
Ag6 S14 2.685443 1_555
Ag6 As6 2.802215 1_555
Ag6 As4 3.148620 1_565
Ag7 S14 2.549383 1_455
Ag7 S5 2.564147 1_555
Ag7 S15 2.685443 1_545
Ag7 As7 2.802215 1_555
Ag7 As5 3.148620 1_555
Ag8 S11 2.519946 1_555
Ag8 S6 2.543267 1_555
Ag8 S10 2.650397 1_555
Ag8 As0 2.750041 1_555
Ag9 S10 2.519946 1_545
Ag9 S7 2.543267 1_555
Ag9 S11 2.650397 1_555
Ag9 As1 2.750041 1_555
Ag10 S12 2.477789 1_556
Ag10 S8 2.551166 1_555
Ag10 S2 2.794134 1_555
Ag10 S4 3.095196 1_546
Ag11 S13 2.477789 1_556
Ag11 S9 2.551166 1_555
Ag11 S3 2.794134 1_555
Ag11 S5 3.095196 1_556
Ag12 S9 2.432623 1_555
Ag12 S8 2.458832 1_565
Ag13 S8 2.432623 1_555
Ag13 S9 2.458832 1_555
Ag14 S6 2.459478 1_555
Ag14 S0 2.541829 1_556
Ag14 S4 2.918927 1_556
Ag15 S7 2.459478 1_555
Ag15 S1 2.541829 1_546
Ag15 S5 2.918927 1_556
As0 S0 2.279204 1_555
As0 S4 2.292928 1_555
As0 As4 2.571130 1_555
As1 S1 2.279204 1_545
As1 S5 2.292928 1_555
As1 As5 2.571130 1_545
As2 S10 2.249526 1_545
As2 S8 2.320441 1_555
As2 As6 2.558745 1_545
As3 S11 2.249526 1_555
As3 S9 2.320441 1_555
As3 As7 2.558745 1_555
As4 S14 2.254855 1_555
As4 S12 2.282656 1_555
As5 S15 2.254855 1_555
As5 S13 2.282656 1_555
As6 S6 2.267028 1_555
As6 S2 2.281452 1_565
As7 S7 2.267028 1_555
As7 S3 2.281452 1_555
