# generated using pymatgen
data_Ag3RuO4
_symmetry_space_group_name_H-M   'P 1'
_cell_length_a   9.05781031
_cell_length_b   9.05781031
_cell_length_c   12.71871564
_cell_angle_alpha   67.09971064
_cell_angle_beta   67.09971064
_cell_angle_gamma   78.86216839
_symmetry_Int_Tables_number   1
_chemical_formula_structural   Ag3RuO4
_chemical_formula_sum   'Ag24 Ru8 O32'
_cell_volume   884.41419703
_cell_formula_units_Z   8
loop_
 _symmetry_equiv_pos_site_id
 _symmetry_equiv_pos_as_xyz
  1  'x, y, z'
loop_
 _atom_site_type_symbol
 _atom_site_label
 _atom_site_symmetry_multiplicity
 _atom_site_fract_x
 _atom_site_fract_y
 _atom_site_fract_z
 _atom_site_occupancy
  Ag  Ag0  1  0.54885500  0.45114500  0.25000000  1
  Ag  Ag1  1  0.45114500  0.54885500  0.75000000  1
  Ag  Ag2  1  0.80785700  0.63049400  0.27136200  1
  Ag  Ag3  1  0.36950600  0.19214300  0.22863800  1
  Ag  Ag4  1  0.19214300  0.36950600  0.72863800  1
  Ag  Ag5  1  0.63049400  0.80785700  0.77136200  1
  Ag  Ag6  1  0.20562900  0.55592700  0.26119200  1
  Ag  Ag7  1  0.44407300  0.79437100  0.23880800  1
  Ag  Ag8  1  0.79437100  0.44407300  0.73880800  1
  Ag  Ag9  1  0.55592700  0.20562900  0.76119200  1
  Ag  Ag10  1  0.89786800  0.10213200  0.75000000  1
  Ag  Ag11  1  0.10213200  0.89786800  0.25000000  1
  Ag  Ag12  1  0.50000000  0.50000000  0.50000000  1
  Ag  Ag13  1  0.50000000  0.50000000  0.00000000  1
  Ag  Ag14  1  0.11444400  0.61704900  0.51058900  1
  Ag  Ag15  1  0.38295100  0.88555600  0.98941100  1
  Ag  Ag16  1  0.88555600  0.38295100  0.48941100  1
  Ag  Ag17  1  0.61704900  0.11444400  0.01058900  1
  Ag  Ag18  1  0.00000000  0.00000000  0.50000000  1
  Ag  Ag19  1  0.00000000  0.00000000  0.00000000  1
  Ag  Ag20  1  0.29539500  0.95759900  0.77488200  1
  Ag  Ag21  1  0.04240100  0.70460500  0.72511800  1
  Ag  Ag22  1  0.70460500  0.04240100  0.22511800  1
  Ag  Ag23  1  0.95759900  0.29539500  0.27488200  1
  Ru  Ru0  1  0.24824200  0.22080700  0.50816500  1
  Ru  Ru1  1  0.77919300  0.75175800  0.99183500  1
  Ru  Ru2  1  0.75175800  0.77919300  0.49183500  1
  Ru  Ru3  1  0.22080700  0.24824200  0.00816500  1
  Ru  Ru4  1  0.60709900  0.12227000  0.50134900  1
  Ru  Ru5  1  0.87773000  0.39290100  0.99865100  1
  Ru  Ru6  1  0.39290100  0.87773000  0.49865100  1
  Ru  Ru7  1  0.12227000  0.60709900  0.00134900  1
  O  O0  1  0.32999500  0.67816700  0.89435400  1
  O  O1  1  0.32183300  0.67000500  0.60564600  1
  O  O2  1  0.67000500  0.32183300  0.10564600  1
  O  O3  1  0.67816700  0.32999500  0.39435400  1
  O  O4  1  0.45897400  0.11967200  0.40893600  1
  O  O5  1  0.88032800  0.54102600  0.09106400  1
  O  O6  1  0.54102600  0.88032800  0.59106400  1
  O  O7  1  0.11967200  0.45897400  0.90893600  1
  O  O8  1  0.30212400  0.44518300  0.41457300  1
  O  O9  1  0.55481700  0.69787600  0.08542700  1
  O  O10  1  0.69787600  0.55481700  0.58542700  1
  O  O11  1  0.44518300  0.30212400  0.91457300  1
  O  O12  1  0.12888500  0.22233200  0.40967000  1
  O  O13  1  0.77766800  0.87111500  0.09033000  1
  O  O14  1  0.87111500  0.77766800  0.59033000  1
  O  O15  1  0.22233200  0.12888500  0.90967000  1
  O  O16  1  0.39318000  0.19410200  0.60204100  1
  O  O17  1  0.80589800  0.60682000  0.89795900  1
  O  O18  1  0.60682000  0.80589800  0.39795900  1
  O  O19  1  0.19410200  0.39318000  0.10204100  1
  O  O20  1  0.07321600  0.27713500  0.63064200  1
  O  O21  1  0.72286500  0.92678400  0.86935800  1
  O  O22  1  0.92678400  0.72286500  0.36935800  1
  O  O23  1  0.27713500  0.07321600  0.13064200  1
  O  O24  1  0.69347100  0.10322400  0.61778200  1
  O  O25  1  0.89677600  0.30652900  0.88221800  1
  O  O26  1  0.30652900  0.89677600  0.38221800  1
  O  O27  1  0.10322400  0.69347100  0.11778200  1
  O  O28  1  0.02273400  0.78652700  0.90045800  1
  O  O29  1  0.21347300  0.97726600  0.59954200  1
  O  O30  1  0.97726600  0.21347300  0.09954200  1
  O  O31  1  0.78652700  0.02273400  0.40045800  1
loop_
_geom_bond_atom_site_label_1
_geom_bond_atom_site_label_2
_geom_bond_distance
_geom_bond_site_symmetry_2
Ag0 O3 2.357127 1_555
Ag0 O2 2.357127 1_555
Ag0 O9 2.386799 1_555
Ag0 O8 2.386799 1_555
Ag1 O0 2.357127 1_555
Ag1 O1 2.357127 1_555
Ag1 O10 2.386799 1_555
Ag1 O11 2.386799 1_555
Ag2 O22 2.370358 1_555
Ag2 O5 2.532872 1_555
Ag2 O13 2.545722 1_555
Ag2 O27 2.637024 1_655
Ag2 O18 2.650285 1_555
Ag2 O3 2.779748 1_555
Ag3 O23 2.370358 1_555
Ag3 O4 2.532872 1_555
Ag3 O12 2.545722 1_555
Ag3 O26 2.637024 1_545
Ag3 O19 2.650285 1_555
Ag3 O2 2.779748 1_555
Ag4 O20 2.370358 1_555
Ag4 O7 2.532872 1_555
Ag4 O15 2.545722 1_555
Ag4 O25 2.637024 1_455
Ag4 O16 2.650285 1_555
Ag4 O1 2.779748 1_555
Ag5 O21 2.370358 1_555
Ag5 O6 2.532872 1_555
Ag5 O14 2.545722 1_555
Ag5 O24 2.637024 1_565
Ag5 O17 2.650285 1_555
Ag5 O0 2.779748 1_555
Ag6 O27 2.200270 1_555
Ag6 O8 2.245245 1_555
Ag7 O26 2.200270 1_555
Ag7 O9 2.245245 1_555
Ag8 O25 2.200270 1_555
Ag8 O10 2.245245 1_555
Ag9 O24 2.200270 1_555
Ag9 O11 2.245245 1_555
Ag10 O21 2.136179 1_545
Ag10 O20 2.136179 1_655
Ag11 O22 2.136179 1_455
Ag11 O23 2.136179 1_565
Ag12 O3 2.396594 1_555
Ag12 O1 2.396594 1_555
Ag12 O8 2.630348 1_555
Ag12 O10 2.630348 1_555
Ag12 O16 2.749095 1_555
Ag12 O18 2.749095 1_555
Ag13 O2 2.396594 1_555
Ag13 O0 2.396594 1_554
Ag13 O11 2.630348 1_554
Ag13 O9 2.630348 1_555
Ag13 O19 2.749095 1_555
Ag13 O17 2.749095 1_554
Ag14 O8 2.376150 1_555
Ag14 O14 2.484514 1_455
Ag15 O9 2.376150 1_556
Ag15 O15 2.484514 1_565
Ag16 O10 2.376150 1_555
Ag16 O12 2.484514 1_655
Ag17 O11 2.376150 1_554
Ag17 O13 2.484514 1_545
Ag18 O14 2.191388 1_445
Ag18 O12 2.191388 1_555
Ag18 O29 2.632973 1_545
Ag18 O31 2.632973 1_455
Ag18 O24 2.770795 1_455
Ag18 O26 2.770795 1_545
Ag19 O15 2.191388 1_554
Ag19 O13 2.191388 1_445
Ag19 O30 2.632973 1_455
Ag19 O28 2.632973 1_544
Ag19 O25 2.770795 1_454
Ag19 O27 2.770795 1_545
Ag20 O16 2.399753 1_565
Ag20 O0 2.425770 1_555
Ag20 O29 2.546235 1_555
Ag20 O15 2.564041 1_565
Ag20 O6 2.744003 1_555
Ag20 O28 2.744817 1_555
Ag21 O17 2.399753 1_455
Ag21 O1 2.425770 1_555
Ag21 O28 2.546235 1_555
Ag21 O14 2.564041 1_455
Ag21 O7 2.744003 1_555
Ag21 O29 2.744817 1_555
Ag22 O18 2.399753 1_545
Ag22 O2 2.425770 1_555
Ag22 O31 2.546235 1_555
Ag22 O13 2.564041 1_545
Ag22 O4 2.744003 1_555
Ag22 O30 2.744817 1_555
Ag23 O19 2.399753 1_655
Ag23 O3 2.425770 1_555
Ag23 O30 2.546235 1_555
Ag23 O12 2.564041 1_655
Ag23 O5 2.744003 1_555
Ag23 O31 2.744817 1_555
O0 Ru7 1.897341 1_556
O1 Ru6 1.897341 1_555
O2 Ru5 1.897341 1_554
O3 Ru4 1.897341 1_555
O4 Ru0 2.103520 1_555
O4 Ru4 2.107893 1_555
O4 Ru6 2.119395 1_545
O5 Ru1 2.103520 1_554
O5 Ru5 2.107893 1_554
O5 Ru7 2.119395 1_655
O6 Ru2 2.103520 1_555
O6 Ru6 2.107893 1_555
O6 Ru4 2.119395 1_565
O7 Ru3 2.103520 1_556
O7 Ru7 2.107893 1_556
O7 Ru5 2.119395 1_455
O8 Ru0 1.958038 1_555
O9 Ru1 1.958038 1_554
O10 Ru2 1.958038 1_555
O11 Ru3 1.958038 1_556
O12 Ru0 1.942452 1_555
O13 Ru1 1.942452 1_554
O14 Ru2 1.942452 1_555
O15 Ru3 1.942452 1_556
O16 Ru4 2.011988 1_555
O16 Ru0 2.019915 1_555
O17 Ru5 2.011988 1_555
O17 Ru1 2.019915 1_555
O18 Ru6 2.011988 1_555
O18 Ru2 2.019915 1_555
O19 Ru7 2.011988 1_555
O19 Ru3 2.019915 1_555
O20 Ru0 1.893229 1_555
O21 Ru1 1.893229 1_555
O22 Ru2 1.893229 1_555
O23 Ru3 1.893229 1_555
O24 Ru4 1.866950 1_555
O25 Ru5 1.866950 1_555
O26 Ru6 1.866950 1_555
O27 Ru7 1.866950 1_555
O28 Ru7 1.952445 1_556
O28 Ru1 2.074701 1_455
O29 Ru6 1.952445 1_555
O29 Ru0 2.074701 1_565
O30 Ru5 1.952445 1_554
O30 Ru3 2.074701 1_655
O31 Ru4 1.952445 1_555
O31 Ru2 2.074701 1_545
