# generated using pymatgen
data_ScGaPd
_symmetry_space_group_name_H-M   'P 1'
_cell_length_a   4.25389106
_cell_length_b   6.51755654
_cell_length_c   7.53475347
_cell_angle_alpha   90.00000000
_cell_angle_beta   90.00000000
_cell_angle_gamma   90.00000000
_symmetry_Int_Tables_number   1
_chemical_formula_structural   ScGaPd
_chemical_formula_sum   'Sc4 Ga4 Pd4'
_cell_volume   208.90085534
_cell_formula_units_Z   4
loop_
 _symmetry_equiv_pos_site_id
 _symmetry_equiv_pos_as_xyz
  1  'x, y, z'
loop_
 _atom_site_type_symbol
 _atom_site_label
 _atom_site_symmetry_multiplicity
 _atom_site_fract_x
 _atom_site_fract_y
 _atom_site_fract_z
 _atom_site_occupancy
  Sc  Sc0  1  0.25000000  0.00953710  0.29834416  1
  Sc  Sc1  1  0.25000000  0.50953710  0.20165584  1
  Sc  Sc2  1  0.75000000  0.99046290  0.70165584  1
  Sc  Sc3  1  0.75000000  0.49046290  0.79834416  1
  Ga  Ga0  1  0.25000000  0.28075331  0.60672203  1
  Ga  Ga1  1  0.25000000  0.78075331  0.89327797  1
  Ga  Ga2  1  0.75000000  0.71924669  0.39327797  1
  Ga  Ga3  1  0.75000000  0.21924669  0.10672203  1
  Pd  Pd0  1  0.25000000  0.17500424  0.93265374  1
  Pd  Pd1  1  0.25000000  0.67500424  0.56734626  1
  Pd  Pd2  1  0.75000000  0.82499576  0.06734626  1
  Pd  Pd3  1  0.75000000  0.32499576  0.43265374  1
loop_
_geom_bond_atom_site_label_1
_geom_bond_atom_site_label_2
_geom_bond_distance
_geom_bond_site_symmetry_2
Ga0 Pd3 2.515400 1_455
Ga0 Pd3 2.515400 1_555
Ga0 Pd0 2.550698 1_555
Ga0 Pd1 2.586624 1_555
Ga0 Sc3 2.911470 1_555
Ga0 Sc3 2.911470 1_455
Ga0 Sc0 2.919510 1_555
Ga0 Sc2 2.935159 1_545
Ga0 Sc2 2.935159 1_445
Ga1 Pd2 2.515400 1_556
Ga1 Pd2 2.515400 1_456
Ga1 Pd1 2.550698 1_555
Ga1 Pd0 2.586624 1_565
Ga1 Sc2 2.911470 1_555
Ga1 Sc2 2.911470 1_455
Ga1 Sc1 2.919510 1_556
Ga1 Sc3 2.935159 1_555
Ga1 Sc3 2.935159 1_455
Ga2 Pd1 2.515400 1_555
Ga2 Pd1 2.515400 1_655
Ga2 Pd2 2.550698 1_555
Ga2 Pd3 2.586624 1_555
Ga2 Sc1 2.911470 1_555
Ga2 Sc1 2.911470 1_655
Ga2 Sc2 2.919510 1_555
Ga2 Sc0 2.935159 1_665
Ga2 Sc0 2.935159 1_565
Ga3 Pd0 2.515400 1_554
Ga3 Pd0 2.515400 1_654
Ga3 Pd3 2.550698 1_555
Ga3 Pd2 2.586624 1_545
Ga3 Sc0 2.911470 1_555
Ga3 Sc0 2.911470 1_655
Ga3 Sc3 2.919510 1_554
Ga3 Sc1 2.935159 1_655
Ga3 Sc1 2.935159 1_555
Pd0 Sc0 2.958918 1_556
Pd0 Sc1 2.976919 1_556
Pd0 Sc2 2.999985 1_445
Pd0 Sc2 2.999985 1_545
Pd0 Sc3 3.126538 1_555
Pd0 Sc3 3.126538 1_455
Pd1 Sc1 2.958918 1_555
Pd1 Sc0 2.976919 1_565
Pd1 Sc3 2.999985 1_555
Pd1 Sc3 2.999985 1_455
Pd1 Sc2 3.126538 1_455
Pd1 Sc2 3.126538 1_555
Pd2 Sc2 2.958918 1_554
Pd2 Sc3 2.976919 1_554
Pd2 Sc0 2.999985 1_665
Pd2 Sc0 2.999985 1_565
Pd2 Sc1 3.126538 1_555
Pd2 Sc1 3.126538 1_655
Pd3 Sc3 2.958918 1_555
Pd3 Sc2 2.976919 1_545
Pd3 Sc1 2.999985 1_655
Pd3 Sc1 2.999985 1_555
Pd3 Sc0 3.126538 1_655
Pd3 Sc0 3.126538 1_555
