# generated using pymatgen
data_ZrCrAgS4
_symmetry_space_group_name_H-M   'P 1'
_cell_length_a   6.65721302
_cell_length_b   7.76938783
_cell_length_c   12.90699858
_cell_angle_alpha   81.86674264
_cell_angle_beta   85.57143176
_cell_angle_gamma   89.81113823
_symmetry_Int_Tables_number   1
_chemical_formula_structural   ZrCrAgS4
_chemical_formula_sum   'Zr4 Cr4 Ag4 S16'
_cell_volume   658.87432946
_cell_formula_units_Z   4
loop_
 _symmetry_equiv_pos_site_id
 _symmetry_equiv_pos_as_xyz
  1  'x, y, z'
loop_
 _atom_site_type_symbol
 _atom_site_label
 _atom_site_symmetry_multiplicity
 _atom_site_fract_x
 _atom_site_fract_y
 _atom_site_fract_z
 _atom_site_occupancy
  Zr  Zr0  1  0.85612500  0.29486200  0.30663200  1
  Zr  Zr1  1  0.24001000  0.87395400  0.99994200  1
  Zr  Zr2  1  0.75957300  0.11379900  0.99979100  1
  Zr  Zr3  1  0.63242000  0.45108900  0.69639500  1
  Cr  Cr0  1  0.15314000  0.70566800  0.70280100  1
  Cr  Cr1  1  0.36091500  0.55320600  0.29597800  1
  Cr  Cr2  1  0.36604900  0.04774700  0.29626900  1
  Cr  Cr3  1  0.62787500  0.94386600  0.70115500  1
  Ag  Ag0  1  0.13395700  0.19900400  0.69566800  1
  Ag  Ag1  1  0.87884600  0.79776500  0.30799800  1
  Ag  Ag2  1  0.25160400  0.38598000  0.00000200  1
  Ag  Ag3  1  0.74373300  0.63600100  0.99982500  1
  S  S0  1  0.11654500  0.66820700  0.87642500  1
  S  S1  1  0.87750300  0.33648900  0.11784200  1
  S  S2  1  0.09471600  0.14250700  0.89611300  1
  S  S3  1  0.90645800  0.85589200  0.10788300  1
  S  S4  1  0.23363400  0.78554400  0.35833100  1
  S  S5  1  0.78484500  0.20278900  0.62519300  1
  S  S6  1  0.21017700  0.28602700  0.35944500  1
  S  S7  1  0.83201600  0.72643000  0.64128200  1
  S  S8  1  0.32588800  0.94130800  0.63691600  1
  S  S9  1  0.66256700  0.03393500  0.37436700  1
  S  S10  1  0.29983200  0.48528900  0.62733000  1
  S  S11  1  0.66286100  0.53220400  0.37016500  1
  S  S12  1  0.41160100  0.07478800  0.11621100  1
  S  S13  1  0.58222600  0.92365400  0.88184200  1
  S  S14  1  0.37997800  0.60688300  0.12166900  1
  S  S15  1  0.61490700  0.39511500  0.88652700  1
loop_
_geom_bond_atom_site_label_1
_geom_bond_atom_site_label_2
_geom_bond_distance
_geom_bond_site_symmetry_2
Cr0 S8 2.195399 1_555
Cr0 S0 2.213050 1_555
Cr0 S10 2.268966 1_555
Cr0 S7 2.334582 1_455
Cr1 S4 2.218062 1_555
Cr1 S14 2.223157 1_555
Cr1 S11 2.288000 1_555
Cr1 S6 2.322218 1_555
Cr2 S4 2.238257 1_545
Cr2 S9 2.280241 1_555
Cr2 S12 2.300118 1_555
Cr2 S6 2.335109 1_555
Cr3 S8 2.234251 1_555
Cr3 S13 2.311508 1_555
Cr3 S5 2.323283 1_565
Cr3 S7 2.343086 1_555
Ag0 S10 2.501076 1_555
Ag0 S8 2.545443 1_545
Ag0 S2 2.555247 1_555
Ag0 S5 2.558952 1_455
Ag1 S4 2.495527 1_655
Ag1 S11 2.518174 1_555
Ag1 S9 2.531912 1_565
Ag1 S3 2.550727 1_555
Ag2 S14 2.668620 1_555
Ag2 S0 2.716506 1_554
Ag2 S2 2.722892 1_554
Ag2 S15 2.724772 1_554
Ag2 S1 2.814156 1_455
Ag2 S12 2.904048 1_555
Ag3 S3 2.637641 1_556
Ag3 S15 2.712055 1_555
Ag3 S14 2.775485 1_556
Ag3 S1 2.778712 1_556
Ag3 S13 2.782756 1_555
Ag3 S0 2.835492 1_655
S0 Zr1 2.589315 1_555
S1 Zr0 2.405448 1_555
S1 Zr2 2.621270 1_554
S2 Zr2 2.505213 1_455
S2 Zr1 2.545713 1_545
S3 Zr2 2.514855 1_564
S3 Zr1 2.521984 1_654
S5 Zr3 2.437322 1_555
S6 Zr0 2.501726 1_455
S7 Zr3 2.508007 1_555
S9 Zr0 2.424084 1_555
S10 Zr3 2.449780 1_555
S11 Zr0 2.444872 1_555
S12 Zr1 2.632623 1_544
S12 Zr2 2.655984 1_554
S13 Zr2 2.611395 1_565
S13 Zr1 2.639284 1_555
S14 Zr1 2.633083 1_554
S15 Zr3 2.424701 1_555
S15 Zr2 2.672302 1_555
