# generated using pymatgen
data_RbLaMg14O16
_symmetry_space_group_name_H-M   'P 1'
_cell_length_a   8.74737003
_cell_length_b   8.74737003
_cell_length_c   4.52128796
_cell_angle_alpha   90.00000000
_cell_angle_beta   90.00000000
_cell_angle_gamma   90.00000000
_symmetry_Int_Tables_number   1
_chemical_formula_structural   RbLaMg14O16
_chemical_formula_sum   'Rb1 La1 Mg14 O16'
_cell_volume   345.95305081
_cell_formula_units_Z   1
loop_
 _symmetry_equiv_pos_site_id
 _symmetry_equiv_pos_as_xyz
  1  'x, y, z'
loop_
 _atom_site_type_symbol
 _atom_site_label
 _atom_site_symmetry_multiplicity
 _atom_site_fract_x
 _atom_site_fract_y
 _atom_site_fract_z
 _atom_site_occupancy
  Rb  Rb0  1  0.50000000  0.50000000  -0.00000000  1
  La  La0  1  0.00000000  -0.00000000  -0.00000000  1
  Mg  Mg0  1  0.00000000  0.50000000  -0.00000000  1
  Mg  Mg1  1  0.50000000  -0.00000000  -0.00000000  1
  Mg  Mg2  1  0.00000000  0.26853600  0.50000000  1
  Mg  Mg3  1  0.00000000  0.73146400  0.50000000  1
  Mg  Mg4  1  0.50000000  0.24844053  0.50000000  1
  Mg  Mg5  1  0.50000000  0.75155947  0.50000000  1
  Mg  Mg6  1  0.26853600  -0.00000000  0.50000000  1
  Mg  Mg7  1  0.24844053  0.50000000  0.50000000  1
  Mg  Mg8  1  0.73146400  -0.00000000  0.50000000  1
  Mg  Mg9  1  0.75155947  0.50000000  0.50000000  1
  Mg  Mg10  1  0.25957663  0.25957663  -0.00000000  1
  Mg  Mg11  1  0.25957663  0.74042337  -0.00000000  1
  Mg  Mg12  1  0.74042337  0.25957663  0.00000000  1
  Mg  Mg13  1  0.74042337  0.74042337  0.00000000  1
  O  O0  1  0.26546289  -0.00000000  0.00000000  1
  O  O1  1  0.22104433  0.50000000  0.00000000  1
  O  O2  1  0.73453711  -0.00000000  -0.00000000  1
  O  O3  1  0.77895567  0.50000000  -0.00000000  1
  O  O4  1  0.24867549  0.24867549  0.50000000  1
  O  O5  1  0.24867549  0.75132451  0.50000000  1
  O  O6  1  0.75132451  0.24867549  0.50000000  1
  O  O7  1  0.75132451  0.75132451  0.50000000  1
  O  O8  1  0.00000000  -0.00000000  0.50000000  1
  O  O9  1  0.00000000  0.50000000  0.50000000  1
  O  O10  1  0.50000000  -0.00000000  0.50000000  1
  O  O11  1  0.50000000  0.50000000  0.50000000  1
  O  O12  1  0.00000000  0.26546289  0.00000000  1
  O  O13  1  0.00000000  0.73453711  -0.00000000  1
  O  O14  1  0.50000000  0.22104433  0.00000000  1
  O  O15  1  0.50000000  0.77895567  -0.00000000  1
loop_
_geom_bond_atom_site_label_1
_geom_bond_atom_site_label_2
_geom_bond_distance
_geom_bond_site_symmetry_2
La0 O8 2.260644 1_555
La0 O8 2.260644 1_554
La0 O2 2.322102 1_455
La0 O12 2.322102 1_555
La0 O13 2.322102 1_545
La0 O0 2.322102 1_555
Mg0 O1 1.933557 1_555
Mg0 O3 1.933557 1_455
Mg0 O13 2.051583 1_555
Mg0 O12 2.051583 1_555
Mg0 O9 2.260644 1_554
Mg0 O9 2.260644 1_555
Mg1 O15 1.933557 1_545
Mg1 O14 1.933557 1_555
Mg1 O0 2.051583 1_555
Mg1 O2 2.051583 1_555
Mg1 O10 2.260644 1_555
Mg1 O10 2.260644 1_554
Mg2 O9 2.024701 1_555
Mg2 O4 2.182183 1_555
Mg2 O6 2.182183 1_455
Mg2 O12 2.260804 1_556
Mg2 O12 2.260804 1_555
Mg2 O8 2.348984 1_555
Mg3 O9 2.024701 1_555
Mg3 O5 2.182183 1_555
Mg3 O7 2.182183 1_455
Mg3 O13 2.260804 1_555
Mg3 O13 2.260804 1_556
Mg3 O8 2.348984 1_565
Mg4 O10 2.173201 1_555
Mg4 O4 2.198429 1_555
Mg4 O6 2.198429 1_555
Mg4 O11 2.200484 1_555
Mg4 O14 2.273311 1_556
Mg4 O14 2.273311 1_555
Mg5 O10 2.173201 1_565
Mg5 O5 2.198429 1_555
Mg5 O7 2.198429 1_555
Mg5 O11 2.200484 1_555
Mg5 O15 2.273311 1_556
Mg5 O15 2.273311 1_555
Mg6 O10 2.024701 1_555
Mg6 O4 2.182183 1_555
Mg6 O5 2.182183 1_545
Mg6 O0 2.260804 1_556
Mg6 O0 2.260804 1_555
Mg6 O8 2.348984 1_555
Mg7 O9 2.173201 1_555
Mg7 O4 2.198429 1_555
Mg7 O5 2.198429 1_555
Mg7 O11 2.200484 1_555
Mg7 O1 2.273311 1_556
Mg7 O1 2.273311 1_555
Mg8 O10 2.024701 1_555
Mg8 O6 2.182183 1_555
Mg8 O7 2.182183 1_545
Mg8 O2 2.260804 1_556
Mg8 O2 2.260804 1_555
Mg8 O8 2.348984 1_655
Mg9 O9 2.173201 1_655
Mg9 O6 2.198429 1_555
Mg9 O7 2.198429 1_555
Mg9 O11 2.200484 1_555
Mg9 O3 2.273311 1_556
Mg9 O3 2.273311 1_555
Mg10 O1 2.129911 1_555
Mg10 O14 2.129911 1_555
Mg10 O4 2.264663 1_554
Mg10 O4 2.264663 1_555
Mg10 O0 2.271197 1_555
Mg10 O12 2.271197 1_555
Mg11 O15 2.129911 1_555
Mg11 O1 2.129911 1_555
Mg11 O5 2.264663 1_554
Mg11 O5 2.264663 1_555
Mg11 O0 2.271197 1_565
Mg11 O13 2.271197 1_555
Mg12 O3 2.129911 1_555
Mg12 O14 2.129911 1_555
Mg12 O6 2.264663 1_554
Mg12 O6 2.264663 1_555
Mg12 O12 2.271197 1_655
Mg12 O2 2.271197 1_555
Mg13 O15 2.129911 1_555
Mg13 O3 2.129911 1_555
Mg13 O7 2.264663 1_555
Mg13 O7 2.264663 1_554
Mg13 O2 2.271197 1_565
Mg13 O13 2.271197 1_655
O1 Rb0 2.440128 1_555
O3 Rb0 2.440128 1_555
O11 Rb0 2.260644 1_555
O11 Rb0 2.260644 1_556
O14 Rb0 2.440128 1_555
O15 Rb0 2.440128 1_555
