# generated using pymatgen
data_Ga3Ag
_symmetry_space_group_name_H-M   'P 1'
_cell_length_a   5.81435686
_cell_length_b   5.81435686
_cell_length_c   5.14281100
_cell_angle_alpha   90.00000000
_cell_angle_beta   90.00000000
_cell_angle_gamma   120.00000983
_symmetry_Int_Tables_number   1
_chemical_formula_structural   Ga3Ag
_chemical_formula_sum   'Ga6 Ag2'
_cell_volume   150.56863738
_cell_formula_units_Z   2
loop_
 _symmetry_equiv_pos_site_id
 _symmetry_equiv_pos_as_xyz
  1  'x, y, z'
loop_
 _atom_site_type_symbol
 _atom_site_label
 _atom_site_symmetry_multiplicity
 _atom_site_fract_x
 _atom_site_fract_y
 _atom_site_fract_z
 _atom_site_occupancy
  Ga  Ga0  1  0.16650100  0.33300200  0.25000000  1
  Ga  Ga1  1  0.66699800  0.83349900  0.25000000  1
  Ga  Ga2  1  0.16650100  0.83349900  0.25000000  1
  Ga  Ga3  1  0.83349900  0.66699800  0.75000000  1
  Ga  Ga4  1  0.33300200  0.16650100  0.75000000  1
  Ga  Ga5  1  0.83349900  0.16650100  0.75000000  1
  Ag  Ag0  1  0.33333300  0.66666700  0.75000000  1
  Ag  Ag1  1  0.66666700  0.33333300  0.25000000  1
loop_
_geom_bond_atom_site_label_1
_geom_bond_atom_site_label_2
_geom_bond_distance
_geom_bond_site_symmetry_2
Ga0 Ga1 2.904288 1_445
Ga0 Ga2 2.904289 1_545
Ga0 Ga1 2.910068 1_555
Ga0 Ga2 2.910068 1_555
Ga0 Ga5 3.069814 1_455
Ga0 Ga5 3.069814 1_454
Ga0 Ga4 3.069814 1_554
Ga0 Ga4 3.069814 1_555
Ga1 Ga2 2.904289 1_655
Ga1 Ga2 2.910068 1_555
Ga1 Ga5 3.069814 1_564
Ga1 Ga5 3.069814 1_565
Ga1 Ga3 3.069814 1_555
Ga1 Ga3 3.069814 1_554
Ga2 Ga4 3.069814 1_565
Ga2 Ga3 3.069814 1_455
Ga2 Ga3 3.069814 1_454
Ga2 Ga4 3.069814 1_564
Ga3 Ga4 2.904288 1_665
Ga3 Ga5 2.904289 1_565
Ga3 Ga4 2.910068 1_555
Ga3 Ga5 2.910068 1_555
Ga4 Ga5 2.904289 1_455
Ga4 Ga5 2.910068 1_555
Ag0 Ga4 2.907176 1_565
Ag0 Ga3 2.907176 1_455
Ag0 Ga5 2.907178 1_565
Ag0 Ga5 2.907178 1_455
Ag0 Ga3 2.907182 1_555
Ag0 Ga4 2.907182 1_555
Ag0 Ga2 3.071636 1_555
Ag0 Ga2 3.071636 1_556
Ag0 Ga1 3.071639 1_556
Ag0 Ga0 3.071639 1_555
Ag0 Ga1 3.071639 1_555
Ag0 Ga0 3.071639 1_556
Ag1 Ga1 2.907176 1_545
Ag1 Ga0 2.907176 1_655
Ag1 Ga2 2.907178 1_545
Ag1 Ga2 2.907178 1_655
Ag1 Ga0 2.907182 1_555
Ag1 Ga1 2.907182 1_555
Ag1 Ga5 3.071636 1_555
Ag1 Ga5 3.071636 1_554
Ag1 Ga4 3.071639 1_554
Ag1 Ga3 3.071639 1_555
Ag1 Ga4 3.071639 1_555
Ag1 Ga3 3.071639 1_554
