# generated using pymatgen
data_Lu3Th
_symmetry_space_group_name_H-M   'P 1'
_cell_length_a   7.07703699
_cell_length_b   7.07703699
_cell_length_c   5.63871466
_cell_angle_alpha   90.00000000
_cell_angle_beta   90.00000000
_cell_angle_gamma   120.00000307
_symmetry_Int_Tables_number   1
_chemical_formula_structural   Lu3Th
_chemical_formula_sum   'Lu6 Th2'
_cell_volume   244.57590398
_cell_formula_units_Z   2
loop_
 _symmetry_equiv_pos_site_id
 _symmetry_equiv_pos_as_xyz
  1  'x, y, z'
loop_
 _atom_site_type_symbol
 _atom_site_label
 _atom_site_symmetry_multiplicity
 _atom_site_fract_x
 _atom_site_fract_y
 _atom_site_fract_z
 _atom_site_occupancy
  Lu  Lu0  1  0.16606150  0.33212400  0.25000000  1
  Lu  Lu1  1  0.66787600  0.83393850  0.25000000  1
  Lu  Lu2  1  0.16606150  0.83393850  0.25000000  1
  Lu  Lu3  1  0.83393850  0.66787600  0.75000000  1
  Lu  Lu4  1  0.33212400  0.16606150  0.75000000  1
  Lu  Lu5  1  0.83393850  0.16606150  0.75000000  1
  Th  Th0  1  0.33333300  0.66666700  0.75000000  1
  Th  Th1  1  0.66666700  0.33333300  0.25000000  1
loop_
_geom_bond_atom_site_label_1
_geom_bond_atom_site_label_2
_geom_bond_distance
_geom_bond_site_symmetry_2
Lu0 Lu5 3.477388 1_455
Lu0 Lu5 3.477388 1_454
Lu0 Lu4 3.477395 1_554
Lu0 Lu4 3.477395 1_555
Lu0 Th0 3.486091 1_554
Lu0 Th0 3.486091 1_555
Lu0 Lu1 3.525677 1_445
Lu0 Lu2 3.525677 1_545
Lu0 Th1 3.538519 1_455
Lu0 Th1 3.538533 1_555
Lu0 Lu1 3.551360 1_555
Lu0 Lu2 3.551360 1_555
Lu1 Lu5 3.477388 1_565
Lu1 Lu5 3.477388 1_564
Lu1 Lu3 3.477395 1_555
Lu1 Lu3 3.477395 1_554
Lu1 Th0 3.486091 1_555
Lu1 Th0 3.486091 1_554
Lu1 Lu2 3.525677 1_655
Lu1 Th1 3.538519 1_565
Lu1 Th1 3.538533 1_555
Lu1 Lu2 3.551360 1_555
Lu2 Lu3 3.477388 1_455
Lu2 Lu3 3.477388 1_454
Lu2 Lu4 3.477388 1_565
Lu2 Lu4 3.477388 1_564
Lu2 Th0 3.486091 1_554
Lu2 Th0 3.486091 1_555
Lu2 Th1 3.538526 1_565
Lu2 Th1 3.538526 1_455
Lu3 Th1 3.486091 1_556
Lu3 Th1 3.486091 1_555
Lu3 Lu4 3.525677 1_665
Lu3 Lu5 3.525677 1_565
Lu3 Th0 3.538519 1_655
Lu3 Th0 3.538533 1_555
Lu3 Lu4 3.551360 1_555
Lu3 Lu5 3.551360 1_555
Lu4 Th1 3.486091 1_556
Lu4 Th1 3.486091 1_555
Lu4 Lu5 3.525677 1_455
Lu4 Th0 3.538519 1_545
Lu4 Th0 3.538533 1_555
Lu4 Lu5 3.551360 1_555
Lu5 Th1 3.486091 1_556
Lu5 Th1 3.486091 1_555
Lu5 Th0 3.538526 1_545
Lu5 Th0 3.538526 1_655
