# generated using pymatgen
data_CsEu(MoO4)2
_symmetry_space_group_name_H-M   'P 1'
_cell_length_a   7.75212754
_cell_length_b   7.75212754
_cell_length_c   7.92330727
_cell_angle_alpha   62.08413618
_cell_angle_beta   62.08413618
_cell_angle_gamma   88.98400132
_symmetry_Int_Tables_number   1
_chemical_formula_structural   CsEu(MoO4)2
_chemical_formula_sum   'Cs2 Eu2 Mo4 O16'
_cell_volume   359.20013600
_cell_formula_units_Z   2
loop_
 _symmetry_equiv_pos_site_id
 _symmetry_equiv_pos_as_xyz
  1  'x, y, z'
loop_
 _atom_site_type_symbol
 _atom_site_label
 _atom_site_symmetry_multiplicity
 _atom_site_fract_x
 _atom_site_fract_y
 _atom_site_fract_z
 _atom_site_occupancy
  Cs  Cs0  1  0.19819600  0.80180400  0.75000000  1
  Cs  Cs1  1  0.80180400  0.19819600  0.25000000  1
  Eu  Eu0  1  0.76901400  0.23098600  0.75000000  1
  Eu  Eu1  1  0.23098600  0.76901400  0.25000000  1
  Mo  Mo0  1  0.69345400  0.69409900  0.76431300  1
  Mo  Mo1  1  0.30654600  0.30590100  0.23568700  1
  Mo  Mo2  1  0.30590100  0.30654600  0.73568700  1
  Mo  Mo3  1  0.69409900  0.69345400  0.26431300  1
  O  O0  1  0.61844000  0.75987700  0.56513500  1
  O  O1  1  0.38156000  0.24012300  0.43486500  1
  O  O2  1  0.24012300  0.38156000  0.93486500  1
  O  O3  1  0.75987700  0.61844000  0.06513500  1
  O  O4  1  0.38309400  0.07531600  0.86814400  1
  O  O5  1  0.61690600  0.92468400  0.13185600  1
  O  O6  1  0.92468400  0.61690600  0.63185600  1
  O  O7  1  0.07531600  0.38309400  0.36814400  1
  O  O8  1  0.57944700  0.37083100  0.97338400  1
  O  O9  1  0.42055300  0.62916900  0.02661600  1
  O  O10  1  0.62916900  0.42055300  0.52661600  1
  O  O11  1  0.37083100  0.57944700  0.47338400  1
  O  O12  1  0.79057000  0.94347200  0.69456600  1
  O  O13  1  0.20943000  0.05652800  0.30543400  1
  O  O14  1  0.05652800  0.20943000  0.80543400  1
  O  O15  1  0.94347200  0.79057000  0.19456600  1
loop_
_geom_bond_atom_site_label_1
_geom_bond_atom_site_label_2
_geom_bond_distance
_geom_bond_site_symmetry_2
Cs0 O1 2.950352 1_565
Cs0 O3 2.950352 1_456
Cs0 O2 2.967223 1_555
Cs0 O0 2.967223 1_555
Cs0 O13 3.085512 1_565
Cs0 O15 3.085512 1_456
Cs0 O9 3.205483 1_556
Cs0 O11 3.205483 1_555
Cs0 O6 3.263284 1_455
Cs0 O4 3.263284 1_565
Cs0 O12 3.479838 1_455
Cs0 O14 3.479838 1_565
Cs1 O2 2.950352 1_654
Cs1 O0 2.950352 1_545
Cs1 O1 2.967223 1_555
Cs1 O3 2.967223 1_555
Cs1 O14 3.085512 1_654
Cs1 O12 3.085512 1_545
Cs1 O10 3.205483 1_555
Cs1 O8 3.205483 1_554
Cs1 O5 3.263284 1_545
Cs1 O7 3.263284 1_655
Cs1 O15 3.479838 1_545
Cs1 O13 3.479838 1_655
Eu0 O8 2.402545 1_555
Eu0 O10 2.402545 1_555
Eu0 O14 2.454241 1_655
Eu0 O12 2.454241 1_545
Eu0 O5 2.492894 1_546
Eu0 O7 2.492894 1_655
Eu0 O6 2.780446 1_555
Eu0 O4 2.780446 1_555
Eu1 O11 2.402545 1_555
Eu1 O9 2.402545 1_555
Eu1 O13 2.454241 1_565
Eu1 O15 2.454241 1_455
Eu1 O6 2.492894 1_455
Eu1 O4 2.492894 1_564
Eu1 O5 2.780446 1_555
Eu1 O7 2.780446 1_555
Mo0 O0 1.784382 1_555
Mo0 O12 1.808608 1_555
Mo0 O6 1.860428 1_555
Mo0 O9 1.997408 1_556
Mo0 O8 2.150800 1_555
Mo0 O3 2.473811 1_556
Mo1 O1 1.784382 1_555
Mo1 O13 1.808608 1_555
Mo1 O7 1.860428 1_555
Mo1 O8 1.997408 1_554
Mo1 O9 2.150800 1_555
Mo1 O2 2.473811 1_554
Mo2 O2 1.784382 1_555
Mo2 O14 1.808608 1_555
Mo2 O4 1.860428 1_555
Mo2 O11 1.997408 1_555
Mo2 O10 2.150800 1_555
Mo2 O1 2.473811 1_555
Mo3 O3 1.784382 1_555
Mo3 O15 1.808608 1_555
Mo3 O5 1.860428 1_555
Mo3 O10 1.997408 1_555
Mo3 O11 2.150800 1_555
Mo3 O0 2.473811 1_555
