# generated using pymatgen
data_KCr2FeHO8
_symmetry_space_group_name_H-M   'P 1'
_cell_length_a   5.54005000
_cell_length_b   7.85381201
_cell_length_c   9.48634306
_cell_angle_alpha   101.27773697
_cell_angle_beta   90.00000000
_cell_angle_gamma   90.00000000
_symmetry_Int_Tables_number   1
_chemical_formula_structural   KCr2FeHO8
_chemical_formula_sum   'K2 Cr4 Fe2 H2 O16'
_cell_volume   404.78562303
_cell_formula_units_Z   2
loop_
 _symmetry_equiv_pos_site_id
 _symmetry_equiv_pos_as_xyz
  1  'x, y, z'
loop_
 _atom_site_type_symbol
 _atom_site_label
 _atom_site_symmetry_multiplicity
 _atom_site_fract_x
 _atom_site_fract_y
 _atom_site_fract_z
 _atom_site_occupancy
  K  K0  1  0.75000000  0.42637700  0.28368600  1
  K  K1  1  0.25000000  0.57362300  0.71631400  1
  Cr  Cr0  1  0.75000000  0.84331200  0.62619900  1
  Cr  Cr1  1  0.25000000  0.15668800  0.37380100  1
  Cr  Cr2  1  0.75000000  0.34006600  0.85546200  1
  Cr  Cr3  1  0.25000000  0.65993400  0.14453800  1
  Fe  Fe0  1  0.75000000  0.91338500  0.27025900  1
  Fe  Fe1  1  0.25000000  0.08661500  0.72974100  1
  H  H0  1  0.75000000  0.89516700  0.09288900  1
  H  H1  1  0.25000000  0.10483300  0.90711100  1
  O  O0  1  0.75000000  0.63459600  0.56898000  1
  O  O1  1  0.25000000  0.36540400  0.43102000  1
  O  O2  1  0.00289700  0.89958100  0.72559100  1
  O  O3  1  0.99710300  0.10041900  0.27440900  1
  O  O4  1  0.50289700  0.10041900  0.27440900  1
  O  O5  1  0.49710300  0.89958100  0.72559100  1
  O  O6  1  0.75000000  0.55031500  0.88046300  1
  O  O7  1  0.25000000  0.44968500  0.11953700  1
  O  O8  1  0.75000000  0.94149800  0.48614300  1
  O  O9  1  0.25000000  0.05850200  0.51385700  1
  O  O10  1  0.00612900  0.26547600  0.75903800  1
  O  O11  1  0.99387100  0.73452400  0.24096200  1
  O  O12  1  0.50612900  0.73452400  0.24096200  1
  O  O13  1  0.49387100  0.26547600  0.75903800  1
  O  O14  1  0.75000000  0.27606500  0.00634900  1
  O  O15  1  0.25000000  0.72393500  0.99365100  1
loop_
_geom_bond_atom_site_label_1
_geom_bond_atom_site_label_2
_geom_bond_distance
_geom_bond_site_symmetry_2
K0 O14 2.664685 1_555
K0 O11 2.868848 1_555
K0 O12 2.868848 1_555
K0 O0 2.875372 1_555
K0 O3 2.889178 1_555
K0 O4 2.889178 1_555
K0 O1 3.180817 1_655
K0 O1 3.180817 1_555
K0 O7 3.200442 1_555
K0 O7 3.200442 1_655
K1 O15 2.664685 1_555
K1 O10 2.868848 1_555
K1 O13 2.868848 1_555
K1 O1 2.875372 1_555
K1 O5 2.889178 1_555
K1 O2 2.889178 1_555
K1 O0 3.180817 1_455
K1 O0 3.180817 1_555
K1 O6 3.200442 1_555
K1 O6 3.200442 1_455
Cr0 O0 1.622851 1_555
Cr0 O8 1.661508 1_555
Cr0 O2 1.698321 1_655
Cr0 O5 1.698321 1_555
Cr1 O1 1.622851 1_555
Cr1 O9 1.661508 1_555
Cr1 O4 1.698321 1_555
Cr1 O3 1.698321 1_455
Cr2 O14 1.607133 1_556
Cr2 O6 1.621641 1_555
Cr2 O13 1.727356 1_555
Cr2 O10 1.727356 1_655
Cr3 O15 1.607133 1_554
Cr3 O7 1.621641 1_555
Cr3 O12 1.727356 1_555
Cr3 O11 1.727356 1_455
Fe0 H0 1.660550 1_555
Fe0 O11 1.929558 1_555
Fe0 O12 1.929558 1_555
Fe0 O3 2.002685 1_565
Fe0 O4 2.002685 1_565
Fe0 O8 2.016430 1_555
Fe1 H1 1.660550 1_555
Fe1 O10 1.929558 1_555
Fe1 O13 1.929558 1_555
Fe1 O5 2.002685 1_545
Fe1 O2 2.002685 1_545
Fe1 O9 2.016430 1_555
