# generated using pymatgen
data_Li9Mn2Co5O16
_symmetry_space_group_name_H-M   'P 1'
_cell_length_a   10.25465204
_cell_length_b   10.25465204
_cell_length_c   5.00443014
_cell_angle_alpha   79.72561195
_cell_angle_beta   79.72561195
_cell_angle_gamma   33.30531179
_symmetry_Int_Tables_number   1
_chemical_formula_structural   Li9Mn2Co5O16
_chemical_formula_sum   'Li9 Mn2 Co5 O16'
_cell_volume   283.91507174
_cell_formula_units_Z   1
loop_
 _symmetry_equiv_pos_site_id
 _symmetry_equiv_pos_as_xyz
  1  'x, y, z'
loop_
 _atom_site_type_symbol
 _atom_site_label
 _atom_site_symmetry_multiplicity
 _atom_site_fract_x
 _atom_site_fract_y
 _atom_site_fract_z
 _atom_site_occupancy
  Li  Li0  1  0.87615100  0.37114100  0.26150900  1
  Li  Li1  1  0.87701600  0.87701600  0.26008000  1
  Li  Li2  1  0.62358500  0.62358500  0.74111400  1
  Li  Li3  1  0.62885900  0.12384900  0.73849100  1
  Li  Li4  1  0.37114100  0.87615100  0.26150900  1
  Li  Li5  1  0.37641500  0.37641500  0.25888600  1
  Li  Li6  1  0.12298400  0.12298400  0.73992000  1
  Li  Li7  1  0.12384900  0.62885900  0.73849100  1
  Li  Li8  1  0.00000000  0.00000000  0.50000000  1
  Mn  Mn0  1  0.75433400  0.24566600  0.00000000  1
  Mn  Mn1  1  0.24566600  0.75433400  0.00000000  1
  Co  Co0  1  0.75009600  0.75009600  0.99952200  1
  Co  Co1  1  0.50000000  0.50000000  0.50000000  1
  Co  Co2  1  0.50000000  0.00000000  0.50000000  1
  Co  Co3  1  0.24990400  0.24990400  0.00047800  1
  Co  Co4  1  0.00000000  0.50000000  0.50000000  1
  O  O0  1  0.05578100  0.05578100  0.10029500  1
  O  O1  1  0.05517500  0.56021600  0.13528400  1
  O  O2  1  0.79037800  0.31969300  0.64002500  1
  O  O3  1  0.80916800  0.80916800  0.63401300  1
  O  O4  1  0.55365000  0.55365000  0.13082700  1
  O  O5  1  0.56021600  0.05517500  0.13528400  1
  O  O6  1  0.31969300  0.79037800  0.64002500  1
  O  O7  1  0.30812600  0.30812600  0.63530300  1
  O  O8  1  0.69187400  0.69187400  0.36469700  1
  O  O9  1  0.68030700  0.20962200  0.35997500  1
  O  O10  1  0.43978400  0.94482500  0.86471600  1
  O  O11  1  0.44635000  0.44635000  0.86917300  1
  O  O12  1  0.19083200  0.19083200  0.36598700  1
  O  O13  1  0.20962200  0.68030700  0.35997500  1
  O  O14  1  0.94482500  0.43978400  0.86471600  1
  O  O15  1  0.94421900  0.94421900  0.89970500  1
loop_
_geom_bond_atom_site_label_1
_geom_bond_atom_site_label_2
_geom_bond_distance
_geom_bond_site_symmetry_2
Li0 O12 2.095008 1_655
Li0 O2 2.113056 1_555
Li0 O8 2.126998 1_555
Li0 O14 2.183037 1_554
Li0 O4 2.203781 1_555
Li0 O0 2.223862 1_655
Li1 O15 2.027182 1_554
Li1 O3 2.085724 1_555
Li1 O5 2.162796 1_565
Li1 O1 2.162796 1_655
Li1 O13 2.168069 1_655
Li1 O9 2.168069 1_565
Li2 O2 2.058419 1_555
Li2 O6 2.058419 1_555
Li2 O8 2.099489 1_555
Li2 O4 2.166582 1_556
Li2 O10 2.172451 1_555
Li2 O14 2.172451 1_555
Li3 O3 2.095008 1_545
Li3 O9 2.113056 1_555
Li3 O7 2.126998 1_555
Li3 O5 2.183037 1_556
Li3 O11 2.203781 1_555
Li3 O15 2.223862 1_545
Li4 O12 2.095008 1_565
Li4 O6 2.113056 1_555
Li4 O8 2.126998 1_555
Li4 O10 2.183037 1_554
Li4 O4 2.203781 1_555
Li4 O0 2.223862 1_565
Li5 O9 2.058419 1_555
Li5 O13 2.058419 1_555
Li5 O7 2.099489 1_555
Li5 O11 2.166582 1_554
Li5 O1 2.172451 1_555
Li5 O5 2.172451 1_555
Li6 O0 2.027182 1_556
Li6 O12 2.085724 1_555
Li6 O10 2.162796 1_545
Li6 O14 2.162796 1_455
Li6 O2 2.168069 1_455
Li6 O6 2.168069 1_545
Li7 O3 2.095008 1_455
Li7 O13 2.113056 1_555
Li7 O7 2.126998 1_555
Li7 O1 2.183037 1_556
Li7 O11 2.203781 1_555
Li7 O15 2.223862 1_455
Li8 O6 2.088574 1_545
Li8 O2 2.088574 1_455
Li8 O13 2.088574 1_545
Li8 O9 2.088574 1_455
Li8 O0 2.094320 1_555
Li8 O15 2.094320 1_445
Mn0 O2 1.924011 1_554
Mn0 O9 1.924011 1_555
Mn0 O0 1.934635 1_655
Mn0 O15 1.934635 1_544
Mn0 O11 2.007826 1_554
Mn0 O4 2.007826 1_555
Mn1 O6 1.924011 1_554
Mn1 O13 1.924011 1_555
Mn1 O0 1.934635 1_565
Mn1 O15 1.934635 1_454
Mn1 O11 2.007826 1_554
Mn1 O4 2.007826 1_555
Co0 O8 1.967244 1_556
Co0 O3 1.975492 1_555
Co0 O1 2.035795 1_656
Co0 O5 2.035795 1_566
Co0 O10 2.057312 1_555
Co0 O14 2.057312 1_555
Co1 O11 1.949199 1_555
Co1 O4 1.949199 1_555
Co1 O2 1.963626 1_555
Co1 O6 1.963626 1_555
Co1 O9 1.963626 1_555
Co1 O13 1.963626 1_555
Co2 O5 1.961205 1_555
Co2 O10 1.961205 1_545
Co2 O7 2.051785 1_555
Co2 O8 2.051785 1_545
Co2 O3 2.061717 1_545
Co2 O12 2.061717 1_555
Co3 O7 1.967244 1_554
Co3 O12 1.975492 1_555
Co3 O10 2.035795 1_544
Co3 O14 2.035795 1_454
Co3 O1 2.057312 1_555
Co3 O5 2.057312 1_555
Co4 O1 1.961205 1_555
Co4 O14 1.961205 1_455
Co4 O7 2.051785 1_555
Co4 O8 2.051785 1_455
Co4 O3 2.061717 1_455
Co4 O12 2.061717 1_555
