# generated using pymatgen
data_LaGa2Co3
_symmetry_space_group_name_H-M   'P 1'
_cell_length_a   3.85878200
_cell_length_b   9.17796100
_cell_length_c   9.18988470
_cell_angle_alpha   119.95708534
_cell_angle_beta   90.00000000
_cell_angle_gamma   90.00000000
_symmetry_Int_Tables_number   1
_chemical_formula_structural   LaGa2Co3
_chemical_formula_sum   'La3 Ga6 Co9'
_cell_volume   281.98420908
_cell_formula_units_Z   3
loop_
 _symmetry_equiv_pos_site_id
 _symmetry_equiv_pos_as_xyz
  1  'x, y, z'
loop_
 _atom_site_type_symbol
 _atom_site_label
 _atom_site_symmetry_multiplicity
 _atom_site_fract_x
 _atom_site_fract_y
 _atom_site_fract_z
 _atom_site_occupancy
  La  La0  1  0.00000000  0.00000000  0.00000000  1
  La  La1  1  0.50000000  0.33303700  0.66607400  1
  La  La2  1  0.50000000  0.66696300  0.33392600  1
  Ga  Ga0  1  0.50000000  0.68666800  0.00000000  1
  Ga  Ga1  1  0.50000000  0.00052800  0.68545100  1
  Ga  Ga2  1  0.50000000  0.31507700  0.31454900  1
  Ga  Ga3  1  0.50000000  0.31333200  0.00000000  1
  Ga  Ga4  1  0.50000000  0.99947200  0.31454900  1
  Ga  Ga5  1  0.50000000  0.68492300  0.68545100  1
  Co  Co0  1  0.00000000  0.50000000  0.00000000  1
  Co  Co1  1  0.00000000  0.00000000  0.50000000  1
  Co  Co2  1  0.00000000  0.50000000  0.50000000  1
  Co  Co3  1  0.00000000  0.18138900  0.36277800  1
  Co  Co4  1  0.00000000  0.63670100  0.81858300  1
  Co  Co5  1  0.00000000  0.18188100  0.81858300  1
  Co  Co6  1  0.00000000  0.81861100  0.63722200  1
  Co  Co7  1  0.00000000  0.81811900  0.18141700  1
  Co  Co8  1  0.00000000  0.36329900  0.18141700  1
loop_
_geom_bond_atom_site_label_1
_geom_bond_atom_site_label_2
_geom_bond_distance
_geom_bond_site_symmetry_2
Ga0 Ga5 2.882705 1_554
Ga0 Ga4 2.882705 1_555
Ga0 La2 3.162934 1_555
Ga0 La1 3.162934 1_554
Ga0 La0 3.463016 1_565
Ga0 La0 3.463016 1_665
Ga1 Ga3 2.882705 1_556
Ga1 Ga5 2.896610 1_545
Ga1 La1 3.144462 1_555
Ga1 La2 3.151401 1_545
Ga1 La0 3.477432 1_556
Ga1 La0 3.477432 1_656
Ga2 Ga3 2.882705 1_555
Ga2 Ga4 2.896610 1_545
Ga2 La2 3.144462 1_555
Ga2 La1 3.151401 1_555
Ga2 La0 3.477432 1_555
Ga2 La0 3.477432 1_655
Ga3 La1 3.162934 1_554
Ga3 La2 3.162934 1_555
Ga3 La0 3.463016 1_555
Ga3 La0 3.463016 1_655
Ga4 La2 3.144462 1_555
Ga4 La1 3.151401 1_565
Ga4 La0 3.477432 1_565
Ga4 La0 3.477432 1_665
Ga5 La1 3.144462 1_555
Ga5 La2 3.151401 1_555
Ga5 La0 3.477432 1_566
Ga5 La0 3.477432 1_666
Co0 Co8 2.538245 1_555
Co0 Co4 2.538245 1_554
Co0 Co7 2.538253 1_555
Co0 Co5 2.538253 1_554
Co0 Ga0 2.580254 1_455
Co0 Ga0 2.580254 1_555
Co0 Ga3 2.580254 1_455
Co0 Ga3 2.580254 1_555
Co0 La2 3.285047 1_555
Co0 La2 3.285047 1_455
Co0 La1 3.285047 1_454
Co0 La1 3.285047 1_554
Co1 Co6 2.541340 1_545
Co1 Co3 2.541340 1_555
Co1 Co5 2.545053 1_555
Co1 Co7 2.545053 1_545
Co1 Ga1 2.572717 1_455
Co1 Ga1 2.572717 1_555
Co1 Ga4 2.572717 1_545
Co1 Ga4 2.572717 1_445
Co1 La1 3.276540 1_455
Co1 La1 3.276540 1_555
Co1 La2 3.276540 1_445
Co1 La2 3.276540 1_545
Co2 Co3 2.541340 1_555
Co2 Co6 2.541340 1_555
Co2 Co4 2.545053 1_555
Co2 Co8 2.545053 1_555
Co2 Ga5 2.572717 1_455
Co2 Ga5 2.572717 1_555
Co2 Ga2 2.572717 1_455
Co2 Ga2 2.572717 1_555
Co2 La1 3.276540 1_455
Co2 La1 3.276540 1_555
Co2 La2 3.276540 1_555
Co2 La2 3.276540 1_455
Co3 Ga2 2.442867 1_555
Co3 Ga2 2.442867 1_455
Co3 Ga4 2.442867 1_545
Co3 Ga4 2.442867 1_445
Co3 La0 2.888479 1_555
Co3 La1 3.090984 1_455
Co3 La1 3.090984 1_555
Co4 Ga0 2.439025 1_456
Co4 Ga0 2.439025 1_556
Co4 Ga5 2.440508 1_455
Co4 Ga5 2.440508 1_555
Co4 La0 2.888875 1_566
Co4 La1 3.090838 1_455
Co4 La1 3.090838 1_555
Co5 Ga3 2.439026 1_556
Co5 Ga3 2.439026 1_456
Co5 Ga1 2.440504 1_455
Co5 Ga1 2.440504 1_555
Co5 La0 2.888867 1_556
Co5 La1 3.090844 1_455
Co5 La1 3.090844 1_555
Co6 Ga5 2.442867 1_555
Co6 Ga5 2.442867 1_455
Co6 Ga1 2.442867 1_565
Co6 Ga1 2.442867 1_465
Co6 La0 2.888479 1_566
Co6 La2 3.090984 1_455
Co6 La2 3.090984 1_555
Co7 Ga0 2.439026 1_455
Co7 Ga0 2.439026 1_555
Co7 Ga4 2.440504 1_455
Co7 Ga4 2.440504 1_555
Co7 La0 2.888867 1_565
Co7 La2 3.090844 1_455
Co7 La2 3.090844 1_555
Co8 Ga3 2.439025 1_455
Co8 Ga3 2.439025 1_555
Co8 Ga2 2.440508 1_455
Co8 Ga2 2.440508 1_555
Co8 La0 2.888875 1_555
Co8 La2 3.090838 1_455
Co8 La2 3.090838 1_555
