# generated using pymatgen
data_Mg14BiC
_symmetry_space_group_name_H-M   'P 1'
_cell_length_a   6.32267066
_cell_length_b   6.32267016
_cell_length_c   10.06833570
_cell_angle_alpha   90.00000000
_cell_angle_beta   90.00000000
_cell_angle_gamma   120.00000263
_symmetry_Int_Tables_number   1
_chemical_formula_structural   Mg14BiC
_chemical_formula_sum   'Mg14 Bi1 C1'
_cell_volume   348.56950855
_cell_formula_units_Z   1
loop_
 _symmetry_equiv_pos_site_id
 _symmetry_equiv_pos_as_xyz
  1  'x, y, z'
loop_
 _atom_site_type_symbol
 _atom_site_label
 _atom_site_symmetry_multiplicity
 _atom_site_fract_x
 _atom_site_fract_y
 _atom_site_fract_z
 _atom_site_occupancy
  Mg  Mg0  1  0.15469740  0.82734820  0.12500000  1
  Mg  Mg1  1  0.17045689  0.83522794  0.62500000  1
  Mg  Mg2  1  0.67265180  0.34530260  0.12500000  1
  Mg  Mg3  1  0.66477206  0.32954311  0.62500000  1
  Mg  Mg4  1  0.67265180  0.82734820  0.12500000  1
  Mg  Mg5  1  0.66477206  0.83522794  0.62500000  1
  Mg  Mg6  1  0.32889482  0.17110518  0.35047645  1
  Mg  Mg7  1  0.32889482  0.17110518  0.89952355  1
  Mg  Mg8  1  0.32889482  0.65779064  0.35047645  1
  Mg  Mg9  1  0.32889482  0.65779064  0.89952355  1
  Mg  Mg10  1  0.84220936  0.17110518  0.35047645  1
  Mg  Mg11  1  0.84220936  0.17110518  0.89952355  1
  Mg  Mg12  1  0.83333300  0.66666700  0.37554964  1
  Mg  Mg13  1  0.83333300  0.66666700  0.87445036  1
  Bi  Bi0  1  0.16666700  0.33333300  0.62500000  1
  C  C0  1  0.16666700  0.33333300  0.12500000  1
loop_
_geom_bond_atom_site_label_1
_geom_bond_atom_site_label_2
_geom_bond_distance
_geom_bond_site_symmetry_2
Mg0 Mg9 2.949036 1_554
Mg0 Mg8 2.949036 1_555
Mg0 Mg7 2.949042 1_564
Mg0 Mg6 2.949042 1_565
Mg0 Mg2 3.047815 1_455
Mg0 Mg4 3.047816 1_455
Mg0 Mg12 3.075712 1_455
Mg0 Mg13 3.075712 1_454
Mg0 Mg2 3.274855 1_565
Mg0 Mg4 3.274855 1_555
Mg1 Mg12 3.116958 1_455
Mg1 Mg13 3.116958 1_455
Mg2 Mg7 2.949043 1_554
Mg2 Mg6 2.949043 1_555
Mg2 Mg4 3.047815 1_555
Mg2 Mg4 3.274855 1_545
Mg4 Mg9 2.949043 1_554
Mg4 Mg8 2.949043 1_555
Mg10 Mg2 2.949036 1_555
Mg10 Mg4 2.949042 1_545
Mg10 Mg12 3.171771 1_545
Mg10 Mg12 3.171771 1_555
Mg11 Mg2 2.949036 1_556
Mg11 Mg4 2.949042 1_546
Mg11 Mg13 3.171771 1_545
Mg11 Mg13 3.171771 1_555
Mg12 Mg4 3.075706 1_555
Mg12 Mg2 3.075712 1_555
Mg12 Mg5 3.116951 1_555
Mg12 Mg3 3.116958 1_555
Mg12 Mg6 3.171771 1_665
Mg12 Mg6 3.171771 1_555
Mg12 Mg8 3.171771 1_655
Mg12 Mg8 3.171771 1_555
Mg13 Mg4 3.075706 1_556
Mg13 Mg2 3.075712 1_556
Mg13 Mg5 3.116951 1_555
Mg13 Mg3 3.116958 1_555
Mg13 Mg7 3.171771 1_665
Mg13 Mg7 3.171771 1_555
Mg13 Mg9 3.171771 1_555
Mg13 Mg9 3.171771 1_655
Bi0 Mg1 3.161403 1_555
Bi0 Mg5 3.161403 1_555
Bi0 Mg5 3.161403 1_445
Bi0 Mg1 3.161403 1_545
Bi0 Mg3 3.161403 1_455
Bi0 Mg3 3.161403 1_555
Bi0 Mg6 3.285716 1_555
Bi0 Mg7 3.285716 1_555
Bi0 Mg8 3.285722 1_555
Bi0 Mg9 3.285722 1_555
Bi0 Mg10 3.285722 1_455
Bi0 Mg11 3.285722 1_455
C0 Mg7 2.882698 1_554
C0 Mg6 2.882698 1_555
C0 Mg9 2.882704 1_554
C0 Mg8 2.882704 1_555
C0 Mg11 2.882704 1_454
C0 Mg10 2.882704 1_455
