# generated using pymatgen
data_CsY(MoO4)2
_symmetry_space_group_name_H-M   'P 1'
_cell_length_a   5.12047800
_cell_length_b   8.23016800
_cell_length_c   9.64931400
_cell_angle_alpha   90.00000000
_cell_angle_beta   90.00000000
_cell_angle_gamma   90.00000000
_symmetry_Int_Tables_number   1
_chemical_formula_structural   CsY(MoO4)2
_chemical_formula_sum   'Cs2 Y2 Mo4 O16'
_cell_volume   406.64519416
_cell_formula_units_Z   2
loop_
 _symmetry_equiv_pos_site_id
 _symmetry_equiv_pos_as_xyz
  1  'x, y, z'
loop_
 _atom_site_type_symbol
 _atom_site_label
 _atom_site_symmetry_multiplicity
 _atom_site_fract_x
 _atom_site_fract_y
 _atom_site_fract_z
 _atom_site_occupancy
  Cs  Cs0  1  0.00000000  0.25000000  0.50000000  1
  Cs  Cs1  1  0.00000000  0.75000000  0.50000000  1
  Y  Y0  1  0.00000000  0.25000000  0.00000000  1
  Y  Y1  1  0.00000000  0.75000000  0.00000000  1
  Mo  Mo0  1  0.52368300  0.00000000  0.19242200  1
  Mo  Mo1  1  0.47631700  0.00000000  0.80757800  1
  Mo  Mo2  1  0.47631700  0.50000000  0.19242200  1
  Mo  Mo3  1  0.52368300  0.50000000  0.80757800  1
  O  O0  1  0.26091900  0.32530000  0.18468800  1
  O  O1  1  0.73908100  0.67470000  0.81531200  1
  O  O2  1  0.73908100  0.32530000  0.81531200  1
  O  O3  1  0.73908100  0.17470000  0.18468800  1
  O  O4  1  0.26091900  0.67470000  0.18468800  1
  O  O5  1  0.26091900  0.82530000  0.81531200  1
  O  O6  1  0.26091900  0.17470000  0.81531200  1
  O  O7  1  0.73908100  0.82530000  0.18468800  1
  O  O8  1  0.24850600  0.00000000  0.06492100  1
  O  O9  1  0.75149400  0.00000000  0.93507900  1
  O  O10  1  0.75149400  0.50000000  0.06492100  1
  O  O11  1  0.24850600  0.50000000  0.93507900  1
  O  O12  1  0.38894000  0.00000000  0.35895800  1
  O  O13  1  0.61106000  0.00000000  0.64104200  1
  O  O14  1  0.61106000  0.50000000  0.35895800  1
  O  O15  1  0.38894000  0.50000000  0.64104200  1
loop_
_geom_bond_atom_site_label_1
_geom_bond_atom_site_label_2
_geom_bond_distance
_geom_bond_site_symmetry_2
Cs0 O13 3.170488 1_455
Cs0 O14 3.170488 1_455
Cs0 O12 3.170488 1_555
Cs0 O15 3.170488 1_555
Cs0 O0 3.380255 1_555
Cs0 O2 3.380255 1_455
Cs0 O3 3.380255 1_455
Cs0 O6 3.380255 1_555
Cs1 O13 3.170488 1_465
Cs1 O14 3.170488 1_455
Cs1 O12 3.170488 1_565
Cs1 O15 3.170488 1_555
Cs1 O1 3.380255 1_455
Cs1 O4 3.380255 1_555
Cs1 O5 3.380255 1_555
Cs1 O7 3.380255 1_455
Mo0 O12 1.748812 1_555
Mo0 O7 1.813655 1_545
Mo0 O3 1.813655 1_555
Mo0 O8 1.870566 1_555
Mo1 O13 1.748812 1_555
Mo1 O5 1.813655 1_545
Mo1 O6 1.813655 1_555
Mo1 O9 1.870566 1_555
Mo2 O14 1.748812 1_555
Mo2 O4 1.813655 1_555
Mo2 O0 1.813655 1_555
Mo2 O10 1.870566 1_555
Mo3 O15 1.748812 1_555
Mo3 O1 1.813655 1_555
Mo3 O2 1.813655 1_555
Mo3 O11 1.870566 1_555
O0 Y0 2.311919 1_555
O1 Y1 2.311919 1_656
O2 Y0 2.311919 1_656
O3 Y0 2.311919 1_655
O4 Y1 2.311919 1_555
O5 Y1 2.311919 1_556
O6 Y0 2.311919 1_556
O7 Y1 2.311919 1_655
O8 Y1 2.499018 1_545
O8 Y0 2.499018 1_555
O9 Y0 2.499018 1_656
O9 Y1 2.499018 1_646
O10 Y0 2.499018 1_655
O10 Y1 2.499018 1_655
O11 Y0 2.499018 1_556
O11 Y1 2.499018 1_556
