# generated using pymatgen
data_Sr2LiBeB3O8
_symmetry_space_group_name_H-M   'P 1'
_cell_length_a   6.49144193
_cell_length_b   8.60095976
_cell_length_c   12.87145669
_cell_angle_alpha   73.09982511
_cell_angle_beta   90.00000000
_cell_angle_gamma   90.00000000
_symmetry_Int_Tables_number   1
_chemical_formula_structural   Sr2LiBeB3O8
_chemical_formula_sum   'Sr8 Li4 Be4 B12 O32'
_cell_volume   687.61085116
_cell_formula_units_Z   4
loop_
 _symmetry_equiv_pos_site_id
 _symmetry_equiv_pos_as_xyz
  1  'x, y, z'
loop_
 _atom_site_type_symbol
 _atom_site_label
 _atom_site_symmetry_multiplicity
 _atom_site_fract_x
 _atom_site_fract_y
 _atom_site_fract_z
 _atom_site_occupancy
  Sr  Sr0  1  0.74455392  0.64057317  0.92756937  1
  Sr  Sr1  1  0.24455392  0.35942683  0.57243063  1
  Sr  Sr2  1  0.25544608  0.35942683  0.07243063  1
  Sr  Sr3  1  0.75544608  0.64057317  0.42756937  1
  Sr  Sr4  1  0.39281151  0.03503100  0.84224682  1
  Sr  Sr5  1  0.89281151  0.96496900  0.65775318  1
  Sr  Sr6  1  0.60718849  0.96496900  0.15775318  1
  Sr  Sr7  1  0.10718849  0.03503100  0.34224682  1
  Li  Li0  1  0.27126672  0.62539714  0.82873056  1
  Li  Li1  1  0.77126672  0.37460286  0.67126944  1
  Li  Li2  1  0.72873328  0.37460286  0.17126944  1
  Li  Li3  1  0.22873328  0.62539714  0.32873056  1
  Be  Be0  1  0.07176171  0.32214916  0.84522025  1
  Be  Be1  1  0.57176171  0.67785084  0.65477975  1
  Be  Be2  1  0.92823829  0.67785084  0.15477975  1
  Be  Be3  1  0.42823829  0.32214916  0.34522025  1
  B  B0  1  0.76780166  0.26164464  0.98597669  1
  B  B1  1  0.26780166  0.73835536  0.51402331  1
  B  B2  1  0.23219834  0.73835536  0.01402331  1
  B  B3  1  0.73219834  0.26164464  0.48597669  1
  B  B4  1  0.84891929  0.06129854  0.88129196  1
  B  B5  1  0.34891929  0.93870146  0.61870804  1
  B  B6  1  0.15108071  0.93870146  0.11870804  1
  B  B7  1  0.65108071  0.06129854  0.38129196  1
  B  B8  1  0.95258852  0.59718608  0.70580632  1
  B  B9  1  0.45258852  0.40281392  0.79419368  1
  B  B10  1  0.04741148  0.40281392  0.29419368  1
  B  B11  1  0.54741148  0.59718608  0.20580632  1
  O  O0  1  0.72865734  0.11625113  0.95714221  1
  O  O1  1  0.22865734  0.88374887  0.54285779  1
  O  O2  1  0.27134266  0.88374887  0.04285779  1
  O  O3  1  0.77134266  0.11625113  0.45714221  1
  O  O4  1  0.92812110  0.35964016  0.93951814  1
  O  O5  1  0.42812110  0.64035984  0.56048186  1
  O  O6  1  0.07187890  0.64035984  0.06048186  1
  O  O7  1  0.57187890  0.35964016  0.43951814  1
  O  O8  1  0.64166778  0.29211768  0.06076570  1
  O  O9  1  0.14166778  0.70788232  0.43923430  1
  O  O10  1  0.35833222  0.70788232  0.93923430  1
  O  O11  1  0.85833222  0.29211768  0.56076570  1
  O  O12  1  0.02752127  0.13734822  0.84224854  1
  O  O13  1  0.52752127  0.86265178  0.65775146  1
  O  O14  1  0.97247873  0.86265178  0.15775146  1
  O  O15  1  0.47247873  0.13734822  0.34224854  1
  O  O16  1  0.76465824  0.93996678  0.84890049  1
  O  O17  1  0.26465824  0.06003322  0.65109951  1
  O  O18  1  0.23534176  0.06003322  0.15109951  1
  O  O19  1  0.73534176  0.93996678  0.34890049  1
  O  O20  1  0.02572908  0.44047371  0.72312093  1
  O  O21  1  0.52572908  0.55952629  0.77687907  1
  O  O22  1  0.97427092  0.55952629  0.27687907  1
  O  O23  1  0.47427092  0.44047371  0.22312093  1
  O  O24  1  0.30900449  0.34827630  0.87751167  1
  O  O25  1  0.80900449  0.65172370  0.62248833  1
  O  O26  1  0.69099551  0.65172370  0.12248833  1
  O  O27  1  0.19099551  0.34827630  0.37751167  1
  O  O28  1  0.01087701  0.69205437  0.76876649  1
  O  O29  1  0.51087701  0.30794563  0.73123351  1
  O  O30  1  0.98912299  0.30794563  0.23123351  1
  O  O31  1  0.48912299  0.69205437  0.26876649  1
loop_
_geom_bond_atom_site_label_1
_geom_bond_atom_site_label_2
_geom_bond_distance
_geom_bond_site_symmetry_2
Li0 O10 1.852702 1_555
Li0 O28 1.877302 1_555
Li0 O21 1.927378 1_555
Li0 O24 2.294609 1_555
Li1 O11 1.852702 1_555
Li1 O29 1.877302 1_555
Li1 O20 1.927378 1_655
Li1 O25 2.294609 1_555
Li2 O8 1.852702 1_555
Li2 O30 1.877302 1_555
Li2 O23 1.927378 1_555
Li2 O26 2.294609 1_555
Li3 O9 1.852702 1_555
Li3 O31 1.877302 1_555
Li3 O22 1.927378 1_455
Li3 O27 2.294609 1_555
Be0 O12 1.626557 1_555
Be0 O24 1.627668 1_555
Be0 O20 1.632486 1_555
Be0 O4 1.635286 1_455
Be1 O13 1.626557 1_555
Be1 O25 1.627668 1_555
Be1 O21 1.632486 1_555
Be1 O5 1.635286 1_555
Be2 O14 1.626557 1_555
Be2 O26 1.627668 1_555
Be2 O22 1.632486 1_555
Be2 O6 1.635286 1_655
Be3 O15 1.626557 1_555
Be3 O27 1.627668 1_555
Be3 O23 1.632486 1_555
Be3 O7 1.635286 1_555
B0 O8 1.346287 1_556
B0 O4 1.363092 1_555
B0 O0 1.426874 1_555
B1 O9 1.346287 1_555
B1 O5 1.363092 1_555
B1 O1 1.426874 1_555
B2 O10 1.346287 1_554
B2 O6 1.363092 1_555
B2 O2 1.426874 1_555
B3 O11 1.346287 1_555
B3 O7 1.363092 1_555
B3 O3 1.426874 1_555
B4 O16 1.347224 1_545
B4 O12 1.354051 1_655
B4 O0 1.433283 1_555
B5 O17 1.347224 1_565
B5 O13 1.354051 1_555
B5 O1 1.433283 1_555
B6 O18 1.347224 1_565
B6 O14 1.354051 1_455
B6 O2 1.433283 1_555
B7 O19 1.347224 1_545
B7 O15 1.354051 1_555
B7 O3 1.433283 1_555
B8 O28 1.360199 1_655
B8 O20 1.384634 1_655
B8 O25 1.395133 1_555
B9 O29 1.360199 1_555
B9 O21 1.384634 1_555
B9 O24 1.395133 1_555
B10 O30 1.360199 1_455
B10 O22 1.384634 1_455
B10 O27 1.395133 1_555
B11 O31 1.360199 1_555
B11 O23 1.384634 1_555
B11 O26 1.395133 1_555
O0 Sr6 2.651204 1_546
O0 Sr4 2.833488 1_555
O1 Sr7 2.651204 1_565
O1 Sr5 2.833488 1_455
O2 Sr4 2.651204 1_564
O2 Sr6 2.833488 1_555
O3 Sr5 2.651204 1_545
O3 Sr7 2.833488 1_655
O4 Sr0 2.658197 1_555
O4 Sr2 2.727592 1_656
O5 Sr1 2.658197 1_555
O5 Sr3 2.727592 1_555
O6 Sr2 2.658197 1_555
O6 Sr0 2.727592 1_454
O7 Sr3 2.658197 1_555
O7 Sr1 2.727592 1_555
O8 Sr2 2.587269 1_555
O8 Sr6 2.735628 1_545
O8 Sr0 3.062716 1_554
O9 Sr3 2.587269 1_455
O9 Sr7 2.735628 1_565
O9 Sr1 3.062716 1_555
O10 Sr0 2.587269 1_555
O10 Sr4 2.735628 1_565
O10 Sr2 3.062716 1_556
O11 Sr1 2.587269 1_655
O11 Sr5 2.735628 1_545
O11 Sr3 3.062716 1_555
O12 Sr4 2.529295 1_555
O13 Sr5 2.529295 1_555
O14 Sr6 2.529295 1_555
O15 Sr7 2.529295 1_555
O16 Sr0 2.481399 1_555
O16 Sr4 2.541987 1_565
O16 Sr5 2.546366 1_555
O17 Sr1 2.481399 1_555
O17 Sr5 2.541987 1_445
O17 Sr4 2.546366 1_555
O18 Sr2 2.481399 1_555
O18 Sr6 2.541987 1_545
O18 Sr7 2.546366 1_555
O19 Sr3 2.481399 1_555
O19 Sr7 2.541987 1_665
O19 Sr6 2.546366 1_555
O20 Sr1 2.655537 1_555
O21 Sr0 2.655537 1_555
O22 Sr3 2.655537 1_555
O23 Sr2 2.655537 1_555
O24 Sr2 2.562129 1_556
O24 Sr4 2.910635 1_555
O25 Sr3 2.562129 1_555
O25 Sr5 2.910635 1_555
O26 Sr0 2.562129 1_554
O26 Sr6 2.910635 1_555
O27 Sr1 2.562129 1_555
O27 Sr7 2.910635 1_555
O28 Sr5 2.487769 1_455
O28 Sr0 2.614709 1_455
O29 Sr4 2.487769 1_555
O29 Sr1 2.614709 1_555
O30 Sr7 2.487769 1_655
O30 Sr2 2.614709 1_655
O31 Sr6 2.487769 1_555
O31 Sr3 2.614709 1_555
