# generated using pymatgen
data_Ba2LiReN4
_symmetry_space_group_name_H-M   'P 1'
_cell_length_a   6.06459700
_cell_length_b   6.59054900
_cell_length_c   7.59404160
_cell_angle_alpha   70.10946368
_cell_angle_beta   90.00000000
_cell_angle_gamma   90.00000000
_symmetry_Int_Tables_number   1
_chemical_formula_structural   Ba2LiReN4
_chemical_formula_sum   'Ba4 Li2 Re2 N8'
_cell_volume   285.41935776
_cell_formula_units_Z   2
loop_
 _symmetry_equiv_pos_site_id
 _symmetry_equiv_pos_as_xyz
  1  'x, y, z'
loop_
 _atom_site_type_symbol
 _atom_site_label
 _atom_site_symmetry_multiplicity
 _atom_site_fract_x
 _atom_site_fract_y
 _atom_site_fract_z
 _atom_site_occupancy
  Ba  Ba0  1  0.25000000  0.26590300  0.05216200  1
  Ba  Ba1  1  0.75000000  0.73409700  0.94783800  1
  Ba  Ba2  1  0.75000000  0.81084200  0.42036200  1
  Ba  Ba3  1  0.25000000  0.18915800  0.57963800  1
  Li  Li0  1  0.75000000  0.35130000  0.36950800  1
  Li  Li1  1  0.25000000  0.64870000  0.63049200  1
  Re  Re0  1  0.25000000  0.70835800  0.21440100  1
  Re  Re1  1  0.75000000  0.29164200  0.78559900  1
  N  N0  1  0.50732800  0.46809900  0.73397700  1
  N  N1  1  0.00732800  0.53190100  0.26602300  1
  N  N2  1  0.49267200  0.53190100  0.26602300  1
  N  N3  1  0.99267200  0.46809900  0.73397700  1
  N  N4  1  0.75000000  0.11820800  0.63489800  1
  N  N5  1  0.25000000  0.88179200  0.36510200  1
  N  N6  1  0.75000000  0.12532400  0.03303200  1
  N  N7  1  0.25000000  0.87467600  0.96696800  1
loop_
_geom_bond_atom_site_label_1
_geom_bond_atom_site_label_2
_geom_bond_distance
_geom_bond_site_symmetry_2
Ba0 N0 2.803351 1_554
Ba0 N3 2.803351 1_454
Ba0 N5 2.821797 1_545
Ba0 N7 2.863878 1_544
Ba0 N2 3.132747 1_555
Ba0 N1 3.132747 1_555
Ba0 N6 3.188403 1_455
Ba0 N6 3.188403 1_555
Ba1 N1 2.803351 1_656
Ba1 N2 2.803351 1_556
Ba1 N4 2.821797 1_565
Ba1 N6 2.863878 1_566
Ba1 N3 3.132747 1_555
Ba1 N0 3.132747 1_555
Ba1 N7 3.188403 1_555
Ba1 N7 3.188403 1_655
Ba2 N1 2.941926 1_655
Ba2 N2 2.941926 1_555
Ba2 N6 2.966357 1_565
Ba2 N4 3.000575 1_565
Ba2 N0 3.046278 1_555
Ba2 N3 3.046278 1_555
Ba2 N5 3.075072 1_655
Ba2 N5 3.075072 1_555
Ba3 N0 2.941926 1_555
Ba3 N3 2.941926 1_455
Ba3 N7 2.966357 1_545
Ba3 N5 3.000575 1_545
Ba3 N1 3.046278 1_555
Ba3 N2 3.046278 1_555
Ba3 N4 3.075072 1_555
Ba3 N4 3.075072 1_455
Li0 N1 1.957873 1_655
Li0 N2 1.957873 1_555
Li0 N4 2.077257 1_555
Li1 N0 1.957873 1_555
Li1 N3 1.957873 1_455
Li1 N5 2.077257 1_555
N0 Re1 1.833531 1_555
N1 Re0 1.833531 1_555
N2 Re0 1.833531 1_555
N3 Re1 1.833531 1_555
N4 Re1 1.872519 1_555
N5 Re0 1.872519 1_555
N6 Re1 1.825025 1_554
N7 Re0 1.825025 1_556
