# generated using pymatgen
data_K2CuP2O7
_symmetry_space_group_name_H-M   'P 1'
_cell_length_a   5.42374493
_cell_length_b   8.06002132
_cell_length_c   8.05267218
_cell_angle_alpha   89.99982398
_cell_angle_beta   89.99430131
_cell_angle_gamma   90.00000226
_symmetry_Int_Tables_number   1
_chemical_formula_structural   K2CuP2O7
_chemical_formula_sum   'K4 Cu2 P4 O14'
_cell_volume   352.02658682
_cell_formula_units_Z   2
loop_
 _symmetry_equiv_pos_site_id
 _symmetry_equiv_pos_as_xyz
  1  'x, y, z'
loop_
 _atom_site_type_symbol
 _atom_site_label
 _atom_site_symmetry_multiplicity
 _atom_site_fract_x
 _atom_site_fract_y
 _atom_site_fract_z
 _atom_site_occupancy
  K  K0  1  0.49195697  0.33388253  0.16611184  1
  K  K1  1  0.50805538  0.16610967  0.66612125  1
  K  K2  1  0.49194487  0.66610926  0.83387922  1
  K  K3  1  0.50804333  0.83388210  0.33388760  1
  Cu  Cu0  1  0.00224453  0.49999932  0.49997984  1
  Cu  Cu1  1  -0.00224005  -0.00000065  0.00002060  1
  P  P0  1  0.98154450  0.36647837  0.86639075  1
  P  P1  1  0.01847333  0.13352176  0.36634248  1
  P  P2  1  0.98152442  0.63352182  0.13365757  1
  P  P3  1  0.01845333  0.86647822  0.63360927  1
  O  O0  1  0.87872140  0.50002033  0.00001010  1
  O  O1  1  0.12127616  0.00002030  0.49998982  1
  O  O2  1  0.85957040  0.57746632  0.29518695  1
  O  O3  1  0.14035438  0.92251451  0.79513668  1
  O  O4  1  0.85964657  0.42251474  0.70486212  1
  O  O5  1  0.14043051  0.07746656  0.20481411  1
  O  O6  1  0.14066071  0.70512078  0.57747007  1
  O  O7  1  0.85932894  0.79489424  0.07757739  1
  O  O8  1  0.14067173  0.29489332  0.42242180  1
  O  O9  1  0.85933967  0.20512017  0.92253053  1
  O  O10  1  0.25598380  0.36638657  0.86641538  1
  O  O11  1  0.74403363  0.13360668  0.36638794  1
  O  O12  1  0.25596478  0.63360657  0.13361202  1
  O  O13  1  0.74401468  0.86638653  0.63358466  1
loop_
_geom_bond_atom_site_label_1
_geom_bond_atom_site_label_2
_geom_bond_distance
_geom_bond_site_symmetry_2
K0 O11 2.660146 1_555
K0 O10 2.744372 1_554
K0 O12 2.746427 1_555
K0 O0 2.825247 1_555
K0 O8 2.826319 1_555
K0 O5 2.829031 1_555
K0 O9 2.982305 1_554
K0 O2 2.985078 1_555
K1 O10 2.660066 1_555
K1 O11 2.744422 1_555
K1 O13 2.746343 1_545
K1 O1 2.825436 1_555
K1 O9 2.827197 1_555
K1 O4 2.829281 1_555
K1 O8 2.983250 1_555
K1 O3 2.985146 1_545
K2 O13 2.660059 1_555
K2 O12 2.744422 1_556
K2 O10 2.746342 1_555
K2 O0 2.825417 1_556
K2 O6 2.827195 1_555
K2 O3 2.829280 1_555
K2 O7 2.983253 1_556
K2 O4 2.985154 1_555
K3 O12 2.660153 1_555
K3 O13 2.744373 1_555
K3 O11 2.746428 1_565
K3 O1 2.825265 1_565
K3 O7 2.826322 1_555
K3 O2 2.829032 1_555
K3 O6 2.982303 1_555
K3 O5 2.985071 1_565
Cu0 O6 1.920007 1_555
Cu0 O8 1.920052 1_555
Cu0 O2 1.925758 1_455
Cu0 O4 1.926123 1_455
Cu1 O9 1.920008 1_454
Cu1 O7 1.920047 1_445
Cu1 O5 1.925759 1_555
Cu1 O3 1.926131 1_544
O0 P2 1.620832 1_555
O0 P0 1.620862 1_554
O1 P1 1.620826 1_555
O1 P3 1.620858 1_545
O2 P2 1.527548 1_555
O3 P3 1.527478 1_555
O4 P0 1.527477 1_555
O5 P1 1.527550 1_555
O6 P3 1.528090 1_555
O7 P2 1.528061 1_555
O8 P1 1.528062 1_555
O9 P0 1.528089 1_555
O10 P0 1.488489 1_455
O11 P1 1.488491 1_655
O12 P2 1.488495 1_455
O13 P3 1.488485 1_655
