# generated using pymatgen
data_Be3Ag4P3BrO12
_symmetry_space_group_name_H-M   'P 1'
_cell_length_a   8.63032000
_cell_length_b   8.63032000
_cell_length_c   8.63032000
_cell_angle_alpha   90.00000000
_cell_angle_beta   90.00000000
_cell_angle_gamma   90.00000000
_symmetry_Int_Tables_number   1
_chemical_formula_structural   Be3Ag4P3BrO12
_chemical_formula_sum   'Be6 Ag8 P6 Br2 O24'
_cell_volume   642.80714748
_cell_formula_units_Z   2
loop_
 _symmetry_equiv_pos_site_id
 _symmetry_equiv_pos_as_xyz
  1  'x, y, z'
loop_
 _atom_site_type_symbol
 _atom_site_label
 _atom_site_symmetry_multiplicity
 _atom_site_fract_x
 _atom_site_fract_y
 _atom_site_fract_z
 _atom_site_occupancy
  Be  Be0  1  0.25000000  0.00000000  0.50000000  1
  Be  Be1  1  0.75000000  0.00000000  0.50000000  1
  Be  Be2  1  0.50000000  0.25000000  0.00000000  1
  Be  Be3  1  0.50000000  0.75000000  0.00000000  1
  Be  Be4  1  0.00000000  0.50000000  0.25000000  1
  Be  Be5  1  0.00000000  0.50000000  0.75000000  1
  Ag  Ag0  1  0.17201400  0.17201400  0.17201400  1
  Ag  Ag1  1  0.82798600  0.82798600  0.17201400  1
  Ag  Ag2  1  0.82798600  0.17201400  0.82798600  1
  Ag  Ag3  1  0.67201400  0.67201400  0.67201400  1
  Ag  Ag4  1  0.17201400  0.82798600  0.82798600  1
  Ag  Ag5  1  0.32798600  0.32798600  0.67201400  1
  Ag  Ag6  1  0.67201400  0.32798600  0.32798600  1
  Ag  Ag7  1  0.32798600  0.67201400  0.32798600  1
  P  P0  1  0.25000000  0.50000000  0.00000000  1
  P  P1  1  0.75000000  0.50000000  0.00000000  1
  P  P2  1  0.00000000  0.25000000  0.50000000  1
  P  P3  1  0.00000000  0.75000000  0.50000000  1
  P  P4  1  0.50000000  0.00000000  0.25000000  1
  P  P5  1  0.50000000  0.00000000  0.75000000  1
  Br  Br0  1  0.00000000  0.00000000  0.00000000  1
  Br  Br1  1  0.50000000  0.50000000  0.50000000  1
  O  O0  1  0.14172400  0.14981100  0.45294000  1
  O  O1  1  0.85827600  0.85018900  0.45294000  1
  O  O2  1  0.85827600  0.14981100  0.54706000  1
  O  O3  1  0.45294000  0.14172400  0.14981100  1
  O  O4  1  0.64981100  0.64172400  0.95294000  1
  O  O5  1  0.14172400  0.85018900  0.54706000  1
  O  O6  1  0.45294000  0.85827600  0.85018900  1
  O  O7  1  0.35018900  0.35827600  0.95294000  1
  O  O8  1  0.54706000  0.85827600  0.14981100  1
  O  O9  1  0.64981100  0.35827600  0.04706000  1
  O  O10  1  0.54706000  0.14172400  0.85018900  1
  O  O11  1  0.35018900  0.64172400  0.04706000  1
  O  O12  1  0.14981100  0.45294000  0.14172400  1
  O  O13  1  0.64172400  0.95294000  0.64981100  1
  O  O14  1  0.14981100  0.54706000  0.85827600  1
  O  O15  1  0.35827600  0.04706000  0.64981100  1
  O  O16  1  0.85018900  0.54706000  0.14172400  1
  O  O17  1  0.64172400  0.04706000  0.35018900  1
  O  O18  1  0.85018900  0.45294000  0.85827600  1
  O  O19  1  0.35827600  0.95294000  0.35018900  1
  O  O20  1  0.95294000  0.64981100  0.64172400  1
  O  O21  1  0.95294000  0.35018900  0.35827600  1
  O  O22  1  0.04706000  0.35018900  0.64172400  1
  O  O23  1  0.04706000  0.64981100  0.35827600  1
loop_
_geom_bond_atom_site_label_1
_geom_bond_atom_site_label_2
_geom_bond_distance
_geom_bond_site_symmetry_2
Be0 O15 1.646146 1_555
Be0 O19 1.646146 1_545
Be0 O0 1.646146 1_555
Be0 O5 1.646146 1_545
Be1 O13 1.646146 1_545
Be1 O2 1.646146 1_555
Be1 O1 1.646146 1_545
Be1 O17 1.646146 1_555
Be2 O9 1.646146 1_555
Be2 O3 1.646146 1_555
Be2 O7 1.646146 1_554
Be2 O10 1.646146 1_554
Be3 O4 1.646146 1_554
Be3 O8 1.646146 1_555
Be3 O6 1.646146 1_554
Be3 O11 1.646146 1_555
Be4 O23 1.646146 1_555
Be4 O21 1.646146 1_455
Be4 O12 1.646146 1_555
Be4 O16 1.646146 1_455
Be5 O20 1.646146 1_455
Be5 O14 1.646146 1_555
Be5 O18 1.646146 1_455
Be5 O22 1.646146 1_555
Ag0 O3 2.446051 1_555
Ag0 O12 2.446051 1_555
Ag0 O0 2.446051 1_555
Ag0 Br0 2.571292 1_555
Ag1 O8 2.446051 1_555
Ag1 O1 2.446051 1_555
Ag1 O16 2.446051 1_555
Ag1 Br0 2.571292 1_665
Ag2 O2 2.446051 1_555
Ag2 O18 2.446051 1_555
Ag2 O10 2.446051 1_555
Ag2 Br0 2.571292 1_656
Ag3 O13 2.446051 1_555
Ag3 O20 2.446051 1_555
Ag3 O4 2.446051 1_555
Ag3 Br1 2.571292 1_555
Ag4 O14 2.446051 1_555
Ag4 O6 2.446051 1_555
Ag4 O5 2.446051 1_555
Ag4 Br0 2.571292 1_566
Ag5 O22 2.446051 1_555
Ag5 O15 2.446051 1_555
Ag5 O7 2.446051 1_555
Ag5 Br1 2.571292 1_555
Ag6 O17 2.446051 1_555
Ag6 O9 2.446051 1_555
Ag6 O21 2.446051 1_555
Ag6 Br1 2.571292 1_555
Ag7 O11 2.446051 1_555
Ag7 O23 2.446051 1_555
Ag7 O19 2.446051 1_555
Ag7 Br1 2.571292 1_555
O0 P2 1.551975 1_555
O1 P3 1.551975 1_655
O2 P2 1.551975 1_655
O3 P4 1.551975 1_555
O4 P1 1.551975 1_556
O5 P3 1.551975 1_555
O6 P5 1.551975 1_565
O7 P0 1.551975 1_556
O8 P4 1.551975 1_565
O9 P1 1.551975 1_555
O10 P5 1.551975 1_555
O11 P0 1.551975 1_555
O12 P0 1.551975 1_555
O13 P5 1.551975 1_565
O14 P0 1.551975 1_556
O15 P5 1.551975 1_555
O16 P1 1.551975 1_555
O17 P4 1.551975 1_555
O18 P1 1.551975 1_556
O19 P4 1.551975 1_565
O20 P3 1.551975 1_655
O21 P2 1.551975 1_655
O22 P2 1.551975 1_555
O23 P3 1.551975 1_555
