# generated using pymatgen
data_EuInGe
_symmetry_space_group_name_H-M   'P 1'
_cell_length_a   4.00878700
_cell_length_b   4.88827900
_cell_length_c   16.20858700
_cell_angle_alpha   90.00000000
_cell_angle_beta   90.00000000
_cell_angle_gamma   90.00000000
_symmetry_Int_Tables_number   1
_chemical_formula_structural   EuInGe
_chemical_formula_sum   'Eu4 In4 Ge4'
_cell_volume   317.62459423
_cell_formula_units_Z   4
loop_
 _symmetry_equiv_pos_site_id
 _symmetry_equiv_pos_as_xyz
  1  'x, y, z'
loop_
 _atom_site_type_symbol
 _atom_site_label
 _atom_site_symmetry_multiplicity
 _atom_site_fract_x
 _atom_site_fract_y
 _atom_site_fract_z
 _atom_site_occupancy
  Eu  Eu0  1  0.75426600  0.48046100  0.89257200  1
  Eu  Eu1  1  0.74573400  0.98046100  0.60742800  1
  Eu  Eu2  1  0.25426600  0.51953900  0.10742800  1
  Eu  Eu3  1  0.24573400  0.01953900  0.39257200  1
  In  In0  1  0.84963800  0.99912900  0.20956800  1
  In  In1  1  0.65036200  0.49912900  0.29043200  1
  In  In2  1  0.34963800  0.00087100  0.79043200  1
  In  In3  1  0.15036200  0.50087100  0.70956800  1
  Ge  Ge0  1  0.74955600  0.07162900  0.04334100  1
  Ge  Ge1  1  0.75044400  0.57162900  0.45665900  1
  Ge  Ge2  1  0.24955600  0.92837100  0.95665900  1
  Ge  Ge3  1  0.25044400  0.42837100  0.54334100  1
loop_
_geom_bond_atom_site_label_1
_geom_bond_atom_site_label_2
_geom_bond_distance
_geom_bond_site_symmetry_2
Eu0 Ge2 3.132927 1_655
Eu0 Ge0 3.156933 1_556
Eu0 Ge2 3.156994 1_555
Eu0 In2 3.296665 1_555
Eu0 In3 3.365981 1_655
Eu0 In2 3.441425 1_565
Eu0 Ge2 3.507797 1_645
Eu0 Ge2 3.529309 1_545
Eu0 In2 3.732737 1_655
Eu0 In3 3.830062 1_555
Eu0 In2 3.861183 1_665
Eu1 Ge3 3.132927 1_565
Eu1 Ge1 3.156933 1_555
Eu1 Ge3 3.156994 1_665
Eu1 In3 3.296665 1_655
Eu1 In2 3.365981 1_565
Eu1 In3 3.441425 1_665
Eu1 Ge3 3.507797 1_555
Eu1 Ge3 3.529309 1_655
Eu1 In3 3.732737 1_555
Eu1 In2 3.830062 1_665
Eu1 In3 3.861183 1_565
Eu2 Ge0 3.132927 1_555
Eu2 Ge2 3.156933 1_554
Eu2 Ge0 3.156994 1_455
Eu2 In0 3.296665 1_455
Eu2 In1 3.365981 1_555
Eu2 In0 3.441425 1_445
Eu2 Ge0 3.507797 1_565
Eu2 Ge0 3.529309 1_465
Eu2 In0 3.732737 1_555
Eu2 In1 3.830062 1_455
Eu2 In0 3.861183 1_545
Eu3 Ge1 3.132927 1_445
Eu3 Ge3 3.156933 1_555
Eu3 Ge1 3.156994 1_545
Eu3 In1 3.296665 1_555
Eu3 In0 3.365981 1_445
Eu3 In1 3.441425 1_545
Eu3 Ge1 3.507797 1_455
Eu3 Ge1 3.529309 1_555
Eu3 In1 3.732737 1_455
Eu3 In0 3.830062 1_545
Eu3 In1 3.861183 1_445
In0 In1 2.886156 1_555
In0 In1 2.886156 1_565
In2 In3 2.886156 1_555
In2 In3 2.886156 1_545
Ge0 Ge2 2.545977 1_544
Ge0 Ge2 2.545977 1_644
Ge0 In0 2.746970 1_545
Ge1 Ge3 2.545977 1_655
Ge1 Ge3 2.545977 1_555
Ge1 In1 2.746970 1_555
Ge2 In2 2.746970 1_565
Ge3 In3 2.746970 1_555
