# generated using pymatgen
data_K6Na2Fe7O38
_symmetry_space_group_name_H-M   'P 1'
_cell_length_a   9.39683444
_cell_length_b   9.39683444
_cell_length_c   9.39683440
_cell_angle_alpha   88.42155051
_cell_angle_beta   88.42155051
_cell_angle_gamma   88.42155290
_symmetry_Int_Tables_number   1
_chemical_formula_structural   K6Na2Fe7O38
_chemical_formula_sum   'K6 Na2 Fe7 O38'
_cell_volume   828.81760702
_cell_formula_units_Z   1
loop_
 _symmetry_equiv_pos_site_id
 _symmetry_equiv_pos_as_xyz
  1  'x, y, z'
loop_
 _atom_site_type_symbol
 _atom_site_label
 _atom_site_symmetry_multiplicity
 _atom_site_fract_x
 _atom_site_fract_y
 _atom_site_fract_z
 _atom_site_occupancy
  K  K0  1  0.35796300  0.35753600  0.86541900  1
  K  K1  1  0.35753600  0.86541900  0.35796300  1
  K  K2  1  0.64203700  0.13458100  0.64246400  1
  K  K3  1  0.86541900  0.35796300  0.35753600  1
  K  K4  1  0.64246400  0.64203700  0.13458100  1
  K  K5  1  0.13458100  0.64246400  0.64203700  1
  Na  Na0  1  0.24649300  0.24649300  0.24649300  1
  Na  Na1  1  0.75350700  0.75350700  0.75350700  1
  Fe  Fe0  1  0.23484000  0.76516000  0.00000000  1
  Fe  Fe1  1  0.76516000  0.00000000  0.23484000  1
  Fe  Fe2  1  0.00000000  0.23484000  0.76516000  1
  Fe  Fe3  1  0.00000000  0.00000000  0.00000000  1
  Fe  Fe4  1  0.75128400  0.24871600  0.00000000  1
  Fe  Fe5  1  0.24871600  0.00000000  0.75128400  1
  Fe  Fe6  1  0.00000000  0.75128400  0.24871600  1
  O  O0  1  0.10941000  0.46722300  0.10855400  1
  O  O1  1  0.46722300  0.10855400  0.10941000  1
  O  O2  1  0.89059000  0.89144600  0.53277700  1
  O  O3  1  0.10855400  0.10941000  0.46722300  1
  O  O4  1  0.53277700  0.89059000  0.89144600  1
  O  O5  1  0.89144600  0.53277700  0.89059000  1
  O  O6  1  0.43380200  0.41461000  0.24969100  1
  O  O7  1  0.41461000  0.24969100  0.43380200  1
  O  O8  1  0.56619800  0.75030900  0.58539000  1
  O  O9  1  0.24969100  0.43380200  0.41461000  1
  O  O10  1  0.58539000  0.56619800  0.75030900  1
  O  O11  1  0.75030900  0.58539000  0.56619800  1
  O  O12  1  0.39994400  0.39994400  0.39994400  1
  O  O13  1  0.60005600  0.60005600  0.60005600  1
  O  O14  1  0.90006500  0.39740300  0.90503600  1
  O  O15  1  0.39740300  0.90503600  0.90006500  1
  O  O16  1  0.09993500  0.09496400  0.60259700  1
  O  O17  1  0.90503600  0.90006500  0.39740300  1
  O  O18  1  0.60259700  0.09993500  0.09496400  1
  O  O19  1  0.09496400  0.60259700  0.09993500  1
  O  O20  1  0.36713100  0.12928200  0.70651500  1
  O  O21  1  0.12928200  0.70651500  0.36713100  1
  O  O22  1  0.63286900  0.29348500  0.87071800  1
  O  O23  1  0.70651500  0.36713100  0.12928200  1
  O  O24  1  0.87071800  0.63286900  0.29348500  1
  O  O25  1  0.29348500  0.87071800  0.63286900  1
  O  O26  1  0.13469400  0.13390500  0.88670900  1
  O  O27  1  0.13390500  0.88670900  0.13469400  1
  O  O28  1  0.86530600  0.11329100  0.86609500  1
  O  O29  1  0.88670900  0.13469400  0.13390500  1
  O  O30  1  0.86609500  0.86530600  0.11329100  1
  O  O31  1  0.11329100  0.86609500  0.86530600  1
  O  O32  1  0.11262400  0.36503200  0.69246700  1
  O  O33  1  0.36503200  0.69246700  0.11262400  1
  O  O34  1  0.88737600  0.30753300  0.63496800  1
  O  O35  1  0.69246700  0.11262400  0.36503200  1
  O  O36  1  0.63496800  0.88737600  0.30753300  1
  O  O37  1  0.30753300  0.63496800  0.88737600  1
loop_
_geom_bond_atom_site_label_1
_geom_bond_atom_site_label_2
_geom_bond_distance
_geom_bond_site_symmetry_2
K0 O22 2.637741 1_555
K0 O20 2.645122 1_555
K0 O37 2.649468 1_555
K0 O32 2.855226 1_555
K0 O26 3.009037 1_555
K0 O10 3.093287 1_555
K1 O25 2.637741 1_555
K1 O21 2.645122 1_555
K1 O36 2.649468 1_555
K1 O33 2.855226 1_555
K1 O27 3.009037 1_555
K1 O8 3.093287 1_555
K2 O20 2.637741 1_555
K2 O22 2.645122 1_555
K2 O35 2.649468 1_555
K2 O34 2.855226 1_555
K2 O28 3.009037 1_555
K2 O7 3.093287 1_555
K3 O24 2.637741 1_555
K3 O23 2.645122 1_555
K3 O34 2.649468 1_555
K3 O35 2.855226 1_555
K3 O29 3.009037 1_555
K3 O11 3.093287 1_555
K4 O23 2.637741 1_555
K4 O24 2.645122 1_555
K4 O33 2.649468 1_555
K4 O36 2.855226 1_555
K4 O30 3.009037 1_555
K4 O6 3.093287 1_555
K5 O21 2.637741 1_555
K5 O25 2.645122 1_555
K5 O32 2.649468 1_555
K5 O37 2.855226 1_555
K5 O31 3.009037 1_555
K5 O9 3.093287 1_555
Na0 O6 2.398599 1_555
Na0 O7 2.398599 1_555
Na0 O9 2.398599 1_555
Na0 O3 2.727317 1_555
Na0 O0 2.727317 1_555
Na0 O1 2.727317 1_555
Na1 O10 2.398599 1_555
Na1 O11 2.398599 1_555
Na1 O8 2.398599 1_555
Na1 O2 2.727317 1_555
Na1 O4 2.727317 1_555
Na1 O5 2.727317 1_555
Fe0 O37 1.751792 1_554
Fe0 O33 1.751792 1_555
Fe0 O31 1.939065 1_554
Fe0 O27 1.939065 1_555
Fe0 O19 2.215076 1_555
Fe0 O15 2.215076 1_554
Fe1 O36 1.751792 1_545
Fe1 O35 1.751792 1_555
Fe1 O29 1.939065 1_555
Fe1 O30 1.939065 1_545
Fe1 O17 2.215076 1_545
Fe1 O18 2.215076 1_555
Fe2 O32 1.751792 1_555
Fe2 O34 1.751792 1_455
Fe2 O28 1.939065 1_455
Fe2 O26 1.939065 1_555
Fe2 O16 2.215076 1_555
Fe2 O14 2.215076 1_455
Fe3 O26 2.063565 1_554
Fe3 O30 2.063565 1_445
Fe3 O31 2.063565 1_544
Fe3 O27 2.063565 1_545
Fe3 O29 2.063565 1_455
Fe3 O28 2.063565 1_454
Fe4 O22 1.706313 1_554
Fe4 O23 1.706313 1_555
Fe4 O29 2.071116 1_555
Fe4 O28 2.071116 1_554
Fe4 O18 2.161767 1_555
Fe4 O14 2.161767 1_554
Fe5 O20 1.706313 1_555
Fe5 O25 1.706313 1_545
Fe5 O31 2.071116 1_545
Fe5 O26 2.071116 1_555
Fe5 O15 2.161767 1_545
Fe5 O16 2.161767 1_555
Fe6 O24 1.706313 1_455
Fe6 O21 1.706313 1_555
Fe6 O27 2.071116 1_555
Fe6 O30 2.071116 1_455
Fe6 O19 2.161767 1_555
Fe6 O17 2.161767 1_455
O0 O19 1.276170 1_555
O1 O18 1.276170 1_555
O10 O13 1.442440 1_555
O11 O13 1.442440 1_555
O12 O6 1.442440 1_555
O12 O7 1.442440 1_555
O12 O9 1.442440 1_555
O13 O8 1.442440 1_555
O14 O5 1.276170 1_555
O15 O4 1.276170 1_555
O16 O3 1.276170 1_555
O17 O2 1.276170 1_555
