# generated using pymatgen
data_Li3Mn2CoO6
_symmetry_space_group_name_H-M   'P 1'
_cell_length_a   5.23924799
_cell_length_b   5.25225266
_cell_length_c   5.10120777
_cell_angle_alpha   59.02643615
_cell_angle_beta   101.16203305
_cell_angle_gamma   112.05130355
_symmetry_Int_Tables_number   1
_chemical_formula_structural   Li3Mn2CoO6
_chemical_formula_sum   'Li3 Mn2 Co1 O6'
_cell_volume   111.55319363
_cell_formula_units_Z   1
loop_
 _symmetry_equiv_pos_site_id
 _symmetry_equiv_pos_as_xyz
  1  'x, y, z'
loop_
 _atom_site_type_symbol
 _atom_site_label
 _atom_site_symmetry_multiplicity
 _atom_site_fract_x
 _atom_site_fract_y
 _atom_site_fract_z
 _atom_site_occupancy
  Li  Li0  1  0.49997200  0.49999100  0.99980300  1
  Li  Li1  1  0.50009100  0.83285000  0.33405600  1
  Li  Li2  1  0.50003700  0.16939300  0.66139200  1
  Mn  Mn0  1  0.99989100  0.33025000  0.33948800  1
  Mn  Mn1  1  0.00001800  0.66378200  0.67242200  1
  Co  Co0  1  0.00013000  0.00257700  0.99494600  1
  O  O0  1  0.22851900  0.72038200  0.00689700  1
  O  O1  1  0.21287900  0.08474600  0.34938500  1
  O  O2  1  0.24050100  0.41200700  0.64285000  1
  O  O3  1  0.77146100  0.27283900  0.00668700  1
  O  O4  1  0.78698900  0.56597800  0.34923800  1
  O  O5  1  0.75951100  0.94520500  0.64283600  1
loop_
_geom_bond_atom_site_label_1
_geom_bond_atom_site_label_2
_geom_bond_distance
_geom_bond_site_symmetry_2
Li0 O3 2.158614 1_556
Li0 O0 2.159421 1_556
Li0 O4 2.183023 1_556
Li0 O1 2.184330 1_556
Li0 O2 2.193914 1_555
Li0 O5 2.195739 1_555
Li1 O5 2.049946 1_555
Li1 O2 2.050659 1_555
Li1 O0 2.150092 1_555
Li1 O3 2.151891 1_565
Li1 O4 2.378091 1_555
Li1 O1 2.380707 1_565
Li2 O1 2.072046 1_555
Li2 O4 2.072707 1_555
Li2 O2 2.146833 1_555
Li2 O5 2.147102 1_545
Li2 O3 2.203442 1_556
Li2 O0 2.205703 1_546
Mn0 O2 1.921082 1_655
Mn0 O5 1.921345 1_545
Mn0 O3 1.968422 1_555
Mn0 O0 1.969154 1_655
Mn0 O4 1.975206 1_555
Mn0 O1 1.975363 1_655
Mn1 O0 1.974032 1_556
Mn1 O3 1.974378 1_456
Mn1 O4 1.989054 1_455
Mn1 O1 1.989388 1_565
Mn1 O2 2.211088 1_555
Mn1 O5 2.211478 1_455
Co0 O5 2.074010 1_445
Co0 O2 2.074394 1_555
Co0 O1 2.087934 1_556
Co0 O4 2.089181 1_446
Co0 O0 2.200632 1_546
Co0 O3 2.201384 1_456
