# generated using pymatgen
data_HoCoNi
_symmetry_space_group_name_H-M   'P 1'
_cell_length_a   5.06501434
_cell_length_b   5.06373321
_cell_length_c   5.06354898
_cell_angle_alpha   123.14725423
_cell_angle_beta   119.99489728
_cell_angle_gamma   87.29828136
_symmetry_Int_Tables_number   1
_chemical_formula_structural   HoCoNi
_chemical_formula_sum   'Ho2 Co2 Ni2'
_cell_volume   89.47259116
_cell_formula_units_Z   2
loop_
 _symmetry_equiv_pos_site_id
 _symmetry_equiv_pos_as_xyz
  1  'x, y, z'
loop_
 _atom_site_type_symbol
 _atom_site_label
 _atom_site_symmetry_multiplicity
 _atom_site_fract_x
 _atom_site_fract_y
 _atom_site_fract_z
 _atom_site_occupancy
  Ho  Ho0  1  0.37083967  0.12090171  0.24998979  1
  Ho  Ho1  1  0.62916033  0.87909829  0.75001021  1
  Co  Co0  1  0.00000000  0.00000000  0.50000000  1
  Co  Co1  1  0.00000000  0.50000000  0.00000000  1
  Ni  Ni0  1  0.00000000  0.50000000  0.50000000  1
  Ni  Ni1  1  0.50000000  0.50000000  0.00000000  1
loop_
_geom_bond_atom_site_label_1
_geom_bond_atom_site_label_2
_geom_bond_distance
_geom_bond_site_symmetry_2
Ho0 Ni0 2.862806 1_555
Ho0 Ni1 2.863090 1_545
Ho0 Ni1 2.863115 1_556
Ho0 Ni0 2.863997 1_544
Ho0 Ni1 3.052725 1_555
Ho0 Ni0 3.054230 1_655
Ho1 Ni0 2.862806 1_655
Ho1 Ni1 2.863090 1_566
Ho1 Ni1 2.863115 1_555
Ho1 Ni0 2.863997 1_666
Ho1 Ni1 3.052725 1_556
Ho1 Ni0 3.054230 1_555
Co0 Co1 2.410440 1_556
Co0 Co1 2.410440 1_545
Co0 Ni0 2.531867 1_555
Co0 Ni0 2.531867 1_545
Co0 Ni1 2.533287 1_556
Co0 Ni1 2.533287 1_445
Co0 Ho0 2.959490 1_556
Co0 Ho1 2.959490 1_444
Co0 Ho1 2.960166 1_545
Co0 Ho0 2.960166 1_455
Co0 Ho1 2.973024 1_445
Co0 Ho0 2.973024 1_555
Co1 Ni0 2.531774 1_554
Co1 Ni0 2.531774 1_555
Co1 Ni1 2.532507 1_555
Co1 Ni1 2.532507 1_455
Co1 Ho0 2.958993 1_555
Co1 Ho1 2.958993 1_454
Co1 Ho0 2.960846 1_454
Co1 Ho1 2.960846 1_555
Co1 Ho0 2.973676 1_565
Co1 Ho1 2.973676 1_444
Ni0 Ni1 2.532336 1_455
Ni0 Ni1 2.532336 1_556
