# generated using pymatgen
data_Mg2MnGa3
_symmetry_space_group_name_H-M   'P 1'
_cell_length_a   5.13513784
_cell_length_b   5.13513784
_cell_length_c   8.50340059
_cell_angle_alpha   90.00000000
_cell_angle_beta   90.00000000
_cell_angle_gamma   115.24170995
_symmetry_Int_Tables_number   1
_chemical_formula_structural   Mg2MnGa3
_chemical_formula_sum   'Mg4 Mn2 Ga6'
_cell_volume   202.82127767
_cell_formula_units_Z   2
loop_
 _symmetry_equiv_pos_site_id
 _symmetry_equiv_pos_as_xyz
  1  'x, y, z'
loop_
 _atom_site_type_symbol
 _atom_site_label
 _atom_site_symmetry_multiplicity
 _atom_site_fract_x
 _atom_site_fract_y
 _atom_site_fract_z
 _atom_site_occupancy
  Mg  Mg0  1  0.67404088  0.32595912  0.06600283  1
  Mg  Mg1  1  0.32595912  0.67404088  0.93399717  1
  Mg  Mg2  1  0.32595912  0.67404088  0.56600283  1
  Mg  Mg3  1  0.67404088  0.32595912  0.43399717  1
  Mn  Mn0  1  0.83506551  0.16493449  0.75000000  1
  Mn  Mn1  1  0.16493449  0.83506551  0.25000000  1
  Ga  Ga0  1  0.81996165  0.65249482  0.75000000  1
  Ga  Ga1  1  0.18003835  0.34750518  0.25000000  1
  Ga  Ga2  1  0.34750518  0.18003835  0.75000000  1
  Ga  Ga3  1  0.65249482  0.81996165  0.25000000  1
  Ga  Ga4  1  -0.00000000  -0.00000000  0.50000000  1
  Ga  Ga5  1  -0.00000000  -0.00000000  -0.00000000  1
loop_
_geom_bond_atom_site_label_1
_geom_bond_atom_site_label_2
_geom_bond_distance
_geom_bond_site_symmetry_2
Mg0 Mn0 3.028385 1_554
Mg0 Mg3 3.129203 1_555
Mg0 Mn1 3.164890 1_545
Mg0 Mn1 3.164890 1_655
Mg0 Mg1 3.221002 1_554
Mg0 Mg1 3.249391 1_654
Mg0 Mg1 3.249391 1_544
Mg1 Mn1 3.028385 1_556
Mg1 Mg2 3.129203 1_555
Mg1 Mn0 3.164890 1_565
Mg1 Mn0 3.164890 1_455
Mg2 Mn1 3.028385 1_555
Mg2 Mn0 3.164890 1_565
Mg2 Mn0 3.164890 1_455
Mg2 Mg3 3.221002 1_555
Mg2 Mg3 3.249391 1_455
Mg2 Mg3 3.249391 1_565
Mg3 Mn0 3.028385 1_555
Mg3 Mn1 3.164890 1_545
Mg3 Mn1 3.164890 1_655
Ga0 Mn0 2.537734 1_555
Ga0 Ga2 2.598479 1_555
Ga0 Mn0 2.599321 1_565
Ga0 Ga5 2.674192 1_666
Ga0 Ga4 2.674192 1_665
Ga0 Ga2 2.901454 1_665
Ga0 Mg2 2.994418 1_655
Ga0 Mg1 2.994418 1_655
Ga0 Mg1 3.022384 1_555
Ga0 Mg2 3.022384 1_555
Ga0 Mg0 3.085782 1_556
Ga0 Mg3 3.085782 1_555
Ga1 Mn1 2.537734 1_555
Ga1 Ga3 2.598479 1_555
Ga1 Mn1 2.599321 1_545
Ga1 Ga4 2.674192 1_555
Ga1 Ga5 2.674192 1_555
Ga1 Ga3 2.901454 1_445
Ga1 Mg3 2.994418 1_455
Ga1 Mg0 2.994418 1_455
Ga1 Mg3 3.022384 1_555
Ga1 Mg0 3.022384 1_555
Ga1 Mg2 3.085782 1_555
Ga1 Mg1 3.085782 1_554
Ga2 Mn0 2.537734 1_555
Ga2 Mn0 2.599321 1_455
Ga2 Ga4 2.674192 1_555
Ga2 Ga5 2.674192 1_556
Ga2 Mg1 2.994418 1_545
Ga2 Mg2 2.994418 1_545
Ga2 Mg1 3.022384 1_555
Ga2 Mg2 3.022384 1_555
Ga2 Mg0 3.085782 1_556
Ga2 Mg3 3.085782 1_555
Ga3 Mn1 2.537734 1_555
Ga3 Mn1 2.599321 1_655
Ga3 Ga4 2.674192 1_665
Ga3 Ga5 2.674192 1_665
Ga3 Mg3 2.994418 1_565
Ga3 Mg0 2.994418 1_565
Ga3 Mg3 3.022384 1_555
Ga3 Mg0 3.022384 1_555
Ga3 Mg2 3.085782 1_555
Ga3 Mg1 3.085782 1_554
Ga4 Mn1 2.562368 1_545
Ga4 Mn0 2.562368 1_455
Ga4 Mg3 2.882371 1_455
Ga4 Mg2 2.882371 1_545
Ga4 Mg2 3.186852 1_555
Ga4 Mg2 3.186852 1_445
Ga4 Mg3 3.186852 1_445
Ga4 Mg3 3.186852 1_555
Ga5 Mn1 2.562368 1_545
Ga5 Mn0 2.562368 1_454
Ga5 Mg1 2.882371 1_544
Ga5 Mg0 2.882371 1_455
Ga5 Mg0 3.186852 1_445
Ga5 Mg0 3.186852 1_555
Ga5 Mg1 3.186852 1_554
Ga5 Mg1 3.186852 1_444
