# generated using pymatgen
data_CsLiBeF4
_symmetry_space_group_name_H-M   'P 1'
_cell_length_a   8.97822800
_cell_length_b   5.44790900
_cell_length_c   10.82251342
_cell_angle_alpha   60.26643091
_cell_angle_beta   90.00000000
_cell_angle_gamma   90.00000000
_symmetry_Int_Tables_number   1
_chemical_formula_structural   CsLiBeF4
_chemical_formula_sum   'Cs4 Li4 Be4 F16'
_cell_volume   459.66237373
_cell_formula_units_Z   4
loop_
 _symmetry_equiv_pos_site_id
 _symmetry_equiv_pos_as_xyz
  1  'x, y, z'
loop_
 _atom_site_type_symbol
 _atom_site_label
 _atom_site_symmetry_multiplicity
 _atom_site_fract_x
 _atom_site_fract_y
 _atom_site_fract_z
 _atom_site_occupancy
  Cs  Cs0  1  0.49822700  0.02529400  0.22595500  1
  Cs  Cs1  1  0.99822700  0.97470600  0.27404500  1
  Cs  Cs2  1  0.50177300  0.97470600  0.77404500  1
  Cs  Cs3  1  0.00177300  0.02529400  0.72595500  1
  Li  Li0  1  0.18499100  0.66195500  0.08124100  1
  Li  Li1  1  0.68499100  0.33804500  0.41875900  1
  Li  Li2  1  0.81500900  0.33804500  0.91875900  1
  Li  Li3  1  0.31500900  0.66195500  0.58124100  1
  Be  Be0  1  0.19880300  0.32792900  0.91492000  1
  Be  Be1  1  0.69880300  0.67207100  0.58508000  1
  Be  Be2  1  0.80119700  0.67207100  0.08508000  1
  Be  Be3  1  0.30119700  0.32792900  0.41492000  1
  F  F0  1  0.25492900  0.38874800  0.76513300  1
  F  F1  1  0.75492900  0.61125200  0.73486700  1
  F  F2  1  0.74507100  0.61125200  0.23486700  1
  F  F3  1  0.24507100  0.38874800  0.26513300  1
  F  F4  1  0.02456300  0.33634700  0.91343600  1
  F  F5  1  0.52456300  0.66365300  0.58656400  1
  F  F6  1  0.97543700  0.66365300  0.08656400  1
  F  F7  1  0.47543700  0.33634700  0.41343600  1
  F  F8  1  0.25507700  0.02691900  0.03104800  1
  F  F9  1  0.75507700  0.97308100  0.46895200  1
  F  F10  1  0.74492300  0.97308100  0.96895200  1
  F  F11  1  0.24492300  0.02691900  0.53104800  1
  F  F12  1  0.25990300  0.55738300  0.94973500  1
  F  F13  1  0.75990300  0.44261700  0.55026500  1
  F  F14  1  0.74009700  0.44261700  0.05026500  1
  F  F15  1  0.24009700  0.55738300  0.44973500  1
loop_
_geom_bond_atom_site_label_1
_geom_bond_atom_site_label_2
_geom_bond_distance
_geom_bond_site_symmetry_2
Cs0 F8 3.032621 1_555
Cs0 F14 3.035121 1_555
Cs0 F2 3.129401 1_545
Cs0 F3 3.177933 1_555
Cs0 F7 3.231256 1_555
Cs0 F7 3.269872 1_545
Cs0 F5 3.397286 1_545
Cs0 F9 3.401887 1_545
Cs0 F15 3.407445 1_545
Cs1 F9 3.032621 1_555
Cs1 F15 3.035121 1_655
Cs1 F3 3.129401 1_665
Cs1 F2 3.177933 1_555
Cs1 F6 3.231256 1_555
Cs1 F6 3.269872 1_565
Cs1 F4 3.397286 1_664
Cs1 F8 3.401887 1_665
Cs1 F14 3.407445 1_565
Cs2 F10 3.032621 1_555
Cs2 F12 3.035121 1_555
Cs2 F0 3.129401 1_565
Cs2 F1 3.177933 1_555
Cs2 F5 3.231256 1_555
Cs2 F5 3.269872 1_565
Cs2 F7 3.397286 1_565
Cs2 F11 3.401887 1_565
Cs2 F13 3.407445 1_565
Cs3 F11 3.032621 1_555
Cs3 F13 3.035121 1_455
Cs3 F1 3.129401 1_445
Cs3 F0 3.177933 1_555
Cs3 F4 3.231256 1_555
Cs3 F4 3.269872 1_545
Cs3 F6 3.397286 1_446
Cs3 F10 3.401887 1_445
Cs3 F12 3.407445 1_545
Be0 F4 1.564888 1_555
Be0 F0 1.568055 1_555
Be0 F12 1.572485 1_555
Be0 F8 1.574684 1_556
Be1 F5 1.564888 1_555
Be1 F1 1.568055 1_555
Be1 F13 1.572485 1_555
Be1 F9 1.574684 1_555
Be2 F6 1.564888 1_555
Be2 F2 1.568055 1_555
Be2 F14 1.572485 1_555
Be2 F10 1.574684 1_554
Be3 F7 1.564888 1_555
Be3 F3 1.568055 1_555
Be3 F15 1.572485 1_555
Be3 F11 1.574684 1_555
F0 Li3 1.878514 1_555
F1 Li2 1.878514 1_555
F2 Li1 1.878514 1_555
F3 Li0 1.878514 1_555
F4 Li2 1.882468 1_455
F5 Li3 1.882468 1_555
F6 Li0 1.882468 1_655
F7 Li1 1.882468 1_555
F8 Li0 1.890232 1_545
F9 Li1 1.890232 1_565
F10 Li2 1.890232 1_565
F11 Li3 1.890232 1_545
F12 Li0 1.899147 1_556
F13 Li1 1.899147 1_555
F14 Li2 1.899147 1_554
F15 Li3 1.899147 1_555
