# generated using pymatgen
data_Mg2Cu3Ge
_symmetry_space_group_name_H-M   'P 1'
_cell_length_a   5.07122883
_cell_length_b   5.07122883
_cell_length_c   8.11089100
_cell_angle_alpha   90.00000000
_cell_angle_beta   90.00000000
_cell_angle_gamma   119.01128114
_symmetry_Int_Tables_number   1
_chemical_formula_structural   Mg2Cu3Ge
_chemical_formula_sum   'Mg4 Cu6 Ge2'
_cell_volume   182.41763832
_cell_formula_units_Z   2
loop_
 _symmetry_equiv_pos_site_id
 _symmetry_equiv_pos_as_xyz
  1  'x, y, z'
loop_
 _atom_site_type_symbol
 _atom_site_label
 _atom_site_symmetry_multiplicity
 _atom_site_fract_x
 _atom_site_fract_y
 _atom_site_fract_z
 _atom_site_occupancy
  Mg  Mg0  1  0.33304000  0.66696000  0.29412600  1
  Mg  Mg1  1  0.67057200  0.32942800  0.17587800  1
  Mg  Mg2  1  0.67057200  0.32942800  0.82412200  1
  Mg  Mg3  1  0.33304000  0.66696000  0.70587400  1
  Cu  Cu0  1  0.82571700  0.17428300  0.50000000  1
  Cu  Cu1  1  0.66439600  0.82888700  0.00000000  1
  Cu  Cu2  1  0.17111300  0.33560400  0.00000000  1
  Cu  Cu3  1  0.17019700  0.82980300  0.00000000  1
  Cu  Cu4  1  0.99930500  0.00069500  0.24811500  1
  Cu  Cu5  1  0.99930500  0.00069500  0.75188500  1
  Ge  Ge0  1  0.33345300  0.17061800  0.50000000  1
  Ge  Ge1  1  0.82938200  0.66654700  0.50000000  1
loop_
_geom_bond_atom_site_label_1
_geom_bond_atom_site_label_2
_geom_bond_distance
_geom_bond_site_symmetry_2
Mg0 Mg1 3.091670 1_565
Mg0 Mg1 3.091670 1_455
Mg0 Mg1 3.101876 1_555
Mg1 Mg2 2.853055 1_554
Mg2 Mg3 3.091670 1_655
Mg2 Mg3 3.091670 1_545
Mg2 Mg3 3.101876 1_555
Cu0 Ge0 2.487423 1_555
Cu0 Ge1 2.487423 1_555
Cu0 Cu5 2.544686 1_555
Cu0 Cu4 2.544686 1_555
Cu0 Ge1 2.583910 1_545
Cu0 Ge0 2.583910 1_655
Cu0 Mg2 2.957984 1_555
Cu0 Mg1 2.957984 1_555
Cu0 Mg3 3.068363 1_545
Cu0 Mg0 3.068363 1_545
Cu0 Mg0 3.068363 1_655
Cu0 Mg3 3.068363 1_655
Cu1 Cu4 2.501649 1_565
Cu1 Cu5 2.501649 1_564
Cu1 Cu3 2.508452 1_555
Cu1 Cu2 2.538842 1_555
Cu1 Cu3 2.562783 1_655
Cu1 Cu2 2.607984 1_665
Cu1 Mg3 2.801923 1_554
Cu1 Mg0 2.801923 1_555
Cu1 Mg1 2.898639 1_565
Cu1 Mg2 2.898639 1_564
Cu1 Mg1 2.920333 1_555
Cu1 Mg2 2.920333 1_554
Cu2 Cu4 2.501649 1_455
Cu2 Cu5 2.501649 1_454
Cu2 Cu3 2.508452 1_555
Cu2 Cu3 2.562783 1_545
Cu2 Mg0 2.801923 1_555
Cu2 Mg3 2.801923 1_554
Cu2 Mg1 2.898639 1_455
Cu2 Mg2 2.898639 1_454
Cu2 Mg1 2.920333 1_555
Cu2 Mg2 2.920333 1_554
Cu3 Cu4 2.506090 1_465
Cu3 Cu5 2.506090 1_464
Cu3 Mg3 2.777881 1_554
Cu3 Mg0 2.777881 1_555
Cu3 Mg1 2.942354 1_455
Cu3 Mg1 2.942354 1_565
Cu3 Mg2 2.942354 1_454
Cu3 Mg2 2.942354 1_564
Cu4 Ge0 2.524196 1_655
Cu4 Ge1 2.524196 1_545
Cu4 Mg1 2.932112 1_555
Cu4 Mg0 2.940470 1_645
Cu4 Mg0 2.978786 1_655
Cu4 Mg0 2.978786 1_545
Cu4 Mg1 3.034162 1_545
Cu4 Mg1 3.034162 1_655
Cu5 Ge1 2.524196 1_545
Cu5 Ge0 2.524196 1_655
Cu5 Mg2 2.932112 1_555
Cu5 Mg3 2.940470 1_645
Cu5 Mg3 2.978786 1_655
Cu5 Mg3 2.978786 1_545
Cu5 Mg2 3.034162 1_545
Cu5 Mg2 3.034162 1_655
Ge0 Ge1 2.552460 1_555
Ge0 Ge1 2.594366 1_445
Ge0 Mg0 3.021429 1_555
Ge0 Mg3 3.021429 1_555
Ge0 Mg2 3.024414 1_555
Ge0 Mg1 3.024414 1_555
Ge0 Mg3 3.050718 1_545
Ge0 Mg0 3.050718 1_545
Ge1 Mg0 3.021429 1_555
Ge1 Mg3 3.021429 1_555
Ge1 Mg2 3.024414 1_555
Ge1 Mg1 3.024414 1_555
Ge1 Mg3 3.050718 1_655
Ge1 Mg0 3.050718 1_655
