# generated using pymatgen
data_Ba2LiTbIrO6
_symmetry_space_group_name_H-M   'P 1'
_cell_length_a   5.89701890
_cell_length_b   5.89206996
_cell_length_c   6.35015851
_cell_angle_alpha   62.35894410
_cell_angle_beta   62.39119338
_cell_angle_gamma   60.02775651
_symmetry_Int_Tables_number   1
_chemical_formula_structural   Ba2LiTbIrO6
_chemical_formula_sum   'Ba2 Li1 Tb1 Ir1 O6'
_cell_volume   161.42044064
_cell_formula_units_Z   1
loop_
 _symmetry_equiv_pos_site_id
 _symmetry_equiv_pos_as_xyz
  1  'x, y, z'
loop_
 _atom_site_type_symbol
 _atom_site_label
 _atom_site_symmetry_multiplicity
 _atom_site_fract_x
 _atom_site_fract_y
 _atom_site_fract_z
 _atom_site_occupancy
  Ba  Ba0  1  0.20887000  0.20896000  0.37320900  1
  Ba  Ba1  1  0.74051100  0.73865500  0.78217900  1
  Li  Li0  1  0.37054700  0.36729900  0.89485500  1
  Tb  Tb0  1  0.52118700  0.52059600  0.43762100  1
  Ir  Ir0  1  0.00479500  0.00402600  0.98715300  1
  O  O0  1  0.24820300  0.75285000  0.75234500  1
  O  O1  1  0.24540900  0.77098600  0.21261800  1
  O  O2  1  0.75562800  0.24693100  0.75051000  1
  O  O3  1  0.24820300  0.24660300  0.75234500  1
  O  O4  1  0.77103100  0.24657200  0.21087300  1
  O  O5  1  0.77103100  0.77152400  0.21087300  1
loop_
_geom_bond_atom_site_label_1
_geom_bond_atom_site_label_2
_geom_bond_distance
_geom_bond_site_symmetry_2
Ba0 Li0 2.565438 1_554
Ba0 O2 2.626538 1_455
Ba0 O0 2.638907 1_545
Ba0 O3 2.638913 1_555
Ba0 O1 3.070549 1_545
Ba0 O1 3.070549 1_555
Ba0 O5 3.075079 1_545
Ba0 O4 3.075082 1_555
Ba0 O4 3.075956 1_455
Ba0 O5 3.075959 1_455
Ba1 O5 2.908402 1_556
Ba1 O4 2.908402 1_556
Ba1 O1 2.926163 1_556
Ba1 O2 2.951020 1_555
Ba1 O2 2.951020 1_565
Ba1 O3 2.952271 1_655
Ba1 O0 2.952274 1_655
Ba1 O0 2.953579 1_555
Ba1 O3 2.953582 1_565
Li0 O3 1.886829 1_555
Li0 O0 1.886833 1_555
Li0 O2 1.888019 1_555
Ir0 O1 2.015126 1_546
Ir0 O4 2.015228 1_456
Ir0 O5 2.015228 1_446
Ir0 O0 2.101221 1_545
Ir0 O3 2.101225 1_555
Ir0 O2 2.101260 1_455
O0 Tb0 2.410995 1_555
O1 Tb0 2.159478 1_555
O2 Tb0 2.409368 1_555
O3 Tb0 2.410991 1_555
O4 Tb0 2.159820 1_555
O5 Tb0 2.159820 1_555
