# generated using pymatgen
data_Sr3CaTi3MnO12
_symmetry_space_group_name_H-M   'P 1'
_cell_length_a   7.79351000
_cell_length_b   7.79937400
_cell_length_c   7.88957800
_cell_angle_alpha   90.00000000
_cell_angle_beta   90.00000000
_cell_angle_gamma   90.00000000
_symmetry_Int_Tables_number   1
_chemical_formula_structural   Sr3CaTi3MnO12
_chemical_formula_sum   'Sr6 Ca2 Ti6 Mn2 O24'
_cell_volume   479.56404812
_cell_formula_units_Z   2
loop_
 _symmetry_equiv_pos_site_id
 _symmetry_equiv_pos_as_xyz
  1  'x, y, z'
loop_
 _atom_site_type_symbol
 _atom_site_label
 _atom_site_symmetry_multiplicity
 _atom_site_fract_x
 _atom_site_fract_y
 _atom_site_fract_z
 _atom_site_occupancy
  Sr  Sr0  1  0.24676100  0.24649400  0.25000000  1
  Sr  Sr1  1  0.24675500  0.24665100  0.75000000  1
  Sr  Sr2  1  0.24649500  0.75343700  0.75000000  1
  Sr  Sr3  1  0.75324500  0.24665100  0.25000000  1
  Sr  Sr4  1  0.75323900  0.24649400  0.75000000  1
  Sr  Sr5  1  0.75350500  0.75343700  0.25000000  1
  Ca  Ca0  1  0.24654300  0.75358600  0.25000000  1
  Ca  Ca1  1  0.75345700  0.75358600  0.75000000  1
  Ti  Ti0  1  0.00000000  0.50210900  0.00000000  1
  Ti  Ti1  1  0.00000000  0.50210900  0.50000000  1
  Ti  Ti2  1  0.50000000  0.99858000  0.00000000  1
  Ti  Ti3  1  0.50000000  0.99858000  0.50000000  1
  Ti  Ti4  1  0.50000000  0.50141300  0.00000000  1
  Ti  Ti5  1  0.50000000  0.50141300  0.50000000  1
  Mn  Mn0  1  0.00000000  0.99909400  0.00000000  1
  Mn  Mn1  1  0.00000000  0.99909400  0.50000000  1
  O  O0  1  0.24775600  0.99719900  0.00201600  1
  O  O1  1  0.24775600  0.99719900  0.49798400  1
  O  O2  1  0.24949700  0.50250500  0.00160500  1
  O  O3  1  0.24949700  0.50250500  0.49839500  1
  O  O4  1  0.75224400  0.99719900  0.99798400  1
  O  O5  1  0.75224400  0.99719900  0.50201600  1
  O  O6  1  0.75050300  0.50250500  0.99839500  1
  O  O7  1  0.75050300  0.50250500  0.50160500  1
  O  O8  1  0.00000000  0.24784100  0.00000000  1
  O  O9  1  0.00000000  0.24784100  0.50000000  1
  O  O10  1  0.00000000  0.75234300  0.00000000  1
  O  O11  1  0.00000000  0.75234300  0.50000000  1
  O  O12  1  0.50000000  0.24937600  0.00000000  1
  O  O13  1  0.50000000  0.24937600  0.50000000  1
  O  O14  1  0.50000000  0.75049900  0.00000000  1
  O  O15  1  0.50000000  0.75049900  0.50000000  1
  O  O16  1  0.00285100  0.99659500  0.25000000  1
  O  O17  1  0.99714900  0.99659500  0.75000000  1
  O  O18  1  0.00171900  0.50256800  0.25000000  1
  O  O19  1  0.99828100  0.50256800  0.75000000  1
  O  O20  1  0.49835200  0.99734100  0.25000000  1
  O  O21  1  0.50164800  0.99734100  0.75000000  1
  O  O22  1  0.49827600  0.50266700  0.25000000  1
  O  O23  1  0.50172400  0.50266700  0.75000000  1
loop_
_geom_bond_atom_site_label_1
_geom_bond_atom_site_label_2
_geom_bond_distance
_geom_bond_site_symmetry_2
Ca0 O16 2.683142 1_555
Ca0 O1 2.727279 1_555
Ca0 O0 2.727279 1_555
Ca0 O20 2.732331 1_555
Ca0 O18 2.733775 1_555
Ca0 O10 2.753606 1_555
Ca0 O11 2.753606 1_555
Ca0 O3 2.770545 1_555
Ca0 O2 2.770545 1_555
Ca0 O22 2.771079 1_555
Ca0 O14 2.791560 1_555
Ca0 O15 2.791560 1_555
Ca1 O17 2.683142 1_555
Ca1 O4 2.727279 1_555
Ca1 O5 2.727279 1_555
Ca1 O21 2.732331 1_555
Ca1 O19 2.733775 1_555
Ca1 O10 2.753606 1_656
Ca1 O11 2.753606 1_655
Ca1 O6 2.770545 1_555
Ca1 O7 2.770545 1_555
Ca1 O23 2.771079 1_555
Ca1 O14 2.791560 1_556
Ca1 O15 2.791560 1_555
Mn0 O10 1.924503 1_555
Mn0 O0 1.931011 1_555
Mn0 O4 1.931011 1_454
Mn0 O8 1.940071 1_565
Mn0 O16 1.972616 1_555
Mn0 O17 1.972616 1_454
Mn1 O11 1.924503 1_555
Mn1 O1 1.931011 1_555
Mn1 O5 1.931011 1_455
Mn1 O9 1.940071 1_565
Mn1 O16 1.972616 1_555
Mn1 O17 1.972616 1_455
O0 Ti2 1.965960 1_555
O0 Sr2 2.750993 1_554
O0 Sr0 2.758330 1_565
O0 Sr1 2.781841 1_564
O1 Ti3 1.965960 1_555
O1 Sr2 2.750993 1_555
O1 Sr0 2.758330 1_565
O1 Sr1 2.781841 1_565
O2 Ti0 1.944501 1_555
O2 Ti4 1.952357 1_555
O2 Sr2 2.787703 1_554
O2 Sr0 2.797841 1_555
O2 Sr1 2.814771 1_554
O3 Ti1 1.944501 1_555
O3 Ti5 1.952357 1_555
O3 Sr2 2.787703 1_555
O3 Sr0 2.797841 1_555
O3 Sr1 2.814771 1_555
O4 Ti2 1.965960 1_556
O4 Sr5 2.750993 1_556
O4 Sr4 2.758330 1_565
O4 Sr3 2.781841 1_566
O5 Ti3 1.965960 1_555
O5 Sr5 2.750993 1_555
O5 Sr4 2.758330 1_565
O5 Sr3 2.781841 1_565
O6 Ti0 1.944501 1_656
O6 Ti4 1.952357 1_556
O6 Sr5 2.787703 1_556
O6 Sr4 2.797841 1_555
O6 Sr3 2.814771 1_556
O7 Ti1 1.944501 1_655
O7 Ti5 1.952357 1_555
O7 Sr5 2.787703 1_555
O7 Sr4 2.797841 1_555
O7 Sr3 2.814771 1_555
O8 Ti0 1.983131 1_555
O8 Sr1 2.754758 1_554
O8 Sr3 2.754758 1_455
O8 Sr0 2.754795 1_555
O8 Sr4 2.754795 1_454
O9 Ti1 1.983131 1_555
O9 Sr1 2.754758 1_555
O9 Sr3 2.754758 1_455
O9 Sr0 2.754795 1_555
O9 Sr4 2.754795 1_455
O10 Ti0 1.951669 1_555
O10 Sr2 2.753341 1_554
O10 Sr5 2.753341 1_455
O11 Ti1 1.951669 1_555
O11 Sr2 2.753341 1_555
O11 Sr5 2.753341 1_455
O12 Ti2 1.956052 1_545
O12 Ti4 1.965731 1_555
O12 Sr4 2.790345 1_554
O12 Sr0 2.790345 1_555
O12 Sr3 2.790368 1_555
O12 Sr1 2.790368 1_554
O13 Ti3 1.956052 1_545
O13 Ti5 1.965731 1_555
O13 Sr4 2.790345 1_555
O13 Sr0 2.790345 1_555
O13 Sr3 2.790368 1_555
O13 Sr1 2.790368 1_555
O14 Ti2 1.934877 1_555
O14 Ti4 1.942715 1_555
O14 Sr5 2.791815 1_555
O14 Sr2 2.791815 1_554
O15 Ti3 1.934877 1_555
O15 Ti5 1.942715 1_555
O15 Sr5 2.791815 1_555
O15 Sr2 2.791815 1_555
O16 Sr5 2.715323 1_455
O16 Sr0 2.722553 1_565
O16 Sr3 2.754598 1_465
O17 Sr2 2.715323 1_655
O17 Sr4 2.722553 1_565
O17 Sr1 2.754598 1_665
O18 Ti1 1.972443 1_555
O18 Ti0 1.972443 1_555
O18 Sr5 2.751453 1_455
O18 Sr0 2.763326 1_555
O18 Sr3 2.781000 1_455
O19 Ti1 1.972443 1_655
O19 Ti0 1.972443 1_656
O19 Sr2 2.751453 1_655
O19 Sr4 2.763326 1_555
O19 Sr1 2.781000 1_655
O20 Ti2 1.972460 1_555
O20 Ti3 1.972460 1_555
O20 Sr5 2.751912 1_555
O20 Sr0 2.760583 1_565
O20 Sr3 2.779777 1_565
O21 Ti3 1.972460 1_555
O21 Ti2 1.972460 1_556
O21 Sr2 2.751912 1_555
O21 Sr4 2.760583 1_565
O21 Sr1 2.779777 1_565
O22 Ti4 1.972465 1_555
O22 Ti5 1.972465 1_555
O22 Sr5 2.789621 1_555
O22 Sr0 2.798979 1_555
O22 Sr3 2.817028 1_555
O23 Ti5 1.972465 1_555
O23 Ti4 1.972465 1_556
O23 Sr2 2.789621 1_555
O23 Sr4 2.798979 1_555
O23 Sr1 2.817028 1_555
