# generated using pymatgen
data_Li4Co3Sn5O16
_symmetry_space_group_name_H-M   'P 1'
_cell_length_a   6.14627186
_cell_length_b   6.14627186
_cell_length_c   9.88771755
_cell_angle_alpha   89.94289574
_cell_angle_beta   89.94289574
_cell_angle_gamma   60.01418919
_symmetry_Int_Tables_number   1
_chemical_formula_structural   Li4Co3Sn5O16
_chemical_formula_sum   'Li4 Co3 Sn5 O16'
_cell_volume   323.52809852
_cell_formula_units_Z   1
loop_
 _symmetry_equiv_pos_site_id
 _symmetry_equiv_pos_as_xyz
  1  'x, y, z'
loop_
 _atom_site_type_symbol
 _atom_site_label
 _atom_site_symmetry_multiplicity
 _atom_site_fract_x
 _atom_site_fract_y
 _atom_site_fract_z
 _atom_site_occupancy
  Li  Li0  1  0.66994100  0.66994100  0.89187400  1
  Li  Li1  1  0.98447700  0.98447700  0.98917200  1
  Li  Li2  1  0.99172300  0.99172300  0.49661300  1
  Li  Li3  1  0.33219400  0.33219400  0.40301300  1
  Co  Co0  1  0.83047200  0.83047200  0.21399000  1
  Co  Co1  1  0.66187500  0.17181400  0.71354200  1
  Co  Co2  1  0.17181400  0.66187500  0.71354200  1
  Sn  Sn0  1  0.83283000  0.33969600  0.21489500  1
  Sn  Sn1  1  0.66984600  0.66984600  0.49333800  1
  Sn  Sn2  1  0.33969600  0.83283000  0.21489500  1
  Sn  Sn3  1  0.17026100  0.17026100  0.71441000  1
  Sn  Sn4  1  0.34122100  0.34122100  0.98640000  1
  O  O0  1  0.83539200  0.32325100  0.59758700  1
  O  O1  1  0.51478600  0.51478600  0.34504600  1
  O  O2  1  0.66500800  0.66500800  0.10064500  1
  O  O3  1  0.00030000  0.00030000  0.31162400  1
  O  O4  1  0.99731700  0.99731700  0.80546600  1
  O  O5  1  0.32325100  0.83539200  0.59758700  1
  O  O6  1  0.96648200  0.51083000  0.34757900  1
  O  O7  1  0.51083000  0.96648200  0.34757900  1
  O  O8  1  0.16306800  0.16306800  0.09212800  1
  O  O9  1  0.83707200  0.83707200  0.60577100  1
  O  O10  1  0.48610400  0.03878300  0.84255600  1
  O  O11  1  0.03878300  0.48610400  0.84255600  1
  O  O12  1  0.33595200  0.33595200  0.60619300  1
  O  O13  1  0.67487800  0.16987100  0.09467000  1
  O  O14  1  0.48358800  0.48358800  0.83053500  1
  O  O15  1  0.16987100  0.67487800  0.09467000  1
loop_
_geom_bond_atom_site_label_1
_geom_bond_atom_site_label_2
_geom_bond_distance
_geom_bond_site_symmetry_2
Li0 O10 2.022938 1_565
Li0 O11 2.022938 1_655
Li0 O2 2.064876 1_556
Li0 O14 2.075021 1_555
Li1 O4 1.821411 1_555
Li1 O15 1.959221 1_656
Li1 O13 1.959221 1_566
Li1 O8 2.157520 1_666
Li2 O3 1.831291 1_665
Li2 O9 1.967477 1_555
Li2 O5 2.029088 1_655
Li2 O0 2.029088 1_565
Li3 O12 2.009431 1_555
Li3 O6 2.023056 1_455
Li3 O7 2.023056 1_545
Li3 O1 2.025787 1_555
Co0 O3 2.050394 1_665
Co0 O2 2.088757 1_555
Co0 O6 2.158393 1_555
Co0 O7 2.158393 1_555
Co0 O13 2.159008 1_565
Co0 O15 2.159008 1_655
Co1 O4 2.004649 1_545
Co1 O14 2.028281 1_555
Co1 O12 2.034530 1_555
Co1 O0 2.075071 1_555
Co1 O9 2.077399 1_545
Co1 O10 2.083528 1_555
Co2 O4 2.004649 1_455
Co2 O14 2.028281 1_555
Co2 O12 2.034530 1_555
Co2 O5 2.075071 1_555
Co2 O9 2.077399 1_455
Co2 O11 2.083528 1_555
O0 Sn1 2.113518 1_555
O0 Sn3 2.126664 1_655
O1 Sn2 2.128472 1_555
O1 Sn0 2.128472 1_555
O1 Sn1 2.209070 1_555
O2 Sn0 2.067423 1_555
O2 Sn2 2.067423 1_555
O3 Sn0 2.043884 1_455
O3 Sn2 2.043884 1_545
O4 Sn3 2.048405 1_665
O5 Sn1 2.113518 1_555
O5 Sn3 2.126664 1_565
O6 Sn0 2.090675 1_555
O6 Sn1 2.138421 1_555
O7 Sn2 2.090675 1_555
O7 Sn1 2.138421 1_555
O8 Sn0 2.137064 1_455
O8 Sn2 2.137064 1_545
O8 Sn4 2.164422 1_554
O9 Sn1 2.099812 1_555
O10 Sn3 2.112292 1_555
O10 Sn4 2.149282 1_555
O11 Sn3 2.112292 1_555
O11 Sn4 2.149282 1_555
O12 Sn3 2.061906 1_555
O13 Sn4 2.074623 1_554
O13 Sn0 2.112529 1_555
O14 Sn4 2.160197 1_555
O15 Sn4 2.074623 1_554
O15 Sn2 2.112529 1_555
