# generated using pymatgen
data_LiNi2P3O10
_symmetry_space_group_name_H-M   'P 1'
_cell_length_a   8.47071600
_cell_length_b   4.63218000
_cell_length_c   9.00151261
_cell_angle_alpha   81.98836845
_cell_angle_beta   90.00000000
_cell_angle_gamma   90.00000000
_symmetry_Int_Tables_number   1
_chemical_formula_structural   LiNi2P3O10
_chemical_formula_sum   'Li2 Ni4 P6 O20'
_cell_volume   349.75297555
_cell_formula_units_Z   2
loop_
 _symmetry_equiv_pos_site_id
 _symmetry_equiv_pos_as_xyz
  1  'x, y, z'
loop_
 _atom_site_type_symbol
 _atom_site_label
 _atom_site_symmetry_multiplicity
 _atom_site_fract_x
 _atom_site_fract_y
 _atom_site_fract_z
 _atom_site_occupancy
  Li  Li0  1  0.50000000  0.00000000  0.00000000  1
  Li  Li1  1  0.00000000  0.00000000  0.00000000  1
  Ni  Ni0  1  0.56932700  0.96374800  0.33619600  1
  Ni  Ni1  1  0.06932700  0.03625200  0.66380400  1
  Ni  Ni2  1  0.43067300  0.03625200  0.66380400  1
  Ni  Ni3  1  0.93067300  0.96374800  0.33619600  1
  P  P0  1  0.25000000  0.60203600  0.46517400  1
  P  P1  1  0.75000000  0.39796400  0.53482600  1
  P  P2  1  0.25000000  0.32930300  0.17881600  1
  P  P3  1  0.75000000  0.67069700  0.82118400  1
  P  P4  1  0.25000000  0.46215200  0.85396800  1
  P  P5  1  0.75000000  0.53784800  0.14603200  1
  O  O0  1  0.25000000  0.29514700  0.55522200  1
  O  O1  1  0.75000000  0.70485300  0.44477800  1
  O  O2  1  0.59763400  0.22792500  0.51421800  1
  O  O3  1  0.09763400  0.77207500  0.48578200  1
  O  O4  1  0.40236600  0.77207500  0.48578200  1
  O  O5  1  0.90236600  0.22792500  0.51421800  1
  O  O6  1  0.59811100  0.84248200  0.81214600  1
  O  O7  1  0.09811100  0.15751800  0.18785400  1
  O  O8  1  0.90124900  0.71157200  0.16028000  1
  O  O9  1  0.40124900  0.28842800  0.83972000  1
  O  O10  1  0.09875100  0.28842800  0.83972000  1
  O  O11  1  0.59875100  0.71157200  0.16028000  1
  O  O12  1  0.75000000  0.23278400  0.23902800  1
  O  O13  1  0.25000000  0.76721600  0.76097200  1
  O  O14  1  0.75000000  0.43507900  0.71016000  1
  O  O15  1  0.25000000  0.56492100  0.28984000  1
  O  O16  1  0.75000000  0.44857500  0.97541000  1
  O  O17  1  0.25000000  0.55142500  0.02459000  1
  O  O18  1  0.90188900  0.84248200  0.81214600  1
  O  O19  1  0.40188900  0.15751800  0.18785400  1
loop_
_geom_bond_atom_site_label_1
_geom_bond_atom_site_label_2
_geom_bond_distance
_geom_bond_site_symmetry_2
Li0 O9 2.007236 1_554
Li0 O11 2.007236 1_545
Li0 O6 2.103895 1_544
Li0 O19 2.103895 1_555
Li1 O8 2.007236 1_445
Li1 O10 2.007236 1_554
Li1 O18 2.103895 1_444
Li1 O7 2.103895 1_555
Ni0 O19 2.065483 1_565
Ni0 O4 2.065988 1_555
Ni0 O12 2.087217 1_565
Ni0 O1 2.099760 1_555
Ni0 O11 2.109444 1_555
Ni0 O2 2.160900 1_565
Ni1 O18 2.065483 1_445
Ni1 O5 2.065988 1_455
Ni1 O13 2.087217 1_545
Ni1 O0 2.099760 1_555
Ni1 O10 2.109444 1_555
Ni1 O3 2.160900 1_545
Ni2 O6 2.065483 1_545
Ni2 O2 2.065988 1_555
Ni2 O13 2.087217 1_545
Ni2 O0 2.099760 1_555
Ni2 O9 2.109444 1_555
Ni2 O4 2.160900 1_545
Ni3 O7 2.065483 1_665
Ni3 O3 2.065988 1_655
Ni3 O12 2.087217 1_565
Ni3 O1 2.099760 1_555
Ni3 O8 2.109444 1_555
Ni3 O5 2.160900 1_565
O0 P0 1.535146 1_555
O1 P1 1.535146 1_555
O2 P1 1.536655 1_555
O3 P0 1.536655 1_555
O4 P0 1.536655 1_555
O5 P1 1.536655 1_555
O6 P3 1.509018 1_555
O7 P2 1.509018 1_555
O8 P5 1.527820 1_555
O9 P4 1.527820 1_555
O10 P4 1.527820 1_555
O11 P5 1.527820 1_555
O12 P5 1.538795 1_555
O13 P4 1.538795 1_555
O14 P3 1.579247 1_555
O14 P1 1.611252 1_555
O15 P2 1.579247 1_555
O15 P0 1.611252 1_555
O16 P3 1.608656 1_555
O16 P5 1.645265 1_556
O17 P2 1.608656 1_555
O17 P4 1.645265 1_554
O18 P3 1.509018 1_555
O19 P2 1.509018 1_555
