# generated using pymatgen
data_Li2B2H9N
_symmetry_space_group_name_H-M   'P 1'
_cell_length_a   7.54817100
_cell_length_b   9.18647800
_cell_length_c   13.89989600
_cell_angle_alpha   90.00000000
_cell_angle_beta   90.00000000
_cell_angle_gamma   90.00000000
_symmetry_Int_Tables_number   1
_chemical_formula_structural   Li2B2H9N
_chemical_formula_sum   'Li16 B16 H72 N8'
_cell_volume   963.83417349
_cell_formula_units_Z   8
loop_
 _symmetry_equiv_pos_site_id
 _symmetry_equiv_pos_as_xyz
  1  'x, y, z'
loop_
 _atom_site_type_symbol
 _atom_site_label
 _atom_site_symmetry_multiplicity
 _atom_site_fract_x
 _atom_site_fract_y
 _atom_site_fract_z
 _atom_site_occupancy
  Li  Li0  1  0.12968500  0.20457700  0.71923900  1
  Li  Li1  1  0.87031500  0.70457700  0.78076100  1
  Li  Li2  1  0.37031500  0.79542300  0.21923900  1
  Li  Li3  1  0.62968500  0.29542300  0.28076100  1
  Li  Li4  1  0.87031500  0.79542300  0.28076100  1
  Li  Li5  1  0.12968500  0.29542300  0.21923900  1
  Li  Li6  1  0.62968500  0.20457700  0.78076100  1
  Li  Li7  1  0.37031500  0.70457700  0.71923900  1
  Li  Li8  1  0.09804600  0.85745600  0.55004300  1
  Li  Li9  1  0.90195400  0.35745600  0.94995700  1
  Li  Li10  1  0.40195400  0.14254400  0.05004300  1
  Li  Li11  1  0.59804600  0.64254400  0.44995700  1
  Li  Li12  1  0.90195400  0.14254400  0.44995700  1
  Li  Li13  1  0.09804600  0.64254400  0.05004300  1
  Li  Li14  1  0.59804600  0.85745600  0.94995700  1
  Li  Li15  1  0.40195400  0.35745600  0.55004300  1
  B  B0  1  0.11460900  0.87244400  0.72685800  1
  B  B1  1  0.88539100  0.37244400  0.77314200  1
  B  B2  1  0.38539100  0.12755600  0.22685800  1
  B  B3  1  0.61460900  0.62755600  0.27314200  1
  B  B4  1  0.88539100  0.12755600  0.27314200  1
  B  B5  1  0.11460900  0.62755600  0.22685800  1
  B  B6  1  0.61460900  0.87244400  0.77314200  1
  B  B7  1  0.38539100  0.37244400  0.72685800  1
  B  B8  1  0.31644400  0.66537900  0.52425700  1
  B  B9  1  0.68355600  0.16537900  0.97574300  1
  B  B10  1  0.18355600  0.33462100  0.02425700  1
  B  B11  1  0.81644400  0.83462100  0.47574300  1
  B  B12  1  0.68355600  0.33462100  0.47574300  1
  B  B13  1  0.31644400  0.83462100  0.02425700  1
  B  B14  1  0.81644400  0.66537900  0.97574300  1
  B  B15  1  0.18355600  0.16537900  0.52425700  1
  H  H0  1  0.22132000  0.00950500  0.83365200  1
  H  H1  1  0.77868000  0.50950500  0.66634800  1
  H  H2  1  0.27868000  0.99049500  0.33365200  1
  H  H3  1  0.72132000  0.49049500  0.16634800  1
  H  H4  1  0.77868000  0.99049500  0.16634800  1
  H  H5  1  0.22132000  0.49049500  0.33365200  1
  H  H6  1  0.72132000  0.00950500  0.66634800  1
  H  H7  1  0.27868000  0.50950500  0.83365200  1
  H  H8  1  0.00749700  0.01537500  0.83270400  1
  H  H9  1  0.99250300  0.51537500  0.66729600  1
  H  H10  1  0.49250300  0.98462500  0.33270400  1
  H  H11  1  0.50749700  0.48462500  0.16729600  1
  H  H12  1  0.99250300  0.98462500  0.16729600  1
  H  H13  1  0.00749700  0.48462500  0.33270400  1
  H  H14  1  0.50749700  0.01537500  0.66729600  1
  H  H15  1  0.49250300  0.51537500  0.83270400  1
  H  H16  1  0.12612700  0.75663100  0.77368900  1
  H  H17  1  0.87387300  0.25663100  0.72631100  1
  H  H18  1  0.37387300  0.24336900  0.27368900  1
  H  H19  1  0.62612700  0.74336900  0.22631100  1
  H  H20  1  0.87387300  0.24336900  0.22631100  1
  H  H21  1  0.12612700  0.74336900  0.27368900  1
  H  H22  1  0.62612700  0.75663100  0.72631100  1
  H  H23  1  0.37387300  0.25663100  0.77368900  1
  H  H24  1  0.97873100  0.86327700  0.67753800  1
  H  H25  1  0.02126900  0.36327700  0.82246200  1
  H  H26  1  0.52126900  0.13672300  0.17753800  1
  H  H27  1  0.47873100  0.63672300  0.32246200  1
  H  H28  1  0.02126900  0.13672300  0.32246200  1
  H  H29  1  0.97873100  0.63672300  0.17753800  1
  H  H30  1  0.47873100  0.86327700  0.82246200  1
  H  H31  1  0.52126900  0.36327700  0.67753800  1
  H  H32  1  0.24230300  0.87478000  0.67050300  1
  H  H33  1  0.75769700  0.37478000  0.82949700  1
  H  H34  1  0.25769700  0.12522000  0.17050300  1
  H  H35  1  0.74230300  0.62522000  0.32949700  1
  H  H36  1  0.75769700  0.12522000  0.32949700  1
  H  H37  1  0.24230300  0.62522000  0.17050300  1
  H  H38  1  0.74230300  0.87478000  0.82949700  1
  H  H39  1  0.25769700  0.37478000  0.67050300  1
  H  H40  1  0.33793400  0.55623700  0.47407200  1
  H  H41  1  0.66206600  0.05623700  0.02592800  1
  H  H42  1  0.16206600  0.44376300  0.97407200  1
  H  H43  1  0.83793400  0.94376300  0.52592800  1
  H  H44  1  0.66206600  0.44376300  0.52592800  1
  H  H45  1  0.33793400  0.94376300  0.97407200  1
  H  H46  1  0.83793400  0.55623700  0.02592800  1
  H  H47  1  0.16206600  0.05623700  0.47407200  1
  H  H48  1  0.29897600  0.76993300  0.46991500  1
  H  H49  1  0.70102400  0.26993300  0.03008500  1
  H  H50  1  0.20102400  0.23006700  0.96991500  1
  H  H51  1  0.79897600  0.73006700  0.53008500  1
  H  H52  1  0.70102400  0.23006700  0.53008500  1
  H  H53  1  0.29897600  0.73006700  0.96991500  1
  H  H54  1  0.79897600  0.76993300  0.03008500  1
  H  H55  1  0.20102400  0.26993300  0.46991500  1
  H  H56  1  0.44752000  0.68703200  0.57496500  1
  H  H57  1  0.55248000  0.18703200  0.92503500  1
  H  H58  1  0.05248000  0.31296800  0.07496500  1
  H  H59  1  0.94752000  0.81296800  0.42503500  1
  H  H60  1  0.55248000  0.31296800  0.42503500  1
  H  H61  1  0.44752000  0.81296800  0.07496500  1
  H  H62  1  0.94752000  0.68703200  0.92503500  1
  H  H63  1  0.05248000  0.18703200  0.57496500  1
  H  H64  1  0.18529400  0.64607800  0.57395500  1
  H  H65  1  0.81470600  0.14607800  0.92604500  1
  H  H66  1  0.31470600  0.35392200  0.07395500  1
  H  H67  1  0.68529400  0.85392200  0.42604500  1
  H  H68  1  0.81470600  0.35392200  0.42604500  1
  H  H69  1  0.18529400  0.85392200  0.07395500  1
  H  H70  1  0.68529400  0.64607800  0.92604500  1
  H  H71  1  0.31470600  0.14607800  0.57395500  1
  N  N0  1  0.11559500  0.01193800  0.78793900  1
  N  N1  1  0.88440500  0.51193800  0.71206100  1
  N  N2  1  0.38440500  0.98806200  0.28793900  1
  N  N3  1  0.61559500  0.48806200  0.21206100  1
  N  N4  1  0.88440500  0.98806200  0.21206100  1
  N  N5  1  0.11559500  0.48806200  0.28793900  1
  N  N6  1  0.61559500  0.01193800  0.71206100  1
  N  N7  1  0.38440500  0.51193800  0.78793900  1
loop_
_geom_bond_atom_site_label_1
_geom_bond_atom_site_label_2
_geom_bond_distance
_geom_bond_site_symmetry_2
Li0 N0 2.013687 1_555
Li1 N1 2.013687 1_555
Li2 N2 2.013687 1_555
Li3 N3 2.013687 1_555
Li4 N4 2.013687 1_555
Li5 N5 2.013687 1_555
Li6 N6 2.013687 1_555
Li7 N7 2.013687 1_555
B0 H24 1.236519 1_455
B0 H32 1.242209 1_555
B0 H16 1.250281 1_555
B0 N0 1.537214 1_565
B1 H25 1.236519 1_655
B1 H33 1.242209 1_555
B1 H17 1.250281 1_555
B1 N1 1.537214 1_555
B2 H26 1.236519 1_555
B2 H34 1.242209 1_555
B2 H18 1.250281 1_555
B2 N2 1.537214 1_545
B3 H27 1.236519 1_555
B3 H35 1.242209 1_555
B3 H19 1.250281 1_555
B3 N3 1.537214 1_555
B4 H28 1.236519 1_655
B4 H36 1.242209 1_555
B4 H20 1.250281 1_555
B4 N4 1.537214 1_545
B5 H29 1.236519 1_455
B5 H37 1.242209 1_555
B5 H21 1.250281 1_555
B5 N5 1.537214 1_555
B6 H30 1.236519 1_555
B6 H38 1.242209 1_555
B6 H22 1.250281 1_555
B6 N6 1.537214 1_565
B7 H31 1.236519 1_555
B7 H39 1.242209 1_555
B7 H23 1.250281 1_555
B7 N7 1.537214 1_555
B8 H64 1.220092 1_555
B8 H48 1.229009 1_555
B8 H56 1.230952 1_555
B8 H40 1.232144 1_555
B9 H65 1.220092 1_555
B9 H49 1.229009 1_556
B9 H57 1.230952 1_555
B9 H41 1.232144 1_556
B10 H66 1.220092 1_555
B10 H50 1.229009 1_554
B10 H58 1.230952 1_555
B10 H42 1.232144 1_554
B11 H67 1.220092 1_555
B11 H51 1.229009 1_555
B11 H59 1.230952 1_555
B11 H43 1.232144 1_555
B12 H68 1.220092 1_555
B12 H52 1.229009 1_555
B12 H60 1.230952 1_555
B12 H44 1.232144 1_555
B13 H69 1.220092 1_555
B13 H53 1.229009 1_554
B13 H61 1.230952 1_555
B13 H45 1.232144 1_554
B14 H70 1.220092 1_555
B14 H54 1.229009 1_556
B14 H62 1.230952 1_555
B14 H46 1.232144 1_556
B15 H71 1.220092 1_555
B15 H55 1.229009 1_555
B15 H63 1.230952 1_555
B15 H47 1.232144 1_555
H0 N0 1.020340 1_555
H1 N1 1.020340 1_555
H2 N2 1.020340 1_555
H3 N3 1.020340 1_555
H4 N4 1.020340 1_555
H5 N5 1.020340 1_555
H6 N6 1.020340 1_555
H7 N7 1.020340 1_555
H8 N0 1.026610 1_555
H9 N1 1.026610 1_555
H10 N2 1.026610 1_555
H11 N3 1.026610 1_555
H12 N4 1.026610 1_555
H13 N5 1.026610 1_555
H14 N6 1.026610 1_555
H15 N7 1.026610 1_555
H16 Li1 1.991671 1_455
H16 Li7 2.049091 1_555
H17 Li0 1.991671 1_655
H17 Li6 2.049091 1_555
H18 Li3 1.991671 1_555
H18 Li5 2.049091 1_555
H19 Li2 1.991671 1_555
H19 Li4 2.049091 1_555
H20 Li5 1.991671 1_655
H20 Li3 2.049091 1_555
H21 Li4 1.991671 1_455
H21 Li2 2.049091 1_555
H22 Li7 1.991671 1_555
H22 Li1 2.049091 1_555
H23 Li6 1.991671 1_555
H23 Li0 2.049091 1_555
H24 Li8 1.988601 1_655
H24 Li1 2.203125 1_555
H25 Li9 1.988601 1_455
H25 Li0 2.203125 1_555
H26 Li10 1.988601 1_555
H26 Li3 2.203125 1_555
H27 Li11 1.988601 1_555
H27 Li2 2.203125 1_555
H28 Li12 1.988601 1_455
H28 Li5 2.203125 1_555
H29 Li13 1.988601 1_655
H29 Li4 2.203125 1_555
H30 Li14 1.988601 1_555
H30 Li7 2.203125 1_555
H31 Li15 1.988601 1_555
H31 Li6 2.203125 1_555
H32 Li7 1.958902 1_555
H32 Li8 2.003630 1_555
H33 Li6 1.958902 1_555
H33 Li9 2.003630 1_555
H34 Li5 1.958902 1_555
H34 Li10 2.003630 1_555
H35 Li4 1.958902 1_555
H35 Li11 2.003630 1_555
H36 Li3 1.958902 1_555
H36 Li12 2.003630 1_555
H37 Li2 1.958902 1_555
H37 Li13 2.003630 1_555
H38 Li1 1.958902 1_555
H38 Li14 2.003630 1_555
H39 Li0 1.958902 1_555
H39 Li15 2.003630 1_555
H40 Li11 2.143782 1_555
H40 Li15 2.164084 1_555
H41 Li10 2.143782 1_555
H41 Li14 2.164084 1_544
H42 Li9 2.143782 1_455
H42 Li13 2.164084 1_556
H43 Li8 2.143782 1_655
H43 Li12 2.164084 1_565
H44 Li15 2.143782 1_555
H44 Li11 2.164084 1_555
H45 Li14 2.143782 1_555
H45 Li10 2.164084 1_566
H46 Li13 2.143782 1_655
H46 Li9 2.164084 1_554
H47 Li12 2.143782 1_455
H47 Li8 2.164084 1_545
H48 Li8 2.046261 1_555
H49 Li9 2.046261 1_554
H50 Li10 2.046261 1_556
H51 Li11 2.046261 1_555
H52 Li12 2.046261 1_555
H53 Li13 2.046261 1_556
H54 Li14 2.046261 1_554
H55 Li15 2.046261 1_555
H56 Li7 2.094561 1_555
H56 Li11 2.115943 1_555
H57 Li6 2.094561 1_555
H57 Li10 2.115943 1_556
H58 Li5 2.094561 1_555
H58 Li9 2.115943 1_454
H59 Li4 2.094561 1_555
H59 Li8 2.115943 1_655
H60 Li3 2.094561 1_555
H60 Li15 2.115943 1_555
H61 Li2 2.094561 1_555
H61 Li14 2.115943 1_554
H62 Li1 2.094561 1_555
H62 Li13 2.115943 1_656
H63 Li0 2.094561 1_555
H63 Li12 2.115943 1_455
H64 Li8 2.077219 1_555
H65 Li9 2.077219 1_555
H66 Li10 2.077219 1_555
H67 Li11 2.077219 1_555
H68 Li12 2.077219 1_555
H69 Li13 2.077219 1_555
H70 Li14 2.077219 1_555
H71 Li15 2.077219 1_555
