# generated using pymatgen
data_Li2VCrO4
_symmetry_space_group_name_H-M   'P 1'
_cell_length_a   4.06249974
_cell_length_b   7.85186624
_cell_length_c   5.29500241
_cell_angle_alpha   93.99290129
_cell_angle_beta   112.55325782
_cell_angle_gamma   104.99653269
_symmetry_Int_Tables_number   1
_chemical_formula_structural   Li2VCrO4
_chemical_formula_sum   'Li4 V2 Cr2 O8'
_cell_volume   147.94694605
_cell_formula_units_Z   2
loop_
 _symmetry_equiv_pos_site_id
 _symmetry_equiv_pos_as_xyz
  1  'x, y, z'
loop_
 _atom_site_type_symbol
 _atom_site_label
 _atom_site_symmetry_multiplicity
 _atom_site_fract_x
 _atom_site_fract_y
 _atom_site_fract_z
 _atom_site_occupancy
  Li  Li0  1  0.62780500  0.87411200  0.38157700  1
  Li  Li1  1  0.12792600  0.37019300  0.88555700  1
  Li  Li2  1  0.24623200  0.75486700  0.73763200  1
  Li  Li3  1  0.75273200  0.24578100  0.25975800  1
  V  V0  1  0.50116500  0.49864000  0.50375300  1
  V  V1  1  0.99934200  0.99985100  0.99952900  1
  Cr  Cr0  1  0.37236400  0.12573200  0.61920200  1
  Cr  Cr1  1  0.87576800  0.62662200  0.12495400  1
  O  O0  1  0.25362800  0.23558700  0.27127500  1
  O  O1  1  0.76636900  0.74470800  0.78750800  1
  O  O2  1  0.48888500  0.01304700  0.96471500  1
  O  O3  1  0.98867000  0.50943400  0.46776900  1
  O  O4  1  0.11806400  0.88109000  0.35531200  1
  O  O5  1  0.61462500  0.38671700  0.84237500  1
  O  O6  1  0.88156000  0.11943500  0.64368600  1
  O  O7  1  0.38486500  0.61418500  0.15540000  1
loop_
_geom_bond_atom_site_label_1
_geom_bond_atom_site_label_2
_geom_bond_distance
_geom_bond_site_symmetry_2
Li0 O4 2.036217 1_655
Li0 O4 2.037035 1_555
Li0 O6 2.049842 1_565
Li0 O7 2.069819 1_555
Li0 O1 2.375127 1_555
Li0 O2 2.465577 1_564
Li1 O6 2.040664 1_455
Li1 O5 2.048398 1_455
Li1 O5 2.048573 1_555
Li1 O7 2.059410 1_556
Li1 O0 2.308470 1_556
Li1 O3 2.471042 1_455
Li2 O1 2.047881 1_455
Li2 O1 2.050174 1_555
Li2 O2 2.060138 1_565
Li2 O3 2.067962 1_455
Li2 O4 2.255974 1_555
Li2 O7 2.477351 1_556
Li3 O0 2.032945 1_555
Li3 O0 2.034867 1_655
Li3 O2 2.057460 1_554
Li3 O3 2.064748 1_555
Li3 O6 2.263666 1_555
Li3 O5 2.476777 1_554
Cr0 O0 2.031166 1_555
Cr0 O2 2.032693 1_555
Cr0 O6 2.035439 1_455
Cr0 O6 2.036296 1_555
Cr0 O4 2.049744 1_545
Cr0 O5 2.071528 1_555
Cr1 O1 2.021044 1_554
Cr1 O7 2.039793 1_555
Cr1 O7 2.040578 1_655
Cr1 O3 2.040682 1_555
Cr1 O4 2.042220 1_655
Cr1 O5 2.065969 1_554
O0 V1 2.015682 1_444
O0 V0 2.100976 1_555
O1 V1 2.014943 1_555
O1 V0 2.104263 1_555
O2 V1 2.041005 1_545
O2 V1 2.043809 1_445
O3 V0 2.041452 1_655
O3 V0 2.042221 1_555
O4 V1 2.105129 1_454
O5 V0 1.998683 1_555
O6 V1 2.109049 1_545
O7 V0 2.057910 1_555
