# generated using pymatgen
data_CuH32W6(Cl6O11)2
_symmetry_space_group_name_H-M   'P 1'
_cell_length_a   8.86131600
_cell_length_b   9.61233978
_cell_length_c   13.04827001
_cell_angle_alpha   104.44230982
_cell_angle_beta   103.74905994
_cell_angle_gamma   94.93337582
_symmetry_Int_Tables_number   1
_chemical_formula_structural   CuH32W6(Cl6O11)2
_chemical_formula_sum   'Cu1 H32 W6 Cl12 O22'
_cell_volume   1032.91982001
_cell_formula_units_Z   1
loop_
 _symmetry_equiv_pos_site_id
 _symmetry_equiv_pos_as_xyz
  1  'x, y, z'
loop_
 _atom_site_type_symbol
 _atom_site_label
 _atom_site_symmetry_multiplicity
 _atom_site_fract_x
 _atom_site_fract_y
 _atom_site_fract_z
 _atom_site_occupancy
  Cu  Cu0  1  0.50000000  0.00000000  0.50000000  1
  H  H0  1  0.44351000  0.16921600  0.37056300  1
  H  H1  1  0.55649000  0.83078400  0.62943700  1
  H  H2  1  0.62386600  0.13986900  0.39224000  1
  H  H3  1  0.37613400  0.86013100  0.60776000  1
  H  H4  1  0.19741500  0.94234300  0.39859400  1
  H  H5  1  0.80258500  0.05765700  0.60140600  1
  H  H6  1  0.22358900  0.08466000  0.50340800  1
  H  H7  1  0.77641100  0.91534000  0.49659200  1
  H  H8  1  0.94347900  0.82124400  0.39495100  1
  H  H9  1  0.05652100  0.17875600  0.60504900  1
  H  H10  1  0.79590300  0.71134900  0.36581300  1
  H  H11  1  0.20409700  0.28865100  0.63418700  1
  H  H12  1  0.96915500  0.89420200  0.82997900  1
  H  H13  1  0.03084500  0.10579800  0.17002100  1
  H  H14  1  0.08485600  0.84256900  0.75756500  1
  H  H15  1  0.91514400  0.15743100  0.24243500  1
  H  H16  1  0.67618500  0.67280100  0.72760600  1
  H  H17  1  0.32381500  0.32719900  0.27239400  1
  H  H18  1  0.69370200  0.62944900  0.60618200  1
  H  H19  1  0.30629800  0.37055100  0.39381800  1
  H  H20  1  0.21795600  0.66310400  0.58524800  1
  H  H21  1  0.78204400  0.33689600  0.41475200  1
  H  H22  1  0.10250800  0.77125400  0.56041800  1
  H  H23  1  0.89749200  0.22874600  0.43958200  1
  H  H24  1  0.99953300  0.05637200  0.73470500  1
  H  H25  1  0.00046700  0.94362800  0.26529500  1
  H  H26  1  0.98974300  0.22531600  0.76262500  1
  H  H27  1  0.01025700  0.77468400  0.23737500  1
  H  H28  1  0.77596200  0.58712900  0.45824900  1
  H  H29  1  0.22403800  0.41287100  0.54175100  1
  H  H30  1  0.60640500  0.50210400  0.42583500  1
  H  H31  1  0.39359500  0.49789600  0.57416500  1
  W  W0  1  0.64646100  0.71271000  0.98303500  1
  W  W1  1  0.35353900  0.28729000  0.01696500  1
  W  W2  1  0.53907400  0.38523300  0.82630900  1
  W  W3  1  0.46092600  0.61476700  0.17369100  1
  W  W4  1  0.74914500  0.47192100  0.10648100  1
  W  W5  1  0.25085500  0.52807900  0.89351900  1
  Cl  Cl0  1  0.61748800  0.23221900  0.11267100  1
  Cl  Cl1  1  0.38251200  0.76778100  0.88732900  1
  Cl  Cl2  1  0.58436600  0.85278200  0.15565500  1
  Cl  Cl3  1  0.41563400  0.14721800  0.84434500  1
  Cl  Cl4  1  0.78960000  0.32223700  0.92816800  1
  Cl  Cl5  1  0.21040000  0.67776300  0.07183200  1
  Cl  Cl6  1  0.56977600  0.28935800  0.64604100  1
  Cl  Cl7  1  0.43022400  0.71064200  0.35395900  1
  Cl  Cl8  1  0.78352000  0.91353400  0.95033100  1
  Cl  Cl9  1  0.21648000  0.08646600  0.04966900  1
  Cl  Cl10  1  0.99543100  0.44694900  0.21560000  1
  Cl  Cl11  1  0.00456900  0.55305100  0.78440000  1
  O  O0  1  0.64453300  0.57977300  0.84067000  1
  O  O1  1  0.35546700  0.42022700  0.15933000  1
  O  O2  1  0.67583700  0.57712800  0.23181200  1
  O  O3  1  0.32416300  0.42287200  0.76818800  1
  O  O4  1  0.82388900  0.65056000  0.07393400  1
  O  O5  1  0.17611100  0.34944000  0.92606600  1
  O  O6  1  0.51426500  0.09579800  0.38550400  1
  O  O7  1  0.48573500  0.90420200  0.61449600  1
  O  O8  1  0.26921900  0.99739300  0.47215600  1
  O  O9  1  0.73078100  0.00260700  0.52784400  1
  O  O10  1  0.87181700  0.77827300  0.43179600  1
  O  O11  1  0.12818300  0.22172700  0.56820400  1
  O  O12  1  0.02797800  0.92167700  0.78140500  1
  O  O13  1  0.97202200  0.07832300  0.21859500  1
  O  O14  1  0.65699900  0.70169000  0.65909400  1
  O  O15  1  0.34300100  0.29831000  0.34090600  1
  O  O16  1  0.19821000  0.76370500  0.61322800  1
  O  O17  1  0.80179000  0.23629500  0.38677200  1
  O  O18  1  0.96880700  0.13748600  0.70102200  1
  O  O19  1  0.03119300  0.86251400  0.29897800  1
  O  O20  1  0.71265900  0.50959100  0.47325600  1
  O  O21  1  0.28734100  0.49040900  0.52674400  1
loop_
_geom_bond_atom_site_label_1
_geom_bond_atom_site_label_2
_geom_bond_distance
_geom_bond_site_symmetry_2
Cu0 O7 1.962615 1_545
Cu0 O6 1.962615 1_555
Cu0 O8 1.987013 1_545
Cu0 O9 1.987013 1_555
H0 O6 1.007860 1_555
H0 O15 1.657889 1_555
H1 O7 1.007860 1_555
H1 O14 1.657889 1_555
H2 O6 1.000259 1_555
H3 O7 1.000259 1_555
H4 O8 1.002304 1_555
H5 O9 1.002304 1_555
H6 O8 0.999760 1_545
H7 O9 0.999760 1_565
H8 O10 1.002025 1_555
H9 O11 1.002025 1_555
H10 O10 0.990763 1_555
H11 O11 0.990763 1_555
H12 O12 0.979804 1_655
H13 O13 0.979804 1_455
H14 O12 0.975437 1_555
H15 O13 0.975437 1_555
H16 O14 0.982288 1_555
H17 O15 0.982288 1_555
H18 O14 0.985435 1_555
H19 O15 0.985435 1_555
H20 O16 0.991152 1_555
H21 O17 0.991152 1_555
H22 O16 0.978278 1_555
H23 O17 0.978278 1_555
H24 O18 1.012810 1_555
H24 O12 1.577289 1_645
H25 O19 1.012810 1_555
H25 O13 1.577289 1_465
H26 O18 0.978247 1_555
H27 O19 0.978247 1_555
H28 O20 0.980619 1_555
H29 O21 0.980619 1_555
H30 O20 0.981715 1_555
H31 O21 0.981715 1_555
Cl0 W4 2.520268 1_555
Cl0 W1 2.542565 1_555
Cl1 W5 2.520268 1_555
Cl1 W0 2.542565 1_555
Cl2 W0 2.528380 1_554
Cl2 W3 2.539051 1_555
Cl3 W1 2.528380 1_556
Cl3 W2 2.539051 1_555
Cl4 W2 2.508314 1_555
Cl4 W4 2.535243 1_556
Cl5 W3 2.508314 1_555
Cl5 W5 2.535243 1_554
Cl6 W2 2.392098 1_555
Cl6 Cu0 2.872304 1_555
Cl7 W3 2.392098 1_555
Cl7 Cu0 2.872304 1_565
Cl8 W0 2.374358 1_555
Cl9 W1 2.374358 1_555
Cl10 W4 2.373045 1_555
Cl11 W5 2.373045 1_555
O0 W2 1.961292 1_555
O0 W0 1.970029 1_555
O1 W3 1.961292 1_555
O1 W1 1.970029 1_555
O2 W3 1.975250 1_555
O2 W4 1.977900 1_555
O3 W2 1.975250 1_555
O3 W5 1.977900 1_555
O4 W0 1.965757 1_554
O4 W4 1.967090 1_555
O5 W1 1.965757 1_556
O5 W5 1.967090 1_555
