# generated using pymatgen
data_NaLiTi3O7
_symmetry_space_group_name_H-M   'P 1'
_cell_length_a   5.77037200
_cell_length_b   10.06715256
_cell_length_c   10.06715256
_cell_angle_alpha   111.47461962
_cell_angle_beta   90.00000000
_cell_angle_gamma   90.00000000
_symmetry_Int_Tables_number   1
_chemical_formula_structural   NaLiTi3O7
_chemical_formula_sum   'Na4 Li4 Ti12 O28'
_cell_volume   544.21529721
_cell_formula_units_Z   4
loop_
 _symmetry_equiv_pos_site_id
 _symmetry_equiv_pos_as_xyz
  1  'x, y, z'
loop_
 _atom_site_type_symbol
 _atom_site_label
 _atom_site_symmetry_multiplicity
 _atom_site_fract_x
 _atom_site_fract_y
 _atom_site_fract_z
 _atom_site_occupancy
  Na  Na0  1  0.25532300  0.11932700  0.11932700  1
  Na  Na1  1  0.74467700  0.88067300  0.88067300  1
  Na  Na2  1  0.25532300  0.38067300  0.38067300  1
  Na  Na3  1  0.74467700  0.61932700  0.61932700  1
  Li  Li0  1  0.25953600  0.06653000  0.43347000  1
  Li  Li1  1  0.74046400  0.56653000  0.93347000  1
  Li  Li2  1  0.74046400  0.93347000  0.56653000  1
  Li  Li3  1  0.25953600  0.43347000  0.06653000  1
  Ti  Ti0  1  0.50000000  0.25000000  0.75000000  1
  Ti  Ti1  1  0.50000000  0.75000000  0.25000000  1
  Ti  Ti2  1  0.00000000  0.25000000  0.75000000  1
  Ti  Ti3  1  0.00000000  0.75000000  0.25000000  1
  Ti  Ti4  1  0.75212800  0.26819000  0.48590900  1
  Ti  Ti5  1  0.24787200  0.51409100  0.73181000  1
  Ti  Ti6  1  0.75212800  0.01409100  0.23181000  1
  Ti  Ti7  1  0.24787200  0.76819000  0.98590900  1
  Ti  Ti8  1  0.24787200  0.73181000  0.51409100  1
  Ti  Ti9  1  0.75212800  0.48590900  0.26819000  1
  Ti  Ti10  1  0.24787200  0.98590900  0.76819000  1
  Ti  Ti11  1  0.75212800  0.23181000  0.01409100  1
  O  O0  1  0.25037400  0.85214000  0.38004800  1
  O  O1  1  0.74962600  0.61995200  0.14786000  1
  O  O2  1  0.25037400  0.11995200  0.64786000  1
  O  O3  1  0.74962600  0.35214000  0.88004800  1
  O  O4  1  0.74962600  0.14786000  0.61995200  1
  O  O5  1  0.25037400  0.38004800  0.85214000  1
  O  O6  1  0.74962600  0.88004800  0.35214000  1
  O  O7  1  0.25037400  0.64786000  0.11995200  1
  O  O8  1  0.50000000  0.36849100  0.63150900  1
  O  O9  1  0.50000000  0.86849100  0.13150900  1
  O  O10  1  0.50000000  0.63150900  0.36849100  1
  O  O11  1  0.50000000  0.13150900  0.86849100  1
  O  O12  1  0.00000000  0.13183100  0.86816900  1
  O  O13  1  0.00000000  0.63183100  0.36816900  1
  O  O14  1  0.00000000  0.86816900  0.13183100  1
  O  O15  1  0.00000000  0.36816900  0.63183100  1
  O  O16  1  0.52834800  0.14505800  0.35494200  1
  O  O17  1  0.47165200  0.64505800  0.85494200  1
  O  O18  1  0.47165200  0.85494200  0.64505800  1
  O  O19  1  0.52834800  0.35494200  0.14505800  1
  O  O20  1  0.75302400  0.41583300  0.41583300  1
  O  O21  1  0.24697600  0.58416700  0.58416700  1
  O  O22  1  0.75302400  0.08416700  0.08416700  1
  O  O23  1  0.24697600  0.91583300  0.91583300  1
  O  O24  1  0.02404000  0.85687500  0.64312500  1
  O  O25  1  0.97596000  0.35687500  0.14312500  1
  O  O26  1  0.97596000  0.14312500  0.35687500  1
  O  O27  1  0.02404000  0.64312500  0.85687500  1
loop_
_geom_bond_atom_site_label_1
_geom_bond_atom_site_label_2
_geom_bond_distance
_geom_bond_site_symmetry_2
Na0 O23 2.307183 1_544
Na0 O19 2.779486 1_555
Na0 O16 2.779486 1_555
Na1 O22 2.307183 1_566
Na1 O17 2.779486 1_555
Na1 O18 2.779486 1_555
Na2 O21 2.307183 1_555
Na2 O19 2.779486 1_555
Na2 O16 2.779486 1_555
Na3 O20 2.307183 1_555
Na3 O17 2.779486 1_555
Na3 O18 2.779486 1_555
Li0 O0 2.024945 1_545
Li0 O2 2.024945 1_555
Li0 O16 2.028200 1_555
Li0 O26 2.074155 1_455
Li1 O3 2.024945 1_555
Li1 O1 2.024945 1_556
Li1 O17 2.028200 1_555
Li1 O27 2.074155 1_655
Li2 O6 2.024945 1_555
Li2 O4 2.024945 1_565
Li2 O18 2.028200 1_555
Li2 O24 2.074155 1_655
Li3 O5 2.024945 1_554
Li3 O7 2.024945 1_555
Li3 O19 2.028200 1_555
Li3 O25 2.074155 1_455
O0 Ti1 1.964826 1_555
O0 Ti3 1.967993 1_555
O0 Ti8 2.117897 1_555
O1 Ti1 1.964826 1_555
O1 Ti3 1.967993 1_655
O1 Ti9 2.117897 1_555
O2 Ti0 1.964826 1_555
O2 Ti2 1.967993 1_555
O2 Ti10 2.117897 1_545
O3 Ti0 1.964826 1_555
O3 Ti2 1.967993 1_655
O3 Ti11 2.117897 1_556
O4 Ti0 1.964826 1_555
O4 Ti2 1.967993 1_655
O4 Ti4 2.117897 1_555
O5 Ti0 1.964826 1_555
O5 Ti2 1.967993 1_555
O5 Ti5 2.117897 1_555
O6 Ti1 1.964826 1_555
O6 Ti3 1.967993 1_655
O6 Ti6 2.117897 1_565
O7 Ti1 1.964826 1_555
O7 Ti3 1.967993 1_555
O7 Ti7 2.117897 1_554
O8 Ti0 1.971726 1_555
O8 Ti4 2.049652 1_555
O8 Ti5 2.049652 1_555
O9 Ti1 1.971726 1_555
O9 Ti6 2.049652 1_565
O9 Ti7 2.049652 1_554
O10 Ti1 1.971726 1_555
O10 Ti9 2.049652 1_555
O10 Ti8 2.049652 1_555
O11 Ti0 1.971726 1_555
O11 Ti11 2.049652 1_556
O11 Ti10 2.049652 1_545
O12 Ti2 1.966368 1_555
O12 Ti11 2.033294 1_456
O12 Ti10 2.033294 1_545
O13 Ti3 1.966368 1_555
O13 Ti9 2.033294 1_455
O13 Ti8 2.033294 1_555
O14 Ti3 1.966368 1_555
O14 Ti6 2.033294 1_465
O14 Ti7 2.033294 1_554
O15 Ti2 1.966368 1_555
O15 Ti4 2.033294 1_455
O15 Ti5 2.033294 1_555
O16 Ti6 1.935389 1_555
O16 Ti4 1.935389 1_555
O17 Ti7 1.935389 1_555
O17 Ti5 1.935389 1_555
O18 Ti10 1.935389 1_555
O18 Ti8 1.935389 1_555
O19 Ti11 1.935389 1_555
O19 Ti9 1.935389 1_555
O20 Ti4 1.864045 1_555
O20 Ti9 1.864045 1_555
O21 Ti5 1.864045 1_555
O21 Ti8 1.864045 1_555
O22 Ti11 1.864045 1_555
O22 Ti6 1.864045 1_555
O23 Ti7 1.864045 1_555
O23 Ti10 1.864045 1_555
O24 Ti8 1.934773 1_555
O24 Ti10 1.934773 1_555
O25 Ti9 1.934773 1_555
O25 Ti11 1.934773 1_555
O26 Ti6 1.934773 1_555
O26 Ti4 1.934773 1_555
O27 Ti5 1.934773 1_555
O27 Ti7 1.934773 1_555
