# generated using pymatgen
data_YbFeCu
_symmetry_space_group_name_H-M   'P 1'
_cell_length_a   5.17713785
_cell_length_b   5.17713785
_cell_length_c   5.17713785
_cell_angle_alpha   123.64235138
_cell_angle_beta   118.96642366
_cell_angle_gamma   87.80480179
_symmetry_Int_Tables_number   1
_chemical_formula_structural   YbFeCu
_chemical_formula_sum   'Yb2 Fe2 Cu2'
_cell_volume   95.89816105
_cell_formula_units_Z   2
loop_
 _symmetry_equiv_pos_site_id
 _symmetry_equiv_pos_as_xyz
  1  'x, y, z'
loop_
 _atom_site_type_symbol
 _atom_site_label
 _atom_site_symmetry_multiplicity
 _atom_site_fract_x
 _atom_site_fract_y
 _atom_site_fract_z
 _atom_site_occupancy
  Yb  Yb0  1  0.13027400  0.88027400  0.25000000  1
  Yb  Yb1  1  0.86972600  0.11972600  0.75000000  1
  Fe  Fe0  1  0.50000000  0.00000000  0.00000000  1
  Fe  Fe1  1  0.50000000  0.50000000  0.50000000  1
  Cu  Cu0  1  0.00000000  0.50000000  0.50000000  1
  Cu  Cu1  1  0.50000000  0.50000000  0.00000000  1
loop_
_geom_bond_atom_site_label_1
_geom_bond_atom_site_label_2
_geom_bond_distance
_geom_bond_site_symmetry_2
Fe0 Fe1 2.444774 1_555
Fe0 Fe1 2.444774 1_544
Fe0 Yb0 3.017058 1_545
Fe0 Yb1 3.017058 1_554
Fe0 Yb1 3.057771 1_454
Fe0 Yb1 3.057771 1_555
Fe0 Yb0 3.057771 1_544
Fe0 Yb0 3.057771 1_645
Fe1 Yb0 3.017058 1_545
Fe1 Yb1 3.017058 1_565
Fe1 Yb0 3.057771 1_555
Fe1 Yb1 3.057771 1_454
Fe1 Yb1 3.057771 1_555
Fe1 Yb0 3.057771 1_656
Cu0 Fe0 2.588569 1_566
Cu0 Fe1 2.588569 1_455
Cu0 Fe1 2.588569 1_555
Cu0 Fe0 2.588569 1_455
Cu0 Cu1 2.628903 1_455
Cu0 Cu1 2.628903 1_556
Cu0 Yb1 2.915910 1_454
Cu0 Yb1 2.915910 1_465
Cu0 Yb0 2.915910 1_556
Cu0 Yb0 2.915910 1_545
Cu0 Yb1 3.126741 1_455
Cu0 Yb0 3.126741 1_555
Cu1 Fe0 2.588569 1_555
Cu1 Fe0 2.588569 1_565
Cu1 Fe1 2.588569 1_555
Cu1 Fe1 2.588569 1_554
Cu1 Yb1 2.915910 1_554
Cu1 Yb1 2.915910 1_565
Cu1 Yb0 2.915910 1_544
Cu1 Yb0 2.915910 1_555
Cu1 Yb1 3.126741 1_454
Cu1 Yb0 3.126741 1_655
