# generated using pymatgen
data_LuCoC2
_symmetry_space_group_name_H-M   'P 1'
_cell_length_a   3.41267123
_cell_length_b   3.69712341
_cell_length_c   3.69712341
_cell_angle_alpha   106.10210849
_cell_angle_beta   90.00000000
_cell_angle_gamma   90.00000000
_symmetry_Int_Tables_number   1
_chemical_formula_structural   LuCoC2
_chemical_formula_sum   'Lu1 Co1 C2'
_cell_volume   44.81684748
_cell_formula_units_Z   1
loop_
 _symmetry_equiv_pos_site_id
 _symmetry_equiv_pos_as_xyz
  1  'x, y, z'
loop_
 _atom_site_type_symbol
 _atom_site_label
 _atom_site_symmetry_multiplicity
 _atom_site_fract_x
 _atom_site_fract_y
 _atom_site_fract_z
 _atom_site_occupancy
  Lu  Lu0  1  0.00000000  0.00139641  0.99860359  1
  Co  Co0  1  0.50000000  0.38459068  0.61540932  1
  C  C0  1  0.50000000  0.84931575  0.46030384  1
  C  C1  1  0.50000000  0.53969616  0.15068425  1
loop_
_geom_bond_atom_site_label_1
_geom_bond_atom_site_label_2
_geom_bond_distance
_geom_bond_site_symmetry_2
C0 C1 1.376168 1_555
C0 Co0 1.901499 1_565
C0 Co0 1.956371 1_555
C0 Lu0 2.562763 1_565
C0 Lu0 2.562763 1_665
C0 Lu0 2.583374 1_664
C0 Lu0 2.583374 1_564
C1 Co0 1.901499 1_554
C1 Co0 1.956371 1_555
C1 Lu0 2.562763 1_654
C1 Lu0 2.562763 1_554
C1 Lu0 2.583374 1_664
C1 Lu0 2.583374 1_564
