# generated using pymatgen
data_NaFe(SO4)2
_symmetry_space_group_name_H-M   'P 1'
_cell_length_a   5.19095300
_cell_length_b   14.33634700
_cell_length_c   8.30873900
_cell_angle_alpha   90.00000000
_cell_angle_beta   90.00000000
_cell_angle_gamma   90.00000000
_symmetry_Int_Tables_number   1
_chemical_formula_structural   NaFe(SO4)2
_chemical_formula_sum   'Na4 Fe4 S8 O32'
_cell_volume   618.33056908
_cell_formula_units_Z   4
loop_
 _symmetry_equiv_pos_site_id
 _symmetry_equiv_pos_as_xyz
  1  'x, y, z'
loop_
 _atom_site_type_symbol
 _atom_site_label
 _atom_site_symmetry_multiplicity
 _atom_site_fract_x
 _atom_site_fract_y
 _atom_site_fract_z
 _atom_site_occupancy
  Na  Na0  1  0.75000000  0.57965000  0.91911600  1
  Na  Na1  1  0.25000000  0.42035000  0.08088400  1
  Na  Na2  1  0.25000000  0.92035000  0.41911600  1
  Na  Na3  1  0.75000000  0.07965000  0.58088400  1
  Fe  Fe0  1  0.75000000  0.65267800  0.49626500  1
  Fe  Fe1  1  0.25000000  0.34732200  0.50373500  1
  Fe  Fe2  1  0.25000000  0.84732200  0.99626500  1
  Fe  Fe3  1  0.75000000  0.15267800  0.00373500  1
  S  S0  1  0.75000000  0.83598400  0.74650100  1
  S  S1  1  0.25000000  0.16401600  0.25349900  1
  S  S2  1  0.25000000  0.66401600  0.24650100  1
  S  S3  1  0.75000000  0.33598400  0.75349900  1
  S  S4  1  0.75000000  0.94146800  0.19621300  1
  S  S5  1  0.25000000  0.05853200  0.80378700  1
  S  S6  1  0.25000000  0.55853200  0.69621300  1
  S  S7  1  0.75000000  0.44146800  0.30378700  1
  O  O0  1  0.75000000  0.93531200  0.71752200  1
  O  O1  1  0.25000000  0.06468800  0.28247800  1
  O  O2  1  0.25000000  0.56468800  0.21752200  1
  O  O3  1  0.75000000  0.43531200  0.78247800  1
  O  O4  1  0.75000000  0.97124900  0.36425800  1
  O  O5  1  0.25000000  0.02875100  0.63574200  1
  O  O6  1  0.25000000  0.52875100  0.86425800  1
  O  O7  1  0.75000000  0.47124900  0.13574200  1
  O  O8  1  0.75000000  0.51993700  0.41998400  1
  O  O9  1  0.25000000  0.48006300  0.58001600  1
  O  O10  1  0.25000000  0.98006300  0.91998400  1
  O  O11  1  0.75000000  0.01993700  0.08001600  1
  O  O12  1  0.01557500  0.61749500  0.66785600  1
  O  O13  1  0.98442500  0.38250500  0.33214400  1
  O  O14  1  0.98442500  0.88250500  0.16785600  1
  O  O15  1  0.51557500  0.38250500  0.33214400  1
  O  O16  1  0.01557500  0.11749500  0.83214400  1
  O  O17  1  0.48442500  0.61749500  0.66785600  1
  O  O18  1  0.48442500  0.11749500  0.83214400  1
  O  O19  1  0.51557500  0.88250500  0.16785600  1
  O  O20  1  0.75000000  0.78458700  0.58901500  1
  O  O21  1  0.25000000  0.21541300  0.41098500  1
  O  O22  1  0.25000000  0.71541300  0.08901500  1
  O  O23  1  0.75000000  0.28458700  0.91098500  1
  O  O24  1  0.98229900  0.80466900  0.83912300  1
  O  O25  1  0.01770100  0.19533100  0.16087700  1
  O  O26  1  0.01770100  0.69533100  0.33912300  1
  O  O27  1  0.48229900  0.19533100  0.16087700  1
  O  O28  1  0.98229900  0.30466900  0.66087700  1
  O  O29  1  0.51770100  0.80466900  0.83912300  1
  O  O30  1  0.51770100  0.30466900  0.66087700  1
  O  O31  1  0.48229900  0.69533100  0.33912300  1
loop_
_geom_bond_atom_site_label_1
_geom_bond_atom_site_label_2
_geom_bond_distance
_geom_bond_site_symmetry_2
Na0 O3 2.360254 1_555
Na0 O7 2.377971 1_556
Na0 O12 2.559916 1_655
Na0 O17 2.559916 1_555
Na0 O6 2.734360 1_555
Na0 O6 2.734360 1_655
Na1 O2 2.360254 1_555
Na1 O6 2.377971 1_554
Na1 O13 2.559916 1_455
Na1 O15 2.559916 1_555
Na1 O7 2.734360 1_555
Na1 O7 2.734360 1_455
Na2 O1 2.360254 1_565
Na2 O5 2.377971 1_565
Na2 O19 2.559916 1_555
Na2 O14 2.559916 1_455
Na2 O4 2.734360 1_555
Na2 O4 2.734360 1_455
Na3 O0 2.360254 1_545
Na3 O4 2.377971 1_545
Na3 O16 2.559916 1_655
Na3 O18 2.559916 1_555
Na3 O5 2.734360 1_555
Na3 O5 2.734360 1_655
Fe0 O26 2.002423 1_655
Fe0 O31 2.002423 1_555
Fe0 O8 2.005789 1_555
Fe0 O20 2.042085 1_555
Fe0 O12 2.046351 1_655
Fe0 O17 2.046351 1_555
Fe1 O30 2.002423 1_555
Fe1 O28 2.002423 1_455
Fe1 O9 2.005789 1_555
Fe1 O21 2.042085 1_555
Fe1 O15 2.046351 1_555
Fe1 O13 2.046351 1_455
Fe2 O29 2.002423 1_555
Fe2 O24 2.002423 1_455
Fe2 O10 2.005789 1_555
Fe2 O22 2.042085 1_556
Fe2 O19 2.046351 1_556
Fe2 O14 2.046351 1_456
Fe3 O25 2.002423 1_655
Fe3 O27 2.002423 1_555
Fe3 O11 2.005789 1_555
Fe3 O23 2.042085 1_554
Fe3 O16 2.046351 1_654
Fe3 O18 2.046351 1_554
O0 S0 1.444213 1_555
O1 S1 1.444213 1_555
O2 S2 1.444213 1_555
O3 S3 1.444213 1_555
O4 S4 1.460061 1_555
O5 S5 1.460061 1_555
O6 S6 1.460061 1_555
O7 S7 1.460061 1_555
O8 S7 1.482440 1_555
O9 S6 1.482440 1_555
O10 S5 1.482440 1_565
O11 S4 1.482440 1_545
O12 S6 1.500296 1_555
O13 S7 1.500296 1_555
O14 S4 1.500296 1_555
O15 S7 1.500296 1_555
O16 S5 1.500296 1_555
O17 S6 1.500296 1_555
O18 S5 1.500296 1_555
O19 S4 1.500296 1_555
O20 S0 1.501712 1_555
O21 S1 1.501712 1_555
O22 S2 1.501712 1_555
O23 S3 1.501712 1_555
O24 S0 1.499291 1_555
O25 S1 1.499291 1_555
O26 S2 1.499291 1_555
O27 S1 1.499291 1_555
O28 S3 1.499291 1_555
O29 S0 1.499291 1_555
O30 S3 1.499291 1_555
O31 S2 1.499291 1_555
