# generated using pymatgen
data_LaNd3(GaO3)4
_symmetry_space_group_name_H-M   'P 1'
_cell_length_a   7.82341000
_cell_length_b   5.48592500
_cell_length_c   5.59864177
_cell_angle_alpha   89.93353099
_cell_angle_beta   90.00000000
_cell_angle_gamma   90.00000000
_symmetry_Int_Tables_number   1
_chemical_formula_structural   LaNd3(GaO3)4
_chemical_formula_sum   'La1 Nd3 Ga4 O12'
_cell_volume   240.28593164
_cell_formula_units_Z   1
loop_
 _symmetry_equiv_pos_site_id
 _symmetry_equiv_pos_as_xyz
  1  'x, y, z'
loop_
 _atom_site_type_symbol
 _atom_site_label
 _atom_site_symmetry_multiplicity
 _atom_site_fract_x
 _atom_site_fract_y
 _atom_site_fract_z
 _atom_site_occupancy
  La  La0  1  0.50000000  0.49152900  0.53928600  1
  Nd  Nd0  1  0.50000000  0.01095800  0.04710500  1
  Nd  Nd1  1  0.00000000  0.51116600  0.45017200  1
  Nd  Nd2  1  0.00000000  0.98985300  0.95292500  1
  Ga  Ga0  1  0.24849800  0.00048900  0.50084900  1
  Ga  Ga1  1  0.75100800  0.49957700  0.99779700  1
  Ga  Ga2  1  0.75150200  0.00048900  0.50084900  1
  Ga  Ga3  1  0.24899200  0.49957700  0.99779700  1
  O  O0  1  0.50000000  0.58374100  0.98354900  1
  O  O1  1  0.50000000  0.92468800  0.47828500  1
  O  O2  1  0.00000000  0.41651900  0.02148600  1
  O  O3  1  0.00000000  0.08484000  0.52289300  1
  O  O4  1  0.29235600  0.20458700  0.79607100  1
  O  O5  1  0.70902500  0.28993200  0.29090400  1
  O  O6  1  0.79466400  0.79051900  0.20870600  1
  O  O7  1  0.20386100  0.70824800  0.70782300  1
  O  O8  1  0.20533600  0.79051900  0.20870600  1
  O  O9  1  0.79613900  0.70824800  0.70782300  1
  O  O10  1  0.70764400  0.20458700  0.79607100  1
  O  O11  1  0.29097500  0.28993200  0.29090400  1
loop_
_geom_bond_atom_site_label_1
_geom_bond_atom_site_label_2
_geom_bond_distance
_geom_bond_site_symmetry_2
La0 O1 2.400302 1_555
La0 O11 2.415497 1_555
La0 O5 2.415497 1_555
La0 O0 2.538766 1_555
La0 O4 2.679263 1_555
La0 O10 2.679263 1_555
La0 O7 2.770212 1_555
La0 O9 2.770212 1_555
Nd0 O0 2.370946 1_544
Nd0 O4 2.395645 1_554
Nd0 O10 2.395645 1_554
Nd0 O1 2.459439 1_545
Nd0 O5 2.623795 1_555
Nd0 O11 2.623795 1_555
Nd0 O8 2.755497 1_545
Nd0 O6 2.755497 1_545
Nd1 O3 2.373500 1_555
Nd1 O7 2.407701 1_555
Nd1 O9 2.407701 1_455
Nd1 O2 2.456170 1_555
Nd1 O8 2.598456 1_555
Nd1 O6 2.598456 1_455
Nd1 O11 2.729961 1_555
Nd1 O5 2.729961 1_455
Nd2 O2 2.372362 1_566
Nd2 O6 2.413190 1_456
Nd2 O8 2.413190 1_556
Nd2 O3 2.462750 1_565
Nd2 O7 2.611174 1_555
Nd2 O9 2.611174 1_455
Nd2 O10 2.718065 1_465
Nd2 O4 2.718065 1_565
Ga0 O11 2.002247 1_555
Ga0 O3 2.002255 1_555
Ga0 O7 2.007656 1_545
Ga0 O1 2.015060 1_545
Ga0 O4 2.026713 1_555
Ga0 O8 2.029882 1_545
Ga1 O10 2.003430 1_555
Ga1 O2 2.004904 1_656
Ga1 O6 2.015641 1_556
Ga1 O9 2.016541 1_555
Ga1 O0 2.018844 1_555
Ga1 O5 2.029559 1_556
Ga2 O5 2.002247 1_555
Ga2 O3 2.002255 1_655
Ga2 O9 2.007656 1_545
Ga2 O1 2.015060 1_545
Ga2 O10 2.026713 1_555
Ga2 O6 2.029882 1_545
Ga3 O4 2.003430 1_555
Ga3 O2 2.004904 1_556
Ga3 O8 2.015641 1_556
Ga3 O7 2.016541 1_555
Ga3 O0 2.018844 1_555
Ga3 O11 2.029559 1_556
