# generated using pymatgen
data_SrHgAs2O7
_symmetry_space_group_name_H-M   'P 1'
_cell_length_a   5.92815000
_cell_length_b   7.42187090
_cell_length_c   7.68147209
_cell_angle_alpha   101.71003440
_cell_angle_beta   90.07302322
_cell_angle_gamma   98.74083705
_symmetry_Int_Tables_number   1
_chemical_formula_structural   SrHgAs2O7
_chemical_formula_sum   'Sr2 Hg2 As4 O14'
_cell_volume   326.91138168
_cell_formula_units_Z   2
loop_
 _symmetry_equiv_pos_site_id
 _symmetry_equiv_pos_as_xyz
  1  'x, y, z'
loop_
 _atom_site_type_symbol
 _atom_site_label
 _atom_site_symmetry_multiplicity
 _atom_site_fract_x
 _atom_site_fract_y
 _atom_site_fract_z
 _atom_site_occupancy
  Sr  Sr0  1  0.68905500  0.27313800  0.93708000  1
  Sr  Sr1  1  0.31094500  0.72686200  0.06292000  1
  Hg  Hg0  1  0.31133100  0.82698500  0.59515900  1
  Hg  Hg1  1  0.68866900  0.17301500  0.40484100  1
  As  As0  1  0.81487700  0.77531700  0.81704400  1
  As  As1  1  0.18512300  0.22468300  0.18295600  1
  As  As2  1  0.78963600  0.66756800  0.38051000  1
  As  As3  1  0.21036400  0.33243200  0.61949000  1
  O  O0  1  0.94007500  0.22460400  0.65034900  1
  O  O1  1  0.05992500  0.77539600  0.34965100  1
  O  O2  1  0.76366000  0.63078600  0.96202000  1
  O  O3  1  0.23634000  0.36921400  0.03798000  1
  O  O4  1  0.78638100  0.62109600  0.60125400  1
  O  O5  1  0.21361900  0.37890400  0.39874600  1
  O  O6  1  0.60829200  0.91562200  0.82509600  1
  O  O7  1  0.39170800  0.08437800  0.17490400  1
  O  O8  1  0.58336300  0.80708300  0.36588300  1
  O  O9  1  0.41663700  0.19291700  0.63411700  1
  O  O10  1  0.28207000  0.55147100  0.73951600  1
  O  O11  1  0.71793000  0.44852900  0.26048400  1
  O  O12  1  0.08930700  0.89287200  0.84122800  1
  O  O13  1  0.91069300  0.10712800  0.15877200  1
loop_
_geom_bond_atom_site_label_1
_geom_bond_atom_site_label_2
_geom_bond_distance
_geom_bond_site_symmetry_2
Hg0 O12 2.317543 1_555
Hg0 O1 2.334650 1_555
Hg0 O8 2.387097 1_555
Hg0 O6 2.412463 1_555
Hg0 O10 2.500821 1_555
Hg0 O9 2.647583 1_565
Hg1 O13 2.317543 1_555
Hg1 O0 2.334650 1_555
Hg1 O9 2.387097 1_555
Hg1 O7 2.412463 1_555
Hg1 O11 2.500821 1_555
Hg1 O8 2.647583 1_545
As0 O2 1.694047 1_555
As0 O12 1.715939 1_655
As0 O6 1.717451 1_555
As0 O4 1.804614 1_555
As1 O3 1.694047 1_555
As1 O13 1.715939 1_455
As1 O7 1.717451 1_555
As1 O5 1.804614 1_555
As2 O11 1.689418 1_555
As2 O1 1.718224 1_655
As2 O8 1.735452 1_555
As2 O4 1.797216 1_555
As3 O10 1.689418 1_555
As3 O0 1.718224 1_455
As3 O9 1.735452 1_555
As3 O5 1.797216 1_555
O0 Sr0 2.654138 1_555
O1 Sr1 2.654138 1_555
O2 Sr0 2.591292 1_555
O2 Sr1 2.945226 1_556
O2 Sr1 3.271292 1_656
O3 Sr1 2.591292 1_555
O3 Sr0 2.945226 1_554
O3 Sr0 3.271292 1_454
O6 Sr0 2.587709 1_565
O6 Sr1 2.950204 1_556
O7 Sr1 2.587709 1_545
O7 Sr0 2.950204 1_554
O8 Sr1 2.741190 1_555
O9 Sr0 2.741190 1_555
O10 Sr1 2.552193 1_556
O11 Sr0 2.552193 1_554
O12 Sr1 2.735392 1_556
O13 Sr0 2.735392 1_554
