# generated using pymatgen
data_Na3Li3Fe2P2(CO7)2
_symmetry_space_group_name_H-M   'P 1'
_cell_length_a   6.64251700
_cell_length_b   8.73692181
_cell_length_c   10.24225554
_cell_angle_alpha   92.46569174
_cell_angle_beta   90.40621598
_cell_angle_gamma   91.30346701
_symmetry_Int_Tables_number   1
_chemical_formula_structural   Na3Li3Fe2P2(CO7)2
_chemical_formula_sum   'Na6 Li6 Fe4 P4 C4 O28'
_cell_volume   593.68748379
_cell_formula_units_Z   2
loop_
 _symmetry_equiv_pos_site_id
 _symmetry_equiv_pos_as_xyz
  1  'x, y, z'
loop_
 _atom_site_type_symbol
 _atom_site_label
 _atom_site_symmetry_multiplicity
 _atom_site_fract_x
 _atom_site_fract_y
 _atom_site_fract_z
 _atom_site_occupancy
  Na  Na0  1  0.24503400  0.91599400  0.38071900  1
  Na  Na1  1  0.50074000  0.74260300  0.63044400  1
  Na  Na2  1  0.99870900  0.73989700  0.12378000  1
  Na  Na3  1  0.49945900  0.73770500  0.12282400  1
  Na  Na4  1  0.50142900  0.25834200  0.87418300  1
  Na  Na5  1  0.50285700  0.25820600  0.37323600  1
  Li  Li0  1  0.22678400  0.91859600  0.87459000  1
  Li  Li1  1  0.02702700  0.71925000  0.61729000  1
  Li  Li2  1  0.98386000  0.27133900  0.87989600  1
  Li  Li3  1  0.97975500  0.27579500  0.38009300  1
  Li  Li4  1  0.77777000  0.08937800  0.62773800  1
  Li  Li5  1  0.76650400  0.09473900  0.12394200  1
  Fe  Fe0  1  0.75382500  0.65097300  0.88646400  1
  Fe  Fe1  1  0.75289800  0.64891700  0.39369100  1
  Fe  Fe2  1  0.24357800  0.34545100  0.60962400  1
  Fe  Fe3  1  0.24254100  0.34493700  0.10570400  1
  P  P0  1  0.24160000  0.59187100  0.84989400  1
  P  P1  1  0.24478200  0.58050300  0.35562100  1
  P  P2  1  0.75763900  0.40949900  0.64750500  1
  P  P3  1  0.75128100  0.40506300  0.14315200  1
  C  C0  1  0.76177500  0.95771600  0.86218200  1
  C  C1  1  0.76067000  0.95618300  0.36280100  1
  C  C2  1  0.23597600  0.04983700  0.64595600  1
  C  C3  1  0.24657100  0.05042400  0.13440300  1
  O  O0  1  0.22481000  0.90281600  0.66008700  1
  O  O1  1  0.25722900  0.90628200  0.15416600  1
  O  O2  1  0.75575200  0.91964000  0.98388600  1
  O  O3  1  0.75099000  0.91899500  0.48424400  1
  O  O4  1  0.75505900  0.85077500  0.76918800  1
  O  O5  1  0.75485500  0.84756200  0.27058800  1
  O  O6  1  0.06764600  0.69821400  0.89590100  1
  O  O7  1  0.43916400  0.68311900  0.88788900  1
  O  O8  1  0.06682900  0.68284000  0.40355600  1
  O  O9  1  0.44045100  0.67109500  0.40020400  1
  O  O10  1  0.22850000  0.56895200  0.69747000  1
  O  O11  1  0.77022500  0.57031100  0.58872100  1
  O  O12  1  0.24136600  0.56263100  0.20368900  1
  O  O13  1  0.74578900  0.56167800  0.07888800  1
  O  O14  1  0.23126300  0.43332900  0.91197400  1
  O  O15  1  0.77772700  0.42895100  0.79937900  1
  O  O16  1  0.23109000  0.42024600  0.41374800  1
  O  O17  1  0.77414700  0.42974700  0.29481200  1
  O  O18  1  0.55766300  0.32149200  0.61108400  1
  O  O19  1  0.92727900  0.30287100  0.59405700  1
  O  O20  1  0.55730800  0.30643000  0.11141800  1
  O  O21  1  0.92683200  0.30443100  0.08980600  1
  O  O22  1  0.23373300  0.14298000  0.74825200  1
  O  O23  1  0.23655900  0.14874400  0.23369000  1
  O  O24  1  0.24959400  0.10684300  0.53119700  1
  O  O25  1  0.24484200  0.09905300  0.01596500  1
  O  O26  1  0.77449200  0.09936300  0.83043100  1
  O  O27  1  0.77574500  0.09739200  0.32997800  1
loop_
_geom_bond_atom_site_label_1
_geom_bond_atom_site_label_2
_geom_bond_distance
_geom_bond_site_symmetry_2
Na0 O24 2.220939 1_565
Na0 O1 2.320370 1_555
Na0 O8 2.353871 1_555
Na0 O9 2.542121 1_555
Na0 O23 2.583335 1_565
Na0 O0 2.872589 1_555
Na1 O0 2.344993 1_555
Na1 O4 2.354601 1_555
Na1 O11 2.393940 1_555
Na1 O9 2.441344 1_555
Na1 O10 2.454722 1_555
Na1 O3 2.738217 1_555
Na1 O7 2.741118 1_555
Na2 O1 2.235813 1_655
Na2 O13 2.294961 1_555
Na2 O6 2.395715 1_654
Na2 O5 2.398273 1_555
Na2 O12 2.422915 1_655
Na2 O2 2.720254 1_554
Na3 O1 2.221647 1_555
Na3 O13 2.304440 1_555
Na3 O5 2.419561 1_555
Na3 O12 2.444307 1_555
Na3 O7 2.461070 1_554
Na3 O2 2.748790 1_554
Na4 O26 2.343640 1_555
Na4 O22 2.369705 1_555
Na4 O14 2.406549 1_555
Na4 O20 2.471963 1_556
Na4 O15 2.484150 1_555
Na4 O25 2.655485 1_556
Na4 O18 2.799700 1_555
Na5 O16 2.347684 1_555
Na5 O27 2.351558 1_555
Na5 O23 2.419911 1_555
Na5 O17 2.477907 1_555
Na5 O18 2.497040 1_555
Na5 O24 2.705181 1_555
Na5 O20 2.757424 1_555
Li0 O25 2.095085 1_566
Li0 O6 2.195287 1_555
Li0 O0 2.195316 1_555
Li0 O22 2.394744 1_565
Li0 O7 2.528801 1_555
Li1 O0 2.079859 1_555
Li1 O10 2.084927 1_555
Li1 O11 2.132578 1_455
Li1 O8 2.217081 1_555
Li2 O26 2.068303 1_555
Li2 O15 2.149103 1_555
Li2 O14 2.158290 1_655
Li2 O21 2.193725 1_556
Li2 O22 2.411820 1_655
Li3 O27 2.086767 1_555
Li3 O16 2.087433 1_655
Li3 O17 2.145971 1_555
Li3 O19 2.224859 1_555
Li3 O23 2.523828 1_655
Li4 O3 2.050284 1_545
Li4 O26 2.074402 1_555
Li4 O19 2.135525 1_555
Li4 O18 2.537810 1_555
Li5 O2 2.051337 1_544
Li5 O27 2.109846 1_555
Li5 O21 2.141146 1_555
Li5 O20 2.345842 1_555
Fe0 O15 2.109670 1_555
Fe0 O7 2.115318 1_555
Fe0 O6 2.116521 1_655
Fe0 O13 2.151202 1_556
Fe0 O4 2.161040 1_555
Fe0 O2 2.510509 1_555
Fe1 O9 2.090113 1_555
Fe1 O8 2.100669 1_655
Fe1 O17 2.135361 1_555
Fe1 O11 2.143239 1_555
Fe1 O5 2.188499 1_555
Fe1 O3 2.498305 1_555
Fe2 O18 2.101535 1_555
Fe2 O10 2.119351 1_555
Fe2 O19 2.129013 1_455
Fe2 O16 2.138156 1_555
Fe2 O24 2.202946 1_555
Fe2 O22 2.315539 1_555
Fe3 O12 2.112181 1_555
Fe3 O21 2.122741 1_455
Fe3 O20 2.126078 1_555
Fe3 O14 2.161381 1_554
Fe3 O23 2.202076 1_555
Fe3 O25 2.300412 1_555
C0 O26 1.294104 1_565
C0 O2 1.304557 1_555
C0 O4 1.305028 1_555
C1 O27 1.294482 1_565
C1 O3 1.300700 1_555
C1 O5 1.309517 1_555
C2 O24 1.299083 1_555
C2 O22 1.299091 1_555
C2 O0 1.299320 1_545
C3 O1 1.287537 1_545
C3 O25 1.302520 1_555
C3 O23 1.305701 1_555
O6 P0 1.561841 1_555
O7 P0 1.558097 1_555
O8 P1 1.567251 1_555
O9 P1 1.561400 1_555
O10 P0 1.566936 1_555
O11 P2 1.552957 1_555
O12 P1 1.557195 1_555
O13 P3 1.544775 1_555
O14 P0 1.549120 1_555
O15 P2 1.561937 1_555
O16 P1 1.545911 1_555
O17 P3 1.564860 1_555
O18 P2 1.554574 1_555
O19 P2 1.565230 1_555
O20 P3 1.558157 1_555
O21 P3 1.563869 1_555
