# generated using pymatgen
data_Cu5Sn2Te7
_symmetry_space_group_name_H-M   'P 1'
_cell_length_a   7.44291777
_cell_length_b   7.44291777
_cell_length_c   9.59920554
_cell_angle_alpha   82.64088843
_cell_angle_beta   82.64088843
_cell_angle_gamma   48.16900384
_symmetry_Int_Tables_number   1
_chemical_formula_structural   Cu5Sn2Te7
_chemical_formula_sum   'Cu5 Sn2 Te7'
_cell_volume   392.30886686
_cell_formula_units_Z   1
loop_
 _symmetry_equiv_pos_site_id
 _symmetry_equiv_pos_as_xyz
  1  'x, y, z'
loop_
 _atom_site_type_symbol
 _atom_site_label
 _atom_site_symmetry_multiplicity
 _atom_site_fract_x
 _atom_site_fract_y
 _atom_site_fract_z
 _atom_site_occupancy
  Cu  Cu0  1  0.73401161  0.26598839  0.50000000  1
  Cu  Cu1  1  0.88332588  0.40689982  0.07320289  1
  Cu  Cu2  1  0.59310018  0.11667412  0.92679711  1
  Cu  Cu3  1  0.44790800  0.98125321  0.35755230  1
  Cu  Cu4  1  0.01874679  0.55209200  0.64244770  1
  Sn  Sn0  1  0.14885685  0.70277775  0.22351047  1
  Sn  Sn1  1  0.29722225  0.85114315  0.77648953  1
  Te  Te0  1  0.51743049  0.48256951  -0.00000000  1
  Te  Te1  1  0.35486971  0.34894102  0.44505834  1
  Te  Te2  1  0.65105898  0.64513029  0.55494166  1
  Te  Te3  1  0.04868493  0.11687171  0.29209446  1
  Te  Te4  1  0.88312829  0.95131507  0.70790554  1
  Te  Te5  1  0.73875439  0.81109534  0.13792905  1
  Te  Te6  1  0.18890466  0.26124561  0.86207095  1
loop_
_geom_bond_atom_site_label_1
_geom_bond_atom_site_label_2
_geom_bond_distance
_geom_bond_site_symmetry_2
Cu0 Te2 2.568355 1_555
Cu0 Te1 2.568355 1_555
Cu0 Te4 2.569602 1_545
Cu0 Te3 2.569602 1_655
Cu1 Te3 2.558568 1_655
Cu1 Te6 2.559059 1_654
Cu1 Te0 2.563292 1_555
Cu1 Te5 2.565925 1_555
Cu2 Te4 2.558568 1_545
Cu2 Te5 2.559059 1_546
Cu2 Te0 2.563292 1_556
Cu2 Te6 2.565925 1_555
Cu3 Te3 2.560849 1_565
Cu3 Te1 2.566428 1_565
Cu3 Te5 2.567598 1_555
Cu3 Te2 2.570813 1_555
Cu4 Te4 2.560849 1_455
Cu4 Te2 2.566428 1_455
Cu4 Te6 2.567598 1_555
Cu4 Te1 2.570813 1_555
Sn0 Te3 2.795961 1_565
Sn0 Te1 2.797111 1_555
Sn0 Te5 2.798579 1_455
Sn0 Te0 2.865446 1_555
Sn1 Te4 2.795961 1_455
Sn1 Te2 2.797111 1_555
Sn1 Te6 2.798579 1_565
Sn1 Te0 2.865446 1_556
