# generated using pymatgen
data_Lu6Al43V4
_symmetry_space_group_name_H-M   'P 1'
_cell_length_a   10.82988726
_cell_length_b   10.82987888
_cell_length_c   17.45261769
_cell_angle_alpha   90.00000000
_cell_angle_beta   90.00000000
_cell_angle_gamma   119.99996903
_symmetry_Int_Tables_number   1
_chemical_formula_structural   Lu6Al43V4
_chemical_formula_sum   'Lu12 Al86 V8'
_cell_volume   1772.71482927
_cell_formula_units_Z   2
loop_
 _symmetry_equiv_pos_site_id
 _symmetry_equiv_pos_as_xyz
  1  'x, y, z'
loop_
 _atom_site_type_symbol
 _atom_site_label
 _atom_site_symmetry_multiplicity
 _atom_site_fract_x
 _atom_site_fract_y
 _atom_site_fract_z
 _atom_site_occupancy
  Lu  Lu0  1  0.53141769  0.00000009  0.59596032  1
  Lu  Lu1  1  0.46858231  -0.00000009  0.40403968  1
  Lu  Lu2  1  0.00000000  0.53141449  0.59595907  1
  Lu  Lu3  1  0.46858231  -0.00000009  0.09596032  1
  Lu  Lu4  1  0.00000000  0.53141449  0.90404093  1
  Lu  Lu5  1  1.00000000  0.46858551  0.40404093  1
  Lu  Lu6  1  0.53141769  0.00000009  0.90403968  1
  Lu  Lu7  1  1.00000000  0.46858551  0.09595907  1
  Lu  Lu8  1  0.46858231  0.46858240  0.59596032  1
  Lu  Lu9  1  0.53141769  0.53141760  0.40403968  1
  Lu  Lu10  1  0.53141769  0.53141760  0.09596032  1
  Lu  Lu11  1  0.46858231  0.46858240  0.90403968  1
  Al  Al0  1  0.14746761  0.59815220  0.75000000  1
  Al  Al1  1  0.85253239  0.40184780  0.25000000  1
  Al  Al2  1  0.40185197  0.54931712  0.75000000  1
  Al  Al3  1  0.59814803  0.14746515  0.75000000  1
  Al  Al4  1  0.59814803  0.45068288  0.25000000  1
  Al  Al5  1  0.40185197  0.85253485  0.25000000  1
  Al  Al6  1  0.45067540  0.85252829  0.75000000  1
  Al  Al7  1  0.54932460  0.40185289  0.75000000  1
  Al  Al8  1  0.54932460  0.14747171  0.25000000  1
  Al  Al9  1  0.45067540  0.59814711  0.25000000  1
  Al  Al10  1  0.85253239  0.45068458  0.75000000  1
  Al  Al11  1  0.14746761  0.54931542  0.25000000  1
  Al  Al12  1  0.15642084  0.00000458  0.11569787  1
  Al  Al13  1  0.84357916  -0.00000458  0.88430213  1
  Al  Al14  1  1.00000000  0.15642710  0.11570257  1
  Al  Al15  1  0.84357916  -0.00000458  0.61569787  1
  Al  Al16  1  1.00000000  0.15642710  0.38429743  1
  Al  Al17  1  0.00000000  0.84357290  0.88429743  1
  Al  Al18  1  0.15642084  0.00000458  0.38430213  1
  Al  Al19  1  0.00000000  0.84357290  0.61570257  1
  Al  Al20  1  0.84357916  0.84358374  0.11569787  1
  Al  Al21  1  0.15642084  0.15641626  0.88430213  1
  Al  Al22  1  0.15642084  0.15641626  0.61569787  1
  Al  Al23  1  0.84357916  0.84358374  0.38430213  1
  Al  Al24  1  0.24717668  0.49435045  0.49999899  1
  Al  Al25  1  0.75282332  0.50564955  0.50000101  1
  Al  Al26  1  0.50564997  0.75282498  0.50000000  1
  Al  Al27  1  0.75282332  0.50564955  0.99999899  1
  Al  Al28  1  0.49435003  0.24717502  -0.00000000  1
  Al  Al29  1  0.49435003  0.24717502  0.50000000  1
  Al  Al30  1  0.24717668  0.49435045  0.00000101  1
  Al  Al31  1  0.50564997  0.75282498  0.00000000  1
  Al  Al32  1  0.24717668  0.75282623  0.50000101  1
  Al  Al33  1  0.75282332  0.24717377  0.49999899  1
  Al  Al34  1  0.75282332  0.24717377  0.00000101  1
  Al  Al35  1  0.24717668  0.75282623  0.99999899  1
  Al  Al36  1  0.14705457  -0.00000042  0.75000000  1
  Al  Al37  1  0.85294543  0.00000042  0.25000000  1
  Al  Al38  1  0.00000000  0.14705392  0.75000000  1
  Al  Al39  1  -0.00000000  0.85294608  0.25000000  1
  Al  Al40  1  0.85294543  0.85294501  0.75000000  1
  Al  Al41  1  0.14705457  0.14705499  0.25000000  1
  Al  Al42  1  0.33333396  0.66666484  0.62611545  1
  Al  Al43  1  0.66666604  0.33333516  0.37388455  1
  Al  Al44  1  0.66666604  0.33333516  0.12611545  1
  Al  Al45  1  0.66666604  0.33332988  0.87388455  1
  Al  Al46  1  0.33333396  0.66666484  0.87388455  1
  Al  Al47  1  0.33333396  0.66667012  0.12611545  1
  Al  Al48  1  0.33333396  0.66667012  0.37388455  1
  Al  Al49  1  0.66666604  0.33332988  0.62611545  1
  Al  Al50  1  0.25250137  0.00000115  0.52964325  1
  Al  Al51  1  0.74749863  0.99999885  0.47035675  1
  Al  Al52  1  0.00000000  0.25249975  0.52964403  1
  Al  Al53  1  0.74749863  0.99999885  0.02964325  1
  Al  Al54  1  0.00000000  0.25249975  0.97035597  1
  Al  Al55  1  1.00000000  0.74750025  0.47035597  1
  Al  Al56  1  0.25250137  0.00000115  0.97035675  1
  Al  Al57  1  1.00000000  0.74750025  0.02964403  1
  Al  Al58  1  0.74749863  0.74749978  0.52964325  1
  Al  Al59  1  0.25250137  0.25250022  0.47035675  1
  Al  Al60  1  0.25250137  0.25250022  0.02964325  1
  Al  Al61  1  0.74749863  0.74749978  0.97035675  1
  Al  Al62  1  0.15822454  0.39279237  0.66412871  1
  Al  Al63  1  0.84177546  0.60720763  0.33587129  1
  Al  Al64  1  0.60720646  0.76542210  0.66412426  1
  Al  Al65  1  0.84177546  0.60720763  0.16412871  1
  Al  Al66  1  0.39279354  0.15821663  0.83587574  1
  Al  Al67  1  0.39279354  0.23457790  0.33587574  1
  Al  Al68  1  0.15822454  0.39279237  0.83587129  1
  Al  Al69  1  0.60720646  0.84178337  0.16412426  1
  Al  Al70  1  0.23457319  0.84177684  0.66412837  1
  Al  Al71  1  0.39279354  0.23457790  0.16412426  1
  Al  Al72  1  0.76542681  0.60720465  0.83587163  1
  Al  Al73  1  0.76542681  0.15822316  0.33587163  1
  Al  Al74  1  0.60720646  0.76542210  0.83587574  1
  Al  Al75  1  0.23457319  0.39279535  0.16412837  1
  Al  Al76  1  0.60720646  0.84178337  0.33587574  1
  Al  Al77  1  0.39279354  0.15821663  0.66412426  1
  Al  Al78  1  0.76542681  0.15822316  0.16412837  1
  Al  Al79  1  0.23457319  0.39279535  0.33587163  1
  Al  Al80  1  0.23457319  0.84177684  0.83587163  1
  Al  Al81  1  0.76542681  0.60720465  0.66412837  1
  Al  Al82  1  0.84177546  0.23456884  0.83587129  1
  Al  Al83  1  0.15822454  0.76543116  0.16412871  1
  Al  Al84  1  0.15822454  0.76543116  0.33587129  1
  Al  Al85  1  0.84177546  0.23456884  0.66412871  1
  V  V0  1  0.00000000  -0.00000000  0.50000000  1
  V  V1  1  0.00000000  -0.00000000  0.00000000  1
  V  V2  1  0.73014305  -0.00000246  0.75000000  1
  V  V3  1  0.26985695  0.00000246  0.25000000  1
  V  V4  1  1.00000000  0.73014391  0.75000000  1
  V  V5  1  0.00000000  0.26985609  0.25000000  1
  V  V6  1  0.26985695  0.26985449  0.75000000  1
  V  V7  1  0.73014305  0.73014551  0.25000000  1
loop_
_geom_bond_atom_site_label_1
_geom_bond_atom_site_label_2
_geom_bond_distance
_geom_bond_site_symmetry_2
Lu0 Lu1 3.417945 1_555
Lu0 V2 3.443745 1_555
Lu1 V3 3.443745 1_555
Lu2 Lu5 3.417888 1_455
Lu2 V4 3.443780 1_455
Lu3 Lu6 3.417945 1_554
Lu3 V3 3.443745 1_555
Lu4 Lu7 3.417888 1_456
Lu4 V4 3.443780 1_455
Lu5 V5 3.443780 1_655
Lu6 V2 3.443745 1_555
Lu7 V5 3.443780 1_655
Lu8 Lu9 3.417945 1_555
Lu8 V6 3.443745 1_555
Lu9 V7 3.443745 1_555
Lu10 Lu11 3.417945 1_554
Lu10 V7 3.443745 1_555
Lu11 V6 3.443745 1_555
Al0 V4 2.622375 1_455
Al0 Al62 2.732210 1_555
Al0 Al68 2.732210 1_555
Al0 Al80 2.758315 1_555
Al0 Al70 2.758315 1_555
Al0 Al10 2.766186 1_455
Al0 Al42 2.789897 1_555
Al0 Al46 2.789897 1_555
Al0 Lu2 3.024281 1_555
Al0 Lu4 3.024281 1_555
Al1 V5 2.622375 1_655
Al1 Al65 2.732210 1_555
Al1 Al63 2.732210 1_555
Al1 Al78 2.758315 1_555
Al1 Al73 2.758315 1_555
Al1 Al11 2.766186 1_655
Al1 Al43 2.789897 1_555
Al1 Al44 2.789897 1_555
Al1 Lu7 3.024281 1_555
Al1 Lu5 3.024281 1_555
Al2 V6 2.622406 1_555
Al2 Al74 2.732175 1_555
Al2 Al64 2.732175 1_555
Al2 Al62 2.758342 1_555
Al2 Al68 2.758342 1_555
Al2 Al7 2.766199 1_555
Al2 Al42 2.789886 1_555
Al2 Al46 2.789886 1_555
Al2 Lu8 3.024252 1_555
Al2 Lu11 3.024252 1_555
Al3 V2 2.622405 1_555
Al3 Al77 2.732180 1_555
Al3 Al66 2.732180 1_555
Al3 Al85 2.758340 1_555
Al3 Al82 2.758340 1_555
Al3 Al6 2.766199 1_545
Al3 Al49 2.789880 1_555
Al3 Al45 2.789880 1_555
Al3 Lu0 3.024252 1_555
Al3 Lu6 3.024252 1_555
Al4 V7 2.622406 1_555
Al4 Al71 2.732175 1_555
Al4 Al67 2.732175 1_555
Al4 Al63 2.758342 1_555
Al4 Al65 2.758342 1_555
Al4 Al9 2.766199 1_555
Al4 Al43 2.789886 1_555
Al4 Al44 2.789886 1_555
Al4 Lu9 3.024252 1_555
Al4 Lu10 3.024252 1_555
Al5 V3 2.622405 1_565
Al5 Al69 2.732180 1_555
Al5 Al76 2.732180 1_555
Al5 Al83 2.758340 1_555
Al5 Al84 2.758340 1_555
Al5 Al8 2.766199 1_565
Al5 Lu3 3.024252 1_565
Al5 Lu1 3.024252 1_565
Al6 V2 2.622454 1_565
Al6 Al80 2.732107 1_555
Al6 Al70 2.732107 1_555
Al6 Al64 2.758461 1_555
Al6 Al74 2.758461 1_555
Al6 Lu6 3.024282 1_565
Al6 Lu0 3.024282 1_565
Al7 V6 2.622454 1_555
Al7 Al81 2.732111 1_555
Al7 Al72 2.732111 1_555
Al7 Al77 2.758454 1_555
Al7 Lu8 3.024282 1_555
Al7 Lu11 3.024282 1_555
Al8 V3 2.622454 1_555
Al8 Lu3 3.024282 1_555
Al8 Lu1 3.024282 1_555
Al9 V7 2.622454 1_555
Al9 Lu9 3.024282 1_555
Al9 Lu10 3.024282 1_555
Al10 V4 2.622375 1_555
Al10 Al85 2.732201 1_555
Al10 Al82 2.732201 1_555
Al10 Al72 2.758324 1_555
Al10 Al81 2.758324 1_555
Al10 Al45 2.789898 1_555
Al10 Al49 2.789898 1_555
Al10 Lu4 3.024281 1_655
Al10 Lu2 3.024281 1_655
Al11 V5 2.622375 1_555
Al11 Al83 2.732201 1_555
Al11 Al84 2.732201 1_555
Al11 Al79 2.758324 1_555
Al11 Al75 2.758324 1_555
Al11 Al48 2.789898 1_555
Al11 Al47 2.789898 1_555
Al11 Lu7 3.024281 1_455
Al11 Lu5 3.024281 1_455
Al12 V1 2.635700 1_555
Al12 V3 2.646360 1_555
Al12 Al71 2.686604 1_555
Al12 Al83 2.686649 1_545
Al12 Al56 2.741718 1_554
Al12 Al60 2.823205 1_555
Al12 Al57 2.823268 1_445
Al12 Al41 2.863911 1_555
Al12 Al39 2.863949 1_545
Al12 Al20 2.934130 1_445
Al12 Al14 2.934143 1_455
Al12 Lu3 3.398203 1_555
Al13 V1 2.635700 1_656
Al13 V2 2.646360 1_555
Al13 Al74 2.686604 1_545
Al13 Al82 2.686649 1_555
Al13 Al53 2.741718 1_546
Al13 Al61 2.823205 1_545
Al13 Al54 2.823268 1_655
Al13 Al40 2.863911 1_545
Al13 Al38 2.863949 1_655
Al13 Al21 2.934130 1_655
Al13 Al17 2.934143 1_645
Al13 Lu6 3.398203 1_555
Al14 V1 2.635821 1_655
Al14 V5 2.646245 1_655
Al14 Al75 2.686577 1_655
Al14 Al78 2.686582 1_555
Al14 Al54 2.741767 1_654
Al14 Al60 2.823308 1_655
Al14 Al53 2.823308 1_545
Al14 Al41 2.863890 1_655
Al14 Al37 2.863890 1_555
Al14 Al20 2.934143 1_545
Al14 Lu7 3.398153 1_555
Al15 V0 2.635700 1_655
Al15 V2 2.646360 1_555
Al15 Al64 2.686604 1_545
Al15 Al85 2.686649 1_555
Al15 Al51 2.741718 1_545
Al15 Al58 2.823205 1_545
Al15 Al52 2.823268 1_655
Al15 Al40 2.863911 1_545
Al15 Al38 2.863949 1_655
Al15 Al22 2.934130 1_655
Al15 Al19 2.934143 1_645
Al15 Lu0 3.398203 1_555
Al16 V0 2.635821 1_655
Al16 V5 2.646245 1_655
Al16 Al79 2.686577 1_655
Al16 Al73 2.686582 1_555
Al16 Al52 2.741767 1_655
Al16 Al59 2.823308 1_655
Al16 Al51 2.823308 1_545
Al16 Al41 2.863890 1_655
Al16 Al37 2.863890 1_555
Al16 Al18 2.934143 1_655
Al16 Al23 2.934143 1_545
Al16 Lu5 3.398153 1_555
Al17 V1 2.635821 1_566
Al17 V4 2.646245 1_455
Al17 Al72 2.686577 1_455
Al17 Al80 2.686582 1_555
Al17 Al57 2.741767 1_456
Al17 Al61 2.823308 1_455
Al17 Al56 2.823308 1_565
Al17 Al40 2.863890 1_455
Al17 Al36 2.863890 1_565
Al17 Al21 2.934143 1_565
Al17 Lu4 3.398153 1_555
Al18 V0 2.635700 1_555
Al18 V3 2.646360 1_555
Al18 Al67 2.686604 1_555
Al18 Al84 2.686649 1_545
Al18 Al50 2.741718 1_555
Al18 Al59 2.823205 1_555
Al18 Al55 2.823268 1_445
Al18 Al41 2.863911 1_555
Al18 Al39 2.863949 1_545
Al18 Al23 2.934130 1_445
Al18 Lu1 3.398203 1_555
Al19 V0 2.635821 1_565
Al19 V4 2.646245 1_455
Al19 Al81 2.686577 1_455
Al19 Al70 2.686582 1_555
Al19 Al55 2.741767 1_455
Al19 Al58 2.823308 1_455
Al19 Al50 2.823308 1_565
Al19 Al40 2.863890 1_455
Al19 Al36 2.863890 1_565
Al19 Al22 2.934143 1_565
Al19 Lu2 3.398153 1_555
Al20 V1 2.635700 1_665
Al20 V7 2.646360 1_555
Al20 Al69 2.686598 1_555
Al20 Al65 2.686639 1_555
Al20 Al61 2.741718 1_554
Al20 Al53 2.823205 1_555
Al20 Al57 2.823268 1_555
Al20 Al37 2.863911 1_565
Al20 Al39 2.863949 1_655
Al20 Lu10 3.398204 1_555
Al21 V1 2.635700 1_556
Al21 V6 2.646360 1_555
Al21 Al66 2.686598 1_555
Al21 Al68 2.686639 1_555
Al21 Al60 2.741718 1_556
Al21 Al56 2.823205 1_555
Al21 Al54 2.823268 1_555
Al21 Al36 2.863911 1_555
Al21 Al38 2.863949 1_555
Al21 Lu11 3.398204 1_555
Al22 V0 2.635700 1_555
Al22 V6 2.646360 1_555
Al22 Al77 2.686598 1_555
Al22 Al62 2.686639 1_555
Al22 Al59 2.741718 1_555
Al22 Al50 2.823205 1_555
Al22 Al52 2.823268 1_555
Al22 Al36 2.863911 1_555
Al22 Al38 2.863949 1_555
Al22 Lu8 3.398204 1_555
Al23 V0 2.635700 1_665
Al23 V7 2.646360 1_555
Al23 Al76 2.686598 1_555
Al23 Al63 2.686639 1_555
Al23 Al58 2.741718 1_555
Al23 Al51 2.823205 1_555
Al23 Al55 2.823268 1_555
Al23 Al37 2.863911 1_565
Al23 Al39 2.863949 1_655
Al23 Lu9 3.398204 1_555
Al24 Al59 2.698565 1_555
Al24 Al52 2.698589 1_555
Al24 Al42 2.730668 1_555
Al24 Al48 2.730669 1_555
Al24 Al26 2.799244 1_555
Al24 Al32 2.799261 1_555
Al24 Al79 3.046838 1_555
Al24 Al62 3.046884 1_555
Al24 Lu8 3.049808 1_555
Al24 Lu5 3.049816 1_455
Al24 Lu9 3.347551 1_555
Al24 Lu2 3.347566 1_555
Al25 Al58 2.698565 1_555
Al25 Al55 2.698589 1_555
Al25 Al43 2.730668 1_555
Al25 Al49 2.730669 1_555
Al25 Al29 2.799244 1_555
Al25 Al33 2.799261 1_555
Al25 Al81 3.046838 1_555
Al25 Al63 3.046884 1_555
Al25 Lu9 3.049808 1_555
Al25 Lu2 3.049816 1_655
Al25 Lu8 3.347551 1_555
Al25 Lu5 3.347566 1_555
Al26 Al58 2.698557 1_555
Al26 Al51 2.698557 1_555
Al26 Al42 2.730663 1_555
Al26 Al48 2.730663 1_555
Al26 Al32 2.799243 1_555
Al26 Al76 3.046800 1_555
Al26 Al64 3.046802 1_555
Al26 Lu9 3.049811 1_555
Al26 Lu0 3.049811 1_565
Al26 Lu8 3.347570 1_555
Al26 Lu1 3.347570 1_565
Al27 Al61 2.698565 1_555
Al27 Al57 2.698589 1_556
Al27 Al44 2.730668 1_556
Al27 Al45 2.730669 1_555
Al27 Al28 2.799244 1_556
Al27 Al34 2.799261 1_556
Al27 Al72 3.046838 1_555
Al27 Al65 3.046884 1_556
Al27 Lu10 3.049808 1_556
Al27 Lu4 3.049816 1_655
Al27 Lu11 3.347551 1_555
Al27 Lu7 3.347566 1_556
Al28 Al60 2.698557 1_555
Al28 Al56 2.698557 1_554
Al28 Al44 2.730663 1_555
Al28 Al45 2.730663 1_554
Al28 Al34 2.799243 1_555
Al28 Al66 3.046800 1_554
Al28 Al71 3.046802 1_555
Al28 Lu11 3.049811 1_554
Al28 Lu3 3.049811 1_555
Al28 Lu10 3.347570 1_555
Al28 Lu6 3.347570 1_554
Al29 Al59 2.698557 1_555
Al29 Al50 2.698557 1_555
Al29 Al43 2.730663 1_555
Al29 Al49 2.730663 1_555
Al29 Al33 2.799243 1_555
Al29 Al77 3.046800 1_555
Al29 Al67 3.046802 1_555
Al29 Lu8 3.049811 1_555
Al29 Lu1 3.049811 1_555
Al29 Lu9 3.347570 1_555
Al29 Lu0 3.347570 1_555
Al30 Al60 2.698565 1_555
Al30 Al54 2.698589 1_554
Al30 Al46 2.730668 1_554
Al30 Al47 2.730669 1_555
Al30 Al31 2.799244 1_555
Al30 Al35 2.799261 1_554
Al30 Al75 3.046838 1_555
Al30 Al68 3.046884 1_554
Al30 Lu11 3.049808 1_554
Al30 Lu7 3.049816 1_455
Al30 Lu10 3.347551 1_555
Al30 Lu4 3.347566 1_554
Al31 Al61 2.698557 1_554
Al31 Al53 2.698557 1_555
Al31 Al46 2.730663 1_554
Al31 Al47 2.730663 1_555
Al31 Al35 2.799243 1_554
Al31 Al69 3.046800 1_555
Al31 Al74 3.046802 1_554
Al31 Lu10 3.049811 1_555
Al31 Lu6 3.049811 1_564
Al31 Lu11 3.347570 1_554
Al31 Lu3 3.347570 1_565
Al32 Al50 2.698565 1_565
Al32 Al55 2.698589 1_455
Al32 Al48 2.730662 1_555
Al32 Al42 2.730663 1_555
Al32 Al70 3.046834 1_555
Al32 Al84 3.046882 1_555
Al32 Lu1 3.049808 1_565
Al32 Lu2 3.049816 1_555
Al32 Lu0 3.347551 1_565
Al32 Lu5 3.347566 1_455
Al33 Al51 2.698565 1_545
Al33 Al52 2.698589 1_655
Al33 Al49 2.730662 1_555
Al33 Al43 2.730663 1_555
Al33 Al73 3.046834 1_555
Al33 Al85 3.046882 1_555
Al33 Lu0 3.049808 1_555
Al33 Lu5 3.049816 1_555
Al33 Lu1 3.347551 1_555
Al33 Lu2 3.347566 1_655
Al34 Al53 2.698565 1_545
Al34 Al54 2.698589 1_654
Al34 Al45 2.730662 1_554
Al34 Al44 2.730663 1_555
Al34 Al78 3.046834 1_555
Al34 Al82 3.046882 1_554
Al34 Lu6 3.049808 1_554
Al34 Lu7 3.049816 1_555
Al34 Lu3 3.347551 1_555
Al34 Lu4 3.347566 1_654
Al35 Al56 2.698565 1_565
Al35 Al57 2.698589 1_456
Al35 Al47 2.730662 1_556
Al35 Al46 2.730663 1_555
Al35 Al80 3.046834 1_555
Al35 Al83 3.046882 1_556
Al35 Lu3 3.049808 1_566
Al35 Lu4 3.049816 1_555
Al35 Lu6 3.347551 1_565
Al35 Lu7 3.347566 1_456
Al36 V6 2.534361 1_555
Al36 V4 2.534369 1_445
Al36 Al38 2.758433 1_555
Al36 Al40 2.758438 1_445
Al36 Al70 2.775738 1_545
Al36 Al80 2.775738 1_545
Al36 Al77 2.775753 1_555
Al36 Al66 2.775753 1_555
Al37 V7 2.534361 1_545
Al37 V5 2.534369 1_655
Al37 Al39 2.758433 1_645
Al37 Al41 2.758438 1_655
Al37 Al78 2.775738 1_555
Al37 Al73 2.775738 1_555
Al37 Al69 2.775753 1_545
Al37 Al76 2.775753 1_545
Al38 V6 2.534383 1_555
Al38 V2 2.534383 1_455
Al38 Al40 2.758434 1_445
Al38 Al62 2.775718 1_555
Al38 Al68 2.775718 1_555
Al38 Al85 2.775725 1_455
Al38 Al82 2.775725 1_455
Al39 V7 2.534383 1_455
Al39 V3 2.534383 1_565
Al39 Al41 2.758434 1_565
Al39 Al63 2.775718 1_455
Al39 Al65 2.775718 1_455
Al39 Al83 2.775725 1_555
Al39 Al84 2.775725 1_555
Al40 V2 2.534360 1_565
Al40 V4 2.534369 1_555
Al40 Al81 2.775730 1_555
Al40 Al72 2.775730 1_555
Al40 Al64 2.775752 1_555
Al40 Al74 2.775752 1_555
Al41 V3 2.534360 1_555
Al41 V5 2.534369 1_555
Al41 Al75 2.775730 1_555
Al41 Al79 2.775730 1_555
Al41 Al71 2.775752 1_555
Al41 Al67 2.775752 1_555
Al42 Al64 2.684941 1_555
Al42 Al62 2.684948 1_555
Al42 Al70 2.684953 1_555
Al42 Al6 2.789868 1_555
Al42 Lu8 3.188487 1_555
Al42 Lu2 3.188523 1_555
Al42 Lu0 3.188528 1_565
Al43 Al67 2.684941 1_555
Al43 Al63 2.684948 1_555
Al43 Al73 2.684953 1_555
Al43 Al8 2.789868 1_555
Al43 Lu9 3.188487 1_555
Al43 Lu5 3.188523 1_555
Al43 Lu1 3.188528 1_555
Al44 Al71 2.684941 1_555
Al44 Al65 2.684948 1_555
Al44 Al78 2.684953 1_555
Al44 Al8 2.789868 1_555
Al44 Lu10 3.188487 1_555
Al44 Lu7 3.188523 1_555
Al44 Lu3 3.188528 1_555
Al45 Al82 2.684932 1_555
Al45 Al66 2.684937 1_555
Al45 Al72 2.684973 1_555
Al45 Al7 2.789873 1_555
Al45 Lu6 3.188478 1_555
Al45 Lu4 3.188524 1_655
Al45 Lu11 3.188537 1_555
Al46 Al74 2.684941 1_555
Al46 Al68 2.684948 1_555
Al46 Al80 2.684953 1_555
Al46 Al6 2.789868 1_555
Al46 Lu11 3.188487 1_555
Al46 Lu4 3.188523 1_555
Al46 Lu6 3.188528 1_565
Al47 Al83 2.684932 1_555
Al47 Al69 2.684937 1_555
Al47 Al75 2.684973 1_555
Al47 Al9 2.789873 1_555
Al47 Al5 2.789880 1_555
Al47 Lu3 3.188478 1_565
Al47 Lu7 3.188524 1_455
Al47 Lu10 3.188537 1_555
Al48 Al84 2.684932 1_555
Al48 Al76 2.684937 1_555
Al48 Al79 2.684973 1_555
Al48 Al9 2.789873 1_555
Al48 Al5 2.789880 1_555
Al48 Lu1 3.188478 1_565
Al48 Lu5 3.188524 1_455
Al48 Lu9 3.188537 1_555
Al49 Al85 2.684932 1_555
Al49 Al77 2.684937 1_555
Al49 Al81 2.684973 1_555
Al49 Al7 2.789873 1_555
Al49 Lu0 3.188478 1_555
Al49 Lu2 3.188524 1_655
Al49 Lu8 3.188537 1_555
Al50 V0 2.783064 1_555
Al50 Al77 2.854757 1_555
Al50 Al70 2.854857 1_545
Al50 Al59 2.923746 1_555
Al50 Al55 2.923774 1_445
Al50 Lu1 3.206494 1_555
Al50 Lu0 3.234787 1_555
Al51 V0 2.783064 1_665
Al51 Al76 2.854757 1_555
Al51 Al73 2.854857 1_565
Al51 Al58 2.923746 1_555
Al51 Al52 2.923774 1_665
Al51 Lu0 3.206494 1_565
Al51 Lu1 3.234787 1_565
Al52 V0 2.783053 1_555
Al52 Al62 2.854844 1_555
Al52 Al85 2.854846 1_455
Al52 Al59 2.923774 1_555
Al52 Lu5 3.206520 1_455
Al52 Lu2 3.234750 1_555
Al53 V1 2.783064 1_665
Al53 Al69 2.854757 1_555
Al53 Al78 2.854857 1_565
Al53 Al61 2.923746 1_554
Al53 Al54 2.923774 1_664
Al53 Lu6 3.206494 1_564
Al53 Lu3 3.234787 1_565
Al54 V1 2.783053 1_556
Al54 Al68 2.854844 1_555
Al54 Al82 2.854846 1_455
Al54 Al60 2.923774 1_556
Al54 Lu7 3.206520 1_456
Al54 Lu4 3.234750 1_555
Al55 V0 2.783053 1_665
Al55 Al63 2.854844 1_555
Al55 Al84 2.854846 1_655
Al55 Al58 2.923774 1_555
Al55 Lu2 3.206520 1_655
Al55 Lu5 3.234750 1_555
Al56 V1 2.783064 1_556
Al56 Al66 2.854757 1_555
Al56 Al80 2.854857 1_545
Al56 Al60 2.923746 1_556
Al56 Al57 2.923774 1_446
Al56 Lu3 3.206494 1_556
Al56 Lu6 3.234787 1_555
Al57 V1 2.783053 1_665
Al57 Al65 2.854844 1_555
Al57 Al83 2.854846 1_655
Al57 Al61 2.923774 1_554
Al57 Lu4 3.206520 1_654
Al57 Lu7 3.234750 1_555
Al58 V0 2.783064 1_665
Al58 Al64 2.854753 1_555
Al58 Al81 2.854851 1_555
Al58 Lu9 3.206494 1_555
Al58 Lu8 3.234787 1_555
Al59 V0 2.783064 1_555
Al59 Al67 2.854753 1_555
Al59 Al79 2.854851 1_555
Al59 Lu8 3.206494 1_555
Al59 Lu9 3.234787 1_555
Al60 V1 2.783064 1_555
Al60 Al71 2.854753 1_555
Al60 Al75 2.854851 1_555
Al60 Lu11 3.206494 1_554
Al60 Lu10 3.234787 1_555
Al61 V1 2.783064 1_666
Al61 Al74 2.854753 1_555
Al61 Al72 2.854851 1_555
Al61 Lu10 3.206494 1_556
Al61 Lu11 3.234787 1_555
Al62 V6 2.662685 1_555
Al62 Al85 2.967963 1_455
Al62 Al68 2.997358 1_555
Al62 Lu2 3.029524 1_555
Al62 Lu8 3.259997 1_555
Al63 V7 2.662685 1_555
Al63 Al84 2.967963 1_655
Al63 Al65 2.997358 1_555
Al63 Lu5 3.029524 1_555
Al63 Lu9 3.259997 1_555
Al64 V2 2.662768 1_565
Al64 Al81 2.967855 1_555
Al64 Al74 2.997513 1_555
Al64 Lu8 3.029423 1_555
Al64 Lu0 3.260058 1_565
Al65 V7 2.662685 1_555
Al65 Al83 2.967963 1_655
Al65 Lu7 3.029524 1_555
Al65 Lu10 3.259997 1_555
Al66 V6 2.662760 1_555
Al66 Al7 2.758454 1_555
Al66 Al80 2.967874 1_545
Al66 Al77 2.997513 1_555
Al66 Lu6 3.029432 1_555
Al66 Lu11 3.260049 1_555
Al67 V3 2.662768 1_555
Al67 Al8 2.758461 1_555
Al67 Al79 2.967855 1_555
Al67 Al71 2.997513 1_555
Al67 Lu9 3.029423 1_555
Al67 Lu1 3.260058 1_555
Al68 V6 2.662685 1_555
Al68 Al82 2.967963 1_455
Al68 Lu4 3.029524 1_555
Al68 Lu11 3.259997 1_555
Al69 V7 2.662760 1_555
Al69 Al9 2.758454 1_555
Al69 Al78 2.967874 1_565
Al69 Al76 2.997513 1_555
Al69 Lu3 3.029432 1_565
Al69 Lu10 3.260049 1_555
Al70 V4 2.662712 1_455
Al70 Al77 2.967874 1_565
Al70 Al80 2.997369 1_555
Al70 Lu0 3.029497 1_565
Al70 Lu2 3.260050 1_555
Al71 V3 2.662768 1_555
Al71 Al8 2.758461 1_555
Al71 Al75 2.967855 1_555
Al71 Lu10 3.029423 1_555
Al71 Lu3 3.260058 1_555
Al72 V4 2.662712 1_555
Al72 Al74 2.967855 1_555
Al72 Al81 2.997369 1_555
Al72 Lu11 3.029496 1_555
Al72 Lu4 3.260056 1_655
Al73 V5 2.662712 1_655
Al73 Al8 2.732107 1_555
Al73 Al76 2.967874 1_545
Al73 Al78 2.997369 1_555
Al73 Lu1 3.029497 1_555
Al73 Lu5 3.260050 1_555
Al74 V2 2.662768 1_565
Al74 Lu11 3.029423 1_555
Al74 Lu6 3.260058 1_565
Al75 V5 2.662712 1_555
Al75 Al9 2.732111 1_555
Al75 Al79 2.997369 1_555
Al75 Lu10 3.029496 1_555
Al75 Lu7 3.260056 1_455
Al76 V7 2.662760 1_555
Al76 Al9 2.758454 1_555
Al76 Lu1 3.029432 1_565
Al76 Lu9 3.260049 1_555
Al77 V6 2.662760 1_555
Al77 Lu0 3.029432 1_555
Al77 Lu8 3.260049 1_555
Al78 V5 2.662712 1_655
Al78 Al8 2.732107 1_555
Al78 Lu3 3.029497 1_555
Al78 Lu7 3.260050 1_555
Al79 V5 2.662712 1_555
Al79 Al9 2.732111 1_555
Al79 Lu9 3.029496 1_555
Al79 Lu5 3.260056 1_455
Al80 V4 2.662712 1_455
Al80 Lu6 3.029497 1_565
Al80 Lu4 3.260050 1_555
Al81 V4 2.662712 1_555
Al81 Lu8 3.029496 1_555
Al81 Lu2 3.260056 1_655
Al82 V2 2.662693 1_555
Al82 Al85 2.997358 1_555
Al82 Lu4 3.029516 1_655
Al82 Lu6 3.260000 1_555
Al83 V3 2.662693 1_565
Al83 Al84 2.997358 1_555
Al83 Lu7 3.029516 1_455
Al83 Lu3 3.260000 1_565
Al84 V3 2.662693 1_565
Al84 Lu5 3.029516 1_455
Al84 Lu1 3.260000 1_565
Al85 V2 2.662693 1_555
Al85 Lu2 3.029516 1_655
Al85 Lu0 3.260000 1_555
