# generated using pymatgen
data_SrSi2
_symmetry_space_group_name_H-M   'P 1'
_cell_length_a   6.56394300
_cell_length_b   6.56394300
_cell_length_c   6.56394300
_cell_angle_alpha   90.00000000
_cell_angle_beta   90.00000000
_cell_angle_gamma   90.00000000
_symmetry_Int_Tables_number   1
_chemical_formula_structural   SrSi2
_chemical_formula_sum   'Sr4 Si8'
_cell_volume   282.80976649
_cell_formula_units_Z   4
loop_
 _symmetry_equiv_pos_site_id
 _symmetry_equiv_pos_as_xyz
  1  'x, y, z'
loop_
 _atom_site_type_symbol
 _atom_site_label
 _atom_site_symmetry_multiplicity
 _atom_site_fract_x
 _atom_site_fract_y
 _atom_site_fract_z
 _atom_site_occupancy
  Sr  Sr0  1  0.87500000  0.12500000  0.62500000  1
  Sr  Sr1  1  0.12500000  0.62500000  0.87500000  1
  Sr  Sr2  1  0.62500000  0.87500000  0.12500000  1
  Sr  Sr3  1  0.37500000  0.37500000  0.37500000  1
  Si  Si0  1  0.67206600  0.67206600  0.67206600  1
  Si  Si1  1  0.92206600  0.57793400  0.42206600  1
  Si  Si2  1  0.57793400  0.42206600  0.92206600  1
  Si  Si3  1  0.42206600  0.92206600  0.57793400  1
  Si  Si4  1  0.07793400  0.07793400  0.07793400  1
  Si  Si5  1  0.32793400  0.17206600  0.82793400  1
  Si  Si6  1  0.82793400  0.32793400  0.17206600  1
  Si  Si7  1  0.17206600  0.82793400  0.32793400  1
loop_
_geom_bond_atom_site_label_1
_geom_bond_atom_site_label_2
_geom_bond_distance
_geom_bond_site_symmetry_2
Si0 Si1 2.401550 1_555
Si0 Si2 2.401550 1_555
Si0 Si3 2.401550 1_555
Si0 Sr0 3.272418 1_565
Si0 Sr1 3.272418 1_655
Si0 Sr2 3.272418 1_556
Si0 Sr3 3.377368 1_555
Si1 Si6 2.401550 1_555
Si1 Si7 2.401550 1_655
Si1 Sr0 3.272418 1_555
Si1 Sr1 3.272418 1_655
Si1 Sr3 3.272418 1_655
Si1 Sr2 3.377368 1_555
Si2 Si5 2.401550 1_555
Si2 Si6 2.401550 1_556
Si2 Sr1 3.272418 1_555
Si2 Sr2 3.272418 1_556
Si2 Sr3 3.272418 1_556
Si2 Sr0 3.377368 1_555
Si3 Si7 2.401550 1_555
Si3 Si5 2.401550 1_565
Si3 Sr2 3.272418 1_555
Si3 Sr0 3.272418 1_565
Si3 Sr3 3.272418 1_565
Si3 Sr1 3.377368 1_555
Si4 Si6 2.401550 1_455
Si4 Si7 2.401550 1_545
Si4 Si5 2.401550 1_554
Si4 Sr2 3.272418 1_445
Si4 Sr0 3.272418 1_454
Si4 Sr1 3.272418 1_544
Si4 Sr3 3.377368 1_555
Si5 Sr0 3.272418 1_455
Si5 Sr1 3.272418 1_555
Si5 Sr3 3.272418 1_555
Si5 Sr2 3.377368 1_546
Si6 Sr2 3.272418 1_545
Si6 Sr3 3.272418 1_555
Si6 Sr0 3.272418 1_555
Si6 Sr1 3.377368 1_654
Si7 Sr3 3.272418 1_555
Si7 Sr1 3.272418 1_554
Si7 Sr2 3.272418 1_555
Si7 Sr0 3.377368 1_465
