# generated using pymatgen
data_LiCr4In4O12
_symmetry_space_group_name_H-M   'P 1'
_cell_length_a   5.21563431
_cell_length_b   5.54457091
_cell_length_c   8.13063753
_cell_angle_alpha   90.65445985
_cell_angle_beta   89.11335551
_cell_angle_gamma   89.07860829
_symmetry_Int_Tables_number   1
_chemical_formula_structural   LiCr4In4O12
_chemical_formula_sum   'Li1 Cr4 In4 O12'
_cell_volume   235.05090051
_cell_formula_units_Z   1
loop_
 _symmetry_equiv_pos_site_id
 _symmetry_equiv_pos_as_xyz
  1  'x, y, z'
loop_
 _atom_site_type_symbol
 _atom_site_label
 _atom_site_symmetry_multiplicity
 _atom_site_fract_x
 _atom_site_fract_y
 _atom_site_fract_z
 _atom_site_occupancy
  Li  Li0  1  0.36776100  0.22620500  0.35046700  1
  Cr  Cr0  1  0.00004200  0.50605200  0.99712200  1
  Cr  Cr1  1  0.99533300  0.48998300  0.50295900  1
  Cr  Cr2  1  0.49462200  0.01451300  0.99626200  1
  Cr  Cr3  1  0.52793700  0.96516700  0.53433800  1
  In  In0  1  0.03879400  0.94055700  0.75325000  1
  In  In1  1  0.47112500  0.43819800  0.74982600  1
  In  In2  1  0.53133900  0.60329300  0.23685400  1
  In  In3  1  0.94013700  0.05875700  0.24698100  1
  O  O0  1  0.14490700  0.44375600  0.25127600  1
  O  O1  1  0.20405200  0.19199200  0.57103100  1
  O  O2  1  0.20472400  0.22049300  0.91782300  1
  O  O3  1  0.29367100  0.68414600  0.57850400  1
  O  O4  1  0.29609500  0.71465700  0.92122800  1
  O  O5  1  0.33877900  0.95340600  0.22250600  1
  O  O6  1  0.65403100  0.07682500  0.77609900  1
  O  O7  1  0.70076100  0.30663700  0.08225300  1
  O  O8  1  0.70361500  0.27753200  0.42851100  1
  O  O9  1  0.79277100  0.80296300  0.06851400  1
  O  O10  1  0.79835400  0.76929100  0.41379400  1
  O  O11  1  0.86365400  0.56557800  0.75040200  1
loop_
_geom_bond_atom_site_label_1
_geom_bond_atom_site_label_2
_geom_bond_distance
_geom_bond_site_symmetry_2
Li0 O5 1.835587 1_545
Li0 O0 1.860792 1_555
Li0 O8 1.896937 1_555
Li0 O1 1.986617 1_555
Cr0 O2 1.990784 1_555
Cr0 O9 2.029098 1_456
Cr0 O4 2.036434 1_555
Cr0 O7 2.043940 1_456
Cr0 O11 2.165799 1_455
Cr0 O0 2.239768 1_556
Cr1 O10 1.994215 1_555
Cr1 O3 2.006437 1_655
Cr1 O8 2.034396 1_555
Cr1 O1 2.050108 1_655
Cr1 O11 2.150278 1_555
Cr1 O0 2.189518 1_655
Cr2 O2 1.997037 1_555
Cr2 O6 1.998065 1_555
Cr2 O9 2.030865 1_546
Cr2 O5 2.033736 1_546
Cr2 O4 2.064032 1_545
Cr2 O7 2.078846 1_556
Cr3 O10 2.003236 1_555
Cr3 O3 2.027336 1_555
Cr3 O1 2.105185 1_565
Cr3 O8 2.154107 1_565
Cr3 O6 2.169092 1_565
In0 O6 2.137530 1_465
In0 O1 2.219853 1_565
In0 O2 2.231619 1_565
In0 O11 2.284346 1_455
In0 O4 2.297129 1_555
In0 O3 2.375214 1_555
In1 O3 2.167778 1_555
In1 O11 2.176453 1_555
In1 O6 2.219223 1_555
In1 O4 2.234269 1_555
In1 O2 2.299180 1_555
In1 O1 2.448597 1_555
In2 O5 2.176403 1_555
In2 O0 2.216030 1_555
In2 O10 2.220191 1_555
In2 O7 2.222161 1_555
In2 O9 2.232406 1_555
In2 O8 2.559970 1_555
In3 O5 2.156208 1_645
In3 O9 2.174937 1_545
In3 O10 2.240346 1_545
In3 O8 2.241934 1_555
In3 O7 2.297857 1_555
In3 O0 2.402369 1_655
