# generated using pymatgen
data_Sc3NF10
_symmetry_space_group_name_H-M   'P 1'
_cell_length_a   6.75442100
_cell_length_b   7.93515000
_cell_length_c   8.11460700
_cell_angle_alpha   90.00000000
_cell_angle_beta   90.00000000
_cell_angle_gamma   90.00000000
_symmetry_Int_Tables_number   1
_chemical_formula_structural   Sc3NF10
_chemical_formula_sum   'Sc6 N2 F20'
_cell_volume   434.92138117
_cell_formula_units_Z   2
loop_
 _symmetry_equiv_pos_site_id
 _symmetry_equiv_pos_as_xyz
  1  'x, y, z'
loop_
 _atom_site_type_symbol
 _atom_site_label
 _atom_site_symmetry_multiplicity
 _atom_site_fract_x
 _atom_site_fract_y
 _atom_site_fract_z
 _atom_site_occupancy
  Sc  Sc0  1  0.00000000  0.00627000  0.25000000  1
  Sc  Sc1  1  0.00000000  0.99373000  0.75000000  1
  Sc  Sc2  1  0.50000000  0.74814900  0.25000000  1
  Sc  Sc3  1  0.50000000  0.25185100  0.75000000  1
  Sc  Sc4  1  0.50000000  0.26433700  0.25000000  1
  Sc  Sc5  1  0.50000000  0.73566300  0.75000000  1
  N  N0  1  0.00731000  0.50000000  0.00000000  1
  N  N1  1  0.99269000  0.50000000  0.50000000  1
  F  F0  1  0.34124900  0.50517700  0.24527900  1
  F  F1  1  0.65875100  0.49482300  0.74527900  1
  F  F2  1  0.65875100  0.50517700  0.25472100  1
  F  F3  1  0.34124900  0.49482300  0.75472100  1
  F  F4  1  0.50000000  0.00603000  0.25000000  1
  F  F5  1  0.50000000  0.99397000  0.75000000  1
  F  F6  1  0.20476400  0.18263800  0.74111500  1
  F  F7  1  0.79523600  0.81736200  0.24111500  1
  F  F8  1  0.79523600  0.18263800  0.75888500  1
  F  F9  1  0.20476400  0.81736200  0.25888500  1
  F  F10  1  0.49465100  0.26863600  0.99959300  1
  F  F11  1  0.50534900  0.73136400  0.49959300  1
  F  F12  1  0.50534900  0.26863600  0.50040700  1
  F  F13  1  0.49465100  0.73136400  0.00040700  1
  F  F14  1  0.01706500  0.00000000  0.00000000  1
  F  F15  1  0.98293500  0.00000000  0.50000000  1
  F  F16  1  0.20397000  0.19561400  0.26253800  1
  F  F17  1  0.79603000  0.80438600  0.76253800  1
  F  F18  1  0.79603000  0.19561400  0.23746200  1
  F  F19  1  0.20397000  0.80438600  0.73746200  1
loop_
_geom_bond_atom_site_label_1
_geom_bond_atom_site_label_2
_geom_bond_distance
_geom_bond_site_symmetry_2
F0 Sc4 2.191698 1_555
F0 Sc2 2.206466 1_555
F1 Sc5 2.191698 1_555
F1 Sc3 2.206466 1_555
F2 Sc4 2.191698 1_555
F2 Sc2 2.206466 1_555
F3 Sc5 2.191698 1_555
F3 Sc3 2.206466 1_555
F4 Sc2 2.046324 1_545
F4 Sc4 2.049705 1_555
F5 Sc3 2.046324 1_565
F5 Sc5 2.049705 1_555
F6 Sc1 2.040858 1_545
F6 Sc3 2.069653 1_555
F7 Sc0 2.040858 1_665
F7 Sc2 2.069653 1_555
F8 Sc1 2.040858 1_645
F8 Sc3 2.069653 1_555
F9 Sc0 2.040858 1_565
F9 Sc2 2.069653 1_555
F10 Sc3 2.030045 1_555
F10 Sc4 2.032562 1_556
F11 Sc2 2.030045 1_555
F11 Sc5 2.032562 1_555
F12 Sc3 2.030045 1_555
F12 Sc4 2.032562 1_555
F13 Sc2 2.030045 1_555
F13 Sc5 2.032562 1_554
F14 Sc1 2.032533 1_544
F14 Sc0 2.032533 1_555
F15 Sc0 2.032533 1_655
F15 Sc1 2.032533 1_645
F16 Sc0 2.041037 1_555
F16 Sc4 2.075037 1_555
F17 Sc1 2.041037 1_655
F17 Sc5 2.075037 1_555
F18 Sc0 2.041037 1_655
F18 Sc4 2.075037 1_555
F19 Sc1 2.041037 1_555
F19 Sc5 2.075037 1_555
