# generated using pymatgen
data_Mg
_symmetry_space_group_name_H-M   'P 1'
_cell_length_a   6.37077820
_cell_length_b   6.37077631
_cell_length_c   46.19926396
_cell_angle_alpha   90.00000000
_cell_angle_beta   90.00000000
_cell_angle_gamma   119.99998902
_symmetry_Int_Tables_number   1
_chemical_formula_structural   Mg
_chemical_formula_sum   Mg72
_cell_volume   1623.86745621
_cell_formula_units_Z   72
loop_
 _symmetry_equiv_pos_site_id
 _symmetry_equiv_pos_as_xyz
  1  'x, y, z'
loop_
 _atom_site_type_symbol
 _atom_site_label
 _atom_site_symmetry_multiplicity
 _atom_site_fract_x
 _atom_site_fract_y
 _atom_site_fract_z
 _atom_site_occupancy
  Mg  Mg0_0  1  0.00000000  0.00000000  0.00000000  1
  Mg  Mg0_1  1  0.00000000  0.00000000  0.50000000  1
  Mg  Mg0_2  1  0.00000000  0.50000000  0.00000000  1
  Mg  Mg0_3  1  0.00000000  0.50000000  0.50000000  1
  Mg  Mg0_4  1  0.50000000  0.00000000  0.00000000  1
  Mg  Mg0_5  1  0.50000000  0.00000000  0.50000000  1
  Mg  Mg0_6  1  0.50000000  0.50000000  0.00000000  1
  Mg  Mg0_7  1  0.50000000  0.50000000  0.50000000  1
  Mg  Mg1_0  1  0.00000000  0.00000000  0.11096779  1
  Mg  Mg1_1  1  0.00000000  0.00000000  0.61096779  1
  Mg  Mg1_2  1  0.00000000  0.50000000  0.11096779  1
  Mg  Mg1_3  1  0.00000000  0.50000000  0.61096779  1
  Mg  Mg1_4  1  0.50000000  0.00000000  0.11096779  1
  Mg  Mg1_5  1  0.50000000  0.00000000  0.61096779  1
  Mg  Mg1_6  1  0.50000000  0.50000000  0.11096779  1
  Mg  Mg1_7  1  0.50000000  0.50000000  0.61096779  1
  Mg  Mg2_0  1  0.33333350  0.16666650  0.05569871  1
  Mg  Mg2_1  1  0.33333350  0.16666650  0.55569871  1
  Mg  Mg2_2  1  0.33333350  0.66666650  0.05569871  1
  Mg  Mg2_3  1  0.33333350  0.66666650  0.55569871  1
  Mg  Mg2_4  1  0.83333350  0.16666650  0.05569871  1
  Mg  Mg2_5  1  0.83333350  0.16666650  0.55569871  1
  Mg  Mg2_6  1  0.83333350  0.66666650  0.05569871  1
  Mg  Mg2_7  1  0.83333350  0.66666650  0.55569871  1
  Mg  Mg3_0  1  0.33333350  0.16666650  0.16666650  1
  Mg  Mg3_1  1  0.33333350  0.16666650  0.66666650  1
  Mg  Mg3_2  1  0.33333350  0.66666650  0.16666650  1
  Mg  Mg3_3  1  0.33333350  0.66666650  0.66666650  1
  Mg  Mg3_4  1  0.83333350  0.16666650  0.16666650  1
  Mg  Mg3_5  1  0.83333350  0.16666650  0.66666650  1
  Mg  Mg3_6  1  0.83333350  0.66666650  0.16666650  1
  Mg  Mg3_7  1  0.83333350  0.66666650  0.66666650  1
  Mg  Mg4_0  1  0.33333350  0.16666650  0.27763429  1
  Mg  Mg4_1  1  0.33333350  0.16666650  0.77763429  1
  Mg  Mg4_2  1  0.33333350  0.66666650  0.27763429  1
  Mg  Mg4_3  1  0.33333350  0.66666650  0.77763429  1
  Mg  Mg4_4  1  0.83333350  0.16666650  0.27763429  1
  Mg  Mg4_5  1  0.83333350  0.16666650  0.77763429  1
  Mg  Mg4_6  1  0.83333350  0.66666650  0.27763429  1
  Mg  Mg4_7  1  0.83333350  0.66666650  0.77763429  1
  Mg  Mg5_0  1  0.16666650  0.33333350  0.22236570  1
  Mg  Mg5_1  1  0.16666650  0.33333350  0.72236570  1
  Mg  Mg5_2  1  0.16666650  0.83333350  0.22236570  1
  Mg  Mg5_3  1  0.16666650  0.83333350  0.72236570  1
  Mg  Mg5_4  1  0.66666650  0.33333350  0.22236570  1
  Mg  Mg5_5  1  0.66666650  0.33333350  0.72236570  1
  Mg  Mg5_6  1  0.66666650  0.83333350  0.22236570  1
  Mg  Mg5_7  1  0.66666650  0.83333350  0.72236570  1
  Mg  Mg6_0  1  0.16666650  0.33333350  0.33333350  1
  Mg  Mg6_1  1  0.16666650  0.33333350  0.83333350  1
  Mg  Mg6_2  1  0.16666650  0.83333350  0.33333350  1
  Mg  Mg6_3  1  0.16666650  0.83333350  0.83333350  1
  Mg  Mg6_4  1  0.66666650  0.33333350  0.33333350  1
  Mg  Mg6_5  1  0.66666650  0.33333350  0.83333350  1
  Mg  Mg6_6  1  0.66666650  0.83333350  0.33333350  1
  Mg  Mg6_7  1  0.66666650  0.83333350  0.83333350  1
  Mg  Mg7_0  1  0.16666650  0.33333350  0.44430129  1
  Mg  Mg7_1  1  0.16666650  0.33333350  0.94430129  1
  Mg  Mg7_2  1  0.16666650  0.83333350  0.44430129  1
  Mg  Mg7_3  1  0.16666650  0.83333350  0.94430129  1
  Mg  Mg7_4  1  0.66666650  0.33333350  0.44430129  1
  Mg  Mg7_5  1  0.66666650  0.33333350  0.94430129  1
  Mg  Mg7_6  1  0.66666650  0.83333350  0.44430129  1
  Mg  Mg7_7  1  0.66666650  0.83333350  0.94430129  1
  Mg  Mg8_0  1  0.00000000  0.00000000  0.38903221  1
  Mg  Mg8_1  1  0.00000000  0.00000000  0.88903221  1
  Mg  Mg8_2  1  0.00000000  0.50000000  0.38903221  1
  Mg  Mg8_3  1  0.00000000  0.50000000  0.88903221  1
  Mg  Mg8_4  1  0.50000000  0.00000000  0.38903221  1
  Mg  Mg8_5  1  0.50000000  0.00000000  0.88903221  1
  Mg  Mg8_6  1  0.50000000  0.50000000  0.38903221  1
  Mg  Mg8_7  1  0.50000000  0.50000000  0.88903221  1
loop_
_geom_bond_atom_site_label_1
_geom_bond_atom_site_label_2
_geom_bond_distance
_geom_bond_site_symmetry_2
Mg0_0 Mg2_4 3.162876 1_455
Mg0_0 Mg7_3 3.162876 1_544
Mg0_0 Mg2_6 3.162878 1_445
Mg0_0 Mg7_1 3.162878 1_554
Mg0_0 Mg2_0 3.162878 1_555
Mg0_0 Mg7_7 3.162878 1_444
Mg0_0 Mg0_2 3.185388 1_555
Mg0_0 Mg0_2 3.185388 1_545
Mg0_0 Mg0_4 3.185389 1_555
Mg0_0 Mg0_4 3.185389 1_455
Mg0_0 Mg0_6 3.185389 1_445
Mg0_0 Mg0_6 3.185389 1_555
Mg0_1 Mg7_2 3.162876 1_545
Mg0_1 Mg2_5 3.162876 1_455
Mg0_1 Mg2_7 3.162878 1_445
Mg0_1 Mg7_0 3.162878 1_555
Mg0_1 Mg2_1 3.162878 1_555
Mg0_1 Mg7_6 3.162878 1_445
Mg0_1 Mg0_3 3.185388 1_545
Mg0_1 Mg0_3 3.185388 1_555
Mg0_1 Mg0_5 3.185389 1_455
Mg0_1 Mg0_5 3.185389 1_555
Mg0_1 Mg0_7 3.185389 1_555
Mg0_1 Mg0_7 3.185389 1_445
Mg0_2 Mg2_6 3.162876 1_455
Mg0_2 Mg7_1 3.162876 1_554
Mg0_2 Mg2_4 3.162878 1_455
Mg0_2 Mg7_3 3.162878 1_554
Mg0_2 Mg2_2 3.162878 1_555
Mg0_2 Mg7_5 3.162878 1_454
Mg0_2 Mg0_6 3.185389 1_455
Mg0_2 Mg0_6 3.185389 1_555
Mg0_2 Mg0_4 3.185389 1_565
Mg0_2 Mg0_4 3.185389 1_455
Mg0_3 Mg7_0 3.162876 1_555
Mg0_3 Mg2_7 3.162876 1_455
Mg0_3 Mg2_5 3.162878 1_455
Mg0_3 Mg7_2 3.162878 1_555
Mg0_3 Mg7_4 3.162878 1_455
Mg0_3 Mg2_3 3.162878 1_555
Mg0_3 Mg0_7 3.185389 1_555
Mg0_3 Mg0_7 3.185389 1_455
Mg0_3 Mg0_5 3.185389 1_455
Mg0_3 Mg0_5 3.185389 1_565
Mg0_4 Mg2_0 3.162876 1_555
Mg0_4 Mg7_7 3.162876 1_544
Mg0_4 Mg2_2 3.162878 1_545
Mg0_4 Mg7_5 3.162878 1_554
Mg0_4 Mg2_4 3.162878 1_555
Mg0_4 Mg7_3 3.162878 1_544
Mg0_4 Mg0_6 3.185388 1_555
Mg0_4 Mg0_6 3.185388 1_545
Mg0_5 Mg2_1 3.162876 1_555
Mg0_5 Mg7_6 3.162876 1_545
Mg0_5 Mg2_3 3.162878 1_545
Mg0_5 Mg7_4 3.162878 1_555
Mg0_5 Mg7_2 3.162878 1_545
Mg0_5 Mg2_5 3.162878 1_555
Mg0_5 Mg0_7 3.185388 1_545
Mg0_5 Mg0_7 3.185388 1_555
Mg0_6 Mg2_2 3.162876 1_555
Mg0_6 Mg7_5 3.162876 1_554
Mg0_6 Mg2_0 3.162878 1_555
Mg0_6 Mg7_7 3.162878 1_554
Mg0_6 Mg2_6 3.162878 1_555
Mg0_6 Mg7_1 3.162878 1_554
Mg0_7 Mg7_4 3.162876 1_555
Mg0_7 Mg2_3 3.162876 1_555
Mg0_7 Mg2_1 3.162878 1_555
Mg0_7 Mg7_6 3.162878 1_555
Mg0_7 Mg7_0 3.162878 1_555
Mg0_7 Mg2_7 3.162878 1_555
Mg1_0 Mg2_4 3.146750 1_455
Mg1_0 Mg2_6 3.146751 1_445
Mg1_0 Mg2_0 3.146752 1_555
Mg1_0 Mg3_4 3.162876 1_455
Mg1_0 Mg3_6 3.162878 1_445
Mg1_0 Mg3_0 3.162878 1_555
Mg1_0 Mg1_2 3.185388 1_555
Mg1_0 Mg1_2 3.185388 1_545
Mg1_0 Mg1_4 3.185389 1_455
Mg1_0 Mg1_4 3.185389 1_555
Mg1_0 Mg1_6 3.185389 1_555
Mg1_0 Mg1_6 3.185389 1_445
Mg1_1 Mg2_5 3.146750 1_455
Mg1_1 Mg2_7 3.146751 1_445
Mg1_1 Mg2_1 3.146752 1_555
Mg1_1 Mg3_5 3.162876 1_455
Mg1_1 Mg3_7 3.162878 1_445
Mg1_1 Mg3_1 3.162878 1_555
Mg1_1 Mg1_3 3.185388 1_555
Mg1_1 Mg1_3 3.185388 1_545
Mg1_1 Mg1_5 3.185389 1_555
Mg1_1 Mg1_5 3.185389 1_455
Mg1_1 Mg1_7 3.185389 1_445
Mg1_1 Mg1_7 3.185389 1_555
Mg1_2 Mg2_6 3.146750 1_455
Mg1_2 Mg2_4 3.146751 1_455
Mg1_2 Mg2_2 3.146752 1_555
Mg1_2 Mg3_6 3.162876 1_455
Mg1_2 Mg3_4 3.162878 1_455
Mg1_2 Mg3_2 3.162878 1_555
Mg1_2 Mg1_6 3.185389 1_455
Mg1_2 Mg1_6 3.185389 1_555
Mg1_2 Mg1_4 3.185389 1_565
Mg1_2 Mg1_4 3.185389 1_455
Mg1_3 Mg2_7 3.146750 1_455
Mg1_3 Mg2_5 3.146751 1_455
Mg1_3 Mg2_3 3.146752 1_555
Mg1_3 Mg3_7 3.162876 1_455
Mg1_3 Mg3_5 3.162878 1_455
Mg1_3 Mg3_3 3.162878 1_555
Mg1_3 Mg1_7 3.185389 1_455
Mg1_3 Mg1_7 3.185389 1_555
Mg1_3 Mg1_5 3.185389 1_565
Mg1_3 Mg1_5 3.185389 1_455
Mg1_4 Mg2_0 3.146750 1_555
Mg1_4 Mg2_2 3.146751 1_545
Mg1_4 Mg2_4 3.146752 1_555
Mg1_4 Mg3_0 3.162876 1_555
Mg1_4 Mg3_2 3.162878 1_545
Mg1_4 Mg3_4 3.162878 1_555
Mg1_4 Mg1_6 3.185388 1_545
Mg1_4 Mg1_6 3.185388 1_555
Mg1_5 Mg2_1 3.146750 1_555
Mg1_5 Mg2_3 3.146751 1_545
Mg1_5 Mg2_5 3.146752 1_555
Mg1_5 Mg3_1 3.162876 1_555
Mg1_5 Mg3_3 3.162878 1_545
Mg1_5 Mg3_5 3.162878 1_555
Mg1_5 Mg1_7 3.185388 1_555
Mg1_5 Mg1_7 3.185388 1_545
Mg1_6 Mg2_2 3.146750 1_555
Mg1_6 Mg2_0 3.146751 1_555
Mg1_6 Mg2_6 3.146752 1_555
Mg1_6 Mg3_2 3.162876 1_555
Mg1_6 Mg3_0 3.162878 1_555
Mg1_6 Mg3_6 3.162878 1_555
Mg1_7 Mg2_3 3.146750 1_555
Mg1_7 Mg2_1 3.146751 1_555
Mg1_7 Mg2_7 3.146752 1_555
Mg1_7 Mg3_3 3.162876 1_555
Mg1_7 Mg3_1 3.162878 1_555
Mg1_7 Mg3_7 3.162878 1_555
Mg2_0 Mg2_2 3.185388 1_555
Mg2_0 Mg2_2 3.185388 1_545
Mg2_0 Mg2_4 3.185389 1_455
Mg2_0 Mg2_4 3.185389 1_555
Mg2_0 Mg2_6 3.185389 1_445
Mg2_0 Mg2_6 3.185389 1_555
Mg2_1 Mg2_3 3.185388 1_555
Mg2_1 Mg2_3 3.185388 1_545
Mg2_1 Mg2_5 3.185389 1_455
Mg2_1 Mg2_5 3.185389 1_555
Mg2_1 Mg2_7 3.185389 1_555
Mg2_1 Mg2_7 3.185389 1_445
Mg2_2 Mg2_6 3.185389 1_455
Mg2_2 Mg2_6 3.185389 1_555
Mg2_2 Mg2_4 3.185389 1_455
Mg2_2 Mg2_4 3.185389 1_565
Mg2_3 Mg2_7 3.185389 1_455
Mg2_3 Mg2_7 3.185389 1_555
Mg2_3 Mg2_5 3.185389 1_565
Mg2_3 Mg2_5 3.185389 1_455
Mg2_4 Mg2_6 3.185388 1_555
Mg2_4 Mg2_6 3.185388 1_545
Mg2_5 Mg2_7 3.185388 1_555
Mg2_5 Mg2_7 3.185388 1_545
Mg3_0 Mg5_2 3.162895 1_545
Mg3_0 Mg5_4 3.162895 1_555
Mg3_0 Mg5_0 3.162898 1_555
Mg3_0 Mg3_2 3.185388 1_545
Mg3_0 Mg3_2 3.185388 1_555
Mg3_0 Mg3_4 3.185389 1_455
Mg3_0 Mg3_4 3.185389 1_555
Mg3_0 Mg3_6 3.185389 1_445
Mg3_0 Mg3_6 3.185389 1_555
Mg3_1 Mg5_3 3.162895 1_545
Mg3_1 Mg5_5 3.162895 1_555
Mg3_1 Mg5_1 3.162898 1_555
Mg3_1 Mg3_3 3.185388 1_555
Mg3_1 Mg3_3 3.185388 1_545
Mg3_1 Mg3_5 3.185389 1_455
Mg3_1 Mg3_5 3.185389 1_555
Mg3_1 Mg3_7 3.185389 1_445
Mg3_1 Mg3_7 3.185389 1_555
Mg3_2 Mg5_0 3.162895 1_555
Mg3_2 Mg5_6 3.162895 1_555
Mg3_2 Mg5_2 3.162898 1_555
Mg3_2 Mg3_6 3.185389 1_455
Mg3_2 Mg3_6 3.185389 1_555
Mg3_2 Mg3_4 3.185389 1_565
Mg3_2 Mg3_4 3.185389 1_455
Mg3_3 Mg5_1 3.162895 1_555
Mg3_3 Mg5_7 3.162895 1_555
Mg3_3 Mg5_3 3.162898 1_555
Mg3_3 Mg3_7 3.185389 1_455
Mg3_3 Mg3_7 3.185389 1_555
Mg3_3 Mg3_5 3.185389 1_455
Mg3_3 Mg3_5 3.185389 1_565
Mg3_4 Mg5_6 3.162895 1_545
Mg3_4 Mg5_0 3.162895 1_655
Mg3_4 Mg5_4 3.162898 1_555
Mg3_4 Mg3_6 3.185388 1_545
Mg3_4 Mg3_6 3.185388 1_555
Mg3_5 Mg5_7 3.162895 1_545
Mg3_5 Mg5_1 3.162895 1_655
Mg3_5 Mg5_5 3.162898 1_555
Mg3_5 Mg3_7 3.185388 1_555
Mg3_5 Mg3_7 3.185388 1_545
Mg3_6 Mg5_4 3.162895 1_555
Mg3_6 Mg5_2 3.162895 1_655
Mg3_6 Mg5_6 3.162898 1_555
Mg3_7 Mg5_5 3.162895 1_555
Mg3_7 Mg5_3 3.162895 1_655
Mg3_7 Mg5_7 3.162898 1_555
Mg4_0 Mg5_2 3.146731 1_545
Mg4_0 Mg5_4 3.146731 1_555
Mg4_0 Mg5_0 3.146734 1_555
Mg4_0 Mg6_2 3.162895 1_545
Mg4_0 Mg6_4 3.162895 1_555
Mg4_0 Mg6_0 3.162898 1_555
Mg4_0 Mg4_2 3.185388 1_555
Mg4_0 Mg4_2 3.185388 1_545
Mg4_0 Mg4_4 3.185389 1_455
Mg4_0 Mg4_4 3.185389 1_555
Mg4_0 Mg4_6 3.185389 1_555
Mg4_0 Mg4_6 3.185389 1_445
Mg4_1 Mg5_3 3.146731 1_545
Mg4_1 Mg5_5 3.146731 1_555
Mg4_1 Mg5_1 3.146734 1_555
Mg4_1 Mg6_3 3.162895 1_545
Mg4_1 Mg6_5 3.162895 1_555
Mg4_1 Mg6_1 3.162898 1_555
Mg4_1 Mg4_3 3.185388 1_555
Mg4_1 Mg4_3 3.185388 1_545
Mg4_1 Mg4_5 3.185389 1_455
Mg4_1 Mg4_5 3.185389 1_555
Mg4_1 Mg4_7 3.185389 1_445
Mg4_1 Mg4_7 3.185389 1_555
Mg4_2 Mg5_0 3.146731 1_555
Mg4_2 Mg5_6 3.146731 1_555
Mg4_2 Mg5_2 3.146734 1_555
Mg4_2 Mg6_0 3.162895 1_555
Mg4_2 Mg6_6 3.162895 1_555
Mg4_2 Mg6_2 3.162898 1_555
Mg4_2 Mg4_6 3.185389 1_455
Mg4_2 Mg4_6 3.185389 1_555
Mg4_2 Mg4_4 3.185389 1_455
Mg4_2 Mg4_4 3.185389 1_565
Mg4_3 Mg5_1 3.146731 1_555
Mg4_3 Mg5_7 3.146731 1_555
Mg4_3 Mg5_3 3.146734 1_555
Mg4_3 Mg6_1 3.162895 1_555
Mg4_3 Mg6_7 3.162895 1_555
Mg4_3 Mg6_3 3.162898 1_555
Mg4_3 Mg4_7 3.185389 1_455
Mg4_3 Mg4_7 3.185389 1_555
Mg4_3 Mg4_5 3.185389 1_455
Mg4_3 Mg4_5 3.185389 1_565
Mg4_4 Mg5_6 3.146731 1_545
Mg4_4 Mg5_0 3.146731 1_655
Mg4_4 Mg5_4 3.146734 1_555
Mg4_4 Mg6_6 3.162895 1_545
Mg4_4 Mg6_0 3.162895 1_655
Mg4_4 Mg6_4 3.162898 1_555
Mg4_4 Mg4_6 3.185388 1_545
Mg4_4 Mg4_6 3.185388 1_555
Mg4_5 Mg5_7 3.146731 1_545
Mg4_5 Mg5_1 3.146731 1_655
Mg4_5 Mg5_5 3.146734 1_555
Mg4_5 Mg6_7 3.162895 1_545
Mg4_5 Mg6_1 3.162895 1_655
Mg4_5 Mg6_5 3.162898 1_555
Mg4_5 Mg4_7 3.185388 1_545
Mg4_5 Mg4_7 3.185388 1_555
Mg4_6 Mg5_4 3.146731 1_555
Mg4_6 Mg5_2 3.146731 1_655
Mg4_6 Mg5_6 3.146734 1_555
Mg4_6 Mg6_4 3.162895 1_555
Mg4_6 Mg6_2 3.162895 1_655
Mg4_6 Mg6_6 3.162898 1_555
Mg4_7 Mg5_5 3.146731 1_555
Mg4_7 Mg5_3 3.146731 1_655
Mg4_7 Mg5_7 3.146734 1_555
Mg4_7 Mg6_5 3.162895 1_555
Mg4_7 Mg6_3 3.162895 1_655
Mg4_7 Mg6_7 3.162898 1_555
Mg5_0 Mg5_2 3.185388 1_545
Mg5_0 Mg5_2 3.185388 1_555
Mg5_0 Mg5_4 3.185389 1_455
Mg5_0 Mg5_4 3.185389 1_555
Mg5_0 Mg5_6 3.185389 1_445
Mg5_0 Mg5_6 3.185389 1_555
Mg5_1 Mg5_3 3.185388 1_545
Mg5_1 Mg5_3 3.185388 1_555
Mg5_1 Mg5_5 3.185389 1_455
Mg5_1 Mg5_5 3.185389 1_555
Mg5_1 Mg5_7 3.185389 1_445
Mg5_1 Mg5_7 3.185389 1_555
Mg5_2 Mg5_6 3.185389 1_455
Mg5_2 Mg5_6 3.185389 1_555
Mg5_2 Mg5_4 3.185389 1_455
Mg5_2 Mg5_4 3.185389 1_565
Mg5_3 Mg5_7 3.185389 1_455
Mg5_3 Mg5_7 3.185389 1_555
Mg5_3 Mg5_5 3.185389 1_455
Mg5_3 Mg5_5 3.185389 1_565
Mg5_4 Mg5_6 3.185388 1_555
Mg5_4 Mg5_6 3.185388 1_545
Mg5_5 Mg5_7 3.185388 1_555
Mg5_5 Mg5_7 3.185388 1_545
Mg6_0 Mg8_2 3.162876 1_555
Mg6_0 Mg8_0 3.162878 1_555
Mg6_0 Mg8_6 3.162878 1_555
Mg6_0 Mg6_2 3.185388 1_555
Mg6_0 Mg6_2 3.185388 1_545
Mg6_0 Mg6_4 3.185389 1_455
Mg6_0 Mg6_4 3.185389 1_555
Mg6_0 Mg6_6 3.185389 1_555
Mg6_0 Mg6_6 3.185389 1_445
Mg6_1 Mg8_3 3.162876 1_555
Mg6_1 Mg8_1 3.162878 1_555
Mg6_1 Mg8_7 3.162878 1_555
Mg6_1 Mg6_3 3.185388 1_545
Mg6_1 Mg6_3 3.185388 1_555
Mg6_1 Mg6_5 3.185389 1_455
Mg6_1 Mg6_5 3.185389 1_555
Mg6_1 Mg6_7 3.185389 1_555
Mg6_1 Mg6_7 3.185389 1_445
Mg6_2 Mg8_0 3.162876 1_565
Mg6_2 Mg8_2 3.162878 1_555
Mg6_2 Mg8_4 3.162878 1_565
Mg6_2 Mg6_6 3.185389 1_555
Mg6_2 Mg6_6 3.185389 1_455
Mg6_2 Mg6_4 3.185389 1_455
Mg6_2 Mg6_4 3.185389 1_565
Mg6_3 Mg8_1 3.162876 1_565
Mg6_3 Mg8_3 3.162878 1_555
Mg6_3 Mg8_5 3.162878 1_565
Mg6_3 Mg6_7 3.185389 1_455
Mg6_3 Mg6_7 3.185389 1_555
Mg6_3 Mg6_5 3.185389 1_455
Mg6_3 Mg6_5 3.185389 1_565
Mg6_4 Mg8_6 3.162876 1_555
Mg6_4 Mg8_4 3.162878 1_555
Mg6_4 Mg8_2 3.162878 1_655
Mg6_4 Mg6_6 3.185388 1_545
Mg6_4 Mg6_6 3.185388 1_555
Mg6_5 Mg8_7 3.162876 1_555
Mg6_5 Mg8_5 3.162878 1_555
Mg6_5 Mg8_3 3.162878 1_655
Mg6_5 Mg6_7 3.185388 1_545
Mg6_5 Mg6_7 3.185388 1_555
Mg6_6 Mg8_4 3.162876 1_565
Mg6_6 Mg8_6 3.162878 1_555
Mg6_6 Mg8_0 3.162878 1_665
Mg6_7 Mg8_5 3.162876 1_565
Mg6_7 Mg8_7 3.162878 1_555
Mg6_7 Mg8_1 3.162878 1_665
Mg7_0 Mg8_2 3.146750 1_555
Mg7_0 Mg8_0 3.146751 1_555
Mg7_0 Mg8_6 3.146752 1_555
Mg7_0 Mg7_2 3.185388 1_545
Mg7_0 Mg7_2 3.185388 1_555
Mg7_0 Mg7_4 3.185389 1_455
Mg7_0 Mg7_4 3.185389 1_555
Mg7_0 Mg7_6 3.185389 1_445
Mg7_0 Mg7_6 3.185389 1_555
Mg7_1 Mg8_3 3.146750 1_555
Mg7_1 Mg8_1 3.146751 1_555
Mg7_1 Mg8_7 3.146752 1_555
Mg7_1 Mg7_3 3.185388 1_555
Mg7_1 Mg7_3 3.185388 1_545
Mg7_1 Mg7_5 3.185389 1_455
Mg7_1 Mg7_5 3.185389 1_555
Mg7_1 Mg7_7 3.185389 1_445
Mg7_1 Mg7_7 3.185389 1_555
Mg7_2 Mg8_0 3.146750 1_565
Mg7_2 Mg8_2 3.146751 1_555
Mg7_2 Mg8_4 3.146752 1_565
Mg7_2 Mg7_6 3.185389 1_555
Mg7_2 Mg7_6 3.185389 1_455
Mg7_2 Mg7_4 3.185389 1_455
Mg7_2 Mg7_4 3.185389 1_565
Mg7_3 Mg8_1 3.146750 1_565
Mg7_3 Mg8_3 3.146751 1_555
Mg7_3 Mg8_5 3.146752 1_565
Mg7_3 Mg7_7 3.185389 1_455
Mg7_3 Mg7_7 3.185389 1_555
Mg7_3 Mg7_5 3.185389 1_455
Mg7_3 Mg7_5 3.185389 1_565
Mg7_4 Mg8_6 3.146750 1_555
Mg7_4 Mg8_4 3.146751 1_555
Mg7_4 Mg8_2 3.146752 1_655
Mg7_4 Mg7_6 3.185388 1_545
Mg7_4 Mg7_6 3.185388 1_555
Mg7_5 Mg8_7 3.146750 1_555
Mg7_5 Mg8_5 3.146751 1_555
Mg7_5 Mg8_3 3.146752 1_655
Mg7_5 Mg7_7 3.185388 1_555
Mg7_5 Mg7_7 3.185388 1_545
Mg7_6 Mg8_4 3.146750 1_565
Mg7_6 Mg8_6 3.146751 1_555
Mg7_6 Mg8_0 3.146752 1_665
Mg7_7 Mg8_5 3.146750 1_565
Mg7_7 Mg8_7 3.146751 1_555
Mg7_7 Mg8_1 3.146752 1_665
Mg8_0 Mg8_2 3.185388 1_545
Mg8_0 Mg8_2 3.185388 1_555
Mg8_0 Mg8_4 3.185389 1_555
Mg8_0 Mg8_4 3.185389 1_455
Mg8_0 Mg8_6 3.185389 1_555
Mg8_0 Mg8_6 3.185389 1_445
Mg8_1 Mg8_3 3.185388 1_555
Mg8_1 Mg8_3 3.185388 1_545
Mg8_1 Mg8_5 3.185389 1_455
Mg8_1 Mg8_5 3.185389 1_555
Mg8_1 Mg8_7 3.185389 1_555
Mg8_1 Mg8_7 3.185389 1_445
Mg8_2 Mg8_6 3.185389 1_455
Mg8_2 Mg8_6 3.185389 1_555
Mg8_2 Mg8_4 3.185389 1_565
Mg8_2 Mg8_4 3.185389 1_455
Mg8_3 Mg8_7 3.185389 1_455
Mg8_3 Mg8_7 3.185389 1_555
Mg8_3 Mg8_5 3.185389 1_455
Mg8_3 Mg8_5 3.185389 1_565
Mg8_4 Mg8_6 3.185388 1_555
Mg8_4 Mg8_6 3.185388 1_545
Mg8_5 Mg8_7 3.185388 1_555
Mg8_5 Mg8_7 3.185388 1_545
