# generated using pymatgen
data_Y2(Al3Pd)3
_symmetry_space_group_name_H-M   'P 1'
_cell_length_a   7.61412762
_cell_length_b   7.61414391
_cell_length_c   9.39205589
_cell_angle_alpha   90.00031108
_cell_angle_beta   90.00009335
_cell_angle_gamma   119.45771862
_symmetry_Int_Tables_number   1
_chemical_formula_structural   Y2(Al3Pd)3
_chemical_formula_sum   'Y4 Al18 Pd6'
_cell_volume   474.11079501
_cell_formula_units_Z   2
loop_
 _symmetry_equiv_pos_site_id
 _symmetry_equiv_pos_as_xyz
  1  'x, y, z'
loop_
 _atom_site_type_symbol
 _atom_site_label
 _atom_site_symmetry_multiplicity
 _atom_site_fract_x
 _atom_site_fract_y
 _atom_site_fract_z
 _atom_site_occupancy
  Y  Y0  1  0.99237578  0.67082440  0.24998538  1
  Y  Y1  1  0.00763048  0.32917685  0.75001368  1
  Y  Y2  1  0.67082773  0.99237962  0.24998345  1
  Y  Y3  1  0.32917166  0.00762459  0.75001356  1
  Al  Al0  1  0.13161467  0.13161547  0.24999719  1
  Al  Al1  1  0.86841084  0.86841319  0.74999511  1
  Al  Al2  1  0.00127751  0.33521866  0.07522435  1
  Al  Al3  1  -0.00129302  0.66477274  0.92475768  1
  Al  Al4  1  -0.00128029  0.66478015  0.57524739  1
  Al  Al5  1  0.33521816  0.00128161  0.42477322  1
  Al  Al6  1  0.00128589  0.33522231  0.42477634  1
  Al  Al7  1  0.66478201  -0.00127610  0.57524712  1
  Al  Al8  1  0.66477615  -0.00129387  0.92475453  1
  Al  Al9  1  0.33521728  0.00127462  0.07522615  1
  Al  Al10  1  0.33341582  0.33341514  0.55133773  1
  Al  Al11  1  0.66660982  0.66661699  0.44866610  1
  Al  Al12  1  0.66659215  0.66659048  0.05131350  1
  Al  Al13  1  0.33337943  0.33337739  0.94866810  1
  Al  Al14  1  0.33915282  0.54602675  0.25000238  1
  Al  Al15  1  0.66084517  0.45395848  0.75000103  1
  Al  Al16  1  0.54602450  0.33915496  0.25000270  1
  Al  Al17  1  0.45396586  0.66084628  0.74999925  1
  Pd  Pd0  1  0.67227198  0.32768590  0.00001063  1
  Pd  Pd1  1  0.32769340  0.67227373  0.00000561  1
  Pd  Pd2  1  0.32772470  0.67229928  0.49999902  1
  Pd  Pd3  1  0.67229561  0.32772955  0.49999530  1
  Pd  Pd4  1  -0.00000010  -0.00000501  -0.00000012  1
  Pd  Pd5  1  0.00001400  0.00001585  0.50000363  1
loop_
_geom_bond_atom_site_label_1
_geom_bond_atom_site_label_2
_geom_bond_distance
_geom_bond_site_symmetry_2
Al0 Pd4 2.556138 1_555
Al0 Pd5 2.556176 1_555
Al0 Al16 2.747587 1_555
Al0 Al14 2.747602 1_555
Al0 Al9 2.756054 1_555
Al0 Al2 2.756057 1_555
Al0 Al5 2.756057 1_555
Al0 Al6 2.756064 1_555
Al0 Y2 3.126503 1_445
Al0 Y0 3.126536 1_445
Al1 Pd5 2.556056 1_665
Al1 Pd4 2.556104 1_666
Al1 Al17 2.747821 1_555
Al1 Al15 2.747891 1_555
Al1 Al7 2.755931 1_565
Al1 Al8 2.755938 1_565
Al1 Al4 2.755939 1_655
Al1 Al3 2.756010 1_655
Al1 Y3 3.126353 1_665
Al1 Y1 3.126368 1_665
Al2 Pd0 2.576132 1_455
Al2 Pd1 2.643661 1_555
Al2 Pd4 2.643817 1_555
Al2 Al3 2.888301 1_554
Al2 Al8 2.944482 1_454
Al2 Y1 3.055484 1_554
Al2 Y2 3.062516 1_445
Al2 Y0 3.065746 1_455
Al3 Pd1 2.576191 1_556
Al3 Pd4 2.643796 1_566
Al3 Pd0 2.643937 1_456
Al3 Al9 2.944470 1_566
Al3 Y0 3.055642 1_456
Al3 Y3 3.062530 1_565
Al3 Y1 3.065668 1_555
Al4 Pd2 2.576267 1_555
Al4 Pd3 2.643747 1_455
Al4 Pd5 2.643902 1_565
Al4 Al6 2.888319 1_555
Al4 Al5 2.944472 1_565
Al4 Y0 3.055965 1_455
Al4 Y3 3.062557 1_565
Al4 Y1 3.065801 1_555
Al5 Pd2 2.576140 1_545
Al5 Pd5 2.643731 1_555
Al5 Pd3 2.643859 1_555
Al5 Al7 2.888344 1_555
Al5 Y3 3.055762 1_555
Al5 Y0 3.062675 1_445
Al5 Y2 3.065921 1_545
Al6 Pd3 2.576176 1_455
Al6 Pd5 2.643726 1_555
Al6 Pd2 2.643827 1_555
Al6 Al7 2.944464 1_455
Al6 Y1 3.055734 1_555
Al6 Y2 3.062704 1_445
Al6 Y0 3.065915 1_455
Al7 Pd3 2.576308 1_555
Al7 Pd2 2.643764 1_545
Al7 Pd5 2.643874 1_655
Al7 Y2 3.055981 1_545
Al7 Y1 3.062575 1_655
Al7 Y3 3.065804 1_555
Al8 Pd0 2.576184 1_556
Al8 Pd4 2.643827 1_656
Al8 Pd1 2.643907 1_546
Al8 Al9 2.888340 1_556
Al8 Y2 3.055653 1_546
Al8 Y1 3.062540 1_655
Al8 Y3 3.065693 1_555
Al9 Pd1 2.576149 1_545
Al9 Pd0 2.643635 1_555
Al9 Pd4 2.643766 1_555
Al9 Y3 3.055503 1_554
Al9 Y0 3.062526 1_445
Al9 Y2 3.065736 1_545
Al10 Pd5 2.604349 1_555
Al10 Pd3 2.646145 1_555
Al10 Pd2 2.646200 1_555
Al10 Al11 2.733523 1_555
Al10 Al6 2.800460 1_555
Al10 Al5 2.800482 1_555
Al10 Al17 2.878999 1_555
Al10 Al15 2.879005 1_555
Al10 Y1 3.091508 1_555
Al10 Y3 3.091532 1_555
Al11 Pd5 2.604363 1_665
Al11 Pd2 2.646157 1_555
Al11 Pd3 2.646188 1_555
Al11 Al7 2.800451 1_565
Al11 Al4 2.800503 1_655
Al11 Al14 2.879119 1_555
Al11 Al16 2.879148 1_555
Al11 Y2 3.091477 1_555
Al11 Y0 3.091508 1_555
Al12 Pd4 2.604362 1_665
Al12 Pd1 2.646218 1_555
Al12 Pd0 2.646244 1_555
Al12 Al13 2.733531 1_554
Al12 Al3 2.800374 1_654
Al12 Al8 2.800395 1_564
Al12 Al16 2.879196 1_555
Al12 Al14 2.879210 1_555
Al12 Y0 3.091482 1_555
Al12 Y2 3.091498 1_555
Al13 Pd4 2.604204 1_556
Al13 Pd0 2.646262 1_556
Al13 Pd1 2.646265 1_556
Al13 Al2 2.800367 1_556
Al13 Al9 2.800377 1_556
Al13 Al15 2.879206 1_555
Al13 Al17 2.879237 1_555
Al13 Y1 3.091270 1_555
Al13 Y3 3.091272 1_555
Al14 Pd1 2.554836 1_555
Al14 Pd2 2.554849 1_555
Al14 Al16 2.720754 1_555
Al14 Al6 2.797784 1_555
Al14 Al2 2.797835 1_555
Al14 Y2 3.079998 1_555
Al14 Y0 3.215962 1_455
Al15 Pd3 2.554835 1_555
Al15 Pd0 2.554969 1_556
Al15 Al17 2.720910 1_555
Al15 Al3 2.797658 1_655
Al15 Al4 2.797725 1_655
Al15 Y3 3.079894 1_555
Al15 Y1 3.215937 1_655
Al16 Pd0 2.554808 1_555
Al16 Pd3 2.554809 1_555
Al16 Al5 2.797803 1_555
Al16 Al9 2.797852 1_555
Al16 Y0 3.079975 1_555
Al16 Y2 3.215983 1_545
Al17 Pd2 2.554831 1_555
Al17 Pd1 2.554937 1_556
Al17 Al8 2.797638 1_565
Al17 Al7 2.797732 1_565
Al17 Y1 3.079890 1_555
Al17 Y3 3.215957 1_565
