# generated using pymatgen
data_EuSiNi2Ge
_symmetry_space_group_name_H-M   'P 1'
_cell_length_a   5.74762081
_cell_length_b   5.74762081
_cell_length_c   5.74762081
_cell_angle_alpha   138.44444614
_cell_angle_beta   138.44444614
_cell_angle_gamma   60.22298612
_symmetry_Int_Tables_number   1
_chemical_formula_structural   EuSiNi2Ge
_chemical_formula_sum   'Eu1 Si1 Ni2 Ge1'
_cell_volume   82.67932106
_cell_formula_units_Z   1
loop_
 _symmetry_equiv_pos_site_id
 _symmetry_equiv_pos_as_xyz
  1  'x, y, z'
loop_
 _atom_site_type_symbol
 _atom_site_label
 _atom_site_symmetry_multiplicity
 _atom_site_fract_x
 _atom_site_fract_y
 _atom_site_fract_z
 _atom_site_occupancy
  Eu  Eu0  1  0.99899000  0.99899000  0.00000000  1
  Si  Si0  1  0.36357700  0.36357700  0.00000000  1
  Ni  Ni0  1  0.75454400  0.25454400  0.50000000  1
  Ni  Ni1  1  0.25454400  0.75454400  0.50000000  1
  Ge  Ge0  1  0.62834400  0.62834400  0.00000000  1
loop_
_geom_bond_atom_site_label_1
_geom_bond_atom_site_label_2
_geom_bond_distance
_geom_bond_site_symmetry_2
Eu0 Ge0 3.157383 1_554
Eu0 Ge0 3.157383 1_565
Eu0 Ge0 3.157383 1_655
Eu0 Ge0 3.157383 1_666
Eu0 Ni0 3.172675 1_554
Eu0 Ni1 3.172675 1_554
Eu0 Ni1 3.172675 1_655
Eu0 Ni0 3.172675 1_565
Eu0 Si0 3.182404 1_565
Eu0 Si0 3.182404 1_666
Eu0 Si0 3.182404 1_655
Eu0 Si0 3.182404 1_554
Eu0 Ni1 3.258077 1_654
Eu0 Ni0 3.258077 1_564
Eu0 Ni0 3.258077 1_665
Eu0 Ni1 3.258077 1_665
Ni0 Si0 2.309284 1_555
Ni0 Si0 2.309284 1_656
Ni1 Si0 2.309284 1_555
Ni1 Si0 2.309284 1_566
Ge0 Ni0 2.394182 1_554
Ge0 Ni1 2.394182 1_554
Ge0 Ni1 2.394182 1_655
Ge0 Ni0 2.394182 1_565
Ge0 Si0 2.632835 1_555
