# generated using pymatgen
data_PrIClO13
_symmetry_space_group_name_H-M   'P 1'
_cell_length_a   7.16765300
_cell_length_b   13.23686300
_cell_length_c   13.34619306
_cell_angle_alpha   65.16623128
_cell_angle_beta   90.00000000
_cell_angle_gamma   90.00000000
_symmetry_Int_Tables_number   1
_chemical_formula_structural   PrIClO13
_chemical_formula_sum   'Pr4 I4 Cl4 O52'
_cell_volume   1149.15997164
_cell_formula_units_Z   4
loop_
 _symmetry_equiv_pos_site_id
 _symmetry_equiv_pos_as_xyz
  1  'x, y, z'
loop_
 _atom_site_type_symbol
 _atom_site_label
 _atom_site_symmetry_multiplicity
 _atom_site_fract_x
 _atom_site_fract_y
 _atom_site_fract_z
 _atom_site_occupancy
  Pr  Pr0  1  0.87734100  0.81674200  0.00330700  1
  Pr  Pr1  1  0.12265900  0.18325800  0.99669300  1
  Pr  Pr2  1  0.37734100  0.68325800  0.99669300  1
  Pr  Pr3  1  0.62265900  0.31674200  0.00330700  1
  I  I0  1  0.37919300  0.90091500  0.08358800  1
  I  I1  1  0.62080700  0.09908500  0.91641200  1
  I  I2  1  0.87919300  0.59908500  0.91641200  1
  I  I3  1  0.12080700  0.40091500  0.08358800  1
  Cl  Cl0  1  0.72325600  0.87630700  0.46479300  1
  Cl  Cl1  1  0.27674400  0.12369300  0.53520700  1
  Cl  Cl2  1  0.22325600  0.62369300  0.53520700  1
  Cl  Cl3  1  0.77674400  0.37630700  0.46479300  1
  O  O0  1  0.58244100  0.85910600  0.54778100  1
  O  O1  1  0.41755900  0.14089400  0.45221900  1
  O  O2  1  0.08244100  0.64089400  0.45221900  1
  O  O3  1  0.91755900  0.35910600  0.54778100  1
  O  O4  1  0.31548500  0.49947600  0.07516100  1
  O  O5  1  0.68451500  0.50052400  0.92483900  1
  O  O6  1  0.81548500  0.00052400  0.92483900  1
  O  O7  1  0.18451500  0.99947600  0.07516100  1
  O  O8  1  0.55906800  0.79964500  0.06612400  1
  O  O9  1  0.44093200  0.20035500  0.93387600  1
  O  O10  1  0.05906800  0.70035500  0.93387600  1
  O  O11  1  0.94093200  0.29964500  0.06612400  1
  O  O12  1  0.68757800  0.97496600  0.36451400  1
  O  O13  1  0.31242200  0.02503400  0.63548600  1
  O  O14  1  0.18757800  0.52503400  0.63548600  1
  O  O15  1  0.81242200  0.47496600  0.36451400  1
  O  O16  1  0.73416700  0.77760900  0.43992300  1
  O  O17  1  0.26583300  0.22239100  0.56007700  1
  O  O18  1  0.23416700  0.72239100  0.56007700  1
  O  O19  1  0.76583300  0.27760900  0.43992300  1
  O  O20  1  0.36914200  0.82788300  0.23060300  1
  O  O21  1  0.63085800  0.17211700  0.76939700  1
  O  O22  1  0.86914200  0.67211700  0.76939700  1
  O  O23  1  0.13085800  0.32788300  0.23060300  1
  O  O24  1  0.91683000  0.81212600  0.24353900  1
  O  O25  1  0.08317000  0.18787400  0.75646100  1
  O  O26  1  0.41683000  0.68787400  0.75646100  1
  O  O27  1  0.58317000  0.31212600  0.24353900  1
  O  O28  1  0.58092100  0.00496900  0.08193800  1
  O  O29  1  0.41907900  0.99503100  0.91806200  1
  O  O30  1  0.08092100  0.49503100  0.91806200  1
  O  O31  1  0.91907900  0.50496900  0.08193800  1
  O  O32  1  0.91165400  0.72629300  0.22784500  1
  O  O33  1  0.08834600  0.27370700  0.77215500  1
  O  O34  1  0.41165400  0.77370700  0.77215500  1
  O  O35  1  0.58834600  0.22629300  0.22784500  1
  O  O36  1  0.70158900  0.53346800  0.66967600  1
  O  O37  1  0.29841100  0.46653200  0.33032400  1
  O  O38  1  0.20158900  0.96653200  0.33032400  1
  O  O39  1  0.79841100  0.03346800  0.66967600  1
  O  O40  1  0.34255800  0.56187300  0.26981400  1
  O  O41  1  0.65744200  0.43812700  0.73018600  1
  O  O42  1  0.84255800  0.93812700  0.73018600  1
  O  O43  1  0.15744200  0.06187300  0.26981400  1
  O  O44  1  0.90965400  0.88351800  0.50844900  1
  O  O45  1  0.09034600  0.11648200  0.49155100  1
  O  O46  1  0.40965400  0.61648200  0.49155100  1
  O  O47  1  0.59034600  0.38351800  0.50844900  1
  O  O48  1  0.20533100  0.81617100  0.03881200  1
  O  O49  1  0.79466900  0.18382900  0.96118800  1
  O  O50  1  0.70533100  0.68382900  0.96118800  1
  O  O51  1  0.29466900  0.31617100  0.03881200  1
loop_
_geom_bond_atom_site_label_1
_geom_bond_atom_site_label_2
_geom_bond_distance
_geom_bond_site_symmetry_2
I0 O20 1.787814 1_555
I0 O7 1.881111 1_555
I0 O48 1.931700 1_555
I0 O8 1.943179 1_555
I0 O28 1.990671 1_565
I0 O29 2.049957 1_554
I1 O21 1.787814 1_555
I1 O6 1.881111 1_555
I1 O49 1.931700 1_555
I1 O9 1.943179 1_555
I1 O29 1.990671 1_545
I1 O28 2.049957 1_556
I2 O22 1.787814 1_555
I2 O5 1.881111 1_555
I2 O50 1.931700 1_555
I2 O10 1.943179 1_655
I2 O30 1.990671 1_655
I2 O31 2.049957 1_556
I3 O23 1.787814 1_555
I3 O4 1.881111 1_555
I3 O51 1.931700 1_555
I3 O11 1.943179 1_455
I3 O31 1.990671 1_455
I3 O30 2.049957 1_554
Cl0 O0 1.444108 1_555
Cl0 O12 1.447041 1_555
Cl0 O44 1.476580 1_555
Cl0 O16 1.478968 1_555
Cl1 O1 1.444108 1_555
Cl1 O13 1.447041 1_555
Cl1 O45 1.476580 1_555
Cl1 O17 1.478968 1_555
Cl2 O2 1.444108 1_555
Cl2 O14 1.447041 1_555
Cl2 O46 1.476580 1_555
Cl2 O18 1.478968 1_555
Cl3 O3 1.444108 1_555
Cl3 O15 1.447041 1_555
Cl3 O47 1.476580 1_555
Cl3 O19 1.478968 1_555
O4 Pr2 2.251969 1_554
O5 Pr3 2.251969 1_556
O6 Pr0 2.251969 1_546
O7 Pr1 2.251969 1_564
O8 Pr0 2.408091 1_555
O8 Pr2 2.475457 1_554
O9 Pr1 2.408091 1_555
O9 Pr3 2.475457 1_556
O10 Pr2 2.408091 1_555
O10 Pr0 2.475457 1_456
O11 Pr3 2.408091 1_555
O11 Pr1 2.475457 1_654
O24 O32 1.239354 1_555
O25 O33 1.239354 1_555
O26 O34 1.239354 1_555
O27 O35 1.239354 1_555
O32 Pr0 2.731407 1_555
O33 Pr1 2.731407 1_555
O34 Pr2 2.731407 1_555
O35 Pr3 2.731407 1_555
O36 O41 1.220210 1_555
O37 O40 1.220210 1_555
O38 O43 1.220210 1_565
O39 O42 1.220210 1_545
O48 Pr0 2.397583 1_455
O48 Pr2 2.400434 1_554
O49 Pr1 2.397583 1_655
O49 Pr3 2.400434 1_556
O50 Pr2 2.397583 1_555
O50 Pr0 2.400434 1_556
O51 Pr3 2.397583 1_555
O51 Pr1 2.400434 1_554
