# generated using pymatgen
data_Ca2Ni2O5
_symmetry_space_group_name_H-M   'P 1'
_cell_length_a   3.78554700
_cell_length_b   5.35035600
_cell_length_c   10.31448400
_cell_angle_alpha   90.00342271
_cell_angle_beta   90.00002624
_cell_angle_gamma   90.00002584
_symmetry_Int_Tables_number   1
_chemical_formula_structural   Ca2Ni2O5
_chemical_formula_sum   'Ca4 Ni4 O10'
_cell_volume   208.90980738
_cell_formula_units_Z   2
loop_
 _symmetry_equiv_pos_site_id
 _symmetry_equiv_pos_as_xyz
  1  'x, y, z'
loop_
 _atom_site_type_symbol
 _atom_site_label
 _atom_site_symmetry_multiplicity
 _atom_site_fract_x
 _atom_site_fract_y
 _atom_site_fract_z
 _atom_site_occupancy
  Ca  Ca0  1  0.50000100  0.19546200  0.87050000  1
  Ca  Ca1  1  0.50000100  0.80460000  0.12942800  1
  Ca  Ca2  1  0.50000100  0.69534800  0.62959500  1
  Ca  Ca3  1  0.50000100  0.30458700  0.37048600  1
  Ni  Ni0  1  0.99999900  0.22852700  0.62586800  1
  Ni  Ni1  1  0.00000200  0.77149100  0.37413200  1
  Ni  Ni2  1  0.00000000  0.27137400  0.12591700  1
  Ni  Ni3  1  0.00000000  0.72860600  0.87409700  1
  O  O0  1  0.00000100  0.49997300  0.49998100  1
  O  O1  1  0.00000000  0.08002900  0.28816100  1
  O  O2  1  0.00000000  0.58003200  0.21181200  1
  O  O3  1  0.00000000  0.41995100  0.78813800  1
  O  O4  1  0.50000000  0.29020900  0.10089500  1
  O  O5  1  0.50000000  0.70963700  0.89913400  1
  O  O6  1  0.00000100  0.91995200  0.71181100  1
  O  O7  1  0.50000000  0.20981800  0.60085500  1
  O  O8  1  0.00000100  0.00008900  0.99998700  1
  O  O9  1  0.50000100  0.79031400  0.39920300  1
loop_
_geom_bond_atom_site_label_1
_geom_bond_atom_site_label_2
_geom_bond_distance
_geom_bond_site_symmetry_2
Ca0 O3 2.397294 1_655
Ca0 O3 2.397300 1_555
Ca0 O4 2.429843 1_556
Ca0 O8 2.541505 1_655
Ca0 O8 2.541505 1_555
Ca0 O5 2.616079 1_545
Ca0 O5 2.766810 1_555
Ca0 O7 2.782314 1_555
Ca0 O6 2.904186 1_545
Ca0 O6 2.904188 1_645
Ca1 O2 2.397586 1_655
Ca1 O2 2.397592 1_555
Ca1 O5 2.429066 1_554
Ca1 O8 2.541511 1_564
Ca1 O8 2.541511 1_664
Ca1 O4 2.614814 1_565
Ca1 O4 2.767848 1_555
Ca1 O9 2.783644 1_555
Ca1 O1 2.904220 1_665
Ca1 O1 2.904226 1_565
Ca2 O6 2.397020 1_655
Ca2 O6 2.397022 1_555
Ca2 O9 2.430117 1_555
Ca2 O0 2.542131 1_555
Ca2 O0 2.542133 1_655
Ca2 O7 2.614600 1_555
Ca2 O7 2.768532 1_565
Ca2 O5 2.781202 1_555
Ca2 O3 2.903129 1_655
Ca2 O3 2.903134 1_555
Ca3 O1 2.397293 1_655
Ca3 O1 2.397298 1_555
Ca3 O7 2.429665 1_555
Ca3 O0 2.541510 1_655
Ca3 O0 2.541512 1_555
Ca3 O9 2.615620 1_555
Ca3 O9 2.767458 1_545
Ca3 O4 2.781751 1_555
Ca3 O2 2.904020 1_655
Ca3 O2 2.904025 1_555
Ni0 O6 1.873963 1_645
Ni0 O7 1.912892 1_555
Ni0 O7 1.912900 1_655
Ni0 O0 1.948202 1_655
Ni0 O3 1.962175 1_655
Ni1 O1 1.873925 1_565
Ni1 O9 1.913005 1_555
Ni1 O9 1.913013 1_455
Ni1 O0 1.948228 1_555
Ni1 O2 1.962712 1_555
Ni2 O2 1.874027 1_555
Ni2 O4 1.912945 1_455
Ni2 O4 1.912945 1_555
Ni2 O8 1.947740 1_554
Ni2 O1 1.961830 1_555
Ni3 O3 1.874325 1_555
Ni3 O5 1.913004 1_555
Ni3 O5 1.913004 1_455
Ni3 O8 1.948255 1_565
Ni3 O6 1.962202 1_555
