# generated using pymatgen
data_B13P
_symmetry_space_group_name_H-M   'P 1'
_cell_length_a   5.18457073
_cell_length_b   5.18457053
_cell_length_c   5.18456994
_cell_angle_alpha   68.48675561
_cell_angle_beta   68.48675050
_cell_angle_gamma   68.48675501
_symmetry_Int_Tables_number   1
_chemical_formula_structural   B13P
_chemical_formula_sum   'B13 P1'
_cell_volume   116.19571388
_cell_formula_units_Z   1
loop_
 _symmetry_equiv_pos_site_id
 _symmetry_equiv_pos_as_xyz
  1  'x, y, z'
loop_
 _atom_site_type_symbol
 _atom_site_label
 _atom_site_symmetry_multiplicity
 _atom_site_fract_x
 _atom_site_fract_y
 _atom_site_fract_z
 _atom_site_occupancy
  B  B0  1  0.19536000  0.69445900  0.19536000  1
  B  B1  1  0.19536000  0.19536000  0.69445900  1
  B  B2  1  0.69445900  0.19536000  0.19536000  1
  B  B3  1  0.81355600  0.29009800  0.81355600  1
  B  B4  1  0.81355600  0.81355600  0.29009800  1
  B  B5  1  0.29009800  0.81355600  0.81355600  1
  B  B6  1  0.01080100  0.32772900  0.01080100  1
  B  B7  1  0.01080100  0.01080100  0.32772900  1
  B  B8  1  0.32772900  0.01080100  0.01080100  1
  B  B9  1  0.98862900  0.67666200  0.98862900  1
  B  B10  1  0.98862900  0.98862900  0.67666200  1
  B  B11  1  0.67666200  0.98862900  0.98862900  1
  B  B12  1  0.41326300  0.41326300  0.41326300  1
  P  P0  1  0.58109700  0.58109700  0.58109700  1
loop_
_geom_bond_atom_site_label_1
_geom_bond_atom_site_label_2
_geom_bond_distance
_geom_bond_site_symmetry_2
B0 B5 1.775890 1_554
B0 B4 1.775890 1_455
B0 B12 1.788334 1_555
B0 B7 1.808139 1_565
B0 B8 1.808139 1_565
B0 B9 1.814853 1_454
B1 B3 1.775890 1_455
B1 B5 1.775890 1_545
B1 B12 1.788334 1_555
B1 B6 1.808139 1_556
B1 B8 1.808139 1_556
B1 B10 1.814853 1_445
B2 B3 1.775890 1_554
B2 B4 1.775890 1_545
B2 B6 1.808139 1_655
B2 B7 1.808139 1_655
B3 B6 1.785855 1_656
B3 P0 1.891912 1_555
B4 B9 1.752466 1_554
B4 B7 1.785855 1_665
B4 P0 1.891912 1_555
B5 B9 1.752467 1_455
B5 B8 1.785855 1_566
B5 P0 1.891912 1_555
B6 B9 1.733148 1_454
B6 B7 1.849216 1_555
B6 B8 1.849216 1_555
B7 B8 1.849215 1_555
B10 B7 1.733148 1_665
B10 B3 1.752467 1_565
B10 B5 1.752467 1_655
B10 B11 1.820269 1_555
B10 B9 1.820269 1_555
B11 B8 1.733148 1_566
B11 B4 1.752466 1_556
B11 B3 1.752467 1_565
B11 B2 1.814853 1_566
B11 B9 1.820269 1_555
B12 B2 1.788334 1_555
B12 P0 1.984298 1_555
