# generated using pymatgen
data_BaZnBiF7
_symmetry_space_group_name_H-M   'P 1'
_cell_length_a   10.82982000
_cell_length_b   5.74330400
_cell_length_c   9.90184198
_cell_angle_alpha   88.29984637
_cell_angle_beta   90.00000000
_cell_angle_gamma   90.00000000
_symmetry_Int_Tables_number   1
_chemical_formula_structural   BaZnBiF7
_chemical_formula_sum   'Ba4 Zn4 Bi4 F28'
_cell_volume   615.61303565
_cell_formula_units_Z   4
loop_
 _symmetry_equiv_pos_site_id
 _symmetry_equiv_pos_as_xyz
  1  'x, y, z'
loop_
 _atom_site_type_symbol
 _atom_site_label
 _atom_site_symmetry_multiplicity
 _atom_site_fract_x
 _atom_site_fract_y
 _atom_site_fract_z
 _atom_site_occupancy
  Ba  Ba0  1  0.33083100  0.74947900  0.49108100  1
  Ba  Ba1  1  0.83083100  0.25052100  0.00891900  1
  Ba  Ba2  1  0.66916900  0.25052100  0.50891900  1
  Ba  Ba3  1  0.16916900  0.74947900  0.99108100  1
  Zn  Zn0  1  0.37451400  0.30056200  0.79970600  1
  Zn  Zn1  1  0.87451400  0.69943800  0.70029400  1
  Zn  Zn2  1  0.12548600  0.30056200  0.29970600  1
  Zn  Zn3  1  0.62548600  0.69943800  0.20029400  1
  Bi  Bi0  1  0.58311100  0.77308000  0.83249500  1
  Bi  Bi1  1  0.41688900  0.22692000  0.16750500  1
  Bi  Bi2  1  0.91688900  0.77308000  0.33249500  1
  Bi  Bi3  1  0.08311100  0.22692000  0.66750500  1
  F  F0  1  0.47292300  0.86087800  0.12101600  1
  F  F1  1  0.10201800  0.60316800  0.41077300  1
  F  F2  1  0.72548300  0.49374300  0.77335400  1
  F  F3  1  0.27451700  0.50625700  0.22664600  1
  F  F4  1  0.46891500  0.07605300  0.36937000  1
  F  F5  1  0.78705800  0.80259700  0.51978400  1
  F  F6  1  0.76804800  0.96811700  0.77188500  1
  F  F7  1  0.96891500  0.92394700  0.13063000  1
  F  F8  1  0.39798200  0.60316800  0.91077300  1
  F  F9  1  0.22548300  0.50625700  0.72664600  1
  F  F10  1  0.02707700  0.86087800  0.62101600  1
  F  F11  1  0.52707700  0.13912200  0.87898400  1
  F  F12  1  0.26804800  0.03188300  0.72811500  1
  F  F13  1  0.97787000  0.54384500  0.84583300  1
  F  F14  1  0.53108500  0.92394700  0.63063000  1
  F  F15  1  0.03108500  0.07605300  0.86937000  1
  F  F16  1  0.23195200  0.03188300  0.22811500  1
  F  F17  1  0.97292300  0.13912200  0.37898400  1
  F  F18  1  0.47787000  0.45615500  0.65416700  1
  F  F19  1  0.89798200  0.39683200  0.58922700  1
  F  F20  1  0.02213000  0.45615500  0.15416700  1
  F  F21  1  0.73195200  0.96811700  0.27188500  1
  F  F22  1  0.52213000  0.54384500  0.34583300  1
  F  F23  1  0.28705800  0.19740300  0.98021600  1
  F  F24  1  0.21294200  0.19740300  0.48021600  1
  F  F25  1  0.71294200  0.80259700  0.01978400  1
  F  F26  1  0.60201800  0.39683200  0.08922700  1
  F  F27  1  0.77451700  0.49374300  0.27335400  1
loop_
_geom_bond_atom_site_label_1
_geom_bond_atom_site_label_2
_geom_bond_distance
_geom_bond_site_symmetry_2
Ba0 F4 2.659420 1_565
Ba0 F1 2.742008 1_555
Ba0 F14 2.774686 1_555
Ba0 F18 2.796448 1_555
Ba0 F22 2.802884 1_555
Ba0 F24 2.871104 1_565
Ba0 F9 2.915531 1_555
Ba0 F12 2.971129 1_565
Ba0 F3 3.065336 1_555
Ba0 F16 3.210419 1_565
Ba1 F7 2.659420 1_545
Ba1 F26 2.742008 1_555
Ba1 F15 2.774686 1_654
Ba1 F13 2.796448 1_554
Ba1 F20 2.802884 1_655
Ba1 F25 2.871104 1_545
Ba1 F2 2.915531 1_554
Ba1 F6 2.971129 1_544
Ba1 F27 3.065336 1_555
Ba1 F21 3.210419 1_545
Ba2 F14 2.659420 1_545
Ba2 F19 2.742008 1_555
Ba2 F4 2.774686 1_555
Ba2 F22 2.796448 1_555
Ba2 F18 2.802884 1_555
Ba2 F5 2.871104 1_545
Ba2 F27 2.915531 1_555
Ba2 F21 2.971129 1_545
Ba2 F2 3.065336 1_555
Ba2 F6 3.210419 1_545
Ba3 F15 2.659420 1_565
Ba3 F8 2.742008 1_555
Ba3 F7 2.774686 1_456
Ba3 F20 2.796448 1_556
Ba3 F13 2.802884 1_455
Ba3 F23 2.871104 1_565
Ba3 F3 2.915531 1_556
Ba3 F16 2.971129 1_566
Ba3 F9 3.065336 1_555
Ba3 F12 3.210419 1_565
Bi0 F14 2.227287 1_555
Bi0 F11 2.248822 1_565
Bi0 F2 2.312976 1_555
Bi0 F25 2.337424 1_556
Bi0 F8 2.351142 1_555
Bi0 F6 2.363554 1_555
Bi1 F4 2.227287 1_555
Bi1 F0 2.248822 1_545
Bi1 F3 2.312976 1_555
Bi1 F23 2.337424 1_554
Bi1 F26 2.351142 1_555
Bi1 F16 2.363554 1_555
Bi2 F7 2.227287 1_555
Bi2 F17 2.248822 1_565
Bi2 F27 2.312976 1_555
Bi2 F5 2.337424 1_555
Bi2 F1 2.351142 1_655
Bi2 F21 2.363554 1_555
Bi3 F15 2.227287 1_555
Bi3 F10 2.248822 1_545
Bi3 F9 2.312976 1_555
Bi3 F24 2.337424 1_555
Bi3 F19 2.351142 1_455
Bi3 F12 2.363554 1_555
F0 Zn3 2.040244 1_555
F1 Zn2 2.099523 1_555
F2 Zn1 2.114993 1_555
F3 Zn2 2.114993 1_555
F5 Zn1 2.092840 1_555
F6 Zn1 2.068338 1_555
F8 Zn0 2.099523 1_555
F9 Zn0 2.114993 1_555
F10 Zn1 2.040244 1_455
F11 Zn0 2.040244 1_555
F12 Zn0 2.068338 1_555
F13 Zn1 2.012911 1_555
F16 Zn2 2.068338 1_555
F17 Zn2 2.040244 1_655
F18 Zn0 2.012911 1_555
F19 Zn1 2.099523 1_555
F20 Zn2 2.012911 1_555
F21 Zn3 2.068338 1_555
F22 Zn3 2.012911 1_555
F23 Zn0 2.092840 1_555
F24 Zn2 2.092840 1_555
F25 Zn3 2.092840 1_555
F26 Zn3 2.099523 1_555
F27 Zn3 2.114993 1_555
