# generated using pymatgen
data_Co3Ni3S8
_symmetry_space_group_name_H-M   'P 1'
_cell_length_a   6.60793671
_cell_length_b   6.60793671
_cell_length_c   6.60793611
_cell_angle_alpha   60.13669287
_cell_angle_beta   60.13669287
_cell_angle_gamma   60.13668539
_symmetry_Int_Tables_number   1
_chemical_formula_structural   Co3Ni3S8
_chemical_formula_sum   'Co3 Ni3 S8'
_cell_volume   204.65637278
_cell_formula_units_Z   1
loop_
 _symmetry_equiv_pos_site_id
 _symmetry_equiv_pos_as_xyz
  1  'x, y, z'
loop_
 _atom_site_type_symbol
 _atom_site_label
 _atom_site_symmetry_multiplicity
 _atom_site_fract_x
 _atom_site_fract_y
 _atom_site_fract_z
 _atom_site_occupancy
  Co  Co0  1  0.62469900  0.62469900  0.62469900  1
  Co  Co1  1  0.37530100  0.37530100  0.37530100  1
  Co  Co2  1  0.00000000  0.00000000  0.00000000  1
  Ni  Ni0  1  0.00000000  0.50000000  0.00000000  1
  Ni  Ni1  1  0.50000000  0.00000000  0.00000000  1
  Ni  Ni2  1  0.00000000  0.00000000  0.50000000  1
  S  S0  1  0.24416900  0.24416900  0.24416900  1
  S  S1  1  0.24100000  0.77017700  0.24100000  1
  S  S2  1  0.77017700  0.24100000  0.24100000  1
  S  S3  1  0.24100000  0.24100000  0.77017700  1
  S  S4  1  0.75583100  0.75583100  0.75583100  1
  S  S5  1  0.75900000  0.22982300  0.75900000  1
  S  S6  1  0.22982300  0.75900000  0.75900000  1
  S  S7  1  0.75900000  0.75900000  0.22982300  1
loop_
_geom_bond_atom_site_label_1
_geom_bond_atom_site_label_2
_geom_bond_distance
_geom_bond_site_symmetry_2
Co0 S4 2.120317 1_555
Co0 S7 2.134444 1_555
Co0 S6 2.134444 1_555
Co0 S5 2.134444 1_555
Co1 S0 2.120317 1_555
Co1 S3 2.134444 1_555
Co1 S2 2.134444 1_555
Co1 S1 2.134444 1_555
Co2 S6 2.255474 1_544
Co2 S2 2.255474 1_455
Co2 S5 2.255474 1_454
Co2 S1 2.255474 1_545
Co2 S7 2.255474 1_445
Co2 S3 2.255474 1_554
Ni0 S4 2.285649 1_454
Ni0 S0 2.285649 1_555
Ni0 S3 2.288478 1_554
Ni0 S7 2.288478 1_455
Ni0 S6 2.288479 1_554
Ni0 S2 2.288479 1_455
Ni1 S4 2.285649 1_544
Ni1 S0 2.285649 1_555
Ni1 S3 2.288478 1_554
Ni1 S7 2.288478 1_545
Ni1 S1 2.288479 1_545
Ni1 S5 2.288479 1_554
Ni2 S4 2.285650 1_445
Ni2 S0 2.285650 1_555
Ni2 S1 2.288478 1_545
Ni2 S2 2.288478 1_455
Ni2 S6 2.288478 1_545
Ni2 S5 2.288478 1_455
