# generated using pymatgen
data_Mg14NbSn
_symmetry_space_group_name_H-M   'P 1'
_cell_length_a   6.31883524
_cell_length_b   6.31883474
_cell_length_c   10.27710242
_cell_angle_alpha   90.00000000
_cell_angle_beta   90.00000000
_cell_angle_gamma   120.00000263
_symmetry_Int_Tables_number   1
_chemical_formula_structural   Mg14NbSn
_chemical_formula_sum   'Mg14 Nb1 Sn1'
_cell_volume   355.36555772
_cell_formula_units_Z   1
loop_
 _symmetry_equiv_pos_site_id
 _symmetry_equiv_pos_as_xyz
  1  'x, y, z'
loop_
 _atom_site_type_symbol
 _atom_site_label
 _atom_site_symmetry_multiplicity
 _atom_site_fract_x
 _atom_site_fract_y
 _atom_site_fract_z
 _atom_site_occupancy
  Mg  Mg0  1  0.16549297  0.83274599  0.12500000  1
  Mg  Mg1  1  0.16880990  0.83440445  0.62500000  1
  Mg  Mg2  1  0.66725401  0.33450703  0.12500000  1
  Mg  Mg3  1  0.66559555  0.33119010  0.62500000  1
  Mg  Mg4  1  0.66725401  0.83274599  0.12500000  1
  Mg  Mg5  1  0.66559555  0.83440445  0.62500000  1
  Mg  Mg6  1  0.32854202  0.17145798  0.38134456  1
  Mg  Mg7  1  0.32854202  0.17145798  0.86865544  1
  Mg  Mg8  1  0.32854202  0.65708505  0.38134456  1
  Mg  Mg9  1  0.32854202  0.65708505  0.86865544  1
  Mg  Mg10  1  0.84291495  0.17145798  0.38134456  1
  Mg  Mg11  1  0.84291495  0.17145798  0.86865544  1
  Mg  Mg12  1  0.83333300  0.66666700  0.37909061  1
  Mg  Mg13  1  0.83333300  0.66666700  0.87090939  1
  Nb  Nb0  1  0.16666700  0.33333300  0.62500000  1
  Sn  Sn0  1  0.16666700  0.33333300  0.12500000  1
loop_
_geom_bond_atom_site_label_1
_geom_bond_atom_site_label_2
_geom_bond_distance
_geom_bond_site_symmetry_2
Mg0 Mg2 3.148290 1_455
Mg0 Mg4 3.148290 1_455
Mg0 Sn0 3.159424 1_565
Mg0 Sn0 3.159424 1_555
Mg0 Mg2 3.170545 1_565
Mg0 Mg4 3.170545 1_555
Mg0 Mg13 3.181649 1_454
Mg0 Mg12 3.181649 1_455
Mg0 Mg9 3.221425 1_554
Mg0 Mg8 3.221425 1_555
Mg0 Mg7 3.221431 1_564
Mg0 Mg6 3.221431 1_565
Mg1 Mg8 3.110533 1_555
Mg1 Mg9 3.110533 1_555
Mg1 Mg6 3.110539 1_565
Mg1 Mg7 3.110539 1_565
Mg1 Mg12 3.123645 1_455
Mg1 Mg13 3.123645 1_455
Mg1 Mg3 3.139106 1_565
Mg1 Mg5 3.139107 1_555
Mg1 Nb0 3.159439 1_555
Mg1 Nb0 3.159439 1_565
Mg1 Mg3 3.179728 1_455
Mg1 Mg5 3.179729 1_455
Mg2 Mg4 3.148290 1_555
Mg2 Sn0 3.159424 1_555
Mg2 Sn0 3.159424 1_655
Mg2 Mg4 3.170545 1_545
Mg2 Mg7 3.221431 1_554
Mg2 Mg6 3.221431 1_555
Mg3 Mg6 3.110539 1_555
Mg3 Mg7 3.110539 1_555
Mg3 Mg5 3.139106 1_545
Mg3 Nb0 3.159439 1_655
Mg3 Nb0 3.159439 1_555
Mg3 Mg5 3.179728 1_555
Mg4 Sn0 3.159424 1_665
Mg4 Sn0 3.159424 1_555
Mg4 Mg9 3.221431 1_554
Mg4 Mg8 3.221431 1_555
Mg5 Mg8 3.110539 1_555
Mg5 Mg9 3.110539 1_555
Mg5 Nb0 3.159439 1_555
Mg5 Nb0 3.159439 1_665
Mg6 Nb0 3.067428 1_555
Mg6 Mg8 3.068597 1_555
Mg6 Sn0 3.174778 1_555
Mg6 Mg8 3.250238 1_545
Mg7 Nb0 3.067428 1_555
Mg7 Mg9 3.068597 1_555
Mg7 Sn0 3.174778 1_556
Mg7 Mg9 3.250238 1_545
Mg8 Nb0 3.067434 1_555
Mg8 Sn0 3.174785 1_555
Mg9 Nb0 3.067434 1_555
Mg9 Sn0 3.174785 1_556
Mg10 Nb0 3.067434 1_655
Mg10 Mg8 3.068597 1_655
Mg10 Mg6 3.068597 1_655
Mg10 Mg3 3.110533 1_555
Mg10 Mg5 3.110539 1_545
Mg10 Mg12 3.159937 1_555
Mg10 Mg12 3.159937 1_545
Mg10 Sn0 3.174785 1_655
Mg10 Mg2 3.221425 1_555
Mg10 Mg4 3.221431 1_545
Mg10 Mg8 3.250238 1_545
Mg10 Mg6 3.250238 1_555
Mg11 Nb0 3.067434 1_655
Mg11 Mg9 3.068597 1_655
Mg11 Mg7 3.068597 1_655
Mg11 Mg3 3.110533 1_555
Mg11 Mg5 3.110539 1_545
Mg11 Mg13 3.159937 1_555
Mg11 Mg13 3.159937 1_545
Mg11 Sn0 3.174785 1_656
Mg11 Mg2 3.221425 1_556
Mg11 Mg4 3.221431 1_546
Mg11 Mg9 3.250238 1_545
Mg11 Mg7 3.250238 1_555
Mg12 Mg5 3.123639 1_555
Mg12 Mg3 3.123645 1_555
Mg12 Mg6 3.159937 1_665
Mg12 Mg6 3.159937 1_555
Mg12 Mg8 3.159938 1_655
Mg12 Mg8 3.159938 1_555
Mg12 Mg4 3.181643 1_555
Mg12 Mg2 3.181649 1_555
Mg13 Mg5 3.123639 1_555
Mg13 Mg3 3.123645 1_555
Mg13 Mg7 3.159937 1_665
Mg13 Mg7 3.159937 1_555
Mg13 Mg9 3.159938 1_655
Mg13 Mg9 3.159938 1_555
Mg13 Mg4 3.181643 1_556
Mg13 Mg2 3.181649 1_556
