# generated using pymatgen
data_Na2Cu2Si5(H3O8)2
_symmetry_space_group_name_H-M   'P 1'
_cell_length_a   5.26147200
_cell_length_b   11.37238700
_cell_length_c   15.65180700
_cell_angle_alpha   49.37487383
_cell_angle_beta   90.00000000
_cell_angle_gamma   90.00000000
_symmetry_Int_Tables_number   1
_chemical_formula_structural   Na2Cu2Si5(H3O8)2
_chemical_formula_sum   'Na4 Cu4 Si10 H12 O32'
_cell_volume   710.81577204
_cell_formula_units_Z   2
loop_
 _symmetry_equiv_pos_site_id
 _symmetry_equiv_pos_as_xyz
  1  'x, y, z'
loop_
 _atom_site_type_symbol
 _atom_site_label
 _atom_site_symmetry_multiplicity
 _atom_site_fract_x
 _atom_site_fract_y
 _atom_site_fract_z
 _atom_site_occupancy
  Na  Na0  1  0.28370600  0.17965700  0.05923600  1
  Na  Na1  1  0.73232300  0.84331400  0.93259400  1
  Na  Na2  1  0.26767700  0.84331400  0.43259400  1
  Na  Na3  1  0.71629400  0.17965700  0.55923600  1
  Cu  Cu0  1  0.76296400  0.05879600  0.01867500  1
  Cu  Cu1  1  0.24118300  0.94450800  0.98166600  1
  Cu  Cu2  1  0.75881700  0.94450800  0.48166600  1
  Cu  Cu3  1  0.23703600  0.05879600  0.51867500  1
  Si  Si0  1  0.45649600  0.32772200  0.79003800  1
  Si  Si1  1  0.54381300  0.67219600  0.21068600  1
  Si  Si2  1  0.45618700  0.67219600  0.71068600  1
  Si  Si3  1  0.54350400  0.32772200  0.29003800  1
  Si  Si4  1  0.80574600  0.99817700  0.25057900  1
  Si  Si5  1  0.19425400  0.99817700  0.75057900  1
  Si  Si6  1  0.05553300  0.78645800  0.23310400  1
  Si  Si7  1  0.94672500  0.21396500  0.76674300  1
  Si  Si8  1  0.05327500  0.21396500  0.26674300  1
  Si  Si9  1  0.94446700  0.78645800  0.73310400  1
  H  H0  1  0.02307900  0.44908600  0.87443700  1
  H  H1  1  0.97713000  0.54276000  0.13045300  1
  H  H2  1  0.02287000  0.54276000  0.63045300  1
  H  H3  1  0.97692100  0.44908600  0.37443700  1
  H  H4  1  0.81684500  0.35769900  0.96961800  1
  H  H5  1  0.16545600  0.64494100  0.02934700  1
  H  H6  1  0.83454400  0.64494100  0.52934700  1
  H  H7  1  0.18315500  0.35769900  0.46961800  1
  H  H8  1  0.49971000  0.38142100  0.08353600  1
  H  H9  1  0.50029000  0.38142100  0.58353600  1
  H  H10  1  0.53624100  0.51332900  0.95165800  1
  H  H11  1  0.46375900  0.51332900  0.45165800  1
  O  O0  1  0.17838500  0.33485900  0.73539600  1
  O  O1  1  0.82282900  0.66687200  0.26313000  1
  O  O2  1  0.17717100  0.66687200  0.76313000  1
  O  O3  1  0.82161500  0.33485900  0.23539600  1
  O  O4  1  0.64248500  0.03499500  0.14820000  1
  O  O5  1  0.35451400  0.95671800  0.85552500  1
  O  O6  1  0.64548600  0.95671800  0.35552500  1
  O  O7  1  0.35751500  0.03499500  0.64820000  1
  O  O8  1  0.96298800  0.34403500  0.93696400  1
  O  O9  1  0.01340100  0.65000300  0.06227700  1
  O  O10  1  0.98659900  0.65000300  0.56227700  1
  O  O11  1  0.03701200  0.34403500  0.43696400  1
  O  O12  1  0.00711500  0.14705700  0.20118700  1
  O  O13  1  0.99190100  0.84908900  0.80168300  1
  O  O14  1  0.00809900  0.84908900  0.30168300  1
  O  O15  1  0.99288500  0.14705700  0.70118700  1
  O  O16  1  0.32037400  0.31569100  0.21925800  1
  O  O17  1  0.67846200  0.68509500  0.78045200  1
  O  O18  1  0.32153800  0.68509500  0.28045200  1
  O  O19  1  0.67962600  0.31569100  0.71925800  1
  O  O20  1  0.48626200  0.49986000  0.75007500  1
  O  O21  1  0.51373800  0.49986000  0.25007500  1
  O  O22  1  0.47035800  0.18477600  0.92301100  1
  O  O23  1  0.52569300  0.81018600  0.07668200  1
  O  O24  1  0.47430700  0.81018600  0.57668200  1
  O  O25  1  0.52964200  0.18477600  0.42301100  1
  O  O26  1  0.92583000  0.06510800  0.90097300  1
  O  O27  1  0.07687600  0.93717900  0.09921100  1
  O  O28  1  0.92312400  0.93717900  0.59921100  1
  O  O29  1  0.07417000  0.06510800  0.40097300  1
  O  O30  1  0.53425100  0.40104900  0.01340900  1
  O  O31  1  0.46574900  0.40104900  0.51340900  1
loop_
_geom_bond_atom_site_label_1
_geom_bond_atom_site_label_2
_geom_bond_distance
_geom_bond_site_symmetry_2
Na0 O4 2.285995 1_555
Na0 O8 2.312104 1_454
Na0 O22 2.313513 1_554
Na0 O12 2.473658 1_555
Na0 O30 2.497923 1_555
Na0 O27 2.633069 1_545
Na1 O5 2.245879 1_555
Na1 O23 2.302947 1_556
Na1 O9 2.308515 1_656
Na1 O13 2.427500 1_555
Na1 O26 2.453169 1_565
Na2 O6 2.245879 1_555
Na2 O24 2.302947 1_555
Na2 O10 2.308515 1_455
Na2 O14 2.427500 1_555
Na2 O29 2.453169 1_565
Na3 O7 2.285995 1_555
Na3 O11 2.312104 1_655
Na3 O25 2.313513 1_555
Na3 O15 2.473658 1_555
Na3 O31 2.497923 1_555
Na3 O28 2.633069 1_545
Cu0 O4 1.967349 1_555
Cu0 O22 1.967546 1_554
Cu0 O27 1.989839 1_645
Cu0 O26 1.990259 1_554
Cu1 O23 1.956440 1_556
Cu1 O5 1.978847 1_555
Cu1 O27 1.984804 1_556
Cu1 O26 1.993364 1_465
Cu1 O22 2.548779 1_565
Cu2 O24 1.956440 1_555
Cu2 O6 1.978847 1_555
Cu2 O28 1.984804 1_555
Cu2 O29 1.993364 1_665
Cu2 O25 2.548779 1_565
Cu3 O7 1.967349 1_555
Cu3 O25 1.967546 1_555
Cu3 O28 1.989839 1_445
Cu3 O29 1.990259 1_555
H0 O8 0.981055 1_455
H1 O9 0.983766 1_655
H2 O10 0.983766 1_455
H3 O11 0.981055 1_655
H4 O8 0.989967 1_555
H5 O9 0.973476 1_555
H6 O10 0.973476 1_555
H7 O11 0.989967 1_555
H8 O30 0.984155 1_555
H9 O31 0.984155 1_555
H10 O30 0.978573 1_556
H11 O31 0.978573 1_555
O0 Si7 1.654746 1_455
O0 Si0 1.669972 1_555
O1 Si6 1.654443 1_655
O1 Si1 1.663688 1_555
O2 Si9 1.654443 1_455
O2 Si2 1.663688 1_555
O3 Si8 1.654746 1_655
O3 Si3 1.669972 1_555
O4 Si4 1.614686 1_545
O5 Si5 1.619535 1_555
O6 Si4 1.619535 1_555
O7 Si5 1.614686 1_545
O12 Si8 1.645439 1_555
O12 Si4 1.697751 1_445
O13 Si9 1.648438 1_555
O13 Si5 1.697638 1_655
O14 Si6 1.648438 1_555
O14 Si4 1.697638 1_455
O15 Si7 1.645439 1_555
O15 Si5 1.697751 1_645
O16 Si8 1.657115 1_555
O16 Si3 1.679780 1_555
O17 Si9 1.650570 1_555
O17 Si2 1.670393 1_555
O18 Si6 1.650570 1_555
O18 Si1 1.670393 1_555
O19 Si7 1.657115 1_555
O19 Si0 1.679780 1_555
O20 Si0 1.628961 1_555
O20 Si2 1.634865 1_555
O21 Si3 1.628961 1_555
O21 Si1 1.634865 1_555
O22 Si0 1.604306 1_555
O23 Si1 1.607702 1_555
O24 Si2 1.607702 1_555
O25 Si3 1.604306 1_555
O26 Si7 1.631062 1_555
O27 Si6 1.632406 1_555
O28 Si9 1.632406 1_555
O29 Si8 1.631062 1_555
