# generated using pymatgen
data_YLu(BRh)8
_symmetry_space_group_name_H-M   'P 1'
_cell_length_a   5.34182100
_cell_length_b   5.34182100
_cell_length_c   7.45221200
_cell_angle_alpha   90.00000000
_cell_angle_beta   90.00000000
_cell_angle_gamma   90.00000000
_symmetry_Int_Tables_number   1
_chemical_formula_structural   YLu(BRh)8
_chemical_formula_sum   'Y1 Lu1 B8 Rh8'
_cell_volume   212.64925392
_cell_formula_units_Z   1
loop_
 _symmetry_equiv_pos_site_id
 _symmetry_equiv_pos_as_xyz
  1  'x, y, z'
loop_
 _atom_site_type_symbol
 _atom_site_label
 _atom_site_symmetry_multiplicity
 _atom_site_fract_x
 _atom_site_fract_y
 _atom_site_fract_z
 _atom_site_occupancy
  Y  Y0  1  0.00000000  0.00000000  0.50000000  1
  Lu  Lu0  1  0.50000000  0.50000000  0.00000000  1
  B  B0  1  0.33062300  0.00000000  0.14995700  1
  B  B1  1  0.66937700  0.00000000  0.14995700  1
  B  B2  1  0.50000000  0.83110600  0.65075000  1
  B  B3  1  0.50000000  0.16889400  0.65075000  1
  B  B4  1  0.16889400  0.50000000  0.34925000  1
  B  B5  1  0.83110600  0.50000000  0.34925000  1
  B  B6  1  0.00000000  0.66937700  0.85004300  1
  B  B7  1  0.00000000  0.33062300  0.85004300  1
  Rh  Rh0  1  0.75088400  0.00000000  0.85660100  1
  Rh  Rh1  1  0.24911600  0.00000000  0.85660100  1
  Rh  Rh2  1  0.50000000  0.25213500  0.35352200  1
  Rh  Rh3  1  0.50000000  0.74786500  0.35352200  1
  Rh  Rh4  1  0.74786500  0.50000000  0.64647800  1
  Rh  Rh5  1  0.25213500  0.50000000  0.64647800  1
  Rh  Rh6  1  0.00000000  0.24911600  0.14339900  1
  Rh  Rh7  1  0.00000000  0.75088400  0.14339900  1
loop_
_geom_bond_atom_site_label_1
_geom_bond_atom_site_label_2
_geom_bond_distance
_geom_bond_site_symmetry_2
Lu0 Rh4 2.948527 1_554
Lu0 Rh5 2.948527 1_554
Lu0 Rh3 2.948527 1_555
Lu0 Rh2 2.948527 1_555
Lu0 Rh7 3.173615 1_555
Lu0 Rh7 3.173615 1_655
Lu0 Rh0 3.173615 1_564
Lu0 Rh0 3.173615 1_554
Lu0 Rh6 3.173615 1_555
Lu0 Rh6 3.173615 1_655
Lu0 Rh1 3.173615 1_554
Lu0 Rh1 3.173615 1_564
B0 B1 1.809563 1_555
B0 Rh6 2.211888 1_555
B0 Rh7 2.211888 1_545
B0 Rh2 2.221256 1_555
B0 Rh3 2.221256 1_545
B0 Rh1 2.229086 1_554
B0 Lu0 3.033352 1_545
B0 Lu0 3.033352 1_555
B0 Y0 3.150234 1_555
B1 Rh6 2.211888 1_655
B1 Rh7 2.211888 1_645
B1 Rh2 2.221256 1_555
B1 Rh3 2.221256 1_545
B1 Rh0 2.229086 1_554
B1 Lu0 3.033352 1_545
B1 Lu0 3.033352 1_555
B1 Y0 3.150234 1_655
B2 B3 1.804403 1_565
B2 Rh4 2.209628 1_555
B2 Rh5 2.209628 1_555
B2 Rh0 2.227855 1_565
B2 Rh1 2.227855 1_565
B2 Rh3 2.259197 1_555
B2 Y0 3.034766 1_565
B2 Y0 3.034766 1_665
B2 Lu0 3.146792 1_556
B3 Rh4 2.209628 1_555
B3 Rh5 2.209628 1_555
B3 Rh0 2.227855 1_555
B3 Rh1 2.227855 1_555
B3 Rh2 2.259197 1_555
B3 Y0 3.034766 1_555
B3 Y0 3.034766 1_655
B3 Lu0 3.146792 1_556
B4 B5 1.804403 1_455
B4 Rh3 2.209628 1_555
B4 Rh2 2.209628 1_555
B4 Rh7 2.227855 1_555
B4 Rh6 2.227855 1_555
B4 Rh5 2.259197 1_555
B4 Y0 3.034766 1_555
B4 Y0 3.034766 1_565
B4 Lu0 3.146792 1_555
B5 Rh3 2.209628 1_555
B5 Rh2 2.209628 1_555
B5 Rh7 2.227855 1_655
B5 Rh6 2.227855 1_655
B5 Rh4 2.259197 1_555
B5 Y0 3.034766 1_665
B5 Y0 3.034766 1_655
B5 Lu0 3.146792 1_555
B6 B7 1.809563 1_555
B6 Rh1 2.211888 1_565
B6 Rh0 2.211888 1_465
B6 Rh5 2.221256 1_555
B6 Rh4 2.221256 1_455
B6 Rh7 2.229086 1_556
B6 Lu0 3.033352 1_456
B6 Lu0 3.033352 1_556
B6 Y0 3.150234 1_565
B7 Rh1 2.211888 1_555
B7 Rh0 2.211888 1_455
B7 Rh5 2.221256 1_555
B7 Rh4 2.221256 1_455
B7 Rh6 2.229086 1_556
B7 Lu0 3.033352 1_456
B7 Lu0 3.033352 1_556
B7 Y0 3.150234 1_555
Rh0 Y0 2.972033 1_655
Rh1 Y0 2.972033 1_555
Rh2 Y0 3.184235 1_555
Rh2 Y0 3.184235 1_655
Rh3 Y0 3.184235 1_565
Rh3 Y0 3.184235 1_665
Rh4 Y0 3.184235 1_665
Rh4 Y0 3.184235 1_655
Rh5 Y0 3.184235 1_555
Rh5 Y0 3.184235 1_565
Rh6 Y0 2.972033 1_555
Rh7 Y0 2.972033 1_565
