# generated using pymatgen
data_MgS8(O5F2)4
_symmetry_space_group_name_H-M   'P 1'
_cell_length_a   7.94139735
_cell_length_b   8.82741096
_cell_length_c   9.37982079
_cell_angle_alpha   96.81963683
_cell_angle_beta   86.93490779
_cell_angle_gamma   94.76274022
_symmetry_Int_Tables_number   1
_chemical_formula_structural   MgS8(O5F2)4
_chemical_formula_sum   'Mg1 S8 O20 F8'
_cell_volume   650.00514133
_cell_formula_units_Z   1
loop_
 _symmetry_equiv_pos_site_id
 _symmetry_equiv_pos_as_xyz
  1  'x, y, z'
loop_
 _atom_site_type_symbol
 _atom_site_label
 _atom_site_symmetry_multiplicity
 _atom_site_fract_x
 _atom_site_fract_y
 _atom_site_fract_z
 _atom_site_occupancy
  Mg  Mg0  1  0.72394061  0.41297776  0.97582069  1
  S  S0  1  0.57894394  0.16840939  0.66945215  1
  S  S1  1  0.43124259  0.85160501  0.63522378  1
  S  S2  1  0.32474783  0.93033085  0.14936472  1
  S  S3  1  0.85337338  0.53212336  0.33104800  1
  S  S4  1  0.18658201  0.43107365  0.37241243  1
  S  S5  1  0.93031293  0.73001616  0.82894550  1
  S  S6  1  0.07423013  0.30680570  0.85684149  1
  S  S7  1  0.66967585  0.06840404  0.14350904  1
  O  O0  1  0.53698317  0.82199933  0.50986893  1
  O  O1  1  0.38833646  0.75175698  0.74052723  1
  O  O2  1  0.20909066  0.91174119  0.26716845  1
  O  O3  1  0.75411336  0.51598215  0.20658779  1
  O  O4  1  0.31365262  0.38124506  0.27013891  1
  O  O5  1  0.86457230  0.84733935  0.75604356  1
  O  O6  1  0.13690384  0.15872487  0.82381312  1
  O  O7  1  0.79256341  0.11359854  0.24734856  1
  O  O8  1  0.50303060  0.00841344  0.23176933  1
  O  O9  1  0.04320053  0.39374824  0.74161710  1
  O  O10  1  0.03082873  0.46666332  0.27051442  1
  O  O11  1  0.50589146  0.01372482  0.73190848  1
  O  O12  1  0.69256517  0.98099335  0.00882779  1
  O  O13  1  0.48278204  0.20747100  0.55841570  1
  O  O14  1  0.99634490  0.77572687  0.97083508  1
  O  O15  1  0.20823205  0.55138078  0.48540159  1
  O  O16  1  0.79506369  0.47853527  0.46249838  1
  O  O17  1  0.30256419  0.00986394  0.03046480  1
  O  O18  1  0.93408662  0.31231748  0.97072400  1
  O  O19  1  0.61514821  0.27111318  0.79547005  1
  F  F0  1  0.59869567  0.23107548  0.10600811  1
  F  F1  1  0.22398861  0.40813328  0.94447471  1
  F  F2  1  0.67241698  0.59533114  0.92445745  1
  F  F3  1  0.09612308  0.28704043  0.43381589  1
  F  F4  1  0.91189409  0.70587436  0.36095450  1
  F  F5  1  0.39177593  0.77078344  0.09453422  1
  F  F6  1  0.26534657  0.91316561  0.58860524  1
  F  F7  1  0.75242282  0.11784417  0.60181080  1
loop_
_geom_bond_atom_site_label_1
_geom_bond_atom_site_label_2
_geom_bond_distance
_geom_bond_site_symmetry_2
Mg0 O18 1.950523 1_555
Mg0 O19 2.156364 1_555
Mg0 O3 2.263038 1_556
O0 S1 1.419098 1_555
O1 S1 1.410483 1_555
O2 S2 1.414570 1_555
O3 S3 1.429956 1_555
O4 S4 1.414934 1_555
O5 S5 1.452204 1_555
O6 S6 1.431002 1_555
O7 S7 1.415953 1_555
O8 S7 1.608648 1_555
O8 S2 1.704555 1_545
O9 S6 1.440387 1_555
O10 S3 1.616786 1_455
O10 S4 1.674637 1_555
O11 S0 1.601978 1_555
O11 S1 1.682350 1_545
O12 S7 1.411224 1_565
O13 S0 1.414521 1_555
O14 S5 1.456383 1_555
O15 S4 1.415092 1_555
O16 S3 1.414044 1_555
O17 S2 1.412532 1_545
O18 S6 1.500517 1_655
O19 S0 1.428406 1_555
F0 S7 1.667046 1_555
F0 Mg0 2.264810 1_554
F1 S6 1.625858 1_555
F2 Mg0 1.818055 1_555
F3 S4 1.562796 1_555
F4 S3 1.562216 1_555
F5 S2 1.566717 1_555
F6 S1 1.568153 1_555
F7 S0 1.562410 1_555
