# generated using pymatgen
data_Ru3W3C2
_symmetry_space_group_name_H-M   'P 1'
_cell_length_a   5.72388764
_cell_length_b   5.72388764
_cell_length_c   29.08669800
_cell_angle_alpha   90.00000000
_cell_angle_beta   90.00000000
_cell_angle_gamma   119.99999583
_symmetry_Int_Tables_number   1
_chemical_formula_structural   Ru3W3C2
_chemical_formula_sum   'Ru24 W24 C16'
_cell_volume   825.29130879
_cell_formula_units_Z   8
loop_
 _symmetry_equiv_pos_site_id
 _symmetry_equiv_pos_as_xyz
  1  'x, y, z'
loop_
 _atom_site_type_symbol
 _atom_site_label
 _atom_site_symmetry_multiplicity
 _atom_site_fract_x
 _atom_site_fract_y
 _atom_site_fract_z
 _atom_site_occupancy
  Ru  Ru0_0  1  0.33333350  0.16666650  0.09181950  1
  Ru  Ru0_1  1  0.33333350  0.16666650  0.59181950  1
  Ru  Ru0_2  1  0.33333350  0.66666650  0.09181950  1
  Ru  Ru0_3  1  0.33333350  0.66666650  0.59181950  1
  Ru  Ru0_4  1  0.83333350  0.16666650  0.09181950  1
  Ru  Ru0_5  1  0.83333350  0.16666650  0.59181950  1
  Ru  Ru0_6  1  0.83333350  0.66666650  0.09181950  1
  Ru  Ru0_7  1  0.83333350  0.66666650  0.59181950  1
  Ru  Ru1_0  1  0.00000000  0.00000000  0.00000000  1
  Ru  Ru1_1  1  0.00000000  0.00000000  0.50000000  1
  Ru  Ru1_2  1  0.00000000  0.50000000  0.00000000  1
  Ru  Ru1_3  1  0.00000000  0.50000000  0.50000000  1
  Ru  Ru1_4  1  0.50000000  0.00000000  0.00000000  1
  Ru  Ru1_5  1  0.50000000  0.00000000  0.50000000  1
  Ru  Ru1_6  1  0.50000000  0.50000000  0.00000000  1
  Ru  Ru1_7  1  0.50000000  0.50000000  0.50000000  1
  Ru  Ru2_0  1  0.16666650  0.33333350  0.40818050  1
  Ru  Ru2_1  1  0.16666650  0.33333350  0.90818050  1
  Ru  Ru2_2  1  0.16666650  0.83333350  0.40818050  1
  Ru  Ru2_3  1  0.16666650  0.83333350  0.90818050  1
  Ru  Ru2_4  1  0.66666650  0.33333350  0.40818050  1
  Ru  Ru2_5  1  0.66666650  0.33333350  0.90818050  1
  Ru  Ru2_6  1  0.66666650  0.83333350  0.40818050  1
  Ru  Ru2_7  1  0.66666650  0.83333350  0.90818050  1
  W  W0_0  1  0.33333350  0.16666650  0.33210000  1
  W  W0_1  1  0.33333350  0.16666650  0.83210000  1
  W  W0_2  1  0.33333350  0.66666650  0.33210000  1
  W  W0_3  1  0.33333350  0.66666650  0.83210000  1
  W  W0_4  1  0.83333350  0.16666650  0.33210000  1
  W  W0_5  1  0.83333350  0.16666650  0.83210000  1
  W  W0_6  1  0.83333350  0.66666650  0.33210000  1
  W  W0_7  1  0.83333350  0.66666650  0.83210000  1
  W  W1_0  1  0.00000000  0.00000000  0.25000000  1
  W  W1_1  1  0.00000000  0.00000000  0.75000000  1
  W  W1_2  1  0.00000000  0.50000000  0.25000000  1
  W  W1_3  1  0.00000000  0.50000000  0.75000000  1
  W  W1_4  1  0.50000000  0.00000000  0.25000000  1
  W  W1_5  1  0.50000000  0.00000000  0.75000000  1
  W  W1_6  1  0.50000000  0.50000000  0.25000000  1
  W  W1_7  1  0.50000000  0.50000000  0.75000000  1
  W  W2_0  1  0.16666650  0.33333350  0.16790000  1
  W  W2_1  1  0.16666650  0.33333350  0.66790000  1
  W  W2_2  1  0.16666650  0.83333350  0.16790000  1
  W  W2_3  1  0.16666650  0.83333350  0.66790000  1
  W  W2_4  1  0.66666650  0.33333350  0.16790000  1
  W  W2_5  1  0.66666650  0.33333350  0.66790000  1
  W  W2_6  1  0.66666650  0.83333350  0.16790000  1
  W  W2_7  1  0.66666650  0.83333350  0.66790000  1
  C  C0_0  1  0.16666650  0.33333350  0.04968150  1
  C  C0_1  1  0.16666650  0.33333350  0.54968150  1
  C  C0_2  1  0.16666650  0.83333350  0.04968150  1
  C  C0_3  1  0.16666650  0.83333350  0.54968150  1
  C  C0_4  1  0.66666650  0.33333350  0.04968150  1
  C  C0_5  1  0.66666650  0.33333350  0.54968150  1
  C  C0_6  1  0.66666650  0.83333350  0.04968150  1
  C  C0_7  1  0.66666650  0.83333350  0.54968150  1
  C  C1_0  1  0.33333350  0.16666650  0.45031850  1
  C  C1_1  1  0.33333350  0.16666650  0.95031850  1
  C  C1_2  1  0.33333350  0.66666650  0.45031850  1
  C  C1_3  1  0.33333350  0.66666650  0.95031850  1
  C  C1_4  1  0.83333350  0.16666650  0.45031850  1
  C  C1_5  1  0.83333350  0.16666650  0.95031850  1
  C  C1_6  1  0.83333350  0.66666650  0.45031850  1
  C  C1_7  1  0.83333350  0.66666650  0.95031850  1
loop_
_geom_bond_atom_site_label_1
_geom_bond_atom_site_label_2
_geom_bond_distance
_geom_bond_site_symmetry_2
Ru0_0 W2_2 2.761756 1_545
Ru0_0 W2_4 2.761756 1_555
Ru0_0 W2_0 2.761759 1_555
Ru0_1 W2_3 2.761756 1_545
Ru0_1 W2_5 2.761756 1_555
Ru0_1 W2_1 2.761759 1_555
Ru0_2 W2_6 2.761756 1_555
Ru0_2 W2_0 2.761756 1_555
Ru0_2 W2_2 2.761759 1_555
Ru0_3 W2_7 2.761756 1_555
Ru0_3 W2_1 2.761756 1_555
Ru0_3 W2_3 2.761759 1_555
Ru0_4 W2_0 2.761756 1_655
Ru0_4 W2_6 2.761756 1_545
Ru0_4 W2_4 2.761759 1_555
Ru0_5 W2_1 2.761756 1_655
Ru0_5 W2_7 2.761756 1_545
Ru0_5 W2_5 2.761759 1_555
Ru0_6 W2_4 2.761756 1_555
Ru0_6 W2_2 2.761756 1_655
Ru0_6 W2_6 2.761759 1_555
Ru0_7 W2_3 2.761756 1_655
Ru0_7 W2_5 2.761756 1_555
Ru0_7 W2_7 2.761759 1_555
Ru2_0 W0_4 2.761756 1_455
Ru2_0 W0_2 2.761756 1_555
Ru2_0 W0_0 2.761759 1_555
Ru2_1 W0_5 2.761756 1_455
Ru2_1 W0_3 2.761756 1_555
Ru2_1 W0_1 2.761759 1_555
Ru2_2 W0_0 2.761756 1_565
Ru2_2 W0_6 2.761756 1_455
Ru2_2 W0_2 2.761759 1_555
Ru2_3 W0_1 2.761756 1_565
Ru2_3 W0_7 2.761756 1_455
Ru2_3 W0_3 2.761759 1_555
Ru2_4 W0_0 2.761756 1_555
Ru2_4 W0_6 2.761756 1_555
Ru2_4 W0_4 2.761759 1_555
Ru2_5 W0_1 2.761756 1_555
Ru2_5 W0_7 2.761756 1_555
Ru2_5 W0_5 2.761759 1_555
Ru2_6 W0_4 2.761756 1_565
Ru2_6 W0_2 2.761756 1_555
Ru2_6 W0_6 2.761759 1_555
Ru2_7 W0_5 2.761756 1_565
Ru2_7 W0_3 2.761756 1_555
Ru2_7 W0_7 2.761759 1_555
W0_0 W0_2 2.861944 1_545
W0_0 W0_4 2.861944 1_555
W0_0 W0_2 2.861944 1_555
W0_0 W0_4 2.861944 1_455
W0_0 W0_6 2.861944 1_555
W0_0 W0_6 2.861944 1_445
W0_0 W1_4 2.903940 1_555
W0_0 W1_6 2.903941 1_555
W0_0 W1_0 2.903941 1_555
W0_1 W0_3 2.861944 1_555
W0_1 W0_3 2.861944 1_545
W0_1 W0_5 2.861944 1_455
W0_1 W0_5 2.861944 1_555
W0_1 W0_7 2.861944 1_555
W0_1 W0_7 2.861944 1_445
W0_1 W1_5 2.903940 1_555
W0_1 W1_1 2.903941 1_555
W0_1 W1_7 2.903941 1_555
W0_2 W0_6 2.861944 1_555
W0_2 W0_6 2.861944 1_455
W0_2 W0_4 2.861944 1_455
W0_2 W0_4 2.861944 1_565
W0_2 W1_6 2.903940 1_555
W0_2 W1_4 2.903941 1_565
W0_2 W1_2 2.903941 1_555
W0_3 W0_7 2.861944 1_455
W0_3 W0_7 2.861944 1_555
W0_3 W0_5 2.861944 1_455
W0_3 W0_5 2.861944 1_565
W0_3 W1_7 2.903940 1_555
W0_3 W1_5 2.903941 1_565
W0_3 W1_3 2.903941 1_555
W0_4 W0_6 2.861944 1_545
W0_4 W0_6 2.861944 1_555
W0_4 W1_0 2.903940 1_655
W0_4 W1_2 2.903941 1_655
W0_4 W1_4 2.903941 1_555
W0_5 W0_7 2.861944 1_545
W0_5 W0_7 2.861944 1_555
W0_5 W1_1 2.903940 1_655
W0_5 W1_3 2.903941 1_655
W0_5 W1_5 2.903941 1_555
W0_6 W1_2 2.903940 1_655
W0_6 W1_6 2.903941 1_555
W0_6 W1_0 2.903941 1_665
W0_7 W1_3 2.903940 1_655
W0_7 W1_1 2.903941 1_665
W0_7 W1_7 2.903941 1_555
W1_0 W1_4 2.861944 1_555
W1_0 W1_2 2.861944 1_555
W1_0 W1_2 2.861944 1_545
W1_0 W1_4 2.861944 1_455
W1_0 W1_6 2.861944 1_555
W1_0 W1_6 2.861944 1_445
W1_0 W2_2 2.903940 1_545
W1_0 W2_0 2.903941 1_555
W1_0 W2_6 2.903941 1_445
W1_1 W1_5 2.861944 1_555
W1_1 W1_3 2.861944 1_545
W1_1 W1_3 2.861944 1_555
W1_1 W1_5 2.861944 1_455
W1_1 W1_7 2.861944 1_555
W1_1 W1_7 2.861944 1_445
W1_1 W2_3 2.903940 1_545
W1_1 W2_1 2.903941 1_555
W1_1 W2_7 2.903941 1_445
W1_2 W1_6 2.861944 1_455
W1_2 W1_6 2.861944 1_555
W1_2 W1_4 2.861944 1_455
W1_2 W1_4 2.861944 1_565
W1_2 W2_0 2.903940 1_555
W1_2 W2_4 2.903941 1_455
W1_2 W2_2 2.903941 1_555
W1_3 W1_7 2.861944 1_555
W1_3 W1_7 2.861944 1_455
W1_3 W1_5 2.861944 1_455
W1_3 W1_5 2.861944 1_565
W1_3 W2_1 2.903940 1_555
W1_3 W2_5 2.903941 1_455
W1_3 W2_3 2.903941 1_555
W1_4 W1_6 2.861944 1_555
W1_4 W1_6 2.861944 1_545
W1_4 W2_6 2.903940 1_545
W1_4 W2_4 2.903941 1_555
W1_4 W2_2 2.903941 1_545
W1_5 W1_7 2.861944 1_555
W1_5 W1_7 2.861944 1_545
W1_5 W2_7 2.903940 1_545
W1_5 W2_3 2.903941 1_545
W1_5 W2_5 2.903941 1_555
W1_6 W2_4 2.903940 1_555
W1_6 W2_0 2.903941 1_555
W1_6 W2_6 2.903941 1_555
W1_7 W2_5 2.903940 1_555
W1_7 W2_1 2.903941 1_555
W1_7 W2_7 2.903941 1_555
W2_0 W2_2 2.861944 1_545
W2_0 W2_4 2.861944 1_455
W2_0 W2_4 2.861944 1_555
W2_0 W2_2 2.861944 1_555
W2_0 W2_6 2.861944 1_445
W2_0 W2_6 2.861944 1_555
W2_1 W2_3 2.861944 1_545
W2_1 W2_5 2.861944 1_455
W2_1 W2_3 2.861944 1_555
W2_1 W2_5 2.861944 1_555
W2_1 W2_7 2.861944 1_445
W2_1 W2_7 2.861944 1_555
W2_2 W2_6 2.861944 1_455
W2_2 W2_6 2.861944 1_555
W2_2 W2_4 2.861944 1_565
W2_2 W2_4 2.861944 1_455
W2_3 W2_7 2.861944 1_455
W2_3 W2_7 2.861944 1_555
W2_3 W2_5 2.861944 1_455
W2_3 W2_5 2.861944 1_565
W2_4 W2_6 2.861944 1_545
W2_4 W2_6 2.861944 1_555
W2_5 W2_7 2.861944 1_545
W2_5 W2_7 2.861944 1_555
C0_0 Ru0_4 2.057296 1_455
C0_0 Ru0_2 2.057296 1_555
C0_0 Ru0_0 2.057300 1_555
C0_0 Ru1_2 2.195100 1_555
C0_0 Ru1_0 2.195102 1_555
C0_0 Ru1_6 2.195102 1_555
C0_1 Ru0_5 2.057296 1_455
C0_1 Ru0_3 2.057296 1_555
C0_1 Ru0_1 2.057300 1_555
C0_1 Ru1_3 2.195100 1_555
C0_1 Ru1_7 2.195102 1_555
C0_1 Ru1_1 2.195102 1_555
C0_2 Ru0_0 2.057296 1_565
C0_2 Ru0_6 2.057296 1_455
C0_2 Ru0_2 2.057300 1_555
C0_2 Ru1_0 2.195100 1_565
C0_2 Ru1_4 2.195102 1_565
C0_2 Ru1_2 2.195102 1_555
C0_3 Ru0_1 2.057296 1_565
C0_3 Ru0_7 2.057296 1_455
C0_3 Ru0_3 2.057300 1_555
C0_3 Ru1_1 2.195100 1_565
C0_3 Ru1_3 2.195102 1_555
C0_3 Ru1_5 2.195102 1_565
C0_4 Ru0_6 2.057296 1_555
C0_4 Ru0_0 2.057296 1_555
C0_4 Ru0_4 2.057300 1_555
C0_4 Ru1_6 2.195100 1_555
C0_4 Ru1_2 2.195102 1_655
C0_4 Ru1_4 2.195102 1_555
C0_5 Ru0_7 2.057296 1_555
C0_5 Ru0_1 2.057296 1_555
C0_5 Ru0_5 2.057300 1_555
C0_5 Ru1_7 2.195100 1_555
C0_5 Ru1_3 2.195102 1_655
C0_5 Ru1_5 2.195102 1_555
C0_6 Ru0_2 2.057296 1_555
C0_6 Ru0_4 2.057296 1_565
C0_6 Ru0_6 2.057300 1_555
C0_6 Ru1_4 2.195100 1_565
C0_6 Ru1_0 2.195102 1_665
C0_6 Ru1_6 2.195102 1_555
C0_7 Ru0_3 2.057296 1_555
C0_7 Ru0_5 2.057296 1_565
C0_7 Ru0_7 2.057300 1_555
C0_7 Ru1_5 2.195100 1_565
C0_7 Ru1_7 2.195102 1_555
C0_7 Ru1_1 2.195102 1_665
C1_0 Ru2_2 2.057296 1_545
C1_0 Ru2_4 2.057296 1_555
C1_0 Ru2_0 2.057300 1_555
C1_0 Ru1_5 2.195100 1_555
C1_0 Ru1_7 2.195102 1_555
C1_0 Ru1_1 2.195102 1_555
C1_1 Ru2_3 2.057296 1_545
C1_1 Ru2_5 2.057296 1_555
C1_1 Ru2_1 2.057300 1_555
C1_1 Ru1_4 2.195100 1_556
C1_1 Ru1_6 2.195102 1_556
C1_1 Ru1_0 2.195102 1_556
C1_2 Ru2_6 2.057296 1_555
C1_2 Ru2_0 2.057296 1_555
C1_2 Ru2_2 2.057300 1_555
C1_2 Ru1_7 2.195100 1_555
C1_2 Ru1_5 2.195102 1_565
C1_2 Ru1_3 2.195102 1_555
C1_3 Ru2_7 2.057296 1_555
C1_3 Ru2_1 2.057296 1_555
C1_3 Ru2_3 2.057300 1_555
C1_3 Ru1_6 2.195100 1_556
C1_3 Ru1_4 2.195102 1_566
C1_3 Ru1_2 2.195102 1_556
C1_4 Ru2_0 2.057296 1_655
C1_4 Ru2_6 2.057296 1_545
C1_4 Ru2_4 2.057300 1_555
C1_4 Ru1_1 2.195100 1_655
C1_4 Ru1_3 2.195102 1_655
C1_4 Ru1_5 2.195102 1_555
C1_5 Ru2_1 2.057296 1_655
C1_5 Ru2_7 2.057296 1_545
C1_5 Ru2_5 2.057300 1_555
C1_5 Ru1_0 2.195100 1_656
C1_5 Ru1_4 2.195102 1_556
C1_5 Ru1_2 2.195102 1_656
C1_6 Ru2_4 2.057296 1_555
C1_6 Ru2_2 2.057296 1_655
C1_6 Ru2_6 2.057300 1_555
C1_6 Ru1_3 2.195100 1_655
C1_6 Ru1_7 2.195102 1_555
C1_6 Ru1_1 2.195102 1_665
C1_7 Ru2_5 2.057296 1_555
C1_7 Ru2_3 2.057296 1_655
C1_7 Ru2_7 2.057300 1_555
C1_7 Ru1_2 2.195100 1_656
C1_7 Ru1_0 2.195102 1_666
C1_7 Ru1_6 2.195102 1_556
