# generated using pymatgen
data_BaCuS2
_symmetry_space_group_name_H-M   'P 1'
_cell_length_a   6.52904109
_cell_length_b   6.52904109
_cell_length_c   5.37544800
_cell_angle_alpha   90.00000000
_cell_angle_beta   90.00000000
_cell_angle_gamma   117.69230456
_symmetry_Int_Tables_number   1
_chemical_formula_structural   BaCuS2
_chemical_formula_sum   'Ba2 Cu2 S4'
_cell_volume   202.89926746
_cell_formula_units_Z   2
loop_
 _symmetry_equiv_pos_site_id
 _symmetry_equiv_pos_as_xyz
  1  'x, y, z'
loop_
 _atom_site_type_symbol
 _atom_site_label
 _atom_site_symmetry_multiplicity
 _atom_site_fract_x
 _atom_site_fract_y
 _atom_site_fract_z
 _atom_site_occupancy
  Ba  Ba0  1  0.65086100  0.34913900  0.25000000  1
  Ba  Ba1  1  0.34913900  0.65086100  0.75000000  1
  Cu  Cu0  1  0.00000000  0.00000000  0.50000000  1
  Cu  Cu1  1  0.00000000  0.00000000  0.00000000  1
  S  S0  1  0.66652200  0.86183000  0.25000000  1
  S  S1  1  0.33347800  0.13817000  0.75000000  1
  S  S2  1  0.13817000  0.33347800  0.25000000  1
  S  S3  1  0.86183000  0.66652200  0.75000000  1
loop_
_geom_bond_atom_site_label_1
_geom_bond_atom_site_label_2
_geom_bond_distance
_geom_bond_site_symmetry_2
Ba0 S2 3.230448 1_655
Ba0 S0 3.230448 1_545
Ba0 S3 3.280590 1_555
Ba0 S3 3.280590 1_554
Ba0 S1 3.280590 1_555
Ba0 S1 3.280590 1_554
Ba0 S0 3.301104 1_555
Ba0 S2 3.301104 1_555
Ba1 S1 3.230448 1_565
Ba1 S3 3.230448 1_455
Ba1 S2 3.280590 1_555
Ba1 S2 3.280590 1_556
Ba1 S0 3.280590 1_555
Ba1 S0 3.280590 1_556
Ba1 S3 3.301104 1_555
Ba1 S1 3.301104 1_555
Cu0 S2 2.352613 1_555
Cu0 S3 2.352613 1_445
Cu0 S0 2.352613 1_445
Cu0 S1 2.352613 1_555
Cu1 S2 2.352613 1_555
Cu1 S0 2.352613 1_445
Cu1 S3 2.352613 1_444
Cu1 S1 2.352613 1_554
