# generated using pymatgen
data_Nd7(BrO6)3
_symmetry_space_group_name_H-M   'P 1'
_cell_length_a   15.72618327
_cell_length_b   15.72618327
_cell_length_c   4.38902300
_cell_angle_alpha   90.00000000
_cell_angle_beta   90.00000000
_cell_angle_gamma   119.99999691
_symmetry_Int_Tables_number   1
_chemical_formula_structural   Nd7(BrO6)3
_chemical_formula_sum   'Nd14 Br6 O36'
_cell_volume   940.03747385
_cell_formula_units_Z   2
loop_
 _symmetry_equiv_pos_site_id
 _symmetry_equiv_pos_as_xyz
  1  'x, y, z'
loop_
 _atom_site_type_symbol
 _atom_site_label
 _atom_site_symmetry_multiplicity
 _atom_site_fract_x
 _atom_site_fract_y
 _atom_site_fract_z
 _atom_site_occupancy
  Nd  Nd0  1  0.53016900  0.87417900  0.75000000  1
  Nd  Nd1  1  0.46983100  0.12582100  0.25000000  1
  Nd  Nd2  1  0.34401000  0.46983100  0.75000000  1
  Nd  Nd3  1  0.65599000  0.53016900  0.25000000  1
  Nd  Nd4  1  0.12582100  0.65599000  0.75000000  1
  Nd  Nd5  1  0.87417900  0.34401000  0.25000000  1
  Nd  Nd6  1  0.89000900  0.15147700  0.75000000  1
  Nd  Nd7  1  0.10999100  0.84852300  0.25000000  1
  Nd  Nd8  1  0.26146800  0.10999100  0.75000000  1
  Nd  Nd9  1  0.73853200  0.89000900  0.25000000  1
  Nd  Nd10  1  0.84852300  0.73853200  0.75000000  1
  Nd  Nd11  1  0.15147700  0.26146800  0.25000000  1
  Nd  Nd12  1  0.66666700  0.33333300  0.75000000  1
  Nd  Nd13  1  0.33333300  0.66666700  0.25000000  1
  Br  Br0  1  0.55777000  0.61690500  0.75000000  1
  Br  Br1  1  0.44223000  0.38309500  0.25000000  1
  Br  Br2  1  0.05913500  0.44223000  0.75000000  1
  Br  Br3  1  0.94086500  0.55777000  0.25000000  1
  Br  Br4  1  0.38309500  0.94086500  0.75000000  1
  Br  Br5  1  0.61690500  0.05913500  0.25000000  1
  O  O0  1  0.83392900  0.35884000  0.75000000  1
  O  O1  1  0.16607100  0.64116000  0.25000000  1
  O  O2  1  0.52491100  0.16607100  0.75000000  1
  O  O3  1  0.47508900  0.83392900  0.25000000  1
  O  O4  1  0.64116000  0.47508900  0.75000000  1
  O  O5  1  0.35884000  0.52491100  0.25000000  1
  O  O6  1  0.72134500  0.96975000  0.75000000  1
  O  O7  1  0.27865500  0.03025000  0.25000000  1
  O  O8  1  0.24840500  0.27865500  0.75000000  1
  O  O9  1  0.75159500  0.72134500  0.25000000  1
  O  O10  1  0.03025000  0.75159500  0.75000000  1
  O  O11  1  0.96975000  0.24840500  0.25000000  1
  O  O12  1  0.81248200  0.97016300  0.75000000  1
  O  O13  1  0.18751800  0.02983700  0.25000000  1
  O  O14  1  0.15768200  0.18751800  0.75000000  1
  O  O15  1  0.84231800  0.81248200  0.25000000  1
  O  O16  1  0.02983700  0.84231800  0.75000000  1
  O  O17  1  0.97016300  0.15768200  0.25000000  1
  O  O18  1  0.82248900  0.25908600  0.75000000  1
  O  O19  1  0.17751100  0.74091400  0.25000000  1
  O  O20  1  0.43659700  0.17751100  0.75000000  1
  O  O21  1  0.56340300  0.82248900  0.25000000  1
  O  O22  1  0.74091400  0.56340300  0.75000000  1
  O  O23  1  0.25908600  0.43659700  0.25000000  1
  O  O24  1  0.74400200  0.81378100  0.75000000  1
  O  O25  1  0.25599800  0.18621900  0.25000000  1
  O  O26  1  0.06977900  0.25599800  0.75000000  1
  O  O27  1  0.93022100  0.74400200  0.25000000  1
  O  O28  1  0.18621900  0.93022100  0.75000000  1
  O  O29  1  0.81378100  0.06977900  0.25000000  1
  O  O30  1  0.43550700  0.70390500  0.75000000  1
  O  O31  1  0.56449300  0.29609500  0.25000000  1
  O  O32  1  0.26839800  0.56449300  0.75000000  1
  O  O33  1  0.73160200  0.43550700  0.25000000  1
  O  O34  1  0.29609500  0.73160200  0.75000000  1
  O  O35  1  0.70390500  0.26839800  0.25000000  1
loop_
_geom_bond_atom_site_label_1
_geom_bond_atom_site_label_2
_geom_bond_distance
_geom_bond_site_symmetry_2
Nd0 O30 2.323841 1_555
Nd0 O3 2.327779 1_555
Nd0 O3 2.327779 1_556
Nd0 O21 2.484889 1_555
Nd0 O21 2.484889 1_556
Nd0 O6 2.603678 1_555
Nd1 O31 2.323841 1_555
Nd1 O2 2.327779 1_555
Nd1 O2 2.327779 1_554
Nd1 O20 2.484889 1_555
Nd1 O20 2.484889 1_554
Nd1 O7 2.603678 1_555
Nd2 O32 2.323841 1_555
Nd2 O5 2.327779 1_556
Nd2 O5 2.327779 1_555
Nd2 O23 2.484889 1_556
Nd2 O23 2.484889 1_555
Nd2 O8 2.603678 1_555
Nd3 O33 2.323841 1_555
Nd3 O4 2.327779 1_554
Nd3 O4 2.327779 1_555
Nd3 O22 2.484889 1_554
Nd3 O22 2.484889 1_555
Nd3 O9 2.603678 1_555
Nd4 O34 2.323841 1_555
Nd4 O1 2.327779 1_555
Nd4 O1 2.327779 1_556
Nd4 O19 2.484889 1_556
Nd4 O19 2.484889 1_555
Nd4 O10 2.603678 1_555
Nd5 O35 2.323841 1_555
Nd5 O0 2.327779 1_554
Nd5 O0 2.327779 1_555
Nd5 O18 2.484889 1_555
Nd5 O18 2.484889 1_554
Nd5 O11 2.603678 1_555
Nd6 O18 2.405870 1_555
Nd6 O26 2.459132 1_655
Nd6 O12 2.477983 1_545
Nd6 O17 2.508247 1_555
Nd6 O17 2.508247 1_556
Nd6 O29 2.522591 1_555
Nd6 O29 2.522591 1_556
Nd6 O11 2.607767 1_556
Nd6 O11 2.607767 1_555
Nd6 O6 2.760895 1_545
Nd7 O19 2.405870 1_555
Nd7 O27 2.459132 1_455
Nd7 O13 2.477983 1_565
Nd7 O16 2.508247 1_554
Nd7 O16 2.508247 1_555
Nd7 O28 2.522591 1_555
Nd7 O28 2.522591 1_554
Nd7 O10 2.607767 1_554
Nd7 O10 2.607767 1_555
Nd7 O7 2.760895 1_565
Nd8 O20 2.405870 1_555
Nd8 O28 2.459132 1_545
Nd8 O14 2.477969 1_555
Nd8 O13 2.508250 1_555
Nd8 O13 2.508250 1_556
Nd8 O25 2.522591 1_555
Nd8 O25 2.522591 1_556
Nd8 O7 2.607767 1_556
Nd8 O7 2.607767 1_555
Nd8 O8 2.760895 1_555
Nd9 O21 2.405870 1_555
Nd9 O29 2.459132 1_565
Nd9 O15 2.477969 1_555
Nd9 O12 2.508250 1_555
Nd9 O12 2.508250 1_554
Nd9 O24 2.522591 1_554
Nd9 O24 2.522591 1_555
Nd9 O6 2.607767 1_555
Nd9 O6 2.607767 1_554
Nd9 O9 2.760895 1_555
Nd10 O22 2.405870 1_555
Nd10 O24 2.459132 1_555
Nd10 O16 2.477982 1_655
Nd10 O15 2.508254 1_556
Nd10 O15 2.508254 1_555
Nd10 O27 2.522591 1_556
Nd10 O27 2.522591 1_555
Nd10 O9 2.607767 1_555
Nd10 O9 2.607767 1_556
Nd10 O10 2.760895 1_655
Nd11 O23 2.405870 1_555
Nd11 O25 2.459132 1_555
Nd11 O17 2.477982 1_455
Nd11 O14 2.508254 1_554
Nd11 O14 2.508254 1_555
Nd11 O26 2.522591 1_554
Nd11 O26 2.522591 1_555
Nd11 O8 2.607767 1_554
Nd11 O8 2.607767 1_555
Nd11 O11 2.760895 1_455
Nd12 O0 2.454536 1_555
Nd12 O2 2.454542 1_555
Nd12 O4 2.454551 1_555
Nd12 O35 2.607613 1_555
Nd12 O35 2.607613 1_556
Nd12 O33 2.607619 1_555
Nd12 O33 2.607619 1_556
Nd12 O31 2.607621 1_555
Nd12 O31 2.607621 1_556
Nd13 O1 2.454536 1_555
Nd13 O3 2.454542 1_555
Nd13 O5 2.454551 1_555
Nd13 O34 2.607613 1_555
Nd13 O34 2.607613 1_554
Nd13 O32 2.607619 1_555
Nd13 O32 2.607619 1_554
Nd13 O30 2.607621 1_554
Nd13 O30 2.607621 1_555
Br0 Nd2 2.979087 1_555
Br0 Nd3 3.342039 1_556
Br0 Nd3 3.342039 1_555
Br1 Nd3 2.979087 1_555
Br1 Nd2 3.342039 1_555
Br1 Nd2 3.342039 1_554
Br2 Nd4 2.979087 1_555
Br2 Nd5 3.342039 1_455
Br2 Nd5 3.342039 1_456
Br3 Nd5 2.979087 1_555
Br3 Nd4 3.342039 1_655
Br3 Nd4 3.342039 1_654
Br4 Nd0 2.979087 1_555
Br4 Nd1 3.342039 1_566
Br4 Nd1 3.342039 1_565
Br5 Nd1 2.979087 1_555
Br5 Nd0 3.342039 1_544
Br5 Nd0 3.342039 1_545
O0 O18 1.486981 1_555
O1 O19 1.486981 1_555
O2 O20 1.486981 1_555
O10 O16 1.429985 1_555
O11 O17 1.429985 1_555
O12 O6 1.430001 1_555
O13 O7 1.430001 1_555
O14 O8 1.429993 1_555
O15 O9 1.429993 1_555
O21 O3 1.486981 1_555
O22 O4 1.486981 1_555
O23 O5 1.486981 1_555
