# generated using pymatgen
data_Yb2FeSbO7
_symmetry_space_group_name_H-M   'P 1'
_cell_length_a   7.22457234
_cell_length_b   7.22457234
_cell_length_c   7.22457234
_cell_angle_alpha   120.09714112
_cell_angle_beta   119.36904841
_cell_angle_gamma   90.46406570
_symmetry_Int_Tables_number   1
_chemical_formula_structural   Yb2FeSbO7
_chemical_formula_sum   'Yb4 Fe2 Sb2 O14'
_cell_volume   267.69043059
_cell_formula_units_Z   2
loop_
 _symmetry_equiv_pos_site_id
 _symmetry_equiv_pos_as_xyz
  1  'x, y, z'
loop_
 _atom_site_type_symbol
 _atom_site_label
 _atom_site_symmetry_multiplicity
 _atom_site_fract_x
 _atom_site_fract_y
 _atom_site_fract_z
 _atom_site_occupancy
  Yb  Yb0  1  0.00000000  0.00000000  0.50000000  1
  Yb  Yb1  1  0.00000000  0.50000000  0.00000000  1
  Yb  Yb2  1  0.00000000  0.00000000  0.00000000  1
  Yb  Yb3  1  0.50000000  0.00000000  0.50000000  1
  Fe  Fe0  1  0.50000000  0.50000000  0.50000000  1
  Fe  Fe1  1  0.50000000  0.00000000  0.00000000  1
  Sb  Sb0  1  0.50000000  0.50000000  0.00000000  1
  Sb  Sb1  1  0.00000000  0.50000000  0.50000000  1
  O  O0  1  0.43070500  0.18070500  0.25000000  1
  O  O1  1  0.83427000  0.58427000  0.25000000  1
  O  O2  1  0.42517500  0.58283000  0.25756000  1
  O  O3  1  0.82527100  0.16761500  0.24244000  1
  O  O4  1  0.42517500  0.16761500  0.84234400  1
  O  O5  1  0.82527100  0.58283000  0.65765600  1
  O  O6  1  0.56929500  0.81929500  0.75000000  1
  O  O7  1  0.16573000  0.41573000  0.75000000  1
  O  O8  1  0.57482500  0.41717000  0.74244000  1
  O  O9  1  0.17472900  0.83238500  0.75756000  1
  O  O10  1  0.57482500  0.83238500  0.15765600  1
  O  O11  1  0.17472900  0.41717000  0.34234400  1
  O  O12  1  0.12693500  0.87693500  0.25000000  1
  O  O13  1  0.87306500  0.12306500  0.75000000  1
loop_
_geom_bond_atom_site_label_1
_geom_bond_atom_site_label_2
_geom_bond_distance
_geom_bond_site_symmetry_2
Fe0 O6 1.936433 1_555
Fe0 O0 1.936433 1_555
Fe0 O2 1.961094 1_555
Fe0 O8 1.961094 1_555
Fe0 O5 1.961100 1_555
Fe0 O11 1.961100 1_555
Fe1 O6 1.936433 1_544
Fe1 O0 1.936433 1_555
Fe1 O10 1.961100 1_545
Fe1 O4 1.961100 1_554
Fe1 O9 1.961100 1_544
Fe1 O3 1.961100 1_555
O0 Yb3 2.589538 1_555
O0 Yb2 2.589538 1_555
O1 Sb1 2.014914 1_655
O1 Sb0 2.014914 1_555
O1 Yb1 2.469118 1_655
O1 Yb0 2.469118 1_665
O2 Sb0 1.996964 1_555
O2 Yb3 2.488779 1_565
O2 Yb1 2.550102 1_555
O3 Sb1 1.996963 1_655
O3 Yb2 2.488773 1_655
O3 Yb0 2.550101 1_655
O4 Sb0 1.996963 1_556
O4 Yb3 2.488773 1_555
O4 Yb0 2.550101 1_555
O5 Sb1 1.996963 1_655
O5 Yb2 2.488778 1_666
O5 Yb1 2.550096 1_656
O6 Yb2 2.589538 1_666
O6 Yb3 2.589538 1_565
O7 Sb0 2.014914 1_556
O7 Sb1 2.014914 1_555
O7 Yb0 2.469118 1_555
O7 Yb1 2.469118 1_556
O8 Sb0 1.996964 1_556
O8 Yb3 2.488779 1_555
O8 Yb1 2.550102 1_656
O9 Sb1 1.996963 1_555
O9 Yb2 2.488773 1_566
O9 Yb0 2.550101 1_565
O10 Sb0 1.996963 1_555
O10 Yb3 2.488773 1_565
O10 Yb0 2.550101 1_665
O11 Sb1 1.996963 1_555
O11 Yb2 2.488778 1_555
O11 Yb1 2.550096 1_555
O12 Yb3 2.211953 1_565
O12 Yb2 2.211953 1_565
O12 Yb1 2.218315 1_555
O12 Yb0 2.218315 1_565
O13 Yb2 2.211953 1_656
O13 Yb3 2.211953 1_555
O13 Yb0 2.218315 1_655
O13 Yb1 2.218315 1_656
