# generated using pymatgen
data_NaLaNiWO6
_symmetry_space_group_name_H-M   'P 1'
_cell_length_a   16.82514646
_cell_length_b   7.91736562
_cell_length_c   7.90161016
_cell_angle_alpha   90.04492111
_cell_angle_beta   90.06586799
_cell_angle_gamma   44.87937059
_symmetry_Int_Tables_number   1
_chemical_formula_structural   NaLaNiWO6
_chemical_formula_sum   'Na6 La6 Ni6 W6 O36'
_cell_volume   742.71737744
_cell_formula_units_Z   6
loop_
 _symmetry_equiv_pos_site_id
 _symmetry_equiv_pos_as_xyz
  1  'x, y, z'
loop_
 _atom_site_type_symbol
 _atom_site_label
 _atom_site_symmetry_multiplicity
 _atom_site_fract_x
 _atom_site_fract_y
 _atom_site_fract_z
 _atom_site_occupancy
  Na  Na0  1  0.32577100  0.25472500  0.99984200  1
  Na  Na1  1  0.33329400  0.75843200  0.99710000  1
  Na  Na2  1  0.66462500  0.24715600  0.00224300  1
  Na  Na3  1  0.66984100  0.75157000  0.00085100  1
  Na  Na4  1  0.00159600  0.24847700  0.49660000  1
  Na  Na5  1  0.00618000  0.74180200  0.99855200  1
  La  La0  1  0.99492300  0.24905400  0.99483800  1
  La  La1  1  0.00101900  0.74099400  0.50078100  1
  La  La2  1  0.33497800  0.24718000  0.49880500  1
  La  La3  1  0.33099900  0.75297200  0.50015600  1
  La  La4  1  0.66498900  0.25288800  0.49865000  1
  La  La5  1  0.66529300  0.75168600  0.50200300  1
  Ni  Ni0  1  0.16521500  0.25073700  0.24825300  1
  Ni  Ni1  1  0.16740900  0.74913900  0.74985700  1
  Ni  Ni2  1  0.50013400  0.24861600  0.24462800  1
  Ni  Ni3  1  0.49981600  0.75235500  0.75555800  1
  Ni  Ni4  1  0.83303500  0.25031000  0.24962100  1
  Ni  Ni5  1  0.83396600  0.74885000  0.75120900  1
  W  W0  1  0.16688000  0.24962300  0.75695500  1
  W  W1  1  0.16753100  0.74827800  0.24076400  1
  W  W2  1  0.50008100  0.25115100  0.76462800  1
  W  W3  1  0.49957200  0.75056900  0.23600100  1
  W  W4  1  0.83249600  0.24916000  0.75743400  1
  W  W5  1  0.83357100  0.75117100  0.24072200  1
  O  O0  1  0.16965600  0.00322900  0.71043800  1
  O  O1  1  0.00529800  0.49283700  0.70922200  1
  O  O2  1  0.19093400  0.24936900  0.50605800  1
  O  O3  1  0.13863300  0.25057200  0.99282000  1
  O  O4  1  0.16435800  0.49551500  0.77352400  1
  O  O5  1  0.99451000  0.00674300  0.79551300  1
  O  O6  1  0.33922500  0.99979700  0.22729000  1
  O  O7  1  0.16922300  0.50449500  0.22160700  1
  O  O8  1  0.19106300  0.75673500  0.00802200  1
  O  O9  1  0.14251000  0.74172800  0.49068900  1
  O  O10  1  0.33922900  0.49010200  0.69247500  1
  O  O11  1  0.50019200  0.00842400  0.69688500  1
  O  O12  1  0.32935400  0.50332600  0.30300500  1
  O  O13  1  0.17121500  0.98411700  0.29306600  1
  O  O14  1  0.52664300  0.24621000  0.50469100  1
  O  O15  1  0.47182100  0.25241200  0.99095900  1
  O  O16  1  0.49562100  0.49814100  0.77516600  1
  O  O17  1  0.32763900  0.00969800  0.77759700  1
  O  O18  1  0.67316100  0.99456300  0.21685300  1
  O  O19  1  0.50269400  0.50521500  0.22548100  1
  O  O20  1  0.52572400  0.75081300  0.00910100  1
  O  O21  1  0.47448100  0.75052500  0.49541300  1
  O  O22  1  0.83401800  0.00494600  0.69612200  1
  O  O23  1  0.67056500  0.49400600  0.70061500  1
  O  O24  1  0.50237300  0.98874500  0.30373400  1
  O  O25  1  0.66134000  0.50981800  0.30484500  1
  O  O26  1  0.85688400  0.25454000  0.51358800  1
  O  O27  1  0.80701900  0.24763500  0.98997900  1
  O  O28  1  0.83140600  0.49426500  0.79768100  1
  O  O29  1  0.66062300  0.00569500  0.77628500  1
  O  O30  1  0.00575400  0.99906800  0.20723200  1
  O  O31  1  0.83932300  0.49971600  0.20790000  1
  O  O32  1  0.86458100  0.73898100  0.00871000  1
  O  O33  1  0.80317800  0.76059900  0.49079700  1
  O  O34  1  0.99409400  0.51492600  0.29558500  1
  O  O35  1  0.83244500  0.99559900  0.30500000  1
loop_
_geom_bond_atom_site_label_1
_geom_bond_atom_site_label_2
_geom_bond_distance
_geom_bond_site_symmetry_2
Na0 O15 2.445459 1_555
Na0 O7 2.557793 1_556
Na0 O6 2.590795 1_546
Na0 O17 2.599366 1_555
Na0 O4 2.620054 1_555
Na0 O8 2.858661 1_556
Na0 O20 2.866877 1_546
Na1 O8 2.404245 1_556
Na1 O17 2.590685 1_565
Na1 O16 2.609654 1_555
Na1 O6 2.689696 1_556
Na1 O19 2.700968 1_556
Na1 O3 2.797267 1_565
Na1 O15 2.872650 1_555
Na2 O27 2.400557 1_554
Na2 O18 2.548223 1_545
Na2 O19 2.612549 1_555
Na2 O29 2.650251 1_554
Na2 O16 2.690692 1_554
Na2 O20 2.856352 1_555
Na2 O32 2.885457 1_545
Na3 O20 2.429990 1_555
Na3 O28 2.504716 1_554
Na3 O31 2.592342 1_555
Na3 O18 2.600836 1_555
Na3 O29 2.604524 1_564
Na3 O15 2.847325 1_564
Na3 O27 2.864033 1_554
Na4 O26 2.404928 1_455
Na4 O34 2.572255 1_455
Na4 O13 2.579122 1_545
Na4 O1 2.595173 1_555
Na4 O0 2.614170 1_555
Na5 O32 2.399737 1_456
Na5 O5 2.536409 1_465
Na5 O4 2.587984 1_555
Na5 O30 2.615694 1_556
Na5 O7 2.617532 1_556
Na5 O3 2.794886 1_555
Na5 O27 2.872883 1_465
La0 O3 2.426544 1_655
La0 O5 2.485010 1_555
La0 O28 2.488068 1_555
La0 O30 2.502090 1_646
La0 O31 2.503689 1_556
La0 O32 2.794983 1_556
La0 O8 2.804449 1_646
La1 O9 2.386153 1_555
La1 O34 2.477219 1_455
La1 O22 2.515552 1_465
La1 O1 2.526348 1_555
La1 O35 2.528500 1_455
La1 O2 2.781412 1_555
La1 O4 2.897907 1_555
La2 O2 2.412059 1_555
La2 O10 2.497223 1_555
La2 O12 2.499600 1_555
La2 O11 2.509556 1_555
La2 O24 2.516525 1_545
La2 O6 2.870451 1_545
La2 O4 2.971098 1_555
La3 O21 2.400752 1_555
La3 O10 2.501211 1_555
La3 O13 2.505258 1_555
La3 O12 2.531175 1_555
La3 O0 2.537404 1_565
La3 O2 2.806439 1_565
La3 O16 2.921950 1_555
La3 O6 2.979488 1_555
La3 O19 2.980026 1_555
La4 O14 2.365987 1_555
La4 O35 2.510057 1_545
La4 O25 2.512877 1_555
La4 O23 2.539406 1_555
La4 O22 2.541449 1_555
La4 O19 2.892865 1_555
La4 O16 2.971646 1_555
La4 O29 2.976433 1_555
La5 O33 2.372217 1_555
La5 O24 2.488883 1_555
La5 O11 2.494449 1_565
La5 O25 2.504798 1_555
La5 O23 2.526100 1_555
La5 O29 2.918441 1_565
Ni0 O34 2.066650 1_455
Ni0 O3 2.066989 1_554
Ni0 O7 2.068343 1_555
Ni0 O13 2.071395 1_545
Ni0 O6 2.074497 1_545
Ni0 O2 2.080483 1_555
Ni1 O4 2.053412 1_555
Ni1 O0 2.062588 1_565
Ni1 O5 2.084551 1_465
Ni1 O8 2.086897 1_556
Ni1 O10 2.090021 1_555
Ni1 O9 2.098877 1_555
Ni2 O15 2.055002 1_554
Ni2 O18 2.066713 1_545
Ni2 O19 2.067995 1_555
Ni2 O12 2.079799 1_555
Ni2 O24 2.084332 1_545
Ni2 O14 2.099497 1_555
Ni3 O20 2.047988 1_556
Ni3 O17 2.051711 1_565
Ni3 O16 2.069253 1_555
Ni3 O23 2.073495 1_555
Ni3 O11 2.084454 1_565
Ni3 O21 2.100940 1_555
Ni4 O35 2.070792 1_545
Ni4 O31 2.077555 1_555
Ni4 O30 2.079179 1_645
Ni4 O25 2.084935 1_555
Ni4 O27 2.100494 1_554
Ni4 O26 2.128276 1_555
Ni5 O1 2.061287 1_655
Ni5 O29 2.067895 1_565
Ni5 O22 2.074741 1_565
Ni5 O28 2.079361 1_555
Ni5 O32 2.086175 1_556
Ni5 O33 2.107267 1_555
O0 W0 1.952603 1_555
O1 W0 1.954733 1_555
O2 W0 2.023549 1_555
O3 W0 1.922579 1_555
O4 W0 1.921348 1_555
O5 W4 1.946625 1_555
O6 W3 1.905837 1_555
O7 W1 1.915924 1_555
O8 W1 1.892812 1_555
O9 W1 2.028004 1_555
O10 W2 1.992642 1_555
O11 W2 1.993235 1_555
O12 W1 1.982755 1_555
O13 W1 1.955482 1_555
O14 W2 2.096916 1_555
O15 W2 1.849238 1_555
O16 W2 1.904831 1_555
O17 W0 1.915442 1_555
O18 W5 1.913619 1_555
O19 W3 1.907445 1_555
O20 W3 1.846900 1_555
O21 W3 2.093319 1_555
O22 W4 1.975423 1_555
O23 W4 1.973839 1_555
O24 W3 1.992217 1_555
O25 W3 1.995761 1_555
O26 W4 1.977212 1_555
O27 W4 1.889286 1_555
O28 W4 1.953447 1_555
O29 W2 1.908345 1_555
O30 W1 1.939441 1_555
O31 W5 1.940709 1_555
O32 W5 1.890229 1_555
O33 W5 2.029685 1_555
O34 W5 1.954546 1_555
O35 W5 1.987446 1_555
