# generated using pymatgen
data_K3Pr(PO4)2
_symmetry_space_group_name_H-M   'P 1'
_cell_length_a   5.72290300
_cell_length_b   7.56797300
_cell_length_c   9.67745906
_cell_angle_alpha   89.10636489
_cell_angle_beta   90.00000000
_cell_angle_gamma   90.00000000
_symmetry_Int_Tables_number   1
_chemical_formula_structural   K3Pr(PO4)2
_chemical_formula_sum   'K6 Pr2 P4 O16'
_cell_volume   419.08727627
_cell_formula_units_Z   2
loop_
 _symmetry_equiv_pos_site_id
 _symmetry_equiv_pos_as_xyz
  1  'x, y, z'
loop_
 _atom_site_type_symbol
 _atom_site_label
 _atom_site_symmetry_multiplicity
 _atom_site_fract_x
 _atom_site_fract_y
 _atom_site_fract_z
 _atom_site_occupancy
  K  K0  1  0.25000000  0.20405300  0.91702600  1
  K  K1  1  0.75000000  0.79594700  0.08297400  1
  K  K2  1  0.25000000  0.63885900  0.59398000  1
  K  K3  1  0.75000000  0.36114100  0.40602000  1
  K  K4  1  0.25000000  0.49239700  0.19089300  1
  K  K5  1  0.75000000  0.50760300  0.80910700  1
  Pr  Pr0  1  0.25000000  0.99322200  0.29247100  1
  Pr  Pr1  1  0.75000000  0.00677800  0.70752900  1
  P  P0  1  0.25000000  0.19812400  0.57429500  1
  P  P1  1  0.75000000  0.80187600  0.42570500  1
  P  P2  1  0.75000000  0.23524000  0.08562300  1
  P  P3  1  0.25000000  0.76476000  0.91437700  1
  O  O0  1  0.25000000  0.99477000  0.55540100  1
  O  O1  1  0.75000000  0.00523000  0.44459900  1
  O  O2  1  0.25000000  0.28358500  0.42618000  1
  O  O3  1  0.75000000  0.71641500  0.57382000  1
  O  O4  1  0.02741300  0.25542300  0.65465800  1
  O  O5  1  0.52741300  0.74457700  0.34534200  1
  O  O6  1  0.97258700  0.74457700  0.34534200  1
  O  O7  1  0.47258700  0.25542300  0.65465800  1
  O  O8  1  0.97204200  0.15621300  0.15795700  1
  O  O9  1  0.47204200  0.84378700  0.84204300  1
  O  O10  1  0.02795800  0.84378700  0.84204300  1
  O  O11  1  0.52795800  0.15621300  0.15795700  1
  O  O12  1  0.75000000  0.18034200  0.93073900  1
  O  O13  1  0.25000000  0.81965800  0.06926100  1
  O  O14  1  0.75000000  0.43710100  0.09974300  1
  O  O15  1  0.25000000  0.56289900  0.90025700  1
loop_
_geom_bond_atom_site_label_1
_geom_bond_atom_site_label_2
_geom_bond_distance
_geom_bond_site_symmetry_2
K0 O15 2.718054 1_555
K0 O8 2.841042 1_456
K0 O11 2.841042 1_556
K0 O4 2.861788 1_555
K0 O7 2.861788 1_555
K0 O12 2.870013 1_455
K0 O12 2.870013 1_555
K0 O9 3.104308 1_545
K0 O10 3.104308 1_545
K0 O13 3.240306 1_546
K1 O14 2.718054 1_555
K1 O10 2.841042 1_654
K1 O9 2.841042 1_554
K1 O6 2.861788 1_555
K1 O5 2.861788 1_555
K1 O13 2.870013 1_555
K1 O13 2.870013 1_655
K1 O11 3.104308 1_565
K1 O8 3.104308 1_565
K1 O12 3.240306 1_564
K2 O0 2.713503 1_555
K2 O3 2.926926 1_555
K2 O3 2.926926 1_455
K2 O6 2.981658 1_455
K2 O5 2.981658 1_555
K2 O15 3.010401 1_555
K2 O10 3.146285 1_555
K2 O9 3.146285 1_555
K2 O2 3.162641 1_555
K2 O4 3.214806 1_555
K2 O7 3.214806 1_555
K3 O1 2.713503 1_555
K3 O2 2.926926 1_655
K3 O2 2.926926 1_555
K3 O7 2.981658 1_555
K3 O4 2.981658 1_655
K3 O14 3.010401 1_555
K3 O8 3.146285 1_555
K3 O11 3.146285 1_555
K3 O3 3.162641 1_555
K3 O5 3.214806 1_555
K3 O6 3.214806 1_555
K4 O13 2.725556 1_555
K4 O2 2.751308 1_555
K4 O15 2.854592 1_554
K4 O6 2.913051 1_455
K4 O5 2.913051 1_555
K4 O11 3.021657 1_555
K4 O8 3.021657 1_455
K4 O14 3.025334 1_555
K4 O14 3.025334 1_455
K5 O12 2.725556 1_555
K5 O3 2.751308 1_555
K5 O14 2.854592 1_556
K5 O4 2.913051 1_655
K5 O7 2.913051 1_555
K5 O9 3.021657 1_555
K5 O10 3.021657 1_655
K5 O15 3.025334 1_655
K5 O15 3.025334 1_555
O0 P0 1.552631 1_565
O0 Pr0 2.544704 1_555
O1 P1 1.552631 1_545
O1 Pr1 2.544704 1_555
O2 P0 1.563317 1_555
O2 Pr0 2.567462 1_545
O3 P1 1.563317 1_555
O3 Pr1 2.567462 1_565
O4 P0 1.557585 1_555
O4 Pr1 2.508625 1_455
O5 P1 1.557585 1_555
O5 Pr0 2.508625 1_555
O6 P1 1.557585 1_555
O6 Pr0 2.508625 1_655
O7 P0 1.557585 1_555
O7 Pr1 2.508625 1_555
O8 P2 1.565052 1_555
O8 Pr0 2.386721 1_645
O9 P3 1.565052 1_555
O9 Pr1 2.386721 1_565
O10 P3 1.565052 1_555
O10 Pr1 2.386721 1_465
O11 P2 1.565052 1_555
O11 Pr0 2.386721 1_545
O12 P2 1.561630 1_556
O12 Pr1 2.545568 1_555
O13 P3 1.561630 1_554
O13 Pr0 2.545568 1_555
O14 P2 1.535899 1_555
O15 P3 1.535899 1_555
