# generated using pymatgen
data_Li9Mn(SiO5)2
_symmetry_space_group_name_H-M   'P 1'
_cell_length_a   5.36036400
_cell_length_b   5.92011359
_cell_length_c   15.30894649
_cell_angle_alpha   96.24171460
_cell_angle_beta   98.09796837
_cell_angle_gamma   91.96678417
_symmetry_Int_Tables_number   1
_chemical_formula_structural   Li9Mn(SiO5)2
_chemical_formula_sum   'Li18 Mn2 Si4 O20'
_cell_volume   477.50972067
_cell_formula_units_Z   2
loop_
 _symmetry_equiv_pos_site_id
 _symmetry_equiv_pos_as_xyz
  1  'x, y, z'
loop_
 _atom_site_type_symbol
 _atom_site_label
 _atom_site_symmetry_multiplicity
 _atom_site_fract_x
 _atom_site_fract_y
 _atom_site_fract_z
 _atom_site_occupancy
  Li  Li0  1  0.95041400  0.65300600  0.72826700  1
  Li  Li1  1  0.22783100  0.52886600  0.61434800  1
  Li  Li2  1  0.76771800  0.61266700  0.87173100  1
  Li  Li3  1  0.49510900  0.16010900  0.26654700  1
  Li  Li4  1  0.25049000  0.49937000  0.98691300  1
  Li  Li5  1  0.82469300  0.26735700  0.54532000  1
  Li  Li6  1  0.65725400  0.16668700  0.82796300  1
  Li  Li7  1  0.04096600  0.91931800  0.26602300  1
  Li  Li8  1  0.80132500  0.97679500  0.39192600  1
  Li  Li9  1  0.24183000  0.05877400  0.60905700  1
  Li  Li10  1  0.96861200  0.06869100  0.72877600  1
  Li  Li11  1  0.15044200  0.74193500  0.46965900  1
  Li  Li12  1  0.72808700  0.52057300  0.02317800  1
  Li  Li13  1  0.47788100  0.83429300  0.72336100  1
  Li  Li14  1  0.43690900  0.69615000  0.36092000  1
  Li  Li15  1  0.22010700  0.39692200  0.13413600  1
  Li  Li16  1  0.80751000  0.46045100  0.39077500  1
  Li  Li17  1  0.00351400  0.34846700  0.26312600  1
  Mn  Mn0  1  0.08711500  0.92836600  0.09334400  1
  Mn  Mn1  1  0.02663500  0.01739100  0.91151800  1
  Si  Si0  1  0.28788300  0.37289100  0.81370800  1
  Si  Si1  1  0.30477100  0.23280000  0.43226000  1
  Si  Si2  1  0.67253000  0.65380700  0.19204900  1
  Si  Si3  1  0.71153100  0.77033100  0.56432800  1
  O  O0  1  0.84638400  0.56034000  0.61223100  1
  O  O1  1  0.99879100  0.75456400  0.97492300  1
  O  O2  1  0.28493100  0.58578500  0.75661400  1
  O  O3  1  0.60820700  0.22708900  0.42334400  1
  O  O4  1  0.15981800  0.12926500  0.19450300  1
  O  O5  1  0.50545700  0.41341800  0.90334300  1
  O  O6  1  0.23183300  0.27657100  0.53164600  1
  O  O7  1  0.00697600  0.31419400  0.84764000  1
  O  O8  1  0.34040400  0.13291200  0.75525900  1
  O  O9  1  0.17569500  0.97830000  0.38500400  1
  O  O10  1  0.10960300  0.18819800  0.02340900  1
  O  O11  1  0.87214300  0.00672200  0.61087500  1
  O  O12  1  0.66352800  0.88372600  0.25973900  1
  O  O13  1  0.46578800  0.61532200  0.09985200  1
  O  O14  1  0.73787600  0.73376200  0.45704700  1
  O  O15  1  0.95935200  0.66459200  0.15392400  1
  O  O16  1  0.81721000  0.87636900  0.80853100  1
  O  O17  1  0.41538300  0.78670600  0.58428300  1
  O  O18  1  0.66520000  0.43956500  0.25096000  1
  O  O19  1  0.18030700  0.44531600  0.37747000  1
loop_
_geom_bond_atom_site_label_1
_geom_bond_atom_site_label_2
_geom_bond_distance
_geom_bond_site_symmetry_2
Li0 O0 1.804298 1_555
Li0 O2 1.851843 1_655
Li0 O16 1.930522 1_555
Li1 O6 1.852824 1_555
Li1 O17 1.931422 1_555
Li1 O0 2.055563 1_455
Li1 O2 2.143874 1_555
Li2 O5 1.950359 1_555
Li2 O16 1.953456 1_555
Li2 O1 1.955575 1_555
Li2 O7 2.247270 1_655
Li3 O12 1.895763 1_545
Li3 O18 1.915438 1_555
Li3 O4 1.963469 1_555
Li3 O3 2.377650 1_555
Li4 O13 1.979356 1_556
Li4 O5 2.040200 1_555
Li4 O1 2.065652 1_455
Li4 O10 2.126803 1_556
Li4 O7 2.461919 1_555
Li5 O0 1.907227 1_555
Li5 O11 1.935050 1_555
Li5 O3 2.040608 1_555
Li5 O6 2.220984 1_655
Li6 O8 1.886579 1_555
Li6 O16 1.959461 1_545
Li6 O7 2.009707 1_655
Li6 O5 2.026560 1_555
Li7 O9 1.853387 1_555
Li7 O4 1.894093 1_565
Li7 O12 2.014574 1_455
Li7 O15 2.142662 1_455
Li8 O14 1.885069 1_555
Li8 O3 1.894510 1_565
Li8 O9 2.024174 1_655
Li8 O12 2.062232 1_555
Li9 O6 1.840899 1_555
Li9 O17 1.916509 1_545
Li9 O11 1.999546 1_455
Li9 O8 2.217803 1_555
Li10 O11 1.799955 1_555
Li10 O16 1.990920 1_545
Li10 O8 1.991875 1_655
Li10 O7 2.182863 1_655
Li11 O9 2.021559 1_555
Li11 O17 2.082622 1_555
Li11 O19 2.155248 1_555
Li11 O14 2.191049 1_455
Li12 O13 2.011282 1_555
Li12 O5 2.066475 1_554
Li12 O1 2.226390 1_554
Li12 O15 2.264365 1_555
Li13 O2 1.923552 1_555
Li13 O8 1.977355 1_565
Li13 O16 2.073816 1_555
Li13 O17 2.094508 1_555
Li14 O14 2.013239 1_555
Li14 O19 2.049647 1_555
Li14 O9 2.249150 1_555
Li14 O12 2.433036 1_555
Li15 O4 1.958762 1_555
Li15 O13 1.976599 1_555
Li15 O10 1.990621 1_555
Li15 O15 2.173354 1_455
Li16 O3 1.870056 1_555
Li16 O14 1.891525 1_555
Li16 O19 2.041035 1_655
Li16 O18 2.157446 1_555
Li17 O4 1.875054 1_555
Li17 O19 1.888949 1_555
Li17 O18 1.899498 1_455
Mn0 O4 1.833669 1_565
Mn0 O1 1.971951 1_454
Mn0 O10 1.977041 1_565
Mn0 O15 2.046480 1_455
Mn1 O10 1.879446 1_556
Mn1 O16 1.895724 1_445
Mn1 O1 1.933593 1_445
Mn1 O7 2.100510 1_555
O0 Si3 1.648141 1_555
O2 Si0 1.609262 1_555
O3 Si1 1.652478 1_555
O5 Si0 1.661044 1_555
O6 Si1 1.619806 1_555
O7 Si0 1.697534 1_555
O8 Si0 1.649337 1_555
O9 Si1 1.680044 1_565
O11 Si3 1.653814 1_545
O12 Si2 1.625046 1_555
O13 Si2 1.656583 1_555
O14 Si3 1.659603 1_555
O15 Si2 1.721256 1_555
O17 Si3 1.662379 1_555
O18 Si2 1.636727 1_555
O19 Si1 1.691435 1_555
