# generated using pymatgen
data_Th5Pb3
_symmetry_space_group_name_H-M   'P 1'
_cell_length_a   6.57866700
_cell_length_b   9.53661128
_cell_length_c   9.53697838
_cell_angle_alpha   119.99873623
_cell_angle_beta   90.00000000
_cell_angle_gamma   90.00000000
_symmetry_Int_Tables_number   1
_chemical_formula_structural   Th5Pb3
_chemical_formula_sum   'Th10 Pb6'
_cell_volume   518.17796902
_cell_formula_units_Z   2
loop_
 _symmetry_equiv_pos_site_id
 _symmetry_equiv_pos_as_xyz
  1  'x, y, z'
loop_
 _atom_site_type_symbol
 _atom_site_label
 _atom_site_symmetry_multiplicity
 _atom_site_fract_x
 _atom_site_fract_y
 _atom_site_fract_z
 _atom_site_occupancy
  Th  Th0  1  0.49999900  0.33335600  0.66673600  1
  Th  Th1  1  0.49999900  0.66662000  0.33326400  1
  Th  Th2  1  0.99999900  0.66664400  0.33326400  1
  Th  Th3  1  0.99999900  0.33338000  0.66673600  1
  Th  Th4  1  0.74999600  0.25241500  0.00000000  1
  Th  Th5  1  0.75000300  0.74762600  0.74765900  1
  Th  Th6  1  0.75000300  0.99996800  0.25234100  1
  Th  Th7  1  0.24999600  0.74758500  0.00000000  1
  Th  Th8  1  0.25000300  0.25237400  0.25234100  1
  Th  Th9  1  0.25000300  0.00003200  0.74765900  1
  Pb  Pb0  1  0.74999500  0.61216900  0.00000000  1
  Pb  Pb1  1  0.75000300  0.38782800  0.38783500  1
  Pb  Pb2  1  0.75000300  0.99999200  0.61216500  1
  Pb  Pb3  1  0.24999500  0.38783100  0.00000000  1
  Pb  Pb4  1  0.25000300  0.61217200  0.61216500  1
  Pb  Pb5  1  0.25000300  0.00000800  0.38783500  1
loop_
_geom_bond_atom_site_label_1
_geom_bond_atom_site_label_2
_geom_bond_distance
_geom_bond_site_symmetry_2
Th0 Th3 3.289334 1_455
Th0 Th3 3.289334 1_555
Th1 Th2 3.289334 1_455
Th1 Th2 3.289334 1_555
Pb0 Th5 3.251003 1_554
Pb0 Th6 3.251010 1_555
Pb0 Th3 3.380176 1_554
Pb0 Th2 3.380176 1_555
Pb0 Th0 3.380223 1_554
Pb0 Th1 3.380223 1_555
Pb0 Th4 3.430834 1_555
Pb0 Th7 3.533753 1_555
Pb0 Th7 3.533765 1_655
Pb1 Th6 3.251449 1_545
Pb1 Th4 3.251500 1_555
Pb1 Th1 3.380590 1_555
Pb1 Th2 3.380762 1_555
Pb1 Th3 3.380898 1_555
Pb1 Th0 3.381049 1_555
Pb1 Th5 3.431509 1_555
Pb1 Th8 3.533980 1_655
Pb1 Th8 3.533980 1_555
Pb2 Th5 3.251449 1_555
Pb2 Th4 3.251501 1_566
Pb2 Th0 3.380598 1_565
Pb2 Th3 3.380770 1_565
Pb2 Th2 3.380892 1_555
Pb2 Th1 3.381043 1_555
Pb2 Th6 3.431519 1_555
Pb2 Th9 3.533980 1_665
Pb2 Th9 3.533980 1_565
Pb3 Th8 3.251003 1_555
Pb3 Th9 3.251010 1_554
Pb3 Th1 3.380176 1_555
Pb3 Th0 3.380176 1_554
Pb3 Th2 3.380223 1_455
Pb3 Th3 3.380223 1_454
Pb3 Th7 3.430834 1_555
Pb3 Th4 3.533753 1_455
Pb3 Th4 3.533765 1_555
Pb4 Th9 3.251449 1_565
Pb4 Th7 3.251500 1_556
Pb4 Th3 3.380590 1_455
Pb4 Th0 3.380762 1_555
Pb4 Th1 3.380898 1_555
Pb4 Th2 3.381049 1_455
Pb4 Th8 3.431509 1_555
Pb4 Th5 3.533980 1_455
Pb4 Th5 3.533980 1_555
Pb5 Th8 3.251449 1_555
Pb5 Th7 3.251501 1_545
Pb5 Th2 3.380598 1_445
Pb5 Th1 3.380770 1_545
Pb5 Th0 3.380892 1_555
Pb5 Th3 3.381043 1_455
Pb5 Th9 3.431519 1_555
Pb5 Th6 3.533980 1_445
Pb5 Th6 3.533980 1_545
