# generated using pymatgen
data_Li4TiCo5O12
_symmetry_space_group_name_H-M   'P 1'
_cell_length_a   5.03809274
_cell_length_b   11.23608069
_cell_length_c   8.51221503
_cell_angle_alpha   112.25480937
_cell_angle_beta   90.00078539
_cell_angle_gamma   76.30418544
_symmetry_Int_Tables_number   1
_chemical_formula_structural   Li4TiCo5O12
_chemical_formula_sum   'Li8 Ti2 Co10 O24'
_cell_volume   431.12877917
_cell_formula_units_Z   2
loop_
 _symmetry_equiv_pos_site_id
 _symmetry_equiv_pos_as_xyz
  1  'x, y, z'
loop_
 _atom_site_type_symbol
 _atom_site_label
 _atom_site_symmetry_multiplicity
 _atom_site_fract_x
 _atom_site_fract_y
 _atom_site_fract_z
 _atom_site_occupancy
  Li  Li0  1  0.03083600  0.74632400  0.12925000  1
  Li  Li1  1  0.51869300  0.74445900  0.62818700  1
  Li  Li2  1  0.48127900  0.25559800  0.88406400  1
  Li  Li3  1  0.96916400  0.25362000  0.38268400  1
  Li  Li4  1  0.52734100  0.74548500  0.11939100  1
  Li  Li5  1  0.02049600  0.74530300  0.62021200  1
  Li  Li6  1  0.97945700  0.25468300  0.87519200  1
  Li  Li7  1  0.47270100  0.25454000  0.37370900  1
  Ti  Ti0  1  0.00016800  0.99995800  0.00476200  1
  Ti  Ti1  1  0.49984500  0.00007900  0.50643900  1
  Co  Co0  1  0.74995400  0.50009400  0.75034600  1
  Co  Co1  1  0.00000000  0.00002600  0.66286600  1
  Co  Co2  1  0.50000100  0.99996400  0.16358200  1
  Co  Co3  1  0.49997600  0.00001000  0.83472900  1
  Co  Co4  1  0.99999900  0.99997100  0.33136600  1
  Co  Co5  1  0.25006500  0.49991200  0.25025300  1
  Co  Co6  1  0.25032000  0.50031900  0.91493300  1
  Co  Co7  1  0.74969200  0.49968600  0.41463100  1
  Co  Co8  1  0.75038700  0.50022400  0.08573100  1
  Co  Co9  1  0.24962300  0.49978100  0.58552400  1
  O  O0  1  0.37454600  0.59508000  0.79728800  1
  O  O1  1  0.87428100  0.59514200  0.29801500  1
  O  O2  1  0.62552600  0.40487600  0.20220600  1
  O  O3  1  0.12568700  0.40490500  0.70292200  1
  O  O4  1  0.78636000  0.09948700  0.54683600  1
  O  O5  1  0.28844500  0.09983100  0.04881200  1
  O  O6  1  0.21374400  0.90043700  0.44735000  1
  O  O7  1  0.71142300  0.90024300  0.94903300  1
  O  O8  1  0.30382600  0.11407100  0.72874400  1
  O  O9  1  0.79578200  0.11408300  0.22624000  1
  O  O10  1  0.20426000  0.88579600  0.11211700  1
  O  O11  1  0.69608600  0.88601100  0.61467700  1
  O  O12  1  0.80387700  0.11061500  0.88122700  1
  O  O13  1  0.27830400  0.10268100  0.37803900  1
  O  O14  1  0.72172300  0.89733700  0.27542200  1
  O  O15  1  0.19609800  0.88934700  0.77057000  1
  O  O16  1  0.13862500  0.40115800  0.03312300  1
  O  O17  1  0.63713400  0.40063200  0.53299500  1
  O  O18  1  0.63857600  0.40118200  0.86853800  1
  O  O19  1  0.13754000  0.40005300  0.36821600  1
  O  O20  1  0.36290700  0.59937400  0.13235900  1
  O  O21  1  0.86137900  0.59885800  0.63194100  1
  O  O22  1  0.86244100  0.59994700  0.96815400  1
  O  O23  1  0.36143400  0.59881800  0.46732300  1
loop_
_geom_bond_atom_site_label_1
_geom_bond_atom_site_label_2
_geom_bond_distance
_geom_bond_site_symmetry_2
Li0 O14 2.000539 1_455
Li0 O10 2.015446 1_555
Li0 O20 2.061780 1_555
Li0 O22 2.063401 1_454
Li1 O15 2.003327 1_555
Li1 O23 2.024172 1_555
Li1 O11 2.037959 1_555
Li1 O21 2.088136 1_555
Li2 O12 2.003082 1_555
Li2 O18 2.024578 1_555
Li2 O8 2.038804 1_555
Li2 O16 2.087162 1_556
Li3 O13 2.000497 1_655
Li3 O9 2.015337 1_555
Li3 O17 2.062671 1_555
Li3 O19 2.063080 1_655
Li4 O10 1.999387 1_555
Li4 O20 2.043286 1_555
Li4 O22 2.068773 1_554
Li4 O14 2.170020 1_555
Li5 O11 2.001473 1_455
Li5 O21 2.027126 1_455
Li5 O15 2.036974 1_555
Li5 O23 2.095705 1_555
Li6 O8 2.001597 1_655
Li6 O16 2.026827 1_656
Li6 O12 2.036315 1_555
Li6 O18 2.096225 1_555
Li7 O9 1.999730 1_555
Li7 O17 2.043843 1_555
Li7 O19 2.068149 1_555
Li7 O13 2.170484 1_555
Co0 O0 1.896585 1_555
Co0 O3 1.898555 1_655
Co0 O18 1.924706 1_555
Co0 O21 1.924748 1_555
Co0 O17 1.931233 1_555
Co0 O22 1.934640 1_555
Co1 O12 1.909043 1_455
Co1 O15 1.909161 1_545
Co1 O4 1.910328 1_455
Co1 O6 1.910961 1_545
Co1 O8 2.164269 1_555
Co1 O11 2.164402 1_445
Co2 O7 1.900072 1_554
Co2 O5 1.900936 1_565
Co2 O14 1.924930 1_555
Co2 O13 1.925044 1_565
Co2 O9 2.129794 1_565
Co2 O10 2.130001 1_555
Co3 O7 1.897048 1_545
Co3 O5 1.897485 1_556
Co3 O11 1.925856 1_545
Co3 O8 1.925878 1_555
Co3 O12 2.138637 1_555
Co3 O15 2.138984 1_545
Co4 O4 1.910374 1_565
Co4 O6 1.910795 1_655
Co4 O9 1.935887 1_565
Co4 O10 1.936293 1_655
Co4 O14 1.967692 1_555
Co4 O13 1.968397 1_665
Co5 O2 1.896953 1_555
Co5 O1 1.898891 1_455
Co5 O23 1.924545 1_555
Co5 O16 1.924595 1_555
Co5 O20 1.931220 1_555
Co5 O19 1.934737 1_555
Co6 O0 1.910871 1_555
Co6 O3 1.911480 1_555
Co6 O16 1.927741 1_556
Co6 O20 1.929899 1_556
Co6 O22 1.963963 1_455
Co6 O18 1.964180 1_555
Co7 O2 1.911090 1_555
Co7 O1 1.911804 1_555
Co7 O21 1.927593 1_555
Co7 O17 1.929690 1_555
Co7 O19 1.963839 1_655
Co7 O23 1.964172 1_555
Co8 O1 1.909915 1_555
Co8 O2 1.910545 1_555
Co8 O18 1.926709 1_554
Co8 O22 1.929997 1_554
Co8 O20 1.960824 1_555
Co8 O16 1.963894 1_655
Co9 O3 1.909732 1_555
Co9 O0 1.910254 1_555
Co9 O23 1.926884 1_555
Co9 O19 1.930219 1_555
Co9 O17 1.960959 1_555
Co9 O21 1.963954 1_455
O4 Ti1 1.980415 1_555
O5 Ti0 1.990552 1_545
O6 Ti1 1.980333 1_565
O7 Ti0 1.991424 1_656
O8 Ti1 1.939549 1_555
O9 Ti0 1.950007 1_645
O10 Ti0 1.949627 1_555
O11 Ti1 1.939959 1_565
O12 Ti0 2.009411 1_646
O13 Ti1 2.028415 1_555
O14 Ti1 2.029462 1_565
O15 Ti0 2.008857 1_556
