# generated using pymatgen
data_UN2O7
_symmetry_space_group_name_H-M   'P 1'
_cell_length_a   4.99415300
_cell_length_b   11.77820800
_cell_length_c   13.11255200
_cell_angle_alpha   90.00000000
_cell_angle_beta   90.00000000
_cell_angle_gamma   90.00000000
_symmetry_Int_Tables_number   1
_chemical_formula_structural   UN2O7
_chemical_formula_sum   'U4 N8 O28'
_cell_volume   771.30879983
_cell_formula_units_Z   4
loop_
 _symmetry_equiv_pos_site_id
 _symmetry_equiv_pos_as_xyz
  1  'x, y, z'
loop_
 _atom_site_type_symbol
 _atom_site_label
 _atom_site_symmetry_multiplicity
 _atom_site_fract_x
 _atom_site_fract_y
 _atom_site_fract_z
 _atom_site_occupancy
  U  U0  1  0.50000000  0.50000000  0.00000000  1
  U  U1  1  0.00000000  0.00000000  0.50000000  1
  U  U2  1  0.00000000  0.00000000  0.00000000  1
  U  U3  1  0.50000000  0.50000000  0.50000000  1
  N  N0  1  0.01231900  0.38193300  0.64349300  1
  N  N1  1  0.48768100  0.11806700  0.14349300  1
  N  N2  1  0.51231900  0.11806700  0.35650700  1
  N  N3  1  0.98768100  0.38193300  0.85650700  1
  N  N4  1  0.98768100  0.61806700  0.35650700  1
  N  N5  1  0.51231900  0.88193300  0.85650700  1
  N  N6  1  0.48768100  0.88193300  0.64349300  1
  N  N7  1  0.01231900  0.61806700  0.14349300  1
  O  O0  1  0.59749900  0.37201000  0.06357400  1
  O  O1  1  0.90250100  0.12799000  0.56357400  1
  O  O2  1  0.09749900  0.12799000  0.93642600  1
  O  O3  1  0.40250100  0.37201000  0.43642600  1
  O  O4  1  0.40250100  0.62799000  0.93642600  1
  O  O5  1  0.09749900  0.87201000  0.43642600  1
  O  O6  1  0.90250100  0.87201000  0.06357400  1
  O  O7  1  0.59749900  0.62799000  0.56357400  1
  O  O8  1  0.77504800  0.38245200  0.61292800  1
  O  O9  1  0.72495200  0.11754800  0.11292800  1
  O  O10  1  0.27504800  0.11754800  0.38707200  1
  O  O11  1  0.22495200  0.38245200  0.88707200  1
  O  O12  1  0.22495200  0.61754800  0.38707200  1
  O  O13  1  0.27504800  0.88245200  0.88707200  1
  O  O14  1  0.72495200  0.88245200  0.61292800  1
  O  O15  1  0.77504800  0.61754800  0.11292800  1
  O  O16  1  0.84452500  0.46599800  0.88843700  1
  O  O17  1  0.65547500  0.03400200  0.38843700  1
  O  O18  1  0.34452500  0.03400200  0.11156300  1
  O  O19  1  0.15547500  0.46599800  0.61156300  1
  O  O20  1  0.15547500  0.53400200  0.11156300  1
  O  O21  1  0.34452500  0.96599800  0.61156300  1
  O  O22  1  0.65547500  0.96599800  0.88843700  1
  O  O23  1  0.84452500  0.53400200  0.38843700  1
  O  O24  1  0.00000000  0.64604400  0.75000000  1
  O  O25  1  0.50000000  0.85395600  0.25000000  1
  O  O26  1  0.00000000  0.35395600  0.25000000  1
  O  O27  1  0.50000000  0.14604400  0.75000000  1
loop_
_geom_bond_atom_site_label_1
_geom_bond_atom_site_label_2
_geom_bond_distance
_geom_bond_site_symmetry_2
N0 O8 1.250925 1_455
N0 O19 1.291049 1_555
N1 O9 1.250925 1_555
N1 O18 1.291049 1_555
N2 O10 1.250925 1_555
N2 O17 1.291049 1_555
N3 O11 1.250925 1_655
N3 O16 1.291049 1_555
N4 O12 1.250925 1_655
N4 O23 1.291049 1_555
N5 O13 1.250925 1_555
N5 O22 1.291049 1_555
N6 O14 1.250925 1_555
N6 O21 1.291049 1_555
N7 O15 1.250925 1_455
N7 O20 1.291049 1_555
O0 U0 1.790125 1_555
O1 U1 1.790125 1_655
O2 U2 1.790125 1_556
O3 U3 1.790125 1_555
O4 U0 1.790125 1_556
O5 U1 1.790125 1_565
O6 U2 1.790125 1_665
O7 U3 1.790125 1_555
O8 U3 2.448757 1_555
O9 U2 2.448757 1_655
O10 U1 2.448757 1_555
O11 U0 2.448757 1_556
O12 U3 2.448757 1_555
O13 U2 2.448757 1_566
O14 U1 2.448757 1_665
O15 U0 2.448757 1_555
O16 U0 2.293663 1_556
O17 U1 2.293663 1_655
O18 U2 2.293663 1_555
O19 U3 2.293663 1_555
O20 U0 2.293663 1_555
O21 U1 2.293663 1_565
O22 U2 2.293663 1_666
O23 U3 2.293663 1_555
