# generated using pymatgen
data_Ba2LiLaIrO6
_symmetry_space_group_name_H-M   'P 1'
_cell_length_a   6.63454173
_cell_length_b   6.63094378
_cell_length_c   6.63056363
_cell_angle_alpha   53.18201479
_cell_angle_beta   53.18343568
_cell_angle_gamma   53.19390524
_symmetry_Int_Tables_number   1
_chemical_formula_structural   Ba2LiLaIrO6
_chemical_formula_sum   'Ba2 Li1 La1 Ir1 O6'
_cell_volume   173.34300871
_cell_formula_units_Z   1
loop_
 _symmetry_equiv_pos_site_id
 _symmetry_equiv_pos_as_xyz
  1  'x, y, z'
loop_
 _atom_site_type_symbol
 _atom_site_label
 _atom_site_symmetry_multiplicity
 _atom_site_fract_x
 _atom_site_fract_y
 _atom_site_fract_z
 _atom_site_occupancy
  Ba  Ba0  1  0.77085700  0.77286800  0.77309200  1
  Ba  Ba1  1  0.20788600  0.21027900  0.21019300  1
  Li  Li0  1  0.37414300  0.37393800  0.37377100  1
  La  La0  1  0.99504900  0.99603000  0.99595600  1
  Ir  Ir0  1  0.50717200  0.50814400  0.50816100  1
  O  O0  1  0.25828900  0.75471300  0.71468300  1
  O  O1  1  0.71363000  0.25794700  0.75486000  1
  O  O2  1  0.75392400  0.71449500  0.25816200  1
  O  O3  1  0.74299900  0.25381300  0.28852800  1
  O  O4  1  0.28777100  0.74393100  0.25384200  1
  O  O5  1  0.25286300  0.28884300  0.74375400  1
loop_
_geom_bond_atom_site_label_1
_geom_bond_atom_site_label_2
_geom_bond_distance
_geom_bond_site_symmetry_2
Ba0 O4 2.868693 1_556
Ba0 O3 2.872660 1_565
Ba0 O5 2.875765 1_655
Ba0 O1 2.937771 1_565
Ba0 O2 2.938349 1_556
Ba0 O0 2.951416 1_655
Ba0 O3 3.076896 1_556
Ba0 O5 3.077190 1_565
Ba0 O4 3.082833 1_655
Ba1 O3 2.656867 1_455
Ba1 O4 2.659797 1_545
Ba1 O5 2.659824 1_554
Ba1 Li0 2.801728 1_555
Ba1 O2 2.900239 1_455
Ba1 O0 2.906150 1_545
Ba1 O1 2.908494 1_554
Ba1 O1 3.134999 1_455
Ba1 O0 3.138945 1_554
Ba1 O2 3.144879 1_545
Li0 O3 1.867850 1_555
Li0 O5 1.871673 1_555
Li0 O4 1.871675 1_555
La0 O0 2.326669 1_655
La0 O2 2.328507 1_556
La0 O1 2.328525 1_565
La0 O3 2.478488 1_566
La0 O5 2.480278 1_665
La0 O4 2.480733 1_656
Ir0 O2 2.003304 1_555
Ir0 O0 2.003356 1_555
Ir0 O1 2.003538 1_555
Ir0 O5 2.111858 1_555
Ir0 O4 2.112299 1_555
Ir0 O3 2.112821 1_555
