# generated using pymatgen
data_HfAl2Zn
_symmetry_space_group_name_H-M   'P 1'
_cell_length_a   4.03884314
_cell_length_b   4.03884314
_cell_length_c   3.99808394
_cell_angle_alpha   90.00000000
_cell_angle_beta   90.00000000
_cell_angle_gamma   90.00000000
_symmetry_Int_Tables_number   1
_chemical_formula_structural   HfAl2Zn
_chemical_formula_sum   'Hf1 Al2 Zn1'
_cell_volume   65.21776038
_cell_formula_units_Z   1
loop_
 _symmetry_equiv_pos_site_id
 _symmetry_equiv_pos_as_xyz
  1  'x, y, z'
loop_
 _atom_site_type_symbol
 _atom_site_label
 _atom_site_symmetry_multiplicity
 _atom_site_fract_x
 _atom_site_fract_y
 _atom_site_fract_z
 _atom_site_occupancy
  Hf  Hf0  1  -0.00000000  -0.00000000  -0.00000000  1
  Al  Al0  1  -0.00000000  0.50000000  0.50000000  1
  Al  Al1  1  0.50000000  -0.00000000  0.50000000  1
  Zn  Zn0  1  0.50000000  0.50000000  0.00000000  1
loop_
_geom_bond_atom_site_label_1
_geom_bond_atom_site_label_2
_geom_bond_distance
_geom_bond_site_symmetry_2
Hf0 Zn0 2.855893 1_545
Hf0 Zn0 2.855893 1_455
Hf0 Zn0 2.855893 1_445
Hf0 Zn0 2.855893 1_555
Al0 Zn0 2.841519 1_456
Al0 Hf0 2.841519 1_566
Al0 Hf0 2.841519 1_555
Al0 Hf0 2.841519 1_556
Al0 Zn0 2.841519 1_455
Al0 Zn0 2.841519 1_555
Al0 Hf0 2.841519 1_565
Al0 Zn0 2.841519 1_556
Al0 Al1 2.855893 1_565
Al0 Al1 2.855893 1_465
Al0 Al1 2.855893 1_555
Al0 Al1 2.855893 1_455
Al1 Zn0 2.841519 1_546
Al1 Hf0 2.841519 1_555
Al1 Hf0 2.841519 1_556
Al1 Hf0 2.841519 1_656
Al1 Zn0 2.841519 1_555
Al1 Hf0 2.841519 1_655
Al1 Zn0 2.841519 1_545
Al1 Zn0 2.841519 1_556
