# generated using pymatgen
data_CsRb
_symmetry_space_group_name_H-M   'P 1'
_cell_length_a   10.45331022
_cell_length_b   10.45331022
_cell_length_c   16.77988004
_cell_angle_alpha   90.00000000
_cell_angle_beta   90.00000000
_cell_angle_gamma   108.92647102
_symmetry_Int_Tables_number   1
_chemical_formula_structural   CsRb
_chemical_formula_sum   'Cs8 Rb8'
_cell_volume   1734.43529567
_cell_formula_units_Z   8
loop_
 _symmetry_equiv_pos_site_id
 _symmetry_equiv_pos_as_xyz
  1  'x, y, z'
loop_
 _atom_site_type_symbol
 _atom_site_label
 _atom_site_symmetry_multiplicity
 _atom_site_fract_x
 _atom_site_fract_y
 _atom_site_fract_z
 _atom_site_occupancy
  Cs  Cs0_0  1  0.00000000  0.00000000  0.00000000  1
  Cs  Cs0_1  1  0.00000000  0.00000000  0.50000000  1
  Cs  Cs0_2  1  0.00000000  0.50000000  0.00000000  1
  Cs  Cs0_3  1  0.00000000  0.50000000  0.50000000  1
  Cs  Cs0_4  1  0.50000000  0.00000000  0.00000000  1
  Cs  Cs0_5  1  0.50000000  0.00000000  0.50000000  1
  Cs  Cs0_6  1  0.50000000  0.50000000  0.00000000  1
  Cs  Cs0_7  1  0.50000000  0.50000000  0.50000000  1
  Rb  Rb0_0  1  0.25000000  0.25000000  0.25000000  1
  Rb  Rb0_1  1  0.25000000  0.25000000  0.75000000  1
  Rb  Rb0_2  1  0.25000000  0.75000000  0.25000000  1
  Rb  Rb0_3  1  0.25000000  0.75000000  0.75000000  1
  Rb  Rb0_4  1  0.75000000  0.25000000  0.25000000  1
  Rb  Rb0_5  1  0.75000000  0.25000000  0.75000000  1
  Rb  Rb0_6  1  0.75000000  0.75000000  0.25000000  1
  Rb  Rb0_7  1  0.75000000  0.75000000  0.75000000  1
loop_
_geom_bond_atom_site_label_1
_geom_bond_atom_site_label_2
_geom_bond_distance
_geom_bond_site_symmetry_2
Cs0_0 Rb0_1 5.179420 1_554
Cs0_0 Rb0_7 5.179420 1_444
Cs0_0 Rb0_6 5.179420 1_445
Cs0_0 Rb0_0 5.179420 1_555
Cs0_0 Cs0_4 5.226655 1_555
Cs0_0 Cs0_2 5.226655 1_545
Cs0_0 Cs0_2 5.226655 1_555
Cs0_0 Cs0_4 5.226655 1_455
Cs0_1 Rb0_6 5.179420 1_445
Cs0_1 Rb0_0 5.179420 1_555
Cs0_1 Rb0_7 5.179420 1_445
Cs0_1 Rb0_1 5.179420 1_555
Cs0_1 Cs0_5 5.226655 1_555
Cs0_1 Cs0_3 5.226655 1_545
Cs0_1 Cs0_3 5.226655 1_555
Cs0_1 Cs0_5 5.226655 1_455
Cs0_2 Rb0_3 5.179420 1_554
Cs0_2 Rb0_5 5.179420 1_454
Cs0_2 Rb0_4 5.179420 1_455
Cs0_2 Rb0_2 5.179420 1_555
Cs0_2 Cs0_6 5.226655 1_555
Cs0_2 Cs0_6 5.226655 1_455
Cs0_3 Rb0_2 5.179420 1_555
Cs0_3 Rb0_4 5.179420 1_455
Cs0_3 Rb0_3 5.179420 1_555
Cs0_3 Rb0_5 5.179420 1_455
Cs0_3 Cs0_7 5.226655 1_455
Cs0_3 Cs0_7 5.226655 1_555
Cs0_4 Rb0_5 5.179420 1_554
Cs0_4 Rb0_3 5.179420 1_544
Cs0_4 Rb0_4 5.179420 1_555
Cs0_4 Rb0_2 5.179420 1_545
Cs0_4 Cs0_6 5.226655 1_545
Cs0_4 Cs0_6 5.226655 1_555
Cs0_5 Rb0_4 5.179420 1_555
Cs0_5 Rb0_2 5.179420 1_545
Cs0_5 Rb0_5 5.179420 1_555
Cs0_5 Rb0_3 5.179420 1_545
Cs0_5 Cs0_7 5.226655 1_545
Cs0_5 Cs0_7 5.226655 1_555
Cs0_6 Rb0_7 5.179420 1_554
Cs0_6 Rb0_1 5.179420 1_554
Cs0_6 Rb0_0 5.179420 1_555
Cs0_6 Rb0_6 5.179420 1_555
Cs0_7 Rb0_0 5.179420 1_555
Cs0_7 Rb0_6 5.179420 1_555
Cs0_7 Rb0_7 5.179420 1_555
Cs0_7 Rb0_1 5.179420 1_555
