# generated using pymatgen
data_LaMn4(CuO4)3
_symmetry_space_group_name_H-M   'P 1'
_cell_length_a   6.47541221
_cell_length_b   6.47545031
_cell_length_c   10.57930042
_cell_angle_alpha   89.98727763
_cell_angle_beta   90.01260987
_cell_angle_gamma   109.53758186
_symmetry_Int_Tables_number   1
_chemical_formula_structural   LaMn4(CuO4)3
_chemical_formula_sum   'La2 Mn8 Cu6 O24'
_cell_volume   418.06123565
_cell_formula_units_Z   2
loop_
 _symmetry_equiv_pos_site_id
 _symmetry_equiv_pos_as_xyz
  1  'x, y, z'
loop_
 _atom_site_type_symbol
 _atom_site_label
 _atom_site_symmetry_multiplicity
 _atom_site_fract_x
 _atom_site_fract_y
 _atom_site_fract_z
 _atom_site_occupancy
  La  La0  1  0.00001600  0.00001000  0.00000800  1
  La  La1  1  0.49998700  0.50000000  0.49999000  1
  Mn  Mn0  1  0.25000200  0.24997300  0.24998800  1
  Mn  Mn1  1  0.74999900  0.75002600  0.75001200  1
  Mn  Mn2  1  0.50000000  0.00000400  0.99999400  1
  Mn  Mn3  1  0.00000000  0.49999500  0.50000300  1
  Mn  Mn4  1  0.99999800  0.50000100  0.99999700  1
  Mn  Mn5  1  0.50000200  0.99999800  0.50000400  1
  Mn  Mn6  1  0.75002700  0.75000000  0.24998700  1
  Mn  Mn7  1  0.24997700  0.25000200  0.75001000  1
  Cu  Cu0  1  0.00000100  0.99999600  0.50000400  1
  Cu  Cu1  1  0.74999800  0.25000400  0.25000700  1
  Cu  Cu2  1  0.25000300  0.74999400  0.74999400  1
  Cu  Cu3  1  0.49999400  0.50000500  0.99999600  1
  Cu  Cu4  1  0.24999400  0.75000600  0.25000100  1
  Cu  Cu5  1  0.75000400  0.24999400  0.75000100  1
  O  O0  1  0.56853000  0.43146800  0.26024700  1
  O  O1  1  0.06853400  0.93146500  0.76024700  1
  O  O2  1  0.93146900  0.06852700  0.23975100  1
  O  O3  1  0.43146600  0.56853300  0.73975100  1
  O  O4  1  0.73971400  0.26028300  0.43151200  1
  O  O5  1  0.23970900  0.76028900  0.93151300  1
  O  O6  1  0.76028600  0.23971100  0.06848000  1
  O  O7  1  0.26028600  0.73971700  0.56849600  1
  O  O8  1  0.27773400  0.10611500  0.41428200  1
  O  O9  1  0.77771500  0.60612400  0.91427000  1
  O  O10  1  0.22229200  0.39387600  0.08573600  1
  O  O11  1  0.72226000  0.89388600  0.58571400  1
  O  O12  1  0.60613000  0.77771200  0.08573500  1
  O  O13  1  0.10611300  0.27774000  0.58571200  1
  O  O14  1  0.89388200  0.72226600  0.41428200  1
  O  O15  1  0.39387900  0.22228300  0.91426900  1
  O  O16  1  0.17452700  0.48294800  0.34582700  1
  O  O17  1  0.67454000  0.98291000  0.84581900  1
  O  O18  1  0.32545300  0.01708300  0.15419400  1
  O  O19  1  0.82547700  0.51705500  0.65416200  1
  O  O20  1  0.98291600  0.67454300  0.15419400  1
  O  O21  1  0.48294500  0.17452300  0.65415800  1
  O  O22  1  0.51705100  0.82546800  0.34583100  1
  O  O23  1  0.01708700  0.32546600  0.84581900  1
loop_
_geom_bond_atom_site_label_1
_geom_bond_atom_site_label_2
_geom_bond_distance
_geom_bond_site_symmetry_2
La0 O10 2.635184 1_555
La0 O15 2.635192 1_554
La0 O12 2.635301 1_445
La0 O9 2.635358 1_444
La0 O5 2.637472 1_544
La0 O6 2.637492 1_455
La0 O18 2.637534 1_555
La0 O20 2.637655 1_445
La0 O23 2.637661 1_554
La0 O17 2.637713 1_444
La0 O2 2.638081 1_455
La0 O1 2.638263 1_544
La1 O13 2.635167 1_555
La1 O8 2.635174 1_555
La1 O14 2.635231 1_555
La1 O11 2.635267 1_555
La1 O7 2.637525 1_555
La1 O16 2.637531 1_555
La1 O22 2.637536 1_555
La1 O4 2.637575 1_555
La1 O21 2.637672 1_555
La1 O19 2.637738 1_555
La1 O0 2.638097 1_555
La1 O3 2.638250 1_555
Mn0 O2 2.006412 1_455
Mn0 O0 2.006475 1_555
Mn0 O10 2.007734 1_555
Mn0 O8 2.008009 1_555
Mn0 O18 2.008415 1_555
Mn0 O16 2.009191 1_555
Mn1 O1 2.006411 1_655
Mn1 O3 2.006500 1_555
Mn1 O9 2.007795 1_555
Mn1 O11 2.008063 1_555
Mn1 O17 2.008478 1_555
Mn1 O19 2.009237 1_555
Mn2 O6 2.006291 1_556
Mn2 O5 2.006316 1_545
Mn2 O15 2.006775 1_555
Mn2 O12 2.006956 1_546
Mn2 O17 2.008627 1_545
Mn2 O18 2.008845 1_556
Mn3 O4 2.006326 1_455
Mn3 O7 2.006366 1_555
Mn3 O13 2.006540 1_555
Mn3 O14 2.006702 1_455
Mn3 O19 2.008372 1_455
Mn3 O16 2.008513 1_555
Mn4 O5 2.006303 1_655
Mn4 O6 2.006310 1_556
Mn4 O9 2.006810 1_555
Mn4 O10 2.006934 1_656
Mn4 O23 2.008632 1_655
Mn4 O20 2.008810 1_556
Mn5 O7 2.006323 1_555
Mn5 O4 2.006325 1_565
Mn5 O11 2.006553 1_555
Mn5 O8 2.006683 1_565
Mn5 O21 2.008337 1_565
Mn5 O22 2.008507 1_555
Mn6 O2 2.006381 1_565
Mn6 O0 2.006508 1_555
Mn6 O12 2.007717 1_555
Mn6 O14 2.008011 1_555
Mn6 O20 2.008417 1_555
Mn6 O22 2.009193 1_555
Mn7 O1 2.006437 1_545
Mn7 O3 2.006490 1_555
Mn7 O15 2.007808 1_555
Mn7 O13 2.008073 1_555
Mn7 O23 2.008530 1_555
Mn7 O21 2.009228 1_555
Cu0 O11 1.924261 1_455
Cu0 O14 1.924276 1_455
Cu0 O13 1.924278 1_565
Cu0 O8 1.924281 1_565
Cu1 O0 1.922751 1_555
Cu1 O2 1.922845 1_555
Cu1 O4 1.923303 1_555
Cu1 O6 1.923541 1_555
Cu2 O3 1.922711 1_555
Cu2 O1 1.922801 1_555
Cu2 O7 1.923228 1_555
Cu2 O5 1.923459 1_555
Cu3 O10 1.924210 1_556
Cu3 O9 1.924238 1_555
Cu3 O12 1.924244 1_556
Cu3 O15 1.924258 1_555
Cu4 O20 1.921269 1_455
Cu4 O18 1.921271 1_565
Cu4 O16 1.921275 1_555
Cu4 O22 1.921287 1_555
Cu5 O23 1.921354 1_655
Cu5 O19 1.921361 1_555
Cu5 O21 1.921368 1_555
Cu5 O17 1.921368 1_545
