# generated using pymatgen
data_AlH12
_symmetry_space_group_name_H-M   'P 1'
_cell_length_a   7.63974147
_cell_length_b   7.63974147
_cell_length_c   7.63974147
_cell_angle_alpha   60.00000000
_cell_angle_beta   60.00000000
_cell_angle_gamma   60.00000000
_symmetry_Int_Tables_number   1
_chemical_formula_structural   AlH12
_chemical_formula_sum   'Al2 H24'
_cell_volume   315.29783516
_cell_formula_units_Z   2
loop_
 _symmetry_equiv_pos_site_id
 _symmetry_equiv_pos_as_xyz
  1  'x, y, z'
loop_
 _atom_site_type_symbol
 _atom_site_label
 _atom_site_symmetry_multiplicity
 _atom_site_fract_x
 _atom_site_fract_y
 _atom_site_fract_z
 _atom_site_occupancy
  Al  Al0  1  0.00000000  0.00000000  0.00000000  1
  Al  Al1  1  0.25000000  0.25000000  0.25000000  1
  H  H0  1  0.74214800  0.30687500  0.30687500  1
  H  H1  1  0.30687500  0.74214800  0.64410200  1
  H  H2  1  0.30687500  0.64410200  0.74214800  1
  H  H3  1  0.30687500  0.74214800  0.30687500  1
  H  H4  1  0.50785200  0.94312500  0.60589800  1
  H  H5  1  0.50785200  0.94312500  0.94312500  1
  H  H6  1  0.64410200  0.30687500  0.30687500  1
  H  H7  1  0.64410200  0.30687500  0.74214800  1
  H  H8  1  0.94312500  0.50785200  0.94312500  1
  H  H9  1  0.94312500  0.50785200  0.60589800  1
  H  H10  1  0.74214800  0.30687500  0.64410200  1
  H  H11  1  0.94312500  0.60589800  0.94312500  1
  H  H12  1  0.94312500  0.60589800  0.50785200  1
  H  H13  1  0.30687500  0.64410200  0.30687500  1
  H  H14  1  0.60589800  0.94312500  0.50785200  1
  H  H15  1  0.60589800  0.94312500  0.94312500  1
  H  H16  1  0.30687500  0.30687500  0.74214800  1
  H  H17  1  0.64410200  0.74214800  0.30687500  1
  H  H18  1  0.30687500  0.30687500  0.64410200  1
  H  H19  1  0.74214800  0.64410200  0.30687500  1
  H  H20  1  0.60589800  0.50785200  0.94312500  1
  H  H21  1  0.94312500  0.94312500  0.50785200  1
  H  H22  1  0.50785200  0.60589800  0.94312500  1
  H  H23  1  0.94312500  0.94312500  0.60589800  1
loop_
_geom_bond_atom_site_label_1
_geom_bond_atom_site_label_2
_geom_bond_distance
_geom_bond_site_symmetry_2
H0 H6 0.749046 1_555
H1 H2 0.749046 1_555
H10 H7 0.749046 1_555
H11 H8 0.749046 1_555
H12 H9 0.749046 1_555
H13 H3 0.749046 1_555
H14 H4 0.749046 1_555
H15 H5 0.749046 1_555
H16 H18 0.749046 1_555
H17 H19 0.749046 1_555
H20 H22 0.749046 1_555
H21 H23 0.749046 1_555
