# generated using pymatgen
data_ZnCuW2O7
_symmetry_space_group_name_H-M   'P 1'
_cell_length_a   8.53268700
_cell_length_b   10.89895300
_cell_length_c   10.93287615
_cell_angle_alpha   84.87274128
_cell_angle_beta   90.00000000
_cell_angle_gamma   90.00000000
_symmetry_Int_Tables_number   1
_chemical_formula_structural   ZnCuW2O7
_chemical_formula_sum   'Zn6 Cu6 W12 O42'
_cell_volume   1012.66028364
_cell_formula_units_Z   6
loop_
 _symmetry_equiv_pos_site_id
 _symmetry_equiv_pos_as_xyz
  1  'x, y, z'
loop_
 _atom_site_type_symbol
 _atom_site_label
 _atom_site_symmetry_multiplicity
 _atom_site_fract_x
 _atom_site_fract_y
 _atom_site_fract_z
 _atom_site_occupancy
  Zn  Zn0  1  0.43173700  0.87929800  0.56645000  1
  Zn  Zn1  1  0.93557100  0.50000000  0.75000000  1
  Zn  Zn2  1  0.43173700  0.12070200  0.93355000  1
  Zn  Zn3  1  0.06442900  0.50000000  0.25000000  1
  Zn  Zn4  1  0.56826300  0.12070200  0.43355000  1
  Zn  Zn5  1  0.56826300  0.87929800  0.06645000  1
  Cu  Cu0  1  0.92888600  0.17564300  0.40780200  1
  Cu  Cu1  1  0.07111400  0.82435700  0.59219800  1
  Cu  Cu2  1  0.43157300  0.50000000  0.25000000  1
  Cu  Cu3  1  0.92888600  0.82435700  0.09219800  1
  Cu  Cu4  1  0.56842700  0.50000000  0.75000000  1
  Cu  Cu5  1  0.07111400  0.17564300  0.90780200  1
  W  W0  1  0.23719900  0.83171600  0.28518000  1
  W  W1  1  0.75877800  0.83919000  0.36850100  1
  W  W2  1  0.24122200  0.83919000  0.86850200  1
  W  W3  1  0.76280100  0.83171600  0.78518000  1
  W  W4  1  0.27141100  0.51759000  0.96115200  1
  W  W5  1  0.75877800  0.16081000  0.13149900  1
  W  W6  1  0.72858900  0.51759000  0.46115200  1
  W  W7  1  0.24122200  0.16081000  0.63149800  1
  W  W8  1  0.27141100  0.48241000  0.53884800  1
  W  W9  1  0.72858900  0.48241000  0.03884800  1
  W  W10  1  0.76280100  0.16828400  0.71482000  1
  W  W11  1  0.23719900  0.16828400  0.21482000  1
  O  O0  1  0.71567600  0.80059100  0.94610300  1
  O  O1  1  0.75425900  0.14699100  0.30456000  1
  O  O2  1  0.82707000  0.00000000  0.75000000  1
  O  O3  1  0.90596200  0.52571500  0.11766100  1
  O  O4  1  0.40314300  0.06515000  0.56335000  1
  O  O5  1  0.91144400  0.73117500  0.73502300  1
  O  O6  1  0.34139000  0.68709100  0.93018700  1
  O  O7  1  0.09403800  0.52571500  0.61766100  1
  O  O8  1  0.75006400  0.51532600  0.86861600  1
  O  O9  1  0.40314300  0.93485000  0.93665000  1
  O  O10  1  0.75006400  0.48467400  0.63138400  1
  O  O11  1  0.43166200  0.44217900  0.88277700  1
  O  O12  1  0.94054900  0.14708300  0.04594500  1
  O  O13  1  0.08855600  0.73117500  0.23502300  1
  O  O14  1  0.65861000  0.31290900  0.06981300  1
  O  O15  1  0.34139000  0.31290900  0.56981300  1
  O  O16  1  0.91144400  0.26882500  0.76497700  1
  O  O17  1  0.59685700  0.93485000  0.43665000  1
  O  O18  1  0.28432400  0.80059100  0.44610300  1
  O  O19  1  0.56833800  0.55782100  0.11722300  1
  O  O20  1  0.41077300  0.18482500  0.30333700  1
  O  O21  1  0.24993600  0.48467400  0.13138400  1
  O  O22  1  0.05945100  0.14708300  0.54594500  1
  O  O23  1  0.24993600  0.51532600  0.36861600  1
  O  O24  1  0.90596200  0.47428500  0.38233900  1
  O  O25  1  0.56833800  0.44217900  0.38277700  1
  O  O26  1  0.09403800  0.47428500  0.88233900  1
  O  O27  1  0.58922700  0.18482500  0.80333700  1
  O  O28  1  0.58922700  0.81517500  0.69666300  1
  O  O29  1  0.05945100  0.85291700  0.95405500  1
  O  O30  1  0.08855600  0.26882500  0.26497700  1
  O  O31  1  0.71567600  0.19940900  0.55389700  1
  O  O32  1  0.17293000  0.00000000  0.25000000  1
  O  O33  1  0.24574100  0.14699100  0.80456000  1
  O  O34  1  0.59685700  0.06515000  0.06335000  1
  O  O35  1  0.94054900  0.85291700  0.45405500  1
  O  O36  1  0.28432400  0.19940900  0.05389700  1
  O  O37  1  0.75425900  0.85300900  0.19544000  1
  O  O38  1  0.43166200  0.55782100  0.61722300  1
  O  O39  1  0.65861000  0.68709100  0.43018700  1
  O  O40  1  0.24574100  0.85300900  0.69544000  1
  O  O41  1  0.41077300  0.81517500  0.19666300  1
loop_
_geom_bond_atom_site_label_1
_geom_bond_atom_site_label_2
_geom_bond_distance
_geom_bond_site_symmetry_2
Cu0 O22 1.880166 1_655
Cu0 O1 1.911744 1_555
Cu0 O30 2.245526 1_655
Cu0 O31 2.449877 1_555
Cu1 O35 1.880166 1_455
Cu1 O40 1.911744 1_555
Cu1 O5 2.245526 1_455
Cu1 O18 2.449877 1_555
Cu2 O25 1.924239 1_555
Cu2 O19 1.924239 1_555
Cu2 O21 2.037250 1_555
Cu2 O23 2.037250 1_555
Cu3 O29 1.880166 1_654
Cu3 O37 1.911744 1_555
Cu3 O13 2.245526 1_655
Cu3 O0 2.449877 1_554
Cu4 O11 1.924239 1_555
Cu4 O38 1.924239 1_555
Cu4 O8 2.037250 1_555
Cu4 O10 2.037250 1_555
Cu5 O12 1.880166 1_456
Cu5 O33 1.911744 1_555
Cu5 O16 2.245526 1_455
Cu5 O36 2.449877 1_556
O0 W3 1.807043 1_555
O0 Zn5 2.061771 1_556
O1 W5 1.884969 1_555
O1 Zn4 2.125404 1_555
O2 W10 1.920043 1_555
O2 W3 1.920043 1_545
O3 W9 1.824414 1_555
O3 Zn3 1.981853 1_655
O4 W7 1.920892 1_555
O4 Zn0 2.037506 1_545
O4 Zn4 2.052283 1_555
O5 W3 1.793741 1_555
O5 Zn1 2.518663 1_555
O6 W2 1.932237 1_555
O6 W4 1.942212 1_555
O7 W8 1.824414 1_555
O7 Zn1 1.981853 1_455
O8 W9 1.872626 1_556
O8 Zn1 2.062482 1_555
O9 W2 1.920892 1_555
O9 Zn2 2.037506 1_565
O9 Zn5 2.052283 1_556
O10 W6 1.872626 1_555
O10 Zn1 2.062482 1_555
O11 W4 1.845351 1_555
O12 W5 1.824243 1_555
O13 W0 1.793741 1_555
O13 Zn3 2.518663 1_555
O14 W5 1.932240 1_555
O14 W9 1.942212 1_555
O15 W7 1.932237 1_555
O15 W8 1.942212 1_555
O16 W10 1.793741 1_555
O16 Zn1 2.518663 1_555
O17 W1 1.920896 1_555
O17 Zn4 2.037506 1_565
O17 Zn0 2.052283 1_555
O18 W0 1.807043 1_555
O18 Zn0 2.061771 1_555
O19 W9 1.845351 1_555
O20 W11 1.787102 1_555
O20 Zn4 2.035454 1_555
O21 W4 1.872626 1_554
O21 Zn3 2.062482 1_555
O22 W7 1.824237 1_555
O23 W8 1.872626 1_555
O23 Zn3 2.062482 1_555
O24 W6 1.824414 1_555
O24 Zn3 1.981853 1_655
O25 W6 1.845351 1_555
O26 W4 1.824414 1_555
O26 Zn1 1.981853 1_455
O27 W10 1.787102 1_555
O27 Zn2 2.035454 1_555
O28 W3 1.787102 1_555
O28 Zn0 2.035454 1_555
O29 W2 1.824237 1_555
O30 W11 1.793741 1_555
O30 Zn3 2.518663 1_555
O31 W10 1.807043 1_555
O31 Zn4 2.061771 1_555
O32 W11 1.920043 1_555
O32 W0 1.920043 1_545
O33 W7 1.884980 1_555
O33 Zn2 2.125404 1_555
O34 W5 1.920896 1_555
O34 Zn5 2.037506 1_545
O34 Zn2 2.052283 1_554
O35 W1 1.824243 1_555
O36 W11 1.807043 1_555
O36 Zn2 2.061771 1_554
O37 W1 1.884969 1_555
O37 Zn5 2.125404 1_555
O38 W8 1.845351 1_555
O39 W1 1.932240 1_555
O39 W6 1.942212 1_555
O40 W2 1.884980 1_555
O40 Zn0 2.125404 1_555
O41 W0 1.787102 1_555
O41 Zn5 2.035454 1_555
