# generated using pymatgen
data_B6H13CN4
_symmetry_space_group_name_H-M   'P 1'
_cell_length_a   7.43439700
_cell_length_b   7.65773085
_cell_length_c   8.16668318
_cell_angle_alpha   97.06522265
_cell_angle_beta   110.23297839
_cell_angle_gamma   93.26628408
_symmetry_Int_Tables_number   1
_chemical_formula_structural   B6H13CN4
_chemical_formula_sum   'B12 H26 C2 N8'
_cell_volume   430.45316462
_cell_formula_units_Z   2
loop_
 _symmetry_equiv_pos_site_id
 _symmetry_equiv_pos_as_xyz
  1  'x, y, z'
loop_
 _atom_site_type_symbol
 _atom_site_label
 _atom_site_symmetry_multiplicity
 _atom_site_fract_x
 _atom_site_fract_y
 _atom_site_fract_z
 _atom_site_occupancy
  B  B0  1  0.40455200  0.81866200  0.84527800  1
  B  B1  1  0.59544800  0.18133800  0.15472200  1
  B  B2  1  0.51635300  0.00843000  0.79938500  1
  B  B3  1  0.48364700  0.99157000  0.20061500  1
  B  B4  1  0.65828400  0.87429700  0.94738400  1
  B  B5  1  0.34171600  0.12570300  0.05261600  1
  B  B6  1  0.52190700  0.80107900  0.07199100  1
  B  B7  1  0.47809300  0.19892100  0.92800900  1
  B  B8  1  0.29649200  0.89145500  0.00214100  1
  B  B9  1  0.70350800  0.10854500  0.99785900  1
  B  B10  1  0.29215900  0.01898500  0.83252000  1
  B  B11  1  0.70784100  0.98101500  0.16748000  1
  H  H0  1  0.73971600  0.27152100  0.72996600  1
  H  H1  1  0.26028400  0.72847900  0.27003400  1
  H  H2  1  0.01433900  0.72363300  0.67770100  1
  H  H3  1  0.98566100  0.27636700  0.32229900  1
  H  H4  1  0.08054200  0.32916600  0.86008700  1
  H  H5  1  0.91945800  0.67083400  0.13991300  1
  H  H6  1  0.19243700  0.52884800  0.84316700  1
  H  H7  1  0.80756300  0.47115200  0.15683300  1
  H  H8  1  0.71924900  0.72466100  0.42179100  1
  H  H9  1  0.28075100  0.27533900  0.57820900  1
  H  H10  1  0.69270500  0.79680300  0.61253300  1
  H  H11  1  0.30729500  0.20319700  0.38746700  1
  H  H12  1  0.61270300  0.41413900  0.58900700  1
  H  H13  1  0.38729700  0.58586100  0.41099300  1
  H  H14  1  0.33920900  0.68945600  0.73465400  1
  H  H15  1  0.66079100  0.31054400  0.26534600  1
  H  H16  1  0.52783900  0.01362700  0.65634000  1
  H  H17  1  0.47216100  0.98637300  0.34366000  1
  H  H18  1  0.77091400  0.78623600  0.90874900  1
  H  H19  1  0.22908600  0.21376400  0.09125100  1
  H  H20  1  0.53466100  0.65872400  0.12084600  1
  H  H21  1  0.46533900  0.34127600  0.87915400  1
  H  H22  1  0.15132600  0.81482800  0.00454500  1
  H  H23  1  0.84867400  0.18517200  0.99545500  1
  H  H24  1  0.14441800  0.03197500  0.71330000  1
  H  H25  1  0.85558200  0.96802500  0.28670000  1
  C  C0  1  0.90096500  0.48364900  0.70225100  1
  C  C1  1  0.09903500  0.51635100  0.29774900  1
  N  N0  1  0.89515800  0.63269300  0.62896800  1
  N  N1  1  0.10484200  0.36730700  0.37103200  1
  N  N2  1  0.74047600  0.37695700  0.66597400  1
  N  N3  1  0.25952400  0.62304300  0.33402600  1
  N  N4  1  0.07106500  0.44293700  0.80725000  1
  N  N5  1  0.92893500  0.55706300  0.19275000  1
  N  N6  1  0.71590600  0.68879800  0.53750000  1
  N  N7  1  0.28409400  0.31120200  0.46250000  1
loop_
_geom_bond_atom_site_label_1
_geom_bond_atom_site_label_2
_geom_bond_distance
_geom_bond_site_symmetry_2
B0 H14 1.205369 1_555
B1 H15 1.205369 1_555
B2 H16 1.205662 1_555
B3 H17 1.205662 1_555
B4 H18 1.204230 1_555
B5 H19 1.204230 1_555
B6 H20 1.203801 1_555
B7 H21 1.203801 1_555
B8 H22 1.206131 1_555
B9 H23 1.206131 1_555
B10 H24 1.208658 1_555
B11 H25 1.208658 1_555
H0 N2 1.015068 1_555
H1 N3 1.015068 1_555
H2 N0 1.022753 1_455
H3 N1 1.022753 1_655
H4 N4 1.014220 1_555
H5 N5 1.014220 1_555
H6 N4 1.017280 1_555
H7 N5 1.017280 1_555
H8 N6 1.023861 1_555
H9 N7 1.023861 1_555
H10 N6 1.026634 1_555
H11 N7 1.026634 1_555
H12 N2 1.019982 1_555
H13 N3 1.019982 1_555
C0 N2 1.328062 1_555
C0 N4 1.338780 1_655
C0 N0 1.348508 1_555
C1 N3 1.328062 1_555
C1 N5 1.338780 1_455
C1 N1 1.348508 1_555
N0 N6 1.405041 1_555
N1 N7 1.405041 1_555
