# generated using pymatgen
data_KLiNb4O12
_symmetry_space_group_name_H-M   'P 1'
_cell_length_a   5.66326656
_cell_length_b   5.66326656
_cell_length_c   8.01260662
_cell_angle_alpha   90.00000000
_cell_angle_beta   90.00000000
_cell_angle_gamma   90.00000000
_symmetry_Int_Tables_number   1
_chemical_formula_structural   KLiNb4O12
_chemical_formula_sum   'K1 Li1 Nb4 O12'
_cell_volume   256.98503197
_cell_formula_units_Z   1
loop_
 _symmetry_equiv_pos_site_id
 _symmetry_equiv_pos_as_xyz
  1  'x, y, z'
loop_
 _atom_site_type_symbol
 _atom_site_label
 _atom_site_symmetry_multiplicity
 _atom_site_fract_x
 _atom_site_fract_y
 _atom_site_fract_z
 _atom_site_occupancy
  K  K0  1  -0.00000000  -0.00000000  0.00000000  1
  Li  Li0  1  0.50000000  0.50000000  0.50000000  1
  Nb  Nb0  1  -0.00000000  0.50000000  0.74777857  1
  Nb  Nb1  1  -0.00000000  0.50000000  0.25222143  1
  Nb  Nb2  1  0.50000000  -0.00000000  0.25222143  1
  Nb  Nb3  1  0.50000000  -0.00000000  0.74777857  1
  O  O0  1  0.25309132  0.25309132  0.25414105  1
  O  O1  1  0.25309132  0.25309132  0.74585895  1
  O  O2  1  0.74690868  0.74690868  0.74585895  1
  O  O3  1  0.74690868  0.74690868  0.25414105  1
  O  O4  1  0.74690868  0.25309132  0.74585895  1
  O  O5  1  0.74690868  0.25309132  0.25414105  1
  O  O6  1  0.25309132  0.74690868  0.74585895  1
  O  O7  1  0.25309132  0.74690868  0.25414105  1
  O  O8  1  -0.00000000  0.50000000  0.50000000  1
  O  O9  1  -0.00000000  0.50000000  0.00000000  1
  O  O10  1  0.50000000  -0.00000000  0.50000000  1
  O  O11  1  0.50000000  -0.00000000  0.00000000  1
loop_
_geom_bond_atom_site_label_1
_geom_bond_atom_site_label_2
_geom_bond_distance
_geom_bond_site_symmetry_2
K0 O11 2.831633 1_555
K0 O9 2.831633 1_555
K0 O11 2.831633 1_455
K0 O9 2.831633 1_545
K0 O2 2.873235 1_444
K0 O4 2.873235 1_454
K0 O6 2.873235 1_544
K0 O1 2.873235 1_554
K0 O5 2.873235 1_455
K0 O3 2.873235 1_445
K0 O0 2.873235 1_555
K0 O7 2.873235 1_545
Nb0 O8 1.985352 1_555
Nb0 O4 2.002479 1_455
Nb0 O1 2.002479 1_555
Nb0 O2 2.002479 1_455
Nb0 O6 2.002479 1_555
Nb0 O9 2.020951 1_556
Nb1 O8 1.985352 1_555
Nb1 O7 2.002479 1_555
Nb1 O0 2.002479 1_555
Nb1 O5 2.002479 1_455
Nb1 O3 2.002479 1_455
Nb1 O9 2.020951 1_555
Nb2 O10 1.985352 1_555
Nb2 O0 2.002479 1_555
Nb2 O3 2.002479 1_545
Nb2 O5 2.002479 1_555
Nb2 O7 2.002479 1_545
Nb2 O11 2.020951 1_555
Nb3 O10 1.985352 1_555
Nb3 O2 2.002479 1_545
Nb3 O1 2.002479 1_555
Nb3 O4 2.002479 1_555
Nb3 O6 2.002479 1_545
Nb3 O11 2.020951 1_556
