# generated using pymatgen
data_NaCoO2
_symmetry_space_group_name_H-M   'P 1'
_cell_length_a   5.40883385
_cell_length_b   5.40883457
_cell_length_c   5.40883445
_cell_angle_alpha   30.89529025
_cell_angle_beta   30.89528206
_cell_angle_gamma   30.89527814
_symmetry_Int_Tables_number   1
_chemical_formula_structural   NaCoO2
_chemical_formula_sum   'Na1 Co1 O2'
_cell_volume   37.00440948
_cell_formula_units_Z   1
loop_
 _symmetry_equiv_pos_site_id
 _symmetry_equiv_pos_as_xyz
  1  'x, y, z'
loop_
 _atom_site_type_symbol
 _atom_site_label
 _atom_site_symmetry_multiplicity
 _atom_site_fract_x
 _atom_site_fract_y
 _atom_site_fract_z
 _atom_site_occupancy
  Na  Na0  1  0.00000000  0.00000000  -0.00000000  1
  Co  Co0  1  0.50000000  0.50000000  0.50000000  1
  O  O0  1  0.23059294  0.23059294  0.23059294  1
  O  O1  1  0.76940806  0.76940806  0.76940806  1
loop_
_geom_bond_atom_site_label_1
_geom_bond_atom_site_label_2
_geom_bond_distance
_geom_bond_site_symmetry_2
Na0 O0 2.298652 1_455
Na0 O0 2.298653 1_545
Na0 O0 2.298653 1_554
Na0 O1 2.298662 1_544
Na0 O1 2.298663 1_454
Na0 O1 2.298663 1_445
Co0 O1 1.934323 1_455
Co0 O1 1.934323 1_545
Co0 O1 1.934323 1_554
Co0 O0 1.934331 1_655
Co0 O0 1.934331 1_565
Co0 O0 1.934331 1_556
