# generated using pymatgen
data_LaF3
_symmetry_space_group_name_H-M   'P 1'
_cell_length_a   7.26073392
_cell_length_b   7.26073392
_cell_length_c   7.16531000
_cell_angle_alpha   90.00000000
_cell_angle_beta   90.00000000
_cell_angle_gamma   119.99999926
_symmetry_Int_Tables_number   1
_chemical_formula_structural   LaF3
_chemical_formula_sum   'La6 F18'
_cell_volume   327.13473718
_cell_formula_units_Z   6
loop_
 _symmetry_equiv_pos_site_id
 _symmetry_equiv_pos_as_xyz
  1  'x, y, z'
loop_
 _atom_site_type_symbol
 _atom_site_label
 _atom_site_symmetry_multiplicity
 _atom_site_fract_x
 _atom_site_fract_y
 _atom_site_fract_z
 _atom_site_occupancy
  La  La0  1  0.67136100  0.67136100  0.25000000  1
  La  La1  1  0.00000000  0.67136100  0.75000000  1
  La  La2  1  0.67136100  0.00000000  0.75000000  1
  La  La3  1  0.32863900  0.00000000  0.25000000  1
  La  La4  1  0.00000000  0.32863900  0.25000000  1
  La  La5  1  0.32863900  0.32863900  0.75000000  1
  F  F0  1  0.00000000  0.00000000  0.50000000  1
  F  F1  1  0.00000000  0.00000000  0.00000000  1
  F  F2  1  0.33333300  0.66666700  0.25000000  1
  F  F3  1  0.66666700  0.33333300  0.75000000  1
  F  F4  1  0.66666700  0.33333300  0.25000000  1
  F  F5  1  0.33333300  0.66666700  0.75000000  1
  F  F6  1  0.34373600  0.00000000  0.91715800  1
  F  F7  1  0.34373600  0.34373600  0.41715800  1
  F  F8  1  0.00000000  0.65626400  0.41715800  1
  F  F9  1  0.00000000  0.34373600  0.91715800  1
  F  F10  1  0.65626400  0.65626400  0.91715800  1
  F  F11  1  0.34373600  0.00000000  0.58284200  1
  F  F12  1  0.65626400  0.65626400  0.58284200  1
  F  F13  1  0.65626400  0.00000000  0.41715800  1
  F  F14  1  0.00000000  0.34373600  0.58284200  1
  F  F15  1  0.00000000  0.65626400  0.08284200  1
  F  F16  1  0.65626400  0.00000000  0.08284200  1
  F  F17  1  0.34373600  0.34373600  0.08284200  1
loop_
_geom_bond_atom_site_label_1
_geom_bond_atom_site_label_2
_geom_bond_distance
_geom_bond_site_symmetry_2
F0 La3 2.983725 1_555
F0 La4 2.983725 1_555
F0 La1 2.983725 1_545
F0 La2 2.983725 1_455
F0 La5 2.983725 1_555
F0 La0 2.983725 1_445
F1 La3 2.983725 1_555
F1 La4 2.983725 1_555
F1 La2 2.983725 1_454
F1 La1 2.983725 1_544
F1 La5 2.983725 1_554
F1 La0 2.983725 1_445
F2 La3 2.437462 1_565
F2 La4 2.437466 1_555
F2 La0 2.437469 1_555
F3 La2 2.437462 1_555
F3 La1 2.437466 1_655
F3 La5 2.437469 1_555
F4 La4 2.437462 1_655
F4 La3 2.437466 1_555
F4 La0 2.437469 1_555
F5 La1 2.437462 1_555
F5 La2 2.437466 1_565
F5 La5 2.437469 1_555
F6 La3 2.387434 1_556
F6 La2 2.663317 1_555
F6 La5 2.720646 1_555
F6 La1 2.720646 1_545
F7 La5 2.387434 1_555
F7 La0 2.663317 1_555
F7 La4 2.720646 1_555
F7 La3 2.720646 1_555
F8 La1 2.387434 1_555
F8 La4 2.663317 1_555
F8 La0 2.720646 1_455
F8 La3 2.720646 1_565
F9 La4 2.387434 1_556
F9 La1 2.663317 1_555
F9 La5 2.720646 1_555
F9 La2 2.720646 1_455
F10 La0 2.387434 1_556
F10 La5 2.663317 1_555
F10 La1 2.720646 1_655
F10 La2 2.720646 1_565
F11 La3 2.387434 1_555
F11 La2 2.663317 1_555
F11 La5 2.720646 1_555
F11 La1 2.720646 1_545
F12 La0 2.387434 1_555
F12 La5 2.663317 1_555
F12 La1 2.720646 1_655
F12 La2 2.720646 1_565
F13 La2 2.387434 1_555
F13 La3 2.663317 1_555
F13 La0 2.720646 1_545
F13 La4 2.720646 1_655
F14 La4 2.387434 1_555
F14 La1 2.663317 1_555
F14 La5 2.720646 1_555
F14 La2 2.720646 1_455
F15 La1 2.387434 1_554
F15 La4 2.663317 1_555
F15 La0 2.720646 1_455
F15 La3 2.720646 1_565
F16 La2 2.387434 1_554
F16 La3 2.663317 1_555
F16 La0 2.720646 1_545
F16 La4 2.720646 1_655
F17 La5 2.387434 1_554
F17 La0 2.663317 1_555
F17 La4 2.720646 1_555
F17 La3 2.720646 1_555
