# generated using pymatgen
data_Dy3GeO8
_symmetry_space_group_name_H-M   'P 1'
_cell_length_a   10.34293100
_cell_length_b   5.42171700
_cell_length_c   6.08803761
_cell_angle_alpha   75.00884742
_cell_angle_beta   90.00000000
_cell_angle_gamma   90.00000000
_symmetry_Int_Tables_number   1
_chemical_formula_structural   Dy3GeO8
_chemical_formula_sum   'Dy6 Ge2 O16'
_cell_volume   329.77637552
_cell_formula_units_Z   2
loop_
 _symmetry_equiv_pos_site_id
 _symmetry_equiv_pos_as_xyz
  1  'x, y, z'
loop_
 _atom_site_type_symbol
 _atom_site_label
 _atom_site_symmetry_multiplicity
 _atom_site_fract_x
 _atom_site_fract_y
 _atom_site_fract_z
 _atom_site_occupancy
  Dy  Dy0  1  0.75000000  0.78289300  0.68829700  1
  Dy  Dy1  1  0.25000000  0.21710700  0.31170300  1
  Dy  Dy2  1  0.95601300  0.68698000  0.19934500  1
  Dy  Dy3  1  0.45601300  0.31302000  0.80065500  1
  Dy  Dy4  1  0.04398700  0.31302000  0.80065500  1
  Dy  Dy5  1  0.54398700  0.68698000  0.19934500  1
  Ge  Ge0  1  0.75000000  0.19297800  0.01617000  1
  Ge  Ge1  1  0.25000000  0.80702200  0.98383000  1
  O  O0  1  0.75000000  0.02245700  0.31465000  1
  O  O1  1  0.25000000  0.97754300  0.68535000  1
  O  O2  1  0.96898300  0.69873500  0.56572900  1
  O  O3  1  0.46898300  0.30126500  0.43427100  1
  O  O4  1  0.03101700  0.30126500  0.43427100  1
  O  O5  1  0.53101700  0.69873500  0.56572900  1
  O  O6  1  0.37445900  0.98800500  0.10822200  1
  O  O7  1  0.87445900  0.01199500  0.89177800  1
  O  O8  1  0.62554100  0.01199500  0.89177800  1
  O  O9  1  0.12554100  0.98800500  0.10822200  1
  O  O10  1  0.36888300  0.54252300  0.03335100  1
  O  O11  1  0.86888300  0.45747700  0.96664900  1
  O  O12  1  0.63111700  0.45747700  0.96664900  1
  O  O13  1  0.13111700  0.54252300  0.03335100  1
  O  O14  1  0.75000000  0.59550900  0.38557300  1
  O  O15  1  0.25000000  0.40449100  0.61442700  1
loop_
_geom_bond_atom_site_label_1
_geom_bond_atom_site_label_2
_geom_bond_distance
_geom_bond_site_symmetry_2
Dy0 O0 2.309348 1_565
Dy0 O14 2.323236 1_555
Dy0 O7 2.351728 1_565
Dy0 O8 2.351728 1_565
Dy0 O11 2.439197 1_555
Dy0 O12 2.439197 1_555
Dy0 O2 2.463947 1_555
Dy0 O5 2.463947 1_555
Dy1 O1 2.309348 1_545
Dy1 O15 2.323236 1_555
Dy1 O6 2.351728 1_545
Dy1 O9 2.351728 1_545
Dy1 O10 2.439197 1_555
Dy1 O13 2.439197 1_555
Dy1 O3 2.463947 1_555
Dy1 O4 2.463947 1_555
Dy2 O2 2.251888 1_555
Dy2 O11 2.297669 1_554
Dy2 O13 2.307420 1_655
Dy2 O4 2.339512 1_655
Dy2 O9 2.361670 1_655
Dy2 O7 2.369772 1_564
Dy2 O14 2.404308 1_555
Dy3 O3 2.251888 1_555
Dy3 O10 2.297669 1_556
Dy3 O12 2.307420 1_555
Dy3 O5 2.339512 1_555
Dy3 O8 2.361670 1_555
Dy3 O6 2.369772 1_546
Dy3 O15 2.404308 1_555
Dy4 O4 2.251888 1_555
Dy4 O13 2.297669 1_556
Dy4 O11 2.307420 1_455
Dy4 O2 2.339512 1_455
Dy4 O7 2.361670 1_455
Dy4 O9 2.369772 1_546
Dy4 O15 2.404308 1_555
Dy5 O5 2.251888 1_555
Dy5 O12 2.297669 1_554
Dy5 O10 2.307420 1_555
Dy5 O3 2.339512 1_555
Dy5 O6 2.361670 1_555
Dy5 O8 2.369772 1_564
Dy5 O14 2.404308 1_555
Ge0 O0 1.813192 1_555
Ge0 O11 1.853539 1_554
Ge0 O12 1.853539 1_554
Ge0 O7 1.891517 1_554
Ge0 O8 1.891517 1_554
Ge1 O1 1.813192 1_555
Ge1 O10 1.853539 1_556
Ge1 O13 1.853539 1_556
Ge1 O6 1.891517 1_556
Ge1 O9 1.891517 1_556
