# generated using pymatgen
data_Ca(BO2)2
_symmetry_space_group_name_H-M   'P 1'
_cell_length_a   9.08843900
_cell_length_b   9.08843900
_cell_length_c   9.08843900
_cell_angle_alpha   90.00000000
_cell_angle_beta   90.00000000
_cell_angle_gamma   90.00000000
_symmetry_Int_Tables_number   1
_chemical_formula_structural   Ca(BO2)2
_chemical_formula_sum   'Ca12 B24 O48'
_cell_volume   750.70254805
_cell_formula_units_Z   12
loop_
 _symmetry_equiv_pos_site_id
 _symmetry_equiv_pos_as_xyz
  1  'x, y, z'
loop_
 _atom_site_type_symbol
 _atom_site_label
 _atom_site_symmetry_multiplicity
 _atom_site_fract_x
 _atom_site_fract_y
 _atom_site_fract_z
 _atom_site_occupancy
  Ca  Ca0  1  0.37299400  0.12700600  0.87299400  1
  Ca  Ca1  1  0.12700600  0.87299400  0.37299400  1
  Ca  Ca2  1  0.87299400  0.37299400  0.12700600  1
  Ca  Ca3  1  0.62700600  0.62700600  0.62700600  1
  Ca  Ca4  1  0.62700600  0.87299400  0.12700600  1
  Ca  Ca5  1  0.87299400  0.12700600  0.62700600  1
  Ca  Ca6  1  0.12700600  0.62700600  0.87299400  1
  Ca  Ca7  1  0.37299400  0.37299400  0.37299400  1
  Ca  Ca8  1  0.00000000  0.50000000  0.50000000  1
  Ca  Ca9  1  0.50000000  0.50000000  0.00000000  1
  Ca  Ca10  1  0.50000000  0.00000000  0.50000000  1
  Ca  Ca11  1  0.00000000  0.00000000  0.00000000  1
  B  B0  1  0.81002100  0.84518100  0.38114100  1
  B  B1  1  0.61885900  0.18997900  0.15481900  1
  B  B2  1  0.11885900  0.31002100  0.84518100  1
  B  B3  1  0.38114100  0.68997900  0.34518100  1
  B  B4  1  0.31002100  0.84518100  0.11885900  1
  B  B5  1  0.34518100  0.38114100  0.68997900  1
  B  B6  1  0.84518100  0.11885900  0.31002100  1
  B  B7  1  0.18997900  0.15481900  0.61885900  1
  B  B8  1  0.15481900  0.61885900  0.18997900  1
  B  B9  1  0.68997900  0.34518100  0.38114100  1
  B  B10  1  0.81002100  0.65481900  0.88114100  1
  B  B11  1  0.65481900  0.88114100  0.81002100  1
  B  B12  1  0.11885900  0.18997900  0.34518100  1
  B  B13  1  0.34518100  0.11885900  0.18997900  1
  B  B14  1  0.18997900  0.34518100  0.11885900  1
  B  B15  1  0.31002100  0.65481900  0.61885900  1
  B  B16  1  0.84518100  0.38114100  0.81002100  1
  B  B17  1  0.88114100  0.81002100  0.65481900  1
  B  B18  1  0.15481900  0.88114100  0.68997900  1
  B  B19  1  0.65481900  0.61885900  0.31002100  1
  B  B20  1  0.68997900  0.15481900  0.88114100  1
  B  B21  1  0.61885900  0.31002100  0.65481900  1
  B  B22  1  0.88114100  0.68997900  0.15481900  1
  B  B23  1  0.38114100  0.81002100  0.84518100  1
  O  O0  1  0.59066400  0.28230900  0.49438500  1
  O  O1  1  0.90933600  0.71769100  0.99438500  1
  O  O2  1  0.99438500  0.90933600  0.71769100  1
  O  O3  1  0.71769100  0.99438500  0.90933600  1
  O  O4  1  0.78230900  0.00561500  0.40933600  1
  O  O5  1  0.49438500  0.59066400  0.28230900  1
  O  O6  1  0.28230900  0.49438500  0.59066400  1
  O  O7  1  0.50561500  0.09066400  0.21769100  1
  O  O8  1  0.00561500  0.40933600  0.78230900  1
  O  O9  1  0.21769100  0.50561500  0.09066400  1
  O  O10  1  0.40933600  0.78230900  0.00561500  1
  O  O11  1  0.09066400  0.21769100  0.50561500  1
  O  O12  1  0.33248600  0.26798000  0.12049100  1
  O  O13  1  0.12049100  0.33248600  0.26798000  1
  O  O14  1  0.26798000  0.12049100  0.33248600  1
  O  O15  1  0.23202000  0.87950900  0.83248600  1
  O  O16  1  0.62049100  0.16751400  0.73202000  1
  O  O17  1  0.73202000  0.62049100  0.16751400  1
  O  O18  1  0.37950900  0.66751400  0.76798000  1
  O  O19  1  0.87950900  0.83248600  0.23202000  1
  O  O20  1  0.76798000  0.37950900  0.66751400  1
  O  O21  1  0.83248600  0.23202000  0.87950900  1
  O  O22  1  0.66751400  0.76798000  0.37950900  1
  O  O23  1  0.16751400  0.73202000  0.62049100  1
  O  O24  1  0.66751400  0.73202000  0.87950900  1
  O  O25  1  0.87950900  0.66751400  0.73202000  1
  O  O26  1  0.73202000  0.87950900  0.66751400  1
  O  O27  1  0.76798000  0.12049100  0.16751400  1
  O  O28  1  0.37950900  0.83248600  0.26798000  1
  O  O29  1  0.26798000  0.37950900  0.83248600  1
  O  O30  1  0.62049100  0.33248600  0.23202000  1
  O  O31  1  0.12049100  0.16751400  0.76798000  1
  O  O32  1  0.23202000  0.62049100  0.33248600  1
  O  O33  1  0.16751400  0.76798000  0.12049100  1
  O  O34  1  0.33248600  0.23202000  0.62049100  1
  O  O35  1  0.83248600  0.26798000  0.37950900  1
  O  O36  1  0.09066400  0.28230900  0.00561500  1
  O  O37  1  0.00561500  0.09066400  0.28230900  1
  O  O38  1  0.28230900  0.00561500  0.09066400  1
  O  O39  1  0.40933600  0.71769100  0.50561500  1
  O  O40  1  0.50561500  0.40933600  0.71769100  1
  O  O41  1  0.71769100  0.50561500  0.40933600  1
  O  O42  1  0.49438500  0.90933600  0.78230900  1
  O  O43  1  0.99438500  0.59066400  0.21769100  1
  O  O44  1  0.78230900  0.49438500  0.90933600  1
  O  O45  1  0.59066400  0.21769100  0.99438500  1
  O  O46  1  0.90933600  0.78230900  0.49438500  1
  O  O47  1  0.21769100  0.99438500  0.59066400  1
loop_
_geom_bond_atom_site_label_1
_geom_bond_atom_site_label_2
_geom_bond_distance
_geom_bond_site_symmetry_2
Ca0 O45 2.410404 1_555
Ca0 O42 2.410404 1_545
Ca0 O38 2.410404 1_556
Ca0 O34 2.512532 1_555
Ca0 O31 2.512532 1_555
Ca0 O29 2.512532 1_555
Ca0 O12 2.614713 1_556
Ca0 O16 2.614713 1_555
Ca0 O15 2.614713 1_545
Ca1 O47 2.410404 1_555
Ca1 O46 2.410404 1_455
Ca1 O37 2.410404 1_565
Ca1 O33 2.512532 1_555
Ca1 O28 2.512532 1_555
Ca1 O32 2.512532 1_555
Ca1 O14 2.614713 1_565
Ca1 O19 2.614713 1_455
Ca1 O23 2.614713 1_555
Ca2 O43 2.410404 1_555
Ca2 O44 2.410404 1_554
Ca2 O36 2.410404 1_655
Ca2 O27 2.512532 1_555
Ca2 O35 2.512532 1_555
Ca2 O30 2.512532 1_555
Ca2 O13 2.614713 1_655
Ca2 O17 2.614713 1_555
Ca2 O21 2.614713 1_554
Ca3 O41 2.410404 1_555
Ca3 O40 2.410404 1_555
Ca3 O39 2.410404 1_555
Ca3 O24 2.512532 1_555
Ca3 O26 2.512532 1_555
Ca3 O25 2.512532 1_555
Ca3 O20 2.614713 1_555
Ca3 O18 2.614713 1_555
Ca3 O22 2.614713 1_555
Ca4 O3 2.410404 1_554
Ca4 O7 2.410404 1_565
Ca4 O10 2.410404 1_555
Ca4 O22 2.512532 1_555
Ca4 O17 2.512532 1_555
Ca4 O19 2.512532 1_555
Ca4 O27 2.614713 1_565
Ca4 O28 2.614713 1_555
Ca4 O24 2.614713 1_554
Ca5 O2 2.410404 1_545
Ca5 O4 2.410404 1_555
Ca5 O11 2.410404 1_655
Ca5 O20 2.512532 1_555
Ca5 O16 2.512532 1_555
Ca5 O21 2.512532 1_555
Ca5 O31 2.614713 1_655
Ca5 O35 2.614713 1_555
Ca5 O26 2.614713 1_545
Ca6 O1 2.410404 1_455
Ca6 O8 2.410404 1_555
Ca6 O9 2.410404 1_556
Ca6 O23 2.512532 1_555
Ca6 O18 2.512532 1_555
Ca6 O15 2.512532 1_555
Ca6 O33 2.614713 1_556
Ca6 O29 2.614713 1_555
Ca6 O25 2.614713 1_455
Ca7 O5 2.410404 1_555
Ca7 O0 2.410404 1_555
Ca7 O6 2.410404 1_555
Ca7 O12 2.512532 1_555
Ca7 O14 2.512532 1_555
Ca7 O13 2.512532 1_555
Ca7 O34 2.614713 1_555
Ca7 O32 2.614713 1_555
Ca7 O30 2.614713 1_555
Ca8 O6 2.695299 1_555
Ca8 O46 2.695299 1_455
Ca8 O41 2.695299 1_455
Ca8 O11 2.695299 1_555
Ca8 O8 2.695299 1_555
Ca8 O43 2.695299 1_455
Ca8 O23 2.821990 1_555
Ca8 O13 2.821990 1_555
Ca8 O32 2.821990 1_555
Ca8 O20 2.821990 1_455
Ca8 O25 2.821990 1_455
Ca8 O35 2.821990 1_455
Ca9 O5 2.695299 1_555
Ca9 O40 2.695299 1_554
Ca9 O44 2.695299 1_554
Ca9 O9 2.695299 1_555
Ca9 O45 2.695299 1_554
Ca9 O10 2.695299 1_555
Ca9 O12 2.821990 1_555
Ca9 O17 2.821990 1_555
Ca9 O30 2.821990 1_555
Ca9 O24 2.821990 1_554
Ca9 O18 2.821990 1_554
Ca9 O29 2.821990 1_554
Ca10 O0 2.695299 1_555
Ca10 O4 2.695299 1_555
Ca10 O47 2.695299 1_545
Ca10 O39 2.695299 1_545
Ca10 O42 2.695299 1_545
Ca10 O7 2.695299 1_555
Ca10 O14 2.821990 1_555
Ca10 O34 2.821990 1_555
Ca10 O16 2.821990 1_555
Ca10 O22 2.821990 1_545
Ca10 O28 2.821990 1_545
Ca10 O26 2.821990 1_545
Ca11 O37 2.695299 1_555
Ca11 O38 2.695299 1_555
Ca11 O36 2.695299 1_555
Ca11 O3 2.695299 1_444
Ca11 O2 2.695299 1_444
Ca11 O1 2.695299 1_444
Ca11 O31 2.821990 1_554
Ca11 O33 2.821990 1_545
Ca11 O27 2.821990 1_455
Ca11 O21 2.821990 1_454
Ca11 O19 2.821990 1_445
Ca11 O15 2.821990 1_544
B0 O22 1.473082 1_555
B0 O46 1.483409 1_555
B0 O19 1.499642 1_555
B0 O4 1.501711 1_565
B1 O30 1.473082 1_555
B1 O7 1.483409 1_555
B1 O27 1.499642 1_555
B1 O45 1.501711 1_554
B2 O31 1.473082 1_555
B2 O8 1.483409 1_555
B2 O29 1.499642 1_555
B2 O36 1.501711 1_556
B3 O28 1.473082 1_555
B3 O5 1.483409 1_555
B3 O32 1.499642 1_555
B3 O39 1.501711 1_555
B4 O33 1.473082 1_555
B4 O10 1.483409 1_555
B4 O28 1.499642 1_555
B4 O38 1.501711 1_565
B5 O29 1.473082 1_555
B5 O6 1.483409 1_555
B5 O34 1.499642 1_555
B5 O40 1.501711 1_555
B6 O27 1.473082 1_555
B6 O4 1.483409 1_555
B6 O35 1.499642 1_555
B6 O37 1.501711 1_655
B7 O34 1.473082 1_555
B7 O11 1.483409 1_555
B7 O31 1.499642 1_555
B7 O47 1.501711 1_545
B8 O32 1.473082 1_555
B8 O9 1.483409 1_555
B8 O33 1.499642 1_555
B8 O43 1.501711 1_455
B9 O35 1.473082 1_555
B9 O0 1.483409 1_555
B9 O30 1.499642 1_555
B9 O41 1.501711 1_555
B10 O24 1.473082 1_555
B10 O1 1.483409 1_555
B10 O25 1.499642 1_555
B10 O44 1.501711 1_555
B11 O26 1.473082 1_555
B11 O3 1.483409 1_555
B11 O24 1.499642 1_555
B11 O42 1.501711 1_555
B12 O13 1.473082 1_555
B12 O37 1.483409 1_555
B12 O14 1.499642 1_555
B12 O11 1.501711 1_555
B13 O14 1.473082 1_555
B13 O38 1.483409 1_555
B13 O12 1.499642 1_555
B13 O7 1.501711 1_555
B14 O12 1.473082 1_555
B14 O36 1.483409 1_555
B14 O13 1.499642 1_555
B14 O9 1.501711 1_555
B15 O23 1.473082 1_555
B15 O39 1.483409 1_555
B15 O18 1.499642 1_555
B15 O6 1.501711 1_555
B16 O20 1.473082 1_555
B16 O44 1.483409 1_555
B16 O21 1.499642 1_555
B16 O8 1.501711 1_655
B17 O25 1.473082 1_555
B17 O2 1.483409 1_555
B17 O26 1.499642 1_555
B17 O46 1.501711 1_555
B18 O15 1.473082 1_555
B18 O47 1.483409 1_555
B18 O23 1.499642 1_555
B18 O2 1.501711 1_455
B19 O17 1.473082 1_555
B19 O41 1.483409 1_555
B19 O22 1.499642 1_555
B19 O5 1.501711 1_555
B20 O21 1.473082 1_555
B20 O45 1.483409 1_555
B20 O16 1.499642 1_555
B20 O3 1.501711 1_545
B21 O16 1.473082 1_555
B21 O40 1.483409 1_555
B21 O20 1.499642 1_555
B21 O0 1.501711 1_555
B22 O19 1.473082 1_555
B22 O43 1.483409 1_555
B22 O17 1.499642 1_555
B22 O1 1.501711 1_554
B23 O18 1.473082 1_555
B23 O42 1.483409 1_555
B23 O15 1.499642 1_555
B23 O10 1.501711 1_556
