# generated using pymatgen
data_Si3Ag10S11
_symmetry_space_group_name_H-M   'P 1'
_cell_length_a   6.50302800
_cell_length_b   12.50924157
_cell_length_c   13.57506860
_cell_angle_alpha   69.15108888
_cell_angle_beta   79.74344975
_cell_angle_gamma   78.21334236
_symmetry_Int_Tables_number   1
_chemical_formula_structural   Si3Ag10S11
_chemical_formula_sum   'Si6 Ag20 S22'
_cell_volume   1003.51504095
_cell_formula_units_Z   2
loop_
 _symmetry_equiv_pos_site_id
 _symmetry_equiv_pos_as_xyz
  1  'x, y, z'
loop_
 _atom_site_type_symbol
 _atom_site_label
 _atom_site_symmetry_multiplicity
 _atom_site_fract_x
 _atom_site_fract_y
 _atom_site_fract_z
 _atom_site_occupancy
  Si  Si0  1  0.30329100  0.82483400  0.93731500  1
  Si  Si1  1  0.69670900  0.17516600  0.06268500  1
  Si  Si2  1  0.01240400  0.78908400  0.53933300  1
  Si  Si3  1  0.98759600  0.21091600  0.46066700  1
  Si  Si4  1  0.20213700  0.48776900  0.69943100  1
  Si  Si5  1  0.79786300  0.51223100  0.30056900  1
  Ag  Ag0  1  0.55377300  0.68851600  0.47088400  1
  Ag  Ag1  1  0.44622700  0.31148400  0.52911600  1
  Ag  Ag2  1  0.80696000  0.02759500  0.88273700  1
  Ag  Ag3  1  0.19304000  0.97240500  0.11726300  1
  Ag  Ag4  1  0.48276600  0.73524600  0.68512500  1
  Ag  Ag5  1  0.51723400  0.26475400  0.31487500  1
  Ag  Ag6  1  0.85784200  0.72227700  0.82176600  1
  Ag  Ag7  1  0.14215800  0.27772300  0.17823400  1
  Ag  Ag8  1  0.20397600  0.63706700  0.36835800  1
  Ag  Ag9  1  0.79602400  0.36293300  0.63164200  1
  Ag  Ag10  1  0.77259300  0.82733400  0.12103000  1
  Ag  Ag11  1  0.22740700  0.17266600  0.87897000  1
  Ag  Ag12  1  0.64484100  0.96240700  0.65866700  1
  Ag  Ag13  1  0.35515900  0.03759300  0.34133300  1
  Ag  Ag14  1  0.25106200  0.59817600  0.16384500  1
  Ag  Ag15  1  0.74893800  0.40182400  0.83615500  1
  Ag  Ag16  1  0.85324700  0.97220400  0.31214400  1
  Ag  Ag17  1  0.14675300  0.02779600  0.68785600  1
  Ag  Ag18  1  0.67540600  0.53400600  0.03824900  1
  Ag  Ag19  1  0.32459400  0.46599400  0.96175100  1
  S  S0  1  0.51916800  0.52665900  0.66538500  1
  S  S1  1  0.48083200  0.47334100  0.33461500  1
  S  S2  1  0.03962300  0.50284000  0.84746400  1
  S  S3  1  0.96037700  0.49716000  0.15253600  1
  S  S4  1  0.69021900  0.86304400  0.51704900  1
  S  S5  1  0.30978100  0.13695600  0.48295100  1
  S  S6  1  0.97004600  0.82434300  0.94227400  1
  S  S7  1  0.02995400  0.17565700  0.05772600  1
  S  S8  1  0.38426700  0.79148700  0.09292900  1
  S  S9  1  0.61573300  0.20851300  0.90707100  1
  S  S10  1  0.20742100  0.83931800  0.38939500  1
  S  S11  1  0.79257900  0.16068200  0.61060500  1
  S  S12  1  0.09698300  0.82989800  0.66304900  1
  S  S13  1  0.90301700  0.17010200  0.33695100  1
  S  S14  1  0.39652100  0.98435800  0.82517800  1
  S  S15  1  0.60347900  0.01564200  0.17482200  1
  S  S16  1  0.18235700  0.32298500  0.69200300  1
  S  S17  1  0.81764300  0.67701500  0.30799700  1
  S  S18  1  0.01747500  0.60279900  0.57289400  1
  S  S19  1  0.98252500  0.39720100  0.42710600  1
  S  S20  1  0.47691700  0.67995200  0.88836800  1
  S  S21  1  0.52308300  0.32004800  0.11163200  1
loop_
_geom_bond_atom_site_label_1
_geom_bond_atom_site_label_2
_geom_bond_distance
_geom_bond_site_symmetry_2
Ag0 S17 2.574683 1_555
Ag0 S0 2.700157 1_555
Ag0 S10 2.742515 1_555
Ag0 S4 2.812441 1_555
Ag1 S16 2.574683 1_555
Ag1 S1 2.700157 1_555
Ag1 S11 2.742515 1_555
Ag1 S5 2.812441 1_555
Ag2 S6 2.446091 1_545
Ag2 S9 2.452240 1_555
Ag2 S14 3.108121 1_545
Ag3 S7 2.446091 1_565
Ag3 S8 2.452240 1_555
Ag3 S15 3.108121 1_565
Ag4 S12 2.566559 1_555
Ag4 S20 2.589813 1_555
Ag4 S4 2.601954 1_555
Ag4 S0 2.675609 1_555
Ag5 S13 2.566559 1_555
Ag5 S21 2.589813 1_555
Ag5 S5 2.601954 1_555
Ag5 S1 2.675609 1_555
Ag6 S12 2.543726 1_655
Ag6 S20 2.575193 1_555
Ag6 S6 2.670420 1_555
Ag6 S2 2.682099 1_655
Ag7 S13 2.543726 1_455
Ag7 S21 2.575193 1_555
Ag7 S7 2.670420 1_555
Ag7 S3 2.682099 1_455
Ag8 S1 2.552177 1_555
Ag8 S10 2.650041 1_555
Ag8 S17 2.676135 1_455
Ag8 S18 2.744105 1_555
Ag9 S0 2.552177 1_555
Ag9 S11 2.650041 1_555
Ag9 S16 2.676135 1_655
Ag9 S19 2.744105 1_555
Ag10 S6 2.544419 1_554
Ag10 S17 2.589618 1_555
Ag10 S15 2.677979 1_565
Ag10 S8 2.766072 1_555
Ag11 S7 2.544419 1_556
Ag11 S16 2.589618 1_555
Ag11 S14 2.677979 1_545
Ag11 S9 2.766072 1_555
Ag12 S4 2.583981 1_555
Ag12 S14 2.598706 1_555
Ag12 S11 2.664368 1_565
Ag12 S12 3.065523 1_655
Ag13 S5 2.583981 1_555
Ag13 S15 2.598706 1_555
Ag13 S10 2.664368 1_545
Ag13 S13 3.065523 1_455
Ag14 S3 2.531994 1_455
Ag14 S8 2.535042 1_555
Ag14 S1 2.783662 1_555
Ag15 S2 2.531994 1_655
Ag15 S9 2.535042 1_555
Ag15 S0 2.783662 1_555
Ag16 S15 2.530847 1_565
Ag16 S10 2.687544 1_655
Ag16 S13 2.702975 1_565
Ag16 S4 2.750178 1_555
Ag17 S14 2.530847 1_545
Ag17 S11 2.687544 1_455
Ag17 S12 2.702975 1_545
Ag17 S5 2.750178 1_555
Ag18 S3 2.493914 1_555
Ag18 S20 2.543109 1_554
Ag18 S21 2.823267 1_555
Ag19 S2 2.493914 1_555
Ag19 S21 2.543109 1_556
Ag19 S20 2.823267 1_555
S0 Si4 2.147348 1_555
S1 Si5 2.147348 1_555
S2 Si4 2.150056 1_555
S3 Si5 2.150056 1_555
S4 Si2 2.138181 1_655
S5 Si3 2.138181 1_455
S6 Si0 2.157334 1_655
S7 Si1 2.157334 1_455
S8 Si0 2.143125 1_554
S9 Si1 2.143125 1_556
S10 Si2 2.154539 1_555
S11 Si3 2.154539 1_555
S12 Si2 2.106600 1_555
S13 Si3 2.106600 1_555
S14 Si0 2.161090 1_555
S15 Si1 2.161090 1_555
S16 Si4 2.129944 1_555
S17 Si5 2.129944 1_555
S18 Si4 2.175434 1_555
S18 Si2 2.203890 1_555
S19 Si5 2.175434 1_555
S19 Si3 2.203890 1_555
S20 Si0 2.180607 1_555
S21 Si1 2.180607 1_555
