# generated using pymatgen
data_Sr2Nd2MnCuO8
_symmetry_space_group_name_H-M   'P 1'
_cell_length_a   3.83667072
_cell_length_b   15.32540600
_cell_length_c   6.93686718
_cell_angle_alpha   106.64069200
_cell_angle_beta   106.14999145
_cell_angle_gamma   89.97652921
_symmetry_Int_Tables_number   1
_chemical_formula_structural   Sr2Nd2MnCuO8
_chemical_formula_sum   'Sr4 Nd4 Mn2 Cu2 O16'
_cell_volume   373.97929788
_cell_formula_units_Z   2
loop_
 _symmetry_equiv_pos_site_id
 _symmetry_equiv_pos_as_xyz
  1  'x, y, z'
loop_
 _atom_site_type_symbol
 _atom_site_label
 _atom_site_symmetry_multiplicity
 _atom_site_fract_x
 _atom_site_fract_y
 _atom_site_fract_z
 _atom_site_occupancy
  Sr  Sr0  1  0.35844400  0.34020200  0.71473300  1
  Sr  Sr1  1  0.35494700  0.59161800  0.71132900  1
  Sr  Sr2  1  0.64494800  0.15838900  0.28858300  1
  Sr  Sr3  1  0.64152800  0.40977700  0.28517800  1
  Nd  Nd0  1  0.36574000  0.08586000  0.72784100  1
  Nd  Nd1  1  0.35169400  0.83784900  0.71956300  1
  Nd  Nd2  1  0.63425400  0.66415100  0.27217500  1
  Nd  Nd3  1  0.64844000  0.91212500  0.28054200  1
  Mn  Mn0  1  0.00280900  0.24854300  0.00135800  1
  Mn  Mn1  1  0.99731500  0.50143700  0.99859600  1
  Cu  Cu0  1  0.00332500  0.99829100  0.00170700  1
  Cu  Cu1  1  0.99673700  0.75180600  0.99840900  1
  O  O0  1  0.99640000  0.12119100  0.99123900  1
  O  O1  1  0.99997600  0.37498900  0.99991600  1
  O  O2  1  0.00363800  0.62880800  0.00877100  1
  O  O3  1  0.00010700  0.87498300  0.00006800  1
  O  O4  1  0.18727100  0.03063000  0.36416800  1
  O  O5  1  0.16224100  0.28746200  0.31556500  1
  O  O6  1  0.15840700  0.55124300  0.31986700  1
  O  O7  1  0.16487500  0.79690300  0.35748800  1
  O  O8  1  0.49819100  0.99447200  0.99092400  1
  O  O9  1  0.49597800  0.24402600  0.99003700  1
  O  O10  1  0.50373700  0.50596300  0.00985900  1
  O  O11  1  0.50205000  0.75557400  0.00923800  1
  O  O12  1  0.84161700  0.19870100  0.68006600  1
  O  O13  1  0.83759500  0.46254900  0.68433500  1
  O  O14  1  0.81257400  0.71935300  0.63574300  1
  O  O15  1  0.83516200  0.95310400  0.64270600  1
loop_
_geom_bond_atom_site_label_1
_geom_bond_atom_site_label_2
_geom_bond_distance
_geom_bond_site_symmetry_2
Nd0 O4 2.316484 1_555
Nd0 O9 2.530555 1_555
Nd0 O0 2.541909 1_555
Nd0 O8 2.549064 1_545
Nd0 O0 2.552014 1_455
Nd0 O12 2.664349 1_455
Nd0 O12 2.664837 1_555
Nd0 O15 2.697860 1_445
Nd0 O15 2.762666 1_545
Nd1 O7 2.304813 1_555
Nd1 O8 2.538803 1_555
Nd1 O14 2.577514 1_455
Nd1 O14 2.593684 1_555
Nd1 O3 2.599042 1_556
Nd1 O11 2.601185 1_556
Nd1 O3 2.640645 1_656
Nd1 O15 2.698196 1_455
Nd1 O15 2.817275 1_555
Nd2 O14 2.315808 1_555
Nd2 O10 2.531131 1_555
Nd2 O2 2.541800 1_555
Nd2 O11 2.548641 1_555
Nd2 O2 2.552176 1_655
Nd2 O6 2.665077 1_655
Nd2 O6 2.665169 1_555
Nd2 O7 2.697676 1_655
Nd2 O7 2.762735 1_555
Nd3 O15 2.305361 1_555
Nd3 O11 2.537826 1_555
Nd3 O4 2.577051 1_665
Nd3 O4 2.594310 1_565
Nd3 O3 2.599088 1_655
Nd3 O8 2.601626 1_554
Nd3 O3 2.640330 1_555
Nd3 O7 2.697695 1_655
Nd3 O7 2.817536 1_555
Mn0 O9 1.915867 1_554
Mn0 O9 1.924644 1_454
Mn0 O0 1.932708 1_454
Mn0 O1 1.940735 1_454
Mn0 O5 1.998664 1_555
Mn0 O12 2.047402 1_454
Mn1 O10 1.917315 1_556
Mn1 O10 1.923180 1_656
Mn1 O2 1.932899 1_656
Mn1 O1 1.940518 1_555
Mn1 O13 1.999018 1_555
Mn1 O6 2.047238 1_656
Cu0 O3 1.886546 1_555
Cu0 O0 1.905450 1_464
Cu0 O8 1.918836 1_454
Cu0 O8 1.921003 1_554
Cu0 O15 2.283951 1_454
Cu0 O4 2.316258 1_565
Cu1 O3 1.884502 1_656
Cu1 O2 1.906718 1_656
Cu1 O11 1.919427 1_656
Cu1 O11 1.920400 1_556
Cu1 O7 2.284467 1_656
Cu1 O14 2.317428 1_555
O0 Sr2 2.691365 1_656
O0 Sr2 2.696442 1_556
O1 Sr0 2.635200 1_555
O1 Sr3 2.635493 1_656
O1 Sr0 2.645420 1_655
O1 Sr3 2.645821 1_556
O2 Sr1 2.692061 1_454
O2 Sr1 2.696625 1_554
O4 Sr2 2.880082 1_555
O4 Sr2 2.900968 1_455
O5 Sr0 2.538954 1_555
O5 Sr2 2.712110 1_555
O5 Sr3 2.717440 1_555
O5 Sr2 2.733382 1_455
O5 Sr3 2.745628 1_455
O6 Sr1 2.494880 1_555
O6 Sr3 2.851342 1_455
O6 Sr3 2.853072 1_555
O8 Sr2 2.697170 1_566
O9 Sr0 2.673760 1_555
O9 Sr2 2.689917 1_556
O9 Sr3 2.709728 1_556
O10 Sr3 2.673959 1_555
O10 Sr1 2.690020 1_554
O10 Sr0 2.709798 1_554
O11 Sr1 2.698355 1_554
O12 Sr2 2.495077 1_555
O12 Sr0 2.851653 1_655
O12 Sr0 2.853593 1_555
O13 Sr3 2.538891 1_555
O13 Sr1 2.711912 1_555
O13 Sr0 2.717460 1_555
O13 Sr1 2.733470 1_655
O13 Sr0 2.746348 1_655
O14 Sr1 2.879690 1_555
O14 Sr1 2.900830 1_655
