# generated using pymatgen
data_CsGd2Ag3Te5
_symmetry_space_group_name_H-M   'P 1'
_cell_length_a   8.49063533
_cell_length_b   8.49063533
_cell_length_c   18.79434520
_cell_angle_alpha   90.00000000
_cell_angle_beta   90.00000000
_cell_angle_gamma   148.62570276
_symmetry_Int_Tables_number   1
_chemical_formula_structural   CsGd2Ag3Te5
_chemical_formula_sum   'Cs2 Gd4 Ag6 Te10'
_cell_volume   705.39762820
_cell_formula_units_Z   2
loop_
 _symmetry_equiv_pos_site_id
 _symmetry_equiv_pos_as_xyz
  1  'x, y, z'
loop_
 _atom_site_type_symbol
 _atom_site_label
 _atom_site_symmetry_multiplicity
 _atom_site_fract_x
 _atom_site_fract_y
 _atom_site_fract_z
 _atom_site_occupancy
  Cs  Cs0  1  0.55829593  0.44170407  0.25000000  1
  Cs  Cs1  1  0.44170407  0.55829593  0.75000000  1
  Gd  Gd0  1  0.69177269  0.30822731  0.90605561  1
  Gd  Gd1  1  0.30822731  0.69177269  0.09394439  1
  Gd  Gd2  1  0.69177269  0.30822731  0.59394439  1
  Gd  Gd3  1  0.30822731  0.69177269  0.40605561  1
  Ag  Ag0  1  0.84177424  0.15822576  0.25000000  1
  Ag  Ag1  1  0.15822576  0.84177424  0.75000000  1
  Ag  Ag2  1  0.08326357  0.91673643  0.46778453  1
  Ag  Ag3  1  0.91673643  0.08326357  0.53221547  1
  Ag  Ag4  1  0.08326357  0.91673643  0.03221547  1
  Ag  Ag5  1  0.91673643  0.08326357  0.96778453  1
  Te  Te0  1  0.06332473  0.93667527  0.88146446  1
  Te  Te1  1  0.93667527  0.06332473  0.11853554  1
  Te  Te2  1  0.06332473  0.93667527  0.61853554  1
  Te  Te3  1  0.93667527  0.06332473  0.38146446  1
  Te  Te4  1  0.67586811  0.32413189  0.42892089  1
  Te  Te5  1  0.32413189  0.67586811  0.57107911  1
  Te  Te6  1  0.67586811  0.32413189  0.07107911  1
  Te  Te7  1  0.32413189  0.67586811  0.92892089  1
  Te  Te8  1  0.24736343  0.75263657  0.25000000  1
  Te  Te9  1  0.75263657  0.24736343  0.75000000  1
loop_
_geom_bond_atom_site_label_1
_geom_bond_atom_site_label_2
_geom_bond_distance
_geom_bond_site_symmetry_2
Cs0 Te8 3.850299 1_545
Cs0 Te8 3.850299 1_655
Cs0 Te6 3.873300 1_555
Cs0 Te4 3.873300 1_555
Cs0 Te1 3.915191 1_565
Cs0 Te3 3.915191 1_565
Cs0 Te3 3.915191 1_455
Cs0 Te1 3.915191 1_455
Cs1 Te9 3.850299 1_565
Cs1 Te9 3.850299 1_455
Cs1 Te5 3.873300 1_555
Cs1 Te7 3.873300 1_555
Cs1 Te2 3.915191 1_545
Cs1 Te0 3.915191 1_545
Cs1 Te2 3.915191 1_655
Cs1 Te0 3.915191 1_655
Gd0 Te9 3.097159 1_555
Gd0 Te6 3.112389 1_556
Gd0 Te0 3.145451 1_655
Gd0 Te0 3.145451 1_545
Gd0 Te7 3.183957 1_655
Gd0 Te7 3.183957 1_545
Gd1 Te8 3.097159 1_555
Gd1 Te7 3.112389 1_554
Gd1 Te1 3.145451 1_455
Gd1 Te1 3.145451 1_565
Gd1 Te6 3.183957 1_565
Gd1 Te6 3.183957 1_455
Gd2 Te9 3.097159 1_555
Gd2 Te4 3.112389 1_555
Gd2 Te2 3.145451 1_655
Gd2 Te2 3.145451 1_545
Gd2 Te5 3.183957 1_655
Gd2 Te5 3.183957 1_545
Gd3 Te8 3.097159 1_555
Gd3 Te5 3.112389 1_555
Gd3 Te3 3.145451 1_565
Gd3 Te3 3.145451 1_455
Gd3 Te4 3.183957 1_565
Gd3 Te4 3.183957 1_455
Ag0 Te8 2.766369 1_655
Ag0 Te8 2.766369 1_545
Ag0 Te3 2.917532 1_555
Ag0 Te1 2.917532 1_555
Ag1 Te9 2.766369 1_565
Ag1 Te9 2.766369 1_455
Ag1 Te2 2.917532 1_555
Ag1 Te0 2.917532 1_555
Ag2 Te4 2.845350 1_455
Ag2 Te4 2.845350 1_565
Ag2 Te2 2.851957 1_555
Ag2 Te3 2.894018 1_465
Ag3 Te5 2.845350 1_545
Ag3 Te5 2.845350 1_655
Ag3 Te3 2.851957 1_555
Ag3 Te2 2.894018 1_645
Ag4 Te6 2.845350 1_455
Ag4 Te6 2.845350 1_565
Ag4 Te0 2.851957 1_554
Ag4 Te1 2.894018 1_465
Ag5 Te7 2.845350 1_545
Ag5 Te7 2.845350 1_655
Ag5 Te1 2.851957 1_556
Ag5 Te0 2.894018 1_645
