# generated using pymatgen
data_ZrBeSi
_symmetry_space_group_name_H-M   'P 1'
_cell_length_a   3.73068321
_cell_length_b   3.73068224
_cell_length_c   7.23938961
_cell_angle_alpha   90.00000000
_cell_angle_beta   90.00000000
_cell_angle_gamma   120.00001757
_symmetry_Int_Tables_number   1
_chemical_formula_structural   ZrBeSi
_chemical_formula_sum   'Zr2 Be2 Si2'
_cell_volume   87.25878008
_cell_formula_units_Z   2
loop_
 _symmetry_equiv_pos_site_id
 _symmetry_equiv_pos_as_xyz
  1  'x, y, z'
loop_
 _atom_site_type_symbol
 _atom_site_label
 _atom_site_symmetry_multiplicity
 _atom_site_fract_x
 _atom_site_fract_y
 _atom_site_fract_z
 _atom_site_occupancy
  Zr  Zr0  1  -0.00000000  0.00000000  0.50000000  1
  Zr  Zr1  1  -0.00000000  0.00000000  0.00000000  1
  Be  Be0  1  0.66666700  0.33333300  0.75000000  1
  Be  Be1  1  0.33333300  0.66666700  0.25000000  1
  Si  Si0  1  0.66666700  0.33333300  0.25000000  1
  Si  Si1  1  0.33333300  0.66666700  0.75000000  1
loop_
_geom_bond_atom_site_label_1
_geom_bond_atom_site_label_2
_geom_bond_distance
_geom_bond_site_symmetry_2
Be0 Si1 2.153908 1_545
Be0 Si1 2.153908 1_655
Be0 Si1 2.153915 1_555
Be0 Zr0 2.813338 1_655
Be0 Zr1 2.813338 1_656
Be0 Zr1 2.813340 1_666
Be0 Zr0 2.813340 1_665
Be0 Zr0 2.813340 1_555
Be0 Zr1 2.813340 1_556
Be1 Si0 2.153908 1_565
Be1 Si0 2.153908 1_455
Be1 Si0 2.153915 1_555
Be1 Zr0 2.813338 1_565
Be1 Zr1 2.813338 1_565
Be1 Zr0 2.813340 1_555
Be1 Zr1 2.813340 1_555
Be1 Zr0 2.813340 1_665
Be1 Zr1 2.813340 1_665
Si0 Zr1 2.813338 1_655
Si0 Zr0 2.813338 1_655
Si0 Zr1 2.813340 1_665
Si0 Zr0 2.813340 1_665
Si0 Zr0 2.813340 1_555
Si0 Zr1 2.813340 1_555
Si1 Zr0 2.813338 1_565
Si1 Zr1 2.813338 1_566
Si1 Zr0 2.813340 1_555
Si1 Zr1 2.813340 1_556
Si1 Zr1 2.813340 1_666
Si1 Zr0 2.813340 1_665
