# generated using pymatgen
data_CsSmCdTe3
_symmetry_space_group_name_H-M   'P 1'
_cell_length_a   8.99813790
_cell_length_b   8.99813790
_cell_length_c   12.03612700
_cell_angle_alpha   90.00000000
_cell_angle_beta   90.00000000
_cell_angle_gamma   150.34271310
_symmetry_Int_Tables_number   1
_chemical_formula_structural   CsSmCdTe3
_chemical_formula_sum   'Cs2 Sm2 Cd2 Te6'
_cell_volume   482.20463320
_cell_formula_units_Z   2
loop_
 _symmetry_equiv_pos_site_id
 _symmetry_equiv_pos_as_xyz
  1  'x, y, z'
loop_
 _atom_site_type_symbol
 _atom_site_label
 _atom_site_symmetry_multiplicity
 _atom_site_fract_x
 _atom_site_fract_y
 _atom_site_fract_z
 _atom_site_occupancy
  Cs  Cs0  1  0.74960000  0.25040000  0.25000000  1
  Cs  Cs1  1  0.25040000  0.74960000  0.75000000  1
  Sm  Sm0  1  0.50000000  0.50000000  0.50000000  1
  Sm  Sm1  1  0.50000000  0.50000000  0.00000000  1
  Cd  Cd0  1  0.03611600  0.96388400  0.25000000  1
  Cd  Cd1  1  0.96388400  0.03611600  0.75000000  1
  Te  Te0  1  0.87853200  0.12146800  0.55019800  1
  Te  Te1  1  0.12146800  0.87853200  0.44980200  1
  Te  Te2  1  0.12146800  0.87853200  0.05019700  1
  Te  Te3  1  0.87853200  0.12146800  0.94980200  1
  Te  Te4  1  0.43431400  0.56568600  0.25000000  1
  Te  Te5  1  0.56568600  0.43431400  0.75000000  1
loop_
_geom_bond_atom_site_label_1
_geom_bond_atom_site_label_2
_geom_bond_distance
_geom_bond_site_symmetry_2
Cs0 Te4 3.953425 1_545
Cs0 Te4 3.953425 1_655
Cs0 Te1 4.006924 1_655
Cs0 Te1 4.006924 1_545
Cs0 Te2 4.006931 1_655
Cs0 Te2 4.006931 1_545
Cs0 Te3 4.252823 1_554
Cs0 Te0 4.252823 1_555
Cs1 Te5 3.953425 1_565
Cs1 Te5 3.953425 1_455
Cs1 Te3 4.006924 1_565
Cs1 Te0 4.006924 1_565
Cs1 Te0 4.006924 1_455
Cs1 Te3 4.006924 1_455
Cs1 Te2 4.252813 1_556
Cs1 Te1 4.252823 1_555
Sm0 Te0 3.183364 1_565
Sm0 Te1 3.183364 1_655
Sm0 Te0 3.183364 1_455
Sm0 Te1 3.183364 1_545
Sm0 Te5 3.218713 1_555
Sm0 Te4 3.218713 1_555
Sm1 Te2 3.183362 1_655
Sm1 Te2 3.183362 1_545
Sm1 Te3 3.183364 1_564
Sm1 Te3 3.183364 1_454
Sm1 Te5 3.218713 1_554
Sm1 Te4 3.218713 1_555
Cd0 Te1 2.826319 1_555
Cd0 Te2 2.826330 1_555
Cd0 Te4 2.905145 1_565
Cd0 Te4 2.905145 1_455
Cd1 Te3 2.826319 1_555
Cd1 Te0 2.826319 1_555
Cd1 Te5 2.905145 1_655
Cd1 Te5 2.905145 1_545
