# generated using pymatgen
data_CrPbN2
_symmetry_space_group_name_H-M   'P 1'
_cell_length_a   3.56403229
_cell_length_b   3.56403229
_cell_length_c   9.68956094
_cell_angle_alpha   90.00000000
_cell_angle_beta   90.00000000
_cell_angle_gamma   90.00000000
_symmetry_Int_Tables_number   1
_chemical_formula_structural   CrPbN2
_chemical_formula_sum   'Cr2 Pb2 N4'
_cell_volume   123.07996345
_cell_formula_units_Z   2
loop_
 _symmetry_equiv_pos_site_id
 _symmetry_equiv_pos_as_xyz
  1  'x, y, z'
loop_
 _atom_site_type_symbol
 _atom_site_label
 _atom_site_symmetry_multiplicity
 _atom_site_fract_x
 _atom_site_fract_y
 _atom_site_fract_z
 _atom_site_occupancy
  Cr  Cr0  1  0.75000000  0.75000000  0.57677357  1
  Cr  Cr1  1  0.25000000  0.25000000  0.42322643  1
  Pb  Pb0  1  0.75000000  0.75000000  0.15919043  1
  Pb  Pb1  1  0.25000000  0.25000000  0.84080957  1
  N  N0  1  0.75000000  0.25000000  0.50000000  1
  N  N1  1  0.25000000  0.75000000  0.50000000  1
  N  N2  1  0.75000000  0.75000000  0.75651077  1
  N  N3  1  0.25000000  0.25000000  0.24348923  1
loop_
_geom_bond_atom_site_label_1
_geom_bond_atom_site_label_2
_geom_bond_distance
_geom_bond_site_symmetry_2
Cr0 N2 1.741575 1_555
Cr0 N0 1.931055 1_555
Cr0 N1 1.931055 1_655
Cr0 N1 1.931055 1_555
Cr0 N0 1.931055 1_565
Cr1 N3 1.741575 1_555
Cr1 N1 1.931055 1_555
Cr1 N0 1.931055 1_555
Cr1 N1 1.931055 1_545
Cr1 N0 1.931055 1_455
N2 Pb1 2.649218 1_555
N2 Pb1 2.649218 1_665
N2 Pb1 2.649218 1_565
N2 Pb1 2.649218 1_655
N3 Pb0 2.649218 1_455
N3 Pb0 2.649218 1_445
N3 Pb0 2.649218 1_545
N3 Pb0 2.649218 1_555
