# generated using pymatgen
data_Mg6CdBi
_symmetry_space_group_name_H-M   'P 1'
_cell_length_a   5.38193200
_cell_length_b   6.50968600
_cell_length_c   10.92233300
_cell_angle_alpha   90.00000000
_cell_angle_beta   90.00000000
_cell_angle_gamma   90.00000000
_symmetry_Int_Tables_number   1
_chemical_formula_structural   Mg6CdBi
_chemical_formula_sum   'Mg12 Cd2 Bi2'
_cell_volume   382.66052226
_cell_formula_units_Z   2
loop_
 _symmetry_equiv_pos_site_id
 _symmetry_equiv_pos_as_xyz
  1  'x, y, z'
loop_
 _atom_site_type_symbol
 _atom_site_label
 _atom_site_symmetry_multiplicity
 _atom_site_fract_x
 _atom_site_fract_y
 _atom_site_fract_z
 _atom_site_occupancy
  Mg  Mg0  1  0.50000000  0.24952500  0.58372900  1
  Mg  Mg1  1  0.50000000  0.75047500  0.58372900  1
  Mg  Mg2  1  0.00000000  0.25380200  0.41756800  1
  Mg  Mg3  1  0.00000000  0.74619800  0.41756800  1
  Mg  Mg4  1  0.00000000  0.00000000  0.66685500  1
  Mg  Mg5  1  0.00000000  0.00000000  0.16462200  1
  Mg  Mg6  1  0.50000000  0.74952500  0.08372900  1
  Mg  Mg7  1  0.50000000  0.25047500  0.08372900  1
  Mg  Mg8  1  0.00000000  0.75380200  0.91756800  1
  Mg  Mg9  1  0.00000000  0.24619800  0.91756800  1
  Mg  Mg10  1  0.00000000  0.50000000  0.16685500  1
  Mg  Mg11  1  0.00000000  0.50000000  0.66462200  1
  Cd  Cd0  1  0.50000000  0.00000000  0.83250200  1
  Cd  Cd1  1  0.50000000  0.50000000  0.33250200  1
  Bi  Bi0  1  0.50000000  0.00000000  0.33343200  1
  Bi  Bi1  1  0.50000000  0.50000000  0.83343200  1
loop_
_geom_bond_atom_site_label_1
_geom_bond_atom_site_label_2
_geom_bond_distance
_geom_bond_site_symmetry_2
Mg0 Mg2 3.245891 1_655
Mg0 Mg2 3.245891 1_555
Mg0 Mg1 3.248659 1_545
Mg0 Mg1 3.261027 1_555
Mg0 Mg11 3.268106 1_555
Mg0 Mg11 3.268106 1_655
Mg0 Mg4 3.271709 1_555
Mg0 Mg4 3.271709 1_655
Mg1 Mg3 3.245891 1_555
Mg1 Mg3 3.245891 1_655
Mg1 Mg11 3.268106 1_555
Mg1 Mg11 3.268106 1_655
Mg1 Mg4 3.271709 1_565
Mg1 Mg4 3.271709 1_665
Mg2 Mg4 3.184853 1_555
Mg2 Mg3 3.205343 1_555
Mg2 Mg5 3.219086 1_555
Mg2 Mg3 3.304343 1_545
Mg3 Mg4 3.184853 1_565
Mg3 Mg5 3.219086 1_565
Mg4 Mg9 3.172890 1_555
Mg4 Mg8 3.172890 1_545
Mg5 Mg8 3.138463 1_544
Mg5 Mg9 3.138463 1_554
Mg5 Mg6 3.268106 1_445
Mg5 Mg7 3.268106 1_455
Mg5 Mg6 3.268106 1_545
Mg5 Mg7 3.268106 1_555
Mg6 Mg8 3.245891 1_554
Mg6 Mg8 3.245891 1_654
Mg6 Mg7 3.248659 1_555
Mg6 Mg7 3.261027 1_565
Mg7 Mg9 3.245891 1_654
Mg7 Mg9 3.245891 1_554
Mg8 Mg9 3.205343 1_565
Mg8 Mg9 3.304343 1_555
Mg10 Mg2 3.172890 1_555
Mg10 Mg3 3.172890 1_555
Mg10 Mg9 3.184853 1_554
Mg10 Mg8 3.184853 1_554
Mg10 Mg5 3.254934 1_555
Mg10 Mg5 3.254934 1_565
Mg10 Mg7 3.271709 1_555
Mg10 Mg6 3.271709 1_455
Mg10 Mg7 3.271709 1_455
Mg10 Mg6 3.271709 1_555
Mg11 Mg2 3.138463 1_555
Mg11 Mg3 3.138463 1_555
Mg11 Mg9 3.219086 1_555
Mg11 Mg8 3.219086 1_555
Mg11 Mg4 3.254934 1_555
Mg11 Mg4 3.254934 1_565
Cd0 Mg0 3.165679 1_555
Cd0 Mg1 3.165679 1_545
Cd0 Mg6 3.191869 1_546
Cd0 Mg7 3.191869 1_556
Cd0 Mg4 3.242636 1_555
Cd0 Mg4 3.242636 1_655
Cd0 Mg8 3.266974 1_645
Cd0 Mg8 3.266974 1_545
Cd0 Mg9 3.266974 1_555
Cd0 Mg9 3.266974 1_655
Cd1 Mg6 3.165679 1_555
Cd1 Mg7 3.165679 1_555
Cd1 Mg1 3.191869 1_555
Cd1 Mg0 3.191869 1_555
Cd1 Mg10 3.242636 1_555
Cd1 Mg10 3.242636 1_655
Cd1 Mg3 3.266974 1_655
Cd1 Mg2 3.266974 1_555
Cd1 Mg2 3.266974 1_655
Cd1 Mg3 3.266974 1_555
Bi0 Mg6 3.177571 1_545
Bi0 Mg7 3.177571 1_555
Bi0 Mg0 3.179978 1_555
Bi0 Mg1 3.179978 1_545
Bi0 Cd1 3.254859 1_555
Bi0 Cd1 3.254859 1_545
Bi0 Mg5 3.262038 1_655
Bi0 Mg5 3.262038 1_555
Bi0 Mg2 3.288686 1_655
Bi0 Mg2 3.288686 1_555
Bi0 Mg3 3.288686 1_545
Bi0 Mg3 3.288686 1_645
Bi1 Mg0 3.177571 1_555
Bi1 Mg1 3.177571 1_555
Bi1 Mg7 3.179978 1_556
Bi1 Mg6 3.179978 1_556
Bi1 Cd0 3.254859 1_555
Bi1 Cd0 3.254859 1_565
Bi1 Mg11 3.262038 1_655
Bi1 Mg11 3.262038 1_555
Bi1 Mg8 3.288686 1_655
Bi1 Mg9 3.288686 1_655
Bi1 Mg8 3.288686 1_555
Bi1 Mg9 3.288686 1_555
