# generated using pymatgen
data_SrCaCrBiO6
_symmetry_space_group_name_H-M   'P 1'
_cell_length_a   5.64192003
_cell_length_b   5.64192003
_cell_length_c   8.34211327
_cell_angle_alpha   90.00000000
_cell_angle_beta   90.00000000
_cell_angle_gamma   90.00000000
_symmetry_Int_Tables_number   1
_chemical_formula_structural   SrCaCrBiO6
_chemical_formula_sum   'Sr2 Ca2 Cr2 Bi2 O12'
_cell_volume   265.53999000
_cell_formula_units_Z   2
loop_
 _symmetry_equiv_pos_site_id
 _symmetry_equiv_pos_as_xyz
  1  'x, y, z'
loop_
 _atom_site_type_symbol
 _atom_site_label
 _atom_site_symmetry_multiplicity
 _atom_site_fract_x
 _atom_site_fract_y
 _atom_site_fract_z
 _atom_site_occupancy
  Sr  Sr0  1  0.50000000  -0.00000000  0.25000000  1
  Sr  Sr1  1  0.00000000  0.50000000  0.75000000  1
  Ca  Ca0  1  0.00000000  0.50000000  0.25000000  1
  Ca  Ca1  1  0.50000000  -0.00000000  0.75000000  1
  Cr  Cr0  1  0.00000000  -0.00000000  0.50000000  1
  Cr  Cr1  1  0.50000000  0.50000000  0.00000000  1
  Bi  Bi0  1  0.00000000  -0.00000000  0.00000000  1
  Bi  Bi1  1  0.50000000  0.50000000  0.50000000  1
  O  O0  1  0.00000000  -0.00000000  0.25578148  1
  O  O1  1  0.50000000  0.50000000  0.24421852  1
  O  O2  1  0.00000000  -0.00000000  0.74421852  1
  O  O3  1  0.50000000  0.50000000  0.75578148  1
  O  O4  1  0.32653299  0.18805652  0.98906319  1
  O  O5  1  0.67346701  0.81194348  0.98906319  1
  O  O6  1  0.81194348  0.32653299  0.01093681  1
  O  O7  1  0.18805652  0.67346701  0.01093681  1
  O  O8  1  0.82653299  0.31194348  0.48906319  1
  O  O9  1  0.17346701  0.68805652  0.48906319  1
  O  O10  1  0.31194348  0.17346701  0.51093681  1
  O  O11  1  0.68805652  0.82653299  0.51093681  1
loop_
_geom_bond_atom_site_label_1
_geom_bond_atom_site_label_2
_geom_bond_distance
_geom_bond_site_symmetry_2
Ca0 O9 2.461859 1_555
Ca0 O8 2.461859 1_455
Ca0 O6 2.461859 1_455
Ca0 O7 2.461859 1_555
Ca0 O1 2.821372 1_455
Ca0 O1 2.821372 1_555
Ca0 O0 2.821372 1_565
Ca0 O0 2.821372 1_555
Ca1 O5 2.461859 1_545
Ca1 O11 2.461859 1_545
Ca1 O4 2.461859 1_555
Ca1 O10 2.461859 1_555
Ca1 O2 2.821372 1_655
Ca1 O3 2.821372 1_545
Ca1 O2 2.821372 1_555
Ca1 O3 2.821372 1_555
Cr0 O8 2.015840 1_455
Cr0 O10 2.015840 1_555
Cr0 O9 2.015840 1_545
Cr0 O11 2.015840 1_445
Cr0 O2 2.037299 1_555
Cr0 O0 2.037299 1_555
Cr1 O7 2.015840 1_555
Cr1 O4 2.015840 1_554
Cr1 O5 2.015840 1_554
Cr1 O6 2.015840 1_555
Cr1 O3 2.037299 1_554
Cr1 O1 2.037299 1_555
Bi0 O5 2.127913 1_444
Bi0 O7 2.127913 1_545
Bi0 O6 2.127913 1_455
Bi0 O4 2.127913 1_554
Bi0 O2 2.133758 1_554
Bi0 O0 2.133758 1_555
Bi1 O8 2.127913 1_555
Bi1 O10 2.127913 1_555
Bi1 O11 2.127913 1_555
Bi1 O9 2.127913 1_555
Bi1 O1 2.133758 1_555
Bi1 O3 2.133758 1_555
O0 Sr0 2.821372 1_455
O0 Sr0 2.821372 1_555
O1 Sr0 2.821372 1_565
O1 Sr0 2.821372 1_555
O2 Sr1 2.821372 1_555
O2 Sr1 2.821372 1_545
O3 Sr1 2.821372 1_655
O3 Sr1 2.821372 1_555
O4 Sr0 2.611868 1_556
O5 Sr0 2.611868 1_566
O6 Sr1 2.611868 1_654
O7 Sr1 2.611868 1_554
O8 Sr1 2.611868 1_655
O9 Sr1 2.611868 1_555
O10 Sr0 2.611868 1_555
O11 Sr0 2.611868 1_565
