# generated using pymatgen
data_Mn3Al3N5
_symmetry_space_group_name_H-M   'P 1'
_cell_length_a   5.59730465
_cell_length_b   6.23793254
_cell_length_c   8.12180001
_cell_angle_alpha   105.97379473
_cell_angle_beta   113.56225760
_cell_angle_gamma   99.91906824
_symmetry_Int_Tables_number   1
_chemical_formula_structural   Mn3Al3N5
_chemical_formula_sum   'Mn6 Al6 N10'
_cell_volume   236.73173090
_cell_formula_units_Z   2
loop_
 _symmetry_equiv_pos_site_id
 _symmetry_equiv_pos_as_xyz
  1  'x, y, z'
loop_
 _atom_site_type_symbol
 _atom_site_label
 _atom_site_symmetry_multiplicity
 _atom_site_fract_x
 _atom_site_fract_y
 _atom_site_fract_z
 _atom_site_occupancy
  Mn  Mn0  1  0.90886700  0.44339000  0.64199800  1
  Mn  Mn1  1  0.09113300  0.55661000  0.35800200  1
  Mn  Mn2  1  0.68984800  0.78646200  0.94689700  1
  Mn  Mn3  1  0.31015200  0.21353800  0.05310300  1
  Mn  Mn4  1  0.62926500  0.59397300  0.20667300  1
  Mn  Mn5  1  0.37073500  0.40602700  0.79332700  1
  Al  Al0  1  0.82441300  0.24884700  0.91574700  1
  Al  Al1  1  0.17558700  0.75115300  0.08425300  1
  Al  Al2  1  0.70171500  0.91268600  0.55511400  1
  Al  Al3  1  0.29828500  0.08731400  0.44488600  1
  Al  Al4  1  0.19758600  0.89149300  0.72081200  1
  Al  Al5  1  0.80241400  0.10850700  0.27918800  1
  N  N0  1  0.04458000  0.15330700  0.76995600  1
  N  N1  1  0.95542000  0.84669300  0.23004400  1
  N  N2  1  0.85607400  0.67387600  0.50420400  1
  N  N3  1  0.14392600  0.32612400  0.49579600  1
  N  N4  1  0.76127100  0.50742500  0.83203500  1
  N  N5  1  0.23872900  0.49257500  0.16796500  1
  N  N6  1  0.46981300  0.98896300  0.65960100  1
  N  N7  1  0.53018700  0.01103700  0.34039900  1
  N  N8  1  0.30227500  0.73561500  0.89329000  1
  N  N9  1  0.69772500  0.26438500  0.10671000  1
loop_
_geom_bond_atom_site_label_1
_geom_bond_atom_site_label_2
_geom_bond_distance
_geom_bond_site_symmetry_2
Mn0 N4 2.004512 1_555
Mn0 N2 2.043162 1_555
Mn0 N3 2.186013 1_655
Mn0 N8 2.305125 1_655
Mn0 N0 2.410160 1_655
Mn1 N5 2.004512 1_555
Mn1 N3 2.043162 1_555
Mn1 N2 2.186013 1_455
Mn1 N9 2.305125 1_455
Mn1 N1 2.410160 1_455
Mn2 N4 1.924579 1_555
Mn2 N8 1.981948 1_555
Mn2 N1 2.058713 1_556
Mn3 N5 1.924579 1_555
Mn3 N9 1.981948 1_555
Mn3 N0 2.058713 1_554
Mn4 N5 2.035208 1_555
Mn4 N2 2.089484 1_555
Mn4 N1 2.102562 1_555
Mn4 N9 2.152751 1_555
Mn5 N4 2.035208 1_555
Mn5 N3 2.089484 1_555
Mn5 N0 2.102562 1_555
Mn5 N8 2.152751 1_555
Al0 N9 1.933376 1_556
Al0 N4 1.948535 1_555
Al0 N0 2.075366 1_655
Al0 N6 2.151629 1_545
Al0 N5 2.271319 1_656
Al1 N8 1.933376 1_554
Al1 N5 1.948535 1_555
Al1 N1 2.075366 1_455
Al1 N7 2.151629 1_565
Al1 N4 2.271319 1_454
Al2 N6 1.871532 1_555
Al2 N2 1.877928 1_555
Al2 N7 1.947427 1_565
Al2 N0 1.967103 1_665
Al3 N7 1.871532 1_555
Al3 N3 1.877928 1_555
Al3 N6 1.947427 1_545
Al3 N1 1.967103 1_445
Al4 N6 1.841582 1_555
Al4 N8 1.881729 1_555
Al4 N2 1.922166 1_455
Al4 N0 1.989074 1_565
Al5 N7 1.841582 1_555
Al5 N9 1.881729 1_555
Al5 N3 1.922166 1_655
Al5 N1 1.989074 1_545
