# generated using pymatgen
data_YMg(CoNi)2
_symmetry_space_group_name_H-M   'P 1'
_cell_length_a   4.92921817
_cell_length_b   4.92921817
_cell_length_c   4.92921817
_cell_angle_alpha   120.79944445
_cell_angle_beta   119.80061362
_cell_angle_gamma   89.48331165
_symmetry_Int_Tables_number   1
_chemical_formula_structural   YMg(CoNi)2
_chemical_formula_sum   'Y1 Mg1 Co2 Ni2'
_cell_volume   84.29159946
_cell_formula_units_Z   1
loop_
 _symmetry_equiv_pos_site_id
 _symmetry_equiv_pos_as_xyz
  1  'x, y, z'
loop_
 _atom_site_type_symbol
 _atom_site_label
 _atom_site_symmetry_multiplicity
 _atom_site_fract_x
 _atom_site_fract_y
 _atom_site_fract_z
 _atom_site_occupancy
  Y  Y0  1  0.99892500  0.99892500  0.00000000  1
  Mg  Mg0  1  0.25148900  0.75148900  0.50000000  1
  Co  Co0  1  0.62399000  0.87412000  0.25013100  1
  Co  Co1  1  0.62399000  0.37385900  0.74986900  1
  Ni  Ni0  1  0.12820500  0.37580400  0.75240200  1
  Ni  Ni1  1  0.62340200  0.37580400  0.24759800  1
loop_
_geom_bond_atom_site_label_1
_geom_bond_atom_site_label_2
_geom_bond_distance
_geom_bond_site_symmetry_2
Mg0 Ni0 2.860833 1_554
Mg0 Ni1 2.860835 1_555
Mg0 Ni1 2.860835 1_566
Mg0 Ni0 2.860837 1_565
Mg0 Ni1 2.911642 1_455
Mg0 Ni0 2.911644 1_555
Mg0 Y0 3.009288 1_445
Mg0 Y0 3.009288 1_456
Mg0 Y0 3.018766 1_556
Mg0 Y0 3.018766 1_455
Co0 Co1 2.433495 1_565
Co0 Co1 2.436041 1_554
Co0 Ni1 2.449959 1_555
Co0 Ni0 2.449964 1_554
Co0 Ni0 2.479290 1_665
Co0 Ni1 2.479295 1_565
Co0 Mg0 2.878207 1_555
Co0 Y0 2.891079 1_556
Co0 Y0 2.891083 1_455
Co0 Y0 2.894203 1_555
Co0 Mg0 2.896823 1_655
Co0 Mg0 2.896828 1_554
Co1 Ni1 2.449964 1_556
Co1 Ni0 2.449969 1_555
Co1 Ni0 2.479285 1_655
Co1 Ni1 2.479290 1_555
Co1 Mg0 2.878209 1_545
Co1 Y0 2.891081 1_445
Co1 Y0 2.891081 1_546
Co1 Y0 2.894200 1_556
Co1 Mg0 2.896826 1_656
Co1 Mg0 2.896826 1_555
Ni0 Ni1 2.448284 1_556
Ni0 Ni1 2.495782 1_455
Ni0 Y0 2.868552 1_456
Ni0 Y0 2.868556 1_445
Ni0 Y0 2.909122 1_446
Ni1 Y0 2.868554 1_545
Ni1 Y0 2.868554 1_556
Ni1 Y0 2.909124 1_445
