# generated using pymatgen
data_Sc(CuSe)3
_symmetry_space_group_name_H-M   'P 1'
_cell_length_a   7.50203910
_cell_length_b   7.50203910
_cell_length_c   7.50203946
_cell_angle_alpha   54.04990550
_cell_angle_beta   54.04990550
_cell_angle_gamma   54.04990123
_symmetry_Int_Tables_number   1
_chemical_formula_structural   Sc(CuSe)3
_chemical_formula_sum   'Sc2 Cu6 Se6'
_cell_volume   257.06877821
_cell_formula_units_Z   2
loop_
 _symmetry_equiv_pos_site_id
 _symmetry_equiv_pos_as_xyz
  1  'x, y, z'
loop_
 _atom_site_type_symbol
 _atom_site_label
 _atom_site_symmetry_multiplicity
 _atom_site_fract_x
 _atom_site_fract_y
 _atom_site_fract_z
 _atom_site_occupancy
  Sc  Sc0  1  0.83376700  0.83376700  0.83376700  1
  Sc  Sc1  1  0.16623300  0.16623300  0.16623300  1
  Cu  Cu0  1  0.62774100  0.27650800  0.97592800  1
  Cu  Cu1  1  0.97592800  0.62774100  0.27650800  1
  Cu  Cu2  1  0.27650800  0.97592800  0.62774100  1
  Cu  Cu3  1  0.72349200  0.02407200  0.37225900  1
  Cu  Cu4  1  0.02407200  0.37225900  0.72349200  1
  Cu  Cu5  1  0.37225900  0.72349200  0.02407200  1
  Se  Se0  1  0.42436300  0.09547500  0.74856400  1
  Se  Se1  1  0.09547500  0.74856400  0.42436300  1
  Se  Se2  1  0.74856400  0.42436300  0.09547500  1
  Se  Se3  1  0.25143600  0.57563700  0.90452500  1
  Se  Se4  1  0.90452500  0.25143600  0.57563700  1
  Se  Se5  1  0.57563700  0.90452500  0.25143600  1
loop_
_geom_bond_atom_site_label_1
_geom_bond_atom_site_label_2
_geom_bond_distance
_geom_bond_site_symmetry_2
Sc0 Se0 2.729066 1_565
Sc0 Se2 2.729067 1_556
Sc0 Se1 2.729067 1_655
Sc0 Se3 2.733361 1_655
Sc0 Se4 2.733361 1_565
Sc0 Se5 2.733361 1_556
Sc1 Se5 2.729066 1_545
Sc1 Se3 2.729067 1_554
Sc1 Se4 2.729067 1_455
Sc1 Se2 2.733361 1_455
Sc1 Se1 2.733361 1_545
Sc1 Se0 2.733361 1_554
Cu0 Se5 2.402527 1_546
Cu0 Se2 2.481803 1_556
Cu0 Se3 2.493617 1_555
Cu0 Se4 2.499616 1_555
Cu1 Se3 2.402527 1_654
Cu1 Se1 2.481803 1_655
Cu1 Se4 2.493617 1_555
Cu1 Se5 2.499616 1_555
Cu2 Se4 2.402527 1_465
Cu2 Se0 2.481803 1_565
Cu2 Se5 2.493617 1_555
Cu2 Se3 2.499616 1_555
Cu3 Se1 2.402527 1_645
Cu3 Se5 2.481803 1_545
Cu3 Se0 2.493617 1_555
Cu3 Se2 2.499616 1_555
Cu4 Se2 2.402527 1_456
Cu4 Se4 2.481803 1_455
Cu4 Se1 2.493617 1_555
Cu4 Se0 2.499616 1_555
Cu5 Se0 2.402527 1_564
Cu5 Se3 2.481803 1_554
Cu5 Se2 2.493617 1_555
Cu5 Se1 2.499616 1_555
