# generated using pymatgen
data_Ho4C7
_symmetry_space_group_name_H-M   'P 1'
_cell_length_a   3.67680087
_cell_length_b   6.41132273
_cell_length_c   13.62709924
_cell_angle_alpha   90.00000000
_cell_angle_beta   90.00000000
_cell_angle_gamma   104.73453053
_symmetry_Int_Tables_number   1
_chemical_formula_structural   Ho4C7
_chemical_formula_sum   'Ho8 C14'
_cell_volume   310.66986382
_cell_formula_units_Z   2
loop_
 _symmetry_equiv_pos_site_id
 _symmetry_equiv_pos_as_xyz
  1  'x, y, z'
loop_
 _atom_site_type_symbol
 _atom_site_label
 _atom_site_symmetry_multiplicity
 _atom_site_fract_x
 _atom_site_fract_y
 _atom_site_fract_z
 _atom_site_occupancy
  Ho  Ho0  1  0.63412564  0.26020471  0.94488306  1
  Ho  Ho1  1  0.36587436  0.23979529  0.44488306  1
  Ho  Ho2  1  0.36587436  0.73979529  0.05511694  1
  Ho  Ho3  1  0.63412564  0.76020471  0.55511694  1
  Ho  Ho4  1  0.94668662  0.34039798  0.66261085  1
  Ho  Ho5  1  0.05331338  0.15960202  0.16261085  1
  Ho  Ho6  1  0.05331338  0.65960202  0.33738915  1
  Ho  Ho7  1  0.94668662  0.84039798  0.83738915  1
  C  C0  1  0.00000000  0.50000000  0.50000000  1
  C  C1  1  0.00000000  0.00000000  -0.00000000  1
  C  C2  1  0.53376758  0.07690940  0.78451121  1
  C  C3  1  0.46623242  0.42309060  0.28451121  1
  C  C4  1  0.46623242  0.92309060  0.21548879  1
  C  C5  1  0.53376758  0.57690940  0.71548879  1
  C  C6  1  0.62021807  0.45297709  0.19655996  1
  C  C7  1  0.37978193  0.04702291  0.69655996  1
  C  C8  1  0.73367628  0.95031950  0.39570595  1
  C  C9  1  0.26632372  0.54968050  0.89570595  1
  C  C10  1  0.26632372  0.04968050  0.60429405  1
  C  C11  1  0.73367628  0.45031950  0.10429405  1
  C  C12  1  0.62021807  0.95297709  0.30344004  1
  C  C13  1  0.37978193  0.54702291  0.80344004  1
loop_
_geom_bond_atom_site_label_1
_geom_bond_atom_site_label_2
_geom_bond_distance
_geom_bond_site_symmetry_2
C0 Ho4 2.427700 1_455
C0 Ho6 2.427700 1_555
C0 Ho1 2.509679 1_555
C0 Ho3 2.509679 1_455
C0 Ho1 2.608595 1_455
C0 Ho3 2.608595 1_555
C1 Ho7 2.427700 1_444
C1 Ho5 2.427700 1_555
C1 Ho2 2.509679 1_545
C1 Ho0 2.509679 1_454
C1 Ho2 2.608595 1_445
C1 Ho0 2.608595 1_554
C2 C7 1.318535 1_555
C2 Ho7 2.411019 1_445
C2 Ho0 2.464260 1_555
C2 Ho7 2.508905 1_545
C2 Ho4 2.571680 1_555
C3 C6 1.318535 1_555
C3 Ho6 2.411019 1_655
C3 Ho1 2.464260 1_555
C3 Ho6 2.508905 1_555
C3 Ho5 2.571680 1_555
C4 Ho5 2.411019 1_665
C4 Ho2 2.464260 1_555
C4 Ho5 2.508905 1_565
C4 Ho6 2.571680 1_555
C5 Ho4 2.411019 1_455
C5 Ho3 2.464260 1_555
C5 Ho4 2.508905 1_555
C5 Ho7 2.571680 1_555
C6 Ho5 2.470277 1_555
C6 Ho6 2.626886 1_655
C6 Ho5 2.794861 1_655
C6 Ho2 2.974206 1_555
C7 Ho4 2.470277 1_555
C7 Ho7 2.626886 1_445
C7 Ho4 2.794861 1_455
C7 Ho3 2.974206 1_545
C8 Ho3 2.472174 1_555
C8 Ho6 2.569253 1_655
C8 Ho1 2.645572 1_565
C8 Ho1 2.664998 1_665
C8 Ho6 2.826942 1_555
C9 Ho2 2.472174 1_556
C9 Ho7 2.569253 1_455
C9 Ho0 2.645572 1_555
C9 Ho0 2.664998 1_455
C9 Ho7 2.826942 1_555
C10 C7 1.326189 1_555
C10 Ho1 2.472174 1_555
C10 Ho4 2.569253 1_455
C10 Ho3 2.645572 1_545
C10 Ho3 2.664998 1_445
C10 Ho4 2.826942 1_555
C11 C6 1.326189 1_555
C11 Ho0 2.472174 1_554
C11 Ho5 2.569253 1_655
C11 Ho2 2.645572 1_555
C11 Ho2 2.664998 1_655
C11 Ho5 2.826942 1_555
C12 C4 1.318535 1_555
C12 C8 1.326189 1_555
C12 Ho6 2.470277 1_555
C12 Ho5 2.626886 1_665
C12 Ho6 2.794861 1_655
C12 Ho1 2.974206 1_565
C13 C5 1.318535 1_555
C13 C9 1.326189 1_555
C13 Ho7 2.470277 1_555
C13 Ho4 2.626886 1_455
C13 Ho7 2.794861 1_455
C13 Ho0 2.974206 1_555
