# generated using pymatgen
data_MgAsH16NO10
_symmetry_space_group_name_H-M   'P 1'
_cell_length_a   6.17818989
_cell_length_b   7.14157604
_cell_length_c   11.50555072
_cell_angle_alpha   90.65460514
_cell_angle_beta   90.00000000
_cell_angle_gamma   90.00000000
_symmetry_Int_Tables_number   1
_chemical_formula_structural   MgAsH16NO10
_chemical_formula_sum   'Mg2 As2 H32 N2 O20'
_cell_volume   507.61492586
_cell_formula_units_Z   2
loop_
 _symmetry_equiv_pos_site_id
 _symmetry_equiv_pos_as_xyz
  1  'x, y, z'
loop_
 _atom_site_type_symbol
 _atom_site_label
 _atom_site_symmetry_multiplicity
 _atom_site_fract_x
 _atom_site_fract_y
 _atom_site_fract_z
 _atom_site_occupancy
  Mg  Mg0  1  0.37508339  0.50123045  0.12468981  1
  Mg  Mg1  1  0.62491661  0.00123045  0.62468981  1
  As  As0  1  0.99519970  0.49900730  0.49621945  1
  As  As1  1  0.00480030  0.99900730  0.99621945  1
  H  H0  1  0.39437279  0.18393325  0.98288380  1
  H  H1  1  0.39125950  0.81665969  0.98278636  1
  H  H2  1  0.60874050  0.31665969  0.48278636  1
  H  H3  1  0.60562721  0.68393325  0.48288380  1
  H  H4  1  0.22891724  0.50839273  0.72172963  1
  H  H5  1  0.77108276  0.00839273  0.22172963  1
  H  H6  1  0.16965214  0.18134811  0.19618285  1
  H  H7  1  0.17591456  0.82071792  0.19910837  1
  H  H8  1  0.82408544  0.32071792  0.69910837  1
  H  H9  1  0.83034786  0.68134811  0.69618285  1
  H  H10  1  0.63595751  0.26196111  0.99404654  1
  H  H11  1  0.63107929  0.73440837  0.99140981  1
  H  H12  1  0.36892071  0.23440837  0.49140981  1
  H  H13  1  0.36404249  0.76196111  0.49404654  1
  H  H14  1  0.20999494  0.29619612  0.31379619  1
  H  H15  1  0.21037976  0.70470338  0.31517834  1
  H  H16  1  0.78962024  0.20470338  0.81517834  1
  H  H17  1  0.79000506  0.79619612  0.81379619  1
  H  H18  1  0.71031700  0.50096927  0.29424204  1
  H  H19  1  0.28968300  0.00096927  0.79424204  1
  H  H20  1  0.99894017  0.38697146  0.00513418  1
  H  H21  1  0.99668646  0.61303318  0.00551668  1
  H  H22  1  0.00331354  0.11303318  0.50551668  1
  H  H23  1  0.00105983  0.88697146  0.50513418  1
  H  H24  1  0.81884447  0.50084179  0.16668084  1
  H  H25  1  0.18115553  0.00084179  0.66668084  1
  H  H26  1  0.46258256  0.39032438  0.76076037  1
  H  H27  1  0.47658814  0.62114902  0.73724252  1
  H  H28  1  0.52341186  0.12114902  0.23724252  1
  H  H29  1  0.53741744  0.89032438  0.26076037  1
  H  H30  1  0.35476397  0.54466270  0.85542880  1
  H  H31  1  0.64523603  0.04466270  0.35542880  1
  N  N0  1  0.37717391  0.51499443  0.76799236  1
  N  N1  1  0.62282609  0.01499443  0.26799236  1
  O  O0  1  0.67987907  0.50109476  0.20828408  1
  O  O1  1  0.32012093  0.00109476  0.70828408  1
  O  O2  1  0.98303635  0.50033180  0.64615866  1
  O  O3  1  0.01696365  0.00033180  0.14615866  1
  O  O4  1  0.73604832  0.49776212  0.43966748  1
  O  O5  1  0.26395168  0.99776212  0.93966748  1
  O  O6  1  0.12435319  0.29868577  0.44789583  1
  O  O7  1  0.12162665  0.69911311  0.44855795  1
  O  O8  1  0.87837335  0.19911311  0.94855795  1
  O  O9  1  0.87564681  0.79868577  0.94789583  1
  O  O10  1  0.05651486  0.50111997  0.04754508  1
  O  O11  1  0.94348514  0.00111997  0.54754508  1
  O  O12  1  0.48108799  0.29613014  0.00959465  1
  O  O13  1  0.47542388  0.70011029  0.00464327  1
  O  O14  1  0.52457612  0.20011029  0.50464327  1
  O  O15  1  0.51891201  0.79613014  0.50959465  1
  O  O16  1  0.26742437  0.27930163  0.23184915  1
  O  O17  1  0.27342521  0.72484577  0.23497495  1
  O  O18  1  0.72657479  0.22484577  0.73497495  1
  O  O19  1  0.73257563  0.77930163  0.73184915  1
loop_
_geom_bond_atom_site_label_1
_geom_bond_atom_site_label_2
_geom_bond_distance
_geom_bond_site_symmetry_2
Mg0 O12 2.069698 1_555
Mg0 O13 2.086658 1_555
Mg0 O0 2.114495 1_555
Mg0 O17 2.123334 1_555
Mg0 O16 2.125828 1_555
Mg0 O10 2.159057 1_555
Mg1 O15 2.069698 1_545
Mg1 O14 2.086658 1_555
Mg1 O1 2.114495 1_555
Mg1 O18 2.123334 1_555
Mg1 O19 2.125828 1_545
Mg1 O11 2.159057 1_555
As0 O7 1.723648 1_655
As0 O6 1.724616 1_655
As0 O2 1.726687 1_555
As0 O4 1.728232 1_555
As1 O8 1.723648 1_465
As1 O9 1.724616 1_455
As1 O3 1.726687 1_566
As1 O5 1.728232 1_555
H0 O12 1.008892 1_556
H0 O5 1.627608 1_545
H1 O13 1.015483 1_556
H1 O5 1.597557 1_555
H2 O14 1.015483 1_555
H2 O4 1.597557 1_555
H3 O15 1.008892 1_555
H3 O4 1.627608 1_555
H4 N0 1.060164 1_555
H4 O2 1.750953 1_455
H5 N1 1.060164 1_555
H5 O3 1.750953 1_655
H6 O16 1.008007 1_555
H6 O3 1.695680 1_555
H7 O17 1.004224 1_555
H7 O3 1.731695 1_565
H8 O18 1.004224 1_555
H8 O2 1.731695 1_555
H9 O19 1.008007 1_555
H9 O2 1.695680 1_555
H10 O12 1.003016 1_556
H10 O8 1.647143 1_555
H11 O13 1.004409 1_556
H11 O9 1.658221 1_555
H12 O14 1.004409 1_555
H12 O6 1.658221 1_555
H13 O15 1.003016 1_555
H13 O7 1.647143 1_555
H14 O16 1.013314 1_555
H14 O6 1.630999 1_555
H15 O17 1.013396 1_555
H15 O7 1.630546 1_555
H16 O18 1.013396 1_555
H16 O8 1.630546 1_555
H17 O19 1.013314 1_555
H17 O9 1.630999 1_555
H18 O0 1.006724 1_555
H18 O4 1.681151 1_555
H19 O1 1.006724 1_555
H19 O5 1.681151 1_545
H20 O10 1.009998 1_655
H20 O8 1.660881 1_554
H21 O10 1.008993 1_655
H21 O9 1.666343 1_554
H22 O11 1.008993 1_455
H22 O6 1.666343 1_555
H23 O11 1.009998 1_465
H23 O7 1.660881 1_555
H24 O0 0.982966 1_555
H25 O1 0.982966 1_555
H26 N0 1.037484 1_555
H27 N0 1.040804 1_555
H28 N1 1.040804 1_555
H29 N1 1.037484 1_565
H30 N0 1.035005 1_555
H31 N1 1.035005 1_555
