# generated using pymatgen
data_Ca7Mg2N6
_symmetry_space_group_name_H-M   'P 1'
_cell_length_a   7.03587748
_cell_length_b   12.66041259
_cell_length_c   6.42327299
_cell_angle_alpha   89.99999681
_cell_angle_beta   88.00438152
_cell_angle_gamma   25.88082486
_symmetry_Int_Tables_number   1
_chemical_formula_structural   Ca7Mg2N6
_chemical_formula_sum   'Ca7 Mg2 N6'
_cell_volume   248.95509283
_cell_formula_units_Z   1
loop_
 _symmetry_equiv_pos_site_id
 _symmetry_equiv_pos_as_xyz
  1  'x, y, z'
loop_
 _atom_site_type_symbol
 _atom_site_label
 _atom_site_symmetry_multiplicity
 _atom_site_fract_x
 _atom_site_fract_y
 _atom_site_fract_z
 _atom_site_occupancy
  Ca  Ca0  1  0.00000000  0.50000000  0.00000000  1
  Ca  Ca1  1  0.00000000  0.37754938  0.50000000  1
  Ca  Ca2  1  0.00000000  0.62245062  0.50000000  1
  Ca  Ca3  1  0.69960881  0.97767493  0.82512974  1
  Ca  Ca4  1  0.69960881  0.32271626  0.82512974  1
  Ca  Ca5  1  0.30039119  0.02232507  0.17487026  1
  Ca  Ca6  1  0.30039119  0.67728374  0.17487026  1
  Mg  Mg0  1  0.24190646  0.87904677  0.67306155  1
  Mg  Mg1  1  0.75809354  0.12095323  0.32693845  1
  N  N0  1  0.47974428  0.90507616  0.80370956  1
  N  N1  1  0.47974428  0.61517857  0.80370956  1
  N  N2  1  0.52025572  0.09492384  0.19629044  1
  N  N3  1  0.52025572  0.38482143  0.19629044  1
  N  N4  1  0.48908549  0.75545725  0.34078749  1
  N  N5  1  0.51091451  0.24454275  0.65921251  1
loop_
_geom_bond_atom_site_label_1
_geom_bond_atom_site_label_2
_geom_bond_distance
_geom_bond_site_symmetry_2
Ca0 N5 2.589527 1_554
Ca0 N4 2.589527 1_455
Ca0 N2 2.798511 1_555
Ca0 N0 2.798511 1_454
Ca0 N1 2.798519 1_454
Ca0 N3 2.798519 1_555
Ca1 N2 2.437702 1_555
Ca1 N1 2.437703 1_455
Ca1 N4 2.483408 1_455
Ca1 N5 2.483408 1_555
Ca2 N0 2.437702 1_455
Ca2 N3 2.437703 1_555
Ca2 N5 2.483408 1_555
Ca2 N4 2.483408 1_455
Ca3 N1 2.414257 1_655
Ca3 N0 2.414549 1_555
Ca3 N2 2.428890 1_566
Ca3 N5 2.518097 1_565
Ca4 N0 2.414259 1_645
Ca4 N1 2.414537 1_555
Ca4 N3 2.428888 1_556
Ca4 N5 2.518097 1_555
Ca5 N3 2.414257 1_455
Ca5 N2 2.414549 1_555
Ca5 N0 2.428890 1_544
Ca5 N4 2.518097 1_545
Ca6 N2 2.414259 1_465
Ca6 N3 2.414537 1_555
Ca6 N1 2.428888 1_554
Ca6 N4 2.518097 1_555
Mg0 N0 2.168685 1_555
Mg0 N1 2.168695 1_555
Mg0 N4 2.207475 1_555
Mg0 N5 2.253839 1_465
Mg1 N2 2.168685 1_555
Mg1 N3 2.168695 1_555
Mg1 N5 2.207475 1_555
Mg1 N4 2.253839 1_645
