# generated using pymatgen
data_MnBe2
_symmetry_space_group_name_H-M   'P 1'
_cell_length_a   4.18102991
_cell_length_b   4.18102707
_cell_length_c   6.79667569
_cell_angle_alpha   89.99998279
_cell_angle_beta   89.99997755
_cell_angle_gamma   119.99941212
_symmetry_Int_Tables_number   1
_chemical_formula_structural   MnBe2
_chemical_formula_sum   'Mn4 Be8'
_cell_volume   102.89541086
_cell_formula_units_Z   4
loop_
 _symmetry_equiv_pos_site_id
 _symmetry_equiv_pos_as_xyz
  1  'x, y, z'
loop_
 _atom_site_type_symbol
 _atom_site_label
 _atom_site_symmetry_multiplicity
 _atom_site_fract_x
 _atom_site_fract_y
 _atom_site_fract_z
 _atom_site_occupancy
  Mn  Mn0  1  0.33333464  0.66666636  0.06260971  1
  Mn  Mn1  1  0.66666665  0.33333535  0.56290805  1
  Mn  Mn2  1  0.66666512  0.33333388  0.93708947  1
  Mn  Mn3  1  0.33333310  0.66666490  0.43739286  1
  Be  Be0  1  -0.00000006  1.00000006  0.00001056  1
  Be  Be1  1  -0.00000006  1.00000006  0.49998436  1
  Be  Be2  1  0.82974528  0.65949346  0.24999616  1
  Be  Be3  1  0.17023480  0.82976420  0.75000590  1
  Be  Be4  1  0.65955194  0.82977605  0.75000583  1
  Be  Be5  1  0.34050554  0.17025372  0.24999616  1
  Be  Be6  1  0.82973609  0.17026391  0.24999610  1
  Be  Be7  1  0.17022595  0.34044906  0.75000583  1
loop_
_geom_bond_atom_site_label_1
_geom_bond_atom_site_label_2
_geom_bond_distance
_geom_bond_site_symmetry_2
Mn0 Mn3 2.547280 1_555
Mn0 Mn2 2.560218 1_554
Mn0 Mn2 2.560252 1_564
Mn0 Mn2 2.560262 1_454
Mn1 Mn2 2.543190 1_555
Mn1 Mn3 2.560207 1_555
Mn1 Mn3 2.560239 1_655
Mn1 Mn3 2.560252 1_545
Be0 Be4 2.099263 1_454
Be0 Be7 2.099263 1_564
Be0 Be5 2.099280 1_565
Be0 Be2 2.099281 1_455
Be0 Be3 2.099304 1_554
Be0 Be6 2.099320 1_465
Be0 Mn0 2.451126 1_555
Be0 Mn0 2.451136 1_455
Be0 Mn0 2.451139 1_565
Be0 Mn2 2.451507 1_464
Be0 Mn2 2.451517 1_564
Be0 Mn2 2.451519 1_454
Be1 Be5 2.099293 1_565
Be1 Be2 2.099296 1_455
Be1 Be6 2.099335 1_465
Be1 Be4 2.099354 1_455
Be1 Be7 2.099357 1_565
Be1 Be3 2.099397 1_555
Be1 Mn3 2.451116 1_555
Be1 Mn3 2.451124 1_565
Be1 Mn3 2.451133 1_455
Be1 Mn1 2.451510 1_465
Be1 Mn1 2.451516 1_455
Be1 Mn1 2.451526 1_565
Be2 Be6 2.045463 1_555
Be2 Be5 2.045543 1_555
Be2 Be5 2.135522 1_665
Be2 Be6 2.135564 1_565
Be2 Mn2 2.432633 1_554
Be2 Mn1 2.432660 1_555
Be2 Mn0 2.448050 1_555
Be2 Mn0 2.448070 1_655
Be2 Mn3 2.448088 1_555
Be2 Mn3 2.448104 1_655
Be3 Be7 2.045821 1_555
Be3 Be4 2.045825 1_555
Be3 Be4 2.135205 1_455
Be3 Be7 2.135206 1_565
Be3 Mn0 2.430895 1_556
Be3 Mn3 2.430949 1_555
Be3 Mn2 2.447003 1_455
Be3 Mn2 2.447004 1_565
Be3 Mn1 2.447049 1_455
Be3 Mn1 2.447058 1_565
Be4 Be7 2.045906 1_555
Be4 Be7 2.135159 1_665
Be4 Mn0 2.430934 1_556
Be4 Mn3 2.430992 1_555
Be4 Mn2 2.446981 1_555
Be4 Mn2 2.446991 1_565
Be4 Mn1 2.447029 1_555
Be4 Mn1 2.447043 1_565
Be5 Be6 2.045466 1_555
Be5 Be6 2.135564 1_455
Be5 Mn2 2.432632 1_554
Be5 Mn1 2.432667 1_555
Be5 Mn0 2.448051 1_555
Be5 Mn0 2.448066 1_545
Be5 Mn3 2.448086 1_555
Be5 Mn3 2.448104 1_545
Be6 Mn2 2.432594 1_554
Be6 Mn1 2.432625 1_555
Be6 Mn0 2.448075 1_545
Be6 Mn0 2.448077 1_655
Be6 Mn3 2.448110 1_655
Be6 Mn3 2.448115 1_545
Be7 Mn0 2.430935 1_556
Be7 Mn3 2.430985 1_555
Be7 Mn2 2.446976 1_555
Be7 Mn2 2.446999 1_455
Be7 Mn1 2.447028 1_555
Be7 Mn1 2.447047 1_455
