# generated using pymatgen
data_Co2O3F
_symmetry_space_group_name_H-M   'P 1'
_cell_length_a   4.43417966
_cell_length_b   4.43414517
_cell_length_c   12.06720629
_cell_angle_alpha   90.16251554
_cell_angle_beta   89.83742969
_cell_angle_gamma   93.66966919
_symmetry_Int_Tables_number   1
_chemical_formula_structural   Co2O3F
_chemical_formula_sum   'Co8 O12 F4'
_cell_volume   236.77468695
_cell_formula_units_Z   4
loop_
 _symmetry_equiv_pos_site_id
 _symmetry_equiv_pos_as_xyz
  1  'x, y, z'
loop_
 _atom_site_type_symbol
 _atom_site_label
 _atom_site_symmetry_multiplicity
 _atom_site_fract_x
 _atom_site_fract_y
 _atom_site_fract_z
 _atom_site_occupancy
  Co  Co0  1  0.46622500  0.53378300  0.62802300  1
  Co  Co1  1  0.53386700  0.46612400  0.37191600  1
  Co  Co2  1  0.99995100  0.00004900  0.99999900  1
  Co  Co3  1  0.00004600  0.99995500  0.50009300  1
  Co  Co4  1  0.99805400  0.00194200  0.24916500  1
  Co  Co5  1  0.00199200  0.99801300  0.75087000  1
  Co  Co6  1  0.52873900  0.47126000  0.12110500  1
  Co  Co7  1  0.47133100  0.52867000  0.87892700  1
  O  O0  1  0.18004600  0.81994300  0.62516600  1
  O  O1  1  0.19227400  0.80772500  0.87949100  1
  O  O2  1  0.80767400  0.19233100  0.12047300  1
  O  O3  1  0.81996900  0.18004100  0.37489700  1
  O  O4  1  0.30534900  0.30541400  0.99995500  1
  O  O5  1  0.29254400  0.29254500  0.50002300  1
  O  O6  1  0.69458400  0.69465300  0.99995400  1
  O  O7  1  0.70744700  0.70746200  0.50002600  1
  O  O8  1  0.31892000  0.28156100  0.24217000  1
  O  O9  1  0.28148900  0.31885600  0.75777000  1
  O  O10  1  0.71843300  0.68108100  0.24216900  1
  O  O11  1  0.68114200  0.71852000  0.75776900  1
  F  F0  1  0.22463400  0.77536200  0.12503600  1
  F  F1  1  0.21884000  0.78115400  0.37093100  1
  F  F2  1  0.78116700  0.21883600  0.62917700  1
  F  F3  1  0.77528400  0.22472100  0.87489300  1
loop_
_geom_bond_atom_site_label_1
_geom_bond_atom_site_label_2
_geom_bond_distance
_geom_bond_site_symmetry_2
Co0 O0 1.851520 1_555
Co0 O11 1.982870 1_555
Co0 O9 1.982895 1_555
Co0 O7 2.003693 1_555
Co0 O5 2.003759 1_555
Co0 F2 2.037295 1_555
Co1 O3 1.851056 1_555
Co1 O8 1.982637 1_555
Co1 O10 1.982670 1_555
Co1 O5 2.004787 1_555
Co1 O7 2.004849 1_555
Co1 F1 2.037818 1_555
Co2 O4 1.852705 1_655
Co2 O6 1.852705 1_545
Co2 O2 1.909535 1_556
Co2 O1 1.910031 1_645
Co2 F0 2.099030 1_646
Co2 F3 2.099561 1_555
Co3 O5 1.774822 1_565
Co3 O7 1.774834 1_455
Co3 O0 1.909797 1_555
Co3 O3 1.911272 1_465
Co3 F2 2.100889 1_465
Co3 F1 2.101226 1_555
Co4 O10 1.828320 1_545
Co4 O8 1.828332 1_655
Co4 O3 1.901433 1_555
Co4 O2 1.985724 1_555
Co4 F1 2.053042 1_645
Co4 F0 2.091560 1_645
Co5 O9 1.827863 1_565
Co5 O11 1.827876 1_455
Co5 O0 1.901047 1_555
Co5 O1 1.984651 1_555
Co5 F2 2.052576 1_465
Co5 F3 2.091226 1_465
Co6 O2 1.804236 1_555
Co6 O4 1.888950 1_554
Co6 O6 1.888961 1_554
Co6 O10 1.899063 1_555
Co6 O8 1.899077 1_555
Co6 F0 1.967457 1_555
Co7 O1 1.805038 1_555
Co7 O6 1.887711 1_555
Co7 O4 1.887722 1_555
Co7 O9 1.900184 1_555
Co7 O11 1.900201 1_555
Co7 F3 1.966496 1_555
