# generated using pymatgen
data_Sr5(RhN3)2
_symmetry_space_group_name_H-M   'P 1'
_cell_length_a   6.31205873
_cell_length_b   6.92634679
_cell_length_c   13.24929266
_cell_angle_alpha   89.99999892
_cell_angle_beta   100.70254785
_cell_angle_gamma   123.27511950
_symmetry_Int_Tables_number   1
_chemical_formula_structural   Sr5(RhN3)2
_chemical_formula_sum   'Sr10 Rh4 N12'
_cell_volume   472.18289266
_cell_formula_units_Z   2
loop_
 _symmetry_equiv_pos_site_id
 _symmetry_equiv_pos_as_xyz
  1  'x, y, z'
loop_
 _atom_site_type_symbol
 _atom_site_label
 _atom_site_symmetry_multiplicity
 _atom_site_fract_x
 _atom_site_fract_y
 _atom_site_fract_z
 _atom_site_occupancy
  Sr  Sr0  1  0.11520500  0.79688600  0.99865100  1
  Sr  Sr1  1  0.88479500  0.68168100  0.50134900  1
  Sr  Sr2  1  0.88479500  0.20311400  0.00134900  1
  Sr  Sr3  1  0.11520500  0.31831900  0.49865100  1
  Sr  Sr4  1  0.32005500  0.05000400  0.72261300  1
  Sr  Sr5  1  0.67994500  0.72994900  0.77738700  1
  Sr  Sr6  1  0.67994500  0.94999600  0.27738700  1
  Sr  Sr7  1  0.32005500  0.27005100  0.22261300  1
  Sr  Sr8  1  0.00000000  0.36924200  0.75000000  1
  Sr  Sr9  1  0.00000000  0.63075800  0.25000000  1
  Rh  Rh0  1  0.53715700  0.85598300  0.55780100  1
  Rh  Rh1  1  0.46284300  0.31882700  0.94219900  1
  Rh  Rh2  1  0.46284300  0.14401700  0.44219900  1
  Rh  Rh3  1  0.53715700  0.68117300  0.05780100  1
  N  N0  1  0.89715500  0.99052600  0.62686000  1
  N  N1  1  0.10284500  0.09337000  0.87314000  1
  N  N2  1  0.10284500  0.00947400  0.37314000  1
  N  N3  1  0.89715500  0.90663000  0.12686000  1
  N  N4  1  0.28601800  0.67983000  0.64426200  1
  N  N5  1  0.71398200  0.39381200  0.85573800  1
  N  N6  1  0.71398200  0.32017000  0.35573800  1
  N  N7  1  0.28601800  0.60618800  0.14426200  1
  N  N8  1  0.58396400  0.25159900  0.58085400  1
  N  N9  1  0.41603600  0.66763500  0.91914600  1
  N  N10  1  0.41603600  0.74840100  0.41914600  1
  N  N11  1  0.58396400  0.33236500  0.08085400  1
loop_
_geom_bond_atom_site_label_1
_geom_bond_atom_site_label_2
_geom_bond_distance
_geom_bond_site_symmetry_2
N0 Rh0 1.942476 1_555
N0 Sr4 2.537758 1_665
N0 Sr1 2.667611 1_555
N0 Sr3 2.715507 1_665
N0 Sr5 2.723055 1_555
N0 Sr8 2.775263 1_665
N1 Rh1 1.942478 1_555
N1 Sr5 2.537755 1_445
N1 Sr0 2.667605 1_545
N1 Sr2 2.715511 1_456
N1 Sr4 2.723052 1_555
N1 Sr8 2.775268 1_555
N2 Rh2 1.942476 1_555
N2 Sr6 2.537758 1_445
N2 Sr3 2.667611 1_555
N2 Sr1 2.715507 1_445
N2 Sr7 2.723055 1_555
N2 Sr9 2.775263 1_545
N3 Rh3 1.942478 1_555
N3 Sr7 2.537755 1_665
N3 Sr2 2.667605 1_565
N3 Sr0 2.715511 1_654
N3 Sr6 2.723052 1_555
N3 Sr9 2.775268 1_655
N4 Rh0 1.966197 1_555
N4 Sr8 2.554900 1_555
N4 Sr5 2.614970 1_555
N4 Sr4 2.647709 1_565
N4 Sr3 2.723819 1_555
N4 Sr1 2.872943 1_455
N5 Rh1 1.966198 1_555
N5 Sr8 2.554899 1_655
N5 Sr4 2.614970 1_555
N5 Sr5 2.647709 1_555
N5 Sr2 2.723819 1_556
N5 Sr0 2.872943 1_655
N6 Rh2 1.966197 1_555
N6 Sr9 2.554900 1_655
N6 Sr7 2.614970 1_555
N6 Sr6 2.647709 1_545
N6 Sr1 2.723819 1_555
N6 Sr3 2.872943 1_655
N7 Rh3 1.966198 1_555
N7 Sr9 2.554899 1_555
N7 Sr6 2.614970 1_555
N7 Sr7 2.647709 1_555
N7 Sr0 2.723819 1_554
N7 Sr2 2.872943 1_455
N8 Rh2 1.835164 1_555
N8 Rh0 2.601393 1_545
N8 Sr4 2.619541 1_555
N8 Sr8 2.836994 1_655
N8 Sr1 2.850447 1_555
N8 Sr3 3.233878 1_555
N9 Rh3 1.835165 1_556
N9 Rh1 2.601386 1_555
N9 Sr5 2.619541 1_555
N9 Sr8 2.836994 1_555
N9 Sr0 2.850447 1_555
N9 Sr2 3.233878 1_566
N10 Rh0 1.835164 1_555
N10 Rh2 2.601393 1_565
N10 Sr6 2.619541 1_555
N10 Sr9 2.836994 1_555
N10 Sr3 2.850447 1_555
N10 Sr1 3.233878 1_555
N11 Rh1 1.835165 1_554
N11 Rh3 2.601386 1_555
N11 Sr7 2.619541 1_555
N11 Sr9 2.836994 1_655
N11 Sr2 2.850447 1_555
N11 Sr0 3.233878 1_544
