# generated using pymatgen
data_TiInPd2
_symmetry_space_group_name_H-M   'P 1'
_cell_length_a   6.52225670
_cell_length_b   6.52225670
_cell_length_c   12.59346054
_cell_angle_alpha   90.00000000
_cell_angle_beta   90.00000000
_cell_angle_gamma   90.00000000
_symmetry_Int_Tables_number   1
_chemical_formula_structural   TiInPd2
_chemical_formula_sum   'Ti8 In8 Pd16'
_cell_volume   535.72370147
_cell_formula_units_Z   8
loop_
 _symmetry_equiv_pos_site_id
 _symmetry_equiv_pos_as_xyz
  1  'x, y, z'
loop_
 _atom_site_type_symbol
 _atom_site_label
 _atom_site_symmetry_multiplicity
 _atom_site_fract_x
 _atom_site_fract_y
 _atom_site_fract_z
 _atom_site_occupancy
  Ti  Ti0_0  1  0.00000000  0.00000000  0.25000000  1
  Ti  Ti0_1  1  0.00000000  0.00000000  0.75000000  1
  Ti  Ti0_2  1  0.00000000  0.50000000  0.25000000  1
  Ti  Ti0_3  1  0.00000000  0.50000000  0.75000000  1
  Ti  Ti0_4  1  0.50000000  0.00000000  0.25000000  1
  Ti  Ti0_5  1  0.50000000  0.00000000  0.75000000  1
  Ti  Ti0_6  1  0.50000000  0.50000000  0.25000000  1
  Ti  Ti0_7  1  0.50000000  0.50000000  0.75000000  1
  In  In0_0  1  0.00000000  0.00000000  0.00000000  1
  In  In0_1  1  0.00000000  0.00000000  0.50000000  1
  In  In0_2  1  0.00000000  0.50000000  0.00000000  1
  In  In0_3  1  0.00000000  0.50000000  0.50000000  1
  In  In0_4  1  0.50000000  0.00000000  0.00000000  1
  In  In0_5  1  0.50000000  0.00000000  0.50000000  1
  In  In0_6  1  0.50000000  0.50000000  0.00000000  1
  In  In0_7  1  0.50000000  0.50000000  0.50000000  1
  Pd  Pd0_0  1  0.25000000  0.25000000  0.13924926  1
  Pd  Pd0_1  1  0.25000000  0.25000000  0.63924925  1
  Pd  Pd0_2  1  0.25000000  0.75000000  0.13924926  1
  Pd  Pd0_3  1  0.25000000  0.75000000  0.63924925  1
  Pd  Pd0_4  1  0.75000000  0.25000000  0.13924926  1
  Pd  Pd0_5  1  0.75000000  0.25000000  0.63924925  1
  Pd  Pd0_6  1  0.75000000  0.75000000  0.13924926  1
  Pd  Pd0_7  1  0.75000000  0.75000000  0.63924925  1
  Pd  Pd1_0  1  0.25000000  0.25000000  0.36075074  1
  Pd  Pd1_1  1  0.25000000  0.25000000  0.86075075  1
  Pd  Pd1_2  1  0.25000000  0.75000000  0.36075074  1
  Pd  Pd1_3  1  0.25000000  0.75000000  0.86075075  1
  Pd  Pd1_4  1  0.75000000  0.25000000  0.36075074  1
  Pd  Pd1_5  1  0.75000000  0.25000000  0.86075075  1
  Pd  Pd1_6  1  0.75000000  0.75000000  0.36075074  1
  Pd  Pd1_7  1  0.75000000  0.75000000  0.86075075  1
loop_
_geom_bond_atom_site_label_1
_geom_bond_atom_site_label_2
_geom_bond_distance
_geom_bond_site_symmetry_2
In0_0 Pd1_1 2.897015 1_554
In0_0 Pd1_3 2.897015 1_544
In0_0 Pd0_0 2.897015 1_555
In0_0 Pd0_2 2.897015 1_545
In0_0 Pd1_5 2.897015 1_454
In0_0 Pd1_7 2.897015 1_444
In0_0 Pd0_4 2.897015 1_455
In0_0 Pd0_6 2.897015 1_445
In0_0 Ti0_1 3.148365 1_554
In0_0 Ti0_0 3.148365 1_555
In0_0 In0_4 3.261128 1_555
In0_0 In0_2 3.261128 1_555
In0_0 In0_2 3.261128 1_545
In0_0 In0_4 3.261128 1_455
In0_1 Pd0_1 2.897015 1_555
In0_1 Pd1_2 2.897015 1_545
In0_1 Pd0_5 2.897015 1_455
In0_1 Pd0_3 2.897015 1_545
In0_1 Pd1_0 2.897015 1_555
In0_1 Pd1_4 2.897015 1_455
In0_1 Pd0_7 2.897015 1_445
In0_1 Pd1_6 2.897015 1_445
In0_1 Ti0_0 3.148365 1_555
In0_1 Ti0_1 3.148365 1_555
In0_1 In0_5 3.261128 1_555
In0_1 In0_3 3.261128 1_555
In0_1 In0_3 3.261128 1_545
In0_1 In0_5 3.261128 1_455
In0_2 Pd1_1 2.897015 1_554
In0_2 Pd1_3 2.897015 1_554
In0_2 Pd0_2 2.897015 1_555
In0_2 Pd1_7 2.897015 1_454
In0_2 Pd0_0 2.897015 1_555
In0_2 Pd1_5 2.897015 1_454
In0_2 Pd0_6 2.897015 1_455
In0_2 Pd0_4 2.897015 1_455
In0_2 Ti0_2 3.148365 1_555
In0_2 Ti0_3 3.148365 1_554
In0_2 In0_6 3.261128 1_555
In0_2 In0_6 3.261128 1_455
In0_3 Pd0_1 2.897015 1_555
In0_3 Pd0_3 2.897015 1_555
In0_3 Pd1_2 2.897015 1_555
In0_3 Pd0_7 2.897015 1_455
In0_3 Pd0_5 2.897015 1_455
In0_3 Pd1_6 2.897015 1_455
In0_3 Pd1_0 2.897015 1_555
In0_3 Pd1_4 2.897015 1_455
In0_3 Ti0_2 3.148365 1_555
In0_3 Ti0_3 3.148365 1_555
In0_3 In0_7 3.261128 1_555
In0_3 In0_7 3.261128 1_455
In0_4 Pd1_1 2.897015 1_554
In0_4 Pd1_5 2.897015 1_554
In0_4 Pd1_3 2.897015 1_544
In0_4 Pd0_6 2.897015 1_545
In0_4 Pd0_0 2.897015 1_555
In0_4 Pd0_2 2.897015 1_545
In0_4 Pd0_4 2.897015 1_555
In0_4 Pd1_7 2.897015 1_544
In0_4 Ti0_4 3.148365 1_555
In0_4 Ti0_5 3.148365 1_554
In0_4 In0_6 3.261128 1_555
In0_4 In0_6 3.261128 1_545
In0_5 Pd0_1 2.897015 1_555
In0_5 Pd0_5 2.897015 1_555
In0_5 Pd0_7 2.897015 1_545
In0_5 Pd1_6 2.897015 1_545
In0_5 Pd1_4 2.897015 1_555
In0_5 Pd1_2 2.897015 1_545
In0_5 Pd0_3 2.897015 1_545
In0_5 Pd1_0 2.897015 1_555
In0_5 Ti0_5 3.148365 1_555
In0_5 Ti0_4 3.148365 1_555
In0_5 In0_7 3.261128 1_555
In0_5 In0_7 3.261128 1_545
In0_6 Pd1_1 2.897015 1_554
In0_6 Pd1_3 2.897015 1_554
In0_6 Pd1_7 2.897015 1_554
In0_6 Pd1_5 2.897015 1_554
In0_6 Pd0_2 2.897015 1_555
In0_6 Pd0_6 2.897015 1_555
In0_6 Pd0_0 2.897015 1_555
In0_6 Pd0_4 2.897015 1_555
In0_6 Ti0_7 3.148365 1_554
In0_6 Ti0_6 3.148365 1_555
In0_7 Pd0_5 2.897015 1_555
In0_7 Pd0_1 2.897015 1_555
In0_7 Pd0_3 2.897015 1_555
In0_7 Pd0_7 2.897015 1_555
In0_7 Pd1_2 2.897015 1_555
In0_7 Pd1_6 2.897015 1_555
In0_7 Pd1_4 2.897015 1_555
In0_7 Pd1_0 2.897015 1_555
In0_7 Ti0_6 3.148365 1_555
In0_7 Ti0_7 3.148365 1_555
Pd0_0 Ti0_0 2.694952 1_555
Pd0_0 Ti0_4 2.694952 1_555
Pd0_0 Ti0_6 2.694952 1_555
Pd0_0 Ti0_2 2.694952 1_555
Pd0_0 Pd1_0 2.789470 1_555
Pd0_1 Ti0_3 2.694952 1_555
Pd0_1 Ti0_7 2.694952 1_555
Pd0_1 Ti0_1 2.694952 1_555
Pd0_1 Ti0_5 2.694952 1_555
Pd0_1 Pd1_1 2.789470 1_555
Pd0_2 Ti0_6 2.694952 1_555
Pd0_2 Ti0_2 2.694952 1_555
Pd0_2 Ti0_0 2.694952 1_565
Pd0_2 Ti0_4 2.694952 1_565
Pd0_2 Pd1_2 2.789470 1_555
Pd0_3 Ti0_3 2.694952 1_555
Pd0_3 Ti0_7 2.694952 1_555
Pd0_3 Ti0_1 2.694952 1_565
Pd0_3 Ti0_5 2.694952 1_565
Pd0_3 Pd1_3 2.789470 1_555
Pd0_4 Ti0_4 2.694952 1_555
Pd0_4 Ti0_6 2.694952 1_555
Pd0_4 Ti0_2 2.694952 1_655
Pd0_4 Ti0_0 2.694952 1_655
Pd0_4 Pd1_4 2.789470 1_555
Pd0_5 Ti0_7 2.694952 1_555
Pd0_5 Ti0_5 2.694952 1_555
Pd0_5 Ti0_1 2.694952 1_655
Pd0_5 Ti0_3 2.694952 1_655
Pd0_5 Pd1_5 2.789470 1_555
Pd0_6 Ti0_6 2.694952 1_555
Pd0_6 Ti0_2 2.694952 1_655
Pd0_6 Ti0_4 2.694952 1_565
Pd0_6 Ti0_0 2.694952 1_665
Pd0_6 Pd1_6 2.789470 1_555
Pd0_7 Ti0_7 2.694952 1_555
Pd0_7 Ti0_5 2.694952 1_565
Pd0_7 Ti0_3 2.694952 1_655
Pd0_7 Ti0_1 2.694952 1_665
Pd0_7 Pd1_7 2.789470 1_555
Pd1_0 Ti0_0 2.694952 1_555
Pd1_0 Ti0_4 2.694952 1_555
Pd1_0 Ti0_6 2.694952 1_555
Pd1_0 Ti0_2 2.694952 1_555
Pd1_1 Ti0_3 2.694952 1_555
Pd1_1 Ti0_7 2.694952 1_555
Pd1_1 Ti0_1 2.694952 1_555
Pd1_1 Ti0_5 2.694952 1_555
Pd1_2 Ti0_6 2.694952 1_555
Pd1_2 Ti0_2 2.694952 1_555
Pd1_2 Ti0_0 2.694952 1_565
Pd1_2 Ti0_4 2.694952 1_565
Pd1_3 Ti0_3 2.694952 1_555
Pd1_3 Ti0_7 2.694952 1_555
Pd1_3 Ti0_1 2.694952 1_565
Pd1_3 Ti0_5 2.694952 1_565
Pd1_4 Ti0_4 2.694952 1_555
Pd1_4 Ti0_6 2.694952 1_555
Pd1_4 Ti0_2 2.694952 1_655
Pd1_4 Ti0_0 2.694952 1_655
Pd1_5 Ti0_7 2.694952 1_555
Pd1_5 Ti0_5 2.694952 1_555
Pd1_5 Ti0_1 2.694952 1_655
Pd1_5 Ti0_3 2.694952 1_655
Pd1_6 Ti0_6 2.694952 1_555
Pd1_6 Ti0_2 2.694952 1_655
Pd1_6 Ti0_4 2.694952 1_565
Pd1_6 Ti0_0 2.694952 1_665
Pd1_7 Ti0_7 2.694952 1_555
Pd1_7 Ti0_5 2.694952 1_565
Pd1_7 Ti0_3 2.694952 1_655
Pd1_7 Ti0_1 2.694952 1_665
