# generated using pymatgen
data_Yb(Mo3S4)2
_symmetry_space_group_name_H-M   'P 1'
_cell_length_a   10.76763367
_cell_length_b   6.60277100
_cell_length_c   11.59998834
_cell_angle_alpha   38.87184822
_cell_angle_beta   145.30425000
_cell_angle_gamma   130.07647520
_symmetry_Int_Tables_number   1
_chemical_formula_structural   Yb(Mo3S4)2
_chemical_formula_sum   'Yb1 Mo6 S8'
_cell_volume   294.59771239
_cell_formula_units_Z   1
loop_
 _symmetry_equiv_pos_site_id
 _symmetry_equiv_pos_as_xyz
  1  'x, y, z'
loop_
 _atom_site_type_symbol
 _atom_site_label
 _atom_site_symmetry_multiplicity
 _atom_site_fract_x
 _atom_site_fract_y
 _atom_site_fract_z
 _atom_site_occupancy
  Yb  Yb0  1  0.00000000  0.00000000  0.00000000  1
  Mo  Mo0  1  0.18584400  0.04217100  0.79254200  1
  Mo  Mo1  1  0.38478400  0.63180600  0.26826100  1
  Mo  Mo2  1  0.36892500  0.30616200  0.00840100  1
  Mo  Mo3  1  0.81415600  0.95782900  0.20745800  1
  Mo  Mo4  1  0.61521600  0.36819400  0.73173900  1
  Mo  Mo5  1  0.63107500  0.69383800  0.99159900  1
  S  S0  1  0.08894200  0.36762600  0.23669300  1
  S  S1  1  0.44897600  0.89762000  0.38691400  1
  S  S2  1  0.97916700  0.51135400  0.36307700  1
  S  S3  1  0.91105800  0.63237400  0.76330700  1
  S  S4  1  0.55102400  0.10238000  0.61308600  1
  S  S5  1  0.02083300  0.48864600  0.63692300  1
  S  S6  1  0.43792500  0.68524400  0.05465400  1
  S  S7  1  0.56207500  0.31475600  0.94534600  1
loop_
_geom_bond_atom_site_label_1
_geom_bond_atom_site_label_2
_geom_bond_distance
_geom_bond_site_symmetry_2
Mo0 S3 2.379306 1_445
Mo0 S6 2.382141 1_546
Mo0 S2 2.446091 1_455
Mo0 S7 2.562051 1_555
Mo0 Mo2 2.729287 1_556
Mo1 S0 2.290409 1_555
Mo1 S4 2.436111 1_555
Mo1 S1 2.467312 1_555
Mo1 S6 2.702171 1_555
Mo1 Mo2 2.859162 1_565
Mo2 S5 2.289271 1_554
Mo2 Mo5 2.319970 1_554
Mo2 S1 2.371974 1_545
Mo2 S6 2.479100 1_555
Mo2 S7 2.673672 1_554
Mo2 Yb0 3.034221 1_555
Mo3 S0 2.379306 1_665
Mo3 S7 2.382141 1_564
Mo3 S5 2.446091 1_655
Mo3 S6 2.562051 1_555
Mo3 Mo5 2.729287 1_554
Mo4 S3 2.290409 1_555
Mo4 S1 2.436111 1_555
Mo4 S4 2.467312 1_555
Mo4 S7 2.702171 1_555
Mo4 Mo5 2.859162 1_545
Mo5 S2 2.289271 1_556
Mo5 S4 2.371974 1_565
Mo5 S7 2.479100 1_555
Mo5 S6 2.673672 1_556
Mo5 Yb0 3.034221 1_666
S0 Yb0 2.977242 1_565
S1 Yb0 2.788708 1_565
S2 Yb0 2.767869 1_665
S3 Yb0 2.977242 1_656
S4 Yb0 2.788708 1_656
S5 Yb0 2.767869 1_556
