# generated using pymatgen
data_Mn6PtRh
_symmetry_space_group_name_H-M   'P 1'
_cell_length_a   3.85487379
_cell_length_b   3.85476059
_cell_length_c   7.66011398
_cell_angle_alpha   90.00000000
_cell_angle_beta   90.00000000
_cell_angle_gamma   90.00000000
_symmetry_Int_Tables_number   1
_chemical_formula_structural   Mn6PtRh
_chemical_formula_sum   'Mn6 Pt1 Rh1'
_cell_volume   113.82634893
_cell_formula_units_Z   1
loop_
 _symmetry_equiv_pos_site_id
 _symmetry_equiv_pos_as_xyz
  1  'x, y, z'
loop_
 _atom_site_type_symbol
 _atom_site_label
 _atom_site_symmetry_multiplicity
 _atom_site_fract_x
 _atom_site_fract_y
 _atom_site_fract_z
 _atom_site_occupancy
  Mn  Mn0  1  0.50000000  0.50000000  -0.00000000  1
  Mn  Mn1  1  0.50000000  0.50000000  0.50000000  1
  Mn  Mn2  1  0.50000000  -0.00000000  0.25305165  1
  Mn  Mn3  1  0.50000000  -0.00000000  0.74694835  1
  Mn  Mn4  1  -0.00000000  0.50000000  0.25305250  1
  Mn  Mn5  1  -0.00000000  0.50000000  0.74694750  1
  Pt  Pt0  1  0.00000000  -0.00000000  -0.00000000  1
  Rh  Rh0  1  0.00000000  -0.00000000  0.50000000  1
loop_
_geom_bond_atom_site_label_1
_geom_bond_atom_site_label_2
_geom_bond_distance
_geom_bond_site_symmetry_2
Mn0 Pt0 2.725767 1_555
Mn0 Pt0 2.725767 1_655
Mn0 Pt0 2.725767 1_565
Mn0 Pt0 2.725767 1_665
Mn0 Mn2 2.733534 1_565
Mn0 Mn3 2.733534 1_564
Mn0 Mn3 2.733534 1_554
Mn0 Mn2 2.733534 1_555
Mn0 Mn5 2.733578 1_654
Mn0 Mn4 2.733578 1_655
Mn0 Mn5 2.733578 1_554
Mn0 Mn4 2.733578 1_555
Mn1 Mn2 2.700582 1_555
Mn1 Mn2 2.700582 1_565
Mn1 Mn3 2.700582 1_555
Mn1 Mn3 2.700582 1_565
Mn1 Mn4 2.700618 1_555
Mn1 Mn5 2.700618 1_555
Mn1 Mn4 2.700618 1_655
Mn1 Mn5 2.700618 1_655
Mn1 Rh0 2.725767 1_555
Mn1 Rh0 2.725767 1_655
Mn1 Rh0 2.725767 1_565
Mn1 Rh0 2.725767 1_665
Mn2 Rh0 2.700623 1_655
Mn2 Rh0 2.700623 1_555
Mn2 Mn4 2.725767 1_555
Mn2 Mn4 2.725767 1_645
Mn2 Mn4 2.725767 1_545
Mn2 Mn4 2.725767 1_655
Mn2 Pt0 2.733574 1_655
Mn2 Pt0 2.733574 1_555
Mn3 Rh0 2.700623 1_555
Mn3 Rh0 2.700623 1_655
Mn3 Mn5 2.725767 1_655
Mn3 Mn5 2.725767 1_645
Mn3 Mn5 2.725767 1_555
Mn3 Mn5 2.725767 1_545
Mn3 Pt0 2.733574 1_556
Mn3 Pt0 2.733574 1_656
Mn4 Rh0 2.700578 1_565
Mn4 Rh0 2.700578 1_555
Mn4 Pt0 2.733538 1_555
Mn4 Pt0 2.733538 1_565
Mn5 Rh0 2.700578 1_565
Mn5 Rh0 2.700578 1_555
Mn5 Pt0 2.733538 1_556
Mn5 Pt0 2.733538 1_566
