# generated using pymatgen
data_LiGaPO5
_symmetry_space_group_name_H-M   'P 1'
_cell_length_a   5.16439800
_cell_length_b   5.37031102
_cell_length_c   7.21865145
_cell_angle_alpha   105.95718665
_cell_angle_beta   108.20730330
_cell_angle_gamma   99.76791095
_symmetry_Int_Tables_number   1
_chemical_formula_structural   LiGaPO5
_chemical_formula_sum   'Li2 Ga2 P2 O10'
_cell_volume   175.54918537
_cell_formula_units_Z   2
loop_
 _symmetry_equiv_pos_site_id
 _symmetry_equiv_pos_as_xyz
  1  'x, y, z'
loop_
 _atom_site_type_symbol
 _atom_site_label
 _atom_site_symmetry_multiplicity
 _atom_site_fract_x
 _atom_site_fract_y
 _atom_site_fract_z
 _atom_site_occupancy
  Li  Li0  1  0.72725700  0.37798200  0.30568800  1
  Li  Li1  1  0.27274300  0.62201800  0.69431200  1
  Ga  Ga0  1  0.00000000  0.00000000  0.00000000  1
  Ga  Ga1  1  0.00000000  0.00000000  0.50000000  1
  P  P0  1  0.32209000  0.64566600  0.26581200  1
  P  P1  1  0.67791000  0.35433400  0.73418800  1
  O  O0  1  0.27273800  0.79644400  0.11122100  1
  O  O1  1  0.72726200  0.20355600  0.88877900  1
  O  O2  1  0.11329400  0.66069300  0.38249600  1
  O  O3  1  0.88670600  0.33930700  0.61750400  1
  O  O4  1  0.36802100  0.24501900  0.57167600  1
  O  O5  1  0.63197900  0.75498100  0.42832400  1
  O  O6  1  0.88402100  0.06780200  0.23637400  1
  O  O7  1  0.11597900  0.93219800  0.76362600  1
  O  O8  1  0.30345900  0.34312700  0.15632200  1
  O  O9  1  0.69654100  0.65687300  0.84367800  1
loop_
_geom_bond_atom_site_label_1
_geom_bond_atom_site_label_2
_geom_bond_distance
_geom_bond_site_symmetry_2
Li0 O6 1.983185 1_555
Li0 O8 2.064740 1_555
Li0 O2 2.099155 1_655
Li0 O5 2.179354 1_555
Li0 O3 2.223630 1_555
Li1 O7 1.983185 1_555
Li1 O9 2.064740 1_555
Li1 O3 2.099155 1_455
Li1 O4 2.179354 1_555
Li1 O2 2.223630 1_555
Ga0 O7 1.942642 1_544
Ga0 O6 1.942642 1_455
Ga0 O9 1.973988 1_444
Ga0 O8 1.973988 1_555
Ga0 O0 2.030242 1_545
Ga0 O1 2.030242 1_454
Ga1 O5 1.942671 1_445
Ga1 O4 1.942671 1_555
Ga1 O6 1.963552 1_455
Ga1 O7 1.963552 1_545
Ga1 O2 2.050422 1_545
Ga1 O3 2.050422 1_455
O0 P0 1.534619 1_555
O1 P1 1.534619 1_555
O2 P0 1.561557 1_555
O3 P1 1.561557 1_555
O4 P1 1.552865 1_555
O5 P0 1.552865 1_555
O8 P0 1.570685 1_555
O9 P1 1.570685 1_555
