# generated using pymatgen
data_LaCrO3
_symmetry_space_group_name_H-M   'P 1'
_cell_length_a   5.50572244
_cell_length_b   5.51974573
_cell_length_c   7.78598881
_cell_angle_alpha   90.00000000
_cell_angle_beta   90.00000000
_cell_angle_gamma   90.00033228
_symmetry_Int_Tables_number   1
_chemical_formula_structural   LaCrO3
_chemical_formula_sum   'La4 Cr4 O12'
_cell_volume   236.61766315
_cell_formula_units_Z   4
loop_
 _symmetry_equiv_pos_site_id
 _symmetry_equiv_pos_as_xyz
  1  'x, y, z'
loop_
 _atom_site_type_symbol
 _atom_site_label
 _atom_site_symmetry_multiplicity
 _atom_site_fract_x
 _atom_site_fract_y
 _atom_site_fract_z
 _atom_site_occupancy
  La  La0  1  0.02882426  0.99441545  0.25000000  1
  La  La1  1  0.52882196  0.50558154  0.25000000  1
  La  La2  1  0.47117804  0.49441846  0.75000000  1
  La  La3  1  0.97117574  0.00558455  0.75000000  1
  Cr  Cr0  1  -0.00000000  0.50000000  0.50000000  1
  Cr  Cr1  1  0.50000000  0.00000000  -0.00000000  1
  Cr  Cr2  1  0.50000000  0.00000000  0.50000000  1
  Cr  Cr3  1  -0.00000000  0.50000000  -0.00000000  1
  O  O0  1  0.71750278  0.28210195  0.53851490  1
  O  O1  1  0.21750081  0.21789618  0.96149502  1
  O  O2  1  0.78249919  0.78210382  0.46149502  1
  O  O3  1  0.28249722  0.71789805  0.03851490  1
  O  O4  1  0.28249722  0.71789805  0.46148510  1
  O  O5  1  0.78249919  0.78210382  0.03850498  1
  O  O6  1  0.21750081  0.21789618  0.53850498  1
  O  O7  1  0.71750278  0.28210195  0.96148510  1
  O  O8  1  0.51191408  0.92785721  0.75000000  1
  O  O9  1  0.01192981  0.57214356  0.75000000  1
  O  O10  1  0.98807019  0.42785644  0.25000000  1
  O  O11  1  0.48808592  0.07214279  0.25000000  1
loop_
_geom_bond_atom_site_label_1
_geom_bond_atom_site_label_2
_geom_bond_distance
_geom_bond_site_symmetry_2
La0 O10 2.402984 1_465
La0 O2 2.433974 1_455
La0 O5 2.433974 1_455
La0 O11 2.564705 1_565
La0 O4 2.644170 1_555
La0 O3 2.644170 1_555
La0 O1 2.765249 1_564
La0 O6 2.765249 1_565
La1 O11 2.402960 1_555
La1 O4 2.433942 1_555
La1 O3 2.433942 1_555
La1 O10 2.564635 1_555
La1 O5 2.644236 1_555
La1 O2 2.644236 1_555
La1 O0 2.765323 1_555
La1 O7 2.765323 1_554
La2 O8 2.402960 1_555
La2 O0 2.433942 1_555
La2 O7 2.433942 1_555
La2 O9 2.564635 1_555
La2 O6 2.644236 1_555
La2 O1 2.644236 1_555
La2 O3 2.765323 1_556
La2 O4 2.765323 1_555
La3 O9 2.402984 1_645
La3 O1 2.433974 1_655
La3 O6 2.433974 1_655
La3 O8 2.564705 1_545
La3 O0 2.644170 1_555
La3 O7 2.644170 1_555
La3 O5 2.765249 1_546
La3 O2 2.765249 1_545
Cr0 O6 1.987107 1_555
Cr0 O2 1.987107 1_455
Cr0 O10 1.987898 1_455
Cr0 O9 1.987898 1_555
Cr0 O4 1.988871 1_555
Cr0 O0 1.988871 1_455
Cr1 O7 1.987106 1_554
Cr1 O3 1.987106 1_545
Cr1 O11 1.987895 1_555
Cr1 O8 1.987895 1_544
Cr1 O5 1.988873 1_545
Cr1 O1 1.988873 1_554
Cr2 O0 1.987106 1_555
Cr2 O4 1.987106 1_545
Cr2 O11 1.987895 1_555
Cr2 O8 1.987895 1_545
Cr2 O6 1.988873 1_555
Cr2 O2 1.988873 1_545
Cr3 O5 1.987107 1_455
Cr3 O1 1.987107 1_554
Cr3 O9 1.987898 1_554
Cr3 O10 1.987898 1_455
Cr3 O3 1.988871 1_555
Cr3 O7 1.988871 1_454
