# generated using pymatgen
data_Te2Mo3W(SeS2)2
_symmetry_space_group_name_H-M   'P 1'
_cell_length_a   3.30904162
_cell_length_b   3.30904162
_cell_length_c   39.43947400
_cell_angle_alpha   90.00000000
_cell_angle_beta   90.00000000
_cell_angle_gamma   119.99999248
_symmetry_Int_Tables_number   1
_chemical_formula_structural   Te2Mo3W(SeS2)2
_chemical_formula_sum   'Te2 Mo3 W1 Se2 S4'
_cell_volume   373.99538143
_cell_formula_units_Z   1
loop_
 _symmetry_equiv_pos_site_id
 _symmetry_equiv_pos_as_xyz
  1  'x, y, z'
loop_
 _atom_site_type_symbol
 _atom_site_label
 _atom_site_symmetry_multiplicity
 _atom_site_fract_x
 _atom_site_fract_y
 _atom_site_fract_z
 _atom_site_occupancy
  Te  Te0  1  0.33333300  0.66666700  0.42000400  1
  Te  Te1  1  0.33333300  0.66666700  0.51706500  1
  Mo  Mo0  1  0.00000000  0.00000000  0.09390600  1
  Mo  Mo1  1  0.00000000  0.00000000  0.46851600  1
  Mo  Mo2  1  0.33333300  0.66666700  0.28137700  1
  W  W0  1  0.33333300  0.66666700  0.65908000  1
  Se  Se0  1  0.00000000  0.00000000  0.70183900  1
  Se  Se1  1  0.00000000  0.00000000  0.61626800  1
  S  S0  1  0.00000000  0.00000000  0.32015100  1
  S  S1  1  0.33333300  0.66666700  0.05516900  1
  S  S2  1  0.33333300  0.66666700  0.13266900  1
  S  S3  1  0.00000000  0.00000000  0.24270400  1
loop_
_geom_bond_atom_site_label_1
_geom_bond_atom_site_label_2
_geom_bond_distance
_geom_bond_site_symmetry_2
Mo0 S1 2.446218 1_545
Mo0 S1 2.446221 1_445
Mo0 S1 2.446221 1_555
Mo0 S2 2.446859 1_545
Mo0 S2 2.446861 1_555
Mo0 S2 2.446861 1_445
Mo1 Te0 2.703809 1_545
Mo1 Te0 2.703811 1_445
Mo1 Te0 2.703811 1_555
Mo1 Te1 2.704841 1_545
Mo1 Te1 2.704844 1_445
Mo1 Te1 2.704844 1_555
Mo2 S3 2.444642 1_565
Mo2 S3 2.444645 1_665
Mo2 S3 2.444645 1_555
Mo2 S0 2.447130 1_565
Mo2 S0 2.447132 1_555
Mo2 S0 2.447132 1_665
Se0 W0 2.548300 1_545
Se0 W0 2.548302 1_555
Se0 W0 2.548302 1_445
Se1 W0 2.549683 1_545
Se1 W0 2.549686 1_555
Se1 W0 2.549686 1_445
