# generated using pymatgen
data_Ca3Sn5S13
_symmetry_space_group_name_H-M   'P 1'
_cell_length_a   7.08841263
_cell_length_b   15.00960870
_cell_length_c   39.07723535
_cell_angle_alpha   90.00000000
_cell_angle_beta   91.72235587
_cell_angle_gamma   90.00000000
_symmetry_Int_Tables_number   1
_chemical_formula_structural   Ca3Sn5S13
_chemical_formula_sum   'Ca15 Sn25 S65'
_cell_volume   4155.71672868
_cell_formula_units_Z   5
loop_
 _symmetry_equiv_pos_site_id
 _symmetry_equiv_pos_as_xyz
  1  'x, y, z'
loop_
 _atom_site_type_symbol
 _atom_site_label
 _atom_site_symmetry_multiplicity
 _atom_site_fract_x
 _atom_site_fract_y
 _atom_site_fract_z
 _atom_site_occupancy
  Ca  Ca0  1  0.49748610  0.00000000  0.82239436  1
  Ca  Ca1  1  0.50251390  0.00000000  0.17760564  1
  Ca  Ca2  1  0.52328502  0.66714838  0.82613533  1
  Ca  Ca3  1  0.52328502  0.33285162  0.82613533  1
  Ca  Ca4  1  0.47671498  0.33285162  0.17386467  1
  Ca  Ca5  1  0.47671498  0.66714838  0.17386467  1
  Ca  Ca6  1  0.07141809  0.00000000  0.90861964  1
  Ca  Ca7  1  0.92858191  0.00000000  0.09138036  1
  Ca  Ca8  1  0.03923371  0.65774616  0.92061481  1
  Ca  Ca9  1  0.03923371  0.34225384  0.92061481  1
  Ca  Ca10  1  0.96076629  0.34225384  0.07938519  1
  Ca  Ca11  1  0.96076629  0.65774616  0.07938519  1
  Ca  Ca12  1  0.50000000  0.00000000  0.00000000  1
  Ca  Ca13  1  0.50000000  0.65969686  0.00000000  1
  Ca  Ca14  1  0.50000000  0.34030314  0.00000000  1
  Sn  Sn0  1  0.65970879  0.86043949  0.73077157  1
  Sn  Sn1  1  0.65970879  0.13956051  0.73077157  1
  Sn  Sn2  1  0.34029121  0.13956051  0.26922843  1
  Sn  Sn3  1  0.34029121  0.86043949  0.26922843  1
  Sn  Sn4  1  0.15640673  0.75672735  0.72604358  1
  Sn  Sn5  1  0.15640673  0.24327265  0.72604358  1
  Sn  Sn6  1  0.84359327  0.24327265  0.27395642  1
  Sn  Sn7  1  0.84359327  0.75672735  0.27395642  1
  Sn  Sn8  1  0.03230264  0.50000000  0.74584020  1
  Sn  Sn9  1  0.96769736  0.50000000  0.25415980  1
  Sn  Sn10  1  0.99023723  0.83471625  0.82705518  1
  Sn  Sn11  1  0.99023723  0.16528375  0.82705518  1
  Sn  Sn12  1  0.00976277  0.16528375  0.17294482  1
  Sn  Sn13  1  0.00976277  0.83471625  0.17294482  1
  Sn  Sn14  1  0.96875584  0.50000000  0.83302560  1
  Sn  Sn15  1  0.03124416  0.50000000  0.16697440  1
  Sn  Sn16  1  0.51680219  0.83604867  0.91194935  1
  Sn  Sn17  1  0.51680219  0.16395133  0.91194935  1
  Sn  Sn18  1  0.48319781  0.16395133  0.08805065  1
  Sn  Sn19  1  0.48319781  0.83604867  0.08805065  1
  Sn  Sn20  1  0.49514340  0.50000000  0.91062059  1
  Sn  Sn21  1  0.50485660  0.50000000  0.08937941  1
  Sn  Sn22  1  -0.00000000  0.83671185  0.00000000  1
  Sn  Sn23  1  -0.00000000  0.16328815  0.00000000  1
  Sn  Sn24  1  -0.00000000  0.50000000  0.00000000  1
  S  S0  1  0.95401033  0.87432978  0.70145697  1
  S  S1  1  0.95401033  0.12567022  0.70145697  1
  S  S2  1  0.04598967  0.12567022  0.29854303  1
  S  S3  1  0.04598967  0.87432978  0.29854303  1
  S  S4  1  0.45203916  0.76695132  0.69538384  1
  S  S5  1  0.45203916  0.23304868  0.69538384  1
  S  S6  1  0.54796084  0.23304868  0.30461616  1
  S  S7  1  0.54796084  0.76695132  0.30461616  1
  S  S8  1  0.48668094  0.00000000  0.74061729  1
  S  S9  1  0.51331906  0.00000000  0.25938271  1
  S  S10  1  0.01731028  0.61957910  0.70387358  1
  S  S11  1  0.01731028  0.38042090  0.70387358  1
  S  S12  1  0.98268972  0.38042090  0.29612642  1
  S  S13  1  0.98268972  0.61957910  0.29612642  1
  S  S14  1  0.69071826  0.81097584  0.78965999  1
  S  S15  1  0.69071826  0.18902416  0.78965999  1
  S  S16  1  0.30928174  0.18902416  0.21034001  1
  S  S17  1  0.30928174  0.81097584  0.21034001  1
  S  S18  1  0.23854427  0.77344645  0.78546852  1
  S  S19  1  0.23854427  0.22655355  0.78546852  1
  S  S20  1  0.76145573  0.22655355  0.21453148  1
  S  S21  1  0.76145573  0.77344645  0.21453148  1
  S  S22  1  0.25921213  0.50000000  0.79450493  1
  S  S23  1  0.74078787  0.50000000  0.20549507  1
  S  S24  1  0.75102981  0.50000000  0.77958446  1
  S  S25  1  0.24897019  0.50000000  0.22041554  1
  S  S26  1  0.04589363  0.00000000  0.80296615  1
  S  S27  1  0.95410637  0.00000000  0.19703385  1
  S  S28  1  0.91307833  0.67440822  0.84930067  1
  S  S29  1  0.91307833  0.32559178  0.84930067  1
  S  S30  1  0.08692167  0.32559178  0.15069933  1
  S  S31  1  0.08692167  0.67440822  0.15069933  1
  S  S32  1  0.28458078  0.87781040  0.86187260  1
  S  S33  1  0.28458078  0.12218960  0.86187260  1
  S  S34  1  0.71541922  0.12218960  0.13812740  1
  S  S35  1  0.71541922  0.87781040  0.13812740  1
  S  S36  1  0.77023789  0.89354968  0.87288518  1
  S  S37  1  0.77023789  0.10645032  0.87288518  1
  S  S38  1  0.22976211  0.10645032  0.12711482  1
  S  S39  1  0.22976211  0.89354968  0.12711482  1
  S  S40  1  0.15154998  0.50000000  0.88872877  1
  S  S41  1  0.84845002  0.50000000  0.11127123  1
  S  S42  1  0.61974428  0.50000000  0.85209496  1
  S  S43  1  0.38025572  0.50000000  0.14790504  1
  S  S44  1  0.45682954  0.00000000  0.92988659  1
  S  S45  1  0.54317046  0.00000000  0.07011341  1
  S  S46  1  0.43031893  0.67360249  0.89859919  1
  S  S47  1  0.43031893  0.32639751  0.89859919  1
  S  S48  1  0.56968107  0.32639751  0.10140081  1
  S  S49  1  0.56968107  0.67360249  0.10140081  1
  S  S50  1  0.14717495  0.82710185  0.94288684  1
  S  S51  1  0.14717495  0.17289815  0.94288684  1
  S  S52  1  0.85282505  0.17289815  0.05711316  1
  S  S53  1  0.85282505  0.82710185  0.05711316  1
  S  S54  1  0.66033912  0.81536149  0.97096740  1
  S  S55  1  0.66033912  0.18463851  0.97096740  1
  S  S56  1  0.33966088  0.18463851  0.02903260  1
  S  S57  1  0.33966088  0.81536149  0.02903260  1
  S  S58  1  0.32968755  0.50000000  0.96841095  1
  S  S59  1  0.67031245  0.50000000  0.03158905  1
  S  S60  1  0.81075555  0.50000000  0.94051988  1
  S  S61  1  0.18924445  0.50000000  0.05948012  1
  S  S62  1  -0.00000000  0.00000000  0.00000000  1
  S  S63  1  -0.00000000  0.65928938  0.00000000  1
  S  S64  1  -0.00000000  0.34071062  0.00000000  1
loop_
_geom_bond_atom_site_label_1
_geom_bond_atom_site_label_2
_geom_bond_distance
_geom_bond_site_symmetry_2
Ca0 S33 2.856758 1_555
Ca0 S32 2.856758 1_545
Ca0 S37 3.155064 1_555
Ca0 S36 3.155064 1_545
Ca0 S8 3.194237 1_555
Ca0 S26 3.267594 1_555
Ca0 S15 3.415740 1_555
Ca0 S14 3.415740 1_545
Ca1 S35 2.856758 1_545
Ca1 S34 2.856758 1_555
Ca1 S38 3.155064 1_555
Ca1 S39 3.155064 1_545
Ca1 S9 3.194237 1_555
Ca1 S27 3.267594 1_555
Ca1 S17 3.415740 1_545
Ca1 S16 3.415740 1_555
Ca2 S42 2.783723 1_555
Ca2 S14 2.863966 1_555
Ca2 S28 2.883615 1_555
Ca2 S46 2.928185 1_555
Ca2 S18 2.991981 1_555
Ca2 S22 3.344664 1_555
Ca3 S42 2.783723 1_555
Ca3 S15 2.863966 1_555
Ca3 S29 2.883615 1_555
Ca3 S47 2.928185 1_555
Ca3 S19 2.991981 1_555
Ca3 S22 3.344664 1_555
Ca4 S43 2.783723 1_555
Ca4 S16 2.863966 1_555
Ca4 S30 2.883615 1_555
Ca4 S48 2.928185 1_555
Ca4 S20 2.991981 1_555
Ca4 S23 3.344664 1_555
Ca5 S43 2.783723 1_555
Ca5 S17 2.863966 1_555
Ca5 S31 2.883615 1_555
Ca5 S49 2.928185 1_555
Ca5 S21 2.991981 1_555
Ca5 S23 3.344664 1_555
Ca6 S44 2.831563 1_555
Ca6 S50 2.961918 1_545
Ca6 S51 2.961918 1_555
Ca6 S36 2.980165 1_445
Ca6 S37 2.980165 1_455
Ca6 S33 3.024833 1_555
Ca6 S32 3.024833 1_545
Ca7 S45 2.831563 1_555
Ca7 S53 2.961918 1_545
Ca7 S52 2.961918 1_555
Ca7 S39 2.980165 1_645
Ca7 S38 2.980165 1_655
Ca7 S34 3.024833 1_555
Ca7 S35 3.024833 1_545
Ca8 S50 2.786475 1_555
Ca8 S40 2.802156 1_555
Ca8 S28 2.911776 1_455
Ca8 S46 2.936849 1_555
Ca8 S60 2.984917 1_455
Ca8 S63 3.122995 1_556
Ca9 S51 2.786475 1_555
Ca9 S40 2.802156 1_555
Ca9 S29 2.911776 1_455
Ca9 S47 2.936849 1_555
Ca9 S60 2.984917 1_455
Ca9 S64 3.122995 1_556
Ca10 S52 2.786475 1_555
Ca10 S41 2.802156 1_555
Ca10 S30 2.911776 1_655
Ca10 S48 2.936849 1_555
Ca10 S61 2.984917 1_655
Ca10 S64 3.122995 1_655
Ca11 S53 2.786475 1_555
Ca11 S41 2.802156 1_555
Ca11 S31 2.911776 1_655
Ca11 S49 2.936849 1_555
Ca11 S61 2.984917 1_655
Ca11 S63 3.122995 1_655
Ca12 S45 2.747718 1_555
Ca12 S44 2.747718 1_554
Ca12 S54 3.215085 1_544
Ca12 S57 3.215085 1_545
Ca12 S55 3.215085 1_554
Ca12 S56 3.215085 1_555
Ca13 S54 2.848762 1_554
Ca13 S57 2.848762 1_555
Ca13 S59 2.938908 1_555
Ca13 S58 2.938908 1_554
Ca14 S55 2.848762 1_554
Ca14 S56 2.848762 1_555
Ca14 S58 2.938908 1_554
Ca14 S59 2.938908 1_555
S0 Sn0 2.418948 1_555
S0 Sn4 2.452411 1_655
S1 Sn1 2.418948 1_555
S1 Sn5 2.452411 1_655
S2 Sn2 2.418948 1_555
S2 Sn6 2.452411 1_455
S3 Sn3 2.418948 1_555
S3 Sn7 2.452411 1_455
S4 Sn0 2.434312 1_555
S4 Sn4 2.449756 1_555
S5 Sn1 2.434312 1_555
S5 Sn5 2.449756 1_555
S6 Sn2 2.434312 1_555
S6 Sn6 2.449756 1_555
S7 Sn3 2.434312 1_555
S7 Sn7 2.449756 1_555
S8 Sn1 2.463463 1_555
S8 Sn0 2.463463 1_545
S9 Sn2 2.463463 1_555
S9 Sn3 2.463463 1_545
S10 Sn4 2.430831 1_555
S10 Sn8 2.431389 1_555
S11 Sn5 2.430831 1_555
S11 Sn8 2.431389 1_555
S12 Sn6 2.430831 1_555
S12 Sn9 2.431389 1_555
S13 Sn7 2.430831 1_555
S13 Sn9 2.431389 1_555
S14 Sn0 2.421697 1_555
S14 Sn10 2.565831 1_555
S15 Sn1 2.421697 1_555
S15 Sn11 2.565831 1_555
S16 Sn2 2.421697 1_555
S16 Sn12 2.565831 1_555
S17 Sn3 2.421697 1_555
S17 Sn13 2.565831 1_555
S18 Sn4 2.390214 1_555
S18 Sn10 2.599338 1_455
S19 Sn5 2.390214 1_555
S19 Sn11 2.599338 1_455
S20 Sn6 2.390214 1_555
S20 Sn12 2.599338 1_655
S21 Sn7 2.390214 1_555
S21 Sn13 2.599338 1_655
S22 Sn8 2.453482 1_555
S22 Sn14 2.586723 1_455
S23 Sn9 2.453482 1_555
S23 Sn15 2.586723 1_655
S24 Sn8 2.423217 1_655
S24 Sn14 2.559153 1_555
S25 Sn9 2.423217 1_455
S25 Sn15 2.559153 1_555
S26 Sn10 2.686757 1_445
S26 Sn11 2.686757 1_455
S27 Sn13 2.686757 1_645
S27 Sn12 2.686757 1_655
S28 Sn10 2.621640 1_555
S28 Sn14 2.725472 1_555
S29 Sn11 2.621640 1_555
S29 Sn14 2.725472 1_555
S30 Sn12 2.621640 1_555
S30 Sn15 2.725472 1_555
S31 Sn13 2.621640 1_555
S31 Sn15 2.725472 1_555
S32 Sn10 2.540093 1_455
S32 Sn16 2.595798 1_555
S33 Sn11 2.540093 1_455
S33 Sn17 2.595798 1_555
S34 Sn12 2.540093 1_655
S34 Sn18 2.595798 1_555
S35 Sn13 2.540093 1_655
S35 Sn19 2.595798 1_555
S36 Sn16 2.543080 1_555
S36 Sn10 2.566500 1_555
S37 Sn17 2.543080 1_555
S37 Sn11 2.566500 1_555
S38 Sn18 2.543080 1_555
S38 Sn12 2.566500 1_555
S39 Sn19 2.543080 1_555
S39 Sn13 2.566500 1_555
S40 Sn14 2.499497 1_455
S40 Sn20 2.557030 1_555
S41 Sn15 2.499497 1_655
S41 Sn21 2.557030 1_555
S42 Sn20 2.476281 1_555
S42 Sn14 2.605087 1_555
S43 Sn21 2.476281 1_555
S43 Sn15 2.605087 1_555
S44 Sn16 2.597249 1_545
S44 Sn17 2.597249 1_555
S45 Sn19 2.597249 1_545
S45 Sn18 2.597249 1_555
S46 Sn16 2.563946 1_555
S46 Sn20 2.684873 1_555
S47 Sn17 2.563946 1_555
S47 Sn20 2.684873 1_555
S48 Sn18 2.563946 1_555
S48 Sn21 2.684873 1_555
S49 Sn19 2.563946 1_555
S49 Sn21 2.684873 1_555
S50 Sn22 2.496027 1_556
S50 Sn16 2.921434 1_555
S51 Sn23 2.496027 1_556
S51 Sn17 2.921434 1_555
S52 Sn23 2.496027 1_655
S52 Sn18 2.921434 1_555
S53 Sn22 2.496027 1_655
S53 Sn19 2.921434 1_555
S54 Sn16 2.511853 1_555
S54 Sn22 2.649986 1_656
S55 Sn17 2.511853 1_555
S55 Sn23 2.649986 1_656
S56 Sn18 2.511853 1_555
S56 Sn23 2.649986 1_555
S57 Sn19 2.511853 1_555
S57 Sn22 2.649986 1_555
S58 Sn20 2.575768 1_555
S58 Sn24 2.675551 1_556
S59 Sn21 2.575768 1_555
S59 Sn24 2.675551 1_655
S60 Sn20 2.492590 1_555
S60 Sn24 2.648490 1_656
S61 Sn21 2.492590 1_555
S61 Sn24 2.648490 1_555
S62 Sn22 2.450891 1_545
S62 Sn23 2.450891 1_555
S63 Sn24 2.390871 1_555
S63 Sn22 2.663042 1_555
S64 Sn24 2.390871 1_555
S64 Sn23 2.663042 1_555
