# generated using pymatgen
data_Hf5MnSb2
_symmetry_space_group_name_H-M   'P 1'
_cell_length_a   5.51045858
_cell_length_b   8.21220165
_cell_length_c   8.21223852
_cell_angle_alpha   83.54446931
_cell_angle_beta   70.40114555
_cell_angle_gamma   70.39957332
_symmetry_Int_Tables_number   1
_chemical_formula_structural   Hf5MnSb2
_chemical_formula_sum   'Hf10 Mn2 Sb4'
_cell_volume   329.81136649
_cell_formula_units_Z   2
loop_
 _symmetry_equiv_pos_site_id
 _symmetry_equiv_pos_as_xyz
  1  'x, y, z'
loop_
 _atom_site_type_symbol
 _atom_site_label
 _atom_site_symmetry_multiplicity
 _atom_site_fract_x
 _atom_site_fract_y
 _atom_site_fract_z
 _atom_site_occupancy
  Hf  Hf0  1  0.07326631  0.13191014  0.72180987  1
  Hf  Hf1  1  0.92673149  0.86807416  0.27820817  1
  Hf  Hf2  1  0.79480478  0.27824416  0.13190422  1
  Hf  Hf3  1  0.42673012  0.27819990  0.86807536  1
  Hf  Hf4  1  0.20517830  0.72179165  0.86809004  1
  Hf  Hf5  1  0.57327046  0.72179074  0.13190872  1
  Hf  Hf6  1  0.70516391  0.86809942  0.72179689  1
  Hf  Hf7  1  0.29479916  0.13191403  0.27823904  1
  Hf  Hf8  1  0.25000891  0.49993228  0.50005395  1
  Hf  Hf9  1  0.75000232  0.50005965  0.49992402  1
  Mn  Mn0  1  0.25000676  0.00009268  -0.00010737  1
  Mn  Mn1  1  0.75001380  0.99990589  0.00007378  1
  Sb  Sb0  1  0.16350744  0.49994782  0.17305157  1
  Sb  Sb1  1  0.83651642  0.50006701  0.82689922  1
  Sb  Sb2  1  0.33649676  0.82692229  0.50008041  1
  Sb  Sb3  1  0.66350205  0.17304918  0.49999310  1
loop_
_geom_bond_atom_site_label_1
_geom_bond_atom_site_label_2
_geom_bond_distance
_geom_bond_site_symmetry_2
Hf0 Mn0 2.750349 1_556
Hf0 Mn1 2.752781 1_446
Hf0 Sb2 2.917012 1_545
Hf0 Sb1 2.961875 1_455
Hf0 Sb3 3.261150 1_555
Hf0 Sb3 3.261920 1_455
Hf1 Mn1 2.750691 1_555
Hf1 Mn0 2.753145 1_665
Hf1 Sb3 2.917184 1_565
Hf1 Sb0 2.961790 1_655
Hf1 Sb2 3.261281 1_555
Hf1 Sb2 3.262260 1_655
Hf2 Mn1 2.751721 1_545
Hf2 Mn0 2.751967 1_655
Hf2 Sb1 2.917844 1_554
Hf2 Sb3 2.961791 1_555
Hf2 Sb0 3.260527 1_555
Hf2 Sb0 3.261540 1_655
Hf3 Mn0 2.750506 1_556
Hf3 Mn1 2.752923 1_546
Hf3 Sb0 2.917036 1_556
Hf3 Sb3 2.961486 1_555
Hf3 Sb1 3.261192 1_455
Hf3 Sb1 3.262318 1_555
Hf4 Mn0 2.751429 1_566
Hf4 Mn1 2.751648 1_456
Hf4 Sb0 2.917668 1_556
Hf4 Sb2 2.961064 1_555
Hf4 Sb1 3.260686 1_555
Hf4 Sb1 3.261618 1_455
Hf5 Mn1 2.750646 1_555
Hf5 Mn0 2.752980 1_565
Hf5 Sb1 2.917134 1_554
Hf5 Sb2 2.962110 1_555
Hf5 Sb0 3.261156 1_655
Hf5 Sb0 3.262108 1_555
Hf6 Mn1 2.751329 1_556
Hf6 Mn0 2.751589 1_566
Hf6 Sb3 2.917399 1_565
Hf6 Sb1 2.961138 1_555
Hf6 Sb2 3.260711 1_655
Hf6 Sb2 3.261530 1_555
Hf7 Mn0 2.751750 1_555
Hf7 Mn1 2.752094 1_545
Hf7 Sb2 2.917833 1_545
Hf7 Sb0 2.961329 1_555
Hf7 Sb3 3.260676 1_455
Hf7 Sb3 3.261808 1_555
Hf8 Sb1 2.879639 1_455
Hf8 Sb3 2.879882 1_555
Hf8 Sb2 2.880424 1_555
Hf8 Sb0 2.880506 1_555
Hf9 Sb2 2.879677 1_555
Hf9 Sb0 2.879851 1_655
Hf9 Sb1 2.880349 1_555
Hf9 Sb3 2.880497 1_555
Mn0 Mn1 2.755207 1_445
Mn0 Mn1 2.755253 1_545
