# generated using pymatgen
data_GaPd2
_symmetry_space_group_name_H-M   'P 1'
_cell_length_a   4.05957263
_cell_length_b   5.54430322
_cell_length_c   7.79949162
_cell_angle_alpha   90.00000000
_cell_angle_beta   90.00000000
_cell_angle_gamma   90.00000000
_symmetry_Int_Tables_number   1
_chemical_formula_structural   GaPd2
_chemical_formula_sum   'Ga4 Pd8'
_cell_volume   175.54707015
_cell_formula_units_Z   4
loop_
 _symmetry_equiv_pos_site_id
 _symmetry_equiv_pos_as_xyz
  1  'x, y, z'
loop_
 _atom_site_type_symbol
 _atom_site_label
 _atom_site_symmetry_multiplicity
 _atom_site_fract_x
 _atom_site_fract_y
 _atom_site_fract_z
 _atom_site_occupancy
  Ga  Ga0  1  0.75000000  0.70519031  0.89197438  1
  Ga  Ga1  1  0.25000000  0.29480969  0.10802562  1
  Ga  Ga2  1  0.75000000  0.20519031  0.60802562  1
  Ga  Ga3  1  0.25000000  0.79480969  0.39197438  1
  Pd  Pd0  1  0.75000000  0.66299973  0.56614405  1
  Pd  Pd1  1  0.25000000  0.33700027  0.43385595  1
  Pd  Pd2  1  0.75000000  0.16299973  0.93385595  1
  Pd  Pd3  1  0.25000000  0.83700027  0.06614405  1
  Pd  Pd4  1  0.75000000  0.54152295  0.20691849  1
  Pd  Pd5  1  0.25000000  0.45847705  0.79308151  1
  Pd  Pd6  1  0.75000000  0.04152295  0.29308151  1
  Pd  Pd7  1  0.25000000  0.95847705  0.70691849  1
loop_
_geom_bond_atom_site_label_1
_geom_bond_atom_site_label_2
_geom_bond_distance
_geom_bond_site_symmetry_2
Ga0 Pd3 2.549400 1_556
Ga0 Pd3 2.549400 1_656
Ga0 Pd0 2.552054 1_555
Ga0 Pd2 2.559167 1_565
Ga0 Pd5 2.566316 1_555
Ga0 Pd5 2.566316 1_655
Ga0 Pd4 2.618651 1_556
Ga0 Pd7 2.859252 1_555
Ga0 Pd7 2.859252 1_655
Ga0 Pd2 3.023765 1_555
Ga1 Pd2 2.549400 1_554
Ga1 Pd2 2.549400 1_454
Ga1 Pd1 2.552054 1_555
Ga1 Pd3 2.559167 1_545
Ga1 Pd4 2.566316 1_555
Ga1 Pd4 2.566316 1_455
Ga1 Pd5 2.618651 1_554
Ga1 Pd6 2.859252 1_555
Ga1 Pd6 2.859252 1_455
Ga1 Pd3 3.023765 1_555
Ga2 Pd1 2.549400 1_655
Ga2 Pd1 2.549400 1_555
Ga2 Pd2 2.552054 1_555
Ga2 Pd0 2.559167 1_555
Ga2 Pd7 2.566316 1_645
Ga2 Pd7 2.566316 1_545
Ga2 Pd6 2.618651 1_555
Ga2 Pd5 2.859252 1_555
Ga2 Pd5 2.859252 1_655
Ga2 Pd0 3.023765 1_545
Ga3 Pd0 2.549400 1_455
Ga3 Pd0 2.549400 1_555
Ga3 Pd3 2.552054 1_555
Ga3 Pd1 2.559167 1_555
Ga3 Pd6 2.566316 1_565
Ga3 Pd6 2.566316 1_465
Ga3 Pd7 2.618651 1_555
Ga3 Pd4 2.859252 1_555
Ga3 Pd4 2.859252 1_455
Ga3 Pd1 3.023765 1_565
