# generated using pymatgen
data_YbCrO3
_symmetry_space_group_name_H-M   'P 1'
_cell_length_a   3.77766500
_cell_length_b   3.77766500
_cell_length_c   3.77766500
_cell_angle_alpha   90.00000000
_cell_angle_beta   90.00000000
_cell_angle_gamma   90.00000000
_symmetry_Int_Tables_number   1
_chemical_formula_structural   YbCrO3
_chemical_formula_sum   'Yb1 Cr1 O3'
_cell_volume   53.91012357
_cell_formula_units_Z   1
loop_
 _symmetry_equiv_pos_site_id
 _symmetry_equiv_pos_as_xyz
  1  'x, y, z'
loop_
 _atom_site_type_symbol
 _atom_site_label
 _atom_site_symmetry_multiplicity
 _atom_site_fract_x
 _atom_site_fract_y
 _atom_site_fract_z
 _atom_site_occupancy
  Yb  Yb0  1  0.00000000  0.00000000  0.00000000  1
  Cr  Cr0  1  0.50000000  0.50000000  0.50000000  1
  O  O0  1  0.50000000  0.50000000  0.00000000  1
  O  O1  1  0.50000000  0.00000000  0.50000000  1
  O  O2  1  0.00000000  0.50000000  0.50000000  1
loop_
_geom_bond_atom_site_label_1
_geom_bond_atom_site_label_2
_geom_bond_distance
_geom_bond_site_symmetry_2
Cr0 O0 1.888832 1_555
Cr0 O2 1.888832 1_555
Cr0 O1 1.888832 1_565
Cr0 O2 1.888832 1_655
Cr0 O0 1.888832 1_556
Cr0 O1 1.888832 1_555
O0 Yb0 2.671213 1_555
O0 Yb0 2.671213 1_655
O0 Yb0 2.671213 1_565
O0 Yb0 2.671213 1_665
O1 Yb0 2.671213 1_555
O1 Yb0 2.671213 1_556
O1 Yb0 2.671213 1_655
O1 Yb0 2.671213 1_656
O2 Yb0 2.671213 1_555
O2 Yb0 2.671213 1_556
O2 Yb0 2.671213 1_566
O2 Yb0 2.671213 1_565
