# generated using pymatgen
data_Sr5(BiO4)3
_symmetry_space_group_name_H-M   'P 1'
_cell_length_a   6.17457521
_cell_length_b   8.75050900
_cell_length_c   6.17457521
_cell_angle_alpha   90.00000000
_cell_angle_beta   90.00000000
_cell_angle_gamma   90.00000000
_symmetry_Int_Tables_number   1
_chemical_formula_structural   Sr5(BiO4)3
_chemical_formula_sum   'Sr5 Bi3 O12'
_cell_volume   333.61647198
_cell_formula_units_Z   1
loop_
 _symmetry_equiv_pos_site_id
 _symmetry_equiv_pos_as_xyz
  1  'x, y, z'
loop_
 _atom_site_type_symbol
 _atom_site_label
 _atom_site_symmetry_multiplicity
 _atom_site_fract_x
 _atom_site_fract_y
 _atom_site_fract_z
 _atom_site_occupancy
  Sr  Sr0  1  0.50000000  0.26281200  0.00000000  1
  Sr  Sr1  1  0.00000000  0.73718800  0.50000000  1
  Sr  Sr2  1  0.50000000  0.73718800  0.00000000  1
  Sr  Sr3  1  0.00000000  0.26281200  0.50000000  1
  Sr  Sr4  1  0.00000000  0.50000000  0.00000000  1
  Bi  Bi0  1  0.00000000  0.00000000  0.00000000  1
  Bi  Bi1  1  0.50000000  0.50000000  0.50000000  1
  Bi  Bi2  1  0.50000000  0.00000000  0.50000000  1
  O  O0  1  0.00000000  0.23563900  0.00000000  1
  O  O1  1  0.50000000  0.74947100  0.50000000  1
  O  O2  1  0.26347500  0.50000000  0.26347500  1
  O  O3  1  0.75072700  0.00000000  0.75072700  1
  O  O4  1  0.26347500  0.50000000  0.73652500  1
  O  O5  1  0.75072700  0.00000000  0.24927300  1
  O  O6  1  0.00000000  0.76436100  0.00000000  1
  O  O7  1  0.50000000  0.25052900  0.50000000  1
  O  O8  1  0.73652500  0.50000000  0.73652500  1
  O  O9  1  0.24927300  0.00000000  0.24927300  1
  O  O10  1  0.73652500  0.50000000  0.26347500  1
  O  O11  1  0.24927300  0.00000000  0.75072700  1
loop_
_geom_bond_atom_site_label_1
_geom_bond_atom_site_label_2
_geom_bond_distance
_geom_bond_site_symmetry_2
Bi0 O0 2.061961 1_555
Bi0 O6 2.061961 1_545
Bi0 O9 2.176694 1_555
Bi0 O5 2.176694 1_455
Bi0 O11 2.176694 1_554
Bi0 O3 2.176694 1_454
Bi1 O4 2.065376 1_555
Bi1 O8 2.065376 1_555
Bi1 O10 2.065376 1_555
Bi1 O2 2.065376 1_555
Bi1 O1 2.182998 1_555
Bi1 O7 2.182998 1_555
Bi2 O3 2.189390 1_555
Bi2 O5 2.189390 1_555
Bi2 O11 2.189390 1_555
Bi2 O9 2.189390 1_555
Bi2 O1 2.192256 1_545
Bi2 O7 2.192256 1_555
O0 Sr4 2.313293 1_555
O0 Sr0 3.096431 1_455
O0 Sr3 3.096431 1_554
O0 Sr3 3.096431 1_555
O0 Sr0 3.096431 1_555
O1 Sr1 3.089158 1_555
O1 Sr1 3.089158 1_655
O1 Sr2 3.089158 1_556
O1 Sr2 3.089158 1_555
O2 Sr4 2.300708 1_555
O2 Sr2 3.014512 1_555
O2 Sr1 3.014512 1_555
O2 Sr3 3.014512 1_555
O2 Sr0 3.014512 1_555
O3 Sr1 3.170885 1_645
O3 Sr2 3.170885 1_546
O3 Sr3 3.170885 1_655
O3 Sr0 3.170885 1_556
O4 Sr4 2.300708 1_556
O4 Sr2 3.014512 1_556
O4 Sr1 3.014512 1_555
O4 Sr0 3.014512 1_556
O4 Sr3 3.014512 1_555
O5 Sr0 3.170885 1_555
O5 Sr2 3.170885 1_545
O5 Sr1 3.170885 1_645
O5 Sr3 3.170885 1_655
O6 Sr4 2.313293 1_555
O6 Sr1 3.096431 1_554
O6 Sr2 3.096431 1_455
O6 Sr1 3.096431 1_555
O6 Sr2 3.096431 1_555
O7 Sr3 3.089158 1_555
O7 Sr0 3.089158 1_555
O7 Sr0 3.089158 1_556
O7 Sr3 3.089158 1_655
O8 Sr4 2.300708 1_656
O8 Sr2 3.014512 1_556
O8 Sr1 3.014512 1_655
O8 Sr0 3.014512 1_556
O8 Sr3 3.014512 1_655
O9 Sr2 3.170885 1_545
O9 Sr1 3.170885 1_545
O9 Sr3 3.170885 1_555
O9 Sr0 3.170885 1_555
O10 Sr4 2.300708 1_655
O10 Sr2 3.014512 1_555
O10 Sr1 3.014512 1_655
O10 Sr0 3.014512 1_555
O10 Sr3 3.014512 1_655
O11 Sr3 3.170885 1_555
O11 Sr1 3.170885 1_545
O11 Sr0 3.170885 1_556
O11 Sr2 3.170885 1_546
