# generated using pymatgen
data_Nb6HSI9
_symmetry_space_group_name_H-M   'P 1'
_cell_length_a   10.55066000
_cell_length_b   10.70919933
_cell_length_c   11.83852639
_cell_angle_alpha   105.21936640
_cell_angle_beta   105.39265030
_cell_angle_gamma   113.78407838
_symmetry_Int_Tables_number   1
_chemical_formula_structural   Nb6HSI9
_chemical_formula_sum   'Nb12 H2 S2 I18'
_cell_volume   1071.59095677
_cell_formula_units_Z   2
loop_
 _symmetry_equiv_pos_site_id
 _symmetry_equiv_pos_as_xyz
  1  'x, y, z'
loop_
 _atom_site_type_symbol
 _atom_site_label
 _atom_site_symmetry_multiplicity
 _atom_site_fract_x
 _atom_site_fract_y
 _atom_site_fract_z
 _atom_site_occupancy
  Nb  Nb0  1  0.19417800  0.12090200  0.17606600  1
  Nb  Nb1  1  0.80582200  0.87909800  0.82393400  1
  Nb  Nb2  1  0.92778400  0.80140300  0.04243700  1
  Nb  Nb3  1  0.07221600  0.19859700  0.95756300  1
  Nb  Nb4  1  0.87715200  0.06481800  0.08595200  1
  Nb  Nb5  1  0.12284800  0.93518200  0.91404800  1
  Nb  Nb6  1  0.19325100  0.12003000  0.47317600  1
  Nb  Nb7  1  0.80674900  0.87997000  0.52682400  1
  Nb  Nb8  1  0.87691800  0.06481700  0.38618700  1
  Nb  Nb9  1  0.12308200  0.93518300  0.61381300  1
  Nb  Nb10  1  0.92625100  0.80132100  0.32851200  1
  Nb  Nb11  1  0.07374900  0.19867900  0.67148800  1
  H  H0  1  0.00000000  0.00000000  0.50000000  1
  H  H1  1  0.00000000  0.00000000  0.00000000  1
  S  S0  1  0.99812400  0.99330200  0.24784500  1
  S  S1  1  0.00187600  0.00669800  0.75215500  1
  I  I0  1  0.62149200  0.75424300  0.94717900  1
  I  I1  1  0.37850800  0.24575700  0.05282100  1
  I  I2  1  0.54711800  0.72159000  0.57618500  1
  I  I3  1  0.45288200  0.27841000  0.42381500  1
  I  I4  1  0.13802200  0.37190100  0.52707000  1
  I  I5  1  0.86197800  0.62809900  0.47293000  1
  I  I6  1  0.83326600  0.54349400  0.10223200  1
  I  I7  1  0.16673400  0.45650600  0.89776800  1
  I  I8  1  0.24054400  0.86540000  0.11997300  1
  I  I9  1  0.75945600  0.13460000  0.88002700  1
  I  I10  1  0.71426400  0.15583000  0.21896700  1
  I  I11  1  0.28573600  0.84417000  0.78103300  1
  I  I12  1  0.13973400  0.37267300  0.21575500  1
  I  I13  1  0.86026600  0.62732700  0.78424500  1
  I  I14  1  0.23833600  0.86239200  0.42901700  1
  I  I15  1  0.76166400  0.13760800  0.57098300  1
  I  I16  1  0.61883800  0.75509800  0.25752400  1
  I  I17  1  0.38116200  0.24490200  0.74247600  1
loop_
_geom_bond_atom_site_label_1
_geom_bond_atom_site_label_2
_geom_bond_distance
_geom_bond_site_symmetry_2
Nb0 S0 2.476081 1_445
Nb1 S1 2.476081 1_665
Nb2 S0 2.423934 1_555
Nb3 S1 2.423934 1_555
Nb4 S0 2.479795 1_545
Nb5 S1 2.479795 1_565
Nb6 S0 2.475162 1_445
Nb7 S1 2.475162 1_665
Nb8 S0 2.479397 1_545
Nb9 S1 2.479397 1_565
Nb10 S0 2.423174 1_555
Nb11 S1 2.423174 1_555
H0 Nb9 2.067088 1_545
H0 Nb8 2.067088 1_455
H0 Nb6 2.086733 1_555
H0 Nb7 2.086733 1_445
H0 Nb11 2.193683 1_555
H0 Nb10 2.193683 1_445
H1 Nb5 2.062079 1_544
H1 Nb4 2.062079 1_455
H1 Nb0 2.096375 1_555
H1 Nb1 2.096375 1_444
H1 Nb2 2.193951 1_445
H1 Nb3 2.193951 1_554
I0 Nb1 2.851680 1_555
I0 Nb2 2.901699 1_556
I0 Nb4 2.929094 1_566
I1 Nb0 2.851680 1_555
I1 Nb3 2.901699 1_554
I1 Nb5 2.929094 1_544
I2 Nb1 2.887362 1_555
I2 Nb7 2.888704 1_555
I3 Nb0 2.887362 1_555
I3 Nb6 2.888704 1_555
I4 Nb11 2.844329 1_555
I4 Nb8 2.925685 1_455
I4 Nb6 2.929810 1_555
I5 Nb10 2.844329 1_555
I5 Nb9 2.925685 1_655
I5 Nb7 2.929810 1_555
I6 Nb10 2.880781 1_555
I6 Nb2 2.881645 1_555
I7 Nb11 2.880781 1_555
I7 Nb3 2.881645 1_555
I8 Nb5 2.853335 1_554
I8 Nb2 2.904949 1_455
I8 Nb0 2.909519 1_565
I9 Nb4 2.853335 1_556
I9 Nb3 2.904949 1_655
I9 Nb1 2.909519 1_545
I10 Nb4 2.892239 1_555
I10 Nb8 2.893557 1_555
I11 Nb5 2.892239 1_555
I11 Nb9 2.893557 1_555
I12 Nb3 2.847257 1_554
I12 Nb0 2.923685 1_555
I12 Nb4 2.935804 1_455
I13 Nb2 2.847257 1_556
I13 Nb1 2.923685 1_555
I13 Nb5 2.935804 1_655
I14 Nb9 2.855496 1_555
I14 Nb10 2.908607 1_455
I14 Nb6 2.923265 1_565
I15 Nb8 2.855496 1_555
I15 Nb11 2.908607 1_655
I15 Nb7 2.923265 1_545
I16 Nb7 2.854945 1_555
I16 Nb10 2.917294 1_555
I16 Nb8 2.932041 1_565
I17 Nb6 2.854945 1_555
I17 Nb11 2.917294 1_555
I17 Nb9 2.932041 1_545
