# generated using pymatgen
data_La3FeCoS7
_symmetry_space_group_name_H-M   'P 1'
_cell_length_a   10.17523971
_cell_length_b   10.17523971
_cell_length_c   5.87567200
_cell_angle_alpha   90.00000000
_cell_angle_beta   90.00000000
_cell_angle_gamma   119.99999814
_symmetry_Int_Tables_number   1
_chemical_formula_structural   La3FeCoS7
_chemical_formula_sum   'La6 Fe2 Co2 S14'
_cell_volume   526.83847335
_cell_formula_units_Z   2
loop_
 _symmetry_equiv_pos_site_id
 _symmetry_equiv_pos_as_xyz
  1  'x, y, z'
loop_
 _atom_site_type_symbol
 _atom_site_label
 _atom_site_symmetry_multiplicity
 _atom_site_fract_x
 _atom_site_fract_y
 _atom_site_fract_z
 _atom_site_occupancy
  La  La0  1  0.23033400  0.37184200  0.24967800  1
  La  La1  1  0.62815800  0.85849200  0.24967800  1
  La  La2  1  0.14150800  0.76966600  0.24967800  1
  La  La3  1  0.76966600  0.62815800  0.74967800  1
  La  La4  1  0.37184200  0.14150800  0.74967800  1
  La  La5  1  0.85849200  0.23033400  0.74967800  1
  Fe  Fe0  1  0.33333300  0.66666700  0.83738800  1
  Fe  Fe1  1  0.66666700  0.33333300  0.33738800  1
  Co  Co0  1  0.00000000  0.00000000  0.47173800  1
  Co  Co1  1  0.00000000  0.00000000  0.97173800  1
  S  S0  1  0.13623000  0.22022200  0.71828800  1
  S  S1  1  0.77977800  0.91600800  0.71828800  1
  S  S2  1  0.08399200  0.86377000  0.71828800  1
  S  S3  1  0.86377000  0.77977800  0.21828800  1
  S  S4  1  0.22022200  0.08399200  0.21828800  1
  S  S5  1  0.91600800  0.13623000  0.21828800  1
  S  S6  1  0.09722400  0.51699400  0.97190500  1
  S  S7  1  0.48300600  0.58023000  0.97190500  1
  S  S8  1  0.41977000  0.90277600  0.97190500  1
  S  S9  1  0.90277600  0.48300600  0.47190500  1
  S  S10  1  0.51699400  0.41977000  0.47190500  1
  S  S11  1  0.58023000  0.09722400  0.47190500  1
  S  S12  1  0.33333300  0.66666700  0.46009000  1
  S  S13  1  0.66666700  0.33333300  0.96009000  1
loop_
_geom_bond_atom_site_label_1
_geom_bond_atom_site_label_2
_geom_bond_distance
_geom_bond_site_symmetry_2
La0 S7 2.884153 1_554
La0 S4 2.884778 1_555
La0 S5 2.888468 1_455
La0 S12 2.912441 1_555
La0 S6 2.946194 1_554
La0 S10 3.004698 1_555
La0 S0 3.066098 1_555
La0 S0 3.401227 1_554
La1 S8 2.884153 1_554
La1 S5 2.884778 1_565
La1 S3 2.888468 1_555
La1 S12 2.912440 1_555
La1 S7 2.946194 1_554
La1 S11 3.004698 1_565
La1 S1 3.066098 1_555
La1 S1 3.401227 1_554
La2 S6 2.884153 1_554
La2 S3 2.884778 1_455
La2 S4 2.888468 1_565
La2 S12 2.912433 1_555
La2 S8 2.946194 1_554
La2 S9 3.004698 1_455
La2 S2 3.066098 1_555
La2 S2 3.401227 1_554
La3 S10 2.884153 1_555
La3 S1 2.884778 1_555
La3 S2 2.888468 1_655
La3 S13 2.912441 1_555
La3 S9 2.946194 1_555
La3 S7 3.004698 1_555
La3 S3 3.066098 1_556
La3 S3 3.401227 1_555
La4 S11 2.884153 1_555
La4 S2 2.884778 1_545
La4 S0 2.888468 1_555
La4 S13 2.912440 1_555
La4 S10 2.946194 1_555
La4 S8 3.004698 1_545
La4 S4 3.066098 1_556
La4 S4 3.401227 1_555
La5 S9 2.884153 1_555
La5 S0 2.884778 1_655
La5 S1 2.888468 1_545
La5 S13 2.912433 1_555
La5 S11 2.946194 1_555
La5 S6 3.004698 1_655
La5 S5 3.066098 1_556
La5 S5 3.401227 1_555
Fe0 S12 2.216879 1_555
Fe0 S8 2.248795 1_555
Fe0 S6 2.248797 1_555
Fe0 S7 2.248804 1_555
Fe1 S13 2.216879 1_554
Fe1 S11 2.248795 1_555
Fe1 S9 2.248797 1_555
Fe1 S10 2.248804 1_555
Co0 S2 2.436214 1_545
Co0 S1 2.436214 1_445
Co0 S0 2.436214 1_555
Co0 S5 2.460537 1_455
Co0 S4 2.460537 1_555
Co0 S3 2.460537 1_445
Co1 S5 2.436214 1_456
Co1 S4 2.436214 1_556
Co1 S3 2.436214 1_446
Co1 S2 2.460537 1_545
Co1 S1 2.460537 1_445
Co1 S0 2.460537 1_555
