# generated using pymatgen
data_Pm2MgS4
_symmetry_space_group_name_H-M   'P 1'
_cell_length_a   7.61046658
_cell_length_b   8.83965271
_cell_length_c   11.82570357
_cell_angle_alpha   79.47511534
_cell_angle_beta   83.40798968
_cell_angle_gamma   90.96303478
_symmetry_Int_Tables_number   1
_chemical_formula_structural   Pm2MgS4
_chemical_formula_sum   'Pm8 Mg4 S16'
_cell_volume   776.42362186
_cell_formula_units_Z   4
loop_
 _symmetry_equiv_pos_site_id
 _symmetry_equiv_pos_as_xyz
  1  'x, y, z'
loop_
 _atom_site_type_symbol
 _atom_site_label
 _atom_site_symmetry_multiplicity
 _atom_site_fract_x
 _atom_site_fract_y
 _atom_site_fract_z
 _atom_site_occupancy
  Pm  Pm0  1  0.13858000  0.70672100  0.65772100  1
  Pm  Pm1  1  0.86142000  0.29327900  0.34227900  1
  Pm  Pm2  1  0.24724000  0.87052300  0.99758700  1
  Pm  Pm3  1  0.75276000  0.12947700  0.00241300  1
  Pm  Pm4  1  0.36724100  0.55194500  0.33648500  1
  Pm  Pm5  1  0.63275900  0.44805500  0.66351500  1
  Pm  Pm6  1  0.36065300  0.03040800  0.34556600  1
  Pm  Pm7  1  0.63934700  0.96959200  0.65443400  1
  Mg  Mg0  1  0.13804500  0.20691500  0.68396900  1
  Mg  Mg1  1  0.86195500  0.79308500  0.31603100  1
  Mg  Mg2  1  0.25066500  0.38649500  0.99401800  1
  Mg  Mg3  1  0.74933600  0.61350500  0.00598200  1
  S  S0  1  0.10111400  0.64327800  0.88730200  1
  S  S1  1  0.89888600  0.35672200  0.11269800  1
  S  S2  1  0.11364500  0.16426400  0.89164000  1
  S  S3  1  0.88635500  0.83573600  0.10836000  1
  S  S4  1  0.15240800  0.77358100  0.39257400  1
  S  S5  1  0.84759200  0.22641900  0.60742600  1
  S  S6  1  0.19725900  0.28160700  0.37809400  1
  S  S7  1  0.80274100  0.71839300  0.62190600  1
  S  S8  1  0.29904200  0.99302500  0.60953400  1
  S  S9  1  0.70095800  0.00697500  0.39046600  1
  S  S10  1  0.30209100  0.45496400  0.60301800  1
  S  S11  1  0.69790900  0.54503600  0.39698200  1
  S  S12  1  0.39502800  0.09020600  0.11595500  1
  S  S13  1  0.60497200  0.90979400  0.88404500  1
  S  S14  1  0.40263400  0.58912600  0.10655000  1
  S  S15  1  0.59736600  0.41087400  0.89345000  1
loop_
_geom_bond_atom_site_label_1
_geom_bond_atom_site_label_2
_geom_bond_distance
_geom_bond_site_symmetry_2
Pm0 S7 2.638949 1_455
Pm0 S0 2.650934 1_555
Pm0 S10 2.711790 1_555
Pm0 S8 2.725911 1_555
Pm0 S4 3.072001 1_555
Pm1 S6 2.638949 1_655
Pm1 S1 2.650934 1_555
Pm1 S11 2.711790 1_555
Pm1 S9 2.725911 1_555
Pm1 S5 3.072001 1_555
Pm2 S0 2.861436 1_555
Pm2 S12 2.876907 1_566
Pm2 S13 2.879944 1_555
Pm2 S3 2.890027 1_456
Pm2 S14 2.919626 1_556
Pm2 S2 2.922048 1_565
Pm3 S1 2.861436 1_555
Pm3 S13 2.876907 1_544
Pm3 S12 2.879944 1_555
Pm3 S2 2.890027 1_654
Pm3 S15 2.919626 1_554
Pm3 S3 2.922048 1_545
Pm4 S6 2.635646 1_555
Pm4 S14 2.660205 1_555
Pm4 S11 2.692784 1_555
Pm4 S4 2.699065 1_555
Pm4 S10 3.091157 1_555
Pm5 S7 2.635646 1_555
Pm5 S15 2.660205 1_555
Pm5 S10 2.692784 1_555
Pm5 S5 2.699065 1_555
Pm5 S11 3.091157 1_555
Pm6 S6 2.630586 1_555
Pm6 S12 2.651165 1_555
Pm6 S4 2.681521 1_545
Pm6 S9 2.706641 1_555
Pm6 S8 3.058655 1_545
Pm7 S7 2.630586 1_555
Pm7 S13 2.651165 1_555
Pm7 S5 2.681521 1_565
Pm7 S8 2.706641 1_555
Pm7 S9 3.058655 1_565
Mg0 S2 2.400529 1_555
Mg0 S10 2.479844 1_555
Mg0 S5 2.480019 1_455
Mg0 S8 2.507818 1_545
Mg1 S3 2.400529 1_555
Mg1 S11 2.479844 1_555
Mg1 S4 2.480019 1_655
Mg1 S9 2.507818 1_565
Mg2 S0 2.722216 1_555
Mg2 S14 2.733399 1_556
Mg2 S2 2.738995 1_555
Mg2 S15 2.754924 1_555
Mg2 S1 2.860963 1_456
Mg2 S12 3.037565 1_556
Mg3 S1 2.722213 1_555
Mg3 S15 2.733403 1_554
Mg3 S3 2.738992 1_555
Mg3 S14 2.754931 1_555
Mg3 S0 2.860956 1_654
Mg3 S13 3.037568 1_554
