# generated using pymatgen
data_Ca(FeS2)4
_symmetry_space_group_name_H-M   'P 1'
_cell_length_a   7.55353114
_cell_length_b   7.55353114
_cell_length_c   7.55353126
_cell_angle_alpha   52.10631423
_cell_angle_beta   52.10631423
_cell_angle_gamma   52.10630826
_symmetry_Int_Tables_number   1
_chemical_formula_structural   Ca(FeS2)4
_chemical_formula_sum   'Ca1 Fe4 S8'
_cell_volume   248.20498119
_cell_formula_units_Z   1
loop_
 _symmetry_equiv_pos_site_id
 _symmetry_equiv_pos_as_xyz
  1  'x, y, z'
loop_
 _atom_site_type_symbol
 _atom_site_label
 _atom_site_symmetry_multiplicity
 _atom_site_fract_x
 _atom_site_fract_y
 _atom_site_fract_z
 _atom_site_occupancy
  Ca  Ca0  1  0.50000000  0.50000000  0.50000000  1
  Fe  Fe0  1  0.00000000  0.50000000  0.50000000  1
  Fe  Fe1  1  0.50000000  0.00000000  0.50000000  1
  Fe  Fe2  1  0.50000000  0.50000000  0.00000000  1
  Fe  Fe3  1  0.00000000  0.00000000  0.00000000  1
  S  S0  1  0.26633200  0.77181500  0.77181500  1
  S  S1  1  0.22818500  0.22818500  0.73366800  1
  S  S2  1  0.73366800  0.22818500  0.22818500  1
  S  S3  1  0.22818500  0.73366800  0.22818500  1
  S  S4  1  0.26827500  0.26827500  0.26827500  1
  S  S5  1  0.73172500  0.73172500  0.73172500  1
  S  S6  1  0.77181500  0.26633200  0.77181500  1
  S  S7  1  0.77181500  0.77181500  0.26633200  1
loop_
_geom_bond_atom_site_label_1
_geom_bond_atom_site_label_2
_geom_bond_distance
_geom_bond_site_symmetry_2
Ca0 S2 2.796681 1_555
Ca0 S6 2.796681 1_555
Ca0 S3 2.796681 1_555
Ca0 S0 2.796681 1_555
Ca0 S1 2.796681 1_555
Ca0 S7 2.796681 1_555
Fe0 S7 2.289093 1_455
Fe0 S1 2.289093 1_555
Fe0 S6 2.289093 1_455
Fe0 S3 2.289093 1_555
Fe0 S5 2.298508 1_455
Fe0 S4 2.298508 1_555
Fe1 S7 2.289093 1_545
Fe1 S1 2.289093 1_555
Fe1 S0 2.289093 1_545
Fe1 S2 2.289093 1_555
Fe1 S5 2.298508 1_545
Fe1 S4 2.298508 1_555
Fe2 S6 2.289093 1_554
Fe2 S2 2.289093 1_555
Fe2 S3 2.289093 1_555
Fe2 S0 2.289093 1_554
Fe2 S5 2.298508 1_554
Fe2 S4 2.298508 1_555
Fe3 S6 2.262576 1_454
Fe3 S3 2.262576 1_545
Fe3 S0 2.262576 1_544
Fe3 S2 2.262576 1_455
Fe3 S7 2.262577 1_445
Fe3 S1 2.262577 1_554
