# generated using pymatgen
data_Ca2Sb2O5
_symmetry_space_group_name_H-M   'P 1'
_cell_length_a   4.27186300
_cell_length_b   6.40225900
_cell_length_c   10.30064100
_cell_angle_alpha   90.00000000
_cell_angle_beta   90.00000000
_cell_angle_gamma   90.00000000
_symmetry_Int_Tables_number   1
_chemical_formula_structural   Ca2Sb2O5
_chemical_formula_sum   'Ca4 Sb4 O10'
_cell_volume   281.71813646
_cell_formula_units_Z   2
loop_
 _symmetry_equiv_pos_site_id
 _symmetry_equiv_pos_as_xyz
  1  'x, y, z'
loop_
 _atom_site_type_symbol
 _atom_site_label
 _atom_site_symmetry_multiplicity
 _atom_site_fract_x
 _atom_site_fract_y
 _atom_site_fract_z
 _atom_site_occupancy
  Ca  Ca0  1  0.00000000  0.16035900  0.36070200  1
  Ca  Ca1  1  0.00000000  0.83964100  0.63929800  1
  Ca  Ca2  1  0.00000000  0.66035900  0.13929800  1
  Ca  Ca3  1  0.00000000  0.33964100  0.86070200  1
  Sb  Sb0  1  0.50000000  0.21892400  0.10769200  1
  Sb  Sb1  1  0.50000000  0.78107600  0.89230800  1
  Sb  Sb2  1  0.50000000  0.28107600  0.60769200  1
  Sb  Sb3  1  0.50000000  0.71892400  0.39230800  1
  O  O0  1  0.50000000  0.50000000  0.00000000  1
  O  O1  1  0.50000000  0.18171600  0.79090400  1
  O  O2  1  0.50000000  0.68171600  0.70909600  1
  O  O3  1  0.50000000  0.31828400  0.29090400  1
  O  O4  1  0.00000000  0.21348900  0.62174500  1
  O  O5  1  0.00000000  0.78651100  0.37825500  1
  O  O6  1  0.50000000  0.81828400  0.20909600  1
  O  O7  1  0.00000000  0.28651100  0.12174500  1
  O  O8  1  0.50000000  0.00000000  0.50000000  1
  O  O9  1  0.00000000  0.71348900  0.87825500  1
loop_
_geom_bond_atom_site_label_1
_geom_bond_atom_site_label_2
_geom_bond_distance
_geom_bond_site_symmetry_2
Ca0 O5 2.400291 1_545
Ca0 O3 2.470099 1_455
Ca0 O3 2.470099 1_555
Ca0 O7 2.590531 1_555
Ca0 O4 2.710340 1_555
Ca0 O8 2.770389 1_555
Ca0 O8 2.770389 1_455
Ca1 O4 2.400291 1_565
Ca1 O2 2.470099 1_455
Ca1 O2 2.470099 1_555
Ca1 O9 2.590531 1_555
Ca1 O5 2.710340 1_555
Ca1 O8 2.770389 1_565
Ca1 O8 2.770389 1_465
Ca2 O7 2.400291 1_555
Ca2 O6 2.470099 1_455
Ca2 O6 2.470099 1_555
Ca2 O5 2.590531 1_555
Ca2 O9 2.710340 1_554
Ca2 O0 2.770389 1_455
Ca2 O0 2.770389 1_555
Ca3 O9 2.400291 1_555
Ca3 O1 2.470099 1_555
Ca3 O1 2.470099 1_455
Ca3 O4 2.590531 1_555
Ca3 O7 2.710340 1_556
Ca3 O0 2.770389 1_556
Ca3 O0 2.770389 1_456
O0 Sb1 2.113957 1_554
O0 Sb0 2.113957 1_555
O1 Sb2 1.991529 1_555
O2 Sb1 1.991529 1_555
O3 Sb0 1.991529 1_555
O4 Sb2 2.184123 1_455
O4 Sb2 2.184123 1_555
O5 Sb3 2.184123 1_555
O5 Sb3 2.184123 1_455
O6 Sb3 1.991529 1_555
O7 Sb0 2.184123 1_455
O7 Sb0 2.184123 1_555
O8 Sb2 2.113957 1_555
O8 Sb3 2.113957 1_545
O9 Sb1 2.184123 1_455
O9 Sb1 2.184123 1_555
