# generated using pymatgen
data_CrO2
_symmetry_space_group_name_H-M   'P 1'
_cell_length_a   5.94359680
_cell_length_b   5.94991424
_cell_length_c   17.67472717
_cell_angle_alpha   59.62416718
_cell_angle_beta   59.74294971
_cell_angle_gamma   59.99524537
_symmetry_Int_Tables_number   1
_chemical_formula_structural   CrO2
_chemical_formula_sum   'Cr12 O24'
_cell_volume   439.83268183
_cell_formula_units_Z   12
loop_
 _symmetry_equiv_pos_site_id
 _symmetry_equiv_pos_as_xyz
  1  'x, y, z'
loop_
 _atom_site_type_symbol
 _atom_site_label
 _atom_site_symmetry_multiplicity
 _atom_site_fract_x
 _atom_site_fract_y
 _atom_site_fract_z
 _atom_site_occupancy
  Cr  Cr0  1  0.49247300  0.49234300  0.16560100  1
  Cr  Cr1  1  0.00214900  0.50146400  0.49835700  1
  Cr  Cr2  1  0.50397400  0.50118300  0.33074600  1
  Cr  Cr3  1  0.49223200  0.01744600  0.16587600  1
  Cr  Cr4  1  0.50140900  0.50059200  0.49870500  1
  Cr  Cr5  1  0.01758400  0.49257800  0.16568600  1
  Cr  Cr6  1  0.50187400  0.50544300  0.66395800  1
  Cr  Cr7  1  0.50101500  0.00228600  0.49842200  1
  Cr  Cr8  1  0.49681600  0.49635100  0.83259000  1
  Cr  Cr9  1  0.49796800  0.01092700  0.83095600  1
  Cr  Cr10  1  0.00603400  0.49511600  0.83437400  1
  Cr  Cr11  1  0.88063100  0.87795400  0.95380600  1
  O  O0  1  0.23555400  0.23626500  0.10646000  1
  O  O1  1  0.23602000  0.70882100  0.10606200  1
  O  O2  1  0.26177000  0.26089500  0.23859800  1
  O  O3  1  0.70833700  0.23620900  0.10629100  1
  O  O4  1  0.26956600  0.26864900  0.42211400  1
  O  O5  1  0.31487600  0.72871300  0.24209800  1
  O  O6  1  0.75040600  0.75104100  0.08240000  1
  O  O7  1  0.73045500  0.31274500  0.24231500  1
  O  O8  1  0.27115600  0.69420300  0.42141500  1
  O  O9  1  0.26777300  0.26887900  0.56518700  1
  O  O10  1  0.69592900  0.26766000  0.42256100  1
  O  O11  1  0.73067000  0.72872900  0.24226100  1
  O  O12  1  0.27070900  0.27450900  0.75275700  1
  O  O13  1  0.30538300  0.73531100  0.57516500  1
  O  O14  1  0.73415400  0.73310800  0.43291000  1
  O  O15  1  0.73302000  0.30640500  0.57612800  1
  O  O16  1  0.26591800  0.26195000  0.90272600  1
  O  O17  1  0.27023700  0.69796000  0.75349300  1
  O  O18  1  0.69829800  0.27326400  0.75261000  1
  O  O19  1  0.73444400  0.73486900  0.57537700  1
  O  O20  1  0.24564500  0.76789600  0.90624600  1
  O  O21  1  0.76900200  0.24645100  0.90502300  1
  O  O22  1  0.71728600  0.72197200  0.77999200  1
  O  O23  1  0.76763300  0.76821700  0.90563600  1
loop_
_geom_bond_atom_site_label_1
_geom_bond_atom_site_label_2
_geom_bond_distance
_geom_bond_site_symmetry_2
Cr0 O1 1.836267 1_555
Cr0 O3 1.836368 1_555
Cr0 O2 1.936500 1_555
Cr0 O5 1.979968 1_555
Cr0 O7 1.984135 1_555
Cr0 O6 2.163548 1_555
Cr1 O8 1.945832 1_555
Cr1 O4 1.946389 1_555
Cr1 O15 1.955152 1_455
Cr1 O14 1.955414 1_455
Cr1 O19 1.957698 1_455
Cr1 O9 1.960574 1_555
Cr2 O11 1.911501 1_555
Cr2 O7 1.911691 1_555
Cr2 O5 1.912741 1_555
Cr2 O8 1.959352 1_555
Cr2 O4 1.965725 1_555
Cr2 O10 1.966145 1_555
Cr3 O0 1.835919 1_555
Cr3 O3 1.837301 1_555
Cr3 O2 1.936692 1_555
Cr3 O5 1.979102 1_545
Cr3 O11 1.982396 1_545
Cr3 O6 2.166786 1_545
Cr4 O8 1.944699 1_555
Cr4 O10 1.945369 1_555
Cr4 O15 1.952235 1_555
Cr4 O13 1.956720 1_555
Cr4 O9 1.960047 1_555
Cr4 O14 1.961054 1_555
Cr5 O0 1.836234 1_555
Cr5 O1 1.836337 1_555
Cr5 O2 1.937701 1_555
Cr5 O11 1.978635 1_455
Cr5 O7 1.980662 1_455
Cr5 O6 2.162755 1_455
Cr6 O18 1.941104 1_555
Cr6 O19 1.941694 1_555
Cr6 O17 1.942225 1_555
Cr6 O12 1.942428 1_555
Cr6 O13 1.943256 1_555
Cr6 O15 1.944876 1_555
Cr7 O4 1.936667 1_555
Cr7 O10 1.938033 1_555
Cr7 O13 1.947799 1_545
Cr7 O19 1.952374 1_545
Cr7 O14 1.965937 1_545
Cr7 O9 1.968644 1_555
Cr8 O22 1.911286 1_555
Cr8 O17 1.947460 1_555
Cr8 O18 1.948372 1_555
Cr8 O16 1.953592 1_555
Cr8 O21 2.055055 1_555
Cr8 O20 2.071271 1_555
Cr9 O22 1.899456 1_545
Cr9 O12 1.940339 1_555
Cr9 O18 1.944956 1_555
Cr9 O16 1.958270 1_555
Cr9 O23 2.070251 1_545
Cr9 O20 2.079076 1_545
Cr10 O22 1.929921 1_455
Cr10 O16 1.952541 1_555
Cr10 O12 1.959963 1_555
Cr10 O17 1.963277 1_555
Cr10 O21 2.043640 1_455
Cr10 O23 2.050149 1_455
Cr11 O20 1.772041 1_655
Cr11 O23 1.783050 1_555
Cr11 O21 1.789000 1_565
Cr11 O6 1.846928 1_556
