# generated using pymatgen
data_KNaNb4O12
_symmetry_space_group_name_H-M   'P 1'
_cell_length_a   5.66351230
_cell_length_b   5.66351230
_cell_length_c   8.01342898
_cell_angle_alpha   90.00000000
_cell_angle_beta   90.00000000
_cell_angle_gamma   90.00000000
_symmetry_Int_Tables_number   1
_chemical_formula_structural   KNaNb4O12
_chemical_formula_sum   'K1 Na1 Nb4 O12'
_cell_volume   257.03371210
_cell_formula_units_Z   1
loop_
 _symmetry_equiv_pos_site_id
 _symmetry_equiv_pos_as_xyz
  1  'x, y, z'
loop_
 _atom_site_type_symbol
 _atom_site_label
 _atom_site_symmetry_multiplicity
 _atom_site_fract_x
 _atom_site_fract_y
 _atom_site_fract_z
 _atom_site_occupancy
  K  K0  1  -0.00000000  -0.00000000  0.50000000  1
  Na  Na0  1  0.50000000  0.50000000  0.00000000  1
  Nb  Nb0  1  -0.00000000  0.50000000  0.75113225  1
  Nb  Nb1  1  -0.00000000  0.50000000  0.24886775  1
  Nb  Nb2  1  0.50000000  -0.00000000  0.75113225  1
  Nb  Nb3  1  0.50000000  -0.00000000  0.24886775  1
  O  O0  1  0.25115042  0.25115042  0.75134008  1
  O  O1  1  0.25115042  0.25115042  0.24865992  1
  O  O2  1  0.74884958  0.74884958  0.75134008  1
  O  O3  1  0.74884958  0.74884958  0.24865992  1
  O  O4  1  0.74884958  0.25115042  0.75134008  1
  O  O5  1  0.74884958  0.25115042  0.24865992  1
  O  O6  1  0.25115042  0.74884958  0.75134008  1
  O  O7  1  0.25115042  0.74884958  0.24865992  1
  O  O8  1  -0.00000000  0.50000000  0.50000000  1
  O  O9  1  -0.00000000  0.50000000  -0.00000000  1
  O  O10  1  0.50000000  -0.00000000  0.50000000  1
  O  O11  1  0.50000000  -0.00000000  0.00000000  1
loop_
_geom_bond_atom_site_label_1
_geom_bond_atom_site_label_2
_geom_bond_distance
_geom_bond_site_symmetry_2
K0 O8 2.831756 1_555
K0 O10 2.831756 1_455
K0 O8 2.831756 1_545
K0 O10 2.831756 1_555
K0 O4 2.846575 1_455
K0 O3 2.846575 1_445
K0 O1 2.846575 1_555
K0 O6 2.846575 1_545
K0 O5 2.846575 1_455
K0 O0 2.846575 1_555
K0 O7 2.846575 1_545
K0 O2 2.846575 1_445
Na0 O3 2.818357 1_555
Na0 O1 2.818357 1_555
Na0 O7 2.818357 1_555
Na0 O5 2.818357 1_555
Na0 O2 2.818357 1_554
Na0 O0 2.818357 1_554
Na0 O4 2.818357 1_554
Na0 O6 2.818357 1_554
Na0 O11 2.831756 1_555
Na0 O11 2.831756 1_565
Na0 O9 2.831756 1_555
Na0 O9 2.831756 1_655
Nb0 O9 1.994284 1_556
Nb0 O2 2.002376 1_455
Nb0 O6 2.002376 1_555
Nb0 O4 2.002376 1_455
Nb0 O0 2.002376 1_555
Nb0 O8 2.012430 1_555
Nb1 O9 1.994284 1_555
Nb1 O3 2.002376 1_455
Nb1 O7 2.002376 1_555
Nb1 O1 2.002376 1_555
Nb1 O5 2.002376 1_455
Nb1 O8 2.012430 1_555
Nb2 O11 1.994284 1_556
Nb2 O0 2.002376 1_555
Nb2 O4 2.002376 1_555
Nb2 O6 2.002376 1_545
Nb2 O2 2.002376 1_545
Nb2 O10 2.012430 1_555
Nb3 O11 1.994284 1_555
Nb3 O1 2.002376 1_555
Nb3 O5 2.002376 1_555
Nb3 O3 2.002376 1_545
Nb3 O7 2.002376 1_545
Nb3 O10 2.012430 1_555
