# generated using pymatgen
data_Li9Mn2Co5O16
_symmetry_space_group_name_H-M   'P 1'
_cell_length_a   3.02604200
_cell_length_b   5.06099681
_cell_length_c   19.12790150
_cell_angle_alpha   91.98859530
_cell_angle_beta   92.45990388
_cell_angle_gamma   91.39025902
_symmetry_Int_Tables_number   1
_chemical_formula_structural   Li9Mn2Co5O16
_chemical_formula_sum   'Li9 Mn2 Co5 O16'
_cell_volume   292.39627631
_cell_formula_units_Z   1
loop_
 _symmetry_equiv_pos_site_id
 _symmetry_equiv_pos_as_xyz
  1  'x, y, z'
loop_
 _atom_site_type_symbol
 _atom_site_label
 _atom_site_symmetry_multiplicity
 _atom_site_fract_x
 _atom_site_fract_y
 _atom_site_fract_z
 _atom_site_occupancy
  Li  Li0  1  0.00036000  0.62464800  0.87409800  1
  Li  Li1  1  0.50423700  0.74849900  0.74902100  1
  Li  Li2  1  0.00728100  0.87102900  0.62489200  1
  Li  Li3  1  0.50024300  0.99975100  0.50008200  1
  Li  Li4  1  0.99252200  0.12925200  0.37489000  1
  Li  Li5  1  0.49759400  0.25094600  0.25071100  1
  Li  Li6  1  0.99986600  0.37492100  0.12575500  1
  Li  Li7  1  0.50020900  0.50018200  0.00060800  1
  Li  Li8  1  0.99953800  0.50033200  0.49992200  1
  Mn  Mn0  1  0.99121700  0.99867200  0.00106200  1
  Mn  Mn1  1  0.50870700  0.12645600  0.87325600  1
  Co  Co0  1  0.00507300  0.25680100  0.74692400  1
  Co  Co1  1  0.50140600  0.37402000  0.61893700  1
  Co  Co2  1  0.49896400  0.62514700  0.38048200  1
  Co  Co3  1  0.00055600  0.74701900  0.25218100  1
  Co  Co4  1  0.49420200  0.87185700  0.12750700  1
  O  O0  1  0.53149200  0.83103200  0.93637600  1
  O  O1  1  0.04149200  0.95906200  0.80915200  1
  O  O2  1  0.49255800  0.09762600  0.68489600  1
  O  O3  1  0.02573500  0.19832500  0.56687700  1
  O  O4  1  0.50039800  0.34514500  0.42968000  1
  O  O5  1  0.03617100  0.46008300  0.31320200  1
  O  O6  1  0.49726800  0.58117300  0.18831700  1
  O  O7  1  0.98354400  0.70739300  0.06427900  1
  O  O8  1  0.51137800  0.41927200  0.81085600  1
  O  O9  1  0.96457400  0.54193000  0.68618700  1
  O  O10  1  0.49874400  0.65544100  0.56971800  1
  O  O11  1  0.97230400  0.80141700  0.43259600  1
  O  O12  1  0.51097200  0.90329500  0.31455900  1
  O  O13  1  0.00500600  0.03961300  0.19013600  1
  O  O14  1  0.45740900  0.16620000  0.06498900  1
  O  O15  1  0.96898800  0.29346500  0.93784600  1
loop_
_geom_bond_atom_site_label_1
_geom_bond_atom_site_label_2
_geom_bond_distance
_geom_bond_site_symmetry_2
Li0 O8 2.101814 1_455
Li0 O15 2.109333 1_455
Li0 O1 2.138263 1_555
Li0 O0 2.157254 1_455
Li0 O0 2.181991 1_555
Li0 O8 2.255272 1_555
Li1 O8 2.076542 1_555
Li1 O1 2.131886 1_555
Li1 O9 2.145950 1_555
Li1 O1 2.184486 1_655
Li1 O2 2.185750 1_565
Li1 O9 2.205851 1_455
Li2 O3 2.026517 1_565
Li2 O9 2.074496 1_455
Li2 O10 2.090823 1_455
Li2 O2 2.114510 1_565
Li2 O10 2.156281 1_555
Li2 O2 2.281955 1_465
Li3 O3 2.197710 1_665
Li3 O3 2.200572 1_565
Li3 O11 2.202809 1_555
Li3 O11 2.209375 1_455
Li3 O10 2.229782 1_555
Li3 O4 2.243316 1_565
Li4 O11 2.025569 1_545
Li4 O5 2.086363 1_655
Li4 O4 2.086839 1_655
Li4 O12 2.108573 1_545
Li4 O4 2.154838 1_555
Li4 O12 2.291648 1_645
Li5 O6 2.087089 1_555
Li5 O13 2.096834 1_555
Li5 O5 2.150787 1_555
Li5 O12 2.176511 1_545
Li5 O5 2.206007 1_655
Li5 O13 2.233938 1_655
Li6 O7 2.086346 1_555
Li6 O6 2.114144 1_655
Li6 O14 2.123137 1_655
Li6 O13 2.131015 1_655
Li6 O14 2.197324 1_555
Li6 O6 2.231883 1_555
Li7 O7 2.099101 1_555
Li7 O0 2.113590 1_554
Li7 O14 2.130231 1_555
Li7 O15 2.163108 1_554
Li7 O15 2.187545 1_454
Li7 O7 2.276350 1_455
Li8 O3 2.028718 1_655
Li8 O11 2.029863 1_555
Li8 O10 2.092168 1_655
Li8 O4 2.097243 1_555
Li8 O10 2.203126 1_555
Li8 O4 2.208735 1_655
Mn0 O7 1.939160 1_555
Mn0 O15 1.953371 1_564
Mn0 O0 1.976908 1_554
Mn0 O14 1.981447 1_665
Mn0 O14 2.233252 1_565
Mn0 O0 2.256487 1_654
Mn1 O8 1.934904 1_555
Mn1 O0 1.954747 1_545
Mn1 O15 1.975719 1_555
Mn1 O1 1.985210 1_545
Mn1 O1 2.232574 1_645
Mn1 O15 2.252978 1_455
Co0 O9 1.886742 1_455
Co0 O1 1.954694 1_545
Co0 O2 2.043776 1_455
Co0 O8 2.056004 1_555
Co0 O2 2.091484 1_555
Co0 O8 2.133091 1_455
Co1 O10 1.734335 1_555
Co1 O3 1.899356 1_555
Co1 O2 1.916451 1_555
Co1 O9 2.013160 1_555
Co1 O3 2.107686 1_655
Co1 O9 2.277338 1_455
Co2 O4 1.728075 1_555
Co2 O11 1.896009 1_555
Co2 O12 1.922925 1_555
Co2 O5 2.007279 1_555
Co2 O11 2.114953 1_455
Co2 O5 2.273220 1_655
Co3 O5 1.896640 1_555
Co3 O13 1.929727 1_565
Co3 O12 2.037600 1_555
Co3 O6 2.055072 1_455
Co3 O12 2.094546 1_455
Co3 O6 2.145616 1_555
Co4 O6 1.906784 1_555
Co4 O14 1.944682 1_565
Co4 O7 2.061715 1_455
Co4 O13 2.062025 1_665
Co4 O13 2.118946 1_565
Co4 O7 2.119400 1_555
