# generated using pymatgen
data_LaH6C2SNO9
_symmetry_space_group_name_H-M   'P 1'
_cell_length_a   9.08530000
_cell_length_b   6.73202000
_cell_length_c   15.44301409
_cell_angle_alpha   68.53459083
_cell_angle_beta   90.00000000
_cell_angle_gamma   90.00000000
_symmetry_Int_Tables_number   1
_chemical_formula_structural   LaH6C2SNO9
_chemical_formula_sum   'La4 H24 C8 S4 N4 O36'
_cell_volume   879.01812325
_cell_formula_units_Z   4
loop_
 _symmetry_equiv_pos_site_id
 _symmetry_equiv_pos_as_xyz
  1  'x, y, z'
loop_
 _atom_site_type_symbol
 _atom_site_label
 _atom_site_symmetry_multiplicity
 _atom_site_fract_x
 _atom_site_fract_y
 _atom_site_fract_z
 _atom_site_occupancy
  La  La0  1  0.23577700  0.33801600  0.40930800  1
  La  La1  1  0.26422300  0.33801600  0.90930800  1
  La  La2  1  0.76422300  0.66198400  0.59069200  1
  La  La3  1  0.73577700  0.66198400  0.09069200  1
  H  H0  1  0.18852100  0.91836300  0.66242800  1
  H  H1  1  0.31147900  0.91836300  0.16242800  1
  H  H2  1  0.81147900  0.08163700  0.33757200  1
  H  H3  1  0.68852100  0.08163700  0.83757200  1
  H  H4  1  0.05298200  0.09437500  0.65776600  1
  H  H5  1  0.44701800  0.09437500  0.15776600  1
  H  H6  1  0.94701800  0.90562500  0.34223400  1
  H  H7  1  0.55298200  0.90562500  0.84223400  1
  H  H8  1  0.13215300  0.95806700  0.75986500  1
  H  H9  1  0.36784700  0.95806700  0.25986500  1
  H  H10  1  0.86784700  0.04193300  0.24013500  1
  H  H11  1  0.63215300  0.04193300  0.74013500  1
  H  H12  1  0.46847400  0.27982400  0.57710200  1
  H  H13  1  0.03152600  0.27982400  0.07710200  1
  H  H14  1  0.53152600  0.72017600  0.42289800  1
  H  H15  1  0.96847400  0.72017600  0.92289800  1
  H  H16  1  0.46539300  0.05159600  0.57334200  1
  H  H17  1  0.03460700  0.05159600  0.07334200  1
  H  H18  1  0.53460700  0.94840400  0.42665800  1
  H  H19  1  0.96539300  0.94840400  0.92665800  1
  H  H20  1  0.22516500  0.15304600  0.67979100  1
  H  H21  1  0.27483500  0.15304600  0.17979100  1
  H  H22  1  0.77483500  0.84695400  0.32020900  1
  H  H23  1  0.72516500  0.84695400  0.82020900  1
  C  C0  1  0.53245900  0.58099700  0.28222500  1
  C  C1  1  0.96754100  0.58099700  0.78222500  1
  C  C2  1  0.46754100  0.41900300  0.71777500  1
  C  C3  1  0.03245900  0.41900300  0.21777500  1
  C  C4  1  0.52588600  0.36187400  0.27046300  1
  C  C5  1  0.97411400  0.36187400  0.77046300  1
  C  C6  1  0.47411400  0.63812600  0.72953700  1
  C  C7  1  0.02588600  0.63812600  0.22953700  1
  S  S0  1  0.16495700  0.74275200  0.52355500  1
  S  S1  1  0.33504300  0.74275200  0.02355500  1
  S  S2  1  0.83504300  0.25724800  0.47644500  1
  S  S3  1  0.66495700  0.25724800  0.97644500  1
  N  N0  1  0.15088100  0.03154600  0.68967600  1
  N  N1  1  0.34911900  0.03154600  0.18967600  1
  N  N2  1  0.84911900  0.96845400  0.31032400  1
  N  N3  1  0.65088100  0.96845400  0.81032400  1
  O  O0  1  0.23313600  0.56870200  0.49927000  1
  O  O1  1  0.26686400  0.56870200  0.99927000  1
  O  O2  1  0.76686400  0.43129800  0.50073000  1
  O  O3  1  0.73313600  0.43129800  0.00073000  1
  O  O4  1  0.22883200  0.95035600  0.46156300  1
  O  O5  1  0.27116800  0.95035600  0.96156300  1
  O  O6  1  0.77116800  0.04964400  0.53843700  1
  O  O7  1  0.72883200  0.04964400  0.03843700  1
  O  O8  1  0.44474700  0.21969900  0.32708200  1
  O  O9  1  0.05525300  0.21969900  0.82708200  1
  O  O10  1  0.55525300  0.78030100  0.67291800  1
  O  O11  1  0.94474700  0.78030100  0.17291800  1
  O  O12  1  0.41583700  0.19056400  0.54850900  1
  O  O13  1  0.08416300  0.19056400  0.04850900  1
  O  O14  1  0.58416300  0.80943600  0.45149100  1
  O  O15  1  0.91583700  0.80943600  0.95149100  1
  O  O16  1  0.44677800  0.60654300  0.34273700  1
  O  O17  1  0.05322200  0.60654300  0.84273700  1
  O  O18  1  0.55322200  0.39345700  0.65726300  1
  O  O19  1  0.94677800  0.39345700  0.15726300  1
  O  O20  1  0.12031800  0.28045600  0.26924000  1
  O  O21  1  0.37968200  0.28045600  0.76924000  1
  O  O22  1  0.87968200  0.71954400  0.73076000  1
  O  O23  1  0.62031800  0.71954400  0.23076000  1
  O  O24  1  0.99758500  0.25397500  0.49325200  1
  O  O25  1  0.50241500  0.25397500  0.99325200  1
  O  O26  1  0.00241500  0.74602500  0.50674800  1
  O  O27  1  0.49758500  0.74602500  0.00674800  1
  O  O28  1  0.10005800  0.65757500  0.29546500  1
  O  O29  1  0.39994200  0.65757500  0.79546500  1
  O  O30  1  0.89994200  0.34242500  0.70453500  1
  O  O31  1  0.60005800  0.34242500  0.20453500  1
  O  O32  1  0.19571600  0.70713100  0.62219500  1
  O  O33  1  0.30428400  0.70713100  0.12219500  1
  O  O34  1  0.80428400  0.29286900  0.37780500  1
  O  O35  1  0.69571600  0.29286900  0.87780500  1
loop_
_geom_bond_atom_site_label_1
_geom_bond_atom_site_label_2
_geom_bond_distance
_geom_bond_site_symmetry_2
La0 O0 2.433413 1_555
La0 O4 2.434045 1_545
La0 O24 2.479299 1_455
La0 O28 2.543854 1_555
La0 O20 2.557897 1_555
La0 O8 2.567415 1_555
La0 O16 2.576731 1_555
La0 O12 2.592472 1_555
La1 O1 2.433413 1_555
La1 O5 2.434045 1_545
La1 O25 2.479299 1_555
La1 O29 2.543854 1_555
La1 O21 2.557897 1_555
La1 O9 2.567415 1_555
La1 O17 2.576731 1_555
La1 O13 2.592472 1_556
La2 O2 2.433413 1_555
La2 O6 2.434045 1_565
La2 O26 2.479299 1_655
La2 O30 2.543854 1_555
La2 O22 2.557897 1_555
La2 O10 2.567415 1_555
La2 O18 2.576731 1_555
La2 O14 2.592472 1_555
La3 O3 2.433413 1_555
La3 O7 2.434045 1_565
La3 O27 2.479299 1_555
La3 O31 2.543854 1_555
La3 O23 2.557897 1_555
La3 O11 2.567415 1_555
La3 O19 2.576731 1_555
La3 O15 2.592472 1_554
H0 N0 1.053202 1_565
H1 N1 1.053202 1_565
H2 N2 1.053202 1_545
H3 N3 1.053202 1_545
H4 N0 1.029708 1_555
H5 N1 1.029708 1_555
H6 N2 1.029708 1_555
H7 N3 1.029708 1_555
H8 N0 1.027680 1_565
H9 N1 1.027680 1_565
H10 N2 1.027680 1_545
H11 N3 1.027680 1_545
H12 O12 0.989418 1_555
H13 O13 0.989418 1_555
H14 O14 0.989418 1_555
H15 O15 0.989418 1_555
H16 O12 0.981032 1_555
H17 O13 0.981032 1_555
H18 O14 0.981032 1_555
H19 O15 0.981032 1_555
H20 N0 1.027826 1_555
H21 N1 1.027826 1_555
H22 N2 1.027826 1_555
H23 N3 1.027826 1_555
C0 O23 1.263420 1_555
C0 O16 1.275315 1_555
C1 O22 1.263420 1_555
C1 O17 1.275315 1_655
C2 O21 1.263420 1_555
C2 O18 1.275315 1_555
C3 O20 1.263420 1_555
C3 O19 1.275315 1_455
C4 O31 1.267042 1_555
C4 O8 1.269463 1_555
C5 O30 1.267042 1_555
C5 O9 1.269463 1_655
C6 O29 1.267042 1_555
C6 O10 1.269463 1_555
C7 O28 1.267042 1_555
C7 O11 1.269463 1_455
O0 S0 1.489580 1_555
O1 S1 1.489580 1_556
O2 S2 1.489580 1_555
O3 S3 1.489580 1_554
O4 S0 1.492419 1_555
O5 S1 1.492419 1_556
O6 S2 1.492419 1_555
O7 S3 1.492419 1_554
O24 S2 1.498144 1_555
O25 S3 1.498144 1_555
O26 S0 1.498144 1_555
O27 S1 1.498144 1_555
O32 S0 1.479423 1_555
O33 S1 1.479423 1_555
O34 S2 1.479423 1_555
O35 S3 1.479423 1_555
