# generated using pymatgen
data_WO3
_symmetry_space_group_name_H-M   'P 1'
_cell_length_a   5.23658196
_cell_length_b   5.23658196
_cell_length_c   7.89915727
_cell_angle_alpha   90.00000000
_cell_angle_beta   90.00000000
_cell_angle_gamma   90.00000000
_symmetry_Int_Tables_number   1
_chemical_formula_structural   WO3
_chemical_formula_sum   'W4 O12'
_cell_volume   216.60903676
_cell_formula_units_Z   4
loop_
 _symmetry_equiv_pos_site_id
 _symmetry_equiv_pos_as_xyz
  1  'x, y, z'
loop_
 _atom_site_type_symbol
 _atom_site_label
 _atom_site_symmetry_multiplicity
 _atom_site_fract_x
 _atom_site_fract_y
 _atom_site_fract_z
 _atom_site_occupancy
  W  W0  1  0.75000000  0.75000000  0.21665774  1
  W  W1  1  0.75000000  0.75000000  0.71665774  1
  W  W2  1  0.25000000  0.25000000  0.28334226  1
  W  W3  1  0.25000000  0.25000000  0.78334226  1
  O  O0  1  0.04704974  0.54704974  0.75000000  1
  O  O1  1  0.54704974  0.04704974  0.25000000  1
  O  O2  1  0.04704974  0.95295026  0.25000000  1
  O  O3  1  0.95295026  0.45295026  0.25000000  1
  O  O4  1  0.54704974  0.45295026  0.75000000  1
  O  O5  1  0.45295026  0.95295026  0.75000000  1
  O  O6  1  0.95295026  0.04704974  0.75000000  1
  O  O7  1  0.45295026  0.54704974  0.25000000  1
  O  O8  1  0.75000000  0.75000000  0.99419025  1
  O  O9  1  0.25000000  0.25000000  0.50580975  1
  O  O10  1  0.75000000  0.75000000  0.49419025  1
  O  O11  1  0.25000000  0.25000000  0.00580975  1
loop_
_geom_bond_atom_site_label_1
_geom_bond_atom_site_label_2
_geom_bond_distance
_geom_bond_site_symmetry_2
O0 W1 1.902235 1_455
O0 W3 1.902235 1_555
O1 W0 1.902235 1_545
O1 W2 1.902235 1_555
O2 W2 1.902235 1_565
O2 W0 1.902235 1_455
O3 W2 1.902235 1_655
O3 W0 1.902235 1_555
O4 W1 1.902235 1_555
O4 W3 1.902235 1_555
O5 W3 1.902235 1_565
O5 W1 1.902235 1_555
O6 W3 1.902235 1_655
O6 W1 1.902235 1_545
O7 W0 1.902235 1_555
O7 W2 1.902235 1_555
O8 W0 1.757306 1_556
O8 W1 2.192273 1_555
O9 W2 1.757306 1_555
O9 W3 2.192273 1_555
O10 W1 1.757306 1_555
O10 W0 2.192273 1_555
O11 W3 1.757306 1_554
O11 W2 2.192273 1_555
