# generated using pymatgen
data_U(Zn10Fe)2
_symmetry_space_group_name_H-M   'P 1'
_cell_length_a   9.95612853
_cell_length_b   9.95612853
_cell_length_c   9.95612853
_cell_angle_alpha   60.00000000
_cell_angle_beta   60.00000000
_cell_angle_gamma   60.00000000
_symmetry_Int_Tables_number   1
_chemical_formula_structural   U(Zn10Fe)2
_chemical_formula_sum   'U2 Zn40 Fe4'
_cell_volume   697.84100709
_cell_formula_units_Z   2
loop_
 _symmetry_equiv_pos_site_id
 _symmetry_equiv_pos_as_xyz
  1  'x, y, z'
loop_
 _atom_site_type_symbol
 _atom_site_label
 _atom_site_symmetry_multiplicity
 _atom_site_fract_x
 _atom_site_fract_y
 _atom_site_fract_z
 _atom_site_occupancy
  U  U0  1  0.50000000  0.50000000  0.50000000  1
  U  U1  1  0.75000000  0.75000000  0.75000000  1
  Zn  Zn0  1  0.12500000  0.62500000  0.62500000  1
  Zn  Zn1  1  0.62500000  0.12500000  0.62500000  1
  Zn  Zn2  1  0.62500000  0.62500000  0.12500000  1
  Zn  Zn3  1  0.62500000  0.62500000  0.62500000  1
  Zn  Zn4  1  0.86436400  0.86436400  0.13563600  1
  Zn  Zn5  1  0.13563600  0.13563600  0.86436400  1
  Zn  Zn6  1  0.86436400  0.13563600  0.86436400  1
  Zn  Zn7  1  0.13563600  0.86436400  0.13563600  1
  Zn  Zn8  1  0.13563600  0.86436400  0.86436400  1
  Zn  Zn9  1  0.86436400  0.13563600  0.13563600  1
  Zn  Zn10  1  0.38563600  0.38563600  0.11436400  1
  Zn  Zn11  1  0.11436400  0.11436400  0.38563600  1
  Zn  Zn12  1  0.38563600  0.11436400  0.38563600  1
  Zn  Zn13  1  0.11436400  0.38563600  0.11436400  1
  Zn  Zn14  1  0.11436400  0.38563600  0.38563600  1
  Zn  Zn15  1  0.38563600  0.11436400  0.11436400  1
  Zn  Zn16  1  0.56890600  0.29911900  0.29911900  1
  Zn  Zn17  1  0.29911900  0.56890600  0.83285500  1
  Zn  Zn18  1  0.29911900  0.83285500  0.56890600  1
  Zn  Zn19  1  0.83285500  0.29911900  0.29911900  1
  Zn  Zn20  1  0.29911900  0.29911900  0.56890600  1
  Zn  Zn21  1  0.56890600  0.83285500  0.29911900  1
  Zn  Zn22  1  0.83285500  0.56890600  0.29911900  1
  Zn  Zn23  1  0.29911900  0.29911900  0.83285500  1
  Zn  Zn24  1  0.29911900  0.56890600  0.29911900  1
  Zn  Zn25  1  0.83285500  0.29911900  0.56890600  1
  Zn  Zn26  1  0.56890600  0.29911900  0.83285500  1
  Zn  Zn27  1  0.29911900  0.83285500  0.29911900  1
  Zn  Zn28  1  0.68109400  0.95088100  0.95088100  1
  Zn  Zn29  1  0.95088100  0.68109400  0.41714500  1
  Zn  Zn30  1  0.95088100  0.41714500  0.68109400  1
  Zn  Zn31  1  0.41714500  0.95088100  0.95088100  1
  Zn  Zn32  1  0.95088100  0.95088100  0.68109400  1
  Zn  Zn33  1  0.68109400  0.41714500  0.95088100  1
  Zn  Zn34  1  0.41714500  0.68109400  0.95088100  1
  Zn  Zn35  1  0.95088100  0.95088100  0.41714500  1
  Zn  Zn36  1  0.95088100  0.68109400  0.95088100  1
  Zn  Zn37  1  0.41714500  0.95088100  0.68109400  1
  Zn  Zn38  1  0.68109400  0.95088100  0.41714500  1
  Zn  Zn39  1  0.95088100  0.41714500  0.95088100  1
  Fe  Fe0  1  0.62500000  0.12500000  0.12500000  1
  Fe  Fe1  1  0.12500000  0.62500000  0.12500000  1
  Fe  Fe2  1  0.12500000  0.12500000  0.62500000  1
  Fe  Fe3  1  0.12500000  0.12500000  0.12500000  1
loop_
_geom_bond_atom_site_label_1
_geom_bond_atom_site_label_2
_geom_bond_distance
_geom_bond_site_symmetry_2
U0 Zn2 3.048429 1_555
U0 Zn3 3.048429 1_555
U0 Zn0 3.048429 1_555
U0 Zn1 3.048429 1_555
U0 Zn18 3.118720 1_555
U0 Zn25 3.118720 1_555
U0 Zn22 3.118720 1_555
U0 Zn26 3.118720 1_555
U0 Zn17 3.118720 1_555
U0 Zn21 3.118720 1_555
U0 Zn27 3.118724 1_555
U0 Zn19 3.118724 1_555
U0 Zn23 3.118724 1_555
U0 Zn20 3.118729 1_555
U0 Zn24 3.118729 1_555
U0 Zn16 3.118729 1_555
U1 Zn0 3.048429 1_655
U1 Zn3 3.048429 1_555
U1 Zn1 3.048429 1_565
U1 Zn2 3.048429 1_556
U1 Zn34 3.118720 1_555
U1 Zn38 3.118720 1_555
U1 Zn37 3.118720 1_555
U1 Zn29 3.118720 1_555
U1 Zn33 3.118720 1_555
U1 Zn30 3.118720 1_555
U1 Zn39 3.118724 1_555
U1 Zn31 3.118724 1_555
U1 Zn35 3.118724 1_555
U1 Zn28 3.118729 1_555
U1 Zn32 3.118729 1_555
U1 Zn36 3.118729 1_555
Zn0 Zn17 3.010519 1_555
Zn0 Zn18 3.010519 1_555
Zn0 Zn29 3.010519 1_455
Zn0 Zn30 3.010519 1_455
Zn0 Zn35 3.010523 1_455
Zn0 Zn39 3.010523 1_455
Zn0 Zn23 3.010523 1_555
Zn0 Zn27 3.010523 1_555
Zn0 Zn32 3.010527 1_455
Zn0 Zn36 3.010527 1_455
Zn0 Zn20 3.010527 1_555
Zn0 Zn24 3.010527 1_555
Zn1 Zn26 3.010519 1_555
Zn1 Zn25 3.010519 1_555
Zn1 Zn38 3.010519 1_545
Zn1 Zn37 3.010519 1_545
Zn1 Zn35 3.010523 1_545
Zn1 Zn31 3.010523 1_545
Zn1 Zn19 3.010523 1_555
Zn1 Zn23 3.010523 1_555
Zn1 Zn32 3.010527 1_545
Zn1 Zn28 3.010527 1_545
Zn1 Zn16 3.010527 1_555
Zn1 Zn20 3.010527 1_555
Zn2 Zn22 3.010519 1_555
Zn2 Zn21 3.010519 1_555
Zn2 Zn33 3.010519 1_554
Zn2 Zn34 3.010519 1_554
Zn2 Zn39 3.010523 1_554
Zn2 Zn31 3.010523 1_554
Zn2 Zn27 3.010523 1_555
Zn2 Zn36 3.010527 1_554
Zn2 Zn28 3.010527 1_554
Zn2 Zn24 3.010527 1_555
Zn3 Zn33 3.010527 1_555
Zn3 Zn38 3.010527 1_555
Zn3 Zn30 3.010527 1_555
Zn3 Zn37 3.010527 1_555
Zn3 Zn34 3.010527 1_555
Zn4 Zn6 2.700819 1_564
Zn4 Zn8 2.700819 1_654
Zn4 Zn7 2.700819 1_655
Zn4 Zn9 2.700819 1_565
Zn5 Zn6 2.700819 1_455
Zn5 Zn8 2.700819 1_545
Zn5 Zn7 2.700819 1_546
Zn5 Zn9 2.700819 1_456
Zn6 Zn8 2.700819 1_645
Zn6 Zn9 2.700819 1_556
Zn7 Zn8 2.700819 1_554
Zn7 Zn9 2.700819 1_465
Zn10 Zn33 2.650481 1_554
Zn10 Zn34 2.650481 1_554
Zn10 Zn14 2.700819 1_555
Zn10 Zn13 2.700819 1_555
Zn10 Zn12 2.700819 1_555
Zn10 Zn15 2.700819 1_555
Zn10 Zn24 2.766785 1_555
Zn10 Zn16 2.766785 1_555
Zn10 Zn17 2.766793 1_554
Zn10 Zn26 2.766793 1_554
Zn11 Zn35 2.650472 1_445
Zn11 Zn32 2.650477 1_445
Zn11 Zn14 2.700819 1_555
Zn11 Zn13 2.700819 1_555
Zn11 Zn12 2.700819 1_555
Zn11 Zn15 2.700819 1_555
Zn11 Zn25 2.766789 1_455
Zn11 Zn18 2.766789 1_545
Zn11 Zn27 2.766793 1_545
Zn11 Zn19 2.766793 1_455
Zn12 Zn38 2.650481 1_545
Zn12 Zn37 2.650481 1_545
Zn12 Zn14 2.700819 1_555
Zn12 Zn15 2.700819 1_555
Zn12 Zn16 2.766785 1_555
Zn12 Zn20 2.766785 1_555
Zn12 Zn21 2.766793 1_545
Zn12 Zn18 2.766793 1_545
Zn13 Zn39 2.650472 1_454
Zn13 Zn36 2.650477 1_454
Zn13 Zn14 2.700819 1_555
Zn13 Zn15 2.700819 1_555
Zn13 Zn22 2.766789 1_455
Zn13 Zn17 2.766789 1_554
Zn13 Zn23 2.766793 1_554
Zn13 Zn19 2.766793 1_455
Zn14 Zn29 2.650481 1_455
Zn14 Zn30 2.650481 1_455
Zn14 Zn20 2.766785 1_555
Zn14 Zn24 2.766785 1_555
Zn14 Zn22 2.766793 1_455
Zn14 Zn25 2.766793 1_455
Zn15 Zn31 2.650472 1_544
Zn15 Zn28 2.650477 1_544
Zn15 Zn26 2.766789 1_554
Zn15 Zn21 2.766789 1_545
Zn15 Zn27 2.766793 1_545
Zn15 Zn23 2.766793 1_554
Zn16 Zn19 2.627910 1_555
Zn16 Zn9 2.650477 1_555
Zn16 Zn24 2.686034 1_555
Zn16 Zn20 2.686034 1_555
Zn16 Zn38 2.831076 1_545
Zn16 Zn33 2.831076 1_554
Zn16 Zn2 3.010527 1_555
Zn17 Zn18 2.627910 1_555
Zn17 Zn8 2.650481 1_555
Zn17 Zn26 2.686034 1_555
Zn17 Zn23 2.686034 1_555
Zn17 Zn36 2.831076 1_455
Zn17 Zn34 2.831092 1_555
Zn17 Zn3 3.010527 1_555
Zn18 Zn8 2.650481 1_555
Zn18 Zn21 2.686034 1_555
Zn18 Zn27 2.686034 1_555
Zn18 Zn32 2.831076 1_455
Zn18 Zn37 2.831092 1_555
Zn18 Zn3 3.010527 1_555
Zn19 Zn9 2.650472 1_555
Zn19 Zn22 2.686034 1_555
Zn19 Zn25 2.686034 1_555
Zn19 Zn39 2.831076 1_554
Zn19 Zn35 2.831076 1_545
Zn19 Zn2 3.010523 1_555
Zn20 Zn23 2.627910 1_555
Zn20 Zn5 2.650477 1_555
Zn20 Zn24 2.686034 1_555
Zn20 Zn30 2.831076 1_455
Zn20 Zn37 2.831076 1_545
Zn21 Zn22 2.627910 1_555
Zn21 Zn4 2.650481 1_555
Zn21 Zn27 2.686034 1_555
Zn21 Zn28 2.831076 1_554
Zn21 Zn38 2.831092 1_555
Zn21 Zn3 3.010527 1_555
Zn22 Zn4 2.650481 1_555
Zn22 Zn25 2.686034 1_555
Zn22 Zn36 2.831076 1_554
Zn22 Zn29 2.831092 1_555
Zn22 Zn3 3.010527 1_555
Zn23 Zn5 2.650472 1_555
Zn23 Zn26 2.686034 1_555
Zn23 Zn39 2.831076 1_455
Zn23 Zn31 2.831076 1_545
Zn24 Zn27 2.627910 1_555
Zn24 Zn7 2.650477 1_555
Zn24 Zn29 2.831076 1_455
Zn24 Zn34 2.831076 1_554
Zn25 Zn26 2.627910 1_555
Zn25 Zn6 2.650481 1_555
Zn25 Zn32 2.831076 1_545
Zn25 Zn30 2.831092 1_555
Zn25 Zn3 3.010527 1_555
Zn26 Zn6 2.650481 1_555
Zn26 Zn28 2.831076 1_545
Zn26 Zn33 2.831092 1_555
Zn26 Zn3 3.010527 1_555
Zn27 Zn7 2.650472 1_555
Zn27 Zn31 2.831076 1_554
Zn27 Zn35 2.831076 1_455
Zn28 Zn31 2.627910 1_555
Zn28 Zn32 2.686034 1_555
Zn28 Zn36 2.686034 1_555
Zn28 Zn6 2.766785 1_565
Zn28 Zn4 2.766785 1_556
Zn29 Zn30 2.627910 1_555
Zn29 Zn35 2.686034 1_555
Zn29 Zn38 2.686034 1_555
Zn29 Zn7 2.766789 1_655
Zn29 Zn4 2.766793 1_555
Zn29 Zn3 3.010527 1_555
Zn30 Zn39 2.686034 1_555
Zn30 Zn33 2.686034 1_555
Zn30 Zn5 2.766789 1_655
Zn30 Zn6 2.766793 1_555
Zn31 Zn37 2.686034 1_555
Zn31 Zn34 2.686034 1_555
Zn31 Zn7 2.766793 1_556
Zn31 Zn5 2.766793 1_565
Zn32 Zn35 2.627910 1_555
Zn32 Zn36 2.686034 1_555
Zn32 Zn6 2.766785 1_565
Zn32 Zn8 2.766785 1_655
Zn33 Zn34 2.627910 1_555
Zn33 Zn39 2.686034 1_555
Zn33 Zn9 2.766789 1_556
Zn33 Zn6 2.766793 1_555
Zn34 Zn37 2.686034 1_555
Zn34 Zn7 2.766789 1_556
Zn34 Zn8 2.766793 1_555
Zn35 Zn38 2.686034 1_555
Zn35 Zn9 2.766793 1_565
Zn35 Zn7 2.766793 1_655
Zn36 Zn39 2.627910 1_555
Zn36 Zn4 2.766785 1_556
Zn36 Zn8 2.766785 1_655
Zn37 Zn38 2.627910 1_555
Zn37 Zn5 2.766789 1_565
Zn37 Zn8 2.766793 1_555
Zn38 Zn9 2.766789 1_565
Zn38 Zn4 2.766793 1_555
Zn39 Zn9 2.766793 1_556
Zn39 Zn5 2.766793 1_655
Fe0 Zn9 2.493533 1_555
Fe0 Zn12 2.493533 1_555
Fe0 Zn10 2.493533 1_555
Fe0 Zn15 2.493533 1_555
Fe0 Zn4 2.493533 1_545
Fe0 Zn6 2.493533 1_554
Fe0 Zn16 2.718675 1_555
Fe0 Zn28 2.718675 1_544
Fe0 Zn38 2.718683 1_545
Fe0 Zn33 2.718683 1_554
Fe0 Zn21 2.718683 1_545
Fe0 Zn26 2.718683 1_554
Fe1 Zn7 2.493533 1_555
Fe1 Zn10 2.493533 1_555
Fe1 Zn14 2.493533 1_555
Fe1 Zn13 2.493533 1_555
Fe1 Zn4 2.493533 1_455
Fe1 Zn8 2.493533 1_554
Fe1 Zn24 2.718675 1_555
Fe1 Zn36 2.718675 1_454
Fe1 Zn29 2.718683 1_455
Fe1 Zn17 2.718683 1_554
Fe1 Zn22 2.718683 1_455
Fe1 Zn34 2.718683 1_554
Fe2 Zn5 2.493533 1_555
Fe2 Zn12 2.493533 1_555
Fe2 Zn14 2.493533 1_555
Fe2 Zn11 2.493533 1_555
Fe2 Zn6 2.493533 1_455
Fe2 Zn8 2.493533 1_545
Fe2 Zn20 2.718675 1_555
Fe2 Zn32 2.718675 1_445
Fe2 Zn18 2.718683 1_545
Fe2 Zn25 2.718683 1_455
Fe2 Zn30 2.718683 1_455
Fe2 Zn37 2.718683 1_545
Fe3 Zn15 2.493533 1_555
Fe3 Zn13 2.493533 1_555
Fe3 Zn11 2.493533 1_555
Fe3 Zn5 2.493533 1_554
Fe3 Zn7 2.493533 1_545
Fe3 Zn9 2.493533 1_455
Fe3 Zn19 2.718679 1_455
Fe3 Zn27 2.718679 1_545
Fe3 Zn23 2.718679 1_554
Fe3 Zn39 2.718679 1_454
Fe3 Zn35 2.718679 1_445
Fe3 Zn31 2.718679 1_544
