# generated using pymatgen
data_Ta2MnZnO8
_symmetry_space_group_name_H-M   'P 1'
_cell_length_a   5.09590810
_cell_length_b   5.74841374
_cell_length_c   19.66740339
_cell_angle_alpha   90.00850828
_cell_angle_beta   83.78428630
_cell_angle_gamma   90.00567482
_symmetry_Int_Tables_number   1
_chemical_formula_structural   Ta2MnZnO8
_chemical_formula_sum   'Ta8 Mn4 Zn4 O32'
_cell_volume   572.73801132
_cell_formula_units_Z   4
loop_
 _symmetry_equiv_pos_site_id
 _symmetry_equiv_pos_as_xyz
  1  'x, y, z'
loop_
 _atom_site_type_symbol
 _atom_site_label
 _atom_site_symmetry_multiplicity
 _atom_site_fract_x
 _atom_site_fract_y
 _atom_site_fract_z
 _atom_site_occupancy
  Ta  Ta0  1  0.71656900  0.17398000  0.11769200  1
  Ta  Ta1  1  0.71663600  0.67388900  0.61769400  1
  Ta  Ta2  1  0.78792300  0.67451800  0.38260900  1
  Ta  Ta3  1  0.78787600  0.17455200  0.88260500  1
  Ta  Ta4  1  0.27871800  0.32451600  0.38156000  1
  Ta  Ta5  1  0.27867700  0.82452100  0.88156400  1
  Ta  Ta6  1  0.22573400  0.82405600  0.11871700  1
  Ta  Ta7  1  0.22577200  0.32404000  0.61872400  1
  Mn  Mn0  1  0.75237200  0.14493700  0.50014600  1
  Mn  Mn1  1  0.25228800  0.85487900  0.50014800  1
  Mn  Mn2  1  0.75228900  0.64490200  0.00014600  1
  Mn  Mn3  1  0.25222100  0.35487900  0.00014700  1
  Zn  Zn0  1  0.85701100  0.15856200  0.27267500  1
  Zn  Zn1  1  0.85698100  0.65859800  0.77268500  1
  Zn  Zn2  1  0.64733200  0.65836600  0.22773400  1
  Zn  Zn3  1  0.64733000  0.15830600  0.72773800  1
  O  O0  1  0.06871400  0.13227300  0.05919100  1
  O  O1  1  0.06868500  0.63221200  0.55920000  1
  O  O2  1  0.43603900  0.63242100  0.44095800  1
  O  O3  1  0.43586000  0.13246300  0.94093200  1
  O  O4  1  0.92779200  0.37027300  0.44169800  1
  O  O5  1  0.92771700  0.87028700  0.94171600  1
  O  O6  1  0.57727000  0.87016000  0.05877100  1
  O  O7  1  0.57720000  0.37027600  0.55871200  1
  O  O8  1  0.55838400  0.39071100  0.05282800  1
  O  O9  1  0.55850500  0.89066600  0.55287200  1
  O  O10  1  0.94669800  0.89084000  0.44736800  1
  O  O11  1  0.94659200  0.39083700  0.94738100  1
  O  O12  1  0.44913200  0.10716500  0.44760500  1
  O  O13  1  0.44911300  0.60718900  0.94758400  1
  O  O14  1  0.05502200  0.60682000  0.05265100  1
  O  O15  1  0.05510100  0.10680700  0.55261900  1
  O  O16  1  0.37808800  0.09495000  0.16157200  1
  O  O17  1  0.37808300  0.59480200  0.66157100  1
  O  O18  1  0.12544800  0.59425400  0.33841400  1
  O  O19  1  0.12539200  0.09428200  0.83840500  1
  O  O20  1  0.33159600  0.62634600  0.18197300  1
  O  O21  1  0.33159300  0.12634000  0.68196500  1
  O  O22  1  0.17218200  0.12691900  0.31843600  1
  O  O23  1  0.17213000  0.62689500  0.81842200  1
  O  O24  1  0.69418300  0.85821100  0.30899100  1
  O  O25  1  0.69415800  0.35827200  0.80898500  1
  O  O26  1  0.81001300  0.35730800  0.19146700  1
  O  O27  1  0.81010000  0.85725000  0.69145500  1
  O  O28  1  0.87420200  0.89713700  0.16642100  1
  O  O29  1  0.87419500  0.39696400  0.66644900  1
  O  O30  1  0.63032200  0.39785100  0.33394400  1
  O  O31  1  0.63032800  0.89783700  0.83393300  1
loop_
_geom_bond_atom_site_label_1
_geom_bond_atom_site_label_2
_geom_bond_distance
_geom_bond_site_symmetry_2
Mn0 O4 1.891047 1_555
Mn0 O7 1.891726 1_555
Mn0 O15 1.959037 1_655
Mn0 O12 1.961758 1_555
Mn0 O9 1.991506 1_545
Mn0 O10 1.992197 1_545
Mn1 O1 1.904599 1_555
Mn1 O2 1.905517 1_555
Mn1 O10 1.973701 1_455
Mn1 O9 1.975564 1_555
Mn1 O15 1.986760 1_565
Mn1 O12 1.988213 1_565
Mn2 O5 1.891060 1_554
Mn2 O6 1.891738 1_555
Mn2 O14 1.959409 1_655
Mn2 O13 1.961698 1_554
Mn2 O8 1.990849 1_555
Mn2 O11 1.991891 1_554
Mn3 O0 1.904067 1_555
Mn3 O3 1.905387 1_554
Mn3 O11 1.973699 1_454
Mn3 O8 1.974842 1_555
Mn3 O14 1.987143 1_555
Mn3 O13 1.988606 1_554
O0 Ta0 2.038236 1_455
O0 Ta6 2.313811 1_545
O1 Ta1 2.037751 1_455
O1 Ta7 2.313728 1_555
O2 Ta2 2.036009 1_555
O2 Ta4 2.311298 1_555
O3 Ta3 2.036352 1_555
O3 Ta5 2.310858 1_545
O4 Ta4 2.051355 1_655
O4 Ta2 2.257770 1_555
O5 Ta5 2.051635 1_655
O5 Ta3 2.258044 1_565
O6 Ta6 2.052312 1_555
O6 Ta0 2.252610 1_565
O7 Ta7 2.052588 1_555
O7 Ta1 2.252605 1_555
O8 Ta0 2.013141 1_555
O9 Ta1 2.012616 1_555
O10 Ta2 2.011368 1_555
O11 Ta3 2.011322 1_555
O12 Ta4 2.060920 1_555
O13 Ta5 2.060576 1_555
O14 Ta6 2.061205 1_555
O15 Ta7 2.061610 1_555
O16 Ta0 1.898408 1_555
O16 Ta6 1.969552 1_545
O17 Ta1 1.898781 1_555
O17 Ta7 1.968782 1_555
O18 Ta2 1.898178 1_455
O18 Ta4 1.969394 1_555
O19 Ta3 1.898182 1_455
O19 Ta5 1.969653 1_545
O20 Ta6 1.810057 1_555
O20 Zn2 1.935484 1_555
O21 Ta7 1.809731 1_555
O21 Zn3 1.935590 1_555
O22 Ta4 1.808765 1_555
O22 Zn0 1.932797 1_455
O23 Ta5 1.809145 1_555
O23 Zn1 1.932468 1_455
O24 Ta2 1.894695 1_555
O24 Zn2 2.003176 1_555
O24 Zn0 2.012792 1_565
O25 Ta3 1.894775 1_555
O25 Zn3 2.003391 1_555
O25 Zn1 2.012562 1_555
O26 Ta0 1.895176 1_555
O26 Zn0 1.999231 1_555
O26 Zn2 2.015661 1_555
O27 Ta1 1.895098 1_555
O27 Zn1 1.999150 1_555
O27 Zn3 2.015917 1_565
O28 Ta6 1.975308 1_655
O28 Ta0 2.064881 1_565
O28 Zn2 2.091148 1_555
O29 Ta7 1.975468 1_655
O29 Ta1 2.065338 1_555
O29 Zn3 2.090465 1_555
O30 Ta4 1.975265 1_555
O30 Ta2 2.063051 1_555
O30 Zn0 2.092120 1_555
O31 Ta5 1.975558 1_555
O31 Ta3 2.063214 1_565
O31 Zn1 2.091628 1_555
