# generated using pymatgen
data_YMg14Ni
_symmetry_space_group_name_H-M   'P 1'
_cell_length_a   6.49131213
_cell_length_b   6.19191846
_cell_length_c   10.21785650
_cell_angle_alpha   90.00000000
_cell_angle_beta   90.00000000
_cell_angle_gamma   118.48567178
_symmetry_Int_Tables_number   1
_chemical_formula_structural   YMg14Ni
_chemical_formula_sum   'Y1 Mg14 Ni1'
_cell_volume   360.97321314
_cell_formula_units_Z   1
loop_
 _symmetry_equiv_pos_site_id
 _symmetry_equiv_pos_as_xyz
  1  'x, y, z'
loop_
 _atom_site_type_symbol
 _atom_site_label
 _atom_site_symmetry_multiplicity
 _atom_site_fract_x
 _atom_site_fract_y
 _atom_site_fract_z
 _atom_site_occupancy
  Y  Y0  1  0.13051302  0.31525601  0.12500000  1
  Mg  Mg0  1  0.16764268  0.33382084  0.62500000  1
  Mg  Mg1  1  0.16150398  0.83075149  0.62500000  1
  Mg  Mg2  1  0.62344648  0.29737390  0.12500000  1
  Mg  Mg3  1  0.66386383  0.33641113  0.62500000  1
  Mg  Mg4  1  0.62344648  0.82607158  0.12500000  1
  Mg  Mg5  1  0.66386383  0.82745170  0.62500000  1
  Mg  Mg6  1  0.33926648  0.16621701  0.37313933  1
  Mg  Mg7  1  0.33926648  0.16621701  0.87686067  1
  Mg  Mg8  1  0.33926648  0.67305047  0.37313933  1
  Mg  Mg9  1  0.33926648  0.67305047  0.87686067  1
  Mg  Mg10  1  0.83319707  0.16659903  0.38664007  1
  Mg  Mg11  1  0.83319707  0.16659903  0.86335993  1
  Mg  Mg12  1  0.87141062  0.68570581  0.34046734  1
  Mg  Mg13  1  0.87141062  0.68570581  0.90953266  1
  Ni  Ni0  1  0.19943840  0.84971870  0.12500000  1
loop_
_geom_bond_atom_site_label_1
_geom_bond_atom_site_label_2
_geom_bond_distance
_geom_bond_site_symmetry_2
Mg0 Mg10 3.094007 1_455
Mg0 Mg11 3.094007 1_455
Mg0 Mg1 3.096157 1_545
Mg0 Mg1 3.096157 1_555
Mg0 Mg6 3.169190 1_555
Mg0 Mg7 3.169190 1_555
Mg0 Mg8 3.169196 1_555
Mg0 Mg9 3.169196 1_555
Mg0 Mg5 3.213507 1_555
Mg0 Mg3 3.213508 1_555
Mg0 Mg5 3.277865 1_445
Mg0 Mg3 3.277866 1_455
Mg1 Mg8 3.159523 1_555
Mg1 Mg9 3.159523 1_555
Mg1 Mg7 3.159529 1_565
Mg1 Mg6 3.159529 1_565
Mg1 Mg3 3.220643 1_455
Mg1 Mg5 3.220643 1_455
Mg1 Mg3 3.270768 1_565
Mg1 Mg5 3.270769 1_555
Mg1 Mg13 3.345426 1_455
Mg1 Mg12 3.345426 1_455
Mg2 Ni0 2.825135 1_545
Mg2 Mg4 2.918266 1_545
Mg2 Mg7 3.010308 1_554
Mg2 Mg6 3.010308 1_555
Mg2 Y0 3.240180 1_655
Mg2 Y0 3.254049 1_555
Mg2 Mg4 3.273653 1_555
Mg3 Mg5 3.040483 1_555
Mg3 Mg5 3.151435 1_545
Mg3 Mg6 3.170959 1_555
Mg3 Mg7 3.170959 1_555
Mg4 Ni0 2.825135 1_555
Mg4 Mg9 3.010308 1_554
Mg4 Mg8 3.010308 1_555
Mg4 Y0 3.240180 1_665
Mg4 Y0 3.254049 1_555
Mg5 Mg8 3.170959 1_555
Mg5 Mg9 3.170959 1_555
Mg6 Mg8 3.053647 1_545
Mg6 Ni0 3.065319 1_545
Mg6 Mg8 3.138271 1_555
Mg6 Y0 3.210801 1_555
Mg7 Mg9 3.053647 1_545
Mg7 Ni0 3.065319 1_546
Mg7 Mg9 3.138271 1_555
Mg7 Y0 3.210801 1_556
Mg8 Ni0 3.065313 1_555
Mg8 Y0 3.210807 1_555
Mg9 Ni0 3.065313 1_556
Mg9 Y0 3.210807 1_556
Mg10 Mg3 3.057459 1_555
Mg10 Mg5 3.057465 1_545
Mg10 Mg12 3.139280 1_545
Mg10 Mg12 3.139280 1_555
Mg10 Y0 3.166161 1_655
Mg10 Mg8 3.208097 1_545
Mg10 Mg6 3.208097 1_555
Mg10 Mg2 3.272348 1_555
Mg10 Mg4 3.272354 1_545
Mg10 Mg8 3.289077 1_655
Mg10 Mg6 3.289077 1_655
Mg11 Mg3 3.057459 1_555
Mg11 Mg5 3.057465 1_545
Mg11 Mg13 3.139280 1_545
Mg11 Mg13 3.139280 1_555
Mg11 Y0 3.166161 1_656
Mg11 Mg9 3.208097 1_545
Mg11 Mg7 3.208097 1_555
Mg11 Mg2 3.272348 1_556
Mg11 Mg4 3.272354 1_546
Mg11 Mg9 3.289077 1_655
Mg11 Mg7 3.289077 1_655
Mg12 Ni0 2.889601 1_655
Mg12 Mg4 3.086713 1_555
Mg12 Mg2 3.086719 1_555
Mg12 Mg6 3.093211 1_665
Mg12 Mg8 3.093211 1_655
Mg12 Mg6 3.433900 1_555
Mg12 Mg8 3.433901 1_555
Mg12 Mg5 3.487950 1_555
Mg12 Mg3 3.487955 1_555
Mg13 Ni0 2.889601 1_656
Mg13 Mg4 3.086713 1_556
Mg13 Mg2 3.086719 1_556
Mg13 Mg7 3.093211 1_665
Mg13 Mg9 3.093211 1_655
Mg13 Mg7 3.433900 1_555
Mg13 Mg9 3.433901 1_555
Mg13 Mg5 3.487950 1_555
Mg13 Mg3 3.487955 1_555
Ni0 Y0 3.120835 1_555
Ni0 Y0 3.120835 1_565
