# generated using pymatgen
data_Li9Mn2Co5O16
_symmetry_space_group_name_H-M   'P 1'
_cell_length_a   2.96831787
_cell_length_b   2.96831787
_cell_length_c   38.69147857
_cell_angle_alpha   88.29613707
_cell_angle_beta   88.29613707
_cell_angle_gamma   58.73379217
_symmetry_Int_Tables_number   1
_chemical_formula_structural   Li9Mn2Co5O16
_chemical_formula_sum   'Li9 Mn2 Co5 O16'
_cell_volume   291.22590370
_cell_formula_units_Z   1
loop_
 _symmetry_equiv_pos_site_id
 _symmetry_equiv_pos_as_xyz
  1  'x, y, z'
loop_
 _atom_site_type_symbol
 _atom_site_label
 _atom_site_symmetry_multiplicity
 _atom_site_fract_x
 _atom_site_fract_y
 _atom_site_fract_z
 _atom_site_occupancy
  Li  Li0  1  0.69216300  0.69216300  0.93280200  1
  Li  Li1  1  0.05926400  0.05926400  0.81483400  1
  Li  Li2  1  0.43599300  0.43599300  0.68945700  1
  Li  Li3  1  0.81304400  0.81304400  0.56122900  1
  Li  Li4  1  0.18771600  0.18771600  0.43722700  1
  Li  Li5  1  0.56279600  0.56279600  0.31234600  1
  Li  Li6  1  0.93660600  0.93660600  0.18770100  1
  Li  Li7  1  0.31155800  0.31155800  0.06412700  1
  Li  Li8  1  0.37402800  0.37402800  0.87501400  1
  Mn  Mn0  1  0.00198000  0.00198000  0.00041000  1
  Mn  Mn1  1  0.12450600  0.12450600  0.62504100  1
  Co  Co0  1  0.74668300  0.74668300  0.75047900  1
  Co  Co1  1  0.50010400  0.50010400  0.49971100  1
  Co  Co2  1  0.87489300  0.87489300  0.37497300  1
  Co  Co3  1  0.24963100  0.24963100  0.24965500  1
  Co  Co4  1  0.62547900  0.62547900  0.12528900  1
  O  O0  1  0.36362200  0.36362200  0.97279200  1
  O  O1  1  0.71861900  0.71861900  0.84426800  1
  O  O2  1  0.09376000  0.09376000  0.72038900  1
  O  O3  1  0.49266600  0.49266600  0.59598600  1
  O  O4  1  0.84718600  0.84718600  0.47120000  1
  O  O5  1  0.22294100  0.22294100  0.34639200  1
  O  O6  1  0.59659600  0.59659600  0.21987900  1
  O  O7  1  0.94792700  0.94792700  0.09732100  1
  O  O8  1  0.03094000  0.03094000  0.90558200  1
  O  O9  1  0.40765900  0.40765900  0.77845500  1
  O  O10  1  0.75719500  0.75719500  0.65364300  1
  O  O11  1  0.15314300  0.15314300  0.52870600  1
  O  O12  1  0.52718100  0.52718100  0.40380600  1
  O  O13  1  0.90551700  0.90551700  0.27889400  1
  O  O14  1  0.30255200  0.30255200  0.15263400  1
  O  O15  1  0.63605100  0.63605100  0.02975500  1
loop_
_geom_bond_atom_site_label_1
_geom_bond_atom_site_label_2
_geom_bond_distance
_geom_bond_site_symmetry_2
Li0 O8 1.995963 1_655
Li0 O8 1.995963 1_565
Li0 O8 2.013795 1_665
Li0 O0 2.259178 1_555
Li0 O0 2.322411 1_565
Li0 O0 2.322411 1_655
Li1 O1 2.039543 1_455
Li1 O1 2.039543 1_545
Li1 O1 2.065459 1_445
Li1 O9 2.188777 1_545
Li1 O9 2.188777 1_455
Li1 O9 2.248810 1_555
Li2 O2 2.069836 1_565
Li2 O2 2.069836 1_655
Li2 O2 2.103065 1_555
Li2 O10 2.127129 1_555
Li2 O10 2.232110 1_455
Li2 O10 2.232110 1_545
Li3 O3 2.098544 1_555
Li3 O11 2.111369 1_655
Li3 O11 2.111369 1_565
Li3 O11 2.128039 1_665
Li3 O3 2.208248 1_655
Li3 O3 2.208248 1_565
Li4 O12 2.134061 1_455
Li4 O12 2.134061 1_545
Li4 O4 2.145112 1_545
Li4 O4 2.145112 1_455
Li4 O12 2.145178 1_555
Li4 O4 2.161900 1_445
Li5 O13 2.127957 1_455
Li5 O13 2.127957 1_545
Li5 O5 2.148298 1_565
Li5 O5 2.148298 1_655
Li5 O13 2.159332 1_555
Li5 O5 2.160769 1_555
Li6 O6 2.103452 1_655
Li6 O6 2.103452 1_565
Li6 O6 2.120178 1_555
Li6 O14 2.122520 1_655
Li6 O14 2.122520 1_565
Li6 O14 2.291343 1_665
Li7 O7 2.080401 1_545
Li7 O7 2.080401 1_455
Li7 O15 2.105903 1_555
Li7 O15 2.189640 1_545
Li7 O15 2.189640 1_455
Li7 O7 2.241441 1_445
Li8 O8 2.059700 1_655
Li8 O8 2.059700 1_565
Li8 O1 2.060555 1_545
Li8 O1 2.060555 1_455
Li8 O8 2.099142 1_555
Li8 O1 2.109251 1_555
Mn0 O0 1.955871 1_454
Mn0 O0 1.955871 1_544
Mn0 O15 1.985696 1_545
Mn0 O15 1.985696 1_455
Mn0 O0 2.122796 1_554
Mn0 O15 2.174115 1_445
Mn1 O10 1.966409 1_545
Mn1 O10 1.966409 1_455
Mn1 O3 1.974927 1_455
Mn1 O3 1.974927 1_545
Mn1 O10 2.166246 1_445
Mn1 O3 2.178492 1_555
Co0 O9 2.011411 1_565
Co0 O9 2.011411 1_655
Co0 O9 2.029465 1_555
Co0 O2 2.040395 1_655
Co0 O2 2.040395 1_565
Co0 O2 2.106487 1_665
Co1 O4 2.005330 1_545
Co1 O4 2.005330 1_455
Co1 O11 2.016201 1_655
Co1 O11 2.016201 1_565
Co1 O4 2.075173 1_555
Co1 O11 2.084110 1_555
Co2 O5 2.004799 1_565
Co2 O5 2.004799 1_655
Co2 O12 2.011037 1_565
Co2 O12 2.011037 1_655
Co2 O5 2.080767 1_665
Co2 O12 2.084209 1_555
Co3 O13 2.027690 1_545
Co3 O13 2.027690 1_455
Co3 O6 2.033563 1_455
Co3 O6 2.033563 1_545
Co3 O13 2.076560 1_445
Co3 O6 2.099666 1_555
Co4 O14 1.946839 1_555
Co4 O7 1.957276 1_555
Co4 O14 2.035633 1_655
Co4 O14 2.035633 1_565
Co4 O7 2.049787 1_545
Co4 O7 2.049787 1_455
