# generated using pymatgen
data_YMg
_symmetry_space_group_name_H-M   'P 1'
_cell_length_a   11.78540985
_cell_length_b   11.78540985
_cell_length_c   11.78541090
_cell_angle_alpha   34.21495194
_cell_angle_beta   34.21495194
_cell_angle_gamma   34.21495702
_symmetry_Int_Tables_number   1
_chemical_formula_structural   YMg
_chemical_formula_sum   'Y8 Mg8'
_cell_volume   461.51506436
_cell_formula_units_Z   8
loop_
 _symmetry_equiv_pos_site_id
 _symmetry_equiv_pos_as_xyz
  1  'x, y, z'
loop_
 _atom_site_type_symbol
 _atom_site_label
 _atom_site_symmetry_multiplicity
 _atom_site_fract_x
 _atom_site_fract_y
 _atom_site_fract_z
 _atom_site_occupancy
  Y  Y0_0  1  0.25000000  0.25000000  0.25000000  1
  Y  Y0_1  1  0.25000000  0.25000000  0.75000000  1
  Y  Y0_2  1  0.25000000  0.75000000  0.25000000  1
  Y  Y0_3  1  0.25000000  0.75000000  0.75000000  1
  Y  Y0_4  1  0.75000000  0.25000000  0.25000000  1
  Y  Y0_5  1  0.75000000  0.25000000  0.75000000  1
  Y  Y0_6  1  0.75000000  0.75000000  0.25000000  1
  Y  Y0_7  1  0.75000000  0.75000000  0.75000000  1
  Mg  Mg0_0  1  0.00000000  0.00000000  0.00000000  1
  Mg  Mg0_1  1  0.00000000  0.00000000  0.50000000  1
  Mg  Mg0_2  1  0.00000000  0.50000000  0.00000000  1
  Mg  Mg0_3  1  0.00000000  0.50000000  0.50000000  1
  Mg  Mg0_4  1  0.50000000  0.00000000  0.00000000  1
  Mg  Mg0_5  1  0.50000000  0.00000000  0.50000000  1
  Mg  Mg0_6  1  0.50000000  0.50000000  0.00000000  1
  Mg  Mg0_7  1  0.50000000  0.50000000  0.50000000  1
loop_
_geom_bond_atom_site_label_1
_geom_bond_atom_site_label_2
_geom_bond_distance
_geom_bond_site_symmetry_2
Y0_0 Y0_3 3.466856 1_554
Y0_0 Y0_3 3.466856 1_545
Y0_0 Y0_5 3.466856 1_554
Y0_0 Y0_5 3.466856 1_455
Y0_0 Y0_6 3.466856 1_545
Y0_0 Y0_6 3.466856 1_455
Y0_1 Y0_4 3.466856 1_555
Y0_1 Y0_2 3.466856 1_546
Y0_1 Y0_2 3.466856 1_555
Y0_1 Y0_4 3.466856 1_456
Y0_1 Y0_7 3.466856 1_455
Y0_1 Y0_7 3.466856 1_545
Y0_2 Y0_7 3.466856 1_554
Y0_2 Y0_7 3.466856 1_455
Y0_2 Y0_4 3.466856 1_555
Y0_2 Y0_4 3.466856 1_465
Y0_3 Y0_6 3.466856 1_456
Y0_3 Y0_6 3.466856 1_555
Y0_3 Y0_5 3.466856 1_555
Y0_3 Y0_5 3.466856 1_465
Y0_4 Y0_7 3.466856 1_554
Y0_4 Y0_7 3.466856 1_545
Y0_5 Y0_6 3.466856 1_555
Y0_5 Y0_6 3.466856 1_546
Mg0_0 Y0_1 3.418444 1_554
Mg0_0 Y0_6 3.418444 1_445
Mg0_0 Y0_4 3.418445 1_455
Mg0_0 Y0_2 3.418445 1_545
Mg0_0 Y0_3 3.418445 1_544
Mg0_0 Y0_5 3.418445 1_454
Mg0_0 Mg0_5 3.466856 1_554
Mg0_0 Mg0_5 3.466856 1_455
Mg0_0 Mg0_3 3.466856 1_554
Mg0_0 Mg0_3 3.466856 1_545
Mg0_0 Mg0_6 3.466856 1_455
Mg0_0 Mg0_6 3.466856 1_545
Mg0_1 Y0_0 3.418444 1_555
Mg0_1 Y0_7 3.418444 1_445
Mg0_1 Y0_5 3.418445 1_455
Mg0_1 Y0_3 3.418445 1_545
Mg0_1 Y0_4 3.418445 1_455
Mg0_1 Y0_2 3.418445 1_545
Mg0_1 Mg0_4 3.466856 1_555
Mg0_1 Mg0_4 3.466856 1_456
Mg0_1 Mg0_2 3.466856 1_555
Mg0_1 Mg0_2 3.466856 1_546
Mg0_1 Mg0_7 3.466856 1_455
Mg0_1 Mg0_7 3.466856 1_545
Mg0_2 Y0_3 3.418444 1_554
Mg0_2 Y0_4 3.418444 1_455
Mg0_2 Y0_6 3.418445 1_455
Mg0_2 Y0_7 3.418445 1_454
Mg0_2 Y0_0 3.418445 1_555
Mg0_2 Y0_1 3.418445 1_554
Mg0_2 Mg0_7 3.466856 1_554
Mg0_2 Mg0_7 3.466856 1_455
Mg0_2 Mg0_4 3.466856 1_465
Mg0_2 Mg0_4 3.466856 1_555
Mg0_3 Y0_2 3.418444 1_555
Mg0_3 Y0_5 3.418444 1_455
Mg0_3 Y0_1 3.418445 1_555
Mg0_3 Y0_6 3.418445 1_455
Mg0_3 Y0_0 3.418445 1_555
Mg0_3 Y0_7 3.418445 1_455
Mg0_3 Mg0_6 3.466856 1_555
Mg0_3 Mg0_6 3.466856 1_456
Mg0_3 Mg0_5 3.466856 1_555
Mg0_3 Mg0_5 3.466856 1_465
Mg0_4 Y0_5 3.418444 1_554
Mg0_4 Y0_2 3.418444 1_545
Mg0_4 Y0_0 3.418445 1_555
Mg0_4 Y0_6 3.418445 1_545
Mg0_4 Y0_7 3.418445 1_544
Mg0_4 Y0_1 3.418445 1_554
Mg0_4 Mg0_7 3.466856 1_554
Mg0_4 Mg0_7 3.466856 1_545
Mg0_5 Y0_4 3.418444 1_555
Mg0_5 Y0_3 3.418444 1_545
Mg0_5 Y0_1 3.418445 1_555
Mg0_5 Y0_0 3.418445 1_555
Mg0_5 Y0_7 3.418445 1_545
Mg0_5 Y0_6 3.418445 1_545
Mg0_5 Mg0_6 3.466856 1_555
Mg0_5 Mg0_6 3.466856 1_546
Mg0_6 Y0_0 3.418444 1_555
Mg0_6 Y0_7 3.418444 1_554
Mg0_6 Y0_4 3.418445 1_555
Mg0_6 Y0_2 3.418445 1_555
Mg0_6 Y0_3 3.418445 1_554
Mg0_6 Y0_5 3.418445 1_554
Mg0_7 Y0_1 3.418444 1_555
Mg0_7 Y0_6 3.418444 1_555
Mg0_7 Y0_5 3.418445 1_555
Mg0_7 Y0_2 3.418445 1_555
Mg0_7 Y0_4 3.418445 1_555
Mg0_7 Y0_3 3.418445 1_555
