# generated using pymatgen
data_Nd5Tl3
_symmetry_space_group_name_H-M   'P 1'
_cell_length_a   6.35823200
_cell_length_b   9.46143677
_cell_length_c   9.46143677
_cell_angle_alpha   83.51741563
_cell_angle_beta   70.36617017
_cell_angle_gamma   70.36617017
_symmetry_Int_Tables_number   1
_chemical_formula_structural   Nd5Tl3
_chemical_formula_sum   'Nd10 Tl6'
_cell_volume   504.91996553
_cell_formula_units_Z   2
loop_
 _symmetry_equiv_pos_site_id
 _symmetry_equiv_pos_as_xyz
  1  'x, y, z'
loop_
 _atom_site_type_symbol
 _atom_site_label
 _atom_site_symmetry_multiplicity
 _atom_site_fract_x
 _atom_site_fract_y
 _atom_site_fract_z
 _atom_site_occupancy
  Nd  Nd0  1  0.21742000  0.69647300  0.86868800  1
  Nd  Nd1  1  0.78258000  0.30352700  0.13131200  1
  Nd  Nd2  1  0.28258000  0.13131200  0.30352700  1
  Nd  Nd3  1  0.71742000  0.86868800  0.69647300  1
  Nd  Nd4  1  0.08610800  0.13131200  0.69647300  1
  Nd  Nd5  1  0.91389200  0.86868800  0.30352700  1
  Nd  Nd6  1  0.58610800  0.69647300  0.13131200  1
  Nd  Nd7  1  0.41389200  0.30352700  0.86868800  1
  Nd  Nd8  1  0.75000000  0.50000000  0.50000000  1
  Nd  Nd9  1  0.25000000  0.50000000  0.50000000  1
  Tl  Tl0  1  0.65995600  0.18008800  0.50000000  1
  Tl  Tl1  1  0.34004400  0.81991200  0.50000000  1
  Tl  Tl2  1  0.84004400  0.50000000  0.81991200  1
  Tl  Tl3  1  0.15995600  0.50000000  0.18008800  1
  Tl  Tl4  1  0.25000000  0.00000000  0.00000000  1
  Tl  Tl5  1  0.75000000  0.00000000  0.00000000  1
loop_
_geom_bond_atom_site_label_1
_geom_bond_atom_site_label_2
_geom_bond_distance
_geom_bond_site_symmetry_2
Nd0 Tl3 3.281160 1_556
Nd0 Tl4 3.348446 1_566
Nd0 Tl5 3.348449 1_466
Nd0 Tl1 3.464759 1_555
Nd0 Nd7 3.501676 1_555
Nd0 Tl2 3.655287 1_555
Nd0 Tl2 3.655292 1_455
Nd0 Nd3 3.849309 1_455
Nd0 Nd3 3.849309 1_555
Nd0 Nd6 3.947649 1_556
Nd0 Nd6 3.947649 1_456
Nd0 Nd8 4.048044 1_555
Nd0 Nd9 4.048046 1_555
Nd0 Nd4 4.167831 1_565
Nd0 Nd5 4.167831 1_456
Nd1 Tl2 3.281160 1_554
Nd1 Tl5 3.348446 1_555
Nd1 Tl4 3.348449 1_655
Nd1 Tl0 3.464759 1_555
Nd1 Nd6 3.501676 1_555
Nd1 Tl3 3.655287 1_555
Nd1 Tl3 3.655292 1_655
Nd1 Nd2 3.849309 1_555
Nd1 Nd2 3.849309 1_655
Nd1 Nd7 3.947649 1_554
Nd1 Nd7 3.947649 1_654
Nd1 Nd9 4.048044 1_555
Nd1 Nd8 4.048046 1_555
Nd1 Nd5 4.167831 1_545
Nd1 Nd4 4.167831 1_654
Nd2 Tl1 3.281160 1_545
Nd2 Tl4 3.348446 1_555
Nd2 Tl5 3.348449 1_555
Nd2 Tl3 3.464759 1_555
Nd2 Nd4 3.501676 1_555
Nd2 Tl0 3.655287 1_455
Nd2 Tl0 3.655292 1_555
Nd2 Nd5 3.947649 1_545
Nd2 Nd5 3.947649 1_445
Nd2 Nd8 4.048044 1_455
Nd2 Nd9 4.048046 1_555
Nd2 Nd7 4.167831 1_554
Nd2 Nd6 4.167831 1_545
Nd3 Tl0 3.281160 1_565
Nd3 Tl5 3.348446 1_566
Nd3 Tl4 3.348449 1_566
Nd3 Tl2 3.464759 1_555
Nd3 Nd5 3.501676 1_555
Nd3 Tl1 3.655287 1_655
Nd3 Tl1 3.655292 1_555
Nd3 Nd4 3.947649 1_665
Nd3 Nd4 3.947649 1_565
Nd3 Nd9 4.048044 1_655
Nd3 Nd8 4.048046 1_555
Nd3 Nd6 4.167831 1_556
Nd3 Nd7 4.167831 1_565
Nd4 Tl1 3.281160 1_545
Nd4 Tl4 3.348446 1_556
Nd4 Tl5 3.348449 1_456
Nd4 Tl2 3.464759 1_455
Nd4 Tl0 3.655287 1_555
Nd4 Tl0 3.655292 1_455
Nd4 Nd7 3.849304 1_555
Nd4 Nd7 3.849315 1_455
Nd4 Nd9 4.048044 1_555
Nd4 Nd8 4.048046 1_455
Nd5 Tl0 3.281160 1_565
Nd5 Tl5 3.348446 1_565
Nd5 Tl4 3.348449 1_665
Nd5 Tl3 3.464759 1_655
Nd5 Tl1 3.655287 1_555
Nd5 Tl1 3.655292 1_655
Nd5 Nd6 3.849304 1_555
Nd5 Nd6 3.849315 1_655
Nd5 Nd8 4.048044 1_555
Nd5 Nd9 4.048046 1_655
Nd6 Tl2 3.281160 1_554
Nd6 Tl5 3.348446 1_565
Nd6 Tl4 3.348449 1_565
Nd6 Tl1 3.464759 1_555
Nd6 Tl3 3.655287 1_655
Nd6 Tl3 3.655292 1_555
Nd6 Nd8 4.048044 1_555
Nd6 Nd9 4.048046 1_555
Nd7 Tl3 3.281160 1_556
Nd7 Tl4 3.348446 1_556
Nd7 Tl5 3.348449 1_556
Nd7 Tl0 3.464759 1_555
Nd7 Tl2 3.655287 1_455
Nd7 Tl2 3.655292 1_555
Nd7 Nd9 4.048044 1_555
Nd7 Nd8 4.048046 1_555
Nd8 Nd9 3.179116 1_655
Nd8 Nd9 3.179116 1_555
Nd8 Tl2 3.264048 1_555
Nd8 Tl0 3.264048 1_555
Nd8 Tl3 3.264048 1_655
Nd8 Tl1 3.264048 1_555
Nd9 Tl1 3.264048 1_555
Nd9 Tl3 3.264048 1_555
Nd9 Tl0 3.264048 1_555
Nd9 Tl2 3.264048 1_455
Tl4 Tl5 3.179116 1_555
Tl4 Tl5 3.179116 1_455
