# generated using pymatgen
data_Li7V3P8O29
_symmetry_space_group_name_H-M   'P 1'
_cell_length_a   9.85406245
_cell_length_b   9.83524346
_cell_length_c   13.93233054
_cell_angle_alpha   90.42878736
_cell_angle_beta   90.11363856
_cell_angle_gamma   60.05785682
_symmetry_Int_Tables_number   1
_chemical_formula_structural   Li7V3P8O29
_chemical_formula_sum   'Li14 V6 P16 O58'
_cell_volume   1170.02374807
_cell_formula_units_Z   2
loop_
 _symmetry_equiv_pos_site_id
 _symmetry_equiv_pos_as_xyz
  1  'x, y, z'
loop_
 _atom_site_type_symbol
 _atom_site_label
 _atom_site_symmetry_multiplicity
 _atom_site_fract_x
 _atom_site_fract_y
 _atom_site_fract_z
 _atom_site_occupancy
  Li  Li0  1  0.90781300  0.76559600  0.06455700  1
  Li  Li1  1  0.90135800  0.33125800  0.55794500  1
  Li  Li2  1  0.65999400  0.67212400  0.88599700  1
  Li  Li3  1  0.76880300  0.32899600  0.06484400  1
  Li  Li4  1  0.32663800  0.90887400  0.06275900  1
  Li  Li5  1  0.66233300  0.24061600  0.43714900  1
  Li  Li6  1  0.32997600  0.76453400  0.56121500  1
  Li  Li7  1  0.23271400  0.67393900  0.93845900  1
  Li  Li8  1  0.34499600  0.32434800  0.61433700  1
  Li  Li9  1  0.09391100  0.67460200  0.43430200  1
  Li  Li10  1  0.22410100  0.08928800  0.43736300  1
  Li  Li11  1  0.11006200  0.23938300  0.94853600  1
  Li  Li12  1  0.92755900  0.02263100  0.98452100  1
  Li  Li13  1  0.93021900  0.99035500  0.52000500  1
  V  V0  1  0.56749200  0.43294700  0.24802200  1
  V  V1  1  0.43669200  0.56434400  0.75346100  1
  V  V2  1  0.57036400  0.99800100  0.74940700  1
  V  V3  1  0.43961900  0.00175900  0.25180000  1
  V  V4  1  0.99954200  0.56773400  0.24997800  1
  V  V5  1  0.00055200  0.43654100  0.74627700  1
  P  P0  1  0.91092700  0.77638000  0.84036000  1
  P  P1  1  0.77536800  0.91975900  0.34389700  1
  P  P2  1  0.91021300  0.31781000  0.34192500  1
  P  P3  1  0.66364600  0.66888900  0.12770100  1
  P  P4  1  0.66612900  0.66716500  0.62680600  1
  P  P5  1  0.77890800  0.31983900  0.84627000  1
  P  P6  1  0.68636500  0.22380900  0.66116300  1
  P  P7  1  0.31660700  0.91470600  0.84383300  1
  P  P8  1  0.69247800  0.08344400  0.15617600  1
  P  P9  1  0.31930400  0.77165900  0.34231300  1
  P  P10  1  0.23157300  0.68466700  0.15674000  1
  P  P11  1  0.33652500  0.33266600  0.37229000  1
  P  P12  1  0.33002100  0.32779200  0.87175100  1
  P  P13  1  0.09038500  0.68592100  0.65319100  1
  P  P14  1  0.22962100  0.08866400  0.65561600  1
  P  P15  1  0.08930900  0.22482500  0.15950700  1
  O  O0  1  0.00676600  0.77416300  0.56440900  1
  O  O1  1  0.91877500  0.75489200  0.34217300  1
  O  O2  1  0.79453900  0.99292600  0.07237300  1
  O  O3  1  0.74646200  0.91831300  0.84015500  1
  O  O4  1  0.90056800  0.62398700  0.83162300  1
  O  O5  1  0.81098700  0.67660100  0.15789700  1
  O  O6  1  0.90046900  0.47481200  0.32979400  1
  O  O7  1  0.00261200  0.22028200  0.07018900  1
  O  O8  1  0.92873600  0.33335800  0.84222200  1
  O  O9  1  0.66358500  0.81437500  0.67519300  1
  O  O10  1  0.62202800  0.91450200  0.33031000  1
  O  O11  1  0.81577800  0.51794900  0.67261400  1
  O  O12  1  0.64462000  0.67347400  0.01972700  1
  O  O13  1  0.68141300  0.65783900  0.52066900  1
  O  O14  1  0.67651300  0.51153500  0.16581700  1
  O  O15  1  0.48249500  0.89208500  0.83083400  1
  O  O16  1  0.51361900  0.81081500  0.17383700  1
  O  O17  1  0.74300800  0.33612700  0.33811100  1
  O  O18  1  0.78943000  0.21598100  0.75311300  1
  O  O19  1  0.77639500  0.22359200  0.57208700  1
  O  O20  1  0.78009600  0.23357500  0.93526300  1
  O  O21  1  0.63383700  0.48421700  0.83469900  1
  O  O22  1  0.51646000  0.66917400  0.66416600  1
  O  O23  1  0.66243000  0.25429200  0.15614200  1
  O  O24  1  0.47494900  0.61905300  0.32853600  1
  O  O25  1  0.34153000  0.91643900  0.34389800  1
  O  O26  1  0.79448500  0.00598300  0.25089900  1
  O  O27  1  0.77432000  0.01502200  0.42911200  1
  O  O28  1  0.23479300  0.99424100  0.56834200  1
  O  O29  1  0.67313900  0.07590000  0.66281100  1
  O  O30  1  0.52173100  0.36949700  0.66989600  1
  O  O31  1  0.32734800  0.75348100  0.84423000  1
  O  O32  1  0.48979200  0.32136900  0.33119700  1
  O  O33  1  0.38314400  0.52516300  0.17374900  1
  O  O34  1  0.24272800  0.76366000  0.06663700  1
  O  O35  1  0.23042200  0.77104900  0.43064800  1
  O  O36  1  0.21262700  0.79400100  0.24850200  1
  O  O37  1  0.25520700  0.66493200  0.65864500  1
  O  O38  1  0.47600900  0.18330400  0.82435500  1
  O  O39  1  0.53910700  0.07924600  0.16480600  1
  O  O40  1  0.33481900  0.47890500  0.84634000  1
  O  O41  1  0.30226400  0.30933100  0.97481500  1
  O  O42  1  0.34931200  0.31753800  0.48037600  1
  O  O43  1  0.19097600  0.48665600  0.34061500  1
  O  O44  1  0.37595400  0.10674100  0.66653100  1
  O  O45  1  0.32519200  0.18809900  0.32949900  1
  O  O46  1  0.08663700  0.66643600  0.15594600  1
  O  O47  1  0.99999900  0.78854300  0.74713400  1
  O  O48  1  0.00031200  0.77889000  0.92891900  1
  O  O49  1  0.10195900  0.52324300  0.66225300  1
  O  O50  1  0.18445800  0.33629600  0.81456900  1
  O  O51  1  0.09688400  0.37405600  0.17131700  1
  O  O52  1  0.25505800  0.07754200  0.16258300  1
  O  O53  1  0.23208800  0.00956100  0.93186100  1
  O  O54  1  0.21354100  0.00442700  0.75026600  1
  O  O55  1  0.08045800  0.25253300  0.65299800  1
  O  O56  1  0.99330000  0.22980100  0.43224600  1
  O  O57  1  0.99998100  0.20433500  0.25158000  1
loop_
_geom_bond_atom_site_label_1
_geom_bond_atom_site_label_2
_geom_bond_distance
_geom_bond_site_symmetry_2
Li0 O2 1.939670 1_555
Li0 O46 1.992893 1_655
Li0 O5 2.055062 1_555
Li0 O48 2.132740 1_654
Li1 O56 1.990275 1_555
Li1 O19 1.995549 1_555
Li1 O55 2.027317 1_655
Li1 O11 2.247370 1_555
Li2 O12 1.869030 1_556
Li2 O21 2.108974 1_555
Li2 O15 2.138315 1_555
Li2 O4 2.302021 1_555
Li3 O7 1.999605 1_655
Li3 O20 2.005909 1_554
Li3 O23 2.011123 1_555
Li3 O14 2.089663 1_555
Li4 O34 1.976511 1_555
Li4 O52 1.996250 1_565
Li4 O53 2.067345 1_564
Li4 O16 2.226468 1_555
Li5 O27 1.925056 1_555
Li5 O17 2.046355 1_555
Li5 O32 2.088111 1_555
Li5 O19 2.152724 1_555
Li6 O28 1.968600 1_555
Li6 O37 2.022239 1_555
Li6 O35 2.051229 1_555
Li6 O22 2.145474 1_555
Li7 O31 1.988374 1_555
Li7 O48 1.992187 1_555
Li7 O34 2.010025 1_556
Li7 O40 2.093012 1_555
Li8 O42 1.866897 1_555
Li8 O44 2.138469 1_555
Li8 O30 2.142634 1_555
Li8 O49 2.306078 1_555
Li9 O1 1.973697 1_455
Li9 O35 1.996674 1_555
Li9 O0 2.030352 1_555
Li9 O43 2.058986 1_555
Li10 O25 1.983391 1_545
Li10 O56 1.987655 1_455
Li10 O28 2.035061 1_545
Li10 O45 2.278021 1_555
Li11 O53 1.972081 1_555
Li11 O7 2.059019 1_556
Li11 O8 2.145292 1_455
Li11 O41 2.342781 1_555
Li11 O50 2.378924 1_555
Li12 O2 1.922408 1_546
Li12 O20 1.973502 1_555
Li12 O48 2.262671 1_645
Li13 O27 1.909808 1_565
Li13 O0 1.972214 1_655
Li13 O19 2.143530 1_565
O0 P13 1.503445 1_555
O1 P1 1.529370 1_555
O1 V4 2.043991 1_555
O2 P8 1.504185 1_565
O3 P0 1.522116 1_555
O3 V2 1.967861 1_555
O4 P0 1.556167 1_555
O4 V5 1.985449 1_655
O5 P3 1.548486 1_555
O5 V4 2.066331 1_555
O6 P2 1.509314 1_555
O6 V4 1.983712 1_555
O7 P15 1.521007 1_555
O8 P5 1.548246 1_555
O8 V5 2.014580 1_655
O9 P4 1.581323 1_555
O9 V2 1.869308 1_555
O10 P1 1.548678 1_555
O10 V3 1.905315 1_565
O11 P4 1.607979 1_555
O11 V5 1.886578 1_655
O12 P3 1.513819 1_555
O13 P4 1.484190 1_555
O14 P3 1.584092 1_555
O14 V0 1.977451 1_555
O15 P7 1.546599 1_555
O15 V2 2.010942 1_555
O16 P3 1.574025 1_555
O16 V3 1.960605 1_565
O17 P2 1.566369 1_555
O17 V0 1.959262 1_555
O18 P6 1.611462 1_555
O18 P5 1.616677 1_555
O19 P6 1.526325 1_555
O20 P5 1.504341 1_555
O21 P5 1.542459 1_555
O21 V1 2.037755 1_555
O22 P4 1.555731 1_555
O22 V1 2.015123 1_555
O23 P8 1.553876 1_555
O23 V0 1.982791 1_555
O24 P9 1.529972 1_555
O24 V0 1.935805 1_555
O25 P9 1.544963 1_555
O25 V3 2.028691 1_565
O26 P8 1.605545 1_555
O26 P1 1.615648 1_545
O27 P1 1.503742 1_545
O28 P14 1.509839 1_565
O29 P6 1.524303 1_555
O29 V2 1.965073 1_545
O30 P6 1.541917 1_555
O30 V1 2.024246 1_555
O31 P7 1.535652 1_555
O31 V1 2.046943 1_555
O32 P11 1.567196 1_555
O32 V0 1.998675 1_555
O33 P10 1.553433 1_555
O33 V0 1.885535 1_555
O34 P10 1.513924 1_555
O35 P9 1.513748 1_555
O36 P10 1.614188 1_555
O36 P9 1.621677 1_555
O37 P13 1.533413 1_555
O37 V1 2.041098 1_555
O38 P12 1.572887 1_555
O38 V2 1.886839 1_545
O39 P8 1.537322 1_555
O39 V3 1.943011 1_555
O40 P12 1.553883 1_555
O40 V1 2.062006 1_555
O41 P12 1.491538 1_555
O42 P11 1.513144 1_555
O43 P11 1.544248 1_555
O43 V4 2.071960 1_455
O44 P14 1.545534 1_555
O44 V2 2.027682 1_545
O45 P11 1.592206 1_555
O45 V3 1.927261 1_555
O46 P10 1.525647 1_555
O46 V4 2.061662 1_455
O47 P0 1.607294 1_555
O47 P13 1.616335 1_655
O48 P0 1.521746 1_455
O49 P13 1.552315 1_555
O49 V5 1.991564 1_555
O50 P12 1.604949 1_555
O50 V5 1.839863 1_555
O51 P15 1.514120 1_555
O51 V4 1.974495 1_455
O52 P15 1.551353 1_555
O52 V3 2.014920 1_555
O53 P7 1.509779 1_545
O54 P14 1.612046 1_555
O54 P7 1.620763 1_545
O55 P14 1.547650 1_555
O55 V5 2.032370 1_555
O56 P2 1.519168 1_555
O57 P2 1.615644 1_555
O57 P15 1.626783 1_655
