# generated using pymatgen
data_Li9Mn2Co5O16
_symmetry_space_group_name_H-M   'P 1'
_cell_length_a   2.90513500
_cell_length_b   5.14967500
_cell_length_c   19.35347601
_cell_angle_alpha   85.60797496
_cell_angle_beta   90.00000000
_cell_angle_gamma   90.00000000
_symmetry_Int_Tables_number   1
_chemical_formula_structural   Li9Mn2Co5O16
_chemical_formula_sum   'Li9 Mn2 Co5 O16'
_cell_volume   288.68744846
_cell_formula_units_Z   1
loop_
 _symmetry_equiv_pos_site_id
 _symmetry_equiv_pos_as_xyz
  1  'x, y, z'
loop_
 _atom_site_type_symbol
 _atom_site_label
 _atom_site_symmetry_multiplicity
 _atom_site_fract_x
 _atom_site_fract_y
 _atom_site_fract_z
 _atom_site_occupancy
  Li  Li0  1  0.50000000  0.50349700  0.99601400  1
  Li  Li1  1  0.00000000  0.61602300  0.12491500  1
  Li  Li2  1  0.50000000  0.74327800  0.24671200  1
  Li  Li3  1  0.00000000  0.87065200  0.36843500  1
  Li  Li4  1  0.50000000  0.00884100  0.50291800  1
  Li  Li5  1  0.00000000  0.38704500  0.87568200  1
  Li  Li6  1  0.50000000  0.24143100  0.75273700  1
  Li  Li7  1  0.00000000  0.14411500  0.63282100  1
  Li  Li8  1  0.50000000  0.86374900  0.87558000  1
  Mn  Mn0  1  0.00000000  0.98778600  0.99587000  1
  Mn  Mn1  1  0.00000000  0.51436400  0.50082500  1
  Co  Co0  1  0.50000000  0.12220100  0.12439200  1
  Co  Co1  1  0.00000000  0.24252100  0.24965600  1
  Co  Co2  1  0.50000000  0.36951500  0.37336200  1
  Co  Co3  1  0.50000000  0.65363200  0.63120100  1
  Co  Co4  1  0.00000000  0.74597100  0.75884400  1
  O  O0  1  0.50000000  0.16222800  0.94482300  1
  O  O1  1  0.00000000  0.27990800  0.06284700  1
  O  O2  1  0.50000000  0.41494500  0.18869700  1
  O  O3  1  0.00000000  0.54193100  0.31449800  1
  O  O4  1  0.50000000  0.67507700  0.44466900  1
  O  O5  1  0.00000000  0.02843100  0.80496800  1
  O  O6  1  0.50000000  0.93323100  0.68360900  1
  O  O7  1  0.00000000  0.79332400  0.56033300  1
  O  O8  1  0.50000000  0.83388800  0.05604900  1
  O  O9  1  0.00000000  0.94528200  0.18373800  1
  O  O10  1  0.50000000  0.06819100  0.31189200  1
  O  O11  1  0.00000000  0.22538100  0.44085200  1
  O  O12  1  0.50000000  0.35277700  0.55630800  1
  O  O13  1  0.00000000  0.70727200  0.94294200  1
  O  O14  1  0.50000000  0.55680100  0.80904200  1
  O  O15  1  0.00000000  0.46671100  0.68476800  1
loop_
_geom_bond_atom_site_label_1
_geom_bond_atom_site_label_2
_geom_bond_distance
_geom_bond_site_symmetry_2
Li0 O13 2.025105 1_555
Li0 O13 2.025105 1_655
Li0 O0 2.082485 1_555
Li0 O8 2.132495 1_556
Li0 O1 2.209211 1_556
Li0 O1 2.209211 1_656
Li1 O9 2.113444 1_555
Li1 O2 2.123715 1_555
Li1 O2 2.123715 1_455
Li1 O1 2.181138 1_555
Li1 O8 2.217208 1_455
Li1 O8 2.217208 1_555
Li2 O2 2.100061 1_555
Li2 O9 2.117379 1_555
Li2 O9 2.117379 1_655
Li2 O3 2.167437 1_555
Li2 O3 2.167437 1_655
Li2 O10 2.171206 1_565
Li3 O10 2.042493 1_465
Li3 O10 2.042493 1_565
Li3 O3 2.055699 1_555
Li3 O4 2.252442 1_555
Li3 O4 2.252442 1_455
Li3 O11 2.386076 1_565
Li4 O7 2.094646 1_645
Li4 O7 2.094646 1_545
Li4 O12 2.117776 1_555
Li4 O4 2.126455 1_545
Li4 O11 2.142694 1_555
Li4 O11 2.142694 1_655
Li5 O14 2.089221 1_455
Li5 O14 2.089221 1_555
Li5 O13 2.177763 1_555
Li5 O0 2.236870 1_455
Li5 O0 2.236870 1_555
Li5 O5 2.381287 1_555
Li6 O14 2.023868 1_555
Li6 O5 2.040857 1_555
Li6 O5 2.040857 1_655
Li6 O6 2.152693 1_545
Li6 O15 2.225414 1_655
Li6 O15 2.225414 1_555
Li7 O15 2.006575 1_555
Li7 O6 2.022860 1_545
Li7 O6 2.022860 1_445
Li7 O12 2.283338 1_555
Li7 O12 2.283338 1_455
Li7 O7 2.370561 1_545
Li8 O13 2.073157 1_655
Li8 O13 2.073157 1_555
Li8 O14 2.113905 1_555
Li8 O0 2.115163 1_565
Li8 O5 2.125844 1_665
Li8 O5 2.125844 1_565
Mn0 O13 1.833753 1_555
Mn0 O0 1.938304 1_565
Mn0 O0 1.938304 1_465
Mn0 O8 1.988250 1_456
Mn0 O8 1.988250 1_556
Mn0 O1 2.059590 1_566
Mn1 O7 1.908786 1_555
Mn1 O12 1.954110 1_555
Mn1 O12 1.954110 1_455
Mn1 O11 1.956116 1_555
Mn1 O4 1.959160 1_555
Mn1 O4 1.959160 1_455
Co0 O1 2.010002 1_655
Co0 O1 2.010002 1_555
Co0 O9 2.024577 1_545
Co0 O9 2.024577 1_645
Co0 O2 2.027033 1_555
Co0 O8 2.062676 1_545
Co1 O2 2.032186 1_555
Co1 O2 2.032186 1_455
Co1 O10 2.049648 1_455
Co1 O10 2.049648 1_555
Co1 O3 2.061193 1_555
Co1 O9 2.066301 1_545
Co2 O3 2.010274 1_555
Co2 O3 2.010274 1_655
Co2 O10 2.026292 1_555
Co2 O11 2.053889 1_555
Co2 O11 2.053889 1_655
Co2 O4 2.170978 1_555
Co3 O6 1.823618 1_555
Co3 O15 1.989583 1_555
Co3 O15 1.989583 1_655
Co3 O7 2.087452 1_655
Co3 O7 2.087452 1_555
Co3 O12 2.201173 1_555
Co4 O5 1.763946 1_565
Co4 O14 1.964133 1_555
Co4 O14 1.964133 1_455
Co4 O15 2.106938 1_555
Co4 O6 2.223720 1_455
Co4 O6 2.223720 1_555
