# generated using pymatgen
data_K7Bi2P6(W2O17)2
_symmetry_space_group_name_H-M   'P 1'
_cell_length_a   9.60349000
_cell_length_b   9.85677011
_cell_length_c   18.02163969
_cell_angle_alpha   89.98262388
_cell_angle_beta   103.18908315
_cell_angle_gamma   90.32349762
_symmetry_Int_Tables_number   1
_chemical_formula_structural   K7Bi2P6(W2O17)2
_chemical_formula_sum   'K14 Bi4 P12 W8 O68'
_cell_volume   1660.89213434
_cell_formula_units_Z   2
loop_
 _symmetry_equiv_pos_site_id
 _symmetry_equiv_pos_as_xyz
  1  'x, y, z'
loop_
 _atom_site_type_symbol
 _atom_site_label
 _atom_site_symmetry_multiplicity
 _atom_site_fract_x
 _atom_site_fract_y
 _atom_site_fract_z
 _atom_site_occupancy
  K  K0  1  0.17169200  0.17005700  0.50652100  1
  K  K1  1  0.82830800  0.82994300  0.49347900  1
  K  K2  1  0.60525600  0.01425000  0.72191000  1
  K  K3  1  0.39474400  0.98575000  0.27809000  1
  K  K4  1  0.66805400  0.33137300  0.49664600  1
  K  K5  1  0.33194600  0.66862700  0.50335400  1
  K  K6  1  0.11032900  0.50654400  0.71860800  1
  K  K7  1  0.88967100  0.49345600  0.28139200  1
  K  K8  1  0.00000000  0.50000000  0.50000000  1
  K  K9  1  0.98848700  0.87381500  0.10198800  1
  K  K10  1  0.01151300  0.12618500  0.89801200  1
  K  K11  1  0.49474800  0.67637900  0.09309000  1
  K  K12  1  0.50525200  0.32362100  0.90691000  1
  K  K13  1  0.50000000  0.00000000  0.50000000  1
  Bi  Bi0  1  0.63192400  0.11418600  0.11296600  1
  Bi  Bi1  1  0.36807600  0.88581400  0.88703400  1
  Bi  Bi2  1  0.17971000  0.35243800  0.11006000  1
  Bi  Bi3  1  0.82029000  0.64756200  0.88994000  1
  P  P0  1  0.03961900  0.15416200  0.24657900  1
  P  P1  1  0.96038100  0.84583800  0.75342100  1
  P  P2  1  0.82456600  0.42867800  0.05136900  1
  P  P3  1  0.17543400  0.57132200  0.94863100  1
  P  P4  1  0.21343400  0.63699800  0.23900400  1
  P  P5  1  0.78656600  0.36300200  0.76099600  1
  P  P6  1  0.25728600  0.15885400  0.76116100  1
  P  P7  1  0.74271400  0.84114600  0.23883900  1
  P  P8  1  0.51871100  0.32284900  0.23947400  1
  P  P9  1  0.48128900  0.67715100  0.76052600  1
  P  P10  1  0.32620400  0.06914300  0.03980100  1
  P  P11  1  0.67379600  0.93085700  0.96019900  1
  W  W0  1  0.79130200  0.12751900  0.35160200  1
  W  W1  1  0.20869800  0.87248100  0.64839800  1
  W  W2  1  0.08174900  0.86959500  0.35432800  1
  W  W3  1  0.91825100  0.13040500  0.64567200  1
  W  W4  1  0.29405500  0.36714900  0.36064600  1
  W  W5  1  0.70594500  0.63285100  0.63935400  1
  W  W6  1  0.43617400  0.36920400  0.66696100  1
  W  W7  1  0.56382600  0.63079600  0.33303900  1
  O  O0  1  0.12795600  0.65149800  0.15764100  1
  O  O1  1  0.87204400  0.34850200  0.84235900  1
  O  O2  1  0.47846300  0.21812700  0.62217800  1
  O  O3  1  0.52153700  0.78187300  0.37782200  1
  O  O4  1  0.37290700  0.30805000  0.26247800  1
  O  O5  1  0.62709300  0.69195000  0.73752200  1
  O  O6  1  0.71743600  0.31785300  0.06461700  1
  O  O7  1  0.28256400  0.68214700  0.93538300  1
  O  O8  1  0.96402300  0.36716600  0.03592400  1
  O  O9  1  0.03597700  0.63283400  0.96407600  1
  O  O10  1  0.35867700  0.28107300  0.75178500  1
  O  O11  1  0.64132300  0.71892700  0.24821500  1
  O  O12  1  0.39898000  0.23953700  0.41850400  1
  O  O13  1  0.60102000  0.76046300  0.58149600  1
  O  O14  1  0.26478900  0.40557200  0.60660600  1
  O  O15  1  0.73521100  0.59442800  0.39339400  1
  O  O16  1  0.88081400  0.16989800  0.25127800  1
  O  O17  1  0.11918600  0.83010200  0.74872200  1
  O  O18  1  0.49170900  0.30148700  0.15322800  1
  O  O19  1  0.50829100  0.69851300  0.84677200  1
  O  O20  1  0.30247700  0.03875500  0.71705700  1
  O  O21  1  0.69752300  0.96124500  0.28294300  1
  O  O22  1  0.95493300  0.00766300  0.38303100  1
  O  O23  1  0.04506700  0.99233700  0.61696900  1
  O  O24  1  0.61680800  0.20618200  0.28082200  1
  O  O25  1  0.38319200  0.79381800  0.71917800  1
  O  O26  1  0.74351600  0.04054100  0.01898300  1
  O  O27  1  0.25648400  0.95945900  0.98101700  1
  O  O28  1  0.39934600  0.01002800  0.11880100  1
  O  O29  1  0.60065400  0.98997200  0.88119900  1
  O  O30  1  0.69969800  0.07696000  0.42311000  1
  O  O31  1  0.30030200  0.92304000  0.57689000  1
  O  O32  1  0.18207700  0.75203000  0.29359700  1
  O  O33  1  0.81792300  0.24797000  0.70640300  1
  O  O34  1  0.05803800  0.19942800  0.16854800  1
  O  O35  1  0.94196200  0.80057200  0.83145200  1
  O  O36  1  0.08546300  0.00378300  0.25815200  1
  O  O37  1  0.91453700  0.99621700  0.74184800  1
  O  O38  1  0.13357700  0.24076200  0.31289800  1
  O  O39  1  0.86642300  0.75923800  0.68710200  1
  O  O40  1  0.44585700  0.50505400  0.37788400  1
  O  O41  1  0.55414300  0.49494600  0.62211600  1
  O  O42  1  0.59331500  0.45854600  0.26475400  1
  O  O43  1  0.40668500  0.54145400  0.73524600  1
  O  O44  1  0.17794100  0.49928800  0.27295500  1
  O  O45  1  0.82205900  0.50071200  0.72704500  1
  O  O46  1  0.20083000  0.16918700  0.04264800  1
  O  O47  1  0.79917000  0.83081300  0.95735200  1
  O  O48  1  0.25110100  0.48617300  0.01801100  1
  O  O49  1  0.74889900  0.51382700  0.98198900  1
  O  O50  1  0.37578900  0.64805300  0.24148300  1
  O  O51  1  0.62421100  0.35194700  0.75851700  1
  O  O52  1  0.27942200  0.12520300  0.84569900  1
  O  O53  1  0.72057800  0.87479700  0.15430100  1
  O  O54  1  0.19945100  0.43548800  0.42685600  1
  O  O55  1  0.80054900  0.56451200  0.57314400  1
  O  O56  1  0.45026200  0.14408000  0.01183600  1
  O  O57  1  0.54973800  0.85592000  0.98816400  1
  O  O58  1  0.13181100  0.71539900  0.60836700  1
  O  O59  1  0.86818900  0.28460100  0.39163300  1
  O  O60  1  0.75633000  0.05126800  0.59532900  1
  O  O61  1  0.24367000  0.94873200  0.40467100  1
  O  O62  1  0.05573200  0.74399000  0.42199900  1
  O  O63  1  0.94426800  0.25601000  0.57800100  1
  O  O64  1  0.10289500  0.20430300  0.72542300  1
  O  O65  1  0.89710500  0.79569700  0.27457700  1
  O  O66  1  0.14954300  0.49195200  0.87240800  1
  O  O67  1  0.85045700  0.50804800  0.12759200  1
loop_
_geom_bond_atom_site_label_1
_geom_bond_atom_site_label_2
_geom_bond_distance
_geom_bond_site_symmetry_2
K0 O31 2.894694 1_545
K0 O63 2.907366 1_455
K0 O14 2.947008 1_555
K0 O54 3.023536 1_555
K0 O61 3.033889 1_545
K0 O12 3.051546 1_555
K0 O23 3.096392 1_545
K0 O22 3.114279 1_455
K0 O2 3.229701 1_555
K0 O59 3.367322 1_455
K1 O30 2.894694 1_565
K1 O62 2.907366 1_655
K1 O15 2.947008 1_555
K1 O55 3.023536 1_555
K1 O60 3.033889 1_565
K1 O13 3.051546 1_555
K1 O22 3.096392 1_565
K1 O23 3.114279 1_655
K1 O3 3.229701 1_555
K1 O58 3.367322 1_655
K2 O2 2.788944 1_555
K2 O29 2.890883 1_545
K2 O20 2.900480 1_555
K2 O37 2.915744 1_545
K2 O60 2.990943 1_555
K2 O25 3.028369 1_545
K2 O33 3.124636 1_555
K2 O5 3.193037 1_545
K3 O3 2.788944 1_555
K3 O28 2.890883 1_565
K3 O21 2.900480 1_555
K3 O36 2.915744 1_565
K3 O61 2.990943 1_555
K3 O24 3.028369 1_565
K3 O32 3.124636 1_555
K3 O4 3.193037 1_565
K4 O12 2.791711 1_555
K4 O55 2.822914 1_555
K4 O63 2.825711 1_555
K4 O30 2.886437 1_555
K4 O59 3.026313 1_555
K4 O40 3.165415 1_555
K4 O41 3.171758 1_555
K4 O60 3.292369 1_555
K4 O15 3.335751 1_555
K4 O2 3.396203 1_555
K5 O13 2.791711 1_555
K5 O54 2.822914 1_555
K5 O62 2.825711 1_555
K5 O31 2.886437 1_555
K5 O58 3.026313 1_555
K5 O41 3.165415 1_555
K5 O40 3.171758 1_555
K5 O61 3.292369 1_555
K5 O14 3.335751 1_555
K5 O3 3.396203 1_555
K6 O66 2.714596 1_555
K6 O45 2.807264 1_455
K6 O43 2.812100 1_555
K6 O58 2.899546 1_555
K6 O14 2.940960 1_555
K6 O64 2.982736 1_555
K7 O67 2.714596 1_555
K7 O44 2.807264 1_655
K7 O42 2.812100 1_555
K7 O59 2.899546 1_555
K7 O15 2.940960 1_555
K7 O65 2.982736 1_555
K8 O55 2.641443 1_455
K8 O54 2.641443 1_555
K8 O63 2.893616 1_455
K8 O62 2.893616 1_555
K8 O58 2.961107 1_555
K8 O59 2.961107 1_455
K8 O14 2.969842 1_555
K8 O15 2.969842 1_455
K9 O0 2.649642 1_655
K9 O47 2.847597 1_554
K9 O53 2.935248 1_555
K9 O26 2.984835 1_565
K9 O36 3.036707 1_665
K10 O1 2.649642 1_455
K10 O46 2.847597 1_556
K10 O52 2.935248 1_555
K10 O27 2.984835 1_545
K10 O37 3.036707 1_445
K11 O57 2.725703 1_554
K11 O11 2.858501 1_555
K11 O53 2.933780 1_555
K11 O48 3.054163 1_555
K11 O7 3.097036 1_554
K11 O50 3.150395 1_555
K12 O56 2.725703 1_556
K12 O10 2.858501 1_555
K12 O52 2.933780 1_555
K12 O49 3.054163 1_555
K12 O6 3.097036 1_556
K12 O51 3.150395 1_555
K13 O60 2.706147 1_555
K13 O61 2.706147 1_545
K13 O30 2.714613 1_555
K13 O31 2.714613 1_545
K13 O13 2.836619 1_545
K13 O12 2.836619 1_555
K13 O2 3.119173 1_555
K13 O3 3.119173 1_545
Bi0 O56 2.237537 1_555
Bi0 O26 2.319904 1_555
Bi0 O6 2.402188 1_555
Bi0 O28 2.476914 1_555
Bi0 O18 2.494557 1_555
Bi0 O53 2.565093 1_545
Bi1 O57 2.237537 1_555
Bi1 O27 2.319904 1_555
Bi1 O7 2.402188 1_555
Bi1 O29 2.476914 1_555
Bi1 O19 2.494557 1_555
Bi1 O52 2.565093 1_565
Bi2 O8 2.199320 1_455
Bi2 O46 2.213042 1_555
Bi2 O34 2.300466 1_555
Bi2 O48 2.338166 1_555
Bi3 O9 2.199320 1_655
Bi3 O47 2.213042 1_555
Bi3 O35 2.300466 1_555
Bi3 O49 2.338166 1_555
O0 P4 1.515332 1_555
O1 P5 1.515332 1_555
O2 W6 1.786316 1_555
O3 W7 1.786316 1_555
O4 P8 1.554457 1_555
O4 W4 2.158612 1_555
O5 P9 1.554457 1_555
O5 W5 2.158612 1_555
O6 P2 1.551774 1_555
O7 P3 1.551774 1_555
O8 P2 1.555032 1_555
O9 P3 1.555032 1_555
O10 P6 1.577857 1_555
O10 W6 2.038725 1_555
O11 P7 1.577857 1_555
O11 W7 2.038725 1_555
O12 W4 1.794101 1_555
O13 W5 1.794101 1_555
O14 W6 1.791658 1_555
O15 W7 1.791658 1_555
O16 P0 1.555223 1_655
O16 W0 2.210666 1_555
O17 P1 1.555223 1_455
O17 W1 2.210666 1_555
O18 P8 1.530708 1_555
O19 P9 1.530708 1_555
O20 P6 1.544420 1_555
O20 W1 2.122319 1_545
O21 P7 1.544420 1_555
O21 W0 2.122319 1_565
O22 W0 1.949432 1_555
O22 W2 1.977240 1_645
O23 W1 1.949432 1_555
O23 W3 1.977240 1_465
O24 P8 1.567336 1_555
O24 W0 2.018678 1_555
O25 P9 1.567336 1_555
O25 W1 2.018678 1_555
O26 P11 1.551863 1_544
O27 P10 1.551863 1_566
O28 P10 1.551654 1_555
O29 P11 1.551654 1_555
O30 W0 1.787450 1_555
O31 W1 1.787450 1_555
O32 P4 1.576067 1_555
O32 W2 1.990887 1_555
O33 P5 1.576067 1_555
O33 W3 1.990887 1_555
O34 P0 1.523198 1_555
O35 P1 1.523198 1_555
O36 P0 1.549090 1_555
O36 W2 2.186582 1_545
O37 P1 1.549090 1_555
O37 W3 2.186582 1_565
O38 P0 1.571961 1_555
O38 W4 2.010308 1_555
O39 P1 1.571961 1_555
O39 W5 2.010308 1_555
O40 W4 1.959765 1_555
O40 W7 1.968283 1_555
O41 W5 1.959765 1_555
O41 W6 1.968283 1_555
O42 P8 1.533124 1_555
O42 W7 2.154750 1_555
O43 P9 1.533124 1_555
O43 W6 2.154750 1_555
O44 P4 1.556425 1_555
O44 W4 2.155994 1_555
O45 P5 1.556425 1_555
O45 W5 2.155994 1_555
O46 P10 1.570464 1_555
O47 P11 1.570464 1_555
O48 P3 1.545138 1_554
O49 P2 1.545138 1_556
O50 P4 1.552802 1_555
O50 W7 2.157772 1_555
O51 P5 1.552802 1_555
O51 W6 2.157772 1_555
O52 P6 1.526106 1_555
O53 P7 1.526106 1_555
O54 W4 1.790255 1_555
O55 W5 1.790255 1_555
O56 P10 1.575696 1_555
O57 P11 1.575696 1_555
O58 W1 1.790991 1_555
O59 W0 1.790991 1_555
O60 W3 1.786776 1_555
O61 W2 1.786776 1_555
O62 W2 1.793639 1_555
O63 W3 1.793639 1_555
O64 P6 1.544484 1_555
O64 W3 2.136265 1_455
O65 P7 1.544484 1_555
O65 W2 2.136265 1_655
O66 P3 1.550294 1_555
O67 P2 1.550294 1_555
