# generated using pymatgen
data_Li6Mn3V(PO4)6
_symmetry_space_group_name_H-M   'P 1'
_cell_length_a   8.61239900
_cell_length_b   8.72330250
_cell_length_c   12.37088277
_cell_angle_alpha   89.88344668
_cell_angle_beta   88.10445251
_cell_angle_gamma   89.83653874
_symmetry_Int_Tables_number   1
_chemical_formula_structural   Li6Mn3V(PO4)6
_chemical_formula_sum   'Li12 Mn6 V2 P12 O48'
_cell_volume   928.89251857
_cell_formula_units_Z   2
loop_
 _symmetry_equiv_pos_site_id
 _symmetry_equiv_pos_as_xyz
  1  'x, y, z'
loop_
 _atom_site_type_symbol
 _atom_site_label
 _atom_site_symmetry_multiplicity
 _atom_site_fract_x
 _atom_site_fract_y
 _atom_site_fract_z
 _atom_site_occupancy
  Li  Li0  1  0.92126300  0.08936300  0.69589200  1
  Li  Li1  1  0.92745600  0.69415200  0.75974400  1
  Li  Li2  1  0.78871500  0.77686000  0.17651300  1
  Li  Li3  1  0.70576800  0.28166700  0.32652000  1
  Li  Li4  1  0.57734200  0.19696900  0.74188000  1
  Li  Li5  1  0.58308000  0.58368800  0.80467200  1
  Li  Li6  1  0.41768900  0.41382900  0.19629100  1
  Li  Li7  1  0.41764400  0.80550700  0.26273300  1
  Li  Li8  1  0.29349300  0.71671900  0.67031300  1
  Li  Li9  1  0.21058900  0.21810100  0.82762100  1
  Li  Li10  1  0.08314400  0.30488200  0.23702100  1
  Li  Li11  1  0.07942900  0.91761300  0.30054100  1
  Mn  Mn0  1  0.75288500  0.53833500  0.60315100  1
  Mn  Mn1  1  0.74734300  0.95970600  0.39095500  1
  Mn  Mn2  1  0.25260800  0.04416600  0.60936900  1
  Mn  Mn3  1  0.24788000  0.54026000  0.89126600  1
  Mn  Mn4  1  0.25070600  0.96062300  0.09949300  1
  Mn  Mn5  1  0.24868600  0.46374000  0.39977900  1
  V  V0  1  0.74809300  0.03066400  0.89269800  1
  V  V1  1  0.75112200  0.45538400  0.11125100  1
  P  P0  1  0.96253200  0.25547300  0.49443800  1
  P  P1  1  0.89880400  0.38585100  0.85721300  1
  P  P2  1  0.89552700  0.09838900  0.15114800  1
  P  P3  1  0.59682300  0.59832700  0.34693500  1
  P  P4  1  0.60444700  0.88554400  0.64453500  1
  P  P5  1  0.53625800  0.74468500  0.00714300  1
  P  P6  1  0.45950900  0.24364800  0.99675000  1
  P  P7  1  0.39572000  0.11555000  0.36163000  1
  P  P8  1  0.40162600  0.40280200  0.65700400  1
  P  P9  1  0.10631900  0.90158100  0.84114100  1
  P  P10  1  0.10302200  0.61645700  0.13849100  1
  P  P11  1  0.03711700  0.74881700  0.50254200  1
  O  O0  1  0.94909900  0.86560400  0.43068500  1
  O  O1  1  0.92499300  0.89316200  0.84725600  1
  O  O2  1  0.92772700  0.68192500  0.59438100  1
  O  O3  1  0.92769800  0.59243000  0.16570100  1
  O  O4  1  0.90085900  0.37482500  0.57702700  1
  O  O5  1  0.86015300  0.21823400  0.82091500  1
  O  O6  1  0.86025700  0.40127000  0.97846500  1
  O  O7  1  0.85367300  0.97757400  0.24295400  1
  O  O8  1  0.84346100  0.26105800  0.18948600  1
  O  O9  1  0.83023700  0.18095200  0.43421900  1
  O  O10  1  0.82569300  0.04493600  0.04727800  1
  O  O11  1  0.80673400  0.50740800  0.79395000  1
  O  O12  1  0.69500400  0.00297800  0.71365500  1
  O  O13  1  0.67004100  0.54567200  0.44961200  1
  O  O14  1  0.66896200  0.66439900  0.06647200  1
  O  O15  1  0.64561400  0.75951900  0.30622700  1
  O  O16  1  0.64381400  0.90560700  0.52345500  1
  O  O17  1  0.64129300  0.71611000  0.67855700  1
  O  O18  1  0.63572200  0.47548200  0.25690700  1
  O  O19  1  0.60655500  0.86315100  0.92791700  1
  O  O20  1  0.56835700  0.17616700  0.90556700  1
  O  O21  1  0.58415100  0.39357800  0.65057000  1
  O  O22  1  0.57317400  0.09239300  0.33642200  1
  O  O23  1  0.54738000  0.35887800  0.06747400  1
  O  O24  1  0.44962800  0.62919400  0.93597700  1
  O  O25  1  0.42712800  0.90716100  0.66620900  1
  O  O26  1  0.41414400  0.60800400  0.35255700  1
  O  O27  1  0.42804500  0.81474900  0.09759600  1
  O  O28  1  0.39992700  0.12185900  0.07964100  1
  O  O29  1  0.36427200  0.52365300  0.74902300  1
  O  O30  1  0.35918500  0.28405800  0.32384300  1
  O  O31  1  0.36645000  0.10749600  0.48503300  1
  O  O32  1  0.35233200  0.24126000  0.69622800  1
  O  O33  1  0.32305000  0.31943500  0.94116700  1
  O  O34  1  0.32702600  0.46018800  0.55561800  1
  O  O35  1  0.30143700  0.99518400  0.30110700  1
  O  O36  1  0.19929900  0.49551500  0.19855300  1
  O  O37  1  0.17943400  0.95910300  0.94269000  1
  O  O38  1  0.17065200  0.82558000  0.56046500  1
  O  O39  1  0.15718700  0.74165600  0.80098300  1
  O  O40  1  0.14133500  0.02640500  0.75033900  1
  O  O41  1  0.13192700  0.60907300  0.01477300  1
  O  O42  1  0.13921900  0.78554000  0.17538800  1
  O  O43  1  0.09900400  0.62804500  0.42116700  1
  O  O44  1  0.07624400  0.40746200  0.83312100  1
  O  O45  1  0.07304900  0.32360200  0.40349200  1
  O  O46  1  0.07769200  0.10640000  0.14879000  1
  O  O47  1  0.04904000  0.13671700  0.56441900  1
loop_
_geom_bond_atom_site_label_1
_geom_bond_atom_site_label_2
_geom_bond_distance
_geom_bond_site_symmetry_2
Li0 O5 1.970466 1_555
Li0 O47 1.976971 1_655
Li0 O12 2.095875 1_555
Li0 O40 2.103487 1_655
Li1 O11 1.972695 1_555
Li1 O1 2.047479 1_555
Li1 O2 2.048606 1_555
Li1 O39 2.102118 1_655
Li2 O14 1.995837 1_555
Li2 O15 1.996504 1_555
Li2 O3 2.004570 1_555
Li2 O7 2.023865 1_555
Li3 O9 1.944343 1_555
Li3 O18 1.996663 1_555
Li3 O22 2.011431 1_555
Li3 O8 2.044368 1_555
Li4 O12 1.995419 1_555
Li4 O20 2.031642 1_555
Li4 O21 2.051636 1_555
Li4 O32 2.071432 1_555
Li5 O17 1.990992 1_555
Li5 O24 1.998404 1_555
Li5 O11 2.036357 1_555
Li5 O29 2.095785 1_555
Li5 O21 2.529075 1_555
Li6 O23 1.974628 1_555
Li6 O30 1.992141 1_555
Li6 O36 2.008764 1_555
Li6 O18 2.116176 1_555
Li7 O35 1.981679 1_555
Li7 O27 2.043328 1_555
Li7 O26 2.047994 1_555
Li7 O15 2.090400 1_555
Li8 O39 1.978113 1_555
Li8 O38 1.987925 1_555
Li8 O25 2.023302 1_555
Li8 O29 2.045208 1_555
Li9 O33 1.947441 1_555
Li9 O32 2.010452 1_555
Li9 O44 2.014030 1_555
Li9 O40 2.028796 1_555
Li10 O36 1.991831 1_555
Li10 O46 2.050102 1_555
Li10 O45 2.065132 1_555
Li10 O8 2.199723 1_455
Li11 O0 1.984492 1_455
Li11 O42 1.985130 1_555
Li11 O35 2.030284 1_555
Li11 O7 2.155395 1_455
Li11 O46 2.495135 1_565
Mn0 O4 1.930619 1_555
Mn0 O2 1.961527 1_555
Mn0 O21 2.000386 1_555
Mn0 O17 2.033927 1_555
Mn0 O13 2.051786 1_555
Mn0 O11 2.434798 1_555
Mn1 O16 1.899230 1_555
Mn1 O0 1.995343 1_555
Mn1 O22 2.024537 1_565
Mn1 O7 2.025795 1_555
Mn1 O9 2.135031 1_565
Mn1 O15 2.234437 1_555
Mn2 O31 1.879427 1_555
Mn2 O40 1.967956 1_555
Mn2 O47 2.022217 1_555
Mn2 O25 2.058677 1_545
Mn2 O38 2.130890 1_545
Mn2 O32 2.219294 1_555
Mn3 O41 1.895105 1_556
Mn3 O24 1.999960 1_555
Mn3 O29 2.001445 1_555
Mn3 O44 2.031735 1_555
Mn3 O33 2.127301 1_555
Mn3 O39 2.232912 1_555
Mn4 O28 1.917870 1_565
Mn4 O27 1.984733 1_555
Mn4 O42 2.019650 1_555
Mn4 O46 2.035079 1_565
Mn4 O37 2.053939 1_554
Mn5 O43 1.937672 1_555
Mn5 O45 1.946892 1_555
Mn5 O26 1.976803 1_555
Mn5 O30 2.045304 1_555
Mn5 O34 2.063620 1_555
Mn5 O36 2.553652 1_555
O0 P11 1.561799 1_655
O1 P9 1.562911 1_655
O1 V0 2.002889 1_565
O2 P11 1.564764 1_655
O3 P10 1.550842 1_655
O3 V1 2.068093 1_555
O4 P0 1.541182 1_555
O5 P1 1.570265 1_555
O5 V0 2.084144 1_555
O6 P1 1.531636 1_555
O6 V1 1.924357 1_556
O7 P2 1.581369 1_565
O8 P2 1.557126 1_555
O8 V1 2.116431 1_555
O9 P0 1.529081 1_555
O10 P2 1.511769 1_555
O10 V0 2.050610 1_554
O11 P1 1.548720 1_555
O12 P4 1.562395 1_545
O12 V0 2.289772 1_555
O13 P3 1.506983 1_555
O14 P5 1.544099 1_555
O14 V1 2.036282 1_555
O15 P3 1.547212 1_555
O16 P4 1.534556 1_555
O17 P4 1.570358 1_555
O18 P3 1.574516 1_555
O18 V1 2.036456 1_555
O19 P5 1.534688 1_556
O19 V0 1.945117 1_565
O20 P6 1.557989 1_555
O20 V0 2.001466 1_555
O21 P8 1.573198 1_555
O22 P7 1.562285 1_555
O23 P6 1.549296 1_554
O23 V1 2.038173 1_555
O24 P5 1.548569 1_556
O25 P4 1.552768 1_555
O26 P3 1.574572 1_555
O27 P5 1.557175 1_555
O28 P6 1.551580 1_554
O29 P8 1.577799 1_555
O30 P7 1.575615 1_555
O31 P7 1.540522 1_555
O32 P8 1.545470 1_555
O33 P6 1.529132 1_555
O34 P8 1.511756 1_555
O35 P7 1.539706 1_565
O36 P10 1.544423 1_555
O37 P9 1.511015 1_555
O38 P11 1.531454 1_555
O39 P9 1.539446 1_555
O40 P9 1.585210 1_545
O41 P10 1.543910 1_555
O42 P10 1.579816 1_555
O43 P11 1.540465 1_555
O44 P1 1.559166 1_455
O45 P0 1.566727 1_455
O46 P2 1.569937 1_455
O47 P0 1.553180 1_455
