# generated using pymatgen
data_Ti2CrIn3O6
_symmetry_space_group_name_H-M   'P 1'
_cell_length_a   5.82231329
_cell_length_b   5.82231329
_cell_length_c   6.42585692
_cell_angle_alpha   81.43048100
_cell_angle_beta   81.43048100
_cell_angle_gamma   120.10300568
_symmetry_Int_Tables_number   1
_chemical_formula_structural   Ti2CrIn3O6
_chemical_formula_sum   'Ti2 Cr1 In3 O6'
_cell_volume   179.86152797
_cell_formula_units_Z   1
loop_
 _symmetry_equiv_pos_site_id
 _symmetry_equiv_pos_as_xyz
  1  'x, y, z'
loop_
 _atom_site_type_symbol
 _atom_site_label
 _atom_site_symmetry_multiplicity
 _atom_site_fract_x
 _atom_site_fract_y
 _atom_site_fract_z
 _atom_site_occupancy
  Ti  Ti0  1  0.16794400  0.83205600  0.50000000  1
  Ti  Ti1  1  0.83205600  0.16794400  0.50000000  1
  Cr  Cr0  1  0.50000000  0.50000000  0.50000000  1
  In  In0  1  0.00000000  0.00000000  0.00000000  1
  In  In1  1  0.33628700  0.66371300  0.00000000  1
  In  In2  1  0.66371300  0.33628700  0.00000000  1
  O  O0  1  0.72606300  0.06394900  0.81834100  1
  O  O1  1  0.06394900  0.72606300  0.81834100  1
  O  O2  1  0.38439700  0.38439700  0.83123000  1
  O  O3  1  0.93605100  0.27393700  0.18165900  1
  O  O4  1  0.27393700  0.93605100  0.18165900  1
  O  O5  1  0.61560300  0.61560300  0.16877000  1
loop_
_geom_bond_atom_site_label_1
_geom_bond_atom_site_label_2
_geom_bond_distance
_geom_bond_site_symmetry_2
Cr0 O2 2.031743 1_555
Cr0 O5 2.031743 1_555
In0 O2 2.173211 1_554
In0 O5 2.173211 1_445
In0 O3 2.250807 1_455
In0 O4 2.250807 1_545
In0 O0 2.250807 1_454
In0 O1 2.250807 1_544
In1 O5 2.188916 1_555
In1 O2 2.188916 1_554
In1 O4 2.238613 1_555
In1 O1 2.238613 1_554
In1 O0 2.244571 1_564
In1 O3 2.244571 1_455
In2 O5 2.188916 1_555
In2 O2 2.188916 1_554
In2 O0 2.238613 1_554
In2 O3 2.238613 1_555
In2 O4 2.244571 1_545
In2 O1 2.244571 1_654
O0 Ti1 1.952390 1_555
O1 Ti0 1.952390 1_555
O3 Ti1 1.952390 1_555
O4 Ti0 1.952390 1_555
