# generated using pymatgen
data_MgFe10(O4F)4
_symmetry_space_group_name_H-M   'P 1'
_cell_length_a   4.90998478
_cell_length_b   13.07760976
_cell_length_c   5.62424774
_cell_angle_alpha   103.67200371
_cell_angle_beta   93.05293871
_cell_angle_gamma   87.15981673
_symmetry_Int_Tables_number   1
_chemical_formula_structural   MgFe10(O4F)4
_chemical_formula_sum   'Mg1 Fe10 O16 F4'
_cell_volume   350.15251672
_cell_formula_units_Z   1
loop_
 _symmetry_equiv_pos_site_id
 _symmetry_equiv_pos_as_xyz
  1  'x, y, z'
loop_
 _atom_site_type_symbol
 _atom_site_label
 _atom_site_symmetry_multiplicity
 _atom_site_fract_x
 _atom_site_fract_y
 _atom_site_fract_z
 _atom_site_occupancy
  Mg  Mg0  1  0.32006572  0.43575376  0.68726268  1
  Fe  Fe0  1  0.49058603  0.99302896  0.49527606  1
  Fe  Fe1  1  0.53376709  0.42049441  0.25028684  1
  Fe  Fe2  1  0.42932894  0.19844361  0.89230675  1
  Fe  Fe3  1  0.56716754  0.62200123  0.68026138  1
  Fe  Fe4  1  0.55255549  0.80871642  0.08632755  1
  Fe  Fe5  1  0.89073067  0.36423888  0.80225136  1
  Fe  Fe6  1  0.02018351  0.80845348  0.61079984  1
  Fe  Fe7  1  0.98088645  0.18502413  0.40500628  1
  Fe  Fe8  1  0.00754810  0.60385367  0.21309667  1
  Fe  Fe9  1  0.02159776  0.99811369  0.00480600  1
  O  O0  1  0.74710627  0.23237472  0.70191665  1
  O  O1  1  0.83951400  0.87076637  0.92243579  1
  O  O2  1  0.84873708  0.67183878  0.52033925  1
  O  O3  1  0.81114342  0.05617297  0.30026944  1
  O  O4  1  0.81937779  0.46819168  0.10380385  1
  O  O5  1  0.68815003  0.46052296  0.61584818  1
  O  O6  1  0.72275770  0.67250873  0.01746777  1
  O  O7  1  0.70833662  0.86029762  0.41080003  1
  O  O8  1  0.30295726  0.35158418  0.95340713  1
  O  O9  1  0.34990605  0.75309210  0.78480565  1
  O  O10  1  0.28171230  0.12597496  0.57932818  1
  O  O11  1  0.33228767  0.93370271  0.17431268  1
  O  O12  1  0.30513572  0.53908701  0.41242375  1
  O  O13  1  0.15931939  0.13846768  0.08253942  1
  O  O14  1  0.18507091  0.94493582  0.68804551  1
  O  O15  1  0.10264166  0.32266824  0.49405241  1
  F  F0  1  0.66945534  0.05690689  0.82480459  1
  F  F1  1  0.64402412  0.26266387  0.21163451  1
  F  F2  1  0.22885266  0.56265340  0.91433599  1
  F  F3  1  0.21687969  0.74101008  0.29069981  1
loop_
_geom_bond_atom_site_label_1
_geom_bond_atom_site_label_2
_geom_bond_distance
_geom_bond_site_symmetry_2
Mg0 O5 1.931161 1_555
Mg0 O15 1.944428 1_555
Mg0 O8 2.064151 1_555
Mg0 O12 2.277385 1_555
Fe0 O11 1.926900 1_555
Fe0 O10 1.945367 1_565
Fe0 O7 1.965244 1_555
Fe0 O14 2.100078 1_555
Fe0 O3 2.258954 1_565
Fe1 O4 1.867371 1_555
Fe1 O12 1.940359 1_555
Fe1 O8 2.018104 1_554
Fe1 O5 2.107207 1_555
Fe2 O10 1.914575 1_555
Fe2 O8 2.021923 1_555
Fe2 O13 2.041652 1_556
Fe2 O0 2.061357 1_555
Fe3 O2 1.908916 1_555
Fe3 O9 1.957488 1_555
Fe3 O6 1.979957 1_556
Fe3 O12 2.063946 1_555
Fe3 O5 2.116731 1_555
Fe4 O6 1.892652 1_555
Fe4 O11 1.893585 1_555
Fe4 O7 1.921172 1_555
Fe4 O9 1.924548 1_554
Fe4 O1 2.024485 1_554
Fe5 O0 1.845977 1_555
Fe5 O4 1.942535 1_556
Fe5 O5 2.015639 1_555
Fe5 O15 2.018257 1_655
Fe5 O8 2.167218 1_655
Fe6 O14 1.941415 1_555
Fe6 O2 1.957836 1_455
Fe6 O1 1.985394 1_455
Fe6 O7 2.035587 1_455
Fe6 O9 2.037866 1_555
Fe7 O15 1.870025 1_655
Fe7 O3 1.870482 1_555
Fe7 O10 1.957004 1_655
Fe7 O13 2.005469 1_655
Fe7 O0 2.033345 1_555
Fe8 O2 1.932112 1_455
Fe8 O4 1.991339 1_455
Fe8 O6 2.037325 1_455
Fe8 O12 2.064192 1_555
Fe9 O1 1.877810 1_454
Fe9 O13 1.931218 1_565
Fe9 O14 1.952710 1_554
Fe9 O3 1.978486 1_465
Fe9 O11 2.010691 1_555
F0 Fe0 2.017796 1_545
F0 Fe2 2.111751 1_555
F0 Fe9 2.157621 1_646
F1 Fe2 2.053084 1_554
F1 Fe1 2.071305 1_555
F1 Fe7 2.261280 1_555
F2 Mg0 1.889721 1_555
F2 Fe8 2.000728 1_556
F2 Fe3 2.436918 1_555
F3 Fe8 2.056457 1_555
F3 Fe6 2.074116 1_555
F3 Fe4 2.376802 1_555
