# generated using pymatgen
data_DyCo5Si3
_symmetry_space_group_name_H-M   'P 1'
_cell_length_a   3.67528826
_cell_length_b   14.56437870
_cell_length_c   14.56427983
_cell_angle_alpha   119.99978361
_cell_angle_beta   90.00000000
_cell_angle_gamma   90.00000000
_symmetry_Int_Tables_number   1
_chemical_formula_structural   DyCo5Si3
_chemical_formula_sum   'Dy6 Co30 Si18'
_cell_volume   675.15573863
_cell_formula_units_Z   6
loop_
 _symmetry_equiv_pos_site_id
 _symmetry_equiv_pos_as_xyz
  1  'x, y, z'
loop_
 _atom_site_type_symbol
 _atom_site_label
 _atom_site_symmetry_multiplicity
 _atom_site_fract_x
 _atom_site_fract_y
 _atom_site_fract_z
 _atom_site_occupancy
  Dy  Dy0  1  0.75000000  0.70739887  0.10123750  1
  Dy  Dy1  1  0.25000000  0.29261896  0.89875955  1
  Dy  Dy2  1  0.75000000  0.39384672  0.29261594  1
  Dy  Dy3  1  0.25000000  0.60614632  0.70739128  1
  Dy  Dy4  1  0.75000000  0.89875891  0.60614187  1
  Dy  Dy5  1  0.25000000  0.10123524  0.39384429  1
  Co  Co0  1  0.75000000  0.58651809  0.85283022  1
  Co  Co1  1  0.25000000  0.41348291  0.14717899  1
  Co  Co2  1  0.75000000  0.26630278  0.41348089  1
  Co  Co3  1  0.25000000  0.73369056  0.58651580  1
  Co  Co4  1  0.75000000  0.14717449  0.73368742  1
  Co  Co5  1  0.25000000  0.85282248  0.26629593  1
  Co  Co6  1  0.75000000  0.45931515  0.53371094  1
  Co  Co7  1  0.25000000  0.54067598  0.46628216  1
  Co  Co8  1  0.75000000  0.07439202  0.54066809  1
  Co  Co9  1  0.25000000  0.92560404  0.45931054  1
  Co  Co10  1  0.75000000  0.46629058  0.92561394  1
  Co  Co11  1  0.25000000  0.53371948  0.07440116  1
  Co  Co12  1  0.75000000  0.90452892  0.03003448  1
  Co  Co13  1  0.25000000  0.09547589  0.96997714  1
  Co  Co14  1  0.75000000  0.12550916  0.09548233  1
  Co  Co15  1  0.25000000  0.87449531  0.90452702  1
  Co  Co16  1  0.75000000  0.96997505  0.87450562  1
  Co  Co17  1  0.25000000  0.03003574  0.12552191  1
  Co  Co18  1  0.75000000  0.77478832  0.34767521  1
  Co  Co19  1  0.25000000  0.22520906  0.65231016  1
  Co  Co20  1  0.75000000  0.57289651  0.22520886  1
  Co  Co21  1  0.25000000  0.42710965  0.77479405  1
  Co  Co22  1  0.75000000  0.65231634  0.42710766  1
  Co  Co23  1  0.25000000  0.34768405  0.57289695  1
  Co  Co24  1  0.75000000  0.95181920  0.21960768  1
  Co  Co25  1  0.25000000  0.04818558  0.78038710  1
  Co  Co26  1  0.75000000  0.26779666  0.04818858  1
  Co  Co27  1  0.25000000  0.73220305  0.95181822  1
  Co  Co28  1  0.75000000  0.78038478  0.73220838  1
  Co  Co29  1  0.25000000  0.21960859  0.26779803  1
  Si  Si0  1  0.75000000  0.44238335  0.68194999  1
  Si  Si1  1  0.25000000  0.55761357  0.31804885  1
  Si  Si2  1  0.75000000  0.23955816  0.55760681  1
  Si  Si3  1  0.25000000  0.76043039  0.44237758  1
  Si  Si4  1  0.75000000  0.31805470  0.76043444  1
  Si  Si5  1  0.25000000  0.68195256  0.23956092  1
  Si  Si6  1  0.75000000  0.75344863  0.87203581  1
  Si  Si7  1  0.25000000  0.24655463  0.12797609  1
  Si  Si8  1  0.75000000  0.11857922  0.24655421  1
  Si  Si9  1  0.25000000  0.88141439  0.75344849  1
  Si  Si10  1  0.75000000  0.12797552  0.88142292  1
  Si  Si11  1  0.25000000  0.87203611  0.11858212  1
  Si  Si12  1  0.75000000  0.93704073  0.36995717  1
  Si  Si13  1  0.25000000  0.06294756  0.63001271  1
  Si  Si14  1  0.75000000  0.43292766  0.06295969  1
  Si  Si15  1  0.25000000  0.56707560  0.93705489  1
  Si  Si16  1  0.75000000  0.63002353  0.56707152  1
  Si  Si17  1  0.25000000  0.36996720  0.43292492  1
loop_
_geom_bond_atom_site_label_1
_geom_bond_atom_site_label_2
_geom_bond_distance
_geom_bond_site_symmetry_2
Dy0 Si5 2.884344 1_655
Dy0 Si5 2.884344 1_555
Dy0 Si15 2.895628 1_654
Dy0 Si15 2.895628 1_554
Dy0 Si11 2.929959 1_655
Dy0 Si11 2.929959 1_555
Dy1 Si4 2.884290 1_555
Dy1 Si4 2.884290 1_455
Dy1 Si14 2.895686 1_556
Dy1 Si14 2.895686 1_456
Dy1 Si10 2.930067 1_555
Dy1 Si10 2.930067 1_455
Dy2 Si1 2.884381 1_655
Dy2 Si1 2.884381 1_555
Dy2 Si17 2.895598 1_655
Dy2 Si17 2.895598 1_555
Dy2 Si7 2.929971 1_555
Dy2 Si7 2.929971 1_655
Dy3 Si0 2.884303 1_555
Dy3 Si0 2.884303 1_455
Dy3 Si16 2.895702 1_555
Dy3 Si16 2.895702 1_455
Dy3 Si6 2.930050 1_555
Dy3 Si6 2.930050 1_455
Dy4 Si3 2.884337 1_555
Dy4 Si3 2.884337 1_655
Dy4 Si13 2.895650 1_565
Dy4 Si13 2.895650 1_665
Dy4 Si9 2.930104 1_655
Dy4 Si9 2.930104 1_555
Dy5 Si2 2.884301 1_455
Dy5 Si2 2.884301 1_555
Dy5 Si12 2.895646 1_445
Dy5 Si12 2.895646 1_545
Dy5 Si8 2.929913 1_455
Dy5 Si8 2.929913 1_555
Co0 Si6 2.304152 1_555
Co0 Si15 2.304169 1_555
Co0 Si15 2.304169 1_655
Co0 Si0 2.318667 1_555
Co0 Co10 2.458860 1_555
Co0 Co27 2.626502 1_655
Co0 Co27 2.626502 1_555
Co0 Co21 2.724006 1_555
Co0 Co21 2.724006 1_655
Co0 Dy3 2.924213 1_655
Co0 Dy3 2.924213 1_555
Co0 Dy0 3.133550 1_556
Co1 Si7 2.304135 1_555
Co1 Si14 2.304135 1_555
Co1 Si14 2.304135 1_455
Co1 Si1 2.318551 1_555
Co1 Co11 2.458915 1_555
Co1 Co26 2.626517 1_555
Co1 Co26 2.626517 1_455
Co1 Co20 2.724055 1_555
Co1 Co20 2.724055 1_455
Co1 Dy2 2.924244 1_455
Co1 Dy2 2.924244 1_555
Co1 Dy1 3.133709 1_554
Co2 Si8 2.304107 1_555
Co2 Si17 2.304147 1_555
Co2 Si17 2.304147 1_655
Co2 Si2 2.318520 1_555
Co2 Co6 2.458891 1_555
Co2 Co29 2.626477 1_655
Co2 Co29 2.626477 1_555
Co2 Co23 2.724068 1_555
Co2 Co23 2.724068 1_655
Co2 Dy5 2.924192 1_555
Co2 Dy5 2.924192 1_655
Co2 Dy2 3.133575 1_555
Co3 Si9 2.304160 1_555
Co3 Si16 2.304169 1_555
Co3 Si16 2.304169 1_455
Co3 Si3 2.318654 1_555
Co3 Co7 2.458924 1_555
Co3 Dy4 2.924250 1_455
Co3 Dy4 2.924250 1_555
Co3 Dy3 3.133711 1_555
Co4 Si13 2.304223 1_555
Co4 Si13 2.304223 1_655
Co4 Si10 2.304231 1_555
Co4 Si4 2.318664 1_555
Co4 Co8 2.458966 1_555
Co4 Dy1 2.924282 1_555
Co4 Dy1 2.924282 1_655
Co4 Dy4 3.133680 1_545
Co5 Si11 2.304042 1_555
Co5 Si12 2.304120 1_555
Co5 Si12 2.304120 1_455
Co5 Si5 2.318580 1_555
Co5 Co9 2.458904 1_555
Co5 Dy0 2.924095 1_555
Co5 Dy0 2.924095 1_455
Co5 Dy5 3.133645 1_565
Co6 Si16 2.282448 1_555
Co6 Si0 2.292265 1_555
Co6 Si17 2.305394 1_655
Co6 Si17 2.305394 1_555
Co6 Co7 2.628537 1_555
Co6 Co7 2.628537 1_655
Co6 Dy3 2.989863 1_655
Co6 Dy3 2.989863 1_555
Co6 Dy2 3.144969 1_555
Co7 Si17 2.282470 1_555
Co7 Si1 2.292231 1_555
Co7 Si16 2.305409 1_455
Co7 Si16 2.305409 1_555
Co7 Dy2 2.989755 1_455
Co7 Dy2 2.989755 1_555
Co7 Dy3 3.145161 1_555
Co8 Si12 2.282482 1_545
Co8 Si2 2.292172 1_555
Co8 Si13 2.305393 1_555
Co8 Si13 2.305393 1_655
Co8 Co9 2.628530 1_645
Co8 Co9 2.628530 1_545
Co8 Dy5 2.989727 1_655
Co8 Dy5 2.989727 1_555
Co8 Dy4 3.145129 1_545
Co9 Si13 2.282362 1_565
Co9 Si3 2.292315 1_555
Co9 Si12 2.305429 1_455
Co9 Si12 2.305429 1_555
Co9 Dy4 2.989826 1_555
Co9 Dy4 2.989826 1_455
Co9 Dy5 3.145024 1_565
Co10 Si14 2.282423 1_556
Co10 Si4 2.292332 1_555
Co10 Si15 2.305376 1_655
Co10 Si15 2.305376 1_555
Co10 Co11 2.628514 1_556
Co10 Co11 2.628514 1_656
Co10 Co21 2.697052 1_655
Co10 Co21 2.697052 1_555
Co10 Dy1 2.989746 1_655
Co10 Dy1 2.989746 1_555
Co10 Dy0 3.145120 1_556
Co11 Si15 2.282366 1_554
Co11 Si5 2.292149 1_555
Co11 Si14 2.305434 1_455
Co11 Si14 2.305434 1_555
Co11 Co20 2.696937 1_455
Co11 Co20 2.696937 1_555
Co11 Dy0 2.989911 1_555
Co11 Dy0 2.989911 1_455
Co11 Dy1 3.145107 1_554
Co12 Si6 2.252461 1_554
Co12 Si11 2.423704 1_655
Co12 Si11 2.423704 1_555
Co12 Co15 2.471845 1_654
Co12 Co15 2.471845 1_554
Co12 Co17 2.471887 1_565
Co12 Co17 2.471887 1_665
Co12 Co24 2.489147 1_555
Co13 Si7 2.252453 1_556
Co13 Si10 2.423810 1_455
Co13 Si10 2.423810 1_555
Co13 Co16 2.471803 1_545
Co13 Co16 2.471803 1_445
Co13 Co14 2.471824 1_456
Co13 Co14 2.471824 1_556
Co13 Co25 2.489385 1_555
Co14 Si8 2.252415 1_555
Co14 Si7 2.423756 1_555
Co14 Si7 2.423756 1_655
Co14 Co17 2.471886 1_555
Co14 Co17 2.471886 1_655
Co14 Co26 2.489257 1_555
Co15 Si9 2.252427 1_555
Co15 Si6 2.423773 1_555
Co15 Si6 2.423773 1_455
Co15 Co16 2.471824 1_455
Co15 Co16 2.471824 1_555
Co15 Co27 2.489299 1_555
Co16 Si10 2.252497 1_565
Co16 Si9 2.423852 1_655
Co16 Si9 2.423852 1_555
Co16 Co28 2.489396 1_555
Co17 Si11 2.252332 1_545
Co17 Si8 2.423643 1_455
Co17 Si8 2.423643 1_555
Co17 Co29 2.489135 1_555
Co18 Si12 2.218718 1_555
Co18 Si5 2.357006 1_655
Co18 Si5 2.357006 1_555
Co18 Si3 2.368856 1_555
Co18 Si3 2.368856 1_655
Co18 Co9 2.697021 1_555
Co18 Co9 2.697021 1_655
Co18 Co5 2.724043 1_655
Co18 Co5 2.724043 1_555
Co18 Dy0 3.212922 1_555
Co18 Dy4 3.260957 1_555
Co19 Si13 2.218762 1_555
Co19 Si4 2.357096 1_555
Co19 Si4 2.357096 1_455
Co19 Si2 2.368816 1_455
Co19 Si2 2.368816 1_555
Co19 Co8 2.697050 1_455
Co19 Co8 2.697050 1_555
Co19 Co4 2.724028 1_455
Co19 Co4 2.724028 1_555
Co19 Dy1 3.213011 1_555
Co19 Dy5 3.260946 1_555
Co20 Si14 2.218676 1_555
Co20 Si1 2.357064 1_555
Co20 Si1 2.357064 1_655
Co20 Si5 2.368845 1_555
Co20 Si5 2.368845 1_655
Co20 Dy2 3.213139 1_555
Co20 Dy0 3.261048 1_555
Co21 Si15 2.218763 1_555
Co21 Si0 2.357050 1_555
Co21 Si0 2.357050 1_455
Co21 Si4 2.368808 1_555
Co21 Si4 2.368808 1_455
Co21 Dy3 3.212910 1_555
Co21 Dy1 3.260826 1_555
Co22 Si16 2.218702 1_555
Co22 Si3 2.357036 1_555
Co22 Si3 2.357036 1_655
Co22 Si1 2.368854 1_555
Co22 Si1 2.368854 1_655
Co22 Co7 2.697024 1_655
Co22 Co7 2.697024 1_555
Co22 Co3 2.723994 1_655
Co22 Co3 2.723994 1_555
Co22 Dy4 3.212946 1_555
Co22 Dy2 3.261015 1_555
Co23 Si17 2.218735 1_555
Co23 Si2 2.357073 1_455
Co23 Si2 2.357073 1_555
Co23 Si0 2.368810 1_555
Co23 Si0 2.368810 1_455
Co23 Co6 2.697014 1_455
Co23 Co6 2.697014 1_555
Co23 Dy5 3.213079 1_555
Co23 Dy3 3.260924 1_555
Co24 Si8 2.258252 1_565
Co24 Si11 2.276482 1_655
Co24 Si11 2.276482 1_555
Co24 Si12 2.304901 1_555
Co24 Co5 2.626515 1_655
Co24 Co5 2.626515 1_555
Co24 Dy5 3.004981 1_565
Co24 Dy5 3.004981 1_665
Co24 Dy0 3.083417 1_555
Co25 Si9 2.258455 1_545
Co25 Si10 2.276559 1_455
Co25 Si10 2.276559 1_555
Co25 Si13 2.305126 1_555
Co25 Co4 2.626526 1_455
Co25 Co4 2.626526 1_555
Co25 Dy4 3.005088 1_445
Co25 Dy4 3.005088 1_545
Co25 Dy1 3.083583 1_555
Co26 Si10 2.258339 1_554
Co26 Si7 2.276513 1_555
Co26 Si7 2.276513 1_655
Co26 Si14 2.305008 1_555
Co26 Dy1 3.005131 1_554
Co26 Dy1 3.005131 1_654
Co26 Dy2 3.083485 1_555
Co27 Si11 2.258386 1_556
Co27 Si6 2.276491 1_455
Co27 Si6 2.276491 1_555
Co27 Si15 2.305005 1_555
Co27 Dy0 3.004892 1_556
Co27 Dy0 3.004892 1_456
Co27 Dy3 3.083481 1_555
Co28 Si6 2.258341 1_555
Co28 Si9 2.276525 1_655
Co28 Si9 2.276525 1_555
Co28 Si16 2.305061 1_555
Co28 Co3 2.626573 1_555
Co28 Co3 2.626573 1_655
Co28 Dy3 3.005021 1_655
Co28 Dy3 3.005021 1_555
Co28 Dy4 3.083654 1_555
Co29 Si7 2.258352 1_555
Co29 Si8 2.276513 1_555
Co29 Si8 2.276513 1_455
Co29 Si17 2.304962 1_555
Co29 Dy2 3.005014 1_555
Co29 Dy2 3.005014 1_455
Co29 Dy5 3.083386 1_555
Si0 Si4 2.579790 1_555
Si0 Si2 2.579971 1_555
Si1 Si3 2.579847 1_555
Si1 Si5 2.579969 1_555
Si2 Si4 2.579957 1_555
Si3 Si5 2.579845 1_555
