# generated using pymatgen
data_CuTeSeBr
_symmetry_space_group_name_H-M   'P 1'
_cell_length_a   4.99632500
_cell_length_b   8.18787700
_cell_length_c   12.48518373
_cell_angle_alpha   63.94114709
_cell_angle_beta   90.00000000
_cell_angle_gamma   90.00000000
_symmetry_Int_Tables_number   1
_chemical_formula_structural   CuTeSeBr
_chemical_formula_sum   'Cu4 Te4 Se4 Br4'
_cell_volume   458.83787042
_cell_formula_units_Z   4
loop_
 _symmetry_equiv_pos_site_id
 _symmetry_equiv_pos_as_xyz
  1  'x, y, z'
loop_
 _atom_site_type_symbol
 _atom_site_label
 _atom_site_symmetry_multiplicity
 _atom_site_fract_x
 _atom_site_fract_y
 _atom_site_fract_z
 _atom_site_occupancy
  Cu  Cu0  1  0.86672800  0.81160000  0.25002200  1
  Cu  Cu1  1  0.13327200  0.18840000  0.74997800  1
  Cu  Cu2  1  0.36672800  0.18840000  0.24997800  1
  Cu  Cu3  1  0.63327200  0.81160000  0.75002200  1
  Te  Te0  1  0.51041700  0.71648600  0.14424900  1
  Te  Te1  1  0.48958300  0.28351400  0.85575100  1
  Te  Te2  1  0.01041700  0.28351400  0.35575100  1
  Te  Te3  1  0.98958300  0.71648600  0.64424900  1
  Se  Se0  1  0.70389000  0.41806500  0.15897200  1
  Se  Se1  1  0.29611000  0.58193500  0.84102800  1
  Se  Se2  1  0.20389000  0.58193500  0.34102800  1
  Se  Se3  1  0.79611000  0.41806500  0.65897200  1
  Br  Br0  1  0.64253200  0.91552800  0.38482800  1
  Br  Br1  1  0.35746800  0.08447200  0.61517200  1
  Br  Br2  1  0.14253200  0.08447200  0.11517200  1
  Br  Br3  1  0.85746800  0.91552800  0.88482800  1
loop_
_geom_bond_atom_site_label_1
_geom_bond_atom_site_label_2
_geom_bond_distance
_geom_bond_site_symmetry_2
Cu0 Se2 2.405770 1_655
Cu0 Te0 2.534430 1_555
Cu1 Se3 2.405770 1_455
Cu1 Te1 2.534430 1_555
Cu2 Se0 2.405770 1_555
Cu2 Te2 2.534430 1_555
Cu3 Se1 2.405770 1_555
Cu3 Te3 2.534430 1_555
Se0 Te0 2.558117 1_555
Se0 Te2 2.686480 1_655
Se1 Te1 2.558117 1_555
Se1 Te3 2.686480 1_455
Se2 Te2 2.558117 1_555
Se2 Te0 2.686480 1_555
Se3 Te3 2.558117 1_555
Se3 Te1 2.686480 1_555
Br0 Cu0 2.463725 1_555
Br0 Cu2 2.533854 1_565
Br1 Cu1 2.463725 1_555
Br1 Cu3 2.533854 1_545
Br2 Cu2 2.463725 1_555
Br2 Cu0 2.533854 1_445
Br3 Cu3 2.463725 1_555
Br3 Cu1 2.533854 1_665
