# generated using pymatgen
data_Ba4Cu8P15
_symmetry_space_group_name_H-M   'P 1'
_cell_length_a   10.16877340
_cell_length_b   14.20878542
_cell_length_c   28.20581212
_cell_angle_alpha   90.00000000
_cell_angle_beta   90.00000000
_cell_angle_gamma   90.00000000
_symmetry_Int_Tables_number   1
_chemical_formula_structural   Ba4Cu8P15
_chemical_formula_sum   'Ba32 Cu64 P120'
_cell_volume   4075.34269165
_cell_formula_units_Z   8
loop_
 _symmetry_equiv_pos_site_id
 _symmetry_equiv_pos_as_xyz
  1  'x, y, z'
loop_
 _atom_site_type_symbol
 _atom_site_label
 _atom_site_symmetry_multiplicity
 _atom_site_fract_x
 _atom_site_fract_y
 _atom_site_fract_z
 _atom_site_occupancy
  Ba  Ba0  1  0.50000000  -0.00000000  0.50000000  1
  Ba  Ba1  1  -0.00000000  0.50000000  -0.00000000  1
  Ba  Ba2  1  -0.00000000  0.50000000  0.50000000  1
  Ba  Ba3  1  0.50000000  -0.00000000  -0.00000000  1
  Ba  Ba4  1  0.00520428  -0.00000000  0.25000000  1
  Ba  Ba5  1  0.49479572  0.50000000  0.75000000  1
  Ba  Ba6  1  0.99479572  -0.00000000  0.75000000  1
  Ba  Ba7  1  0.50520428  0.50000000  0.25000000  1
  Ba  Ba8  1  0.99114262  0.62178016  0.31502385  1
  Ba  Ba9  1  0.50885738  0.87821984  0.81502385  1
  Ba  Ba10  1  0.50885738  0.12178016  0.68497615  1
  Ba  Ba11  1  0.99114262  0.37821984  0.18497615  1
  Ba  Ba12  1  0.00885738  0.37821984  0.68497615  1
  Ba  Ba13  1  0.49114262  0.12178016  0.18497615  1
  Ba  Ba14  1  0.49114262  0.87821984  0.31502385  1
  Ba  Ba15  1  0.00885738  0.62178016  0.81502385  1
  Ba  Ba16  1  0.00858597  0.87444204  0.44107642  1
  Ba  Ba17  1  0.49141403  0.62555796  0.94107642  1
  Ba  Ba18  1  0.49141403  0.37444204  0.55892358  1
  Ba  Ba19  1  0.00858597  0.12555796  0.05892358  1
  Ba  Ba20  1  0.99141403  0.12555796  0.55892358  1
  Ba  Ba21  1  0.50858597  0.37444204  0.05892358  1
  Ba  Ba22  1  0.50858597  0.62555796  0.44107642  1
  Ba  Ba23  1  0.99141403  0.87444204  0.94107642  1
  Ba  Ba24  1  0.25355482  0.75065108  0.12390174  1
  Ba  Ba25  1  0.24644518  0.74934892  0.62390174  1
  Ba  Ba26  1  0.24644518  0.25065108  0.87609826  1
  Ba  Ba27  1  0.25355482  0.24934892  0.37609826  1
  Ba  Ba28  1  0.74644518  0.24934892  0.87609826  1
  Ba  Ba29  1  0.75355482  0.25065108  0.37609826  1
  Ba  Ba30  1  0.75355482  0.74934892  0.12390174  1
  Ba  Ba31  1  0.74644518  0.75065108  0.62390174  1
  Cu  Cu0  1  0.18482218  0.81353042  0.24941151  1
  Cu  Cu1  1  0.31517782  0.68646958  0.74941151  1
  Cu  Cu2  1  0.31517782  0.31353042  0.75058849  1
  Cu  Cu3  1  0.18482218  0.18646958  0.25058849  1
  Cu  Cu4  1  0.81517782  0.18646958  0.75058849  1
  Cu  Cu5  1  0.68482218  0.31353042  0.25058849  1
  Cu  Cu6  1  0.68482218  0.68646958  0.24941151  1
  Cu  Cu7  1  0.81517782  0.81353042  0.74941151  1
  Cu  Cu8  1  0.31929867  0.99864653  0.40700511  1
  Cu  Cu9  1  0.18070133  0.50135347  0.90700511  1
  Cu  Cu10  1  0.18070133  0.49864653  0.59299489  1
  Cu  Cu11  1  0.31929867  0.00135347  0.09299489  1
  Cu  Cu12  1  0.68070133  0.00135347  0.59299489  1
  Cu  Cu13  1  0.81929867  0.49864653  0.09299489  1
  Cu  Cu14  1  0.81929867  0.50135347  0.40700511  1
  Cu  Cu15  1  0.68070133  0.99864653  0.90700511  1
  Cu  Cu16  1  0.00541107  0.28341566  0.45436905  1
  Cu  Cu17  1  0.49458893  0.21658434  0.95436905  1
  Cu  Cu18  1  0.49458893  0.78341566  0.54563095  1
  Cu  Cu19  1  0.00541107  0.71658434  0.04563095  1
  Cu  Cu20  1  0.99458893  0.71658434  0.54563095  1
  Cu  Cu21  1  0.50541107  0.78341566  0.04563095  1
  Cu  Cu22  1  0.50541107  0.21658434  0.45436905  1
  Cu  Cu23  1  0.99458893  0.28341566  0.95436905  1
  Cu  Cu24  1  0.00315968  0.09299132  0.35711346  1
  Cu  Cu25  1  0.49684032  0.40700868  0.85711346  1
  Cu  Cu26  1  0.49684032  0.59299132  0.64288654  1
  Cu  Cu27  1  0.00315968  0.90700868  0.14288654  1
  Cu  Cu28  1  0.99684032  0.90700868  0.64288654  1
  Cu  Cu29  1  0.50315968  0.59299132  0.14288654  1
  Cu  Cu30  1  0.50315968  0.40700868  0.35711346  1
  Cu  Cu31  1  0.99684032  0.09299132  0.85711346  1
  Cu  Cu32  1  0.99916006  0.62243355  0.18931520  1
  Cu  Cu33  1  0.50083994  0.87756645  0.68931520  1
  Cu  Cu34  1  0.50083994  0.12243355  0.81068480  1
  Cu  Cu35  1  0.99916006  0.37756645  0.31068480  1
  Cu  Cu36  1  0.00083994  0.37756645  0.81068480  1
  Cu  Cu37  1  0.49916006  0.12243355  0.31068480  1
  Cu  Cu38  1  0.49916006  0.87756645  0.18931520  1
  Cu  Cu39  1  0.00083994  0.62243355  0.68931520  1
  Cu  Cu40  1  0.31190109  0.44377821  0.46783175  1
  Cu  Cu41  1  0.18809891  0.05622179  0.96783175  1
  Cu  Cu42  1  0.18809891  0.94377821  0.53216825  1
  Cu  Cu43  1  0.31190109  0.55622179  0.03216825  1
  Cu  Cu44  1  0.68809891  0.55622179  0.53216825  1
  Cu  Cu45  1  0.81190109  0.94377821  0.03216825  1
  Cu  Cu46  1  0.81190109  0.05622179  0.46783175  1
  Cu  Cu47  1  0.68809891  0.44377821  0.96783175  1
  Cu  Cu48  1  0.38025575  0.34792584  0.17270893  1
  Cu  Cu49  1  0.11974425  0.15207416  0.67270893  1
  Cu  Cu50  1  0.11974425  0.84792584  0.82729107  1
  Cu  Cu51  1  0.38025575  0.65207416  0.32729107  1
  Cu  Cu52  1  0.61974425  0.65207416  0.82729107  1
  Cu  Cu53  1  0.88025575  0.84792584  0.32729107  1
  Cu  Cu54  1  0.88025575  0.15207416  0.17270893  1
  Cu  Cu55  1  0.61974425  0.34792584  0.67270893  1
  Cu  Cu56  1  0.62083291  0.84308703  0.42217049  1
  Cu  Cu57  1  0.87916709  0.65691297  0.92217049  1
  Cu  Cu58  1  0.87916709  0.34308703  0.57782951  1
  Cu  Cu59  1  0.62083291  0.15691297  0.07782951  1
  Cu  Cu60  1  0.37916709  0.15691297  0.57782951  1
  Cu  Cu61  1  0.12083291  0.34308703  0.07782951  1
  Cu  Cu62  1  0.12083291  0.65691297  0.42217049  1
  Cu  Cu63  1  0.37916709  0.84308703  0.92217049  1
  P  P0  1  0.00456737  0.40388519  0.39283152  1
  P  P1  1  0.49543263  0.09611481  0.89283152  1
  P  P2  1  0.49543263  0.90388519  0.60716848  1
  P  P3  1  0.00456737  0.59611481  0.10716848  1
  P  P4  1  0.99543263  0.59611481  0.60716848  1
  P  P5  1  0.50456737  0.90388519  0.10716848  1
  P  P6  1  0.50456737  0.09611481  0.39283152  1
  P  P7  1  0.99543263  0.40388519  0.89283152  1
  P  P8  1  0.25548946  0.75146030  0.37551155  1
  P  P9  1  0.24451054  0.74853970  0.87551155  1
  P  P10  1  0.24451054  0.25146030  0.62448845  1
  P  P11  1  0.25548946  0.24853970  0.12448845  1
  P  P12  1  0.74451054  0.24853970  0.62448845  1
  P  P13  1  0.75548946  0.25146030  0.12448845  1
  P  P14  1  0.75548946  0.74853970  0.37551155  1
  P  P15  1  0.74451054  0.75146030  0.87551155  1
  P  P16  1  0.19204228  0.31464031  0.50060567  1
  P  P17  1  0.30795772  0.18535969  0.00060567  1
  P  P18  1  0.30795772  0.81464031  0.49939433  1
  P  P19  1  0.19204228  0.68535969  0.99939433  1
  P  P20  1  0.80795772  0.68535969  0.49939433  1
  P  P21  1  0.69204228  0.81464031  0.99939433  1
  P  P22  1  0.69204228  0.18535969  0.50060567  1
  P  P23  1  0.80795772  0.31464031  0.00060567  1
  P  P24  1  0.18700734  0.99547651  0.34248479  1
  P  P25  1  0.31299266  0.50452349  0.84248479  1
  P  P26  1  0.31299266  0.49547651  0.65751521  1
  P  P27  1  0.18700734  0.00452349  0.15751521  1
  P  P28  1  0.81299266  0.00452349  0.65751521  1
  P  P29  1  0.68700734  0.49547651  0.15751521  1
  P  P30  1  0.68700734  0.50452349  0.34248479  1
  P  P31  1  0.81299266  0.99547651  0.84248479  1
  P  P32  1  0.69456109  0.43687384  0.47013068  1
  P  P33  1  0.80543891  0.06312616  0.97013068  1
  P  P34  1  0.80543891  0.93687384  0.52986932  1
  P  P35  1  0.69456109  0.56312616  0.02986932  1
  P  P36  1  0.30543891  0.56312616  0.52986932  1
  P  P37  1  0.19456109  0.93687384  0.02986932  1
  P  P38  1  0.19456109  0.06312616  0.47013068  1
  P  P39  1  0.30543891  0.43687384  0.97013068  1
  P  P40  1  0.37848800  0.84170815  0.42304651  1
  P  P41  1  0.12151200  0.65829185  0.92304651  1
  P  P42  1  0.12151200  0.34170815  0.57695349  1
  P  P43  1  0.37848800  0.15829185  0.07695349  1
  P  P44  1  0.62151200  0.15829185  0.57695349  1
  P  P45  1  0.87848800  0.34170815  0.07695349  1
  P  P46  1  0.87848800  0.65829185  0.42304651  1
  P  P47  1  0.62151200  0.84170815  0.92304651  1
  P  P48  1  0.00974101  0.87717653  0.06130268  1
  P  P49  1  0.49025899  0.62282347  0.56130268  1
  P  P50  1  0.49025899  0.37717653  0.93869732  1
  P  P51  1  0.00974101  0.12282347  0.43869732  1
  P  P52  1  0.99025899  0.12282347  0.93869732  1
  P  P53  1  0.50974101  0.37717653  0.43869732  1
  P  P54  1  0.50974101  0.62282347  0.06130268  1
  P  P55  1  0.99025899  0.87717653  0.56130268  1
  P  P56  1  0.80614948  0.44499853  0.27854391  1
  P  P57  1  0.69385052  0.05500147  0.77854391  1
  P  P58  1  0.69385052  0.94499853  0.72145609  1
  P  P59  1  0.80614948  0.55500147  0.22145609  1
  P  P60  1  0.19385052  0.55500147  0.72145609  1
  P  P61  1  0.30614948  0.94499853  0.22145609  1
  P  P62  1  0.30614948  0.05500147  0.27854391  1
  P  P63  1  0.19385052  0.44499853  0.77854391  1
  P  P64  1  0.99745487  0.78782058  0.20234690  1
  P  P65  1  0.50254513  0.71217942  0.70234690  1
  P  P66  1  0.50254513  0.28782058  0.79765310  1
  P  P67  1  0.99745487  0.21217942  0.29765310  1
  P  P68  1  0.00254513  0.21217942  0.79765310  1
  P  P69  1  0.49745487  0.28782058  0.29765310  1
  P  P70  1  0.49745487  0.71217942  0.20234690  1
  P  P71  1  0.00254513  0.78782058  0.70234690  1
  P  P72  1  0.69952552  0.93613975  0.21794257  1
  P  P73  1  0.80047448  0.56386025  0.71794257  1
  P  P74  1  0.80047448  0.43613975  0.78205743  1
  P  P75  1  0.69952552  0.06386025  0.28205743  1
  P  P76  1  0.30047448  0.06386025  0.78205743  1
  P  P77  1  0.19952552  0.43613975  0.28205743  1
  P  P78  1  0.19952552  0.56386025  0.21794257  1
  P  P79  1  0.30047448  0.93613975  0.71794257  1
  P  P80  1  0.68665188  0.81205213  0.50023449  1
  P  P81  1  0.81334812  0.68794787  0.00023449  1
  P  P82  1  0.81334812  0.31205213  0.49976551  1
  P  P83  1  0.68665188  0.18794787  0.99976551  1
  P  P84  1  0.31334812  0.18794787  0.49976551  1
  P  P85  1  0.18665188  0.31205213  0.99976551  1
  P  P86  1  0.18665188  0.68794787  0.50023449  1
  P  P87  1  0.31334812  0.81205213  0.00023449  1
  P  P88  1  0.17793475  0.50002154  0.40450254  1
  P  P89  1  0.32206525  0.99997846  0.90450254  1
  P  P90  1  0.32206525  0.00002154  0.59549746  1
  P  P91  1  0.17793475  0.49997846  0.09549746  1
  P  P92  1  0.82206525  0.49997846  0.59549746  1
  P  P93  1  0.67793475  0.00002154  0.09549746  1
  P  P94  1  0.67793475  0.99997846  0.40450254  1
  P  P95  1  0.82206525  0.50002154  0.90450254  1
  P  P96  1  0.82187863  0.81398429  0.24813035  1
  P  P97  1  0.67812137  0.68601571  0.74813035  1
  P  P98  1  0.67812137  0.31398429  0.75186965  1
  P  P99  1  0.82187863  0.18601571  0.25186965  1
  P  P100  1  0.17812137  0.18601571  0.75186965  1
  P  P101  1  0.32187863  0.31398429  0.25186965  1
  P  P102  1  0.32187863  0.68601571  0.24813035  1
  P  P103  1  0.17812137  0.81398429  0.74813035  1
  P  P104  1  0.31283826  0.50444223  0.15777972  1
  P  P105  1  0.18716174  0.99555777  0.65777972  1
  P  P106  1  0.18716174  0.00444223  0.84222028  1
  P  P107  1  0.31283826  0.49555777  0.34222028  1
  P  P108  1  0.68716174  0.49555777  0.84222028  1
  P  P109  1  0.81283826  0.00444223  0.34222028  1
  P  P110  1  0.81283826  0.99555777  0.15777972  1
  P  P111  1  0.68716174  0.50444223  0.65777972  1
  P  P112  1  0.12505052  0.84908003  0.32764662  1
  P  P113  1  0.37494948  0.65091997  0.82764662  1
  P  P114  1  0.37494948  0.34908003  0.67235338  1
  P  P115  1  0.12505052  0.15091997  0.17235338  1
  P  P116  1  0.87494948  0.15091997  0.67235338  1
  P  P117  1  0.62505052  0.34908003  0.17235338  1
  P  P118  1  0.62505052  0.65091997  0.32764662  1
  P  P119  1  0.87494948  0.84908003  0.82764662  1
loop_
_geom_bond_atom_site_label_1
_geom_bond_atom_site_label_2
_geom_bond_distance
_geom_bond_site_symmetry_2
Ba0 Cu8 3.202644 1_545
Ba0 Cu12 3.202644 1_555
Ba0 P94 3.244879 1_545
Ba0 P90 3.244879 1_555
Ba0 P84 3.276302 1_555
Ba0 P80 3.276302 1_545
Ba0 P18 3.278783 1_545
Ba0 P22 3.278783 1_555
Ba0 P6 3.317286 1_555
Ba0 P2 3.317286 1_545
Ba0 Cu18 3.336156 1_545
Ba0 Cu22 3.336156 1_555
Ba0 P38 3.340832 1_555
Ba0 P34 3.340832 1_545
Ba0 P44 3.361043 1_555
Ba0 P40 3.361043 1_545
Ba0 Cu56 3.361505 1_545
Ba0 Cu60 3.361505 1_555
Ba0 Cu46 3.394227 1_555
Ba0 Cu42 3.394227 1_545
Ba1 Cu13 3.202644 1_455
Ba1 Cu9 3.202644 1_554
Ba1 P91 3.244879 1_555
Ba1 P95 3.244879 1_454
Ba1 P81 3.276302 1_455
Ba1 P85 3.276302 1_554
Ba1 P19 3.278783 1_554
Ba1 P23 3.278783 1_455
Ba1 P7 3.317286 1_454
Ba1 P3 3.317286 1_555
Ba1 Cu23 3.336156 1_454
Ba1 Cu19 3.336156 1_555
Ba1 P39 3.340832 1_554
Ba1 P35 3.340832 1_455
Ba1 P41 3.361043 1_554
Ba1 P45 3.361043 1_455
Ba1 Cu61 3.361505 1_555
Ba1 Cu57 3.361505 1_454
Ba1 Cu43 3.394227 1_555
Ba1 Cu47 3.394227 1_454
Ba2 Cu14 3.202644 1_455
Ba2 Cu10 3.202644 1_555
Ba2 P88 3.244879 1_555
Ba2 P92 3.244879 1_455
Ba2 P86 3.276302 1_555
Ba2 P82 3.276302 1_455
Ba2 P20 3.278783 1_455
Ba2 P16 3.278783 1_555
Ba2 P4 3.317286 1_455
Ba2 P0 3.317286 1_555
Ba2 Cu16 3.336156 1_555
Ba2 Cu20 3.336156 1_455
Ba2 P32 3.340832 1_455
Ba2 P36 3.340832 1_555
Ba2 P42 3.361043 1_555
Ba2 P46 3.361043 1_455
Ba2 Cu62 3.361505 1_555
Ba2 Cu58 3.361505 1_455
Ba2 Cu40 3.394227 1_555
Ba2 Cu44 3.394227 1_455
Ba3 Cu11 3.202644 1_555
Ba3 Cu15 3.202644 1_544
Ba3 P93 3.244879 1_555
Ba3 P89 3.244879 1_544
Ba3 P83 3.276302 1_554
Ba3 P87 3.276302 1_545
Ba3 P21 3.278783 1_544
Ba3 P17 3.278783 1_555
Ba3 P5 3.317286 1_545
Ba3 P1 3.317286 1_554
Ba3 Cu17 3.336156 1_554
Ba3 Cu21 3.336156 1_545
Ba3 P33 3.340832 1_554
Ba3 P37 3.340832 1_545
Ba3 P47 3.361043 1_544
Ba3 P43 3.361043 1_555
Ba3 Cu59 3.361505 1_555
Ba3 Cu63 3.361505 1_544
Ba3 Cu45 3.394227 1_545
Ba3 Cu41 3.394227 1_554
Ba4 P24 3.197923 1_545
Ba4 P27 3.197923 1_555
Ba4 Cu3 3.218111 1_555
Ba4 Cu0 3.218111 1_545
Ba4 P96 3.234774 1_445
Ba4 P99 3.234774 1_455
Ba4 P109 3.255209 1_455
Ba4 P110 3.255209 1_445
Ba4 P62 3.259453 1_555
Ba4 P61 3.259453 1_545
Ba4 Cu27 3.297580 1_545
Ba4 Cu24 3.297580 1_555
Ba4 P115 3.298498 1_555
Ba4 P112 3.298498 1_545
Ba4 P64 3.301801 1_445
Ba4 P67 3.301801 1_455
Ba4 Cu53 3.322050 1_445
Ba4 Cu54 3.322050 1_455
Ba4 P72 3.361984 1_445
Ba4 P75 3.361984 1_455
Ba5 P25 3.197923 1_555
Ba5 P26 3.197923 1_555
Ba5 Cu2 3.218111 1_555
Ba5 Cu1 3.218111 1_555
Ba5 P97 3.234774 1_555
Ba5 P98 3.234774 1_555
Ba5 P111 3.255209 1_555
Ba5 P108 3.255209 1_555
Ba5 P60 3.259453 1_555
Ba5 P63 3.259453 1_555
Ba5 Cu25 3.297580 1_555
Ba5 Cu26 3.297580 1_555
Ba5 P114 3.298498 1_555
Ba5 P113 3.298498 1_555
Ba5 P65 3.301801 1_555
Ba5 P66 3.301801 1_555
Ba5 Cu52 3.322050 1_555
Ba5 Cu55 3.322050 1_555
Ba5 P73 3.361984 1_555
Ba5 P74 3.361984 1_555
Ba6 P31 3.197923 1_545
Ba6 P28 3.197923 1_555
Ba6 Cu4 3.218111 1_555
Ba6 Cu7 3.218111 1_545
Ba6 P103 3.234774 1_645
Ba6 P100 3.234774 1_655
Ba6 P106 3.255209 1_655
Ba6 P105 3.255209 1_645
Ba6 P58 3.259453 1_545
Ba6 P57 3.259453 1_555
Ba6 Cu28 3.297580 1_545
Ba6 Cu31 3.297580 1_555
Ba6 P116 3.298498 1_555
Ba6 P119 3.298498 1_545
Ba6 P68 3.301801 1_655
Ba6 P71 3.301801 1_645
Ba6 Cu50 3.322050 1_645
Ba6 Cu49 3.322050 1_655
Ba6 P79 3.361984 1_645
Ba6 P76 3.361984 1_655
Ba7 P30 3.197923 1_555
Ba7 P29 3.197923 1_555
Ba7 Cu6 3.218111 1_555
Ba7 Cu5 3.218111 1_555
Ba7 P102 3.234774 1_555
Ba7 P101 3.234774 1_555
Ba7 P107 3.255209 1_555
Ba7 P104 3.255209 1_555
Ba7 P59 3.259453 1_555
Ba7 P56 3.259453 1_555
Ba7 Cu29 3.297580 1_555
Ba7 Cu30 3.297580 1_555
Ba7 P117 3.298498 1_555
Ba7 P118 3.298498 1_555
Ba7 P70 3.301801 1_555
Ba7 P69 3.301801 1_555
Ba7 Cu51 3.322050 1_555
Ba7 Cu48 3.322050 1_555
Ba7 P78 3.361984 1_555
Ba7 P77 3.361984 1_555
Ba8 P46 3.296186 1_555
Ba8 P56 3.302555 1_555
Ba8 Cu62 3.334943 1_655
Ba8 P59 3.377008 1_555
Ba8 Cu53 3.422890 1_555
Ba8 P14 3.449206 1_555
Ba8 Cu35 3.473095 1_555
Ba8 P77 3.508897 1_655
Ba8 P112 3.523011 1_655
Ba8 Cu32 3.546664 1_555
Ba8 P78 3.558860 1_655
Ba8 Cu14 3.565448 1_555
Ba8 P30 3.597281 1_555
Ba8 P88 3.601473 1_655
Ba8 P8 3.678553 1_655
Ba8 Cu6 3.737964 1_555
Ba8 P96 3.739091 1_555
Ba8 P118 3.762545 1_555
Ba8 P0 3.797419 1_655
Ba8 P107 3.808679 1_655
Ba8 Cu0 3.837561 1_655
Ba8 P64 3.958624 1_555
Ba8 P102 3.962824 1_655
Ba8 Cu51 3.995159 1_655
Ba9 P47 3.296186 1_555
Ba9 P57 3.302555 1_565
Ba9 Cu63 3.334943 1_555
Ba9 P58 3.377008 1_555
Ba9 Cu52 3.422890 1_555
Ba9 P15 3.449206 1_555
Ba9 Cu34 3.473095 1_565
Ba9 P76 3.508897 1_565
Ba9 P113 3.523011 1_555
Ba9 Cu33 3.546664 1_555
Ba9 P79 3.558860 1_555
Ba9 Cu15 3.565448 1_555
Ba9 P31 3.597281 1_555
Ba9 P89 3.601473 1_555
Ba9 P9 3.678553 1_555
Ba9 Cu7 3.737964 1_555
Ba9 P97 3.739091 1_555
Ba9 P119 3.762545 1_555
Ba9 P1 3.797419 1_565
Ba9 P106 3.808679 1_565
Ba9 Cu1 3.837561 1_555
Ba9 P65 3.958624 1_555
Ba9 P103 3.962824 1_555
Ba9 Cu50 3.995159 1_555
Ba10 P44 3.296186 1_555
Ba10 P58 3.302555 1_545
Ba10 Cu60 3.334943 1_555
Ba10 P57 3.377008 1_555
Ba10 Cu55 3.422890 1_555
Ba10 P12 3.449206 1_555
Ba10 Cu33 3.473095 1_545
Ba10 P79 3.508897 1_545
Ba10 P114 3.523011 1_555
Ba10 Cu34 3.546664 1_555
Ba10 P76 3.558860 1_555
Ba10 Cu12 3.565448 1_555
Ba10 P28 3.597281 1_555
Ba10 P90 3.601473 1_555
Ba10 P10 3.678553 1_555
Ba10 Cu4 3.737964 1_555
Ba10 P98 3.739091 1_555
Ba10 P116 3.762545 1_555
Ba10 P2 3.797419 1_545
Ba10 P105 3.808679 1_545
Ba10 Cu2 3.837561 1_555
Ba10 P66 3.958624 1_555
Ba10 P100 3.962824 1_555
Ba10 Cu49 3.995159 1_555
Ba11 P45 3.296186 1_555
Ba11 P59 3.302555 1_555
Ba11 Cu61 3.334943 1_655
Ba11 P56 3.377008 1_555
Ba11 Cu54 3.422890 1_555
Ba11 P13 3.449206 1_555
Ba11 Cu32 3.473095 1_555
Ba11 P78 3.508897 1_655
Ba11 P115 3.523011 1_655
Ba11 Cu35 3.546664 1_555
Ba11 P77 3.558860 1_655
Ba11 Cu13 3.565448 1_555
Ba11 P29 3.597281 1_555
Ba11 P91 3.601473 1_655
Ba11 P11 3.678553 1_655
Ba11 Cu5 3.737964 1_555
Ba11 P99 3.739091 1_555
Ba11 P117 3.762545 1_555
Ba11 P3 3.797419 1_655
Ba11 P104 3.808679 1_655
Ba11 Cu3 3.837561 1_655
Ba11 P67 3.958624 1_555
Ba11 P101 3.962824 1_655
Ba11 Cu48 3.995159 1_655
Ba12 P42 3.296186 1_555
Ba12 P60 3.302555 1_555
Ba12 Cu58 3.334943 1_455
Ba12 P63 3.377008 1_555
Ba12 Cu49 3.422890 1_555
Ba12 P10 3.449206 1_555
Ba12 Cu39 3.473095 1_555
Ba12 P73 3.508897 1_455
Ba12 P116 3.523011 1_455
Ba12 Cu36 3.546664 1_555
Ba12 P74 3.558860 1_455
Ba12 Cu10 3.565448 1_555
Ba12 P26 3.597281 1_555
Ba12 P92 3.601473 1_455
Ba12 P12 3.678553 1_455
Ba12 Cu2 3.737964 1_555
Ba12 P100 3.739091 1_555
Ba12 P114 3.762545 1_555
Ba12 P4 3.797419 1_455
Ba12 P111 3.808679 1_455
Ba12 Cu4 3.837561 1_455
Ba12 P68 3.958624 1_555
Ba12 P98 3.962824 1_455
Ba12 Cu55 3.995159 1_455
Ba13 P43 3.296186 1_555
Ba13 P61 3.302555 1_545
Ba13 Cu59 3.334943 1_555
Ba13 P62 3.377008 1_555
Ba13 Cu48 3.422890 1_555
Ba13 P11 3.449206 1_555
Ba13 Cu38 3.473095 1_545
Ba13 P72 3.508897 1_545
Ba13 P117 3.523011 1_555
Ba13 Cu37 3.546664 1_555
Ba13 P75 3.558860 1_555
Ba13 Cu11 3.565448 1_555
Ba13 P27 3.597281 1_555
Ba13 P93 3.601473 1_555
Ba13 P13 3.678553 1_555
Ba13 Cu3 3.737964 1_555
Ba13 P101 3.739091 1_555
Ba13 P115 3.762545 1_555
Ba13 P5 3.797419 1_545
Ba13 P110 3.808679 1_545
Ba13 Cu5 3.837561 1_555
Ba13 P69 3.958624 1_555
Ba13 P99 3.962824 1_555
Ba13 Cu54 3.995159 1_555
Ba14 P40 3.296186 1_555
Ba14 P62 3.302555 1_565
Ba14 Cu56 3.334943 1_555
Ba14 P61 3.377008 1_555
Ba14 Cu51 3.422890 1_555
Ba14 P8 3.449206 1_555
Ba14 Cu37 3.473095 1_565
Ba14 P75 3.508897 1_565
Ba14 P118 3.523011 1_555
Ba14 Cu38 3.546664 1_555
Ba14 P72 3.558860 1_555
Ba14 Cu8 3.565448 1_555
Ba14 P24 3.597281 1_555
Ba14 P94 3.601473 1_555
Ba14 P14 3.678553 1_555
Ba14 Cu0 3.737964 1_555
Ba14 P102 3.739091 1_555
Ba14 P112 3.762545 1_555
Ba14 P6 3.797419 1_565
Ba14 P109 3.808679 1_565
Ba14 Cu6 3.837561 1_555
Ba14 P70 3.958624 1_555
Ba14 P96 3.962824 1_555
Ba14 Cu53 3.995159 1_555
Ba15 P41 3.296186 1_555
Ba15 P63 3.302555 1_555
Ba15 Cu57 3.334943 1_455
Ba15 P60 3.377008 1_555
Ba15 Cu50 3.422890 1_555
Ba15 P9 3.449206 1_555
Ba15 Cu36 3.473095 1_555
Ba15 P74 3.508897 1_455
Ba15 P119 3.523011 1_455
Ba15 Cu39 3.546664 1_555
Ba15 P73 3.558860 1_455
Ba15 Cu9 3.565448 1_555
Ba15 P25 3.597281 1_555
Ba15 P95 3.601473 1_455
Ba15 P15 3.678553 1_455
Ba15 Cu1 3.737964 1_555
Ba15 P103 3.739091 1_555
Ba15 P113 3.762545 1_555
Ba15 P7 3.797419 1_455
Ba15 P108 3.808679 1_455
Ba15 Cu7 3.837561 1_455
Ba15 P71 3.958624 1_555
Ba15 P97 3.962824 1_455
Ba15 Cu52 3.995159 1_455
Ba16 Cu42 3.302146 1_555
Ba16 Cu62 3.337721 1_555
Ba16 Cu46 3.352745 1_465
Ba16 P34 3.365510 1_455
Ba16 P38 3.381656 1_565
Ba16 P46 3.382491 1_455
Ba16 P55 3.396419 1_455
Ba16 P112 3.430519 1_555
Ba16 Cu53 3.484993 1_455
Ba16 P51 3.529856 1_565
Ba16 P18 3.563023 1_555
Ba16 P8 3.574503 1_555
Ba16 P86 3.617270 1_555
Ba16 P14 3.639233 1_455
Ba16 Cu20 3.707833 1_455
Ba16 P24 3.739318 1_555
Ba16 Cu8 3.744450 1_555
Ba16 P20 3.753116 1_455
Ba16 P80 3.779819 1_455
Ba16 P40 3.824062 1_555
Ba16 P109 3.892147 1_465
Ba16 Cu24 3.905718 1_565
Ba16 P94 3.943479 1_455
Ba16 Cu56 4.003734 1_455
Ba17 Cu43 3.302146 1_556
Ba17 Cu63 3.337721 1_555
Ba17 Cu47 3.352745 1_555
Ba17 P35 3.365510 1_556
Ba17 P39 3.381656 1_555
Ba17 P47 3.382491 1_555
Ba17 P54 3.396419 1_556
Ba17 P113 3.430519 1_555
Ba17 Cu52 3.484993 1_555
Ba17 P50 3.529856 1_555
Ba17 P19 3.563023 1_555
Ba17 P9 3.574503 1_555
Ba17 P87 3.617270 1_556
Ba17 P15 3.639233 1_555
Ba17 Cu21 3.707833 1_556
Ba17 P25 3.739318 1_555
Ba17 Cu9 3.744450 1_555
Ba17 P21 3.753116 1_555
Ba17 P81 3.779819 1_556
Ba17 P41 3.824062 1_555
Ba17 P108 3.892147 1_555
Ba17 Cu25 3.905718 1_555
Ba17 P95 3.943479 1_555
Ba17 Cu57 4.003734 1_555
Ba18 Cu40 3.302146 1_555
Ba18 Cu60 3.337721 1_555
Ba18 Cu44 3.352745 1_555
Ba18 P32 3.365510 1_555
Ba18 P36 3.381656 1_555
Ba18 P44 3.382491 1_555
Ba18 P53 3.396419 1_555
Ba18 P114 3.430519 1_555
Ba18 Cu55 3.484993 1_555
Ba18 P49 3.529856 1_555
Ba18 P16 3.563023 1_555
Ba18 P10 3.574503 1_555
Ba18 P84 3.617270 1_555
Ba18 P12 3.639233 1_555
Ba18 Cu22 3.707833 1_555
Ba18 P26 3.739318 1_555
Ba18 Cu10 3.744450 1_555
Ba18 P22 3.753116 1_555
Ba18 P82 3.779819 1_555
Ba18 P42 3.824062 1_555
Ba18 P111 3.892147 1_555
Ba18 Cu26 3.905718 1_555
Ba18 P92 3.943479 1_555
Ba18 Cu58 4.003734 1_555
Ba19 Cu41 3.302146 1_554
Ba19 Cu61 3.337721 1_555
Ba19 Cu45 3.352745 1_445
Ba19 P33 3.365510 1_454
Ba19 P37 3.381656 1_545
Ba19 P45 3.382491 1_455
Ba19 P52 3.396419 1_454
Ba19 P115 3.430519 1_555
Ba19 Cu54 3.484993 1_455
Ba19 P48 3.529856 1_545
Ba19 P17 3.563023 1_555
Ba19 P11 3.574503 1_555
Ba19 P85 3.617270 1_554
Ba19 P13 3.639233 1_455
Ba19 Cu23 3.707833 1_454
Ba19 P27 3.739318 1_555
Ba19 Cu11 3.744450 1_555
Ba19 P23 3.753116 1_455
Ba19 P83 3.779819 1_454
Ba19 P43 3.824062 1_555
Ba19 P110 3.892147 1_445
Ba19 Cu27 3.905718 1_545
Ba19 P93 3.943479 1_455
Ba19 Cu59 4.003734 1_455
Ba20 Cu46 3.302146 1_555
Ba20 Cu58 3.337721 1_555
Ba20 Cu42 3.352745 1_645
Ba20 P38 3.365510 1_655
Ba20 P34 3.381656 1_545
Ba20 P42 3.382491 1_655
Ba20 P51 3.396419 1_655
Ba20 P116 3.430519 1_555
Ba20 Cu49 3.484993 1_655
Ba20 P55 3.529856 1_545
Ba20 P22 3.563023 1_555
Ba20 P12 3.574503 1_555
Ba20 P82 3.617270 1_555
Ba20 P10 3.639233 1_655
Ba20 Cu16 3.707833 1_655
Ba20 P28 3.739318 1_555
Ba20 Cu12 3.744450 1_555
Ba20 P16 3.753116 1_655
Ba20 P84 3.779819 1_655
Ba20 P44 3.824062 1_555
Ba20 P105 3.892147 1_645
Ba20 Cu28 3.905718 1_545
Ba20 P90 3.943479 1_655
Ba20 Cu60 4.003734 1_655
Ba21 Cu47 3.302146 1_554
Ba21 Cu59 3.337721 1_555
Ba21 Cu43 3.352745 1_555
Ba21 P39 3.365510 1_554
Ba21 P35 3.381656 1_555
Ba21 P43 3.382491 1_555
Ba21 P50 3.396419 1_554
Ba21 P117 3.430519 1_555
Ba21 Cu48 3.484993 1_555
Ba21 P54 3.529856 1_555
Ba21 P23 3.563023 1_555
Ba21 P13 3.574503 1_555
Ba21 P83 3.617270 1_554
Ba21 P11 3.639233 1_555
Ba21 Cu17 3.707833 1_554
Ba21 P29 3.739318 1_555
Ba21 Cu13 3.744450 1_555
Ba21 P17 3.753116 1_555
Ba21 P85 3.779819 1_554
Ba21 P45 3.824062 1_555
Ba21 P104 3.892147 1_555
Ba21 Cu29 3.905718 1_555
Ba21 P91 3.943479 1_555
Ba21 Cu61 4.003734 1_555
Ba22 Cu44 3.302146 1_555
Ba22 Cu56 3.337721 1_555
Ba22 Cu40 3.352745 1_555
Ba22 P36 3.365510 1_555
Ba22 P32 3.381656 1_555
Ba22 P40 3.382491 1_555
Ba22 P49 3.396419 1_555
Ba22 P118 3.430519 1_555
Ba22 Cu51 3.484993 1_555
Ba22 P53 3.529856 1_555
Ba22 P20 3.563023 1_555
Ba22 P14 3.574503 1_555
Ba22 P80 3.617270 1_555
Ba22 P8 3.639233 1_555
Ba22 Cu18 3.707833 1_555
Ba22 P30 3.739318 1_555
Ba22 Cu14 3.744450 1_555
Ba22 P18 3.753116 1_555
Ba22 P86 3.779819 1_555
Ba22 P46 3.824062 1_555
Ba22 P107 3.892147 1_555
Ba22 Cu30 3.905718 1_555
Ba22 P88 3.943479 1_555
Ba22 Cu62 4.003734 1_555
Ba23 Cu45 3.302146 1_556
Ba23 Cu57 3.337721 1_555
Ba23 Cu41 3.352745 1_665
Ba23 P37 3.365510 1_656
Ba23 P33 3.381656 1_565
Ba23 P41 3.382491 1_655
Ba23 P48 3.396419 1_656
Ba23 P119 3.430519 1_555
Ba23 Cu50 3.484993 1_655
Ba23 P52 3.529856 1_565
Ba23 P21 3.563023 1_555
Ba23 P15 3.574503 1_555
Ba23 P81 3.617270 1_556
Ba23 P9 3.639233 1_655
Ba23 Cu19 3.707833 1_656
Ba23 P31 3.739318 1_555
Ba23 Cu15 3.744450 1_555
Ba23 P19 3.753116 1_655
Ba23 P87 3.779819 1_656
Ba23 P47 3.824062 1_555
Ba23 P106 3.892147 1_665
Ba23 Cu31 3.905718 1_565
Ba23 P89 3.943479 1_655
Ba23 Cu63 4.003734 1_655
Ba24 P70 3.368333 1_555
Ba24 P3 3.384476 1_555
Ba24 Cu19 3.387526 1_555
Ba24 P5 3.387989 1_555
Ba24 Cu21 3.413167 1_555
Ba24 Cu27 3.421355 1_555
Ba24 Cu29 3.427443 1_555
Ba24 P64 3.457823 1_455
Ba24 P48 3.535025 1_555
Ba24 Cu38 3.590771 1_555
Ba24 P54 3.633585 1_555
Ba24 P87 3.646632 1_555
Ba24 Cu32 3.662669 1_455
Ba24 P104 3.676249 1_555
Ba24 P19 3.685767 1_554
Ba24 P102 3.688352 1_555
Ba24 Cu0 3.717402 1_555
Ba24 Cu11 3.727733 1_565
Ba24 P91 3.730852 1_555
Ba24 P27 3.790626 1_565
Ba24 P78 3.792320 1_555
Ba24 P37 3.794163 1_555
Ba24 Cu43 3.831283 1_555
Ba25 P71 3.368333 1_555
Ba25 P2 3.384476 1_555
Ba25 Cu18 3.387526 1_555
Ba25 P4 3.387989 1_455
Ba25 Cu20 3.413167 1_455
Ba25 Cu26 3.421355 1_555
Ba25 Cu28 3.427443 1_455
Ba25 P65 3.457823 1_555
Ba25 P49 3.535025 1_555
Ba25 Cu39 3.590771 1_555
Ba25 P55 3.633585 1_455
Ba25 P86 3.646632 1_555
Ba25 Cu33 3.662669 1_555
Ba25 P105 3.676249 1_555
Ba25 P18 3.685767 1_555
Ba25 P103 3.688352 1_555
Ba25 Cu1 3.717402 1_555
Ba25 Cu10 3.727733 1_555
Ba25 P90 3.730852 1_565
Ba25 P26 3.790626 1_555
Ba25 P79 3.792320 1_555
Ba25 P36 3.794163 1_555
Ba25 Cu42 3.831283 1_555
Ba26 P68 3.368333 1_555
Ba26 P1 3.384476 1_555
Ba26 Cu17 3.387526 1_555
Ba26 P7 3.387989 1_455
Ba26 Cu23 3.413167 1_455
Ba26 Cu25 3.421355 1_555
Ba26 Cu31 3.427443 1_455
Ba26 P66 3.457823 1_555
Ba26 P50 3.535025 1_555
Ba26 Cu36 3.590771 1_555
Ba26 P52 3.633585 1_455
Ba26 P85 3.646632 1_555
Ba26 Cu34 3.662669 1_555
Ba26 P106 3.676249 1_555
Ba26 P17 3.685767 1_556
Ba26 P100 3.688352 1_555
Ba26 Cu2 3.717402 1_555
Ba26 Cu9 3.727733 1_555
Ba26 P89 3.730852 1_545
Ba26 P25 3.790626 1_555
Ba26 P76 3.792320 1_555
Ba26 P39 3.794163 1_555
Ba26 Cu41 3.831283 1_555
Ba27 P69 3.368333 1_555
Ba27 P0 3.384476 1_555
Ba27 Cu16 3.387526 1_555
Ba27 P6 3.387989 1_555
Ba27 Cu22 3.413167 1_555
Ba27 Cu24 3.421355 1_555
Ba27 Cu30 3.427443 1_555
Ba27 P67 3.457823 1_455
Ba27 P51 3.535025 1_555
Ba27 Cu37 3.590771 1_555
Ba27 P53 3.633585 1_555
Ba27 P84 3.646632 1_555
Ba27 Cu35 3.662669 1_455
Ba27 P107 3.676249 1_555
Ba27 P16 3.685767 1_555
Ba27 P101 3.688352 1_555
Ba27 Cu3 3.717402 1_555
Ba27 Cu8 3.727733 1_545
Ba27 P88 3.730852 1_555
Ba27 P24 3.790626 1_545
Ba27 P77 3.792320 1_555
Ba27 P38 3.794163 1_555
Ba27 Cu40 3.831283 1_555
Ba28 P66 3.368333 1_555
Ba28 P7 3.384476 1_555
Ba28 Cu23 3.387526 1_555
Ba28 P1 3.387989 1_555
Ba28 Cu17 3.413167 1_555
Ba28 Cu31 3.421355 1_555
Ba28 Cu25 3.427443 1_555
Ba28 P68 3.457823 1_655
Ba28 P52 3.535025 1_555
Ba28 Cu34 3.590771 1_555
Ba28 P50 3.633585 1_555
Ba28 P83 3.646632 1_555
Ba28 Cu36 3.662669 1_655
Ba28 P108 3.676249 1_555
Ba28 P23 3.685767 1_556
Ba28 P98 3.688352 1_555
Ba28 Cu4 3.717402 1_555
Ba28 Cu15 3.727733 1_545
Ba28 P95 3.730852 1_555
Ba28 P31 3.790626 1_545
Ba28 P74 3.792320 1_555
Ba28 P33 3.794163 1_555
Ba28 Cu47 3.831283 1_555
Ba29 P67 3.368333 1_555
Ba29 P6 3.384476 1_555
Ba29 Cu22 3.387526 1_555
Ba29 P0 3.387989 1_655
Ba29 Cu16 3.413167 1_655
Ba29 Cu30 3.421355 1_555
Ba29 Cu24 3.427443 1_655
Ba29 P69 3.457823 1_555
Ba29 P53 3.535025 1_555
Ba29 Cu35 3.590771 1_555
Ba29 P51 3.633585 1_655
Ba29 P82 3.646632 1_555
Ba29 Cu37 3.662669 1_555
Ba29 P109 3.676249 1_555
Ba29 P22 3.685767 1_555
Ba29 P99 3.688352 1_555
Ba29 Cu5 3.717402 1_555
Ba29 Cu14 3.727733 1_555
Ba29 P94 3.730852 1_545
Ba29 P30 3.790626 1_555
Ba29 P75 3.792320 1_555
Ba29 P32 3.794163 1_555
Ba29 Cu46 3.831283 1_555
Ba30 P64 3.368333 1_555
Ba30 P5 3.384476 1_555
Ba30 Cu21 3.387526 1_555
Ba30 P3 3.387989 1_655
Ba30 Cu19 3.413167 1_655
Ba30 Cu29 3.421355 1_555
Ba30 Cu27 3.427443 1_655
Ba30 P70 3.457823 1_555
Ba30 P54 3.535025 1_555
Ba30 Cu32 3.590771 1_555
Ba30 P48 3.633585 1_655
Ba30 P81 3.646632 1_555
Ba30 Cu38 3.662669 1_555
Ba30 P110 3.676249 1_555
Ba30 P21 3.685767 1_554
Ba30 P96 3.688352 1_555
Ba30 Cu6 3.717402 1_555
Ba30 Cu13 3.727733 1_555
Ba30 P93 3.730852 1_565
Ba30 P29 3.790626 1_555
Ba30 P72 3.792320 1_555
Ba30 P35 3.794163 1_555
Ba30 Cu45 3.831283 1_555
Ba31 P65 3.368333 1_555
Ba31 P4 3.384476 1_555
Ba31 Cu20 3.387526 1_555
Ba31 P2 3.387989 1_555
Ba31 Cu18 3.413167 1_555
Ba31 Cu28 3.421355 1_555
Ba31 Cu26 3.427443 1_555
Ba31 P71 3.457823 1_655
Ba31 P55 3.535025 1_555
Ba31 Cu33 3.590771 1_555
Ba31 P49 3.633585 1_555
Ba31 P80 3.646632 1_555
Ba31 Cu39 3.662669 1_655
Ba31 P111 3.676249 1_555
Ba31 P20 3.685767 1_555
Ba31 P97 3.688352 1_555
Ba31 Cu7 3.717402 1_555
Ba31 Cu12 3.727733 1_565
Ba31 P92 3.730852 1_555
Ba31 P28 3.790626 1_565
Ba31 P73 3.792320 1_555
Ba31 P34 3.794163 1_555
Ba31 Cu44 3.831283 1_555
Cu0 P102 2.286136 1_555
Cu0 P112 2.343934 1_555
Cu0 P64 2.350711 1_455
Cu0 P61 2.373460 1_555
Cu1 P103 2.286136 1_555
Cu1 P113 2.343934 1_555
Cu1 P65 2.350711 1_555
Cu1 P60 2.373460 1_555
Cu2 P100 2.286136 1_555
Cu2 P114 2.343934 1_555
Cu2 P66 2.350711 1_555
Cu2 P63 2.373460 1_555
Cu3 P101 2.286136 1_555
Cu3 P115 2.343934 1_555
Cu3 P67 2.350711 1_455
Cu3 P62 2.373460 1_555
Cu4 P98 2.286136 1_555
Cu4 P116 2.343934 1_555
Cu4 P68 2.350711 1_655
Cu4 P57 2.373460 1_555
Cu5 P99 2.286136 1_555
Cu5 P117 2.343934 1_555
Cu5 P69 2.350711 1_555
Cu5 P56 2.373460 1_555
Cu6 P96 2.286136 1_555
Cu6 P118 2.343934 1_555
Cu6 P70 2.350711 1_555
Cu6 P59 2.373460 1_555
Cu7 P97 2.286136 1_555
Cu7 P119 2.343934 1_555
Cu7 P71 2.350711 1_655
Cu7 P58 2.373460 1_555
Cu8 P24 2.263526 1_555
Cu8 P40 2.353605 1_555
Cu8 P38 2.370337 1_565
Cu8 P6 2.372146 1_565
Cu9 P25 2.263526 1_555
Cu9 P41 2.353605 1_555
Cu9 P39 2.370337 1_555
Cu9 P7 2.372146 1_455
Cu10 P26 2.263526 1_555
Cu10 P42 2.353605 1_555
Cu10 P36 2.370337 1_555
Cu10 P4 2.372146 1_455
Cu11 P27 2.263526 1_555
Cu11 P43 2.353605 1_555
Cu11 P37 2.370337 1_545
Cu11 P5 2.372146 1_545
Cu12 P28 2.263526 1_555
Cu12 P44 2.353605 1_555
Cu12 P34 2.370337 1_545
Cu12 P2 2.372146 1_545
Cu13 P29 2.263526 1_555
Cu13 P45 2.353605 1_555
Cu13 P35 2.370337 1_555
Cu13 P3 2.372146 1_655
Cu14 P30 2.263526 1_555
Cu14 P46 2.353605 1_555
Cu14 P32 2.370337 1_555
Cu14 P0 2.372146 1_655
Cu15 P31 2.263526 1_555
Cu15 P47 2.353605 1_555
Cu15 P33 2.370337 1_565
Cu15 P1 2.372146 1_565
Cu16 P51 2.324658 1_555
Cu16 P16 2.345060 1_555
Cu16 P82 2.370544 1_455
Cu16 P0 2.437784 1_555
Cu17 P50 2.324658 1_555
Cu17 P17 2.345060 1_556
Cu17 P83 2.370544 1_555
Cu17 P1 2.437784 1_555
Cu18 P49 2.324658 1_555
Cu18 P18 2.345060 1_555
Cu18 P80 2.370544 1_555
Cu18 P2 2.437784 1_555
Cu19 P48 2.324658 1_555
Cu19 P19 2.345060 1_554
Cu19 P81 2.370544 1_455
Cu19 P3 2.437784 1_555
Cu20 P55 2.324658 1_555
Cu20 P20 2.345060 1_555
Cu20 P86 2.370544 1_655
Cu20 P4 2.437784 1_555
Cu21 P54 2.324658 1_555
Cu21 P21 2.345060 1_554
Cu21 P87 2.370544 1_555
Cu21 P5 2.437784 1_555
Cu22 P53 2.324658 1_555
Cu22 P22 2.345060 1_555
Cu22 P84 2.370544 1_555
Cu22 P6 2.437784 1_555
Cu23 P52 2.324658 1_555
Cu23 P23 2.345060 1_556
Cu23 P85 2.370544 1_655
Cu23 P7 2.437784 1_555
Cu24 P51 2.340810 1_555
Cu24 P109 2.346271 1_455
Cu24 P24 2.363281 1_545
Cu24 P67 2.384141 1_455
Cu25 P50 2.340810 1_555
Cu25 P108 2.346271 1_555
Cu25 P25 2.363281 1_555
Cu25 P66 2.384141 1_555
Cu26 P49 2.340810 1_555
Cu26 P111 2.346271 1_555
Cu26 P26 2.363281 1_555
Cu26 P65 2.384141 1_555
Cu27 P48 2.340810 1_555
Cu27 P110 2.346271 1_455
Cu27 P27 2.363281 1_565
Cu27 P64 2.384141 1_455
Cu28 P55 2.340810 1_555
Cu28 P105 2.346271 1_655
Cu28 P28 2.363281 1_565
Cu28 P71 2.384141 1_655
Cu29 P54 2.340810 1_555
Cu29 P104 2.346271 1_555
Cu29 P29 2.363281 1_555
Cu29 P70 2.384141 1_555
Cu30 P53 2.340810 1_555
Cu30 P107 2.346271 1_555
Cu30 P30 2.363281 1_555
Cu30 P69 2.384141 1_555
Cu31 P52 2.340810 1_555
Cu31 P106 2.346271 1_655
Cu31 P31 2.363281 1_545
Cu31 P68 2.384141 1_655
Cu32 P78 2.344339 1_655
Cu32 P3 2.347643 1_655
Cu32 P59 2.364736 1_555
Cu32 P64 2.378585 1_555
Cu33 P79 2.344339 1_555
Cu33 P2 2.347643 1_555
Cu33 P58 2.364736 1_555
Cu33 P65 2.378585 1_555
Cu34 P76 2.344339 1_555
Cu34 P1 2.347643 1_555
Cu34 P57 2.364736 1_555
Cu34 P66 2.378585 1_555
Cu35 P77 2.344339 1_655
Cu35 P0 2.347643 1_655
Cu35 P56 2.364736 1_555
Cu35 P67 2.378585 1_555
Cu36 P74 2.344339 1_455
Cu36 P7 2.347643 1_455
Cu36 P63 2.364736 1_555
Cu36 P68 2.378585 1_555
Cu37 P75 2.344339 1_555
Cu37 P6 2.347643 1_555
Cu37 P62 2.364736 1_555
Cu37 P69 2.378585 1_555
Cu38 P72 2.344339 1_555
Cu38 P5 2.347643 1_555
Cu38 P61 2.364736 1_555
Cu38 P70 2.378585 1_555
Cu39 P73 2.344339 1_455
Cu39 P4 2.347643 1_455
Cu39 P60 2.364736 1_555
Cu39 P71 2.378585 1_555
Cu40 P53 2.370258 1_555
Cu40 P88 2.384350 1_555
Cu40 P16 2.388910 1_555
Cu40 P36 2.437599 1_555
Cu41 P52 2.370258 1_455
Cu41 P89 2.384350 1_545
Cu41 P17 2.388910 1_556
Cu41 P37 2.437599 1_546
Cu42 P55 2.370258 1_455
Cu42 P90 2.384350 1_565
Cu42 P18 2.388910 1_555
Cu42 P38 2.437599 1_565
Cu43 P54 2.370258 1_555
Cu43 P91 2.384350 1_555
Cu43 P19 2.388910 1_554
Cu43 P39 2.437599 1_554
Cu44 P49 2.370258 1_555
Cu44 P92 2.384350 1_555
Cu44 P20 2.388910 1_555
Cu44 P32 2.437599 1_555
Cu45 P48 2.370258 1_655
Cu45 P93 2.384350 1_565
Cu45 P21 2.388910 1_554
Cu45 P33 2.437599 1_564
Cu46 P51 2.370258 1_655
Cu46 P94 2.384350 1_545
Cu46 P22 2.388910 1_555
Cu46 P34 2.437599 1_545
Cu47 P50 2.370258 1_555
Cu47 P95 2.384350 1_555
Cu47 P23 2.388910 1_556
Cu47 P35 2.437599 1_556
Cu48 P11 2.335316 1_555
Cu48 P101 2.360155 1_555
Cu48 P104 2.364966 1_555
Cu48 P117 2.489337 1_555
Cu49 P10 2.335316 1_555
Cu49 P100 2.360155 1_555
Cu49 P105 2.364966 1_545
Cu49 P116 2.489337 1_455
Cu50 P9 2.335316 1_555
Cu50 P103 2.360155 1_555
Cu50 P106 2.364966 1_565
Cu50 P119 2.489337 1_455
Cu51 P8 2.335316 1_555
Cu51 P102 2.360155 1_555
Cu51 P107 2.364966 1_555
Cu51 P118 2.489337 1_555
Cu52 P15 2.335316 1_555
Cu52 P97 2.360155 1_555
Cu52 P108 2.364966 1_555
Cu52 P113 2.489337 1_555
Cu53 P14 2.335316 1_555
Cu53 P96 2.360155 1_555
Cu53 P109 2.364966 1_565
Cu53 P112 2.489337 1_655
Cu54 P13 2.335316 1_555
Cu54 P99 2.360155 1_555
Cu54 P110 2.364966 1_545
Cu54 P115 2.489337 1_655
Cu55 P12 2.335316 1_555
Cu55 P98 2.360155 1_555
Cu55 P111 2.364966 1_555
Cu55 P114 2.489337 1_555
Cu56 P14 2.326303 1_555
Cu56 P80 2.343202 1_555
Cu56 P94 2.356904 1_555
Cu56 P40 2.464552 1_555
Cu57 P15 2.326303 1_555
Cu57 P81 2.343202 1_556
Cu57 P95 2.356904 1_555
Cu57 P41 2.464552 1_655
Cu58 P12 2.326303 1_555
Cu58 P82 2.343202 1_555
Cu58 P92 2.356904 1_555
Cu58 P42 2.464552 1_655
Cu59 P13 2.326303 1_555
Cu59 P83 2.343202 1_554
Cu59 P93 2.356904 1_555
Cu59 P43 2.464552 1_555
Cu60 P10 2.326303 1_555
Cu60 P84 2.343202 1_555
Cu60 P90 2.356904 1_555
Cu60 P44 2.464552 1_555
Cu61 P11 2.326303 1_555
Cu61 P85 2.343202 1_554
Cu61 P91 2.356904 1_555
Cu61 P45 2.464552 1_455
Cu62 P8 2.326303 1_555
Cu62 P86 2.343202 1_555
Cu62 P88 2.356904 1_555
Cu62 P46 2.464552 1_455
Cu63 P9 2.326303 1_555
Cu63 P87 2.343202 1_556
Cu63 P89 2.356904 1_555
Cu63 P47 2.464552 1_555
P24 P62 2.331474 1_565
P25 P63 2.331474 1_555
P26 P60 2.331474 1_555
P27 P61 2.331474 1_545
P28 P58 2.331474 1_545
P29 P59 2.331474 1_555
P30 P56 2.331474 1_555
P31 P57 2.331474 1_565
P56 P59 2.244051 1_555
P57 P58 2.244051 1_545
P60 P63 2.244051 1_555
P61 P62 2.244051 1_565
P64 P96 2.234602 1_555
P65 P97 2.234602 1_555
P66 P98 2.234602 1_555
P67 P99 2.234602 1_555
P100 P68 2.234602 1_555
P101 P69 2.234602 1_555
P102 P70 2.234602 1_555
P103 P71 2.234602 1_555
