# generated using pymatgen
data_CsMg30MnO32
_symmetry_space_group_name_H-M   'P 1'
_cell_length_a   8.69382900
_cell_length_b   8.69382900
_cell_length_c   8.61501700
_cell_angle_alpha   90.00000000
_cell_angle_beta   90.00000000
_cell_angle_gamma   90.00000000
_symmetry_Int_Tables_number   1
_chemical_formula_structural   CsMg30MnO32
_chemical_formula_sum   'Cs1 Mg30 Mn1 O32'
_cell_volume   651.14592390
_cell_formula_units_Z   1
loop_
 _symmetry_equiv_pos_site_id
 _symmetry_equiv_pos_as_xyz
  1  'x, y, z'
loop_
 _atom_site_type_symbol
 _atom_site_label
 _atom_site_symmetry_multiplicity
 _atom_site_fract_x
 _atom_site_fract_y
 _atom_site_fract_z
 _atom_site_occupancy
  Cs  Cs0  1  0.00000000  0.00000000  0.50000000  1
  Mg  Mg0  1  0.50000000  0.00000000  0.00000000  1
  Mg  Mg1  1  0.50000000  0.00000000  0.50000000  1
  Mg  Mg2  1  0.00000000  0.50000000  0.00000000  1
  Mg  Mg3  1  0.00000000  0.50000000  0.50000000  1
  Mg  Mg4  1  0.50000000  0.50000000  0.00000000  1
  Mg  Mg5  1  0.50000000  0.50000000  0.50000000  1
  Mg  Mg6  1  0.25923600  0.00000000  0.24825900  1
  Mg  Mg7  1  0.25923600  0.00000000  0.75174100  1
  Mg  Mg8  1  0.74076400  0.00000000  0.24825900  1
  Mg  Mg9  1  0.74076400  0.00000000  0.75174100  1
  Mg  Mg10  1  0.25092700  0.50000000  0.25034900  1
  Mg  Mg11  1  0.25092700  0.50000000  0.74965100  1
  Mg  Mg12  1  0.74907300  0.50000000  0.25034900  1
  Mg  Mg13  1  0.74907300  0.50000000  0.74965100  1
  Mg  Mg14  1  0.00000000  0.25923600  0.24825900  1
  Mg  Mg15  1  0.00000000  0.25923600  0.75174100  1
  Mg  Mg16  1  0.50000000  0.25092700  0.25034900  1
  Mg  Mg17  1  0.50000000  0.25092700  0.74965100  1
  Mg  Mg18  1  0.00000000  0.74076400  0.24825900  1
  Mg  Mg19  1  0.00000000  0.74076400  0.75174100  1
  Mg  Mg20  1  0.50000000  0.74907300  0.25034900  1
  Mg  Mg21  1  0.50000000  0.74907300  0.74965100  1
  Mg  Mg22  1  0.25117400  0.25117400  0.00000000  1
  Mg  Mg23  1  0.25520800  0.25520800  0.50000000  1
  Mg  Mg24  1  0.74882600  0.25117400  0.00000000  1
  Mg  Mg25  1  0.74479200  0.25520800  0.50000000  1
  Mg  Mg26  1  0.25117400  0.74882600  0.00000000  1
  Mg  Mg27  1  0.25520800  0.74479200  0.50000000  1
  Mg  Mg28  1  0.74882600  0.74882600  0.00000000  1
  Mg  Mg29  1  0.74479200  0.74479200  0.50000000  1
  Mn  Mn0  1  0.00000000  0.00000000  0.00000000  1
  O  O0  1  0.00000000  0.25282300  0.00000000  1
  O  O1  1  0.00000000  0.28496900  0.50000000  1
  O  O2  1  0.50000000  0.25097800  0.00000000  1
  O  O3  1  0.50000000  0.25709500  0.50000000  1
  O  O4  1  0.00000000  0.74717700  0.00000000  1
  O  O5  1  0.00000000  0.71503100  0.50000000  1
  O  O6  1  0.50000000  0.74902200  0.00000000  1
  O  O7  1  0.50000000  0.74290500  0.50000000  1
  O  O8  1  0.24883100  0.24883100  0.24984500  1
  O  O9  1  0.24883100  0.24883100  0.75015500  1
  O  O10  1  0.75116900  0.24883100  0.24984500  1
  O  O11  1  0.75116900  0.24883100  0.75015500  1
  O  O12  1  0.24883100  0.75116900  0.24984500  1
  O  O13  1  0.24883100  0.75116900  0.75015500  1
  O  O14  1  0.75116900  0.75116900  0.24984500  1
  O  O15  1  0.75116900  0.75116900  0.75015500  1
  O  O16  1  0.00000000  0.00000000  0.21289100  1
  O  O17  1  0.00000000  0.00000000  0.78710900  1
  O  O18  1  0.50000000  0.00000000  0.24157800  1
  O  O19  1  0.50000000  0.00000000  0.75842200  1
  O  O20  1  0.00000000  0.50000000  0.24157800  1
  O  O21  1  0.00000000  0.50000000  0.75842200  1
  O  O22  1  0.50000000  0.50000000  0.24721900  1
  O  O23  1  0.50000000  0.50000000  0.75278100  1
  O  O24  1  0.25282300  0.00000000  0.00000000  1
  O  O25  1  0.28496900  0.00000000  0.50000000  1
  O  O26  1  0.74717700  0.00000000  0.00000000  1
  O  O27  1  0.71503100  0.00000000  0.50000000  1
  O  O28  1  0.25097800  0.50000000  0.00000000  1
  O  O29  1  0.25709500  0.50000000  0.50000000  1
  O  O30  1  0.74902200  0.50000000  0.00000000  1
  O  O31  1  0.74290500  0.50000000  0.50000000  1
loop_
_geom_bond_atom_site_label_1
_geom_bond_atom_site_label_2
_geom_bond_distance
_geom_bond_site_symmetry_2
Cs0 O17 2.473449 1_555
Cs0 O16 2.473449 1_555
Cs0 O25 2.477472 1_555
Cs0 O1 2.477472 1_555
Cs0 O5 2.477472 1_545
Cs0 O27 2.477472 1_455
Mg0 O18 2.081199 1_555
Mg0 O19 2.081199 1_554
Mg0 O26 2.148915 1_555
Mg0 O24 2.148915 1_555
Mg0 O2 2.181960 1_555
Mg0 O6 2.181960 1_545
Mg1 O27 1.869443 1_555
Mg1 O25 1.869443 1_555
Mg1 O19 2.226310 1_555
Mg1 O18 2.226310 1_555
Mg1 O3 2.235140 1_555
Mg1 O7 2.235140 1_545
Mg2 O20 2.081199 1_555
Mg2 O21 2.081199 1_554
Mg2 O4 2.148915 1_555
Mg2 O0 2.148915 1_555
Mg2 O28 2.181960 1_555
Mg2 O30 2.181960 1_455
Mg3 O5 1.869443 1_555
Mg3 O1 1.869443 1_555
Mg3 O21 2.226310 1_555
Mg3 O20 2.226310 1_555
Mg3 O29 2.235140 1_555
Mg3 O31 2.235140 1_455
Mg4 O22 2.129796 1_555
Mg4 O23 2.129796 1_554
Mg4 O30 2.164955 1_555
Mg4 O6 2.164955 1_555
Mg4 O2 2.164955 1_555
Mg4 O28 2.164955 1_555
Mg5 O31 2.111775 1_555
Mg5 O7 2.111775 1_555
Mg5 O3 2.111775 1_555
Mg5 O29 2.111775 1_555
Mg5 O23 2.177713 1_555
Mg5 O22 2.177713 1_555
Mg6 O18 2.093952 1_555
Mg6 O24 2.139482 1_555
Mg6 O8 2.165228 1_555
Mg6 O12 2.165228 1_545
Mg6 O25 2.180261 1_555
Mg6 O16 2.274257 1_555
Mg7 O19 2.093952 1_555
Mg7 O24 2.139482 1_556
Mg7 O9 2.165228 1_555
Mg7 O13 2.165228 1_545
Mg7 O25 2.180261 1_555
Mg7 O17 2.274257 1_555
Mg8 O18 2.093952 1_555
Mg8 O26 2.139482 1_555
Mg8 O10 2.165228 1_555
Mg8 O14 2.165228 1_545
Mg8 O27 2.180261 1_555
Mg8 O16 2.274257 1_655
Mg9 O19 2.093952 1_555
Mg9 O26 2.139482 1_556
Mg9 O11 2.165228 1_555
Mg9 O15 2.165228 1_545
Mg9 O27 2.180261 1_555
Mg9 O17 2.274257 1_655
Mg10 O29 2.151416 1_555
Mg10 O28 2.156761 1_555
Mg10 O22 2.165566 1_555
Mg10 O20 2.182825 1_555
Mg10 O12 2.183701 1_555
Mg10 O8 2.183701 1_555
Mg11 O29 2.151416 1_555
Mg11 O28 2.156761 1_556
Mg11 O23 2.165566 1_555
Mg11 O21 2.182825 1_555
Mg11 O9 2.183701 1_555
Mg11 O13 2.183701 1_555
Mg12 O31 2.151416 1_555
Mg12 O30 2.156761 1_555
Mg12 O22 2.165566 1_555
Mg12 O20 2.182825 1_655
Mg12 O10 2.183701 1_555
Mg12 O14 2.183701 1_555
Mg13 O31 2.151416 1_555
Mg13 O30 2.156761 1_556
Mg13 O23 2.165566 1_555
Mg13 O21 2.182825 1_655
Mg13 O15 2.183701 1_555
Mg13 O11 2.183701 1_555
Mg14 O20 2.093952 1_555
Mg14 O0 2.139482 1_555
Mg14 O10 2.165228 1_455
Mg14 O8 2.165228 1_555
Mg14 O1 2.180261 1_555
Mg14 O16 2.274257 1_555
Mg15 O21 2.093952 1_555
Mg15 O0 2.139482 1_556
Mg15 O9 2.165228 1_555
Mg15 O11 2.165228 1_455
Mg15 O1 2.180261 1_555
Mg15 O17 2.274257 1_555
Mg16 O3 2.151416 1_555
Mg16 O2 2.156761 1_555
Mg16 O22 2.165566 1_555
Mg16 O18 2.182825 1_555
Mg16 O8 2.183701 1_555
Mg16 O10 2.183701 1_555
Mg17 O3 2.151416 1_555
Mg17 O2 2.156761 1_556
Mg17 O23 2.165566 1_555
Mg17 O19 2.182825 1_555
Mg17 O11 2.183701 1_555
Mg17 O9 2.183701 1_555
Mg18 O20 2.093952 1_555
Mg18 O4 2.139482 1_555
Mg18 O12 2.165228 1_555
Mg18 O14 2.165228 1_455
Mg18 O5 2.180261 1_555
Mg18 O16 2.274257 1_565
Mg19 O21 2.093952 1_555
Mg19 O4 2.139482 1_556
Mg19 O13 2.165228 1_555
Mg19 O15 2.165228 1_455
Mg19 O5 2.180261 1_555
Mg19 O17 2.274257 1_565
Mg20 O7 2.151416 1_555
Mg20 O6 2.156761 1_555
Mg20 O22 2.165566 1_555
Mg20 O18 2.182825 1_565
Mg20 O12 2.183701 1_555
Mg20 O14 2.183701 1_555
Mg21 O7 2.151416 1_555
Mg21 O6 2.156761 1_556
Mg21 O23 2.165566 1_555
Mg21 O19 2.182825 1_565
Mg21 O15 2.183701 1_555
Mg21 O13 2.183701 1_555
Mg22 O8 2.152612 1_555
Mg22 O9 2.152612 1_554
Mg22 O28 2.163251 1_555
Mg22 O2 2.163251 1_555
Mg22 O0 2.183711 1_555
Mg22 O24 2.183711 1_555
Mg23 O3 2.128243 1_555
Mg23 O29 2.128243 1_555
Mg23 O9 2.156515 1_555
Mg23 O8 2.156515 1_555
Mg23 O1 2.233770 1_555
Mg23 O25 2.233770 1_555
Mg24 O10 2.152612 1_555
Mg24 O11 2.152612 1_554
Mg24 O30 2.163251 1_555
Mg24 O2 2.163251 1_555
Mg24 O26 2.183711 1_555
Mg24 O0 2.183711 1_655
Mg25 O3 2.128243 1_555
Mg25 O31 2.128243 1_555
Mg25 O11 2.156515 1_555
Mg25 O10 2.156515 1_555
Mg25 O27 2.233770 1_555
Mg25 O1 2.233770 1_655
Mg26 O12 2.152612 1_555
Mg26 O13 2.152612 1_554
Mg26 O28 2.163251 1_555
Mg26 O6 2.163251 1_555
Mg26 O24 2.183711 1_565
Mg26 O4 2.183711 1_555
Mg27 O29 2.128243 1_555
Mg27 O7 2.128243 1_555
Mg27 O13 2.156515 1_555
Mg27 O12 2.156515 1_555
Mg27 O25 2.233770 1_565
Mg27 O5 2.233770 1_555
Mg28 O14 2.152612 1_555
Mg28 O15 2.152612 1_554
Mg28 O6 2.163251 1_555
Mg28 O30 2.163251 1_555
Mg28 O4 2.183711 1_655
Mg28 O26 2.183711 1_565
Mg29 O31 2.128243 1_555
Mg29 O7 2.128243 1_555
Mg29 O15 2.156515 1_555
Mg29 O14 2.156515 1_555
Mg29 O27 2.233770 1_565
Mg29 O5 2.233770 1_655
Mn0 O16 1.834060 1_555
Mn0 O17 1.834060 1_554
Mn0 O24 2.198000 1_555
Mn0 O0 2.198000 1_555
Mn0 O26 2.198000 1_455
Mn0 O4 2.198000 1_545
