# generated using pymatgen
data_Ta3Ru
_symmetry_space_group_name_H-M   'P 1'
_cell_length_a   5.75231510
_cell_length_b   5.75231510
_cell_length_c   17.62839600
_cell_angle_alpha   90.00000000
_cell_angle_beta   90.00000000
_cell_angle_gamma   109.05397980
_symmetry_Int_Tables_number   1
_chemical_formula_structural   Ta3Ru
_chemical_formula_sum   'Ta24 Ru8'
_cell_volume   551.34964330
_cell_formula_units_Z   8
loop_
 _symmetry_equiv_pos_site_id
 _symmetry_equiv_pos_as_xyz
  1  'x, y, z'
loop_
 _atom_site_type_symbol
 _atom_site_label
 _atom_site_symmetry_multiplicity
 _atom_site_fract_x
 _atom_site_fract_y
 _atom_site_fract_z
 _atom_site_occupancy
  Ta  Ta0_0  1  0.25000000  0.25000000  0.38194200  1
  Ta  Ta0_1  1  0.25000000  0.25000000  0.88194200  1
  Ta  Ta0_2  1  0.25000000  0.75000000  0.38194200  1
  Ta  Ta0_3  1  0.25000000  0.75000000  0.88194200  1
  Ta  Ta0_4  1  0.75000000  0.25000000  0.38194200  1
  Ta  Ta0_5  1  0.75000000  0.25000000  0.88194200  1
  Ta  Ta0_6  1  0.75000000  0.75000000  0.38194200  1
  Ta  Ta0_7  1  0.75000000  0.75000000  0.88194200  1
  Ta  Ta1_0  1  0.00000000  0.00000000  0.25000000  1
  Ta  Ta1_1  1  0.00000000  0.00000000  0.75000000  1
  Ta  Ta1_2  1  0.00000000  0.50000000  0.25000000  1
  Ta  Ta1_3  1  0.00000000  0.50000000  0.75000000  1
  Ta  Ta1_4  1  0.50000000  0.00000000  0.25000000  1
  Ta  Ta1_5  1  0.50000000  0.00000000  0.75000000  1
  Ta  Ta1_6  1  0.50000000  0.50000000  0.25000000  1
  Ta  Ta1_7  1  0.50000000  0.50000000  0.75000000  1
  Ta  Ta2_0  1  0.25000000  0.25000000  0.11805800  1
  Ta  Ta2_1  1  0.25000000  0.25000000  0.61805800  1
  Ta  Ta2_2  1  0.25000000  0.75000000  0.11805800  1
  Ta  Ta2_3  1  0.25000000  0.75000000  0.61805800  1
  Ta  Ta2_4  1  0.75000000  0.25000000  0.11805800  1
  Ta  Ta2_5  1  0.75000000  0.25000000  0.61805800  1
  Ta  Ta2_6  1  0.75000000  0.75000000  0.11805800  1
  Ta  Ta2_7  1  0.75000000  0.75000000  0.61805800  1
  Ru  Ru0_0  1  0.00000000  0.00000000  0.00000000  1
  Ru  Ru0_1  1  0.00000000  0.00000000  0.50000000  1
  Ru  Ru0_2  1  0.00000000  0.50000000  0.00000000  1
  Ru  Ru0_3  1  0.00000000  0.50000000  0.50000000  1
  Ru  Ru0_4  1  0.50000000  0.00000000  0.00000000  1
  Ru  Ru0_5  1  0.50000000  0.00000000  0.50000000  1
  Ru  Ru0_6  1  0.50000000  0.50000000  0.00000000  1
  Ru  Ru0_7  1  0.50000000  0.50000000  0.50000000  1
loop_
_geom_bond_atom_site_label_1
_geom_bond_atom_site_label_2
_geom_bond_distance
_geom_bond_site_symmetry_2
Ta0_0 Ta1_6 2.862829 1_555
Ta0_0 Ta1_0 2.862829 1_555
Ta0_0 Ta0_2 2.876158 1_555
Ta0_0 Ta0_2 2.876158 1_545
Ta0_0 Ta0_4 2.876158 1_455
Ta0_0 Ta0_4 2.876158 1_555
Ta0_1 Ta1_1 2.862829 1_555
Ta0_1 Ta1_7 2.862829 1_555
Ta0_1 Ta0_5 2.876158 1_555
Ta0_1 Ta0_3 2.876158 1_545
Ta0_1 Ta0_3 2.876158 1_555
Ta0_1 Ta0_5 2.876158 1_455
Ta0_2 Ta1_4 2.862829 1_565
Ta0_2 Ta1_2 2.862829 1_555
Ta0_2 Ta0_6 2.876158 1_555
Ta0_2 Ta0_6 2.876158 1_455
Ta0_3 Ta1_5 2.862829 1_565
Ta0_3 Ta1_3 2.862829 1_555
Ta0_3 Ta0_7 2.876158 1_455
Ta0_3 Ta0_7 2.876158 1_555
Ta0_4 Ta1_4 2.862829 1_555
Ta0_4 Ta1_2 2.862829 1_655
Ta0_4 Ta0_6 2.876158 1_555
Ta0_4 Ta0_6 2.876158 1_545
Ta0_5 Ta1_5 2.862829 1_555
Ta0_5 Ta1_3 2.862829 1_655
Ta0_5 Ta0_7 2.876158 1_545
Ta0_5 Ta0_7 2.876158 1_555
Ta0_6 Ta1_6 2.862829 1_555
Ta0_6 Ta1_0 2.862829 1_665
Ta0_7 Ta1_7 2.862829 1_555
Ta0_7 Ta1_1 2.862829 1_665
Ta1_0 Ta2_6 2.862829 1_445
Ta1_0 Ta2_0 2.862829 1_555
Ta1_0 Ta1_4 2.876158 1_455
Ta1_0 Ta1_2 2.876158 1_545
Ta1_0 Ta1_4 2.876158 1_555
Ta1_0 Ta1_2 2.876158 1_555
Ta1_1 Ta2_1 2.862829 1_555
Ta1_1 Ta2_7 2.862829 1_445
Ta1_1 Ta1_3 2.876158 1_545
Ta1_1 Ta1_5 2.876158 1_455
Ta1_1 Ta1_3 2.876158 1_555
Ta1_1 Ta1_5 2.876158 1_555
Ta1_2 Ta2_2 2.862829 1_555
Ta1_2 Ta2_4 2.862829 1_455
Ta1_2 Ta1_6 2.876158 1_555
Ta1_2 Ta1_6 2.876158 1_455
Ta1_3 Ta2_3 2.862829 1_555
Ta1_3 Ta2_5 2.862829 1_455
Ta1_3 Ta1_7 2.876158 1_455
Ta1_3 Ta1_7 2.876158 1_555
Ta1_4 Ta2_2 2.862829 1_545
Ta1_4 Ta2_4 2.862829 1_555
Ta1_4 Ta1_6 2.876158 1_555
Ta1_4 Ta1_6 2.876158 1_545
Ta1_5 Ta2_5 2.862829 1_555
Ta1_5 Ta2_3 2.862829 1_545
Ta1_5 Ta1_7 2.876158 1_545
Ta1_5 Ta1_7 2.876158 1_555
Ta1_6 Ta2_6 2.862829 1_555
Ta1_6 Ta2_0 2.862829 1_555
Ta1_7 Ta2_7 2.862829 1_555
Ta1_7 Ta2_1 2.862829 1_555
Ta2_0 Ta2_2 2.876158 1_545
Ta2_0 Ta2_4 2.876158 1_555
Ta2_0 Ta2_4 2.876158 1_455
Ta2_0 Ta2_2 2.876158 1_555
Ta2_1 Ta2_5 2.876158 1_455
Ta2_1 Ta2_5 2.876158 1_555
Ta2_1 Ta2_3 2.876158 1_545
Ta2_1 Ta2_3 2.876158 1_555
Ta2_2 Ta2_6 2.876158 1_455
Ta2_2 Ta2_6 2.876158 1_555
Ta2_3 Ta2_7 2.876158 1_455
Ta2_3 Ta2_7 2.876158 1_555
Ta2_4 Ta2_6 2.876158 1_555
Ta2_4 Ta2_6 2.876158 1_545
Ta2_5 Ta2_7 2.876158 1_545
Ta2_5 Ta2_7 2.876158 1_555
Ru0_0 Ta2_6 2.667797 1_445
Ru0_0 Ta2_0 2.667797 1_555
Ru0_0 Ta0_1 2.667797 1_554
Ru0_0 Ta0_7 2.667797 1_444
Ru0_0 Ru0_4 2.876158 1_555
Ru0_0 Ru0_4 2.876158 1_455
Ru0_0 Ru0_2 2.876158 1_545
Ru0_0 Ru0_2 2.876158 1_555
Ru0_1 Ta2_1 2.667797 1_555
Ru0_1 Ta2_7 2.667797 1_445
Ru0_1 Ta0_6 2.667797 1_445
Ru0_1 Ta0_0 2.667797 1_555
Ru0_1 Ru0_5 2.876158 1_555
Ru0_1 Ru0_3 2.876158 1_545
Ru0_1 Ru0_5 2.876158 1_455
Ru0_1 Ru0_3 2.876158 1_555
Ru0_2 Ta2_2 2.667797 1_555
Ru0_2 Ta2_4 2.667797 1_455
Ru0_2 Ta0_3 2.667797 1_554
Ru0_2 Ta0_5 2.667797 1_454
Ru0_2 Ru0_6 2.876158 1_455
Ru0_2 Ru0_6 2.876158 1_555
Ru0_3 Ta2_5 2.667797 1_455
Ru0_3 Ta2_3 2.667797 1_555
Ru0_3 Ta0_2 2.667797 1_555
Ru0_3 Ta0_4 2.667797 1_455
Ru0_3 Ru0_7 2.876158 1_455
Ru0_3 Ru0_7 2.876158 1_555
Ru0_4 Ta2_2 2.667797 1_545
Ru0_4 Ta2_4 2.667797 1_555
Ru0_4 Ta0_3 2.667797 1_544
Ru0_4 Ta0_5 2.667797 1_554
Ru0_4 Ru0_6 2.876158 1_545
Ru0_4 Ru0_6 2.876158 1_555
Ru0_5 Ta2_5 2.667797 1_555
Ru0_5 Ta2_3 2.667797 1_545
Ru0_5 Ta0_4 2.667797 1_555
Ru0_5 Ta0_2 2.667797 1_545
Ru0_5 Ru0_7 2.876158 1_545
Ru0_5 Ru0_7 2.876158 1_555
Ru0_6 Ta2_6 2.667797 1_555
Ru0_6 Ta2_0 2.667797 1_555
Ru0_6 Ta0_1 2.667797 1_554
Ru0_6 Ta0_7 2.667797 1_554
Ru0_7 Ta2_1 2.667797 1_555
Ru0_7 Ta2_7 2.667797 1_555
Ru0_7 Ta0_6 2.667797 1_555
Ru0_7 Ta0_0 2.667797 1_555
