# generated using pymatgen
data_Mg2PO8
_symmetry_space_group_name_H-M   'P 1'
_cell_length_a   4.64405899
_cell_length_b   10.08439621
_cell_length_c   12.06834600
_cell_angle_alpha   90.00000000
_cell_angle_beta   90.00000000
_cell_angle_gamma   100.84955083
_symmetry_Int_Tables_number   1
_chemical_formula_structural   Mg2PO8
_chemical_formula_sum   'Mg8 P4 O32'
_cell_volume   555.08829898
_cell_formula_units_Z   4
loop_
 _symmetry_equiv_pos_site_id
 _symmetry_equiv_pos_as_xyz
  1  'x, y, z'
loop_
 _atom_site_type_symbol
 _atom_site_label
 _atom_site_symmetry_multiplicity
 _atom_site_fract_x
 _atom_site_fract_y
 _atom_site_fract_z
 _atom_site_occupancy
  Mg  Mg0  1  0.09532100  0.68263100  0.01025100  1
  Mg  Mg1  1  0.90467900  0.81736900  0.51025100  1
  Mg  Mg2  1  0.90467900  0.31736900  0.98974900  1
  Mg  Mg3  1  0.09532100  0.18263100  0.48974900  1
  Mg  Mg4  1  0.97787600  0.51749200  0.23444800  1
  Mg  Mg5  1  0.02212400  0.98250800  0.73444800  1
  Mg  Mg6  1  0.02212400  0.48250800  0.76555200  1
  Mg  Mg7  1  0.97787600  0.01749200  0.26555200  1
  P  P0  1  0.59851900  0.74482600  0.18630800  1
  P  P1  1  0.40148100  0.75517400  0.68630800  1
  P  P2  1  0.40148100  0.25517400  0.81369200  1
  P  P3  1  0.59851900  0.24482600  0.31369200  1
  O  O0  1  0.58840500  0.88952100  0.22856400  1
  O  O1  1  0.41159500  0.61047900  0.72856400  1
  O  O2  1  0.41159500  0.11047900  0.77143600  1
  O  O3  1  0.58840500  0.38952100  0.27143600  1
  O  O4  1  0.75934300  0.67085300  0.27247700  1
  O  O5  1  0.24065700  0.82914700  0.77247700  1
  O  O6  1  0.24065700  0.32914700  0.72752300  1
  O  O7  1  0.75934300  0.17085300  0.22752300  1
  O  O8  1  0.29167900  0.66185000  0.16300900  1
  O  O9  1  0.70832100  0.83815000  0.66300900  1
  O  O10  1  0.70832100  0.33815000  0.83699100  1
  O  O11  1  0.29167900  0.16185000  0.33699100  1
  O  O12  1  0.77205600  0.76413300  0.07490800  1
  O  O13  1  0.22794400  0.73586700  0.57490800  1
  O  O14  1  0.22794400  0.23586700  0.92509200  1
  O  O15  1  0.77205600  0.26413300  0.42509200  1
  O  O16  1  0.82703500  0.48917300  0.06416900  1
  O  O17  1  0.17296500  0.01082700  0.56416900  1
  O  O18  1  0.17296500  0.51082700  0.93583100  1
  O  O19  1  0.82703500  0.98917300  0.43583100  1
  O  O20  1  0.91806700  0.64812400  0.85126400  1
  O  O21  1  0.08193300  0.85187600  0.35126400  1
  O  O22  1  0.08193300  0.35187600  0.14873600  1
  O  O23  1  0.91806700  0.14812400  0.64873600  1
  O  O24  1  0.43211800  0.85901800  0.97412400  1
  O  O25  1  0.56788200  0.64098200  0.47412400  1
  O  O26  1  0.56788200  0.14098200  0.02587600  1
  O  O27  1  0.43211800  0.35901800  0.52587600  1
  O  O28  1  0.26418800  0.46817600  0.38711700  1
  O  O29  1  0.73581200  0.03182400  0.88711700  1
  O  O30  1  0.73581200  0.53182400  0.61288300  1
  O  O31  1  0.26418800  0.96817600  0.11288300  1
loop_
_geom_bond_atom_site_label_1
_geom_bond_atom_site_label_2
_geom_bond_distance
_geom_bond_site_symmetry_2
Mg0 O12 2.000672 1_455
Mg0 O18 2.042922 1_554
Mg0 O8 2.084717 1_555
Mg0 O20 2.091010 1_454
Mg0 O24 2.180163 1_554
Mg0 O16 2.206069 1_455
Mg1 O13 2.000672 1_655
Mg1 O19 2.042922 1_555
Mg1 O9 2.084717 1_555
Mg1 O21 2.091010 1_655
Mg1 O25 2.180163 1_555
Mg1 O17 2.206069 1_665
Mg2 O14 2.000672 1_655
Mg2 O16 2.042922 1_556
Mg2 O10 2.084717 1_555
Mg2 O22 2.091010 1_656
Mg2 O26 2.180163 1_556
Mg2 O18 2.206069 1_655
Mg3 O15 2.000672 1_455
Mg3 O17 2.042922 1_555
Mg3 O11 2.084717 1_555
Mg3 O23 2.091010 1_455
Mg3 O27 2.180163 1_555
Mg3 O19 2.206069 1_445
Mg4 O8 2.046378 1_655
Mg4 O4 2.055072 1_555
Mg4 O3 2.063356 1_555
Mg4 O22 2.096834 1_655
Mg4 O16 2.172540 1_555
Mg4 O28 2.378845 1_655
Mg5 O9 2.046378 1_455
Mg5 O5 2.055072 1_555
Mg5 O2 2.063356 1_565
Mg5 O23 2.096834 1_465
Mg5 O17 2.172540 1_565
Mg5 O29 2.378845 1_465
Mg6 O10 2.046378 1_455
Mg6 O6 2.055072 1_555
Mg6 O1 2.063356 1_555
Mg6 O20 2.096834 1_455
Mg6 O18 2.172540 1_555
Mg6 O30 2.378845 1_455
Mg7 O11 2.046378 1_655
Mg7 O7 2.055072 1_555
Mg7 O0 2.063356 1_545
Mg7 O21 2.096834 1_645
Mg7 O19 2.172540 1_545
Mg7 O31 2.378845 1_645
O0 P0 1.554741 1_555
O1 P1 1.554741 1_555
O2 P2 1.554741 1_555
O3 P3 1.554741 1_555
O4 P0 1.550959 1_555
O5 P1 1.550959 1_555
O6 P2 1.550959 1_555
O7 P3 1.550959 1_555
O8 P0 1.536531 1_555
O9 P1 1.536531 1_555
O10 P2 1.536531 1_555
O11 P3 1.536531 1_555
O12 P0 1.560700 1_555
O13 P1 1.560700 1_555
O14 P2 1.560700 1_555
O15 P3 1.560700 1_555
