# generated using pymatgen
data_Li3Mg5
_symmetry_space_group_name_H-M   'P 1'
_cell_length_a   6.12291809
_cell_length_b   6.12291809
_cell_length_c   6.12291809
_cell_angle_alpha   117.03228908
_cell_angle_beta   117.03228908
_cell_angle_gamma   95.22199565
_symmetry_Int_Tables_number   1
_chemical_formula_structural   Li3Mg5
_chemical_formula_sum   'Li3 Mg5'
_cell_volume   168.83769502
_cell_formula_units_Z   1
loop_
 _symmetry_equiv_pos_site_id
 _symmetry_equiv_pos_as_xyz
  1  'x, y, z'
loop_
 _atom_site_type_symbol
 _atom_site_label
 _atom_site_symmetry_multiplicity
 _atom_site_fract_x
 _atom_site_fract_y
 _atom_site_fract_z
 _atom_site_occupancy
  Li  Li0  1  0.50000000  0.00000000  0.50000000  1
  Li  Li1  1  -0.00000000  0.50000000  0.50000000  1
  Li  Li2  1  0.50000000  0.50000000  0.00000000  1
  Mg  Mg0  1  0.50000000  0.50000000  0.50000000  1
  Mg  Mg1  1  -0.00000000  -0.00000000  0.50000000  1
  Mg  Mg2  1  0.50000000  0.00000000  0.00000000  1
  Mg  Mg3  1  0.00000000  0.50000000  -0.00000000  1
  Mg  Mg4  1  0.00000000  0.00000000  0.00000000  1
loop_
_geom_bond_atom_site_label_1
_geom_bond_atom_site_label_2
_geom_bond_distance
_geom_bond_site_symmetry_2
Li0 Mg2 3.061459 1_556
Li0 Mg1 3.061459 1_655
Li0 Mg2 3.061459 1_555
Li0 Mg0 3.061459 1_545
Li0 Mg3 3.061459 1_656
Li0 Mg0 3.061459 1_555
Li0 Mg1 3.061459 1_555
Li0 Mg3 3.061459 1_545
Li0 Mg4 3.197745 1_555
Li0 Li2 3.197745 1_545
Li0 Li2 3.197745 1_556
Li0 Mg4 3.197745 1_656
Li1 Mg3 3.061459 1_556
Li1 Mg2 3.061459 1_455
Li1 Mg1 3.061459 1_565
Li1 Mg0 3.061459 1_455
Li1 Mg3 3.061459 1_555
Li1 Mg2 3.061459 1_566
Li1 Mg0 3.061459 1_555
Li1 Mg1 3.061459 1_555
Li1 Mg4 3.197745 1_555
Li1 Li2 3.197745 1_455
Li1 Mg4 3.197745 1_566
Li1 Li2 3.197745 1_556
Li2 Mg0 3.061459 1_554
Li2 Mg1 3.061459 1_554
Li2 Mg1 3.061459 1_665
Li2 Mg2 3.061459 1_555
Li2 Mg3 3.061459 1_555
Li2 Mg0 3.061459 1_555
Li2 Mg2 3.061459 1_565
Li2 Mg3 3.061459 1_655
Mg0 Mg4 3.061459 1_666
Mg0 Mg4 3.061459 1_555
Mg0 Mg3 3.197745 1_656
Mg0 Mg3 3.197745 1_555
Mg0 Mg2 3.197745 1_555
Mg0 Mg2 3.197745 1_566
Mg1 Mg4 3.061459 1_556
Mg1 Mg4 3.061459 1_555
Mg1 Mg3 3.197745 1_545
Mg1 Mg3 3.197745 1_556
Mg1 Mg2 3.197745 1_455
Mg1 Mg2 3.197745 1_556
Mg2 Mg4 3.061459 1_655
Mg2 Mg4 3.061459 1_555
Mg3 Mg4 3.061459 1_555
Mg3 Mg4 3.061459 1_565
