# generated using pymatgen
data_Mg5Zn
_symmetry_space_group_name_H-M   'P 1'
_cell_length_a   11.90067166
_cell_length_b   11.90067166
_cell_length_c   14.55133352
_cell_angle_alpha   74.92865559
_cell_angle_beta   74.92865559
_cell_angle_gamma   30.07859013
_symmetry_Int_Tables_number   1
_chemical_formula_structural   Mg5Zn
_chemical_formula_sum   'Mg40 Zn8'
_cell_volume   994.72879828
_cell_formula_units_Z   8
loop_
 _symmetry_equiv_pos_site_id
 _symmetry_equiv_pos_as_xyz
  1  'x, y, z'
loop_
 _atom_site_type_symbol
 _atom_site_label
 _atom_site_symmetry_multiplicity
 _atom_site_fract_x
 _atom_site_fract_y
 _atom_site_fract_z
 _atom_site_occupancy
  Mg  Mg0_0  1  0.00257667  0.00257668  0.00734058  1
  Mg  Mg0_1  1  0.00257667  0.00257667  0.50734058  1
  Mg  Mg0_2  1  0.00257668  0.50257667  0.00734058  1
  Mg  Mg0_3  1  0.00257668  0.50257668  0.50734058  1
  Mg  Mg0_4  1  0.50257667  0.00257668  0.00734058  1
  Mg  Mg0_5  1  0.50257668  0.00257668  0.50734058  1
  Mg  Mg0_6  1  0.50257667  0.50257667  0.00734058  1
  Mg  Mg0_7  1  0.50257668  0.50257668  0.50734058  1
  Mg  Mg1_0  1  0.16150943  0.16150943  0.16600497  1
  Mg  Mg1_1  1  0.16150943  0.16150943  0.66600497  1
  Mg  Mg1_2  1  0.16150943  0.66150943  0.16600497  1
  Mg  Mg1_3  1  0.16150943  0.66150943  0.66600497  1
  Mg  Mg1_4  1  0.66150943  0.16150943  0.16600497  1
  Mg  Mg1_5  1  0.66150943  0.16150943  0.66600497  1
  Mg  Mg1_6  1  0.66150943  0.66150943  0.16600498  1
  Mg  Mg1_7  1  0.66150943  0.66150943  0.66600497  1
  Mg  Mg2_0  1  0.47590607  0.47590607  0.29580178  1
  Mg  Mg2_1  1  0.47590607  0.47590607  0.79580178  1
  Mg  Mg2_2  1  0.47590607  0.97590607  0.29580178  1
  Mg  Mg2_3  1  0.47590607  0.97590607  0.79580178  1
  Mg  Mg2_4  1  0.97590607  0.47590607  0.29580178  1
  Mg  Mg2_5  1  0.97590607  0.47590607  0.79580178  1
  Mg  Mg2_6  1  0.97590607  0.97590607  0.29580178  1
  Mg  Mg2_7  1  0.97590607  0.97590607  0.79580178  1
  Mg  Mg3_0  1  0.33330975  0.33330975  0.33250562  1
  Mg  Mg3_1  1  0.33330975  0.33330975  0.83250561  1
  Mg  Mg3_2  1  0.33330975  0.83330975  0.33250561  1
  Mg  Mg3_3  1  0.33330975  0.83330975  0.83250561  1
  Mg  Mg3_4  1  0.83330975  0.33330975  0.33250561  1
  Mg  Mg3_5  1  0.83330975  0.33330975  0.83250561  1
  Mg  Mg3_6  1  0.83330975  0.83330975  0.33250562  1
  Mg  Mg3_7  1  0.83330975  0.83330975  0.83250561  1
  Mg  Mg4_0  1  0.13826490  0.13826490  0.47531510  1
  Mg  Mg4_1  1  0.13826490  0.13826490  0.97531510  1
  Mg  Mg4_2  1  0.13826490  0.63826490  0.47531509  1
  Mg  Mg4_3  1  0.13826490  0.63826490  0.97531510  1
  Mg  Mg4_4  1  0.63826490  0.13826490  0.47531509  1
  Mg  Mg4_5  1  0.63826490  0.13826490  0.97531510  1
  Mg  Mg4_6  1  0.63826490  0.63826490  0.47531510  1
  Mg  Mg4_7  1  0.63826490  0.63826490  0.97531510  1
  Zn  Zn0_0  1  0.30509968  0.30509968  0.13969895  1
  Zn  Zn0_1  1  0.30509968  0.30509968  0.63969895  1
  Zn  Zn0_2  1  0.30509968  0.80509968  0.13969895  1
  Zn  Zn0_3  1  0.30509968  0.80509968  0.63969895  1
  Zn  Zn0_4  1  0.80509968  0.30509968  0.13969895  1
  Zn  Zn0_5  1  0.80509968  0.30509968  0.63969895  1
  Zn  Zn0_6  1  0.80509968  0.80509968  0.13969895  1
  Zn  Zn0_7  1  0.80509968  0.80509968  0.63969895  1
loop_
_geom_bond_atom_site_label_1
_geom_bond_atom_site_label_2
_geom_bond_distance
_geom_bond_site_symmetry_2
Mg0_0 Zn0_2 2.966997 1_545
Mg0_0 Zn0_4 2.966997 1_455
Mg0_0 Mg4_1 3.026929 1_554
Mg0_0 Mg1_2 3.081194 1_545
Mg0_0 Mg1_4 3.081194 1_455
Mg0_0 Mg0_6 3.088003 1_545
Mg0_0 Mg0_6 3.088003 1_455
Mg0_0 Mg3_3 3.123744 1_544
Mg0_0 Mg3_5 3.123744 1_454
Mg0_0 Mg4_5 3.188208 1_454
Mg0_0 Mg4_3 3.188208 1_544
Mg0_0 Mg2_7 3.296535 1_444
Mg0_1 Zn0_3 2.966997 1_545
Mg0_1 Zn0_5 2.966997 1_455
Mg0_1 Mg4_0 3.026929 1_555
Mg0_1 Mg1_3 3.081194 1_545
Mg0_1 Mg1_5 3.081194 1_455
Mg0_1 Mg0_7 3.088003 1_455
Mg0_1 Mg0_7 3.088003 1_545
Mg0_1 Mg3_4 3.123744 1_455
Mg0_1 Mg3_2 3.123744 1_545
Mg0_1 Mg4_4 3.188208 1_455
Mg0_1 Mg4_2 3.188208 1_545
Mg0_1 Mg2_6 3.296535 1_445
Mg0_2 Zn0_0 2.966997 1_555
Mg0_2 Zn0_6 2.966997 1_455
Mg0_2 Mg4_3 3.026929 1_554
Mg0_2 Mg1_0 3.081194 1_555
Mg0_2 Mg1_6 3.081194 1_455
Mg0_2 Mg0_4 3.088003 1_555
Mg0_2 Mg0_4 3.088003 1_465
Mg0_2 Mg3_7 3.123744 1_454
Mg0_2 Mg3_1 3.123744 1_554
Mg0_2 Mg4_1 3.188208 1_554
Mg0_2 Mg4_7 3.188208 1_454
Mg0_2 Mg2_5 3.296535 1_454
Mg0_3 Zn0_1 2.966997 1_555
Mg0_3 Zn0_7 2.966997 1_455
Mg0_3 Mg4_2 3.026929 1_555
Mg0_3 Mg1_1 3.081194 1_555
Mg0_3 Mg1_7 3.081194 1_455
Mg0_3 Mg0_5 3.088003 1_555
Mg0_3 Mg0_5 3.088003 1_465
Mg0_3 Mg3_6 3.123744 1_455
Mg0_3 Mg3_0 3.123744 1_555
Mg0_3 Mg4_6 3.188208 1_455
Mg0_3 Mg4_0 3.188208 1_555
Mg0_3 Mg2_4 3.296535 1_455
Mg0_4 Zn0_0 2.966997 1_555
Mg0_4 Zn0_6 2.966997 1_545
Mg0_4 Mg4_5 3.026929 1_554
Mg0_4 Mg1_0 3.081194 1_555
Mg0_4 Mg1_6 3.081194 1_545
Mg0_4 Mg3_1 3.123744 1_554
Mg0_4 Mg3_7 3.123744 1_544
Mg0_4 Mg4_7 3.188208 1_544
Mg0_4 Mg4_1 3.188208 1_554
Mg0_4 Mg2_3 3.296535 1_544
Mg0_5 Zn0_1 2.966997 1_555
Mg0_5 Zn0_7 2.966997 1_545
Mg0_5 Mg4_4 3.026929 1_555
Mg0_5 Mg1_1 3.081194 1_555
Mg0_5 Mg1_7 3.081194 1_545
Mg0_5 Mg3_6 3.123744 1_545
Mg0_5 Mg3_0 3.123744 1_555
Mg0_5 Mg4_0 3.188208 1_555
Mg0_5 Mg4_6 3.188208 1_545
Mg0_5 Mg2_2 3.296535 1_545
Mg0_6 Zn0_4 2.966997 1_555
Mg0_6 Zn0_2 2.966997 1_555
Mg0_6 Mg4_7 3.026929 1_554
Mg0_6 Mg1_2 3.081194 1_555
Mg0_6 Mg1_4 3.081194 1_555
Mg0_6 Mg3_5 3.123744 1_554
Mg0_6 Mg3_3 3.123744 1_554
Mg0_6 Mg4_3 3.188208 1_554
Mg0_6 Mg4_5 3.188208 1_554
Mg0_6 Mg2_1 3.296535 1_554
Mg0_7 Zn0_5 2.966997 1_555
Mg0_7 Zn0_3 2.966997 1_555
Mg0_7 Mg4_6 3.026929 1_555
Mg0_7 Mg1_3 3.081194 1_555
Mg0_7 Mg1_5 3.081194 1_555
Mg0_7 Mg3_4 3.123744 1_555
Mg0_7 Mg3_2 3.123744 1_555
Mg0_7 Mg4_4 3.188208 1_555
Mg0_7 Mg4_2 3.188208 1_555
Mg0_7 Mg2_0 3.296535 1_555
Mg1_0 Mg4_1 2.963663 1_554
Mg1_0 Zn0_2 3.002880 1_545
Mg1_0 Zn0_4 3.002880 1_455
Mg1_0 Mg3_2 3.023217 1_545
Mg1_0 Mg3_4 3.023217 1_455
Mg1_0 Mg1_6 3.088003 1_455
Mg1_0 Mg1_6 3.088003 1_545
Mg1_0 Mg2_2 3.106080 1_545
Mg1_0 Mg2_4 3.106080 1_455
Mg1_0 Zn0_0 3.218698 1_555
Mg1_1 Mg4_0 2.963663 1_555
Mg1_1 Zn0_5 3.002880 1_455
Mg1_1 Zn0_3 3.002880 1_545
Mg1_1 Mg3_5 3.023217 1_455
Mg1_1 Mg3_3 3.023217 1_545
Mg1_1 Mg1_7 3.088003 1_455
Mg1_1 Mg1_7 3.088003 1_545
Mg1_1 Mg2_5 3.106080 1_455
Mg1_1 Mg2_3 3.106080 1_545
Mg1_1 Zn0_1 3.218698 1_555
Mg1_2 Mg4_3 2.963663 1_554
Mg1_2 Zn0_6 3.002880 1_455
Mg1_2 Zn0_0 3.002880 1_555
Mg1_2 Mg3_0 3.023217 1_555
Mg1_2 Mg3_6 3.023217 1_455
Mg1_2 Mg1_4 3.088003 1_555
Mg1_2 Mg1_4 3.088003 1_465
Mg1_2 Mg2_0 3.106080 1_555
Mg1_2 Mg2_6 3.106080 1_455
Mg1_2 Zn0_2 3.218698 1_555
Mg1_3 Mg4_2 2.963663 1_555
Mg1_3 Zn0_7 3.002880 1_455
Mg1_3 Zn0_1 3.002880 1_555
Mg1_3 Mg3_7 3.023217 1_455
Mg1_3 Mg3_1 3.023217 1_555
Mg1_3 Mg1_5 3.088003 1_555
Mg1_3 Mg1_5 3.088003 1_465
Mg1_3 Mg2_1 3.106080 1_555
Mg1_3 Mg2_7 3.106080 1_455
Mg1_3 Zn0_3 3.218698 1_555
Mg1_4 Mg4_5 2.963663 1_554
Mg1_4 Zn0_0 3.002880 1_555
Mg1_4 Zn0_6 3.002880 1_545
Mg1_4 Mg3_0 3.023217 1_555
Mg1_4 Mg3_6 3.023217 1_545
Mg1_4 Mg2_0 3.106080 1_555
Mg1_4 Mg2_6 3.106080 1_545
Mg1_4 Zn0_4 3.218698 1_555
Mg1_5 Mg4_4 2.963663 1_555
Mg1_5 Zn0_7 3.002880 1_545
Mg1_5 Zn0_1 3.002880 1_555
Mg1_5 Mg3_1 3.023217 1_555
Mg1_5 Mg3_7 3.023217 1_545
Mg1_5 Mg2_7 3.106080 1_545
Mg1_5 Mg2_1 3.106080 1_555
Mg1_5 Zn0_5 3.218698 1_555
Mg1_6 Mg4_7 2.963663 1_554
Mg1_6 Zn0_2 3.002880 1_555
Mg1_6 Zn0_4 3.002880 1_555
Mg1_6 Mg3_4 3.023217 1_555
Mg1_6 Mg3_2 3.023217 1_555
Mg1_6 Mg2_4 3.106080 1_555
Mg1_6 Mg2_2 3.106080 1_555
Mg1_6 Zn0_6 3.218698 1_555
Mg1_7 Mg4_6 2.963663 1_555
Mg1_7 Zn0_3 3.002880 1_555
Mg1_7 Zn0_5 3.002880 1_555
Mg1_7 Mg3_5 3.023217 1_555
Mg1_7 Mg3_3 3.023217 1_555
Mg1_7 Mg2_3 3.106080 1_555
Mg1_7 Mg2_5 3.106080 1_555
Mg1_7 Zn0_7 3.218698 1_555
Mg2_0 Zn0_4 2.937813 1_555
Mg2_0 Zn0_2 2.937813 1_555
Mg2_0 Mg3_4 3.078011 1_555
Mg2_0 Mg3_2 3.078011 1_555
Mg2_0 Mg2_6 3.088003 1_455
Mg2_0 Mg2_6 3.088003 1_545
Mg2_0 Mg3_0 3.175864 1_555
Mg2_0 Mg4_4 3.229857 1_555
Mg2_0 Mg4_2 3.229857 1_555
Mg2_1 Zn0_3 2.937813 1_555
Mg2_1 Zn0_5 2.937813 1_555
Mg2_1 Mg3_3 3.078011 1_555
Mg2_1 Mg3_5 3.078011 1_555
Mg2_1 Mg2_7 3.088003 1_545
Mg2_1 Mg2_7 3.088003 1_455
Mg2_1 Mg3_1 3.175864 1_555
Mg2_1 Mg4_3 3.229857 1_555
Mg2_1 Mg4_5 3.229857 1_555
Mg2_2 Zn0_6 2.937813 1_555
Mg2_2 Zn0_0 2.937813 1_565
Mg2_2 Mg3_6 3.078011 1_555
Mg2_2 Mg3_0 3.078011 1_565
Mg2_2 Mg2_4 3.088003 1_555
Mg2_2 Mg2_4 3.088003 1_465
Mg2_2 Mg3_2 3.175864 1_555
Mg2_2 Mg4_6 3.229857 1_555
Mg2_2 Mg4_0 3.229857 1_565
Mg2_3 Zn0_1 2.937813 1_565
Mg2_3 Zn0_7 2.937813 1_555
Mg2_3 Mg3_7 3.078011 1_555
Mg2_3 Mg3_1 3.078011 1_565
Mg2_3 Mg2_5 3.088003 1_555
Mg2_3 Mg2_5 3.088003 1_465
Mg2_3 Mg3_3 3.175864 1_555
Mg2_3 Mg4_1 3.229857 1_565
Mg2_3 Mg4_7 3.229857 1_555
Mg2_4 Zn0_6 2.937813 1_555
Mg2_4 Zn0_0 2.937813 1_655
Mg2_4 Mg3_6 3.078011 1_555
Mg2_4 Mg3_0 3.078011 1_655
Mg2_4 Mg3_4 3.175864 1_555
Mg2_4 Mg4_6 3.229857 1_555
Mg2_4 Mg4_0 3.229857 1_655
Mg2_5 Zn0_1 2.937813 1_655
Mg2_5 Zn0_7 2.937813 1_555
Mg2_5 Mg3_7 3.078011 1_555
Mg2_5 Mg3_1 3.078011 1_655
Mg2_5 Mg3_5 3.175864 1_555
Mg2_5 Mg4_7 3.229857 1_555
Mg2_5 Mg4_1 3.229857 1_655
Mg2_6 Zn0_2 2.937813 1_655
Mg2_6 Zn0_4 2.937813 1_565
Mg2_6 Mg3_2 3.078011 1_655
Mg2_6 Mg3_4 3.078011 1_565
Mg2_6 Mg3_6 3.175864 1_555
Mg2_6 Mg4_2 3.229857 1_655
Mg2_6 Mg4_4 3.229857 1_565
Mg2_7 Zn0_5 2.937813 1_565
Mg2_7 Zn0_3 2.937813 1_655
Mg2_7 Mg3_5 3.078011 1_565
Mg2_7 Mg3_3 3.078011 1_655
Mg2_7 Mg3_7 3.175864 1_555
Mg2_7 Mg4_5 3.229857 1_565
Mg2_7 Mg4_3 3.229857 1_655
Mg3_0 Zn0_0 3.044910 1_555
Mg3_0 Mg3_6 3.088003 1_545
Mg3_0 Mg3_6 3.088003 1_455
Mg3_0 Mg4_2 3.116334 1_555
Mg3_0 Mg4_4 3.116334 1_555
Mg3_1 Zn0_1 3.044910 1_555
Mg3_1 Mg3_7 3.088003 1_545
Mg3_1 Mg3_7 3.088003 1_455
Mg3_1 Mg4_5 3.116334 1_555
Mg3_1 Mg4_3 3.116334 1_555
Mg3_2 Zn0_2 3.044910 1_555
Mg3_2 Mg3_4 3.088003 1_555
Mg3_2 Mg3_4 3.088003 1_465
Mg3_2 Mg4_0 3.116334 1_565
Mg3_2 Mg4_6 3.116334 1_555
Mg3_3 Zn0_3 3.044910 1_555
Mg3_3 Mg3_5 3.088003 1_555
Mg3_3 Mg3_5 3.088003 1_465
Mg3_3 Mg4_7 3.116334 1_555
Mg3_3 Mg4_1 3.116334 1_565
Mg3_4 Zn0_4 3.044910 1_555
Mg3_4 Mg4_6 3.116334 1_555
Mg3_4 Mg4_0 3.116334 1_655
Mg3_5 Zn0_5 3.044910 1_555
Mg3_5 Mg4_7 3.116334 1_555
Mg3_5 Mg4_1 3.116334 1_655
Mg3_6 Zn0_6 3.044910 1_555
Mg3_6 Mg4_2 3.116334 1_655
Mg3_6 Mg4_4 3.116334 1_565
Mg3_7 Zn0_7 3.044910 1_555
Mg3_7 Mg4_5 3.116334 1_565
Mg3_7 Mg4_3 3.116334 1_655
Mg4_0 Zn0_3 3.049211 1_545
Mg4_0 Zn0_5 3.049211 1_455
Mg4_0 Mg4_6 3.088003 1_455
Mg4_0 Mg4_6 3.088003 1_545
Mg4_1 Zn0_2 3.049211 1_546
Mg4_1 Zn0_4 3.049211 1_456
Mg4_1 Mg4_7 3.088003 1_545
Mg4_1 Mg4_7 3.088003 1_455
Mg4_2 Zn0_7 3.049211 1_455
Mg4_2 Zn0_1 3.049211 1_555
Mg4_2 Mg4_4 3.088003 1_555
Mg4_2 Mg4_4 3.088003 1_465
Mg4_3 Zn0_0 3.049211 1_556
Mg4_3 Zn0_6 3.049211 1_456
Mg4_3 Mg4_5 3.088003 1_555
Mg4_3 Mg4_5 3.088003 1_465
Mg4_4 Zn0_7 3.049211 1_545
Mg4_4 Zn0_1 3.049211 1_555
Mg4_5 Zn0_6 3.049211 1_546
Mg4_5 Zn0_0 3.049211 1_556
Mg4_6 Zn0_3 3.049211 1_555
Mg4_6 Zn0_5 3.049211 1_555
Mg4_7 Zn0_2 3.049211 1_556
Mg4_7 Zn0_4 3.049211 1_556
Zn0_0 Zn0_6 3.088003 1_545
Zn0_0 Zn0_6 3.088003 1_455
Zn0_1 Zn0_7 3.088003 1_455
Zn0_1 Zn0_7 3.088003 1_545
Zn0_2 Zn0_4 3.088003 1_465
Zn0_2 Zn0_4 3.088003 1_555
Zn0_3 Zn0_5 3.088003 1_465
Zn0_3 Zn0_5 3.088003 1_555
