# generated using pymatgen
data_LiGa4(WO6)2
_symmetry_space_group_name_H-M   'P 1'
_cell_length_a   4.71331017
_cell_length_b   4.71338212
_cell_length_c   9.24088600
_cell_angle_alpha   90.00000000
_cell_angle_beta   90.00000000
_cell_angle_gamma   88.52181700
_symmetry_Int_Tables_number   1
_chemical_formula_structural   LiGa4(WO6)2
_chemical_formula_sum   'Li1 Ga4 W2 O12'
_cell_volume   205.22380437
_cell_formula_units_Z   1
loop_
 _symmetry_equiv_pos_site_id
 _symmetry_equiv_pos_as_xyz
  1  'x, y, z'
loop_
 _atom_site_type_symbol
 _atom_site_label
 _atom_site_symmetry_multiplicity
 _atom_site_fract_x
 _atom_site_fract_y
 _atom_site_fract_z
 _atom_site_occupancy
  Li  Li0  1  0.31032300  0.31033500  0.00000000  1
  Ga  Ga0  1  0.00923200  0.00923100  0.33732600  1
  Ga  Ga1  1  0.00923200  0.00923100  0.66267400  1
  Ga  Ga2  1  0.52542300  0.52541800  0.17976000  1
  Ga  Ga3  1  0.52542300  0.52541800  0.82024000  1
  W  W0  1  0.97340700  0.97340600  0.00000000  1
  W  W1  1  0.50424800  0.50424800  0.50000000  1
  O  O0  1  0.18131100  0.18130000  0.16614200  1
  O  O1  1  0.18131100  0.18130000  0.83385800  1
  O  O2  1  0.20429600  0.20428600  0.50000000  1
  O  O3  1  0.30172700  0.69367000  0.00000000  1
  O  O4  1  0.30409000  0.69392000  0.34219100  1
  O  O5  1  0.30409000  0.69392000  0.65780900  1
  O  O6  1  0.69393300  0.30409900  0.34219100  1
  O  O7  1  0.69393300  0.30409900  0.65780900  1
  O  O8  1  0.69367500  0.30174100  0.00000000  1
  O  O9  1  0.79725400  0.79725900  0.50000000  1
  O  O10  1  0.80346700  0.80348300  0.17409100  1
  O  O11  1  0.80346700  0.80348300  0.82590900  1
loop_
_geom_bond_atom_site_label_1
_geom_bond_atom_site_label_2
_geom_bond_distance
_geom_bond_site_symmetry_2
Li0 O0 1.765184 1_555
Li0 O1 1.765184 1_554
Li0 O3 1.806213 1_555
Li0 O8 1.806266 1_555
Li0 W0 2.274599 1_445
Ga0 O0 1.962627 1_555
Ga0 O2 1.998476 1_555
Ga0 O6 2.008874 1_455
Ga0 O4 2.008885 1_545
Ga0 O10 2.050593 1_445
Ga0 O9 2.075504 1_445
Ga1 O1 1.962627 1_555
Ga1 O2 1.998476 1_555
Ga1 O7 2.008874 1_455
Ga1 O5 2.008885 1_545
Ga1 O11 2.050593 1_445
Ga1 O9 2.075504 1_445
Ga2 O10 1.877906 1_555
Ga2 O6 1.982240 1_555
Ga2 O4 1.982256 1_555
Ga2 O8 2.111076 1_555
Ga2 O3 2.111116 1_555
Ga2 Li0 2.206355 1_555
Ga2 O0 2.326563 1_555
Ga3 O11 1.877906 1_555
Ga3 O7 1.982240 1_555
Ga3 O5 1.982256 1_555
Ga3 O8 2.111076 1_556
Ga3 O3 2.111116 1_556
Ga3 Li0 2.206355 1_556
Ga3 O1 2.326563 1_555
O0 W0 2.080166 1_445
O1 W0 2.080166 1_446
O2 W1 2.025041 1_555
O3 W0 2.006952 1_455
O4 W1 1.942256 1_555
O5 W1 1.942256 1_555
O6 W1 1.942264 1_555
O7 W1 1.942264 1_555
O8 W0 2.006999 1_545
O9 W1 1.978131 1_555
O10 W0 1.975910 1_555
O11 W0 1.975910 1_556
