# generated using pymatgen
data_LaCoO3
_symmetry_space_group_name_H-M   'P 1'
_cell_length_a   5.47524949
_cell_length_b   5.46835579
_cell_length_c   5.44102680
_cell_angle_alpha   61.18310058
_cell_angle_beta   61.09933598
_cell_angle_gamma   61.05012142
_symmetry_Int_Tables_number   1
_chemical_formula_structural   LaCoO3
_chemical_formula_sum   'La2 Co2 O6'
_cell_volume   118.07297698
_cell_formula_units_Z   2
loop_
 _symmetry_equiv_pos_site_id
 _symmetry_equiv_pos_as_xyz
  1  'x, y, z'
loop_
 _atom_site_type_symbol
 _atom_site_label
 _atom_site_symmetry_multiplicity
 _atom_site_fract_x
 _atom_site_fract_y
 _atom_site_fract_z
 _atom_site_occupancy
  La  La0  1  0.74812000  0.75038400  0.25177200  1
  La  La1  1  0.25188000  0.24961700  0.74822800  1
  Co  Co0  1  0.50000000  0.50000000  0.00000000  1
  Co  Co1  1  0.00000000  0.00000000  0.50000000  1
  O  O0  1  0.24633900  0.69223600  0.31666800  1
  O  O1  1  0.75366100  0.30776500  0.68333100  1
  O  O2  1  0.82102100  0.24177200  0.19225400  1
  O  O3  1  0.17897900  0.75822900  0.80774600  1
  O  O4  1  0.69399000  0.81912400  0.73701900  1
  O  O5  1  0.30601000  0.18087600  0.26298100  1
loop_
_geom_bond_atom_site_label_1
_geom_bond_atom_site_label_2
_geom_bond_distance
_geom_bond_site_symmetry_2
La0 O5 2.425726 1_565
La0 O1 2.427298 1_555
La0 O3 2.427544 1_654
La0 O4 2.700473 1_555
La0 O2 2.749386 1_565
La0 O0 2.752028 1_555
La0 O0 2.765892 1_655
La0 O2 2.769166 1_555
La0 O4 2.784439 1_554
La1 O4 2.425729 1_545
La1 O0 2.427300 1_555
La1 O2 2.427544 1_456
La1 O5 2.700476 1_555
La1 O3 2.749386 1_545
La1 O1 2.752026 1_555
La1 O1 2.765895 1_455
La1 O3 2.769166 1_555
La1 O5 2.784437 1_556
Co0 O0 2.005580 1_555
Co0 O1 2.005580 1_554
Co0 O2 2.031762 1_555
Co0 O3 2.031762 1_554
Co0 O5 2.034472 1_555
Co0 O4 2.034472 1_554
Co1 O3 1.926060 1_545
Co1 O2 1.926060 1_455
Co1 O5 1.932560 1_555
Co1 O4 1.932560 1_445
Co1 O0 1.940879 1_545
Co1 O1 1.940880 1_455
