# generated using pymatgen
data_Ti2Te3
_symmetry_space_group_name_H-M   'P 1'
_cell_length_a   7.51625911
_cell_length_b   7.93879419
_cell_length_c   9.30615426
_cell_angle_alpha   90.57253868
_cell_angle_beta   104.08189805
_cell_angle_gamma   106.12688522
_symmetry_Int_Tables_number   1
_chemical_formula_structural   Ti2Te3
_chemical_formula_sum   'Ti8 Te12'
_cell_volume   515.61997718
_cell_formula_units_Z   4
loop_
 _symmetry_equiv_pos_site_id
 _symmetry_equiv_pos_as_xyz
  1  'x, y, z'
loop_
 _atom_site_type_symbol
 _atom_site_label
 _atom_site_symmetry_multiplicity
 _atom_site_fract_x
 _atom_site_fract_y
 _atom_site_fract_z
 _atom_site_occupancy
  Ti  Ti0  1  0.50950256  0.24282643  0.01848737  1
  Ti  Ti1  1  0.85411804  0.55718806  0.35351270  1
  Ti  Ti2  1  0.16196221  0.88407620  0.66595685  1
  Ti  Ti3  1  0.49049744  0.75717357  0.98151263  1
  Ti  Ti4  1  0.83803779  0.11592380  0.33404315  1
  Ti  Ti5  1  0.14588196  0.44281194  0.64648730  1
  Ti  Ti6  1  0.82836031  0.83466921  0.83620831  1
  Ti  Ti7  1  0.17163969  0.16533079  0.16379169  1
  Te  Te0  1  0.43874202  0.97765352  0.20194738  1
  Te  Te1  1  0.75699369  0.31221247  0.53911525  1
  Te  Te2  1  0.09435312  0.64191359  0.87100757  1
  Te  Te3  1  0.56125798  0.02234648  0.79805262  1
  Te  Te4  1  0.90564688  0.35808641  0.12899243  1
  Te  Te5  1  0.24300631  0.68778753  0.46088475  1
  Te  Te6  1  0.54494142  0.50855775  0.80102002  1
  Te  Te7  1  0.88104703  0.84273540  0.14746132  1
  Te  Te8  1  0.22266122  0.18234466  0.47587547  1
  Te  Te9  1  0.45505858  0.49144225  0.19897998  1
  Te  Te10  1  0.77733878  0.81765534  0.52412453  1
  Te  Te11  1  0.11895297  0.15726460  0.85253868  1
loop_
_geom_bond_atom_site_label_1
_geom_bond_atom_site_label_2
_geom_bond_distance
_geom_bond_site_symmetry_2
Te0 Ti0 2.742470 1_565
Te0 Ti7 2.775223 1_565
Te0 Ti4 2.840941 1_565
Te0 Ti3 2.849228 1_554
Te1 Ti1 2.681528 1_555
Te1 Ti4 2.734055 1_555
Te1 Ti5 2.737098 1_655
Te2 Ti2 2.756444 1_555
Te2 Ti5 2.771631 1_555
Te2 Ti3 2.781743 1_555
Te2 Ti6 2.799649 1_455
Te3 Ti3 2.742470 1_545
Te3 Ti6 2.775223 1_545
Te3 Ti2 2.840941 1_545
Te3 Ti0 2.849228 1_556
Te4 Ti4 2.756444 1_555
Te4 Ti1 2.771631 1_555
Te4 Ti0 2.781743 1_555
Te4 Ti7 2.799649 1_655
Te5 Ti5 2.681528 1_555
Te5 Ti2 2.734055 1_555
Te5 Ti1 2.737098 1_455
Te6 Ti3 2.757039 1_555
Te6 Ti6 2.815595 1_555
Te6 Ti5 2.890234 1_555
Te6 Ti0 2.941511 1_556
Te7 Ti6 2.824014 1_554
Te7 Ti7 2.841783 1_665
Te7 Ti3 2.851088 1_554
Te7 Ti4 2.900077 1_565
Te7 Ti1 2.979536 1_555
Te8 Ti4 2.767691 1_455
Te8 Ti7 2.832255 1_555
Te8 Ti5 2.858831 1_555
Te8 Ti2 2.969923 1_545
Te9 Ti0 2.757039 1_555
Te9 Ti7 2.815595 1_555
Te9 Ti1 2.890234 1_555
Te9 Ti3 2.941511 1_554
Te10 Ti2 2.767691 1_655
Te10 Ti6 2.832255 1_555
Te10 Ti1 2.858831 1_555
Te10 Ti4 2.969923 1_565
Te11 Ti7 2.824014 1_556
Te11 Ti6 2.841783 1_445
Te11 Ti0 2.851088 1_556
Te11 Ti2 2.900077 1_545
Te11 Ti5 2.979536 1_555
