# generated using pymatgen
data_CsMg14Zn
_symmetry_space_group_name_H-M   'P 1'
_cell_length_a   6.54009305
_cell_length_b   6.54009249
_cell_length_c   10.73067380
_cell_angle_alpha   90.00000000
_cell_angle_beta   90.00000000
_cell_angle_gamma   120.00000278
_symmetry_Int_Tables_number   1
_chemical_formula_structural   CsMg14Zn
_chemical_formula_sum   'Cs1 Mg14 Zn1'
_cell_volume   397.48928866
_cell_formula_units_Z   1
loop_
 _symmetry_equiv_pos_site_id
 _symmetry_equiv_pos_as_xyz
  1  'x, y, z'
loop_
 _atom_site_type_symbol
 _atom_site_label
 _atom_site_symmetry_multiplicity
 _atom_site_fract_x
 _atom_site_fract_y
 _atom_site_fract_z
 _atom_site_occupancy
  Cs  Cs0  1  0.16666700  0.33333300  0.62500000  1
  Mg  Mg0  1  0.15975277  0.82987588  0.12500000  1
  Mg  Mg1  1  0.17231171  0.83615536  0.62500000  1
  Mg  Mg2  1  0.67012412  0.34024723  0.12500000  1
  Mg  Mg3  1  0.66384464  0.32768829  0.62500000  1
  Mg  Mg4  1  0.67012412  0.82987588  0.12500000  1
  Mg  Mg5  1  0.66384464  0.83615536  0.62500000  1
  Mg  Mg6  1  0.33639649  0.16360351  0.35118551  1
  Mg  Mg7  1  0.33639649  0.16360351  0.89881449  1
  Mg  Mg8  1  0.33639649  0.67279397  0.35118551  1
  Mg  Mg9  1  0.33639649  0.67279397  0.89881449  1
  Mg  Mg10  1  0.82720603  0.16360351  0.35118551  1
  Mg  Mg11  1  0.82720603  0.16360351  0.89881449  1
  Mg  Mg12  1  0.83333300  0.66666700  0.37824842  1
  Mg  Mg13  1  0.83333300  0.66666700  0.87175158  1
  Zn  Zn0  1  0.16666700  0.33333300  0.12500000  1
loop_
_geom_bond_atom_site_label_1
_geom_bond_atom_site_label_2
_geom_bond_distance
_geom_bond_site_symmetry_2
Cs0 Mg1 3.270203 1_545
Cs0 Mg5 3.270203 1_555
Cs0 Mg5 3.270203 1_445
Cs0 Mg1 3.270203 1_555
Cs0 Mg3 3.270203 1_555
Cs0 Mg3 3.270203 1_455
Cs0 Mg6 3.511369 1_555
Cs0 Mg7 3.511369 1_555
Cs0 Mg9 3.511375 1_555
Cs0 Mg8 3.511375 1_555
Cs0 Mg10 3.511375 1_455
Cs0 Mg11 3.511375 1_455
Mg0 Mg8 3.076981 1_555
Mg0 Mg9 3.076981 1_554
Mg0 Mg7 3.076988 1_564
Mg0 Mg6 3.076988 1_565
Mg0 Mg2 3.202217 1_455
Mg0 Mg4 3.202217 1_455
Mg0 Zn0 3.270281 1_555
Mg0 Zn0 3.270281 1_565
Mg0 Mg12 3.286796 1_455
Mg0 Mg13 3.286796 1_454
Mg0 Mg2 3.337876 1_565
Mg0 Mg4 3.337876 1_555
Mg1 Mg12 3.270636 1_455
Mg1 Mg13 3.270636 1_455
Mg1 Mg8 3.474581 1_555
Mg1 Mg9 3.474581 1_555
Mg1 Mg7 3.474587 1_565
Mg1 Mg6 3.474587 1_565
Mg2 Mg7 3.076988 1_554
Mg2 Mg6 3.076988 1_555
Mg2 Mg4 3.202217 1_555
Mg2 Zn0 3.270281 1_655
Mg2 Zn0 3.270281 1_555
Mg2 Mg4 3.337876 1_545
Mg3 Mg6 3.474587 1_555
Mg3 Mg7 3.474587 1_555
Mg4 Mg9 3.076988 1_554
Mg4 Mg8 3.076988 1_555
Mg4 Zn0 3.270281 1_665
Mg4 Zn0 3.270281 1_555
Mg5 Mg8 3.474587 1_555
Mg5 Mg9 3.474587 1_555
Mg6 Zn0 3.096375 1_555
Mg6 Mg8 3.209940 1_545
Mg6 Mg8 3.330153 1_555
Mg7 Zn0 3.096375 1_556
Mg7 Mg9 3.209940 1_545
Mg7 Mg9 3.330153 1_555
Mg8 Zn0 3.096382 1_555
Mg9 Zn0 3.096382 1_556
Mg10 Mg2 3.076981 1_555
Mg10 Mg4 3.076988 1_545
Mg10 Zn0 3.096382 1_655
Mg10 Mg8 3.209940 1_545
Mg10 Mg6 3.209940 1_555
Mg10 Mg12 3.283099 1_545
Mg10 Mg12 3.283099 1_555
Mg10 Mg8 3.330153 1_655
Mg10 Mg6 3.330153 1_655
Mg10 Mg3 3.474581 1_555
Mg10 Mg5 3.474587 1_545
Mg11 Mg2 3.076981 1_556
Mg11 Mg4 3.076988 1_546
Mg11 Zn0 3.096382 1_656
Mg11 Mg9 3.209940 1_545
Mg11 Mg7 3.209940 1_555
Mg11 Mg13 3.283099 1_545
Mg11 Mg13 3.283099 1_555
Mg11 Mg9 3.330153 1_655
Mg11 Mg7 3.330153 1_655
Mg11 Mg3 3.474581 1_555
Mg11 Mg5 3.474587 1_545
Mg12 Mg5 3.270629 1_555
Mg12 Mg3 3.270636 1_555
Mg12 Mg6 3.283099 1_555
Mg12 Mg6 3.283099 1_665
Mg12 Mg8 3.283100 1_555
Mg12 Mg8 3.283100 1_655
Mg12 Mg4 3.286789 1_555
Mg12 Mg2 3.286796 1_555
Mg13 Mg5 3.270629 1_555
Mg13 Mg3 3.270636 1_555
Mg13 Mg7 3.283099 1_555
Mg13 Mg7 3.283099 1_665
Mg13 Mg9 3.283100 1_555
Mg13 Mg9 3.283100 1_655
Mg13 Mg4 3.286789 1_556
Mg13 Mg2 3.286796 1_556
