# generated using pymatgen
data_BaTl(PO3)3
_symmetry_space_group_name_H-M   'P 1'
_cell_length_a   6.30578300
_cell_length_b   11.37474400
_cell_length_c   13.07618600
_cell_angle_alpha   90.00000000
_cell_angle_beta   90.00000000
_cell_angle_gamma   90.00000000
_symmetry_Int_Tables_number   1
_chemical_formula_structural   BaTl(PO3)3
_chemical_formula_sum   'Ba4 Tl4 P12 O36'
_cell_volume   937.91124336
_cell_formula_units_Z   4
loop_
 _symmetry_equiv_pos_site_id
 _symmetry_equiv_pos_as_xyz
  1  'x, y, z'
loop_
 _atom_site_type_symbol
 _atom_site_label
 _atom_site_symmetry_multiplicity
 _atom_site_fract_x
 _atom_site_fract_y
 _atom_site_fract_z
 _atom_site_occupancy
  Ba  Ba0  1  0.40434800  0.39303500  0.42053600  1
  Ba  Ba1  1  0.09565200  0.60696500  0.92053600  1
  Ba  Ba2  1  0.59565200  0.89303500  0.07946400  1
  Ba  Ba3  1  0.90434800  0.10696500  0.57946400  1
  Tl  Tl0  1  0.40003100  0.01157100  0.36651800  1
  Tl  Tl1  1  0.09996900  0.98842900  0.86651800  1
  Tl  Tl2  1  0.59996900  0.51157100  0.13348200  1
  Tl  Tl3  1  0.90003100  0.48842900  0.63348200  1
  P  P0  1  0.08333600  0.71633400  0.18444600  1
  P  P1  1  0.41666400  0.28366600  0.68444600  1
  P  P2  1  0.91666400  0.21633400  0.31555400  1
  P  P3  1  0.58333600  0.78366600  0.81555400  1
  P  P4  1  0.10761000  0.34316100  0.14775600  1
  P  P5  1  0.39239000  0.65683900  0.64775600  1
  P  P6  1  0.89239000  0.84316100  0.35224400  1
  P  P7  1  0.60761000  0.15683900  0.85224400  1
  P  P8  1  0.09734900  0.08714700  0.13697400  1
  P  P9  1  0.40265100  0.91285300  0.63697400  1
  P  P10  1  0.90265100  0.58714700  0.36302600  1
  P  P11  1  0.59734900  0.41285300  0.86302600  1
  O  O0  1  0.08429100  0.82283800  0.26759000  1
  O  O1  1  0.41570900  0.17716200  0.76759000  1
  O  O2  1  0.91570900  0.32283800  0.23241000  1
  O  O3  1  0.58429100  0.67716200  0.73241000  1
  O  O4  1  0.20038200  0.29052700  0.63650500  1
  O  O5  1  0.29961800  0.70947300  0.13650500  1
  O  O6  1  0.79961800  0.79052700  0.86349500  1
  O  O7  1  0.70038200  0.20947300  0.36349500  1
  O  O8  1  0.46154800  0.56387700  0.57402900  1
  O  O9  1  0.03845200  0.43612300  0.07402900  1
  O  O10  1  0.53845200  0.06387700  0.92597100  1
  O  O11  1  0.96154800  0.93612300  0.42597100  1
  O  O12  1  0.09965000  0.22449100  0.39001900  1
  O  O13  1  0.40035000  0.77550900  0.89001900  1
  O  O14  1  0.90035000  0.72449100  0.10998100  1
  O  O15  1  0.59965000  0.27550900  0.60998100  1
  O  O16  1  0.09501200  0.21772400  0.08759200  1
  O  O17  1  0.40498800  0.78227600  0.58759200  1
  O  O18  1  0.90498800  0.71772400  0.41240800  1
  O  O19  1  0.59501200  0.28227600  0.91240800  1
  O  O20  1  0.97049300  0.00746900  0.06901500  1
  O  O21  1  0.52950700  0.99253100  0.56901500  1
  O  O22  1  0.02950700  0.50746900  0.43098500  1
  O  O23  1  0.47049300  0.49253100  0.93098500  1
  O  O24  1  0.32041400  0.05113900  0.16281100  1
  O  O25  1  0.17958600  0.94886100  0.66281100  1
  O  O26  1  0.67958600  0.55113900  0.33718900  1
  O  O27  1  0.82041400  0.44886100  0.83718900  1
  O  O28  1  0.04493800  0.60425000  0.25942200  1
  O  O29  1  0.45506200  0.39575000  0.75942200  1
  O  O30  1  0.95506200  0.10425000  0.24057800  1
  O  O31  1  0.54493800  0.89575000  0.74057800  1
  O  O32  1  0.31121100  0.35480600  0.20654000  1
  O  O33  1  0.18878900  0.64519400  0.70654000  1
  O  O34  1  0.68878900  0.85480600  0.29346000  1
  O  O35  1  0.81121100  0.14519400  0.79346000  1
loop_
_geom_bond_atom_site_label_1
_geom_bond_atom_site_label_2
_geom_bond_distance
_geom_bond_site_symmetry_2
Ba0 O22 2.701832 1_555
Ba0 O26 2.726589 1_555
Ba0 O12 2.743411 1_555
Ba0 O8 2.816898 1_555
Ba0 O32 2.892097 1_555
Ba0 O7 2.898383 1_555
Ba0 O15 3.072522 1_555
Ba0 O4 3.314973 1_555
Ba1 O23 2.701832 1_555
Ba1 O27 2.726589 1_455
Ba1 O13 2.743411 1_555
Ba1 O9 2.816898 1_556
Ba1 O33 2.892097 1_555
Ba1 O6 2.898383 1_455
Ba1 O14 3.072522 1_456
Ba1 O5 3.314973 1_556
Ba2 O20 2.701832 1_565
Ba2 O24 2.726589 1_565
Ba2 O14 2.743411 1_555
Ba2 O10 2.816898 1_564
Ba2 O34 2.892097 1_555
Ba2 O5 2.898383 1_555
Ba2 O13 3.072522 1_554
Ba2 O6 3.314973 1_554
Ba3 O21 2.701832 1_545
Ba3 O25 2.726589 1_645
Ba3 O15 2.743411 1_555
Ba3 O11 2.816898 1_545
Ba3 O35 2.892097 1_555
Ba3 O4 2.898383 1_655
Ba3 O12 3.072522 1_655
Ba3 O7 3.314973 1_555
O0 P0 1.627783 1_555
O0 P6 1.656227 1_455
O1 P1 1.627783 1_555
O1 P7 1.656227 1_555
O2 P2 1.627783 1_555
O2 P4 1.656227 1_655
O3 P3 1.627783 1_555
O3 P5 1.656227 1_555
O4 P1 1.503031 1_555
O5 P0 1.503031 1_555
O6 P3 1.503031 1_555
O7 P2 1.503031 1_555
O8 P5 1.495908 1_555
O9 P4 1.495908 1_555
O10 P7 1.495908 1_555
O11 P6 1.495908 1_555
O12 P2 1.512664 1_455
O13 P3 1.512664 1_555
O14 P0 1.512664 1_655
O15 P1 1.512664 1_555
O16 P8 1.619642 1_555
O16 P4 1.631266 1_555
O17 P9 1.619642 1_555
O17 P5 1.631266 1_555
O18 P10 1.619642 1_555
O18 P6 1.631266 1_555
O19 P11 1.619642 1_555
O19 P7 1.631266 1_555
O20 P8 1.500327 1_655
O20 Tl1 2.779353 1_644
O21 P9 1.500327 1_555
O21 Tl0 2.779353 1_565
O22 P10 1.500327 1_455
O22 Tl3 2.779353 1_455
O23 P11 1.500327 1_555
O23 Tl2 2.779353 1_556
O24 P8 1.503470 1_555
O24 Tl0 2.747722 1_555
O25 P9 1.503470 1_555
O25 Tl1 2.747722 1_555
O26 P10 1.503470 1_555
O26 Tl2 2.747722 1_555
O27 P11 1.503470 1_555
O27 Tl3 2.747722 1_555
O28 P0 1.626422 1_555
O28 P10 1.636522 1_455
O29 P1 1.626422 1_555
O29 P11 1.636522 1_555
O30 P2 1.626422 1_555
O30 P8 1.636522 1_655
O31 P3 1.626422 1_555
O31 P9 1.636522 1_555
O32 P4 1.502234 1_555
O32 Tl2 2.721724 1_555
O33 P5 1.502234 1_555
O33 Tl3 2.721724 1_455
O34 P6 1.502234 1_555
O34 Tl0 2.721724 1_565
O35 P7 1.502234 1_555
O35 Tl1 2.721724 1_645
