# generated using pymatgen
data_Sr(BiPd)2
_symmetry_space_group_name_H-M   'P 1'
_cell_length_a   4.83972120
_cell_length_b   4.83972120
_cell_length_c   10.93680624
_cell_angle_alpha   90.00000000
_cell_angle_beta   90.00000000
_cell_angle_gamma   90.00000000
_symmetry_Int_Tables_number   1
_chemical_formula_structural   Sr(BiPd)2
_chemical_formula_sum   'Sr2 Bi4 Pd4'
_cell_volume   256.17173303
_cell_formula_units_Z   2
loop_
 _symmetry_equiv_pos_site_id
 _symmetry_equiv_pos_as_xyz
  1  'x, y, z'
loop_
 _atom_site_type_symbol
 _atom_site_label
 _atom_site_symmetry_multiplicity
 _atom_site_fract_x
 _atom_site_fract_y
 _atom_site_fract_z
 _atom_site_occupancy
  Sr  Sr0  1  0.75000000  0.75000000  0.23445204  1
  Sr  Sr1  1  0.25000000  0.25000000  0.76554796  1
  Bi  Bi0  1  0.75000000  0.25000000  0.50000000  1
  Bi  Bi1  1  0.25000000  0.75000000  0.50000000  1
  Bi  Bi2  1  0.75000000  0.75000000  0.87565825  1
  Bi  Bi3  1  0.25000000  0.25000000  0.12434175  1
  Pd  Pd0  1  0.75000000  0.25000000  -0.00000000  1
  Pd  Pd1  1  0.25000000  0.75000000  0.00000000  1
  Pd  Pd2  1  0.75000000  0.75000000  0.62909920  1
  Pd  Pd3  1  0.25000000  0.25000000  0.37090080  1
loop_
_geom_bond_atom_site_label_1
_geom_bond_atom_site_label_2
_geom_bond_distance
_geom_bond_site_symmetry_2
Bi0 Pd2 2.801657 1_545
Bi0 Pd2 2.801657 1_555
Bi0 Pd3 2.801657 1_555
Bi0 Pd3 2.801657 1_655
Bi0 Sr0 3.780261 1_555
Bi0 Sr1 3.780261 1_555
Bi0 Sr1 3.780261 1_655
Bi0 Sr0 3.780261 1_545
Bi1 Pd2 2.801657 1_455
Bi1 Pd2 2.801657 1_555
Bi1 Pd3 2.801657 1_555
Bi1 Pd3 2.801657 1_565
Bi1 Sr0 3.780261 1_455
Bi1 Sr0 3.780261 1_555
Bi1 Sr1 3.780261 1_555
Bi1 Sr1 3.780261 1_565
Bi2 Pd2 2.696569 1_555
Bi2 Pd0 2.775799 1_556
Bi2 Pd1 2.775799 1_556
Bi2 Pd1 2.775799 1_656
Bi2 Pd0 2.775799 1_566
Bi2 Sr1 3.627903 1_555
Bi2 Sr1 3.627903 1_655
Bi2 Sr1 3.627903 1_565
Bi2 Sr1 3.627903 1_665
Bi3 Pd3 2.696569 1_555
Bi3 Pd1 2.775799 1_555
Bi3 Pd0 2.775799 1_555
Bi3 Pd1 2.775799 1_545
Bi3 Pd0 2.775799 1_455
Bi3 Sr0 3.627903 1_545
Bi3 Sr0 3.627903 1_455
Bi3 Sr0 3.627903 1_555
Bi3 Sr0 3.627903 1_445
Pd0 Sr1 3.525709 1_654
Pd0 Sr0 3.525709 1_555
Pd0 Sr1 3.525709 1_554
Pd0 Sr0 3.525709 1_545
Pd1 Sr0 3.525709 1_555
Pd1 Sr1 3.525709 1_554
Pd1 Sr1 3.525709 1_564
Pd1 Sr0 3.525709 1_455
Pd2 Sr1 3.733423 1_655
Pd2 Sr1 3.733423 1_565
Pd2 Sr1 3.733423 1_555
Pd2 Sr1 3.733423 1_665
Pd3 Sr0 3.733423 1_455
Pd3 Sr0 3.733423 1_555
Pd3 Sr0 3.733423 1_445
Pd3 Sr0 3.733423 1_545
