# generated using pymatgen
data_LiMn6(OF2)4
_symmetry_space_group_name_H-M   'P 1'
_cell_length_a   4.96618462
_cell_length_b   7.95394579
_cell_length_c   5.84797195
_cell_angle_alpha   92.73156029
_cell_angle_beta   91.94688432
_cell_angle_gamma   88.24166634
_symmetry_Int_Tables_number   1
_chemical_formula_structural   LiMn6(OF2)4
_chemical_formula_sum   'Li1 Mn6 O4 F8'
_cell_volume   230.50593752
_cell_formula_units_Z   1
loop_
 _symmetry_equiv_pos_site_id
 _symmetry_equiv_pos_as_xyz
  1  'x, y, z'
loop_
 _atom_site_type_symbol
 _atom_site_label
 _atom_site_symmetry_multiplicity
 _atom_site_fract_x
 _atom_site_fract_y
 _atom_site_fract_z
 _atom_site_occupancy
  Li  Li0  1  0.02474800  0.80919100  0.35047800  1
  Mn  Mn0  1  0.50302900  0.00727300  0.49849300  1
  Mn  Mn1  1  0.56926200  0.64909500  0.20240200  1
  Mn  Mn2  1  0.48997500  0.33502300  0.81071500  1
  Mn  Mn3  1  0.90356700  0.65235700  0.73932000  1
  Mn  Mn4  1  0.02201200  0.33323700  0.31017300  1
  Mn  Mn5  1  0.00292000  0.99460100  0.97778500  1
  O  O0  1  0.82110400  0.77208900  0.03887800  1
  O  O1  1  0.67867700  0.78100100  0.49093600  1
  O  O2  1  0.69561500  0.43009000  0.07478000  1
  O  O3  1  0.32336900  0.22803200  0.52996400  1
  F  F0  1  0.78984600  0.42360900  0.59046600  1
  F  F1  1  0.82411800  0.09087100  0.30288800  1
  F  F2  1  0.68179900  0.09961800  0.79964400  1
  F  F3  1  0.28787100  0.55787300  0.82648300  1
  F  F4  1  0.31161800  0.91074100  0.20492200  1
  F  F5  1  0.21227500  0.57890600  0.33290500  1
  F  F6  1  0.19845500  0.22609300  0.01064500  1
  F  F7  1  0.17362500  0.89529800  0.66854000  1
loop_
_geom_bond_atom_site_label_1
_geom_bond_atom_site_label_2
_geom_bond_distance
_geom_bond_site_symmetry_2
Li0 O1 1.953421 1_455
Li0 O0 2.066941 1_455
Mn0 O3 1.948680 1_555
Mn0 O1 1.975013 1_545
Mn1 O0 1.918666 1_555
Mn1 O2 1.956013 1_555
Mn1 O1 2.011737 1_555
Mn2 O2 1.956617 1_556
Mn2 O3 1.980432 1_555
Mn3 O0 2.002322 1_556
Mn3 O1 2.089384 1_555
Mn4 O3 2.118268 1_555
Mn4 O2 2.233543 1_455
Mn5 O0 2.062898 1_456
F0 Mn3 2.065382 1_555
F0 Mn4 2.120873 1_655
F0 Mn2 2.157412 1_555
F1 Mn0 2.134206 1_555
F1 Mn4 2.188502 1_655
F1 Mn5 2.218913 1_644
F1 Li0 2.448160 1_645
F2 Mn5 2.052930 1_645
F2 Mn0 2.059063 1_555
F2 Mn2 2.073826 1_555
F3 Mn2 2.009803 1_555
F3 Mn3 2.085537 1_455
F3 Mn1 2.648312 1_556
F4 Li0 1.903981 1_555
F4 Mn0 2.061259 1_565
F4 Mn5 2.107807 1_554
F4 Mn1 2.409016 1_555
F5 Li0 2.028985 1_555
F5 Mn1 2.056804 1_555
F5 Mn4 2.192886 1_555
F6 Mn5 2.105589 1_544
F6 Mn4 2.116242 1_555
F6 Mn2 2.121834 1_554
F7 Li0 2.071616 1_555
F7 Mn5 2.130726 1_555
F7 Mn0 2.177752 1_565
F7 Mn3 2.444783 1_455
