# generated using pymatgen
data_Nd3Zn11
_symmetry_space_group_name_H-M   'P 1'
_cell_length_a   4.45842900
_cell_length_b   8.28645089
_cell_length_c   8.28645089
_cell_angle_alpha   66.37257213
_cell_angle_beta   74.39409091
_cell_angle_gamma   74.39409091
_symmetry_Int_Tables_number   1
_chemical_formula_structural   Nd3Zn11
_chemical_formula_sum   'Nd3 Zn11'
_cell_volume   265.59014725
_cell_formula_units_Z   1
loop_
 _symmetry_equiv_pos_site_id
 _symmetry_equiv_pos_as_xyz
  1  'x, y, z'
loop_
 _atom_site_type_symbol
 _atom_site_label
 _atom_site_symmetry_multiplicity
 _atom_site_fract_x
 _atom_site_fract_y
 _atom_site_fract_z
 _atom_site_occupancy
  Nd  Nd0  1  0.69861200  0.30138800  0.30138800  1
  Nd  Nd1  1  0.30138800  0.69861200  0.69861200  1
  Nd  Nd2  1  0.00000000  0.00000000  0.00000000  1
  Zn  Zn0  1  0.66202700  0.70040500  0.97554200  1
  Zn  Zn1  1  0.33797300  0.29959500  0.02445800  1
  Zn  Zn2  1  0.66202700  0.97554200  0.70040500  1
  Zn  Zn3  1  0.33797300  0.02445800  0.29959500  1
  Zn  Zn4  1  0.50000000  0.69840900  0.30159100  1
  Zn  Zn5  1  0.50000000  0.30159100  0.69840900  1
  Zn  Zn6  1  0.86201900  0.41589600  0.86006600  1
  Zn  Zn7  1  0.13798100  0.58410400  0.13993400  1
  Zn  Zn8  1  0.86201900  0.86006600  0.41589600  1
  Zn  Zn9  1  0.13798100  0.13993400  0.58410400  1
  Zn  Zn10  1  0.00000000  0.50000000  0.50000000  1
loop_
_geom_bond_atom_site_label_1
_geom_bond_atom_site_label_2
_geom_bond_distance
_geom_bond_site_symmetry_2
Nd0 Zn9 3.108407 1_655
Nd0 Zn7 3.108407 1_655
Nd0 Zn9 3.108408 1_555
Nd0 Zn7 3.108408 1_555
Nd0 Zn3 3.142744 1_655
Nd0 Zn1 3.142744 1_655
Nd0 Zn3 3.142747 1_555
Nd0 Zn1 3.142747 1_555
Nd0 Zn4 3.169186 1_555
Nd0 Zn5 3.169186 1_555
Nd0 Zn8 3.310848 1_545
Nd0 Zn6 3.310848 1_554
Nd0 Zn2 3.322685 1_545
Nd0 Zn0 3.322685 1_554
Nd0 Zn10 3.431282 1_655
Nd0 Zn10 3.431282 1_555
Nd1 Zn8 3.108407 1_455
Nd1 Zn6 3.108407 1_455
Nd1 Zn8 3.108408 1_555
Nd1 Zn6 3.108408 1_555
Nd1 Zn2 3.142744 1_455
Nd1 Zn0 3.142744 1_455
Nd1 Zn0 3.142747 1_555
Nd1 Zn2 3.142747 1_555
Nd1 Zn5 3.169186 1_555
Nd1 Zn4 3.169186 1_555
Nd1 Zn9 3.310848 1_565
Nd1 Zn7 3.310848 1_556
Nd1 Zn1 3.322685 1_556
Nd1 Zn3 3.322685 1_565
Nd1 Zn10 3.431282 1_555
Nd1 Zn10 3.431282 1_655
Nd2 Zn8 3.104816 1_445
Nd2 Zn6 3.104816 1_454
Nd2 Zn7 3.104816 1_545
Nd2 Zn9 3.104816 1_554
Nd2 Zn1 3.324926 1_555
Nd2 Zn3 3.324926 1_555
Nd2 Zn2 3.324926 1_444
Nd2 Zn0 3.324926 1_444
Nd2 Zn2 3.324929 1_544
Nd2 Zn0 3.324929 1_544
Nd2 Zn3 3.324929 1_455
Nd2 Zn1 3.324929 1_455
Zn0 Zn2 2.495876 1_555
Zn0 Zn7 2.586504 1_656
Zn0 Zn7 2.586508 1_556
Zn0 Zn4 2.596590 1_556
Zn0 Zn6 2.736242 1_555
Zn1 Zn3 2.495876 1_555
Zn1 Zn6 2.586504 1_454
Zn1 Zn6 2.586508 1_554
Zn1 Zn5 2.596590 1_554
Zn1 Zn7 2.736242 1_555
Zn2 Zn9 2.586504 1_665
Zn2 Zn9 2.586508 1_565
Zn2 Zn5 2.596590 1_565
Zn2 Zn8 2.736242 1_555
Zn3 Zn8 2.586504 1_445
Zn3 Zn8 2.586508 1_545
Zn3 Zn4 2.596590 1_545
Zn3 Zn9 2.736242 1_555
Zn4 Zn7 2.880900 1_555
Zn4 Zn8 2.880900 1_555
Zn4 Zn7 2.880900 1_655
Zn4 Zn8 2.880900 1_455
Zn5 Zn9 2.880900 1_555
Zn5 Zn6 2.880900 1_555
Zn5 Zn9 2.880900 1_655
Zn5 Zn6 2.880900 1_455
Zn10 Zn7 2.709751 1_555
Zn10 Zn8 2.709751 1_455
Zn10 Zn6 2.709751 1_455
Zn10 Zn9 2.709751 1_555
Zn10 Zn4 2.865108 1_555
Zn10 Zn5 2.865108 1_555
Zn10 Zn4 2.865108 1_455
Zn10 Zn5 2.865108 1_455
