# generated using pymatgen
data_ZnSnBiO5
_symmetry_space_group_name_H-M   'P 1'
_cell_length_a   5.34773700
_cell_length_b   10.45267100
_cell_length_c   15.43610600
_cell_angle_alpha   90.00000000
_cell_angle_beta   90.00000000
_cell_angle_gamma   90.00000000
_symmetry_Int_Tables_number   1
_chemical_formula_structural   ZnSnBiO5
_chemical_formula_sum   'Zn8 Sn8 Bi8 O40'
_cell_volume   862.84954409
_cell_formula_units_Z   8
loop_
 _symmetry_equiv_pos_site_id
 _symmetry_equiv_pos_as_xyz
  1  'x, y, z'
loop_
 _atom_site_type_symbol
 _atom_site_label
 _atom_site_symmetry_multiplicity
 _atom_site_fract_x
 _atom_site_fract_y
 _atom_site_fract_z
 _atom_site_occupancy
  Zn  Zn0  1  0.53123900  0.39547000  0.56663000  1
  Zn  Zn1  1  0.03123900  0.10453000  0.56663000  1
  Zn  Zn2  1  0.03123900  0.60453000  0.93337000  1
  Zn  Zn3  1  0.96876100  0.39547000  0.06663000  1
  Zn  Zn4  1  0.46876100  0.10453000  0.06663000  1
  Zn  Zn5  1  0.96876100  0.89547000  0.43337000  1
  Zn  Zn6  1  0.46876100  0.60453000  0.43337000  1
  Zn  Zn7  1  0.53123900  0.89547000  0.93337000  1
  Sn  Sn0  1  0.04213300  0.37122900  0.43040900  1
  Sn  Sn1  1  0.45786700  0.87122900  0.56959100  1
  Sn  Sn2  1  0.95786700  0.62877100  0.56959100  1
  Sn  Sn3  1  0.54213300  0.12877100  0.43040900  1
  Sn  Sn4  1  0.95786700  0.12877100  0.93040900  1
  Sn  Sn5  1  0.04213300  0.87122900  0.06959100  1
  Sn  Sn6  1  0.45786700  0.37122900  0.93040900  1
  Sn  Sn7  1  0.54213300  0.62877100  0.06959100  1
  Bi  Bi0  1  0.03010700  0.85542900  0.75927000  1
  Bi  Bi1  1  0.96989300  0.14457100  0.24073000  1
  Bi  Bi2  1  0.46989300  0.35542900  0.24073000  1
  Bi  Bi3  1  0.96989300  0.64457100  0.25927000  1
  Bi  Bi4  1  0.53010700  0.14457100  0.74073000  1
  Bi  Bi5  1  0.53010700  0.64457100  0.75927000  1
  Bi  Bi6  1  0.46989300  0.85542900  0.25927000  1
  Bi  Bi7  1  0.03010700  0.35542900  0.74073000  1
  O  O0  1  0.80505200  0.30378600  0.32214800  1
  O  O1  1  0.23610000  0.01148200  0.97878200  1
  O  O2  1  0.26390000  0.51148200  0.02121800  1
  O  O3  1  0.36681200  0.80427600  0.83340400  1
  O  O4  1  0.13318800  0.30427600  0.16659600  1
  O  O5  1  0.80505200  0.80378600  0.17785200  1
  O  O6  1  0.13318800  0.80427600  0.33340400  1
  O  O7  1  0.69494800  0.80378600  0.67785200  1
  O  O8  1  0.23610000  0.51148200  0.52121800  1
  O  O9  1  0.19494800  0.69621400  0.67785200  1
  O  O10  1  0.69494800  0.30378600  0.82214800  1
  O  O11  1  0.85247900  0.22029300  0.48257800  1
  O  O12  1  0.73610000  0.98851800  0.52121800  1
  O  O13  1  0.63318800  0.69572400  0.33340400  1
  O  O14  1  0.22686300  0.99182800  0.15918900  1
  O  O15  1  0.73610000  0.48851800  0.97878200  1
  O  O16  1  0.19494800  0.19621400  0.82214800  1
  O  O17  1  0.86681200  0.19572400  0.66659600  1
  O  O18  1  0.35247900  0.77970700  0.01742200  1
  O  O19  1  0.26390000  0.01148200  0.47878200  1
  O  O20  1  0.14752100  0.77970700  0.51742200  1
  O  O21  1  0.77313700  0.00817200  0.84081100  1
  O  O22  1  0.63318800  0.19572400  0.16659600  1
  O  O23  1  0.72686300  0.00817200  0.34081100  1
  O  O24  1  0.14752100  0.27970700  0.98257800  1
  O  O25  1  0.35247900  0.27970700  0.48257800  1
  O  O26  1  0.76390000  0.48851800  0.47878200  1
  O  O27  1  0.76390000  0.98851800  0.02121800  1
  O  O28  1  0.72686300  0.50817200  0.15918900  1
  O  O29  1  0.64752100  0.72029300  0.51742200  1
  O  O30  1  0.64752100  0.22029300  0.98257800  1
  O  O31  1  0.85247900  0.72029300  0.01742200  1
  O  O32  1  0.77313700  0.50817200  0.65918900  1
  O  O33  1  0.86681200  0.69572400  0.83340400  1
  O  O34  1  0.36681200  0.30427600  0.66659600  1
  O  O35  1  0.22686300  0.49182800  0.34081100  1
  O  O36  1  0.27313700  0.49182800  0.84081100  1
  O  O37  1  0.30505200  0.19621400  0.32214800  1
  O  O38  1  0.27313700  0.99182800  0.65918900  1
  O  O39  1  0.30505200  0.69621400  0.17785200  1
loop_
_geom_bond_atom_site_label_1
_geom_bond_atom_site_label_2
_geom_bond_distance
_geom_bond_site_symmetry_2
Bi0 O3 2.199454 1_555
Bi0 O33 2.204270 1_455
Bi0 O7 2.254633 1_455
Bi0 O9 2.264114 1_555
Bi0 O21 2.453926 1_465
Bi0 O38 2.471524 1_555
Bi1 O22 2.199454 1_555
Bi1 O4 2.204270 1_655
Bi1 O37 2.254633 1_655
Bi1 O0 2.264114 1_555
Bi1 O14 2.453926 1_645
Bi1 O23 2.471524 1_555
Bi2 O4 2.199454 1_555
Bi2 O22 2.204270 1_555
Bi2 O0 2.254633 1_555
Bi2 O37 2.264114 1_555
Bi2 O28 2.453926 1_555
Bi2 O35 2.471524 1_555
Bi3 O13 2.199454 1_555
Bi3 O6 2.204270 1_655
Bi3 O39 2.254633 1_655
Bi3 O5 2.264114 1_555
Bi3 O35 2.453926 1_655
Bi3 O28 2.471524 1_555
Bi4 O17 2.199454 1_555
Bi4 O34 2.204270 1_555
Bi4 O16 2.254633 1_555
Bi4 O10 2.264114 1_555
Bi4 O38 2.453926 1_545
Bi4 O21 2.471524 1_555
Bi5 O33 2.199454 1_555
Bi5 O3 2.204270 1_555
Bi5 O9 2.254633 1_555
Bi5 O7 2.264114 1_555
Bi5 O36 2.453926 1_555
Bi5 O32 2.471524 1_555
Bi6 O6 2.199454 1_555
Bi6 O13 2.204270 1_555
Bi6 O5 2.254633 1_555
Bi6 O39 2.264114 1_555
Bi6 O23 2.453926 1_565
Bi6 O14 2.471524 1_555
Bi7 O34 2.199454 1_555
Bi7 O17 2.204270 1_455
Bi7 O10 2.254633 1_455
Bi7 O16 2.264114 1_555
Bi7 O32 2.453926 1_455
Bi7 O36 2.471524 1_555
O0 Sn0 2.212933 1_655
O1 Sn4 2.067481 1_455
O1 Zn4 2.081545 1_556
O1 Zn7 2.110207 1_545
O1 Sn5 2.278165 1_546
O2 Sn7 2.067481 1_555
O2 Zn2 2.081545 1_554
O2 Zn3 2.110207 1_455
O2 Sn6 2.278165 1_554
O3 Zn7 2.015672 1_555
O4 Zn3 2.015672 1_455
O5 Sn5 2.212933 1_655
O6 Zn5 2.015672 1_455
O7 Sn1 2.212933 1_555
O8 Sn2 2.067481 1_455
O8 Zn6 2.081545 1_555
O8 Zn0 2.110207 1_555
O8 Sn0 2.278165 1_555
O9 Sn2 2.212933 1_455
O10 Sn6 2.212933 1_555
O11 Zn1 2.015287 1_655
O11 Sn0 2.041131 1_655
O11 Sn3 2.078003 1_555
O12 Sn1 2.067481 1_555
O12 Zn5 2.081545 1_555
O12 Zn1 2.110207 1_665
O12 Sn3 2.278165 1_565
O13 Zn6 2.015672 1_555
O14 Sn5 2.116081 1_555
O14 Zn4 2.258875 1_565
O15 Sn6 2.067481 1_555
O15 Zn3 2.081545 1_556
O15 Zn2 2.110207 1_655
O15 Sn7 2.278165 1_556
O16 Sn4 2.212933 1_455
O17 Zn1 2.015672 1_655
O18 Zn7 2.015287 1_554
O18 Sn7 2.041131 1_555
O18 Sn5 2.078003 1_555
O19 Sn3 2.067481 1_555
O19 Zn1 2.081545 1_555
O19 Zn5 2.110207 1_445
O19 Sn1 2.278165 1_545
O20 Zn5 2.015287 1_455
O20 Sn2 2.041131 1_455
O20 Sn1 2.078003 1_555
O21 Sn4 2.116081 1_555
O21 Zn7 2.258875 1_545
O22 Zn4 2.015672 1_555
O23 Sn3 2.116081 1_555
O23 Zn5 2.258875 1_545
O24 Zn3 2.015287 1_456
O24 Sn4 2.041131 1_455
O24 Sn6 2.078003 1_555
O25 Zn0 2.015287 1_555
O25 Sn3 2.041131 1_555
O25 Sn0 2.078003 1_555
O26 Sn0 2.067481 1_655
O26 Zn0 2.081545 1_555
O26 Zn6 2.110207 1_555
O26 Sn2 2.278165 1_555
O27 Sn5 2.067481 1_655
O27 Zn7 2.081545 1_554
O27 Zn4 2.110207 1_565
O27 Sn4 2.278165 1_564
O28 Sn7 2.116081 1_555
O28 Zn3 2.258875 1_555
O29 Zn6 2.015287 1_555
O29 Sn1 2.041131 1_555
O29 Sn2 2.078003 1_555
O30 Zn4 2.015287 1_556
O30 Sn6 2.041131 1_555
O30 Sn4 2.078003 1_555
O31 Zn2 2.015287 1_654
O31 Sn5 2.041131 1_655
O31 Sn7 2.078003 1_555
O32 Sn2 2.116081 1_555
O32 Zn0 2.258875 1_555
O33 Zn2 2.015672 1_655
O34 Zn0 2.015672 1_555
O35 Sn0 2.116081 1_555
O35 Zn6 2.258875 1_555
O36 Sn6 2.116081 1_555
O36 Zn2 2.258875 1_555
O37 Sn3 2.212933 1_555
O38 Sn1 2.116081 1_555
O38 Zn1 2.258875 1_565
O39 Sn7 2.212933 1_555
