# generated using pymatgen
data_HoSn3
_symmetry_space_group_name_H-M   'P 1'
_cell_length_a   11.28080075
_cell_length_b   11.28080075
_cell_length_c   4.43215900
_cell_angle_alpha   90.00000000
_cell_angle_beta   90.00000000
_cell_angle_gamma   157.38789455
_symmetry_Int_Tables_number   1
_chemical_formula_structural   HoSn3
_chemical_formula_sum   'Ho2 Sn6'
_cell_volume   216.86060016
_cell_formula_units_Z   2
loop_
 _symmetry_equiv_pos_site_id
 _symmetry_equiv_pos_as_xyz
  1  'x, y, z'
loop_
 _atom_site_type_symbol
 _atom_site_label
 _atom_site_symmetry_multiplicity
 _atom_site_fract_x
 _atom_site_fract_y
 _atom_site_fract_z
 _atom_site_occupancy
  Ho  Ho0  1  0.48222200  0.51777800  0.50000000  1
  Ho  Ho1  1  0.21339500  0.78660500  0.00000000  1
  Sn  Sn0  1  0.09925300  0.90074700  0.50000000  1
  Sn  Sn1  1  0.72767600  0.27232400  0.50000000  1
  Sn  Sn2  1  0.86383900  0.13616100  0.50000000  1
  Sn  Sn3  1  0.97586600  0.02413400  0.00000000  1
  Sn  Sn4  1  0.36314300  0.63685700  0.00000000  1
  Sn  Sn5  1  0.60060700  0.39939300  0.00000000  1
loop_
_geom_bond_atom_site_label_1
_geom_bond_atom_site_label_2
_geom_bond_distance
_geom_bond_site_symmetry_2
Ho0 Sn3 3.133999 1_566
Ho0 Sn3 3.133999 1_455
Ho0 Sn3 3.133999 1_456
Ho0 Sn3 3.133999 1_565
Ho0 Sn0 3.405136 1_545
Ho0 Sn0 3.405136 1_655
Ho0 Sn2 3.427935 1_455
Ho0 Sn2 3.427935 1_565
Ho0 Sn5 3.430862 1_556
Ho0 Sn5 3.430862 1_555
Ho0 Sn4 3.442597 1_555
Ho0 Sn4 3.442597 1_556
Ho1 Sn1 3.146744 1_455
Ho1 Sn1 3.146744 1_454
Ho1 Sn1 3.146744 1_565
Ho1 Sn1 3.146744 1_564
Ho1 Sn4 3.312990 1_555
Ho1 Sn5 3.334317 1_565
Ho1 Sn5 3.334317 1_455
Ho1 Sn0 3.359747 1_555
Ho1 Sn0 3.359747 1_554
Sn0 Sn5 3.130986 1_566
Sn0 Sn5 3.130986 1_565
Sn0 Sn5 3.130986 1_456
Sn0 Sn5 3.130986 1_455
Sn1 Sn2 3.012439 1_555
Sn2 Sn4 3.130880 1_656
Sn2 Sn4 3.130880 1_545
Sn2 Sn4 3.130880 1_655
Sn2 Sn4 3.130880 1_546
Sn2 Sn3 3.324721 1_556
Sn2 Sn3 3.324721 1_555
Sn3 Sn4 3.333240 1_545
Sn3 Sn4 3.333240 1_655
