# generated using pymatgen
data_Pr4(TmS2)11
_symmetry_space_group_name_H-M   'P 1'
_cell_length_a   19.57072054
_cell_length_b   19.57072054
_cell_length_c   11.30193040
_cell_angle_alpha   88.55147749
_cell_angle_beta   88.55147749
_cell_angle_gamma   11.52007607
_symmetry_Int_Tables_number   1
_chemical_formula_structural   Pr4(TmS2)11
_chemical_formula_sum   'Pr4 Tm11 S22'
_cell_volume   864.22861022
_cell_formula_units_Z   1
loop_
 _symmetry_equiv_pos_site_id
 _symmetry_equiv_pos_as_xyz
  1  'x, y, z'
loop_
 _atom_site_type_symbol
 _atom_site_label
 _atom_site_symmetry_multiplicity
 _atom_site_fract_x
 _atom_site_fract_y
 _atom_site_fract_z
 _atom_site_occupancy
  Pr  Pr0  1  0.10451900  0.10451900  0.98712100  1
  Pr  Pr1  1  0.89548100  0.89548100  0.01287900  1
  Pr  Pr2  1  0.36693700  0.36693700  0.65133600  1
  Pr  Pr3  1  0.63306300  0.63306300  0.34866400  1
  Tm  Tm0  1  0.79763200  0.79763200  0.94177500  1
  Tm  Tm1  1  0.20236800  0.20236800  0.05822500  1
  Tm  Tm2  1  0.46184000  0.46184000  0.72933900  1
  Tm  Tm3  1  0.53816000  0.53816000  0.27066100  1
  Tm  Tm4  1  0.65775800  0.65775800  0.69917500  1
  Tm  Tm5  1  0.34224200  0.34224200  0.30082500  1
  Tm  Tm6  1  0.26341700  0.26341700  0.64824700  1
  Tm  Tm7  1  0.73658300  0.73658300  0.35175300  1
  Tm  Tm8  1  0.06966500  0.06966500  0.63894200  1
  Tm  Tm9  1  0.93033500  0.93033500  0.36105800  1
  Tm  Tm10  1  0.00000000  0.00000000  0.00000000  1
  S  S0  1  0.08721800  0.08721800  0.24686100  1
  S  S1  1  0.91278200  0.91278200  0.75313900  1
  S  S2  1  0.18958800  0.18958800  0.30861900  1
  S  S3  1  0.81041200  0.81041200  0.69138100  1
  S  S4  1  0.28021800  0.28021800  0.41068700  1
  S  S5  1  0.71978200  0.71978200  0.58931300  1
  S  S6  1  0.44485100  0.44485100  0.50639900  1
  S  S7  1  0.55514900  0.55514900  0.49360100  1
  S  S8  1  0.13490800  0.13490800  0.54803000  1
  S  S9  1  0.86509200  0.86509200  0.45197000  1
  S  S10  1  0.59282500  0.59282500  0.78633000  1
  S  S11  1  0.40717500  0.40717500  0.21367000  1
  S  S12  1  0.45342000  0.45342000  0.96910300  1
  S  S13  1  0.54658000  0.54658000  0.03089700  1
  S  S14  1  0.34989500  0.34989500  0.90801900  1
  S  S15  1  0.65010500  0.65010500  0.09198100  1
  S  S16  1  0.16898300  0.16898300  0.84813800  1
  S  S17  1  0.83101700  0.83101700  0.15186200  1
  S  S18  1  0.00784600  0.00784600  0.76006500  1
  S  S19  1  0.99215400  0.99215400  0.23993500  1
  S  S20  1  0.25504000  0.25504000  0.88094000  1
  S  S21  1  0.74496000  0.74496000  0.11906000  1
loop_
_geom_bond_atom_site_label_1
_geom_bond_atom_site_label_2
_geom_bond_distance
_geom_bond_site_symmetry_2
Pr0 S15 2.919079 1_546
Pr0 S15 2.919079 1_456
Pr0 S16 2.927360 1_555
Pr0 S0 2.995161 1_556
Pr0 S13 3.022777 1_546
Pr0 S13 3.022777 1_456
Pr0 S10 3.044289 1_545
Pr0 S10 3.044289 1_455
Pr1 S14 2.919079 1_654
Pr1 S14 2.919079 1_564
Pr1 S17 2.927360 1_555
Pr1 S1 2.995161 1_554
Pr1 S12 3.022777 1_654
Pr1 S12 3.022777 1_564
Pr1 S11 3.044289 1_565
Pr1 S11 3.044289 1_655
Pr2 S1 2.910964 1_545
Pr2 S1 2.910964 1_455
Pr2 S14 2.959479 1_555
Pr2 S3 2.976217 1_545
Pr2 S3 2.976217 1_455
Pr2 S9 2.991376 1_545
Pr2 S9 2.991376 1_455
Pr2 S6 3.411376 1_555
Pr3 S0 2.910964 1_565
Pr3 S0 2.910964 1_655
Pr3 S15 2.959479 1_555
Pr3 S2 2.976217 1_655
Pr3 S2 2.976217 1_565
Pr3 S8 2.991376 1_565
Pr3 S8 2.991376 1_655
Pr3 S7 3.411376 1_555
S0 Tm3 2.748493 1_545
S0 Tm3 2.748493 1_455
S1 Tm2 2.748493 1_655
S1 Tm2 2.748493 1_565
S2 Tm7 2.736865 1_545
S2 Tm7 2.736865 1_455
S2 Tm1 2.860887 1_555
S3 Tm6 2.736865 1_565
S3 Tm6 2.736865 1_655
S3 Tm0 2.860887 1_555
S4 Tm5 2.687695 1_555
S4 Tm7 2.691982 1_455
S4 Tm7 2.691982 1_545
S4 Tm6 2.747263 1_555
S5 Tm4 2.687695 1_555
S5 Tm6 2.691982 1_655
S5 Tm6 2.691982 1_565
S5 Tm7 2.747263 1_555
S6 Tm2 2.621277 1_555
S6 Tm9 2.631149 1_455
S6 Tm9 2.631149 1_545
S7 Tm3 2.621277 1_555
S7 Tm8 2.631149 1_655
S7 Tm8 2.631149 1_565
S8 Tm8 2.716391 1_555
S8 Tm4 2.764976 1_545
S8 Tm4 2.764976 1_455
S9 Tm9 2.716391 1_555
S9 Tm5 2.764976 1_565
S9 Tm5 2.764976 1_655
S10 Tm4 2.690393 1_555
S10 Tm8 2.742729 1_565
S10 Tm8 2.742729 1_655
S11 Tm5 2.690393 1_555
S11 Tm9 2.742729 1_545
S11 Tm9 2.742729 1_455
S12 Tm10 2.702346 1_656
S12 Tm10 2.702346 1_566
S12 Tm2 2.721280 1_555
S13 Tm10 2.702346 1_565
S13 Tm10 2.702346 1_655
S13 Tm3 2.721280 1_555
S14 Tm0 2.847202 1_455
S14 Tm0 2.847202 1_545
S15 Tm1 2.847202 1_565
S15 Tm1 2.847202 1_655
S16 Tm4 2.630749 1_545
S16 Tm4 2.630749 1_455
S16 Tm1 2.735863 1_556
S17 Tm5 2.630749 1_655
S17 Tm5 2.630749 1_565
S17 Tm0 2.735863 1_554
S18 Tm2 2.687034 1_455
S18 Tm2 2.687034 1_545
S18 Tm10 2.721164 1_556
S18 Tm8 2.739049 1_555
S19 Tm3 2.687034 1_655
S19 Tm3 2.687034 1_565
S19 Tm10 2.721164 1_665
S19 Tm9 2.739049 1_555
S20 Tm6 2.641799 1_555
S20 Tm0 2.672057 1_455
S20 Tm0 2.672057 1_545
S20 Tm1 2.830802 1_556
S21 Tm7 2.641799 1_555
S21 Tm1 2.672057 1_565
S21 Tm1 2.672057 1_655
S21 Tm0 2.830802 1_554
