# generated using pymatgen
data_Tl3Co
_symmetry_space_group_name_H-M   'P 1'
_cell_length_a   8.40847043
_cell_length_b   8.93044627
_cell_length_c   3.08323849
_cell_angle_alpha   89.86330333
_cell_angle_beta   89.99144186
_cell_angle_gamma   110.26958808
_symmetry_Int_Tables_number   1
_chemical_formula_structural   Tl3Co
_chemical_formula_sum   'Tl6 Co2'
_cell_volume   217.18629899
_cell_formula_units_Z   2
loop_
 _symmetry_equiv_pos_site_id
 _symmetry_equiv_pos_as_xyz
  1  'x, y, z'
loop_
 _atom_site_type_symbol
 _atom_site_label
 _atom_site_symmetry_multiplicity
 _atom_site_fract_x
 _atom_site_fract_y
 _atom_site_fract_z
 _atom_site_occupancy
  Tl  Tl0  1  0.18793800  0.40937700  0.25551800  1
  Tl  Tl1  1  0.60310300  0.81850600  0.24426500  1
  Tl  Tl2  1  0.16946900  0.83402700  0.24982100  1
  Tl  Tl3  1  0.81272600  0.59396400  0.74436900  1
  Tl  Tl4  1  0.39382100  0.18068600  0.75590000  1
  Tl  Tl5  1  0.83339000  0.16306400  0.75001200  1
  Co  Co0  1  0.32941700  0.66941200  0.74959500  1
  Co  Co1  1  0.67012900  0.33096100  0.25050600  1
loop_
_geom_bond_atom_site_label_1
_geom_bond_atom_site_label_2
_geom_bond_distance
_geom_bond_site_symmetry_2
Co0 Tl0 2.689213 1_555
Co0 Tl1 2.698631 1_556
Co0 Tl0 2.703556 1_556
Co0 Tl1 2.713345 1_555
Co0 Tl2 2.775630 1_555
Co0 Tl2 2.780073 1_556
Co1 Tl3 2.709088 1_555
Co1 Tl4 2.715683 1_554
Co1 Tl3 2.724001 1_554
Co1 Tl4 2.730495 1_555
Co1 Tl5 2.814316 1_555
Co1 Tl5 2.819674 1_554
