# generated using pymatgen
data_Zr4NiMo
_symmetry_space_group_name_H-M   'P 1'
_cell_length_a   8.81493738
_cell_length_b   8.81493738
_cell_length_c   8.81493738
_cell_angle_alpha   60.00000000
_cell_angle_beta   60.00000000
_cell_angle_gamma   60.00000000
_symmetry_Int_Tables_number   1
_chemical_formula_structural   Zr4NiMo
_chemical_formula_sum   'Zr16 Ni4 Mo4'
_cell_volume   484.33147944
_cell_formula_units_Z   4
loop_
 _symmetry_equiv_pos_site_id
 _symmetry_equiv_pos_as_xyz
  1  'x, y, z'
loop_
 _atom_site_type_symbol
 _atom_site_label
 _atom_site_symmetry_multiplicity
 _atom_site_fract_x
 _atom_site_fract_y
 _atom_site_fract_z
 _atom_site_occupancy
  Zr  Zr0  1  0.19121700  0.60292800  0.60292800  1
  Zr  Zr1  1  0.60292800  0.19121700  0.60292800  1
  Zr  Zr2  1  0.60292800  0.60292800  0.60292800  1
  Zr  Zr3  1  0.60292800  0.60292800  0.19121700  1
  Zr  Zr4  1  0.45149000  0.45149000  0.04851000  1
  Zr  Zr5  1  0.04851000  0.04851000  0.45149000  1
  Zr  Zr6  1  0.45149000  0.04851000  0.04851000  1
  Zr  Zr7  1  0.04851000  0.45149000  0.45149000  1
  Zr  Zr8  1  0.04851000  0.45149000  0.04851000  1
  Zr  Zr9  1  0.45149000  0.04851000  0.45149000  1
  Zr  Zr10  1  0.81532600  0.81532600  0.18467400  1
  Zr  Zr11  1  0.18467400  0.18467400  0.81532600  1
  Zr  Zr12  1  0.81532600  0.18467400  0.18467400  1
  Zr  Zr13  1  0.18467400  0.81532600  0.81532600  1
  Zr  Zr14  1  0.18467400  0.81532600  0.18467400  1
  Zr  Zr15  1  0.81532600  0.18467400  0.81532600  1
  Ni  Ni0  1  0.82426200  0.39191300  0.39191300  1
  Ni  Ni1  1  0.39191300  0.82426200  0.39191300  1
  Ni  Ni2  1  0.39191300  0.39191300  0.39191300  1
  Ni  Ni3  1  0.39191300  0.39191300  0.82426200  1
  Mo  Mo0  1  0.50241300  0.83252900  0.83252900  1
  Mo  Mo1  1  0.83252900  0.50241300  0.83252900  1
  Mo  Mo2  1  0.83252900  0.83252900  0.83252900  1
  Mo  Mo3  1  0.83252900  0.83252900  0.50241300  1
loop_
_geom_bond_atom_site_label_1
_geom_bond_atom_site_label_2
_geom_bond_distance
_geom_bond_site_symmetry_2
Ni0 Zr7 2.609809 1_655
Ni0 Zr8 2.609815 1_655
Ni0 Zr5 2.609815 1_655
Ni0 Zr2 2.632128 1_555
Ni0 Zr3 2.632128 1_555
Ni0 Zr1 2.632128 1_555
Ni1 Zr9 2.609809 1_565
Ni1 Zr6 2.609815 1_565
Ni1 Zr5 2.609815 1_565
Ni1 Zr2 2.632128 1_555
Ni1 Zr0 2.632128 1_555
Ni1 Zr3 2.632128 1_555
Ni2 Zr9 2.609818 1_555
Ni2 Zr7 2.609818 1_555
Ni2 Zr4 2.609818 1_555
Ni2 Zr3 2.632128 1_555
Ni2 Zr0 2.632128 1_555
Ni2 Zr1 2.632128 1_555
Ni3 Zr4 2.609809 1_556
Ni3 Zr6 2.609815 1_556
Ni3 Zr8 2.609815 1_556
Ni3 Zr2 2.632128 1_555
Ni3 Zr0 2.632128 1_555
Ni3 Zr1 2.632128 1_555
Mo0 Mo2 2.909952 1_555
Mo0 Mo3 2.909952 1_555
Mo0 Mo1 2.909952 1_555
Mo0 Zr13 2.960271 1_555
Mo0 Zr14 2.960271 1_556
Mo0 Zr11 2.960271 1_565
Mo0 Zr9 3.060443 1_565
Mo0 Zr4 3.060443 1_556
Mo0 Zr6 3.060443 1_566
Mo0 Zr2 3.080142 1_555
Mo0 Zr3 3.080149 1_556
Mo0 Zr1 3.080149 1_565
Mo1 Mo2 2.909952 1_555
Mo1 Mo3 2.909952 1_555
Mo1 Zr15 2.960271 1_555
Mo1 Zr11 2.960271 1_655
Mo1 Zr12 2.960271 1_556
Mo1 Zr4 3.060443 1_556
Mo1 Zr7 3.060443 1_655
Mo1 Zr8 3.060443 1_656
Mo1 Zr2 3.080142 1_555
Mo1 Zr3 3.080149 1_556
Mo1 Zr0 3.080149 1_655
Mo2 Mo3 2.909952 1_555
Mo2 Zr15 2.960271 1_565
Mo2 Zr13 2.960271 1_655
Mo2 Zr10 2.960271 1_556
Mo2 Zr6 3.060443 1_566
Mo2 Zr5 3.060443 1_665
Mo2 Zr8 3.060443 1_656
Mo2 Zr3 3.080145 1_556
Mo2 Zr0 3.080145 1_655
Mo2 Zr1 3.080145 1_565
Mo3 Zr10 2.960271 1_555
Mo3 Zr14 2.960271 1_655
Mo3 Zr12 2.960271 1_565
Mo3 Zr9 3.060443 1_565
Mo3 Zr7 3.060443 1_655
Mo3 Zr5 3.060443 1_665
Mo3 Zr2 3.080142 1_555
Mo3 Zr0 3.080149 1_655
Mo3 Zr1 3.080149 1_565
