# generated using pymatgen
data_Yb3Se4
_symmetry_space_group_name_H-M   'P 1'
_cell_length_a   6.84087627
_cell_length_b   6.84087627
_cell_length_c   3.98123411
_cell_angle_alpha   90.00000000
_cell_angle_beta   90.00000000
_cell_angle_gamma   108.48886446
_symmetry_Int_Tables_number   1
_chemical_formula_structural   Yb3Se4
_chemical_formula_sum   'Yb3 Se4'
_cell_volume   176.69570936
_cell_formula_units_Z   1
loop_
 _symmetry_equiv_pos_site_id
 _symmetry_equiv_pos_as_xyz
  1  'x, y, z'
loop_
 _atom_site_type_symbol
 _atom_site_label
 _atom_site_symmetry_multiplicity
 _atom_site_fract_x
 _atom_site_fract_y
 _atom_site_fract_z
 _atom_site_occupancy
  Yb  Yb0  1  0.00000000  0.50000000  0.00000000  1
  Yb  Yb1  1  0.00000000  0.00000000  0.50000000  1
  Yb  Yb2  1  0.50000000  0.00000000  0.00000000  1
  Se  Se0  1  0.74494293  0.25505707  0.50000000  1
  Se  Se1  1  0.75350305  0.75350305  0.00000000  1
  Se  Se2  1  0.25505707  0.74494293  0.50000000  1
  Se  Se3  1  0.24649695  0.24649695  0.00000000  1
loop_
_geom_bond_atom_site_label_1
_geom_bond_atom_site_label_2
_geom_bond_distance
_geom_bond_site_symmetry_2
Se0 Yb0 2.821409 1_656
Se0 Yb0 2.821409 1_655
Se0 Yb2 2.821409 1_556
Se0 Yb2 2.821409 1_555
Se0 Yb1 2.831893 1_655
Se1 Yb2 2.775886 1_565
Se1 Yb0 2.775886 1_655
Se1 Yb1 2.801077 1_664
Se1 Yb1 2.801077 1_665
Se2 Yb2 2.821409 1_566
Se2 Yb2 2.821409 1_565
Se2 Yb0 2.821409 1_555
Se2 Yb0 2.821409 1_556
Se2 Yb1 2.831893 1_565
Se3 Yb0 2.775886 1_555
Se3 Yb2 2.775886 1_555
Se3 Yb1 2.801077 1_554
Se3 Yb1 2.801077 1_555
