# generated using pymatgen
data_CaZn2(PO5)2
_symmetry_space_group_name_H-M   'P 1'
_cell_length_a   6.69703800
_cell_length_b   7.66101500
_cell_length_c   16.59536100
_cell_angle_alpha   90.00000000
_cell_angle_beta   90.00000000
_cell_angle_gamma   90.00000000
_symmetry_Int_Tables_number   1
_chemical_formula_structural   CaZn2(PO5)2
_chemical_formula_sum   'Ca4 Zn8 P8 O40'
_cell_volume   851.44339328
_cell_formula_units_Z   4
loop_
 _symmetry_equiv_pos_site_id
 _symmetry_equiv_pos_as_xyz
  1  'x, y, z'
loop_
 _atom_site_type_symbol
 _atom_site_label
 _atom_site_symmetry_multiplicity
 _atom_site_fract_x
 _atom_site_fract_y
 _atom_site_fract_z
 _atom_site_occupancy
  Ca  Ca0  1  0.75000000  0.11802600  0.50000000  1
  Ca  Ca1  1  0.25000000  0.38197400  0.00000000  1
  Ca  Ca2  1  0.25000000  0.88197400  0.50000000  1
  Ca  Ca3  1  0.75000000  0.61802600  0.00000000  1
  Zn  Zn0  1  0.68954900  0.49106200  0.71399000  1
  Zn  Zn1  1  0.18954900  0.00893800  0.78601000  1
  Zn  Zn2  1  0.31045100  0.00893800  0.21399000  1
  Zn  Zn3  1  0.81045100  0.49106200  0.28601000  1
  Zn  Zn4  1  0.31045100  0.50893800  0.28601000  1
  Zn  Zn5  1  0.81045100  0.99106200  0.21399000  1
  Zn  Zn6  1  0.68954900  0.99106200  0.78601000  1
  Zn  Zn7  1  0.18954900  0.50893800  0.71399000  1
  P  P0  1  0.93875600  0.31438400  0.85217300  1
  P  P1  1  0.43875600  0.18561600  0.64782700  1
  P  P2  1  0.06124400  0.18561600  0.35217300  1
  P  P3  1  0.56124400  0.31438400  0.14782700  1
  P  P4  1  0.06124400  0.68561600  0.14782700  1
  P  P5  1  0.56124400  0.81438400  0.35217300  1
  P  P6  1  0.93875600  0.81438400  0.64782700  1
  P  P7  1  0.43875600  0.68561600  0.85217300  1
  O  O0  1  0.97847900  0.43975200  0.52284900  1
  O  O1  1  0.47847900  0.06024800  0.97715100  1
  O  O2  1  0.02152100  0.06024800  0.02284900  1
  O  O3  1  0.52152100  0.43975200  0.47715100  1
  O  O4  1  0.02152100  0.56024800  0.47715100  1
  O  O5  1  0.52152100  0.93975200  0.02284900  1
  O  O6  1  0.97847900  0.93975200  0.97715100  1
  O  O7  1  0.47847900  0.56024800  0.52284900  1
  O  O8  1  0.93905700  0.42530800  0.92952500  1
  O  O9  1  0.43905700  0.07469200  0.57047500  1
  O  O10  1  0.06094300  0.07469200  0.42952500  1
  O  O11  1  0.56094300  0.42530800  0.07047500  1
  O  O12  1  0.06094300  0.57469200  0.07047500  1
  O  O13  1  0.56094300  0.92530800  0.42952500  1
  O  O14  1  0.93905700  0.92530800  0.57047500  1
  O  O15  1  0.43905700  0.57469200  0.92952500  1
  O  O16  1  0.63672900  0.28644800  0.64571700  1
  O  O17  1  0.13672900  0.21355200  0.85428300  1
  O  O18  1  0.36327100  0.21355200  0.14571700  1
  O  O19  1  0.86327100  0.28644800  0.35428300  1
  O  O20  1  0.36327100  0.71355200  0.35428300  1
  O  O21  1  0.86327100  0.78644800  0.14571700  1
  O  O22  1  0.63672900  0.78644800  0.85428300  1
  O  O23  1  0.13672900  0.71355200  0.64571700  1
  O  O24  1  0.75263200  0.19932400  0.84760000  1
  O  O25  1  0.25263200  0.30067600  0.65240000  1
  O  O26  1  0.24736800  0.30067600  0.34760000  1
  O  O27  1  0.74736800  0.19932400  0.15240000  1
  O  O28  1  0.24736800  0.80067600  0.15240000  1
  O  O29  1  0.74736800  0.69932400  0.34760000  1
  O  O30  1  0.75263200  0.69932400  0.65240000  1
  O  O31  1  0.25263200  0.80067600  0.84760000  1
  O  O32  1  0.94021100  0.43968800  0.77570600  1
  O  O33  1  0.44021100  0.06031200  0.72429400  1
  O  O34  1  0.05978900  0.06031200  0.27570600  1
  O  O35  1  0.55978900  0.43968800  0.22429400  1
  O  O36  1  0.05978900  0.56031200  0.22429400  1
  O  O37  1  0.55978900  0.93968800  0.27570600  1
  O  O38  1  0.94021100  0.93968800  0.72429400  1
  O  O39  1  0.44021100  0.56031200  0.77570600  1
loop_
_geom_bond_atom_site_label_1
_geom_bond_atom_site_label_2
_geom_bond_distance
_geom_bond_site_symmetry_2
Ca0 O14 2.269523 1_545
Ca0 O13 2.269523 1_545
Ca0 O9 2.411318 1_555
Ca0 O10 2.411318 1_655
Ca0 O16 2.843957 1_555
Ca0 O19 2.843957 1_555
Ca0 O0 2.925760 1_555
Ca0 O3 2.925760 1_555
Ca1 O15 2.269523 1_554
Ca1 O12 2.269523 1_555
Ca1 O8 2.411318 1_454
Ca1 O11 2.411318 1_555
Ca1 O17 2.843957 1_554
Ca1 O18 2.843957 1_555
Ca1 O1 2.925760 1_554
Ca1 O2 2.925760 1_555
Ca2 O9 2.269523 1_565
Ca2 O10 2.269523 1_565
Ca2 O14 2.411318 1_455
Ca2 O13 2.411318 1_555
Ca2 O23 2.843957 1_555
Ca2 O20 2.843957 1_555
Ca2 O4 2.925760 1_555
Ca2 O7 2.925760 1_555
Ca3 O8 2.269523 1_554
Ca3 O11 2.269523 1_555
Ca3 O15 2.411318 1_554
Ca3 O12 2.411318 1_655
Ca3 O22 2.843957 1_554
Ca3 O21 2.843957 1_555
Ca3 O5 2.925760 1_555
Ca3 O6 2.925760 1_554
O0 O4 1.228974 1_655
O1 O5 1.228974 1_546
O2 O6 1.228974 1_444
O3 O7 1.228974 1_555
O8 P0 1.539478 1_555
O9 P1 1.539478 1_555
O10 P2 1.539478 1_555
O11 P3 1.539478 1_555
O12 P4 1.539478 1_555
O13 P5 1.539478 1_555
O14 P6 1.539478 1_555
O15 P7 1.539478 1_555
O16 P1 1.534854 1_555
O16 Zn0 1.966232 1_555
O17 P0 1.534854 1_455
O17 Zn1 1.966232 1_555
O18 P3 1.534854 1_555
O18 Zn2 1.966232 1_555
O19 P2 1.534854 1_655
O19 Zn3 1.966232 1_555
O20 P5 1.534854 1_555
O20 Zn4 1.966232 1_555
O21 P4 1.534854 1_655
O21 Zn5 1.966232 1_555
O22 P7 1.534854 1_555
O22 Zn6 1.966232 1_555
O23 P6 1.534854 1_455
O23 Zn7 1.966232 1_555
O24 P0 1.528552 1_555
O24 Zn6 1.941340 1_545
O25 P1 1.528552 1_555
O25 Zn7 1.941340 1_555
O26 P2 1.528552 1_555
O26 Zn4 1.941340 1_555
O27 P3 1.528552 1_555
O27 Zn5 1.941340 1_545
O28 P4 1.528552 1_555
O28 Zn2 1.941340 1_565
O29 P5 1.528552 1_555
O29 Zn3 1.941340 1_555
O30 P6 1.528552 1_555
O30 Zn0 1.941340 1_555
O31 P7 1.528552 1_555
O31 Zn1 1.941340 1_565
O32 P0 1.591215 1_555
O32 Zn0 2.005467 1_555
O32 Zn7 2.029473 1_655
O33 P1 1.591215 1_555
O33 Zn1 2.005467 1_555
O33 Zn6 2.029473 1_545
O34 P2 1.591215 1_555
O34 Zn2 2.005467 1_555
O34 Zn5 2.029473 1_445
O35 P3 1.591215 1_555
O35 Zn3 2.005467 1_555
O35 Zn4 2.029473 1_555
O36 P4 1.591215 1_555
O36 Zn4 2.005467 1_555
O36 Zn3 2.029473 1_455
O37 P5 1.591215 1_555
O37 Zn5 2.005467 1_555
O37 Zn2 2.029473 1_565
O38 P6 1.591215 1_555
O38 Zn6 2.005467 1_555
O38 Zn1 2.029473 1_665
O39 P7 1.591215 1_555
O39 Zn7 2.005467 1_555
O39 Zn0 2.029473 1_555
