# generated using pymatgen
data_SrCa7Ti3Mn5O24
_symmetry_space_group_name_H-M   'P 1'
_cell_length_a   10.90597670
_cell_length_b   15.30563169
_cell_length_c   10.76586842
_cell_angle_alpha   90.01127163
_cell_angle_beta   90.02142614
_cell_angle_gamma   89.99455235
_symmetry_Int_Tables_number   1
_chemical_formula_structural   SrCa7Ti3Mn5O24
_chemical_formula_sum   'Sr4 Ca28 Ti12 Mn20 O96'
_cell_volume   1797.06940708
_cell_formula_units_Z   4
loop_
 _symmetry_equiv_pos_site_id
 _symmetry_equiv_pos_as_xyz
  1  'x, y, z'
loop_
 _atom_site_type_symbol
 _atom_site_label
 _atom_site_symmetry_multiplicity
 _atom_site_fract_x
 _atom_site_fract_y
 _atom_site_fract_z
 _atom_site_occupancy
  Sr  Sr0  1  0.01293114  0.12475810  0.49811617  1
  Sr  Sr1  1  0.48645011  0.37506408  0.00212950  1
  Sr  Sr2  1  0.23599187  0.37574112  0.24838693  1
  Sr  Sr3  1  0.26925614  0.12446499  0.25329573  1
  Ca  Ca0  1  0.01793879  0.12478569  0.99515183  1
  Ca  Ca1  1  0.02270578  0.62516326  0.49722389  1
  Ca  Ca2  1  0.01865392  0.62524953  0.99510149  1
  Ca  Ca3  1  0.52414930  0.12481129  0.49579886  1
  Ca  Ca4  1  0.52497701  0.12493234  0.99491301  1
  Ca  Ca5  1  0.52407317  0.62518724  0.49564640  1
  Ca  Ca6  1  0.52407922  0.62513346  0.99526691  1
  Ca  Ca7  1  0.48048598  0.37661015  0.50690649  1
  Ca  Ca8  1  0.48086854  0.87524081  0.00434558  1
  Ca  Ca9  1  0.47981039  0.87330885  0.50593898  1
  Ca  Ca10  1  0.97609433  0.37627133  0.00230373  1
  Ca  Ca11  1  0.97549689  0.37608909  0.50535647  1
  Ca  Ca12  1  0.97561520  0.87369947  0.00249299  1
  Ca  Ca13  1  0.97612346  0.87387434  0.50501812  1
  Ca  Ca14  1  0.22887565  0.37726652  0.74334279  1
  Ca  Ca15  1  0.23075838  0.87431705  0.24740954  1
  Ca  Ca16  1  0.22908722  0.87272167  0.74434167  1
  Ca  Ca17  1  0.72745154  0.37474460  0.24707772  1
  Ca  Ca18  1  0.72667766  0.37515713  0.74441856  1
  Ca  Ca19  1  0.72631533  0.87516443  0.24607569  1
  Ca  Ca20  1  0.72636748  0.87483893  0.74477205  1
  Ca  Ca21  1  0.27538361  0.12462135  0.75469326  1
  Ca  Ca22  1  0.27460656  0.62533779  0.25540464  1
  Ca  Ca23  1  0.27339785  0.62538054  0.75170705  1
  Ca  Ca24  1  0.76668959  0.12488007  0.25414166  1
  Ca  Ca25  1  0.76842619  0.12505833  0.75529972  1
  Ca  Ca26  1  0.76790895  0.62520254  0.25442682  1
  Ca  Ca27  1  0.77304428  0.62495361  0.75565888  1
  Ti  Ti0  1  0.99723340  0.99812370  0.24950816  1
  Ti  Ti1  1  0.99868642  0.99834383  0.75183099  1
  Ti  Ti2  1  0.99708211  0.50052187  0.25064954  1
  Ti  Ti3  1  0.25140253  0.99880262  0.99838349  1
  Ti  Ti4  1  0.25230354  0.99774797  0.50281879  1
  Ti  Ti5  1  0.24916238  0.50152600  0.99801684  1
  Ti  Ti6  1  0.24988765  0.24968448  0.99719053  1
  Ti  Ti7  1  0.25171000  0.25149349  0.50424696  1
  Ti  Ti8  1  0.25066626  0.75001174  0.99929451  1
  Ti  Ti9  1  0.99584103  0.25123042  0.24990118  1
  Ti  Ti10  1  0.99831744  0.25154554  0.75148650  1
  Ti  Ti11  1  0.99874393  0.75010141  0.25036322  1
  Mn  Mn0  1  0.00045472  0.50177453  0.74945338  1
  Mn  Mn1  1  0.50273364  0.99939046  0.25202765  1
  Mn  Mn2  1  0.50224005  0.99977204  0.75200183  1
  Mn  Mn3  1  0.50219574  0.50155969  0.25239845  1
  Mn  Mn4  1  0.50144342  0.50175401  0.74827181  1
  Mn  Mn5  1  0.25161837  0.50237383  0.50070877  1
  Mn  Mn6  1  0.74834334  0.99922757  0.00155476  1
  Mn  Mn7  1  0.74674147  0.99848824  0.50142666  1
  Mn  Mn8  1  0.74990933  0.50036178  0.00057696  1
  Mn  Mn9  1  0.74990505  0.50109434  0.50256639  1
  Mn  Mn10  1  0.25219574  0.74853561  0.49895585  1
  Mn  Mn11  1  0.74974483  0.24954518  0.00196446  1
  Mn  Mn12  1  0.74661277  0.25112325  0.50164276  1
  Mn  Mn13  1  0.74847901  0.75089874  0.00014126  1
  Mn  Mn14  1  0.75002105  0.74927505  0.50235495  1
  Mn  Mn15  1  0.00082195  0.74845538  0.74961273  1
  Mn  Mn16  1  0.50388105  0.24844353  0.25243549  1
  Mn  Mn17  1  0.50178381  0.24912649  0.75019634  1
  Mn  Mn18  1  0.50080514  0.75069172  0.25179226  1
  Mn  Mn19  1  0.50185737  0.74923103  0.75004963  1
  O  O0  1  0.10464899  0.26738630  0.10376687  1
  O  O1  1  0.10607711  0.26984720  0.60751338  1
  O  O2  1  0.10642451  0.77015757  0.10554274  1
  O  O3  1  0.10431104  0.77001682  0.60263572  1
  O  O4  1  0.60908394  0.26625727  0.10748283  1
  O  O5  1  0.60290552  0.26979841  0.60145417  1
  O  O6  1  0.60285048  0.77034223  0.10250361  1
  O  O7  1  0.60403106  0.77029146  0.60318877  1
  O  O8  1  0.39833840  0.23391019  0.39388536  1
  O  O9  1  0.39716229  0.22949622  0.89013733  1
  O  O10  1  0.39732957  0.72842349  0.39740329  1
  O  O11  1  0.39649678  0.73034387  0.89228273  1
  O  O12  1  0.88553986  0.23525743  0.39185413  1
  O  O13  1  0.89183806  0.23258086  0.89795661  1
  O  O14  1  0.89174405  0.73061758  0.39721009  1
  O  O15  1  0.89622791  0.72955994  0.89732786  1
  O  O16  1  0.13990272  0.23628975  0.36007672  1
  O  O17  1  0.14361094  0.23153710  0.85292983  1
  O  O18  1  0.14663085  0.72998943  0.35617314  1
  O  O19  1  0.14293157  0.72963490  0.85266904  1
  O  O20  1  0.64678983  0.22954314  0.35394005  1
  O  O21  1  0.64642949  0.23015097  0.85321392  1
  O  O22  1  0.64625071  0.72955653  0.35302563  1
  O  O23  1  0.64679184  0.72921233  0.85250794  1
  O  O24  1  0.36269315  0.26324584  0.14129530  1
  O  O25  1  0.35796806  0.26788834  0.64858005  1
  O  O26  1  0.35736328  0.76925454  0.14688494  1
  O  O27  1  0.35476900  0.76996694  0.64679290  1
  O  O28  1  0.85276573  0.26968992  0.14166786  1
  O  O29  1  0.85318019  0.26851573  0.64216317  1
  O  O30  1  0.85282959  0.76966651  0.14321546  1
  O  O31  1  0.85376144  0.77096239  0.64730272  1
  O  O32  1  0.36100419  0.48768226  0.14267080  1
  O  O33  1  0.35464905  0.48126451  0.64717316  1
  O  O34  1  0.35921149  0.98001429  0.14553652  1
  O  O35  1  0.35795596  0.98063339  0.64831068  1
  O  O36  1  0.85339074  0.48075514  0.14292112  1
  O  O37  1  0.85384754  0.47906828  0.64731680  1
  O  O38  1  0.85200986  0.97991426  0.14199969  1
  O  O39  1  0.85314264  0.98142657  0.64210280  1
  O  O40  1  0.14116137  0.01278472  0.35871627  1
  O  O41  1  0.14368968  0.01755077  0.85357192  1
  O  O42  1  0.14532261  0.52093357  0.35787822  1
  O  O43  1  0.14276542  0.52116539  0.85197856  1
  O  O44  1  0.64671185  0.02005668  0.35276842  1
  O  O45  1  0.64711274  0.02049453  0.85243507  1
  O  O46  1  0.64653436  0.52085480  0.35421636  1
  O  O47  1  0.64601638  0.52012621  0.85332742  1
  O  O48  1  0.39904954  0.01663980  0.39461199  1
  O  O49  1  0.39843632  0.01930856  0.89290970  1
  O  O50  1  0.39667831  0.52095843  0.39706808  1
  O  O51  1  0.39516002  0.52080737  0.88955276  1
  O  O52  1  0.88600592  0.01404645  0.39166912  1
  O  O53  1  0.89170119  0.01727999  0.89807460  1
  O  O54  1  0.89128473  0.52004111  0.39734403  1
  O  O55  1  0.89621248  0.52053477  0.89728347  1
  O  O56  1  0.10477370  0.48219813  0.10444482  1
  O  O57  1  0.10372041  0.48034227  0.60320188  1
  O  O58  1  0.10621035  0.98038289  0.10479937  1
  O  O59  1  0.10682558  0.97960235  0.60695598  1
  O  O60  1  0.60859174  0.48449586  0.10791968  1
  O  O61  1  0.60448823  0.48063477  0.60213755  1
  O  O62  1  0.60333869  0.97900212  0.10217975  1
  O  O63  1  0.60249502  0.97927250  0.60243686  1
  O  O64  1  0.00179487  0.37645116  0.28533789  1
  O  O65  1  0.00831751  0.37816333  0.78596177  1
  O  O66  1  0.00772278  0.87358386  0.28546890  1
  O  O67  1  0.00845113  0.87179379  0.78609868  1
  O  O68  1  0.51027214  0.37542311  0.28891482  1
  O  O69  1  0.51156880  0.37540782  0.77988890  1
  O  O70  1  0.51187787  0.87470790  0.29131557  1
  O  O71  1  0.51124470  0.87461642  0.79056748  1
  O  O72  1  0.49837927  0.12375301  0.21111172  1
  O  O73  1  0.49099425  0.12459976  0.70990488  1
  O  O74  1  0.49006227  0.62634537  0.21181232  1
  O  O75  1  0.49034198  0.62536245  0.70887945  1
  O  O76  1  0.99153779  0.12464459  0.21608824  1
  O  O77  1  0.98955987  0.12489711  0.72390730  1
  O  O78  1  0.99157967  0.62532427  0.21410845  1
  O  O79  1  0.98768960  0.62500750  0.70896890  1
  O  O80  1  0.23993080  0.12416895  0.02578339  1
  O  O81  1  0.24746035  0.12473441  0.53460459  1
  O  O82  1  0.23979271  0.62590919  0.03513339  1
  O  O83  1  0.24015758  0.62528104  0.54040868  1
  O  O84  1  0.73984451  0.12427094  0.04029795  1
  O  O85  1  0.74012252  0.12485699  0.54038551  1
  O  O86  1  0.74065277  0.62572636  0.03941096  1
  O  O87  1  0.73818699  0.62517082  0.54144559  1
  O  O88  1  0.26010938  0.37845319  0.47453269  1
  O  O89  1  0.25369176  0.37543415  0.96405746  1
  O  O90  1  0.26014247  0.87134245  0.46409325  1
  O  O91  1  0.25940159  0.87459293  0.96229896  1
  O  O92  1  0.75939852  0.37605627  0.46166357  1
  O  O93  1  0.75796816  0.37523354  0.96063666  1
  O  O94  1  0.75957813  0.87393152  0.46123602  1
  O  O95  1  0.75944713  0.87477461  0.95961523  1
loop_
_geom_bond_atom_site_label_1
_geom_bond_atom_site_label_2
_geom_bond_distance
_geom_bond_site_symmetry_2
Ca0 O53 2.386181 1_455
Ca0 O13 2.389038 1_455
Ca0 O76 2.396044 1_456
Ca0 O80 2.443292 1_556
Ca0 O17 2.625925 1_555
Ca0 O41 2.626429 1_555
Ca0 O0 2.650262 1_556
Ca0 O58 2.684191 1_546
Ca1 O79 2.311527 1_455
Ca1 O54 2.407881 1_455
Ca1 O14 2.409053 1_455
Ca1 O83 2.416497 1_555
Ca1 O42 2.565916 1_555
Ca1 O18 2.590302 1_555
Ca1 O3 2.644619 1_555
Ca1 O57 2.644898 1_555
Ca2 O15 2.332130 1_455
Ca2 O55 2.336573 1_455
Ca2 O78 2.376326 1_456
Ca2 O82 2.449803 1_556
Ca2 O19 2.596901 1_555
Ca2 O43 2.596994 1_555
Ca2 O56 2.657358 1_556
Ca2 O2 2.692141 1_556
Ca3 O73 2.333362 1_555
Ca3 O85 2.403637 1_555
Ca3 O48 2.405796 1_555
Ca3 O8 2.423621 1_555
Ca3 O20 2.587248 1_555
Ca3 O44 2.593963 1_555
Ca3 O5 2.637177 1_555
Ca3 O63 2.647646 1_545
Ca4 O72 2.345753 1_556
Ca4 O49 2.392194 1_555
Ca4 O84 2.393580 1_556
Ca4 O9 2.403312 1_555
Ca4 O21 2.584190 1_555
Ca4 O45 2.585036 1_555
Ca4 O4 2.643385 1_556
Ca4 O62 2.655682 1_546
Ca5 O75 2.325064 1_555
Ca5 O10 2.350569 1_555
Ca5 O50 2.366485 1_555
Ca5 O87 2.386429 1_555
Ca5 O46 2.579195 1_555
Ca5 O22 2.586066 1_555
Ca5 O61 2.641669 1_555
Ca5 O7 2.651780 1_555
Ca6 O74 2.360839 1_556
Ca6 O11 2.399479 1_555
Ca6 O86 2.409128 1_556
Ca6 O51 2.412530 1_555
Ca6 O47 2.585890 1_555
Ca6 O23 2.587222 1_555
Ca6 O60 2.636984 1_556
Ca6 O6 2.647460 1_556
Ca7 O61 2.326743 1_555
Ca7 O5 2.343174 1_555
Ca7 O68 2.369431 1_555
Ca7 O88 2.428595 1_555
Ca7 O33 2.594174 1_555
Ca7 O25 2.623691 1_555
Ca7 O8 2.655565 1_555
Ca7 O50 2.667349 1_555
Ca8 O71 2.325367 1_554
Ca8 O62 2.326846 1_555
Ca8 O6 2.337410 1_555
Ca8 O91 2.457220 1_554
Ca8 O34 2.577335 1_555
Ca8 O26 2.608365 1_555
Ca8 O49 2.666382 1_564
Ca8 O11 2.686837 1_554
Ca9 O7 2.327406 1_555
Ca9 O70 2.337156 1_555
Ca9 O63 2.344907 1_555
Ca9 O90 2.437706 1_555
Ca9 O27 2.581454 1_555
Ca9 O35 2.610346 1_555
Ca9 O48 2.650425 1_565
Ca9 O10 2.662830 1_555
Ca10 O65 2.355786 1_654
Ca10 O56 2.409518 1_655
Ca10 O93 2.420692 1_554
Ca10 O0 2.436263 1_655
Ca10 O36 2.576849 1_555
Ca10 O28 2.593110 1_555
Ca10 O55 2.629190 1_554
Ca10 O13 2.634732 1_554
Ca11 O57 2.368535 1_655
Ca11 O64 2.386105 1_655
Ca11 O92 2.403076 1_555
Ca11 O1 2.425065 1_655
Ca11 O37 2.565226 1_555
Ca11 O29 2.581184 1_555
Ca11 O54 2.655175 1_555
Ca11 O12 2.664655 1_555
Ca12 O67 2.357342 1_654
Ca12 O95 2.402178 1_554
Ca12 O2 2.403455 1_655
Ca12 O58 2.430317 1_655
Ca12 O30 2.574231 1_555
Ca12 O38 2.591510 1_555
Ca12 O15 2.626251 1_554
Ca12 O53 2.632579 1_564
Ca13 O3 2.363236 1_655
Ca13 O66 2.388760 1_655
Ca13 O94 2.408044 1_555
Ca13 O59 2.419403 1_655
Ca13 O31 2.571228 1_555
Ca13 O39 2.585906 1_555
Ca13 O14 2.645785 1_555
Ca13 O52 2.656622 1_565
Ca14 O33 2.342919 1_555
Ca14 O89 2.391617 1_555
Ca14 O25 2.413609 1_555
Ca14 O65 2.448977 1_555
Ca14 O57 2.574352 1_555
Ca14 O1 2.575477 1_555
Ca14 O43 2.664595 1_555
Ca14 O17 2.689596 1_555
Ca15 O90 2.355027 1_555
Ca15 O26 2.379818 1_555
Ca15 O34 2.405169 1_555
Ca15 O66 2.466868 1_555
Ca15 O2 2.590532 1_555
Ca15 O58 2.614706 1_555
Ca15 O40 2.623324 1_565
Ca15 O18 2.663622 1_555
Ca16 O27 2.335630 1_555
Ca16 O91 2.369721 1_555
Ca16 O35 2.402976 1_555
Ca16 O67 2.448094 1_555
Ca16 O59 2.576961 1_555
Ca16 O3 2.578408 1_555
Ca16 O19 2.653572 1_555
Ca16 O41 2.676461 1_565
Ca17 O92 2.336282 1_555
Ca17 O28 2.396057 1_555
Ca17 O36 2.403925 1_555
Ca17 O68 2.411186 1_555
Ca17 O4 2.584603 1_555
Ca17 O60 2.597252 1_555
Ca17 O20 2.653042 1_555
Ca17 O46 2.666392 1_555
Ca18 O93 2.352530 1_555
Ca18 O37 2.355412 1_555
Ca18 O69 2.376992 1_555
Ca18 O29 2.404043 1_555
Ca18 O61 2.593740 1_555
Ca18 O5 2.605639 1_555
Ca18 O21 2.658154 1_555
Ca18 O47 2.659182 1_555
Ca19 O94 2.344567 1_555
Ca19 O38 2.389001 1_555
Ca19 O70 2.389017 1_555
Ca19 O30 2.395275 1_555
Ca19 O62 2.592984 1_555
Ca19 O6 2.602706 1_555
Ca19 O44 2.643954 1_565
Ca19 O22 2.656515 1_555
Ca20 O95 2.340807 1_555
Ca20 O31 2.357798 1_555
Ca20 O71 2.397551 1_555
Ca20 O39 2.407709 1_555
Ca20 O7 2.581071 1_555
Ca20 O63 2.593676 1_555
Ca20 O45 2.657057 1_565
Ca20 O23 2.658689 1_555
Ca21 O81 2.388823 1_555
Ca21 O73 2.400551 1_555
Ca21 O17 2.421087 1_555
Ca21 O41 2.425674 1_555
Ca21 O9 2.542594 1_555
Ca21 O49 2.571456 1_555
Ca21 O25 2.631870 1_555
Ca21 O35 2.641766 1_545
Ca22 O18 2.385489 1_555
Ca22 O74 2.396387 1_555
Ca22 O42 2.400187 1_555
Ca22 O82 2.401491 1_555
Ca22 O10 2.572109 1_555
Ca22 O50 2.578711 1_555
Ca22 O32 2.607560 1_555
Ca22 O26 2.652123 1_555
Ca23 O83 2.303381 1_555
Ca23 O43 2.396158 1_555
Ca23 O19 2.398378 1_555
Ca23 O75 2.410665 1_555
Ca23 O51 2.554721 1_555
Ca23 O11 2.582955 1_555
Ca23 O33 2.629949 1_555
Ca23 O27 2.638693 1_555
Ca24 O84 2.320663 1_555
Ca24 O44 2.327166 1_555
Ca24 O20 2.330326 1_555
Ca24 O76 2.486329 1_555
Ca24 O12 2.594266 1_555
Ca24 O52 2.600441 1_555
Ca24 O38 2.691813 1_545
Ca24 O28 2.694852 1_555
Ca25 O45 2.325392 1_555
Ca25 O85 2.334125 1_555
Ca25 O21 2.338521 1_555
Ca25 O77 2.435371 1_555
Ca25 O13 2.622306 1_555
Ca25 O53 2.624963 1_555
Ca25 O29 2.676068 1_555
Ca25 O39 2.677875 1_545
Ca26 O22 2.332002 1_555
Ca26 O86 2.333745 1_555
Ca26 O46 2.336507 1_555
Ca26 O78 2.477826 1_555
Ca26 O54 2.601450 1_555
Ca26 O14 2.605378 1_555
Ca26 O30 2.680021 1_555
Ca26 O36 2.682816 1_555
Ca27 O87 2.337177 1_555
Ca27 O23 2.351473 1_555
Ca27 O47 2.366704 1_555
Ca27 O79 2.394460 1_555
Ca27 O55 2.585028 1_555
Ca27 O15 2.586959 1_555
Ca27 O37 2.668731 1_555
Ca27 O31 2.670593 1_555
Mn0 O43 1.927147 1_555
Mn0 O65 1.934306 1_555
Mn0 O79 1.940920 1_455
Mn0 O57 1.963706 1_555
Mn0 O37 1.971035 1_455
Mn0 O55 1.977107 1_455
Mn1 O48 1.925046 1_565
Mn1 O44 1.934066 1_565
Mn1 O72 1.954405 1_565
Mn1 O70 1.957263 1_555
Mn1 O34 1.962386 1_555
Mn1 O62 1.976065 1_555
Mn2 O49 1.916595 1_565
Mn2 O45 1.940287 1_565
Mn2 O35 1.951082 1_555
Mn2 O71 1.962586 1_555
Mn2 O73 1.967476 1_565
Mn2 O63 1.971727 1_555
Mn3 O46 1.940466 1_555
Mn3 O32 1.951999 1_555
Mn3 O60 1.958355 1_555
Mn3 O50 1.959416 1_555
Mn3 O74 1.963791 1_555
Mn3 O68 1.972249 1_555
Mn4 O51 1.934728 1_555
Mn4 O75 1.942692 1_555
Mn4 O47 1.960333 1_555
Mn4 O61 1.960518 1_555
Mn4 O33 1.960778 1_555
Mn4 O69 1.966688 1_555
Mn5 O88 1.919681 1_555
Mn5 O83 1.933077 1_555
Mn5 O42 1.946242 1_555
Mn5 O50 1.957090 1_555
Mn5 O33 1.962685 1_555
Mn5 O57 1.983562 1_555
Mn6 O38 1.910658 1_555
Mn6 O53 1.939939 1_564
Mn6 O62 1.942109 1_555
Mn6 O84 1.960902 1_565
Mn6 O95 1.961268 1_554
Mn6 O45 1.975080 1_564
Mn7 O39 1.925419 1_555
Mn7 O63 1.935294 1_555
Mn7 O52 1.939404 1_565
Mn7 O94 1.959827 1_555
Mn7 O44 1.964513 1_565
Mn7 O85 1.980342 1_565
Mn8 O36 1.926387 1_555
Mn8 O60 1.941983 1_555
Mn8 O93 1.964727 1_554
Mn8 O86 1.966315 1_555
Mn8 O55 1.969620 1_554
Mn8 O47 1.971593 1_554
Mn9 O54 1.935531 1_555
Mn9 O61 1.940051 1_555
Mn9 O87 1.948763 1_555
Mn9 O37 1.956016 1_555
Mn9 O92 1.966437 1_555
Mn9 O46 1.977870 1_555
Mn10 O90 1.918788 1_555
Mn10 O18 1.941013 1_555
Mn10 O83 1.943106 1_555
Mn10 O10 1.948454 1_555
Mn10 O27 1.972487 1_555
Mn10 O3 1.989051 1_555
Mn11 O28 1.902140 1_555
Mn11 O4 1.926220 1_555
Mn11 O13 1.929713 1_554
Mn11 O84 1.964379 1_555
Mn11 O93 1.976659 1_554
Mn11 O21 1.980099 1_554
Mn12 O5 1.921915 1_555
Mn12 O29 1.925836 1_555
Mn12 O12 1.937218 1_555
Mn12 O20 1.954848 1_555
Mn12 O92 1.965081 1_555
Mn12 O85 1.978442 1_555
Mn13 O30 1.936186 1_555
Mn13 O95 1.949329 1_554
Mn13 O6 1.956156 1_555
Mn13 O86 1.963887 1_555
Mn13 O23 1.965907 1_554
Mn13 O15 1.982264 1_554
Mn14 O14 1.937261 1_555
Mn14 O87 1.949935 1_555
Mn14 O7 1.953961 1_555
Mn14 O31 1.955479 1_555
Mn14 O94 1.961503 1_555
Mn14 O22 1.988706 1_555
Mn15 O19 1.927361 1_555
Mn15 O67 1.929926 1_555
Mn15 O79 1.944651 1_455
Mn15 O3 1.971840 1_555
Mn15 O31 1.975575 1_455
Mn15 O15 1.978745 1_455
Mn16 O8 1.922210 1_555
Mn16 O20 1.925029 1_555
Mn16 O4 1.956421 1_555
Mn16 O72 1.960469 1_555
Mn16 O24 1.962807 1_555
Mn16 O68 1.983937 1_555
Mn17 O9 1.914023 1_555
Mn17 O25 1.933408 1_555
Mn17 O21 1.949780 1_555
Mn17 O73 1.958154 1_555
Mn17 O69 1.961918 1_555
Mn17 O5 1.970334 1_555
Mn18 O70 1.948918 1_555
Mn18 O26 1.949947 1_555
Mn18 O22 1.951233 1_555
Mn18 O74 1.954696 1_555
Mn18 O10 1.961823 1_555
Mn18 O6 1.978325 1_555
Mn19 O11 1.936550 1_555
Mn19 O75 1.950971 1_555
Mn19 O23 1.951359 1_555
Mn19 O7 1.961375 1_555
Mn19 O71 1.970632 1_555
Mn19 O27 1.976985 1_555
O0 Ti6 1.974846 1_554
O0 Ti9 1.986470 1_455
O0 Sr2 2.687777 1_555
O1 Ti7 1.959239 1_555
O1 Ti10 1.965630 1_455
O1 Sr0 2.710901 1_555
O2 Ti8 1.969576 1_554
O2 Ti11 1.976318 1_455
O4 Sr1 2.418223 1_555
O8 Ti7 2.010601 1_555
O8 Sr3 2.660191 1_555
O9 Ti6 2.001181 1_555
O9 Sr1 2.713747 1_556
O11 Ti8 1.987080 1_555
O12 Ti9 1.960601 1_555
O12 Sr0 2.469507 1_655
O13 Ti10 1.980137 1_555
O14 Ti11 1.987878 1_555
O16 Ti9 1.981493 1_455
O16 Ti7 1.987102 1_555
O16 Sr3 2.498216 1_555
O16 Sr0 2.653887 1_555
O16 Sr2 2.664967 1_555
O17 Ti10 1.948364 1_455
O17 Ti6 1.957342 1_555
O18 Ti11 1.998086 1_455
O19 Ti8 1.992007 1_555
O24 Ti6 1.990474 1_554
O24 Sr2 2.490627 1_555
O24 Sr1 2.645450 1_555
O24 Sr3 2.646994 1_555
O25 Ti7 1.954218 1_555
O26 Ti8 1.990984 1_554
O28 Ti9 1.967495 1_555
O29 Ti10 1.989172 1_555
O30 Ti11 1.987802 1_555
O32 Ti5 1.989119 1_554
O32 Sr2 2.468200 1_555
O32 Sr1 2.670624 1_555
O34 Ti3 1.993394 1_554
O34 Sr3 2.682516 1_565
O35 Ti4 1.961753 1_555
O36 Ti2 1.972568 1_555
O38 Ti0 1.980991 1_555
O39 Ti1 1.995151 1_555
O40 Ti0 1.973609 1_445
O40 Ti4 1.981836 1_545
O40 Sr3 2.482728 1_555
O40 Sr0 2.673071 1_555
O41 Ti1 1.945679 1_445
O41 Ti3 1.972711 1_545
O42 Ti2 2.010613 1_455
O42 Sr2 2.702807 1_555
O43 Ti5 1.976729 1_555
O48 Ti4 2.000904 1_545
O48 Sr3 2.653464 1_555
O49 Ti3 1.990192 1_545
O51 Ti5 1.996874 1_555
O51 Sr1 2.726880 1_556
O52 Ti0 1.968361 1_545
O52 Sr0 2.469676 1_655
O53 Ti1 1.981253 1_545
O54 Ti2 1.978849 1_555
O56 Ti5 1.970177 1_554
O56 Ti2 1.984125 1_455
O56 Sr2 2.665183 1_555
O58 Ti3 1.975080 1_554
O58 Ti0 1.978515 1_455
O59 Ti4 1.962863 1_555
O59 Ti1 1.976612 1_455
O59 Sr0 2.712426 1_565
O60 Sr1 2.423937 1_555
O64 Ti2 1.936099 1_455
O64 Ti9 1.955190 1_455
O64 Sr2 2.585109 1_555
O65 Ti10 1.976129 1_455
O66 Ti11 1.929811 1_455
O66 Ti0 1.948496 1_455
O67 Ti1 1.974677 1_455
O69 Sr1 2.408353 1_556
O72 Sr3 2.539935 1_555
O76 Ti0 1.970662 1_545
O76 Ti9 1.971867 1_555
O77 Ti1 1.962736 1_545
O77 Ti10 1.963312 1_555
O77 Sr0 2.444259 1_655
O78 Ti11 1.950762 1_555
O78 Ti2 1.951257 1_555
O80 Ti3 1.945318 1_544
O80 Ti6 1.948705 1_554
O80 Sr3 2.470044 1_555
O81 Ti7 1.968080 1_555
O81 Ti4 1.974142 1_545
O81 Sr0 2.587615 1_555
O82 Ti8 1.941977 1_554
O82 Ti5 1.947851 1_554
O88 Ti7 1.971560 1_555
O88 Sr2 2.449068 1_555
O89 Ti6 1.957969 1_555
O89 Ti5 1.964789 1_555
O89 Sr1 2.571190 1_556
O90 Ti4 1.980892 1_555
O91 Ti3 1.942278 1_555
O91 Ti8 1.950368 1_555
