# generated using pymatgen
data_MnRe(PbO3)2
_symmetry_space_group_name_H-M   'P 1'
_cell_length_a   5.77049976
_cell_length_b   5.77097775
_cell_length_c   5.77101098
_cell_angle_alpha   59.99812338
_cell_angle_beta   59.99649371
_cell_angle_gamma   59.99755164
_symmetry_Int_Tables_number   1
_chemical_formula_structural   MnRe(PbO3)2
_chemical_formula_sum   'Mn1 Re1 Pb2 O6'
_cell_volume   135.88578413
_cell_formula_units_Z   1
loop_
 _symmetry_equiv_pos_site_id
 _symmetry_equiv_pos_as_xyz
  1  'x, y, z'
loop_
 _atom_site_type_symbol
 _atom_site_label
 _atom_site_symmetry_multiplicity
 _atom_site_fract_x
 _atom_site_fract_y
 _atom_site_fract_z
 _atom_site_occupancy
  Mn  Mn0  1  0.50000000  0.50000000  0.50000000  1
  Re  Re0  1  0.00000000  0.00000000  0.00000000  1
  Pb  Pb0  1  0.24996500  0.25001200  0.25000900  1
  Pb  Pb1  1  0.75003500  0.74998800  0.74999100  1
  O  O0  1  0.76360200  0.23641800  0.23641700  1
  O  O1  1  0.76359200  0.23642400  0.76355900  1
  O  O2  1  0.76360000  0.76356300  0.23641600  1
  O  O3  1  0.23639800  0.76358200  0.76358300  1
  O  O4  1  0.23640800  0.76357600  0.23644100  1
  O  O5  1  0.23640000  0.23643700  0.76358400  1
loop_
_geom_bond_atom_site_label_1
_geom_bond_atom_site_label_2
_geom_bond_distance
_geom_bond_site_symmetry_2
Mn0 O4 2.151048 1_555
Mn0 O1 2.151048 1_555
Mn0 O2 2.151056 1_555
Mn0 O5 2.151056 1_555
Mn0 O3 2.151141 1_555
Mn0 O0 2.151141 1_555
O0 Re0 1.929443 1_655
O0 Pb0 2.887142 1_655
O0 Pb1 2.887530 1_554
O0 Pb1 2.887551 1_545
O0 Pb0 2.887622 1_555
O1 Re0 1.929467 1_656
O1 Pb0 2.887144 1_655
O1 Pb0 2.887566 1_556
O1 Pb1 2.887604 1_545
O1 Pb1 2.887617 1_555
O2 Re0 1.929382 1_665
O2 Pb0 2.887164 1_655
O2 Pb1 2.887604 1_554
O2 Pb0 2.887625 1_565
O2 Pb1 2.887656 1_555
O3 Re0 1.929443 1_566
O3 Pb1 2.887142 1_455
O3 Pb0 2.887530 1_556
O3 Pb0 2.887551 1_565
O3 Pb1 2.887622 1_555
O4 Re0 1.929467 1_565
O4 Pb1 2.887144 1_455
O4 Pb1 2.887566 1_554
O4 Pb0 2.887604 1_565
O4 Pb0 2.887617 1_555
O5 Re0 1.929382 1_556
O5 Pb1 2.887164 1_455
O5 Pb0 2.887604 1_556
O5 Pb1 2.887625 1_545
O5 Pb0 2.887656 1_555
