# generated using pymatgen
data_Ba5Nd8Mn4O21
_symmetry_space_group_name_H-M   'P 1'
_cell_length_a   10.61288837
_cell_length_b   10.61288837
_cell_length_c   10.61288837
_cell_angle_alpha   94.50344857
_cell_angle_beta   94.50344857
_cell_angle_gamma   147.45421300
_symmetry_Int_Tables_number   1
_chemical_formula_structural   Ba5Nd8Mn4O21
_chemical_formula_sum   'Ba5 Nd8 Mn4 O21'
_cell_volume   617.31208051
_cell_formula_units_Z   1
loop_
 _symmetry_equiv_pos_site_id
 _symmetry_equiv_pos_as_xyz
  1  'x, y, z'
loop_
 _atom_site_type_symbol
 _atom_site_label
 _atom_site_symmetry_multiplicity
 _atom_site_fract_x
 _atom_site_fract_y
 _atom_site_fract_z
 _atom_site_occupancy
  Ba  Ba0  1  0.53074200  0.86433300  0.39507600  1
  Ba  Ba1  1  0.86433300  0.46925800  0.33359100  1
  Ba  Ba2  1  0.13566700  0.53074200  0.66640900  1
  Ba  Ba3  1  0.46925800  0.13566700  0.60492400  1
  Ba  Ba4  1  0.00000000  0.00000000  0.00000000  1
  Nd  Nd0  1  0.41093400  0.64295400  0.05388800  1
  Nd  Nd1  1  0.64295400  0.58906600  0.23202000  1
  Nd  Nd2  1  0.35704600  0.41093400  0.76798000  1
  Nd  Nd3  1  0.58906600  0.35704600  0.94611200  1
  Nd  Nd4  1  0.24715100  0.83143700  0.07858800  1
  Nd  Nd5  1  0.83143700  0.75284900  0.58428700  1
  Nd  Nd6  1  0.16856300  0.24715100  0.41571300  1
  Nd  Nd7  1  0.75284900  0.16856300  0.92141200  1
  Mn  Mn0  1  0.04034100  0.74790900  0.78825000  1
  Mn  Mn1  1  0.74790900  0.95965900  0.70756800  1
  Mn  Mn2  1  0.25209100  0.04034100  0.29243200  1
  Mn  Mn3  1  0.95965900  0.25209100  0.21175000  1
  O  O0  1  0.90157700  0.49477900  0.88860000  1
  O  O1  1  0.49477900  0.60618000  0.59320200  1
  O  O2  1  0.01297700  0.90157700  0.40679800  1
  O  O3  1  0.60618000  0.01297700  0.11140000  1
  O  O4  1  0.09842300  0.50522100  0.11140000  1
  O  O5  1  0.50522100  0.39382000  0.40679800  1
  O  O6  1  0.98702300  0.09842300  0.59320200  1
  O  O7  1  0.39382000  0.98702300  0.88860000  1
  O  O8  1  0.06849500  0.29367300  0.86710100  1
  O  O9  1  0.29367300  0.42657200  0.22517800  1
  O  O10  1  0.20139400  0.06849500  0.77482200  1
  O  O11  1  0.42657200  0.20139400  0.13289900  1
  O  O12  1  0.93150500  0.70632700  0.13289900  1
  O  O13  1  0.70632700  0.57342800  0.77482200  1
  O  O14  1  0.79860600  0.93150500  0.22517800  1
  O  O15  1  0.57342800  0.79860600  0.86710100  1
  O  O16  1  0.62291900  0.03211300  0.65503300  1
  O  O17  1  0.50000000  0.50000000  0.00000000  1
  O  O18  1  0.37708100  0.96788700  0.34496700  1
  O  O19  1  0.96788700  0.62291900  0.59080600  1
  O  O20  1  0.03211300  0.37708100  0.40919400  1
loop_
_geom_bond_atom_site_label_1
_geom_bond_atom_site_label_2
_geom_bond_distance
_geom_bond_site_symmetry_2
Ba0 O18 2.669696 1_555
Ba0 O16 2.758096 1_565
Ba0 O20 2.979593 1_555
Ba0 O20 2.979599 1_665
Ba0 O9 3.071006 1_555
Ba0 O14 3.071009 1_555
Ba0 O4 3.344918 1_555
Ba0 O3 3.344920 1_565
Ba0 O1 3.367634 1_555
Ba0 O6 3.367644 1_565
Ba1 O19 2.669692 1_555
Ba1 O20 2.758096 1_655
Ba1 O18 2.979593 1_545
Ba1 O18 2.979599 1_655
Ba1 O11 3.071002 1_555
Ba1 O12 3.071002 1_555
Ba1 O5 3.344903 1_555
Ba1 O2 3.344911 1_655
Ba1 O4 3.367649 1_655
Ba1 O3 3.367654 1_555
Ba2 O20 2.669692 1_555
Ba2 O19 2.758096 1_455
Ba2 O16 2.979593 1_565
Ba2 O16 2.979599 1_455
Ba2 O15 3.071002 1_555
Ba2 O8 3.071002 1_555
Ba2 O1 3.344903 1_555
Ba2 O6 3.344911 1_455
Ba2 O0 3.367649 1_455
Ba2 O7 3.367654 1_555
Ba3 O16 2.669696 1_555
Ba3 O18 2.758096 1_545
Ba3 O19 2.979593 1_555
Ba3 O19 2.979599 1_445
Ba3 O13 3.071006 1_555
Ba3 O10 3.071009 1_555
Ba3 O0 3.344918 1_555
Ba3 O7 3.344920 1_545
Ba3 O5 3.367634 1_555
Ba3 O2 3.367644 1_545
Ba4 O17 2.973865 1_445
Ba4 O17 2.973865 1_555
Ba4 O8 3.043577 1_554
Ba4 O10 3.043577 1_554
Ba4 O11 3.043577 1_555
Ba4 O15 3.043577 1_444
Ba4 O13 3.043577 1_444
Ba4 O12 3.043577 1_445
Ba4 O14 3.043577 1_445
Ba4 O9 3.043577 1_555
Nd0 O3 2.407043 1_565
Nd0 O4 2.407049 1_555
Nd0 O15 2.425041 1_554
Nd0 O8 2.425041 1_554
Nd0 O17 2.426670 1_555
Nd0 O9 2.513912 1_555
Nd0 O14 2.513912 1_555
Nd1 O2 2.407049 1_655
Nd1 O5 2.407053 1_555
Nd1 O14 2.425041 1_555
Nd1 O9 2.425041 1_555
Nd1 O17 2.426670 1_555
Nd1 O12 2.513912 1_555
Nd1 O11 2.513912 1_555
Nd2 O6 2.407049 1_455
Nd2 O1 2.407053 1_555
Nd2 O13 2.425041 1_555
Nd2 O10 2.425041 1_555
Nd2 O17 2.426670 1_556
Nd2 O8 2.513912 1_555
Nd2 O15 2.513912 1_555
Nd3 O7 2.407043 1_545
Nd3 O0 2.407049 1_555
Nd3 O12 2.425041 1_556
Nd3 O11 2.425041 1_556
Nd3 O17 2.426670 1_556
Nd3 O13 2.513912 1_555
Nd3 O10 2.513912 1_555
Nd4 O4 2.379372 1_555
Nd4 O3 2.379382 1_565
Nd4 O7 2.428473 1_554
Nd4 O0 2.428474 1_454
Nd4 O11 2.498334 1_565
Nd4 O12 2.498334 1_455
Nd4 O18 2.714606 1_555
Nd5 O5 2.379381 1_555
Nd5 O2 2.379382 1_655
Nd5 O6 2.428476 1_565
Nd5 O1 2.428478 1_555
Nd5 O13 2.498325 1_555
Nd5 O10 2.498328 1_665
Nd5 O19 2.714616 1_555
Nd6 O1 2.379381 1_555
Nd6 O6 2.379382 1_455
Nd6 O2 2.428476 1_545
Nd6 O5 2.428478 1_555
Nd6 O9 2.498325 1_555
Nd6 O14 2.498328 1_445
Nd6 O20 2.714616 1_555
Nd7 O0 2.379372 1_555
Nd7 O7 2.379382 1_545
Nd7 O3 2.428473 1_556
Nd7 O4 2.428474 1_656
Nd7 O15 2.498334 1_545
Nd7 O8 2.498334 1_655
Nd7 O16 2.714606 1_555
Mn0 O19 2.081492 1_455
Mn0 O7 2.132035 1_555
Mn0 O0 2.132042 1_455
Mn0 O13 2.197224 1_455
Mn0 O10 2.197224 1_565
Mn1 O16 2.081489 1_565
Mn1 O1 2.132035 1_555
Mn1 O6 2.132042 1_565
Mn1 O15 2.197224 1_555
Mn1 O8 2.197224 1_665
Mn2 O18 2.081489 1_545
Mn2 O5 2.132035 1_555
Mn2 O2 2.132042 1_545
Mn2 O11 2.197224 1_555
Mn2 O12 2.197224 1_445
Mn3 O20 2.081492 1_655
Mn3 O3 2.132035 1_555
Mn3 O4 2.132042 1_655
Mn3 O9 2.197224 1_655
Mn3 O14 2.197224 1_545
