# generated using pymatgen
data_Mg4Si3
_symmetry_space_group_name_H-M   'P 1'
_cell_length_a   6.25344900
_cell_length_b   7.71301876
_cell_length_c   12.05633421
_cell_angle_alpha   95.54107009
_cell_angle_beta   91.58051452
_cell_angle_gamma   109.81666030
_symmetry_Int_Tables_number   1
_chemical_formula_structural   Mg4Si3
_chemical_formula_sum   'Mg16 Si12'
_cell_volume   543.38972354
_cell_formula_units_Z   4
loop_
 _symmetry_equiv_pos_site_id
 _symmetry_equiv_pos_as_xyz
  1  'x, y, z'
loop_
 _atom_site_type_symbol
 _atom_site_label
 _atom_site_symmetry_multiplicity
 _atom_site_fract_x
 _atom_site_fract_y
 _atom_site_fract_z
 _atom_site_occupancy
  Mg  Mg0  1  0.75248200  0.89682300  0.89678400  1
  Mg  Mg1  1  0.65671000  0.43059600  0.90958300  1
  Mg  Mg2  1  0.21027100  0.97796600  0.43278300  1
  Mg  Mg3  1  0.99034000  0.41778200  0.13604900  1
  Mg  Mg4  1  0.28555400  0.95818100  0.85047700  1
  Mg  Mg5  1  0.08889300  0.29019000  0.89235900  1
  Mg  Mg6  1  0.59814500  0.81364600  0.39491100  1
  Mg  Mg7  1  0.53525900  0.44588400  0.46394500  1
  Mg  Mg8  1  0.39130300  0.82644800  0.63072700  1
  Mg  Mg9  1  0.36201600  0.27602700  0.67182600  1
  Mg  Mg10  1  0.78530100  0.86727100  0.15757900  1
  Mg  Mg11  1  0.69198100  0.19284100  0.29905200  1
  Mg  Mg12  1  0.96189300  0.47517900  0.67036400  1
  Mg  Mg13  1  0.93150300  0.95360100  0.64598800  1
  Mg  Mg14  1  0.49554000  0.43651200  0.16792500  1
  Mg  Mg15  1  0.28217900  0.85316100  0.20071700  1
  Si  Si0  1  0.66107600  0.14133900  0.53944100  1
  Si  Si1  1  0.15203600  0.59103000  0.45775500  1
  Si  Si2  1  0.16977800  0.07697700  0.05420700  1
  Si  Si3  1  0.03210400  0.71710100  0.00073700  1
  Si  Si4  1  0.34307100  0.60542100  0.80509100  1
  Si  Si5  1  0.68909700  0.15070900  0.76018000  1
  Si  Si6  1  0.87773600  0.61864200  0.31847900  1
  Si  Si7  1  0.15551300  0.18386400  0.26716900  1
  Si  Si8  1  0.65444400  0.63257200  0.69025200  1
  Si  Si9  1  0.05611600  0.26479900  0.48608800  1
  Si  Si10  1  0.38303100  0.63405100  0.00992400  1
  Si  Si11  1  0.58757900  0.12822700  0.05373300  1
loop_
_geom_bond_atom_site_label_1
_geom_bond_atom_site_label_2
_geom_bond_distance
_geom_bond_site_symmetry_2
Mg0 Si5 2.795940 1_565
Mg0 Si4 2.879407 1_555
Mg0 Si3 2.899652 1_656
Mg0 Si11 2.921108 1_566
Mg0 Si8 2.969625 1_555
Mg0 Si10 2.973044 1_556
Mg0 Si2 3.016892 1_666
Mg1 Si3 2.733725 1_656
Mg1 Si5 2.740704 1_555
Mg1 Si10 2.902344 1_556
Mg1 Si11 2.964270 1_556
Mg1 Si4 3.039253 1_555
Mg1 Si8 3.198123 1_555
Mg2 Si9 2.728080 1_565
Mg2 Si7 2.751267 1_565
Mg2 Si0 2.875273 1_565
Mg2 Si1 2.927941 1_555
Mg2 Si6 3.016817 1_455
Mg3 Si6 2.810794 1_555
Mg3 Si11 2.817182 1_555
Mg3 Si3 2.898529 1_655
Mg3 Si7 2.923245 1_655
Mg3 Si10 3.007249 1_655
Mg4 Si2 2.740455 1_566
Mg4 Si5 2.771547 1_565
Mg4 Si3 2.839391 1_556
Mg4 Si4 2.866819 1_555
Mg4 Si11 2.955822 1_566
Mg5 Si4 2.740626 1_555
Mg5 Si5 2.751896 1_455
Mg5 Si2 2.810173 1_556
Mg5 Si10 2.872119 1_556
Mg6 Si6 2.787926 1_555
Mg6 Si0 2.831376 1_565
Mg6 Si1 2.902566 1_555
Mg7 Si6 2.856851 1_555
Mg7 Si9 2.877238 1_555
Mg7 Si8 2.911132 1_555
Mg7 Si0 2.931143 1_555
Mg7 Si1 2.971069 1_555
Mg8 Si1 2.671939 1_555
Mg8 Si8 2.696193 1_555
Mg8 Si4 2.791936 1_555
Mg8 Si0 2.792255 1_565
Mg8 Si5 2.843749 1_565
Mg9 Si8 2.721399 1_555
Mg9 Si5 2.769783 1_555
Mg9 Si0 2.878521 1_555
Mg9 Si9 2.880152 1_555
Mg9 Si4 2.911445 1_555
Mg10 Si2 2.804988 1_665
Mg10 Si3 2.872158 1_655
Mg10 Si7 2.905754 1_665
Mg10 Si10 2.966375 1_555
Mg10 Si6 3.030319 1_555
Mg10 Si11 3.039101 1_565
Mg11 Si7 2.957578 1_655
Mg11 Si0 2.965796 1_555
Mg11 Si11 2.968250 1_555
Mg11 Si9 3.032533 1_655
Mg11 Si6 3.072465 1_555
Mg12 Si8 2.603730 1_555
Mg12 Si4 2.679029 1_655
Mg12 Si9 2.817873 1_655
Mg12 Si5 2.841920 1_555
Mg12 Si0 2.903015 1_555
Mg12 Si1 2.944960 1_655
Mg13 Si8 2.610583 1_555
Mg13 Si5 2.788917 1_565
Mg13 Si0 2.916576 1_565
Mg13 Si9 3.129424 1_665
Mg14 Si7 2.744364 1_555
Mg14 Si10 2.767403 1_555
Mg14 Si6 2.823511 1_555
Mg14 Si11 2.867069 1_555
Mg14 Si2 3.000189 1_555
Mg15 Si3 2.747831 1_555
Mg15 Si2 2.817328 1_565
Mg15 Si10 2.932066 1_555
Mg15 Si7 2.964069 1_565
Mg15 Si6 3.045742 1_455
Mg15 Si11 3.074786 1_565
Si0 Si9 2.456460 1_655
Si0 Si5 2.654620 1_555
Si1 Si9 2.441684 1_555
Si1 Si6 2.442360 1_455
Si2 Si3 2.620114 1_545
Si2 Si7 2.633175 1_555
Si4 Si8 2.383369 1_555
Si7 Si9 2.788847 1_555
Si10 Si4 2.456225 1_554
Si10 Si3 2.488343 1_555
Si11 Si2 2.506689 1_555
