# generated using pymatgen
data_Mg4Si3
_symmetry_space_group_name_H-M   'P 1'
_cell_length_a   6.44887200
_cell_length_b   7.09724083
_cell_length_c   12.52041444
_cell_angle_alpha   92.18384257
_cell_angle_beta   92.05779157
_cell_angle_gamma   103.93291680
_symmetry_Int_Tables_number   1
_chemical_formula_structural   Mg4Si3
_chemical_formula_sum   'Mg16 Si12'
_cell_volume   555.18451770
_cell_formula_units_Z   4
loop_
 _symmetry_equiv_pos_site_id
 _symmetry_equiv_pos_as_xyz
  1  'x, y, z'
loop_
 _atom_site_type_symbol
 _atom_site_label
 _atom_site_symmetry_multiplicity
 _atom_site_fract_x
 _atom_site_fract_y
 _atom_site_fract_z
 _atom_site_occupancy
  Mg  Mg0  1  0.66935000  0.90232800  0.91664200  1
  Mg  Mg1  1  0.60492800  0.39006600  0.89863100  1
  Mg  Mg2  1  0.11091100  0.84550200  0.41710200  1
  Mg  Mg3  1  0.09594600  0.56245200  0.20953400  1
  Mg  Mg4  1  0.12117200  0.89363300  0.84906200  1
  Mg  Mg5  1  0.05626900  0.31481400  0.93391200  1
  Mg  Mg6  1  0.58490100  0.86927000  0.42210300  1
  Mg  Mg7  1  0.37761000  0.28593500  0.36750700  1
  Mg  Mg8  1  0.40490100  0.85147000  0.66363200  1
  Mg  Mg9  1  0.33401900  0.27533100  0.68517100  1
  Mg  Mg10  1  0.85399300  0.87204700  0.18687700  1
  Mg  Mg11  1  0.82779200  0.22689500  0.31343900  1
  Mg  Mg12  1  0.97859900  0.50927600  0.69020800  1
  Mg  Mg13  1  0.90063200  0.90716100  0.63834200  1
  Mg  Mg14  1  0.54013600  0.48057400  0.14083200  1
  Mg  Mg15  1  0.41116500  0.95632000  0.20736500  1
  Si  Si0  1  0.68028100  0.20075600  0.55030000  1
  Si  Si1  1  0.27308600  0.54513300  0.51931000  1
  Si  Si2  1  0.34409600  0.11250500  0.01585600  1
  Si  Si3  1  0.90226700  0.65791500  0.01169400  1
  Si  Si4  1  0.34146200  0.60292500  0.83361000  1
  Si  Si5  1  0.71644500  0.16387900  0.74837000  1
  Si  Si6  1  0.75477400  0.58330800  0.33886900  1
  Si  Si7  1  0.15746200  0.20751900  0.16674100  1
  Si  Si8  1  0.66188900  0.55531100  0.53069900  1
  Si  Si9  1  0.04252500  0.19296500  0.50061400  1
  Si  Si10  1  0.28786000  0.70893500  0.02051500  1
  Si  Si11  1  0.74648100  0.18261500  0.08719200  1
loop_
_geom_bond_atom_site_label_1
_geom_bond_atom_site_label_2
_geom_bond_distance
_geom_bond_site_symmetry_2
Mg0 Si4 2.752678 1_555
Mg0 Si11 2.808527 1_566
Mg0 Si3 2.822273 1_556
Mg0 Si5 2.837132 1_565
Mg0 Si10 2.892657 1_556
Mg0 Si2 3.117757 1_566
Mg1 Si5 2.656416 1_555
Mg1 Si4 2.657495 1_555
Mg1 Si3 2.671901 1_556
Mg1 Si2 2.768761 1_556
Mg1 Si11 3.054851 1_556
Mg2 Si6 2.708941 1_455
Mg2 Si9 2.780183 1_565
Mg2 Si1 2.908848 1_555
Mg3 Si7 2.680239 1_555
Mg3 Si6 2.807014 1_455
Mg3 Si10 2.826934 1_555
Mg3 Si3 2.909988 1_455
Mg4 Si2 2.702331 1_566
Mg4 Si4 2.777287 1_555
Mg4 Si10 2.865190 1_556
Mg4 Si3 2.875160 1_456
Mg5 Si4 2.773327 1_555
Mg5 Si2 2.796164 1_556
Mg5 Si11 2.839790 1_456
Mg5 Si10 2.978453 1_556
Mg5 Si3 2.986242 1_456
Mg5 Si5 3.108206 1_455
Mg5 Si7 3.126582 1_556
Mg6 Si6 2.719678 1_555
Mg6 Si0 2.726527 1_565
Mg6 Si8 2.788446 1_555
Mg6 Si1 2.996402 1_555
Mg7 Si9 2.745568 1_555
Mg7 Si1 2.805986 1_555
Mg7 Si7 2.810775 1_555
Mg7 Si6 2.854312 1_555
Mg7 Si8 2.989349 1_555
Mg7 Si0 3.125076 1_555
Mg8 Si1 2.723036 1_555
Mg8 Si5 2.756936 1_565
Mg8 Si4 2.794517 1_555
Mg8 Si0 3.105079 1_565
Mg9 Si5 2.860249 1_555
Mg9 Si9 2.875899 1_555
Mg9 Si4 2.910775 1_555
Mg9 Si1 2.956405 1_555
Mg9 Si0 2.981571 1_555
Mg10 Si3 2.690766 1_555
Mg10 Si7 2.720224 1_665
Mg10 Si11 2.789321 1_565
Mg10 Si6 2.825502 1_555
Mg11 Si6 2.691602 1_555
Mg11 Si9 2.727305 1_655
Mg11 Si11 2.853782 1_555
Mg11 Si7 2.883452 1_655
Mg11 Si0 3.145419 1_555
Mg12 Si5 2.761576 1_555
Mg12 Si4 2.828357 1_655
Mg12 Si8 2.888749 1_555
Mg12 Si1 2.889695 1_655
Mg12 Si0 3.000188 1_555
Mg13 Si9 2.722397 1_665
Mg13 Si5 2.756211 1_565
Mg13 Si8 2.857561 1_555
Mg13 Si0 3.010773 1_565
Mg14 Si6 2.779430 1_555
Mg14 Si7 2.784465 1_555
Mg14 Si11 2.829270 1_555
Mg14 Si3 2.943290 1_555
Mg14 Si10 2.970306 1_555
Mg14 Si2 2.970981 1_555
Mg15 Si2 2.743007 1_565
Mg15 Si7 2.743719 1_565
Mg15 Si10 2.840594 1_555
Mg15 Si11 2.874836 1_565
Si0 Si9 2.451775 1_655
Si0 Si5 2.512013 1_555
Si0 Si8 2.568088 1_555
Si1 Si8 2.489704 1_555
Si1 Si9 2.579420 1_555
Si2 Si7 2.435004 1_555
Si6 Si8 2.499852 1_555
Si10 Si3 2.422872 1_455
Si10 Si4 2.492171 1_554
Si10 Si2 2.802282 1_565
Si11 Si2 2.637586 1_555
Si11 Si7 2.760268 1_655
