# generated using pymatgen
data_Ca2SnS4
_symmetry_space_group_name_H-M   'P 1'
_cell_length_a   7.98651512
_cell_length_b   7.98651512
_cell_length_c   7.98651512
_cell_angle_alpha   60.00000000
_cell_angle_beta   60.00000000
_cell_angle_gamma   60.00000000
_symmetry_Int_Tables_number   1
_chemical_formula_structural   Ca2SnS4
_chemical_formula_sum   'Ca4 Sn2 S8'
_cell_volume   360.21098829
_cell_formula_units_Z   2
loop_
 _symmetry_equiv_pos_site_id
 _symmetry_equiv_pos_as_xyz
  1  'x, y, z'
loop_
 _atom_site_type_symbol
 _atom_site_label
 _atom_site_symmetry_multiplicity
 _atom_site_fract_x
 _atom_site_fract_y
 _atom_site_fract_z
 _atom_site_occupancy
  Ca  Ca0  1  0.12500000  0.62500000  0.12500000  1
  Ca  Ca1  1  0.62500000  0.12500000  0.12500000  1
  Ca  Ca2  1  0.12500000  0.12500000  0.12500000  1
  Ca  Ca3  1  0.12500000  0.12500000  0.62500000  1
  Sn  Sn0  1  0.50000000  0.50000000  0.50000000  1
  Sn  Sn1  1  0.75000000  0.75000000  0.75000000  1
  S  S0  1  0.37492400  0.87522700  0.37492400  1
  S  S1  1  0.87522700  0.37492400  0.37492400  1
  S  S2  1  0.37492400  0.37492400  0.37492400  1
  S  S3  1  0.37492400  0.37492400  0.87522700  1
  S  S4  1  0.87507600  0.37477300  0.87507600  1
  S  S5  1  0.37477300  0.87507600  0.87507600  1
  S  S6  1  0.87507600  0.87507600  0.87507600  1
  S  S7  1  0.87507600  0.87507600  0.37477300  1
loop_
_geom_bond_atom_site_label_1
_geom_bond_atom_site_label_2
_geom_bond_distance
_geom_bond_site_symmetry_2
Ca0 S2 2.822801 1_555
Ca0 S6 2.822801 1_454
Ca0 S7 2.822807 1_455
Ca0 S5 2.822807 1_554
Ca0 S1 2.822807 1_455
Ca0 S3 2.822807 1_554
Ca1 S2 2.822801 1_555
Ca1 S6 2.822801 1_544
Ca1 S7 2.822807 1_545
Ca1 S4 2.822807 1_554
Ca1 S0 2.822807 1_545
Ca1 S3 2.822807 1_554
Ca2 S0 2.822801 1_545
Ca2 S3 2.822801 1_554
Ca2 S1 2.822801 1_455
Ca2 S5 2.822801 1_544
Ca2 S4 2.822801 1_454
Ca2 S7 2.822801 1_445
Ca3 S2 2.822801 1_555
Ca3 S6 2.822801 1_445
Ca3 S5 2.822807 1_545
Ca3 S4 2.822807 1_455
Ca3 S1 2.822807 1_455
Ca3 S0 2.822807 1_545
S0 Sn0 2.446841 1_555
S1 Sn0 2.446841 1_555
S2 Sn0 2.446848 1_555
S3 Sn0 2.446841 1_555
S4 Sn1 2.446841 1_555
S5 Sn1 2.446841 1_555
S6 Sn1 2.446848 1_555
S7 Sn1 2.446841 1_555
