# generated using pymatgen
data_Li2SiNiO4
_symmetry_space_group_name_H-M   'P 1'
_cell_length_a   4.94358500
_cell_length_b   6.33902100
_cell_length_c   10.83161300
_cell_angle_alpha   90.00000000
_cell_angle_beta   90.00000000
_cell_angle_gamma   90.00000000
_symmetry_Int_Tables_number   1
_chemical_formula_structural   Li2SiNiO4
_chemical_formula_sum   'Li8 Si4 Ni4 O16'
_cell_volume   339.43555465
_cell_formula_units_Z   4
loop_
 _symmetry_equiv_pos_site_id
 _symmetry_equiv_pos_as_xyz
  1  'x, y, z'
loop_
 _atom_site_type_symbol
 _atom_site_label
 _atom_site_symmetry_multiplicity
 _atom_site_fract_x
 _atom_site_fract_y
 _atom_site_fract_z
 _atom_site_occupancy
  Li  Li0  1  0.70442800  0.87108200  0.09130000  1
  Li  Li1  1  0.20128500  0.11705000  0.16841000  1
  Li  Li2  1  0.70128500  0.61705000  0.33159000  1
  Li  Li3  1  0.20442800  0.37108200  0.40870000  1
  Li  Li4  1  0.79557200  0.87108200  0.59130000  1
  Li  Li5  1  0.29871500  0.11705000  0.66841000  1
  Li  Li6  1  0.79871500  0.61705000  0.83159000  1
  Li  Li7  1  0.29557200  0.37108200  0.90870000  1
  Si  Si0  1  0.19168700  0.61682500  0.16751500  1
  Si  Si1  1  0.69168700  0.11682500  0.33248500  1
  Si  Si2  1  0.30831300  0.61682500  0.66751500  1
  Si  Si3  1  0.80831300  0.11682500  0.83248500  1
  Ni  Ni0  1  0.70284200  0.36756300  0.08504200  1
  Ni  Ni1  1  0.20284200  0.86756300  0.41495800  1
  Ni  Ni2  1  0.79715800  0.36756300  0.58504200  1
  Ni  Ni3  1  0.29715800  0.86756300  0.91495800  1
  O  O0  1  0.30230000  0.83054400  0.09542500  1
  O  O1  1  0.29612900  0.40117500  0.09491900  1
  O  O2  1  0.85721000  0.61779900  0.16526800  1
  O  O3  1  0.79749600  0.12006300  0.18779400  1
  O  O4  1  0.29749600  0.62006300  0.31220600  1
  O  O5  1  0.35721000  0.11779900  0.33473200  1
  O  O6  1  0.79612900  0.90117500  0.40508100  1
  O  O7  1  0.80230000  0.33054400  0.40457500  1
  O  O8  1  0.19770000  0.83054400  0.59542500  1
  O  O9  1  0.20387100  0.40117500  0.59491900  1
  O  O10  1  0.64279000  0.61779900  0.66526800  1
  O  O11  1  0.70250400  0.12006300  0.68779400  1
  O  O12  1  0.20250400  0.62006300  0.81220600  1
  O  O13  1  0.14279000  0.11779900  0.83473200  1
  O  O14  1  0.70387100  0.90117500  0.90508100  1
  O  O15  1  0.69770000  0.33054400  0.90457500  1
loop_
_geom_bond_atom_site_label_1
_geom_bond_atom_site_label_2
_geom_bond_distance
_geom_bond_site_symmetry_2
Li0 O2 1.946848 1_555
Li0 O3 1.948105 1_565
Li0 O0 2.004992 1_555
Li0 O14 2.026054 1_554
Li1 O5 1.959523 1_555
Li1 O3 2.007268 1_455
Li1 O1 2.024195 1_555
Li1 O0 2.042744 1_545
Li2 O2 1.959523 1_555
Li2 O4 2.007268 1_555
Li2 O6 2.024195 1_555
Li2 O7 2.042744 1_555
Li3 O5 1.946848 1_555
Li3 O4 1.948105 1_555
Li3 O7 2.004992 1_455
Li3 O9 2.026054 1_555
Li4 O10 1.946848 1_555
Li4 O11 1.948105 1_565
Li4 O8 2.004992 1_655
Li4 O6 2.026054 1_555
Li5 O13 1.959523 1_555
Li5 O11 2.007268 1_555
Li5 O9 2.024195 1_555
Li5 O8 2.042744 1_545
Li6 O10 1.959523 1_555
Li6 O12 2.007268 1_655
Li6 O14 2.024195 1_555
Li6 O15 2.042744 1_555
Li7 O13 1.946848 1_555
Li7 O12 1.948105 1_555
Li7 O15 2.004992 1_555
Li7 O1 2.026054 1_556
Ni0 O2 1.963080 1_555
Ni0 O15 1.968948 1_554
Ni0 O3 1.979680 1_555
Ni0 O1 2.024707 1_555
Ni1 O5 1.963080 1_565
Ni1 O8 1.968948 1_555
Ni1 O4 1.979680 1_555
Ni1 O6 2.024707 1_455
Ni2 O10 1.963080 1_555
Ni2 O7 1.968948 1_555
Ni2 O11 1.979680 1_555
Ni2 O9 2.024707 1_655
Ni3 O13 1.963080 1_565
Ni3 O0 1.968948 1_556
Ni3 O12 1.979680 1_555
Ni3 O14 2.024707 1_555
O0 Si0 1.656546 1_555
O1 Si0 1.659403 1_555
O2 Si0 1.653706 1_655
O3 Si1 1.652350 1_555
O4 Si0 1.652350 1_555
O5 Si1 1.653706 1_555
O6 Si1 1.659403 1_565
O7 Si1 1.656546 1_555
O8 Si2 1.656546 1_555
O9 Si2 1.659403 1_555
O10 Si2 1.653706 1_555
O11 Si3 1.652350 1_555
O12 Si2 1.652350 1_555
O13 Si3 1.653706 1_455
O14 Si3 1.659403 1_565
O15 Si3 1.656546 1_555
