# generated using pymatgen
data_LiMn3O4
_symmetry_space_group_name_H-M   'P 1'
_cell_length_a   3.15790181
_cell_length_b   6.30799133
_cell_length_c   8.47968491
_cell_angle_alpha   90.00002737
_cell_angle_beta   90.00000237
_cell_angle_gamma   92.72978403
_symmetry_Int_Tables_number   1
_chemical_formula_structural   LiMn3O4
_chemical_formula_sum   'Li2 Mn6 O8'
_cell_volume   168.72379332
_cell_formula_units_Z   2
loop_
 _symmetry_equiv_pos_site_id
 _symmetry_equiv_pos_as_xyz
  1  'x, y, z'
loop_
 _atom_site_type_symbol
 _atom_site_label
 _atom_site_symmetry_multiplicity
 _atom_site_fract_x
 _atom_site_fract_y
 _atom_site_fract_z
 _atom_site_occupancy
  Li  Li0  1  0.50000200  0.75000000  0.74919600  1
  Li  Li1  1  0.50000100  0.25000000  0.24988500  1
  Mn  Mn0  1  0.99469500  0.00428400  0.99688100  1
  Mn  Mn1  1  0.00633000  0.49604500  0.50245000  1
  Mn  Mn2  1  0.00530400  0.49571700  0.99688000  1
  Mn  Mn3  1  0.99367200  0.00395400  0.50245300  1
  Mn  Mn4  1  0.49999300  0.25000100  0.75013200  1
  Mn  Mn5  1  0.50000200  0.74999800  0.25061200  1
  O  O0  1  0.05404600  0.52019700  0.25301300  1
  O  O1  1  0.98968600  0.99897300  0.74698800  1
  O  O2  1  0.01030700  0.50102800  0.74698800  1
  O  O3  1  0.94595900  0.97980300  0.25301400  1
  O  O4  1  0.50000200  0.75000000  0.01620100  1
  O  O5  1  0.50000000  0.25000000  0.49123700  1
  O  O6  1  0.50000000  0.25000000  0.00846000  1
  O  O7  1  0.50000200  0.75000000  0.48561000  1
loop_
_geom_bond_atom_site_label_1
_geom_bond_atom_site_label_2
_geom_bond_distance
_geom_bond_site_symmetry_2
Li0 O1 2.151006 1_555
Li0 O2 2.151025 1_555
Li0 O7 2.235126 1_555
Li0 O4 2.264118 1_556
Li0 O2 2.303224 1_655
Li0 O1 2.303254 1_455
Li1 O5 2.046589 1_555
Li1 O6 2.047208 1_555
Li1 O0 2.262205 1_555
Li1 O3 2.262212 1_545
Li1 O3 2.383858 1_445
Li1 O0 2.383864 1_655
Mn0 O1 2.119326 1_545
Mn0 O6 2.173188 1_656
Mn0 O3 2.182324 1_546
Mn0 O4 2.191230 1_546
Mn0 O6 2.254587 1_556
Mn0 O4 2.321597 1_646
Mn1 O2 2.073872 1_555
Mn1 O0 2.125459 1_555
Mn1 O5 2.176725 1_455
Mn1 O7 2.186121 1_555
Mn1 O5 2.253603 1_555
Mn1 O7 2.321032 1_455
Mn2 O2 2.119317 1_555
Mn2 O6 2.173190 1_456
Mn2 O0 2.182325 1_556
Mn2 O4 2.191237 1_556
Mn2 O6 2.254594 1_556
Mn2 O4 2.321582 1_456
Mn3 O1 2.073847 1_545
Mn3 O3 2.125475 1_545
Mn3 O5 2.176726 1_655
Mn3 O7 2.186114 1_545
Mn3 O5 2.253614 1_555
Mn3 O7 2.321034 1_645
Mn4 O6 2.190540 1_556
Mn4 O5 2.195348 1_555
Mn4 O1 2.204994 1_445
Mn4 O2 2.205005 1_655
Mn4 O2 2.265532 1_555
Mn4 O1 2.265553 1_545
Mn5 O0 1.972441 1_555
Mn5 O3 1.972461 1_555
Mn5 O4 1.987731 1_555
Mn5 O7 1.992709 1_555
Mn5 O0 2.324745 1_655
Mn5 O3 2.324760 1_455
