# generated using pymatgen
data_Nd(Fe5W)2
_symmetry_space_group_name_H-M   'P 1'
_cell_length_a   4.69385800
_cell_length_b   6.58304446
_cell_length_c   6.58304446
_cell_angle_alpha   96.64734187
_cell_angle_beta   110.88609006
_cell_angle_gamma   69.11390994
_symmetry_Int_Tables_number   1
_chemical_formula_structural   Nd(Fe5W)2
_chemical_formula_sum   'Nd1 Fe10 W2'
_cell_volume   177.54614102
_cell_formula_units_Z   1
loop_
 _symmetry_equiv_pos_site_id
 _symmetry_equiv_pos_as_xyz
  1  'x, y, z'
loop_
 _atom_site_type_symbol
 _atom_site_label
 _atom_site_symmetry_multiplicity
 _atom_site_fract_x
 _atom_site_fract_y
 _atom_site_fract_z
 _atom_site_occupancy
  Nd  Nd0  1  0.00000000  0.00000000  0.00000000  1
  Fe  Fe0  1  0.72627200  0.77372800  0.22627200  1
  Fe  Fe1  1  0.27372800  0.22627200  0.77372800  1
  Fe  Fe2  1  0.50000000  0.76963200  0.76963200  1
  Fe  Fe3  1  0.50000000  0.23036800  0.23036800  1
  Fe  Fe4  1  0.50000000  0.00000000  0.50000000  1
  Fe  Fe5  1  0.00000000  0.00000000  0.50000000  1
  Fe  Fe6  1  0.50000000  0.50000000  0.00000000  1
  Fe  Fe7  1  0.00000000  0.50000000  0.00000000  1
  Fe  Fe8  1  0.64026100  0.35973900  0.64026100  1
  Fe  Fe9  1  0.35973900  0.64026100  0.35973900  1
  W  W0  1  0.00000000  0.35630800  0.35630800  1
  W  W1  1  0.00000000  0.64369200  0.64369200  1
loop_
_geom_bond_atom_site_label_1
_geom_bond_atom_site_label_2
_geom_bond_distance
_geom_bond_site_symmetry_2
Nd0 W1 3.119270 1_544
Nd0 W0 3.119270 1_555
Fe0 Fe4 2.491797 1_565
Fe0 Fe5 2.491797 1_665
Fe0 Fe6 2.491797 1_555
Fe0 Fe7 2.491797 1_655
Fe0 Fe9 2.615009 1_655
Fe0 Fe9 2.615009 1_555
Fe0 W0 2.679084 1_655
Fe0 W1 2.679084 1_655
Fe0 Fe3 2.808995 1_565
Fe0 Fe2 2.808995 1_554
Fe0 Nd0 3.054717 1_565
Fe0 Nd0 3.054717 1_665
Fe1 Fe6 2.491797 1_556
Fe1 Fe7 2.491797 1_556
Fe1 Fe4 2.491797 1_555
Fe1 Fe5 2.491797 1_555
Fe1 Fe8 2.615009 1_455
Fe1 Fe8 2.615009 1_555
Fe1 W1 2.679084 1_555
Fe1 W0 2.679084 1_555
Fe1 Fe3 2.808995 1_556
Fe1 Fe2 2.808995 1_545
Fe1 Nd0 3.054717 1_556
Fe1 Nd0 3.054717 1_656
Fe2 Fe4 2.464481 1_565
Fe2 Fe7 2.464481 1_656
Fe2 Fe6 2.464481 1_556
Fe2 Fe5 2.464481 1_565
Fe2 W1 2.593001 1_655
Fe2 W1 2.593001 1_555
Fe2 Fe9 2.653468 1_555
Fe2 Fe8 2.653468 1_555
Fe2 Nd0 3.094400 1_566
Fe2 Nd0 3.094400 1_666
Fe3 Fe4 2.464481 1_555
Fe3 Fe7 2.464481 1_555
Fe3 Fe5 2.464481 1_655
Fe3 Fe6 2.464481 1_555
Fe3 W0 2.593001 1_555
Fe3 W0 2.593001 1_655
Fe3 Fe9 2.653468 1_555
Fe3 Fe8 2.653468 1_555
Fe3 Nd0 3.094400 1_655
Fe3 Nd0 3.094400 1_555
Fe4 Fe5 2.346929 1_555
Fe4 Fe5 2.346929 1_655
Fe4 W0 2.628738 1_555
Fe4 W1 2.628738 1_645
Fe4 Fe8 2.658248 1_555
Fe4 Fe9 2.658248 1_545
Fe4 Nd0 3.291522 1_656
Fe4 Nd0 3.291522 1_555
Fe5 W1 2.628738 1_545
Fe5 W0 2.628738 1_555
Fe5 Fe9 2.658248 1_545
Fe5 Fe8 2.658248 1_455
Fe5 Nd0 3.291522 1_555
Fe5 Nd0 3.291522 1_556
Fe6 Fe7 2.346929 1_655
Fe6 Fe7 2.346929 1_555
Fe6 W1 2.628738 1_554
Fe6 W0 2.628738 1_655
Fe6 Fe8 2.658248 1_554
Fe6 Fe9 2.658248 1_555
Fe6 Nd0 3.291522 1_565
Fe6 Nd0 3.291522 1_655
Fe7 W1 2.628738 1_554
Fe7 W0 2.628738 1_555
Fe7 Fe9 2.658248 1_555
Fe7 Fe8 2.658248 1_454
Fe7 Nd0 3.291522 1_565
Fe7 Nd0 3.291522 1_555
Fe8 Fe9 2.424102 1_555
Fe8 W0 2.925672 1_555
Fe8 W0 2.925672 1_655
Fe8 W1 2.925672 1_555
Fe8 W1 2.925672 1_655
Fe8 Nd0 3.108647 1_656
Fe9 W0 2.925672 1_555
Fe9 W1 2.925672 1_555
Fe9 W0 2.925672 1_655
Fe9 W1 2.925672 1_655
Fe9 Nd0 3.108647 1_565
W0 W1 2.515880 1_555
