# generated using pymatgen
data_CsMg6SiO8
_symmetry_space_group_name_H-M   'P 1'
_cell_length_a   7.39046687
_cell_length_b   4.20794920
_cell_length_c   6.80693818
_cell_angle_alpha   89.55689681
_cell_angle_beta   88.59535635
_cell_angle_gamma   90.01288069
_symmetry_Int_Tables_number   1
_chemical_formula_structural   CsMg6SiO8
_chemical_formula_sum   'Cs1 Mg6 Si1 O8'
_cell_volume   211.61703319
_cell_formula_units_Z   1
loop_
 _symmetry_equiv_pos_site_id
 _symmetry_equiv_pos_as_xyz
  1  'x, y, z'
loop_
 _atom_site_type_symbol
 _atom_site_label
 _atom_site_symmetry_multiplicity
 _atom_site_fract_x
 _atom_site_fract_y
 _atom_site_fract_z
 _atom_site_occupancy
  Cs  Cs0  1  0.97641800  0.48582900  0.64280000  1
  Mg  Mg0  1  0.50590900  0.99795800  0.89526200  1
  Mg  Mg1  1  0.49464700  0.49854500  0.58015000  1
  Mg  Mg2  1  0.27439200  0.99883200  0.39980000  1
  Mg  Mg3  1  0.70985900  0.99905800  0.37590100  1
  Mg  Mg4  1  0.28464500  0.49441400  0.10416400  1
  Mg  Mg5  1  0.73435300  0.49512600  0.08470300  1
  Si  Si0  1  0.01079400  0.96077600  0.10190500  1
  O  O0  1  0.27279700  0.00105600  0.09101500  1
  O  O1  1  0.74699400  0.00114200  0.06584200  1
  O  O2  1  0.28874100  0.49859200  0.39964600  1
  O  O3  1  0.68765500  0.49913600  0.37173900  1
  O  O4  1  0.99388900  0.00144000  0.34580800  1
  O  O5  1  0.49776400  0.99898000  0.59391000  1
  O  O6  1  0.01379000  0.57053400  0.04334700  1
  O  O7  1  0.50735500  0.49857900  0.90400900  1
loop_
_geom_bond_atom_site_label_1
_geom_bond_atom_site_label_2
_geom_bond_distance
_geom_bond_site_symmetry_2
Cs0 O6 2.772910 1_656
Cs0 O2 2.807395 1_655
Cs0 O3 2.855411 1_555
Cs0 O4 2.882572 1_555
Cs0 O4 2.954699 1_565
Mg0 O5 2.053613 1_555
Mg0 O7 2.101781 1_555
Mg0 O7 2.107921 1_565
Mg0 O1 2.150492 1_566
Mg0 O0 2.152084 1_566
Mg1 O2 1.979145 1_555
Mg1 O3 1.986946 1_555
Mg1 O5 2.103662 1_545
Mg1 O5 2.108756 1_555
Mg1 O7 2.208788 1_555
Mg2 O0 2.102151 1_565
Mg2 O2 2.105604 1_565
Mg2 O2 2.107685 1_555
Mg2 O4 2.114242 1_465
Mg2 O5 2.139623 1_555
Mg3 O4 2.104096 1_565
Mg3 O3 2.110463 1_555
Mg3 O3 2.110754 1_565
Mg3 O1 2.121590 1_565
Mg3 O5 2.131930 1_555
Mg4 O2 2.012510 1_555
Mg4 O6 2.078418 1_555
Mg4 O0 2.080561 1_555
Mg4 O7 2.110763 1_554
Mg4 O0 2.135016 1_565
Mg5 O3 1.975936 1_555
Mg5 O1 2.085585 1_555
Mg5 O6 2.101115 1_655
Mg5 O7 2.104366 1_554
Mg5 O1 2.134052 1_565
O0 Si0 1.943244 1_545
O1 Si0 1.978140 1_645
O4 Si0 1.671973 1_645
O6 Si0 1.692818 1_555
