# generated using pymatgen
data_MgMn(Si2O5)2
_symmetry_space_group_name_H-M   'P 1'
_cell_length_a   7.39268600
_cell_length_b   7.39268600
_cell_length_c   14.88024700
_cell_angle_alpha   90.00000000
_cell_angle_beta   90.00000000
_cell_angle_gamma   90.00000000
_symmetry_Int_Tables_number   1
_chemical_formula_structural   MgMn(Si2O5)2
_chemical_formula_sum   'Mg4 Mn4 Si16 O40'
_cell_volume   813.23237666
_cell_formula_units_Z   4
loop_
 _symmetry_equiv_pos_site_id
 _symmetry_equiv_pos_as_xyz
  1  'x, y, z'
loop_
 _atom_site_type_symbol
 _atom_site_label
 _atom_site_symmetry_multiplicity
 _atom_site_fract_x
 _atom_site_fract_y
 _atom_site_fract_z
 _atom_site_occupancy
  Mg  Mg0  1  0.25000000  0.75000000  0.50000000  1
  Mg  Mg1  1  0.75000000  0.25000000  0.50000000  1
  Mg  Mg2  1  0.75000000  0.25000000  0.00000000  1
  Mg  Mg3  1  0.25000000  0.75000000  0.00000000  1
  Mn  Mn0  1  0.25000000  0.25000000  0.56299700  1
  Mn  Mn1  1  0.75000000  0.75000000  0.93700300  1
  Mn  Mn2  1  0.75000000  0.75000000  0.43700300  1
  Mn  Mn3  1  0.25000000  0.25000000  0.06299700  1
  Si  Si0  1  0.90800000  0.49051900  0.64505700  1
  Si  Si1  1  0.59200000  0.00948100  0.64505700  1
  Si  Si2  1  0.99051900  0.40800000  0.85494300  1
  Si  Si3  1  0.49051900  0.59200000  0.64505700  1
  Si  Si4  1  0.00948100  0.90800000  0.64505700  1
  Si  Si5  1  0.09200000  0.99051900  0.85494300  1
  Si  Si6  1  0.40800000  0.50948100  0.85494300  1
  Si  Si7  1  0.50948100  0.09200000  0.85494300  1
  Si  Si8  1  0.09200000  0.50948100  0.35494300  1
  Si  Si9  1  0.40800000  0.99051900  0.35494300  1
  Si  Si10  1  0.00948100  0.59200000  0.14505700  1
  Si  Si11  1  0.50948100  0.40800000  0.35494300  1
  Si  Si12  1  0.99051900  0.09200000  0.35494300  1
  Si  Si13  1  0.90800000  0.00948100  0.14505700  1
  Si  Si14  1  0.59200000  0.49051900  0.14505700  1
  Si  Si15  1  0.49051900  0.90800000  0.14505700  1
  O  O0  1  0.97551700  0.33736000  0.57527600  1
  O  O1  1  0.52448300  0.16264000  0.57527600  1
  O  O2  1  0.83736000  0.47551700  0.92472400  1
  O  O3  1  0.33736000  0.52448300  0.57527600  1
  O  O4  1  0.16264000  0.97551700  0.57527600  1
  O  O5  1  0.02448300  0.83736000  0.92472400  1
  O  O6  1  0.47551700  0.66264000  0.92472400  1
  O  O7  1  0.66264000  0.02448300  0.92472400  1
  O  O8  1  0.02448300  0.66264000  0.42472400  1
  O  O9  1  0.47551700  0.83736000  0.42472400  1
  O  O10  1  0.16264000  0.52448300  0.07527600  1
  O  O11  1  0.66264000  0.47551700  0.42472400  1
  O  O12  1  0.83736000  0.02448300  0.42472400  1
  O  O13  1  0.97551700  0.16264000  0.07527600  1
  O  O14  1  0.52448300  0.33736000  0.07527600  1
  O  O15  1  0.00503400  0.31044800  0.37445000  1
  O  O16  1  0.33736000  0.97551700  0.07527600  1
  O  O17  1  0.50503400  0.81044800  0.62555000  1
  O  O18  1  0.18955200  0.49496600  0.87445000  1
  O  O19  1  0.68955200  0.50503400  0.62555000  1
  O  O20  1  0.81044800  0.99496600  0.62555000  1
  O  O21  1  0.00503400  0.18955200  0.87445000  1
  O  O22  1  0.49496600  0.31044800  0.87445000  1
  O  O23  1  0.31044800  0.00503400  0.87445000  1
  O  O24  1  0.44286600  0.94286600  0.25000000  1
  O  O25  1  0.55713400  0.44286600  0.25000000  1
  O  O26  1  0.94286600  0.05713500  0.25000000  1
  O  O27  1  0.05713500  0.55713400  0.25000000  1
  O  O28  1  0.55713400  0.05713500  0.75000000  1
  O  O29  1  0.44286600  0.55713400  0.75000000  1
  O  O30  1  0.05713500  0.94286600  0.75000000  1
  O  O31  1  0.94286600  0.44286600  0.75000000  1
  O  O32  1  0.68955200  0.99496600  0.12555000  1
  O  O33  1  0.50503400  0.68955200  0.12555000  1
  O  O34  1  0.99496600  0.81044800  0.12555000  1
  O  O35  1  0.18955200  0.00503400  0.37445000  1
  O  O36  1  0.31044800  0.49496600  0.37445000  1
  O  O37  1  0.81044800  0.50503400  0.12555000  1
  O  O38  1  0.49496600  0.18955200  0.37445000  1
  O  O39  1  0.99496600  0.68955200  0.62555000  1
loop_
_geom_bond_atom_site_label_1
_geom_bond_atom_site_label_2
_geom_bond_distance
_geom_bond_site_symmetry_2
Mg0 O9 2.109798 1_555
Mg0 O4 2.109798 1_555
Mg0 O3 2.109798 1_555
Mg0 O8 2.109798 1_555
Mg1 O11 2.109798 1_555
Mg1 O0 2.109798 1_555
Mg1 O1 2.109798 1_555
Mg1 O12 2.109798 1_555
Mg2 O2 2.109798 1_554
Mg2 O13 2.109798 1_555
Mg2 O14 2.109798 1_555
Mg2 O7 2.109798 1_554
Mg3 O6 2.109798 1_554
Mg3 O16 2.109798 1_555
Mg3 O10 2.109798 1_555
Mg3 O5 2.109798 1_554
Mn0 O1 2.137286 1_555
Mn0 O3 2.137286 1_555
Mn0 O4 2.137286 1_545
Mn0 O0 2.137286 1_455
Mn1 O7 2.137286 1_565
Mn1 O5 2.137286 1_655
Mn1 O6 2.137286 1_555
Mn1 O2 2.137286 1_555
Mn2 O8 2.137286 1_655
Mn2 O12 2.137286 1_565
Mn2 O9 2.137286 1_555
Mn2 O11 2.137286 1_555
Mn3 O10 2.137286 1_555
Mn3 O14 2.137286 1_555
Mn3 O13 2.137286 1_455
Mn3 O16 2.137286 1_545
O0 Si0 1.615341 1_555
O1 Si1 1.615341 1_555
O2 Si2 1.615341 1_555
O3 Si3 1.615341 1_555
O4 Si4 1.615341 1_555
O5 Si5 1.615341 1_555
O6 Si6 1.615341 1_555
O7 Si7 1.615341 1_555
O8 Si8 1.615341 1_555
O9 Si9 1.615341 1_555
O10 Si10 1.615341 1_555
O11 Si11 1.615341 1_555
O12 Si12 1.615341 1_555
O13 Si13 1.615341 1_555
O14 Si14 1.615341 1_555
O15 Si8 1.631740 1_555
O15 Si12 1.644302 1_455
O16 Si15 1.615341 1_555
O17 Si1 1.631740 1_565
O17 Si3 1.644302 1_555
O18 Si2 1.631740 1_455
O18 Si6 1.644302 1_555
O19 Si3 1.631740 1_555
O19 Si0 1.644302 1_555
O20 Si4 1.631740 1_655
O20 Si1 1.644302 1_565
O21 Si5 1.631740 1_545
O21 Si2 1.644302 1_455
O22 Si6 1.631740 1_555
O22 Si7 1.644302 1_555
O23 Si7 1.631740 1_555
O23 Si5 1.644302 1_545
O24 Si9 1.621439 1_555
O24 Si15 1.621439 1_555
O25 Si14 1.621439 1_555
O25 Si11 1.621439 1_555
O26 Si12 1.621438 1_555
O26 Si13 1.621441 1_555
O27 Si8 1.621438 1_555
O27 Si10 1.621441 1_555
O28 Si7 1.621438 1_555
O28 Si1 1.621441 1_555
O29 Si3 1.621439 1_555
O29 Si6 1.621439 1_555
O30 Si5 1.621438 1_555
O30 Si4 1.621441 1_555
O31 Si2 1.621439 1_555
O31 Si0 1.621439 1_555
O32 Si15 1.631740 1_555
O32 Si13 1.644302 1_565
O33 Si14 1.631740 1_555
O33 Si15 1.644302 1_555
O34 Si13 1.631740 1_565
O34 Si10 1.644302 1_655
O35 Si12 1.631740 1_455
O35 Si9 1.644302 1_545
O36 Si11 1.631740 1_555
O36 Si8 1.644302 1_555
O37 Si10 1.631740 1_655
O37 Si14 1.644302 1_555
O38 Si9 1.631740 1_545
O38 Si11 1.644302 1_555
O39 Si0 1.631740 1_555
O39 Si4 1.644302 1_655
