# generated using pymatgen
data_Rb2LaTa6(Br5O)3
_symmetry_space_group_name_H-M   'P 1'
_cell_length_a   9.63353162
_cell_length_b   9.63353162
_cell_length_c   18.26099100
_cell_angle_alpha   90.00000000
_cell_angle_beta   90.00000000
_cell_angle_gamma   119.99999738
_symmetry_Int_Tables_number   1
_chemical_formula_structural   Rb2LaTa6(Br5O)3
_chemical_formula_sum   'Rb4 La2 Ta12 Br30 O6'
_cell_volume   1467.66196633
_cell_formula_units_Z   2
loop_
 _symmetry_equiv_pos_site_id
 _symmetry_equiv_pos_as_xyz
  1  'x, y, z'
loop_
 _atom_site_type_symbol
 _atom_site_label
 _atom_site_symmetry_multiplicity
 _atom_site_fract_x
 _atom_site_fract_y
 _atom_site_fract_z
 _atom_site_occupancy
  Rb  Rb0  1  0.66666700  0.33333300  0.54613300  1
  Rb  Rb1  1  0.33333300  0.66666700  0.45386700  1
  Rb  Rb2  1  0.66666700  0.33333300  0.95386700  1
  Rb  Rb3  1  0.33333300  0.66666700  0.04613300  1
  La  La0  1  0.33333300  0.66666700  0.75000000  1
  La  La1  1  0.66666700  0.33333300  0.25000000  1
  Ta  Ta0  1  0.17225500  0.18911500  0.68635400  1
  Ta  Ta1  1  0.82774500  0.81088500  0.31364600  1
  Ta  Ta2  1  0.81088500  0.98314100  0.68635400  1
  Ta  Ta3  1  0.17225500  0.98314100  0.81364600  1
  Ta  Ta4  1  0.18911500  0.01685900  0.31364600  1
  Ta  Ta5  1  0.82774500  0.01685900  0.18635400  1
  Ta  Ta6  1  0.01685900  0.82774500  0.68635400  1
  Ta  Ta7  1  0.81088500  0.82774500  0.81364600  1
  Ta  Ta8  1  0.98314100  0.17225500  0.31364600  1
  Ta  Ta9  1  0.18911500  0.17225500  0.18635400  1
  Ta  Ta10  1  0.01685900  0.18911500  0.81364600  1
  Ta  Ta11  1  0.98314100  0.81088500  0.18635400  1
  Br  Br0  1  0.42652500  0.21326300  0.75000000  1
  Br  Br1  1  0.57347500  0.78673700  0.25000000  1
  Br  Br2  1  0.78673700  0.21326300  0.75000000  1
  Br  Br3  1  0.21326300  0.78673700  0.25000000  1
  Br  Br4  1  0.78673700  0.57347500  0.75000000  1
  Br  Br5  1  0.21326300  0.42652500  0.25000000  1
  Br  Br6  1  0.98115400  0.20330400  0.58684800  1
  Br  Br7  1  0.01884600  0.79669600  0.41315200  1
  Br  Br8  1  0.79669600  0.77785000  0.58684800  1
  Br  Br9  1  0.98115400  0.77785000  0.91315200  1
  Br  Br10  1  0.20330400  0.22215000  0.41315200  1
  Br  Br11  1  0.01884600  0.22215000  0.08684800  1
  Br  Br12  1  0.22215000  0.01884600  0.58684800  1
  Br  Br13  1  0.79669600  0.01884600  0.91315200  1
  Br  Br14  1  0.77785000  0.98115400  0.41315200  1
  Br  Br15  1  0.20330400  0.98115400  0.08684800  1
  Br  Br16  1  0.22215000  0.20330400  0.91315200  1
  Br  Br17  1  0.77785000  0.79669600  0.08684800  1
  Br  Br18  1  0.39598800  0.46911600  0.61586500  1
  Br  Br19  1  0.60401200  0.53088400  0.38413500  1
  Br  Br20  1  0.53088400  0.92687200  0.61586500  1
  Br  Br21  1  0.39598800  0.92687200  0.88413500  1
  Br  Br22  1  0.46911600  0.07312800  0.38413500  1
  Br  Br23  1  0.60401200  0.07312800  0.11586500  1
  Br  Br24  1  0.07312800  0.60401200  0.61586500  1
  Br  Br25  1  0.53088400  0.60401200  0.88413500  1
  Br  Br26  1  0.92687200  0.39598800  0.38413500  1
  Br  Br27  1  0.46911600  0.39598800  0.11586500  1
  Br  Br28  1  0.07312800  0.46911600  0.88413500  1
  Br  Br29  1  0.92687200  0.53088400  0.11586500  1
  O  O0  1  0.63903000  0.81951500  0.75000000  1
  O  O1  1  0.36097000  0.18048500  0.25000000  1
  O  O2  1  0.18048500  0.81951500  0.75000000  1
  O  O3  1  0.81951500  0.18048500  0.25000000  1
  O  O4  1  0.18048500  0.36097000  0.75000000  1
  O  O5  1  0.81951500  0.63903000  0.25000000  1
loop_
_geom_bond_atom_site_label_1
_geom_bond_atom_site_label_2
_geom_bond_distance
_geom_bond_site_symmetry_2
La0 O2 2.550386 1_555
La0 O4 2.550394 1_555
La0 O0 2.550394 1_555
La1 O3 2.550386 1_555
La1 O1 2.550394 1_555
La1 O5 2.550394 1_555
Br0 Ta0 2.614426 1_555
Br0 Ta3 2.614426 1_545
Br1 Ta1 2.614426 1_555
Br1 Ta5 2.614426 1_565
Br2 Ta10 2.614426 1_655
Br2 Ta2 2.614426 1_545
Br3 Ta11 2.614426 1_455
Br3 Ta4 2.614426 1_565
Br4 Ta7 2.614426 1_555
Br4 Ta6 2.614426 1_655
Br5 Ta9 2.614426 1_555
Br5 Ta8 2.614426 1_455
Br6 Ta0 2.638427 1_655
Br6 Ta2 2.647976 1_545
Br6 Rb0 3.885294 1_555
Br7 Ta1 2.638427 1_455
Br7 Ta4 2.647976 1_565
Br7 Rb1 3.885294 1_555
Br8 Ta2 2.638434 1_555
Br8 Ta6 2.647974 1_655
Br8 Rb0 3.885303 1_555
Br9 Ta3 2.638431 1_655
Br9 Ta7 2.647980 1_555
Br9 Rb2 3.885301 1_555
Br10 Ta4 2.638434 1_555
Br10 Ta8 2.647974 1_455
Br10 Rb1 3.885303 1_555
Br11 Ta5 2.638431 1_455
Br11 Ta9 2.647980 1_555
Br11 Rb3 3.885301 1_555
Br12 Ta6 2.638431 1_545
Br12 Ta0 2.647980 1_555
Br12 Rb0 3.885301 1_555
Br13 Ta7 2.638427 1_545
Br13 Ta10 2.647976 1_655
Br13 Rb2 3.885294 1_555
Br14 Ta8 2.638431 1_565
Br14 Ta1 2.647980 1_555
Br14 Rb1 3.885301 1_555
Br15 Ta9 2.638427 1_565
Br15 Ta11 2.647976 1_455
Br15 Rb3 3.885294 1_555
Br16 Ta10 2.638434 1_555
Br16 Ta3 2.647974 1_545
Br16 Rb2 3.885303 1_555
Br17 Ta11 2.638434 1_555
Br17 Ta5 2.647974 1_565
Br17 Rb3 3.885303 1_555
Br18 Ta0 2.786489 1_555
Br18 La0 3.336856 1_555
Br18 Rb0 3.680081 1_555
Br18 Rb1 3.726401 1_555
Br19 Ta1 2.786489 1_555
Br19 La1 3.336856 1_555
Br19 Rb1 3.680081 1_555
Br19 Rb0 3.726401 1_555
Br20 Ta2 2.786486 1_555
Br20 La0 3.336851 1_555
Br20 Rb0 3.680073 1_565
Br20 Rb1 3.726397 1_555
Br21 Ta3 2.786494 1_555
Br21 La0 3.336849 1_555
Br21 Rb2 3.680074 1_565
Br21 Rb3 3.726396 1_556
Br22 Ta4 2.786486 1_555
Br22 La1 3.336851 1_555
Br22 Rb1 3.680073 1_545
Br22 Rb0 3.726397 1_555
Br23 Ta5 2.786494 1_555
Br23 La1 3.336849 1_555
Br23 Rb3 3.680074 1_545
Br23 Rb2 3.726396 1_554
Br24 Ta6 2.786494 1_555
Br24 La0 3.336849 1_555
Br24 Rb0 3.680074 1_455
Br24 Rb1 3.726396 1_555
Br25 Ta7 2.786489 1_555
Br25 La0 3.336856 1_555
Br25 Rb2 3.680081 1_555
Br25 Rb3 3.726401 1_556
Br26 Ta8 2.786494 1_555
Br26 La1 3.336849 1_555
Br26 Rb1 3.680074 1_655
Br26 Rb0 3.726396 1_555
Br27 Ta9 2.786489 1_555
Br27 La1 3.336856 1_555
Br27 Rb3 3.680081 1_555
Br27 Rb2 3.726401 1_554
Br28 Ta10 2.786486 1_555
Br28 La0 3.336851 1_555
Br28 Rb2 3.680073 1_455
Br28 Rb3 3.726397 1_556
Br29 Ta11 2.786486 1_555
Br29 La1 3.336851 1_555
Br29 Rb3 3.680073 1_655
Br29 Rb2 3.726397 1_554
O0 Ta7 1.991667 1_555
O0 Ta2 1.991671 1_555
O1 Ta9 1.991667 1_555
O1 Ta4 1.991671 1_555
O2 Ta6 1.991675 1_555
O2 Ta3 1.991675 1_555
O3 Ta5 1.991675 1_555
O3 Ta8 1.991675 1_555
O4 Ta0 1.991667 1_555
O4 Ta10 1.991671 1_555
O5 Ta1 1.991667 1_555
O5 Ta11 1.991671 1_555
