# generated using pymatgen
data_Ti10CrSb5
_symmetry_space_group_name_H-M   'P 1'
_cell_length_a   7.85834386
_cell_length_b   7.85828975
_cell_length_c   7.85872400
_cell_angle_alpha   96.41970162
_cell_angle_beta   96.41944014
_cell_angle_gamma   140.93371859
_symmetry_Int_Tables_number   1
_chemical_formula_structural   Ti10CrSb5
_chemical_formula_sum   'Ti10 Cr1 Sb5'
_cell_volume   288.23834205
_cell_formula_units_Z   1
loop_
 _symmetry_equiv_pos_site_id
 _symmetry_equiv_pos_as_xyz
  1  'x, y, z'
loop_
 _atom_site_type_symbol
 _atom_site_label
 _atom_site_symmetry_multiplicity
 _atom_site_fract_x
 _atom_site_fract_y
 _atom_site_fract_z
 _atom_site_occupancy
  Ti  Ti0  1  0.49998039  0.00002074  0.49993827  1
  Ti  Ti1  1  0.99996780  0.50000951  0.50004308  1
  Ti  Ti2  1  0.48085691  0.34004329  0.29073053  1
  Ti  Ti3  1  0.04934309  0.19014027  0.70935041  1
  Ti  Ti4  1  0.51903311  0.80968975  0.85926009  1
  Ti  Ti5  1  0.95047365  0.65982655  0.14077831  1
  Ti  Ti6  1  0.34018594  0.04954599  0.85923387  1
  Ti  Ti7  1  0.19031048  0.48097834  0.14075383  1
  Ti  Ti8  1  0.80984265  0.95064020  0.29064137  1
  Ti  Ti9  1  0.65995127  0.51914171  0.70926712  1
  Cr  Cr0  1  0.50006703  0.49994549  0.00001390  1
  Sb  Sb0  1  0.91320003  0.41322261  0.82647705  1
  Sb  Sb1  1  0.58677228  0.08679094  0.17352138  1
  Sb  Sb2  1  0.08676319  0.91323804  0.49998603  1
  Sb  Sb3  1  0.41322261  0.58677126  0.49999390  1
  Sb  Sb4  1  0.00002857  0.99999632  0.00001087  1
loop_
_geom_bond_atom_site_label_1
_geom_bond_atom_site_label_2
_geom_bond_distance
_geom_bond_site_symmetry_2
Ti0 Ti1 2.627106 1_555
Ti0 Ti1 2.627782 1_445
Cr0 Sb4 2.627404 1_545
Cr0 Sb4 2.627485 1_655
Cr0 Ti6 2.690347 1_554
Cr0 Ti5 2.690403 1_555
Cr0 Ti8 2.691816 1_555
Cr0 Ti2 2.691829 1_555
Cr0 Ti4 2.691846 1_554
Cr0 Ti7 2.691884 1_555
Cr0 Ti9 2.691995 1_554
Cr0 Ti3 2.692076 1_554
Sb0 Ti1 2.751611 1_555
Sb0 Ti0 2.751993 1_555
Sb0 Ti7 2.797920 1_656
Sb0 Ti5 2.797953 1_556
Sb0 Ti9 2.799207 1_555
Sb0 Ti3 2.799420 1_655
Sb0 Ti6 2.991778 1_555
Sb0 Ti4 2.992030 1_655
Sb0 Ti4 3.129537 1_545
Sb0 Ti6 3.129543 1_665
Sb1 Ti0 2.751488 1_555
Sb1 Ti1 2.751894 1_555
Sb1 Ti4 2.797837 1_544
Sb1 Ti6 2.797930 1_554
Sb1 Ti2 2.799194 1_555
Sb1 Ti8 2.799384 1_545
Sb1 Ti5 2.991802 1_555
Sb1 Ti7 2.991909 1_545
Sb1 Ti5 3.129480 1_445
Sb1 Ti7 3.129523 1_655
Sb2 Ti0 2.751548 1_565
Sb2 Ti1 2.751556 1_455
Sb2 Ti8 2.798097 1_455
Sb2 Ti3 2.798155 1_565
Sb2 Ti5 2.799373 1_455
Sb2 Ti6 2.799648 1_565
Sb2 Ti2 2.992230 1_455
Sb2 Ti9 2.992247 1_565
Sb2 Ti2 3.128463 1_565
Sb2 Ti9 3.128641 1_455
Sb3 Ti0 2.751914 1_565
Sb3 Ti1 2.751952 1_455
Sb3 Ti2 2.797998 1_555
Sb3 Ti9 2.798028 1_555
Sb3 Ti7 2.799618 1_555
Sb3 Ti4 2.799767 1_555
Sb3 Ti8 2.992808 1_555
Sb3 Ti3 2.992877 1_555
Sb3 Ti3 3.128617 1_665
Sb3 Ti8 3.128654 1_445
Sb4 Ti8 2.768025 1_455
Sb4 Ti6 2.768082 1_564
Sb4 Ti5 2.768093 1_455
Sb4 Ti3 2.768124 1_564
Sb4 Ti2 2.768233 1_565
Sb4 Ti9 2.768383 1_454
Sb4 Ti7 2.768468 1_565
Sb4 Ti4 2.768499 1_454
