# generated using pymatgen
data_Cs2NiAs2
_symmetry_space_group_name_H-M   'P 1'
_cell_length_a   8.18281799
_cell_length_b   8.18281799
_cell_length_c   6.12369971
_cell_angle_alpha   90.00000000
_cell_angle_beta   90.00000000
_cell_angle_gamma   127.64074210
_symmetry_Int_Tables_number   1
_chemical_formula_structural   Cs2NiAs2
_chemical_formula_sum   'Cs4 Ni2 As4'
_cell_volume   324.68755950
_cell_formula_units_Z   2
loop_
 _symmetry_equiv_pos_site_id
 _symmetry_equiv_pos_as_xyz
  1  'x, y, z'
loop_
 _atom_site_type_symbol
 _atom_site_label
 _atom_site_symmetry_multiplicity
 _atom_site_fract_x
 _atom_site_fract_y
 _atom_site_fract_z
 _atom_site_occupancy
  Cs  Cs0  1  0.79159358  0.20840642  0.25000000  1
  Cs  Cs1  1  0.20840642  0.79159358  0.75000000  1
  Cs  Cs2  1  0.40604586  0.59395414  0.25000000  1
  Cs  Cs3  1  0.59395414  0.40604586  0.75000000  1
  Ni  Ni0  1  0.00000000  0.00000000  -0.00000000  1
  Ni  Ni1  1  0.00000000  0.00000000  0.50000000  1
  As  As0  1  0.92243311  0.74333749  0.25000000  1
  As  As1  1  0.07756689  0.25666251  0.75000000  1
  As  As2  1  0.25666251  0.07756689  0.25000000  1
  As  As3  1  0.74333749  0.92243311  0.75000000  1
loop_
_geom_bond_atom_site_label_1
_geom_bond_atom_site_label_2
_geom_bond_distance
_geom_bond_site_symmetry_2
Cs0 Ni0 3.422329 1_655
Cs0 Ni1 3.422329 1_655
Cs1 Ni0 3.422329 1_566
Cs1 Ni1 3.422329 1_565
As0 Ni0 2.351452 1_665
As0 Ni1 2.351452 1_665
As0 As2 2.413237 1_665
As0 Cs2 3.611131 1_555
As0 Cs1 3.725338 1_655
As0 Cs1 3.725338 1_654
As0 Cs0 3.818695 1_555
As0 Cs3 3.893081 1_555
As0 Cs3 3.893081 1_554
As1 Ni1 2.351452 1_555
As1 Ni0 2.351452 1_556
As1 As3 2.413237 1_445
As1 Cs3 3.611131 1_555
As1 Cs0 3.725338 1_455
As1 Cs0 3.725338 1_456
As1 Cs1 3.818695 1_555
As1 Cs2 3.893081 1_555
As1 Cs2 3.893081 1_556
As2 Ni1 2.351452 1_555
As2 Ni0 2.351452 1_555
As2 Cs2 3.611131 1_555
As2 Cs1 3.725338 1_544
As2 Cs1 3.725338 1_545
As2 Cs0 3.818695 1_555
As2 Cs3 3.893081 1_555
As2 Cs3 3.893081 1_554
As3 Ni0 2.351452 1_666
As3 Ni1 2.351452 1_665
As3 Cs3 3.611131 1_555
As3 Cs0 3.725338 1_565
As3 Cs0 3.725338 1_566
As3 Cs1 3.818695 1_555
As3 Cs2 3.893081 1_555
As3 Cs2 3.893081 1_556
