# generated using pymatgen
data_Li3La5Ti8O24
_symmetry_space_group_name_H-M   'P 1'
_cell_length_a   8.74536121
_cell_length_b   8.74536121
_cell_length_c   8.76594600
_cell_angle_alpha   66.48948220
_cell_angle_beta   66.48948220
_cell_angle_gamma   53.14392585
_symmetry_Int_Tables_number   1
_chemical_formula_structural   Li3La5Ti8O24
_chemical_formula_sum   'Li3 La5 Ti8 O24'
_cell_volume   480.12529942
_cell_formula_units_Z   1
loop_
 _symmetry_equiv_pos_site_id
 _symmetry_equiv_pos_as_xyz
  1  'x, y, z'
loop_
 _atom_site_type_symbol
 _atom_site_label
 _atom_site_symmetry_multiplicity
 _atom_site_fract_x
 _atom_site_fract_y
 _atom_site_fract_z
 _atom_site_occupancy
  Li  Li0  1  0.50000000  0.50000000  0.00000000  1
  Li  Li1  1  0.74999400  0.74999400  0.00015300  1
  Li  Li2  1  0.25000600  0.25000600  0.99984700  1
  La  La0  1  0.37469600  0.37469600  0.49969900  1
  La  La1  1  0.62530400  0.62530400  0.50030100  1
  La  La2  1  0.12511000  0.12511000  0.49797600  1
  La  La3  1  0.00000000  0.00000000  0.00000000  1
  La  La4  1  0.87489000  0.87489000  0.50202400  1
  Ti  Ti0  1  0.81259200  0.31784400  0.24378000  1
  Ti  Ti1  1  0.93464700  0.43966000  0.75614600  1
  Ti  Ti2  1  0.43966000  0.93464700  0.75614600  1
  Ti  Ti3  1  0.06535300  0.56034000  0.24385400  1
  Ti  Ti4  1  0.18740800  0.68215600  0.75622000  1
  Ti  Ti5  1  0.31784400  0.81259200  0.24378000  1
  Ti  Ti6  1  0.68215600  0.18740800  0.75622000  1
  Ti  Ti7  1  0.56034000  0.06535300  0.24385400  1
  O  O0  1  0.93321200  0.43441400  0.26469600  1
  O  O1  1  0.87829100  0.36485100  0.00002000  1
  O  O2  1  0.82066700  0.30922300  0.74025300  1
  O  O3  1  0.30913700  0.30913700  0.26522400  1
  O  O4  1  0.55783300  0.55783300  0.26621200  1
  O  O5  1  0.69086300  0.69086300  0.73477600  1
  O  O6  1  0.44216700  0.44216700  0.73378800  1
  O  O7  1  0.17933300  0.69077700  0.25974700  1
  O  O8  1  0.43441400  0.93321200  0.26469600  1
  O  O9  1  0.06678800  0.56558600  0.73530400  1
  O  O10  1  0.12170900  0.63514900  0.99998000  1
  O  O11  1  0.30922300  0.82066700  0.74025300  1
  O  O12  1  0.36485100  0.87829100  0.00002000  1
  O  O13  1  0.24872800  0.75127200  0.50000000  1
  O  O14  1  0.00000000  0.50000000  0.50000000  1
  O  O15  1  0.81284300  0.81284300  0.26031600  1
  O  O16  1  0.94269300  0.94269300  0.74052200  1
  O  O17  1  0.18715700  0.18715700  0.73968400  1
  O  O18  1  0.05730700  0.05730700  0.25947800  1
  O  O19  1  0.50000000  0.00000000  0.50000000  1
  O  O20  1  0.69077700  0.17933300  0.25974700  1
  O  O21  1  0.75127200  0.24872800  0.50000000  1
  O  O22  1  0.63514900  0.12170900  0.99998000  1
  O  O23  1  0.56558600  0.06678800  0.73530400  1
loop_
_geom_bond_atom_site_label_1
_geom_bond_atom_site_label_2
_geom_bond_distance
_geom_bond_site_symmetry_2
La0 O3 2.675220 1_555
La0 O4 2.676907 1_555
La0 O9 2.687835 1_555
La0 O23 2.687835 1_555
La0 O6 2.693846 1_555
La0 O17 2.743492 1_555
La0 O7 2.747220 1_555
La0 O20 2.747220 1_555
La0 O14 2.761586 1_555
La0 O19 2.761586 1_555
La0 O21 2.777011 1_555
La0 O13 2.777011 1_555
La1 O5 2.675220 1_555
La1 O6 2.676907 1_555
La1 O8 2.687835 1_555
La1 O0 2.687835 1_555
La1 O4 2.693846 1_555
La1 O15 2.743492 1_555
La1 O2 2.747220 1_555
La1 O11 2.747220 1_555
La1 O14 2.761586 1_655
La1 O19 2.761586 1_565
La1 O21 2.777011 1_555
La1 O13 2.777011 1_555
La2 O8 2.682191 1_545
La2 O0 2.682191 1_455
La2 O3 2.685255 1_555
La2 O16 2.692808 1_445
La2 O17 2.695545 1_555
La2 O11 2.695545 1_545
La2 O2 2.695545 1_455
La2 O18 2.733858 1_555
La2 O21 2.754407 1_455
La2 O13 2.754407 1_545
La2 O14 2.770204 1_555
La2 O19 2.770204 1_555
La3 O1 2.690724 1_455
La3 O12 2.690724 1_545
La3 O10 2.690724 1_544
La3 O22 2.690724 1_454
La3 O16 2.792186 1_444
La3 O18 2.792186 1_555
La3 O11 2.793883 1_544
La3 O2 2.793883 1_454
La3 O20 2.793883 1_455
La3 O7 2.793883 1_545
La3 O17 2.796261 1_554
La3 O15 2.796261 1_445
La4 O9 2.682191 1_655
La4 O23 2.682191 1_565
La4 O5 2.685255 1_555
La4 O18 2.692808 1_665
La4 O15 2.695545 1_555
La4 O7 2.695545 1_655
La4 O20 2.695545 1_565
La4 O16 2.733858 1_555
La4 O13 2.754407 1_655
La4 O21 2.754407 1_565
La4 O19 2.770204 1_565
La4 O14 2.770204 1_655
O0 Ti0 1.943992 1_555
O0 Ti3 1.944053 1_655
O1 Ti0 1.915196 1_555
O1 Ti1 1.916087 1_554
O2 Ti6 1.978791 1_555
O2 Ti1 1.978858 1_555
O3 Ti7 1.943796 1_555
O3 Ti3 1.943796 1_555
O4 Ti0 1.943633 1_555
O4 Ti5 1.943633 1_555
O5 Ti2 1.943796 1_555
O5 Ti1 1.943796 1_555
O6 Ti6 1.943633 1_555
O6 Ti4 1.943633 1_555
O7 Ti5 1.978791 1_555
O7 Ti3 1.978858 1_555
O8 Ti5 1.943992 1_555
O8 Ti7 1.944053 1_565
O9 Ti4 1.943992 1_555
O9 Ti1 1.944053 1_455
O10 Ti4 1.915196 1_555
O10 Ti3 1.916087 1_556
O11 Ti4 1.978791 1_555
O11 Ti2 1.978858 1_555
O12 Ti5 1.915196 1_555
O12 Ti2 1.916087 1_554
O13 Ti5 2.010536 1_555
O13 Ti4 2.010536 1_555
O14 Ti1 2.009819 1_455
O14 Ti3 2.009819 1_555
O15 Ti7 1.980866 1_565
O15 Ti3 1.980866 1_655
O16 Ti6 1.981355 1_565
O16 Ti4 1.981355 1_655
O17 Ti1 1.980866 1_455
O17 Ti2 1.980866 1_545
O18 Ti5 1.981355 1_545
O18 Ti0 1.981355 1_455
O19 Ti7 2.009819 1_555
O19 Ti2 2.009819 1_545
O20 Ti0 1.978791 1_555
O20 Ti7 1.978858 1_555
O21 Ti6 2.010536 1_555
O21 Ti0 2.010536 1_555
O22 Ti6 1.915196 1_555
O22 Ti7 1.916087 1_556
O23 Ti6 1.943992 1_555
O23 Ti2 1.944053 1_545
