# generated using pymatgen
data_Y19Mg97
_symmetry_space_group_name_H-M   'P 1'
_cell_length_a   9.70428157
_cell_length_b   9.70428157
_cell_length_c   32.11357627
_cell_angle_alpha   90.00000000
_cell_angle_beta   90.00000000
_cell_angle_gamma   109.12562674
_symmetry_Int_Tables_number   1
_chemical_formula_structural   Y19Mg97
_chemical_formula_sum   'Y19 Mg97'
_cell_volume   2857.30412052
_cell_formula_units_Z   1
loop_
 _symmetry_equiv_pos_site_id
 _symmetry_equiv_pos_as_xyz
  1  'x, y, z'
loop_
 _atom_site_type_symbol
 _atom_site_label
 _atom_site_symmetry_multiplicity
 _atom_site_fract_x
 _atom_site_fract_y
 _atom_site_fract_z
 _atom_site_occupancy
  Y  Y0  1  0.12214708  0.50112869  0.24996003  1
  Y  Y1  1  0.62210746  0.00161939  0.50000000  1
  Y  Y2  1  0.12214708  0.50112869  0.75003997  1
  Y  Y3  1  0.62457932  0.00113861  -0.00000000  1
  Y  Y4  1  0.50112869  0.12214708  0.24996003  1
  Y  Y5  1  0.00161939  0.62210746  0.50000000  1
  Y  Y6  1  0.50112869  0.12214708  0.75003997  1
  Y  Y7  1  0.00113861  0.62457932  0.00000000  1
  Y  Y8  1  0.68884359  0.68884359  0.15574126  1
  Y  Y9  1  0.18914856  0.18914856  0.40563941  1
  Y  Y10  1  0.68972063  0.68972063  0.65576423  1
  Y  Y11  1  0.18742981  0.18742981  0.90620892  1
  Y  Y12  1  0.18742981  0.18742981  0.09379108  1
  Y  Y13  1  0.68972063  0.68972063  0.34423577  1
  Y  Y14  1  0.18914856  0.18914856  0.59436059  1
  Y  Y15  1  0.68884359  0.68884359  0.84425874  1
  Y  Y16  1  0.50043305  0.50043305  0.24994629  1
  Y  Y17  1  0.00053457  0.00053457  0.50000000  1
  Y  Y18  1  0.50043305  0.50043305  0.75005371  1
  Mg  Mg0  1  0.38986118  0.67451346  -0.00000000  1
  Mg  Mg1  1  0.88946634  0.17273884  0.25001020  1
  Mg  Mg2  1  0.38919933  0.67267513  0.50000000  1
  Mg  Mg3  1  0.88946634  0.17273884  0.74998980  1
  Mg  Mg4  1  0.55102317  0.16358500  0.08173920  1
  Mg  Mg5  1  0.05178212  0.66391966  0.33190002  1
  Mg  Mg6  1  0.55138947  0.16398360  0.58192641  1
  Mg  Mg7  1  0.05186251  0.66323250  0.83167579  1
  Mg  Mg8  1  0.05186251  0.66323250  0.16832421  1
  Mg  Mg9  1  0.55138947  0.16398360  0.41807359  1
  Mg  Mg10  1  0.05178212  0.66391966  0.66809998  1
  Mg  Mg11  1  0.55102317  0.16358500  0.91826080  1
  Mg  Mg12  1  0.67451346  0.38986118  0.00000000  1
  Mg  Mg13  1  0.17273884  0.88946634  0.25001020  1
  Mg  Mg14  1  0.67267513  0.38919933  0.50000000  1
  Mg  Mg15  1  0.17273884  0.88946634  0.74998980  1
  Mg  Mg16  1  0.66323250  0.05186251  0.16832421  1
  Mg  Mg17  1  0.16398360  0.55138947  0.41807359  1
  Mg  Mg18  1  0.66391966  0.05178212  0.66809998  1
  Mg  Mg19  1  0.16358500  0.55102317  0.91826080  1
  Mg  Mg20  1  0.16358500  0.55102317  0.08173920  1
  Mg  Mg21  1  0.66391966  0.05178212  0.33190002  1
  Mg  Mg22  1  0.16398360  0.55138947  0.58192641  1
  Mg  Mg23  1  0.66323250  0.05186251  0.83167579  1
  Mg  Mg24  1  0.97049585  0.97049585  0.17844630  1
  Mg  Mg25  1  0.47013831  0.47013831  0.42858520  1
  Mg  Mg26  1  0.97029659  0.97029659  0.67874641  1
  Mg  Mg27  1  0.46833255  0.46833255  0.92844967  1
  Mg  Mg28  1  0.80519411  0.47910288  0.09704749  1
  Mg  Mg29  1  0.30562935  0.97837892  0.34694296  1
  Mg  Mg30  1  0.80539236  0.47831300  0.59696297  1
  Mg  Mg31  1  0.30544010  0.97910579  0.84694653  1
  Mg  Mg32  1  0.47910288  0.80519411  0.09704749  1
  Mg  Mg33  1  0.97837892  0.30562935  0.34694296  1
  Mg  Mg34  1  0.47831300  0.80539236  0.59696297  1
  Mg  Mg35  1  0.97910579  0.30544010  0.84694653  1
  Mg  Mg36  1  0.46833255  0.46833255  0.07155033  1
  Mg  Mg37  1  0.97029659  0.97029659  0.32125359  1
  Mg  Mg38  1  0.47013831  0.47013831  0.57141480  1
  Mg  Mg39  1  0.97049585  0.97049585  0.82155370  1
  Mg  Mg40  1  0.97910579  0.30544010  0.15305347  1
  Mg  Mg41  1  0.47831300  0.80539236  0.40303703  1
  Mg  Mg42  1  0.97837892  0.30562935  0.65305704  1
  Mg  Mg43  1  0.47910288  0.80519411  0.90295251  1
  Mg  Mg44  1  0.30544010  0.97910579  0.15305347  1
  Mg  Mg45  1  0.80539236  0.47831300  0.40303703  1
  Mg  Mg46  1  0.30562935  0.97837892  0.65305704  1
  Mg  Mg47  1  0.80519411  0.47910288  0.90295251  1
  Mg  Mg48  1  0.99963480  0.99963480  0.00000000  1
  Mg  Mg49  1  0.36942470  0.18925952  0.00000000  1
  Mg  Mg50  1  0.86793483  0.68897554  0.24995176  1
  Mg  Mg51  1  0.36845533  0.18917391  0.50000000  1
  Mg  Mg52  1  0.86793483  0.68897554  0.75004824  1
  Mg  Mg53  1  0.77378552  0.40520838  0.20259523  1
  Mg  Mg54  1  0.27344286  0.90493082  0.45260537  1
  Mg  Mg55  1  0.77338275  0.40506204  0.70269509  1
  Mg  Mg56  1  0.27430455  0.90468240  0.95258842  1
  Mg  Mg57  1  0.27430455  0.90468240  0.04741158  1
  Mg  Mg58  1  0.77338275  0.40506204  0.29730491  1
  Mg  Mg59  1  0.27344286  0.90493082  0.54739463  1
  Mg  Mg60  1  0.77378552  0.40520838  0.79740477  1
  Mg  Mg61  1  0.18925952  0.36942470  -0.00000000  1
  Mg  Mg62  1  0.68897554  0.86793483  0.24995176  1
  Mg  Mg63  1  0.18917391  0.36845533  0.50000000  1
  Mg  Mg64  1  0.68897554  0.86793483  0.75004824  1
  Mg  Mg65  1  0.90468240  0.27430455  0.04741158  1
  Mg  Mg66  1  0.40506204  0.77338275  0.29730491  1
  Mg  Mg67  1  0.90493082  0.27344286  0.54739463  1
  Mg  Mg68  1  0.40520838  0.77378552  0.79740477  1
  Mg  Mg69  1  0.40520838  0.77378552  0.20259523  1
  Mg  Mg70  1  0.90493082  0.27344286  0.45260537  1
  Mg  Mg71  1  0.40506204  0.77338275  0.70269509  1
  Mg  Mg72  1  0.90468240  0.27430455  0.95258842  1
  Mg  Mg73  1  0.71921747  0.71921747  0.04445063  1
  Mg  Mg74  1  0.22038341  0.22038341  0.29425652  1
  Mg  Mg75  1  0.71975429  0.71975429  0.54442277  1
  Mg  Mg76  1  0.21991098  0.21991098  0.79445719  1
  Mg  Mg77  1  0.81472651  0.00590389  0.09260093  1
  Mg  Mg78  1  0.31537162  0.50593670  0.34220468  1
  Mg  Mg79  1  0.81554841  0.00608735  0.59228619  1
  Mg  Mg80  1  0.31556840  0.50613849  0.84237307  1
  Mg  Mg81  1  0.00590389  0.81472651  0.09260093  1
  Mg  Mg82  1  0.50593670  0.31537162  0.34220468  1
  Mg  Mg83  1  0.00608735  0.81554841  0.59228619  1
  Mg  Mg84  1  0.50613849  0.31556840  0.84237307  1
  Mg  Mg85  1  0.21991098  0.21991098  0.20554281  1
  Mg  Mg86  1  0.71975429  0.71975429  0.45557723  1
  Mg  Mg87  1  0.22038341  0.22038341  0.70574348  1
  Mg  Mg88  1  0.71921747  0.71921747  0.95554937  1
  Mg  Mg89  1  0.50613849  0.31556840  0.15762693  1
  Mg  Mg90  1  0.00608735  0.81554841  0.40771381  1
  Mg  Mg91  1  0.50593670  0.31537162  0.65779532  1
  Mg  Mg92  1  0.00590389  0.81472651  0.90739907  1
  Mg  Mg93  1  0.31556840  0.50613849  0.15762693  1
  Mg  Mg94  1  0.81554841  0.00608735  0.40771381  1
  Mg  Mg95  1  0.31537162  0.50593670  0.65779532  1
  Mg  Mg96  1  0.81472651  0.00590389  0.90739907  1
loop_
_geom_bond_atom_site_label_1
_geom_bond_atom_site_label_2
_geom_bond_distance
_geom_bond_site_symmetry_2
Y0 Y16 3.673211 1_555
Y1 Y17 3.675826 1_655
Y10 Y18 3.702157 1_555
Y13 Y16 3.702157 1_555
Y14 Y17 3.699671 1_555
Y15 Y18 3.694266 1_555
Y16 Y4 3.673211 1_555
Y16 Y8 3.694266 1_555
Y17 Y5 3.675826 1_545
Y17 Y9 3.699671 1_555
Y18 Y2 3.673211 1_555
Y18 Y6 3.673211 1_555
Mg0 Mg61 2.962845 1_555
Mg0 Mg57 3.194700 1_555
Mg0 Mg56 3.194700 1_554
Mg0 Y3 3.240991 1_565
Mg0 Mg27 3.295643 1_554
Mg0 Mg36 3.295643 1_555
Mg0 Mg32 3.369184 1_555
Mg0 Mg43 3.369184 1_554
Mg0 Mg20 3.379914 1_555
Mg0 Mg19 3.379914 1_554
Mg0 Mg73 3.395991 1_555
Mg0 Mg88 3.395991 1_554
Mg0 Y7 3.642395 1_555
Mg1 Mg62 2.960324 1_545
Mg1 Mg58 3.212932 1_555
Mg1 Mg53 3.213653 1_555
Mg1 Y0 3.246372 1_655
Mg1 Mg37 3.273980 1_545
Mg1 Mg24 3.280714 1_545
Mg1 Mg33 3.371692 1_555
Mg1 Mg40 3.372784 1_555
Mg1 Mg16 3.374864 1_555
Mg1 Mg21 3.376492 1_555
Mg1 Mg85 3.401462 1_655
Mg1 Mg74 3.401814 1_655
Mg1 Y4 3.637379 1_555
Mg2 Mg63 2.954390 1_555
Mg2 Mg54 3.212074 1_555
Mg2 Mg59 3.212074 1_555
Mg2 Y1 3.251252 1_565
Mg2 Mg25 3.278911 1_555
Mg2 Mg38 3.278911 1_555
Mg2 Mg34 3.372342 1_555
Mg2 Mg41 3.372342 1_555
Mg2 Mg22 3.376127 1_555
Mg2 Mg75 3.401980 1_555
Mg2 Mg86 3.401980 1_555
Mg2 Y5 3.630133 1_555
Mg3 Mg64 2.960324 1_545
Mg3 Mg55 3.212932 1_555
Mg3 Mg60 3.213653 1_555
Mg3 Y2 3.246372 1_655
Mg3 Mg39 3.280714 1_545
Mg3 Mg42 3.371692 1_555
Mg3 Mg35 3.372784 1_555
Mg3 Mg76 3.401462 1_655
Mg3 Mg87 3.401814 1_655
Mg3 Y6 3.637379 1_555
Mg4 Mg89 2.953826 1_555
Mg4 Mg57 3.212128 1_545
Mg4 Mg49 3.216479 1_555
Mg4 Y3 3.259188 1_555
Mg4 Mg44 3.366554 1_545
Mg4 Mg77 3.402621 1_555
Mg4 Mg65 3.425202 1_555
Mg4 Y12 3.631534 1_555
Mg5 Mg90 2.952438 1_555
Mg5 Mg58 3.224340 1_455
Mg5 Mg50 3.232957 1_455
Mg5 Y0 3.254690 1_555
Mg5 Mg78 3.401880 1_555
Mg5 Mg66 3.424865 1_555
Mg5 Y13 3.625065 1_455
Mg6 Mg91 2.951885 1_555
Mg6 Y1 3.253309 1_555
Mg6 Mg79 3.406439 1_555
Mg6 Mg67 3.426489 1_555
Mg6 Y14 3.624757 1_555
Mg7 Mg92 2.950129 1_555
Mg7 Y2 3.242811 1_555
Mg7 Mg80 3.398141 1_555
Mg7 Y15 3.634443 1_455
Mg8 Mg81 2.950129 1_555
Mg8 Y0 3.242811 1_555
Mg8 Mg93 3.398141 1_555
Mg8 Y8 3.634443 1_455
Mg9 Y1 3.253309 1_555
Mg9 Mg94 3.406439 1_555
Mg9 Y9 3.624757 1_555
Mg10 Mg83 2.952438 1_555
Mg10 Mg55 3.224340 1_455
Mg10 Mg52 3.232957 1_455
Mg10 Y2 3.254690 1_555
Mg10 Mg46 3.269257 1_555
Mg10 Mg22 3.288679 1_555
Mg10 Mg26 3.335045 1_455
Mg10 Mg42 3.347687 1_455
Mg10 Mg30 3.370161 1_455
Mg10 Mg15 3.376492 1_555
Mg10 Mg95 3.401880 1_555
Mg10 Mg71 3.424865 1_555
Mg10 Y10 3.625065 1_455
Mg11 Mg84 2.953826 1_555
Mg11 Mg56 3.212128 1_545
Mg11 Mg49 3.216479 1_556
Mg11 Y3 3.259188 1_556
Mg11 Mg47 3.278986 1_555
Mg11 Mg23 3.296405 1_555
Mg11 Mg27 3.324458 1_555
Mg11 Mg43 3.351738 1_545
Mg11 Mg31 3.366554 1_545
Mg11 Mg12 3.379914 1_556
Mg11 Mg96 3.402621 1_555
Mg11 Mg72 3.425202 1_555
Mg11 Y11 3.631534 1_555
Mg12 Mg49 2.962845 1_555
Mg12 Mg72 3.194700 1_554
Mg12 Mg65 3.194700 1_555
Mg12 Y7 3.240991 1_655
Mg12 Mg27 3.295643 1_554
Mg12 Mg36 3.295643 1_555
Mg12 Mg28 3.369184 1_555
Mg12 Mg47 3.369184 1_554
Mg12 Mg4 3.379914 1_555
Mg12 Mg73 3.395991 1_555
Mg12 Mg88 3.395991 1_554
Mg12 Y3 3.642395 1_555
Mg13 Mg50 2.960324 1_455
Mg13 Mg66 3.212932 1_555
Mg13 Mg69 3.213653 1_555
Mg13 Y4 3.246372 1_565
Mg13 Mg37 3.273980 1_455
Mg13 Mg24 3.280714 1_455
Mg13 Mg29 3.371692 1_555
Mg13 Mg44 3.372784 1_555
Mg13 Mg8 3.374864 1_555
Mg13 Mg5 3.376492 1_555
Mg13 Mg85 3.401462 1_565
Mg13 Mg74 3.401814 1_565
Mg13 Y0 3.637379 1_555
Mg14 Mg51 2.954390 1_555
Mg14 Mg70 3.212074 1_555
Mg14 Mg67 3.212074 1_555
Mg14 Y5 3.251252 1_655
Mg14 Mg38 3.278911 1_555
Mg14 Mg25 3.278911 1_555
Mg14 Mg45 3.372342 1_555
Mg14 Mg30 3.372342 1_555
Mg14 Mg6 3.376127 1_555
Mg14 Mg9 3.376127 1_555
Mg14 Mg75 3.401980 1_555
Mg14 Mg86 3.401980 1_555
Mg14 Y1 3.630133 1_555
Mg15 Mg52 2.960324 1_455
Mg15 Mg71 3.212932 1_555
Mg15 Mg68 3.213653 1_555
Mg15 Y6 3.246372 1_565
Mg15 Mg26 3.273980 1_455
Mg15 Mg39 3.280714 1_455
Mg15 Mg46 3.371692 1_555
Mg15 Mg31 3.372784 1_555
Mg15 Mg7 3.374864 1_555
Mg15 Mg76 3.401462 1_565
Mg15 Mg87 3.401814 1_565
Mg15 Y2 3.637379 1_555
Mg16 Mg77 2.950129 1_555
Mg16 Mg69 3.214862 1_545
Mg16 Mg62 3.226748 1_545
Mg16 Y4 3.242811 1_555
Mg16 Mg40 3.278615 1_555
Mg16 Mg4 3.296405 1_555
Mg16 Mg24 3.341092 1_545
Mg16 Mg44 3.344875 1_545
Mg16 Mg32 3.370357 1_545
Mg16 Mg89 3.398141 1_555
Mg16 Mg53 3.421907 1_555
Mg16 Y8 3.634443 1_545
Mg17 Mg78 2.951885 1_555
Mg17 Mg70 3.222040 1_455
Mg17 Mg63 3.227618 1_555
Mg17 Y5 3.253309 1_555
Mg17 Mg41 3.269038 1_555
Mg17 Mg5 3.288679 1_555
Mg17 Mg25 3.331310 1_555
Mg17 Mg45 3.350894 1_455
Mg17 Mg33 3.366755 1_455
Mg17 Mg2 3.376127 1_555
Mg17 Mg90 3.406439 1_555
Mg17 Mg54 3.426489 1_555
Mg17 Y9 3.624757 1_555
Mg18 Mg79 2.952438 1_555
Mg18 Mg71 3.224340 1_545
Mg18 Mg64 3.232957 1_545
Mg18 Y6 3.254690 1_555
Mg18 Mg42 3.269257 1_555
Mg18 Mg6 3.288679 1_555
Mg18 Mg26 3.335045 1_545
Mg18 Mg46 3.347687 1_545
Mg18 Mg34 3.370161 1_545
Mg18 Mg3 3.376492 1_555
Mg18 Mg91 3.401880 1_555
Mg18 Mg55 3.424865 1_555
Mg18 Y10 3.625065 1_545
Mg19 Mg80 2.953826 1_555
Mg19 Mg72 3.212128 1_455
Mg19 Mg61 3.216479 1_556
Mg19 Y7 3.259188 1_556
Mg19 Mg43 3.278986 1_555
Mg19 Mg7 3.296405 1_555
Mg19 Mg27 3.324458 1_555
Mg19 Mg47 3.351738 1_455
Mg19 Mg35 3.366554 1_455
Mg19 Mg92 3.402621 1_555
Mg19 Mg56 3.425202 1_555
Mg19 Y11 3.631534 1_555
Mg20 Mg93 2.953826 1_555
Mg20 Mg65 3.212128 1_455
Mg20 Mg61 3.216479 1_555
Mg20 Y7 3.259188 1_555
Mg20 Mg32 3.278986 1_555
Mg20 Mg8 3.296405 1_555
Mg20 Mg36 3.324458 1_555
Mg20 Mg28 3.351738 1_455
Mg20 Mg40 3.366554 1_455
Mg20 Mg81 3.402621 1_555
Mg20 Mg57 3.425202 1_555
Mg20 Y12 3.631534 1_555
Mg21 Mg94 2.952438 1_555
Mg21 Mg66 3.224340 1_545
Mg21 Mg62 3.232957 1_545
Mg21 Y4 3.254690 1_555
Mg21 Mg33 3.269257 1_555
Mg21 Mg9 3.288679 1_555
Mg21 Mg37 3.335045 1_545
Mg21 Mg29 3.347687 1_545
Mg21 Mg41 3.370161 1_545
Mg21 Mg82 3.401880 1_555
Mg21 Mg58 3.424865 1_555
Mg21 Y13 3.625065 1_545
Mg22 Mg95 2.951885 1_555
Mg22 Mg67 3.222040 1_455
Mg22 Mg63 3.227618 1_555
Mg22 Y5 3.253309 1_555
Mg22 Mg34 3.269038 1_555
Mg22 Mg38 3.331310 1_555
Mg22 Mg30 3.350894 1_455
Mg22 Mg42 3.366755 1_455
Mg22 Mg83 3.406439 1_555
Mg22 Mg59 3.426489 1_555
Mg22 Y14 3.624757 1_555
Mg23 Mg96 2.950129 1_555
Mg23 Mg68 3.214862 1_545
Mg23 Mg64 3.226748 1_545
Mg23 Y6 3.242811 1_555
Mg23 Mg35 3.278615 1_555
Mg23 Mg39 3.341092 1_545
Mg23 Mg31 3.344875 1_545
Mg23 Mg43 3.370357 1_545
Mg23 Mg3 3.374864 1_555
Mg23 Mg84 3.398141 1_555
Mg23 Mg60 3.421907 1_555
Mg23 Y15 3.634443 1_545
Mg24 Mg85 2.938532 1_665
Mg24 Mg77 3.216117 1_565
Mg24 Mg81 3.216117 1_655
Mg24 Y8 3.252299 1_555
Mg24 Mg40 3.325514 1_565
Mg24 Mg44 3.325514 1_655
Mg24 Mg8 3.341092 1_655
Mg24 Mg50 3.456208 1_555
Mg24 Mg62 3.456208 1_555
Mg24 Y12 3.653798 1_665
Mg25 Mg86 2.939700 1_555
Mg25 Mg82 3.226963 1_555
Mg25 Mg78 3.226963 1_555
Mg25 Y9 3.246780 1_555
Mg25 Mg41 3.330902 1_555
Mg25 Mg45 3.330902 1_555
Mg25 Mg9 3.331310 1_555
Mg25 Mg51 3.450278 1_555
Mg25 Mg63 3.450278 1_555
Mg25 Y13 3.666516 1_555
Mg26 Mg87 2.944811 1_665
Mg26 Mg79 3.229054 1_565
Mg26 Mg83 3.229054 1_655
Mg26 Y10 3.242511 1_555
Mg26 Mg3 3.273980 1_565
Mg26 Mg42 3.333027 1_565
Mg26 Mg46 3.333027 1_655
Mg26 Mg52 3.450464 1_555
Mg26 Mg64 3.450464 1_555
Mg26 Y14 3.661847 1_665
Mg27 Mg88 2.954364 1_555
Mg27 Mg80 3.213979 1_555
Mg27 Mg84 3.213979 1_555
Mg27 Y11 3.240761 1_555
Mg27 Mg47 3.338238 1_555
Mg27 Mg43 3.338238 1_555
Mg27 Mg49 3.439751 1_556
Mg27 Mg61 3.439751 1_556
Mg27 Y15 3.669816 1_555
Mg28 Mg65 2.946200 1_555
Mg28 Mg73 3.201968 1_555
Mg28 Mg81 3.203920 1_655
Mg28 Y8 3.236712 1_555
Mg28 Mg4 3.278986 1_555
Mg28 Mg40 3.284354 1_555
Mg28 Mg36 3.338238 1_555
Mg28 Mg8 3.370357 1_655
Mg28 Mg89 3.421624 1_555
Mg28 Mg53 3.457270 1_555
Mg28 Y7 3.682730 1_655
Mg29 Mg66 2.947442 1_555
Mg29 Mg82 3.214156 1_565
Mg29 Mg74 3.214881 1_565
Mg29 Y9 3.244890 1_565
Mg29 Mg5 3.269257 1_555
Mg29 Mg41 3.273323 1_555
Mg29 Mg37 3.333027 1_455
Mg29 Mg9 3.366755 1_565
Mg29 Mg90 3.427150 1_555
Mg29 Mg54 3.460274 1_555
Mg29 Y4 3.675765 1_565
Mg30 Mg67 2.945839 1_555
Mg30 Mg75 3.209851 1_555
Mg30 Mg83 3.217015 1_655
Mg30 Y10 3.247109 1_555
Mg30 Mg6 3.269038 1_555
Mg30 Mg42 3.273323 1_555
Mg30 Mg38 3.330902 1_555
Mg30 Mg91 3.427888 1_555
Mg30 Mg55 3.462094 1_555
Mg30 Y5 3.678048 1_655
Mg31 Mg68 2.950021 1_555
Mg31 Mg76 3.203437 1_565
Mg31 Mg84 3.210732 1_565
Mg31 Y11 3.246151 1_565
Mg31 Mg7 3.278615 1_555
Mg31 Mg43 3.284354 1_555
Mg31 Mg39 3.325514 1_455
Mg31 Mg92 3.424089 1_555
Mg31 Mg56 3.461102 1_555
Mg31 Y6 3.672930 1_565
Mg32 Mg57 2.946200 1_555
Mg32 Mg73 3.201968 1_555
Mg32 Mg77 3.203920 1_565
Mg32 Y8 3.236712 1_555
Mg32 Mg44 3.284354 1_555
Mg32 Mg36 3.338238 1_555
Mg32 Mg4 3.351738 1_565
Mg32 Mg93 3.421624 1_555
Mg32 Mg69 3.457270 1_555
Mg32 Y3 3.682730 1_565
Mg33 Mg58 2.947442 1_555
Mg33 Mg78 3.214156 1_655
Mg33 Mg74 3.214881 1_655
Mg33 Y9 3.244890 1_655
Mg33 Mg45 3.273323 1_555
Mg33 Mg37 3.333027 1_545
Mg33 Mg5 3.347687 1_655
Mg33 Mg94 3.427150 1_555
Mg33 Mg70 3.460274 1_555
Mg33 Y0 3.675765 1_655
Mg34 Mg59 2.945839 1_555
Mg34 Mg75 3.209851 1_555
Mg34 Mg79 3.217015 1_565
Mg34 Y10 3.247109 1_555
Mg34 Mg46 3.273323 1_555
Mg34 Mg38 3.330902 1_555
Mg34 Mg6 3.350894 1_565
Mg34 Mg95 3.427888 1_555
Mg34 Mg71 3.462094 1_555
Mg34 Y1 3.678048 1_565
Mg35 Mg60 2.950021 1_555
Mg35 Mg76 3.203437 1_655
Mg35 Mg80 3.210732 1_655
Mg35 Y11 3.246151 1_655
Mg35 Mg47 3.284354 1_555
Mg35 Mg39 3.325514 1_545
Mg35 Mg7 3.344875 1_655
Mg35 Mg96 3.424089 1_555
Mg35 Mg72 3.461102 1_555
Mg35 Y2 3.672930 1_655
Mg36 Mg73 2.954364 1_555
Mg36 Mg89 3.213979 1_555
Mg36 Mg93 3.213979 1_555
Mg36 Y12 3.240761 1_555
Mg36 Mg4 3.324458 1_555
Mg36 Mg61 3.439751 1_555
Mg36 Mg49 3.439751 1_555
Mg36 Y8 3.669816 1_555
Mg37 Mg74 2.944811 1_665
Mg37 Mg90 3.229054 1_655
Mg37 Mg94 3.229054 1_565
Mg37 Y13 3.242511 1_555
Mg37 Mg5 3.335045 1_655
Mg37 Mg50 3.450464 1_555
Mg37 Mg62 3.450464 1_555
Mg37 Y9 3.661847 1_665
Mg38 Mg75 2.939700 1_555
Mg38 Mg91 3.226963 1_555
Mg38 Mg95 3.226963 1_555
Mg38 Y14 3.246780 1_555
Mg38 Mg6 3.331310 1_555
Mg38 Mg51 3.450278 1_555
Mg38 Mg63 3.450278 1_555
Mg38 Y10 3.666516 1_555
Mg39 Mg76 2.938532 1_665
Mg39 Mg96 3.216117 1_565
Mg39 Mg92 3.216117 1_655
Mg39 Y15 3.252299 1_555
Mg39 Mg7 3.341092 1_655
Mg39 Mg64 3.456208 1_555
Mg39 Mg52 3.456208 1_555
Mg39 Y11 3.653798 1_665
Mg40 Mg53 2.950021 1_555
Mg40 Mg85 3.203437 1_655
Mg40 Mg93 3.210732 1_655
Mg40 Y12 3.246151 1_655
Mg40 Mg8 3.344875 1_655
Mg40 Mg77 3.424089 1_555
Mg40 Mg65 3.461102 1_555
Mg40 Y0 3.672930 1_655
Mg41 Mg54 2.945839 1_555
Mg41 Mg86 3.209851 1_555
Mg41 Mg94 3.217015 1_565
Mg41 Y13 3.247109 1_555
Mg41 Mg9 3.350894 1_565
Mg41 Mg78 3.427888 1_555
Mg41 Mg66 3.462094 1_555
Mg41 Y1 3.678048 1_565
Mg42 Mg55 2.947442 1_555
Mg42 Mg95 3.214156 1_655
Mg42 Mg87 3.214881 1_655
Mg42 Y14 3.244890 1_655
Mg42 Mg79 3.427150 1_555
Mg42 Mg67 3.460274 1_555
Mg42 Y2 3.675765 1_655
Mg43 Mg56 2.946200 1_555
Mg43 Mg88 3.201968 1_555
Mg43 Mg96 3.203920 1_565
Mg43 Y15 3.236712 1_555
Mg43 Mg80 3.421624 1_555
Mg43 Mg68 3.457270 1_555
Mg43 Y3 3.682730 1_566
Mg44 Mg69 2.950021 1_555
Mg44 Mg85 3.203437 1_565
Mg44 Mg89 3.210732 1_565
Mg44 Y12 3.246151 1_565
Mg44 Mg8 3.278615 1_555
Mg44 Mg81 3.424089 1_555
Mg44 Mg57 3.461102 1_555
Mg44 Y4 3.672930 1_565
Mg45 Mg70 2.945839 1_555
Mg45 Mg86 3.209851 1_555
Mg45 Mg90 3.217015 1_655
Mg45 Y13 3.247109 1_555
Mg45 Mg9 3.269038 1_555
Mg45 Mg5 3.370161 1_655
Mg45 Mg82 3.427888 1_555
Mg45 Mg58 3.462094 1_555
Mg45 Y5 3.678048 1_655
Mg46 Mg71 2.947442 1_555
Mg46 Mg91 3.214156 1_565
Mg46 Mg87 3.214881 1_565
Mg46 Y14 3.244890 1_565
Mg46 Mg6 3.366755 1_565
Mg46 Mg83 3.427150 1_555
Mg46 Mg59 3.460274 1_555
Mg46 Y6 3.675765 1_565
Mg47 Mg72 2.946200 1_555
Mg47 Mg88 3.201968 1_555
Mg47 Mg92 3.203920 1_655
Mg47 Y15 3.236712 1_555
Mg47 Mg7 3.370357 1_655
Mg47 Mg84 3.421624 1_555
Mg47 Mg60 3.457270 1_555
Mg47 Y7 3.682730 1_656
Mg48 Mg72 3.446942 1_564
Mg48 Mg57 3.446942 1_655
Mg48 Mg56 3.446942 1_654
Mg48 Mg65 3.446942 1_565
Mg48 Mg61 3.454955 1_665
Mg48 Mg49 3.454955 1_665
Mg48 Mg73 3.463463 1_555
Mg48 Mg88 3.463463 1_554
Mg48 Mg77 3.484004 1_565
Mg48 Mg81 3.484004 1_655
Mg48 Mg92 3.484004 1_654
Mg48 Mg96 3.484004 1_564
Mg48 Y3 3.644451 1_565
Mg48 Y7 3.644451 1_655
Mg48 Y12 3.679405 1_665
Mg48 Y11 3.679405 1_664
Mg49 Mg61 2.848981 1_555
Mg49 Mg56 3.020983 1_544
Mg49 Mg57 3.020983 1_545
Mg49 Y12 3.488685 1_555
Mg49 Y11 3.488685 1_554
Mg49 Y3 3.525030 1_555
Mg50 Mg62 2.829912 1_555
Mg50 Mg53 3.013645 1_555
Mg50 Mg58 3.014764 1_555
Mg50 Mg8 3.226748 1_655
Mg50 Y16 3.433747 1_555
Mg50 Y13 3.488089 1_555
Mg50 Y8 3.488880 1_555
Mg50 Y0 3.515066 1_655
Mg51 Mg63 2.835006 1_555
Mg51 Mg54 3.018064 1_545
Mg51 Mg59 3.018064 1_545
Mg51 Mg6 3.227618 1_555
Mg51 Mg9 3.227618 1_555
Mg51 Y17 3.437442 1_555
Mg51 Y14 3.494270 1_555
Mg51 Y9 3.494270 1_555
Mg51 Y1 3.508204 1_555
Mg52 Mg64 2.829912 1_555
Mg52 Mg60 3.013645 1_555
Mg52 Mg55 3.014764 1_555
Mg52 Mg7 3.226748 1_655
Mg52 Y18 3.433747 1_555
Mg52 Y10 3.488089 1_555
Mg52 Y15 3.488880 1_555
Mg52 Y2 3.515066 1_655
Mg53 Mg89 2.847396 1_555
Mg53 Mg58 3.041469 1_555
Mg53 Mg8 3.214862 1_655
Mg53 Y16 3.436460 1_555
Mg53 Y8 3.465012 1_555
Mg53 Y4 3.478133 1_555
Mg53 Y0 3.542101 1_655
Mg54 Mg90 2.843833 1_555
Mg54 Mg59 3.044022 1_555
Mg54 Mg9 3.222040 1_565
Mg54 Y17 3.435295 1_565
Mg54 Y9 3.468381 1_565
Mg54 Y5 3.473250 1_555
Mg54 Y1 3.544700 1_565
Mg55 Mg91 2.844700 1_555
Mg55 Mg60 3.041469 1_555
Mg55 Y18 3.433948 1_555
Mg55 Y10 3.468584 1_555
Mg55 Y6 3.475125 1_555
Mg55 Y2 3.545150 1_655
Mg56 Mg92 2.856957 1_555
Mg56 Mg57 3.045111 1_556
Mg56 Y11 3.460300 1_565
Mg56 Y7 3.465868 1_556
Mg56 Y3 3.558613 1_566
Mg57 Mg81 2.856957 1_555
Mg57 Y12 3.460300 1_565
Mg57 Y7 3.465868 1_555
Mg57 Y3 3.558613 1_565
Mg58 Mg82 2.844700 1_555
Mg58 Y16 3.433948 1_555
Mg58 Y13 3.468584 1_555
Mg58 Y4 3.475125 1_555
Mg58 Y0 3.545150 1_655
Mg59 Mg83 2.843833 1_555
Mg59 Mg6 3.222040 1_565
Mg59 Y17 3.435295 1_565
Mg59 Y14 3.468381 1_565
Mg59 Y5 3.473250 1_555
Mg59 Y1 3.544700 1_565
Mg60 Mg84 2.847396 1_555
Mg60 Mg7 3.214862 1_655
Mg60 Y18 3.436460 1_555
Mg60 Y15 3.465012 1_555
Mg60 Y6 3.478133 1_555
Mg60 Y2 3.542101 1_655
Mg61 Mg72 3.020983 1_454
Mg61 Mg65 3.020983 1_455
Mg61 Y12 3.488685 1_555
Mg61 Y11 3.488685 1_554
Mg61 Y7 3.525030 1_555
Mg62 Mg69 3.013645 1_555
Mg62 Mg66 3.014764 1_555
Mg62 Y16 3.433747 1_555
Mg62 Y13 3.488089 1_555
Mg62 Y8 3.488880 1_555
Mg62 Y4 3.515066 1_565
Mg63 Mg70 3.018064 1_455
Mg63 Mg67 3.018064 1_455
Mg63 Y17 3.437442 1_555
Mg63 Y14 3.494270 1_555
Mg63 Y9 3.494270 1_555
Mg63 Y5 3.508204 1_555
Mg64 Mg68 3.013645 1_555
Mg64 Mg71 3.014764 1_555
Mg64 Y18 3.433747 1_555
Mg64 Y10 3.488089 1_555
Mg64 Y15 3.488880 1_555
Mg64 Y6 3.515066 1_565
Mg65 Mg77 2.856957 1_555
Mg65 Mg72 3.045111 1_554
Mg65 Y12 3.460300 1_655
Mg65 Y3 3.465868 1_555
Mg65 Y7 3.558613 1_655
Mg66 Mg78 2.844700 1_555
Mg66 Mg69 3.041469 1_555
Mg66 Y16 3.433948 1_555
Mg66 Y13 3.468584 1_555
Mg66 Y0 3.475125 1_555
Mg66 Y4 3.545150 1_565
Mg67 Mg79 2.843833 1_555
Mg67 Mg70 3.044022 1_555
Mg67 Y17 3.435295 1_655
Mg67 Y14 3.468381 1_655
Mg67 Y1 3.473250 1_555
Mg67 Y5 3.544700 1_655
Mg68 Mg80 2.847396 1_555
Mg68 Mg71 3.041469 1_555
Mg68 Mg7 3.421907 1_555
Mg68 Y18 3.436460 1_555
Mg68 Y15 3.465012 1_555
Mg68 Y2 3.478133 1_555
Mg68 Y6 3.542101 1_565
Mg69 Mg93 2.847396 1_555
Mg69 Mg8 3.421907 1_555
Mg69 Y16 3.436460 1_555
Mg69 Y8 3.465012 1_555
Mg69 Y0 3.478133 1_555
Mg69 Y4 3.542101 1_565
Mg70 Mg94 2.843833 1_555
Mg70 Mg9 3.426489 1_555
Mg70 Y17 3.435295 1_655
Mg70 Y9 3.468381 1_655
Mg70 Y1 3.473250 1_555
Mg70 Y5 3.544700 1_655
Mg71 Mg95 2.844700 1_555
Mg71 Y18 3.433948 1_555
Mg71 Y10 3.468584 1_555
Mg71 Y2 3.475125 1_555
Mg71 Y6 3.545150 1_565
Mg72 Mg96 2.856957 1_555
Mg72 Y11 3.460300 1_655
Mg72 Y3 3.465868 1_556
Mg72 Y7 3.558613 1_656
Mg73 Mg88 2.854937 1_554
Mg73 Mg77 3.049645 1_565
Mg73 Mg81 3.049645 1_655
Mg73 Y3 3.465891 1_565
Mg73 Y7 3.465891 1_655
Mg73 Y8 3.590248 1_555
Mg74 Mg85 2.848919 1_555
Mg74 Mg82 3.037392 1_555
Mg74 Mg78 3.037392 1_555
Mg74 Y16 3.457835 1_555
Mg74 Y4 3.472292 1_555
Mg74 Y0 3.472292 1_555
Mg74 Y9 3.594132 1_555
Mg75 Mg86 2.853148 1_555
Mg75 Mg79 3.042210 1_565
Mg75 Mg83 3.042210 1_655
Mg75 Y17 3.466816 1_665
Mg75 Y1 3.480425 1_565
Mg75 Y5 3.480425 1_655
Mg75 Y10 3.591510 1_555
Mg76 Mg87 2.848919 1_555
Mg76 Mg84 3.042221 1_555
Mg76 Mg80 3.042221 1_555
Mg76 Y18 3.463913 1_555
Mg76 Y2 3.475457 1_555
Mg76 Y6 3.475457 1_555
Mg76 Y11 3.607314 1_555
Mg77 Mg81 3.023118 1_645
Mg77 Y12 3.465688 1_655
Mg77 Y3 3.492035 1_555
Mg77 Y8 3.550731 1_545
Mg78 Mg82 3.013436 1_555
Mg78 Y16 3.474016 1_555
Mg78 Y13 3.483769 1_555
Mg78 Y0 3.498017 1_555
Mg78 Y9 3.554352 1_555
Mg79 Mg83 3.013023 1_645
Mg79 Y17 3.474484 1_655
Mg79 Y14 3.476244 1_655
Mg79 Y1 3.500801 1_555
Mg79 Y10 3.551841 1_545
Mg80 Mg84 3.013515 1_555
Mg80 Y15 3.472788 1_555
Mg80 Y18 3.475052 1_555
Mg80 Y2 3.501120 1_555
Mg80 Y11 3.576906 1_555
Mg81 Y12 3.465688 1_565
Mg81 Y7 3.492035 1_555
Mg81 Y8 3.550731 1_455
Mg82 Mg9 2.951885 1_555
Mg82 Y16 3.474016 1_555
Mg82 Y13 3.483769 1_555
Mg82 Y4 3.498017 1_555
Mg82 Y9 3.554352 1_555
Mg83 Y17 3.474484 1_565
Mg83 Y14 3.476244 1_565
Mg83 Y5 3.500801 1_555
Mg83 Y10 3.551841 1_455
Mg84 Y15 3.472788 1_555
Mg84 Y18 3.475052 1_555
Mg84 Y6 3.501120 1_555
Mg84 Y11 3.576906 1_555
Mg85 Mg89 3.042221 1_555
Mg85 Mg93 3.042221 1_555
Mg85 Y16 3.463913 1_555
Mg85 Y0 3.475457 1_555
Mg85 Y4 3.475457 1_555
Mg85 Y12 3.607314 1_555
Mg86 Mg90 3.042210 1_655
Mg86 Mg94 3.042210 1_565
Mg86 Y17 3.466816 1_665
Mg86 Y1 3.480425 1_565
Mg86 Y5 3.480425 1_655
Mg86 Y13 3.591510 1_555
Mg87 Mg95 3.037392 1_555
Mg87 Mg91 3.037392 1_555
Mg87 Y18 3.457835 1_555
Mg87 Y2 3.472292 1_555
Mg87 Y6 3.472292 1_555
Mg87 Y14 3.594132 1_555
Mg88 Mg96 3.049645 1_565
Mg88 Mg92 3.049645 1_655
Mg88 Y7 3.465891 1_656
Mg88 Y3 3.465891 1_566
Mg88 Y15 3.590248 1_555
Mg89 Mg93 3.013515 1_555
Mg89 Y8 3.472788 1_555
Mg89 Y16 3.475052 1_555
Mg89 Y4 3.501120 1_555
Mg89 Y12 3.576906 1_555
Mg90 Mg94 3.013023 1_465
Mg90 Y17 3.474484 1_565
Mg90 Y9 3.476244 1_565
Mg90 Y5 3.500801 1_555
Mg90 Y13 3.551841 1_455
Mg91 Mg95 3.013436 1_555
Mg91 Y18 3.474016 1_555
Mg91 Y10 3.483769 1_555
Mg91 Y6 3.498017 1_555
Mg91 Y14 3.554352 1_555
Mg92 Mg96 3.023118 1_465
Mg92 Y11 3.465688 1_565
Mg92 Y7 3.492035 1_556
Mg92 Y15 3.550731 1_455
Mg93 Y8 3.472788 1_555
Mg93 Y16 3.475052 1_555
Mg93 Y0 3.501120 1_555
Mg93 Y12 3.576906 1_555
Mg94 Y17 3.474484 1_655
Mg94 Y9 3.476244 1_655
Mg94 Y1 3.500801 1_555
Mg94 Y13 3.551841 1_545
Mg95 Y18 3.474016 1_555
Mg95 Y10 3.483769 1_555
Mg95 Y2 3.498017 1_555
Mg95 Y14 3.554352 1_555
Mg96 Y11 3.465688 1_655
Mg96 Y3 3.492035 1_556
Mg96 Y15 3.550731 1_545
