# generated using pymatgen
data_LaAl5Ni2
_symmetry_space_group_name_H-M   'P 1'
_cell_length_a   6.29234453
_cell_length_b   6.29234453
_cell_length_c   6.29234453
_cell_angle_alpha   142.89086809
_cell_angle_beta   112.25327743
_cell_angle_gamma   79.85212236
_symmetry_Int_Tables_number   1
_chemical_formula_structural   LaAl5Ni2
_chemical_formula_sum   'La1 Al5 Ni2'
_cell_volume   135.53980299
_cell_formula_units_Z   1
loop_
 _symmetry_equiv_pos_site_id
 _symmetry_equiv_pos_as_xyz
  1  'x, y, z'
loop_
 _atom_site_type_symbol
 _atom_site_label
 _atom_site_symmetry_multiplicity
 _atom_site_fract_x
 _atom_site_fract_y
 _atom_site_fract_z
 _atom_site_occupancy
  La  La0  1  0.00000000  0.00000000  -0.00000000  1
  Al  Al0  1  0.50000000  0.00000000  0.50000000  1
  Al  Al1  1  0.84933681  0.66071770  0.18861911  1
  Al  Al2  1  0.52790141  0.33928230  0.18861911  1
  Al  Al3  1  0.47209859  0.66071770  0.81138089  1
  Al  Al4  1  0.15066319  0.33928230  0.81138089  1
  Ni  Ni0  1  0.73571632  0.23571632  0.50000000  1
  Ni  Ni1  1  0.26428368  0.76428368  0.50000000  1
loop_
_geom_bond_atom_site_label_1
_geom_bond_atom_site_label_2
_geom_bond_distance
_geom_bond_site_symmetry_2
La0 Ni1 3.242604 1_544
La0 Ni1 3.242604 1_555
La0 Ni0 3.242604 1_455
La0 Ni0 3.242604 1_444
Al0 Ni1 2.274866 1_545
Al0 Ni0 2.274866 1_555
Al0 La0 3.507096 1_555
Al0 La0 3.507096 1_656
Al1 Ni1 2.401922 1_655
Al1 Ni0 2.506659 1_554
Al1 Ni0 2.506659 1_565
Al1 La0 3.344417 1_655
Al1 La0 3.344417 1_666
Al1 La0 3.531548 1_665
Al2 Ni0 2.401922 1_555
Al2 Ni1 2.506659 1_544
Al2 Ni1 2.506659 1_555
Al2 La0 3.344417 1_655
Al2 La0 3.344417 1_666
Al2 La0 3.531548 1_555
Al3 Ni1 2.401922 1_555
Al3 Ni0 2.506659 1_566
Al3 Ni0 2.506659 1_555
Al3 La0 3.344417 1_555
Al3 La0 3.344417 1_566
Al3 La0 3.531548 1_666
Al4 Ni0 2.401922 1_455
Al4 Ni1 2.506659 1_556
Al4 Ni1 2.506659 1_545
Al4 La0 3.344417 1_566
Al4 La0 3.344417 1_555
Al4 La0 3.531548 1_556
