# generated using pymatgen
data_CsTa4P3S19
_symmetry_space_group_name_H-M   'P 1'
_cell_length_a   8.74631642
_cell_length_b   12.89346037
_cell_length_c   27.55663733
_cell_angle_alpha   90.00000000
_cell_angle_beta   90.00000000
_cell_angle_gamma   90.00000000
_symmetry_Int_Tables_number   1
_chemical_formula_structural   CsTa4P3S19
_chemical_formula_sum   'Cs4 Ta16 P12 S76'
_cell_volume   3107.56982178
_cell_formula_units_Z   4
loop_
 _symmetry_equiv_pos_site_id
 _symmetry_equiv_pos_as_xyz
  1  'x, y, z'
loop_
 _atom_site_type_symbol
 _atom_site_label
 _atom_site_symmetry_multiplicity
 _atom_site_fract_x
 _atom_site_fract_y
 _atom_site_fract_z
 _atom_site_occupancy
  Cs  Cs0  1  0.45702407  0.59823689  0.51939849  1
  Cs  Cs1  1  0.54297593  0.40176311  0.01939849  1
  Cs  Cs2  1  0.54297593  0.09823689  0.51939849  1
  Cs  Cs3  1  0.45702407  0.90176311  0.01939849  1
  Ta  Ta0  1  0.33161151  0.38183495  0.68785320  1
  Ta  Ta1  1  0.66838849  0.61816505  0.18785320  1
  Ta  Ta2  1  0.33109150  0.11680265  0.31298466  1
  Ta  Ta3  1  0.66890850  0.88319735  0.81298466  1
  Ta  Ta4  1  0.66890850  0.61680265  0.31298466  1
  Ta  Ta5  1  0.33109150  0.38319735  0.81298466  1
  Ta  Ta6  1  0.66838849  0.88183495  0.68785320  1
  Ta  Ta7  1  0.33161151  0.11816505  0.18785320  1
  Ta  Ta8  1  0.02577661  0.34179232  0.61226694  1
  Ta  Ta9  1  0.97422339  0.65820768  0.11226694  1
  Ta  Ta10  1  0.02542126  0.15923843  0.38782220  1
  Ta  Ta11  1  0.97457874  0.84076157  0.88782220  1
  Ta  Ta12  1  0.97457874  0.65923843  0.38782220  1
  Ta  Ta13  1  0.02542126  0.34076157  0.88782220  1
  Ta  Ta14  1  0.97422339  0.84179232  0.61226694  1
  Ta  Ta15  1  0.02577661  0.15820768  0.11226694  1
  P  P0  1  0.03473231  0.25037464  0.49954127  1
  P  P1  1  0.96526769  0.74962536  0.99954127  1
  P  P2  1  0.96526769  0.75037464  0.49954127  1
  P  P3  1  0.03473231  0.24962536  0.99954127  1
  P  P4  1  0.33040415  0.89698765  0.63894258  1
  P  P5  1  0.66959585  0.10301235  0.13894258  1
  P  P6  1  0.33123125  0.60305116  0.36101644  1
  P  P7  1  0.66876875  0.39694884  0.86101644  1
  P  P8  1  0.66876875  0.10305116  0.36101644  1
  P  P9  1  0.33123125  0.89694884  0.86101644  1
  P  P10  1  0.66959585  0.39698765  0.63894258  1
  P  P11  1  0.33040415  0.60301235  0.13894258  1
  S  S0  1  0.55469626  0.50307532  0.68115513  1
  S  S1  1  0.44530374  0.49692468  0.18115513  1
  S  S2  1  0.55522889  0.99706534  0.31846377  1
  S  S3  1  0.44477111  0.00293466  0.81846377  1
  S  S4  1  0.44477111  0.49706534  0.31846377  1
  S  S5  1  0.55522889  0.50293466  0.81846377  1
  S  S6  1  0.44530374  0.00307532  0.68115513  1
  S  S7  1  0.55469626  0.99692468  0.18115513  1
  S  S8  1  0.17141392  0.22978138  0.65770699  1
  S  S9  1  0.82858608  0.77021862  0.15770699  1
  S  S10  1  0.17183605  0.27020324  0.34220293  1
  S  S11  1  0.82816395  0.72979676  0.84220293  1
  S  S12  1  0.82816395  0.77020324  0.34220293  1
  S  S13  1  0.17183605  0.22979676  0.84220293  1
  S  S14  1  0.82858608  0.72978138  0.65770699  1
  S  S15  1  0.17141392  0.27021862  0.15770699  1
  S  S16  1  0.43823148  0.27586058  0.74995624  1
  S  S17  1  0.56176852  0.72413942  0.24995624  1
  S  S18  1  0.43823148  0.22413942  0.24995624  1
  S  S19  1  0.56176852  0.77586058  0.74995624  1
  S  S20  1  0.48537544  0.30274507  0.62113798  1
  S  S21  1  0.51462456  0.69725493  0.12113798  1
  S  S22  1  0.48568244  0.19781387  0.37885468  1
  S  S23  1  0.51431756  0.80218613  0.87885468  1
  S  S24  1  0.51431756  0.69781387  0.37885468  1
  S  S25  1  0.48568244  0.30218613  0.87885468  1
  S  S26  1  0.51462456  0.80274507  0.62113798  1
  S  S27  1  0.48537544  0.19725493  0.12113798  1
  S  S28  1  0.91384221  0.19788650  0.55850480  1
  S  S29  1  0.08615779  0.80211350  0.05850480  1
  S  S30  1  0.91136939  0.30217853  0.44150377  1
  S  S31  1  0.08863061  0.69782147  0.94150377  1
  S  S32  1  0.08863061  0.80217853  0.44150377  1
  S  S33  1  0.91136939  0.19782147  0.94150377  1
  S  S34  1  0.08615779  0.69788650  0.55850480  1
  S  S35  1  0.91384221  0.30211350  0.05850480  1
  S  S36  1  0.17176915  0.80630022  0.67455844  1
  S  S37  1  0.82823085  0.19369978  0.17455844  1
  S  S38  1  0.17149217  0.69332378  0.32544594  1
  S  S39  1  0.82850783  0.30667622  0.82544594  1
  S  S40  1  0.82850783  0.19332378  0.32544594  1
  S  S41  1  0.17149217  0.80667622  0.82544594  1
  S  S42  1  0.82823085  0.30630022  0.67455844  1
  S  S43  1  0.17176915  0.69369978  0.17455844  1
  S  S44  1  0.15756444  0.36848197  0.53194559  1
  S  S45  1  0.84243556  0.63151803  0.03194559  1
  S  S46  1  0.15660452  0.13067333  0.46837287  1
  S  S47  1  0.84339548  0.86932667  0.96837287  1
  S  S48  1  0.84339548  0.63067333  0.46837287  1
  S  S49  1  0.15660452  0.36932667  0.96837287  1
  S  S50  1  0.84243556  0.86848197  0.53194559  1
  S  S51  1  0.15756444  0.13151803  0.03194559  1
  S  S52  1  0.11586199  0.40903062  0.75005083  1
  S  S53  1  0.88413801  0.59096938  0.25005083  1
  S  S54  1  0.11586199  0.09096938  0.25005083  1
  S  S55  1  0.88413801  0.90903062  0.75005083  1
  S  S56  1  0.27601345  0.52426034  0.74993248  1
  S  S57  1  0.72398655  0.47573966  0.24993248  1
  S  S58  1  0.27601345  0.97573966  0.24993248  1
  S  S59  1  0.72398655  0.02426034  0.74993248  1
  S  S60  1  0.20677054  0.96206555  0.58483486  1
  S  S61  1  0.79322946  0.03793445  0.08483486  1
  S  S62  1  0.20609431  0.53782901  0.41498892  1
  S  S63  1  0.79390569  0.46217099  0.91498892  1
  S  S64  1  0.79390569  0.03782901  0.41498892  1
  S  S65  1  0.20609431  0.96217099  0.91498892  1
  S  S66  1  0.79322946  0.46206555  0.58483486  1
  S  S67  1  0.20677054  0.53793445  0.08483486  1
  S  S68  1  0.16335849  0.48974524  0.63450209  1
  S  S69  1  0.83664151  0.51025476  0.13450209  1
  S  S70  1  0.16272691  0.01072732  0.36525591  1
  S  S71  1  0.83727309  0.98927268  0.86525591  1
  S  S72  1  0.83727309  0.51072732  0.36525591  1
  S  S73  1  0.16272691  0.48927268  0.86525591  1
  S  S74  1  0.83664151  0.98974524  0.63450209  1
  S  S75  1  0.16335849  0.01025476  0.13450209  1
loop_
_geom_bond_atom_site_label_1
_geom_bond_atom_site_label_2
_geom_bond_distance
_geom_bond_site_symmetry_2
Cs0 S34 3.651543 1_555
Cs0 S48 3.684000 1_555
Cs0 S62 3.701559 1_555
Cs0 S66 3.870528 1_555
Cs0 S26 3.881595 1_555
Cs0 S44 3.969260 1_555
Cs0 S24 4.110834 1_555
Cs1 S35 3.651543 1_555
Cs1 S49 3.684000 1_554
Cs1 S63 3.701559 1_554
Cs1 S67 3.870528 1_555
Cs1 S27 3.881595 1_555
Cs1 S45 3.969260 1_555
Cs1 S25 4.110834 1_554
Cs2 S28 3.651543 1_555
Cs2 S46 3.684000 1_555
Cs2 S64 3.701559 1_555
Cs2 S60 3.870528 1_545
Cs2 S20 3.881595 1_555
Cs2 S50 3.969260 1_545
Cs2 S22 4.110834 1_555
Cs3 S29 3.651543 1_555
Cs3 S47 3.684000 1_554
Cs3 S65 3.701559 1_554
Cs3 S61 3.870528 1_565
Cs3 S21 3.881595 1_555
Cs3 S51 3.969260 1_565
Cs3 S23 4.110834 1_554
P0 S30 2.041600 1_455
P0 S28 2.053306 1_455
P0 S46 2.062981 1_555
P0 S44 2.066520 1_555
P1 S31 2.041600 1_655
P1 S29 2.053306 1_656
P1 S47 2.062981 1_555
P1 S45 2.066520 1_556
P2 S32 2.041600 1_655
P2 S34 2.053306 1_655
P2 S48 2.062981 1_555
P2 S50 2.066520 1_555
P3 S33 2.041600 1_455
P3 S35 2.053306 1_456
P3 S49 2.062981 1_555
P3 S51 2.066520 1_556
P4 S60 2.023983 1_555
P4 S6 2.057673 1_565
P4 S36 2.062894 1_555
P4 S26 2.076860 1_555
P5 S61 2.023983 1_555
P5 S7 2.057673 1_545
P5 S37 2.062894 1_555
P5 S27 2.076860 1_555
P6 S62 2.029074 1_555
P6 S4 2.056346 1_555
P6 S38 2.065791 1_555
P6 S24 2.073339 1_555
P7 S63 2.029074 1_555
P7 S5 2.056346 1_555
P7 S39 2.065791 1_555
P7 S25 2.073339 1_555
P8 S64 2.029074 1_555
P8 S2 2.056346 1_545
P8 S40 2.065791 1_555
P8 S22 2.073339 1_555
P9 S65 2.029074 1_555
P9 S3 2.056346 1_565
P9 S41 2.065791 1_555
P9 S23 2.073339 1_555
P10 S66 2.023983 1_555
P10 S0 2.057673 1_555
P10 S42 2.062894 1_555
P10 S20 2.076860 1_555
P11 S67 2.023983 1_555
P11 S1 2.057673 1_555
P11 S43 2.062894 1_555
P11 S21 2.076860 1_555
S0 Ta0 2.506941 1_555
S1 Ta1 2.506941 1_555
S2 Ta2 2.499856 1_565
S3 Ta3 2.499856 1_545
S4 Ta4 2.499856 1_555
S5 Ta5 2.499856 1_555
S6 Ta6 2.506941 1_545
S7 Ta7 2.506941 1_565
S8 Ta8 2.297003 1_555
S8 Ta0 2.548891 1_555
S9 Ta9 2.297003 1_555
S9 Ta1 2.548891 1_555
S10 Ta10 2.295040 1_555
S10 Ta2 2.549587 1_555
S11 Ta11 2.295040 1_555
S11 Ta3 2.549587 1_555
S12 Ta12 2.295040 1_555
S12 Ta4 2.549587 1_555
S13 Ta13 2.295040 1_555
S13 Ta5 2.549587 1_555
S14 Ta14 2.297003 1_555
S14 Ta6 2.548891 1_555
S15 Ta15 2.297003 1_555
S15 Ta7 2.548891 1_555
S16 Ta0 2.380194 1_555
S16 Ta5 2.410408 1_555
S17 Ta1 2.380194 1_555
S17 Ta4 2.410408 1_555
S18 Ta7 2.380194 1_555
S18 Ta2 2.410408 1_555
S19 Ta6 2.380194 1_555
S19 Ta3 2.410408 1_555
S20 Ta0 2.495683 1_555
S21 Ta1 2.495683 1_555
S22 Ta2 2.492786 1_555
S23 Ta3 2.492786 1_555
S24 Ta4 2.492786 1_555
S25 Ta5 2.492786 1_555
S26 Ta6 2.495683 1_555
S27 Ta7 2.495683 1_555
S28 Ta8 2.568267 1_655
S29 Ta9 2.568267 1_455
S30 Ta10 2.565146 1_655
S31 Ta11 2.565146 1_455
S32 Ta12 2.565146 1_455
S33 Ta13 2.565146 1_655
S34 Ta14 2.568267 1_455
S35 Ta15 2.568267 1_655
S36 Ta14 2.478149 1_455
S37 Ta15 2.478149 1_655
S38 Ta12 2.472629 1_455
S39 Ta13 2.472629 1_655
S40 Ta10 2.472629 1_655
S41 Ta11 2.472629 1_455
S42 Ta8 2.478149 1_655
S43 Ta9 2.478149 1_455
S44 Ta8 2.519151 1_555
S45 Ta9 2.519151 1_555
S46 Ta10 2.525708 1_555
S47 Ta11 2.525708 1_555
S48 Ta12 2.525708 1_555
S49 Ta13 2.525708 1_555
S50 Ta14 2.519151 1_555
S51 Ta15 2.519151 1_555
S52 S56 2.041912 1_555
S52 Ta0 2.573213 1_555
S52 Ta5 2.581128 1_555
S53 S57 2.041912 1_555
S53 Ta1 2.573213 1_555
S53 Ta4 2.581128 1_555
S54 S58 2.041912 1_545
S54 Ta7 2.573213 1_555
S54 Ta2 2.581128 1_555
S55 S59 2.041912 1_565
S55 Ta6 2.573213 1_555
S55 Ta3 2.581128 1_555
S56 Ta0 2.556394 1_555
S56 Ta5 2.561052 1_555
S57 Ta1 2.556394 1_555
S57 Ta4 2.561052 1_555
S58 Ta7 2.556394 1_565
S58 Ta2 2.561052 1_565
S59 Ta6 2.556394 1_545
S59 Ta3 2.561052 1_545
S60 Ta14 2.667040 1_455
S61 Ta15 2.667040 1_655
S62 Ta12 2.666670 1_455
S63 Ta13 2.666670 1_655
S64 Ta10 2.666670 1_655
S65 Ta11 2.666670 1_455
S66 Ta8 2.667040 1_655
S67 Ta9 2.667040 1_455
S68 Ta8 2.337195 1_555
S68 Ta0 2.502565 1_555
S69 Ta9 2.337195 1_555
S69 Ta1 2.502565 1_555
S70 Ta10 2.344237 1_555
S70 Ta2 2.472613 1_555
S71 Ta11 2.344237 1_555
S71 Ta3 2.472613 1_555
S72 Ta12 2.344237 1_555
S72 Ta4 2.472613 1_555
S73 Ta13 2.344237 1_555
S73 Ta5 2.472613 1_555
S74 Ta14 2.337195 1_555
S74 Ta6 2.502565 1_555
S75 Ta15 2.337195 1_555
S75 Ta7 2.502565 1_555
