# generated using pymatgen
data_Mg2Ag
_symmetry_space_group_name_H-M   'P 1'
_cell_length_a   6.47753200
_cell_length_b   11.13116600
_cell_length_c   14.69776914
_cell_angle_alpha   71.87368606
_cell_angle_beta   90.00000000
_cell_angle_gamma   106.91566421
_symmetry_Int_Tables_number   1
_chemical_formula_structural   Mg2Ag
_chemical_formula_sum   'Mg32 Ag16'
_cell_volume   958.79098839
_cell_formula_units_Z   16
loop_
 _symmetry_equiv_pos_site_id
 _symmetry_equiv_pos_as_xyz
  1  'x, y, z'
loop_
 _atom_site_type_symbol
 _atom_site_label
 _atom_site_symmetry_multiplicity
 _atom_site_fract_x
 _atom_site_fract_y
 _atom_site_fract_z
 _atom_site_occupancy
  Mg  Mg0_0  1  0.16858750  0.33717400  0.15819200  1
  Mg  Mg0_1  1  0.16858750  0.33717400  0.65819200  1
  Mg  Mg0_2  1  0.16858750  0.83717400  0.15819200  1
  Mg  Mg0_3  1  0.16858750  0.83717400  0.65819200  1
  Mg  Mg0_4  1  0.66858750  0.33717400  0.15819200  1
  Mg  Mg0_5  1  0.66858750  0.33717400  0.65819200  1
  Mg  Mg0_6  1  0.66858750  0.83717400  0.15819200  1
  Mg  Mg0_7  1  0.66858750  0.83717400  0.65819200  1
  Mg  Mg1_0  1  0.02585700  0.05171400  0.20291850  1
  Mg  Mg1_1  1  0.02585700  0.05171400  0.70291850  1
  Mg  Mg1_2  1  0.02585700  0.55171400  0.20291850  1
  Mg  Mg1_3  1  0.02585700  0.55171400  0.70291850  1
  Mg  Mg1_4  1  0.52585700  0.05171400  0.20291850  1
  Mg  Mg1_5  1  0.52585700  0.05171400  0.70291850  1
  Mg  Mg1_6  1  0.52585700  0.55171400  0.20291850  1
  Mg  Mg1_7  1  0.52585700  0.55171400  0.70291850  1
  Mg  Mg2_0  1  0.17919400  0.35838750  0.37705750  1
  Mg  Mg2_1  1  0.17919400  0.35838750  0.87705750  1
  Mg  Mg2_2  1  0.17919400  0.85838750  0.37705750  1
  Mg  Mg2_3  1  0.17919400  0.85838750  0.87705750  1
  Mg  Mg2_4  1  0.67919400  0.35838750  0.37705750  1
  Mg  Mg2_5  1  0.67919400  0.35838750  0.87705750  1
  Mg  Mg2_6  1  0.67919400  0.85838750  0.37705750  1
  Mg  Mg2_7  1  0.67919400  0.85838750  0.87705750  1
  Mg  Mg3_0  1  0.01525100  0.03050200  0.48405300  1
  Mg  Mg3_1  1  0.01525100  0.03050200  0.98405300  1
  Mg  Mg3_2  1  0.01525100  0.53050200  0.48405300  1
  Mg  Mg3_3  1  0.01525100  0.53050200  0.98405300  1
  Mg  Mg3_4  1  0.51525100  0.03050200  0.48405300  1
  Mg  Mg3_5  1  0.51525100  0.03050200  0.98405300  1
  Mg  Mg3_6  1  0.51525100  0.53050200  0.48405300  1
  Mg  Mg3_7  1  0.51525100  0.53050200  0.98405300  1
  Ag  Ag0_0  1  0.36065600  0.22131200  0.04029300  1
  Ag  Ag0_1  1  0.36065600  0.22131200  0.54029300  1
  Ag  Ag0_2  1  0.36065600  0.72131200  0.04029300  1
  Ag  Ag0_3  1  0.36065600  0.72131200  0.54029300  1
  Ag  Ag0_4  1  0.86065600  0.22131200  0.04029300  1
  Ag  Ag0_5  1  0.86065600  0.22131200  0.54029300  1
  Ag  Ag0_6  1  0.86065600  0.72131200  0.04029300  1
  Ag  Ag0_7  1  0.86065600  0.72131200  0.54029300  1
  Ag  Ag1_0  1  0.33378750  0.16757700  0.32081800  1
  Ag  Ag1_1  1  0.33378750  0.16757700  0.82081800  1
  Ag  Ag1_2  1  0.33378750  0.66757700  0.32081800  1
  Ag  Ag1_3  1  0.33378750  0.66757700  0.82081800  1
  Ag  Ag1_4  1  0.83378750  0.16757700  0.32081800  1
  Ag  Ag1_5  1  0.83378750  0.16757700  0.82081800  1
  Ag  Ag1_6  1  0.83378750  0.66757700  0.32081800  1
  Ag  Ag1_7  1  0.83378750  0.66757700  0.82081800  1
loop_
_geom_bond_atom_site_label_1
_geom_bond_atom_site_label_2
_geom_bond_distance
_geom_bond_site_symmetry_2
Mg0_0 Mg1_0 2.893817 1_555
Mg0_0 Mg1_6 3.041624 1_555
Mg0_0 Mg1_2 3.041627 1_555
Mg0_0 Mg3_7 3.159900 1_554
Mg0_0 Mg3_3 3.159903 1_554
Mg0_0 Mg0_4 3.238766 1_455
Mg0_0 Mg0_4 3.238766 1_555
Mg0_0 Mg2_0 3.297226 1_555
Mg0_1 Mg1_1 2.893817 1_555
Mg0_1 Mg1_7 3.041624 1_555
Mg0_1 Mg1_3 3.041627 1_555
Mg0_1 Mg3_6 3.159900 1_555
Mg0_1 Mg3_2 3.159903 1_555
Mg0_1 Mg0_5 3.238766 1_455
Mg0_1 Mg0_5 3.238766 1_555
Mg0_1 Mg2_1 3.297226 1_555
Mg0_2 Mg1_2 2.893817 1_555
Mg0_2 Mg1_4 3.041624 1_565
Mg0_2 Mg1_0 3.041627 1_565
Mg0_2 Mg3_5 3.159900 1_564
Mg0_2 Mg3_1 3.159903 1_564
Mg0_2 Mg0_6 3.238766 1_455
Mg0_2 Mg0_6 3.238766 1_555
Mg0_2 Mg2_2 3.297226 1_555
Mg0_3 Mg1_3 2.893817 1_555
Mg0_3 Mg1_5 3.041624 1_565
Mg0_3 Mg1_1 3.041627 1_565
Mg0_3 Mg3_4 3.159900 1_565
Mg0_3 Mg3_0 3.159903 1_565
Mg0_3 Mg0_7 3.238766 1_455
Mg0_3 Mg0_7 3.238766 1_555
Mg0_3 Mg2_3 3.297226 1_555
Mg0_4 Mg1_4 2.893817 1_555
Mg0_4 Mg1_2 3.041624 1_655
Mg0_4 Mg1_6 3.041627 1_555
Mg0_4 Mg3_3 3.159900 1_654
Mg0_4 Mg3_7 3.159903 1_554
Mg0_4 Mg2_4 3.297226 1_555
Mg0_5 Mg1_5 2.893817 1_555
Mg0_5 Mg1_3 3.041624 1_655
Mg0_5 Mg1_7 3.041627 1_555
Mg0_5 Mg3_2 3.159900 1_655
Mg0_5 Mg3_6 3.159903 1_555
Mg0_5 Mg2_5 3.297226 1_555
Mg0_6 Mg1_6 2.893817 1_555
Mg0_6 Mg1_0 3.041624 1_665
Mg0_6 Mg1_4 3.041627 1_565
Mg0_6 Mg3_1 3.159900 1_664
Mg0_6 Mg3_5 3.159903 1_564
Mg0_6 Mg2_6 3.297226 1_555
Mg0_7 Mg1_7 2.893817 1_555
Mg0_7 Mg1_1 3.041624 1_665
Mg0_7 Mg1_5 3.041627 1_565
Mg0_7 Mg3_0 3.159900 1_665
Mg0_7 Mg3_4 3.159903 1_565
Mg0_7 Mg2_7 3.297226 1_555
Mg1_0 Mg2_6 3.159895 1_445
Mg1_0 Mg2_2 3.159896 1_545
Mg1_0 Mg1_4 3.238766 1_555
Mg1_0 Mg1_4 3.238766 1_455
Mg1_0 Mg3_1 3.297220 1_554
Mg1_1 Mg2_7 3.159895 1_445
Mg1_1 Mg2_3 3.159896 1_545
Mg1_1 Mg1_5 3.238766 1_555
Mg1_1 Mg1_5 3.238766 1_455
Mg1_1 Mg3_0 3.297220 1_555
Mg1_2 Mg2_4 3.159895 1_455
Mg1_2 Mg2_0 3.159896 1_555
Mg1_2 Mg1_6 3.238766 1_555
Mg1_2 Mg1_6 3.238766 1_455
Mg1_2 Mg3_3 3.297220 1_554
Mg1_3 Mg2_5 3.159895 1_455
Mg1_3 Mg2_1 3.159896 1_555
Mg1_3 Mg1_7 3.238766 1_455
Mg1_3 Mg1_7 3.238766 1_555
Mg1_3 Mg3_2 3.297220 1_555
Mg1_4 Mg2_2 3.159895 1_545
Mg1_4 Mg2_6 3.159896 1_545
Mg1_4 Mg3_5 3.297220 1_554
Mg1_5 Mg2_3 3.159895 1_545
Mg1_5 Mg2_7 3.159896 1_545
Mg1_5 Mg3_4 3.297220 1_555
Mg1_6 Mg2_0 3.159895 1_555
Mg1_6 Mg2_4 3.159896 1_555
Mg1_6 Mg3_7 3.297220 1_554
Mg1_7 Mg2_1 3.159895 1_555
Mg1_7 Mg2_5 3.159896 1_555
Mg1_7 Mg3_6 3.297220 1_555
Mg2_0 Mg3_6 3.214001 1_555
Mg2_0 Mg3_2 3.214002 1_555
Mg2_0 Mg2_4 3.238766 1_455
Mg2_0 Mg2_4 3.238766 1_555
Mg2_0 Mg3_0 3.330867 1_555
Mg2_1 Mg3_7 3.214001 1_555
Mg2_1 Mg3_3 3.214002 1_555
Mg2_1 Mg2_5 3.238766 1_455
Mg2_1 Mg2_5 3.238766 1_555
Mg2_1 Mg3_1 3.330867 1_555
Mg2_2 Mg3_4 3.214001 1_565
Mg2_2 Mg3_0 3.214002 1_565
Mg2_2 Mg2_6 3.238766 1_455
Mg2_2 Mg2_6 3.238766 1_555
Mg2_2 Mg3_2 3.330867 1_555
Mg2_3 Mg3_5 3.214001 1_565
Mg2_3 Mg3_1 3.214002 1_565
Mg2_3 Mg2_7 3.238766 1_455
Mg2_3 Mg2_7 3.238766 1_555
Mg2_3 Mg3_3 3.330867 1_555
Mg2_4 Mg3_2 3.214001 1_655
Mg2_4 Mg3_6 3.214002 1_555
Mg2_4 Mg3_4 3.330867 1_555
Mg2_5 Mg3_3 3.214001 1_655
Mg2_5 Mg3_7 3.214002 1_555
Mg2_5 Mg3_5 3.330867 1_555
Mg2_6 Mg3_0 3.214001 1_665
Mg2_6 Mg3_4 3.214002 1_565
Mg2_6 Mg3_6 3.330867 1_555
Mg2_7 Mg3_1 3.214001 1_665
Mg2_7 Mg3_5 3.214002 1_565
Mg2_7 Mg3_7 3.330867 1_555
Mg3_0 Mg3_4 3.238766 1_555
Mg3_0 Mg3_4 3.238766 1_455
Mg3_1 Mg3_5 3.238766 1_455
Mg3_1 Mg3_5 3.238766 1_555
Mg3_2 Mg3_6 3.238766 1_555
Mg3_2 Mg3_6 3.238766 1_455
Mg3_3 Mg3_7 3.238766 1_555
Mg3_3 Mg3_7 3.238766 1_455
Ag0_0 Mg2_1 2.869103 1_554
Ag0_0 Mg2_5 2.869105 1_554
Ag0_0 Mg3_5 2.920152 1_554
Ag0_0 Mg3_1 2.920152 1_554
Ag0_0 Mg0_0 2.922019 1_555
Ag0_0 Mg0_4 2.922022 1_555
Ag0_0 Mg1_4 2.964807 1_555
Ag0_0 Mg1_0 2.964807 1_555
Ag0_0 Mg3_7 3.123340 1_554
Ag0_0 Ag0_4 3.238766 1_455
Ag0_0 Ag0_4 3.238766 1_555
Ag0_0 Ag1_1 3.454529 1_554
Ag0_1 Mg2_0 2.869103 1_555
Ag0_1 Mg2_4 2.869105 1_555
Ag0_1 Mg3_4 2.920152 1_555
Ag0_1 Mg3_0 2.920152 1_555
Ag0_1 Mg0_1 2.922019 1_555
Ag0_1 Mg0_5 2.922022 1_555
Ag0_1 Mg1_5 2.964807 1_555
Ag0_1 Mg1_1 2.964807 1_555
Ag0_1 Mg3_6 3.123340 1_555
Ag0_1 Ag0_5 3.238766 1_455
Ag0_1 Ag0_5 3.238766 1_555
Ag0_1 Ag1_0 3.454529 1_555
Ag0_2 Mg2_3 2.869103 1_554
Ag0_2 Mg2_7 2.869105 1_554
Ag0_2 Mg3_7 2.920152 1_554
Ag0_2 Mg3_3 2.920152 1_554
Ag0_2 Mg0_2 2.922019 1_555
Ag0_2 Mg0_6 2.922022 1_555
Ag0_2 Mg1_6 2.964807 1_555
Ag0_2 Mg1_2 2.964807 1_555
Ag0_2 Mg3_5 3.123340 1_564
Ag0_2 Ag0_6 3.238766 1_455
Ag0_2 Ag0_6 3.238766 1_555
Ag0_2 Ag1_3 3.454529 1_554
Ag0_3 Mg2_2 2.869103 1_555
Ag0_3 Mg2_6 2.869105 1_555
Ag0_3 Mg3_6 2.920152 1_555
Ag0_3 Mg3_2 2.920152 1_555
Ag0_3 Mg0_3 2.922019 1_555
Ag0_3 Mg0_7 2.922022 1_555
Ag0_3 Mg1_7 2.964807 1_555
Ag0_3 Mg1_3 2.964807 1_555
Ag0_3 Mg3_4 3.123340 1_565
Ag0_3 Ag0_7 3.238766 1_455
Ag0_3 Ag0_7 3.238766 1_555
Ag0_3 Ag1_2 3.454529 1_555
Ag0_4 Mg2_5 2.869103 1_554
Ag0_4 Mg2_1 2.869105 1_654
Ag0_4 Mg3_1 2.920152 1_654
Ag0_4 Mg3_5 2.920152 1_554
Ag0_4 Mg0_4 2.922019 1_555
Ag0_4 Mg0_0 2.922022 1_655
Ag0_4 Mg1_0 2.964807 1_655
Ag0_4 Mg1_4 2.964807 1_555
Ag0_4 Mg3_3 3.123340 1_654
Ag0_4 Ag1_5 3.454529 1_554
Ag0_5 Mg2_4 2.869103 1_555
Ag0_5 Mg2_0 2.869105 1_655
Ag0_5 Mg3_0 2.920152 1_655
Ag0_5 Mg3_4 2.920152 1_555
Ag0_5 Mg0_5 2.922019 1_555
Ag0_5 Mg0_1 2.922022 1_655
Ag0_5 Mg1_1 2.964807 1_655
Ag0_5 Mg1_5 2.964807 1_555
Ag0_5 Mg3_2 3.123340 1_655
Ag0_5 Ag1_4 3.454529 1_555
Ag0_6 Mg2_7 2.869103 1_554
Ag0_6 Mg2_3 2.869105 1_654
Ag0_6 Mg3_3 2.920152 1_654
Ag0_6 Mg3_7 2.920152 1_554
Ag0_6 Mg0_6 2.922019 1_555
Ag0_6 Mg0_2 2.922022 1_655
Ag0_6 Mg1_2 2.964807 1_655
Ag0_6 Mg1_6 2.964807 1_555
Ag0_6 Mg3_1 3.123340 1_664
Ag0_6 Ag1_7 3.454529 1_554
Ag0_7 Mg2_6 2.869103 1_555
Ag0_7 Mg2_2 2.869105 1_655
Ag0_7 Mg3_2 2.920152 1_655
Ag0_7 Mg3_6 2.920152 1_555
Ag0_7 Mg0_7 2.922019 1_555
Ag0_7 Mg0_3 2.922022 1_655
Ag0_7 Mg1_3 2.964807 1_655
Ag0_7 Mg1_7 2.964807 1_555
Ag0_7 Mg3_0 3.123340 1_665
Ag0_7 Ag1_6 3.454529 1_555
Ag1_0 Mg3_0 2.869094 1_555
Ag1_0 Mg3_4 2.869101 1_555
Ag1_0 Mg2_0 2.920148 1_555
Ag1_0 Mg2_4 2.920157 1_555
Ag1_0 Mg1_0 2.922029 1_555
Ag1_0 Mg1_4 2.922036 1_555
Ag1_0 Mg0_0 2.964802 1_555
Ag1_0 Mg0_4 2.964813 1_555
Ag1_0 Mg2_2 3.123335 1_545
Ag1_0 Ag1_4 3.238766 1_455
Ag1_0 Ag1_4 3.238766 1_555
Ag1_1 Mg3_1 2.869094 1_555
Ag1_1 Mg3_5 2.869101 1_555
Ag1_1 Mg2_1 2.920148 1_555
Ag1_1 Mg2_5 2.920157 1_555
Ag1_1 Mg1_1 2.922029 1_555
Ag1_1 Mg1_5 2.922036 1_555
Ag1_1 Mg0_1 2.964802 1_555
Ag1_1 Mg0_5 2.964813 1_555
Ag1_1 Mg2_3 3.123335 1_545
Ag1_1 Ag1_5 3.238766 1_455
Ag1_1 Ag1_5 3.238766 1_555
Ag1_2 Mg3_2 2.869094 1_555
Ag1_2 Mg3_6 2.869101 1_555
Ag1_2 Mg2_2 2.920148 1_555
Ag1_2 Mg2_6 2.920157 1_555
Ag1_2 Mg1_2 2.922029 1_555
Ag1_2 Mg1_6 2.922036 1_555
Ag1_2 Mg0_2 2.964802 1_555
Ag1_2 Mg0_6 2.964813 1_555
Ag1_2 Mg2_0 3.123335 1_555
Ag1_2 Ag1_6 3.238766 1_555
Ag1_2 Ag1_6 3.238766 1_455
Ag1_3 Mg3_3 2.869094 1_555
Ag1_3 Mg3_7 2.869101 1_555
Ag1_3 Mg2_3 2.920148 1_555
Ag1_3 Mg2_7 2.920157 1_555
Ag1_3 Mg1_3 2.922029 1_555
Ag1_3 Mg1_7 2.922036 1_555
Ag1_3 Mg0_3 2.964802 1_555
Ag1_3 Mg0_7 2.964813 1_555
Ag1_3 Mg2_1 3.123335 1_555
Ag1_3 Ag1_7 3.238766 1_455
Ag1_3 Ag1_7 3.238766 1_555
Ag1_4 Mg3_4 2.869094 1_555
Ag1_4 Mg3_0 2.869101 1_655
Ag1_4 Mg2_4 2.920148 1_555
Ag1_4 Mg2_0 2.920157 1_655
Ag1_4 Mg1_4 2.922029 1_555
Ag1_4 Mg1_0 2.922036 1_655
Ag1_4 Mg0_4 2.964802 1_555
Ag1_4 Mg0_0 2.964813 1_655
Ag1_4 Mg2_6 3.123335 1_545
Ag1_5 Mg3_5 2.869094 1_555
Ag1_5 Mg3_1 2.869101 1_655
Ag1_5 Mg2_5 2.920148 1_555
Ag1_5 Mg2_1 2.920157 1_655
Ag1_5 Mg1_5 2.922029 1_555
Ag1_5 Mg1_1 2.922036 1_655
Ag1_5 Mg0_5 2.964802 1_555
Ag1_5 Mg0_1 2.964813 1_655
Ag1_5 Mg2_7 3.123335 1_545
Ag1_6 Mg3_6 2.869094 1_555
Ag1_6 Mg3_2 2.869101 1_655
Ag1_6 Mg2_6 2.920148 1_555
Ag1_6 Mg2_2 2.920157 1_655
Ag1_6 Mg1_6 2.922029 1_555
Ag1_6 Mg1_2 2.922036 1_655
Ag1_6 Mg0_6 2.964802 1_555
Ag1_6 Mg0_2 2.964813 1_655
Ag1_6 Mg2_4 3.123335 1_555
Ag1_7 Mg3_7 2.869094 1_555
Ag1_7 Mg3_3 2.869101 1_655
Ag1_7 Mg2_7 2.920148 1_555
Ag1_7 Mg2_3 2.920157 1_655
Ag1_7 Mg1_7 2.922029 1_555
Ag1_7 Mg1_3 2.922036 1_655
Ag1_7 Mg0_7 2.964802 1_555
Ag1_7 Mg0_3 2.964813 1_655
Ag1_7 Mg2_5 3.123335 1_555
