# generated using pymatgen
data_FeBiS2Br
_symmetry_space_group_name_H-M   'P 1'
_cell_length_a   6.44189911
_cell_length_b   6.44189911
_cell_length_c   8.88020633
_cell_angle_alpha   87.84426339
_cell_angle_beta   87.84426339
_cell_angle_gamma   33.61332923
_symmetry_Int_Tables_number   1
_chemical_formula_structural   FeBiS2Br
_chemical_formula_sum   'Fe2 Bi2 S4 Br2'
_cell_volume   203.84492541
_cell_formula_units_Z   2
loop_
 _symmetry_equiv_pos_site_id
 _symmetry_equiv_pos_as_xyz
  1  'x, y, z'
loop_
 _atom_site_type_symbol
 _atom_site_label
 _atom_site_symmetry_multiplicity
 _atom_site_fract_x
 _atom_site_fract_y
 _atom_site_fract_z
 _atom_site_occupancy
  Fe  Fe0  1  0.00000000  0.00000000  0.00000000  1
  Fe  Fe1  1  0.00000000  0.00000000  0.50000000  1
  Bi  Bi0  1  0.28254200  0.28254200  0.78720600  1
  Bi  Bi1  1  0.71745800  0.71745800  0.21279400  1
  S  S0  1  0.61609100  0.61609100  0.95624000  1
  S  S1  1  0.38390900  0.38390900  0.04376000  1
  S  S2  1  0.06064300  0.06064300  0.24892500  1
  S  S3  1  0.93935700  0.93935700  0.75107500  1
  Br  Br0  1  0.37576700  0.37576700  0.45097100  1
  Br  Br1  1  0.62423300  0.62423300  0.54902900  1
loop_
_geom_bond_atom_site_label_1
_geom_bond_atom_site_label_2
_geom_bond_distance
_geom_bond_site_symmetry_2
Fe0 S3 2.361288 1_444
Fe0 S2 2.361288 1_555
Fe0 S1 2.372076 1_545
Fe0 S1 2.372076 1_455
Fe0 S0 2.372076 1_544
Fe0 S0 2.372076 1_454
Fe1 S2 2.323675 1_555
Fe1 S3 2.323675 1_445
Bi0 S1 2.641457 1_556
Bi0 S3 2.695221 1_545
Bi0 S3 2.695221 1_455
Bi0 S0 3.113659 1_545
Bi0 S0 3.113659 1_455
Bi0 Br0 3.157124 1_555
Bi1 S0 2.641457 1_554
Bi1 S2 2.695221 1_565
Bi1 S2 2.695221 1_655
Bi1 S1 3.113659 1_565
Bi1 S1 3.113659 1_655
Bi1 Br1 3.157124 1_555
Br0 Fe1 2.461523 1_565
Br0 Fe1 2.461523 1_655
Br1 Fe1 2.461523 1_565
Br1 Fe1 2.461523 1_655
