# generated using pymatgen
data_CaTaAlO5
_symmetry_space_group_name_H-M   'P 1'
_cell_length_a   5.64190458
_cell_length_b   5.64190458
_cell_length_c   7.45987922
_cell_angle_alpha   75.49629718
_cell_angle_beta   75.49629718
_cell_angle_gamma   106.04042960
_symmetry_Int_Tables_number   1
_chemical_formula_structural   CaTaAlO5
_chemical_formula_sum   'Ca2 Ta2 Al2 O10'
_cell_volume   207.49161774
_cell_formula_units_Z   2
loop_
 _symmetry_equiv_pos_site_id
 _symmetry_equiv_pos_as_xyz
  1  'x, y, z'
loop_
 _atom_site_type_symbol
 _atom_site_label
 _atom_site_symmetry_multiplicity
 _atom_site_fract_x
 _atom_site_fract_y
 _atom_site_fract_z
 _atom_site_occupancy
  Ca  Ca0  1  0.33586000  0.66937200  0.77041300  1
  Ca  Ca1  1  0.66937200  0.33586000  0.27041300  1
  Ta  Ta0  1  0.00344800  0.99859400  0.50076000  1
  Ta  Ta1  1  0.99859400  0.00344800  0.00076000  1
  Al  Al0  1  0.31722200  0.68675800  0.25077500  1
  Al  Al1  1  0.68675800  0.31722200  0.75077500  1
  O  O0  1  0.07331600  0.92496900  0.75131600  1
  O  O1  1  0.92496900  0.07331600  0.25131600  1
  O  O2  1  0.63255600  0.75039300  0.08771800  1
  O  O3  1  0.24767700  0.36842800  0.41230100  1
  O  O4  1  0.36842800  0.24767700  0.91230100  1
  O  O5  1  0.75039300  0.63255600  0.58771800  1
  O  O6  1  0.31070000  0.90614700  0.38458400  1
  O  O7  1  0.10089800  0.69366100  0.11393400  1
  O  O8  1  0.69366100  0.10089800  0.61393400  1
  O  O9  1  0.90614700  0.31070000  0.88458400  1
loop_
_geom_bond_atom_site_label_1
_geom_bond_atom_site_label_2
_geom_bond_distance
_geom_bond_site_symmetry_2
Ca0 O0 2.340331 1_555
Ca0 O4 2.427380 1_555
Ca0 O8 2.458712 1_565
Ca0 O9 2.467650 1_455
Ca0 O5 2.486781 1_555
Ca0 O7 2.630183 1_556
Ca0 O6 2.910756 1_555
Ca1 O1 2.340331 1_555
Ca1 O3 2.427380 1_555
Ca1 O7 2.458712 1_655
Ca1 O6 2.467650 1_545
Ca1 O2 2.486781 1_555
Ca1 O8 2.630183 1_555
Ca1 O9 2.910756 1_554
Al0 O2 1.765776 1_555
Al0 O3 1.766707 1_555
Al0 O6 1.776365 1_555
Al0 O7 1.778639 1_555
Al1 O5 1.765776 1_555
Al1 O4 1.766707 1_555
Al1 O9 1.776365 1_555
Al1 O8 1.778639 1_555
O0 Ta0 1.972859 1_555
O0 Ta1 1.989809 1_466
O1 Ta1 1.972859 1_555
O1 Ta0 1.989809 1_645
O2 Ta1 1.989902 1_565
O3 Ta0 1.988437 1_545
O4 Ta1 1.988437 1_456
O5 Ta0 1.989902 1_655
O6 Ta0 2.000422 1_555
O7 Ta1 2.040385 1_465
O8 Ta0 2.040385 1_645
O9 Ta1 2.000422 1_556
