# generated using pymatgen
data_Y3Pu
_symmetry_space_group_name_H-M   'P 1'
_cell_length_a   7.20065015
_cell_length_b   7.20065015
_cell_length_c   5.48166100
_cell_angle_alpha   90.00000000
_cell_angle_beta   90.00000000
_cell_angle_gamma   120.00000140
_symmetry_Int_Tables_number   1
_chemical_formula_structural   Y3Pu
_chemical_formula_sum   'Y6 Pu2'
_cell_volume   246.14228147
_cell_formula_units_Z   2
loop_
 _symmetry_equiv_pos_site_id
 _symmetry_equiv_pos_as_xyz
  1  'x, y, z'
loop_
 _atom_site_type_symbol
 _atom_site_label
 _atom_site_symmetry_multiplicity
 _atom_site_fract_x
 _atom_site_fract_y
 _atom_site_fract_z
 _atom_site_occupancy
  Y  Y0  1  0.16835800  0.33671500  0.25000000  1
  Y  Y1  1  0.66328500  0.83164200  0.25000000  1
  Y  Y2  1  0.16835800  0.83164200  0.25000000  1
  Y  Y3  1  0.83164200  0.66328500  0.75000000  1
  Y  Y4  1  0.33671500  0.16835800  0.75000000  1
  Y  Y5  1  0.83164200  0.16835800  0.75000000  1
  Pu  Pu0  1  0.33333300  0.66666700  0.75000000  1
  Pu  Pu1  1  0.66666700  0.33333300  0.25000000  1
loop_
_geom_bond_atom_site_label_1
_geom_bond_atom_site_label_2
_geom_bond_distance
_geom_bond_site_symmetry_2
Y0 Y4 3.452683 1_555
Y0 Y4 3.452683 1_554
Y0 Y5 3.452690 1_455
Y0 Y5 3.452690 1_454
Y0 Y1 3.563796 1_555
Y0 Y2 3.563796 1_555
Y0 Y1 3.636854 1_445
Y0 Y2 3.636854 1_545
Y1 Y3 3.452683 1_554
Y1 Y3 3.452683 1_555
Y1 Y5 3.452690 1_564
Y1 Y5 3.452690 1_565
Y1 Y2 3.563796 1_555
Y1 Y2 3.636854 1_655
Y2 Y4 3.452690 1_565
Y2 Y3 3.452690 1_455
Y2 Y3 3.452690 1_454
Y2 Y4 3.452690 1_564
Y3 Y4 3.563796 1_555
Y3 Y5 3.563796 1_555
Y3 Y4 3.636854 1_665
Y3 Y5 3.636854 1_565
Y4 Y5 3.563796 1_555
Y4 Y5 3.636854 1_455
Pu0 Y2 3.427195 1_555
Pu0 Y2 3.427195 1_556
Pu0 Y1 3.427202 1_556
Pu0 Y0 3.427202 1_556
Pu0 Y1 3.427202 1_555
Pu0 Y0 3.427202 1_555
Pu0 Y5 3.600387 1_565
Pu0 Y5 3.600387 1_455
Pu0 Y4 3.600387 1_565
Pu0 Y3 3.600387 1_455
Pu0 Y3 3.600387 1_555
Pu0 Y4 3.600387 1_555
Pu1 Y5 3.427195 1_555
Pu1 Y5 3.427195 1_554
Pu1 Y4 3.427202 1_555
Pu1 Y3 3.427202 1_554
Pu1 Y3 3.427202 1_555
Pu1 Y4 3.427202 1_554
Pu1 Y2 3.600387 1_655
Pu1 Y2 3.600387 1_545
Pu1 Y0 3.600387 1_655
Pu1 Y1 3.600387 1_545
Pu1 Y1 3.600387 1_555
Pu1 Y0 3.600387 1_555
