# generated using pymatgen
data_Sm4MgPt
_symmetry_space_group_name_H-M   'P 1'
_cell_length_a   9.98048418
_cell_length_b   9.98048418
_cell_length_c   9.98048418
_cell_angle_alpha   60.00000000
_cell_angle_beta   60.00000000
_cell_angle_gamma   60.00000000
_symmetry_Int_Tables_number   1
_chemical_formula_structural   Sm4MgPt
_chemical_formula_sum   'Sm16 Mg4 Pt4'
_cell_volume   702.97492379
_cell_formula_units_Z   4
loop_
 _symmetry_equiv_pos_site_id
 _symmetry_equiv_pos_as_xyz
  1  'x, y, z'
loop_
 _atom_site_type_symbol
 _atom_site_label
 _atom_site_symmetry_multiplicity
 _atom_site_fract_x
 _atom_site_fract_y
 _atom_site_fract_z
 _atom_site_occupancy
  Sm  Sm0  1  0.65210636  0.65210636  0.65210636  1
  Sm  Sm1  1  0.04368091  0.65210636  0.65210636  1
  Sm  Sm2  1  0.65210636  0.04368091  0.65210636  1
  Sm  Sm3  1  0.65210636  0.65210636  0.04368091  1
  Sm  Sm4  1  0.81074489  0.81074489  0.18925511  1
  Sm  Sm5  1  0.18925511  0.18925511  0.81074489  1
  Sm  Sm6  1  0.81074489  0.18925511  0.81074489  1
  Sm  Sm7  1  0.18925511  0.81074489  0.18925511  1
  Sm  Sm8  1  0.18925511  0.81074489  0.81074489  1
  Sm  Sm9  1  0.81074489  0.18925511  0.18925511  1
  Sm  Sm10  1  0.43429336  0.43429336  0.06570664  1
  Sm  Sm11  1  0.06570664  0.06570664  0.43429336  1
  Sm  Sm12  1  0.43429336  0.06570664  0.43429336  1
  Sm  Sm13  1  0.06570664  0.43429336  0.06570664  1
  Sm  Sm14  1  0.06570664  0.43429336  0.43429336  1
  Sm  Sm15  1  0.43429336  0.06570664  0.06570664  1
  Mg  Mg0  1  0.42005490  0.42005490  0.42005490  1
  Mg  Mg1  1  0.73983529  0.42005490  0.42005490  1
  Mg  Mg2  1  0.42005490  0.73983529  0.42005490  1
  Mg  Mg3  1  0.42005490  0.42005490  0.73983529  1
  Pt  Pt0  1  0.85778797  0.85778797  0.85778797  1
  Pt  Pt1  1  0.42663610  0.85778797  0.85778797  1
  Pt  Pt2  1  0.85778797  0.42663610  0.85778797  1
  Pt  Pt3  1  0.85778797  0.85778797  0.42663610  1
loop_
_geom_bond_atom_site_label_1
_geom_bond_atom_site_label_2
_geom_bond_distance
_geom_bond_site_symmetry_2
Sm0 Sm14 3.642776 1_655
Sm0 Sm10 3.642776 1_556
Sm0 Sm12 3.642776 1_565
Sm1 Sm14 3.642776 1_555
Sm1 Sm13 3.642776 1_556
Sm1 Sm11 3.642776 1_565
Sm10 Sm3 3.642776 1_555
Sm10 Sm13 3.678674 1_555
Sm10 Sm15 3.678674 1_555
Sm10 Sm12 3.678674 1_555
Sm10 Sm14 3.678674 1_555
Sm10 Sm8 3.747863 1_554
Sm10 Sm6 3.747863 1_554
Sm10 Sm9 3.747863 1_555
Sm10 Sm7 3.747863 1_555
Sm11 Sm2 3.642776 1_455
Sm11 Sm13 3.678674 1_555
Sm11 Sm15 3.678674 1_555
Sm11 Sm12 3.678674 1_555
Sm11 Sm14 3.678674 1_555
Sm11 Sm7 3.747863 1_545
Sm11 Sm9 3.747863 1_455
Sm11 Sm8 3.747863 1_545
Sm11 Sm6 3.747863 1_455
Sm12 Sm2 3.642776 1_555
Sm12 Sm15 3.678674 1_555
Sm12 Sm14 3.678674 1_555
Sm12 Sm4 3.747863 1_545
Sm12 Sm8 3.747863 1_545
Sm12 Sm9 3.747863 1_555
Sm12 Sm5 3.747863 1_555
Sm13 Sm3 3.642776 1_455
Sm13 Sm15 3.678674 1_555
Sm13 Sm14 3.678674 1_555
Sm13 Sm5 3.747863 1_554
Sm13 Sm9 3.747863 1_455
Sm13 Sm4 3.747863 1_455
Sm13 Sm8 3.747863 1_554
Sm14 Sm6 3.747863 1_455
Sm14 Sm4 3.747863 1_455
Sm14 Sm7 3.747863 1_555
Sm14 Sm5 3.747863 1_555
Sm15 Sm3 3.642776 1_545
Sm15 Sm2 3.642776 1_554
Sm15 Sm7 3.747863 1_545
Sm15 Sm5 3.747863 1_554
Sm15 Sm6 3.747863 1_554
Sm15 Sm4 3.747863 1_545
Mg0 Mg1 3.191563 1_555
Mg0 Mg2 3.191563 1_555
Mg0 Mg3 3.191563 1_555
Mg0 Sm10 3.400404 1_555
Mg0 Sm12 3.400404 1_555
Mg0 Sm14 3.400404 1_555
Mg0 Sm3 3.578038 1_555
Mg0 Sm2 3.578038 1_555
Mg0 Sm1 3.578038 1_555
Mg0 Sm5 3.627490 1_555
Mg0 Sm7 3.627490 1_555
Mg0 Sm9 3.627490 1_555
Mg1 Mg2 3.191563 1_555
Mg1 Mg3 3.191563 1_555
Mg1 Sm11 3.400405 1_655
Mg1 Sm13 3.400405 1_655
Mg1 Sm14 3.400405 1_655
Mg1 Sm0 3.578038 1_555
Mg1 Sm2 3.578038 1_555
Mg1 Sm3 3.578038 1_555
Mg1 Sm9 3.627490 1_555
Mg1 Sm4 3.627490 1_555
Mg1 Sm6 3.627490 1_555
Mg2 Mg3 3.191563 1_555
Mg2 Sm11 3.400405 1_565
Mg2 Sm15 3.400405 1_565
Mg2 Sm12 3.400405 1_565
Mg2 Sm0 3.578038 1_555
Mg2 Sm1 3.578038 1_555
Mg2 Sm3 3.578038 1_555
Mg2 Sm7 3.627490 1_555
Mg2 Sm4 3.627490 1_555
Mg2 Sm8 3.627490 1_555
Mg3 Sm15 3.400405 1_556
Mg3 Sm13 3.400405 1_556
Mg3 Sm10 3.400405 1_556
Mg3 Sm0 3.578038 1_555
Mg3 Sm2 3.578038 1_555
Mg3 Sm1 3.578038 1_555
Mg3 Sm5 3.627490 1_555
Mg3 Sm8 3.627490 1_555
Mg3 Sm6 3.627490 1_555
Pt0 Sm1 2.909811 1_655
Pt0 Sm2 2.909811 1_565
Pt0 Sm3 2.909811 1_556
Pt0 Sm6 2.915312 1_565
Pt0 Sm4 2.915312 1_556
Pt0 Sm8 2.915312 1_655
Pt0 Sm13 3.638887 1_656
Pt0 Sm11 3.638887 1_665
Pt0 Sm15 3.638887 1_566
Pt1 Sm2 2.909811 1_565
Pt1 Sm3 2.909811 1_556
Pt1 Sm0 2.909811 1_555
Pt1 Sm5 2.915312 1_565
Pt1 Sm7 2.915312 1_556
Pt1 Sm8 2.915312 1_555
Pt1 Sm15 3.638887 1_566
Pt1 Sm10 3.638887 1_556
Pt1 Sm12 3.638887 1_565
Pt2 Sm3 2.909811 1_556
Pt2 Sm1 2.909811 1_655
Pt2 Sm0 2.909811 1_555
Pt2 Sm9 2.915312 1_556
Pt2 Sm5 2.915312 1_655
Pt2 Sm6 2.915312 1_555
Pt2 Sm13 3.638887 1_656
Pt2 Sm10 3.638887 1_556
Pt2 Sm14 3.638887 1_655
Pt3 Sm2 2.909811 1_565
Pt3 Sm1 2.909811 1_655
Pt3 Sm0 2.909811 1_555
Pt3 Sm9 2.915312 1_565
Pt3 Sm7 2.915312 1_655
Pt3 Sm4 2.915312 1_555
Pt3 Sm11 3.638887 1_665
Pt3 Sm12 3.638887 1_565
Pt3 Sm14 3.638887 1_655
