# generated using pymatgen
data_Zr2OsPd
_symmetry_space_group_name_H-M   'P 1'
_cell_length_a   10.86549583
_cell_length_b   10.86549583
_cell_length_c   10.86549583
_cell_angle_alpha   126.69577512
_cell_angle_beta   117.17217230
_cell_angle_gamma   86.89121466
_symmetry_Int_Tables_number   1
_chemical_formula_structural   Zr2OsPd
_chemical_formula_sum   'Zr2 Os1 Pd1'
_cell_volume   870.98871880
_cell_formula_units_Z   1
loop_
 _symmetry_equiv_pos_site_id
 _symmetry_equiv_pos_as_xyz
  1  'x, y, z'
loop_
 _atom_site_type_symbol
 _atom_site_label
 _atom_site_symmetry_multiplicity
 _atom_site_fract_x
 _atom_site_fract_y
 _atom_site_fract_z
 _atom_site_occupancy
  Zr  Zr0  1  0.00000000  0.26205000  0.26205000  1
  Zr  Zr1  1  0.00000000  0.73795000  0.73795000  1
  Os  Os0  1  0.00000000  0.50000000  0.50000000  1
  Pd  Pd0  1  0.00000000  0.00000000  0.00000000  1
loop_
_geom_bond_atom_site_label_1
_geom_bond_atom_site_label_2
_geom_bond_distance
_geom_bond_site_symmetry_2
Os0 Zr0 2.319517 1_555
Os0 Zr1 2.319517 1_555
Pd0 Zr1 2.554442 1_544
Pd0 Zr0 2.554442 1_555
