# generated using pymatgen
data_Na4Ca2SiAs4
_symmetry_space_group_name_H-M   'P 1'
_cell_length_a   9.45033233
_cell_length_b   9.45033233
_cell_length_c   7.16576621
_cell_angle_alpha   89.11875452
_cell_angle_beta   89.11875452
_cell_angle_gamma   119.50973444
_symmetry_Int_Tables_number   1
_chemical_formula_structural   Na4Ca2SiAs4
_chemical_formula_sum   'Na8 Ca4 Si2 As8'
_cell_volume   556.68468188
_cell_formula_units_Z   2
loop_
 _symmetry_equiv_pos_site_id
 _symmetry_equiv_pos_as_xyz
  1  'x, y, z'
loop_
 _atom_site_type_symbol
 _atom_site_label
 _atom_site_symmetry_multiplicity
 _atom_site_fract_x
 _atom_site_fract_y
 _atom_site_fract_z
 _atom_site_occupancy
  Na  Na0  1  0.47539700  0.94747400  0.38562000  1
  Na  Na1  1  0.94747400  0.47539700  0.88562000  1
  Na  Na2  1  0.85928100  0.71344600  0.18461600  1
  Na  Na3  1  0.29176500  0.13915700  0.20714000  1
  Na  Na4  1  0.84875900  0.14158200  0.19714500  1
  Na  Na5  1  0.13915700  0.29176500  0.70714000  1
  Na  Na6  1  0.71344600  0.85928100  0.68461600  1
  Na  Na7  1  0.14158200  0.84875900  0.69714500  1
  Ca  Ca0  1  0.04898700  0.52594400  0.38390200  1
  Ca  Ca1  1  0.47992600  0.52745800  0.38234200  1
  Ca  Ca2  1  0.52594400  0.04898700  0.88390200  1
  Ca  Ca3  1  0.52745800  0.47992600  0.88234200  1
  Si  Si0  1  0.66344900  0.32998600  0.49913000  1
  Si  Si1  1  0.32998600  0.66344900  0.99913000  1
  As  As0  1  0.19978400  0.38827100  0.12076300  1
  As  As1  1  0.61038800  0.80249800  0.09266200  1
  As  As2  1  0.19826000  0.80847400  0.10421000  1
  As  As3  1  0.80249800  0.61038800  0.59266200  1
  As  As4  1  0.38827100  0.19978400  0.62076300  1
  As  As5  1  0.80847400  0.19826000  0.60421000  1
  As  As6  1  0.66294600  0.33661600  0.16244900  1
  As  As7  1  0.33661600  0.66294600  0.66244900  1
loop_
_geom_bond_atom_site_label_1
_geom_bond_atom_site_label_2
_geom_bond_distance
_geom_bond_site_symmetry_2
Na0 Si0 3.270062 1_565
Na1 Si1 3.270062 1_655
Ca1 Si0 3.221193 1_555
Ca3 Si1 3.221193 1_555
As0 Si1 2.404459 1_554
As0 Na3 2.944271 1_555
As0 Na4 3.004196 1_455
As0 Ca1 3.008389 1_555
As0 Ca0 3.016361 1_555
As0 Na5 3.092815 1_554
As0 Ca3 3.226083 1_554
As0 Na1 3.349256 1_454
As1 Si1 2.418518 1_554
As1 Na2 2.942036 1_555
As1 Na4 2.986299 1_565
As1 Na6 3.022471 1_554
As1 Ca1 3.030378 1_555
As1 Na0 3.104738 1_555
As1 Ca3 3.162665 1_554
As1 Ca2 3.172001 1_564
As2 Si1 2.382999 1_554
As2 Na3 2.908846 1_565
As2 Na2 2.914418 1_455
As2 Na7 3.025742 1_554
As2 Ca0 3.028803 1_555
As2 Na0 3.083168 1_555
As2 Ca2 3.170695 1_564
As2 Na1 3.300761 1_454
As3 Si0 2.418518 1_555
As3 Na6 2.942036 1_555
As3 Na7 2.986299 1_655
As3 Na2 3.022471 1_555
As3 Ca3 3.030378 1_555
As3 Na1 3.104738 1_555
As3 Ca1 3.162665 1_555
As3 Ca0 3.172001 1_655
As4 Si0 2.404459 1_555
As4 Na5 2.944271 1_555
As4 Na7 3.004196 1_545
As4 Ca3 3.008389 1_555
As4 Ca2 3.016361 1_555
As4 Na3 3.092815 1_555
As4 Ca1 3.226083 1_555
As4 Na0 3.349256 1_545
As5 Si0 2.382999 1_555
As5 Na5 2.908846 1_655
As5 Na6 2.914418 1_545
As5 Na4 3.025742 1_555
As5 Ca2 3.028803 1_555
As5 Na1 3.083168 1_555
As5 Ca0 3.170695 1_655
As5 Na0 3.300761 1_545
As6 Si0 2.412566 1_555
As6 Na1 3.027703 1_554
As6 Ca3 3.034169 1_554
As6 Na3 3.063962 1_555
As6 Na2 3.109165 1_555
As6 Na4 3.119337 1_555
As6 Ca2 3.135005 1_554
As6 Ca1 3.435643 1_555
As7 Si1 2.412566 1_555
As7 Na0 3.027703 1_555
As7 Ca1 3.034169 1_555
As7 Na5 3.063962 1_555
As7 Na6 3.109165 1_555
As7 Na7 3.119337 1_555
As7 Ca0 3.135005 1_555
As7 Ca3 3.435643 1_555
