# generated using pymatgen
data_Li2Mn3TeO8
_symmetry_space_group_name_H-M   'P 1'
_cell_length_a   6.13652775
_cell_length_b   6.09163054
_cell_length_c   10.83969150
_cell_angle_alpha   90.95498215
_cell_angle_beta   73.25362294
_cell_angle_gamma   119.96903999
_symmetry_Int_Tables_number   1
_chemical_formula_structural   Li2Mn3TeO8
_chemical_formula_sum   'Li4 Mn6 Te2 O16'
_cell_volume   332.15952895
_cell_formula_units_Z   2
loop_
 _symmetry_equiv_pos_site_id
 _symmetry_equiv_pos_as_xyz
  1  'x, y, z'
loop_
 _atom_site_type_symbol
 _atom_site_label
 _atom_site_symmetry_multiplicity
 _atom_site_fract_x
 _atom_site_fract_y
 _atom_site_fract_z
 _atom_site_occupancy
  Li  Li0  1  0.85374300  0.92408800  0.20991200  1
  Li  Li1  1  0.86055400  0.42024200  0.70941800  1
  Li  Li2  1  0.13953700  0.57985800  0.29057800  1
  Li  Li3  1  0.14644400  0.07620000  0.79010500  1
  Mn  Mn0  1  0.00021800  0.50042900  0.00002300  1
  Mn  Mn1  1  0.50034600  0.50004500  0.99996200  1
  Mn  Mn2  1  0.50027000  0.99993600  0.99993200  1
  Mn  Mn3  1  0.99983900  0.99987100  0.50001700  1
  Mn  Mn4  1  0.49953400  0.99973400  0.50024500  1
  Mn  Mn5  1  0.49969300  0.49985000  0.49991300  1
  Te  Te0  1  0.51442700  0.74845200  0.75003800  1
  Te  Te1  1  0.48543600  0.25132100  0.24999900  1
  O  O0  1  0.73944500  0.84819000  0.40922800  1
  O  O1  1  0.70135300  0.34738200  0.90918000  1
  O  O2  1  0.29918900  0.65277100  0.09080000  1
  O  O3  1  0.26008000  0.15168800  0.59072600  1
  O  O4  1  0.74238000  0.08126600  0.63228800  1
  O  O5  1  0.70713800  0.58367200  0.13210500  1
  O  O6  1  0.73444800  0.63123200  0.63665600  1
  O  O7  1  0.70884300  0.13255300  0.13898200  1
  O  O8  1  0.28913500  0.62805500  0.63621400  1
  O  O9  1  0.26670300  0.13089200  0.13427000  1
  O  O10  1  0.73352200  0.86908300  0.86561500  1
  O  O11  1  0.71058300  0.37183000  0.36382800  1
  O  O12  1  0.29143500  0.86767000  0.86104700  1
  O  O13  1  0.26528900  0.36858300  0.36323500  1
  O  O14  1  0.29298300  0.41644600  0.86796900  1
  O  O15  1  0.25743100  0.91866200  0.36771700  1
loop_
_geom_bond_atom_site_label_1
_geom_bond_atom_site_label_2
_geom_bond_distance
_geom_bond_site_symmetry_2
Li0 O0 2.051737 1_555
Li0 O9 2.080570 1_665
Li0 O5 2.082305 1_555
Li0 O7 2.132848 1_565
Li1 O1 2.054254 1_555
Li1 O6 2.062050 1_555
Li1 O4 2.069923 1_555
Li1 O8 2.157244 1_655
Li2 O2 2.054591 1_555
Li2 O13 2.061169 1_555
Li2 O15 2.069171 1_555
Li2 O11 2.159113 1_455
Li3 O3 2.052516 1_555
Li3 O10 2.080316 1_445
Li3 O14 2.081800 1_555
Li3 O12 2.133690 1_545
Mn0 O1 2.122323 1_454
Mn0 O2 2.122330 1_555
Mn0 O5 2.223651 1_455
Mn0 O14 2.224906 1_554
Mn0 O12 2.243759 1_554
Mn0 O7 2.246139 1_455
Mn1 O1 1.941832 1_555
Mn1 O2 1.942997 1_556
Mn1 O5 2.073375 1_556
Mn1 O14 2.074398 1_555
Mn1 O10 2.217320 1_555
Mn1 O9 2.217464 1_556
Mn2 O2 1.930574 1_556
Mn2 O1 1.931484 1_565
Mn2 O12 2.144226 1_555
Mn2 O7 2.144937 1_566
Mn2 O10 2.168921 1_555
Mn2 O9 2.170717 1_566
Mn3 O3 1.942024 1_665
Mn3 O0 1.943301 1_555
Mn3 O4 2.061844 1_565
Mn3 O15 2.061860 1_655
Mn3 O6 2.226178 1_555
Mn3 O13 2.227213 1_665
Mn4 O3 2.115671 1_565
Mn4 O0 2.117412 1_555
Mn4 O4 2.232068 1_565
Mn4 O15 2.233398 1_555
Mn4 O8 2.249367 1_555
Mn4 O11 2.253216 1_565
Mn5 O3 1.936248 1_555
Mn5 O0 1.936663 1_555
Mn5 O11 2.080567 1_555
Mn5 O8 2.081322 1_555
Mn5 O13 2.223270 1_555
Mn5 O6 2.225305 1_555
O4 Te0 1.979946 1_545
O5 Te1 1.978738 1_555
O6 Te0 1.954743 1_555
O7 Te1 1.965265 1_555
O8 Te0 1.977714 1_555
O9 Te1 1.967085 1_555
O10 Te0 1.967258 1_555
O11 Te1 1.977149 1_555
O12 Te0 1.965372 1_555
O13 Te1 1.954788 1_555
O14 Te0 1.977489 1_555
O15 Te1 1.979146 1_565
