# generated using pymatgen
data_Mg6NiSn
_symmetry_space_group_name_H-M   'P 1'
_cell_length_a   4.87996400
_cell_length_b   6.19710100
_cell_length_c   10.65937700
_cell_angle_alpha   90.00000000
_cell_angle_beta   90.00000000
_cell_angle_gamma   90.00000000
_symmetry_Int_Tables_number   1
_chemical_formula_structural   Mg6NiSn
_chemical_formula_sum   'Mg12 Ni2 Sn2'
_cell_volume   322.35693297
_cell_formula_units_Z   2
loop_
 _symmetry_equiv_pos_site_id
 _symmetry_equiv_pos_as_xyz
  1  'x, y, z'
loop_
 _atom_site_type_symbol
 _atom_site_label
 _atom_site_symmetry_multiplicity
 _atom_site_fract_x
 _atom_site_fract_y
 _atom_site_fract_z
 _atom_site_occupancy
  Mg  Mg0  1  0.50000000  0.25450900  0.41756900  1
  Mg  Mg1  1  0.50000000  0.74549100  0.41756900  1
  Mg  Mg2  1  0.50000000  0.00000000  0.66646400  1
  Mg  Mg3  1  0.00000000  0.25982000  0.58765400  1
  Mg  Mg4  1  0.00000000  0.74018000  0.58765400  1
  Mg  Mg5  1  0.00000000  0.00000000  0.83112200  1
  Mg  Mg6  1  0.50000000  0.75450900  0.91756900  1
  Mg  Mg7  1  0.50000000  0.24549100  0.91756900  1
  Mg  Mg8  1  0.50000000  0.50000000  0.16646400  1
  Mg  Mg9  1  0.00000000  0.75982000  0.08765400  1
  Mg  Mg10  1  0.00000000  0.24018000  0.08765400  1
  Mg  Mg11  1  0.00000000  0.50000000  0.33112200  1
  Ni  Ni0  1  0.50000000  0.00000000  0.16501100  1
  Ni  Ni1  1  0.50000000  0.50000000  0.66501100  1
  Sn  Sn0  1  0.00000000  0.00000000  0.32695600  1
  Sn  Sn1  1  0.00000000  0.50000000  0.82695600  1
loop_
_geom_bond_atom_site_label_1
_geom_bond_atom_site_label_2
_geom_bond_distance
_geom_bond_site_symmetry_2
Mg0 Mg11 3.019449 1_555
Mg0 Mg11 3.019449 1_655
Mg0 Mg3 3.039994 1_555
Mg0 Mg3 3.039994 1_655
Mg0 Mg1 3.042665 1_555
Mg0 Ni1 3.044876 1_555
Mg0 Sn0 3.061707 1_655
Mg0 Sn0 3.061707 1_555
Mg0 Mg8 3.078760 1_555
Mg0 Mg2 3.086482 1_555
Mg0 Ni0 3.120109 1_555
Mg0 Mg1 3.154436 1_545
Mg1 Mg11 3.019449 1_555
Mg1 Mg11 3.019449 1_655
Mg1 Mg4 3.039994 1_555
Mg1 Mg4 3.039994 1_655
Mg1 Ni1 3.044876 1_555
Mg1 Sn0 3.061707 1_665
Mg1 Sn0 3.061707 1_565
Mg1 Mg8 3.078760 1_555
Mg1 Mg2 3.086482 1_565
Mg1 Ni0 3.120109 1_565
Mg2 Mg5 3.005673 1_655
Mg2 Mg5 3.005673 1_555
Mg2 Mg3 3.041668 1_655
Mg2 Mg4 3.041668 1_545
Mg2 Mg4 3.041668 1_645
Mg2 Mg3 3.041668 1_555
Mg2 Mg6 3.078760 1_545
Mg2 Mg7 3.078760 1_555
Mg2 Ni1 3.098589 1_545
Mg2 Ni1 3.098589 1_555
Mg3 Sn1 2.953308 1_555
Mg3 Ni1 2.974699 1_455
Mg3 Ni1 2.974699 1_555
Mg3 Mg4 2.976839 1_555
Mg3 Mg5 3.054124 1_555
Mg3 Sn0 3.211648 1_555
Mg3 Mg4 3.220262 1_545
Mg4 Sn1 2.953308 1_555
Mg4 Ni1 2.974699 1_455
Mg4 Ni1 2.974699 1_555
Mg4 Mg5 3.054124 1_565
Mg4 Sn0 3.211648 1_565
Mg5 Mg6 3.019449 1_445
Mg5 Mg7 3.019449 1_455
Mg5 Mg6 3.019449 1_545
Mg5 Mg7 3.019449 1_555
Mg5 Sn1 3.098869 1_555
Mg5 Sn1 3.098869 1_545
Mg5 Mg9 3.113314 1_546
Mg6 Mg9 3.039994 1_656
Mg6 Mg9 3.039994 1_556
Mg6 Mg7 3.042665 1_565
Mg6 Ni0 3.044876 1_566
Mg6 Sn1 3.061707 1_555
Mg6 Sn1 3.061707 1_655
Mg6 Mg8 3.086482 1_556
Mg6 Ni1 3.120109 1_555
Mg6 Mg7 3.154436 1_555
Mg7 Ni0 3.044876 1_556
Mg7 Sn1 3.061707 1_555
Mg7 Sn1 3.061707 1_655
Mg7 Mg8 3.086482 1_556
Mg7 Ni1 3.120109 1_555
Mg8 Mg9 3.041668 1_555
Mg8 Mg9 3.041668 1_655
Mg8 Ni0 3.098589 1_555
Mg8 Ni0 3.098589 1_565
Mg9 Sn0 2.953308 1_565
Mg9 Ni0 2.974699 1_565
Mg9 Ni0 2.974699 1_465
Mg9 Sn1 3.211648 1_554
Mg10 Sn0 2.953308 1_555
Mg10 Ni0 2.974699 1_455
Mg10 Ni0 2.974699 1_555
Mg10 Mg9 2.976839 1_545
Mg10 Mg7 3.039994 1_554
Mg10 Mg7 3.039994 1_454
Mg10 Mg8 3.041668 1_555
Mg10 Mg8 3.041668 1_455
Mg10 Mg11 3.054124 1_555
Mg10 Mg5 3.113314 1_554
Mg10 Sn1 3.211648 1_554
Mg10 Mg9 3.220262 1_555
Mg11 Mg8 3.005673 1_455
Mg11 Mg8 3.005673 1_555
Mg11 Mg9 3.054124 1_555
Mg11 Sn0 3.098869 1_555
Mg11 Sn0 3.098869 1_565
Mg11 Mg4 3.113314 1_555
Mg11 Mg3 3.113314 1_555
Ni0 Sn0 2.988878 1_655
Ni0 Sn0 2.988878 1_555
Ni1 Sn1 2.988878 1_555
Ni1 Sn1 2.988878 1_655
