# generated using pymatgen
data_Te2Mo3W(SeS2)2
_symmetry_space_group_name_H-M   'P 1'
_cell_length_a   3.30519626
_cell_length_b   3.30519626
_cell_length_c   38.98548200
_cell_angle_alpha   90.00000000
_cell_angle_beta   90.00000000
_cell_angle_gamma   120.00000519
_symmetry_Int_Tables_number   1
_chemical_formula_structural   Te2Mo3W(SeS2)2
_chemical_formula_sum   'Te2 Mo3 W1 Se2 S4'
_cell_volume   368.83151472
_cell_formula_units_Z   1
loop_
 _symmetry_equiv_pos_site_id
 _symmetry_equiv_pos_as_xyz
  1  'x, y, z'
loop_
 _atom_site_type_symbol
 _atom_site_label
 _atom_site_symmetry_multiplicity
 _atom_site_fract_x
 _atom_site_fract_y
 _atom_site_fract_z
 _atom_site_occupancy
  Te  Te0  1  0.00000000  0.00000000  0.33148600  1
  Te  Te1  1  0.00000000  0.00000000  0.23345400  1
  Mo  Mo0  1  0.00000000  0.00000000  0.09290400  1
  Mo  Mo1  1  0.00000000  0.00000000  0.47003400  1
  Mo  Mo2  1  0.33333300  0.66666700  0.28245500  1
  W  W0  1  0.33333300  0.66666700  0.65751600  1
  Se  Se0  1  0.33333300  0.66666700  0.04982700  1
  Se  Se1  1  0.33333300  0.66666700  0.13600000  1
  S  S0  1  0.00000000  0.00000000  0.69687800  1
  S  S1  1  0.33333300  0.66666700  0.43084900  1
  S  S2  1  0.33333300  0.66666700  0.50918100  1
  S  S3  1  0.00000000  0.00000000  0.61816300  1
loop_
_geom_bond_atom_site_label_1
_geom_bond_atom_site_label_2
_geom_bond_distance
_geom_bond_site_symmetry_2
Mo0 Se0 2.541996 1_545
Mo0 Se0 2.541998 1_445
Mo0 Se0 2.541998 1_555
Mo0 Se1 2.542485 1_545
Mo0 Se1 2.542487 1_445
Mo0 Se1 2.542487 1_555
Mo1 S2 2.443484 1_545
Mo1 S2 2.443486 1_555
Mo1 S2 2.443486 1_445
Mo1 S1 2.444409 1_545
Mo1 S1 2.444411 1_445
Mo1 S1 2.444411 1_555
Mo2 Te1 2.700145 1_565
Mo2 Te1 2.700147 1_555
Mo2 Te1 2.700147 1_665
Mo2 Te0 2.700973 1_565
Mo2 Te0 2.700975 1_555
Mo2 Te0 2.700975 1_665
S0 W0 2.448728 1_545
S0 W0 2.448730 1_445
S0 W0 2.448730 1_555
S3 W0 2.448508 1_545
S3 W0 2.448510 1_555
S3 W0 2.448510 1_445
