# generated using pymatgen
data_TbNiAs
_symmetry_space_group_name_H-M   'P 1'
_cell_length_a   4.01508454
_cell_length_b   4.01508454
_cell_length_c   3.93150931
_cell_angle_alpha   90.00000000
_cell_angle_beta   90.00000000
_cell_angle_gamma   120.00000627
_symmetry_Int_Tables_number   1
_chemical_formula_structural   TbNiAs
_chemical_formula_sum   'Tb1 Ni1 As1'
_cell_volume   54.88823944
_cell_formula_units_Z   1
loop_
 _symmetry_equiv_pos_site_id
 _symmetry_equiv_pos_as_xyz
  1  'x, y, z'
loop_
 _atom_site_type_symbol
 _atom_site_label
 _atom_site_symmetry_multiplicity
 _atom_site_fract_x
 _atom_site_fract_y
 _atom_site_fract_z
 _atom_site_occupancy
  Tb  Tb0  1  0.33333300  0.66666700  0.50000000  1
  Ni  Ni0  1  0.66666700  0.33333300  0.00000000  1
  As  As0  1  0.00000000  0.00000000  -0.00000000  1
loop_
_geom_bond_atom_site_label_1
_geom_bond_atom_site_label_2
_geom_bond_distance
_geom_bond_site_symmetry_2
Ni0 Tb0 3.039377 1_545
Ni0 Tb0 3.039377 1_544
Ni0 Tb0 3.039377 1_655
Ni0 Tb0 3.039377 1_654
Ni0 Tb0 3.039383 1_555
Ni0 Tb0 3.039383 1_554
As0 Ni0 2.318108 1_455
As0 Ni0 2.318111 1_555
As0 Ni0 2.318111 1_445
As0 Tb0 3.039377 1_544
As0 Tb0 3.039377 1_545
As0 Tb0 3.039380 1_444
As0 Tb0 3.039380 1_555
As0 Tb0 3.039380 1_554
As0 Tb0 3.039380 1_445
