# generated using pymatgen
data_Ba6Sr2CoCu7O20
_symmetry_space_group_name_H-M   'P 1'
_cell_length_a   11.42294899
_cell_length_b   11.45006961
_cell_length_c   18.06180903
_cell_angle_alpha   108.44644601
_cell_angle_beta   108.41553214
_cell_angle_gamma   90.06382072
_symmetry_Int_Tables_number   1
_chemical_formula_structural   Ba6Sr2CoCu7O20
_chemical_formula_sum   'Ba24 Sr8 Co4 Cu28 O80'
_cell_volume   2112.78009813
_cell_formula_units_Z   4
loop_
 _symmetry_equiv_pos_site_id
 _symmetry_equiv_pos_as_xyz
  1  'x, y, z'
loop_
 _atom_site_type_symbol
 _atom_site_label
 _atom_site_symmetry_multiplicity
 _atom_site_fract_x
 _atom_site_fract_y
 _atom_site_fract_z
 _atom_site_occupancy
  Ba  Ba0  1  0.30776900  0.05883100  0.11751400  1
  Ba  Ba1  1  0.30772700  0.05834000  0.62076100  1
  Ba  Ba2  1  0.30747500  0.55165000  0.11903100  1
  Ba  Ba3  1  0.79834100  0.05691800  0.11975700  1
  Ba  Ba4  1  0.80562700  0.55146100  0.11743300  1
  Ba  Ba5  1  0.80562600  0.55263400  0.61603800  1
  Ba  Ba6  1  0.18184600  0.44530700  0.38386600  1
  Ba  Ba7  1  0.18783900  0.95178100  0.38549000  1
  Ba  Ba8  1  0.18196600  0.94392800  0.87848600  1
  Ba  Ba9  1  0.69811200  0.44531000  0.38601200  1
  Ba  Ba10  1  0.68543900  0.44403200  0.88035500  1
  Ba  Ba11  1  0.68995700  0.94879500  0.38435100  1
  Ba  Ba12  1  0.68626800  0.93874000  0.88152300  1
  Ba  Ba13  1  0.06448300  0.31865900  0.11912300  1
  Ba  Ba14  1  0.05610600  0.80778500  0.11707300  1
  Ba  Ba15  1  0.54833800  0.31646900  0.11882800  1
  Ba  Ba16  1  0.54823600  0.81251600  0.11757300  1
  Ba  Ba17  1  0.55409400  0.81189500  0.61868900  1
  Ba  Ba18  1  0.43778700  0.18450900  0.38412000  1
  Ba  Ba19  1  0.44057100  0.69527600  0.38754400  1
  Ba  Ba20  1  0.44029800  0.68942400  0.88205200  1
  Ba  Ba21  1  0.93703300  0.18641400  0.87999300  1
  Ba  Ba22  1  0.93970700  0.68826700  0.38409100  1
  Ba  Ba23  1  0.92970100  0.69073900  0.88051700  1
  Sr  Sr0  1  0.30174000  0.55475200  0.60715100  1
  Sr  Sr1  1  0.80303400  0.05842700  0.61019200  1
  Sr  Sr2  1  0.19500100  0.43999000  0.88935800  1
  Sr  Sr3  1  0.05328200  0.30830300  0.61165400  1
  Sr  Sr4  1  0.05455900  0.80033200  0.60887500  1
  Sr  Sr5  1  0.55184700  0.30120300  0.60702800  1
  Sr  Sr6  1  0.44350700  0.20013800  0.89175500  1
  Sr  Sr7  1  0.94544300  0.19446000  0.39200600  1
  Co  Co0  1  0.00596900  0.01359400  0.00821400  1
  Co  Co1  1  0.99403000  0.49631600  0.99154200  1
  Co  Co2  1  0.48912500  0.99892500  0.99338600  1
  Co  Co3  1  0.74909100  0.75194100  0.01175200  1
  Cu  Cu0  1  0.00203400  0.00632400  0.50921700  1
  Cu  Cu1  1  0.00613200  0.50524200  0.51262600  1
  Cu  Cu2  1  0.50156100  0.00527400  0.50854400  1
  Cu  Cu3  1  0.49226800  0.49571700  0.99533100  1
  Cu  Cu4  1  0.49791400  0.49930200  0.50155300  1
  Cu  Cu5  1  0.24293700  0.24711600  0.99037900  1
  Cu  Cu6  1  0.25234600  0.25620400  0.51174600  1
  Cu  Cu7  1  0.24439100  0.74225600  0.99564100  1
  Cu  Cu8  1  0.24763700  0.75400000  0.50384500  1
  Cu  Cu9  1  0.74296700  0.24939100  0.99879700  1
  Cu  Cu10  1  0.75329900  0.25085400  0.50589800  1
  Cu  Cu11  1  0.75267200  0.75612900  0.50706500  1
  Cu  Cu12  1  0.11485000  0.10457900  0.24517400  1
  Cu  Cu13  1  0.11555800  0.10166600  0.74113600  1
  Cu  Cu14  1  0.12205600  0.60767200  0.25129300  1
  Cu  Cu15  1  0.12256300  0.59779200  0.75692600  1
  Cu  Cu16  1  0.62146500  0.10752300  0.25085300  1
  Cu  Cu17  1  0.62067800  0.11281700  0.75986900  1
  Cu  Cu18  1  0.62509500  0.60791200  0.25258600  1
  Cu  Cu19  1  0.60390300  0.58611700  0.73302200  1
  Cu  Cu20  1  0.38116600  0.40374700  0.26697200  1
  Cu  Cu21  1  0.36185000  0.39844500  0.74948100  1
  Cu  Cu22  1  0.36440200  0.89050200  0.24235300  1
  Cu  Cu23  1  0.36610000  0.90027100  0.75357900  1
  Cu  Cu24  1  0.86613300  0.38358800  0.23841700  1
  Cu  Cu25  1  0.86794300  0.39371200  0.74924100  1
  Cu  Cu26  1  0.86950800  0.89538500  0.24994900  1
  Cu  Cu27  1  0.86513800  0.89858800  0.74093300  1
  O  O0  1  0.11841400  0.13208700  0.49885800  1
  O  O1  1  0.12202600  0.12751800  0.99438600  1
  O  O2  1  0.12096500  0.62504600  0.50256500  1
  O  O3  1  0.10979700  0.61071500  0.99300900  1
  O  O4  1  0.62235300  0.12495700  0.50378100  1
  O  O5  1  0.60433400  0.11168700  0.99461700  1
  O  O6  1  0.62529000  0.62936400  0.49973400  1
  O  O7  1  0.62996100  0.63318800  0.99726200  1
  O  O8  1  0.12970100  0.37202500  0.00033800  1
  O  O9  1  0.12445100  0.38009700  0.50846900  1
  O  O10  1  0.10370300  0.88642700  0.00015600  1
  O  O11  1  0.12412500  0.87793700  0.50968500  1
  O  O12  1  0.61672100  0.37669900  0.00110200  1
  O  O13  1  0.62950300  0.36794500  0.50558400  1
  O  O14  1  0.62088300  0.87245000  0.00370100  1
  O  O15  1  0.62634500  0.88769900  0.51074100  1
  O  O16  1  0.37506000  0.12665100  0.50213200  1
  O  O17  1  0.36298400  0.12860200  0.99062500  1
  O  O18  1  0.36312300  0.62858700  0.50009500  1
  O  O19  1  0.36864000  0.61466400  0.99189900  1
  O  O20  1  0.87314900  0.12594900  0.49863500  1
  O  O21  1  0.87687100  0.10809200  0.99498900  1
  O  O22  1  0.88125400  0.62132700  0.50154300  1
  O  O23  1  0.86578400  0.62091200  0.99354900  1
  O  O24  1  0.36666600  0.37111700  0.99738700  1
  O  O25  1  0.37109700  0.37448300  0.50818900  1
  O  O26  1  0.37728500  0.88941000  0.00140900  1
  O  O27  1  0.37704100  0.88204300  0.50811100  1
  O  O28  1  0.88734100  0.38648400  0.00142500  1
  O  O29  1  0.88438900  0.37713800  0.50741800  1
  O  O30  1  0.85474700  0.86090400  0.00456900  1
  O  O31  1  0.87959500  0.88343100  0.51178000  1
  O  O32  1  0.06169600  0.08594900  0.13331900  1
  O  O33  1  0.06494400  0.09778000  0.63385700  1
  O  O34  1  0.06950600  0.58733500  0.14027300  1
  O  O35  1  0.08533500  0.59472500  0.65001700  1
  O  O36  1  0.56452700  0.09443600  0.14088000  1
  O  O37  1  0.57499400  0.10708700  0.65260400  1
  O  O38  1  0.56606800  0.59025900  0.14123300  1
  O  O39  1  0.55803500  0.57284600  0.62280300  1
  O  O40  1  0.43754800  0.42367100  0.37850800  1
  O  O41  1  0.43150300  0.40942600  0.86051500  1
  O  O42  1  0.42189800  0.90729500  0.35153800  1
  O  O43  1  0.42527800  0.91683700  0.86487800  1
  O  O44  1  0.91892600  0.38067200  0.34261800  1
  O  O45  1  0.93310100  0.41404900  0.86166000  1
  O  O46  1  0.92598100  0.90962800  0.35901500  1
  O  O47  1  0.92405700  0.90510600  0.84834600  1
  O  O48  1  0.32668800  0.30285900  0.16076800  1
  O  O49  1  0.31744700  0.30365600  0.63959900  1
  O  O50  1  0.30880100  0.79660200  0.12867900  1
  O  O51  1  0.32398300  0.79587000  0.64669100  1
  O  O52  1  0.81000300  0.29734300  0.12436100  1
  O  O53  1  0.82951700  0.29485400  0.64046500  1
  O  O54  1  0.82049800  0.79702300  0.13924000  1
  O  O55  1  0.82165600  0.79903900  0.63257600  1
  O  O56  1  0.17566000  0.20087000  0.35293600  1
  O  O57  1  0.18372600  0.20029700  0.84849800  1
  O  O58  1  0.17392500  0.70353100  0.36024100  1
  O  O59  1  0.18251900  0.69693900  0.86875900  1
  O  O60  1  0.68704900  0.19661900  0.36145600  1
  O  O61  1  0.68331400  0.20152400  0.87404200  1
  O  O62  1  0.68321100  0.70297400  0.36327400  1
  O  O63  1  0.66658000  0.68952800  0.83894000  1
  O  O64  1  0.49021900  0.00530800  0.24876600  1
  O  O65  1  0.48205600  0.02871400  0.76256700  1
  O  O66  1  0.49971700  0.50209900  0.25355200  1
  O  O67  1  0.45899800  0.52383600  0.73987000  1
  O  O68  1  0.98623800  0.02003000  0.25747600  1
  O  O69  1  0.97206200  0.02438900  0.74002000  1
  O  O70  1  0.99705800  0.49662200  0.24937300  1
  O  O71  1  0.97576600  0.52110000  0.75090700  1
  O  O72  1  0.24999300  0.50347900  0.25411500  1
  O  O73  1  0.21192200  0.45517600  0.75339500  1
  O  O74  1  0.23615000  0.99195700  0.24629500  1
  O  O75  1  0.21545800  0.96783400  0.73581100  1
  O  O76  1  0.74819900  0.49794700  0.24947000  1
  O  O77  1  0.71578400  0.46088400  0.73675200  1
  O  O78  1  0.73540600  0.98893500  0.24501400  1
  O  O79  1  0.73386200  0.99323600  0.75073000  1
loop_
_geom_bond_atom_site_label_1
_geom_bond_atom_site_label_2
_geom_bond_distance
_geom_bond_site_symmetry_2
Ba0 O48 2.640987 1_555
Ba0 O26 2.696761 1_545
Ba0 O10 2.836117 1_545
Ba0 O36 2.837748 1_555
Ba0 O64 2.853023 1_555
Ba0 O1 2.862764 1_554
Ba0 O17 2.891264 1_554
Ba0 O32 2.920920 1_555
Ba0 O74 2.998995 1_545
Ba0 O50 3.072102 1_545
Ba1 O27 2.695138 1_545
Ba1 O49 2.718190 1_555
Ba1 O11 2.720242 1_545
Ba1 O16 2.809768 1_555
Ba1 O65 2.823032 1_555
Ba1 O33 2.881097 1_555
Ba1 O0 2.899947 1_555
Ba1 O37 2.940519 1_555
Ba1 O75 3.040899 1_545
Ba1 O51 3.181615 1_545
Ba2 O8 2.720220 1_555
Ba2 O50 2.754265 1_555
Ba2 O24 2.761337 1_554
Ba2 O38 2.866746 1_555
Ba2 O34 2.874988 1_555
Ba2 O19 2.888324 1_554
Ba2 O3 2.909891 1_554
Ba2 O72 2.924261 1_555
Ba2 O66 2.924327 1_555
Ba2 O48 3.160261 1_555
Ba3 O52 2.729531 1_555
Ba3 O14 2.732813 1_545
Ba3 O30 2.770569 1_545
Ba3 O36 2.829515 1_555
Ba3 O5 2.854573 1_554
Ba3 O68 2.875116 1_555
Ba3 O21 2.887581 1_554
Ba3 O78 2.895144 1_545
Ba3 O32 2.949742 1_655
Ba3 O54 3.106682 1_545
Ba4 O54 2.710256 1_555
Ba4 O12 2.745970 1_555
Ba4 O28 2.750409 1_555
Ba4 O7 2.855009 1_554
Ba4 O23 2.864888 1_554
Ba4 O76 2.899218 1_555
Ba4 O38 2.914702 1_555
Ba4 O70 2.917633 1_555
Ba4 O34 2.920467 1_655
Ba4 O52 2.951459 1_555
Ba5 O13 2.698951 1_555
Ba5 O29 2.705681 1_555
Ba5 O71 2.721860 1_555
Ba5 O55 2.741124 1_555
Ba5 O22 2.792509 1_555
Ba5 O6 2.804649 1_555
Ba5 O39 2.875624 1_555
Ba5 O35 3.063995 1_655
Ba5 O53 3.119437 1_555
Ba5 O77 3.125934 1_555
Ba6 O56 2.671258 1_555
Ba6 O2 2.732849 1_555
Ba6 O18 2.748591 1_555
Ba6 O9 2.836707 1_555
Ba6 O44 2.890524 1_455
Ba6 O70 2.892765 1_455
Ba6 O25 2.909044 1_555
Ba6 O72 2.946369 1_555
Ba6 O40 2.960955 1_555
Ba6 O58 3.115583 1_555
Ba7 O0 2.727327 1_565
Ba7 O58 2.728697 1_555
Ba7 O16 2.737795 1_565
Ba7 O27 2.883140 1_555
Ba7 O46 2.890649 1_455
Ba7 O74 2.906003 1_555
Ba7 O11 2.916655 1_555
Ba7 O42 2.936860 1_555
Ba7 O68 3.007209 1_465
Ba7 O56 3.083818 1_565
Ba8 O1 2.719167 1_565
Ba8 O17 2.735520 1_565
Ba8 O59 2.777596 1_555
Ba8 O75 2.816223 1_555
Ba8 O47 2.829132 1_455
Ba8 O26 2.836786 1_556
Ba8 O10 2.866645 1_556
Ba8 O43 2.875177 1_555
Ba8 O57 3.150163 1_565
Ba8 O69 3.244517 1_465
Ba9 O22 2.713630 1_555
Ba9 O60 2.735992 1_555
Ba9 O6 2.774223 1_555
Ba9 O29 2.843289 1_555
Ba9 O13 2.888201 1_555
Ba9 O44 2.900073 1_555
Ba9 O76 2.933269 1_555
Ba9 O40 2.942957 1_555
Ba9 O66 2.974011 1_555
Ba9 O62 3.102493 1_555
Ba10 O23 2.689775 1_555
Ba10 O7 2.739620 1_555
Ba10 O61 2.742549 1_555
Ba10 O77 2.787370 1_555
Ba10 O41 2.819629 1_555
Ba10 O12 2.848026 1_556
Ba10 O28 2.874707 1_556
Ba10 O45 2.961021 1_555
Ba10 O63 3.120506 1_555
Ba10 O67 3.360031 1_555
Ba11 O20 2.714041 1_565
Ba11 O62 2.715899 1_555
Ba11 O4 2.760530 1_565
Ba11 O15 2.878580 1_555
Ba11 O46 2.886480 1_555
Ba11 O78 2.893336 1_555
Ba11 O31 2.914388 1_555
Ba11 O42 2.936834 1_555
Ba11 O60 2.993026 1_565
Ba11 O64 3.016199 1_565
Ba12 O63 2.699067 1_555
Ba12 O21 2.712392 1_565
Ba12 O5 2.760817 1_565
Ba12 O30 2.827053 1_556
Ba12 O79 2.830054 1_555
Ba12 O14 2.846720 1_556
Ba12 O43 2.902691 1_555
Ba12 O47 2.961434 1_555
Ba12 O61 3.054092 1_565
Ba12 O65 3.059190 1_565
Ba13 O8 2.714755 1_555
Ba13 O28 2.747226 1_455
Ba13 O32 2.757514 1_555
Ba13 O1 2.848911 1_554
Ba13 O48 2.869384 1_555
Ba13 O72 2.893777 1_555
Ba13 O70 2.897324 1_455
Ba13 O52 2.950500 1_455
Ba13 O34 2.975779 1_555
Ba13 O21 2.994067 1_454
Ba14 O34 2.683307 1_555
Ba14 O10 2.737429 1_555
Ba14 O30 2.760761 1_455
Ba14 O74 2.822586 1_555
Ba14 O50 2.833347 1_555
Ba14 O54 2.851329 1_455
Ba14 O3 2.856680 1_554
Ba14 O23 2.861202 1_454
Ba14 O32 3.103330 1_565
Ba14 O68 3.218207 1_465
Ba15 O36 2.692844 1_555
Ba15 O24 2.739491 1_554
Ba15 O12 2.753784 1_555
Ba15 O17 2.865671 1_554
Ba15 O48 2.879968 1_555
Ba15 O66 2.886313 1_555
Ba15 O5 2.919121 1_554
Ba15 O76 2.929284 1_555
Ba15 O52 2.969607 1_555
Ba15 O38 3.029264 1_555
Ba16 O38 2.708283 1_555
Ba16 O14 2.712937 1_555
Ba16 O26 2.752244 1_555
Ba16 O78 2.808646 1_555
Ba16 O50 2.814714 1_555
Ba16 O7 2.876108 1_554
Ba16 O19 2.878634 1_554
Ba16 O64 2.934673 1_565
Ba16 O54 3.022106 1_555
Ba16 O36 3.117863 1_565
Ba17 O27 2.681633 1_555
Ba17 O15 2.705922 1_555
Ba17 O39 2.761573 1_555
Ba17 O6 2.812788 1_555
Ba17 O18 2.818634 1_555
Ba17 O79 2.824600 1_555
Ba17 O51 2.845405 1_555
Ba17 O55 2.994304 1_555
Ba17 O37 3.232950 1_565
Ba17 O65 3.296442 1_565
Ba18 O16 2.711667 1_555
Ba18 O4 2.763679 1_555
Ba18 O40 2.772136 1_555
Ba18 O13 2.838774 1_555
Ba18 O64 2.880795 1_555
Ba18 O56 2.884515 1_555
Ba18 O25 2.886366 1_555
Ba18 O60 3.010881 1_555
Ba18 O42 3.033716 1_545
Ba18 O74 3.042324 1_545
Ba19 O42 2.697118 1_555
Ba19 O6 2.719896 1_555
Ba19 O18 2.759610 1_555
Ba19 O27 2.810136 1_555
Ba19 O15 2.865757 1_555
Ba19 O58 2.934392 1_555
Ba19 O62 2.945098 1_555
Ba19 O72 2.948768 1_555
Ba19 O66 2.975697 1_555
Ba19 O40 3.061745 1_555
Ba20 O43 2.717433 1_555
Ba20 O19 2.727353 1_555
Ba20 O7 2.727853 1_555
Ba20 O67 2.738899 1_555
Ba20 O14 2.772628 1_556
Ba20 O26 2.875608 1_556
Ba20 O59 2.881433 1_555
Ba20 O63 2.925719 1_555
Ba20 O41 3.102449 1_555
Ba21 O1 2.704728 1_655
Ba21 O45 2.728042 1_555
Ba21 O69 2.768777 1_555
Ba21 O21 2.769447 1_555
Ba21 O28 2.826726 1_556
Ba21 O8 2.851107 1_656
Ba21 O61 2.873539 1_555
Ba21 O79 3.004438 1_545
Ba21 O57 3.059217 1_655
Ba21 O47 3.082822 1_545
Ba22 O46 2.708579 1_555
Ba22 O22 2.730642 1_555
Ba22 O2 2.752141 1_655
Ba22 O62 2.845948 1_555
Ba22 O58 2.854642 1_655
Ba22 O11 2.855340 1_655
Ba22 O31 2.920037 1_555
Ba22 O76 2.953310 1_555
Ba22 O70 2.965879 1_555
Ba22 O44 3.352321 1_555
Ba23 O47 2.691785 1_555
Ba23 O23 2.704390 1_555
Ba23 O71 2.726344 1_555
Ba23 O3 2.782346 1_655
Ba23 O10 2.802307 1_656
Ba23 O30 2.828908 1_556
Ba23 O63 2.857469 1_555
Ba23 O59 2.964261 1_655
Ba23 O45 3.079005 1_555
Ba23 O77 3.360392 1_555
Co0 O21 1.829491 1_454
Co0 O10 1.832994 1_545
Co0 O1 1.983173 1_554
Co0 O32 2.025540 1_555
Co0 O30 2.427637 1_445
Co0 O47 2.603217 1_444
Co1 O28 1.837039 1_556
Co1 O3 1.848583 1_655
Co1 O23 2.046496 1_555
Co1 O45 2.107964 1_555
Co1 O8 2.108262 1_656
Co1 O34 2.410164 1_656
Co2 O5 1.832759 1_565
Co2 O26 1.858469 1_556
Co2 O17 2.071129 1_565
Co2 O43 2.085932 1_555
Co2 O14 2.096543 1_556
Co2 O36 2.395676 1_566
Co3 O30 1.796677 1_555
Co3 O7 1.820670 1_554
Co3 O14 2.016636 1_555
Co3 O23 2.026079 1_554
Co3 O54 2.072249 1_555
Cu0 O31 2.004005 1_445
Cu0 O20 2.018053 1_455
Cu0 O11 2.027582 1_545
Cu0 O33 2.040914 1_555
Cu0 O0 2.049219 1_555
Cu0 O46 2.438941 1_445
Cu1 O22 1.958013 1_455
Cu1 O9 1.971277 1_555
Cu1 O29 1.979845 1_455
Cu1 O2 1.984879 1_555
Cu1 O35 2.235338 1_555
Cu2 O15 1.961646 1_545
Cu2 O4 1.983578 1_555
Cu2 O27 1.998922 1_545
Cu2 O16 2.008370 1_555
Cu2 O37 2.352062 1_555
Cu2 O42 2.546073 1_545
Cu3 O19 1.963532 1_555
Cu3 O12 1.972202 1_556
Cu3 O24 2.039097 1_555
Cu3 O41 2.189840 1_555
Cu3 O7 2.208581 1_555
Cu3 O38 2.369840 1_556
Cu4 O39 1.964239 1_555
Cu4 O40 1.994250 1_555
Cu4 O25 2.090202 1_555
Cu4 O6 2.095768 1_555
Cu4 O13 2.128864 1_555
Cu4 O18 2.137027 1_555
Cu5 O17 1.930285 1_555
Cu5 O8 1.933729 1_556
Cu5 O24 1.948907 1_555
Cu5 O1 1.977315 1_555
Cu5 O57 2.312277 1_555
Cu6 O25 1.945341 1_555
Cu6 O0 1.993799 1_555
Cu6 O9 2.037975 1_555
Cu6 O16 2.047177 1_555
Cu6 O49 2.073880 1_555
Cu6 O56 2.580234 1_555
Cu7 O19 2.038634 1_555
Cu7 O59 2.060106 1_555
Cu7 O3 2.130233 1_555
Cu7 O50 2.153656 1_556
Cu7 O26 2.222063 1_556
Cu7 O10 2.306054 1_556
Cu8 O18 1.950906 1_555
Cu8 O11 2.004807 1_555
Cu8 O27 2.047465 1_555
Cu8 O2 2.055943 1_555
Cu8 O58 2.332590 1_555
Cu8 O51 2.332761 1_555
Cu9 O61 2.022276 1_555
Cu9 O52 2.035946 1_556
Cu9 O12 2.051938 1_556
Cu9 O5 2.200703 1_555
Cu9 O21 2.227880 1_555
Cu9 O28 2.254705 1_556
Cu10 O13 1.949667 1_555
Cu10 O20 1.983929 1_555
Cu10 O4 2.059377 1_555
Cu10 O29 2.068320 1_555
Cu10 O53 2.192351 1_555
Cu10 O60 2.343267 1_555
Cu11 O6 1.998370 1_555
Cu11 O31 2.018080 1_555
Cu11 O55 2.041339 1_555
Cu11 O15 2.087657 1_555
Cu11 O22 2.133034 1_555
Cu11 O62 2.332744 1_555
Cu12 O56 1.809011 1_555
Cu12 O32 1.856810 1_555
Cu12 O68 1.866579 1_455
Cu12 O74 1.893666 1_545
Cu13 O57 1.816641 1_555
Cu13 O33 1.824370 1_555
Cu13 O69 1.853304 1_455
Cu13 O75 1.907788 1_545
Cu14 O58 1.822931 1_555
Cu14 O34 1.838249 1_555
Cu14 O72 1.885983 1_555
Cu14 O70 1.895653 1_455
Cu15 O35 1.830016 1_555
Cu15 O71 1.848215 1_455
Cu15 O59 1.873748 1_555
Cu15 O73 1.921325 1_555
Cu16 O60 1.831875 1_555
Cu16 O36 1.840134 1_555
Cu16 O78 1.883854 1_545
Cu16 O64 1.884489 1_555
Cu17 O37 1.819575 1_555
Cu17 O65 1.874074 1_555
Cu17 O61 1.880633 1_555
Cu17 O79 1.889263 1_545
Cu18 O62 1.845294 1_555
Cu18 O38 1.850996 1_555
Cu18 O66 1.882725 1_555
Cu18 O76 1.890780 1_555
Cu19 O63 1.809330 1_555
Cu19 O39 1.846643 1_555
Cu19 O67 1.856397 1_555
Cu19 O77 1.924789 1_555
Cu20 O48 1.800891 1_555
Cu20 O40 1.847783 1_555
Cu20 O66 1.880833 1_555
Cu20 O72 1.885440 1_555
Cu21 O49 1.836774 1_555
Cu21 O73 1.846598 1_555
Cu21 O41 1.871589 1_555
Cu21 O67 1.897057 1_555
Cu22 O42 1.816271 1_555
Cu22 O74 1.875677 1_555
Cu22 O50 1.884789 1_555
Cu22 O64 1.897689 1_565
Cu23 O51 1.827300 1_555
Cu23 O43 1.853084 1_555
Cu23 O75 1.863783 1_555
Cu23 O65 1.911133 1_565
Cu24 O44 1.797122 1_555
Cu24 O52 1.872640 1_555
Cu24 O76 1.891475 1_555
Cu24 O70 1.896716 1_555
Cu25 O53 1.838645 1_555
Cu25 O45 1.864575 1_555
Cu25 O77 1.878430 1_555
Cu25 O71 1.894784 1_555
Cu26 O46 1.821242 1_555
Cu26 O54 1.856450 1_555
Cu26 O78 1.865385 1_555
Cu26 O68 1.895194 1_565
Cu27 O47 1.818160 1_555
Cu27 O55 1.830054 1_555
Cu27 O79 1.871995 1_555
Cu27 O69 1.894924 1_565
O0 Sr7 2.569978 1_455
O0 Sr3 2.671112 1_555
O2 Sr4 2.602959 1_555
O2 Sr0 2.642282 1_555
O3 Sr2 2.667007 1_555
O4 Sr5 2.601860 1_555
O4 Sr1 2.637763 1_555
O5 Sr6 2.625039 1_555
O8 Sr2 2.666565 1_554
O9 Sr0 2.594627 1_555
O9 Sr3 2.595263 1_555
O9 Sr7 2.750858 1_455
O11 Sr4 2.556569 1_555
O12 Sr6 2.626391 1_554
O13 Sr5 2.576735 1_555
O15 Sr1 2.569054 1_565
O16 Sr5 2.615250 1_555
O17 Sr6 2.582192 1_555
O18 Sr0 2.614400 1_555
O19 Sr2 2.586595 1_555
O20 Sr7 2.639313 1_555
O20 Sr1 2.702439 1_555
O20 Sr3 2.720268 1_655
O22 Sr4 2.632464 1_655
O24 Sr2 2.614206 1_555
O24 Sr6 2.634651 1_555
O25 Sr0 2.578106 1_555
O25 Sr5 2.603258 1_555
O29 Sr3 2.556429 1_655
O29 Sr7 2.714651 1_555
O31 Sr1 2.582901 1_565
O31 Sr4 2.611701 1_655
O33 Sr3 2.562772 1_555
O33 Sr1 2.898908 1_455
O35 Sr4 2.676190 1_555
O35 Sr0 2.811961 1_555
O35 Sr3 3.125476 1_555
O37 Sr5 2.590239 1_555
O37 Sr1 2.945602 1_555
O39 Sr0 2.851773 1_555
O39 Sr5 3.030891 1_555
O41 Sr6 2.624361 1_555
O41 Sr2 2.910014 1_555
O43 Sr6 3.120811 1_565
O44 Sr7 2.543196 1_555
O45 Sr2 2.871753 1_655
O46 Sr7 3.118610 1_565
O49 Sr3 2.901417 1_555
O49 Sr5 2.915650 1_555
O49 Sr0 3.105272 1_555
O51 Sr0 2.613952 1_555
O51 Sr4 2.938565 1_555
O53 Sr1 2.583767 1_555
O53 Sr3 2.778156 1_655
O53 Sr5 3.041122 1_555
O55 Sr4 2.825756 1_655
O55 Sr1 3.120356 1_565
O56 Sr7 2.936634 1_455
O57 Sr2 2.598250 1_555
O57 Sr6 2.819991 1_555
O59 Sr2 3.078107 1_555
O60 Sr7 2.827885 1_555
O61 Sr6 2.857134 1_555
O65 Sr6 2.691448 1_555
O67 Sr0 2.629877 1_555
O68 Sr7 2.785073 1_555
O69 Sr1 2.664210 1_555
O71 Sr3 3.252769 1_655
O73 Sr2 2.582303 1_555
O73 Sr3 2.646429 1_555
O75 Sr4 2.619150 1_555
O77 Sr5 2.617005 1_555
O78 Sr7 3.217455 1_565
O79 Sr1 3.176445 1_565
