# generated using pymatgen
data_Na2La7Ti8Mn2O30
_symmetry_space_group_name_H-M   'P 1'
_cell_length_a   5.55623900
_cell_length_b   7.83892370
_cell_length_c   14.81971755
_cell_angle_alpha   105.18452140
_cell_angle_beta   100.59500844
_cell_angle_gamma   89.51167785
_symmetry_Int_Tables_number   1
_chemical_formula_structural   Na2La7Ti8Mn2O30
_chemical_formula_sum   'Na2 La7 Ti8 Mn2 O30'
_cell_volume   611.78169310
_cell_formula_units_Z   1
loop_
 _symmetry_equiv_pos_site_id
 _symmetry_equiv_pos_as_xyz
  1  'x, y, z'
loop_
 _atom_site_type_symbol
 _atom_site_label
 _atom_site_symmetry_multiplicity
 _atom_site_fract_x
 _atom_site_fract_y
 _atom_site_fract_z
 _atom_site_occupancy
  Na  Na0  1  0.10156700  0.34952100  0.20074000  1
  Na  Na1  1  0.49816000  0.74960600  0.99897900  1
  La  La0  1  0.49834500  0.24582600  0.99785800  1
  La  La1  1  0.09851700  0.85034300  0.19652900  1
  La  La2  1  0.70114500  0.45123200  0.40144700  1
  La  La3  1  0.89853300  0.65530400  0.80664900  1
  La  La4  1  0.69848200  0.95123300  0.40009700  1
  La  La5  1  0.29953900  0.55244600  0.60322700  1
  La  La6  1  0.89932000  0.15029900  0.79630500  1
  Ti  Ti0  1  0.00498900  0.99736600  0.00373200  1
  Ti  Ti1  1  0.58920000  0.59627900  0.19819600  1
  Ti  Ti2  1  0.20539300  0.19901900  0.40265400  1
  Ti  Ti3  1  0.99789200  0.49835700  0.00572900  1
  Ti  Ti4  1  0.79879400  0.80590000  0.60321800  1
  Ti  Ti5  1  0.60966400  0.10471200  0.19921300  1
  Ti  Ti6  1  0.39738000  0.39889200  0.79860900  1
  Ti  Ti7  1  0.19680100  0.70307300  0.40286400  1
  Mn  Mn0  1  0.80181900  0.29040200  0.59909500  1
  Mn  Mn1  1  0.40110100  0.90081200  0.80178900  1
  O  O0  1  0.32502500  0.57497800  0.09029800  1
  O  O1  1  0.01613700  0.26688800  0.02597300  1
  O  O2  1  0.92110000  0.15800900  0.28022700  1
  O  O3  1  0.83634600  0.58939000  0.11292800  1
  O  O4  1  0.76480900  0.01742000  0.08711200  1
  O  O5  1  0.58999500  0.33972200  0.17629400  1
  O  O6  1  0.61252800  0.86206500  0.22434600  1
  O  O7  1  0.52292300  0.75623500  0.47960800  1
  O  O8  1  0.44383400  0.17524700  0.30923300  1
  O  O9  1  0.36813400  0.62303200  0.28661000  1
  O  O10  1  0.27938000  0.02564900  0.11080000  1
  O  O11  1  0.18626400  0.93423400  0.37094700  1
  O  O12  1  0.20875300  0.46030600  0.41790000  1
  O  O13  1  0.12791700  0.40126100  0.70188300  1
  O  O14  1  0.02210200  0.76552700  0.50295700  1
  O  O15  1  0.94529700  0.21890700  0.46954600  1
  O  O16  1  0.86993500  0.63745000  0.31217200  1
  O  O17  1  0.78437700  0.53991200  0.56923300  1
  O  O18  1  0.80551300  0.04560600  0.62347500  1
  O  O19  1  0.74408500  0.98496500  0.89107100  1
  O  O20  1  0.63940100  0.39422300  0.72374200  1
  O  O21  1  0.57803100  0.79200200  0.69019200  1
  O  O22  1  0.46619300  0.23137600  0.49920100  1
  O  O23  1  0.39522500  0.14589900  0.79065900  1
  O  O24  1  0.41564700  0.66923500  0.82740800  1
  O  O25  1  0.22623600  0.99813200  0.91323400  1
  O  O26  1  0.16195300  0.41469600  0.89218300  1
  O  O27  1  0.06588200  0.81018100  0.70784500  1
  O  O28  1  0.99278300  0.74270100  0.98069900  1
  O  O29  1  0.68755500  0.42413200  0.91529900  1
loop_
_geom_bond_atom_site_label_1
_geom_bond_atom_site_label_2
_geom_bond_distance
_geom_bond_site_symmetry_2
Na0 O1 2.455051 1_555
Na0 O2 2.456264 1_455
Na0 O9 2.518275 1_555
Na0 O5 2.797668 1_455
Na0 O5 2.800963 1_555
Na0 O10 2.804819 1_555
Na0 O3 2.816043 1_455
Na0 O8 2.837239 1_555
Na0 O16 2.873541 1_455
Na1 O24 2.410225 1_555
Na1 O0 2.470307 1_556
Na1 O4 2.492655 1_566
Na1 O28 2.770620 1_455
Na1 O10 2.779146 1_566
Na1 O3 2.804240 1_556
Na1 O28 2.809399 1_555
Na1 O29 2.816272 1_555
Na1 O25 2.869412 1_555
La0 O25 2.388687 1_545
La0 O29 2.439206 1_555
La0 O5 2.507062 1_556
La0 O19 2.757172 1_545
La0 O4 2.760910 1_556
La0 O26 2.768720 1_555
La0 O0 2.837714 1_556
La1 O3 2.429163 1_455
La1 O10 2.433119 1_565
La1 O11 2.450114 1_555
La1 O2 2.677482 1_465
La1 O0 2.761134 1_555
La1 O9 2.768866 1_555
La1 O4 2.783544 1_465
La1 O6 2.802699 1_455
La1 O6 2.808313 1_555
La1 O28 3.031730 1_454
La1 O8 3.103879 1_565
La1 O16 3.109665 1_455
La2 O17 2.357352 1_555
La2 O16 2.500429 1_555
La2 O8 2.525356 1_555
La2 O15 2.567631 1_555
La2 O7 2.639949 1_555
La2 O12 2.785779 1_655
La2 O12 2.789673 1_555
La2 O9 2.851974 1_555
La2 O2 2.932659 1_555
La2 O14 2.942796 1_655
La2 O22 2.968979 1_555
La2 O5 3.162686 1_555
La3 O20 2.419422 1_555
La3 O27 2.435927 1_655
La3 O28 2.445493 1_555
La3 O13 2.658087 1_655
La3 O21 2.665359 1_555
La3 O24 2.754298 1_555
La3 O19 2.764607 1_555
La3 O26 2.798129 1_655
La3 O24 2.832773 1_655
La4 O15 2.396121 1_565
La4 O7 2.463360 1_555
La4 O6 2.468817 1_555
La4 O16 2.719032 1_555
La4 O8 2.719295 1_565
La4 O22 2.757628 1_565
La4 O14 2.790330 1_655
La4 O11 2.797914 1_555
La4 O11 2.818505 1_655
La5 O21 2.372775 1_555
La5 O13 2.427153 1_555
La5 O12 2.603252 1_555
La5 O27 2.688057 1_555
La5 O14 2.790764 1_555
La5 O17 2.811613 1_455
La5 O17 2.826488 1_555
La5 O22 2.832169 1_555
La5 O20 2.859075 1_555
La6 O19 2.411229 1_545
La6 O18 2.433233 1_555
La6 O26 2.488037 1_655
La6 O20 2.712410 1_555
La6 O25 2.759242 1_645
La6 O23 2.771621 1_655
La6 O23 2.786939 1_555
La6 O29 2.799801 1_555
La6 O27 2.873425 1_645
Mn0 O18 2.042813 1_555
Mn0 O17 2.113097 1_555
Mn0 O22 2.126949 1_555
Mn0 O15 2.151070 1_555
Mn0 O13 2.162622 1_655
Mn0 O20 2.168397 1_555
Mn1 O24 1.947642 1_555
Mn1 O23 1.970358 1_565
Mn1 O25 2.042332 1_555
Mn1 O21 2.067298 1_555
Mn1 O19 2.110569 1_555
Mn1 O27 2.112578 1_555
O0 Ti1 1.934024 1_555
O0 Ti3 2.005451 1_455
O1 Ti3 1.914007 1_455
O1 Ti0 2.050893 1_545
O2 Ti5 1.896288 1_555
O2 Ti2 2.130612 1_655
O3 Ti3 1.938634 1_555
O3 Ti1 2.021509 1_555
O4 Ti0 1.957939 1_645
O4 Ti5 1.972892 1_555
O5 Ti1 1.951521 1_555
O5 Ti5 1.957500 1_555
O6 Ti1 2.017676 1_555
O6 Ti5 2.031101 1_565
O7 Ti7 1.938377 1_555
O7 Ti4 2.112063 1_555
O8 Ti5 1.970937 1_555
O8 Ti2 2.059566 1_555
O9 Ti1 1.926912 1_555
O9 Ti7 2.072388 1_555
O10 Ti0 1.955270 1_545
O10 Ti5 2.044110 1_555
O11 Ti7 1.986883 1_555
O11 Ti2 2.003696 1_565
O12 Ti7 1.972344 1_555
O12 Ti2 2.000807 1_555
O13 Ti6 1.876432 1_555
O14 Ti7 1.877007 1_555
O14 Ti4 2.066942 1_455
O15 Ti2 1.880827 1_655
O16 Ti7 2.031143 1_655
O16 Ti1 2.035783 1_555
O17 Ti4 2.011328 1_555
O18 Ti4 1.823147 1_545
O19 Ti0 1.981374 1_656
O20 Ti6 1.888697 1_555
O21 Ti4 1.958320 1_555
O22 Ti2 1.806942 1_555
O23 Ti6 1.955649 1_555
O24 Ti6 2.048752 1_555
O25 Ti0 1.980033 1_556
O26 Ti3 2.017016 1_456
O26 Ti6 2.055186 1_555
O27 Ti4 1.932619 1_455
O28 Ti0 1.934723 1_656
O28 Ti3 2.043167 1_556
O29 Ti3 1.966374 1_556
O29 Ti6 2.104764 1_555
