# generated using pymatgen
data_Li7Mn2(CoO4)3
_symmetry_space_group_name_H-M   'P 1'
_cell_length_a   2.94158200
_cell_length_b   6.46271871
_cell_length_c   11.88815965
_cell_angle_alpha   103.63822899
_cell_angle_beta   92.26648629
_cell_angle_gamma   103.07014895
_symmetry_Int_Tables_number   1
_chemical_formula_structural   Li7Mn2(CoO4)3
_chemical_formula_sum   'Li7 Mn2 Co3 O12'
_cell_volume   212.90712201
_cell_formula_units_Z   1
loop_
 _symmetry_equiv_pos_site_id
 _symmetry_equiv_pos_as_xyz
  1  'x, y, z'
loop_
 _atom_site_type_symbol
 _atom_site_label
 _atom_site_symmetry_multiplicity
 _atom_site_fract_x
 _atom_site_fract_y
 _atom_site_fract_z
 _atom_site_occupancy
  Li  Li0  1  0.00133900  0.00327400  0.25118000  1
  Li  Li1  1  0.32787600  0.66386800  0.58543900  1
  Li  Li2  1  0.66279600  0.32977900  0.41974700  1
  Li  Li3  1  0.00246600  0.99626300  0.74934400  1
  Li  Li4  1  0.67522700  0.34763500  0.91398000  1
  Li  Li5  1  0.33222000  0.66032900  0.07678700  1
  Li  Li6  1  0.32411700  0.66054500  0.83639300  1
  Mn  Mn0  1  0.98900600  0.98913900  0.99637600  1
  Mn  Mn1  1  0.34194100  0.66750500  0.33236500  1
  Co  Co0  1  0.66963600  0.34898100  0.67450700  1
  Co  Co1  1  0.99809500  0.00379800  0.50234200  1
  Co  Co2  1  0.67493000  0.33263800  0.16452000  1
  O  O0  1  0.51528300  0.01490700  0.11431800  1
  O  O1  1  0.81694100  0.68158700  0.45547700  1
  O  O2  1  0.19246600  0.34149600  0.27772700  1
  O  O3  1  0.48265100  0.02114800  0.62098400  1
  O  O4  1  0.13759300  0.32870500  0.78262900  1
  O  O5  1  0.83737400  0.68892700  0.96350200  1
  O  O6  1  0.52436000  0.99156700  0.37851500  1
  O  O7  1  0.82071900  0.63748900  0.70104800  1
  O  O8  1  0.17881400  0.31504900  0.54479600  1
  O  O9  1  0.48112200  0.00259300  0.89111800  1
  O  O10  1  0.15166900  0.31996400  0.05472800  1
  O  O11  1  0.86135900  0.65281400  0.21218000  1
loop_
_geom_bond_atom_site_label_1
_geom_bond_atom_site_label_2
_geom_bond_distance
_geom_bond_site_symmetry_2
Li0 O2 2.073255 1_555
Li0 O6 2.107096 1_445
Li0 O11 2.140624 1_445
Li0 O6 2.141661 1_545
Li0 O0 2.149293 1_455
Li0 O0 2.267002 1_555
Li1 O7 2.020990 1_555
Li1 O7 2.073937 1_455
Li1 O8 2.128423 1_555
Li1 O1 2.153290 1_455
Li1 O1 2.157437 1_555
Li1 O3 2.183236 1_565
Li2 O6 2.063993 1_545
Li2 O8 2.102078 1_555
Li2 O8 2.115824 1_655
Li2 O1 2.149069 1_555
Li2 O2 2.166406 1_555
Li2 O2 2.344963 1_655
Li3 O4 2.032469 1_565
Li3 O3 2.129100 1_565
Li3 O9 2.139759 1_565
Li3 O3 2.175986 1_465
Li3 O7 2.186070 1_455
Li3 O9 2.322608 1_465
Li4 O5 2.080552 1_555
Li4 O4 2.110996 1_655
Li4 O9 2.120951 1_555
Li4 O4 2.140448 1_555
Li4 O10 2.205644 1_656
Li4 O10 2.328934 1_556
Li5 O5 2.012650 1_454
Li5 O5 2.051194 1_554
Li5 O10 2.092370 1_555
Li5 O0 2.163543 1_565
Li5 O11 2.166632 1_455
Li5 O11 2.211039 1_555
Li6 O4 2.025458 1_555
Li6 O5 2.039630 1_555
Li6 O9 2.087919 1_565
Li6 O7 2.098217 1_455
Li6 O5 2.127506 1_455
Li6 O7 2.217275 1_555
Mn0 O5 1.831184 1_555
Mn0 O9 1.941018 1_565
Mn0 O9 1.951043 1_665
Mn0 O0 1.997957 1_666
Mn0 O0 2.021105 1_566
Mn0 O10 2.023106 1_666
Mn1 O11 1.940220 1_455
Mn1 O1 1.954628 1_555
Mn1 O6 1.975271 1_555
Mn1 O2 1.991815 1_555
Mn1 O11 2.135238 1_555
Mn1 O1 2.171363 1_455
Co0 O7 1.763600 1_555
Co0 O4 1.893479 1_655
Co0 O3 2.001440 1_555
Co0 O8 2.007911 1_555
Co0 O4 2.065070 1_555
Co0 O8 2.200243 1_655
Co1 O8 1.897351 1_655
Co1 O3 1.930719 1_655
Co1 O6 1.961691 1_545
Co1 O1 1.964207 1_545
Co1 O3 2.114778 1_555
Co1 O6 2.179549 1_645
Co2 O0 1.938289 1_555
Co2 O11 1.952613 1_555
Co2 O10 1.952732 1_555
Co2 O10 1.955317 1_655
Co2 O2 1.973408 1_655
Co2 O2 1.995032 1_555
