# generated using pymatgen
data_UN2O7
_symmetry_space_group_name_H-M   'P 1'
_cell_length_a   5.13949600
_cell_length_b   10.99406200
_cell_length_c   12.82602600
_cell_angle_alpha   90.00000000
_cell_angle_beta   90.00000000
_cell_angle_gamma   90.00000000
_symmetry_Int_Tables_number   1
_chemical_formula_structural   UN2O7
_chemical_formula_sum   'U4 N8 O28'
_cell_volume   724.72097369
_cell_formula_units_Z   4
loop_
 _symmetry_equiv_pos_site_id
 _symmetry_equiv_pos_as_xyz
  1  'x, y, z'
loop_
 _atom_site_type_symbol
 _atom_site_label
 _atom_site_symmetry_multiplicity
 _atom_site_fract_x
 _atom_site_fract_y
 _atom_site_fract_z
 _atom_site_occupancy
  U  U0  1  0.50000000  0.50000000  0.00000000  1
  U  U1  1  0.00000000  0.00000000  0.50000000  1
  U  U2  1  0.00000000  0.00000000  0.00000000  1
  U  U3  1  0.50000000  0.50000000  0.50000000  1
  N  N0  1  0.39888900  0.93766300  0.90852300  1
  N  N1  1  0.10111100  0.56233700  0.40852300  1
  N  N2  1  0.89888900  0.56233700  0.09147700  1
  N  N3  1  0.60111100  0.93766300  0.59147700  1
  N  N4  1  0.60111100  0.06233700  0.09147700  1
  N  N5  1  0.89888900  0.43766300  0.59147700  1
  N  N6  1  0.10111100  0.43766300  0.90852300  1
  N  N7  1  0.39888900  0.06233700  0.40852300  1
  O  O0  1  0.36488800  0.92566000  0.61281400  1
  O  O1  1  0.13511200  0.57434000  0.11281400  1
  O  O2  1  0.86488800  0.57434000  0.38718600  1
  O  O3  1  0.63511200  0.92566000  0.88718600  1
  O  O4  1  0.63511200  0.07434000  0.38718600  1
  O  O5  1  0.86488800  0.42566000  0.88718600  1
  O  O6  1  0.13511200  0.42566000  0.61281400  1
  O  O7  1  0.36488800  0.07434000  0.11281400  1
  O  O8  1  0.00007800  0.85902800  0.42977800  1
  O  O9  1  0.49992200  0.64097200  0.92977800  1
  O  O10  1  0.50007800  0.64097200  0.57022200  1
  O  O11  1  0.99992200  0.85902800  0.07022200  1
  O  O12  1  0.99992200  0.14097200  0.57022200  1
  O  O13  1  0.50007800  0.35902800  0.07022200  1
  O  O14  1  0.49992200  0.35902800  0.42977800  1
  O  O15  1  0.00007800  0.14097200  0.92977800  1
  O  O16  1  0.22787400  0.89862900  0.84750700  1
  O  O17  1  0.27212600  0.60137100  0.34750700  1
  O  O18  1  0.72787400  0.60137100  0.15249300  1
  O  O19  1  0.77212600  0.89862900  0.65249300  1
  O  O20  1  0.77212600  0.10137100  0.15249300  1
  O  O21  1  0.72787400  0.39862900  0.65249300  1
  O  O22  1  0.27212600  0.39862900  0.84750700  1
  O  O23  1  0.22787400  0.10137100  0.34750700  1
  O  O24  1  0.00000000  0.63282700  0.75000000  1
  O  O25  1  0.50000000  0.86717300  0.25000000  1
  O  O26  1  0.00000000  0.36717300  0.25000000  1
  O  O27  1  0.50000000  0.13282700  0.75000000  1
loop_
_geom_bond_atom_site_label_1
_geom_bond_atom_site_label_2
_geom_bond_distance
_geom_bond_site_symmetry_2
N0 O3 1.251506 1_555
N0 O16 1.252651 1_555
N1 O2 1.251506 1_455
N1 O17 1.252651 1_555
N2 O1 1.251506 1_655
N2 O18 1.252651 1_555
N3 O0 1.251506 1_555
N3 O19 1.252651 1_555
N4 O7 1.251506 1_555
N4 O20 1.252651 1_555
N5 O6 1.251506 1_655
N5 O21 1.252651 1_555
N6 O5 1.251506 1_455
N6 O22 1.252651 1_555
N7 O4 1.251506 1_555
N7 O23 1.252651 1_555
O0 U1 2.505705 1_565
O1 U0 2.505705 1_555
O2 U3 2.505705 1_555
O3 U2 2.505705 1_666
O4 U1 2.505705 1_655
O5 U0 2.505705 1_556
O6 U3 2.505705 1_555
O7 U2 2.505705 1_555
O8 U1 1.792556 1_565
O9 U0 1.792556 1_556
O10 U3 1.792556 1_555
O11 U2 1.792556 1_665
O12 U1 1.792556 1_655
O13 U0 1.792556 1_555
O14 U3 1.792556 1_555
O15 U2 1.792556 1_556
