# generated using pymatgen
data_InSb3Pb4O13
_symmetry_space_group_name_H-M   'P 1'
_cell_length_a   7.58615153
_cell_length_b   7.58615153
_cell_length_c   7.58615098
_cell_angle_alpha   60.33834119
_cell_angle_beta   60.33834119
_cell_angle_gamma   60.33833963
_symmetry_Int_Tables_number   1
_chemical_formula_structural   InSb3Pb4O13
_chemical_formula_sum   'In1 Sb3 Pb4 O13'
_cell_volume   311.07216847
_cell_formula_units_Z   1
loop_
 _symmetry_equiv_pos_site_id
 _symmetry_equiv_pos_as_xyz
  1  'x, y, z'
loop_
 _atom_site_type_symbol
 _atom_site_label
 _atom_site_symmetry_multiplicity
 _atom_site_fract_x
 _atom_site_fract_y
 _atom_site_fract_z
 _atom_site_occupancy
  In  In0  1  0.49990800  0.49990800  0.49990800  1
  Sb  Sb0  1  0.00092600  0.49987300  0.49987300  1
  Sb  Sb1  1  0.49987300  0.49987300  0.00092600  1
  Sb  Sb2  1  0.49987300  0.00092600  0.49987300  1
  Pb  Pb0  1  0.99869400  0.99869400  0.99869400  1
  Pb  Pb1  1  0.50075500  0.00066200  0.00066200  1
  Pb  Pb2  1  0.00066200  0.00066200  0.50075500  1
  Pb  Pb3  1  0.00066200  0.50075500  0.00066200  1
  O  O0  1  0.84639200  0.41860900  0.41860900  1
  O  O1  1  0.42207500  0.81808300  0.81808300  1
  O  O2  1  0.41860900  0.41860900  0.84639200  1
  O  O3  1  0.81808300  0.81808300  0.42207500  1
  O  O4  1  0.81808300  0.42207500  0.81808300  1
  O  O5  1  0.41860900  0.84639200  0.41860900  1
  O  O6  1  0.15665200  0.57933200  0.57933200  1
  O  O7  1  0.57712400  0.18345600  0.18345600  1
  O  O8  1  0.57933200  0.57933200  0.15665200  1
  O  O9  1  0.18345600  0.18345600  0.57712400  1
  O  O10  1  0.18345600  0.57712400  0.18345600  1
  O  O11  1  0.57933200  0.15665200  0.57933200  1
  O  O12  1  0.12244200  0.12244200  0.12244200  1
loop_
_geom_bond_atom_site_label_1
_geom_bond_atom_site_label_2
_geom_bond_distance
_geom_bond_site_symmetry_2
In0 O8 2.181829 1_555
In0 O11 2.181829 1_555
In0 O6 2.181829 1_555
In0 O2 2.199351 1_555
In0 O0 2.199351 1_555
In0 O5 2.199351 1_555
O0 Sb0 1.985245 1_655
O0 Pb3 2.627621 1_655
O0 Pb2 2.627621 1_655
O1 Sb2 2.045899 1_565
O1 Sb1 2.045899 1_556
O1 Pb0 2.686511 1_455
O1 Pb1 2.779996 1_566
O2 Sb1 1.985245 1_556
O2 Pb3 2.627621 1_556
O2 Pb1 2.627621 1_556
O3 Sb2 2.045899 1_565
O3 Sb0 2.045899 1_655
O3 Pb0 2.686511 1_554
O3 Pb2 2.779997 1_665
O4 Sb0 2.045899 1_655
O4 Sb1 2.045899 1_556
O4 Pb0 2.686511 1_545
O4 Pb3 2.779996 1_656
O5 Sb2 1.985245 1_565
O5 Pb1 2.627621 1_565
O5 Pb2 2.627621 1_565
O6 Sb0 1.972709 1_555
O6 Pb3 2.653421 1_556
O6 Pb2 2.653422 1_565
O7 Sb2 2.035632 1_555
O7 Sb1 2.035632 1_555
O7 Pb0 2.688521 1_544
O7 Pb1 2.770393 1_555
O8 Sb1 1.972709 1_555
O8 Pb1 2.653422 1_565
O8 Pb3 2.653422 1_655
O9 Sb2 2.035632 1_555
O9 Sb0 2.035632 1_555
O9 Pb0 2.688521 1_445
O9 Pb2 2.770393 1_555
O10 Sb0 2.035632 1_555
O10 Sb1 2.035632 1_555
O10 Pb0 2.688521 1_454
O10 Pb3 2.770393 1_555
O11 Sb2 1.972709 1_555
O11 Pb1 2.653421 1_556
O11 Pb2 2.653422 1_655
O12 Pb0 2.293613 1_444
O12 Pb2 2.353688 1_555
O12 Pb1 2.353688 1_555
O12 Pb3 2.353688 1_555
