# generated using pymatgen
data_Li15Ge4
_symmetry_space_group_name_H-M   'P 1'
_cell_length_a   9.17463407
_cell_length_b   9.17463227
_cell_length_c   9.17463300
_cell_angle_alpha   109.47121782
_cell_angle_beta   109.47121383
_cell_angle_gamma   109.47122519
_symmetry_Int_Tables_number   1
_chemical_formula_structural   Li15Ge4
_chemical_formula_sum   'Li30 Ge8'
_cell_volume   594.48959087
_cell_formula_units_Z   2
loop_
 _symmetry_equiv_pos_site_id
 _symmetry_equiv_pos_as_xyz
  1  'x, y, z'
loop_
 _atom_site_type_symbol
 _atom_site_label
 _atom_site_symmetry_multiplicity
 _atom_site_fract_x
 _atom_site_fract_y
 _atom_site_fract_z
 _atom_site_occupancy
  Li  Li0  1  0.88487734  0.47032537  0.16020181  1
  Li  Li1  1  0.02967463  0.91455196  0.68987643  1
  Li  Li2  1  0.33979819  0.81012357  0.72467553  1
  Li  Li3  1  0.61512266  0.77532447  0.58544804  1
  Li  Li4  1  0.77532447  0.58544804  0.61512266  1
  Li  Li5  1  0.58544804  0.61512266  0.77532447  1
  Li  Li6  1  0.38487734  0.66020181  0.97032537  1
  Li  Li7  1  0.18987643  0.41455196  0.52967463  1
  Li  Li8  1  0.25000000  0.62500000  0.37500000  1
  Li  Li9  1  0.37500000  0.25000000  0.62500000  1
  Li  Li10  1  0.12500000  0.75000000  0.87500000  1
  Li  Li11  1  0.87500000  0.12500000  0.75000000  1
  Li  Li12  1  0.62500000  0.37500000  0.25000000  1
  Li  Li13  1  0.75000000  0.87500000  0.12500000  1
  Li  Li14  1  0.11512266  0.08544804  0.27532447  1
  Li  Li15  1  0.91455196  0.68987643  0.02967463  1
  Li  Li16  1  0.16020181  0.88487734  0.47032537  1
  Li  Li17  1  0.47032537  0.16020181  0.88487734  1
  Li  Li18  1  0.72467553  0.33979819  0.81012357  1
  Li  Li19  1  0.81012357  0.72467553  0.33979819  1
  Li  Li20  1  0.68987643  0.02967463  0.91455196  1
  Li  Li21  1  0.83979819  0.22467553  0.31012357  1
  Li  Li22  1  0.52967463  0.18987643  0.41455196  1
  Li  Li23  1  0.66020181  0.97032537  0.38487734  1
  Li  Li24  1  0.22467553  0.31012357  0.83979819  1
  Li  Li25  1  0.41455196  0.52967463  0.18987643  1
  Li  Li26  1  0.97032537  0.38487734  0.66020181  1
  Li  Li27  1  0.27532447  0.11512266  0.08544804  1
  Li  Li28  1  0.08544804  0.27532447  0.11512266  1
  Li  Li29  1  0.31012357  0.83979819  0.22467553  1
  Ge  Ge0  1  0.91493906  0.91493906  0.91493906  1
  Ge  Ge1  1  0.08506094  0.50000000  0.00000000  1
  Ge  Ge2  1  0.50000000  0.00000000  0.08506094  1
  Ge  Ge3  1  -0.00000000  0.08506094  0.50000000  1
  Ge  Ge4  1  0.50000000  0.00000000  0.58506094  1
  Ge  Ge5  1  -0.00000000  0.58506094  0.50000000  1
  Ge  Ge6  1  0.58506094  0.50000000  0.00000000  1
  Ge  Ge7  1  0.41493906  0.41493906  0.41493906  1
loop_
_geom_bond_atom_site_label_1
_geom_bond_atom_site_label_2
_geom_bond_distance
_geom_bond_site_symmetry_2
Li0 Li12 2.743752 1_555
Li0 Li8 2.772085 1_655
Li1 Li10 2.743752 1_555
Li1 Li11 2.772084 1_465
Li2 Li8 2.743752 1_555
Li3 Li8 2.772085 1_555
Li5 Li9 2.772084 1_555
Li7 Li9 2.743752 1_555
Li7 Li8 2.772084 1_555
Li10 Li29 2.743752 1_556
Li10 Li6 2.743752 1_555
Li10 Li4 2.743752 1_455
Li10 Li26 2.772084 1_455
Li10 Li27 2.772084 1_566
Li10 Li2 2.772084 1_555
Li10 Li15 2.772084 1_456
Li11 Li26 2.743752 1_555
Li11 Li20 2.743752 1_555
Li11 Li3 2.743752 1_545
Li11 Li24 2.743752 1_655
Li11 Li18 2.772084 1_555
Li11 Li23 2.772085 1_545
Li11 Li28 2.772085 1_656
Li12 Li19 2.743752 1_555
Li12 Li22 2.743752 1_555
Li12 Li27 2.743752 1_555
Li12 Li17 2.772084 1_554
Li12 Li4 2.772084 1_555
Li12 Li21 2.772084 1_555
Li12 Li25 2.772085 1_555
Li13 Li21 2.743752 1_565
Li13 Li23 2.743752 1_555
Li13 Li15 2.743752 1_555
Li13 Li5 2.743752 1_554
Li13 Li19 2.772084 1_555
Li13 Li20 2.772084 1_564
Li13 Li6 2.772085 1_554
Li13 Li14 2.772085 1_665
Li14 Li9 2.743752 1_555
Li16 Li8 2.743752 1_555
Li16 Li9 2.772084 1_565
Li17 Li9 2.743752 1_555
Li18 Li9 2.743752 1_555
Li22 Li9 2.772084 1_555
Li24 Li9 2.772084 1_555
Li25 Li8 2.743752 1_555
Li28 Li8 2.743752 1_555
Li29 Li8 2.772084 1_555
Ge0 Li15 2.611215 1_556
Ge0 Li1 2.611215 1_655
Ge0 Li20 2.611215 1_565
Ge0 Li28 2.709354 1_666
Ge0 Li14 2.709354 1_666
Ge0 Li27 2.709355 1_666
Ge0 Li4 2.805622 1_555
Ge0 Li5 2.805622 1_555
Ge0 Li3 2.805622 1_555
Ge0 Li11 2.860738 1_565
Ge0 Li13 2.860738 1_556
Ge0 Li10 2.860739 1_655
Ge1 Li28 2.611214 1_555
Ge1 Li29 2.611215 1_555
Ge1 Li26 2.611215 1_454
Ge1 Li0 2.709354 1_455
Ge1 Li15 2.709354 1_455
Ge1 Li18 2.709355 1_454
Ge1 Li24 2.805622 1_554
Ge1 Li6 2.805622 1_554
Ge1 Li25 2.805622 1_555
Ge1 Li10 2.860738 1_554
Ge1 Li11 2.860738 1_454
Ge1 Li8 2.860739 1_555
Ge2 Li6 2.611214 1_544
Ge2 Li27 2.611215 1_555
Ge2 Li21 2.611215 1_555
Ge2 Li17 2.709354 1_554
Ge2 Li20 2.709354 1_554
Ge2 Li2 2.709354 1_544
Ge2 Li29 2.805622 1_545
Ge2 Li22 2.805622 1_555
Ge2 Li23 2.805622 1_545
Ge2 Li12 2.860738 1_555
Ge2 Li13 2.860739 1_545
Ge2 Li10 2.860739 1_544
Ge3 Li14 2.611215 1_555
Ge3 Li24 2.611215 1_555
Ge3 Li23 2.611215 1_445
Ge3 Li19 2.709354 1_445
Ge3 Li1 2.709354 1_545
Ge3 Li16 2.709354 1_545
Ge3 Li7 2.805621 1_555
Ge3 Li26 2.805622 1_455
Ge3 Li21 2.805622 1_455
Ge3 Li11 2.860738 1_455
Ge3 Li13 2.860739 1_445
Ge3 Li9 2.860739 1_555
Ge4 Li18 2.611215 1_555
Ge4 Li3 2.611215 1_545
Ge4 Li16 2.611215 1_545
Ge4 Li22 2.709354 1_555
Ge4 Li23 2.709354 1_545
Ge4 Li29 2.709354 1_545
Ge4 Li2 2.805621 1_545
Ge4 Li17 2.805622 1_555
Ge4 Li20 2.805622 1_555
Ge4 Li8 2.860738 1_545
Ge4 Li9 2.860738 1_555
Ge4 Li11 2.860739 1_555
Ge5 Li4 2.611215 1_455
Ge5 Li0 2.611215 1_455
Ge5 Li2 2.611215 1_555
Ge5 Li26 2.709354 1_455
Ge5 Li21 2.709354 1_455
Ge5 Li7 2.709354 1_555
Ge5 Li16 2.805621 1_555
Ge5 Li1 2.805622 1_555
Ge5 Li19 2.805622 1_455
Ge5 Li8 2.860738 1_555
Ge5 Li10 2.860739 1_555
Ge5 Li12 2.860739 1_455
Ge6 Li17 2.611214 1_554
Ge6 Li5 2.611215 1_554
Ge6 Li19 2.611215 1_555
Ge6 Li25 2.709354 1_555
Ge6 Li6 2.709354 1_554
Ge6 Li24 2.709355 1_554
Ge6 Li18 2.805622 1_554
Ge6 Li15 2.805622 1_555
Ge6 Li0 2.805622 1_555
Ge6 Li13 2.860738 1_555
Ge6 Li12 2.860738 1_555
Ge6 Li9 2.860739 1_554
Ge7 Li25 2.611215 1_555
Ge7 Li22 2.611215 1_555
Ge7 Li7 2.611215 1_555
Ge7 Li3 2.709354 1_555
Ge7 Li5 2.709354 1_555
Ge7 Li4 2.709355 1_555
Ge7 Li14 2.805622 1_555
Ge7 Li27 2.805622 1_555
Ge7 Li28 2.805622 1_555
Ge7 Li9 2.860738 1_555
Ge7 Li8 2.860738 1_555
Ge7 Li12 2.860738 1_555
