# generated using pymatgen
data_Fe2P3(O3F)3
_symmetry_space_group_name_H-M   'P 1'
_cell_length_a   14.38821293
_cell_length_b   14.38821294
_cell_length_c   7.36967043
_cell_angle_alpha   90.00000000
_cell_angle_beta   90.00000000
_cell_angle_gamma   119.99999987
_symmetry_Int_Tables_number   1
_chemical_formula_structural   Fe2P3(O3F)3
_chemical_formula_sum   'Fe12 P18 O54 F18'
_cell_volume   1321.27254841
_cell_formula_units_Z   6
loop_
 _symmetry_equiv_pos_site_id
 _symmetry_equiv_pos_as_xyz
  1  'x, y, z'
loop_
 _atom_site_type_symbol
 _atom_site_label
 _atom_site_symmetry_multiplicity
 _atom_site_fract_x
 _atom_site_fract_y
 _atom_site_fract_z
 _atom_site_occupancy
  Fe  Fe0  1  0.35251564  0.02673446  0.95189656  1
  Fe  Fe1  1  0.67421882  0.64748436  0.95189656  1
  Fe  Fe2  1  0.97326554  0.32578118  0.95189656  1
  Fe  Fe3  1  0.64748436  0.97326554  0.45189656  1
  Fe  Fe4  1  0.32578118  0.35251564  0.45189656  1
  Fe  Fe5  1  0.02673446  0.67421882  0.45189656  1
  Fe  Fe6  1  0.64748436  0.97326554  0.04810344  1
  Fe  Fe7  1  0.32578118  0.35251564  0.04810344  1
  Fe  Fe8  1  0.02673446  0.67421882  0.04810344  1
  Fe  Fe9  1  0.35251564  0.02673446  0.54810344  1
  Fe  Fe10  1  0.67421882  0.64748436  0.54810344  1
  Fe  Fe11  1  0.97326554  0.32578118  0.54810344  1
  P  P0  1  0.45691320  0.89340884  0.75000000  1
  P  P1  1  0.43649565  0.54308680  0.75000000  1
  P  P2  1  0.10659116  0.56350435  0.75000000  1
  P  P3  1  0.54308680  0.10659116  0.25000000  1
  P  P4  1  0.56350435  0.45691320  0.25000000  1
  P  P5  1  0.89340884  0.43649565  0.25000000  1
  P  P6  1  0.24266316  0.11431445  0.25000000  1
  P  P7  1  0.87165229  0.75733684  0.25000000  1
  P  P8  1  0.88568555  0.12834771  0.25000000  1
  P  P9  1  0.75733684  0.88568555  0.75000000  1
  P  P10  1  0.12834771  0.24266316  0.75000000  1
  P  P11  1  0.11431445  0.87165229  0.75000000  1
  P  P12  1  0.43561872  0.26434037  0.75000000  1
  P  P13  1  0.82872265  0.56438128  0.75000000  1
  P  P14  1  0.73565963  0.17127735  0.75000000  1
  P  P15  1  0.56438128  0.73565963  0.25000000  1
  P  P16  1  0.17127735  0.43561872  0.25000000  1
  P  P17  1  0.26434037  0.82872265  0.25000000  1
  O  O0  1  0.39588728  0.14396103  0.75000000  1
  O  O1  1  0.74807375  0.60411272  0.75000000  1
  O  O2  1  0.85603897  0.25192625  0.75000000  1
  O  O3  1  0.60411272  0.85603897  0.25000000  1
  O  O4  1  0.25192625  0.39588728  0.25000000  1
  O  O5  1  0.14396103  0.74807375  0.25000000  1
  O  O6  1  0.42717610  0.98163782  0.75000000  1
  O  O7  1  0.55446172  0.57282390  0.75000000  1
  O  O8  1  0.01836218  0.44553828  0.75000000  1
  O  O9  1  0.57282390  0.01836218  0.25000000  1
  O  O10  1  0.44553828  0.42717610  0.25000000  1
  O  O11  1  0.98163782  0.55446172  0.25000000  1
  O  O12  1  0.29966837  0.89353389  0.07804708  1
  O  O13  1  0.59386552  0.70033163  0.07804708  1
  O  O14  1  0.10646611  0.40613448  0.07804708  1
  O  O15  1  0.70033163  0.10646611  0.57804708  1
  O  O16  1  0.40613448  0.29966837  0.57804708  1
  O  O17  1  0.89353389  0.59386552  0.57804708  1
  O  O18  1  0.70033163  0.10646611  0.92195292  1
  O  O19  1  0.40613448  0.29966837  0.92195292  1
  O  O20  1  0.89353389  0.59386552  0.92195292  1
  O  O21  1  0.29966837  0.89353389  0.42195292  1
  O  O22  1  0.59386552  0.70033163  0.42195292  1
  O  O23  1  0.10646611  0.40613448  0.42195292  1
  O  O24  1  0.48596479  0.10635647  0.07850982  1
  O  O25  1  0.62039168  0.51403521  0.07850982  1
  O  O26  1  0.89364353  0.37960832  0.07850982  1
  O  O27  1  0.51403521  0.89364353  0.57850982  1
  O  O28  1  0.37960832  0.48596479  0.57850982  1
  O  O29  1  0.10635647  0.62039168  0.57850982  1
  O  O30  1  0.51403521  0.89364353  0.92149018  1
  O  O31  1  0.37960832  0.48596479  0.92149018  1
  O  O32  1  0.10635647  0.62039168  0.92149018  1
  O  O33  1  0.48596479  0.10635647  0.42149018  1
  O  O34  1  0.62039168  0.51403521  0.42149018  1
  O  O35  1  0.89364353  0.37960832  0.42149018  1
  O  O36  1  0.26979111  0.07673173  0.07791593  1
  O  O37  1  0.80694062  0.73020889  0.07791593  1
  O  O38  1  0.92326827  0.19305938  0.07791593  1
  O  O39  1  0.73020889  0.92326827  0.57791593  1
  O  O40  1  0.19305938  0.26979111  0.57791593  1
  O  O41  1  0.07673173  0.80694062  0.57791593  1
  O  O42  1  0.73020889  0.92326827  0.92208407  1
  O  O43  1  0.19305938  0.26979111  0.92208407  1
  O  O44  1  0.07673173  0.80694062  0.92208407  1
  O  O45  1  0.26979111  0.07673173  0.42208407  1
  O  O46  1  0.80694062  0.73020889  0.42208407  1
  O  O47  1  0.92326827  0.19305938  0.42208407  1
  O  O48  1  0.23502785  0.94921743  0.75000000  1
  O  O49  1  0.71418858  0.76497215  0.75000000  1
  O  O50  1  0.05078257  0.28581142  0.75000000  1
  O  O51  1  0.76497215  0.05078257  0.25000000  1
  O  O52  1  0.28581142  0.23502785  0.25000000  1
  O  O53  1  0.94921743  0.71418858  0.25000000  1
  F  F0  1  0.06321763  0.94338583  0.75000000  1
  F  F1  1  0.88016920  0.93678237  0.75000000  1
  F  F2  1  0.05661417  0.11983080  0.75000000  1
  F  F3  1  0.93678237  0.05661417  0.25000000  1
  F  F4  1  0.11983080  0.06321763  0.25000000  1
  F  F5  1  0.94338583  0.88016920  0.25000000  1
  F  F6  1  0.34952764  0.78629289  0.75000000  1
  F  F7  1  0.43676525  0.65047236  0.75000000  1
  F  F8  1  0.21370711  0.56323475  0.75000000  1
  F  F9  1  0.65047236  0.21370711  0.25000000  1
  F  F10  1  0.56323475  0.34952764  0.25000000  1
  F  F11  1  0.78629289  0.43676525  0.25000000  1
  F  F12  1  0.32064140  0.76198764  0.25000000  1
  F  F13  1  0.44134624  0.67935860  0.25000000  1
  F  F14  1  0.23801236  0.55865376  0.25000000  1
  F  F15  1  0.67935860  0.23801236  0.75000000  1
  F  F16  1  0.55865376  0.32064140  0.75000000  1
  F  F17  1  0.76198764  0.44134624  0.75000000  1
loop_
_geom_bond_atom_site_label_1
_geom_bond_atom_site_label_2
_geom_bond_distance
_geom_bond_site_symmetry_2
Fe0 O36 1.911275 1_556
Fe0 O12 1.912657 1_546
Fe0 O24 1.915772 1_556
Fe0 O0 2.096578 1_555
Fe0 O48 2.104763 1_545
Fe0 O6 2.117993 1_545
Fe1 O37 1.911275 1_556
Fe1 O13 1.912657 1_556
Fe1 O25 1.915772 1_556
Fe1 O1 2.096578 1_555
Fe1 O49 2.104765 1_555
Fe1 O7 2.117993 1_555
Fe2 O38 1.911275 1_556
Fe2 O14 1.912657 1_656
Fe2 O26 1.915772 1_556
Fe2 O2 2.096578 1_555
Fe2 O50 2.104756 1_655
Fe2 O8 2.117993 1_655
Fe3 O39 1.911275 1_555
Fe3 O15 1.912657 1_565
Fe3 O27 1.915772 1_555
Fe3 O3 2.096578 1_555
Fe3 O51 2.104763 1_565
Fe3 O9 2.117993 1_565
Fe4 O40 1.911275 1_555
Fe4 O16 1.912657 1_555
Fe4 O28 1.915772 1_555
Fe4 O4 2.096578 1_555
Fe4 O52 2.104765 1_555
Fe4 O10 2.117993 1_555
Fe5 O41 1.911275 1_555
Fe5 O17 1.912657 1_455
Fe5 O29 1.915772 1_555
Fe5 O5 2.096578 1_555
Fe5 O53 2.104756 1_455
Fe5 O11 2.117993 1_455
Fe6 O42 1.911275 1_554
Fe6 O18 1.912657 1_564
Fe6 O30 1.915772 1_554
Fe6 O3 2.096578 1_555
Fe6 O51 2.104763 1_565
Fe6 O9 2.117993 1_565
Fe7 O43 1.911275 1_554
Fe7 O19 1.912657 1_554
Fe7 O31 1.915772 1_554
Fe7 O4 2.096578 1_555
Fe7 O52 2.104765 1_555
Fe7 O10 2.117993 1_555
Fe8 O44 1.911275 1_554
Fe8 O20 1.912657 1_454
Fe8 O32 1.915772 1_554
Fe8 O5 2.096578 1_555
Fe8 O53 2.104756 1_455
Fe8 O11 2.117993 1_455
Fe9 O45 1.911275 1_555
Fe9 O21 1.912657 1_545
Fe9 O33 1.915772 1_555
Fe9 O0 2.096578 1_555
Fe9 O48 2.104763 1_545
Fe9 O6 2.117993 1_545
Fe10 O46 1.911275 1_555
Fe10 O22 1.912657 1_555
Fe10 O34 1.915772 1_555
Fe10 O1 2.096578 1_555
Fe10 O49 2.104765 1_555
Fe10 O7 2.117993 1_555
Fe11 O47 1.911275 1_555
Fe11 O23 1.912657 1_655
Fe11 O35 1.915772 1_555
Fe11 O2 2.096578 1_555
Fe11 O50 2.104756 1_655
Fe11 O8 2.117993 1_655
O0 P12 1.528603 1_555
O1 P13 1.528617 1_555
O2 P14 1.528606 1_555
O3 P15 1.528603 1_555
O4 P16 1.528617 1_555
O5 P17 1.528606 1_555
O6 P0 1.528968 1_555
O7 P1 1.528968 1_555
O8 P2 1.528968 1_555
O9 P3 1.528968 1_555
O10 P4 1.528968 1_555
O11 P5 1.528968 1_555
O12 P17 1.503279 1_555
O13 P15 1.503286 1_555
O14 P16 1.503279 1_555
O15 P14 1.503279 1_555
O16 P12 1.503286 1_555
O17 P13 1.503279 1_555
O18 P14 1.503279 1_555
O19 P12 1.503286 1_555
O20 P13 1.503279 1_555
O21 P17 1.503279 1_555
O22 P15 1.503286 1_555
O23 P16 1.503279 1_555
O24 P3 1.506647 1_555
O25 P4 1.506647 1_555
O26 P5 1.506647 1_555
O27 P0 1.506647 1_555
O28 P1 1.506647 1_555
O29 P2 1.506647 1_555
O30 P0 1.506647 1_555
O31 P1 1.506647 1_555
O32 P2 1.506647 1_555
O33 P3 1.506647 1_555
O34 P4 1.506647 1_555
O35 P5 1.506647 1_555
O36 P6 1.504714 1_555
O37 P7 1.504721 1_555
O38 P8 1.504721 1_555
O39 P9 1.504714 1_555
O40 P10 1.504721 1_555
O41 P11 1.504721 1_555
O42 P9 1.504714 1_555
O43 P10 1.504721 1_555
O44 P11 1.504721 1_555
O45 P6 1.504714 1_555
O46 P7 1.504721 1_555
O47 P8 1.504721 1_555
O48 P11 1.524399 1_555
O49 P9 1.524399 1_555
O50 P10 1.524399 1_555
O51 P8 1.524399 1_555
O52 P6 1.524399 1_555
O53 P7 1.524399 1_555
F0 P11 1.537718 1_555
F1 P9 1.537745 1_555
F2 P10 1.537742 1_555
F3 P8 1.537718 1_555
F4 P6 1.537745 1_555
F5 P7 1.537742 1_555
F6 P0 1.543150 1_555
F7 P1 1.543150 1_555
F8 P2 1.543150 1_555
F9 P3 1.543150 1_555
F10 P4 1.543150 1_555
F11 P5 1.543150 1_555
F12 P17 1.534934 1_555
F13 P15 1.534921 1_555
F14 P16 1.534922 1_555
F15 P14 1.534934 1_555
F16 P12 1.534921 1_555
F17 P13 1.534922 1_555
