# generated using pymatgen
data_La4B10O21
_symmetry_space_group_name_H-M   'P 1'
_cell_length_a   19.85499900
_cell_length_b   7.22427300
_cell_length_c   11.68403863
_cell_angle_alpha   55.58861392
_cell_angle_beta   90.00000000
_cell_angle_gamma   90.00000000
_symmetry_Int_Tables_number   1
_chemical_formula_structural   La4B10O21
_chemical_formula_sum   'La16 B40 O84'
_cell_volume   1382.64786755
_cell_formula_units_Z   4
loop_
 _symmetry_equiv_pos_site_id
 _symmetry_equiv_pos_as_xyz
  1  'x, y, z'
loop_
 _atom_site_type_symbol
 _atom_site_label
 _atom_site_symmetry_multiplicity
 _atom_site_fract_x
 _atom_site_fract_y
 _atom_site_fract_z
 _atom_site_occupancy
  La  La0  1  0.69997400  0.46490000  0.66132500  1
  La  La1  1  0.80002600  0.46490000  0.16132500  1
  La  La2  1  0.30002600  0.53510000  0.33867500  1
  La  La3  1  0.19997400  0.53510000  0.83867500  1
  La  La4  1  0.79515300  0.92682600  0.67661600  1
  La  La5  1  0.70484700  0.92682600  0.17661600  1
  La  La6  1  0.20484700  0.07317400  0.32338400  1
  La  La7  1  0.29515300  0.07317400  0.82338400  1
  La  La8  1  0.91817200  0.47544400  0.65964100  1
  La  La9  1  0.58182800  0.47544400  0.15964100  1
  La  La10  1  0.08182800  0.52455600  0.34035900  1
  La  La11  1  0.41817200  0.52455600  0.84035900  1
  La  La12  1  0.57967500  0.00187100  0.64992900  1
  La  La13  1  0.92032500  0.00187100  0.14992900  1
  La  La14  1  0.42032500  0.99812900  0.35007100  1
  La  La15  1  0.07967500  0.99812900  0.85007100  1
  B  B0  1  0.90685300  0.03531300  0.44647300  1
  B  B1  1  0.59314700  0.03531300  0.94647300  1
  B  B2  1  0.09314700  0.96468700  0.55352700  1
  B  B3  1  0.40685300  0.96468700  0.05352700  1
  B  B4  1  0.97838200  0.08437400  0.60718000  1
  B  B5  1  0.52161800  0.08437400  0.10718000  1
  B  B6  1  0.02161800  0.91562600  0.39282000  1
  B  B7  1  0.47838200  0.91562600  0.89282000  1
  B  B8  1  0.90583700  0.52449600  0.94600900  1
  B  B9  1  0.59416300  0.52449600  0.44600900  1
  B  B10  1  0.09416300  0.47550400  0.05399100  1
  B  B11  1  0.40583700  0.47550400  0.55399100  1
  B  B12  1  0.52477800  0.59821800  0.60437200  1
  B  B13  1  0.97522200  0.59821800  0.10437200  1
  B  B14  1  0.47522200  0.40178200  0.39562800  1
  B  B15  1  0.02477800  0.40178200  0.89562800  1
  B  B16  1  0.92145900  0.93206100  0.86485000  1
  B  B17  1  0.57854100  0.93206100  0.36485000  1
  B  B18  1  0.07854100  0.06793900  0.13515000  1
  B  B19  1  0.42145900  0.06793900  0.63515000  1
  B  B20  1  0.81121700  0.99875900  0.95313400  1
  B  B21  1  0.68878300  0.99875900  0.45313400  1
  B  B22  1  0.18878300  0.00124100  0.04686600  1
  B  B23  1  0.31121700  0.00124100  0.54686600  1
  B  B24  1  0.70572400  0.40922700  0.37840800  1
  B  B25  1  0.79427600  0.40922700  0.87840800  1
  B  B26  1  0.29427600  0.59077300  0.62159200  1
  B  B27  1  0.20572400  0.59077300  0.12159200  1
  B  B28  1  0.57266600  0.43232700  0.87092700  1
  B  B29  1  0.92733400  0.43232700  0.37092700  1
  B  B30  1  0.42733400  0.56767300  0.12907300  1
  B  B31  1  0.07266600  0.56767300  0.62907300  1
  B  B32  1  0.82127800  0.48036500  0.45302500  1
  B  B33  1  0.67872200  0.48036500  0.95302500  1
  B  B34  1  0.17872200  0.51963500  0.54697500  1
  B  B35  1  0.32127800  0.51963500  0.04697500  1
  B  B36  1  0.70164400  0.93777100  0.88006800  1
  B  B37  1  0.79835600  0.93777100  0.38006800  1
  B  B38  1  0.29835600  0.06222900  0.11993200  1
  B  B39  1  0.20164400  0.06222900  0.61993200  1
  O  O0  1  0.02118600  0.67785300  0.52000500  1
  O  O1  1  0.47881400  0.67785300  0.02000500  1
  O  O2  1  0.97881400  0.32214700  0.47999500  1
  O  O3  1  0.52118600  0.32214700  0.97999500  1
  O  O4  1  0.65765600  0.38563700  0.48138400  1
  O  O5  1  0.84234400  0.38563700  0.98138400  1
  O  O6  1  0.34234400  0.61436300  0.51861600  1
  O  O7  1  0.15765600  0.61436300  0.01861600  1
  O  O8  1  0.61780000  0.27226800  0.87129200  1
  O  O9  1  0.88220000  0.27226800  0.37129200  1
  O  O10  1  0.38220000  0.72773200  0.12870800  1
  O  O11  1  0.11780000  0.72773200  0.62870800  1
  O  O12  1  0.84450700  0.88917200  0.48145900  1
  O  O13  1  0.65549300  0.88917200  0.98145900  1
  O  O14  1  0.15549300  0.11082800  0.51854100  1
  O  O15  1  0.34450700  0.11082800  0.01854100  1
  O  O16  1  0.88663400  0.76051600  0.86066000  1
  O  O17  1  0.61336600  0.76051600  0.36066000  1
  O  O18  1  0.11336600  0.23948400  0.13934000  1
  O  O19  1  0.38663400  0.23948400  0.63934000  1
  O  O20  1  0.67770800  0.84814400  0.60092500  1
  O  O21  1  0.82229200  0.84814400  0.10092500  1
  O  O22  1  0.32229200  0.15185600  0.39907500  1
  O  O23  1  0.17770800  0.15185600  0.89907500  1
  O  O24  1  0.54148400  0.59656800  0.73294700  1
  O  O25  1  0.95851600  0.59656800  0.23294700  1
  O  O26  1  0.45851600  0.40343200  0.26705300  1
  O  O27  1  0.04148400  0.40343200  0.76705300  1
  O  O28  1  0.57085000  0.45637000  0.58637400  1
  O  O29  1  0.92915000  0.45637000  0.08637400  1
  O  O30  1  0.42915000  0.54363000  0.41362600  1
  O  O31  1  0.07085000  0.54363000  0.91362600  1
  O  O32  1  0.81207800  0.33585400  0.59172100  1
  O  O33  1  0.68792200  0.33585400  0.09172100  1
  O  O34  1  0.18792200  0.66414600  0.40827900  1
  O  O35  1  0.31207800  0.66414600  0.90827900  1
  O  O36  1  0.92998300  0.95373600  0.58616600  1
  O  O37  1  0.57001700  0.95373600  0.08616600  1
  O  O38  1  0.07001700  0.04626400  0.41383400  1
  O  O39  1  0.42998300  0.04626400  0.91383400  1
  O  O40  1  0.68692500  0.06183000  0.74348300  1
  O  O41  1  0.81307500  0.06183000  0.24348300  1
  O  O42  1  0.31307500  0.93817000  0.25651700  1
  O  O43  1  0.18692500  0.93817000  0.75651700  1
  O  O44  1  0.81766200  0.54353000  0.73680900  1
  O  O45  1  0.68233800  0.54353000  0.23680900  1
  O  O46  1  0.18233800  0.45647000  0.26319100  1
  O  O47  1  0.31766200  0.45647000  0.76319100  1
  O  O48  1  0.95208800  0.00186400  0.36173100  1
  O  O49  1  0.54791200  0.00186400  0.86173100  1
  O  O50  1  0.04791200  0.99813600  0.63826900  1
  O  O51  1  0.45208800  0.99813600  0.13826900  1
  O  O52  1  0.73380600  0.18873200  0.41948600  1
  O  O53  1  0.76619400  0.18873200  0.91948600  1
  O  O54  1  0.26619400  0.81126800  0.58051400  1
  O  O55  1  0.23380600  0.81126800  0.08051400  1
  O  O56  1  0.03964600  0.90785300  0.26846000  1
  O  O57  1  0.46035400  0.90785300  0.76846000  1
  O  O58  1  0.96035400  0.09214700  0.73154000  1
  O  O59  1  0.53964600  0.09214700  0.23154000  1
  O  O60  1  0.87261400  0.08302000  0.87079300  1
  O  O61  1  0.62738600  0.08302000  0.37079300  1
  O  O62  1  0.12738600  0.91698000  0.12920700  1
  O  O63  1  0.37261400  0.91698000  0.62920700  1
  O  O64  1  0.61533900  0.58100100  0.89952500  1
  O  O65  1  0.88466100  0.58100100  0.39952500  1
  O  O66  1  0.38466100  0.41899900  0.10047500  1
  O  O67  1  0.11533900  0.41899900  0.60047500  1
  O  O68  1  0.96939800  0.83731800  0.98224400  1
  O  O69  1  0.53060200  0.83731800  0.48224400  1
  O  O70  1  0.03060200  0.16268200  0.01775600  1
  O  O71  1  0.46939800  0.16268200  0.51775600  1
  O  O72  1  0.76752200  0.85540700  0.91866600  1
  O  O73  1  0.73247800  0.85540700  0.41866600  1
  O  O74  1  0.23247800  0.14459300  0.08133400  1
  O  O75  1  0.26752200  0.14459300  0.58133400  1
  O  O76  1  0.73137700  0.54733200  0.86109100  1
  O  O77  1  0.76862300  0.54733200  0.36109100  1
  O  O78  1  0.26862300  0.45266800  0.13890900  1
  O  O79  1  0.23137700  0.45266800  0.63890900  1
  O  O80  1  0.95245200  0.46004800  0.87680300  1
  O  O81  1  0.54754800  0.46004800  0.37680300  1
  O  O82  1  0.04754800  0.53995200  0.12319700  1
  O  O83  1  0.45245200  0.53995200  0.62319700  1
loop_
_geom_bond_atom_site_label_1
_geom_bond_atom_site_label_2
_geom_bond_distance
_geom_bond_site_symmetry_2
La0 O20 2.480030 1_555
La0 O40 2.511644 1_555
La0 O8 2.599689 1_555
La0 O4 2.610522 1_555
La0 O44 2.669629 1_555
La0 O32 2.709562 1_555
La0 O73 2.715393 1_555
La0 O28 2.721129 1_555
La0 O76 2.786094 1_555
La0 O53 2.829437 1_555
La1 O21 2.480030 1_555
La1 O41 2.511644 1_555
La1 O9 2.599689 1_555
La1 O5 2.610522 1_554
La1 O45 2.669629 1_555
La1 O33 2.709562 1_555
La1 O72 2.715393 1_554
La1 O29 2.721129 1_555
La1 O77 2.786094 1_555
La1 O52 2.829437 1_555
La2 O22 2.480030 1_555
La2 O42 2.511644 1_555
La2 O10 2.599689 1_555
La2 O6 2.610522 1_555
La2 O46 2.669629 1_555
La2 O34 2.709562 1_555
La2 O75 2.715393 1_555
La2 O30 2.721129 1_555
La2 O78 2.786094 1_555
La2 O55 2.829437 1_555
La3 O23 2.480030 1_555
La3 O43 2.511644 1_555
La3 O11 2.599689 1_555
La3 O7 2.610522 1_556
La3 O47 2.669629 1_555
La3 O35 2.709562 1_555
La3 O74 2.715393 1_556
La3 O31 2.721129 1_555
La3 O79 2.786094 1_555
La3 O54 2.829437 1_555
La4 O44 2.482092 1_555
La4 O16 2.539023 1_555
La4 O32 2.552565 1_565
La4 O72 2.629869 1_555
La4 O12 2.633387 1_555
La4 O40 2.653391 1_565
La4 O76 2.662046 1_555
La4 O20 2.666650 1_555
La4 O52 2.768510 1_565
La4 O36 2.844125 1_555
La5 O45 2.482092 1_555
La5 O17 2.539023 1_555
La5 O33 2.552565 1_565
La5 O73 2.629869 1_555
La5 O13 2.633387 1_554
La5 O41 2.653391 1_565
La5 O77 2.662046 1_555
La5 O21 2.666650 1_555
La5 O53 2.768510 1_564
La5 O37 2.844125 1_555
La6 O46 2.482092 1_555
La6 O18 2.539023 1_555
La6 O34 2.552565 1_545
La6 O74 2.629869 1_555
La6 O14 2.633387 1_555
La6 O42 2.653391 1_545
La6 O78 2.662046 1_555
La6 O22 2.666650 1_555
La6 O54 2.768510 1_545
La6 O38 2.844125 1_555
La7 O47 2.482092 1_555
La7 O19 2.539023 1_555
La7 O35 2.552565 1_545
La7 O75 2.629869 1_555
La7 O15 2.633387 1_556
La7 O43 2.653391 1_545
La7 O79 2.662046 1_555
La7 O23 2.666650 1_555
La7 O55 2.768510 1_546
La7 O39 2.844125 1_555
La8 O44 2.353436 1_555
La8 O0 2.507389 1_655
La8 O58 2.538810 1_555
La8 O80 2.568013 1_555
La8 O32 2.643588 1_555
La8 O60 2.652672 1_555
La8 O27 2.664996 1_655
La8 O65 2.764323 1_555
La8 O12 2.893762 1_555
La8 O36 3.062424 1_555
La8 O2 3.115976 1_555
La9 O45 2.353436 1_555
La9 O1 2.507389 1_555
La9 O59 2.538810 1_555
La9 O81 2.568013 1_555
La9 O33 2.643588 1_555
La9 O61 2.652672 1_555
La9 O26 2.664996 1_555
La9 O64 2.764323 1_554
La9 O13 2.893762 1_554
La9 O37 3.062424 1_555
La9 O3 3.115976 1_554
La10 O46 2.353436 1_555
La10 O2 2.507389 1_455
La10 O56 2.538810 1_555
La10 O82 2.568013 1_555
La10 O34 2.643588 1_555
La10 O62 2.652672 1_555
La10 O25 2.664996 1_455
La10 O67 2.764323 1_555
La10 O14 2.893762 1_555
La10 O38 3.062424 1_555
La10 O0 3.115976 1_555
La11 O47 2.353436 1_555
La11 O3 2.507389 1_555
La11 O57 2.538810 1_555
La11 O83 2.568013 1_555
La11 O35 2.643588 1_555
La11 O63 2.652672 1_555
La11 O24 2.664996 1_555
La11 O66 2.764323 1_556
La11 O15 2.893762 1_556
La11 O39 3.062424 1_555
La11 O1 3.115976 1_556
La12 O20 2.463440 1_545
La12 O40 2.540114 1_555
La12 O71 2.549683 1_555
La12 O49 2.553769 1_555
La12 O24 2.622797 1_545
La12 O57 2.632275 1_545
La12 O4 2.791206 1_555
La12 O64 2.868578 1_545
La12 O28 2.933802 1_555
La12 O69 2.972143 1_545
La12 O81 3.099672 1_555
La12 O61 3.117206 1_555
La13 O21 2.463440 1_545
La13 O41 2.540114 1_555
La13 O70 2.549683 1_655
La13 O48 2.553769 1_555
La13 O25 2.622797 1_545
La13 O56 2.632275 1_645
La13 O5 2.791206 1_554
La13 O65 2.868578 1_545
La13 O29 2.933802 1_555
La13 O68 2.972143 1_544
La13 O80 3.099672 1_554
La13 O60 3.117206 1_554
La14 O22 2.463440 1_565
La14 O42 2.540114 1_555
La14 O69 2.549683 1_555
La14 O51 2.553769 1_555
La14 O26 2.622797 1_565
La14 O59 2.632275 1_565
La14 O6 2.791206 1_555
La14 O66 2.868578 1_565
La14 O30 2.933802 1_555
La14 O71 2.972143 1_565
La14 O83 3.099672 1_555
La14 O63 3.117206 1_555
La15 O23 2.463440 1_565
La15 O43 2.540114 1_555
La15 O68 2.549683 1_455
La15 O50 2.553769 1_555
La15 O27 2.622797 1_565
La15 O58 2.632275 1_465
La15 O7 2.791206 1_556
La15 O67 2.868578 1_565
La15 O31 2.933802 1_555
La15 O70 2.972143 1_566
La15 O82 3.099672 1_556
La15 O62 3.117206 1_556
B0 O48 1.454589 1_555
B0 O36 1.461174 1_545
B0 O9 1.497329 1_555
B0 O12 1.525218 1_545
B1 O49 1.454589 1_555
B1 O37 1.461174 1_546
B1 O8 1.497329 1_555
B1 O13 1.525218 1_545
B2 O50 1.454589 1_555
B2 O38 1.461174 1_565
B2 O11 1.497329 1_555
B2 O14 1.525218 1_565
B3 O51 1.454589 1_555
B3 O39 1.461174 1_564
B3 O10 1.497329 1_555
B3 O15 1.525218 1_565
B4 O36 1.461619 1_545
B4 O50 1.473137 1_645
B4 O2 1.507935 1_555
B4 O58 1.528001 1_555
B5 O37 1.461619 1_545
B5 O51 1.473137 1_545
B5 O3 1.507935 1_554
B5 O59 1.528001 1_555
B6 O38 1.461619 1_565
B6 O48 1.473137 1_465
B6 O0 1.507935 1_555
B6 O56 1.528001 1_555
B7 O39 1.461619 1_565
B7 O49 1.473137 1_565
B7 O1 1.507935 1_556
B7 O57 1.528001 1_555
B8 O16 1.457831 1_555
B8 O80 1.467229 1_555
B8 O29 1.494616 1_556
B8 O5 1.515839 1_555
B9 O17 1.457831 1_555
B9 O81 1.467229 1_555
B9 O28 1.494616 1_555
B9 O4 1.515839 1_555
B10 O18 1.457831 1_555
B10 O82 1.467229 1_555
B10 O31 1.494616 1_554
B10 O7 1.515839 1_555
B11 O19 1.457831 1_555
B11 O83 1.467229 1_555
B11 O30 1.494616 1_555
B11 O6 1.515839 1_555
B12 O28 1.474680 1_555
B12 O83 1.477534 1_555
B12 O69 1.499109 1_555
B12 O24 1.531913 1_555
B13 O29 1.474680 1_555
B13 O82 1.477534 1_655
B13 O68 1.499109 1_554
B13 O25 1.531913 1_555
B14 O30 1.474680 1_555
B14 O81 1.477534 1_555
B14 O71 1.499109 1_555
B14 O26 1.531913 1_555
B15 O31 1.474680 1_555
B15 O80 1.477534 1_455
B15 O70 1.499109 1_556
B15 O27 1.531913 1_555
B16 O16 1.443921 1_555
B16 O68 1.481461 1_555
B16 O60 1.490067 1_565
B16 O58 1.524462 1_565
B17 O17 1.443921 1_555
B17 O69 1.481461 1_555
B17 O61 1.490067 1_565
B17 O59 1.524462 1_565
B18 O18 1.443921 1_555
B18 O70 1.481461 1_555
B18 O62 1.490067 1_545
B18 O56 1.524462 1_545
B19 O19 1.443921 1_555
B19 O71 1.481461 1_555
B19 O63 1.490067 1_545
B19 O57 1.524462 1_545
B20 O21 1.445841 1_556
B20 O60 1.456112 1_565
B20 O53 1.492435 1_565
B20 O72 1.568040 1_555
B21 O20 1.445841 1_555
B21 O61 1.456112 1_565
B21 O52 1.492435 1_565
B21 O73 1.568040 1_555
B22 O23 1.445841 1_554
B22 O62 1.456112 1_545
B22 O55 1.492435 1_545
B22 O74 1.568040 1_555
B23 O22 1.445841 1_555
B23 O63 1.456112 1_545
B23 O54 1.492435 1_545
B23 O75 1.568040 1_555
B24 O45 1.442171 1_555
B24 O4 1.468257 1_555
B24 O52 1.488120 1_555
B24 O77 1.538781 1_555
B25 O44 1.442171 1_555
B25 O5 1.468257 1_555
B25 O53 1.488120 1_555
B25 O76 1.538781 1_555
B26 O47 1.442171 1_555
B26 O6 1.468257 1_555
B26 O54 1.488120 1_555
B26 O79 1.538781 1_555
B27 O46 1.442171 1_555
B27 O7 1.468257 1_555
B27 O55 1.488120 1_555
B27 O78 1.538781 1_555
B28 O8 1.461012 1_555
B28 O3 1.468274 1_555
B28 O24 1.492706 1_555
B28 O64 1.545563 1_555
B29 O9 1.461012 1_555
B29 O2 1.468274 1_555
B29 O25 1.492706 1_555
B29 O65 1.545563 1_555
B30 O10 1.461012 1_555
B30 O1 1.468274 1_555
B30 O26 1.492706 1_555
B30 O66 1.545563 1_555
B31 O11 1.461012 1_555
B31 O0 1.468274 1_555
B31 O27 1.492706 1_555
B31 O67 1.545563 1_555
B32 O32 1.355434 1_555
B32 O77 1.376049 1_555
B32 O65 1.410459 1_555
B33 O33 1.355434 1_556
B33 O76 1.376049 1_555
B33 O64 1.410459 1_555
B34 O34 1.355434 1_555
B34 O79 1.376049 1_555
B34 O67 1.410459 1_555
B35 O35 1.355434 1_554
B35 O78 1.376049 1_555
B35 O66 1.410459 1_555
B36 O40 1.348647 1_565
B36 O13 1.377037 1_555
B36 O72 1.401791 1_555
B37 O41 1.348647 1_565
B37 O12 1.377037 1_555
B37 O73 1.401791 1_555
B38 O42 1.348647 1_545
B38 O15 1.377037 1_555
B38 O74 1.401791 1_555
B39 O43 1.348647 1_545
B39 O14 1.377037 1_555
B39 O75 1.401791 1_555
