# generated using pymatgen
data_PrSm3S4
_symmetry_space_group_name_H-M   'P 1'
_cell_length_a   13.42036413
_cell_length_b   13.42036413
_cell_length_c   13.42036460
_cell_angle_alpha   17.23011219
_cell_angle_beta   17.23011219
_cell_angle_gamma   17.23011313
_symmetry_Int_Tables_number   1
_chemical_formula_structural   PrSm3S4
_chemical_formula_sum   'Pr1 Sm3 S4'
_cell_volume   185.04754320
_cell_formula_units_Z   1
loop_
 _symmetry_equiv_pos_site_id
 _symmetry_equiv_pos_as_xyz
  1  'x, y, z'
loop_
 _atom_site_type_symbol
 _atom_site_label
 _atom_site_symmetry_multiplicity
 _atom_site_fract_x
 _atom_site_fract_y
 _atom_site_fract_z
 _atom_site_occupancy
  Pr  Pr0  1  -0.00000000  -0.00000000  0.00000000  1
  Sm  Sm0  1  0.24915258  0.24915258  0.24915258  1
  Sm  Sm1  1  0.50000000  0.50000000  0.50000000  1
  Sm  Sm2  1  0.75084742  0.75084742  0.75084742  1
  S  S0  1  0.37703075  0.37703075  0.37703075  1
  S  S1  1  0.12542361  0.12542361  0.12542361  1
  S  S2  1  0.62296925  0.62296925  0.62296925  1
  S  S3  1  0.87457639  0.87457639  0.87457639  1
loop_
_geom_bond_atom_site_label_1
_geom_bond_atom_site_label_2
_geom_bond_distance
_geom_bond_site_symmetry_2
Pr0 S2 2.896721 1_445
Pr0 S0 2.896721 1_554
Pr0 S2 2.896721 1_544
Pr0 S2 2.896721 1_454
Pr0 S0 2.896721 1_545
Pr0 S0 2.896721 1_455
S0 Sm2 2.822329 1_554
S0 Sm2 2.822330 1_545
S0 Sm2 2.822330 1_455
S1 Sm2 2.839568 1_445
S1 Sm2 2.839569 1_544
S1 Sm2 2.839569 1_454
S1 Sm1 2.839573 1_554
S1 Sm1 2.839573 1_545
S1 Sm1 2.839573 1_455
S2 Sm0 2.822329 1_556
S2 Sm0 2.822330 1_565
S2 Sm0 2.822330 1_655
S3 Sm0 2.839568 1_665
S3 Sm0 2.839569 1_656
S3 Sm0 2.839569 1_566
S3 Sm1 2.839573 1_556
S3 Sm1 2.839573 1_565
S3 Sm1 2.839573 1_655
