# generated using pymatgen
data_VHO3
_symmetry_space_group_name_H-M   'P 1'
_cell_length_a   3.67324700
_cell_length_b   6.18254518
_cell_length_c   12.11118199
_cell_angle_alpha   94.31013399
_cell_angle_beta   89.36462413
_cell_angle_gamma   107.07951746
_symmetry_Int_Tables_number   1
_chemical_formula_structural   VHO3
_chemical_formula_sum   'V4 H4 O12'
_cell_volume   262.15414164
_cell_formula_units_Z   4
loop_
 _symmetry_equiv_pos_site_id
 _symmetry_equiv_pos_as_xyz
  1  'x, y, z'
loop_
 _atom_site_type_symbol
 _atom_site_label
 _atom_site_symmetry_multiplicity
 _atom_site_fract_x
 _atom_site_fract_y
 _atom_site_fract_z
 _atom_site_occupancy
  V  V0  1  0.92675700  0.84743600  0.86756500  1
  V  V1  1  0.07409600  0.15225900  0.13313700  1
  V  V2  1  0.22025300  0.43394600  0.86597800  1
  V  V3  1  0.77985400  0.56681100  0.13390800  1
  H  H0  1  0.88123700  0.28953900  0.46815000  1
  H  H1  1  0.53872100  0.08249200  0.49133900  1
  H  H2  1  0.53269600  0.68109000  0.49498200  1
  H  H3  1  0.27193700  0.76008200  0.58076600  1
  O  O0  1  0.39001500  0.77569400  0.89390700  1
  O  O1  1  0.61138500  0.22555600  0.10591700  1
  O  O2  1  0.07585700  0.14738000  0.91645800  1
  O  O3  1  0.92432100  0.85198000  0.08153800  1
  O  O4  1  0.75649200  0.50858600  0.90206600  1
  O  O5  1  0.24378200  0.49167500  0.09783000  1
  O  O6  1  0.93253300  0.84555200  0.73463700  1
  O  O7  1  0.06840300  0.15006800  0.26508800  1
  O  O8  1  0.20423700  0.39401700  0.73403300  1
  O  O9  1  0.79632200  0.61046400  0.26564700  1
  O  O10  1  0.61787500  0.25001800  0.49151100  1
  O  O11  1  0.35665600  0.77274900  0.50439700  1
loop_
_geom_bond_atom_site_label_1
_geom_bond_atom_site_label_2
_geom_bond_distance
_geom_bond_site_symmetry_2
H0 O10 0.970091 1_555
H1 O10 0.989996 1_555
H2 O11 0.977842 1_555
H3 O11 0.973981 1_555
O0 V0 1.915940 1_455
O0 V0 1.918153 1_555
O0 V2 2.022580 1_555
O1 V1 1.920978 1_655
O1 V1 1.921405 1_555
O1 V3 2.019767 1_555
O2 V0 1.826204 1_445
O2 V2 1.843280 1_555
O3 V1 1.836586 1_665
O3 V3 1.844820 1_555
O4 V2 1.928951 1_655
O4 V2 1.933572 1_555
O4 V0 2.076233 1_555
O5 V3 1.930988 1_455
O5 V3 1.932727 1_555
O5 V1 2.082195 1_555
O6 V0 1.609031 1_555
O7 V1 1.599011 1_555
O8 V2 1.597591 1_555
O9 V3 1.596869 1_555
