# generated using pymatgen
data_Y3Mn3Ga2Si
_symmetry_space_group_name_H-M   'P 1'
_cell_length_a   7.00239839
_cell_length_b   7.00239839
_cell_length_c   4.15293800
_cell_angle_alpha   90.00000000
_cell_angle_beta   90.00000000
_cell_angle_gamma   120.00000364
_symmetry_Int_Tables_number   1
_chemical_formula_structural   Y3Mn3Ga2Si
_chemical_formula_sum   'Y3 Mn3 Ga2 Si1'
_cell_volume   176.35171759
_cell_formula_units_Z   1
loop_
 _symmetry_equiv_pos_site_id
 _symmetry_equiv_pos_as_xyz
  1  'x, y, z'
loop_
 _atom_site_type_symbol
 _atom_site_label
 _atom_site_symmetry_multiplicity
 _atom_site_fract_x
 _atom_site_fract_y
 _atom_site_fract_z
 _atom_site_occupancy
  Y  Y0  1  0.57658500  0.99618500  0.50000000  1
  Y  Y1  1  0.41960100  0.42341500  0.50000000  1
  Y  Y2  1  0.00381500  0.58039900  0.50000000  1
  Mn  Mn0  1  0.22707600  0.98642600  0.00000000  1
  Mn  Mn1  1  0.75935000  0.77292400  0.00000000  1
  Mn  Mn2  1  0.01357400  0.24065000  0.00000000  1
  Ga  Ga0  1  0.00000000  0.00000000  0.50000000  1
  Ga  Ga1  1  0.66666700  0.33333300  0.00000000  1
  Si  Si0  1  0.33333300  0.66666700  0.00000000  1
loop_
_geom_bond_atom_site_label_1
_geom_bond_atom_site_label_2
_geom_bond_distance
_geom_bond_site_symmetry_2
Mn0 Si0 2.689441 1_555
Mn0 Mn1 2.839991 1_455
Mn0 Mn2 2.839991 1_565
Mn0 Y0 3.184167 1_555
Mn0 Y0 3.184167 1_554
Mn0 Y2 3.224051 1_554
Mn0 Y2 3.224051 1_555
Mn0 Y1 3.371551 1_564
Mn0 Y1 3.371551 1_565
Mn1 Si0 2.689447 1_555
Mn1 Mn2 2.839991 1_665
Mn1 Y1 3.184164 1_555
Mn1 Y1 3.184164 1_554
Mn1 Y0 3.224047 1_555
Mn1 Y0 3.224047 1_554
Mn1 Y2 3.371557 1_654
Mn1 Y2 3.371557 1_655
Mn2 Si0 2.689445 1_555
Mn2 Y2 3.184162 1_555
Mn2 Y2 3.184162 1_554
Mn2 Y1 3.224051 1_555
Mn2 Y1 3.224051 1_554
Mn2 Y0 3.371552 1_444
Mn2 Y0 3.371552 1_445
Ga0 Mn1 2.645797 1_446
Ga0 Mn1 2.645797 1_445
Ga0 Mn2 2.645797 1_555
Ga0 Mn2 2.645797 1_556
Ga0 Mn0 2.645797 1_545
Ga0 Mn0 2.645797 1_546
Ga0 Y0 2.951654 1_445
Ga0 Y1 2.951657 1_555
Ga0 Y2 2.951661 1_545
Ga1 Mn2 2.810458 1_655
Ga1 Mn0 2.810462 1_545
Ga1 Mn1 2.810464 1_555
Ga1 Y2 2.965469 1_655
Ga1 Y2 2.965469 1_654
Ga1 Y0 2.965470 1_544
Ga1 Y0 2.965470 1_545
Ga1 Y1 2.965470 1_554
Ga1 Y1 2.965470 1_555
Si0 Y2 2.933758 1_555
Si0 Y2 2.933758 1_554
Si0 Y0 2.933761 1_555
Si0 Y0 2.933761 1_554
Si0 Y1 2.933768 1_555
Si0 Y1 2.933768 1_554
