# generated using pymatgen
data_CdPt
_symmetry_space_group_name_H-M   'P 1'
_cell_length_a   3.84605277
_cell_length_b   4.22207213
_cell_length_c   4.22207213
_cell_angle_alpha   90.00000000
_cell_angle_beta   90.00000000
_cell_angle_gamma   90.00000000
_symmetry_Int_Tables_number   1
_chemical_formula_structural   CdPt
_chemical_formula_sum   'Cd2 Pt2'
_cell_volume   68.55932542
_cell_formula_units_Z   2
loop_
 _symmetry_equiv_pos_site_id
 _symmetry_equiv_pos_as_xyz
  1  'x, y, z'
loop_
 _atom_site_type_symbol
 _atom_site_label
 _atom_site_symmetry_multiplicity
 _atom_site_fract_x
 _atom_site_fract_y
 _atom_site_fract_z
 _atom_site_occupancy
  Cd  Cd0  1  -0.00000000  -0.00000000  -0.00000000  1
  Cd  Cd1  1  -0.00000000  0.50000000  0.50000000  1
  Pt  Pt0  1  0.50000000  0.00000000  0.50000000  1
  Pt  Pt1  1  0.50000000  0.50000000  0.00000000  1
loop_
_geom_bond_atom_site_label_1
_geom_bond_atom_site_label_2
_geom_bond_distance
_geom_bond_site_symmetry_2
Cd0 Pt1 2.855609 1_445
Cd0 Pt1 2.855609 1_545
Cd0 Pt0 2.855609 1_455
Cd0 Pt0 2.855609 1_554
Cd0 Pt0 2.855609 1_555
Cd0 Pt1 2.855609 1_455
Cd0 Pt0 2.855609 1_454
Cd0 Pt1 2.855609 1_555
Cd0 Cd1 2.985456 1_545
Cd0 Cd1 2.985456 1_554
Cd0 Cd1 2.985456 1_555
Cd0 Cd1 2.985456 1_544
Cd1 Pt0 2.855609 1_455
Cd1 Pt0 2.855609 1_555
Cd1 Pt1 2.855609 1_455
Cd1 Pt1 2.855609 1_456
Cd1 Pt0 2.855609 1_565
Cd1 Pt1 2.855609 1_555
Cd1 Pt1 2.855609 1_556
Cd1 Pt0 2.855609 1_465
Pt0 Pt1 2.985456 1_546
Pt0 Pt1 2.985456 1_545
Pt0 Pt1 2.985456 1_555
Pt0 Pt1 2.985456 1_556
