# generated using pymatgen
data_Dy3(In2Co)2
_symmetry_space_group_name_H-M   'P 1'
_cell_length_a   16.36469287
_cell_length_b   16.36469287
_cell_length_c   6.99709800
_cell_angle_alpha   90.00000000
_cell_angle_beta   90.00000000
_cell_angle_gamma   120.00000351
_symmetry_Int_Tables_number   1
_chemical_formula_structural   Dy3(In2Co)2
_chemical_formula_sum   'Dy24 In32 Co16'
_cell_volume   1622.79735341
_cell_formula_units_Z   8
loop_
 _symmetry_equiv_pos_site_id
 _symmetry_equiv_pos_as_xyz
  1  'x, y, z'
loop_
 _atom_site_type_symbol
 _atom_site_label
 _atom_site_symmetry_multiplicity
 _atom_site_fract_x
 _atom_site_fract_y
 _atom_site_fract_z
 _atom_site_occupancy
  Dy  Dy0_0  1  0.20888700  0.03640550  0.25000000  1
  Dy  Dy0_1  1  0.20888700  0.03640550  0.75000000  1
  Dy  Dy0_2  1  0.20888700  0.53640550  0.25000000  1
  Dy  Dy0_3  1  0.20888700  0.53640550  0.75000000  1
  Dy  Dy0_4  1  0.70888700  0.03640550  0.25000000  1
  Dy  Dy0_5  1  0.70888700  0.03640550  0.75000000  1
  Dy  Dy0_6  1  0.70888700  0.53640550  0.25000000  1
  Dy  Dy0_7  1  0.70888700  0.53640550  0.75000000  1
  Dy  Dy1_0  1  0.32751850  0.29111300  0.25000000  1
  Dy  Dy1_1  1  0.32751850  0.29111300  0.75000000  1
  Dy  Dy1_2  1  0.32751850  0.79111300  0.25000000  1
  Dy  Dy1_3  1  0.32751850  0.79111300  0.75000000  1
  Dy  Dy1_4  1  0.82751850  0.29111300  0.25000000  1
  Dy  Dy1_5  1  0.82751850  0.29111300  0.75000000  1
  Dy  Dy1_6  1  0.82751850  0.79111300  0.25000000  1
  Dy  Dy1_7  1  0.82751850  0.79111300  0.75000000  1
  Dy  Dy2_0  1  0.46359450  0.17248150  0.25000000  1
  Dy  Dy2_1  1  0.46359450  0.17248150  0.75000000  1
  Dy  Dy2_2  1  0.46359450  0.67248150  0.25000000  1
  Dy  Dy2_3  1  0.46359450  0.67248150  0.75000000  1
  Dy  Dy2_4  1  0.96359450  0.17248150  0.25000000  1
  Dy  Dy2_5  1  0.96359450  0.17248150  0.75000000  1
  Dy  Dy2_6  1  0.96359450  0.67248150  0.25000000  1
  Dy  Dy2_7  1  0.96359450  0.67248150  0.75000000  1
  In  In0_0  1  0.16666650  0.33333350  0.25000000  1
  In  In0_1  1  0.16666650  0.33333350  0.75000000  1
  In  In0_2  1  0.16666650  0.83333350  0.25000000  1
  In  In0_3  1  0.16666650  0.83333350  0.75000000  1
  In  In0_4  1  0.66666650  0.33333350  0.25000000  1
  In  In0_5  1  0.66666650  0.33333350  0.75000000  1
  In  In0_6  1  0.66666650  0.83333350  0.25000000  1
  In  In0_7  1  0.66666650  0.83333350  0.75000000  1
  In  In1_0  1  0.12191300  0.13951800  0.00000000  1
  In  In1_1  1  0.12191300  0.13951800  0.50000000  1
  In  In1_2  1  0.12191300  0.63951800  0.00000000  1
  In  In1_3  1  0.12191300  0.63951800  0.50000000  1
  In  In1_4  1  0.62191300  0.13951800  0.00000000  1
  In  In1_5  1  0.62191300  0.13951800  0.50000000  1
  In  In1_6  1  0.62191300  0.63951800  0.00000000  1
  In  In1_7  1  0.62191300  0.63951800  0.50000000  1
  In  In2_0  1  0.01760500  0.37808700  0.00000000  1
  In  In2_1  1  0.01760500  0.37808700  0.50000000  1
  In  In2_2  1  0.01760500  0.87808700  0.00000000  1
  In  In2_3  1  0.01760500  0.87808700  0.50000000  1
  In  In2_4  1  0.51760500  0.37808700  0.00000000  1
  In  In2_5  1  0.51760500  0.37808700  0.50000000  1
  In  In2_6  1  0.51760500  0.87808700  0.00000000  1
  In  In2_7  1  0.51760500  0.87808700  0.50000000  1
  In  In3_0  1  0.36048200  0.48239500  0.00000000  1
  In  In3_1  1  0.36048200  0.48239500  0.50000000  1
  In  In3_2  1  0.36048200  0.98239500  0.00000000  1
  In  In3_3  1  0.36048200  0.98239500  0.50000000  1
  In  In3_4  1  0.86048200  0.48239500  0.00000000  1
  In  In3_5  1  0.86048200  0.48239500  0.50000000  1
  In  In3_6  1  0.86048200  0.98239500  0.00000000  1
  In  In3_7  1  0.86048200  0.98239500  0.50000000  1
  Co  Co0_0  1  0.33333350  0.16666650  0.00000000  1
  Co  Co0_1  1  0.33333350  0.16666650  0.50000000  1
  Co  Co0_2  1  0.33333350  0.66666650  0.00000000  1
  Co  Co0_3  1  0.33333350  0.66666650  0.50000000  1
  Co  Co0_4  1  0.83333350  0.16666650  0.00000000  1
  Co  Co0_5  1  0.83333350  0.16666650  0.50000000  1
  Co  Co0_6  1  0.83333350  0.66666650  0.00000000  1
  Co  Co0_7  1  0.83333350  0.66666650  0.50000000  1
  Co  Co1_0  1  0.00000000  0.00000000  0.25000000  1
  Co  Co1_1  1  0.00000000  0.00000000  0.75000000  1
  Co  Co1_2  1  0.00000000  0.50000000  0.25000000  1
  Co  Co1_3  1  0.00000000  0.50000000  0.75000000  1
  Co  Co1_4  1  0.50000000  0.00000000  0.25000000  1
  Co  Co1_5  1  0.50000000  0.00000000  0.75000000  1
  Co  Co1_6  1  0.50000000  0.50000000  0.25000000  1
  Co  Co1_7  1  0.50000000  0.50000000  0.75000000  1
loop_
_geom_bond_atom_site_label_1
_geom_bond_atom_site_label_2
_geom_bond_distance
_geom_bond_site_symmetry_2
Dy0_0 In0_2 3.037271 1_545
Dy0_1 In0_3 3.037271 1_545
Dy0_2 In0_0 3.037271 1_555
Dy0_3 In0_1 3.037271 1_555
Dy0_4 In0_6 3.037271 1_545
Dy0_5 In0_7 3.037271 1_545
Dy0_6 In0_4 3.037271 1_555
Dy0_7 In0_5 3.037271 1_555
Dy1_0 In0_0 3.037279 1_555
Dy1_1 In0_1 3.037279 1_555
Dy1_2 In0_2 3.037279 1_555
Dy1_3 In0_3 3.037279 1_555
Dy1_4 In0_4 3.037279 1_555
Dy1_5 In0_5 3.037279 1_555
Dy1_6 In0_6 3.037279 1_555
Dy1_7 In0_7 3.037279 1_555
Dy2_0 In0_4 3.037274 1_555
Dy2_1 In0_5 3.037274 1_555
Dy2_2 In0_6 3.037274 1_555
Dy2_3 In0_7 3.037274 1_555
Dy2_4 In0_0 3.037274 1_655
Dy2_5 In0_1 3.037274 1_655
Dy2_6 In0_2 3.037274 1_655
Dy2_7 In0_3 3.037274 1_655
In0_0 In2_1 3.366492 1_555
In0_0 In2_0 3.366492 1_555
In0_0 In3_0 3.366496 1_555
In0_0 In3_1 3.366496 1_555
In0_0 In1_0 3.366498 1_555
In0_0 In1_1 3.366498 1_555
In0_0 In0_1 3.498549 1_555
In0_0 In0_1 3.498549 1_554
In0_1 In2_1 3.366492 1_555
In0_1 In2_0 3.366492 1_556
In0_1 In3_0 3.366496 1_556
In0_1 In3_1 3.366496 1_555
In0_1 In1_0 3.366498 1_556
In0_1 In1_1 3.366498 1_555
In0_2 In2_3 3.366492 1_555
In0_2 In2_2 3.366492 1_555
In0_2 In3_2 3.366496 1_555
In0_2 In3_3 3.366496 1_555
In0_2 In1_2 3.366498 1_555
In0_2 In1_3 3.366498 1_555
In0_2 In0_3 3.498549 1_555
In0_2 In0_3 3.498549 1_554
In0_3 In2_3 3.366492 1_555
In0_3 In2_2 3.366492 1_556
In0_3 In3_3 3.366496 1_555
In0_3 In3_2 3.366496 1_556
In0_3 In1_2 3.366498 1_556
In0_3 In1_3 3.366498 1_555
In0_4 In2_5 3.366492 1_555
In0_4 In2_4 3.366492 1_555
In0_4 In3_4 3.366496 1_555
In0_4 In3_5 3.366496 1_555
In0_4 In1_5 3.366498 1_555
In0_4 In1_4 3.366498 1_555
In0_4 In0_5 3.498549 1_554
In0_4 In0_5 3.498549 1_555
In0_5 In2_5 3.366492 1_555
In0_5 In2_4 3.366492 1_556
In0_5 In3_4 3.366496 1_556
In0_5 In3_5 3.366496 1_555
In0_5 In1_5 3.366498 1_555
In0_5 In1_4 3.366498 1_556
In0_6 In2_6 3.366492 1_555
In0_6 In2_7 3.366492 1_555
In0_6 In3_6 3.366496 1_555
In0_6 In3_7 3.366496 1_555
In0_6 In1_7 3.366498 1_555
In0_6 In1_6 3.366498 1_555
In0_6 In0_7 3.498549 1_555
In0_6 In0_7 3.498549 1_554
In0_7 In2_7 3.366492 1_555
In0_7 In2_6 3.366492 1_556
In0_7 In3_6 3.366496 1_556
In0_7 In3_7 3.366496 1_555
In0_7 In1_7 3.366498 1_555
In0_7 In1_6 3.366498 1_556
Co0_0 Dy2_0 2.722174 1_555
Co0_0 Dy2_1 2.722174 1_554
Co0_0 Dy0_1 2.722177 1_554
Co0_0 Dy0_0 2.722177 1_555
Co0_0 Dy1_0 2.722180 1_555
Co0_0 Dy1_1 2.722180 1_554
Co0_1 Dy2_0 2.722174 1_555
Co0_1 Dy2_1 2.722174 1_555
Co0_1 Dy0_1 2.722177 1_555
Co0_1 Dy0_0 2.722177 1_555
Co0_1 Dy1_0 2.722180 1_555
Co0_1 Dy1_1 2.722180 1_555
Co0_2 Dy2_3 2.722174 1_554
Co0_2 Dy2_2 2.722174 1_555
Co0_2 Dy0_2 2.722177 1_555
Co0_2 Dy0_3 2.722177 1_554
Co0_2 Dy1_3 2.722180 1_554
Co0_2 Dy1_2 2.722180 1_555
Co0_3 Dy2_2 2.722174 1_555
Co0_3 Dy2_3 2.722174 1_555
Co0_3 Dy0_2 2.722177 1_555
Co0_3 Dy0_3 2.722177 1_555
Co0_3 Dy1_3 2.722180 1_555
Co0_3 Dy1_2 2.722180 1_555
Co0_4 Dy2_5 2.722174 1_554
Co0_4 Dy2_4 2.722174 1_555
Co0_4 Dy0_4 2.722177 1_555
Co0_4 Dy0_5 2.722177 1_554
Co0_4 Dy1_5 2.722180 1_554
Co0_4 Dy1_4 2.722180 1_555
Co0_5 Dy2_4 2.722174 1_555
Co0_5 Dy2_5 2.722174 1_555
Co0_5 Dy0_4 2.722177 1_555
Co0_5 Dy0_5 2.722177 1_555
Co0_5 Dy1_4 2.722180 1_555
Co0_5 Dy1_5 2.722180 1_555
Co0_6 Dy2_7 2.722174 1_554
Co0_6 Dy2_6 2.722174 1_555
Co0_6 Dy0_7 2.722177 1_554
Co0_6 Dy0_6 2.722177 1_555
Co0_6 Dy1_6 2.722180 1_555
Co0_6 Dy1_7 2.722180 1_554
Co0_7 Dy2_7 2.722174 1_555
Co0_7 Dy2_6 2.722174 1_555
Co0_7 Dy0_7 2.722177 1_555
Co0_7 Dy0_6 2.722177 1_555
Co0_7 Dy1_6 2.722180 1_555
Co0_7 Dy1_7 2.722180 1_555
Co1_0 In1_1 2.774535 1_555
Co1_0 In1_0 2.774535 1_555
Co1_0 In3_7 2.774535 1_445
Co1_0 In3_6 2.774535 1_445
Co1_0 In2_2 2.774535 1_545
Co1_0 In2_3 2.774535 1_545
Co1_0 Dy1_6 3.162855 1_445
Co1_0 Dy0_0 3.162855 1_555
Co1_0 Dy2_4 3.162855 1_455
Co1_1 In1_0 2.774535 1_556
Co1_1 In1_1 2.774535 1_555
Co1_1 In3_7 2.774535 1_445
Co1_1 In3_6 2.774535 1_446
Co1_1 In2_2 2.774535 1_546
Co1_1 In2_3 2.774535 1_545
Co1_1 Dy1_7 3.162855 1_445
Co1_1 Dy0_1 3.162855 1_555
Co1_1 Dy2_5 3.162855 1_455
Co1_2 In1_3 2.774535 1_555
Co1_2 In1_2 2.774535 1_555
Co1_2 In3_5 2.774535 1_455
Co1_2 In3_4 2.774535 1_455
Co1_2 In2_0 2.774535 1_555
Co1_2 In2_1 2.774535 1_555
Co1_2 Dy1_4 3.162855 1_455
Co1_2 Dy0_2 3.162855 1_555
Co1_2 Dy2_6 3.162855 1_455
Co1_3 In1_3 2.774535 1_555
Co1_3 In1_2 2.774535 1_556
Co1_3 In3_5 2.774535 1_455
Co1_3 In3_4 2.774535 1_456
Co1_3 In2_1 2.774535 1_555
Co1_3 In2_0 2.774535 1_556
Co1_3 Dy1_5 3.162855 1_455
Co1_3 Dy0_3 3.162855 1_555
Co1_3 Dy2_7 3.162855 1_455
Co1_4 In1_4 2.774535 1_555
Co1_4 In1_5 2.774535 1_555
Co1_4 In3_2 2.774535 1_545
Co1_4 In3_3 2.774535 1_545
Co1_4 In2_6 2.774535 1_545
Co1_4 In2_7 2.774535 1_545
Co1_4 Dy1_2 3.162855 1_545
Co1_4 Dy0_4 3.162855 1_555
Co1_4 Dy2_0 3.162855 1_555
Co1_5 In1_4 2.774535 1_556
Co1_5 In1_5 2.774535 1_555
Co1_5 In3_2 2.774535 1_546
Co1_5 In3_3 2.774535 1_545
Co1_5 In2_7 2.774535 1_545
Co1_5 In2_6 2.774535 1_546
Co1_5 Dy1_3 3.162855 1_545
Co1_5 Dy0_5 3.162855 1_555
Co1_5 Dy2_1 3.162855 1_555
Co1_6 In1_6 2.774535 1_555
Co1_6 In1_7 2.774535 1_555
Co1_6 In3_0 2.774535 1_555
Co1_6 In3_1 2.774535 1_555
Co1_6 In2_4 2.774535 1_555
Co1_6 In2_5 2.774535 1_555
Co1_6 Dy1_0 3.162855 1_555
Co1_6 Dy0_6 3.162855 1_555
Co1_6 Dy2_2 3.162855 1_555
Co1_7 In1_6 2.774535 1_556
Co1_7 In1_7 2.774535 1_555
Co1_7 In3_0 2.774535 1_556
Co1_7 In3_1 2.774535 1_555
Co1_7 In2_4 2.774535 1_556
Co1_7 In2_5 2.774535 1_555
Co1_7 Dy1_1 3.162855 1_555
Co1_7 Dy0_7 3.162855 1_555
Co1_7 Dy2_3 3.162855 1_555
