# generated using pymatgen
data_Eu2Mo2WO12
_symmetry_space_group_name_H-M   'P 1'
_cell_length_a   7.04089012
_cell_length_b   7.04089012
_cell_length_c   11.77297031
_cell_angle_alpha   79.34179968
_cell_angle_beta   79.34179968
_cell_angle_gamma   111.83571956
_symmetry_Int_Tables_number   1
_chemical_formula_structural   Eu2Mo2WO12
_chemical_formula_sum   'Eu4 Mo4 W2 O24'
_cell_volume   511.40432504
_cell_formula_units_Z   2
loop_
 _symmetry_equiv_pos_site_id
 _symmetry_equiv_pos_as_xyz
  1  'x, y, z'
loop_
 _atom_site_type_symbol
 _atom_site_label
 _atom_site_symmetry_multiplicity
 _atom_site_fract_x
 _atom_site_fract_y
 _atom_site_fract_z
 _atom_site_occupancy
  Eu  Eu0  1  0.19652800  0.45329900  0.09238200  1
  Eu  Eu1  1  0.54670100  0.80347200  0.40761800  1
  Eu  Eu2  1  0.80347200  0.54670100  0.90761800  1
  Eu  Eu3  1  0.45329900  0.19652800  0.59238200  1
  Mo  Mo0  1  0.02559500  0.30351400  0.44726600  1
  Mo  Mo1  1  0.69648600  0.97440500  0.05273400  1
  Mo  Mo2  1  0.97440500  0.69648600  0.55273400  1
  Mo  Mo3  1  0.30351400  0.02559500  0.94726600  1
  W  W0  1  0.62052400  0.37947600  0.25000000  1
  W  W1  1  0.37947600  0.62052400  0.75000000  1
  O  O0  1  0.73866700  0.13835400  0.46122200  1
  O  O1  1  0.86164600  0.26133300  0.03877800  1
  O  O2  1  0.26133300  0.86164600  0.53877800  1
  O  O3  1  0.13835400  0.73866700  0.96122200  1
  O  O4  1  0.51845100  0.09413300  0.28694000  1
  O  O5  1  0.90586700  0.48154900  0.21306000  1
  O  O6  1  0.48154900  0.90586700  0.71306000  1
  O  O7  1  0.09413300  0.51845100  0.78694000  1
  O  O8  1  0.54572400  0.46344400  0.11385100  1
  O  O9  1  0.53655600  0.45427600  0.38614900  1
  O  O10  1  0.45427600  0.53655600  0.88614900  1
  O  O11  1  0.46344400  0.54572400  0.61385100  1
  O  O12  1  0.88001800  0.81063600  0.44239700  1
  O  O13  1  0.18936400  0.11998200  0.05760300  1
  O  O14  1  0.11998200  0.18936400  0.55760300  1
  O  O15  1  0.81063600  0.88001800  0.94239700  1
  O  O16  1  0.15415900  0.27982100  0.30770100  1
  O  O17  1  0.72017900  0.84584100  0.19229900  1
  O  O18  1  0.84584100  0.72017900  0.69229900  1
  O  O19  1  0.27982100  0.15415900  0.80770100  1
  O  O20  1  0.40078300  0.82974400  0.08380300  1
  O  O21  1  0.17025600  0.59921700  0.41619700  1
  O  O22  1  0.59921700  0.17025600  0.91619700  1
  O  O23  1  0.82974400  0.40078300  0.58380300  1
loop_
_geom_bond_atom_site_label_1
_geom_bond_atom_site_label_2
_geom_bond_distance
_geom_bond_site_symmetry_2
Eu0 O5 2.361802 1_455
Eu0 O13 2.439860 1_555
Eu0 O20 2.472916 1_555
Eu0 O8 2.493963 1_555
Eu0 O1 2.505962 1_455
Eu0 O3 2.507536 1_554
Eu0 O16 2.512122 1_555
Eu0 O10 2.566008 1_554
Eu1 O4 2.361802 1_565
Eu1 O12 2.439860 1_555
Eu1 O21 2.472916 1_555
Eu1 O9 2.493963 1_555
Eu1 O0 2.505962 1_565
Eu1 O2 2.507536 1_555
Eu1 O17 2.512122 1_555
Eu1 O11 2.566008 1_555
Eu2 O7 2.361802 1_655
Eu2 O15 2.439860 1_555
Eu2 O22 2.472916 1_555
Eu2 O10 2.493963 1_555
Eu2 O3 2.505962 1_655
Eu2 O1 2.507536 1_556
Eu2 O18 2.512122 1_555
Eu2 O8 2.566008 1_556
Eu3 O6 2.361802 1_545
Eu3 O14 2.439860 1_555
Eu3 O23 2.472916 1_555
Eu3 O11 2.493963 1_555
Eu3 O2 2.505962 1_545
Eu3 O0 2.507536 1_555
Eu3 O19 2.512122 1_555
Eu3 O9 2.566008 1_555
Mo0 O14 1.762235 1_555
Mo0 O16 1.791798 1_555
Mo0 O21 1.873226 1_555
Mo0 O0 1.876042 1_455
Mo0 O23 2.290040 1_455
Mo1 O15 1.762235 1_554
Mo1 O17 1.791798 1_555
Mo1 O20 1.873226 1_555
Mo1 O1 1.876042 1_565
Mo1 O22 2.290040 1_564
Mo2 O12 1.762235 1_555
Mo2 O18 1.791798 1_555
Mo2 O23 1.873226 1_555
Mo2 O2 1.876042 1_655
Mo2 O21 2.290040 1_655
Mo3 O13 1.762235 1_556
Mo3 O19 1.791798 1_555
Mo3 O22 1.873226 1_555
Mo3 O3 1.876042 1_545
Mo3 O20 2.290040 1_546
O4 W0 1.796968 1_555
O5 W0 1.796968 1_555
O6 W1 1.796968 1_555
O7 W1 1.796968 1_555
O8 W0 1.841050 1_555
O9 W0 1.841050 1_555
O10 W1 1.841050 1_555
O11 W1 1.841050 1_555
