# generated using pymatgen
data_LiZr2Pb
_symmetry_space_group_name_H-M   'P 1'
_cell_length_a   6.47684895
_cell_length_b   6.47684895
_cell_length_c   20.81523600
_cell_angle_alpha   90.00000000
_cell_angle_beta   90.00000000
_cell_angle_gamma   120.00000969
_symmetry_Int_Tables_number   1
_chemical_formula_structural   LiZr2Pb
_chemical_formula_sum   'Li8 Zr16 Pb8'
_cell_volume   756.20486294
_cell_formula_units_Z   8
loop_
 _symmetry_equiv_pos_site_id
 _symmetry_equiv_pos_as_xyz
  1  'x, y, z'
loop_
 _atom_site_type_symbol
 _atom_site_label
 _atom_site_symmetry_multiplicity
 _atom_site_fract_x
 _atom_site_fract_y
 _atom_site_fract_z
 _atom_site_occupancy
  Li  Li0_0  1  0.16666650  0.33333350  0.00000000  1
  Li  Li0_1  1  0.16666650  0.33333350  0.50000000  1
  Li  Li0_2  1  0.16666650  0.83333350  0.00000000  1
  Li  Li0_3  1  0.16666650  0.83333350  0.50000000  1
  Li  Li0_4  1  0.66666650  0.33333350  0.00000000  1
  Li  Li0_5  1  0.66666650  0.33333350  0.50000000  1
  Li  Li0_6  1  0.66666650  0.83333350  0.00000000  1
  Li  Li0_7  1  0.66666650  0.83333350  0.50000000  1
  Zr  Zr0_0  1  0.00000000  0.00000000  0.12562250  1
  Zr  Zr0_1  1  0.00000000  0.00000000  0.62562250  1
  Zr  Zr0_2  1  0.00000000  0.50000000  0.12562250  1
  Zr  Zr0_3  1  0.00000000  0.50000000  0.62562250  1
  Zr  Zr0_4  1  0.50000000  0.00000000  0.12562250  1
  Zr  Zr0_5  1  0.50000000  0.00000000  0.62562250  1
  Zr  Zr0_6  1  0.50000000  0.50000000  0.12562250  1
  Zr  Zr0_7  1  0.50000000  0.50000000  0.62562250  1
  Zr  Zr1_0  1  0.00000000  0.00000000  0.37437750  1
  Zr  Zr1_1  1  0.00000000  0.00000000  0.87437750  1
  Zr  Zr1_2  1  0.00000000  0.50000000  0.37437750  1
  Zr  Zr1_3  1  0.00000000  0.50000000  0.87437750  1
  Zr  Zr1_4  1  0.50000000  0.00000000  0.37437750  1
  Zr  Zr1_5  1  0.50000000  0.00000000  0.87437750  1
  Zr  Zr1_6  1  0.50000000  0.50000000  0.37437750  1
  Zr  Zr1_7  1  0.50000000  0.50000000  0.87437750  1
  Pb  Pb0_0  1  0.16666650  0.33333350  0.25000000  1
  Pb  Pb0_1  1  0.16666650  0.33333350  0.75000000  1
  Pb  Pb0_2  1  0.16666650  0.83333350  0.25000000  1
  Pb  Pb0_3  1  0.16666650  0.83333350  0.75000000  1
  Pb  Pb0_4  1  0.66666650  0.33333350  0.25000000  1
  Pb  Pb0_5  1  0.66666650  0.33333350  0.75000000  1
  Pb  Pb0_6  1  0.66666650  0.83333350  0.25000000  1
  Pb  Pb0_7  1  0.66666650  0.83333350  0.75000000  1
loop_
_geom_bond_atom_site_label_1
_geom_bond_atom_site_label_2
_geom_bond_distance
_geom_bond_site_symmetry_2
Li0_0 Zr1_3 3.214544 1_554
Li0_0 Zr0_2 3.214544 1_555
Li0_0 Zr1_1 3.214546 1_554
Li0_0 Zr0_0 3.214546 1_555
Li0_0 Zr1_7 3.214546 1_554
Li0_0 Zr0_6 3.214546 1_555
Li0_0 Li0_6 3.238424 1_445
Li0_0 Li0_6 3.238424 1_555
Li0_0 Li0_2 3.238424 1_555
Li0_0 Li0_2 3.238424 1_545
Li0_0 Li0_4 3.238424 1_455
Li0_0 Li0_4 3.238424 1_555
Li0_1 Zr0_3 3.214544 1_555
Li0_1 Zr1_2 3.214544 1_555
Li0_1 Zr0_1 3.214546 1_555
Li0_1 Zr0_7 3.214546 1_555
Li0_1 Zr1_6 3.214546 1_555
Li0_1 Zr1_0 3.214546 1_555
Li0_1 Li0_7 3.238424 1_445
Li0_1 Li0_7 3.238424 1_555
Li0_1 Li0_3 3.238424 1_555
Li0_1 Li0_3 3.238424 1_545
Li0_1 Li0_5 3.238424 1_455
Li0_1 Li0_5 3.238424 1_555
Li0_2 Zr0_0 3.214544 1_565
Li0_2 Zr1_1 3.214544 1_564
Li0_2 Zr0_4 3.214546 1_565
Li0_2 Zr1_5 3.214546 1_564
Li0_2 Zr1_3 3.214546 1_554
Li0_2 Zr0_2 3.214546 1_555
Li0_2 Li0_4 3.238424 1_565
Li0_2 Li0_4 3.238424 1_455
Li0_2 Li0_6 3.238424 1_555
Li0_2 Li0_6 3.238424 1_455
Li0_3 Zr0_1 3.214544 1_565
Li0_3 Zr1_0 3.214544 1_565
Li0_3 Zr0_5 3.214546 1_565
Li0_3 Zr0_3 3.214546 1_555
Li0_3 Zr1_4 3.214546 1_565
Li0_3 Zr1_2 3.214546 1_555
Li0_3 Li0_5 3.238424 1_565
Li0_3 Li0_5 3.238424 1_455
Li0_3 Li0_7 3.238424 1_455
Li0_3 Li0_7 3.238424 1_555
Li0_4 Zr1_7 3.214544 1_554
Li0_4 Zr0_6 3.214544 1_555
Li0_4 Zr1_5 3.214546 1_554
Li0_4 Zr0_2 3.214546 1_655
Li0_4 Zr1_3 3.214546 1_654
Li0_4 Zr0_4 3.214546 1_555
Li0_4 Li0_6 3.238424 1_555
Li0_4 Li0_6 3.238424 1_545
Li0_5 Zr0_7 3.214544 1_555
Li0_5 Zr1_6 3.214544 1_555
Li0_5 Zr0_3 3.214546 1_655
Li0_5 Zr0_5 3.214546 1_555
Li0_5 Zr1_4 3.214546 1_555
Li0_5 Zr1_2 3.214546 1_655
Li0_5 Li0_7 3.238424 1_555
Li0_5 Li0_7 3.238424 1_545
Li0_6 Zr1_5 3.214544 1_564
Li0_6 Zr0_4 3.214544 1_565
Li0_6 Zr1_1 3.214546 1_664
Li0_6 Zr0_0 3.214546 1_665
Li0_6 Zr1_7 3.214546 1_554
Li0_6 Zr0_6 3.214546 1_555
Li0_7 Zr0_5 3.214544 1_565
Li0_7 Zr1_4 3.214544 1_565
Li0_7 Zr0_1 3.214546 1_665
Li0_7 Zr0_7 3.214546 1_555
Li0_7 Zr1_0 3.214546 1_665
Li0_7 Zr1_6 3.214546 1_555
Zr0_0 Zr0_6 3.238424 1_445
Zr0_0 Zr0_6 3.238424 1_555
Zr0_0 Zr0_2 3.238424 1_555
Zr0_0 Zr0_2 3.238424 1_545
Zr0_0 Zr0_4 3.238424 1_455
Zr0_0 Zr0_4 3.238424 1_555
Zr0_1 Zr0_7 3.238424 1_445
Zr0_1 Zr0_7 3.238424 1_555
Zr0_1 Zr0_3 3.238424 1_555
Zr0_1 Zr0_5 3.238424 1_455
Zr0_1 Zr0_3 3.238424 1_545
Zr0_1 Zr0_5 3.238424 1_555
Zr0_2 Zr0_4 3.238424 1_565
Zr0_2 Zr0_4 3.238424 1_455
Zr0_2 Zr0_6 3.238424 1_555
Zr0_2 Zr0_6 3.238424 1_455
Zr0_3 Zr0_5 3.238424 1_565
Zr0_3 Zr0_5 3.238424 1_455
Zr0_3 Zr0_7 3.238424 1_455
Zr0_3 Zr0_7 3.238424 1_555
Zr0_4 Zr0_6 3.238424 1_555
Zr0_4 Zr0_6 3.238424 1_545
Zr0_5 Zr0_7 3.238424 1_555
Zr0_5 Zr0_7 3.238424 1_545
Zr1_0 Zr1_6 3.238424 1_445
Zr1_0 Zr1_6 3.238424 1_555
Zr1_0 Zr1_2 3.238424 1_555
Zr1_0 Zr1_4 3.238424 1_555
Zr1_0 Zr1_4 3.238424 1_455
Zr1_0 Zr1_2 3.238424 1_545
Zr1_1 Zr1_7 3.238424 1_445
Zr1_1 Zr1_7 3.238424 1_555
Zr1_1 Zr1_3 3.238424 1_555
Zr1_1 Zr1_3 3.238424 1_545
Zr1_1 Zr1_5 3.238424 1_455
Zr1_1 Zr1_5 3.238424 1_555
Zr1_2 Zr1_4 3.238424 1_565
Zr1_2 Zr1_4 3.238424 1_455
Zr1_2 Zr1_6 3.238424 1_455
Zr1_2 Zr1_6 3.238424 1_555
Zr1_3 Zr1_5 3.238424 1_565
Zr1_3 Zr1_5 3.238424 1_455
Zr1_3 Zr1_7 3.238424 1_455
Zr1_3 Zr1_7 3.238424 1_555
Zr1_4 Zr1_6 3.238424 1_555
Zr1_4 Zr1_6 3.238424 1_545
Zr1_5 Zr1_7 3.238424 1_555
Zr1_5 Zr1_7 3.238424 1_545
Pb0_0 Zr1_2 3.193499 1_555
Pb0_0 Zr0_2 3.193499 1_555
Pb0_0 Zr1_0 3.193501 1_555
Pb0_0 Zr1_6 3.193501 1_555
Pb0_0 Zr0_0 3.193501 1_555
Pb0_0 Zr0_6 3.193501 1_555
Pb0_0 Pb0_6 3.238424 1_445
Pb0_0 Pb0_6 3.238424 1_555
Pb0_0 Pb0_2 3.238424 1_555
Pb0_0 Pb0_4 3.238424 1_555
Pb0_0 Pb0_2 3.238424 1_545
Pb0_0 Pb0_4 3.238424 1_455
Pb0_1 Zr0_3 3.193499 1_555
Pb0_1 Zr1_3 3.193499 1_555
Pb0_1 Zr0_1 3.193501 1_555
Pb0_1 Zr1_1 3.193501 1_555
Pb0_1 Zr1_7 3.193501 1_555
Pb0_1 Zr0_7 3.193501 1_555
Pb0_1 Pb0_7 3.238424 1_445
Pb0_1 Pb0_7 3.238424 1_555
Pb0_1 Pb0_3 3.238424 1_555
Pb0_1 Pb0_5 3.238424 1_555
Pb0_1 Pb0_5 3.238424 1_455
Pb0_1 Pb0_3 3.238424 1_545
Pb0_2 Zr1_0 3.193499 1_565
Pb0_2 Zr0_0 3.193499 1_565
Pb0_2 Zr1_4 3.193501 1_565
Pb0_2 Zr1_2 3.193501 1_555
Pb0_2 Zr0_4 3.193501 1_565
Pb0_2 Zr0_2 3.193501 1_555
Pb0_2 Pb0_4 3.238424 1_565
Pb0_2 Pb0_4 3.238424 1_455
Pb0_2 Pb0_6 3.238424 1_455
Pb0_2 Pb0_6 3.238424 1_555
Pb0_3 Zr0_1 3.193499 1_565
Pb0_3 Zr1_1 3.193499 1_565
Pb0_3 Zr0_5 3.193501 1_565
Pb0_3 Zr1_5 3.193501 1_565
Pb0_3 Zr1_3 3.193501 1_555
Pb0_3 Zr0_3 3.193501 1_555
Pb0_3 Pb0_5 3.238424 1_565
Pb0_3 Pb0_5 3.238424 1_455
Pb0_3 Pb0_7 3.238424 1_555
Pb0_3 Pb0_7 3.238424 1_455
Pb0_4 Zr1_6 3.193499 1_555
Pb0_4 Zr0_6 3.193499 1_555
Pb0_4 Zr1_2 3.193501 1_655
Pb0_4 Zr1_4 3.193501 1_555
Pb0_4 Zr0_2 3.193501 1_655
Pb0_4 Zr0_4 3.193501 1_555
Pb0_4 Pb0_6 3.238424 1_555
Pb0_4 Pb0_6 3.238424 1_545
Pb0_5 Zr0_7 3.193499 1_555
Pb0_5 Zr1_7 3.193499 1_555
Pb0_5 Zr0_3 3.193501 1_655
Pb0_5 Zr1_5 3.193501 1_555
Pb0_5 Zr0_5 3.193501 1_555
Pb0_5 Zr1_3 3.193501 1_655
Pb0_5 Pb0_7 3.238424 1_555
Pb0_5 Pb0_7 3.238424 1_545
Pb0_6 Zr1_4 3.193499 1_565
Pb0_6 Zr0_4 3.193499 1_565
Pb0_6 Zr1_0 3.193501 1_665
Pb0_6 Zr1_6 3.193501 1_555
Pb0_6 Zr0_0 3.193501 1_665
Pb0_6 Zr0_6 3.193501 1_555
Pb0_7 Zr0_5 3.193499 1_565
Pb0_7 Zr1_5 3.193499 1_565
Pb0_7 Zr0_1 3.193501 1_665
Pb0_7 Zr1_1 3.193501 1_665
Pb0_7 Zr0_7 3.193501 1_555
Pb0_7 Zr1_7 3.193501 1_555
