# generated using pymatgen
data_SrIn4Pd
_symmetry_space_group_name_H-M   'P 1'
_cell_length_a   8.89721627
_cell_length_b   8.89721627
_cell_length_c   7.52249575
_cell_angle_alpha   90.00000000
_cell_angle_beta   90.00000000
_cell_angle_gamma   150.06750195
_symmetry_Int_Tables_number   1
_chemical_formula_structural   SrIn4Pd
_chemical_formula_sum   'Sr2 In8 Pd2'
_cell_volume   297.13432808
_cell_formula_units_Z   2
loop_
 _symmetry_equiv_pos_site_id
 _symmetry_equiv_pos_as_xyz
  1  'x, y, z'
loop_
 _atom_site_type_symbol
 _atom_site_label
 _atom_site_symmetry_multiplicity
 _atom_site_fract_x
 _atom_site_fract_y
 _atom_site_fract_z
 _atom_site_occupancy
  Sr  Sr0  1  0.12378122  0.87621878  0.75000000  1
  Sr  Sr1  1  0.87621878  0.12378122  0.25000000  1
  In  In0  1  0.31531506  0.68468494  0.94895055  1
  In  In1  1  0.68468494  0.31531506  0.05104945  1
  In  In2  1  0.31531506  0.68468494  0.55104945  1
  In  In3  1  0.50000000  0.50000000  0.00000000  1
  In  In4  1  0.68468494  0.31531506  0.44895055  1
  In  In5  1  0.50000000  0.50000000  0.50000000  1
  In  In6  1  0.06942416  0.93057584  0.25000000  1
  In  In7  1  0.93057584  0.06942416  0.75000000  1
  Pd  Pd0  1  0.77490458  0.22509542  0.75000000  1
  Pd  Pd1  1  0.22509542  0.77490458  0.25000000  1
loop_
_geom_bond_atom_site_label_1
_geom_bond_atom_site_label_2
_geom_bond_distance
_geom_bond_site_symmetry_2
In0 Pd1 2.744823 1_556
In0 Pd0 2.828758 1_455
In0 Pd0 2.828758 1_565
In0 In2 2.993209 1_555
In0 In3 3.198024 1_556
In0 In1 3.303366 1_456
In0 In1 3.303366 1_566
In0 In7 3.383095 1_565
In0 In7 3.383095 1_455
In0 Sr1 3.391790 1_456
In0 Sr1 3.391790 1_566
In0 Sr0 3.616792 1_555
In1 Pd0 2.744823 1_554
In1 Pd1 2.828758 1_655
In1 Pd1 2.828758 1_545
In1 In4 2.993209 1_555
In1 In3 3.198024 1_555
In1 In6 3.383095 1_545
In1 In6 3.383095 1_655
In1 Sr0 3.391790 1_654
In1 Sr0 3.391790 1_544
In1 Sr1 3.616792 1_555
In2 Pd1 2.744823 1_555
In2 Pd0 2.828758 1_565
In2 Pd0 2.828758 1_455
In2 In5 3.198024 1_555
In2 In4 3.303366 1_455
In2 In4 3.303366 1_565
In2 In7 3.383095 1_565
In2 In7 3.383095 1_455
In2 Sr1 3.391790 1_565
In2 Sr1 3.391790 1_455
In2 Sr0 3.616792 1_555
In3 In7 3.200085 1_454
In3 In6 3.200085 1_545
In3 In6 3.200085 1_655
In3 In7 3.200085 1_564
In3 Sr1 3.652966 1_565
In3 Sr0 3.652966 1_654
In3 Sr1 3.652966 1_455
In3 Sr0 3.652966 1_544
In4 Pd0 2.744823 1_555
In4 Pd1 2.828758 1_655
In4 Pd1 2.828758 1_545
In4 In5 3.198024 1_555
In4 In6 3.383095 1_545
In4 In6 3.383095 1_655
In4 Sr0 3.391790 1_655
In4 Sr0 3.391790 1_545
In4 Sr1 3.616792 1_555
In5 In6 3.200085 1_545
In5 In7 3.200085 1_455
In5 In6 3.200085 1_655
In5 In7 3.200085 1_565
In5 Sr0 3.652966 1_655
In5 Sr1 3.652966 1_565
In5 Sr0 3.652966 1_545
In5 Sr1 3.652966 1_455
In6 Pd1 2.676115 1_555
In6 Sr1 3.321357 1_465
In6 Sr0 3.875586 1_555
In6 Sr0 3.875586 1_554
In7 Pd0 2.676115 1_555
In7 Sr0 3.321357 1_645
In7 Sr1 3.875586 1_555
In7 Sr1 3.875586 1_556
Pd0 Sr0 3.468243 1_545
Pd0 Sr0 3.468243 1_655
Pd1 Sr1 3.468243 1_455
Pd1 Sr1 3.468243 1_565
