# generated using pymatgen
data_CoH4S(NO2)2
_symmetry_space_group_name_H-M   'P 1'
_cell_length_a   6.57037100
_cell_length_b   7.71393700
_cell_length_c   8.96912400
_cell_angle_alpha   90.00000000
_cell_angle_beta   90.00000000
_cell_angle_gamma   90.00000000
_symmetry_Int_Tables_number   1
_chemical_formula_structural   CoH4S(NO2)2
_chemical_formula_sum   'Co4 H16 S4 N8 O16'
_cell_volume   454.58595012
_cell_formula_units_Z   4
loop_
 _symmetry_equiv_pos_site_id
 _symmetry_equiv_pos_as_xyz
  1  'x, y, z'
loop_
 _atom_site_type_symbol
 _atom_site_label
 _atom_site_symmetry_multiplicity
 _atom_site_fract_x
 _atom_site_fract_y
 _atom_site_fract_z
 _atom_site_occupancy
  Co  Co0  1  0.00000000  0.50000000  0.50000000  1
  Co  Co1  1  0.50000000  0.00000000  0.50000000  1
  Co  Co2  1  0.50000000  0.50000000  0.00000000  1
  Co  Co3  1  0.00000000  0.00000000  0.00000000  1
  H  H0  1  0.30325300  0.38065500  0.67395400  1
  H  H1  1  0.19674700  0.11934500  0.67395400  1
  H  H2  1  0.80325300  0.61934500  0.82604600  1
  H  H3  1  0.69674700  0.88065500  0.82604600  1
  H  H4  1  0.69674700  0.61934500  0.32604600  1
  H  H5  1  0.80325300  0.88065500  0.32604600  1
  H  H6  1  0.19674700  0.38065500  0.17395400  1
  H  H7  1  0.30325300  0.11934500  0.17395400  1
  H  H8  1  0.37294300  0.37448700  0.49788800  1
  H  H9  1  0.12705700  0.12551300  0.49788800  1
  H  H10  1  0.87294300  0.62551300  0.00211200  1
  H  H11  1  0.62705700  0.87448700  0.00211200  1
  H  H12  1  0.62705700  0.62551300  0.50211200  1
  H  H13  1  0.87294300  0.87448700  0.50211200  1
  H  H14  1  0.12705700  0.37448700  0.99788800  1
  H  H15  1  0.37294300  0.12551300  0.99788800  1
  S  S0  1  0.75000000  0.25000000  0.75768000  1
  S  S1  1  0.25000000  0.75000000  0.74232000  1
  S  S2  1  0.25000000  0.75000000  0.24232000  1
  S  S3  1  0.75000000  0.25000000  0.25768000  1
  N  N0  1  0.25586000  0.34458700  0.56933800  1
  N  N1  1  0.24414000  0.15541300  0.56933800  1
  N  N2  1  0.75586000  0.65541300  0.93066200  1
  N  N3  1  0.74414000  0.84458700  0.93066200  1
  N  N4  1  0.74414000  0.65541300  0.43066200  1
  N  N5  1  0.75586000  0.84458700  0.43066200  1
  N  N6  1  0.24414000  0.34458700  0.06933800  1
  N  N7  1  0.25586000  0.15541300  0.06933800  1
  O  O0  1  0.93085700  0.20835100  0.85242400  1
  O  O1  1  0.56914300  0.29164900  0.85242400  1
  O  O2  1  0.43085700  0.79164900  0.64757600  1
  O  O3  1  0.06914300  0.70835100  0.64757600  1
  O  O4  1  0.06914300  0.79164900  0.14757600  1
  O  O5  1  0.43085700  0.70835100  0.14757600  1
  O  O6  1  0.56914300  0.20835100  0.35242400  1
  O  O7  1  0.93085700  0.29164900  0.35242400  1
  O  O8  1  0.79743100  0.40425200  0.66430000  1
  O  O9  1  0.70256900  0.09574800  0.66430000  1
  O  O10  1  0.29743100  0.59574800  0.83570000  1
  O  O11  1  0.20256900  0.90425200  0.83570000  1
  O  O12  1  0.20256900  0.59574800  0.33570000  1
  O  O13  1  0.29743100  0.90425200  0.33570000  1
  O  O14  1  0.70256900  0.40425200  0.16430000  1
  O  O15  1  0.79743100  0.09574800  0.16430000  1
loop_
_geom_bond_atom_site_label_1
_geom_bond_atom_site_label_2
_geom_bond_distance
_geom_bond_site_symmetry_2
Co0 O12 2.118616 1_555
Co0 O8 2.118616 1_455
Co0 O3 2.131076 1_555
Co0 O7 2.131076 1_455
Co0 N0 2.156403 1_555
Co0 N4 2.156403 1_455
Co1 O13 2.118616 1_545
Co1 O9 2.118616 1_555
Co1 O6 2.131076 1_555
Co1 O2 2.131076 1_545
Co1 N1 2.156403 1_555
Co1 N5 2.156403 1_545
Co2 O14 2.118616 1_555
Co2 O10 2.118616 1_554
Co2 O5 2.131076 1_555
Co2 O1 2.131076 1_554
Co2 N6 2.156403 1_555
Co2 N2 2.156403 1_554
Co3 O15 2.118616 1_455
Co3 O11 2.118616 1_544
Co3 O4 2.131076 1_545
Co3 O0 2.131076 1_454
Co3 N7 2.156403 1_555
Co3 N3 2.156403 1_444
H0 N0 1.027038 1_555
H1 N1 1.027038 1_555
H2 N2 1.027038 1_555
H3 N3 1.027038 1_555
H4 N4 1.027038 1_555
H5 N5 1.027038 1_555
H6 N6 1.027038 1_555
H7 N7 1.027038 1_555
H8 N0 1.027457 1_555
H9 N1 1.027457 1_555
H10 N2 1.027457 1_554
H11 N3 1.027457 1_554
H12 N4 1.027457 1_555
H13 N5 1.027457 1_555
H14 N6 1.027457 1_556
H15 N7 1.027457 1_556
O0 S0 1.495788 1_555
O1 S0 1.495788 1_555
O2 S1 1.495788 1_555
O3 S1 1.495788 1_555
O4 S2 1.495788 1_555
O5 S2 1.495788 1_555
O6 S3 1.495788 1_555
O7 S3 1.495788 1_555
O8 S0 1.488095 1_555
O9 S0 1.488095 1_555
O10 S1 1.488095 1_555
O11 S1 1.488095 1_555
O12 S2 1.488095 1_555
O13 S2 1.488095 1_555
O14 S3 1.488095 1_555
O15 S3 1.488095 1_555
