# generated using pymatgen
data_Li7Mn5O12
_symmetry_space_group_name_H-M   'P 1'
_cell_length_a   3.00691637
_cell_length_b   5.10013033
_cell_length_c   14.73232270
_cell_angle_alpha   97.89737932
_cell_angle_beta   86.64966599
_cell_angle_gamma   93.53846516
_symmetry_Int_Tables_number   1
_chemical_formula_structural   Li7Mn5O12
_chemical_formula_sum   'Li7 Mn5 O12'
_cell_volume   223.07516693
_cell_formula_units_Z   1
loop_
 _symmetry_equiv_pos_site_id
 _symmetry_equiv_pos_as_xyz
  1  'x, y, z'
loop_
 _atom_site_type_symbol
 _atom_site_label
 _atom_site_symmetry_multiplicity
 _atom_site_fract_x
 _atom_site_fract_y
 _atom_site_fract_z
 _atom_site_occupancy
  Li  Li0  1  0.91306800  0.42532700  0.15509800  1
  Li  Li1  1  0.24928800  0.75130000  0.50021700  1
  Li  Li2  1  0.57219000  0.09250500  0.84220700  1
  Li  Li3  1  0.42781000  0.90749500  0.15779300  1
  Li  Li4  1  0.75071200  0.24870000  0.49978300  1
  Li  Li5  1  0.08693200  0.57467300  0.84490200  1
  Li  Li6  1  0.50000000  0.50000000  0.00000000  1
  Mn  Mn0  1  0.00000000  0.00000000  0.00000000  1
  Mn  Mn1  1  0.83740700  0.83214500  0.33235000  1
  Mn  Mn2  1  0.33738200  0.33231900  0.33276100  1
  Mn  Mn3  1  0.66261800  0.66768100  0.66723900  1
  Mn  Mn4  1  0.16259300  0.16785500  0.66765000  1
  O  O0  1  0.49334100  0.18084600  0.07167900  1
  O  O1  1  0.77007500  0.54697100  0.41088800  1
  O  O2  1  0.10537000  0.87665800  0.74176900  1
  O  O3  1  0.95202900  0.73069900  0.07844200  1
  O  O4  1  0.26488000  0.04782200  0.41144900  1
  O  O5  1  0.59841100  0.38180200  0.74383700  1
  O  O6  1  0.40158900  0.61819800  0.25616300  1
  O  O7  1  0.73512000  0.95217800  0.58855100  1
  O  O8  1  0.04797100  0.26930100  0.92155800  1
  O  O9  1  0.89463000  0.12334200  0.25823100  1
  O  O10  1  0.22992500  0.45302900  0.58911200  1
  O  O11  1  0.50665900  0.81915400  0.92832100  1
loop_
_geom_bond_atom_site_label_1
_geom_bond_atom_site_label_2
_geom_bond_distance
_geom_bond_site_symmetry_2
Li0 O3 2.039618 1_555
Li0 O0 2.055203 1_555
Li0 O6 2.239885 1_655
Li0 O6 2.250884 1_555
Li0 O9 2.303560 1_555
Li0 O0 2.388791 1_655
Li1 O4 2.127685 1_565
Li1 O7 2.132685 1_555
Li1 O1 2.133933 1_455
Li1 O10 2.135475 1_555
Li1 O7 2.174267 1_455
Li1 O1 2.203142 1_555
Li2 O8 1.993226 1_655
Li2 O11 2.003699 1_545
Li2 O8 2.081998 1_555
Li2 O5 2.200746 1_555
Li2 O2 2.230713 1_545
Li2 O2 2.337655 1_645
Li3 O3 1.993226 1_455
Li3 O0 2.003699 1_565
Li3 O3 2.081998 1_555
Li3 O6 2.200746 1_555
Li3 O9 2.230713 1_565
Li3 O9 2.337655 1_465
Li4 O7 2.127685 1_545
Li4 O4 2.132685 1_555
Li4 O10 2.133933 1_655
Li4 O1 2.135475 1_555
Li4 O4 2.174267 1_655
Li4 O10 2.203142 1_555
Li5 O8 2.039618 1_555
Li5 O11 2.055203 1_555
Li5 O5 2.239885 1_455
Li5 O5 2.250884 1_555
Li5 O2 2.303560 1_555
Li5 O11 2.388791 1_455
Li6 O3 2.044472 1_555
Li6 O8 2.044472 1_554
Li6 O0 2.056910 1_555
Li6 O11 2.056910 1_554
Li6 O8 2.253417 1_654
Li6 O3 2.253417 1_455
Mn0 O3 1.906553 1_445
Mn0 O8 1.906553 1_554
Mn0 O0 1.978124 1_555
Mn0 O11 1.978124 1_444
Mn0 O0 2.001148 1_455
Mn0 O11 2.001148 1_544
Mn1 O9 1.954414 1_565
Mn1 O6 1.956175 1_555
Mn1 O4 1.966826 1_665
Mn1 O1 1.973275 1_555
Mn1 O6 2.235565 1_655
Mn1 O4 2.275662 1_565
Mn2 O9 1.946300 1_455
Mn2 O6 1.956644 1_555
Mn2 O1 1.966980 1_555
Mn2 O4 1.972400 1_555
Mn2 O9 2.198409 1_555
Mn2 O1 2.255647 1_455
Mn3 O2 1.946300 1_655
Mn3 O5 1.956644 1_555
Mn3 O10 1.966980 1_555
Mn3 O7 1.972400 1_555
Mn3 O2 2.198409 1_555
Mn3 O10 2.255647 1_655
Mn4 O2 1.954414 1_545
Mn4 O5 1.956175 1_555
Mn4 O7 1.966826 1_445
Mn4 O10 1.973275 1_555
Mn4 O5 2.235565 1_455
Mn4 O7 2.275662 1_545
