# generated using pymatgen
data_LiMn
_symmetry_space_group_name_H-M   'P 1'
_cell_length_a   5.09552806
_cell_length_b   5.09571983
_cell_length_c   9.31164570
_cell_angle_alpha   90.16034153
_cell_angle_beta   89.83974369
_cell_angle_gamma   119.93115228
_symmetry_Int_Tables_number   1
_chemical_formula_structural   LiMn
_chemical_formula_sum   'Li8 Mn8'
_cell_volume   209.53203095
_cell_formula_units_Z   8
loop_
 _symmetry_equiv_pos_site_id
 _symmetry_equiv_pos_as_xyz
  1  'x, y, z'
loop_
 _atom_site_type_symbol
 _atom_site_label
 _atom_site_symmetry_multiplicity
 _atom_site_fract_x
 _atom_site_fract_y
 _atom_site_fract_z
 _atom_site_occupancy
  Li  Li0_0  1  0.33336600  0.16668150  0.37500350  1
  Li  Li0_1  1  0.33336600  0.16668150  0.87500350  1
  Li  Li0_2  1  0.33336600  0.66668150  0.37500350  1
  Li  Li0_3  1  0.33336600  0.66668150  0.87500350  1
  Li  Li0_4  1  0.83336600  0.16668150  0.37500350  1
  Li  Li0_5  1  0.83336600  0.16668150  0.87500350  1
  Li  Li0_6  1  0.83336600  0.66668150  0.37500350  1
  Li  Li0_7  1  0.83336600  0.66668150  0.87500350  1
  Mn  Mn0_0  1  0.16663600  0.33332050  0.12499500  1
  Mn  Mn0_1  1  0.16663600  0.33332050  0.62499500  1
  Mn  Mn0_2  1  0.16663600  0.83332050  0.12499500  1
  Mn  Mn0_3  1  0.16663600  0.83332050  0.62499500  1
  Mn  Mn0_4  1  0.66663600  0.33332050  0.12499500  1
  Mn  Mn0_5  1  0.66663600  0.33332050  0.62499500  1
  Mn  Mn0_6  1  0.66663600  0.83332050  0.12499500  1
  Mn  Mn0_7  1  0.66663600  0.83332050  0.62499500  1
loop_
_geom_bond_atom_site_label_1
_geom_bond_atom_site_label_2
_geom_bond_distance
_geom_bond_site_symmetry_2
Li0_0 Li0_4 2.547764 1_455
Li0_0 Li0_4 2.547764 1_555
Li0_0 Li0_2 2.547860 1_545
Li0_0 Li0_2 2.547860 1_555
Li0_0 Li0_6 2.550463 1_445
Li0_0 Li0_6 2.550463 1_555
Li0_0 Mn0_1 2.749440 1_555
Li0_0 Mn0_4 2.752157 1_555
Li0_0 Mn0_2 2.752399 1_545
Li0_0 Mn0_5 2.756036 1_555
Li0_0 Mn0_3 2.756284 1_545
Li0_0 Mn0_0 2.757610 1_555
Li0_1 Li0_5 2.547764 1_555
Li0_1 Li0_5 2.547764 1_455
Li0_1 Li0_3 2.547860 1_545
Li0_1 Li0_3 2.547860 1_555
Li0_1 Li0_7 2.550463 1_445
Li0_1 Li0_7 2.550463 1_555
Li0_1 Mn0_0 2.749440 1_556
Li0_1 Mn0_5 2.752157 1_555
Li0_1 Mn0_3 2.752399 1_545
Li0_1 Mn0_4 2.756036 1_556
Li0_1 Mn0_2 2.756284 1_546
Li0_1 Mn0_1 2.757610 1_555
Li0_2 Li0_6 2.547764 1_455
Li0_2 Li0_6 2.547764 1_555
Li0_2 Li0_4 2.550463 1_565
Li0_2 Li0_4 2.550463 1_455
Li0_2 Mn0_3 2.749440 1_555
Li0_2 Mn0_6 2.752157 1_555
Li0_2 Mn0_0 2.752399 1_555
Li0_2 Mn0_7 2.756036 1_555
Li0_2 Mn0_1 2.756284 1_555
Li0_2 Mn0_2 2.757610 1_555
Li0_3 Li0_7 2.547764 1_455
Li0_3 Li0_7 2.547764 1_555
Li0_3 Li0_5 2.550463 1_565
Li0_3 Li0_5 2.550463 1_455
Li0_3 Mn0_2 2.749440 1_556
Li0_3 Mn0_7 2.752157 1_555
Li0_3 Mn0_1 2.752399 1_555
Li0_3 Mn0_6 2.756036 1_556
Li0_3 Mn0_0 2.756284 1_556
Li0_3 Mn0_3 2.757610 1_555
Li0_4 Li0_6 2.547860 1_545
Li0_4 Li0_6 2.547860 1_555
Li0_4 Mn0_5 2.749440 1_555
Li0_4 Mn0_0 2.752157 1_655
Li0_4 Mn0_6 2.752399 1_545
Li0_4 Mn0_1 2.756036 1_655
Li0_4 Mn0_7 2.756284 1_545
Li0_4 Mn0_4 2.757610 1_555
Li0_5 Li0_7 2.547860 1_555
Li0_5 Li0_7 2.547860 1_545
Li0_5 Mn0_4 2.749440 1_556
Li0_5 Mn0_1 2.752157 1_655
Li0_5 Mn0_7 2.752399 1_545
Li0_5 Mn0_0 2.756036 1_656
Li0_5 Mn0_6 2.756284 1_546
Li0_5 Mn0_5 2.757610 1_555
Li0_6 Mn0_7 2.749440 1_555
Li0_6 Mn0_2 2.752157 1_655
Li0_6 Mn0_4 2.752399 1_555
Li0_6 Mn0_3 2.756036 1_655
Li0_6 Mn0_5 2.756284 1_555
Li0_6 Mn0_6 2.757610 1_555
Li0_7 Mn0_6 2.749440 1_556
Li0_7 Mn0_3 2.752157 1_655
Li0_7 Mn0_5 2.752399 1_555
Li0_7 Mn0_2 2.756036 1_656
Li0_7 Mn0_4 2.756284 1_556
Li0_7 Mn0_7 2.757610 1_555
Mn0_0 Mn0_4 2.547764 1_455
Mn0_0 Mn0_4 2.547764 1_555
Mn0_0 Mn0_2 2.547860 1_555
Mn0_0 Mn0_2 2.547860 1_545
Mn0_0 Mn0_6 2.550463 1_445
Mn0_0 Mn0_6 2.550463 1_555
Mn0_1 Mn0_5 2.547764 1_455
Mn0_1 Mn0_5 2.547764 1_555
Mn0_1 Mn0_3 2.547860 1_545
Mn0_1 Mn0_3 2.547860 1_555
Mn0_1 Mn0_7 2.550463 1_445
Mn0_1 Mn0_7 2.550463 1_555
Mn0_2 Mn0_6 2.547764 1_555
Mn0_2 Mn0_6 2.547764 1_455
Mn0_2 Mn0_4 2.550463 1_455
Mn0_2 Mn0_4 2.550463 1_565
Mn0_3 Mn0_7 2.547764 1_455
Mn0_3 Mn0_7 2.547764 1_555
Mn0_3 Mn0_5 2.550463 1_565
Mn0_3 Mn0_5 2.550463 1_455
Mn0_4 Mn0_6 2.547860 1_545
Mn0_4 Mn0_6 2.547860 1_555
Mn0_5 Mn0_7 2.547860 1_545
Mn0_5 Mn0_7 2.547860 1_555
