# generated using pymatgen
data_Na2Ti2Si4O13
_symmetry_space_group_name_H-M   'P 1'
_cell_length_a   13.16932062
_cell_length_b   13.16932062
_cell_length_c   5.26238473
_cell_angle_alpha   80.83178065
_cell_angle_beta   80.83178065
_cell_angle_gamma   38.80590932
_symmetry_Int_Tables_number   1
_chemical_formula_structural   Na2Ti2Si4O13
_chemical_formula_sum   'Na4 Ti4 Si8 O26'
_cell_volume   563.73019322
_cell_formula_units_Z   2
loop_
 _symmetry_equiv_pos_site_id
 _symmetry_equiv_pos_as_xyz
  1  'x, y, z'
loop_
 _atom_site_type_symbol
 _atom_site_label
 _atom_site_symmetry_multiplicity
 _atom_site_fract_x
 _atom_site_fract_y
 _atom_site_fract_z
 _atom_site_occupancy
  Na  Na0  1  0.04900500  0.65267800  0.29999300  1
  Na  Na1  1  0.65267800  0.04900500  0.79999300  1
  Na  Na2  1  0.95099500  0.34732200  0.70000700  1
  Na  Na3  1  0.34732200  0.95099500  0.20000700  1
  Ti  Ti0  1  0.74178500  0.55825400  0.21158800  1
  Ti  Ti1  1  0.55825400  0.74178500  0.71158800  1
  Ti  Ti2  1  0.25821500  0.44174600  0.78841200  1
  Ti  Ti3  1  0.44174600  0.25821500  0.28841200  1
  Si  Si0  1  0.85938800  0.67434200  0.77440300  1
  Si  Si1  1  0.67434200  0.85938800  0.27440300  1
  Si  Si2  1  0.14061200  0.32565800  0.22559700  1
  Si  Si3  1  0.32565800  0.14061200  0.72559700  1
  Si  Si4  1  0.03787800  0.83387400  0.77891500  1
  Si  Si5  1  0.83387400  0.03787800  0.27891500  1
  Si  Si6  1  0.96212200  0.16612600  0.22108500  1
  Si  Si7  1  0.16612600  0.96212200  0.72108500  1
  O  O0  1  0.14833200  0.85166800  0.75000000  1
  O  O1  1  0.85166800  0.14833200  0.25000000  1
  O  O2  1  0.95810100  0.88782800  0.50069700  1
  O  O3  1  0.88782800  0.95810100  0.00069700  1
  O  O4  1  0.04189900  0.11217200  0.49930300  1
  O  O5  1  0.11217200  0.04189900  0.99930300  1
  O  O6  1  0.78847500  0.79582300  0.50758700  1
  O  O7  1  0.79582300  0.78847500  0.00758700  1
  O  O8  1  0.21152500  0.20417700  0.49241300  1
  O  O9  1  0.20417700  0.21152500  0.99241300  1
  O  O10  1  0.68299000  0.55077800  0.54372800  1
  O  O11  1  0.55077800  0.68299000  0.04372800  1
  O  O12  1  0.31701000  0.44922200  0.45627200  1
  O  O13  1  0.44922200  0.31701000  0.95627200  1
  O  O14  1  0.94591300  0.46831100  0.27076100  1
  O  O15  1  0.46831100  0.94591300  0.77076100  1
  O  O16  1  0.05408700  0.53168900  0.72923900  1
  O  O17  1  0.53168900  0.05408700  0.22923900  1
  O  O18  1  0.78273400  0.61788800  0.82942200  1
  O  O19  1  0.61788800  0.78273400  0.32942200  1
  O  O20  1  0.21726600  0.38211200  0.17057800  1
  O  O21  1  0.38211200  0.21726600  0.67057800  1
  O  O22  1  0.86244500  0.34649400  0.12774500  1
  O  O23  1  0.34649400  0.86244500  0.62774500  1
  O  O24  1  0.13755500  0.65350600  0.87225500  1
  O  O25  1  0.65350600  0.13755500  0.37225500  1
loop_
_geom_bond_atom_site_label_1
_geom_bond_atom_site_label_2
_geom_bond_distance
_geom_bond_site_symmetry_2
Na0 O24 2.366894 1_554
Na0 O12 2.407578 1_555
Na0 O6 2.429047 1_455
Na0 O20 2.461078 1_555
Na0 O16 2.526007 1_555
Na0 O2 2.645757 1_455
Na0 O7 2.854440 1_455
Na0 O3 2.984076 1_455
Na1 O25 2.366894 1_555
Na1 O13 2.407578 1_555
Na1 O7 2.429047 1_546
Na1 O21 2.461078 1_555
Na1 O17 2.526007 1_556
Na1 O3 2.645757 1_546
Na1 O6 2.854440 1_545
Na1 O2 2.984076 1_545
Na2 O22 2.366894 1_556
Na2 O10 2.407578 1_555
Na2 O8 2.429047 1_655
Na2 O18 2.461078 1_555
Na2 O14 2.526007 1_555
Na2 O4 2.645757 1_655
Na2 O9 2.854440 1_655
Na2 O5 2.984076 1_655
Na3 O23 2.366894 1_555
Na3 O11 2.407578 1_555
Na3 O9 2.429047 1_564
Na3 O19 2.461078 1_555
Na3 O15 2.526007 1_554
Na3 O5 2.645757 1_564
Na3 O8 2.854440 1_565
Na3 O4 2.984076 1_565
O0 Si7 1.625822 1_555
O0 Si4 1.625822 1_555
O1 Si6 1.625822 1_555
O1 Si5 1.625822 1_555
O2 Si4 1.657533 1_655
O2 Si5 1.666862 1_565
O3 Si5 1.657533 1_565
O3 Si4 1.666862 1_654
O4 Si6 1.657533 1_455
O4 Si7 1.666862 1_545
O5 Si7 1.657533 1_545
O5 Si6 1.666862 1_456
O6 Si1 1.662866 1_555
O6 Si0 1.666291 1_555
O7 Si0 1.662866 1_554
O7 Si1 1.666291 1_555
O8 Si3 1.662866 1_555
O8 Si2 1.666291 1_555
O9 Si2 1.662866 1_556
O9 Si3 1.666291 1_555
O10 Ti0 1.815737 1_555
O10 Ti1 1.900465 1_555
O11 Ti1 1.815737 1_554
O11 Ti0 1.900465 1_555
O12 Ti2 1.815737 1_555
O12 Ti3 1.900465 1_555
O13 Ti3 1.815737 1_556
O13 Ti2 1.900465 1_555
O14 Si2 1.612705 1_655
O14 Ti0 1.978149 1_555
O15 Si3 1.612705 1_565
O15 Ti1 1.978149 1_555
O16 Si0 1.612705 1_455
O16 Ti2 1.978149 1_555
O17 Si1 1.612705 1_545
O17 Ti3 1.978149 1_555
O18 Si0 1.632049 1_555
O18 Ti1 2.128429 1_555
O18 Ti0 2.182491 1_556
O19 Si1 1.632049 1_555
O19 Ti0 2.128429 1_555
O19 Ti1 2.182491 1_555
O20 Si2 1.632049 1_555
O20 Ti3 2.128429 1_555
O20 Ti2 2.182491 1_554
O21 Si3 1.632049 1_555
O21 Ti2 2.128429 1_555
O21 Ti3 2.182491 1_555
O22 Si6 1.606431 1_555
O22 Ti0 1.938793 1_555
O23 Si7 1.606431 1_555
O23 Ti1 1.938793 1_555
O24 Si4 1.606431 1_555
O24 Ti2 1.938793 1_555
O25 Si5 1.606431 1_555
O25 Ti3 1.938793 1_555
