# generated using pymatgen
data_RbMg14Bi
_symmetry_space_group_name_H-M   'P 1'
_cell_length_a   6.63752385
_cell_length_b   6.64486948
_cell_length_c   10.68179569
_cell_angle_alpha   90.00000000
_cell_angle_beta   90.00000000
_cell_angle_gamma   120.03662129
_symmetry_Int_Tables_number   1
_chemical_formula_structural   RbMg14Bi
_chemical_formula_sum   'Rb1 Mg14 Bi1'
_cell_volume   407.85619775
_cell_formula_units_Z   1
loop_
 _symmetry_equiv_pos_site_id
 _symmetry_equiv_pos_as_xyz
  1  'x, y, z'
loop_
 _atom_site_type_symbol
 _atom_site_label
 _atom_site_symmetry_multiplicity
 _atom_site_fract_x
 _atom_site_fract_y
 _atom_site_fract_z
 _atom_site_occupancy
  Rb  Rb0  1  0.16872939  0.33436420  0.12500000  1
  Mg  Mg0  1  0.16606569  0.33303234  0.62500000  1
  Mg  Mg1  1  0.16357856  0.83178878  0.62500000  1
  Mg  Mg2  1  0.66660744  0.32775262  0.12500000  1
  Mg  Mg3  1  0.66860956  0.33649520  0.62500000  1
  Mg  Mg4  1  0.66660744  0.83885382  0.12500000  1
  Mg  Mg5  1  0.66860956  0.83211336  0.62500000  1
  Mg  Mg6  1  0.34020194  0.16380029  0.39153444  1
  Mg  Mg7  1  0.34020194  0.16380029  0.85846556  1
  Mg  Mg8  1  0.34020194  0.67640266  0.39153444  1
  Mg  Mg9  1  0.34020194  0.67640266  0.85846556  1
  Mg  Mg10  1  0.81979824  0.15989962  0.39050628  1
  Mg  Mg11  1  0.81979824  0.15989962  0.85949372  1
  Mg  Mg12  1  0.82736777  0.66368439  0.37512828  1
  Mg  Mg13  1  0.82736777  0.66368439  0.87487172  1
  Bi  Bi0  1  0.17605256  0.83802578  0.12500000  1
loop_
_geom_bond_atom_site_label_1
_geom_bond_atom_site_label_2
_geom_bond_distance
_geom_bond_site_symmetry_2
Mg0 Mg6 3.181337 1_555
Mg0 Mg7 3.181337 1_555
Mg0 Mg8 3.181344 1_555
Mg0 Mg9 3.181344 1_555
Mg0 Mg11 3.198907 1_455
Mg0 Mg10 3.198907 1_455
Mg0 Mg5 3.313454 1_445
Mg0 Mg3 3.313455 1_455
Mg0 Mg1 3.322465 1_545
Mg0 Mg1 3.322466 1_555
Mg0 Mg5 3.324188 1_555
Mg0 Mg3 3.324189 1_555
Mg1 Mg9 3.141892 1_555
Mg1 Mg8 3.141892 1_555
Mg1 Mg7 3.141899 1_565
Mg1 Mg6 3.141899 1_565
Mg1 Mg3 3.286448 1_455
Mg1 Mg5 3.286449 1_455
Mg1 Mg12 3.294886 1_455
Mg1 Mg13 3.294886 1_455
Mg1 Mg3 3.351076 1_565
Mg1 Mg5 3.351076 1_555
Mg2 Rb0 3.311074 1_655
Mg2 Rb0 3.326886 1_555
Mg2 Mg6 3.409338 1_555
Mg2 Mg7 3.409338 1_554
Mg3 Mg6 3.127849 1_555
Mg3 Mg7 3.127849 1_555
Mg3 Mg5 3.293318 1_555
Mg3 Mg5 3.351551 1_545
Mg4 Rb0 3.311074 1_665
Mg4 Rb0 3.326885 1_555
Mg4 Mg8 3.409338 1_555
Mg4 Mg9 3.409338 1_554
Mg5 Mg9 3.127849 1_555
Mg5 Mg8 3.127849 1_555
Mg6 Mg8 3.238694 1_545
Mg6 Mg8 3.406176 1_555
Mg6 Rb0 3.460795 1_555
Mg7 Mg9 3.238694 1_545
Mg7 Mg9 3.406176 1_555
Mg7 Rb0 3.460795 1_556
Mg8 Rb0 3.460801 1_555
Mg9 Rb0 3.460801 1_556
Mg10 Mg3 3.136403 1_555
Mg10 Mg5 3.136410 1_545
Mg10 Mg8 3.196403 1_545
Mg10 Mg6 3.196404 1_555
Mg10 Mg12 3.326777 1_545
Mg10 Mg12 3.326777 1_555
Mg10 Mg2 3.384769 1_555
Mg10 Mg4 3.384776 1_545
Mg10 Mg8 3.441308 1_655
Mg10 Mg6 3.441309 1_655
Mg10 Rb0 3.473245 1_655
Mg11 Mg3 3.136403 1_555
Mg11 Mg5 3.136410 1_545
Mg11 Mg9 3.196403 1_545
Mg11 Mg7 3.196404 1_555
Mg11 Mg13 3.326777 1_545
Mg11 Mg13 3.326777 1_555
Mg11 Mg2 3.384769 1_556
Mg11 Mg4 3.384776 1_546
Mg11 Mg9 3.441308 1_655
Mg11 Mg7 3.441309 1_655
Mg11 Rb0 3.473245 1_656
Mg12 Mg5 3.266135 1_555
Mg12 Mg3 3.266142 1_555
Mg12 Mg6 3.281377 1_555
Mg12 Mg8 3.281377 1_555
Mg12 Mg4 3.297796 1_555
Mg12 Mg2 3.297803 1_555
Mg12 Mg6 3.367006 1_665
Mg12 Mg8 3.367006 1_655
Mg13 Mg5 3.266135 1_555
Mg13 Mg3 3.266142 1_555
Mg13 Mg7 3.281377 1_555
Mg13 Mg9 3.281377 1_555
Mg13 Mg4 3.297796 1_556
Mg13 Mg2 3.297803 1_556
Mg13 Mg7 3.367006 1_665
Mg13 Mg9 3.367006 1_655
Bi0 Mg2 3.253319 1_565
Bi0 Mg4 3.253319 1_555
Bi0 Rb0 3.322701 1_555
Bi0 Rb0 3.322701 1_565
Bi0 Mg13 3.339611 1_454
Bi0 Mg12 3.339611 1_455
Bi0 Mg2 3.384211 1_455
Bi0 Mg4 3.384212 1_455
Bi0 Mg8 3.408478 1_555
Bi0 Mg9 3.408478 1_554
Bi0 Mg6 3.408485 1_565
Bi0 Mg7 3.408485 1_564
