# generated using pymatgen
data_Nd3Bi(Ru2O7)2
_symmetry_space_group_name_H-M   'P 1'
_cell_length_a   7.36950327
_cell_length_b   7.36950327
_cell_length_c   7.36950312
_cell_angle_alpha   60.39155783
_cell_angle_beta   60.39155783
_cell_angle_gamma   60.39155974
_symmetry_Int_Tables_number   1
_chemical_formula_structural   Nd3Bi(Ru2O7)2
_chemical_formula_sum   'Nd3 Bi1 Ru4 O14'
_cell_volume   285.51476639
_cell_formula_units_Z   1
loop_
 _symmetry_equiv_pos_site_id
 _symmetry_equiv_pos_as_xyz
  1  'x, y, z'
loop_
 _atom_site_type_symbol
 _atom_site_label
 _atom_site_symmetry_multiplicity
 _atom_site_fract_x
 _atom_site_fract_y
 _atom_site_fract_z
 _atom_site_occupancy
  Nd  Nd0  1  0.00000000  0.50000000  0.00000000  1
  Nd  Nd1  1  0.50000000  0.00000000  0.00000000  1
  Nd  Nd2  1  0.00000000  0.00000000  0.50000000  1
  Bi  Bi0  1  0.00000000  0.00000000  0.00000000  1
  Ru  Ru0  1  0.50000000  0.50000000  0.50000000  1
  Ru  Ru1  1  0.50000000  0.00000000  0.50000000  1
  Ru  Ru2  1  0.00000000  0.50000000  0.50000000  1
  Ru  Ru3  1  0.50000000  0.50000000  0.00000000  1
  O  O0  1  0.41952400  0.41952400  0.83073100  1
  O  O1  1  0.83073100  0.41952400  0.41952400  1
  O  O2  1  0.41952400  0.83073100  0.41952400  1
  O  O3  1  0.82767600  0.82767600  0.41936800  1
  O  O4  1  0.41936800  0.82767600  0.82767600  1
  O  O5  1  0.82767600  0.41936800  0.82767600  1
  O  O6  1  0.58047600  0.58047600  0.16926900  1
  O  O7  1  0.16926900  0.58047600  0.58047600  1
  O  O8  1  0.58047600  0.16926900  0.58047600  1
  O  O9  1  0.17232400  0.17232400  0.58063200  1
  O  O10  1  0.58063200  0.17232400  0.17232400  1
  O  O11  1  0.17232400  0.58063200  0.17232400  1
  O  O12  1  0.12556900  0.12556900  0.12556900  1
  O  O13  1  0.87443100  0.87443100  0.87443100  1
loop_
_geom_bond_atom_site_label_1
_geom_bond_atom_site_label_2
_geom_bond_distance
_geom_bond_site_symmetry_2
Nd0 O13 2.264197 1_454
Nd0 O12 2.264197 1_555
Nd0 O7 2.564099 1_554
Nd0 O1 2.564099 1_455
Nd0 O6 2.564099 1_455
Nd0 O0 2.564099 1_554
Nd0 O11 2.581390 1_555
Nd0 O5 2.581390 1_454
Nd1 O13 2.264197 1_544
Nd1 O12 2.264197 1_555
Nd1 O8 2.564099 1_554
Nd1 O2 2.564099 1_545
Nd1 O6 2.564099 1_545
Nd1 O0 2.564099 1_554
Nd1 O10 2.581390 1_555
Nd1 O4 2.581390 1_544
Nd2 O13 2.264197 1_445
Nd2 O12 2.264197 1_555
Nd2 O8 2.564099 1_455
Nd2 O7 2.564099 1_545
Nd2 O2 2.564099 1_545
Nd2 O1 2.564099 1_455
Nd2 O9 2.581390 1_555
Nd2 O3 2.581390 1_445
Bi0 O12 2.259981 1_555
Bi0 O13 2.259981 1_444
Bi0 O3 2.571776 1_445
Bi0 O9 2.571776 1_554
Bi0 O5 2.571776 1_454
Bi0 O4 2.571776 1_544
Bi0 O10 2.571776 1_455
Bi0 O11 2.571776 1_545
O0 Ru3 2.017218 1_556
O0 Ru0 2.033434 1_555
O1 Ru2 2.017218 1_655
O1 Ru0 2.033434 1_555
O2 Ru1 2.017218 1_565
O2 Ru0 2.033434 1_555
O3 Ru1 2.023517 1_565
O3 Ru2 2.023517 1_655
O4 Ru1 2.023517 1_565
O4 Ru3 2.023517 1_556
O5 Ru2 2.023517 1_655
O5 Ru3 2.023517 1_556
O6 Ru3 2.017218 1_555
O6 Ru0 2.033434 1_555
O7 Ru2 2.017218 1_555
O7 Ru0 2.033434 1_555
O8 Ru1 2.017218 1_555
O8 Ru0 2.033434 1_555
O9 Ru2 2.023517 1_555
O9 Ru1 2.023517 1_555
O10 Ru1 2.023517 1_555
O10 Ru3 2.023517 1_555
O11 Ru2 2.023517 1_555
O11 Ru3 2.023517 1_555
