# generated using pymatgen
data_Dy5(Ge5Ir2)2
_symmetry_space_group_name_H-M   'P 1'
_cell_length_a   12.95115283
_cell_length_b   12.95111993
_cell_length_c   4.31532629
_cell_angle_alpha   90.00000031
_cell_angle_beta   90.00000084
_cell_angle_gamma   89.99985569
_symmetry_Int_Tables_number   1
_chemical_formula_structural   Dy5(Ge5Ir2)2
_chemical_formula_sum   'Dy10 Ge20 Ir8'
_cell_volume   723.81802245
_cell_formula_units_Z   2
loop_
 _symmetry_equiv_pos_site_id
 _symmetry_equiv_pos_as_xyz
  1  'x, y, z'
loop_
 _atom_site_type_symbol
 _atom_site_label
 _atom_site_symmetry_multiplicity
 _atom_site_fract_x
 _atom_site_fract_y
 _atom_site_fract_z
 _atom_site_occupancy
  Dy  Dy0  1  0.50000243  0.50000158  -0.00000003  1
  Dy  Dy1  1  0.00000386  0.00000149  0.00000001  1
  Dy  Dy2  1  0.67372738  0.17373566  0.50000005  1
  Dy  Dy3  1  0.32627049  0.82626111  0.49999998  1
  Dy  Dy4  1  0.17374106  0.32626320  0.50000005  1
  Dy  Dy5  1  0.82625319  0.67373312  0.50000004  1
  Dy  Dy6  1  0.88510014  0.38510724  0.49999989  1
  Dy  Dy7  1  0.11490066  0.61489149  0.50000004  1
  Dy  Dy8  1  0.38512277  0.11488089  0.49999995  1
  Dy  Dy9  1  0.61487230  0.88511654  0.49999992  1
  Ge  Ge0  1  0.56734143  0.06733816  0.00000006  1
  Ge  Ge1  1  0.43264783  0.93264523  -0.00000007  1
  Ge  Ge2  1  0.06734734  0.43265814  0.00000002  1
  Ge  Ge3  1  0.93265333  0.56735253  0.00000005  1
  Ge  Ge4  1  0.66390638  0.70061424  -0.00000011  1
  Ge  Ge5  1  0.33608665  0.29938779  0.00000013  1
  Ge  Ge6  1  0.16390386  0.79938370  -0.00000004  1
  Ge  Ge7  1  0.83609833  0.20061827  0.00000002  1
  Ge  Ge8  1  0.29938000  0.66391099  -0.00000002  1
  Ge  Ge9  1  0.70062082  0.33610174  -0.00000006  1
  Ge  Ge10  1  0.20061006  0.16390209  -0.00000014  1
  Ge  Ge11  1  0.79939306  0.83608784  0.00000015  1
  Ge  Ge12  1  0.65625968  0.50557610  0.50000002  1
  Ge  Ge13  1  0.34373566  0.49446501  0.49999998  1
  Ge  Ge14  1  0.15626203  0.99442402  0.49999995  1
  Ge  Ge15  1  0.84374074  0.00553441  0.50000008  1
  Ge  Ge16  1  0.49444174  0.65626458  0.49999997  1
  Ge  Ge17  1  0.50554881  0.34374814  0.50000010  1
  Ge  Ge18  1  0.00556935  0.15625935  0.50000004  1
  Ge  Ge19  1  0.99445278  0.84372957  0.49999995  1
  Ir  Ir0  1  0.74540350  0.51988004  0.00000003  1
  Ir  Ir1  1  0.25459753  0.48013059  -0.00000007  1
  Ir  Ir2  1  0.24540483  0.98012523  -0.00000003  1
  Ir  Ir3  1  0.75459569  0.01986477  0.00000006  1
  Ir  Ir4  1  0.48013336  0.74540187  -0.00000001  1
  Ir  Ir5  1  0.51986737  0.25460037  0.00000008  1
  Ir  Ir6  1  0.01987652  0.24540788  0.00000004  1
  Ir  Ir7  1  0.98012802  0.75459304  -0.00000008  1
loop_
_geom_bond_atom_site_label_1
_geom_bond_atom_site_label_2
_geom_bond_distance
_geom_bond_site_symmetry_2
Dy0 Ge17 2.959029 1_554
Dy0 Ge17 2.959030 1_555
Dy0 Ge12 2.959076 1_554
Dy0 Ge12 2.959076 1_555
Dy0 Ge16 2.959119 1_555
Dy0 Ge16 2.959119 1_554
Dy0 Ge13 2.959148 1_554
Dy0 Ge13 2.959149 1_555
Dy0 Ir4 3.188608 1_555
Dy0 Ir5 3.188616 1_555
Dy0 Ir0 3.188638 1_555
Dy0 Ir1 3.188679 1_555
Dy0 Ge4 3.355071 1_555
Dy0 Ge9 3.355088 1_555
Dy0 Ge5 3.355179 1_555
Dy0 Ge8 3.355207 1_555
Dy1 Ge18 2.959075 1_554
Dy1 Ge18 2.959075 1_555
Dy1 Ge14 2.959085 1_545
Dy1 Ge14 2.959085 1_544
Dy1 Ge15 2.959115 1_454
Dy1 Ge15 2.959115 1_455
Dy1 Ge19 2.959195 1_445
Dy1 Ge19 2.959195 1_444
Dy1 Ir2 3.188633 1_545
Dy1 Ir6 3.188692 1_555
Dy1 Ir3 3.188712 1_455
Dy1 Ir7 3.188722 1_445
Dy1 Ge10 3.354981 1_555
Dy1 Ge6 3.355082 1_545
Dy1 Ge7 3.355117 1_455
Dy1 Ge11 3.355134 1_445
Dy2 Ge0 2.907353 1_555
Dy2 Ge0 2.907353 1_556
Dy2 Ge9 3.032934 1_556
Dy2 Ge9 3.032935 1_555
Dy2 Ge7 3.032965 1_556
Dy2 Ge7 3.032966 1_555
Dy2 Ge17 3.097140 1_555
Dy2 Ge15 3.097355 1_555
Dy2 Ir5 3.118176 1_555
Dy2 Ir5 3.118177 1_556
Dy2 Ir3 3.118280 1_555
Dy2 Ir3 3.118280 1_556
Dy3 Ge1 2.907218 1_556
Dy3 Ge1 2.907218 1_555
Dy3 Ge8 3.032787 1_555
Dy3 Ge8 3.032787 1_556
Dy3 Ge6 3.032919 1_556
Dy3 Ge6 3.032919 1_555
Dy3 Ge16 3.096926 1_555
Dy3 Ge14 3.096960 1_555
Dy3 Ir4 3.118176 1_555
Dy3 Ir4 3.118176 1_556
Dy3 Ir2 3.118212 1_556
Dy3 Ir2 3.118212 1_555
Dy4 Ge2 2.907382 1_556
Dy4 Ge2 2.907382 1_555
Dy4 Ge5 3.032726 1_555
Dy4 Ge5 3.032726 1_556
Dy4 Ge10 3.032852 1_556
Dy4 Ge10 3.032853 1_555
Dy4 Ge18 3.097006 1_555
Dy4 Ge13 3.097195 1_555
Dy4 Ir6 3.118177 1_556
Dy4 Ir6 3.118177 1_555
Dy4 Ir1 3.118202 1_556
Dy4 Ir1 3.118203 1_555
Dy5 Ge3 2.907333 1_555
Dy5 Ge3 2.907333 1_556
Dy5 Ge4 3.032745 1_556
Dy5 Ge4 3.032746 1_555
Dy5 Ge11 3.032781 1_555
Dy5 Ge11 3.032782 1_556
Dy5 Ge12 3.096777 1_555
Dy5 Ge19 3.097192 1_555
Dy5 Ir0 3.118055 1_556
Dy5 Ir0 3.118055 1_555
Dy5 Ir7 3.118281 1_556
Dy5 Ir7 3.118282 1_555
Dy6 Ge3 3.256645 1_555
Dy6 Ge3 3.256645 1_556
Dy6 Ge2 3.256661 1_655
Dy6 Ge2 3.256662 1_656
Dy6 Ge9 3.281265 1_555
Dy6 Ge9 3.281266 1_556
Dy6 Ge7 3.281343 1_555
Dy6 Ge7 3.281344 1_556
Dy6 Ir0 3.312920 1_555
Dy6 Ir0 3.312921 1_556
Dy6 Ir6 3.312964 1_655
Dy6 Ir6 3.312964 1_656
Dy6 Ge12 3.349332 1_555
Dy6 Ge18 3.349414 1_655
Dy7 Ge2 3.256533 1_556
Dy7 Ge2 3.256533 1_555
Dy7 Ge3 3.256633 1_455
Dy7 Ge3 3.256633 1_456
Dy7 Ge8 3.281301 1_556
Dy7 Ge8 3.281301 1_555
Dy7 Ge6 3.281377 1_556
Dy7 Ge6 3.281377 1_555
Dy7 Ir1 3.312841 1_556
Dy7 Ir1 3.312841 1_555
Dy7 Ir7 3.312954 1_456
Dy7 Ir7 3.312954 1_455
Dy7 Ge13 3.349013 1_555
Dy7 Ge19 3.349173 1_455
Dy8 Ge0 3.256371 1_555
Dy8 Ge0 3.256371 1_556
Dy8 Ge1 3.256483 1_546
Dy8 Ge1 3.256483 1_545
Dy8 Ge5 3.281595 1_555
Dy8 Ge5 3.281596 1_556
Dy8 Ge10 3.281617 1_556
Dy8 Ge10 3.281618 1_555
Dy8 Ir5 3.312894 1_555
Dy8 Ir5 3.312895 1_556
Dy8 Ir2 3.312959 1_545
Dy8 Ir2 3.312959 1_546
Dy8 Ge17 3.349383 1_555
Dy8 Ge14 3.349499 1_545
Dy9 Ge0 3.256365 1_565
Dy9 Ge0 3.256366 1_566
Dy9 Ge1 3.256391 1_555
Dy9 Ge1 3.256391 1_556
Dy9 Ge4 3.281547 1_556
Dy9 Ge4 3.281547 1_555
Dy9 Ge11 3.281711 1_555
Dy9 Ge11 3.281713 1_556
Dy9 Ir4 3.312822 1_555
Dy9 Ir4 3.312822 1_556
Dy9 Ir3 3.312947 1_565
Dy9 Ir3 3.312947 1_566
Dy9 Ge16 3.349235 1_555
Dy9 Ge15 3.349352 1_565
Ge0 Ge1 2.467001 1_545
Ge0 Ir3 2.501881 1_555
Ge0 Ir5 2.501977 1_555
Ge1 Ir2 2.501760 1_555
Ge1 Ir4 2.501777 1_555
Ge2 Ge3 2.467012 1_455
Ge2 Ir6 2.501820 1_555
Ge2 Ir1 2.501830 1_555
Ge3 Ir7 2.501710 1_555
Ge3 Ir0 2.501825 1_555
Ge4 Ir4 2.449734 1_555
Ge4 Ir0 2.567675 1_555
Ge5 Ir5 2.449830 1_555
Ge5 Ir1 2.567734 1_555
Ge6 Ir7 2.449781 1_455
Ge6 Ge8 2.481302 1_555
Ge6 Ir2 2.567787 1_555
Ge7 Ir6 2.449808 1_655
Ge7 Ge9 2.481413 1_555
Ge7 Ir3 2.567937 1_555
Ge8 Ir1 2.449808 1_555
Ge8 Ir4 2.567877 1_555
Ge9 Ir0 2.449782 1_555
Ge9 Ir5 2.567934 1_555
Ge10 Ir2 2.449799 1_545
Ge10 Ge5 2.481431 1_555
Ge10 Ir6 2.567717 1_555
Ge11 Ir3 2.449807 1_565
Ge11 Ge4 2.481413 1_555
Ge11 Ir7 2.567676 1_555
Ge12 Ir0 2.454126 1_555
Ge12 Ir0 2.454126 1_556
Ge12 Ge16 2.863694 1_555
Ge12 Ge17 2.863993 1_555
Ge13 Ir1 2.454121 1_556
Ge13 Ir1 2.454121 1_555
Ge13 Ge16 2.863682 1_555
Ge13 Ge17 2.863899 1_555
Ge14 Ir2 2.454114 1_555
Ge14 Ir2 2.454115 1_556
Ge14 Ge19 2.863671 1_455
Ge14 Ge18 2.863895 1_565
Ge15 Ir3 2.454159 1_556
Ge15 Ir3 2.454159 1_555
Ge15 Ge19 2.863777 1_545
Ge15 Ge18 2.864124 1_655
Ge16 Ir4 2.454089 1_555
Ge16 Ir4 2.454089 1_556
Ge17 Ir5 2.454163 1_556
Ge17 Ir5 2.454163 1_555
Ge18 Ir6 2.454157 1_556
Ge18 Ir6 2.454157 1_555
Ge19 Ir7 2.454101 1_556
Ge19 Ir7 2.454101 1_555
