# generated using pymatgen
data_V2FeSe4
_symmetry_space_group_name_H-M   'P 1'
_cell_length_a   6.88487786
_cell_length_b   6.88487786
_cell_length_c   6.27690599
_cell_angle_alpha   63.56800235
_cell_angle_beta   63.56800235
_cell_angle_gamma   28.79523157
_symmetry_Int_Tables_number   1
_chemical_formula_structural   V2FeSe4
_chemical_formula_sum   'V2 Fe1 Se4'
_cell_volume   127.28577925
_cell_formula_units_Z   1
loop_
 _symmetry_equiv_pos_site_id
 _symmetry_equiv_pos_as_xyz
  1  'x, y, z'
loop_
 _atom_site_type_symbol
 _atom_site_label
 _atom_site_symmetry_multiplicity
 _atom_site_fract_x
 _atom_site_fract_y
 _atom_site_fract_z
 _atom_site_occupancy
  V  V0  1  0.99951500  0.99951500  0.99725900  1
  V  V1  1  0.25019800  0.25019800  0.68547500  1
  Fe  Fe0  1  0.74825800  0.74825800  0.32035500  1
  Se  Se0  1  0.88995900  0.88995900  0.45388100  1
  Se  Se1  1  0.11077900  0.11077900  0.54384700  1
  Se  Se2  1  0.63941100  0.63941100  0.02118600  1
  Se  Se3  1  0.36188000  0.36188000  0.97799700  1
loop_
_geom_bond_atom_site_label_1
_geom_bond_atom_site_label_2
_geom_bond_distance
_geom_bond_site_symmetry_2
Fe0 Se0 2.393767 1_555
Fe0 Se1 2.428265 1_565
Fe0 Se1 2.428265 1_655
Fe0 Se3 2.617617 1_654
Fe0 Se3 2.617617 1_564
Fe0 Se2 2.852987 1_555
Se0 V1 2.455179 1_565
Se0 V1 2.455179 1_655
Se0 V0 2.549638 1_554
Se1 V1 2.401522 1_555
Se1 V0 2.533796 1_445
Se2 V0 2.586916 1_454
Se2 V0 2.586916 1_544
Se2 V1 2.586990 1_654
Se2 V1 2.586990 1_564
Se3 V0 2.553235 1_545
Se3 V0 2.553235 1_455
Se3 V1 2.846740 1_555
