# generated using pymatgen
data_MoH12C4S2(BrO2)2
_symmetry_space_group_name_H-M   'P 1'
_cell_length_a   13.21444000
_cell_length_b   8.41950700
_cell_length_c   15.64637251
_cell_angle_alpha   58.39271942
_cell_angle_beta   90.00000000
_cell_angle_gamma   90.00000000
_symmetry_Int_Tables_number   1
_chemical_formula_structural   MoH12C4S2(BrO2)2
_chemical_formula_sum   'Mo4 H48 C16 S8 Br8 O16'
_cell_volume   1482.57105616
_cell_formula_units_Z   4
loop_
 _symmetry_equiv_pos_site_id
 _symmetry_equiv_pos_as_xyz
  1  'x, y, z'
loop_
 _atom_site_type_symbol
 _atom_site_label
 _atom_site_symmetry_multiplicity
 _atom_site_fract_x
 _atom_site_fract_y
 _atom_site_fract_z
 _atom_site_occupancy
  Mo  Mo0  1  0.76329100  0.19532900  0.55449500  1
  Mo  Mo1  1  0.73670900  0.19532900  0.05449500  1
  Mo  Mo2  1  0.23670900  0.80467100  0.44550500  1
  Mo  Mo3  1  0.26329100  0.80467100  0.94550500  1
  H  H0  1  0.43607400  0.15830400  0.41589000  1
  H  H1  1  0.06392600  0.15830400  0.91589000  1
  H  H2  1  0.56392600  0.84169600  0.58411000  1
  H  H3  1  0.93607400  0.84169600  0.08411000  1
  H  H4  1  0.42173700  0.37131100  0.29678700  1
  H  H5  1  0.07826300  0.37131100  0.79678700  1
  H  H6  1  0.57826300  0.62868900  0.70321300  1
  H  H7  1  0.92173700  0.62868900  0.20321300  1
  H  H8  1  0.50819200  0.19431700  0.30927000  1
  H  H9  1  0.99180800  0.19431700  0.80927000  1
  H  H10  1  0.49180800  0.80568300  0.69073000  1
  H  H11  1  0.00819200  0.80568300  0.19073000  1
  H  H12  1  0.65575900  0.39971500  0.23571300  1
  H  H13  1  0.84424100  0.39971500  0.73571300  1
  H  H14  1  0.34424100  0.60028500  0.76428700  1
  H  H15  1  0.15575900  0.60028500  0.26428700  1
  H  H16  1  0.57896700  0.60071500  0.20596600  1
  H  H17  1  0.92103300  0.60071500  0.70596600  1
  H  H18  1  0.42103300  0.39928500  0.79403400  1
  H  H19  1  0.07896700  0.39928500  0.29403400  1
  H  H20  1  0.69876700  0.56507800  0.26858100  1
  H  H21  1  0.80123300  0.56507800  0.76858100  1
  H  H22  1  0.30123300  0.43492200  0.73141900  1
  H  H23  1  0.19876700  0.43492200  0.23141900  1
  H  H24  1  0.60846500  0.81039500  0.40565500  1
  H  H25  1  0.89153500  0.81039500  0.90565500  1
  H  H26  1  0.39153500  0.18960500  0.59434500  1
  H  H27  1  0.10846500  0.18960500  0.09434500  1
  H  H28  1  0.70654300  0.96690500  0.39835400  1
  H  H29  1  0.79345700  0.96690500  0.89835400  1
  H  H30  1  0.29345700  0.03309500  0.60164600  1
  H  H31  1  0.20654300  0.03309500  0.10164600  1
  H  H32  1  0.70756900  0.88321500  0.31298500  1
  H  H33  1  0.79243100  0.88321500  0.81298500  1
  H  H34  1  0.29243100  0.11678500  0.68701500  1
  H  H35  1  0.20756900  0.11678500  0.18701500  1
  H  H36  1  0.88855700  0.78996300  0.35053600  1
  H  H37  1  0.61144300  0.78996300  0.85053600  1
  H  H38  1  0.11144300  0.21003700  0.64946400  1
  H  H39  1  0.38855700  0.21003700  0.14946400  1
  H  H40  1  0.90035800  0.85934000  0.44123600  1
  H  H41  1  0.59964200  0.85934000  0.94123600  1
  H  H42  1  0.09964200  0.14066000  0.55876400  1
  H  H43  1  0.40035800  0.14066000  0.05876400  1
  H  H44  1  0.93865700  0.62909200  0.47466900  1
  H  H45  1  0.56134300  0.62909200  0.97466900  1
  H  H46  1  0.06134300  0.37090800  0.52533100  1
  H  H47  1  0.43865700  0.37090800  0.02533100  1
  C  C0  1  0.47502300  0.26116500  0.34692100  1
  C  C1  1  0.02497700  0.26116500  0.84692100  1
  C  C2  1  0.52497700  0.73883500  0.65307900  1
  C  C3  1  0.97502300  0.73883500  0.15307900  1
  C  C4  1  0.63306700  0.49661300  0.25919000  1
  C  C5  1  0.86693300  0.49661300  0.75919000  1
  C  C6  1  0.36693300  0.50338700  0.74081000  1
  C  C7  1  0.13306700  0.50338700  0.24081000  1
  C  C8  1  0.68845000  0.84959800  0.38894300  1
  C  C9  1  0.81155000  0.84959800  0.88894300  1
  C  C10  1  0.31155000  0.15040200  0.61105700  1
  C  C11  1  0.18845000  0.15040200  0.11105700  1
  C  C12  1  0.88518100  0.74257300  0.43045400  1
  C  C13  1  0.61481900  0.74257300  0.93045400  1
  C  C14  1  0.11481900  0.25742700  0.56954600  1
  C  C15  1  0.38518100  0.25742700  0.06954600  1
  S  S0  1  0.57129700  0.37170600  0.37894100  1
  S  S1  1  0.92870300  0.37170600  0.87894100  1
  S  S2  1  0.42870300  0.62829400  0.62105900  1
  S  S3  1  0.07129700  0.62829400  0.12105900  1
  S  S4  1  0.76129200  0.65333200  0.47865900  1
  S  S5  1  0.73870800  0.65333200  0.97865900  1
  S  S6  1  0.23870800  0.34666800  0.52134100  1
  S  S7  1  0.26129200  0.34666800  0.02134100  1
  Br  Br0  1  0.60992000  0.22396700  0.64789700  1
  Br  Br1  1  0.89008000  0.22396700  0.14789700  1
  Br  Br2  1  0.39008000  0.77603300  0.35210300  1
  Br  Br3  1  0.10992000  0.77603300  0.85210300  1
  Br  Br4  1  0.88307600  0.24101900  0.41390500  1
  Br  Br5  1  0.61692400  0.24101900  0.91390500  1
  Br  Br6  1  0.11692400  0.75898100  0.58609500  1
  Br  Br7  1  0.38307600  0.75898100  0.08609500  1
  O  O0  1  0.75776000  0.95512600  0.61623600  1
  O  O1  1  0.74224000  0.95512600  0.11623600  1
  O  O2  1  0.24224000  0.04487400  0.38376400  1
  O  O3  1  0.25776000  0.04487400  0.88376400  1
  O  O4  1  0.85254100  0.23957300  0.62053100  1
  O  O5  1  0.64745900  0.23957300  0.12053100  1
  O  O6  1  0.14745900  0.76042700  0.37946900  1
  O  O7  1  0.35254100  0.76042700  0.87946900  1
  O  O8  1  0.73994200  0.50610300  0.45015000  1
  O  O9  1  0.76005800  0.50610300  0.95015000  1
  O  O10  1  0.26005800  0.49389700  0.54985000  1
  O  O11  1  0.23994200  0.49389700  0.04985000  1
  O  O12  1  0.64404500  0.21095400  0.44804600  1
  O  O13  1  0.85595500  0.21095400  0.94804600  1
  O  O14  1  0.35595500  0.78904600  0.55195400  1
  O  O15  1  0.14404500  0.78904600  0.05195400  1
loop_
_geom_bond_atom_site_label_1
_geom_bond_atom_site_label_2
_geom_bond_distance
_geom_bond_site_symmetry_2
Mo0 O0 1.726496 1_545
Mo0 O4 1.732256 1_555
Mo0 O12 2.246044 1_555
Mo0 O8 2.264806 1_555
Mo1 O1 1.726496 1_545
Mo1 O5 1.732256 1_555
Mo1 O13 2.246044 1_554
Mo1 O9 2.264806 1_554
Mo2 O2 1.726496 1_565
Mo2 O6 1.732256 1_555
Mo2 O14 2.246044 1_555
Mo2 O10 2.264806 1_555
Mo3 O3 1.726496 1_565
Mo3 O7 1.732256 1_555
Mo3 O15 2.246044 1_556
Mo3 O11 2.264806 1_556
C0 H0 1.095366 1_555
C0 H8 1.097028 1_555
C0 H4 1.099386 1_555
C0 S0 1.795678 1_555
C1 H1 1.095366 1_555
C1 H9 1.097028 1_455
C1 H5 1.099386 1_555
C1 S1 1.795678 1_455
C2 H2 1.095366 1_555
C2 H10 1.097028 1_555
C2 H6 1.099386 1_555
C2 S2 1.795678 1_555
C3 H3 1.095366 1_555
C3 H11 1.097028 1_655
C3 H7 1.099386 1_555
C3 S3 1.795678 1_655
C4 H20 1.093804 1_555
C4 H12 1.097522 1_555
C4 H16 1.098967 1_555
C4 S0 1.793734 1_555
C5 H21 1.093804 1_555
C5 H13 1.097522 1_555
C5 H17 1.098967 1_555
C5 S1 1.793734 1_555
C6 H22 1.093804 1_555
C6 H14 1.097522 1_555
C6 H18 1.098967 1_555
C6 S2 1.793734 1_555
C7 H23 1.093804 1_555
C7 H15 1.097522 1_555
C7 H19 1.098967 1_555
C7 S3 1.793734 1_555
C8 H32 1.097180 1_555
C8 H24 1.097274 1_555
C8 H28 1.098532 1_555
C8 S4 1.787802 1_555
C9 H33 1.097180 1_555
C9 H25 1.097274 1_555
C9 H29 1.098532 1_555
C9 S5 1.787802 1_555
C10 H34 1.097180 1_555
C10 H26 1.097274 1_555
C10 H30 1.098532 1_555
C10 S6 1.787802 1_555
C11 H35 1.097180 1_555
C11 H27 1.097274 1_555
C11 H31 1.098532 1_555
C11 S7 1.787802 1_555
C12 H44 1.094536 1_555
C12 H36 1.096264 1_555
C12 H40 1.099569 1_555
C12 S4 1.794318 1_555
C13 H45 1.094536 1_555
C13 H37 1.096264 1_555
C13 H41 1.099569 1_555
C13 S5 1.794318 1_555
C14 H46 1.094536 1_555
C14 H38 1.096264 1_555
C14 H42 1.099569 1_555
C14 S6 1.794318 1_555
C15 H47 1.094536 1_555
C15 H39 1.096264 1_555
C15 H43 1.099569 1_555
C15 S7 1.794318 1_555
Br0 Mo0 2.582779 1_555
Br1 Mo1 2.582779 1_555
Br2 Mo2 2.582779 1_555
Br3 Mo3 2.582779 1_555
Br4 Mo0 2.570084 1_555
Br5 Mo1 2.570084 1_556
Br6 Mo2 2.570084 1_555
Br7 Mo3 2.570084 1_554
O8 S4 1.547497 1_555
O9 S5 1.547497 1_555
O10 S6 1.547497 1_555
O11 S7 1.547497 1_555
O12 S0 1.546329 1_555
O13 S1 1.546329 1_555
O14 S2 1.546329 1_555
O15 S3 1.546329 1_555
