# generated using pymatgen
data_BaPr2ZnS5
_symmetry_space_group_name_H-M   'P 1'
_cell_length_a   8.88369336
_cell_length_b   8.88369336
_cell_length_c   8.88369336
_cell_angle_alpha   126.76300053
_cell_angle_beta   126.76300053
_cell_angle_gamma   78.63767120
_symmetry_Int_Tables_number   1
_chemical_formula_structural   BaPr2ZnS5
_chemical_formula_sum   'Ba2 Pr4 Zn2 S10'
_cell_volume   435.53564720
_cell_formula_units_Z   2
loop_
 _symmetry_equiv_pos_site_id
 _symmetry_equiv_pos_as_xyz
  1  'x, y, z'
loop_
 _atom_site_type_symbol
 _atom_site_label
 _atom_site_symmetry_multiplicity
 _atom_site_fract_x
 _atom_site_fract_y
 _atom_site_fract_z
 _atom_site_occupancy
  Ba  Ba0  1  0.25000000  0.25000000  0.00000000  1
  Ba  Ba1  1  0.75000000  0.75000000  0.00000000  1
  Pr  Pr0  1  0.33776700  0.16223300  0.50000000  1
  Pr  Pr1  1  0.16223300  0.66223300  0.82446600  1
  Pr  Pr2  1  0.83776700  0.33776700  0.17553400  1
  Pr  Pr3  1  0.66223300  0.83776700  0.50000000  1
  Zn  Zn0  1  0.75000000  0.25000000  0.50000000  1
  Zn  Zn1  1  0.25000000  0.75000000  0.50000000  1
  S  S0  1  0.48550400  0.98550400  0.20264700  1
  S  S1  1  0.21714300  0.71714300  0.20264700  1
  S  S2  1  0.51449600  0.01449600  0.79735300  1
  S  S3  1  0.01449600  0.21714300  0.50000000  1
  S  S4  1  0.71714300  0.51449600  0.50000000  1
  S  S5  1  0.98550400  0.78285700  0.50000000  1
  S  S6  1  0.28285700  0.48550400  0.50000000  1
  S  S7  1  0.78285700  0.28285700  0.79735300  1
  S  S8  1  0.50000000  0.50000000  0.00000000  1
  S  S9  1  0.00000000  0.00000000  0.00000000  1
loop_
_geom_bond_atom_site_label_1
_geom_bond_atom_site_label_2
_geom_bond_distance
_geom_bond_site_symmetry_2
Ba0 S0 3.428863 1_545
Ba0 S1 3.428863 1_555
Ba0 S2 3.428863 1_554
Ba0 S5 3.428863 1_444
Ba0 S6 3.428863 1_555
Ba0 S7 3.428863 1_454
Ba0 S4 3.428863 1_555
Ba0 S3 3.428863 1_554
Ba0 S8 3.436355 1_555
Ba0 S9 3.436355 1_555
Ba1 S4 3.428863 1_554
Ba1 S7 3.428863 1_554
Ba1 S5 3.428863 1_555
Ba1 S6 3.428863 1_554
Ba1 S0 3.428863 1_555
Ba1 S1 3.428863 1_655
Ba1 S3 3.428863 1_665
Ba1 S2 3.428863 1_564
Ba1 S8 3.436355 1_555
Ba1 S9 3.436355 1_665
Pr0 S6 2.816635 1_555
Pr0 S3 2.816635 1_555
Pr0 S8 2.982915 1_556
Pr0 S9 2.982915 1_555
Pr0 S1 3.088551 1_545
Pr0 S0 3.088551 1_545
Pr0 S2 3.088551 1_555
Pr0 S7 3.088551 1_555
Pr1 S1 2.816635 1_556
Pr1 S0 2.816635 1_556
Pr1 S8 2.982915 1_556
Pr1 S9 2.982915 1_566
Pr1 S4 3.088551 1_455
Pr1 S6 3.088551 1_555
Pr1 S3 3.088551 1_555
Pr1 S5 3.088551 1_455
Pr2 S7 2.816635 1_554
Pr2 S2 2.816635 1_554
Pr2 S9 2.982915 1_655
Pr2 S8 2.982915 1_555
Pr2 S6 3.088551 1_655
Pr2 S5 3.088551 1_555
Pr2 S3 3.088551 1_655
Pr2 S4 3.088551 1_555
Pr3 S4 2.816635 1_555
Pr3 S5 2.816635 1_555
Pr3 S9 2.982915 1_666
Pr3 S8 2.982915 1_555
Pr3 S7 3.088551 1_565
Pr3 S1 3.088551 1_555
Pr3 S0 3.088551 1_555
Pr3 S2 3.088551 1_565
S0 Zn0 2.309990 1_565
S1 Zn1 2.309990 1_555
S2 Zn1 2.309990 1_545
S3 Zn0 2.309990 1_455
S4 Zn0 2.309990 1_555
S5 Zn1 2.309990 1_655
S6 Zn1 2.309990 1_555
S7 Zn0 2.309990 1_555
