# generated using pymatgen
data_Na2B4O17
_symmetry_space_group_name_H-M   'P 1'
_cell_length_a   8.14360476
_cell_length_b   8.14360476
_cell_length_c   12.93591374
_cell_angle_alpha   81.10548976
_cell_angle_beta   81.10548976
_cell_angle_gamma   101.43064528
_symmetry_Int_Tables_number   1
_chemical_formula_structural   Na2B4O17
_chemical_formula_sum   'Na4 B8 O34'
_cell_volume   815.41615317
_cell_formula_units_Z   2
loop_
 _symmetry_equiv_pos_site_id
 _symmetry_equiv_pos_as_xyz
  1  'x, y, z'
loop_
 _atom_site_type_symbol
 _atom_site_label
 _atom_site_symmetry_multiplicity
 _atom_site_fract_x
 _atom_site_fract_y
 _atom_site_fract_z
 _atom_site_occupancy
  Na  Na0  1  0.50000000  0.00000000  0.50000000  1
  Na  Na1  1  0.00000000  0.50000000  0.00000000  1
  Na  Na2  1  0.50004500  0.49995500  0.75000000  1
  Na  Na3  1  0.49995500  0.50004500  0.25000000  1
  B  B0  1  0.96095100  0.23458300  0.72223700  1
  B  B1  1  0.76541700  0.03904900  0.77776300  1
  B  B2  1  0.03904900  0.76541700  0.27776300  1
  B  B3  1  0.23458300  0.96095100  0.22223700  1
  B  B4  1  0.82124800  0.22198200  0.89905500  1
  B  B5  1  0.77801800  0.17875200  0.60094500  1
  B  B6  1  0.17875200  0.77801800  0.10094500  1
  B  B7  1  0.22198200  0.82124800  0.39905500  1
  O  O0  1  0.94431100  0.05568900  0.75000000  1
  O  O1  1  0.05568900  0.94431100  0.25000000  1
  O  O2  1  0.95560100  0.31894600  0.80749500  1
  O  O3  1  0.68105400  0.04439900  0.69250500  1
  O  O4  1  0.04439900  0.68105400  0.19250500  1
  O  O5  1  0.31894600  0.95560100  0.30749500  1
  O  O6  1  0.92106000  0.29271200  0.62549500  1
  O  O7  1  0.70728800  0.07894000  0.87450500  1
  O  O8  1  0.07894000  0.70728800  0.37450500  1
  O  O9  1  0.29271200  0.92106000  0.12549500  1
  O  O10  1  0.30925400  0.24241200  0.69546000  1
  O  O11  1  0.75758800  0.69074600  0.80454000  1
  O  O12  1  0.69074600  0.75758800  0.30454000  1
  O  O13  1  0.24241200  0.30925400  0.19546000  1
  O  O14  1  0.80263800  0.27675300  0.98917400  1
  O  O15  1  0.72324700  0.19736200  0.51082600  1
  O  O16  1  0.19736200  0.72324700  0.01082600  1
  O  O17  1  0.27675300  0.80263800  0.48917400  1
  O  O18  1  0.46065800  0.53550200  0.96893100  1
  O  O19  1  0.46449800  0.53934200  0.53106900  1
  O  O20  1  0.53934200  0.46449800  0.03106900  1
  O  O21  1  0.53550200  0.46065800  0.46893100  1
  O  O22  1  0.34135500  0.10325200  0.68328700  1
  O  O23  1  0.89674800  0.65864500  0.81671300  1
  O  O24  1  0.65864500  0.89674800  0.31671300  1
  O  O25  1  0.10325200  0.34135500  0.18328700  1
  O  O26  1  0.84084400  0.80040800  0.01600200  1
  O  O27  1  0.19959200  0.15915600  0.48399800  1
  O  O28  1  0.15915600  0.19959200  0.98399800  1
  O  O29  1  0.80040800  0.84084400  0.51600200  1
  O  O30  1  0.77445000  0.70997400  0.58406900  1
  O  O31  1  0.29002600  0.22555000  0.91593100  1
  O  O32  1  0.22555000  0.29002600  0.41593100  1
  O  O33  1  0.70997400  0.77445000  0.08406900  1
loop_
_geom_bond_atom_site_label_1
_geom_bond_atom_site_label_2
_geom_bond_distance
_geom_bond_site_symmetry_2
Na0 O15 2.213196 1_555
Na0 O17 2.213196 1_545
Na0 O22 2.845618 1_555
Na0 O24 2.845618 1_545
Na0 O27 3.006334 1_555
Na0 O29 3.006334 1_545
Na1 O16 2.213196 1_555
Na1 O14 2.213196 1_454
Na1 O25 2.845618 1_555
Na1 O23 2.845618 1_454
Na1 O28 3.006334 1_554
Na1 O26 3.006334 1_455
Na2 O11 2.610661 1_555
Na2 O10 2.610661 1_555
Na2 O18 2.866484 1_555
Na2 O19 2.866484 1_555
Na2 O31 2.897028 1_555
Na2 O30 2.897028 1_555
Na3 O12 2.610661 1_555
Na3 O13 2.610661 1_555
Na3 O21 2.866484 1_555
Na3 O20 2.866484 1_555
Na3 O32 2.897028 1_555
Na3 O33 2.897028 1_555
B0 O6 1.378120 1_555
B0 O2 1.386208 1_555
B0 O0 1.419381 1_555
B1 O7 1.378120 1_555
B1 O3 1.386208 1_555
B1 O0 1.419381 1_555
B2 O8 1.378120 1_555
B2 O4 1.386208 1_555
B2 O1 1.419381 1_555
B3 O9 1.378120 1_555
B3 O5 1.386208 1_555
B3 O1 1.419381 1_555
B4 O14 1.309156 1_555
B4 O7 1.447793 1_555
B4 O2 1.480227 1_555
B5 O15 1.309156 1_555
B5 O6 1.447793 1_555
B5 O3 1.480227 1_555
B6 O16 1.309156 1_555
B6 O9 1.447793 1_555
B6 O4 1.480227 1_555
B7 O17 1.309156 1_555
B7 O8 1.447793 1_555
B7 O5 1.480227 1_555
O10 O22 1.239880 1_555
O11 O23 1.239880 1_555
O12 O24 1.239880 1_555
O13 O25 1.239880 1_555
O18 O20 1.246376 1_556
O19 O21 1.246376 1_555
O26 O33 1.232385 1_555
O27 O32 1.232385 1_555
O28 O31 1.232385 1_555
O29 O30 1.232385 1_555
