# generated using pymatgen
data_PuAl3Pd2
_symmetry_space_group_name_H-M   'P 1'
_cell_length_a   5.41178292
_cell_length_b   5.41178343
_cell_length_c   4.19459421
_cell_angle_alpha   90.00000000
_cell_angle_beta   90.00000000
_cell_angle_gamma   120.00003359
_symmetry_Int_Tables_number   1
_chemical_formula_structural   PuAl3Pd2
_chemical_formula_sum   'Pu1 Al3 Pd2'
_cell_volume   106.39009934
_cell_formula_units_Z   1
loop_
 _symmetry_equiv_pos_site_id
 _symmetry_equiv_pos_as_xyz
  1  'x, y, z'
loop_
 _atom_site_type_symbol
 _atom_site_label
 _atom_site_symmetry_multiplicity
 _atom_site_fract_x
 _atom_site_fract_y
 _atom_site_fract_z
 _atom_site_occupancy
  Pu  Pu0  1  -0.00000000  -0.00000000  0.00000000  1
  Al  Al0  1  0.50000000  -0.00000000  0.50000000  1
  Al  Al1  1  -0.00000000  0.50000000  0.50000000  1
  Al  Al2  1  0.50000000  0.50000000  0.50000000  1
  Pd  Pd0  1  0.33333300  0.66666700  0.00000000  1
  Pd  Pd1  1  0.66666700  0.33333300  -0.00000000  1
loop_
_geom_bond_atom_site_label_1
_geom_bond_atom_site_label_2
_geom_bond_distance
_geom_bond_site_symmetry_2
Al0 Pd1 2.615199 1_556
Al0 Pd0 2.615199 1_546
Al0 Pd0 2.615199 1_545
Al0 Pd1 2.615199 1_555
Al0 Al1 2.705890 1_655
Al0 Al1 2.705890 1_545
Al0 Al2 2.705892 1_555
Al0 Al2 2.705892 1_545
Al0 Pu0 3.423522 1_556
Al0 Pu0 3.423522 1_655
Al0 Pu0 3.423522 1_656
Al0 Pu0 3.423522 1_555
Al1 Pd1 2.615199 1_456
Al1 Pd1 2.615199 1_455
Al1 Pd0 2.615199 1_555
Al1 Pd0 2.615199 1_556
Al1 Al2 2.705891 1_555
Al1 Al2 2.705891 1_455
Al1 Pu0 3.423522 1_555
Al1 Pu0 3.423522 1_565
Al1 Pu0 3.423522 1_556
Al1 Pu0 3.423522 1_566
Al2 Pd0 2.615202 1_555
Al2 Pd1 2.615202 1_556
Al2 Pd0 2.615202 1_556
Al2 Pd1 2.615202 1_555
Al2 Pu0 3.423521 1_556
Al2 Pu0 3.423521 1_555
Al2 Pu0 3.423521 1_665
Al2 Pu0 3.423521 1_666
Pd0 Pd1 3.124490 1_455
Pd0 Pd1 3.124490 1_565
Pd0 Pu0 3.124492 1_565
Pd0 Pu0 3.124495 1_665
Pd0 Pu0 3.124495 1_555
Pd0 Pd1 3.124501 1_555
Pd1 Pu0 3.124492 1_655
Pd1 Pu0 3.124495 1_555
Pd1 Pu0 3.124495 1_665
