# generated using pymatgen
data_Mg2Ti3InS8
_symmetry_space_group_name_H-M   'P 1'
_cell_length_a   7.55390241
_cell_length_b   7.54617369
_cell_length_c   7.54479688
_cell_angle_alpha   57.60678290
_cell_angle_beta   57.60378640
_cell_angle_gamma   57.61945230
_symmetry_Int_Tables_number   1
_chemical_formula_structural   Mg2Ti3InS8
_chemical_formula_sum   'Mg2 Ti3 In1 S8'
_cell_volume   287.40305359
_cell_formula_units_Z   1
loop_
 _symmetry_equiv_pos_site_id
 _symmetry_equiv_pos_as_xyz
  1  'x, y, z'
loop_
 _atom_site_type_symbol
 _atom_site_label
 _atom_site_symmetry_multiplicity
 _atom_site_fract_x
 _atom_site_fract_y
 _atom_site_fract_z
 _atom_site_occupancy
  Mg  Mg0  1  0.87270400  0.87257200  0.87263300  1
  Mg  Mg1  1  0.12733400  0.12739200  0.12715200  1
  Ti  Ti0  1  0.49989300  0.50018100  0.99998800  1
  Ti  Ti1  1  0.99993100  0.50012900  0.49990300  1
  Ti  Ti2  1  0.50012500  0.00007100  0.49997300  1
  In  In0  1  0.49956800  0.50003000  0.50001300  1
  S  S0  1  0.74101000  0.74126600  0.74106900  1
  S  S1  1  0.25026400  0.25020000  0.72304600  1
  S  S2  1  0.25032000  0.72325900  0.25050300  1
  S  S3  1  0.72312900  0.25038300  0.25036300  1
  S  S4  1  0.74964100  0.27691500  0.74971300  1
  S  S5  1  0.27725900  0.74950400  0.74953300  1
  S  S6  1  0.25876000  0.25844700  0.25939000  1
  S  S7  1  0.75006500  0.74964500  0.27672200  1
loop_
_geom_bond_atom_site_label_1
_geom_bond_atom_site_label_2
_geom_bond_distance
_geom_bond_site_symmetry_2
Mg0 S7 2.424355 1_556
Mg0 S4 2.426546 1_565
Mg0 S5 2.430447 1_655
Mg0 S0 2.474762 1_555
Mg1 S1 2.424351 1_554
Mg1 S2 2.424975 1_545
Mg1 S3 2.428183 1_455
Mg1 S6 2.475735 1_555
In0 S2 2.632400 1_555
In0 S5 2.632842 1_555
In0 S3 2.633372 1_555
In0 S1 2.634442 1_555
In0 S4 2.638305 1_555
In0 S7 2.639784 1_555
S0 Ti2 2.523507 1_565
S0 Ti1 2.523786 1_555
S0 Ti0 2.524266 1_555
S1 Ti2 2.478272 1_555
S1 Ti1 2.481254 1_455
S2 Ti0 2.480337 1_554
S2 Ti1 2.481127 1_455
S3 Ti2 2.479829 1_555
S3 Ti0 2.481686 1_554
S4 Ti0 2.479987 1_555
S4 Ti1 2.480980 1_555
S5 Ti0 2.479070 1_555
S5 Ti2 2.480508 1_565
S6 Ti1 2.523225 1_455
S6 Ti2 2.523337 1_555
S6 Ti0 2.527747 1_554
S7 Ti1 2.478951 1_555
S7 Ti2 2.480786 1_565
