# generated using pymatgen
data_NbCr3(CuS4)2
_symmetry_space_group_name_H-M   'P 1'
_cell_length_a   11.40853941
_cell_length_b   7.00007144
_cell_length_c   11.85890000
_cell_angle_alpha   90.00000000
_cell_angle_beta   90.00000000
_cell_angle_gamma   90.89015744
_symmetry_Int_Tables_number   1
_chemical_formula_structural   NbCr3(CuS4)2
_chemical_formula_sum   'Nb4 Cr12 Cu8 S32'
_cell_volume   946.94446676
_cell_formula_units_Z   4
loop_
 _symmetry_equiv_pos_site_id
 _symmetry_equiv_pos_as_xyz
  1  'x, y, z'
loop_
 _atom_site_type_symbol
 _atom_site_label
 _atom_site_symmetry_multiplicity
 _atom_site_fract_x
 _atom_site_fract_y
 _atom_site_fract_z
 _atom_site_occupancy
  Nb  Nb0  1  0.08257200  0.88731500  0.67900800  1
  Nb  Nb1  1  0.91742800  0.11268500  0.17900800  1
  Nb  Nb2  1  0.37528600  0.39418600  0.82759800  1
  Nb  Nb3  1  0.62471400  0.60581400  0.32759800  1
  Cr  Cr0  1  0.38654100  0.88628500  0.19321500  1
  Cr  Cr1  1  0.61345900  0.11371500  0.69321500  1
  Cr  Cr2  1  0.12647200  0.37611300  0.33178100  1
  Cr  Cr3  1  0.87352800  0.62388700  0.83178100  1
  Cr  Cr4  1  0.15810100  0.60924800  0.95429000  1
  Cr  Cr5  1  0.84189900  0.39075200  0.45429000  1
  Cr  Cr6  1  0.34989400  0.63310500  0.45833900  1
  Cr  Cr7  1  0.65010600  0.36689500  0.95833900  1
  Cr  Cr8  1  0.14096400  0.11560700  0.97565400  1
  Cr  Cr9  1  0.85903600  0.88439300  0.47565400  1
  Cr  Cr10  1  0.35697600  0.13106100  0.47670800  1
  Cr  Cr11  1  0.64302400  0.86893900  0.97670800  1
  Cu  Cu0  1  0.11652300  0.37367300  0.68473400  1
  Cu  Cu1  1  0.88347700  0.62632700  0.18473400  1
  Cu  Cu2  1  0.40343000  0.37719500  0.18345700  1
  Cu  Cu3  1  0.59657000  0.62280500  0.68345700  1
  Cu  Cu4  1  0.12498900  0.87757200  0.31952900  1
  Cu  Cu5  1  0.87501100  0.12242800  0.81952900  1
  Cu  Cu6  1  0.37159100  0.88635000  0.82124500  1
  Cu  Cu7  1  0.62840900  0.11365000  0.32124500  1
  S  S0  1  0.02420900  0.84944200  0.88378100  1
  S  S1  1  0.97579100  0.15055800  0.38378100  1
  S  S2  1  0.47515500  0.87416200  0.37847100  1
  S  S3  1  0.52484500  0.12583800  0.87847100  1
  S  S4  1  0.03486300  0.38556000  0.14223200  1
  S  S5  1  0.96513700  0.61444000  0.64223200  1
  S  S6  1  0.46726000  0.33754400  0.64254600  1
  S  S7  1  0.53274000  0.66245600  0.14254600  1
  S  S8  1  0.02142600  0.38323300  0.87013900  1
  S  S9  1  0.97857400  0.61676700  0.37013900  1
  S  S10  1  0.47203000  0.38867400  0.38540500  1
  S  S11  1  0.52797000  0.61132600  0.88540500  1
  S  S12  1  0.04446900  0.87500600  0.13745800  1
  S  S13  1  0.95553100  0.12499400  0.63745800  1
  S  S14  1  0.47186400  0.87922000  0.64865700  1
  S  S15  1  0.52813600  0.12078000  0.14865700  1
  S  S16  1  0.21540400  0.88016300  0.52051600  1
  S  S17  1  0.78459600  0.11983700  0.02051600  1
  S  S18  1  0.28584400  0.87362000  0.01186500  1
  S  S19  1  0.71415600  0.12638000  0.51186500  1
  S  S20  1  0.21935200  0.37702800  0.51318300  1
  S  S21  1  0.78064800  0.62297200  0.01318300  1
  S  S22  1  0.28328000  0.36116400  0.01762500  1
  S  S23  1  0.71672000  0.63883600  0.51762500  1
  S  S24  1  0.22490300  0.12230400  0.78977400  1
  S  S25  1  0.77509700  0.87769600  0.28977400  1
  S  S26  1  0.26562600  0.12411500  0.29385500  1
  S  S27  1  0.73437400  0.87588500  0.79385500  1
  S  S28  1  0.24164300  0.63326000  0.77340300  1
  S  S29  1  0.75835700  0.36674000  0.27340300  1
  S  S30  1  0.26456200  0.62266400  0.27953200  1
  S  S31  1  0.73543800  0.37733600  0.77953200  1
loop_
_geom_bond_atom_site_label_1
_geom_bond_atom_site_label_2
_geom_bond_distance
_geom_bond_site_symmetry_2
Nb0 S13 2.277382 1_465
Nb0 S5 2.356757 1_455
Nb0 S16 2.415374 1_555
Nb0 S0 2.530846 1_555
Nb0 S24 2.642910 1_565
Nb0 S28 2.794545 1_555
Nb1 S12 2.277382 1_645
Nb1 S4 2.356757 1_655
Nb1 S17 2.415374 1_555
Nb1 S1 2.530846 1_555
Nb1 S25 2.642910 1_545
Nb1 S29 2.794545 1_555
Nb2 S28 2.370164 1_555
Nb2 S11 2.394220 1_555
Nb2 S6 2.467191 1_555
Nb2 S22 2.495192 1_556
Nb2 S24 2.581733 1_555
Nb2 S3 2.627439 1_555
Nb3 S29 2.370164 1_555
Nb3 S10 2.394220 1_555
Nb3 S7 2.467191 1_555
Nb3 S23 2.495192 1_555
Nb3 S25 2.581733 1_555
Nb3 S2 2.627439 1_555
Cr0 S15 2.345374 1_565
Cr0 S7 2.383091 1_555
Cr0 S2 2.420416 1_555
Cr0 S18 2.439176 1_555
Cr0 S26 2.484013 1_565
Cr0 S30 2.511961 1_555
Cr1 S14 2.345374 1_545
Cr1 S6 2.383091 1_555
Cr1 S3 2.420416 1_555
Cr1 S19 2.439176 1_555
Cr1 S27 2.484013 1_545
Cr1 S31 2.511961 1_555
Cr2 S1 2.396665 1_455
Cr2 S20 2.398003 1_555
Cr2 S30 2.399997 1_555
Cr2 S26 2.433373 1_555
Cr2 S9 2.445420 1_455
Cr2 S4 2.480243 1_555
Cr3 S0 2.396665 1_655
Cr3 S21 2.398003 1_556
Cr3 S31 2.399997 1_555
Cr3 S27 2.433373 1_555
Cr3 S8 2.445420 1_655
Cr3 S5 2.480243 1_555
Cr4 S28 2.352276 1_555
Cr4 S22 2.386730 1_556
Cr4 S8 2.419429 1_555
Cr4 S18 2.435383 1_556
Cr4 S0 2.437064 1_555
Cr4 S4 3.054120 1_556
Cr5 S29 2.352276 1_555
Cr5 S23 2.386730 1_555
Cr5 S9 2.419429 1_555
Cr5 S19 2.435383 1_555
Cr5 S1 2.437064 1_555
Cr5 S5 3.054120 1_555
Cr6 S30 2.333921 1_555
Cr6 S10 2.385654 1_555
Cr6 S2 2.389917 1_555
Cr6 S20 2.402356 1_555
Cr6 S16 2.443608 1_555
Cr7 S31 2.333921 1_555
Cr7 S11 2.385654 1_555
Cr7 S3 2.389917 1_555
Cr7 S21 2.402356 1_556
Cr7 S17 2.443608 1_556
Cr8 S22 2.398297 1_556
Cr8 S24 2.403523 1_555
Cr8 S18 2.423378 1_546
Cr8 S0 2.521027 1_545
Cr8 S8 2.648503 1_555
Cr8 S12 2.769977 1_546
Cr8 S4 3.001589 1_556
Cr9 S23 2.398297 1_555
Cr9 S25 2.403523 1_555
Cr9 S19 2.423378 1_565
Cr9 S1 2.521027 1_565
Cr9 S9 2.648503 1_555
Cr9 S13 2.769977 1_565
Cr9 S5 3.001589 1_555
Cr10 S20 2.387640 1_555
Cr10 S26 2.406038 1_555
Cr10 S16 2.423841 1_545
Cr10 S10 2.464477 1_555
Cr10 S2 2.546413 1_545
Cr10 S6 2.735583 1_555
Cr10 S14 3.009254 1_545
Cr11 S21 2.387640 1_556
Cr11 S27 2.406038 1_555
Cr11 S17 2.423841 1_566
Cr11 S11 2.464477 1_555
Cr11 S3 2.546413 1_565
Cr11 S7 2.735583 1_556
Cr11 S15 3.009254 1_566
Cu0 S20 2.348347 1_555
Cu0 S8 2.453173 1_555
Cu0 S5 2.483518 1_455
Cu0 S24 2.498858 1_555
Cu0 S28 2.522820 1_555
Cu0 S13 2.572677 1_455
Cu1 S21 2.348347 1_555
Cu1 S9 2.453173 1_555
Cu1 S4 2.483518 1_655
Cu1 S25 2.498858 1_555
Cu1 S29 2.522820 1_555
Cu1 S12 2.572677 1_655
Cu2 S15 2.344253 1_555
Cu2 S22 2.398789 1_555
Cu2 S7 2.511489 1_555
Cu2 S10 2.520409 1_555
Cu2 S30 2.616332 1_555
Cu2 S26 2.690276 1_555
Cu3 S14 2.344253 1_555
Cu3 S23 2.398789 1_555
Cu3 S6 2.511489 1_555
Cu3 S11 2.520409 1_555
Cu3 S31 2.616332 1_555
Cu3 S27 2.690276 1_555
Cu4 S12 2.346411 1_555
Cu4 S26 2.357841 1_565
Cu4 S30 2.456166 1_555
Cu4 S9 2.527577 1_455
Cu4 S16 2.597065 1_555
Cu4 S1 2.688962 1_465
Cu5 S13 2.346411 1_555
Cu5 S27 2.357841 1_545
Cu5 S31 2.456166 1_555
Cu5 S8 2.527577 1_655
Cu5 S17 2.597065 1_556
Cu5 S0 2.688962 1_645
Cu6 S14 2.345618 1_555
Cu6 S28 2.361541 1_555
Cu6 S24 2.398719 1_565
Cu6 S18 2.464195 1_556
Cu6 S3 2.497363 1_565
Cu6 S11 2.752243 1_555
Cu7 S15 2.345618 1_555
Cu7 S29 2.361541 1_555
Cu7 S25 2.398719 1_545
Cu7 S19 2.464195 1_555
Cu7 S2 2.497363 1_545
Cu7 S10 2.752243 1_555
