# generated using pymatgen
data_Y5Si4
_symmetry_space_group_name_H-M   'P 1'
_cell_length_a   7.45739308
_cell_length_b   7.69075173
_cell_length_c   14.63336256
_cell_angle_alpha   90.00000000
_cell_angle_beta   90.00000000
_cell_angle_gamma   90.00132338
_symmetry_Int_Tables_number   1
_chemical_formula_structural   Y5Si4
_chemical_formula_sum   'Y20 Si16'
_cell_volume   839.26663889
_cell_formula_units_Z   4
loop_
 _symmetry_equiv_pos_site_id
 _symmetry_equiv_pos_as_xyz
  1  'x, y, z'
loop_
 _atom_site_type_symbol
 _atom_site_label
 _atom_site_symmetry_multiplicity
 _atom_site_fract_x
 _atom_site_fract_y
 _atom_site_fract_z
 _atom_site_occupancy
  Y  Y0  1  0.68695531  0.17860914  0.62247148  1
  Y  Y1  1  0.18688743  0.32144784  0.87753169  1
  Y  Y2  1  0.31304469  0.82139086  0.12247148  1
  Y  Y3  1  0.81311257  0.67855216  0.37753169  1
  Y  Y4  1  0.31304469  0.82139086  0.37752852  1
  Y  Y5  1  0.81311257  0.67855216  0.12246831  1
  Y  Y6  1  0.68695531  0.17860914  0.87752852  1
  Y  Y7  1  0.18688743  0.32144784  0.62246831  1
  Y  Y8  1  0.53258898  0.68331257  0.59841701  1
  Y  Y9  1  0.03256622  0.81664286  0.90158276  1
  Y  Y10  1  0.46741102  0.31668743  0.09841701  1
  Y  Y11  1  0.96743378  0.18335714  0.40158276  1
  Y  Y12  1  0.46741102  0.31668743  0.40158299  1
  Y  Y13  1  0.96743378  0.18335714  0.09841724  1
  Y  Y14  1  0.53258898  0.68331257  0.90158299  1
  Y  Y15  1  0.03256622  0.81664286  0.59841724  1
  Y  Y16  1  0.85759605  0.51171778  0.75000000  1
  Y  Y17  1  0.35756271  0.98826853  0.75000000  1
  Y  Y18  1  0.14240395  0.48828222  0.25000000  1
  Y  Y19  1  0.64243729  0.01173147  0.25000000  1
  Si  Si0  1  0.64099095  0.97373010  0.45888169  1
  Si  Si1  1  0.14097084  0.52627659  0.04112253  1
  Si  Si2  1  0.35900905  0.02626990  0.95888169  1
  Si  Si3  1  0.85902916  0.47372341  0.54112253  1
  Si  Si4  1  0.35900905  0.02626990  0.54111831  1
  Si  Si5  1  0.85902916  0.47372341  0.95887747  1
  Si  Si6  1  0.64099095  0.97373010  0.04111831  1
  Si  Si7  1  0.14097084  0.52627659  0.45887747  1
  Si  Si8  1  0.48453250  0.39637945  0.75000000  1
  Si  Si9  1  0.98451589  0.10363960  0.75000000  1
  Si  Si10  1  0.51546750  0.60362055  0.25000000  1
  Si  Si11  1  0.01548411  0.89636040  0.25000000  1
  Si  Si12  1  0.74079875  0.87375457  0.75000000  1
  Si  Si13  1  0.24078572  0.62623867  0.75000000  1
  Si  Si14  1  0.25920125  0.12624543  0.25000000  1
  Si  Si15  1  0.75921428  0.37376133  0.25000000  1
loop_
_geom_bond_atom_site_label_1
_geom_bond_atom_site_label_2
_geom_bond_distance
_geom_bond_site_symmetry_2
Si0 Si4 2.456310 1_565
Si0 Y3 2.866767 1_555
Si0 Y0 2.886317 1_565
Si0 Y4 2.961557 1_555
Si0 Y11 3.037825 1_565
Si0 Y12 3.055444 1_565
Si0 Y19 3.070601 1_565
Si0 Y8 3.132301 1_555
Si1 Si5 2.456114 1_454
Si1 Y2 2.866167 1_555
Si1 Y1 2.886085 1_554
Si1 Y5 2.960823 1_455
Si1 Y10 3.037696 1_555
Si1 Y13 3.054989 1_455
Si1 Y18 3.070534 1_555
Si1 Y9 3.132094 1_554
Si2 Si6 2.456310 1_546
Si2 Y1 2.866767 1_555
Si2 Y2 2.886317 1_546
Si2 Y6 2.961557 1_555
Si2 Y9 3.037825 1_545
Si2 Y14 3.055444 1_545
Si2 Y17 3.070601 1_545
Si2 Y10 3.132301 1_556
Si3 Si7 2.456114 1_655
Si3 Y0 2.866167 1_555
Si3 Y3 2.886085 1_555
Si3 Y7 2.960823 1_655
Si3 Y8 3.037696 1_555
Si3 Y15 3.054989 1_655
Si3 Y16 3.070534 1_555
Si3 Y11 3.132094 1_555
Si4 Y7 2.866767 1_555
Si4 Y4 2.886317 1_545
Si4 Y0 2.961557 1_555
Si4 Y15 3.037825 1_545
Si4 Y8 3.055444 1_545
Si4 Y17 3.070601 1_545
Si4 Y12 3.132301 1_555
Si5 Y6 2.866167 1_555
Si5 Y5 2.886085 1_556
Si5 Y1 2.960823 1_655
Si5 Y14 3.037696 1_555
Si5 Y9 3.054989 1_655
Si5 Y16 3.070534 1_555
Si5 Y13 3.132094 1_556
Si6 Y5 2.866767 1_555
Si6 Y6 2.886317 1_564
Si6 Y2 2.961557 1_555
Si6 Y13 3.037825 1_565
Si6 Y10 3.055444 1_565
Si6 Y19 3.070601 1_565
Si6 Y14 3.132301 1_554
Si7 Y4 2.866167 1_555
Si7 Y7 2.886085 1_555
Si7 Y3 2.960823 1_455
Si7 Y12 3.037696 1_555
Si7 Y11 3.054989 1_455
Si7 Y18 3.070534 1_555
Si7 Y15 3.132094 1_555
Si8 Y16 2.920052 1_555
Si8 Y6 2.926851 1_555
Si8 Y0 2.926851 1_555
Si8 Y7 2.956633 1_555
Si8 Y1 2.956633 1_555
Si8 Y8 3.149339 1_555
Si8 Y14 3.149339 1_555
Si8 Y17 3.278372 1_545
Si9 Y17 2.920048 1_645
Si9 Y7 2.926810 1_655
Si9 Y1 2.926810 1_655
Si9 Y0 2.956208 1_555
Si9 Y6 2.956208 1_555
Si9 Y9 3.149685 1_645
Si9 Y15 3.149685 1_645
Si9 Y16 3.278065 1_555
Si10 Si15 2.535610 1_555
Si10 Y18 2.920052 1_555
Si10 Y4 2.926851 1_555
Si10 Y2 2.926851 1_555
Si10 Y3 2.956633 1_555
Si10 Y5 2.956633 1_555
Si10 Y10 3.149339 1_555
Si10 Y12 3.149339 1_555
Si10 Y19 3.278372 1_565
Si11 Si14 2.535532 1_565
Si11 Y19 2.920048 1_465
Si11 Y3 2.926810 1_455
Si11 Y5 2.926810 1_455
Si11 Y4 2.956208 1_555
Si11 Y2 2.956208 1_555
Si11 Y13 3.149685 1_465
Si11 Y11 3.149685 1_465
Si11 Y18 3.278065 1_555
Si12 Si9 2.535532 1_565
Si12 Y16 2.917410 1_555
Si12 Y17 2.990581 1_555
Si12 Y0 3.023381 1_565
Si12 Y6 3.023381 1_565
Si12 Y8 3.078348 1_555
Si12 Y14 3.078348 1_555
Si12 Y15 3.138063 1_655
Si12 Y9 3.138063 1_655
Si13 Si8 2.535610 1_555
Si13 Y17 2.917275 1_555
Si13 Y16 2.990228 1_455
Si13 Y7 3.023069 1_555
Si13 Y1 3.023069 1_555
Si13 Y15 3.078278 1_555
Si13 Y9 3.078278 1_555
Si13 Y8 3.138196 1_555
Si13 Y14 3.138196 1_555
Si14 Y18 2.917410 1_555
Si14 Y19 2.990581 1_555
Si14 Y2 3.023381 1_545
Si14 Y4 3.023381 1_545
Si14 Y12 3.078348 1_555
Si14 Y10 3.078348 1_555
Si14 Y13 3.138063 1_455
Si14 Y11 3.138063 1_455
Si15 Y19 2.917275 1_555
Si15 Y18 2.990228 1_655
Si15 Y3 3.023069 1_555
Si15 Y5 3.023069 1_555
Si15 Y13 3.078278 1_555
Si15 Y11 3.078278 1_555
Si15 Y12 3.138196 1_555
Si15 Y10 3.138196 1_555
