# generated using pymatgen
data_CrN2
_symmetry_space_group_name_H-M   'P 1'
_cell_length_a   15.13329286
_cell_length_b   15.13329286
_cell_length_c   15.13329286
_cell_angle_alpha   60.00000000
_cell_angle_beta   60.00000000
_cell_angle_gamma   60.00000000
_symmetry_Int_Tables_number   1
_chemical_formula_structural   CrN2
_chemical_formula_sum   'Cr34 N68'
_cell_volume   2450.67269358
_cell_formula_units_Z   34
loop_
 _symmetry_equiv_pos_site_id
 _symmetry_equiv_pos_as_xyz
  1  'x, y, z'
loop_
 _atom_site_type_symbol
 _atom_site_label
 _atom_site_symmetry_multiplicity
 _atom_site_fract_x
 _atom_site_fract_y
 _atom_site_fract_z
 _atom_site_occupancy
  Cr  Cr0  1  0.25441800  0.63098300  0.86018100  1
  Cr  Cr1  1  0.86018100  0.25441800  0.25441800  1
  Cr  Cr2  1  0.63098300  0.25441800  0.25441800  1
  Cr  Cr3  1  0.25441800  0.86018100  0.63098300  1
  Cr  Cr4  1  0.63098300  0.25441800  0.86018100  1
  Cr  Cr5  1  0.25441800  0.63098300  0.25441800  1
  Cr  Cr6  1  0.25441800  0.86018100  0.25441800  1
  Cr  Cr7  1  0.86018100  0.25441800  0.63098300  1
  Cr  Cr8  1  0.25441800  0.25441800  0.86018100  1
  Cr  Cr9  1  0.63098300  0.86018100  0.25441800  1
  Cr  Cr10  1  0.86018100  0.63098300  0.25441800  1
  Cr  Cr11  1  0.25441800  0.25441800  0.63098300  1
  Cr  Cr12  1  0.99558200  0.61901700  0.38981900  1
  Cr  Cr13  1  0.38981900  0.99558200  0.99558200  1
  Cr  Cr14  1  0.61901700  0.99558200  0.99558200  1
  Cr  Cr15  1  0.99558200  0.38981900  0.61901700  1
  Cr  Cr16  1  0.61901700  0.99558200  0.38981900  1
  Cr  Cr17  1  0.99558200  0.61901700  0.99558200  1
  Cr  Cr18  1  0.99558200  0.38981900  0.99558200  1
  Cr  Cr19  1  0.38981900  0.99558200  0.61901700  1
  Cr  Cr20  1  0.99558200  0.99558200  0.38981900  1
  Cr  Cr21  1  0.61901700  0.38981900  0.99558200  1
  Cr  Cr22  1  0.38981900  0.61901700  0.99558200  1
  Cr  Cr23  1  0.99558200  0.99558200  0.61901700  1
  Cr  Cr24  1  0.40754600  0.77736200  0.40754600  1
  Cr  Cr25  1  0.40754600  0.40754600  0.40754600  1
  Cr  Cr26  1  0.77736200  0.40754600  0.40754600  1
  Cr  Cr27  1  0.40754600  0.40754600  0.77736200  1
  Cr  Cr28  1  0.84245400  0.47263800  0.84245400  1
  Cr  Cr29  1  0.84245400  0.84245400  0.84245400  1
  Cr  Cr30  1  0.47263800  0.84245400  0.84245400  1
  Cr  Cr31  1  0.84245400  0.84245400  0.47263800  1
  Cr  Cr32  1  0.50000000  0.50000000  0.50000000  1
  Cr  Cr33  1  0.75000000  0.75000000  0.75000000  1
  N  N0  1  0.93544000  0.62500000  0.12500000  1
  N  N1  1  0.12500000  0.31456000  0.93544000  1
  N  N2  1  0.62500000  0.93544000  0.31456000  1
  N  N3  1  0.31456000  0.12500000  0.62500000  1
  N  N4  1  0.62500000  0.31456000  0.12500000  1
  N  N5  1  0.31456000  0.62500000  0.93544000  1
  N  N6  1  0.93544000  0.12500000  0.31456000  1
  N  N7  1  0.12500000  0.93544000  0.62500000  1
  N  N8  1  0.31456000  0.93544000  0.12500000  1
  N  N9  1  0.62500000  0.12500000  0.93544000  1
  N  N10  1  0.12500000  0.62500000  0.31456000  1
  N  N11  1  0.93544000  0.31456000  0.62500000  1
  N  N12  1  0.31456000  0.62500000  0.12500000  1
  N  N13  1  0.12500000  0.93544000  0.31456000  1
  N  N14  1  0.62500000  0.31456000  0.93544000  1
  N  N15  1  0.93544000  0.12500000  0.62500000  1
  N  N16  1  0.62500000  0.93544000  0.12500000  1
  N  N17  1  0.93544000  0.62500000  0.31456000  1
  N  N18  1  0.31456000  0.12500000  0.93544000  1
  N  N19  1  0.12500000  0.31456000  0.62500000  1
  N  N20  1  0.93544000  0.31456000  0.12500000  1
  N  N21  1  0.62500000  0.12500000  0.31456000  1
  N  N22  1  0.12500000  0.62500000  0.93544000  1
  N  N23  1  0.31456000  0.93544000  0.62500000  1
  N  N24  1  0.43042800  0.91929700  0.73097800  1
  N  N25  1  0.73097800  0.91929700  0.43042800  1
  N  N26  1  0.91929700  0.43042800  0.91929700  1
  N  N27  1  0.91929700  0.73097800  0.91929700  1
  N  N28  1  0.91929700  0.91929700  0.73097800  1
  N  N29  1  0.91929700  0.91929700  0.43042800  1
  N  N30  1  0.43042800  0.73097800  0.91929700  1
  N  N31  1  0.73097800  0.43042800  0.91929700  1
  N  N32  1  0.91929700  0.43042800  0.73097800  1
  N  N33  1  0.91929700  0.73097800  0.43042800  1
  N  N34  1  0.73097800  0.91929700  0.91929700  1
  N  N35  1  0.43042800  0.91929700  0.91929700  1
  N  N36  1  0.81957200  0.33070300  0.51902200  1
  N  N37  1  0.51902200  0.33070300  0.81957200  1
  N  N38  1  0.33070300  0.81957200  0.33070300  1
  N  N39  1  0.33070300  0.51902200  0.33070300  1
  N  N40  1  0.33070300  0.33070300  0.51902200  1
  N  N41  1  0.33070300  0.33070300  0.81957200  1
  N  N42  1  0.81957200  0.51902200  0.33070300  1
  N  N43  1  0.51902200  0.81957200  0.33070300  1
  N  N44  1  0.33070300  0.81957200  0.51902200  1
  N  N45  1  0.33070300  0.51902200  0.81957200  1
  N  N46  1  0.51902200  0.33070300  0.33070300  1
  N  N47  1  0.81957200  0.33070300  0.33070300  1
  N  N48  1  0.74698800  0.74698800  0.25301200  1
  N  N49  1  0.25301200  0.25301200  0.74698800  1
  N  N50  1  0.74698800  0.25301200  0.25301200  1
  N  N51  1  0.25301200  0.74698800  0.74698800  1
  N  N52  1  0.25301200  0.74698800  0.25301200  1
  N  N53  1  0.74698800  0.25301200  0.74698800  1
  N  N54  1  0.50301200  0.50301200  0.99698800  1
  N  N55  1  0.99698800  0.99698800  0.50301200  1
  N  N56  1  0.50301200  0.99698800  0.99698800  1
  N  N57  1  0.99698800  0.50301200  0.50301200  1
  N  N58  1  0.99698800  0.50301200  0.99698800  1
  N  N59  1  0.50301200  0.99698800  0.50301200  1
  N  N60  1  0.45368500  0.63894500  0.45368500  1
  N  N61  1  0.45368500  0.45368500  0.45368500  1
  N  N62  1  0.63894500  0.45368500  0.45368500  1
  N  N63  1  0.45368500  0.45368500  0.63894500  1
  N  N64  1  0.79631500  0.61105500  0.79631500  1
  N  N65  1  0.79631500  0.79631500  0.79631500  1
  N  N66  1  0.61105500  0.79631500  0.79631500  1
  N  N67  1  0.79631500  0.79631500  0.61105500  1
loop_
_geom_bond_atom_site_label_1
_geom_bond_atom_site_label_2
_geom_bond_distance
_geom_bond_site_symmetry_2
Cr0 N45 1.719583 1_555
Cr0 N22 1.727643 1_555
Cr0 N5 1.727643 1_555
Cr0 N51 1.734521 1_555
Cr1 N47 1.719583 1_555
Cr1 N20 1.727643 1_555
Cr1 N6 1.727643 1_555
Cr1 N50 1.734521 1_555
Cr2 N46 1.719583 1_555
Cr2 N4 1.727643 1_555
Cr2 N21 1.727643 1_555
Cr2 N50 1.734521 1_555
Cr3 N44 1.719583 1_555
Cr3 N7 1.727643 1_555
Cr3 N23 1.727643 1_555
Cr3 N51 1.734521 1_555
Cr4 N37 1.719583 1_555
Cr4 N9 1.727643 1_555
Cr4 N14 1.727643 1_555
Cr4 N53 1.734521 1_555
Cr5 N39 1.719583 1_555
Cr5 N10 1.727643 1_555
Cr5 N12 1.727643 1_555
Cr5 N52 1.734521 1_555
Cr6 N38 1.719583 1_555
Cr6 N8 1.727643 1_555
Cr6 N13 1.727643 1_555
Cr6 N52 1.734521 1_555
Cr7 N36 1.719583 1_555
Cr7 N15 1.727643 1_555
Cr7 N11 1.727643 1_555
Cr7 N53 1.734521 1_555
Cr8 N41 1.719583 1_555
Cr8 N18 1.727643 1_555
Cr8 N1 1.727643 1_555
Cr8 N49 1.734521 1_555
Cr9 N43 1.719583 1_555
Cr9 N16 1.727643 1_555
Cr9 N2 1.727643 1_555
Cr9 N48 1.734521 1_555
Cr10 N42 1.719583 1_555
Cr10 N0 1.727643 1_555
Cr10 N17 1.727643 1_555
Cr10 N48 1.734521 1_555
Cr11 N40 1.719583 1_555
Cr11 N3 1.727643 1_555
Cr11 N19 1.727643 1_555
Cr11 N49 1.734521 1_555
Cr12 N33 1.719583 1_555
Cr12 N17 1.727643 1_555
Cr12 N10 1.727643 1_655
Cr12 N57 1.734521 1_555
Cr13 N35 1.719583 1_555
Cr13 N18 1.727643 1_565
Cr13 N8 1.727643 1_556
Cr13 N56 1.734521 1_555
Cr14 N34 1.719583 1_555
Cr14 N16 1.727643 1_556
Cr14 N9 1.727643 1_565
Cr14 N56 1.734521 1_555
Cr15 N32 1.719583 1_555
Cr15 N11 1.727643 1_555
Cr15 N19 1.727643 1_655
Cr15 N57 1.734521 1_555
Cr16 N25 1.719583 1_555
Cr16 N2 1.727643 1_555
Cr16 N21 1.727643 1_565
Cr16 N59 1.734521 1_555
Cr17 N27 1.719583 1_555
Cr17 N22 1.727643 1_655
Cr17 N0 1.727643 1_556
Cr17 N58 1.734521 1_555
Cr18 N26 1.719583 1_555
Cr18 N1 1.727643 1_655
Cr18 N20 1.727643 1_556
Cr18 N58 1.734521 1_555
Cr19 N24 1.719583 1_555
Cr19 N23 1.727643 1_555
Cr19 N3 1.727643 1_565
Cr19 N59 1.734521 1_555
Cr20 N29 1.719583 1_555
Cr20 N13 1.727643 1_655
Cr20 N6 1.727643 1_565
Cr20 N55 1.734521 1_555
Cr21 N31 1.719583 1_555
Cr21 N14 1.727643 1_555
Cr21 N4 1.727643 1_556
Cr21 N54 1.734521 1_555
Cr22 N30 1.719583 1_555
Cr22 N5 1.727643 1_555
Cr22 N12 1.727643 1_556
Cr22 N54 1.734521 1_555
Cr23 N28 1.719583 1_555
Cr23 N15 1.727643 1_565
Cr23 N7 1.727643 1_655
Cr23 N55 1.734521 1_555
Cr24 N60 1.710319 1_555
Cr24 N43 1.726067 1_555
Cr24 N44 1.726067 1_555
Cr24 N38 1.726067 1_555
Cr25 N61 1.710319 1_555
Cr25 N46 1.726067 1_555
Cr25 N39 1.726067 1_555
Cr25 N40 1.726067 1_555
Cr26 N62 1.710319 1_555
Cr26 N42 1.726067 1_555
Cr26 N36 1.726067 1_555
Cr26 N47 1.726067 1_555
Cr27 N63 1.710319 1_555
Cr27 N37 1.726067 1_555
Cr27 N45 1.726067 1_555
Cr27 N41 1.726067 1_555
Cr28 N64 1.710319 1_555
Cr28 N26 1.726067 1_555
Cr28 N31 1.726067 1_555
Cr28 N32 1.726067 1_555
Cr29 N65 1.710319 1_555
Cr29 N27 1.726067 1_555
Cr29 N34 1.726067 1_555
Cr29 N28 1.726067 1_555
Cr30 N66 1.710319 1_555
Cr30 N35 1.726067 1_555
Cr30 N24 1.726067 1_555
Cr30 N30 1.726067 1_555
Cr31 N67 1.710319 1_555
Cr31 N29 1.726067 1_555
Cr31 N33 1.726067 1_555
Cr31 N25 1.726067 1_555
Cr32 N62 1.716844 1_555
Cr32 N63 1.716844 1_555
Cr32 N60 1.716844 1_555
Cr32 N61 1.716844 1_555
Cr33 N67 1.716844 1_555
Cr33 N64 1.716844 1_555
Cr33 N65 1.716844 1_555
Cr33 N66 1.716844 1_555
