# generated using pymatgen
data_Na3CoSiBO7
_symmetry_space_group_name_H-M   'P 1'
_cell_length_a   8.44119915
_cell_length_b   8.43568859
_cell_length_c   8.96798315
_cell_angle_alpha   88.70441043
_cell_angle_beta   88.81429567
_cell_angle_gamma   103.24862702
_symmetry_Int_Tables_number   1
_chemical_formula_structural   Na3CoSiBO7
_chemical_formula_sum   'Na12 Co4 Si4 B4 O28'
_cell_volume   621.21136810
_cell_formula_units_Z   4
loop_
 _symmetry_equiv_pos_site_id
 _symmetry_equiv_pos_as_xyz
  1  'x, y, z'
loop_
 _atom_site_type_symbol
 _atom_site_label
 _atom_site_symmetry_multiplicity
 _atom_site_fract_x
 _atom_site_fract_y
 _atom_site_fract_z
 _atom_site_occupancy
  Na  Na0  1  0.50557700  0.25160400  0.08329000  1
  Na  Na1  1  0.00794500  0.76131000  0.08651000  1
  Na  Na2  1  0.49442300  0.74839500  0.91671000  1
  Na  Na3  1  0.99205200  0.23868900  0.91349700  1
  Na  Na4  1  0.12793200  0.12281700  0.25925000  1
  Na  Na5  1  0.63120000  0.62427800  0.26336900  1
  Na  Na6  1  0.37533900  0.88080200  0.26125000  1
  Na  Na7  1  0.87143800  0.37785000  0.26125200  1
  Na  Na8  1  0.62466100  0.11919800  0.73875400  1
  Na  Na9  1  0.12856100  0.62215300  0.73874800  1
  Na  Na10  1  0.87206900  0.87718400  0.74075400  1
  Na  Na11  1  0.36879700  0.37572000  0.73663000  1
  Co  Co0  1  0.26810700  0.51919500  0.33647900  1
  Co  Co1  1  0.73188900  0.48080300  0.66352400  1
  Co  Co2  1  0.76814700  0.01384200  0.34487200  1
  Co  Co3  1  0.23184900  0.98614500  0.65508800  1
  Si  Si0  1  0.48871600  0.23841000  0.42294400  1
  Si  Si1  1  0.98163000  0.73063400  0.42819900  1
  Si  Si2  1  0.51131000  0.76161400  0.57704600  1
  Si  Si3  1  0.01836400  0.26936700  0.57179300  1
  B  B0  1  0.74347000  0.99331400  0.06554200  1
  B  B1  1  0.23880900  0.48927700  0.06939400  1
  B  B2  1  0.25652800  0.00668700  0.93446100  1
  B  B3  1  0.76119000  0.51072200  0.93060600  1
  O  O0  1  0.27573100  0.02528800  0.08260000  1
  O  O1  1  0.77638200  0.52734400  0.07782800  1
  O  O2  1  0.72426800  0.97471400  0.91740100  1
  O  O3  1  0.22361900  0.47265600  0.92217200  1
  O  O4  1  0.86196900  0.11152400  0.13066600  1
  O  O5  1  0.35601300  0.60761600  0.13775500  1
  O  O6  1  0.13803700  0.88847500  0.86933100  1
  O  O7  1  0.64398400  0.39238400  0.86224300  1
  O  O8  1  0.64373000  0.89264900  0.17318800  1
  O  O9  1  0.14066800  0.39157100  0.17929800  1
  O  O10  1  0.35627600  0.10736000  0.82681700  1
  O  O11  1  0.85933000  0.60842500  0.82069800  1
  O  O12  1  0.33356100  0.08406100  0.47679500  1
  O  O13  1  0.82561400  0.57652900  0.47523300  1
  O  O14  1  0.66642600  0.91593000  0.52321000  1
  O  O15  1  0.17439000  0.42347300  0.52477300  1
  O  O16  1  0.43155800  0.68218900  0.42389200  1
  O  O17  1  0.93412200  0.18379600  0.42253900  1
  O  O18  1  0.56844100  0.31781400  0.57610700  1
  O  O19  1  0.06587600  0.81620100  0.57746600  1
  O  O20  1  0.41924300  0.36421300  0.31415800  1
  O  O21  1  0.91343500  0.86076200  0.32054800  1
  O  O22  1  0.61439600  0.16579500  0.31688300  1
  O  O23  1  0.11114700  0.66724100  0.31814600  1
  O  O24  1  0.38561100  0.83419600  0.68312400  1
  O  O25  1  0.88885700  0.33275500  0.68185900  1
  O  O26  1  0.58075000  0.63578700  0.68584200  1
  O  O27  1  0.08656300  0.13924200  0.67946600  1
loop_
_geom_bond_atom_site_label_1
_geom_bond_atom_site_label_2
_geom_bond_distance
_geom_bond_site_symmetry_2
Na0 O0 2.390056 1_555
Na0 O7 2.422136 1_554
Na0 O20 2.462501 1_555
Na0 O22 2.464140 1_555
Na0 O10 2.811182 1_554
Na0 O1 2.862067 1_555
Na1 O6 2.329607 1_554
Na1 O1 2.442770 1_455
Na1 O23 2.453775 1_555
Na1 O21 2.462224 1_455
Na1 O0 2.784889 1_565
Na1 O11 2.905297 1_454
Na2 O2 2.390066 1_555
Na2 O5 2.422128 1_556
Na2 O26 2.462476 1_555
Na2 O24 2.464036 1_555
Na2 O8 2.811268 1_556
Na2 O3 2.862057 1_555
Na3 O4 2.329507 1_556
Na3 O3 2.442792 1_655
Na3 O25 2.453754 1_555
Na3 O27 2.462156 1_655
Na3 O2 2.784864 1_545
Na3 O9 2.905208 1_656
Na4 O0 2.278303 1_555
Na4 O17 2.325102 1_455
Na4 O9 2.340321 1_555
Na4 O4 2.528462 1_455
Na4 O21 2.556675 1_445
Na4 O12 2.701353 1_555
Na4 O20 2.869879 1_555
Na5 O1 2.318540 1_555
Na5 O16 2.336602 1_555
Na5 O8 2.365244 1_555
Na5 O20 2.518622 1_555
Na5 O5 2.578852 1_555
Na5 O13 2.619695 1_555
Na5 O21 2.799436 1_555
Na6 O0 2.279589 1_565
Na6 O16 2.332872 1_555
Na6 O8 2.363252 1_555
Na6 O5 2.552356 1_555
Na6 O23 2.559114 1_555
Na6 O12 2.683216 1_565
Na6 O22 2.823648 1_565
Na7 O1 2.316164 1_555
Na7 O17 2.318064 1_555
Na7 O9 2.350499 1_655
Na7 O22 2.508471 1_555
Na7 O4 2.542793 1_555
Na7 O13 2.655733 1_555
Na7 O23 2.854659 1_655
Na8 O2 2.279556 1_545
Na8 O18 2.332922 1_555
Na8 O10 2.363221 1_555
Na8 O7 2.552335 1_555
Na8 O25 2.559119 1_555
Na8 O14 2.683233 1_545
Na8 O24 2.823664 1_545
Na9 O3 2.316187 1_555
Na9 O19 2.318002 1_555
Na9 O11 2.350486 1_455
Na9 O24 2.508456 1_555
Na9 O6 2.542741 1_555
Na9 O15 2.655711 1_555
Na9 O25 2.854668 1_455
Na10 O2 2.278299 1_555
Na10 O19 2.325091 1_655
Na10 O11 2.340336 1_555
Na10 O6 2.528472 1_655
Na10 O27 2.556663 1_665
Na10 O14 2.701406 1_555
Na10 O26 2.869938 1_555
Na11 O3 2.318535 1_555
Na11 O18 2.336599 1_555
Na11 O10 2.365188 1_555
Na11 O26 2.518615 1_555
Na11 O7 2.578845 1_555
Na11 O15 2.619619 1_555
Na11 O27 2.799375 1_555
Co0 O16 1.905956 1_555
Co0 O15 1.928609 1_555
Co0 O9 1.975798 1_555
Co0 O5 1.978512 1_555
Co0 O23 2.024920 1_555
Co0 O20 2.035352 1_555
Co1 O18 1.905934 1_555
Co1 O13 1.928616 1_555
Co1 O11 1.975752 1_555
Co1 O7 1.978465 1_555
Co1 O25 2.024988 1_555
Co1 O26 2.035383 1_555
Co2 O14 1.880347 1_545
Co2 O17 1.915289 1_555
Co2 O21 1.986646 1_545
Co2 O22 2.037631 1_555
Co2 O8 2.040757 1_545
Co2 O4 2.136066 1_555
Co3 O12 1.879996 1_565
Co3 O19 1.915070 1_555
Co3 O27 1.986801 1_565
Co3 O24 2.037729 1_555
Co3 O10 2.041180 1_565
Co3 O6 2.136308 1_555
B0 O2 1.350020 1_554
B0 O4 1.389006 1_565
B0 O8 1.401239 1_555
B1 O3 1.336558 1_554
B1 O5 1.396881 1_555
B1 O9 1.397703 1_555
B2 O0 1.350004 1_556
B2 O6 1.389002 1_545
B2 O10 1.401288 1_555
B3 O1 1.336561 1_556
B3 O7 1.396894 1_555
B3 O11 1.397713 1_555
O12 Si0 1.675590 1_555
O13 Si1 1.664259 1_555
O14 Si2 1.675195 1_555
O15 Si3 1.664287 1_555
O16 Si2 1.631472 1_555
O17 Si3 1.632833 1_655
O18 Si0 1.631406 1_555
O19 Si1 1.632931 1_455
O20 Si0 1.638297 1_555
O21 Si1 1.653206 1_555
O22 Si0 1.639468 1_555
O23 Si1 1.643926 1_455
O24 Si2 1.639523 1_555
O25 Si3 1.643913 1_655
O26 Si2 1.638351 1_555
O27 Si3 1.653318 1_555
