# generated using pymatgen
data_Rb4Ca(Se2O7)2
_symmetry_space_group_name_H-M   'P 1'
_cell_length_a   8.38258852
_cell_length_b   8.38258852
_cell_length_c   8.05211923
_cell_angle_alpha   97.55856323
_cell_angle_beta   97.55856323
_cell_angle_gamma   59.04844314
_symmetry_Int_Tables_number   1
_chemical_formula_structural   Rb4Ca(Se2O7)2
_chemical_formula_sum   'Rb4 Ca1 Se4 O14'
_cell_volume   479.65906257
_cell_formula_units_Z   1
loop_
 _symmetry_equiv_pos_site_id
 _symmetry_equiv_pos_as_xyz
  1  'x, y, z'
loop_
 _atom_site_type_symbol
 _atom_site_label
 _atom_site_symmetry_multiplicity
 _atom_site_fract_x
 _atom_site_fract_y
 _atom_site_fract_z
 _atom_site_occupancy
  Rb  Rb0  1  0.20682800  0.53493400  0.40007900  1
  Rb  Rb1  1  0.46506600  0.79317200  0.09992100  1
  Rb  Rb2  1  0.78158600  0.54865500  0.55928800  1
  Rb  Rb3  1  0.45134500  0.21841400  0.94071200  1
  Ca  Ca0  1  0.91264600  0.08735400  0.75000000  1
  Se  Se0  1  0.70615400  0.10721800  0.39376800  1
  Se  Se1  1  0.89278200  0.29384600  0.10623200  1
  Se  Se2  1  0.31243300  0.89745300  0.61806300  1
  Se  Se3  1  0.10254700  0.68756700  0.88193700  1
  O  O0  1  0.64622000  0.27039300  0.56096700  1
  O  O1  1  0.72960600  0.35378000  0.93903300  1
  O  O2  1  0.38320100  0.77463500  0.43368900  1
  O  O3  1  0.22536400  0.61679900  0.06631100  1
  O  O4  1  0.51478000  0.11223300  0.29399400  1
  O  O5  1  0.88776700  0.48522000  0.20600600  1
  O  O6  1  0.49213900  0.90240200  0.73274300  1
  O  O7  1  0.09759800  0.50786100  0.76725700  1
  O  O8  1  0.85624800  0.90580500  0.48570600  1
  O  O9  1  0.09419500  0.14375200  0.01429400  1
  O  O10  1  0.12415800  0.11346600  0.59705600  1
  O  O11  1  0.88653400  0.87584200  0.90294400  1
  O  O12  1  0.81813500  0.18186500  0.25000000  1
  O  O13  1  0.21266700  0.78733300  0.75000000  1
loop_
_geom_bond_atom_site_label_1
_geom_bond_atom_site_label_2
_geom_bond_distance
_geom_bond_site_symmetry_2
Ca0 O11 2.398480 1_545
Ca0 O10 2.398480 1_655
Ca0 O0 2.419533 1_555
Ca0 O1 2.419535 1_555
Ca0 O13 2.478694 1_645
Ca0 O8 2.586853 1_545
Ca0 O9 2.586853 1_656
O0 Se0 1.709535 1_555
O0 Rb2 3.076276 1_555
O0 Rb0 3.355736 1_555
O1 Se1 1.709540 1_556
O1 Rb3 3.076268 1_555
O1 Rb1 3.355735 1_556
O2 Se2 1.678468 1_555
O2 Rb1 2.902187 1_555
O2 Rb2 2.978558 1_555
O2 Rb0 3.017259 1_555
O3 Se3 1.678466 1_554
O3 Rb0 2.902184 1_555
O3 Rb3 2.978559 1_554
O3 Rb1 3.017267 1_555
O4 Se0 1.679628 1_555
O4 Rb3 2.991394 1_554
O4 Rb1 3.105569 1_545
O4 Rb0 3.213064 1_555
O5 Se1 1.679628 1_555
O5 Rb2 2.991394 1_555
O5 Rb0 3.105569 1_655
O5 Rb1 3.213064 1_555
O6 Se2 1.676877 1_555
O6 Rb3 2.826701 1_565
O6 Rb2 3.005332 1_555
O6 Rb1 3.276214 1_556
O7 Se3 1.676877 1_555
O7 Rb2 2.826701 1_455
O7 Rb3 3.005332 1_555
O7 Rb0 3.276214 1_555
O8 Se0 1.697153 1_565
O8 Rb0 3.057473 1_655
O8 Rb2 3.492479 1_555
O9 Se1 1.697153 1_455
O9 Rb1 3.057473 1_545
O9 Rb3 3.492479 1_554
O10 Se2 1.693811 1_545
O10 Rb2 3.306545 1_455
O11 Se3 1.693811 1_655
O11 Rb3 3.306545 1_565
O12 Se0 1.921832 1_555
O12 Se1 1.921832 1_555
O13 Se3 1.991464 1_555
O13 Se2 1.991464 1_555
O13 Rb1 3.304490 1_556
O13 Rb0 3.304490 1_555
