# generated using pymatgen
data_CaNiP2WO9
_symmetry_space_group_name_H-M   'P 1'
_cell_length_a   6.62314800
_cell_length_b   7.65522500
_cell_length_c   14.42704500
_cell_angle_alpha   90.00000000
_cell_angle_beta   90.00000000
_cell_angle_gamma   90.00000000
_symmetry_Int_Tables_number   1
_chemical_formula_structural   CaNiP2WO9
_chemical_formula_sum   'Ca4 Ni4 P8 W4 O36'
_cell_volume   731.47553649
_cell_formula_units_Z   4
loop_
 _symmetry_equiv_pos_site_id
 _symmetry_equiv_pos_as_xyz
  1  'x, y, z'
loop_
 _atom_site_type_symbol
 _atom_site_label
 _atom_site_symmetry_multiplicity
 _atom_site_fract_x
 _atom_site_fract_y
 _atom_site_fract_z
 _atom_site_occupancy
  Ca  Ca0  1  0.25000000  0.40493600  0.71545500  1
  Ca  Ca1  1  0.25000000  0.09506400  0.21545500  1
  Ca  Ca2  1  0.75000000  0.59506400  0.28454500  1
  Ca  Ca3  1  0.75000000  0.90493600  0.78454500  1
  Ni  Ni0  1  0.50000000  0.50000000  0.50000000  1
  Ni  Ni1  1  0.50000000  0.00000000  0.00000000  1
  Ni  Ni2  1  0.00000000  0.00000000  0.00000000  1
  Ni  Ni3  1  0.00000000  0.50000000  0.50000000  1
  P  P0  1  0.75000000  0.84585100  0.56691300  1
  P  P1  1  0.25000000  0.15414900  0.43308700  1
  P  P2  1  0.25000000  0.34585100  0.93308700  1
  P  P3  1  0.75000000  0.65414900  0.06691300  1
  P  P4  1  0.25000000  0.88538900  0.81172000  1
  P  P5  1  0.75000000  0.11461100  0.18828000  1
  P  P6  1  0.75000000  0.38538900  0.68828000  1
  P  P7  1  0.25000000  0.61461100  0.31172000  1
  W  W0  1  0.25000000  0.85115800  0.61761800  1
  W  W1  1  0.75000000  0.14884200  0.38238200  1
  W  W2  1  0.75000000  0.35115800  0.88238200  1
  W  W3  1  0.25000000  0.64884200  0.11761800  1
  O  O0  1  0.94545300  0.10812200  0.13186200  1
  O  O1  1  0.44545300  0.89187800  0.86813800  1
  O  O2  1  0.05454700  0.60812200  0.36813800  1
  O  O3  1  0.55454700  0.39187800  0.63186200  1
  O  O4  1  0.05454700  0.89187800  0.86813800  1
  O  O5  1  0.55454700  0.10812200  0.13186200  1
  O  O6  1  0.94545300  0.39187800  0.63186200  1
  O  O7  1  0.44545300  0.60812200  0.36813800  1
  O  O8  1  0.75000000  0.83398000  0.01980600  1
  O  O9  1  0.25000000  0.16602000  0.98019400  1
  O  O10  1  0.25000000  0.33398000  0.48019400  1
  O  O11  1  0.75000000  0.66602000  0.51980600  1
  O  O12  1  0.25000000  0.62728200  0.55883200  1
  O  O13  1  0.75000000  0.37271800  0.44116800  1
  O  O14  1  0.75000000  0.12728200  0.94116800  1
  O  O15  1  0.25000000  0.87271800  0.05883200  1
  O  O16  1  0.25000000  0.71532100  0.74912500  1
  O  O17  1  0.75000000  0.28467900  0.25087500  1
  O  O18  1  0.75000000  0.21532100  0.75087500  1
  O  O19  1  0.25000000  0.78467900  0.24912500  1
  O  O20  1  0.56786100  0.63344700  0.13385200  1
  O  O21  1  0.06786100  0.36655300  0.86614800  1
  O  O22  1  0.43213900  0.13344700  0.36614800  1
  O  O23  1  0.93213900  0.86655300  0.63385200  1
  O  O24  1  0.43213900  0.36655300  0.86614800  1
  O  O25  1  0.93213900  0.63344700  0.13385200  1
  O  O26  1  0.56786100  0.86655300  0.63385200  1
  O  O27  1  0.06786100  0.13344700  0.36614800  1
  O  O28  1  0.25000000  0.46940200  0.23330100  1
  O  O29  1  0.75000000  0.53059800  0.76669900  1
  O  O30  1  0.75000000  0.96940200  0.26669900  1
  O  O31  1  0.25000000  0.03059800  0.73330100  1
  O  O32  1  0.25000000  0.48787500  0.00796600  1
  O  O33  1  0.75000000  0.51212500  0.99203400  1
  O  O34  1  0.75000000  0.98787500  0.49203400  1
  O  O35  1  0.25000000  0.01212500  0.50796600  1
loop_
_geom_bond_atom_site_label_1
_geom_bond_atom_site_label_2
_geom_bond_distance
_geom_bond_site_symmetry_2
Ca0 O3 2.352224 1_555
Ca0 O6 2.352224 1_455
Ca0 O16 2.425213 1_555
Ca0 O24 2.503616 1_555
Ca0 O21 2.503616 1_555
Ca0 O12 2.828957 1_555
Ca0 O31 2.877184 1_555
Ca1 O0 2.352224 1_455
Ca1 O5 2.352224 1_555
Ca1 O19 2.425213 1_545
Ca1 O22 2.503616 1_555
Ca1 O27 2.503616 1_555
Ca1 O15 2.828957 1_545
Ca1 O28 2.877184 1_555
Ca2 O2 2.352224 1_655
Ca2 O7 2.352224 1_555
Ca2 O17 2.425213 1_555
Ca2 O25 2.503616 1_555
Ca2 O20 2.503616 1_555
Ca2 O13 2.828957 1_555
Ca2 O30 2.877184 1_555
Ca3 O4 2.352224 1_655
Ca3 O1 2.352224 1_555
Ca3 O18 2.425213 1_565
Ca3 O23 2.503616 1_555
Ca3 O26 2.503616 1_555
Ca3 O14 2.828957 1_565
Ca3 O29 2.877184 1_555
Ni0 O13 2.100344 1_555
Ni0 O12 2.100344 1_555
Ni0 O3 2.105860 1_555
Ni0 O7 2.105860 1_555
Ni0 O11 2.106779 1_555
Ni0 O10 2.106779 1_555
Ni1 O15 2.100344 1_545
Ni1 O14 2.100344 1_554
Ni1 O5 2.105860 1_555
Ni1 O1 2.105860 1_544
Ni1 O8 2.106779 1_545
Ni1 O9 2.106779 1_554
Ni2 O15 2.100344 1_545
Ni2 O14 2.100344 1_454
Ni2 O0 2.105860 1_455
Ni2 O4 2.105860 1_544
Ni2 O8 2.106779 1_445
Ni2 O9 2.106779 1_554
Ni3 O13 2.100344 1_455
Ni3 O12 2.100344 1_555
Ni3 O6 2.105860 1_455
Ni3 O2 2.105860 1_555
Ni3 O11 2.106779 1_455
Ni3 O10 2.106779 1_555
O0 P5 1.529948 1_555
O1 P4 1.529948 1_555
O2 P7 1.529948 1_555
O3 P6 1.529948 1_555
O4 P4 1.529948 1_555
O5 P5 1.529948 1_555
O6 P6 1.529948 1_555
O7 P7 1.529948 1_555
O8 P3 1.535263 1_555
O9 P2 1.535263 1_555
O10 P1 1.535263 1_555
O11 P0 1.535263 1_555
O12 W0 1.912190 1_555
O13 W1 1.912190 1_555
O14 W2 1.912190 1_555
O15 W3 1.912190 1_555
O16 P4 1.584451 1_555
O16 W0 2.163539 1_555
O17 P5 1.584451 1_555
O17 W1 2.163539 1_555
O18 P6 1.584451 1_555
O18 W2 2.163539 1_555
O19 P7 1.584451 1_555
O19 W3 2.163539 1_555
O20 P3 1.553382 1_555
O20 W3 2.121504 1_555
O21 P2 1.553382 1_555
O21 W2 2.121504 1_455
O22 P1 1.553382 1_555
O22 W1 2.121504 1_555
O23 P0 1.553382 1_555
O23 W0 2.121504 1_655
O24 P2 1.553382 1_555
O24 W2 2.121504 1_555
O25 P3 1.553382 1_555
O25 W3 2.121504 1_655
O26 P0 1.553382 1_555
O26 W0 2.121504 1_555
O27 P1 1.553382 1_555
O27 W1 2.121504 1_455
O28 P7 1.586075 1_555
O28 W3 2.161565 1_555
O29 P6 1.586075 1_555
O29 W2 2.161565 1_555
O30 P5 1.586075 1_565
O30 W1 2.161565 1_565
O31 P4 1.586075 1_545
O31 W0 2.161565 1_545
O32 P2 1.532668 1_554
O32 W3 2.005241 1_555
O33 P3 1.532668 1_556
O33 W2 2.005241 1_555
O34 P0 1.532668 1_555
O34 W1 2.005241 1_565
O35 P1 1.532668 1_555
O35 W0 2.005241 1_545
