# generated using pymatgen
data_TmGeAu
_symmetry_space_group_name_H-M   'P 1'
_cell_length_a   4.39942126
_cell_length_b   4.39942126
_cell_length_c   7.19890966
_cell_angle_alpha   90.00000000
_cell_angle_beta   90.00000000
_cell_angle_gamma   120.00000626
_symmetry_Int_Tables_number   1
_chemical_formula_structural   TmGeAu
_chemical_formula_sum   'Tm2 Ge2 Au2'
_cell_volume   120.66697499
_cell_formula_units_Z   2
loop_
 _symmetry_equiv_pos_site_id
 _symmetry_equiv_pos_as_xyz
  1  'x, y, z'
loop_
 _atom_site_type_symbol
 _atom_site_label
 _atom_site_symmetry_multiplicity
 _atom_site_fract_x
 _atom_site_fract_y
 _atom_site_fract_z
 _atom_site_occupancy
  Tm  Tm0  1  -0.00000000  -0.00000000  0.49950231  1
  Tm  Tm1  1  -0.00000000  -0.00000000  0.99950231  1
  Ge  Ge0  1  0.33333300  0.66666700  0.79362090  1
  Ge  Ge1  1  0.66666700  0.33333300  0.29362090  1
  Au  Au0  1  0.33333300  0.66666700  0.20487679  1
  Au  Au1  1  0.66666700  0.33333300  0.70487679  1
loop_
_geom_bond_atom_site_label_1
_geom_bond_atom_site_label_2
_geom_bond_distance
_geom_bond_site_symmetry_2
Ge0 Tm1 2.940801 1_565
Ge0 Tm1 2.940804 1_665
Ge0 Tm1 2.940804 1_555
Ge0 Tm0 3.306769 1_565
Ge0 Tm0 3.306772 1_665
Ge0 Tm0 3.306772 1_555
Ge1 Tm0 2.940801 1_655
Ge1 Tm0 2.940804 1_665
Ge1 Tm0 2.940804 1_555
Ge1 Tm1 3.306769 1_654
Ge1 Tm1 3.306772 1_554
Ge1 Tm1 3.306772 1_664
Au0 Ge1 2.619115 1_455
Au0 Ge1 2.619115 1_565
Au0 Ge1 2.619123 1_555
Au0 Tm1 2.938963 1_564
Au0 Tm1 2.938966 1_554
Au0 Tm1 2.938966 1_664
Au0 Ge0 2.960594 1_554
Au0 Tm0 3.309107 1_565
Au0 Tm0 3.309110 1_665
Au0 Tm0 3.309110 1_555
Au1 Ge0 2.619115 1_545
Au1 Ge0 2.619115 1_655
Au1 Ge0 2.619123 1_555
Au1 Tm0 2.938963 1_655
Au1 Tm0 2.938966 1_555
Au1 Tm0 2.938966 1_665
Au1 Ge1 2.960594 1_555
Au1 Tm1 3.309107 1_655
Au1 Tm1 3.309110 1_665
Au1 Tm1 3.309110 1_555
