# generated using pymatgen
data_CaSnBiO5
_symmetry_space_group_name_H-M   'P 1'
_cell_length_a   11.14990200
_cell_length_b   5.92564600
_cell_length_c   8.96981673
_cell_angle_alpha   71.82770727
_cell_angle_beta   90.00000000
_cell_angle_gamma   90.00000000
_symmetry_Int_Tables_number   1
_chemical_formula_structural   CaSnBiO5
_chemical_formula_sum   'Ca4 Sn4 Bi4 O20'
_cell_volume   563.08005596
_cell_formula_units_Z   4
loop_
 _symmetry_equiv_pos_site_id
 _symmetry_equiv_pos_as_xyz
  1  'x, y, z'
loop_
 _atom_site_type_symbol
 _atom_site_label
 _atom_site_symmetry_multiplicity
 _atom_site_fract_x
 _atom_site_fract_y
 _atom_site_fract_z
 _atom_site_occupancy
  Ca  Ca0  1  0.09619900  0.53233100  0.83144200  1
  Ca  Ca1  1  0.90380100  0.46766900  0.16855800  1
  Ca  Ca2  1  0.59619900  0.46766900  0.66855800  1
  Ca  Ca3  1  0.40380100  0.53233100  0.33144200  1
  Sn  Sn0  1  0.38520900  0.11958600  0.06071700  1
  Sn  Sn1  1  0.61479100  0.88041400  0.93928300  1
  Sn  Sn2  1  0.88520900  0.88041400  0.43928300  1
  Sn  Sn3  1  0.11479100  0.11958600  0.56071700  1
  Bi  Bi0  1  0.89837500  0.03006100  0.85090400  1
  Bi  Bi1  1  0.10162500  0.96993900  0.14909600  1
  Bi  Bi2  1  0.60162500  0.03006100  0.35090400  1
  Bi  Bi3  1  0.39837500  0.96993900  0.64909600  1
  O  O0  1  0.96142300  0.86283300  0.64860100  1
  O  O1  1  0.02905400  0.29375200  0.68694300  1
  O  O2  1  0.78736100  0.17562400  0.32483900  1
  O  O3  1  0.46270200  0.78082300  0.48728600  1
  O  O4  1  0.72276700  0.72316200  0.49240600  1
  O  O5  1  0.77723300  0.72316200  0.99240600  1
  O  O6  1  0.47094600  0.29375200  0.18694300  1
  O  O7  1  0.52905400  0.70624800  0.81305700  1
  O  O8  1  0.53729800  0.21917700  0.51271400  1
  O  O9  1  0.46142300  0.13716700  0.85139900  1
  O  O10  1  0.27723300  0.27683800  0.50759400  1
  O  O11  1  0.03857700  0.13716700  0.35139900  1
  O  O12  1  0.53857700  0.86283300  0.14860100  1
  O  O13  1  0.22276700  0.27683800  0.00759400  1
  O  O14  1  0.96270200  0.21917700  0.01271400  1
  O  O15  1  0.03729800  0.78082300  0.98728600  1
  O  O16  1  0.21263900  0.82437600  0.67516100  1
  O  O17  1  0.97094600  0.70624800  0.31305700  1
  O  O18  1  0.28736100  0.82437600  0.17516100  1
  O  O19  1  0.71263900  0.17562400  0.82483900  1
loop_
_geom_bond_atom_site_label_1
_geom_bond_atom_site_label_2
_geom_bond_distance
_geom_bond_site_symmetry_2
Ca0 O16 2.265458 1_555
Ca0 O13 2.299584 1_556
Ca0 O1 2.319923 1_555
Ca0 O15 2.416092 1_555
Ca0 O14 2.533924 1_456
Ca0 O0 2.603847 1_455
Ca1 O2 2.265458 1_555
Ca1 O5 2.299584 1_554
Ca1 O17 2.319923 1_555
Ca1 O14 2.416092 1_555
Ca1 O15 2.533924 1_654
Ca1 O11 2.603847 1_655
Ca2 O19 2.265458 1_555
Ca2 O4 2.299584 1_555
Ca2 O7 2.319923 1_555
Ca2 O8 2.416092 1_555
Ca2 O3 2.533924 1_555
Ca2 O9 2.603847 1_555
Ca3 O18 2.265458 1_555
Ca3 O10 2.299584 1_555
Ca3 O6 2.319923 1_555
Ca3 O3 2.416092 1_555
Ca3 O8 2.533924 1_555
Ca3 O12 2.603847 1_555
Bi0 O14 2.211642 1_556
Bi0 O15 2.224888 1_645
Bi0 O19 2.227478 1_555
Bi0 O1 2.300893 1_655
Bi0 O5 2.302802 1_545
Bi0 O0 2.427053 1_545
Bi1 O15 2.211642 1_554
Bi1 O14 2.224888 1_465
Bi1 O18 2.227478 1_555
Bi1 O17 2.300893 1_455
Bi1 O13 2.302802 1_565
Bi1 O11 2.427053 1_565
Bi2 O8 2.211642 1_555
Bi2 O3 2.224888 1_545
Bi2 O2 2.227478 1_555
Bi2 O6 2.300893 1_555
Bi2 O4 2.302802 1_545
Bi2 O12 2.427053 1_545
Bi3 O3 2.211642 1_555
Bi3 O8 2.224888 1_565
Bi3 O16 2.227478 1_555
Bi3 O7 2.300893 1_555
Bi3 O10 2.302802 1_565
Bi3 O9 2.427053 1_565
O0 Sn2 2.033751 1_555
O0 Sn3 2.261040 1_665
O1 Sn3 1.997440 1_555
O2 Sn2 2.045495 1_545
O4 Sn2 2.024569 1_555
O5 Sn1 2.024569 1_555
O6 Sn0 1.997440 1_555
O7 Sn1 1.997440 1_555
O9 Sn0 2.033751 1_556
O9 Sn1 2.261040 1_545
O10 Sn3 2.024569 1_555
O11 Sn3 2.033751 1_555
O11 Sn2 2.261040 1_445
O12 Sn1 2.033751 1_554
O12 Sn0 2.261040 1_565
O13 Sn0 2.024569 1_555
O16 Sn3 2.045495 1_565
O17 Sn2 1.997440 1_555
O18 Sn0 2.045495 1_565
O19 Sn1 2.045495 1_545
