# generated using pymatgen
data_La7SmMn7FeO24
_symmetry_space_group_name_H-M   'P 1'
_cell_length_a   7.76288011
_cell_length_b   7.76288011
_cell_length_c   7.76288026
_cell_angle_alpha   89.88900696
_cell_angle_beta   89.88900696
_cell_angle_gamma   89.88900700
_symmetry_Int_Tables_number   1
_chemical_formula_structural   La7SmMn7FeO24
_chemical_formula_sum   'La7 Sm1 Mn7 Fe1 O24'
_cell_volume   467.80644887
_cell_formula_units_Z   1
loop_
 _symmetry_equiv_pos_site_id
 _symmetry_equiv_pos_as_xyz
  1  'x, y, z'
loop_
 _atom_site_type_symbol
 _atom_site_label
 _atom_site_symmetry_multiplicity
 _atom_site_fract_x
 _atom_site_fract_y
 _atom_site_fract_z
 _atom_site_occupancy
  La  La0  1  0.75230628  0.24912576  0.24912576  1
  La  La1  1  0.75122318  0.24716103  0.75122318  1
  La  La2  1  0.75122318  0.75122318  0.24716103  1
  La  La3  1  0.74843507  0.74843507  0.74843507  1
  La  La4  1  0.24912576  0.24912576  0.75230628  1
  La  La5  1  0.24912576  0.75230628  0.24912576  1
  La  La6  1  0.24716103  0.75122318  0.75122318  1
  Sm  Sm0  1  0.25141774  0.25141774  0.25141774  1
  Mn  Mn0  1  0.00070162  0.00070162  0.49929248  1
  Mn  Mn1  1  0.00070162  0.49929248  0.00070162  1
  Mn  Mn2  1  0.00058188  0.49939298  0.49939298  1
  Mn  Mn3  1  0.49929248  0.00070162  0.00070162  1
  Mn  Mn4  1  0.49939298  0.00058188  0.49939298  1
  Mn  Mn5  1  0.49939298  0.49939298  0.00058188  1
  Mn  Mn6  1  0.49934816  0.49934816  0.49934816  1
  Fe  Fe0  1  0.00062842  0.00062842  0.00062842  1
  O  O0  1  0.74540612  0.00023764  0.00023764  1
  O  O1  1  0.75063543  0.00040767  0.49931694  1
  O  O2  1  0.75063543  0.49931694  0.00040767  1
  O  O3  1  0.75083023  0.49966765  0.49966765  1
  O  O4  1  0.25445383  0.00255471  0.00255471  1
  O  O5  1  0.24947753  0.00247530  0.49791691  1
  O  O6  1  0.24947753  0.49791691  0.00247530  1
  O  O7  1  0.24915141  0.49736034  0.49736034  1
  O  O8  1  0.00255471  0.25445383  0.00255471  1
  O  O9  1  0.00247530  0.24947753  0.49791691  1
  O  O10  1  0.00023764  0.74540612  0.00023764  1
  O  O11  1  0.00040767  0.75063543  0.49931694  1
  O  O12  1  0.49791691  0.24947753  0.00247530  1
  O  O13  1  0.49736034  0.24915141  0.49736034  1
  O  O14  1  0.49931694  0.75063543  0.00040767  1
  O  O15  1  0.49966765  0.75083023  0.49966765  1
  O  O16  1  0.00255471  0.00255471  0.25445383  1
  O  O17  1  0.00023764  0.00023764  0.74540612  1
  O  O18  1  0.00247530  0.49791691  0.24947753  1
  O  O19  1  0.00040767  0.49931694  0.75063543  1
  O  O20  1  0.49791691  0.00247530  0.24947753  1
  O  O21  1  0.49931694  0.00040767  0.75063543  1
  O  O22  1  0.49736034  0.49736034  0.24915141  1
  O  O23  1  0.49966765  0.49966765  0.75083023  1
loop_
_geom_bond_atom_site_label_1
_geom_bond_atom_site_label_2
_geom_bond_distance
_geom_bond_site_symmetry_2
La0 O16 2.724881 1_655
La0 O8 2.724881 1_655
La0 O0 2.735702 1_555
La0 O2 2.735994 1_555
La0 O1 2.735994 1_555
La0 O18 2.741556 1_655
La0 O9 2.741556 1_655
La0 O3 2.753197 1_555
La0 O20 2.753284 1_555
La0 O12 2.753284 1_555
La0 O22 2.759621 1_555
La0 O13 2.759621 1_555
La1 O17 2.720055 1_655
La1 O0 2.720055 1_556
La1 O21 2.740047 1_555
La1 O1 2.740047 1_555
La1 O19 2.754654 1_655
La1 O2 2.754654 1_556
La1 O8 2.762617 1_656
La1 O23 2.764216 1_555
La1 O3 2.764216 1_555
La1 O12 2.767012 1_556
La1 O9 2.767012 1_655
La1 O13 2.789699 1_555
La2 O0 2.720055 1_565
La2 O10 2.720055 1_655
La2 O14 2.740047 1_555
La2 O2 2.740047 1_555
La2 O11 2.754654 1_655
La2 O1 2.754654 1_565
La2 O16 2.762617 1_665
La2 O3 2.764216 1_555
La2 O15 2.764216 1_555
La2 O20 2.767012 1_565
La2 O18 2.767012 1_655
La2 O22 2.789699 1_555
La3 O23 2.733717 1_555
La3 O15 2.733717 1_555
La3 O3 2.733717 1_555
La3 O21 2.748012 1_565
La3 O19 2.748012 1_655
La3 O1 2.748012 1_565
La3 O11 2.748012 1_655
La3 O14 2.748012 1_556
La3 O2 2.748012 1_556
La3 O17 2.767094 1_665
La3 O10 2.767094 1_656
La3 O0 2.767094 1_566
La4 O4 2.724881 1_556
La4 O8 2.724881 1_556
La4 O17 2.735702 1_555
La4 O21 2.735994 1_555
La4 O19 2.735994 1_555
La4 O6 2.741556 1_556
La4 O12 2.741556 1_556
La4 O23 2.753197 1_555
La4 O5 2.753284 1_555
La4 O9 2.753284 1_555
La4 O13 2.759621 1_555
La4 O7 2.759621 1_555
La5 O16 2.724881 1_565
La5 O4 2.724881 1_565
La5 O10 2.735702 1_555
La5 O14 2.735994 1_555
La5 O11 2.735994 1_555
La5 O20 2.741556 1_565
La5 O5 2.741556 1_565
La5 O15 2.753197 1_555
La5 O18 2.753284 1_555
La5 O6 2.753284 1_555
La5 O22 2.759621 1_555
La5 O7 2.759621 1_555
La6 O17 2.720055 1_565
La6 O10 2.720055 1_556
La6 O19 2.740047 1_555
La6 O11 2.740047 1_555
La6 O21 2.754654 1_565
La6 O14 2.754654 1_556
La6 O4 2.762617 1_566
La6 O23 2.764216 1_555
La6 O15 2.764216 1_555
La6 O6 2.767012 1_556
La6 O5 2.767012 1_565
La6 O7 2.789699 1_555
Mn0 O16 1.900706 1_555
Mn0 O17 1.910544 1_555
Mn0 O5 1.931302 1_555
Mn0 O9 1.931302 1_555
Mn0 O11 1.941239 1_545
Mn0 O1 1.941239 1_455
Mn1 O8 1.900706 1_555
Mn1 O10 1.910544 1_555
Mn1 O6 1.931302 1_555
Mn1 O18 1.931302 1_555
Mn1 O2 1.941239 1_455
Mn1 O19 1.941239 1_554
Mn2 O7 1.929684 1_555
Mn2 O3 1.938786 1_455
Mn2 O9 1.940147 1_555
Mn2 O18 1.940147 1_555
Mn2 O11 1.950362 1_555
Mn2 O19 1.950362 1_555
Mn3 O4 1.900706 1_555
Mn3 O0 1.910544 1_555
Mn3 O12 1.931302 1_555
Mn3 O20 1.931302 1_555
Mn3 O14 1.941239 1_545
Mn3 O21 1.941239 1_554
Mn4 O13 1.929684 1_555
Mn4 O15 1.938786 1_545
Mn4 O5 1.940147 1_555
Mn4 O20 1.940147 1_555
Mn4 O1 1.950362 1_555
Mn4 O21 1.950362 1_555
Mn5 O22 1.929684 1_555
Mn5 O23 1.938786 1_554
Mn5 O6 1.940147 1_555
Mn5 O12 1.940147 1_555
Mn5 O14 1.950362 1_555
Mn5 O2 1.950362 1_555
Mn6 O7 1.942430 1_555
Mn6 O13 1.942430 1_555
Mn6 O22 1.942430 1_555
Mn6 O15 1.952238 1_555
Mn6 O3 1.952238 1_555
Mn6 O23 1.952238 1_555
Fe0 O4 1.970588 1_555
Fe0 O8 1.970588 1_555
Fe0 O16 1.970588 1_555
Fe0 O0 1.981277 1_455
Fe0 O10 1.981277 1_545
Fe0 O17 1.981277 1_554
O4 Sm0 2.734793 1_555
O5 Sm0 2.717010 1_555
O6 Sm0 2.717010 1_555
O7 Sm0 2.702672 1_555
O8 Sm0 2.734793 1_555
O9 Sm0 2.717010 1_555
O12 Sm0 2.717010 1_555
O13 Sm0 2.702672 1_555
O16 Sm0 2.734793 1_555
O18 Sm0 2.717010 1_555
O20 Sm0 2.717010 1_555
O22 Sm0 2.702672 1_555
