# generated using pymatgen
data_Ba2DyInSe5
_symmetry_space_group_name_H-M   'P 1'
_cell_length_a   9.78962828
_cell_length_b   9.78962828
_cell_length_c   13.51910500
_cell_angle_alpha   90.00000000
_cell_angle_beta   90.00000000
_cell_angle_gamma   154.49720189
_symmetry_Int_Tables_number   1
_chemical_formula_structural   Ba2DyInSe5
_chemical_formula_sum   'Ba4 Dy2 In2 Se10'
_cell_volume   557.83936489
_cell_formula_units_Z   2
loop_
 _symmetry_equiv_pos_site_id
 _symmetry_equiv_pos_as_xyz
  1  'x, y, z'
loop_
 _atom_site_type_symbol
 _atom_site_label
 _atom_site_symmetry_multiplicity
 _atom_site_fract_x
 _atom_site_fract_y
 _atom_site_fract_z
 _atom_site_occupancy
  Ba  Ba0  1  0.13249100  0.86750900  0.81374200  1
  Ba  Ba1  1  0.86750900  0.13249100  0.31374200  1
  Ba  Ba2  1  0.11719400  0.88280600  0.18132200  1
  Ba  Ba3  1  0.88280600  0.11719400  0.68132200  1
  Dy  Dy0  1  0.21131500  0.78868500  0.51791900  1
  Dy  Dy1  1  0.78868500  0.21131500  0.01791900  1
  In  In0  1  0.44761300  0.55238700  0.93704500  1
  In  In1  1  0.55238700  0.44761300  0.43704500  1
  Se  Se0  1  0.35616500  0.64383500  0.50049400  1
  Se  Se1  1  0.64383500  0.35616500  0.00049400  1
  Se  Se2  1  0.29096100  0.70903900  0.15683600  1
  Se  Se3  1  0.70903900  0.29096100  0.65683600  1
  Se  Se4  1  0.31285500  0.68714500  0.86971800  1
  Se  Se5  1  0.68714500  0.31285500  0.36971800  1
  Se  Se6  1  0.50498000  0.49502000  0.76585700  1
  Se  Se7  1  0.49502000  0.50498000  0.26585700  1
  Se  Se8  1  0.05051900  0.94948100  0.55078700  1
  Se  Se9  1  0.94948100  0.05051900  0.05078700  1
loop_
_geom_bond_atom_site_label_1
_geom_bond_atom_site_label_2
_geom_bond_distance
_geom_bond_site_symmetry_2
Ba0 Se6 3.319225 1_455
Ba0 Se6 3.319225 1_565
Ba0 Se1 3.330181 1_566
Ba0 Se1 3.330181 1_456
Ba0 Se3 3.362351 1_565
Ba0 Se3 3.362351 1_455
Ba0 Se4 3.526450 1_555
Ba0 Se8 3.884303 1_555
Ba1 Se7 3.319225 1_545
Ba1 Se7 3.319225 1_655
Ba1 Se0 3.330181 1_655
Ba1 Se0 3.330181 1_545
Ba1 Se2 3.362351 1_655
Ba1 Se2 3.362351 1_545
Ba1 Se5 3.526450 1_555
Ba1 Se9 3.884303 1_555
Ba2 Se1 3.302123 1_455
Ba2 Se1 3.302123 1_565
Ba2 Se2 3.334790 1_555
Ba2 Se7 3.379098 1_455
Ba2 Se7 3.379098 1_565
Ba2 Se5 3.597261 1_455
Ba2 Se5 3.597261 1_565
Ba2 Se9 3.656716 1_465
Ba3 Se0 3.302123 1_545
Ba3 Se0 3.302123 1_655
Ba3 Se3 3.334790 1_555
Ba3 Se6 3.379098 1_545
Ba3 Se6 3.379098 1_655
Ba3 Se4 3.597261 1_545
Ba3 Se4 3.597261 1_655
Ba3 Se8 3.656716 1_645
Dy0 Se0 2.776122 1_555
Dy0 Se3 2.863191 1_565
Dy0 Se3 2.863191 1_455
Dy0 Se5 2.982649 1_565
Dy0 Se5 2.982649 1_455
Dy0 Se8 3.102604 1_555
Dy1 Se1 2.776122 1_555
Dy1 Se2 2.863191 1_655
Dy1 Se2 2.863191 1_545
Dy1 Se4 2.982649 1_654
Dy1 Se4 2.982649 1_544
Dy1 Se9 3.102604 1_555
In0 Se6 2.560498 1_555
In0 Se9 2.652306 1_566
In0 Se9 2.652306 1_456
In0 Se4 2.729615 1_555
In1 Se7 2.560498 1_555
In1 Se8 2.652306 1_655
In1 Se8 2.652306 1_545
In1 Se5 2.729615 1_555
