# generated using pymatgen
data_Ce7Ir3
_symmetry_space_group_name_H-M   'P 1'
_cell_length_a   6.13728700
_cell_length_b   9.88074018
_cell_length_c   9.88074018
_cell_angle_alpha   120.00440702
_cell_angle_beta   90.00000000
_cell_angle_gamma   90.00000000
_symmetry_Int_Tables_number   1
_chemical_formula_structural   Ce7Ir3
_chemical_formula_sum   'Ce14 Ir6'
_cell_volume   518.87976636
_cell_formula_units_Z   2
loop_
 _symmetry_equiv_pos_site_id
 _symmetry_equiv_pos_as_xyz
  1  'x, y, z'
loop_
 _atom_site_type_symbol
 _atom_site_label
 _atom_site_symmetry_multiplicity
 _atom_site_fract_x
 _atom_site_fract_y
 _atom_site_fract_z
 _atom_site_occupancy
  Ce  Ce0  1  0.45342300  0.33340800  0.66659200  1
  Ce  Ce1  1  0.95342300  0.66659200  0.33340800  1
  Ce  Ce2  1  0.24751600  0.12844800  0.87155200  1
  Ce  Ce3  1  0.24747100  0.74292300  0.87145500  1
  Ce  Ce4  1  0.24747100  0.12854500  0.25707700  1
  Ce  Ce5  1  0.74751600  0.87155200  0.12844800  1
  Ce  Ce6  1  0.74747100  0.25707700  0.12854500  1
  Ce  Ce7  1  0.74747100  0.87145500  0.74292300  1
  Ce  Ce8  1  0.45602600  0.53757300  0.46242700  1
  Ce  Ce9  1  0.45591900  0.92476900  0.46244400  1
  Ce  Ce10  1  0.45591900  0.53755600  0.07523100  1
  Ce  Ce11  1  0.95602600  0.46242700  0.53757300  1
  Ce  Ce12  1  0.95591900  0.07523100  0.53755600  1
  Ce  Ce13  1  0.95591900  0.46244400  0.92476900  1
  Ir  Ir0  1  0.19834500  0.81321700  0.18678300  1
  Ir  Ir1  1  0.19845400  0.37359000  0.18691000  1
  Ir  Ir2  1  0.19845400  0.81309000  0.62641000  1
  Ir  Ir3  1  0.69834500  0.18678300  0.81321700  1
  Ir  Ir4  1  0.69845400  0.62641000  0.81309000  1
  Ir  Ir5  1  0.69845400  0.18691000  0.37359000  1
loop_
_geom_bond_atom_site_label_1
_geom_bond_atom_site_label_2
_geom_bond_distance
_geom_bond_site_symmetry_2
Ce0 Ir5 2.923531 1_555
Ce0 Ir4 2.923531 1_555
Ce0 Ir3 2.925151 1_555
Ce1 Ir1 2.923531 1_655
Ce1 Ir2 2.923531 1_655
Ce1 Ir0 2.925151 1_655
Ce2 Ir2 2.849290 1_545
Ce2 Ir1 2.849290 1_556
Ce2 Ir3 2.941476 1_555
Ce2 Ir3 3.515176 1_455
Ce3 Ir2 2.848222 1_555
Ce3 Ir0 2.848936 1_556
Ce3 Ir4 2.941888 1_555
Ce3 Ir4 3.513870 1_455
Ce4 Ir1 2.848222 1_555
Ce4 Ir0 2.848936 1_545
Ce4 Ir5 2.941888 1_555
Ce4 Ir5 3.513870 1_455
Ce5 Ir4 2.849290 1_554
Ce5 Ir5 2.849290 1_565
Ce5 Ir0 2.941476 1_655
Ce5 Ir0 3.515176 1_555
Ce6 Ir5 2.848222 1_555
Ce6 Ir3 2.848936 1_554
Ce6 Ir1 2.941888 1_655
Ce6 Ir1 3.513870 1_555
Ce7 Ir4 2.848222 1_555
Ce7 Ir3 2.848936 1_565
Ce7 Ir2 2.941888 1_655
Ce7 Ir2 3.513870 1_555
Ce8 Ir1 2.850210 1_555
Ce8 Ir2 2.850210 1_555
Ce8 Ir5 3.456496 1_555
Ce8 Ir4 3.456496 1_555
Ce9 Ir2 2.850824 1_555
Ce9 Ir0 2.851318 1_555
Ce9 Ir3 3.457519 1_565
Ce9 Ir5 3.459712 1_565
Ce10 Ir1 2.850824 1_555
Ce10 Ir0 2.851318 1_555
Ce10 Ir3 3.457519 1_554
Ce10 Ir4 3.459712 1_554
Ce11 Ir5 2.850210 1_555
Ce11 Ir4 2.850210 1_555
Ce11 Ir1 3.456496 1_655
Ce11 Ir2 3.456496 1_655
Ce12 Ir5 2.850824 1_555
Ce12 Ir3 2.851318 1_555
Ce12 Ir0 3.457519 1_645
Ce12 Ir2 3.459712 1_645
Ce13 Ir4 2.850824 1_555
Ce13 Ir3 2.851318 1_555
Ce13 Ir0 3.457519 1_656
Ce13 Ir1 3.459712 1_656
