# generated using pymatgen
data_AlSiPH9C3NCl6
_symmetry_space_group_name_H-M   'P 1'
_cell_length_a   13.32152214
_cell_length_b   16.19709961
_cell_length_c   16.88920803
_cell_angle_alpha   115.84309872
_cell_angle_beta   90.00000000
_cell_angle_gamma   90.00000000
_symmetry_Int_Tables_number   1
_chemical_formula_structural   AlSiPH9C3NCl6
_chemical_formula_sum   'Al8 Si8 P8 H72 C24 N8 Cl48'
_cell_volume   3279.73396933
_cell_formula_units_Z   8
loop_
 _symmetry_equiv_pos_site_id
 _symmetry_equiv_pos_as_xyz
  1  'x, y, z'
loop_
 _atom_site_type_symbol
 _atom_site_label
 _atom_site_symmetry_multiplicity
 _atom_site_fract_x
 _atom_site_fract_y
 _atom_site_fract_z
 _atom_site_occupancy
  Al  Al0  1  0.41022387  0.37645519  0.11433452  1
  Al  Al1  1  0.91022387  0.62354481  0.38566548  1
  Al  Al2  1  0.58977613  0.62354481  0.88566548  1
  Al  Al3  1  0.08977613  0.37645519  0.61433452  1
  Al  Al4  1  0.40681485  0.86194696  0.62637327  1
  Al  Al5  1  0.90681485  0.13805304  0.87362673  1
  Al  Al6  1  0.59318515  0.13805304  0.37362673  1
  Al  Al7  1  0.09318515  0.86194696  0.12637327  1
  Si  Si0  1  0.34198464  0.15760118  0.02106766  1
  Si  Si1  1  0.84198464  0.84239882  0.47893234  1
  Si  Si2  1  0.65801536  0.84239882  0.97893234  1
  Si  Si3  1  0.15801536  0.15760118  0.52106766  1
  Si  Si4  1  0.34433807  0.78047873  0.41558357  1
  Si  Si5  1  0.84433807  0.21952127  0.08441643  1
  Si  Si6  1  0.65566193  0.21952127  0.58441643  1
  Si  Si7  1  0.15566193  0.78047873  0.91558357  1
  P  P0  1  0.43809844  0.25018078  0.91954586  1
  P  P1  1  0.93809844  0.74981922  0.58045414  1
  P  P2  1  0.56190156  0.74981922  0.08045414  1
  P  P3  1  0.06190156  0.25018078  0.41954586  1
  P  P4  1  0.43804859  0.66336381  0.49267777  1
  P  P5  1  0.93804859  0.33663619  0.00732223  1
  P  P6  1  0.56195141  0.33663619  0.50732223  1
  P  P7  1  0.06195141  0.66336381  0.99267777  1
  H  H0  1  0.28790885  0.00501827  0.91928341  1
  H  H1  1  0.78790885  0.99498173  0.58071659  1
  H  H2  1  0.71209115  0.99498173  0.08071659  1
  H  H3  1  0.21209115  0.00501827  0.41928341  1
  H  H4  1  0.30962075  0.06738127  0.85779208  1
  H  H5  1  0.80962075  0.93261873  0.64220792  1
  H  H6  1  0.69037925  0.93261873  0.14220792  1
  H  H7  1  0.19037925  0.06738127  0.35779208  1
  H  H8  1  0.41278764  0.02076710  0.89248751  1
  H  H9  1  0.91278764  0.97923290  0.60751249  1
  H  H10  1  0.58721236  0.97923290  0.10751249  1
  H  H11  1  0.08721236  0.02076710  0.39248751  1
  H  H12  1  0.20541482  0.25019851  0.12308275  1
  H  H13  1  0.70541482  0.74980149  0.37691725  1
  H  H14  1  0.79458518  0.74980149  0.87691725  1
  H  H15  1  0.29458518  0.25019851  0.62308275  1
  H  H16  1  0.17126077  0.21456533  0.01029340  1
  H  H17  1  0.67126077  0.78543467  0.48970660  1
  H  H18  1  0.82873923  0.78543467  0.98970660  1
  H  H19  1  0.32873923  0.21456533  0.51029340  1
  H  H20  1  0.16908389  0.13439465  0.05572971  1
  H  H21  1  0.66908389  0.86560535  0.44427029  1
  H  H22  1  0.83091611  0.86560535  0.94427029  1
  H  H23  1  0.33091611  0.13439465  0.55572971  1
  H  H24  1  0.42708799  0.18995917  0.16389970  1
  H  H25  1  0.92708799  0.81004083  0.33610030  1
  H  H26  1  0.57291201  0.81004083  0.83610030  1
  H  H27  1  0.07291201  0.18995917  0.66389970  1
  H  H28  1  0.37339766  0.07852781  0.11299961  1
  H  H29  1  0.87339766  0.92147219  0.38700039  1
  H  H30  1  0.62660234  0.92147219  0.88700039  1
  H  H31  1  0.12660234  0.07852781  0.61299961  1
  H  H32  1  0.48925761  0.10089141  0.07318235  1
  H  H33  1  0.98925761  0.89910859  0.42681765  1
  H  H34  1  0.51074239  0.89910859  0.92681765  1
  H  H35  1  0.01074239  0.10089141  0.57318235  1
  H  H36  1  0.31721063  0.61330195  0.31342794  1
  H  H37  1  0.81721063  0.38669805  0.18657206  1
  H  H38  1  0.68278937  0.38669805  0.68657206  1
  H  H39  1  0.18278937  0.61330195  0.81342794  1
  H  H40  1  0.30602116  0.68685897  0.26180208  1
  H  H41  1  0.80602116  0.31314103  0.23819792  1
  H  H42  1  0.69397884  0.31314103  0.73819792  1
  H  H43  1  0.19397884  0.68685897  0.76180208  1
  H  H44  1  0.42718344  0.65640689  0.28374098  1
  H  H45  1  0.92718344  0.34359311  0.21625902  1
  H  H46  1  0.57281656  0.34359311  0.71625902  1
  H  H47  1  0.07281656  0.65640689  0.78374098  1
  H  H48  1  0.49031216  0.85241498  0.37796345  1
  H  H49  1  0.99031216  0.14758502  0.12203655  1
  H  H50  1  0.50968784  0.14758502  0.62203655  1
  H  H51  1  0.00968784  0.85241498  0.87796345  1
  H  H52  1  0.37355495  0.89046128  0.35497741  1
  H  H53  1  0.87355495  0.10953872  0.14502259  1
  H  H54  1  0.62644505  0.10953872  0.64502259  1
  H  H55  1  0.12644505  0.89046128  0.85497741  1
  H  H56  1  0.41887492  0.93696414  0.46520466  1
  H  H57  1  0.91887492  0.06303586  0.03479534  1
  H  H58  1  0.58112508  0.06303586  0.53479534  1
  H  H59  1  0.08112508  0.93696414  0.96520466  1
  H  H60  1  0.20095866  0.87424634  0.50558853  1
  H  H61  1  0.70095866  0.12575366  0.99441147  1
  H  H62  1  0.79904134  0.12575366  0.49441147  1
  H  H63  1  0.29904134  0.87424634  0.00558853  1
  H  H64  1  0.16861894  0.80908339  0.39221034  1
  H  H65  1  0.66861894  0.19091661  0.10778966  1
  H  H66  1  0.83138106  0.19091661  0.60778966  1
  H  H67  1  0.33138106  0.80908339  0.89221034  1
  H  H68  1  0.17559296  0.75392600  0.46256035  1
  H  H69  1  0.67559296  0.24607400  0.03743965  1
  H  H70  1  0.82440704  0.24607400  0.53743965  1
  H  H71  1  0.32440704  0.75392600  0.96256035  1
  C  C0  1  0.33941383  0.05441537  0.91200745  1
  C  C1  1  0.83941383  0.94558463  0.58799255  1
  C  C2  1  0.66058617  0.94558463  0.08799255  1
  C  C3  1  0.16058617  0.05441537  0.41200745  1
  C  C4  1  0.20980745  0.19393076  0.05643975  1
  C  C5  1  0.70980745  0.80606924  0.44356025  1
  C  C6  1  0.79019255  0.80606924  0.94356025  1
  C  C7  1  0.29019255  0.19393076  0.55643975  1
  C  C8  1  0.41559587  0.13012918  0.10040995  1
  C  C9  1  0.91559587  0.86987082  0.39959005  1
  C  C10  1  0.58440413  0.86987082  0.89959005  1
  C  C11  1  0.08440413  0.13012918  0.60040995  1
  C  C12  1  0.35067567  0.67362749  0.30994009  1
  C  C13  1  0.85067567  0.32637251  0.19005991  1
  C  C14  1  0.64932433  0.32637251  0.69005991  1
  C  C15  1  0.14932433  0.67362749  0.80994009  1
  C  C16  1  0.41398017  0.87404068  0.40320635  1
  C  C17  1  0.91398017  0.12595932  0.09679365  1
  C  C18  1  0.58601983  0.12595932  0.59679365  1
  C  C19  1  0.08601983  0.87404068  0.90320635  1
  C  C20  1  0.20983239  0.80759413  0.44807549  1
  C  C21  1  0.70983239  0.19240587  0.05192451  1
  C  C22  1  0.79016761  0.19240587  0.55192451  1
  C  C23  1  0.29016761  0.80759413  0.94807549  1
  N  N0  1  0.40769131  0.25538407  0.01222539  1
  N  N1  1  0.90769131  0.74461593  0.48777461  1
  N  N2  1  0.59230869  0.74461593  0.98777461  1
  N  N3  1  0.09230869  0.25538407  0.51222539  1
  N  N4  1  0.40770365  0.76292960  0.50591436  1
  N  N5  1  0.90770365  0.23707040  0.99408564  1
  N  N6  1  0.59229635  0.23707040  0.49408564  1
  N  N7  1  0.09229635  0.76292960  0.00591436  1
  Cl  Cl0  1  0.55903681  0.43155538  0.14724608  1
  Cl  Cl1  1  0.05903681  0.56844462  0.35275392  1
  Cl  Cl2  1  0.44096319  0.56844462  0.85275392  1
  Cl  Cl3  1  0.94096319  0.43155538  0.64724608  1
  Cl  Cl4  1  0.34982701  0.36739940  0.22821856  1
  Cl  Cl5  1  0.84982701  0.63260060  0.27178144  1
  Cl  Cl6  1  0.65017299  0.63260060  0.77178144  1
  Cl  Cl7  1  0.15017299  0.36739940  0.72821856  1
  Cl  Cl8  1  0.31481285  0.46359484  0.08082308  1
  Cl  Cl9  1  0.81481285  0.53640516  0.41917692  1
  Cl  Cl10  1  0.68518715  0.53640516  0.91917692  1
  Cl  Cl11  1  0.18518715  0.46359484  0.58082308  1
  Cl  Cl12  1  0.51489696  0.35825791  0.92620755  1
  Cl  Cl13  1  0.01489696  0.64174209  0.57379245  1
  Cl  Cl14  1  0.48510304  0.64174209  0.07379245  1
  Cl  Cl15  1  0.98510304  0.35825791  0.42620755  1
  Cl  Cl16  1  0.32146691  0.24104178  0.84077024  1
  Cl  Cl17  1  0.82146691  0.75895822  0.65922976  1
  Cl  Cl18  1  0.67853309  0.75895822  0.15922976  1
  Cl  Cl19  1  0.17853309  0.24104178  0.34077024  1
  Cl  Cl20  1  0.52553853  0.14439272  0.84563853  1
  Cl  Cl21  1  0.02553853  0.85560728  0.65436147  1
  Cl  Cl22  1  0.47446147  0.85560728  0.15436147  1
  Cl  Cl23  1  0.97446147  0.14439272  0.34563853  1
  Cl  Cl24  1  0.33759586  0.98361255  0.63064022  1
  Cl  Cl25  1  0.83759586  0.01638745  0.86935978  1
  Cl  Cl26  1  0.66240414  0.01638745  0.36935978  1
  Cl  Cl27  1  0.16240414  0.98361255  0.13064022  1
  Cl  Cl28  1  0.55727283  0.89653515  0.67506526  1
  Cl  Cl29  1  0.05727283  0.10346485  0.82493474  1
  Cl  Cl30  1  0.44272717  0.10346485  0.32493474  1
  Cl  Cl31  1  0.94272717  0.89653515  0.17506526  1
  Cl  Cl32  1  0.31702166  0.81533730  0.70474768  1
  Cl  Cl33  1  0.81702166  0.18466270  0.79525232  1
  Cl  Cl34  1  0.68297834  0.18466270  0.29525232  1
  Cl  Cl35  1  0.18297834  0.81533730  0.20474768  1
  Cl  Cl36  1  0.53102821  0.59469819  0.39258306  1
  Cl  Cl37  1  0.03102821  0.40530181  0.10741694  1
  Cl  Cl38  1  0.46897179  0.40530181  0.60741694  1
  Cl  Cl39  1  0.96897179  0.59469819  0.89258306  1
  Cl  Cl40  1  0.32173106  0.57796176  0.47194538  1
  Cl  Cl41  1  0.82173106  0.42203824  0.02805462  1
  Cl  Cl42  1  0.67826894  0.42203824  0.52805462  1
  Cl  Cl43  1  0.17826894  0.57796176  0.97194538  1
  Cl  Cl44  1  0.50983647  0.66094137  0.59510660  1
  Cl  Cl45  1  0.00983647  0.33905863  0.90489340  1
  Cl  Cl46  1  0.49016353  0.33905863  0.40489340  1
  Cl  Cl47  1  0.99016353  0.66094137  0.09510660  1
loop_
_geom_bond_atom_site_label_1
_geom_bond_atom_site_label_2
_geom_bond_distance
_geom_bond_site_symmetry_2
Al0 N0 1.967835 1_555
Al0 Cl0 2.145447 1_555
Al0 Cl4 2.148099 1_555
Al0 Cl8 2.150428 1_555
Al1 N1 1.967835 1_555
Al1 Cl1 2.145447 1_655
Al1 Cl5 2.148099 1_555
Al1 Cl9 2.150428 1_555
Al2 N2 1.967835 1_555
Al2 Cl2 2.145447 1_555
Al2 Cl6 2.148099 1_555
Al2 Cl10 2.150428 1_555
Al3 N3 1.967835 1_555
Al3 Cl3 2.145447 1_455
Al3 Cl7 2.148099 1_555
Al3 Cl11 2.150428 1_555
Al4 N4 1.966393 1_555
Al4 Cl28 2.146118 1_555
Al4 Cl24 2.148264 1_555
Al4 Cl32 2.150379 1_555
Al5 N5 1.966393 1_555
Al5 Cl29 2.146118 1_655
Al5 Cl25 2.148264 1_555
Al5 Cl33 2.150379 1_555
Al6 N6 1.966393 1_555
Al6 Cl30 2.146118 1_555
Al6 Cl26 2.148264 1_555
Al6 Cl34 2.150379 1_555
Al7 N7 1.966393 1_555
Al7 Cl31 2.146118 1_455
Al7 Cl27 2.148264 1_555
Al7 Cl35 2.150379 1_555
C0 H8 1.097489 1_555
C0 H4 1.098952 1_555
C0 H0 1.100785 1_555
C0 Si0 1.871724 1_556
C1 H9 1.097489 1_555
C1 H5 1.098952 1_555
C1 H1 1.100785 1_555
C1 Si1 1.871724 1_555
C2 H10 1.097489 1_555
C2 H6 1.098952 1_555
C2 H2 1.100785 1_555
C2 Si2 1.871724 1_554
C3 H11 1.097489 1_555
C3 H7 1.098952 1_555
C3 H3 1.100785 1_555
C3 Si3 1.871724 1_555
C4 H12 1.098444 1_555
C4 H16 1.099957 1_555
C4 H20 1.101938 1_555
C4 Si0 1.870053 1_555
C5 H13 1.098444 1_555
C5 H17 1.099957 1_555
C5 H21 1.101938 1_555
C5 Si1 1.870053 1_555
C6 H14 1.098444 1_555
C6 H18 1.099957 1_555
C6 H22 1.101938 1_555
C6 Si2 1.870053 1_555
C7 H15 1.098444 1_555
C7 H19 1.099957 1_555
C7 H23 1.101938 1_555
C7 Si3 1.870053 1_555
C8 H24 1.098371 1_555
C8 H32 1.099453 1_555
C8 H28 1.102135 1_555
C8 Si0 1.864165 1_555
C9 H25 1.098371 1_555
C9 H33 1.099453 1_555
C9 H29 1.102135 1_555
C9 Si1 1.864165 1_555
C10 H26 1.098371 1_555
C10 H34 1.099453 1_555
C10 H30 1.102135 1_555
C10 Si2 1.864165 1_555
C11 H27 1.098371 1_555
C11 H35 1.099453 1_555
C11 H31 1.102135 1_555
C11 Si3 1.864165 1_555
C12 H44 1.097615 1_555
C12 H36 1.098688 1_555
C12 H40 1.101221 1_555
C12 Si4 1.869160 1_555
C13 H45 1.097615 1_555
C13 H37 1.098688 1_555
C13 H41 1.101221 1_555
C13 Si5 1.869160 1_555
C14 H46 1.097615 1_555
C14 H38 1.098688 1_555
C14 H42 1.101221 1_555
C14 Si6 1.869160 1_555
C15 H47 1.097615 1_555
C15 H39 1.098688 1_555
C15 H43 1.101221 1_555
C15 Si7 1.869160 1_555
C16 H48 1.099209 1_555
C16 H56 1.099550 1_555
C16 H52 1.101412 1_555
C16 Si4 1.864702 1_555
C17 H49 1.099209 1_555
C17 H57 1.099550 1_555
C17 H53 1.101412 1_555
C17 Si5 1.864702 1_555
C18 H50 1.099209 1_555
C18 H58 1.099550 1_555
C18 H54 1.101412 1_555
C18 Si6 1.864702 1_555
C19 H51 1.099209 1_555
C19 H59 1.099550 1_555
C19 H55 1.101412 1_555
C19 Si7 1.864702 1_555
C20 H60 1.099430 1_555
C20 H68 1.099508 1_555
C20 H64 1.100945 1_555
C20 Si4 1.869367 1_555
C21 H61 1.099430 1_554
C21 H69 1.099508 1_555
C21 H65 1.100945 1_555
C21 Si5 1.869367 1_555
C22 H62 1.099430 1_555
C22 H70 1.099508 1_555
C22 H66 1.100945 1_555
C22 Si6 1.869367 1_555
C23 H63 1.099430 1_556
C23 H71 1.099508 1_555
C23 H67 1.100945 1_555
C23 Si7 1.869367 1_555
N0 P0 1.583126 1_554
N0 Si0 1.871657 1_555
N1 P1 1.583126 1_555
N1 Si1 1.871657 1_555
N2 P2 1.583126 1_556
N2 Si2 1.871657 1_555
N3 P3 1.583126 1_555
N3 Si3 1.871657 1_555
N4 P4 1.581077 1_555
N4 Si4 1.870537 1_555
N5 P5 1.581077 1_556
N5 Si5 1.870537 1_556
N6 P6 1.581077 1_555
N6 Si6 1.870537 1_555
N7 P7 1.581077 1_554
N7 Si7 1.870537 1_554
Cl12 P0 1.987965 1_555
Cl13 P1 1.987965 1_455
Cl14 P2 1.987965 1_555
Cl15 P3 1.987965 1_655
Cl16 P0 2.008568 1_555
Cl17 P1 2.008568 1_555
Cl18 P2 2.008568 1_555
Cl19 P3 2.008568 1_555
Cl20 P0 1.996556 1_555
Cl21 P1 1.996556 1_455
Cl22 P2 1.996556 1_555
Cl23 P3 1.996556 1_655
Cl36 P4 1.997462 1_555
Cl37 P5 1.997462 1_455
Cl38 P6 1.997462 1_555
Cl39 P7 1.997462 1_655
Cl40 P4 2.003695 1_555
Cl41 P5 2.003695 1_555
Cl42 P6 2.003695 1_555
Cl43 P7 2.003695 1_555
Cl44 P4 1.991976 1_555
Cl45 P5 1.991976 1_456
Cl46 P6 1.991976 1_555
Cl47 P7 1.991976 1_654
