# generated using pymatgen
data_Sr2Al3In
_symmetry_space_group_name_H-M   'P 1'
_cell_length_a   6.16694599
_cell_length_b   6.16694599
_cell_length_c   8.00468759
_cell_angle_alpha   49.95943656
_cell_angle_beta   49.95943656
_cell_angle_gamma   46.47670890
_symmetry_Int_Tables_number   1
_chemical_formula_structural   Sr2Al3In
_chemical_formula_sum   'Sr2 Al3 In1'
_cell_volume   157.61104240
_cell_formula_units_Z   1
loop_
 _symmetry_equiv_pos_site_id
 _symmetry_equiv_pos_as_xyz
  1  'x, y, z'
loop_
 _atom_site_type_symbol
 _atom_site_label
 _atom_site_symmetry_multiplicity
 _atom_site_fract_x
 _atom_site_fract_y
 _atom_site_fract_z
 _atom_site_occupancy
  Sr  Sr0  1  0.54836619  0.54836619  0.70056238  1
  Sr  Sr1  1  0.45249905  0.45249905  0.29683933  1
  Al  Al0  1  0.83135190  0.83135190  0.74214641  1
  Al  Al1  1  0.84667958  0.84667958  0.08356075  1
  Al  Al2  1  0.16102908  0.16102908  0.89963870  1
  In  In0  1  0.16007419  0.16007419  0.27725243  1
loop_
_geom_bond_atom_site_label_1
_geom_bond_atom_site_label_2
_geom_bond_distance
_geom_bond_site_symmetry_2
Al0 Al2 2.797928 1_655
Al0 Al2 2.797928 1_565
Al0 Al1 2.857230 1_556
Al0 In0 2.883519 1_665
Al0 Sr0 3.306660 1_565
Al0 Sr0 3.306660 1_655
Al0 Sr1 3.384541 1_556
Al0 Sr0 3.448402 1_555
Al0 Sr1 3.695754 1_655
Al0 Sr1 3.695754 1_565
Al1 Al2 2.741399 1_664
Al1 In0 2.864540 1_655
Al1 In0 2.864540 1_565
Al1 Sr0 3.275930 1_654
Al1 Sr0 3.275930 1_564
Al1 Sr1 3.491756 1_555
Al1 Sr0 3.527294 1_555
Al1 Sr1 3.624966 1_565
Al1 Sr1 3.624966 1_655
Al2 In0 3.015113 1_556
Al2 Sr1 3.330633 1_456
Al2 Sr1 3.330633 1_546
Al2 Sr1 3.446096 1_555
Al2 Sr0 3.466176 1_555
Al2 Sr0 3.597127 1_545
Al2 Sr0 3.597127 1_455
In0 Sr1 3.311027 1_545
In0 Sr1 3.311027 1_455
In0 Sr1 3.425728 1_555
In0 Sr0 3.497102 1_554
In0 Sr0 3.605288 1_545
In0 Sr0 3.605288 1_455
