# generated using pymatgen
data_NaSm(FeO3)4
_symmetry_space_group_name_H-M   'P 1'
_cell_length_a   5.38015243
_cell_length_b   5.38015243
_cell_length_c   7.63943593
_cell_angle_alpha   90.00000000
_cell_angle_beta   90.00000000
_cell_angle_gamma   90.00000000
_symmetry_Int_Tables_number   1
_chemical_formula_structural   NaSm(FeO3)4
_chemical_formula_sum   'Na1 Sm1 Fe4 O12'
_cell_volume   221.13141931
_cell_formula_units_Z   1
loop_
 _symmetry_equiv_pos_site_id
 _symmetry_equiv_pos_as_xyz
  1  'x, y, z'
loop_
 _atom_site_type_symbol
 _atom_site_label
 _atom_site_symmetry_multiplicity
 _atom_site_fract_x
 _atom_site_fract_y
 _atom_site_fract_z
 _atom_site_occupancy
  Na  Na0  1  0.50000000  0.50000000  0.00000000  1
  Sm  Sm0  1  0.00000000  0.00000000  0.50000000  1
  Fe  Fe0  1  0.00000000  0.50000000  0.75471351  1
  Fe  Fe1  1  0.00000000  0.50000000  0.24528649  1
  Fe  Fe2  1  0.50000000  -0.00000000  0.24528649  1
  Fe  Fe3  1  0.50000000  0.00000000  0.75471351  1
  O  O0  1  0.24034847  0.24034847  0.26372655  1
  O  O1  1  0.24034847  0.24034847  0.73627345  1
  O  O2  1  0.75965153  0.75965153  0.73627345  1
  O  O3  1  0.75965153  0.75965153  0.26372655  1
  O  O4  1  0.75965153  0.24034847  0.73627345  1
  O  O5  1  0.75965153  0.24034847  0.26372655  1
  O  O6  1  0.24034847  0.75965153  0.73627345  1
  O  O7  1  0.24034847  0.75965153  0.26372655  1
  O  O8  1  0.00000000  0.50000000  0.50000000  1
  O  O9  1  0.00000000  0.50000000  0.00000000  1
  O  O10  1  0.50000000  -0.00000000  0.50000000  1
  O  O11  1  0.50000000  -0.00000000  0.00000000  1
loop_
_geom_bond_atom_site_label_1
_geom_bond_atom_site_label_2
_geom_bond_distance
_geom_bond_site_symmetry_2
Na0 O11 2.690076 1_555
Na0 O11 2.690076 1_565
Na0 O9 2.690076 1_555
Na0 O9 2.690076 1_655
Na0 O5 2.821724 1_555
Na0 O2 2.821724 1_554
Na0 O6 2.821724 1_554
Na0 O3 2.821724 1_555
Na0 O4 2.821724 1_554
Na0 O1 2.821724 1_554
Na0 O7 2.821724 1_555
Na0 O0 2.821724 1_555
Fe0 O9 1.873850 1_556
Fe0 O6 1.908793 1_555
Fe0 O1 1.908793 1_555
Fe0 O4 1.908793 1_455
Fe0 O2 1.908793 1_455
Fe0 O8 1.945868 1_555
Fe1 O9 1.873850 1_555
Fe1 O7 1.908793 1_555
Fe1 O0 1.908793 1_555
Fe1 O5 1.908793 1_455
Fe1 O3 1.908793 1_455
Fe1 O8 1.945868 1_555
Fe2 O11 1.873850 1_555
Fe2 O0 1.908793 1_555
Fe2 O5 1.908793 1_555
Fe2 O3 1.908793 1_545
Fe2 O7 1.908793 1_545
Fe2 O10 1.945868 1_555
Fe3 O11 1.873850 1_556
Fe3 O1 1.908793 1_555
Fe3 O4 1.908793 1_555
Fe3 O2 1.908793 1_545
Fe3 O6 1.908793 1_545
Fe3 O10 1.945868 1_555
O0 Sm0 2.569491 1_555
O1 Sm0 2.569491 1_555
O2 Sm0 2.569491 1_665
O3 Sm0 2.569491 1_665
O4 Sm0 2.569491 1_655
O5 Sm0 2.569491 1_655
O6 Sm0 2.569491 1_565
O7 Sm0 2.569491 1_565
O8 Sm0 2.690076 1_555
O8 Sm0 2.690076 1_565
O10 Sm0 2.690076 1_555
O10 Sm0 2.690076 1_655
