# generated using pymatgen
data_MgFe2O3
_symmetry_space_group_name_H-M   'P 1'
_cell_length_a   4.21674900
_cell_length_b   6.97333829
_cell_length_c   4.42991200
_cell_angle_alpha   90.00106631
_cell_angle_beta   90.00189596
_cell_angle_gamma   72.40069334
_symmetry_Int_Tables_number   1
_chemical_formula_structural   MgFe2O3
_chemical_formula_sum   'Mg2 Fe4 O6'
_cell_volume   124.16381063
_cell_formula_units_Z   2
loop_
 _symmetry_equiv_pos_site_id
 _symmetry_equiv_pos_as_xyz
  1  'x, y, z'
loop_
 _atom_site_type_symbol
 _atom_site_label
 _atom_site_symmetry_multiplicity
 _atom_site_fract_x
 _atom_site_fract_y
 _atom_site_fract_z
 _atom_site_occupancy
  Mg  Mg0  1  0.99998700  0.00000200  0.00000000  1
  Mg  Mg1  1  0.50001200  0.99999800  0.50000000  1
  Fe  Fe0  1  0.83421600  0.33156300  0.50000300  1
  Fe  Fe1  1  0.66578300  0.66843700  0.99999800  1
  Fe  Fe2  1  0.33424000  0.33156100  0.00000500  1
  Fe  Fe3  1  0.16576100  0.66843900  0.49999600  1
  O  O0  1  0.49999200  0.99999300  0.00000000  1
  O  O1  1  0.00000800  0.00000700  0.50000000  1
  O  O2  1  0.83712100  0.32574900  0.00000000  1
  O  O3  1  0.33710400  0.32574200  0.50000000  1
  O  O4  1  0.16289700  0.67425800  0.99999900  1
  O  O5  1  0.66287800  0.67425100  0.50000000  1
loop_
_geom_bond_atom_site_label_1
_geom_bond_atom_site_label_2
_geom_bond_distance
_geom_bond_site_symmetry_2
Mg0 O0 2.108372 1_545
Mg0 O0 2.108377 1_645
Mg0 O4 2.165203 1_644
Mg0 O2 2.165223 1_555
Mg0 O1 2.214956 1_655
Mg0 O1 2.214956 1_654
Mg1 O1 2.108372 1_565
Mg1 O1 2.108377 1_665
Mg1 O3 2.165203 1_565
Mg1 O5 2.165223 1_555
Mg1 O0 2.214956 1_555
Mg1 O0 2.214956 1_556
Fe0 O3 2.108634 1_655
Fe0 O3 2.108825 1_555
Fe0 O1 2.203835 1_655
Fe0 O2 2.215280 1_556
Fe0 O2 2.215306 1_555
Fe0 O5 2.277829 1_555
Fe1 O4 2.108626 1_555
Fe1 O4 2.108833 1_655
Fe1 O0 2.203835 1_556
Fe1 O5 2.215285 1_555
Fe1 O5 2.215302 1_556
Fe1 O2 2.277829 1_556
Fe2 O2 2.108623 1_555
Fe2 O2 2.108834 1_455
Fe2 O0 2.203915 1_545
Fe2 O3 2.215272 1_555
Fe2 O3 2.215315 1_554
Fe2 O4 2.277889 1_554
Fe3 O5 2.108631 1_455
Fe3 O5 2.108826 1_555
Fe3 O1 2.203915 1_565
Fe3 O4 2.215281 1_554
Fe3 O4 2.215307 1_555
Fe3 O3 2.277889 1_555
