# generated using pymatgen
data_NbRe
_symmetry_space_group_name_H-M   'P 1'
_cell_length_a   5.53316678
_cell_length_b   5.53316678
_cell_length_c   9.06058600
_cell_angle_alpha   90.00000000
_cell_angle_beta   90.00000000
_cell_angle_gamma   109.67062580
_symmetry_Int_Tables_number   1
_chemical_formula_structural   NbRe
_chemical_formula_sum   'Nb8 Re8'
_cell_volume   261.21024251
_cell_formula_units_Z   8
loop_
 _symmetry_equiv_pos_site_id
 _symmetry_equiv_pos_as_xyz
  1  'x, y, z'
loop_
 _atom_site_type_symbol
 _atom_site_label
 _atom_site_symmetry_multiplicity
 _atom_site_fract_x
 _atom_site_fract_y
 _atom_site_fract_z
 _atom_site_occupancy
  Nb  Nb0_0  1  0.00000000  0.00000000  0.00000000  1
  Nb  Nb0_1  1  0.00000000  0.00000000  0.50000000  1
  Nb  Nb0_2  1  1.00000000  0.50000000  0.00000000  1
  Nb  Nb0_3  1  0.00000000  0.50000000  0.50000000  1
  Nb  Nb0_4  1  0.50000000  0.00000000  0.00000000  1
  Nb  Nb0_5  1  0.50000000  0.00000000  0.50000000  1
  Nb  Nb0_6  1  0.50000000  0.50000000  0.00000000  1
  Nb  Nb0_7  1  0.50000000  0.50000000  0.50000000  1
  Re  Re0_0  1  0.25000000  0.25000000  0.25000000  1
  Re  Re0_1  1  0.25000000  0.25000000  0.75000000  1
  Re  Re0_2  1  0.25000000  0.75000000  0.25000000  1
  Re  Re0_3  1  0.25000000  0.75000000  0.75000000  1
  Re  Re0_4  1  0.75000000  0.25000000  0.25000000  1
  Re  Re0_5  1  0.75000000  0.25000000  0.75000000  1
  Re  Re0_6  1  0.75000000  0.75000000  0.25000000  1
  Re  Re0_7  1  0.75000000  0.75000000  0.75000000  1
loop_
_geom_bond_atom_site_label_1
_geom_bond_atom_site_label_2
_geom_bond_distance
_geom_bond_site_symmetry_2
Nb0_0 Nb0_4 2.766583 1_555
Nb0_0 Nb0_2 2.766583 1_445
Nb0_0 Nb0_2 2.766583 1_455
Nb0_0 Nb0_4 2.766583 1_455
Nb0_0 Re0_0 2.769416 1_555
Nb0_0 Re0_1 2.769416 1_554
Nb0_0 Re0_7 2.769416 1_444
Nb0_0 Re0_6 2.769416 1_445
Nb0_1 Nb0_5 2.766583 1_555
Nb0_1 Nb0_3 2.766583 1_555
Nb0_1 Nb0_3 2.766583 1_545
Nb0_1 Nb0_5 2.766583 1_455
Nb0_1 Re0_0 2.769416 1_555
Nb0_1 Re0_1 2.769416 1_555
Nb0_1 Re0_6 2.769416 1_445
Nb0_1 Re0_7 2.769416 1_445
Nb0_2 Nb0_6 2.766583 1_555
Nb0_2 Nb0_6 2.766583 1_655
Nb0_2 Re0_2 2.769416 1_655
Nb0_2 Re0_4 2.769416 1_555
Nb0_2 Re0_5 2.769416 1_554
Nb0_2 Re0_3 2.769416 1_654
Nb0_3 Nb0_7 2.766583 1_555
Nb0_3 Nb0_7 2.766583 1_455
Nb0_3 Re0_3 2.769416 1_555
Nb0_3 Re0_2 2.769416 1_555
Nb0_3 Re0_5 2.769416 1_455
Nb0_3 Re0_4 2.769416 1_455
Nb0_4 Nb0_6 2.766583 1_545
Nb0_4 Nb0_6 2.766583 1_555
Nb0_4 Re0_5 2.769416 1_554
Nb0_4 Re0_3 2.769416 1_544
Nb0_4 Re0_4 2.769416 1_555
Nb0_4 Re0_2 2.769416 1_545
Nb0_5 Nb0_7 2.766583 1_555
Nb0_5 Nb0_7 2.766583 1_545
Nb0_5 Re0_5 2.769416 1_555
Nb0_5 Re0_4 2.769416 1_555
Nb0_5 Re0_2 2.769416 1_545
Nb0_5 Re0_3 2.769416 1_545
Nb0_6 Re0_6 2.769416 1_555
Nb0_6 Re0_0 2.769416 1_555
Nb0_6 Re0_7 2.769416 1_554
Nb0_6 Re0_1 2.769416 1_554
Nb0_7 Re0_6 2.769416 1_555
Nb0_7 Re0_0 2.769416 1_555
Nb0_7 Re0_7 2.769416 1_555
Nb0_7 Re0_1 2.769416 1_555
Re0_0 Re0_4 2.766583 1_455
Re0_0 Re0_2 2.766583 1_545
Re0_0 Re0_2 2.766583 1_555
Re0_0 Re0_4 2.766583 1_555
Re0_1 Re0_5 2.766583 1_555
Re0_1 Re0_3 2.766583 1_555
Re0_1 Re0_3 2.766583 1_545
Re0_1 Re0_5 2.766583 1_455
Re0_2 Re0_6 2.766583 1_455
Re0_2 Re0_6 2.766583 1_555
Re0_3 Re0_7 2.766583 1_555
Re0_3 Re0_7 2.766583 1_455
Re0_4 Re0_6 2.766583 1_555
Re0_4 Re0_6 2.766583 1_545
Re0_5 Re0_7 2.766583 1_555
Re0_5 Re0_7 2.766583 1_545
