# generated using pymatgen
data_Ti(BiO3)2
_symmetry_space_group_name_H-M   'P 1'
_cell_length_a   6.17290358
_cell_length_b   6.17290358
_cell_length_c   6.17290358
_cell_angle_alpha   128.44116451
_cell_angle_beta   128.44116451
_cell_angle_gamma   75.91144107
_symmetry_Int_Tables_number   1
_chemical_formula_structural   Ti(BiO3)2
_chemical_formula_sum   'Ti1 Bi2 O6'
_cell_volume   140.31908018
_cell_formula_units_Z   1
loop_
 _symmetry_equiv_pos_site_id
 _symmetry_equiv_pos_as_xyz
  1  'x, y, z'
loop_
 _atom_site_type_symbol
 _atom_site_label
 _atom_site_symmetry_multiplicity
 _atom_site_fract_x
 _atom_site_fract_y
 _atom_site_fract_z
 _atom_site_occupancy
  Ti  Ti0  1  0.79780200  0.79780200  0.00000000  1
  Bi  Bi0  1  0.49352500  0.99352500  0.50000000  1
  Bi  Bi1  1  0.99352500  0.49352500  0.50000000  1
  O  O0  1  0.07268400  0.07268400  0.00000000  1
  O  O1  1  0.61386600  0.61386600  0.00000000  1
  O  O2  1  0.10900000  0.62742100  0.00000000  1
  O  O3  1  0.62742100  0.62742100  0.51842100  1
  O  O4  1  0.62742100  0.10900000  0.00000000  1
  O  O5  1  0.10900000  0.10900000  0.48157900  1
loop_
_geom_bond_atom_site_label_1
_geom_bond_atom_site_label_2
_geom_bond_distance
_geom_bond_site_symmetry_2
Bi0 O5 2.257573 1_565
Bi0 O4 2.257573 1_566
Bi0 O3 2.257573 1_555
Bi0 O2 2.257573 1_555
Bi0 O0 2.793043 1_666
Bi0 O0 2.793043 1_565
Bi1 O5 2.257573 1_655
Bi1 O2 2.257573 1_656
Bi1 O4 2.257573 1_555
Bi1 O3 2.257573 1_555
Bi1 O0 2.793043 1_666
Bi1 O0 2.793043 1_655
O0 Ti0 2.675839 1_445
O1 Ti0 1.790525 1_555
O2 Ti0 1.952633 1_455
O3 Ti0 1.952633 1_556
O4 Ti0 1.952633 1_545
O5 Ti0 1.952633 1_445
