# generated using pymatgen
data_Mg5Cd
_symmetry_space_group_name_H-M   'P 1'
_cell_length_a   5.43909943
_cell_length_b   5.43909953
_cell_length_c   15.29167645
_cell_angle_alpha   90.00000000
_cell_angle_beta   90.00000000
_cell_angle_gamma   120.00001164
_symmetry_Int_Tables_number   1
_chemical_formula_structural   Mg5Cd
_chemical_formula_sum   'Mg15 Cd3'
_cell_volume   391.77767523
_cell_formula_units_Z   3
loop_
 _symmetry_equiv_pos_site_id
 _symmetry_equiv_pos_as_xyz
  1  'x, y, z'
loop_
 _atom_site_type_symbol
 _atom_site_label
 _atom_site_symmetry_multiplicity
 _atom_site_fract_x
 _atom_site_fract_y
 _atom_site_fract_z
 _atom_site_occupancy
  Mg  Mg0  1  0.66204241  0.66204241  0.00000000  1
  Mg  Mg1  1  0.00000000  0.00000000  0.16672678  1
  Mg  Mg2  1  0.00000000  0.33795759  0.00000000  1
  Mg  Mg3  1  0.33795759  0.00000000  0.00000000  1
  Mg  Mg4  1  0.66666700  0.33333300  0.16660722  1
  Mg  Mg5  1  0.32870841  0.99537541  0.33333300  1
  Mg  Mg6  1  0.66666700  0.33333300  0.50005978  1
  Mg  Mg7  1  0.66666700  0.67129159  0.33333300  1
  Mg  Mg8  1  0.00462459  0.33333300  0.33333300  1
  Mg  Mg9  1  0.33333300  0.66666700  0.49994022  1
  Mg  Mg10  1  0.99537541  0.32870841  0.66666700  1
  Mg  Mg11  1  0.33333300  0.66666700  0.83339278  1
  Mg  Mg12  1  0.33333300  0.00462459  0.66666700  1
  Mg  Mg13  1  0.67129159  0.66666700  0.66666700  1
  Mg  Mg14  1  0.00000000  0.00000000  0.83327322  1
  Cd  Cd0  1  0.33333300  0.66666700  0.16666700  1
  Cd  Cd1  1  0.00000000  0.00000000  0.50000000  1
  Cd  Cd2  1  0.66666700  0.33333300  0.83333300  1
loop_
_geom_bond_atom_site_label_1
_geom_bond_atom_site_label_2
_geom_bond_distance
_geom_bond_site_symmetry_2
Mg0 Mg2 3.118711 1_555
Mg0 Mg3 3.118711 1_555
Mg0 Mg2 3.118712 1_655
Mg0 Mg3 3.118712 1_565
Mg0 Mg11 3.119764 1_554
Mg0 Mg4 3.119764 1_555
Mg0 Mg14 3.143093 1_664
Mg0 Mg1 3.143093 1_665
Mg0 Mg3 3.183829 1_665
Mg0 Mg2 3.183829 1_665
Mg1 Mg7 3.119748 1_445
Mg1 Mg5 3.119748 1_545
Mg1 Mg8 3.119748 1_555
Mg1 Mg4 3.140263 1_455
Mg1 Mg4 3.140267 1_555
Mg1 Mg4 3.140267 1_445
Mg1 Mg3 3.143094 1_555
Mg1 Mg2 3.143094 1_555
Mg2 Mg3 3.118711 1_455
Mg2 Mg3 3.118711 1_565
Mg2 Mg4 3.119760 1_455
Mg2 Mg3 3.183830 1_555
Mg3 Mg4 3.119762 1_555
Mg4 Mg8 3.143081 1_655
Mg4 Mg5 3.143083 1_545
Mg4 Mg7 3.143084 1_555
Mg5 Mg7 3.118707 1_455
Mg5 Mg8 3.118707 1_565
Mg5 Mg8 3.118711 1_555
Mg5 Mg7 3.118712 1_555
Mg5 Mg9 3.119760 1_555
Mg5 Mg6 3.143095 1_565
Mg5 Mg8 3.183834 1_665
Mg5 Mg7 3.183834 1_565
Mg6 Mg9 3.140263 1_655
Mg6 Mg9 3.140263 1_545
Mg6 Mg9 3.140273 1_555
Mg6 Mg8 3.143094 1_655
Mg6 Mg7 3.143097 1_555
Mg7 Mg8 3.118707 1_665
Mg7 Mg8 3.118711 1_555
Mg7 Mg9 3.119764 1_555
Mg7 Mg8 3.183835 1_655
Mg8 Mg9 3.119762 1_555
Mg10 Mg13 3.118707 1_545
Mg10 Mg12 3.118707 1_655
Mg10 Mg12 3.118711 1_555
Mg10 Mg13 3.118712 1_555
Mg10 Mg14 3.119748 1_655
Mg10 Mg6 3.119760 1_555
Mg10 Mg11 3.143083 1_655
Mg10 Mg9 3.143095 1_655
Mg10 Mg13 3.183834 1_655
Mg10 Mg12 3.183834 1_665
Mg11 Mg3 3.119760 1_566
Mg11 Mg2 3.119762 1_556
Mg11 Mg14 3.140263 1_565
Mg11 Mg14 3.140267 1_665
Mg11 Mg14 3.140267 1_555
Mg11 Mg12 3.143081 1_565
Mg11 Mg13 3.143084 1_555
Mg12 Mg13 3.118707 1_445
Mg12 Mg13 3.118711 1_555
Mg12 Mg14 3.119748 1_555
Mg12 Mg6 3.119762 1_555
Mg12 Mg9 3.143094 1_545
Mg12 Mg13 3.183835 1_545
Mg13 Mg14 3.119748 1_665
Mg13 Mg6 3.119764 1_555
Mg13 Mg9 3.143097 1_555
Mg14 Mg3 3.143094 1_556
Mg14 Mg2 3.143094 1_556
Cd0 Mg5 3.120495 1_555
Cd0 Mg8 3.120496 1_555
Cd0 Mg7 3.120498 1_555
Cd0 Mg3 3.120507 1_565
Cd0 Mg2 3.120508 1_555
Cd0 Mg0 3.120510 1_555
Cd0 Mg4 3.140262 1_455
Cd0 Mg4 3.140262 1_565
Cd0 Mg1 3.140263 1_565
Cd0 Mg1 3.140267 1_665
Cd0 Mg1 3.140267 1_555
Cd0 Mg4 3.140272 1_555
Cd1 Mg7 3.120507 1_445
Cd1 Mg13 3.120507 1_445
Cd1 Mg12 3.120507 1_555
Cd1 Mg5 3.120507 1_545
Cd1 Mg8 3.120507 1_555
Cd1 Mg10 3.120507 1_455
Cd1 Mg9 3.140263 1_545
Cd1 Mg6 3.140263 1_455
Cd1 Mg9 3.140267 1_445
Cd1 Mg6 3.140267 1_555
Cd1 Mg6 3.140267 1_445
Cd1 Mg9 3.140267 1_555
Cd2 Mg10 3.120495 1_555
Cd2 Mg12 3.120496 1_555
Cd2 Mg13 3.120498 1_555
Cd2 Mg2 3.120507 1_656
Cd2 Mg3 3.120508 1_556
Cd2 Mg0 3.120510 1_556
Cd2 Mg11 3.140262 1_655
Cd2 Mg11 3.140262 1_545
Cd2 Mg14 3.140263 1_655
Cd2 Mg14 3.140267 1_555
Cd2 Mg14 3.140267 1_665
Cd2 Mg11 3.140272 1_555
