# generated using pymatgen
data_BaTbAgS3
_symmetry_space_group_name_H-M   'P 1'
_cell_length_a   9.08461414
_cell_length_b   9.08461414
_cell_length_c   8.63372620
_cell_angle_alpha   77.28902516
_cell_angle_beta   77.28902516
_cell_angle_gamma   26.04622405
_symmetry_Int_Tables_number   1
_chemical_formula_structural   BaTbAgS3
_chemical_formula_sum   'Ba2 Tb2 Ag2 S6'
_cell_volume   304.79153635
_cell_formula_units_Z   2
loop_
 _symmetry_equiv_pos_site_id
 _symmetry_equiv_pos_as_xyz
  1  'x, y, z'
loop_
 _atom_site_type_symbol
 _atom_site_label
 _atom_site_symmetry_multiplicity
 _atom_site_fract_x
 _atom_site_fract_y
 _atom_site_fract_z
 _atom_site_occupancy
  Ba  Ba0  1  0.13511700  0.13511700  0.43074300  1
  Ba  Ba1  1  0.86488300  0.86488300  0.56925700  1
  Tb  Tb0  1  0.16389100  0.16389100  0.91830700  1
  Tb  Tb1  1  0.83610900  0.83610900  0.08169300  1
  Ag  Ag0  1  0.51632400  0.51632400  0.79144800  1
  Ag  Ag1  1  0.48367600  0.48367600  0.20855200  1
  S  S0  1  0.32538100  0.32538100  0.86971100  1
  S  S1  1  0.67461900  0.67461900  0.13028900  1
  S  S2  1  0.67592100  0.67592100  0.69803000  1
  S  S3  1  0.32407900  0.32407900  0.30197000  1
  S  S4  1  0.50000000  0.50000000  0.50000000  1
  S  S5  1  0.00000000  0.00000000  0.00000000  1
loop_
_geom_bond_atom_site_label_1
_geom_bond_atom_site_label_2
_geom_bond_distance
_geom_bond_site_symmetry_2
Ba0 S4 3.102140 1_455
Ba0 S4 3.102140 1_545
Ba0 S1 3.254161 1_545
Ba0 S1 3.254161 1_455
Ba0 S3 3.277993 1_555
Ba0 S2 3.284951 1_545
Ba0 S2 3.284951 1_455
Ba1 S4 3.102140 1_565
Ba1 S4 3.102140 1_655
Ba1 S0 3.254161 1_565
Ba1 S0 3.254161 1_655
Ba1 S2 3.277993 1_555
Ba1 S3 3.284951 1_565
Ba1 S3 3.284951 1_655
Ag0 S4 2.596845 1_555
Ag0 S5 2.698418 1_566
Ag0 S5 2.698418 1_656
Ag0 S2 2.757333 1_555
Ag1 S4 2.596845 1_555
Ag1 S5 2.698418 1_655
Ag1 S5 2.698418 1_565
Ag1 S3 2.757333 1_555
S0 Tb1 2.780925 1_546
S0 Tb1 2.780925 1_456
S0 Tb0 2.793982 1_555
S1 Tb0 2.780925 1_564
S1 Tb0 2.780925 1_654
S1 Tb1 2.793982 1_555
S2 Tb0 2.769510 1_655
S2 Tb0 2.769510 1_565
S3 Tb1 2.769510 1_455
S3 Tb1 2.769510 1_545
S5 Tb0 2.826672 1_554
S5 Tb1 2.826672 1_445
