# generated using pymatgen
data_Pd(CN)2
_symmetry_space_group_name_H-M   'P 1'
_cell_length_a   5.13155631
_cell_length_b   5.13155631
_cell_length_c   16.14810200
_cell_angle_alpha   90.00000000
_cell_angle_beta   90.00000000
_cell_angle_gamma   90.83471066
_symmetry_Int_Tables_number   1
_chemical_formula_structural   Pd(CN)2
_chemical_formula_sum   'Pd4 C8 N8'
_cell_volume   425.18074929
_cell_formula_units_Z   4
loop_
 _symmetry_equiv_pos_site_id
 _symmetry_equiv_pos_as_xyz
  1  'x, y, z'
loop_
 _atom_site_type_symbol
 _atom_site_label
 _atom_site_symmetry_multiplicity
 _atom_site_fract_x
 _atom_site_fract_y
 _atom_site_fract_z
 _atom_site_occupancy
  Pd  Pd0  1  0.36850300  0.63149700  0.62354500  1
  Pd  Pd1  1  0.63149700  0.36850300  0.37645500  1
  Pd  Pd2  1  0.86850300  0.13149700  0.87645500  1
  Pd  Pd3  1  0.13149700  0.86850300  0.12354500  1
  C  C0  1  0.99094000  0.63668100  0.62357300  1
  C  C1  1  0.63668100  0.99094000  0.37642700  1
  C  C2  1  0.86331900  0.50906000  0.87642700  1
  C  C3  1  0.50906000  0.86331900  0.12357300  1
  C  C4  1  0.00906000  0.36331900  0.37642700  1
  C  C5  1  0.36331900  0.00906000  0.62357300  1
  C  C6  1  0.13668100  0.49094000  0.12357300  1
  C  C7  1  0.49094000  0.13668100  0.87642700  1
  N  N0  1  0.76365400  0.63662500  0.62356800  1
  N  N1  1  0.63662500  0.76365400  0.37643200  1
  N  N2  1  0.86337500  0.73634600  0.87643200  1
  N  N3  1  0.73634600  0.86337500  0.12356800  1
  N  N4  1  0.23634600  0.36337500  0.37643200  1
  N  N5  1  0.36337500  0.23634600  0.62356800  1
  N  N6  1  0.13662500  0.26365400  0.12356800  1
  N  N7  1  0.26365400  0.13662500  0.87643200  1
loop_
_geom_bond_atom_site_label_1
_geom_bond_atom_site_label_2
_geom_bond_distance
_geom_bond_site_symmetry_2
C0 N0 1.166327 1_555
C0 Pd0 1.938056 1_655
C1 N1 1.166327 1_555
C1 Pd1 1.938056 1_565
C2 N2 1.166327 1_555
C2 Pd2 1.938056 1_555
C3 N3 1.166327 1_555
C3 Pd3 1.938056 1_555
C4 N4 1.166327 1_555
C4 Pd1 1.938056 1_455
C5 N5 1.166327 1_555
C5 Pd0 1.938056 1_545
C6 N6 1.166327 1_555
C6 Pd3 1.938056 1_555
C7 N7 1.166327 1_555
C7 Pd2 1.938056 1_555
N0 Pd0 2.027527 1_555
N1 Pd1 2.027527 1_555
N2 Pd2 2.027527 1_565
N3 Pd3 2.027527 1_655
N4 Pd1 2.027527 1_555
N5 Pd0 2.027527 1_555
N6 Pd3 2.027527 1_545
N7 Pd2 2.027527 1_455
