# generated using pymatgen
data_Mg14MnC
_symmetry_space_group_name_H-M   'P 1'
_cell_length_a   6.27115739
_cell_length_b   6.27115739
_cell_length_c   8.87646500
_cell_angle_alpha   90.00000000
_cell_angle_beta   90.00000000
_cell_angle_gamma   102.59234589
_symmetry_Int_Tables_number   1
_chemical_formula_structural   Mg14MnC
_chemical_formula_sum   'Mg14 Mn1 C1'
_cell_volume   340.69141274
_cell_formula_units_Z   1
loop_
 _symmetry_equiv_pos_site_id
 _symmetry_equiv_pos_as_xyz
  1  'x, y, z'
loop_
 _atom_site_type_symbol
 _atom_site_label
 _atom_site_symmetry_multiplicity
 _atom_site_fract_x
 _atom_site_fract_y
 _atom_site_fract_z
 _atom_site_occupancy
  Mg  Mg0  1  0.62176000  0.37824000  0.50000000  1
  Mg  Mg1  1  0.16473300  0.83526700  0.50000000  1
  Mg  Mg2  1  0.58875500  0.87882400  0.00000000  1
  Mg  Mg3  1  0.67934200  0.88451500  0.50000000  1
  Mg  Mg4  1  0.12117600  0.41124500  0.00000000  1
  Mg  Mg5  1  0.11548500  0.32065800  0.50000000  1
  Mg  Mg6  1  0.92469100  0.70129100  0.18223400  1
  Mg  Mg7  1  0.92469100  0.70129100  0.81776600  1
  Mg  Mg8  1  0.29870900  0.07530900  0.18223400  1
  Mg  Mg9  1  0.29870900  0.07530900  0.81776600  1
  Mg  Mg10  1  0.81450200  0.18549800  0.23233900  1
  Mg  Mg11  1  0.81450200  0.18549800  0.76766100  1
  Mg  Mg12  1  0.40083200  0.59916800  0.24516300  1
  Mg  Mg13  1  0.40083200  0.59916800  0.75483700  1
  Mn  Mn0  1  0.60858600  0.39141400  0.00000000  1
  C  C0  1  0.22269800  0.77730200  0.00000000  1
loop_
_geom_bond_atom_site_label_1
_geom_bond_atom_site_label_2
_geom_bond_distance
_geom_bond_site_symmetry_2
Mg0 Mg10 3.033783 1_555
Mg0 Mg11 3.033783 1_555
Mg0 Mg5 3.116197 1_555
Mg0 Mg3 3.116197 1_555
Mg0 Mg13 3.129365 1_555
Mg0 Mg12 3.129365 1_555
Mg0 Mg3 3.194452 1_545
Mg0 Mg5 3.194452 1_655
Mg1 Mg5 3.125861 1_565
Mg1 Mg3 3.125861 1_455
Mg1 Mg3 3.174206 1_555
Mg1 Mg5 3.174206 1_555
Mg1 Mg8 3.221257 1_565
Mg1 Mg9 3.221257 1_565
Mg1 Mg6 3.221257 1_455
Mg1 Mg7 3.221257 1_455
Mg1 Mg13 3.233756 1_555
Mg1 Mg12 3.233756 1_555
Mg2 Mn0 3.086125 1_555
Mg2 Mn0 3.189730 1_565
Mg3 Mg5 3.420514 1_665
Mg3 Mg7 3.523419 1_555
Mg3 Mg6 3.523419 1_555
Mg4 Mn0 3.086125 1_555
Mg4 Mn0 3.189730 1_455
Mg5 Mg8 3.523419 1_555
Mg5 Mg9 3.523419 1_555
Mg6 Mn0 2.939894 1_555
Mg7 Mn0 2.939894 1_556
Mg8 Mn0 2.939894 1_555
Mg9 Mn0 2.939894 1_556
Mg10 Mn0 2.883652 1_555
Mg10 Mg2 2.961254 1_545
Mg10 Mg4 2.961254 1_655
Mg10 Mg3 3.037825 1_545
Mg10 Mg5 3.037825 1_655
Mg10 Mg8 3.188021 1_555
Mg10 Mg6 3.188021 1_555
Mg10 Mg6 3.287975 1_545
Mg10 Mg8 3.287975 1_655
Mg11 Mn0 2.883652 1_556
Mg11 Mg2 2.961254 1_546
Mg11 Mg4 2.961254 1_656
Mg11 Mg3 3.037825 1_545
Mg11 Mg5 3.037825 1_655
Mg11 Mg7 3.188021 1_555
Mg11 Mg9 3.188021 1_555
Mg11 Mg7 3.287975 1_545
Mg11 Mg9 3.287975 1_655
Mg12 Mn0 2.978383 1_555
Mg12 Mg5 3.163353 1_555
Mg12 Mg3 3.163353 1_555
Mg13 Mn0 2.978383 1_556
Mg13 Mg5 3.163353 1_555
Mg13 Mg3 3.163353 1_555
C0 Mg4 2.244518 1_555
C0 Mg2 2.244518 1_555
C0 Mg7 2.438852 1_454
C0 Mg6 2.438852 1_455
C0 Mg9 2.438852 1_564
C0 Mg8 2.438852 1_565
C0 Mg13 2.788502 1_554
C0 Mg12 2.788502 1_555
