# generated using pymatgen
data_Ce3(SiPd)4
_symmetry_space_group_name_H-M   'P 1'
_cell_length_a   12.69671955
_cell_length_b   12.69671955
_cell_length_c   12.69671955
_cell_angle_alpha   161.42310476
_cell_angle_beta   160.85384781
_cell_angle_gamma   26.80048730
_symmetry_Int_Tables_number   1
_chemical_formula_structural   Ce3(SiPd)4
_chemical_formula_sum   'Ce3 Si4 Pd4'
_cell_volume   213.78135601
_cell_formula_units_Z   1
loop_
 _symmetry_equiv_pos_site_id
 _symmetry_equiv_pos_as_xyz
  1  'x, y, z'
loop_
 _atom_site_type_symbol
 _atom_site_label
 _atom_site_symmetry_multiplicity
 _atom_site_fract_x
 _atom_site_fract_y
 _atom_site_fract_z
 _atom_site_occupancy
  Ce  Ce0  1  0.00000000  0.00000000  0.00000000  1
  Ce  Ce1  1  0.64620900  0.14620900  0.50000000  1
  Ce  Ce2  1  0.35379100  0.85379100  0.50000000  1
  Si  Si0  1  0.80376500  0.30376500  0.50000000  1
  Si  Si1  1  0.19623500  0.69623500  0.50000000  1
  Si  Si2  1  0.54843200  0.54843200  0.00000000  1
  Si  Si3  1  0.45156800  0.45156800  0.00000000  1
  Pd  Pd0  1  0.90264900  0.40264900  0.50000000  1
  Pd  Pd1  1  0.09735100  0.59735100  0.50000000  1
  Pd  Pd2  1  0.75052800  0.75052800  0.00000000  1
  Pd  Pd3  1  0.24947200  0.24947200  0.00000000  1
loop_
_geom_bond_atom_site_label_1
_geom_bond_atom_site_label_2
_geom_bond_distance
_geom_bond_site_symmetry_2
Ce0 Pd0 3.159528 1_444
Ce0 Pd1 3.159528 1_544
Ce0 Pd0 3.159528 1_455
Ce0 Pd1 3.159528 1_555
Ce0 Si3 3.176406 1_545
Ce0 Si3 3.176406 1_556
Ce0 Si3 3.176406 1_455
Ce0 Si2 3.176406 1_455
Ce0 Si2 3.176406 1_545
Ce0 Si2 3.176406 1_444
Ce0 Si2 3.176406 1_556
Ce0 Si3 3.176406 1_444
Ce1 Si2 3.167545 1_545
Ce1 Si2 3.167545 1_556
Ce1 Pd1 3.180385 1_555
Ce1 Pd1 3.180385 1_656
Ce1 Pd1 3.180385 1_544
Ce1 Pd1 3.180385 1_645
Ce1 Si1 3.191445 1_645
Ce1 Si1 3.191445 1_544
Ce1 Si1 3.191445 1_656
Ce1 Si1 3.191445 1_555
Ce1 Pd2 3.292428 1_545
Ce1 Pd2 3.292428 1_556
Ce1 Pd3 3.311377 1_656
Ce1 Pd3 3.311377 1_555
Ce2 Si3 3.167545 1_555
Ce2 Si3 3.167545 1_566
Ce2 Pd0 3.180385 1_454
Ce2 Pd0 3.180385 1_465
Ce2 Pd0 3.180385 1_566
Ce2 Pd0 3.180385 1_555
Ce2 Si0 3.191445 1_555
Ce2 Si0 3.191445 1_454
Ce2 Si0 3.191445 1_566
Ce2 Si0 3.191445 1_465
Ce2 Pd3 3.292428 1_555
Ce2 Pd3 3.292428 1_566
Ce2 Pd2 3.311377 1_556
Ce2 Pd2 3.311377 1_455
Si2 Si3 2.392744 1_555
Pd0 Si3 2.432860 1_656
Pd0 Si3 2.432860 1_555
Pd0 Si0 2.442642 1_555
Pd1 Si2 2.432860 1_455
Pd1 Si2 2.432860 1_556
Pd1 Si1 2.442642 1_555
Pd2 Si0 2.434970 1_554
Pd2 Si0 2.434970 1_565
Pd2 Si1 2.501451 1_655
Pd2 Si1 2.501451 1_554
Pd3 Si1 2.434970 1_555
Pd3 Si1 2.434970 1_544
Pd3 Si0 2.501451 1_555
Pd3 Si0 2.501451 1_454
