# generated using pymatgen
data_KSbO3
_symmetry_space_group_name_H-M   'P 1'
_cell_length_a   7.51563009
_cell_length_b   7.51563009
_cell_length_c   7.51563009
_cell_angle_alpha   60.00000000
_cell_angle_beta   60.00000000
_cell_angle_gamma   60.00000000
_symmetry_Int_Tables_number   1
_chemical_formula_structural   KSbO3
_chemical_formula_sum   'K4 Sb4 O12'
_cell_volume   300.17961161
_cell_formula_units_Z   4
loop_
 _symmetry_equiv_pos_site_id
 _symmetry_equiv_pos_as_xyz
  1  'x, y, z'
loop_
 _atom_site_type_symbol
 _atom_site_label
 _atom_site_symmetry_multiplicity
 _atom_site_fract_x
 _atom_site_fract_y
 _atom_site_fract_z
 _atom_site_occupancy
  K  K0  1  0.62500000  0.12500000  0.62500000  1
  K  K1  1  0.62500000  0.62500000  0.12500000  1
  K  K2  1  0.12500000  0.62500000  0.62500000  1
  K  K3  1  0.62500000  0.62500000  0.62500000  1
  Sb  Sb0  1  0.12500000  0.62500000  0.12500000  1
  Sb  Sb1  1  0.12500000  0.12500000  0.62500000  1
  Sb  Sb2  1  0.62500000  0.12500000  0.12500000  1
  Sb  Sb3  1  0.12500000  0.12500000  0.12500000  1
  O  O0  1  0.44577400  0.44577400  0.05422600  1
  O  O1  1  0.19577400  0.19577400  0.80422600  1
  O  O2  1  0.05422600  0.44577400  0.05422600  1
  O  O3  1  0.05422600  0.44577400  0.44577400  1
  O  O4  1  0.44577400  0.05422600  0.05422600  1
  O  O5  1  0.44577400  0.05422600  0.44577400  1
  O  O6  1  0.19577400  0.80422600  0.19577400  1
  O  O7  1  0.80422600  0.19577400  0.80422600  1
  O  O8  1  0.05422600  0.05422600  0.44577400  1
  O  O9  1  0.80422600  0.19577400  0.19577400  1
  O  O10  1  0.19577400  0.80422600  0.80422600  1
  O  O11  1  0.80422600  0.80422600  0.19577400  1
loop_
_geom_bond_atom_site_label_1
_geom_bond_atom_site_label_2
_geom_bond_distance
_geom_bond_site_symmetry_2
K0 O8 2.675648 1_655
K0 O4 2.675648 1_556
K0 O9 2.675648 1_555
K0 O7 2.675648 1_555
K0 O1 2.675648 1_555
K0 O5 2.675648 1_555
K1 O2 2.675648 1_655
K1 O4 2.675648 1_565
K1 O11 2.675648 1_555
K1 O9 2.675648 1_555
K1 O6 2.675648 1_555
K1 O0 2.675648 1_555
K2 O2 2.675648 1_556
K2 O8 2.675648 1_565
K2 O10 2.675648 1_555
K2 O6 2.675648 1_555
K2 O1 2.675648 1_555
K2 O3 2.675648 1_555
K3 O5 2.675648 1_565
K3 O0 2.675648 1_556
K3 O3 2.675648 1_655
K3 O10 2.675648 1_555
K3 O11 2.675648 1_555
K3 O7 2.675648 1_555
O0 Sb2 2.023895 1_555
O0 Sb0 2.023895 1_555
O1 Sb1 2.023895 1_555
O1 Sb3 2.023895 1_556
O2 Sb3 2.023895 1_555
O2 Sb0 2.023895 1_555
O3 Sb1 2.023895 1_555
O3 Sb0 2.023895 1_555
O4 Sb3 2.023895 1_555
O4 Sb2 2.023895 1_555
O5 Sb1 2.023895 1_555
O5 Sb2 2.023895 1_555
O6 Sb3 2.023895 1_565
O6 Sb0 2.023895 1_555
O7 Sb1 2.023895 1_655
O7 Sb2 2.023895 1_556
O8 Sb3 2.023895 1_555
O8 Sb1 2.023895 1_555
O9 Sb3 2.023895 1_655
O9 Sb2 2.023895 1_555
O10 Sb1 2.023895 1_565
O10 Sb0 2.023895 1_556
O11 Sb0 2.023895 1_655
O11 Sb2 2.023895 1_565
