# generated using pymatgen
data_Sm(Ni2B)6
_symmetry_space_group_name_H-M   'P 1'
_cell_length_a   6.03446578
_cell_length_b   6.03446578
_cell_length_c   11.02448900
_cell_angle_alpha   90.00000000
_cell_angle_beta   90.00000000
_cell_angle_gamma   104.76836171
_symmetry_Int_Tables_number   1
_chemical_formula_structural   Sm(Ni2B)6
_chemical_formula_sum   'Sm2 Ni24 B12'
_cell_volume   388.19198558
_cell_formula_units_Z   2
loop_
 _symmetry_equiv_pos_site_id
 _symmetry_equiv_pos_as_xyz
  1  'x, y, z'
loop_
 _atom_site_type_symbol
 _atom_site_label
 _atom_site_symmetry_multiplicity
 _atom_site_fract_x
 _atom_site_fract_y
 _atom_site_fract_z
 _atom_site_occupancy
  Sm  Sm0  1  0.83351500  0.83351500  0.49772300  1
  Sm  Sm1  1  0.16648500  0.16648500  0.99772300  1
  Ni  Ni0  1  0.56608200  0.56608200  0.91805700  1
  Ni  Ni1  1  0.43391800  0.43391800  0.41805700  1
  Ni  Ni2  1  0.78193800  0.78193800  0.09929200  1
  Ni  Ni3  1  0.21806200  0.21806200  0.59929200  1
  Ni  Ni4  1  0.54330600  0.80520500  0.73412100  1
  Ni  Ni5  1  0.80520500  0.54330600  0.73412100  1
  Ni  Ni6  1  0.45669400  0.19479500  0.23412100  1
  Ni  Ni7  1  0.19479500  0.45669400  0.23412100  1
  Ni  Ni8  1  0.14484200  0.88143100  0.75547600  1
  Ni  Ni9  1  0.88143100  0.14484200  0.75547600  1
  Ni  Ni10  1  0.85515800  0.11856900  0.25547600  1
  Ni  Ni11  1  0.11856900  0.85515800  0.25547600  1
  Ni  Ni12  1  0.65921400  0.27240800  0.56765300  1
  Ni  Ni13  1  0.27240800  0.65921400  0.56765300  1
  Ni  Ni14  1  0.34078600  0.72759200  0.06765300  1
  Ni  Ni15  1  0.72759200  0.34078600  0.06765300  1
  Ni  Ni16  1  0.63040600  0.99603600  0.93668000  1
  Ni  Ni17  1  0.99603600  0.63040600  0.93668000  1
  Ni  Ni18  1  0.36959400  0.00396400  0.43668000  1
  Ni  Ni19  1  0.00396400  0.36959400  0.43668000  1
  Ni  Ni20  1  0.47362100  0.21210900  0.77547400  1
  Ni  Ni21  1  0.21210900  0.47362100  0.77547400  1
  Ni  Ni22  1  0.52637900  0.78789100  0.27547400  1
  Ni  Ni23  1  0.78789100  0.52637900  0.27547400  1
  B  B0  1  0.83611100  0.83611100  0.83713400  1
  B  B1  1  0.16388900  0.16388900  0.33713400  1
  B  B2  1  0.48671100  0.48671100  0.65652100  1
  B  B3  1  0.51328900  0.51328900  0.15652100  1
  B  B4  1  0.32555800  0.75562500  0.88559500  1
  B  B5  1  0.75562500  0.32555800  0.88559500  1
  B  B6  1  0.67444200  0.24437500  0.38559500  1
  B  B7  1  0.24437500  0.67444200  0.38559500  1
  B  B8  1  0.40153100  0.98753700  0.62213800  1
  B  B9  1  0.98753700  0.40153100  0.62213800  1
  B  B10  1  0.59846900  0.01246300  0.12213800  1
  B  B11  1  0.01246300  0.59846900  0.12213800  1
loop_
_geom_bond_atom_site_label_1
_geom_bond_atom_site_label_2
_geom_bond_distance
_geom_bond_site_symmetry_2
Ni0 Sm1 3.071839 1_555
Ni1 Sm0 3.071839 1_555
Ni2 Sm1 3.046024 1_664
Ni3 Sm0 3.046024 1_445
Ni4 Sm0 3.120202 1_555
Ni5 Sm0 3.120202 1_555
Ni6 Sm1 3.120202 1_554
Ni7 Sm1 3.120202 1_554
Ni8 Sm1 3.161297 1_565
Ni8 Sm0 3.377989 1_455
Ni9 Sm1 3.161297 1_655
Ni9 Sm0 3.377989 1_545
Ni10 Sm0 3.161297 1_545
Ni10 Sm1 3.377989 1_654
Ni11 Sm0 3.161297 1_455
Ni11 Sm1 3.377989 1_564
Ni12 Sm0 3.183608 1_545
Ni12 Sm0 3.368952 1_555
Ni13 Sm0 3.183608 1_455
Ni13 Sm0 3.368952 1_555
Ni14 Sm1 3.183608 1_564
Ni14 Sm1 3.368952 1_554
Ni15 Sm1 3.183608 1_654
Ni15 Sm1 3.368952 1_554
Ni16 Sm1 3.206146 1_665
Ni16 Sm1 3.288793 1_565
Ni17 Sm1 3.206146 1_665
Ni17 Sm1 3.288793 1_655
Ni18 Sm0 3.206146 1_445
Ni18 Sm0 3.288793 1_545
Ni19 Sm0 3.206146 1_445
Ni19 Sm0 3.288793 1_455
Ni20 Sm1 3.042062 1_555
Ni21 Sm1 3.042062 1_555
Ni22 Sm0 3.042062 1_555
Ni23 Sm0 3.042062 1_555
B0 Ni9 2.023940 1_565
B0 Ni8 2.023940 1_655
B0 Ni4 2.068460 1_555
B0 Ni5 2.068460 1_555
B0 Ni17 2.070591 1_555
B0 Ni16 2.070591 1_555
B0 Ni0 2.180053 1_555
B0 Sm1 3.009511 1_665
B1 Ni11 2.023940 1_545
B1 Ni10 2.023940 1_455
B1 Ni6 2.068460 1_555
B1 Ni7 2.068460 1_555
B1 Ni18 2.070591 1_555
B1 Ni19 2.070591 1_555
B1 Ni1 2.180053 1_555
B1 Sm0 3.009511 1_445
B2 Ni4 2.051277 1_555
B2 Ni5 2.051277 1_555
B2 Ni3 2.077125 1_555
B2 Ni13 2.098131 1_555
B2 Ni12 2.098131 1_555
B2 Ni20 2.098849 1_555
B2 Ni21 2.098849 1_555
B2 Sm0 3.096996 1_555
B3 Ni6 2.051277 1_555
B3 Ni7 2.051277 1_555
B3 Ni2 2.077125 1_555
B3 Ni14 2.098131 1_555
B3 Ni15 2.098131 1_555
B3 Ni22 2.098849 1_555
B3 Ni23 2.098849 1_555
B3 Sm1 3.096996 1_554
B4 Ni14 2.018272 1_556
B4 Ni17 2.018961 1_455
B4 Ni21 2.060224 1_555
B4 Ni8 2.060448 1_555
B4 Ni0 2.095082 1_555
B4 Ni4 2.098644 1_555
B4 Ni16 2.108401 1_555
B4 Sm1 3.132078 1_565
B5 Ni15 2.018272 1_556
B5 Ni16 2.018961 1_545
B5 Ni20 2.060224 1_555
B5 Ni9 2.060448 1_555
B5 Ni0 2.095082 1_555
B5 Ni5 2.098644 1_555
B5 Ni17 2.108401 1_555
B5 Sm1 3.132078 1_655
B6 Ni12 2.018272 1_555
B6 Ni19 2.018961 1_655
B6 Ni23 2.060224 1_555
B6 Ni10 2.060448 1_555
B6 Ni1 2.095082 1_555
B6 Ni6 2.098644 1_555
B6 Ni18 2.108401 1_555
B6 Sm0 3.132078 1_545
B7 Ni13 2.018272 1_555
B7 Ni18 2.018961 1_565
B7 Ni22 2.060224 1_555
B7 Ni11 2.060448 1_555
B7 Ni1 2.095082 1_555
B7 Ni7 2.098644 1_555
B7 Ni19 2.108401 1_555
B7 Sm0 3.132078 1_455
B8 Ni4 1.986602 1_555
B8 Ni3 2.002382 1_565
B8 Ni13 2.026390 1_555
B8 Ni18 2.058401 1_565
B8 Ni12 2.090712 1_565
B8 Ni8 2.112942 1_555
B8 Ni20 2.140749 1_565
B8 Sm0 3.282648 1_555
B9 Ni5 1.986602 1_555
B9 Ni3 2.002382 1_655
B9 Ni12 2.026390 1_555
B9 Ni19 2.058401 1_655
B9 Ni13 2.090712 1_655
B9 Ni9 2.112942 1_555
B9 Ni21 2.140749 1_655
B9 Sm0 3.282648 1_555
B10 Ni6 1.986602 1_555
B10 Ni2 2.002382 1_545
B10 Ni15 2.026390 1_555
B10 Ni16 2.058401 1_544
B10 Ni14 2.090712 1_545
B10 Ni10 2.112942 1_555
B10 Ni22 2.140749 1_545
B10 Sm1 3.282648 1_554
B11 Ni7 1.986602 1_555
B11 Ni2 2.002382 1_455
B11 Ni14 2.026390 1_555
B11 Ni17 2.058401 1_454
B11 Ni15 2.090712 1_455
B11 Ni11 2.112942 1_555
B11 Ni23 2.140749 1_455
B11 Sm1 3.282648 1_554
