# generated using pymatgen
data_SrVPO6
_symmetry_space_group_name_H-M   'P 1'
_cell_length_a   9.88749900
_cell_length_b   5.61900000
_cell_length_c   8.58974085
_cell_angle_alpha   88.26855130
_cell_angle_beta   90.00000000
_cell_angle_gamma   90.00000000
_symmetry_Int_Tables_number   1
_chemical_formula_structural   SrVPO6
_chemical_formula_sum   'Sr4 V4 P4 O24'
_cell_volume   477.00970321
_cell_formula_units_Z   4
loop_
 _symmetry_equiv_pos_site_id
 _symmetry_equiv_pos_as_xyz
  1  'x, y, z'
loop_
 _atom_site_type_symbol
 _atom_site_label
 _atom_site_symmetry_multiplicity
 _atom_site_fract_x
 _atom_site_fract_y
 _atom_site_fract_z
 _atom_site_occupancy
  Sr  Sr0  1  0.18777100  0.86242900  0.42887600  1
  Sr  Sr1  1  0.68777100  0.13757100  0.07112400  1
  Sr  Sr2  1  0.81222900  0.13757100  0.57112400  1
  Sr  Sr3  1  0.31222900  0.86242900  0.92887600  1
  V  V0  1  0.09129000  0.34485800  0.08805300  1
  V  V1  1  0.59129000  0.65514200  0.41194700  1
  V  V2  1  0.90871000  0.65514200  0.91194700  1
  V  V3  1  0.40871000  0.34485800  0.58805300  1
  P  P0  1  0.89397600  0.66395100  0.28614600  1
  P  P1  1  0.39397600  0.33604900  0.21385400  1
  P  P2  1  0.10602400  0.33604900  0.71385400  1
  P  P3  1  0.60602400  0.66395100  0.78614600  1
  O  O0  1  0.92482800  0.87622000  0.38627800  1
  O  O1  1  0.42482800  0.12378000  0.11372200  1
  O  O2  1  0.07517200  0.12378000  0.61372200  1
  O  O3  1  0.57517200  0.87622000  0.88627800  1
  O  O4  1  0.07660500  0.68192300  0.96636600  1
  O  O5  1  0.57660500  0.31807700  0.53363400  1
  O  O6  1  0.92339500  0.31807700  0.03363400  1
  O  O7  1  0.42339500  0.68192300  0.46636600  1
  O  O8  1  0.13689500  0.08625400  0.17183300  1
  O  O9  1  0.63689500  0.91374600  0.32816700  1
  O  O10  1  0.86310500  0.91374600  0.82816700  1
  O  O11  1  0.36310500  0.08625400  0.67183300  1
  O  O12  1  0.34107000  0.25327700  0.38013300  1
  O  O13  1  0.84107000  0.74672300  0.11986700  1
  O  O14  1  0.65893000  0.74672300  0.61986700  1
  O  O15  1  0.15893000  0.25327700  0.88013300  1
  O  O16  1  0.46778800  0.52632500  0.77130100  1
  O  O17  1  0.96778800  0.47367500  0.72869900  1
  O  O18  1  0.53221200  0.47367500  0.22869900  1
  O  O19  1  0.03221200  0.52632500  0.27130100  1
  O  O20  1  0.21519300  0.50499500  0.63883000  1
  O  O21  1  0.71519300  0.49500500  0.86117000  1
  O  O22  1  0.78480700  0.49500500  0.36117000  1
  O  O23  1  0.28480700  0.50499500  0.13883000  1
loop_
_geom_bond_atom_site_label_1
_geom_bond_atom_site_label_2
_geom_bond_distance
_geom_bond_site_symmetry_2
O0 P0 1.522321 1_555
O0 Sr2 2.461304 1_565
O0 Sr0 2.626289 1_655
O1 P1 1.522321 1_555
O1 Sr3 2.461304 1_544
O1 Sr1 2.626289 1_555
O2 P2 1.522321 1_555
O2 Sr0 2.461304 1_545
O2 Sr2 2.626289 1_455
O3 P3 1.522321 1_555
O3 Sr1 2.461304 1_566
O3 Sr3 2.626289 1_555
O4 V2 1.732399 1_455
O4 V0 2.140358 1_556
O4 Sr3 2.557410 1_555
O5 V3 1.732399 1_555
O5 V1 2.140358 1_555
O5 Sr2 2.557410 1_555
O6 V0 1.732399 1_655
O6 V2 2.140358 1_554
O6 Sr1 2.557410 1_555
O7 V1 1.732399 1_555
O7 V3 2.140358 1_555
O7 Sr0 2.557410 1_555
O8 V0 1.664187 1_555
O8 Sr0 2.557723 1_545
O8 Sr3 3.016799 1_544
O9 V1 1.664187 1_555
O9 Sr1 2.557723 1_565
O9 Sr2 3.016799 1_565
O10 V2 1.664187 1_555
O10 Sr2 2.557723 1_565
O10 Sr1 3.016799 1_566
O11 V3 1.664187 1_555
O11 Sr3 2.557723 1_545
O11 Sr0 3.016799 1_545
O12 P1 1.577921 1_555
O12 V3 1.989308 1_555
O12 Sr0 2.690799 1_545
O13 P0 1.577921 1_555
O13 V2 1.989308 1_554
O13 Sr1 2.690799 1_565
O14 P3 1.577921 1_555
O14 V1 1.989308 1_555
O14 Sr2 2.690799 1_565
O15 P2 1.577921 1_555
O15 V0 1.989308 1_556
O15 Sr3 2.690799 1_545
O16 P3 1.577469 1_555
O16 V3 1.988858 1_555
O16 Sr3 2.814058 1_555
O17 P2 1.577469 1_655
O17 V2 1.988858 1_555
O17 Sr2 2.814058 1_555
O18 P1 1.577469 1_555
O18 V1 1.988858 1_555
O18 Sr1 2.814058 1_555
O19 P0 1.577469 1_455
O19 V0 1.988858 1_555
O19 Sr0 2.814058 1_555
O20 P2 1.563533 1_555
O20 V3 2.164418 1_555
O20 Sr0 2.672232 1_555
O21 P3 1.563533 1_555
O21 V2 2.164418 1_555
O21 Sr1 2.672232 1_556
O22 P0 1.563533 1_555
O22 V1 2.164418 1_555
O22 Sr2 2.672232 1_555
O23 P1 1.563533 1_555
O23 V0 2.164418 1_555
O23 Sr3 2.672232 1_554
