# generated using pymatgen
data_Fe10O11F9
_symmetry_space_group_name_H-M   'P 1'
_cell_length_a   4.73437300
_cell_length_b   4.73651576
_cell_length_c   15.34888034
_cell_angle_alpha   90.10523432
_cell_angle_beta   90.15838326
_cell_angle_gamma   91.29713342
_symmetry_Int_Tables_number   1
_chemical_formula_structural   Fe10O11F9
_chemical_formula_sum   'Fe10 O11 F9'
_cell_volume   344.09979218
_cell_formula_units_Z   1
loop_
 _symmetry_equiv_pos_site_id
 _symmetry_equiv_pos_as_xyz
  1  'x, y, z'
loop_
 _atom_site_type_symbol
 _atom_site_label
 _atom_site_symmetry_multiplicity
 _atom_site_fract_x
 _atom_site_fract_y
 _atom_site_fract_z
 _atom_site_occupancy
  Fe  Fe0  1  0.96578500  0.96779300  0.00090800  1
  Fe  Fe1  1  0.03028400  0.02989500  0.20038700  1
  Fe  Fe2  1  0.01045700  0.96850600  0.39871600  1
  Fe  Fe3  1  0.04012300  0.99788300  0.59871700  1
  Fe  Fe4  1  0.04753900  0.00266700  0.80076400  1
  Fe  Fe5  1  0.53871800  0.46524700  0.10197300  1
  Fe  Fe6  1  0.47201400  0.50056100  0.49370100  1
  Fe  Fe7  1  0.46495200  0.51467500  0.30477900  1
  Fe  Fe8  1  0.46142300  0.49810400  0.69845400  1
  Fe  Fe9  1  0.47068000  0.52773300  0.90103600  1
  O  O0  1  0.18897100  0.81250200  0.29665300  1
  O  O1  1  0.19006600  0.80163500  0.49872900  1
  O  O2  1  0.20045500  0.81401300  0.70004200  1
  O  O3  1  0.18395200  0.81374300  0.90360500  1
  O  O4  1  0.32232500  0.32038900  0.20075600  1
  O  O5  1  0.29014200  0.29387500  0.39819700  1
  O  O6  1  0.30900500  0.31238900  0.59699700  1
  O  O7  1  0.30991700  0.31978200  0.80224600  1
  O  O8  1  0.68060600  0.67407800  0.00094100  1
  O  O9  1  0.69047800  0.69062900  0.39832100  1
  O  O10  1  0.82006800  0.17823500  0.10086500  1
  F  F0  1  0.20398200  0.79635400  0.10054700  1
  F  F1  1  0.29531500  0.29054700  0.00193000  1
  F  F2  1  0.70922600  0.70253100  0.20003100  1
  F  F3  1  0.69915300  0.70306900  0.60063900  1
  F  F4  1  0.69867300  0.71096900  0.80021100  1
  F  F5  1  0.80094100  0.19228600  0.50028400  1
  F  F6  1  0.80183300  0.19920800  0.29876500  1
  F  F7  1  0.79428500  0.19533800  0.90045100  1
  F  F8  1  0.80863100  0.20536500  0.70035200  1
loop_
_geom_bond_atom_site_label_1
_geom_bond_atom_site_label_2
_geom_bond_distance
_geom_bond_site_symmetry_2
Fe0 O8 1.916573 1_555
Fe0 O10 1.963336 1_565
Fe0 O3 1.966830 1_654
Fe1 O4 1.928388 1_555
Fe1 O0 1.960200 1_545
Fe1 O10 1.960811 1_455
Fe2 O1 1.931825 1_555
Fe2 O0 1.935383 1_555
Fe2 O9 1.984164 1_455
Fe2 O5 2.009015 1_565
Fe3 O1 1.937509 1_555
Fe3 O6 1.937721 1_565
Fe3 O2 1.944676 1_555
Fe4 O7 1.927401 1_555
Fe4 O3 1.932666 1_545
Fe4 O2 1.934683 1_545
Fe5 O10 1.924746 1_555
Fe5 O4 1.949309 1_555
Fe5 O8 1.953381 1_555
Fe6 O5 1.948892 1_555
Fe6 O6 1.970920 1_555
Fe6 O1 1.976794 1_555
Fe6 O9 1.998626 1_555
Fe7 O0 1.948311 1_555
Fe7 O5 1.951290 1_555
Fe7 O4 1.952577 1_555
Fe7 O9 1.960323 1_555
Fe8 O6 1.918210 1_555
Fe8 O7 1.936404 1_555
Fe8 O2 1.962084 1_555
Fe9 O3 1.939805 1_555
Fe9 O8 1.943229 1_556
Fe9 O7 1.950090 1_555
F0 Fe1 2.071267 1_565
F0 Fe0 2.075213 1_455
F0 Fe5 2.254764 1_555
F1 Fe5 2.076759 1_555
F1 Fe9 2.078671 1_554
F1 Fe0 2.159404 1_445
F2 Fe5 2.031271 1_555
F2 Fe1 2.146607 1_665
F2 Fe7 2.164029 1_555
F3 Fe8 2.104407 1_555
F3 Fe3 2.110695 1_655
F3 Fe6 2.169865 1_555
F4 Fe9 2.070032 1_555
F4 Fe4 2.129209 1_665
F4 Fe8 2.156578 1_555
F5 Fe3 2.110834 1_645
F5 Fe2 2.141917 1_645
F5 Fe6 2.161003 1_555
F6 Fe1 2.033926 1_655
F6 Fe2 2.137714 1_645
F6 Fe7 2.212052 1_555
F7 Fe0 2.058424 1_546
F7 Fe4 2.160122 1_655
F7 Fe9 2.221544 1_555
F8 Fe4 2.149743 1_655
F8 Fe3 2.157096 1_645
F8 Fe8 2.174534 1_555
