# generated using pymatgen
data_Li3FePCO7
_symmetry_space_group_name_H-M   'P 1'
_cell_length_a   4.96986900
_cell_length_b   8.52061512
_cell_length_c   13.03201147
_cell_angle_alpha   90.68823040
_cell_angle_beta   90.38354396
_cell_angle_gamma   95.03748050
_symmetry_Int_Tables_number   1
_chemical_formula_structural   Li3FePCO7
_chemical_formula_sum   'Li12 Fe4 P4 C4 O28'
_cell_volume   549.67014193
_cell_formula_units_Z   4
loop_
 _symmetry_equiv_pos_site_id
 _symmetry_equiv_pos_as_xyz
  1  'x, y, z'
loop_
 _atom_site_type_symbol
 _atom_site_label
 _atom_site_symmetry_multiplicity
 _atom_site_fract_x
 _atom_site_fract_y
 _atom_site_fract_z
 _atom_site_occupancy
  Li  Li0  1  0.23546600  0.09489200  0.12782100  1
  Li  Li1  1  0.23378300  0.10147400  0.62903600  1
  Li  Li2  1  0.74636100  0.27454300  0.51317800  1
  Li  Li3  1  0.74919700  0.27275700  0.24566000  1
  Li  Li4  1  0.76475900  0.28057400  0.73854400  1
  Li  Li5  1  0.22082400  0.35133600  0.86780200  1
  Li  Li6  1  0.24919600  0.71990200  0.98261700  1
  Li  Li7  1  0.24852600  0.72222100  0.26394500  1
  Li  Li8  1  0.24799900  0.72539200  0.49030300  1
  Li  Li9  1  0.24513800  0.72003400  0.76440700  1
  Li  Li10  1  0.76649000  0.90307500  0.37822500  1
  Li  Li11  1  0.76737200  0.89877200  0.87056400  1
  Fe  Fe0  1  0.75325200  0.26050500  0.99398100  1
  Fe  Fe1  1  0.21237000  0.33413900  0.37633100  1
  Fe  Fe2  1  0.78798100  0.66480800  0.12424100  1
  Fe  Fe3  1  0.78219700  0.66242100  0.62504400  1
  P  P0  1  0.27640300  0.40973600  0.12412800  1
  P  P1  1  0.27724800  0.41035500  0.62638600  1
  P  P2  1  0.71922100  0.58913000  0.37367900  1
  P  P3  1  0.71646300  0.58837400  0.87525500  1
  C  C0  1  0.30220600  0.03483700  0.37425300  1
  C  C1  1  0.29375400  0.03976200  0.88151400  1
  C  C2  1  0.70337900  0.96442300  0.62499400  1
  C  C3  1  0.69972400  0.96452300  0.12478000  1
  O  O0  1  0.04595000  0.07035300  0.88061800  1
  O  O1  1  0.05505700  0.07080500  0.37290500  1
  O  O2  1  0.64105100  0.11243800  0.12244600  1
  O  O3  1  0.63901400  0.10897600  0.62584800  1
  O  O4  1  0.49655000  0.14854800  0.37458300  1
  O  O5  1  0.48665800  0.15549500  0.88636500  1
  O  O6  1  0.16840800  0.30912800  0.53126100  1
  O  O7  1  0.16095000  0.30911200  0.03088300  1
  O  O8  1  0.17941900  0.30905900  0.21824200  1
  O  O9  1  0.17726000  0.31002200  0.71837100  1
  O  O10  1  0.81843800  0.42258100  0.37305100  1
  O  O11  1  0.82200500  0.42252000  0.87186300  1
  O  O12  1  0.59402300  0.42901100  0.62363600  1
  O  O13  1  0.59353400  0.42323900  0.11925300  1
  O  O14  1  0.40381700  0.57159300  0.37310900  1
  O  O15  1  0.40456200  0.57345300  0.87608200  1
  O  O16  1  0.18429200  0.57768800  0.12707100  1
  O  O17  1  0.17857100  0.57807500  0.62533500  1
  O  O18  1  0.82986900  0.69284900  0.46594700  1
  O  O19  1  0.82399600  0.68922100  0.28005300  1
  O  O20  1  0.82796000  0.69126700  0.78444400  1
  O  O21  1  0.83077900  0.68892500  0.96997100  1
  O  O22  1  0.50387200  0.85395900  0.12645400  1
  O  O23  1  0.51355500  0.84807100  0.62385200  1
  O  O24  1  0.36111000  0.88919400  0.37510500  1
  O  O25  1  0.36238500  0.89554700  0.87540000  1
  O  O26  1  0.94582300  0.93022900  0.12566300  1
  O  O27  1  0.95178700  0.93065600  0.62550500  1
loop_
_geom_bond_atom_site_label_1
_geom_bond_atom_site_label_2
_geom_bond_distance
_geom_bond_site_symmetry_2
Li0 O26 1.919698 1_445
Li0 O2 2.009861 1_555
Li0 O8 2.199582 1_555
Li0 O7 2.287483 1_555
Li0 O22 2.544496 1_545
Li1 O27 1.929762 1_445
Li1 O3 2.010065 1_555
Li1 O9 2.152725 1_555
Li1 O6 2.238146 1_555
Li2 O3 2.087779 1_555
Li2 O6 2.103597 1_655
Li2 O12 2.126426 1_555
Li2 O10 2.244750 1_555
Li2 O4 2.376025 1_555
Li3 O10 2.090103 1_555
Li3 O2 2.130739 1_555
Li3 O8 2.166047 1_655
Li3 O13 2.272472 1_555
Li3 O4 2.314537 1_555
Li4 O9 2.062365 1_655
Li4 O11 2.108278 1_555
Li4 O3 2.112097 1_555
Li4 O12 2.186111 1_555
Li4 O5 2.565817 1_555
Li5 O9 1.981820 1_555
Li5 O15 2.029188 1_555
Li5 O11 2.123928 1_455
Li5 O7 2.177798 1_556
Li5 O5 2.231833 1_555
Li5 O0 2.482199 1_555
Li6 O15 2.054947 1_555
Li6 O21 2.078228 1_455
Li6 O25 2.102735 1_555
Li6 O16 2.260659 1_556
Li6 O22 2.466443 1_556
Li7 O24 2.058051 1_555
Li7 O14 2.114201 1_555
Li7 O19 2.116080 1_455
Li7 O16 2.161211 1_555
Li7 O22 2.430951 1_555
Li8 O18 2.093752 1_455
Li8 O24 2.107512 1_555
Li8 O17 2.185515 1_555
Li8 O14 2.189871 1_555
Li8 O23 2.355159 1_555
Li9 O20 2.084817 1_455
Li9 O25 2.109968 1_555
Li9 O15 2.123140 1_555
Li9 O17 2.174008 1_555
Li9 O23 2.479929 1_555
Li10 O1 1.935934 1_665
Li10 O24 2.007870 1_555
Li10 O18 2.181321 1_555
Li10 O19 2.253693 1_555
Li11 O0 1.925845 1_665
Li11 O25 2.011926 1_555
Li11 O20 2.127601 1_555
Li11 O21 2.263564 1_555
Fe0 O5 2.063904 1_555
Fe0 O7 2.084013 1_656
Fe0 O11 2.128933 1_555
Fe0 O2 2.155256 1_556
Fe0 O13 2.318230 1_556
Fe1 O6 2.043961 1_555
Fe1 O8 2.072617 1_555
Fe1 O10 2.159028 1_455
Fe1 O14 2.159888 1_555
Fe1 O4 2.210806 1_555
Fe1 O1 2.310150 1_555
Fe2 O21 2.034046 1_554
Fe2 O19 2.043738 1_555
Fe2 O16 2.165230 1_655
Fe2 O13 2.195769 1_555
Fe2 O22 2.234082 1_555
Fe2 O26 2.327566 1_555
Fe3 O20 2.097359 1_555
Fe3 O18 2.104959 1_555
Fe3 O12 2.121912 1_555
Fe3 O17 2.155393 1_655
Fe3 O23 2.157831 1_555
Fe3 O27 2.365451 1_555
C0 O1 1.291858 1_555
C0 O24 1.299966 1_545
C0 O4 1.306582 1_555
C1 O0 1.281037 1_555
C1 O25 1.305472 1_545
C1 O5 1.314233 1_555
C2 O27 1.292001 1_555
C2 O3 1.299384 1_565
C2 O23 1.307016 1_555
C3 O26 1.282223 1_555
C3 O22 1.294275 1_555
C3 O2 1.318984 1_565
O6 P1 1.567391 1_555
O7 P0 1.555702 1_555
O8 P0 1.559827 1_555
O9 P1 1.540383 1_555
O10 P2 1.542633 1_555
O11 P3 1.550207 1_555
O12 P1 1.569080 1_555
O13 P0 1.571952 1_555
O14 P2 1.561466 1_555
O15 P3 1.544267 1_555
O16 P0 1.540426 1_555
O17 P1 1.551261 1_555
O18 P2 1.552269 1_555
O19 P2 1.562921 1_555
O20 P3 1.557120 1_555
O21 P3 1.568480 1_555
