# generated using pymatgen
data_CeDy4S7
_symmetry_space_group_name_H-M   'P 1'
_cell_length_a   6.78346027
_cell_length_b   6.78346027
_cell_length_c   11.69990061
_cell_angle_alpha   75.90781212
_cell_angle_beta   75.90781212
_cell_angle_gamma   32.79552631
_symmetry_Int_Tables_number   1
_chemical_formula_structural   CeDy4S7
_chemical_formula_sum   'Ce1 Dy4 S7'
_cell_volume   282.05808118
_cell_formula_units_Z   1
loop_
 _symmetry_equiv_pos_site_id
 _symmetry_equiv_pos_as_xyz
  1  'x, y, z'
loop_
 _atom_site_type_symbol
 _atom_site_label
 _atom_site_symmetry_multiplicity
 _atom_site_fract_x
 _atom_site_fract_y
 _atom_site_fract_z
 _atom_site_occupancy
  Ce  Ce0  1  0.88735000  0.88735000  0.42060300  1
  Dy  Dy0  1  0.69974900  0.69974900  0.18546100  1
  Dy  Dy1  1  0.30088500  0.30088500  0.81313400  1
  Dy  Dy2  1  0.00024000  0.00024000  0.99798100  1
  Dy  Dy3  1  0.11351900  0.11352000  0.58157100  1
  S  S0  1  0.73756900  0.73756900  0.65436900  1
  S  S1  1  0.25313100  0.25313100  0.34891600  1
  S  S2  1  0.34220300  0.34220300  0.04984900  1
  S  S3  1  0.65928100  0.65928100  0.94926200  1
  S  S4  1  0.04470000  0.04470000  0.20963000  1
  S  S5  1  0.95725900  0.95725900  0.78525400  1
  S  S6  1  0.50411300  0.50411300  0.50396900  1
loop_
_geom_bond_atom_site_label_1
_geom_bond_atom_site_label_2
_geom_bond_distance
_geom_bond_site_symmetry_2
Ce0 S6 2.771356 1_655
Ce0 S6 2.771356 1_565
Ce0 S4 2.778636 1_665
Ce0 S1 2.857618 1_565
Ce0 S1 2.857618 1_655
Ce0 S0 2.928173 1_555
Dy0 S4 2.744038 1_565
Dy0 S4 2.744038 1_655
Dy0 S2 2.851125 1_655
Dy0 S2 2.851125 1_565
Dy0 S1 2.912333 1_655
Dy0 S1 2.912333 1_565
Dy0 S3 2.941634 1_554
Dy1 S5 2.752953 1_455
Dy1 S5 2.752953 1_545
Dy1 S3 2.847889 1_455
Dy1 S3 2.847889 1_545
Dy1 S0 2.928096 1_455
Dy1 S0 2.928096 1_545
Dy1 S2 2.952212 1_556
Dy2 S4 2.682185 1_556
Dy2 S5 2.685930 1_445
Dy2 S2 2.762711 1_456
Dy2 S2 2.762711 1_546
Dy2 S3 2.770889 1_545
Dy2 S3 2.770889 1_455
Dy3 S6 2.678696 1_455
Dy3 S6 2.678698 1_545
Dy3 S5 2.712004 1_445
Dy3 S0 2.774409 1_455
Dy3 S0 2.774412 1_545
Dy3 S1 2.863650 1_555
