# generated using pymatgen
data_LiVO2
_symmetry_space_group_name_H-M   'P 1'
_cell_length_a   2.95196843
_cell_length_b   10.09701915
_cell_length_c   5.16990411
_cell_angle_alpha   90.00069435
_cell_angle_beta   89.99919358
_cell_angle_gamma   89.93467259
_symmetry_Int_Tables_number   1
_chemical_formula_structural   LiVO2
_chemical_formula_sum   'Li4 V4 O8'
_cell_volume   154.09448445
_cell_formula_units_Z   4
loop_
 _symmetry_equiv_pos_site_id
 _symmetry_equiv_pos_as_xyz
  1  'x, y, z'
loop_
 _atom_site_type_symbol
 _atom_site_label
 _atom_site_symmetry_multiplicity
 _atom_site_fract_x
 _atom_site_fract_y
 _atom_site_fract_z
 _atom_site_occupancy
  Li  Li0  1  0.49891500  0.23973800  0.16415600  1
  Li  Li1  1  0.99899700  0.24046700  0.66496400  1
  Li  Li2  1  0.99901600  0.74046200  0.33504100  1
  Li  Li3  1  0.49897000  0.73974200  0.83586600  1
  V  V0  1  0.00036700  0.49965500  0.66540100  1
  V  V1  1  0.00034500  0.99962900  0.33460100  1
  V  V2  1  0.50036800  0.49978200  0.16591000  1
  V  V3  1  0.50034600  0.99975300  0.83408800  1
  O  O0  1  0.50072500  0.88572300  0.17755300  1
  O  O1  1  0.00070300  0.88836400  0.67705400  1
  O  O2  1  0.00075300  0.38838500  0.32294100  1
  O  O3  1  0.50073500  0.38575500  0.82243200  1
  O  O4  1  0.49986500  0.11541000  0.49127000  1
  O  O5  1  0.99991000  0.11295800  0.99301600  1
  O  O6  1  0.99988100  0.61297800  0.00698300  1
  O  O7  1  0.49990300  0.61544000  0.50872300  1
loop_
_geom_bond_atom_site_label_1
_geom_bond_atom_site_label_2
_geom_bond_distance
_geom_bond_site_symmetry_2
Li0 O4 2.106162 1_555
Li0 O5 2.143750 1_454
Li0 O5 2.145767 1_554
Li0 O2 2.254773 1_555
Li0 O2 2.264113 1_655
Li0 O3 2.301073 1_554
Li1 O5 2.129323 1_555
Li1 O4 2.139162 1_555
Li1 O4 2.140693 1_655
Li1 O3 2.230066 1_555
Li1 O3 2.239069 1_655
Li1 O2 2.314599 1_655
Li2 O6 2.129170 1_555
Li2 O7 2.138884 1_555
Li2 O7 2.140528 1_655
Li2 O0 2.230009 1_555
Li2 O0 2.238868 1_655
Li2 O1 2.314427 1_655
Li3 O7 2.106101 1_555
Li3 O6 2.143771 1_456
Li3 O6 2.145481 1_556
Li3 O1 2.254887 1_555
Li3 O1 2.263791 1_655
Li3 O0 2.300665 1_556
O0 V1 2.039580 1_555
O0 V1 2.039871 1_655
O0 V3 2.116301 1_554
O1 V3 2.025300 1_455
O1 V3 2.025650 1_555
O1 V1 2.096823 1_555
O2 V2 2.025427 1_455
O2 V2 2.025623 1_555
O2 V0 2.096857 1_555
O3 V0 2.039513 1_555
O3 V0 2.039822 1_655
O3 V2 2.116317 1_556
O4 V1 2.049632 1_545
O4 V1 2.049737 1_645
O4 V3 2.122489 1_545
O5 V3 2.039619 1_645
O5 V3 2.039659 1_545
O5 V1 2.104295 1_646
O6 V2 2.039491 1_555
O6 V2 2.039703 1_655
O6 V0 2.104225 1_654
O7 V0 2.049703 1_555
O7 V0 2.049772 1_655
O7 V2 2.122449 1_555
