# generated using pymatgen
data_Cs3FeF6
_symmetry_space_group_name_H-M   'P 1'
_cell_length_a   6.92799531
_cell_length_b   6.92799531
_cell_length_c   6.92799531
_cell_angle_alpha   121.95413026
_cell_angle_beta   121.95413026
_cell_angle_gamma   86.64741101
_symmetry_Int_Tables_number   1
_chemical_formula_structural   Cs3FeF6
_chemical_formula_sum   'Cs3 Fe1 F6'
_cell_volume   227.76057451
_cell_formula_units_Z   1
loop_
 _symmetry_equiv_pos_site_id
 _symmetry_equiv_pos_as_xyz
  1  'x, y, z'
loop_
 _atom_site_type_symbol
 _atom_site_label
 _atom_site_symmetry_multiplicity
 _atom_site_fract_x
 _atom_site_fract_y
 _atom_site_fract_z
 _atom_site_occupancy
  Cs  Cs0  1  0.75000000  0.25000000  0.50000000  1
  Cs  Cs1  1  0.25000000  0.75000000  0.50000000  1
  Cs  Cs2  1  0.50000000  0.50000000  0.00000000  1
  Fe  Fe0  1  0.00000000  0.00000000  0.00000000  1
  F  F0  1  0.00000000  0.28845400  0.28845400  1
  F  F1  1  0.00000000  0.71154600  0.71154600  1
  F  F2  1  0.28845400  0.00000000  0.28845400  1
  F  F3  1  0.71154600  0.00000000  0.71154600  1
  F  F4  1  0.20364800  0.20364800  0.00000000  1
  F  F5  1  0.79635200  0.79635200  0.00000000  1
loop_
_geom_bond_atom_site_label_1
_geom_bond_atom_site_label_2
_geom_bond_distance
_geom_bond_site_symmetry_2
Cs0 F0 2.893586 1_655
Cs0 F1 2.893586 1_655
Cs0 F2 2.893586 1_555
Cs0 F3 2.893586 1_555
Cs0 F4 3.393503 1_555
Cs0 F5 3.393503 1_545
Cs0 F5 3.393503 1_556
Cs0 F4 3.393503 1_656
Cs1 F3 2.893586 1_565
Cs1 F0 2.893586 1_555
Cs1 F2 2.893586 1_565
Cs1 F1 2.893586 1_555
Cs1 F4 3.393503 1_555
Cs1 F5 3.393503 1_455
Cs1 F5 3.393503 1_556
Cs1 F4 3.393503 1_566
Cs2 F5 2.987252 1_555
Cs2 F4 2.987252 1_555
F0 Fe0 1.939094 1_555
F1 Fe0 1.939094 1_566
F2 Fe0 1.939094 1_555
F3 Fe0 1.939094 1_656
F4 Fe0 2.052788 1_555
F5 Fe0 2.052788 1_665
