# generated using pymatgen
data_Pr3ErMn6(FeCo13)2
_symmetry_space_group_name_H-M   'P 1'
_cell_length_a   6.38651641
_cell_length_b   6.38651641
_cell_length_c   12.78167912
_cell_angle_alpha   82.81479354
_cell_angle_beta   82.81479354
_cell_angle_gamma   82.82765268
_symmetry_Int_Tables_number   1
_chemical_formula_structural   Pr3ErMn6(FeCo13)2
_chemical_formula_sum   'Pr3 Er1 Mn6 Fe2 Co26'
_cell_volume   510.00989574
_cell_formula_units_Z   1
loop_
 _symmetry_equiv_pos_site_id
 _symmetry_equiv_pos_as_xyz
  1  'x, y, z'
loop_
 _atom_site_type_symbol
 _atom_site_label
 _atom_site_symmetry_multiplicity
 _atom_site_fract_x
 _atom_site_fract_y
 _atom_site_fract_z
 _atom_site_occupancy
  Pr  Pr0  1  0.65757400  0.65757400  0.82859900  1
  Pr  Pr1  1  0.34318500  0.34318500  0.17164500  1
  Pr  Pr2  1  0.34190600  0.34190600  0.67074100  1
  Er  Er0  1  0.66001900  0.66001900  0.33023500  1
  Mn  Mn0  1  0.00153500  0.00153500  0.24809900  1
  Mn  Mn1  1  0.00276800  0.00276800  0.74717100  1
  Mn  Mn2  1  0.00188600  0.49577000  0.50020800  1
  Mn  Mn3  1  0.00234100  0.49489600  0.00199300  1
  Mn  Mn4  1  0.49489600  0.00234100  0.00199300  1
  Mn  Mn5  1  0.49577000  0.00188600  0.50020800  1
  Fe  Fe0  1  0.90579400  0.90579400  0.45252100  1
  Fe  Fe1  1  0.90704400  0.90704400  0.95398900  1
  Co  Co0  1  0.28807200  0.71383200  0.49812700  1
  Co  Co1  1  0.28287900  0.71621700  0.00120100  1
  Co  Co2  1  0.71340200  0.99767500  0.14463000  1
  Co  Co3  1  0.71643500  0.00077300  0.64079000  1
  Co  Co4  1  0.99901700  0.28685300  0.35691500  1
  Co  Co5  1  0.99973600  0.28422400  0.85820600  1
  Co  Co6  1  0.28685300  0.99901700  0.35691500  1
  Co  Co7  1  0.28422400  0.99973600  0.85820600  1
  Co  Co8  1  0.99767500  0.71340200  0.14463000  1
  Co  Co9  1  0.00077300  0.71643500  0.64079000  1
  Co  Co10  1  0.71621700  0.28287900  0.00120100  1
  Co  Co11  1  0.71383200  0.28807200  0.49812700  1
  Co  Co12  1  0.34711000  0.34711000  0.41961700  1
  Co  Co13  1  0.34421100  0.34421100  0.92047700  1
  Co  Co14  1  0.34660200  0.83954800  0.17415200  1
  Co  Co15  1  0.34459200  0.84046600  0.67134200  1
  Co  Co16  1  0.83954800  0.34660200  0.17415200  1
  Co  Co17  1  0.84046600  0.34459200  0.67134200  1
  Co  Co18  1  0.65617000  0.65617000  0.08029600  1
  Co  Co19  1  0.65569400  0.65569400  0.57491100  1
  Co  Co20  1  0.65588900  0.15523600  0.32793800  1
  Co  Co21  1  0.65631000  0.15539900  0.82815900  1
  Co  Co22  1  0.15523600  0.65588900  0.32793800  1
  Co  Co23  1  0.15539900  0.65631000  0.82815900  1
  Co  Co24  1  0.09418300  0.09418300  0.04843300  1
  Co  Co25  1  0.09475500  0.09475500  0.54594400  1
loop_
_geom_bond_atom_site_label_1
_geom_bond_atom_site_label_2
_geom_bond_distance
_geom_bond_site_symmetry_2
Er0 Fe0 3.035340 1_555
Er0 Mn2 3.260651 1_655
Er0 Mn5 3.260651 1_565
Er0 Mn0 3.264787 1_665
Mn0 Pr1 3.255588 1_555
Mn1 Pr2 3.232570 1_555
Mn1 Pr0 3.296865 1_445
Mn2 Pr2 3.247722 1_555
Mn3 Pr1 3.241594 1_555
Mn3 Pr0 3.303472 1_454
Mn4 Pr1 3.241594 1_555
Mn4 Pr0 3.303472 1_544
Mn5 Pr2 3.247722 1_555
Fe0 Mn0 2.620842 1_665
Fe0 Mn2 2.626469 1_655
Fe0 Mn5 2.626469 1_565
Fe1 Mn3 2.639069 1_656
Fe1 Mn4 2.639069 1_566
Fe1 Mn1 2.649578 1_665
Fe1 Pr0 3.091421 1_555
Co0 Co6 2.398482 1_555
Co0 Mn5 2.403122 1_565
Co0 Co9 2.419705 1_555
Co0 Mn2 2.427959 1_555
Co0 Co22 2.515948 1_555
Co0 Co15 2.531166 1_555
Co0 Co19 2.623149 1_555
Co0 Co12 2.628163 1_555
Co0 Fe0 2.689458 1_455
Co0 Co25 2.692467 1_565
Co0 Er0 3.011873 1_555
Co0 Pr2 3.050068 1_555
Co1 Co7 2.406519 1_554
Co1 Mn4 2.408033 1_565
Co1 Mn3 2.415017 1_555
Co1 Co8 2.417335 1_455
Co1 Co14 2.532480 1_555
Co1 Co23 2.537925 1_554
Co1 Fe1 2.656813 1_454
Co1 Co24 2.664534 1_565
Co1 Co18 2.670271 1_555
Co1 Co13 2.672505 1_554
Co1 Pr1 3.041810 1_555
Co1 Pr0 3.065293 1_554
Co2 Mn0 2.400857 1_665
Co2 Co8 2.401899 1_555
Co2 Mn4 2.425817 1_565
Co2 Co20 2.630449 1_565
Co2 Fe1 2.687425 1_554
Co2 Co24 2.691167 1_665
Co2 Er0 3.015961 1_555
Co2 Pr1 3.043399 1_565
Co3 Co9 2.402449 1_645
Co3 Mn1 2.413548 1_655
Co3 Mn5 2.417157 1_555
Co3 Fe0 2.659919 1_545
Co3 Pr2 3.048397 1_555
Co3 Pr0 3.061337 1_545
Co4 Mn2 2.400178 1_655
Co4 Mn0 2.424082 1_655
Co4 Co6 2.432004 1_645
Co4 Fe0 2.684443 1_545
Co4 Er0 3.029246 1_555
Co4 Pr1 3.041509 1_655
Co5 Co7 2.403716 1_645
Co5 Mn3 2.412467 1_656
Co5 Mn1 2.422442 1_655
Co5 Fe1 2.662511 1_545
Co5 Pr0 3.046940 1_555
Co5 Pr2 3.053338 1_655
Co6 Mn5 2.400178 1_565
Co6 Mn0 2.424082 1_565
Co6 Fe0 2.684443 1_455
Co6 Er0 3.029246 1_555
Co6 Pr1 3.041509 1_565
Co7 Mn4 2.412467 1_566
Co7 Mn1 2.422442 1_565
Co7 Fe1 2.662511 1_455
Co7 Pr0 3.046940 1_555
Co7 Pr2 3.053338 1_565
Co8 Mn0 2.400857 1_665
Co8 Mn3 2.425817 1_655
Co8 Fe1 2.687425 1_554
Co8 Er0 3.015961 1_555
Co8 Pr1 3.043399 1_655
Co9 Mn1 2.413548 1_565
Co9 Mn2 2.417157 1_555
Co9 Fe0 2.659919 1_455
Co9 Pr2 3.048397 1_555
Co9 Pr0 3.061337 1_455
Co10 Co5 2.406519 1_554
Co10 Mn3 2.408033 1_655
Co10 Mn4 2.415017 1_555
Co10 Co2 2.417335 1_545
Co10 Co16 2.532480 1_555
Co10 Co21 2.537925 1_554
Co10 Fe1 2.656813 1_544
Co10 Co24 2.664534 1_655
Co10 Co18 2.670271 1_555
Co10 Co13 2.672505 1_554
Co10 Pr1 3.041810 1_555
Co10 Pr0 3.065293 1_554
Co11 Co4 2.398482 1_555
Co11 Mn2 2.403122 1_655
Co11 Co3 2.419705 1_555
Co11 Mn5 2.427959 1_555
Co11 Co20 2.515948 1_555
Co11 Co17 2.531166 1_555
Co11 Co19 2.623149 1_555
Co11 Co12 2.628163 1_555
Co11 Fe0 2.689458 1_545
Co11 Co25 2.692467 1_655
Co11 Er0 3.011873 1_555
Co11 Pr2 3.050068 1_555
Co12 Co20 2.437488 1_555
Co12 Co22 2.437488 1_555
Co12 Mn5 2.444860 1_555
Co12 Mn2 2.444860 1_555
Co12 Co4 2.543434 1_455
Co12 Co6 2.543434 1_545
Co12 Co25 2.673719 1_555
Co12 Er0 3.024464 1_555
Co12 Pr1 3.175986 1_555
Co12 Pr2 3.201850 1_555
Co13 Mn3 2.436357 1_556
Co13 Mn4 2.436357 1_556
Co13 Co23 2.446789 1_555
Co13 Co21 2.446789 1_555
Co13 Co7 2.518933 1_545
Co13 Co5 2.518933 1_455
Co13 Co24 2.665435 1_556
Co13 Pr0 3.035422 1_555
Co13 Pr2 3.195802 1_555
Co13 Pr1 3.208724 1_556
Co14 Co18 2.428879 1_555
Co14 Co22 2.431765 1_555
Co14 Mn4 2.443821 1_565
Co14 Mn0 2.444273 1_565
Co14 Co8 2.547944 1_455
Co14 Co6 2.629629 1_555
Co14 Co2 2.631386 1_555
Co14 Co24 2.676793 1_565
Co14 Er0 3.025702 1_555
Co14 Pr1 3.177020 1_555
Co14 Pr1 3.210008 1_565
Co15 Mn5 2.436339 1_565
Co15 Mn1 2.436505 1_565
Co15 Co23 2.453581 1_555
Co15 Co19 2.454603 1_555
Co15 Co9 2.515499 1_555
Co15 Co25 2.663427 1_565
Co15 Co3 2.667467 1_565
Co15 Co7 2.677197 1_555
Co15 Pr0 3.038858 1_555
Co15 Pr2 3.187223 1_555
Co15 Pr2 3.199411 1_565
Co16 Co18 2.428879 1_555
Co16 Co20 2.431765 1_555
Co16 Mn3 2.443821 1_655
Co16 Mn0 2.444273 1_655
Co16 Co2 2.547944 1_545
Co16 Co4 2.629629 1_555
Co16 Co8 2.631386 1_555
Co16 Co24 2.676793 1_655
Co16 Er0 3.025702 1_555
Co16 Pr1 3.177020 1_555
Co16 Pr1 3.210008 1_655
Co17 Mn2 2.436339 1_655
Co17 Mn1 2.436505 1_655
Co17 Co21 2.453581 1_555
Co17 Co19 2.454603 1_555
Co17 Co3 2.515499 1_555
Co17 Co25 2.663427 1_655
Co17 Co9 2.667467 1_655
Co17 Co5 2.677197 1_555
Co17 Pr0 3.038858 1_555
Co17 Pr2 3.187223 1_555
Co17 Pr2 3.199411 1_655
Co18 Mn3 2.466991 1_655
Co18 Mn4 2.466991 1_565
Co18 Co2 2.507896 1_555
Co18 Co8 2.507896 1_555
Co18 Fe1 2.662218 1_554
Co18 Pr1 3.030579 1_555
Co18 Er0 3.200996 1_555
Co18 Pr0 3.214895 1_554
Co19 Mn2 2.448507 1_655
Co19 Mn5 2.448507 1_565
Co19 Co3 2.544780 1_565
Co19 Co9 2.544780 1_655
Co19 Fe0 2.633758 1_555
Co19 Pr2 3.050770 1_555
Co19 Er0 3.120728 1_555
Co19 Pr0 3.245611 1_555
Co20 Mn5 2.449616 1_555
Co20 Mn0 2.454354 1_655
Co20 Co4 2.527218 1_555
Co20 Co6 2.638883 1_545
Co20 Fe0 2.643311 1_545
Co20 Pr1 3.036362 1_555
Co20 Er0 3.156016 1_545
Co20 Er0 3.231034 1_555
Co21 Mn1 2.461399 1_655
Co21 Mn4 2.467865 1_556
Co21 Co5 2.524937 1_555
Co21 Fe1 2.653031 1_545
Co21 Co7 2.654974 1_545
Co21 Co3 2.669275 1_555
Co21 Pr2 3.051711 1_555
Co21 Pr0 3.177673 1_545
Co21 Pr0 3.208877 1_555
Co22 Mn2 2.449616 1_555
Co22 Mn0 2.454354 1_565
Co22 Co6 2.527218 1_555
Co22 Co8 2.630449 1_455
Co22 Co4 2.638883 1_455
Co22 Fe0 2.643311 1_455
Co22 Pr1 3.036362 1_555
Co22 Er0 3.156016 1_455
Co22 Er0 3.231034 1_555
Co23 Mn1 2.461399 1_565
Co23 Mn3 2.467865 1_556
Co23 Co7 2.524937 1_555
Co23 Fe1 2.653031 1_455
Co23 Co5 2.654974 1_455
Co23 Co9 2.669275 1_555
Co23 Pr2 3.051711 1_555
Co23 Pr0 3.177673 1_455
Co23 Pr0 3.208877 1_555
Co24 Fe1 2.322191 1_444
Co24 Mn0 2.558357 1_555
Co24 Mn3 2.564750 1_555
Co24 Mn4 2.564750 1_555
Co24 Co5 2.682269 1_454
Co24 Co7 2.682269 1_544
Co24 Co8 2.691167 1_445
Co24 Pr1 3.069605 1_555
Co25 Fe0 2.328790 1_445
Co25 Mn2 2.566241 1_555
Co25 Mn5 2.566241 1_555
Co25 Mn1 2.575996 1_555
Co25 Co3 2.667408 1_455
Co25 Co9 2.667408 1_545
Co25 Co4 2.675312 1_455
Co25 Co6 2.675312 1_545
Co25 Pr2 3.067427 1_555
