# generated using pymatgen
data_Na5Tm4Si4O16F
_symmetry_space_group_name_H-M   'P 1'
_cell_length_a   8.60234078
_cell_length_b   8.60234078
_cell_length_c   8.60234078
_cell_angle_alpha   95.65690701
_cell_angle_beta   95.65690701
_cell_angle_gamma   143.40383185
_symmetry_Int_Tables_number   1
_chemical_formula_structural   Na5Tm4Si4O16F
_chemical_formula_sum   'Na5 Tm4 Si4 O16 F1'
_cell_volume   360.31852671
_cell_formula_units_Z   1
loop_
 _symmetry_equiv_pos_site_id
 _symmetry_equiv_pos_as_xyz
  1  'x, y, z'
loop_
 _atom_site_type_symbol
 _atom_site_label
 _atom_site_symmetry_multiplicity
 _atom_site_fract_x
 _atom_site_fract_y
 _atom_site_fract_z
 _atom_site_occupancy
  Na  Na0  1  0.58353000  0.09917900  0.69424200  1
  Na  Na1  1  0.40493800  0.88928800  0.30575800  1
  Na  Na2  1  0.11071200  0.41647000  0.51565000  1
  Na  Na3  1  0.90082100  0.59506200  0.48435000  1
  Na  Na4  1  0.00000000  0.00000000  0.00000000  1
  Tm  Tm0  1  0.59186100  0.65856300  0.29697400  1
  Tm  Tm1  1  0.36158900  0.29488700  0.70302600  1
  Tm  Tm2  1  0.70511300  0.40813900  0.06670200  1
  Tm  Tm3  1  0.34143700  0.63841100  0.93329800  1
  Si  Si0  1  0.76459900  0.90697100  0.64968000  1
  Si  Si1  1  0.25729100  0.11491900  0.35032000  1
  Si  Si2  1  0.88508100  0.23540100  0.14237200  1
  Si  Si3  1  0.09302900  0.74270900  0.85762800  1
  O  O0  1  0.59953400  0.87729400  0.50130600  1
  O  O1  1  0.37598800  0.09822800  0.49869400  1
  O  O2  1  0.90177200  0.40046600  0.27776000  1
  O  O3  1  0.12270600  0.62401200  0.72224000  1
  O  O4  1  0.57628200  0.71388500  0.76479200  1
  O  O5  1  0.94909300  0.81149000  0.23520800  1
  O  O6  1  0.18851000  0.42371800  0.13760300  1
  O  O7  1  0.28611500  0.05090700  0.86239700  1
  O  O8  1  0.05555200  0.22609000  0.76311300  1
  O  O9  1  0.46297700  0.29243900  0.23688700  1
  O  O10  1  0.70756100  0.94444800  0.17053800  1
  O  O11  1  0.77391000  0.53702300  0.82946200  1
  O  O12  1  0.86491500  0.83078900  0.55861700  1
  O  O13  1  0.27217200  0.30629900  0.44138300  1
  O  O14  1  0.69370100  0.13508500  0.96587300  1
  O  O15  1  0.16921100  0.72782800  0.03412700  1
  F  F0  1  0.50000000  0.50000000  0.00000000  1
loop_
_geom_bond_atom_site_label_1
_geom_bond_atom_site_label_2
_geom_bond_distance
_geom_bond_site_symmetry_2
Na0 O1 2.323573 1_555
Na0 O14 2.324797 1_555
Na0 O0 2.501854 1_545
Na0 O3 2.616185 1_545
Na0 O11 2.660367 1_555
Na0 O3 2.809827 1_655
Na0 O7 2.820056 1_555
Na1 O0 2.323567 1_555
Na1 O15 2.324802 1_555
Na1 O1 2.501860 1_565
Na1 O2 2.616188 1_455
Na1 O10 2.660359 1_555
Na1 O2 2.809824 1_565
Na1 O6 2.820051 1_555
Na2 O3 2.323567 1_555
Na2 O13 2.324802 1_555
Na2 O2 2.501860 1_455
Na2 O0 2.616188 1_555
Na2 O8 2.660359 1_555
Na2 O0 2.809824 1_445
Na2 O4 2.820051 1_555
Na3 O2 2.323562 1_555
Na3 O12 2.324817 1_555
Na3 O3 2.501855 1_655
Na3 O1 2.616186 1_665
Na3 O9 2.660364 1_555
Na3 O1 2.809828 1_555
Na3 O5 2.820054 1_555
Na4 O5 2.568383 1_445
Na4 O6 2.568383 1_555
Na4 O7 2.568383 1_554
Na4 O4 2.568383 1_444
Na4 O9 2.764868 1_555
Na4 O10 2.764868 1_445
Na4 O11 2.764868 1_444
Na4 O8 2.764868 1_554
O0 Si0 1.645272 1_555
O0 Tm0 2.400017 1_555
O1 Si1 1.645272 1_555
O1 Tm1 2.400017 1_555
O2 Si2 1.645272 1_555
O2 Tm2 2.400017 1_555
O3 Si3 1.645272 1_555
O3 Tm3 2.400017 1_555
O4 Si0 1.638190 1_555
O4 Tm3 2.293628 1_555
O4 Tm1 2.329116 1_555
O5 Si1 1.638190 1_665
O5 Tm2 2.293628 1_555
O5 Tm0 2.329116 1_555
O6 Si2 1.638190 1_455
O6 Tm0 2.293628 1_555
O6 Tm3 2.329116 1_554
O7 Si3 1.638190 1_545
O7 Tm1 2.293628 1_555
O7 Tm2 2.329116 1_556
O8 Si0 1.646320 1_445
O8 Tm3 2.243226 1_555
O8 Tm1 2.318405 1_555
O9 Si1 1.646320 1_555
O9 Tm2 2.243226 1_555
O9 Tm0 2.318405 1_555
O10 Si2 1.646320 1_565
O10 Tm0 2.243226 1_555
O10 Tm3 2.318405 1_554
O11 Si3 1.646320 1_655
O11 Tm1 2.243226 1_555
O11 Tm2 2.318405 1_556
O12 Si0 1.651650 1_555
O12 Tm0 2.343209 1_555
O12 Tm1 2.514587 1_665
O13 Si1 1.651658 1_555
O13 Tm1 2.343212 1_555
O13 Tm0 2.514584 1_555
O14 Si2 1.651661 1_556
O14 Tm2 2.343204 1_556
O14 Tm3 2.514590 1_545
O15 Si3 1.651658 1_554
O15 Tm3 2.343212 1_554
O15 Tm2 2.514584 1_455
F0 Tm0 2.489102 1_555
F0 Tm3 2.489102 1_554
F0 Tm2 2.489102 1_555
F0 Tm1 2.489102 1_554
F0 Na4 2.700797 1_665
F0 Na4 2.700797 1_555
