# generated using pymatgen
data_TmCo3
_symmetry_space_group_name_H-M   'P 1'
_cell_length_a   4.91946554
_cell_length_b   4.91946500
_cell_length_c   8.55466986
_cell_angle_alpha   73.28980028
_cell_angle_beta   73.28980283
_cell_angle_gamma   59.99999692
_symmetry_Int_Tables_number   1
_chemical_formula_structural   TmCo3
_chemical_formula_sum   'Tm3 Co9'
_cell_volume   169.12508853
_cell_formula_units_Z   3
loop_
 _symmetry_equiv_pos_site_id
 _symmetry_equiv_pos_as_xyz
  1  'x, y, z'
loop_
 _atom_site_type_symbol
 _atom_site_label
 _atom_site_symmetry_multiplicity
 _atom_site_fract_x
 _atom_site_fract_y
 _atom_site_fract_z
 _atom_site_occupancy
  Tm  Tm0  1  0.86030000  0.86030000  0.41910000  1
  Tm  Tm1  1  0.13970000  0.13970000  0.58090000  1
  Tm  Tm2  1  0.00000000  0.00000000  0.00000000  1
  Co  Co0  1  0.41722100  0.41722100  0.24507800  1
  Co  Co1  1  0.92048000  0.41722100  0.24507800  1
  Co  Co2  1  0.41722100  0.92048000  0.24507800  1
  Co  Co3  1  0.58277900  0.58277900  0.75492200  1
  Co  Co4  1  0.07952000  0.58277900  0.75492200  1
  Co  Co5  1  0.58277900  0.07952000  0.75492200  1
  Co  Co6  1  0.66511300  0.66511300  0.00466200  1
  Co  Co7  1  0.33488700  0.33488700  0.99533800  1
  Co  Co8  1  0.50000000  0.50000000  0.50000000  1
loop_
_geom_bond_atom_site_label_1
_geom_bond_atom_site_label_2
_geom_bond_distance
_geom_bond_site_symmetry_2
Co0 Co6 2.409731 1_555
Co0 Co2 2.443700 1_545
Co0 Co1 2.443700 1_455
Co0 Co7 2.460043 1_554
Co0 Co2 2.475765 1_555
Co0 Co1 2.475765 1_555
Co0 Co8 2.504930 1_555
Co0 Tm0 2.832366 1_545
Co0 Tm0 2.832367 1_455
Co0 Tm1 3.055164 1_555
Co0 Tm2 3.156170 1_565
Co0 Tm2 3.156170 1_655
Co1 Co6 2.409728 1_555
Co1 Co2 2.443700 1_645
Co1 Co7 2.460041 1_654
Co1 Co2 2.475765 1_555
Co1 Co8 2.504930 1_555
Co1 Tm0 2.832366 1_545
Co1 Tm0 2.832367 1_555
Co1 Tm1 3.055164 1_655
Co1 Tm2 3.156170 1_665
Co1 Tm2 3.156170 1_655
Co2 Co6 2.409728 1_555
Co2 Co7 2.460041 1_564
Co2 Co8 2.504929 1_555
Co2 Tm0 2.832367 1_555
Co2 Tm0 2.832367 1_455
Co2 Tm1 3.055165 1_565
Co2 Tm2 3.156170 1_565
Co2 Tm2 3.156170 1_665
Co3 Co7 2.409731 1_555
Co3 Co5 2.443700 1_565
Co3 Co4 2.443700 1_655
Co3 Co6 2.460043 1_556
Co3 Co5 2.475765 1_555
Co3 Co4 2.475765 1_555
Co3 Co8 2.504930 1_555
Co3 Tm1 2.832366 1_565
Co3 Tm1 2.832367 1_655
Co3 Tm0 3.055164 1_555
Co3 Tm2 3.156170 1_656
Co3 Tm2 3.156170 1_566
Co4 Co7 2.409728 1_555
Co4 Co5 2.443700 1_465
Co4 Co6 2.460041 1_456
Co4 Co5 2.475765 1_555
Co4 Co8 2.504930 1_555
Co4 Tm1 2.832366 1_565
Co4 Tm1 2.832367 1_555
Co4 Tm0 3.055164 1_455
Co4 Tm2 3.156170 1_556
Co4 Tm2 3.156170 1_566
Co5 Co7 2.409728 1_555
Co5 Co6 2.460041 1_546
Co5 Co8 2.504929 1_555
Co5 Tm1 2.832367 1_555
Co5 Tm1 2.832367 1_655
Co5 Tm0 3.055165 1_545
Co5 Tm2 3.156170 1_656
Co5 Tm2 3.156170 1_556
Co6 Tm2 2.840501 1_665
Co6 Tm2 2.840505 1_655
Co6 Tm2 2.840505 1_565
Co7 Tm2 2.840501 1_556
Co7 Tm2 2.840505 1_566
Co7 Tm2 2.840505 1_656
Co8 Tm0 2.914312 1_545
Co8 Tm1 2.914312 1_565
Co8 Tm1 2.914312 1_555
Co8 Tm0 2.914312 1_555
Co8 Tm1 2.914312 1_655
Co8 Tm0 2.914312 1_455
