# generated using pymatgen
data_CrCu(PSe3)2
_symmetry_space_group_name_H-M   'P 1'
_cell_length_a   6.25319330
_cell_length_b   6.25319330
_cell_length_c   7.16310512
_cell_angle_alpha   81.91283950
_cell_angle_beta   81.91283950
_cell_angle_gamma   119.96477888
_symmetry_Int_Tables_number   1
_chemical_formula_structural   CrCu(PSe3)2
_chemical_formula_sum   'Cr1 Cu1 P2 Se6'
_cell_volume   232.86326899
_cell_formula_units_Z   1
loop_
 _symmetry_equiv_pos_site_id
 _symmetry_equiv_pos_as_xyz
  1  'x, y, z'
loop_
 _atom_site_type_symbol
 _atom_site_label
 _atom_site_symmetry_multiplicity
 _atom_site_fract_x
 _atom_site_fract_y
 _atom_site_fract_z
 _atom_site_occupancy
  Cr  Cr0  1  0.33289800  0.66710200  0.00000000  1
  Cu  Cu0  1  0.67036600  0.32963400  0.00000000  1
  P  P0  1  0.05157200  0.05256000  0.83861800  1
  P  P1  1  0.94744000  0.94842800  0.16138200  1
  Se  Se0  1  0.09224800  0.43088400  0.76169400  1
  Se  Se1  1  0.41382800  0.06112600  0.76143600  1
  Se  Se2  1  0.93887400  0.58617200  0.23856400  1
  Se  Se3  1  0.56911600  0.90775200  0.23830600  1
  Se  Se4  1  0.72218900  0.73853000  0.76193100  1
  Se  Se5  1  0.26147000  0.27781100  0.23806900  1
loop_
_geom_bond_atom_site_label_1
_geom_bond_atom_site_label_2
_geom_bond_distance
_geom_bond_site_symmetry_2
Cr0 Se4 2.562232 1_554
Cr0 Se5 2.562232 1_555
Cr0 Se3 2.563593 1_555
Cr0 Se0 2.563593 1_554
Cr0 Se1 2.563902 1_564
Cr0 Se2 2.563902 1_455
Cu0 Se3 2.652309 1_545
Cu0 Se0 2.652309 1_654
Cu0 Se2 2.683416 1_555
Cu0 Se1 2.683416 1_554
Cu0 Se4 2.709403 1_554
Cu0 Se5 2.709403 1_555
P0 P1 2.218696 1_446
P0 Se0 2.226592 1_555
P0 Se1 2.226658 1_555
P0 Se4 2.231975 1_445
P1 Se3 2.226592 1_555
P1 Se2 2.226658 1_555
P1 Se5 2.231975 1_665
