# generated using pymatgen
data_Mg6ZnSn
_symmetry_space_group_name_H-M   'P 1'
_cell_length_a   5.06699000
_cell_length_b   6.27645400
_cell_length_c   11.13010300
_cell_angle_alpha   90.00000000
_cell_angle_beta   90.00000000
_cell_angle_gamma   90.00000000
_symmetry_Int_Tables_number   1
_chemical_formula_structural   Mg6ZnSn
_chemical_formula_sum   'Mg12 Zn2 Sn2'
_cell_volume   353.96765672
_cell_formula_units_Z   2
loop_
 _symmetry_equiv_pos_site_id
 _symmetry_equiv_pos_as_xyz
  1  'x, y, z'
loop_
 _atom_site_type_symbol
 _atom_site_label
 _atom_site_symmetry_multiplicity
 _atom_site_fract_x
 _atom_site_fract_y
 _atom_site_fract_z
 _atom_site_occupancy
  Mg  Mg0  1  0.00000000  0.24732700  0.08196000  1
  Mg  Mg1  1  0.00000000  0.75267300  0.08196000  1
  Mg  Mg2  1  0.00000000  0.00000000  0.33116700  1
  Mg  Mg3  1  0.50000000  0.74340100  0.41074300  1
  Mg  Mg4  1  0.50000000  0.25659900  0.41074300  1
  Mg  Mg5  1  0.50000000  0.00000000  0.16602100  1
  Mg  Mg6  1  0.00000000  0.74732700  0.58196000  1
  Mg  Mg7  1  0.00000000  0.25267300  0.58196000  1
  Mg  Mg8  1  0.00000000  0.50000000  0.83116700  1
  Mg  Mg9  1  0.50000000  0.24340100  0.91074300  1
  Mg  Mg10  1  0.50000000  0.75659900  0.91074300  1
  Mg  Mg11  1  0.50000000  0.50000000  0.66602100  1
  Zn  Zn0  1  0.00000000  0.50000000  0.35408200  1
  Zn  Zn1  1  0.00000000  0.00000000  0.85408200  1
  Sn  Sn0  1  0.50000000  0.50000000  0.16332300  1
  Sn  Sn1  1  0.50000000  0.00000000  0.66332300  1
loop_
_geom_bond_atom_site_label_1
_geom_bond_atom_site_label_2
_geom_bond_distance
_geom_bond_site_symmetry_2
Mg0 Zn1 2.973650 1_554
Mg0 Mg5 3.115077 1_555
Mg0 Mg5 3.115077 1_455
Mg0 Sn0 3.123094 1_555
Mg0 Sn0 3.123094 1_455
Mg0 Mg9 3.170293 1_554
Mg0 Mg9 3.170293 1_454
Mg0 Mg2 3.178547 1_555
Mg0 Mg8 3.210404 1_554
Mg1 Zn1 2.973650 1_564
Mg1 Mg5 3.115077 1_465
Mg1 Mg5 3.115077 1_565
Mg1 Sn0 3.123094 1_555
Mg1 Sn0 3.123094 1_455
Mg1 Mg10 3.170293 1_454
Mg1 Mg10 3.170293 1_554
Mg1 Mg2 3.178547 1_565
Mg1 Mg8 3.210404 1_554
Mg2 Mg4 3.129993 1_455
Mg2 Mg4 3.129993 1_555
Mg2 Mg3 3.129993 1_445
Mg2 Mg3 3.129993 1_545
Mg2 Mg5 3.130045 1_455
Mg2 Mg5 3.130045 1_555
Mg2 Zn0 3.148574 1_555
Mg2 Zn0 3.148574 1_545
Mg2 Mg7 3.210404 1_555
Mg2 Mg6 3.210404 1_545
Mg3 Zn0 3.024923 1_555
Mg3 Zn0 3.024923 1_655
Mg3 Mg4 3.055390 1_555
Mg3 Sn0 3.149178 1_555
Mg3 Mg5 3.164300 1_565
Mg3 Mg6 3.170293 1_555
Mg3 Mg6 3.170293 1_655
Mg3 Mg4 3.221064 1_565
Mg3 Sn1 3.239891 1_565
Mg4 Zn0 3.024923 1_555
Mg4 Zn0 3.024923 1_655
Mg4 Sn0 3.149178 1_555
Mg4 Mg5 3.164300 1_555
Mg4 Mg7 3.170293 1_555
Mg4 Mg7 3.170293 1_655
Mg4 Sn1 3.239891 1_555
Mg5 Sn0 3.138371 1_555
Mg5 Sn0 3.138371 1_545
Mg5 Mg9 3.225937 1_554
Mg6 Zn0 2.973650 1_555
Mg6 Sn1 3.123094 1_565
Mg6 Sn1 3.123094 1_465
Mg6 Mg8 3.178547 1_555
Mg7 Zn0 2.973650 1_555
Mg7 Sn1 3.123094 1_555
Mg7 Sn1 3.123094 1_455
Mg7 Mg8 3.178547 1_555
Mg8 Mg9 3.129993 1_455
Mg8 Mg9 3.129993 1_555
Mg8 Zn1 3.148574 1_555
Mg8 Zn1 3.148574 1_565
Mg9 Zn1 3.024923 1_655
Mg9 Zn1 3.024923 1_555
Mg9 Sn1 3.149178 1_555
Mg9 Sn0 3.239891 1_556
Mg10 Zn1 3.024923 1_565
Mg10 Zn1 3.024923 1_665
Mg10 Mg9 3.055390 1_565
Mg10 Mg8 3.129993 1_655
Mg10 Mg8 3.129993 1_555
Mg10 Sn1 3.149178 1_565
Mg10 Mg11 3.164300 1_555
Mg10 Mg9 3.221064 1_555
Mg10 Mg5 3.225937 1_566
Mg10 Sn0 3.239891 1_556
Mg11 Mg7 3.115077 1_655
Mg11 Mg6 3.115077 1_555
Mg11 Mg6 3.115077 1_655
Mg11 Mg7 3.115077 1_555
Mg11 Mg8 3.130045 1_555
Mg11 Mg8 3.130045 1_655
Mg11 Sn1 3.138371 1_555
Mg11 Sn1 3.138371 1_565
Mg11 Mg9 3.164300 1_555
Mg11 Mg3 3.225937 1_555
Mg11 Mg4 3.225937 1_555
Sn0 Zn0 3.305516 1_655
Sn0 Zn0 3.305516 1_555
Sn1 Zn1 3.305516 1_655
Sn1 Zn1 3.305516 1_555
