# generated using pymatgen
data_PrTi6Bi7O24
_symmetry_space_group_name_H-M   'P 1'
_cell_length_a   5.43663000
_cell_length_b   5.47671811
_cell_length_c   16.97783053
_cell_angle_alpha   89.99735104
_cell_angle_beta   98.84899534
_cell_angle_gamma   90.41420322
_symmetry_Int_Tables_number   1
_chemical_formula_structural   PrTi6Bi7O24
_chemical_formula_sum   'Pr1 Ti6 Bi7 O24'
_cell_volume   499.48267135
_cell_formula_units_Z   1
loop_
 _symmetry_equiv_pos_site_id
 _symmetry_equiv_pos_as_xyz
  1  'x, y, z'
loop_
 _atom_site_type_symbol
 _atom_site_label
 _atom_site_symmetry_multiplicity
 _atom_site_fract_x
 _atom_site_fract_y
 _atom_site_fract_z
 _atom_site_occupancy
  Pr  Pr0  1  0.10599100  0.00681400  0.12778400  1
  Ti  Ti0  1  0.04041700  0.50118000  0.00127300  1
  Ti  Ti1  1  0.54208000  0.99970400  0.00186100  1
  Ti  Ti2  1  0.15609800  0.50076700  0.25735900  1
  Ti  Ti3  1  0.89660900  0.49972500  0.74201500  1
  Ti  Ti4  1  0.66347100  0.00067300  0.25685600  1
  Ti  Ti5  1  0.39713800  0.00177500  0.74236700  1
  Bi  Bi0  1  0.29801200  0.52628300  0.57672500  1
  Bi  Bi1  1  0.72447900  0.47444800  0.42309200  1
  Bi  Bi2  1  0.79850500  0.97487600  0.57655000  1
  Bi  Bi3  1  0.22447400  0.02616800  0.42288500  1
  Bi  Bi4  1  0.43418300  0.49720000  0.86710700  1
  Bi  Bi5  1  0.58103700  0.51003400  0.13593700  1
  Bi  Bi6  1  0.93627500  0.00527000  0.86799000  1
  O  O0  1  0.82214300  0.76403000  0.98442300  1
  O  O1  1  0.82877900  0.24495000  0.02181500  1
  O  O2  1  0.31721500  0.73550800  0.97814700  1
  O  O3  1  0.32075900  0.24307200  0.02308900  1
  O  O4  1  0.22615900  0.44069200  0.36152800  1
  O  O5  1  0.86643300  0.55812500  0.63796500  1
  O  O6  1  0.72723600  0.05934100  0.36132000  1
  O  O7  1  0.36683500  0.94139600  0.63828900  1
  O  O8  1  0.69757800  0.77573100  0.77623400  1
  O  O9  1  0.91384900  0.23088000  0.22155500  1
  O  O10  1  0.19713900  0.72420200  0.77638300  1
  O  O11  1  0.41019400  0.26457700  0.22120900  1
  O  O12  1  0.52087500  0.74581500  0.49761700  1
  O  O13  1  0.02210800  0.25424000  0.50162400  1
  O  O14  1  0.02120400  0.75413700  0.49802000  1
  O  O15  1  0.52245300  0.24556000  0.50210800  1
  O  O16  1  0.14045700  0.57214900  0.11503800  1
  O  O17  1  0.02047300  0.42661300  0.88508500  1
  O  O18  1  0.60177400  0.92785100  0.11594400  1
  O  O19  1  0.52338100  0.07130400  0.88513000  1
  O  O20  1  0.87479700  0.71920800  0.24375800  1
  O  O21  1  0.62387200  0.28640600  0.75336200  1
  O  O22  1  0.38006900  0.77547200  0.24637400  1
  O  O23  1  0.12424900  0.21382500  0.75418000  1
loop_
_geom_bond_atom_site_label_1
_geom_bond_atom_site_label_2
_geom_bond_distance
_geom_bond_site_symmetry_2
Bi0 O14 2.239603 1_555
Bi0 O12 2.279674 1_555
Bi0 O13 2.339866 1_555
Bi0 O15 2.441388 1_555
Bi0 O7 2.503736 1_555
Bi0 O5 2.715365 1_455
Bi1 O15 2.238457 1_555
Bi1 O13 2.283578 1_655
Bi1 O12 2.343040 1_555
Bi1 O14 2.429005 1_655
Bi1 O6 2.504819 1_555
Bi1 O4 2.754615 1_555
Bi2 O12 2.235697 1_555
Bi2 O14 2.285372 1_655
Bi2 O15 2.344321 1_565
Bi2 O13 2.426021 1_665
Bi2 O5 2.515266 1_555
Bi2 O7 2.718553 1_555
Bi3 O13 2.242817 1_555
Bi3 O15 2.275712 1_555
Bi3 O14 2.340477 1_545
Bi3 O12 2.443474 1_545
Bi3 O4 2.498321 1_555
Bi3 O6 2.751566 1_455
Bi4 O10 2.234100 1_555
Bi4 O17 2.345227 1_555
Bi4 O19 2.395839 1_555
Bi4 O2 2.458231 1_555
Bi4 O21 2.599181 1_555
Bi4 O8 2.721351 1_555
Bi4 O23 2.809310 1_555
Bi5 O11 2.271834 1_555
Bi5 O18 2.317771 1_555
Bi5 O16 2.393582 1_555
Bi5 O20 2.507637 1_555
Bi5 O3 2.635710 1_555
Bi5 O9 2.637194 1_555
Bi5 O22 2.734249 1_555
Bi6 O8 2.246290 1_545
Bi6 O19 2.338183 1_555
Bi6 O17 2.358517 1_655
Bi6 O0 2.530519 1_545
Bi6 O23 2.583216 1_655
Bi6 O10 2.740478 1_645
O0 Ti0 1.866165 1_656
O0 Ti1 2.058896 1_556
O1 Ti0 1.874787 1_655
O1 Ti1 2.038526 1_545
O1 Pr0 2.530441 1_655
O2 Ti1 1.890309 1_556
O2 Ti0 2.054147 1_556
O3 Ti1 1.873724 1_545
O3 Ti0 2.077441 1_555
O3 Pr0 2.610269 1_555
O4 Ti2 1.782037 1_555
O5 Ti3 1.778041 1_555
O6 Ti4 1.782766 1_555
O7 Ti5 1.780042 1_565
O8 Ti3 2.002614 1_555
O8 Ti5 2.066727 1_565
O9 Ti2 2.003607 1_655
O9 Ti4 2.006933 1_555
O9 Pr0 2.379498 1_655
O10 Ti5 1.998996 1_565
O10 Ti3 2.049178 1_455
O11 Ti4 2.030667 1_555
O11 Ti2 2.060351 1_555
O11 Pr0 2.530480 1_555
O16 Ti0 1.962477 1_555
O16 Pr0 2.401639 1_565
O16 Ti2 2.436341 1_555
O17 Ti0 2.000848 1_556
O17 Ti3 2.452447 1_455
O18 Ti1 1.954501 1_555
O18 Ti4 2.397148 1_565
O18 Pr0 2.748666 1_665
O18 Pr0 2.770579 1_565
O19 Ti1 2.007563 1_546
O19 Ti5 2.444462 1_555
O20 Ti2 1.934212 1_655
O20 Ti4 1.962117 1_565
O21 Ti3 1.914010 1_555
O21 Ti5 1.971234 1_555
O22 Ti4 1.953191 1_565
O22 Ti2 1.955574 1_555
O22 Pr0 2.642610 1_565
O23 Ti5 1.925218 1_555
O23 Ti3 1.993829 1_455
