# generated using pymatgen
data_Rb2Zr3OF12
_symmetry_space_group_name_H-M   'P 1'
_cell_length_a   11.10048937
_cell_length_b   11.10048937
_cell_length_c   11.10048925
_cell_angle_alpha   41.47961411
_cell_angle_beta   41.47961411
_cell_angle_gamma   41.47961243
_symmetry_Int_Tables_number   1
_chemical_formula_structural   Rb2Zr3OF12
_chemical_formula_sum   'Rb4 Zr6 O2 F24'
_cell_volume   542.24832957
_cell_formula_units_Z   2
loop_
 _symmetry_equiv_pos_site_id
 _symmetry_equiv_pos_as_xyz
  1  'x, y, z'
loop_
 _atom_site_type_symbol
 _atom_site_label
 _atom_site_symmetry_multiplicity
 _atom_site_fract_x
 _atom_site_fract_y
 _atom_site_fract_z
 _atom_site_occupancy
  Rb  Rb0  1  0.00000000  0.00000000  0.00000000  1
  Rb  Rb1  1  0.50000000  0.50000000  0.50000000  1
  Rb  Rb2  1  0.13805700  0.13805700  0.13805700  1
  Rb  Rb3  1  0.86194300  0.86194300  0.86194300  1
  Zr  Zr0  1  0.57580800  0.57580800  0.02908900  1
  Zr  Zr1  1  0.02908900  0.57580800  0.57580800  1
  Zr  Zr2  1  0.57580800  0.02908900  0.57580800  1
  Zr  Zr3  1  0.42419200  0.97091100  0.42419200  1
  Zr  Zr4  1  0.97091100  0.42419200  0.42419200  1
  Zr  Zr5  1  0.42419200  0.42419200  0.97091100  1
  O  O0  1  0.28662700  0.28662700  0.28662700  1
  O  O1  1  0.71337300  0.71337300  0.71337300  1
  F  F0  1  0.37084600  0.70684600  0.70684600  1
  F  F1  1  0.70684600  0.37084600  0.70684600  1
  F  F2  1  0.70684600  0.70684600  0.37084600  1
  F  F3  1  0.62915400  0.29315400  0.29315400  1
  F  F4  1  0.29315400  0.62915400  0.29315400  1
  F  F5  1  0.29315400  0.29315400  0.62915400  1
  F  F6  1  0.08959400  0.59772900  0.08959400  1
  F  F7  1  0.08959400  0.08959400  0.59772900  1
  F  F8  1  0.00000000  0.35214600  0.64785400  1
  F  F9  1  0.35214600  0.64785400  0.00000000  1
  F  F10  1  0.64785400  0.00000000  0.35214600  1
  F  F11  1  0.00000000  0.64785400  0.35214600  1
  F  F12  1  0.64785400  0.35214600  0.00000000  1
  F  F13  1  0.35214600  0.00000000  0.64785400  1
  F  F14  1  0.08361900  0.64811900  0.64811900  1
  F  F15  1  0.64811900  0.64811900  0.08361900  1
  F  F16  1  0.64811900  0.08361900  0.64811900  1
  F  F17  1  0.35188100  0.91638100  0.35188100  1
  F  F18  1  0.91638100  0.35188100  0.35188100  1
  F  F19  1  0.35188100  0.35188100  0.91638100  1
  F  F20  1  0.91040600  0.40227100  0.91040600  1
  F  F21  1  0.40227100  0.91040600  0.91040600  1
  F  F22  1  0.91040600  0.91040600  0.40227100  1
  F  F23  1  0.59772900  0.08959400  0.08959400  1
loop_
_geom_bond_atom_site_label_1
_geom_bond_atom_site_label_2
_geom_bond_distance
_geom_bond_site_symmetry_2
O0 Zr3 2.098154 1_545
O0 Zr4 2.098154 1_455
O0 Zr5 2.098154 1_554
O1 Zr1 2.098154 1_655
O1 Zr2 2.098154 1_565
O1 Zr0 2.098154 1_556
F0 Zr5 2.196262 1_555
F0 Zr3 2.196262 1_555
F1 Zr5 2.196262 1_555
F1 Zr4 2.196262 1_555
F2 Zr4 2.196262 1_555
F2 Zr3 2.196262 1_555
F3 Zr0 2.196262 1_555
F3 Zr2 2.196262 1_555
F4 Zr0 2.196262 1_555
F4 Zr1 2.196262 1_555
F5 Zr1 2.196262 1_555
F5 Zr2 2.196262 1_555
F6 Zr5 2.234230 1_554
F6 Zr4 2.234230 1_455
F6 Rb3 2.954929 1_454
F6 Rb0 3.176702 1_565
F7 Zr4 2.234230 1_455
F7 Zr3 2.234230 1_545
F7 Rb3 2.954930 1_445
F7 Rb0 3.176702 1_556
F8 Zr4 2.178781 1_455
F8 Zr1 2.178781 1_555
F8 Rb0 2.768542 1_556
F9 Zr0 2.178781 1_555
F9 Zr5 2.178781 1_554
F9 Rb0 2.768542 1_565
F10 Zr2 2.178781 1_555
F10 Zr3 2.178781 1_545
F10 Rb0 2.768542 1_655
F11 Zr1 2.178781 1_555
F11 Zr4 2.178781 1_455
F11 Rb0 2.768542 1_565
F12 Zr0 2.178781 1_555
F12 Zr5 2.178781 1_554
F12 Rb0 2.768542 1_655
F13 Zr3 2.178781 1_545
F13 Zr2 2.178781 1_555
F13 Rb0 2.768542 1_556
F14 Zr1 2.019031 1_555
F14 Rb1 2.836662 1_555
F14 Rb3 2.874215 1_455
F15 Zr0 2.019031 1_555
F15 Rb1 2.836662 1_555
F15 Rb3 2.874215 1_554
F16 Zr2 2.019031 1_555
F16 Rb1 2.836662 1_555
F16 Rb3 2.874215 1_545
F17 Zr3 2.019031 1_555
F17 Rb1 2.836662 1_555
F17 Rb2 2.874215 1_565
F18 Zr4 2.019031 1_555
F18 Rb1 2.836662 1_555
F18 Rb2 2.874215 1_655
F19 Zr5 2.019031 1_555
F19 Rb1 2.836662 1_555
F19 Rb2 2.874215 1_556
F20 Zr0 2.234230 1_556
F20 Zr1 2.234230 1_655
F20 Rb2 2.954929 1_656
F20 Rb0 3.176702 1_656
F21 Zr0 2.234230 1_556
F21 Zr2 2.234230 1_565
F21 Rb2 2.954929 1_566
F21 Rb0 3.176702 1_566
F22 Zr1 2.234230 1_655
F22 Zr2 2.234230 1_565
F22 Rb2 2.954930 1_665
F22 Rb0 3.176702 1_665
F23 Zr5 2.234230 1_554
F23 Zr3 2.234230 1_545
F23 Rb3 2.954929 1_544
F23 Rb0 3.176702 1_655
