# generated using pymatgen
data_Ho6Al43W4
_symmetry_space_group_name_H-M   'P 1'
_cell_length_a   11.05877244
_cell_length_b   11.05877244
_cell_length_c   17.59348600
_cell_angle_alpha   90.00000000
_cell_angle_beta   90.00000000
_cell_angle_gamma   120.00000266
_symmetry_Int_Tables_number   1
_chemical_formula_structural   Ho6Al43W4
_chemical_formula_sum   'Ho12 Al86 W8'
_cell_volume   1863.35826149
_cell_formula_units_Z   2
loop_
 _symmetry_equiv_pos_site_id
 _symmetry_equiv_pos_as_xyz
  1  'x, y, z'
loop_
 _atom_site_type_symbol
 _atom_site_label
 _atom_site_symmetry_multiplicity
 _atom_site_fract_x
 _atom_site_fract_y
 _atom_site_fract_z
 _atom_site_occupancy
  Ho  Ho0  1  0.46850700  0.46850700  0.90426900  1
  Ho  Ho1  1  0.53149300  0.00000000  0.90426900  1
  Ho  Ho2  1  0.00000000  0.53149300  0.90426900  1
  Ho  Ho3  1  0.53149300  0.53149300  0.09573100  1
  Ho  Ho4  1  0.46850700  0.00000000  0.09573100  1
  Ho  Ho5  1  0.00000000  0.46850700  0.09573100  1
  Ho  Ho6  1  0.53149300  0.53149300  0.40426900  1
  Ho  Ho7  1  0.46850700  0.00000000  0.40426900  1
  Ho  Ho8  1  0.00000000  0.46850700  0.40426900  1
  Ho  Ho9  1  0.46850700  0.46850700  0.59573100  1
  Ho  Ho10  1  0.53149300  0.00000000  0.59573100  1
  Ho  Ho11  1  0.00000000  0.53149300  0.59573100  1
  Al  Al0  1  0.84178000  0.23660700  0.83636100  1
  Al  Al1  1  0.76339300  0.60517300  0.83636100  1
  Al  Al2  1  0.39482700  0.15822000  0.83636100  1
  Al  Al3  1  0.23660700  0.84178000  0.83636100  1
  Al  Al4  1  0.60517300  0.76339300  0.83636100  1
  Al  Al5  1  0.15822000  0.39482700  0.83636100  1
  Al  Al6  1  0.15822000  0.76339300  0.16363900  1
  Al  Al7  1  0.23660700  0.39482700  0.16363900  1
  Al  Al8  1  0.60517300  0.84178000  0.16363900  1
  Al  Al9  1  0.76339300  0.15822000  0.16363900  1
  Al  Al10  1  0.39482700  0.23660700  0.16363900  1
  Al  Al11  1  0.84178000  0.60517300  0.16363900  1
  Al  Al12  1  0.15822000  0.76339300  0.33636100  1
  Al  Al13  1  0.23660700  0.39482700  0.33636100  1
  Al  Al14  1  0.60517300  0.84178000  0.33636100  1
  Al  Al15  1  0.76339300  0.15822000  0.33636100  1
  Al  Al16  1  0.39482700  0.23660700  0.33636100  1
  Al  Al17  1  0.84178000  0.60517300  0.33636100  1
  Al  Al18  1  0.84178000  0.23660700  0.66363900  1
  Al  Al19  1  0.76339300  0.60517300  0.66363900  1
  Al  Al20  1  0.39482700  0.15822000  0.66363900  1
  Al  Al21  1  0.23660700  0.84178000  0.66363900  1
  Al  Al22  1  0.60517300  0.76339300  0.66363900  1
  Al  Al23  1  0.15822000  0.39482700  0.66363900  1
  Al  Al24  1  0.84080600  0.84080600  0.38503700  1
  Al  Al25  1  0.15919400  0.00000000  0.38503700  1
  Al  Al26  1  0.00000000  0.15919400  0.38503700  1
  Al  Al27  1  0.15919400  0.15919400  0.61496300  1
  Al  Al28  1  0.84080600  0.00000000  0.61496300  1
  Al  Al29  1  0.00000000  0.84080600  0.61496300  1
  Al  Al30  1  0.15919400  0.15919400  0.88503700  1
  Al  Al31  1  0.84080600  0.00000000  0.88503700  1
  Al  Al32  1  0.00000000  0.84080600  0.88503700  1
  Al  Al33  1  0.84080600  0.84080600  0.11496300  1
  Al  Al34  1  0.15919400  0.00000000  0.11496300  1
  Al  Al35  1  0.00000000  0.15919400  0.11496300  1
  Al  Al36  1  0.74572800  0.74572800  0.96916200  1
  Al  Al37  1  0.25427200  0.00000000  0.96916200  1
  Al  Al38  1  0.00000000  0.25427200  0.96916200  1
  Al  Al39  1  0.25427200  0.25427200  0.03083800  1
  Al  Al40  1  0.74572800  0.00000000  0.03083800  1
  Al  Al41  1  0.00000000  0.74572800  0.03083800  1
  Al  Al42  1  0.25427200  0.25427200  0.46916200  1
  Al  Al43  1  0.74572800  0.00000000  0.46916200  1
  Al  Al44  1  0.00000000  0.74572800  0.46916200  1
  Al  Al45  1  0.74572800  0.74572800  0.53083800  1
  Al  Al46  1  0.25427200  0.00000000  0.53083800  1
  Al  Al47  1  0.00000000  0.25427200  0.53083800  1
  Al  Al48  1  0.85272200  0.44781200  0.75000000  1
  Al  Al49  1  0.55218800  0.40491000  0.75000000  1
  Al  Al50  1  0.59509000  0.14727800  0.75000000  1
  Al  Al51  1  0.44781200  0.85272200  0.75000000  1
  Al  Al52  1  0.40491000  0.55218800  0.75000000  1
  Al  Al53  1  0.14727800  0.59509000  0.75000000  1
  Al  Al54  1  0.14727800  0.55218800  0.25000000  1
  Al  Al55  1  0.44781200  0.59509000  0.25000000  1
  Al  Al56  1  0.40491000  0.85272200  0.25000000  1
  Al  Al57  1  0.55218800  0.14727800  0.25000000  1
  Al  Al58  1  0.59509000  0.44781200  0.25000000  1
  Al  Al59  1  0.85272200  0.40491000  0.25000000  1
  Al  Al60  1  0.75319700  0.24680300  0.00000000  1
  Al  Al61  1  0.75319700  0.50639400  0.00000000  1
  Al  Al62  1  0.49360600  0.24680300  0.00000000  1
  Al  Al63  1  0.24680300  0.75319700  0.00000000  1
  Al  Al64  1  0.50639400  0.75319700  0.00000000  1
  Al  Al65  1  0.24680300  0.49360600  0.00000000  1
  Al  Al66  1  0.24680300  0.75319700  0.50000000  1
  Al  Al67  1  0.24680300  0.49360600  0.50000000  1
  Al  Al68  1  0.50639400  0.75319700  0.50000000  1
  Al  Al69  1  0.75319700  0.24680300  0.50000000  1
  Al  Al70  1  0.49360600  0.24680300  0.50000000  1
  Al  Al71  1  0.75319700  0.50639400  0.50000000  1
  Al  Al72  1  0.66666700  0.33333300  0.87386300  1
  Al  Al73  1  0.33333300  0.66666700  0.87386300  1
  Al  Al74  1  0.33333300  0.66666700  0.12613700  1
  Al  Al75  1  0.66666700  0.33333300  0.12613700  1
  Al  Al76  1  0.33333300  0.66666700  0.37386300  1
  Al  Al77  1  0.66666700  0.33333300  0.37386300  1
  Al  Al78  1  0.66666700  0.33333300  0.62613700  1
  Al  Al79  1  0.33333300  0.66666700  0.62613700  1
  Al  Al80  1  0.85259800  0.85259800  0.75000000  1
  Al  Al81  1  0.14740200  0.00000000  0.75000000  1
  Al  Al82  1  0.00000000  0.14740200  0.75000000  1
  Al  Al83  1  0.14740200  0.14740200  0.25000000  1
  Al  Al84  1  0.85259800  0.00000000  0.25000000  1
  Al  Al85  1  0.00000000  0.85259800  0.25000000  1
  W  W0  1  0.27138500  0.27138500  0.75000000  1
  W  W1  1  0.72861500  0.00000000  0.75000000  1
  W  W2  1  0.00000000  0.72861500  0.75000000  1
  W  W3  1  0.72861500  0.72861500  0.25000000  1
  W  W4  1  0.27138500  0.00000000  0.25000000  1
  W  W5  1  0.00000000  0.27138500  0.25000000  1
  W  W6  1  0.00000000  0.00000000  0.00000000  1
  W  W7  1  0.00000000  0.00000000  0.50000000  1
loop_
_geom_bond_atom_site_label_1
_geom_bond_atom_site_label_2
_geom_bond_distance
_geom_bond_site_symmetry_2
Ho0 Ho3 3.439748 1_556
Ho0 W0 3.481175 1_555
Ho1 Ho4 3.439748 1_556
Ho1 W1 3.481175 1_555
Ho2 Ho5 3.439748 1_556
Ho2 W2 3.481175 1_555
Ho3 W3 3.481175 1_555
Ho4 W4 3.481175 1_555
Ho5 W5 3.481175 1_555
Ho6 Ho9 3.439748 1_555
Ho6 W3 3.481175 1_555
Ho7 W4 3.481175 1_555
Ho8 W5 3.481175 1_555
Ho9 W0 3.481175 1_555
Ho10 Ho7 3.439748 1_555
Ho10 W1 3.481175 1_555
Ho11 Ho8 3.439748 1_555
Ho11 W2 3.481175 1_555
Al0 Al72 2.720504 1_555
Al0 W1 2.728857 1_555
Al0 Al38 2.866493 1_655
Al0 Al60 3.061267 1_556
Al0 Ho2 3.068806 1_655
Al0 Ho1 3.327137 1_555
Al1 Al72 2.720514 1_555
Al1 W2 2.728857 1_655
Al1 Al36 2.866493 1_555
Al1 Al61 3.061267 1_556
Al1 Ho0 3.068806 1_555
Al1 Ho2 3.327137 1_655
Al2 Al72 2.720512 1_555
Al2 W0 2.728857 1_555
Al2 Al37 2.866493 1_555
Al2 Al62 3.061267 1_556
Al2 Ho1 3.068806 1_555
Al2 Ho0 3.327137 1_555
Al3 Al73 2.720504 1_555
Al3 W2 2.728857 1_555
Al3 Al37 2.866493 1_565
Al3 Al63 3.061267 1_556
Al3 Ho1 3.068806 1_565
Al3 Ho2 3.327137 1_555
Al4 Al73 2.720514 1_555
Al4 W1 2.728857 1_565
Al4 Al64 3.061267 1_556
Al4 Ho0 3.068806 1_555
Al4 Ho1 3.327137 1_565
Al5 Al73 2.720512 1_555
Al5 W0 2.728857 1_555
Al5 Al65 3.061267 1_556
Al5 Ho2 3.068806 1_555
Al5 Ho0 3.327137 1_555
Al6 Al74 2.720504 1_555
Al6 W4 2.728857 1_565
Al6 Al63 3.061267 1_555
Al6 Ho5 3.068806 1_555
Al6 Ho4 3.327137 1_565
Al7 Al74 2.720514 1_555
Al7 W5 2.728857 1_555
Al7 Ho3 3.068806 1_555
Al7 Ho5 3.327137 1_555
Al8 W3 2.728857 1_555
Al8 Ho4 3.068806 1_565
Al8 Ho3 3.327137 1_555
Al9 W5 2.728857 1_655
Al9 Ho4 3.068806 1_555
Al9 Ho5 3.327137 1_655
Al10 Al75 2.720514 1_555
Al10 W4 2.728857 1_555
Al10 Al39 2.866493 1_555
Al10 Al62 3.061267 1_555
Al10 Ho3 3.068806 1_555
Al10 Ho4 3.327137 1_555
Al11 Al75 2.720512 1_555
Al11 W3 2.728857 1_555
Al11 Al41 2.866493 1_655
Al11 Al61 3.061267 1_555
Al11 Ho5 3.068806 1_655
Al11 Ho3 3.327137 1_555
Al12 Al76 2.720504 1_555
Al12 W4 2.728857 1_565
Al12 Al44 2.866493 1_555
Al12 Al66 3.061267 1_555
Al12 Ho8 3.068806 1_555
Al12 Ho7 3.327137 1_565
Al13 Al76 2.720514 1_555
Al13 W5 2.728857 1_555
Al13 Al42 2.866493 1_555
Al13 Al67 3.061267 1_555
Al13 Ho6 3.068806 1_555
Al13 Ho8 3.327137 1_555
Al14 Al76 2.720512 1_555
Al14 W3 2.728857 1_555
Al14 Al43 2.866493 1_565
Al14 Al68 3.061267 1_555
Al14 Ho7 3.068806 1_565
Al14 Ho6 3.327137 1_555
Al15 Al77 2.720504 1_555
Al15 W5 2.728857 1_655
Al15 Al43 2.866493 1_555
Al15 Al69 3.061267 1_555
Al15 Ho7 3.068806 1_555
Al15 Ho8 3.327137 1_655
Al16 Al77 2.720514 1_555
Al16 W4 2.728857 1_555
Al16 Al42 2.866493 1_555
Al16 Al70 3.061267 1_555
Al16 Ho6 3.068806 1_555
Al16 Ho7 3.327137 1_555
Al17 Al77 2.720512 1_555
Al17 W3 2.728857 1_555
Al17 Al44 2.866493 1_655
Al17 Al71 3.061267 1_555
Al17 Ho8 3.068806 1_655
Al17 Ho6 3.327137 1_555
Al18 Al78 2.720504 1_555
Al18 W1 2.728857 1_555
Al18 Al47 2.866493 1_655
Al18 Al69 3.061267 1_555
Al18 Ho11 3.068806 1_655
Al18 Ho10 3.327137 1_555
Al19 Al78 2.720514 1_555
Al19 W2 2.728857 1_655
Al19 Al45 2.866493 1_555
Al19 Al71 3.061267 1_555
Al19 Ho9 3.068806 1_555
Al19 Ho11 3.327137 1_655
Al20 Al78 2.720512 1_555
Al20 W0 2.728857 1_555
Al20 Al46 2.866493 1_555
Al20 Al70 3.061267 1_555
Al20 Ho10 3.068806 1_555
Al20 Ho9 3.327137 1_555
Al21 Al79 2.720504 1_555
Al21 W2 2.728857 1_555
Al21 Al46 2.866493 1_565
Al21 Al66 3.061267 1_555
Al21 Ho10 3.068806 1_565
Al21 Ho11 3.327137 1_555
Al22 Al79 2.720514 1_555
Al22 W1 2.728857 1_565
Al22 Al45 2.866493 1_555
Al22 Al68 3.061267 1_555
Al22 Ho9 3.068806 1_555
Al22 Ho10 3.327137 1_565
Al23 Al79 2.720512 1_555
Al23 W0 2.728857 1_555
Al23 Al47 2.866493 1_555
Al23 Al67 3.061267 1_555
Al23 Ho11 3.068806 1_555
Al23 Ho9 3.327137 1_555
Al24 W3 2.680226 1_555
Al24 W7 2.681462 1_665
Al24 Al45 2.772277 1_555
Al24 Al43 2.871668 1_565
Al24 Al44 2.871668 1_655
Al24 Ho6 3.437316 1_555
Al25 W4 2.680226 1_555
Al25 W7 2.681462 1_555
Al25 Al46 2.772277 1_555
Al25 Al44 2.871668 1_545
Al25 Al42 2.871668 1_555
Al25 Ho7 3.437316 1_555
Al26 W5 2.680226 1_555
Al26 W7 2.681462 1_555
Al26 Al47 2.772277 1_555
Al26 Al43 2.871668 1_455
Al26 Al42 2.871668 1_555
Al26 Ho8 3.437316 1_555
Al27 W0 2.680226 1_555
Al27 W7 2.681462 1_555
Al27 Al42 2.772277 1_555
Al27 Al46 2.871668 1_555
Al27 Al47 2.871668 1_555
Al27 Ho9 3.437316 1_555
Al28 W1 2.680226 1_555
Al28 W7 2.681462 1_655
Al28 Al43 2.772277 1_555
Al28 Al47 2.871668 1_655
Al28 Al45 2.871668 1_545
Al28 Ho10 3.437316 1_555
Al29 W2 2.680226 1_555
Al29 W7 2.681462 1_565
Al29 Al44 2.772277 1_555
Al29 Al46 2.871668 1_565
Al29 Al45 2.871668 1_455
Al29 Ho11 3.437316 1_555
Al30 W0 2.680226 1_555
Al30 W6 2.681462 1_556
Al30 Al39 2.772277 1_556
Al30 Al38 2.871668 1_555
Al30 Al37 2.871668 1_555
Al30 Ho0 3.437316 1_555
Al31 W1 2.680226 1_555
Al31 W6 2.681462 1_656
Al31 Al40 2.772277 1_556
Al31 Al38 2.871668 1_655
Al31 Al36 2.871668 1_545
Al31 Ho1 3.437316 1_555
Al32 W2 2.680226 1_555
Al32 W6 2.681462 1_566
Al32 Al41 2.772277 1_556
Al32 Al37 2.871668 1_565
Al32 Al36 2.871668 1_455
Al32 Ho2 3.437316 1_555
Al33 W3 2.680226 1_555
Al33 W6 2.681462 1_665
Al33 Al36 2.772277 1_554
Al33 Al41 2.871668 1_655
Al33 Al40 2.871668 1_565
Al33 Ho3 3.437316 1_555
Al34 W4 2.680226 1_555
Al34 W6 2.681462 1_555
Al34 Al37 2.772277 1_554
Al34 Al41 2.871668 1_545
Al34 Al39 2.871668 1_555
Al34 Ho4 3.437316 1_555
Al35 W5 2.680226 1_555
Al35 W6 2.681462 1_555
Al35 Al38 2.772277 1_554
Al35 Al40 2.871668 1_455
Al35 Al39 2.871668 1_555
Al35 Ho5 3.437316 1_555
Al36 Al64 2.743179 1_556
Al36 Al61 2.743179 1_556
Al36 W6 2.863799 1_666
Al36 Al4 2.866493 1_555
Al36 Al41 3.014037 1_656
Al36 Al40 3.014037 1_566
Al36 Ho3 3.251398 1_556
Al36 Ho0 3.271411 1_555
Al37 Al62 2.743179 1_556
Al37 Al63 2.743179 1_546
Al37 W6 2.863799 1_556
Al37 Al41 3.014037 1_546
Al37 Al39 3.014037 1_556
Al37 Ho4 3.251398 1_556
Al37 Ho1 3.271411 1_555
Al38 Al65 2.743179 1_556
Al38 Al60 2.743179 1_456
Al38 W6 2.863799 1_556
Al38 Al5 2.866493 1_555
Al38 Al40 3.014037 1_456
Al38 Al39 3.014037 1_556
Al38 Ho5 3.251398 1_556
Al38 Ho2 3.271411 1_555
Al39 Al62 2.743179 1_555
Al39 Al65 2.743179 1_555
Al39 W6 2.863799 1_555
Al39 Al7 2.866493 1_555
Al39 Ho0 3.251398 1_554
Al39 Ho3 3.271411 1_555
Al40 Al64 2.743179 1_545
Al40 Al60 2.743179 1_555
Al40 W6 2.863799 1_655
Al40 Al8 2.866493 1_545
Al40 Al9 2.866493 1_555
Al40 Ho1 3.251398 1_554
Al40 Ho4 3.271411 1_555
Al41 Al61 2.743179 1_455
Al41 Al63 2.743179 1_555
Al41 W6 2.863799 1_565
Al41 Al6 2.866493 1_555
Al41 Ho2 3.251398 1_554
Al41 Ho5 3.271411 1_555
Al42 Al70 2.743179 1_555
Al42 Al67 2.743179 1_555
Al42 W7 2.863799 1_555
Al42 Al46 3.014037 1_555
Al42 Al47 3.014037 1_555
Al42 Ho9 3.251398 1_555
Al42 Ho6 3.271411 1_555
Al43 Al68 2.743179 1_545
Al43 Al69 2.743179 1_555
Al43 W7 2.863799 1_655
Al43 Al47 3.014037 1_655
Al43 Al45 3.014037 1_545
Al43 Ho10 3.251398 1_555
Al43 Ho7 3.271411 1_555
Al44 Al71 2.743179 1_455
Al44 Al66 2.743179 1_555
Al44 W7 2.863799 1_565
Al44 Al46 3.014037 1_565
Al44 Al45 3.014037 1_455
Al44 Ho11 3.251398 1_555
Al44 Ho8 3.271411 1_555
Al45 Al68 2.743179 1_555
Al45 Al71 2.743179 1_555
Al45 W7 2.863799 1_665
Al45 Ho6 3.251398 1_555
Al45 Ho9 3.271411 1_555
Al46 Al70 2.743179 1_555
Al46 Al66 2.743179 1_545
Al46 W7 2.863799 1_555
Al46 Ho7 3.251398 1_555
Al46 Ho10 3.271411 1_555
Al47 Al67 2.743179 1_555
Al47 Al69 2.743179 1_455
Al47 W7 2.863799 1_555
Al47 Ho8 3.251398 1_555
Al47 Ho11 3.271411 1_555
Al48 W2 2.690375 1_655
Al48 Al72 2.824927 1_555
Al48 Al78 2.824927 1_555
Al48 Ho11 3.060778 1_655
Al48 Ho2 3.060778 1_655
Al49 W0 2.690375 1_555
Al49 Al72 2.824933 1_555
Al49 Al78 2.824933 1_555
Al49 Ho0 3.060778 1_555
Al49 Ho9 3.060778 1_555
Al50 W1 2.690375 1_555
Al50 Al72 2.824926 1_555
Al50 Al78 2.824926 1_555
Al50 Ho1 3.060778 1_555
Al50 Ho10 3.060778 1_555
Al51 W1 2.690375 1_565
Al51 Al73 2.824927 1_555
Al51 Al79 2.824927 1_555
Al51 Ho10 3.060778 1_565
Al51 Ho1 3.060778 1_565
Al52 W0 2.690375 1_555
Al52 Al73 2.824933 1_555
Al52 Al79 2.824933 1_555
Al52 Ho0 3.060778 1_555
Al52 Ho9 3.060778 1_555
Al53 W2 2.690375 1_555
Al53 Al73 2.824926 1_555
Al53 Al79 2.824926 1_555
Al53 Ho11 3.060778 1_555
Al53 Ho2 3.060778 1_555
Al54 W5 2.690375 1_555
Al54 Al74 2.824927 1_555
Al54 Al76 2.824927 1_555
Al54 Ho8 3.060778 1_555
Al54 Ho5 3.060778 1_555
Al55 W3 2.690375 1_555
Al55 Al74 2.824933 1_555
Al55 Al76 2.824933 1_555
Al55 Ho6 3.060778 1_555
Al55 Ho3 3.060778 1_555
Al56 W4 2.690375 1_565
Al56 Al76 2.824926 1_555
Al56 Al74 2.824926 1_555
Al56 Ho7 3.060778 1_565
Al56 Ho4 3.060778 1_565
Al57 W4 2.690375 1_555
Al57 Al75 2.824927 1_555
Al57 Al77 2.824927 1_555
Al57 Ho4 3.060778 1_555
Al57 Ho7 3.060778 1_555
Al58 W3 2.690375 1_555
Al58 Al75 2.824933 1_555
Al58 Al77 2.824933 1_555
Al58 Ho6 3.060778 1_555
Al58 Ho3 3.060778 1_555
Al59 W5 2.690375 1_655
Al59 Al75 2.824926 1_555
Al59 Al77 2.824926 1_555
Al59 Ho8 3.060778 1_655
Al59 Ho5 3.060778 1_655
Al60 Al75 2.769813 1_555
Al60 Al72 2.769813 1_554
Al60 Al61 2.870758 1_555
Al60 Al62 2.870758 1_555
Al60 Al9 3.061267 1_555
Al60 Ho5 3.099263 1_655
Al60 Ho1 3.099263 1_554
Al60 Ho2 3.406619 1_654
Al60 Ho4 3.406619 1_555
Al61 Al75 2.769819 1_555
Al61 Al72 2.769819 1_554
Al61 Al62 2.870758 1_555
Al61 Ho2 3.099263 1_654
Al61 Ho3 3.099263 1_555
Al61 Ho0 3.406619 1_554
Al61 Ho5 3.406619 1_655
Al62 Al75 2.769819 1_555
Al62 Al72 2.769819 1_554
Al62 Ho4 3.099263 1_555
Al62 Ho0 3.099263 1_554
Al62 Ho3 3.406619 1_555
Al62 Ho1 3.406619 1_554
Al63 Al74 2.769813 1_555
Al63 Al73 2.769813 1_554
Al63 Al64 2.870758 1_555
Al63 Al65 2.870758 1_555
Al63 Ho4 3.099263 1_565
Al63 Ho2 3.099263 1_554
Al63 Ho1 3.406619 1_564
Al63 Ho5 3.406619 1_555
Al64 Al74 2.769819 1_555
Al64 Al73 2.769819 1_554
Al64 Al65 2.870758 1_555
Al64 Al8 3.061267 1_555
Al64 Ho1 3.099263 1_564
Al64 Ho3 3.099263 1_555
Al64 Ho0 3.406619 1_554
Al64 Ho4 3.406619 1_565
Al65 Al74 2.769819 1_555
Al65 Al73 2.769819 1_554
Al65 Al7 3.061267 1_555
Al65 Ho5 3.099263 1_555
Al65 Ho0 3.099263 1_554
Al65 Ho3 3.406619 1_555
Al65 Ho2 3.406619 1_554
Al66 Al79 2.769813 1_555
Al66 Al76 2.769813 1_555
Al66 Al67 2.870758 1_555
Al66 Al68 2.870758 1_555
Al66 Ho7 3.099263 1_565
Al66 Ho11 3.099263 1_555
Al66 Ho10 3.406619 1_565
Al66 Ho8 3.406619 1_555
Al67 Al79 2.769819 1_555
Al67 Al76 2.769819 1_555
Al67 Al68 2.870758 1_555
Al67 Ho8 3.099263 1_555
Al67 Ho9 3.099263 1_555
Al67 Ho6 3.406619 1_555
Al67 Ho11 3.406619 1_555
Al68 Al79 2.769819 1_555
Al68 Al76 2.769819 1_555
Al68 Ho10 3.099263 1_565
Al68 Ho6 3.099263 1_555
Al68 Ho9 3.406619 1_555
Al68 Ho7 3.406619 1_565
Al69 Al78 2.769813 1_555
Al69 Al77 2.769813 1_555
Al69 Al70 2.870758 1_555
Al69 Al71 2.870758 1_555
Al69 Ho8 3.099263 1_655
Al69 Ho10 3.099263 1_555
Al69 Ho11 3.406619 1_655
Al69 Ho7 3.406619 1_555
Al70 Al78 2.769819 1_555
Al70 Al77 2.769819 1_555
Al70 Al71 2.870758 1_555
Al70 Ho7 3.099263 1_555
Al70 Ho9 3.099263 1_555
Al70 Ho6 3.406619 1_555
Al70 Ho10 3.406619 1_555
Al71 Al78 2.769819 1_555
Al71 Al77 2.769819 1_555
Al71 Ho11 3.099263 1_655
Al71 Ho6 3.099263 1_555
Al71 Ho9 3.406619 1_555
Al71 Ho8 3.406619 1_655
Al72 Ho1 3.255581 1_555
Al72 Ho2 3.255582 1_655
Al72 Ho0 3.255591 1_555
Al73 Ho2 3.255581 1_555
Al73 Ho1 3.255582 1_565
Al73 Ho0 3.255591 1_555
Al74 Al8 2.720512 1_555
Al74 Ho4 3.255581 1_565
Al74 Ho5 3.255582 1_555
Al74 Ho3 3.255591 1_555
Al75 Al9 2.720504 1_555
Al75 Ho5 3.255581 1_655
Al75 Ho4 3.255582 1_555
Al75 Ho3 3.255591 1_555
Al76 Ho7 3.255581 1_565
Al76 Ho8 3.255582 1_555
Al76 Ho6 3.255591 1_555
Al77 Ho8 3.255581 1_655
Al77 Ho7 3.255582 1_555
Al77 Ho6 3.255591 1_555
Al78 Ho10 3.255581 1_555
Al78 Ho11 3.255582 1_655
Al78 Ho9 3.255591 1_555
Al79 Ho11 3.255581 1_555
Al79 Ho10 3.255582 1_565
Al79 Ho9 3.255591 1_555
Al80 W2 2.602326 1_655
Al80 W1 2.602326 1_565
Al81 W2 2.602326 1_545
Al81 W0 2.602326 1_555
Al82 W1 2.602326 1_455
Al82 W0 2.602326 1_555
Al83 W4 2.602326 1_555
Al83 W5 2.602326 1_555
Al84 W5 2.602326 1_655
Al84 W3 2.602326 1_545
Al85 W4 2.602326 1_565
Al85 W3 2.602326 1_455
