# generated using pymatgen
data_ZrMnO5F6
_symmetry_space_group_name_H-M   'P 1'
_cell_length_a   8.12507111
_cell_length_b   8.12507111
_cell_length_c   8.57967798
_cell_angle_alpha   61.74779798
_cell_angle_beta   61.74779798
_cell_angle_gamma   54.20905011
_symmetry_Int_Tables_number   1
_chemical_formula_structural   ZrMnO5F6
_chemical_formula_sum   'Zr2 Mn2 O10 F12'
_cell_volume   389.10063569
_cell_formula_units_Z   2
loop_
 _symmetry_equiv_pos_site_id
 _symmetry_equiv_pos_as_xyz
  1  'x, y, z'
loop_
 _atom_site_type_symbol
 _atom_site_label
 _atom_site_symmetry_multiplicity
 _atom_site_fract_x
 _atom_site_fract_y
 _atom_site_fract_z
 _atom_site_occupancy
  Zr  Zr0  1  0.74971500  0.25028500  0.50000000  1
  Zr  Zr1  1  0.25028500  0.74971500  0.50000000  1
  Mn  Mn0  1  0.22848100  0.22848100  0.88208100  1
  Mn  Mn1  1  0.77151900  0.77151900  0.11791900  1
  O  O0  1  0.02024000  0.68295300  0.06032200  1
  O  O1  1  0.68295300  0.02024000  0.06032200  1
  O  O2  1  0.97976000  0.31704700  0.93967800  1
  O  O3  1  0.31704700  0.97976000  0.93967800  1
  O  O4  1  0.27664700  0.27664700  0.01029400  1
  O  O5  1  0.72335300  0.72335300  0.98970600  1
  O  O6  1  0.75644400  0.75644400  0.53955700  1
  O  O7  1  0.24355600  0.24355600  0.46044300  1
  O  O8  1  0.33035300  0.33035300  0.31976800  1
  O  O9  1  0.66964700  0.66964700  0.68023200  1
  F  F0  1  0.84459700  0.20565400  0.70187800  1
  F  F1  1  0.20565400  0.84459700  0.70187800  1
  F  F2  1  0.15540300  0.79434600  0.29812200  1
  F  F3  1  0.79434600  0.15540300  0.29812200  1
  F  F4  1  0.49260500  0.49260500  0.36722100  1
  F  F5  1  0.50739500  0.50739500  0.63277900  1
  F  F6  1  0.90055700  0.90055700  0.61145400  1
  F  F7  1  0.09944300  0.09944300  0.38854600  1
  F  F8  1  0.16732500  0.49703600  0.67618200  1
  F  F9  1  0.49703600  0.16732500  0.67618200  1
  F  F10  1  0.83267500  0.50296400  0.32381800  1
  F  F11  1  0.50296400  0.83267500  0.32381800  1
loop_
_geom_bond_atom_site_label_1
_geom_bond_atom_site_label_2
_geom_bond_distance
_geom_bond_site_symmetry_2
Mn0 O4 1.584494 1_556
Mn0 O2 1.592558 1_455
Mn0 O3 1.592558 1_545
Mn1 O5 1.584494 1_554
Mn1 O1 1.592558 1_565
Mn1 O0 1.592558 1_655
O6 O9 1.192277 1_555
O7 O8 1.192277 1_555
F0 Zr0 2.017008 1_555
F1 Zr1 2.017008 1_555
F2 Zr1 2.017008 1_555
F3 Zr0 2.017008 1_555
F4 Zr1 2.203870 1_555
F4 Zr0 2.203870 1_555
F5 Zr1 2.203870 1_555
F5 Zr0 2.203870 1_555
F6 Zr1 2.225893 1_655
F6 Zr0 2.225893 1_565
F7 Zr0 2.225893 1_455
F7 Zr1 2.225893 1_545
F8 Mn0 2.010580 1_555
F8 Zr1 2.161086 1_555
F9 Mn0 2.010580 1_555
F9 Zr0 2.161086 1_555
F10 Mn1 2.010580 1_555
F10 Zr0 2.161086 1_555
F11 Mn1 2.010580 1_555
F11 Zr1 2.161086 1_555
