# generated using pymatgen
data_MgFe(CO3)2
_symmetry_space_group_name_H-M   'P 1'
_cell_length_a   4.71419514
_cell_length_b   4.74660683
_cell_length_c   5.83431969
_cell_angle_alpha   65.73428412
_cell_angle_beta   114.16667909
_cell_angle_gamma   120.08887282
_symmetry_Int_Tables_number   1
_chemical_formula_structural   MgFe(CO3)2
_chemical_formula_sum   'Mg1 Fe1 C2 O6'
_cell_volume   99.49831665
_cell_formula_units_Z   1
loop_
 _symmetry_equiv_pos_site_id
 _symmetry_equiv_pos_as_xyz
  1  'x, y, z'
loop_
 _atom_site_type_symbol
 _atom_site_label
 _atom_site_symmetry_multiplicity
 _atom_site_fract_x
 _atom_site_fract_y
 _atom_site_fract_z
 _atom_site_occupancy
  Mg  Mg0  1  0.00000000  0.00000000  0.00000000  1
  Fe  Fe0  1  0.50000000  0.49999900  0.50000100  1
  C  C0  1  0.25114000  0.74918000  0.75430000  1
  C  C1  1  0.74886000  0.25082000  0.24569900  1
  O  O0  1  0.24342700  0.01824100  0.75480200  1
  O  O1  1  0.53031000  0.75659200  0.75533400  1
  O  O2  1  0.97809300  0.47131700  0.75339300  1
  O  O3  1  0.46969000  0.24340900  0.24466500  1
  O  O4  1  0.02190700  0.52868300  0.24660700  1
  O  O5  1  0.75657200  0.98175900  0.24519800  1
loop_
_geom_bond_atom_site_label_1
_geom_bond_atom_site_label_2
_geom_bond_distance
_geom_bond_site_symmetry_2
Mg0 O3 2.116076 1_555
Mg0 O1 2.116077 1_444
Mg0 O0 2.124533 1_554
Mg0 O5 2.124537 1_445
Mg0 O2 2.133071 1_454
Mg0 O4 2.133071 1_545
Fe0 O2 2.167461 1_555
Fe0 O4 2.167467 1_555
Fe0 O0 2.192452 1_555
Fe0 O5 2.192461 1_555
Fe0 O1 2.205791 1_555
Fe0 O3 2.205795 1_555
C0 O1 1.296357 1_555
C0 O0 1.296961 1_565
C0 O2 1.301663 1_455
C1 O3 1.296359 1_555
C1 O5 1.296956 1_545
C1 O4 1.301663 1_655
