# generated using pymatgen
data_Mg(WO2)2
_symmetry_space_group_name_H-M   'P 1'
_cell_length_a   6.48441624
_cell_length_b   6.48441624
_cell_length_c   6.48441679
_cell_angle_alpha   55.37428066
_cell_angle_beta   55.37428066
_cell_angle_gamma   55.37428773
_symmetry_Int_Tables_number   1
_chemical_formula_structural   Mg(WO2)2
_chemical_formula_sum   'Mg2 W4 O8'
_cell_volume   172.07828200
_cell_formula_units_Z   2
loop_
 _symmetry_equiv_pos_site_id
 _symmetry_equiv_pos_as_xyz
  1  'x, y, z'
loop_
 _atom_site_type_symbol
 _atom_site_label
 _atom_site_symmetry_multiplicity
 _atom_site_fract_x
 _atom_site_fract_y
 _atom_site_fract_z
 _atom_site_occupancy
  Mg  Mg0  1  0.00428200  0.00428200  0.00428200  1
  Mg  Mg1  1  0.61865800  0.61865800  0.61865800  1
  W  W0  1  0.26541700  0.26541700  0.26541700  1
  W  W1  1  0.64551500  0.64551500  0.08422500  1
  W  W2  1  0.08422500  0.64551500  0.64551500  1
  W  W3  1  0.64551500  0.08422500  0.64551500  1
  O  O0  1  0.37489100  0.85036100  0.37489100  1
  O  O1  1  0.85036100  0.37489100  0.37489100  1
  O  O2  1  0.37489100  0.37489100  0.85036100  1
  O  O3  1  0.39286100  0.39286100  0.39286100  1
  O  O4  1  0.88483800  0.88483800  0.88483800  1
  O  O5  1  0.85705500  0.85705500  0.39443700  1
  O  O6  1  0.39443700  0.85705500  0.85705500  1
  O  O7  1  0.85705500  0.39443700  0.85705500  1
loop_
_geom_bond_atom_site_label_1
_geom_bond_atom_site_label_2
_geom_bond_distance
_geom_bond_site_symmetry_2
Mg0 O5 1.941536 1_445
Mg0 O7 1.941536 1_454
Mg0 O6 1.941536 1_544
Mg0 O4 1.960829 1_444
Mg1 O5 2.121463 1_555
Mg1 O6 2.121463 1_555
Mg1 O7 2.121463 1_555
Mg1 O2 2.167055 1_555
Mg1 O1 2.167056 1_555
Mg1 O0 2.167056 1_555
O0 W0 2.117007 1_565
O0 W2 2.198580 1_555
O0 W1 2.198580 1_555
O1 W0 2.117007 1_655
O1 W3 2.198580 1_555
O1 W1 2.198580 1_555
O2 W0 2.117007 1_556
O2 W3 2.198580 1_555
O2 W2 2.198580 1_555
O3 W0 2.092160 1_555
O3 W1 2.229679 1_555
O3 W2 2.229680 1_555
O3 W3 2.229680 1_555
O4 W1 2.159805 1_556
O4 W2 2.159805 1_655
O4 W3 2.159805 1_565
O5 W2 2.143232 1_655
O5 W3 2.143232 1_565
O6 W3 2.143231 1_565
O6 W1 2.143232 1_556
O7 W2 2.143231 1_655
O7 W1 2.143232 1_556
