# generated using pymatgen
data_V3Pb2O9
_symmetry_space_group_name_H-M   'P 1'
_cell_length_a   9.16557479
_cell_length_b   9.16557479
_cell_length_c   7.14739420
_cell_angle_alpha   77.95914642
_cell_angle_beta   77.95914642
_cell_angle_gamma   130.34993777
_symmetry_Int_Tables_number   1
_chemical_formula_structural   V3Pb2O9
_chemical_formula_sum   'V6 Pb4 O18'
_cell_volume   397.11333088
_cell_formula_units_Z   2
loop_
 _symmetry_equiv_pos_site_id
 _symmetry_equiv_pos_as_xyz
  1  'x, y, z'
loop_
 _atom_site_type_symbol
 _atom_site_label
 _atom_site_symmetry_multiplicity
 _atom_site_fract_x
 _atom_site_fract_y
 _atom_site_fract_z
 _atom_site_occupancy
  V  V0  1  0.53845300  0.02626400  0.22082800  1
  V  V1  1  0.02626400  0.53845300  0.72082800  1
  V  V2  1  0.58266000  0.42289400  0.00387900  1
  V  V3  1  0.42289400  0.58266000  0.50387900  1
  V  V4  1  0.84183200  0.16237200  0.50277700  1
  V  V5  1  0.16237200  0.84183200  0.00277700  1
  Pb  Pb0  1  0.95188300  0.04498500  0.00047000  1
  Pb  Pb1  1  0.04498500  0.95188300  0.50047000  1
  Pb  Pb2  1  0.38120500  0.62222800  0.00423600  1
  Pb  Pb3  1  0.62222800  0.38120500  0.50423600  1
  O  O0  1  0.38764200  0.93392900  0.03815200  1
  O  O1  1  0.93392900  0.38764200  0.53815200  1
  O  O2  1  0.61397200  0.05169800  0.46567400  1
  O  O3  1  0.05169800  0.61397200  0.96567400  1
  O  O4  1  0.78896100  0.21748700  0.00225300  1
  O  O5  1  0.21748700  0.78896100  0.50225300  1
  O  O6  1  0.64197500  0.67482400  0.54042400  1
  O  O7  1  0.67482400  0.64197500  0.04042400  1
  O  O8  1  0.02537200  0.22200900  0.27812500  1
  O  O9  1  0.22200900  0.02537200  0.77812500  1
  O  O10  1  0.79126000  0.98351700  0.72472500  1
  O  O11  1  0.98351700  0.79126000  0.22472500  1
  O  O12  1  0.51121700  0.78463500  0.26110100  1
  O  O13  1  0.78463500  0.51121700  0.76110100  1
  O  O14  1  0.31276500  0.35570300  0.47814800  1
  O  O15  1  0.35570300  0.31276500  0.97814800  1
  O  O16  1  0.51060800  0.22525100  0.23470800  1
  O  O17  1  0.22525100  0.51060800  0.73470800  1
loop_
_geom_bond_atom_site_label_1
_geom_bond_atom_site_label_2
_geom_bond_distance
_geom_bond_site_symmetry_2
O0 V5 1.757712 1_555
O0 V0 2.007693 1_565
O1 V4 1.757712 1_555
O1 V1 2.007693 1_655
O2 V4 1.749579 1_555
O2 V0 2.015598 1_555
O3 V5 1.749579 1_556
O3 V1 2.015598 1_555
O4 V0 1.712999 1_555
O4 V1 2.202585 1_654
O4 Pb0 2.790622 1_555
O5 V1 1.712999 1_555
O5 V0 2.202585 1_565
O5 Pb1 2.790622 1_555
O6 V3 1.711228 1_555
O6 Pb3 2.649785 1_555
O6 Pb1 2.699148 1_655
O7 V2 1.711228 1_555
O7 Pb2 2.649785 1_555
O7 Pb0 2.699148 1_565
O8 V4 1.738701 1_455
O8 Pb2 2.602574 1_555
O8 Pb0 2.740527 1_455
O8 Pb1 2.782381 1_545
O9 V5 1.738701 1_546
O9 Pb3 2.602574 1_555
O9 Pb1 2.740527 1_545
O9 Pb0 2.782381 1_456
O10 V4 1.744415 1_565
O10 Pb0 2.639861 1_566
O10 Pb2 2.659593 1_556
O10 Pb1 2.751932 1_655
O11 V5 1.744415 1_655
O11 Pb1 2.639861 1_655
O11 Pb3 2.659593 1_555
O11 Pb0 2.751932 1_565
O12 V3 1.796245 1_555
O12 V0 2.009498 1_565
O12 Pb2 2.600463 1_555
O12 Pb0 2.829046 1_565
O13 V2 1.796245 1_556
O13 V1 2.009498 1_655
O13 Pb3 2.600463 1_555
O13 Pb1 2.829046 1_655
O14 V3 1.702351 1_555
O14 Pb3 2.741340 1_555
O14 Pb1 2.752381 1_545
O15 V2 1.702351 1_556
O15 Pb2 2.741340 1_556
O15 Pb0 2.752381 1_456
O16 V2 1.785776 1_555
O16 V0 2.017176 1_555
O16 Pb3 2.622684 1_555
O17 V3 1.785776 1_555
O17 V1 2.017176 1_555
O17 Pb2 2.622684 1_556
