# generated using pymatgen
data_HgAs2Xe5F22
_symmetry_space_group_name_H-M   'P 1'
_cell_length_a   8.81741500
_cell_length_b   15.43783100
_cell_length_c   17.80814000
_cell_angle_alpha   90.00000000
_cell_angle_beta   90.00000000
_cell_angle_gamma   90.00000000
_symmetry_Int_Tables_number   1
_chemical_formula_structural   HgAs2Xe5F22
_chemical_formula_sum   'Hg4 As8 Xe20 F88'
_cell_volume   2424.07540591
_cell_formula_units_Z   4
loop_
 _symmetry_equiv_pos_site_id
 _symmetry_equiv_pos_as_xyz
  1  'x, y, z'
loop_
 _atom_site_type_symbol
 _atom_site_label
 _atom_site_symmetry_multiplicity
 _atom_site_fract_x
 _atom_site_fract_y
 _atom_site_fract_z
 _atom_site_occupancy
  Hg  Hg0  1  0.23365300  0.66653300  0.70008800  1
  Hg  Hg1  1  0.76634700  0.33346700  0.20008800  1
  Hg  Hg2  1  0.73365300  0.83346700  0.20008800  1
  Hg  Hg3  1  0.26634700  0.16653300  0.70008800  1
  As  As0  1  0.98634900  0.51756700  0.82302300  1
  As  As1  1  0.01365100  0.48243300  0.32302300  1
  As  As2  1  0.48634900  0.98243300  0.32302300  1
  As  As3  1  0.51365100  0.01756700  0.82302300  1
  As  As4  1  0.50290400  0.50146000  0.56550400  1
  As  As5  1  0.49709600  0.49854000  0.06550400  1
  As  As6  1  0.00290400  0.99854000  0.06550400  1
  As  As7  1  0.99709600  0.00146000  0.56550400  1
  Xe  Xe0  1  0.75709200  0.74951400  0.69434400  1
  Xe  Xe1  1  0.24290800  0.25048600  0.19434400  1
  Xe  Xe2  1  0.25709200  0.75048600  0.19434400  1
  Xe  Xe3  1  0.74290800  0.24951400  0.69434400  1
  Xe  Xe4  1  0.48470100  0.48398800  0.81680900  1
  Xe  Xe5  1  0.51529900  0.51601200  0.31680900  1
  Xe  Xe6  1  0.98470100  0.01601200  0.31680900  1
  Xe  Xe7  1  0.01529900  0.98398800  0.81680900  1
  Xe  Xe8  1  0.23191200  0.76267600  0.48080000  1
  Xe  Xe9  1  0.76808800  0.23732400  0.98080000  1
  Xe  Xe10  1  0.73191200  0.73732400  0.98080000  1
  Xe  Xe11  1  0.26808800  0.26267600  0.48080000  1
  Xe  Xe12  1  0.00380400  0.47572700  0.57314900  1
  Xe  Xe13  1  0.99619600  0.52427300  0.07314900  1
  Xe  Xe14  1  0.50380400  0.02427300  0.07314900  1
  Xe  Xe15  1  0.49619600  0.97572700  0.57314900  1
  Xe  Xe16  1  0.28590700  0.77188300  0.90616900  1
  Xe  Xe17  1  0.71409300  0.22811700  0.40616900  1
  Xe  Xe18  1  0.78590700  0.72811700  0.40616900  1
  Xe  Xe19  1  0.21409300  0.27188300  0.90616900  1
  F  F0  1  0.38341600  0.60797700  0.79556300  1
  F  F1  1  0.61658400  0.39202300  0.29556300  1
  F  F2  1  0.88341600  0.89202300  0.29556300  1
  F  F3  1  0.11658400  0.10797700  0.79556300  1
  F  F4  1  0.35185000  0.77389500  0.01586900  1
  F  F5  1  0.64815000  0.22610500  0.51586900  1
  F  F6  1  0.85185000  0.72610500  0.51586900  1
  F  F7  1  0.14815000  0.27389500  0.01586900  1
  F  F8  1  0.30419800  0.74885500  0.59406900  1
  F  F9  1  0.69580200  0.25114500  0.09406900  1
  F  F10  1  0.80419800  0.75114500  0.09406900  1
  F  F11  1  0.19580200  0.24885500  0.59406900  1
  F  F12  1  0.91984100  0.35998000  0.53670300  1
  F  F13  1  0.08015900  0.64002000  0.03670300  1
  F  F14  1  0.41984100  0.14002000  0.03670300  1
  F  F15  1  0.58015900  0.85998000  0.53670300  1
  F  F16  1  0.85308100  0.54981800  0.89132200  1
  F  F17  1  0.14691900  0.45018200  0.39132200  1
  F  F18  1  0.35308100  0.95018200  0.39132200  1
  F  F19  1  0.64691900  0.04981800  0.89132200  1
  F  F20  1  0.52469800  0.75213400  0.70862500  1
  F  F21  1  0.47530200  0.24786600  0.20862500  1
  F  F22  1  0.02469800  0.74786600  0.20862500  1
  F  F23  1  0.97530200  0.25213400  0.70862500  1
  F  F24  1  0.12978700  0.51234400  0.89258800  1
  F  F25  1  0.87021300  0.48765600  0.39258800  1
  F  F26  1  0.62978700  0.98765600  0.39258800  1
  F  F27  1  0.37021300  0.01234400  0.89258800  1
  F  F28  1  0.63789900  0.45731700  0.62848000  1
  F  F29  1  0.36210100  0.54268300  0.12848000  1
  F  F30  1  0.13789900  0.04268300  0.12848000  1
  F  F31  1  0.86210100  0.95731700  0.62848000  1
  F  F32  1  0.36665800  0.54872700  0.50507000  1
  F  F33  1  0.63334200  0.45127300  0.00507000  1
  F  F34  1  0.86665800  0.95127300  0.00507000  1
  F  F35  1  0.13334200  0.04872700  0.50507000  1
  F  F36  1  0.36458500  0.42821000  0.59970500  1
  F  F37  1  0.63541500  0.57179000  0.09970500  1
  F  F38  1  0.86458500  0.07179000  0.09970500  1
  F  F39  1  0.13541500  0.92821000  0.59970500  1
  F  F40  1  0.99418400  0.75203400  0.67894800  1
  F  F41  1  0.00581600  0.24796600  0.17894800  1
  F  F42  1  0.49418400  0.74796600  0.17894800  1
  F  F43  1  0.50581600  0.25203400  0.67894800  1
  F  F44  1  0.44691800  0.57715500  0.63893200  1
  F  F45  1  0.55308200  0.42284500  0.13893200  1
  F  F46  1  0.94691800  0.92284500  0.13893200  1
  F  F47  1  0.05308200  0.07715500  0.63893200  1
  F  F48  1  0.55677300  0.42716800  0.49468500  1
  F  F49  1  0.44322700  0.57283200  0.99468500  1
  F  F50  1  0.05677300  0.07283200  0.99468500  1
  F  F51  1  0.94322700  0.92716800  0.49468500  1
  F  F52  1  0.84652900  0.52499100  0.75195900  1
  F  F53  1  0.15347100  0.47500900  0.25195900  1
  F  F54  1  0.34652900  0.97500900  0.25195900  1
  F  F55  1  0.65347100  0.02499100  0.75195900  1
  F  F56  1  0.16105200  0.78032100  0.37261500  1
  F  F57  1  0.83894800  0.21967900  0.87261500  1
  F  F58  1  0.66105200  0.71967900  0.87261500  1
  F  F59  1  0.33894800  0.28032100  0.37261500  1
  F  F60  1  0.09330600  0.59843200  0.60775100  1
  F  F61  1  0.90669400  0.40156800  0.10775100  1
  F  F62  1  0.59330600  0.90156800  0.10775100  1
  F  F63  1  0.40669400  0.09843200  0.60775100  1
  F  F64  1  0.58016600  0.36654500  0.84013700  1
  F  F65  1  0.41983400  0.63345500  0.34013700  1
  F  F66  1  0.08016600  0.13345500  0.34013700  1
  F  F67  1  0.91983400  0.86654500  0.84013700  1
  F  F68  1  0.22533900  0.77674900  0.79021600  1
  F  F69  1  0.77466100  0.22325100  0.29021600  1
  F  F70  1  0.72533900  0.72325100  0.29021600  1
  F  F71  1  0.27466100  0.27674900  0.79021600  1
  F  F72  1  0.63941400  0.57747900  0.53423600  1
  F  F73  1  0.36058600  0.42252100  0.03423600  1
  F  F74  1  0.13941400  0.92252100  0.03423600  1
  F  F75  1  0.86058600  0.07747900  0.53423600  1
  F  F76  1  0.03432400  0.63007700  0.80639500  1
  F  F77  1  0.96567600  0.36992300  0.30639500  1
  F  F78  1  0.53432400  0.86992300  0.30639500  1
  F  F79  1  0.46567600  0.13007700  0.80639500  1
  F  F80  1  0.12463400  0.49058900  0.75293200  1
  F  F81  1  0.87536600  0.50941100  0.25293200  1
  F  F82  1  0.62463400  0.00941100  0.25293200  1
  F  F83  1  0.37536600  0.99058900  0.75293200  1
  F  F84  1  0.94427700  0.40708600  0.83700700  1
  F  F85  1  0.05572300  0.59291400  0.33700700  1
  F  F86  1  0.44427700  0.09291400  0.33700700  1
  F  F87  1  0.55572300  0.90708600  0.83700700  1
loop_
_geom_bond_atom_site_label_1
_geom_bond_atom_site_label_2
_geom_bond_distance
_geom_bond_site_symmetry_2
As0 F16 1.762962 1_555
As0 F84 1.763139 1_555
As0 F52 1.770478 1_555
As0 F24 1.772225 1_655
As0 F80 1.793925 1_655
As0 F76 1.812038 1_655
As1 F17 1.762962 1_555
As1 F85 1.763139 1_555
As1 F53 1.770478 1_555
As1 F25 1.772225 1_455
As1 F81 1.793925 1_455
As1 F77 1.812038 1_455
As2 F18 1.762962 1_555
As2 F86 1.763139 1_565
As2 F54 1.770478 1_555
As2 F26 1.772225 1_555
As2 F82 1.793925 1_565
As2 F78 1.812038 1_555
As3 F19 1.762962 1_555
As3 F87 1.763139 1_545
As3 F55 1.770478 1_555
As3 F27 1.772225 1_555
As3 F83 1.793925 1_545
As3 F79 1.812038 1_555
As4 F48 1.769610 1_555
As4 F32 1.770287 1_555
As4 F72 1.770911 1_555
As4 F36 1.771206 1_555
As4 F28 1.771712 1_555
As4 F44 1.821840 1_555
As5 F49 1.769610 1_554
As5 F33 1.770287 1_555
As5 F73 1.770911 1_555
As5 F37 1.771206 1_555
As5 F29 1.771712 1_555
As5 F45 1.821840 1_555
As6 F50 1.769610 1_564
As6 F34 1.770287 1_455
As6 F74 1.770911 1_555
As6 F38 1.771206 1_465
As6 F30 1.771712 1_565
As6 F46 1.821840 1_455
As7 F51 1.769610 1_545
As7 F35 1.770287 1_655
As7 F75 1.770911 1_555
As7 F39 1.771206 1_645
As7 F31 1.771712 1_545
As7 F47 1.821840 1_655
F0 Xe4 2.145830 1_555
F0 Hg0 2.334897 1_555
F1 Xe5 2.145830 1_555
F1 Hg1 2.334897 1_555
F2 Xe6 2.145830 1_565
F2 Hg2 2.334897 1_555
F3 Xe7 2.145830 1_545
F3 Hg3 2.334897 1_555
F4 Xe16 2.038483 1_554
F5 Xe17 2.038483 1_555
F6 Xe18 2.038483 1_555
F7 Xe19 2.038483 1_554
F8 Xe8 2.126148 1_555
F8 Hg0 2.359360 1_555
F9 Xe9 2.126148 1_554
F9 Hg1 2.359360 1_555
F10 Xe10 2.126148 1_554
F10 Hg2 2.359360 1_555
F11 Xe11 2.126148 1_555
F11 Hg3 2.359360 1_555
F12 Xe12 2.040170 1_655
F13 Xe13 2.040170 1_455
F14 Xe14 2.040170 1_555
F15 Xe15 2.040170 1_555
F20 Xe0 2.065232 1_555
F21 Xe1 2.065232 1_555
F22 Xe2 2.065232 1_555
F23 Xe3 2.065232 1_555
F40 Xe0 2.108800 1_555
F40 Hg0 2.518415 1_655
F41 Xe1 2.108800 1_555
F41 Hg1 2.518415 1_455
F42 Xe2 2.108800 1_555
F42 Hg2 2.518415 1_555
F43 Xe3 2.108800 1_555
F43 Hg3 2.518415 1_555
F44 Hg0 2.574105 1_555
F45 Hg1 2.574105 1_555
F46 Hg2 2.574105 1_555
F47 Hg3 2.574105 1_555
F56 Xe8 2.043591 1_555
F57 Xe9 2.043591 1_555
F58 Xe10 2.043591 1_555
F59 Xe11 2.043591 1_555
F60 Xe12 2.142631 1_555
F60 Hg0 2.310971 1_555
F61 Xe13 2.142631 1_555
F61 Hg1 2.310971 1_555
F62 Xe14 2.142631 1_565
F62 Hg2 2.310971 1_555
F63 Xe15 2.142631 1_545
F63 Hg3 2.310971 1_555
F64 Xe4 2.041650 1_555
F65 Xe5 2.041650 1_555
F66 Xe6 2.041650 1_455
F67 Xe7 2.041650 1_655
F68 Xe16 2.134174 1_555
F68 Hg0 2.340198 1_555
F69 Xe17 2.134174 1_555
F69 Hg1 2.340198 1_555
F70 Xe18 2.134174 1_555
F70 Hg2 2.340198 1_555
F71 Xe19 2.134174 1_555
F71 Hg3 2.340198 1_555
F76 Hg0 2.643809 1_555
F77 Hg1 2.643809 1_555
F78 Hg2 2.643809 1_555
F79 Hg3 2.643809 1_555
