# generated using pymatgen
data_MgSiO3
_symmetry_space_group_name_H-M   'P 1'
_cell_length_a   8.89642100
_cell_length_b   5.22871000
_cell_length_c   9.40671259
_cell_angle_alpha   86.05147106
_cell_angle_beta   90.00000000
_cell_angle_gamma   90.00000000
_symmetry_Int_Tables_number   1
_chemical_formula_structural   MgSiO3
_chemical_formula_sum   'Mg8 Si8 O24'
_cell_volume   436.53156477
_cell_formula_units_Z   8
loop_
 _symmetry_equiv_pos_site_id
 _symmetry_equiv_pos_as_xyz
  1  'x, y, z'
loop_
 _atom_site_type_symbol
 _atom_site_label
 _atom_site_symmetry_multiplicity
 _atom_site_fract_x
 _atom_site_fract_y
 _atom_site_fract_z
 _atom_site_occupancy
  Mg  Mg0  1  0.59895800  0.25000000  0.00000000  1
  Mg  Mg1  1  0.40104200  0.75000000  0.00000000  1
  Mg  Mg2  1  0.23778500  0.25000000  0.00000000  1
  Mg  Mg3  1  0.76221500  0.75000000  0.00000000  1
  Mg  Mg4  1  0.09902900  0.25000000  0.50000000  1
  Mg  Mg5  1  0.90097100  0.75000000  0.50000000  1
  Mg  Mg6  1  0.73470600  0.25000000  0.50000000  1
  Mg  Mg7  1  0.26529400  0.75000000  0.50000000  1
  Si  Si0  1  0.58992300  0.63588300  0.70535800  1
  Si  Si1  1  0.58992300  0.86411700  0.29464200  1
  Si  Si2  1  0.41007700  0.36411700  0.29464200  1
  Si  Si3  1  0.41007700  0.13588300  0.70535800  1
  Si  Si4  1  0.91034000  0.06044000  0.79110800  1
  Si  Si5  1  0.91034000  0.43956000  0.20889200  1
  Si  Si6  1  0.08966000  0.93956000  0.20889200  1
  Si  Si7  1  0.08966000  0.56044000  0.79110800  1
  O  O0  1  0.59196600  0.60340100  0.87973900  1
  O  O1  1  0.59196600  0.89659900  0.12026100  1
  O  O2  1  0.40803400  0.39659900  0.12026100  1
  O  O3  1  0.40803400  0.10340100  0.87973900  1
  O  O4  1  0.73926800  0.55278500  0.62222300  1
  O  O5  1  0.73926800  0.94721500  0.37777700  1
  O  O6  1  0.26073200  0.44721500  0.37777700  1
  O  O7  1  0.26073200  0.05278500  0.62222300  1
  O  O8  1  0.45289400  0.44081300  0.65082700  1
  O  O9  1  0.45289400  0.05918700  0.34917300  1
  O  O10  1  0.54710600  0.55918700  0.34917300  1
  O  O11  1  0.54710600  0.94081300  0.65082700  1
  O  O12  1  0.09206600  0.57549000  0.61692600  1
  O  O13  1  0.09206600  0.92451000  0.38307400  1
  O  O14  1  0.90793400  0.42451000  0.38307400  1
  O  O15  1  0.90793400  0.07549000  0.61692600  1
  O  O16  1  0.24155900  0.58858900  0.87947100  1
  O  O17  1  0.24155900  0.91141100  0.12052900  1
  O  O18  1  0.75844100  0.41141100  0.12052900  1
  O  O19  1  0.75844100  0.08858900  0.87947100  1
  O  O20  1  0.95858700  0.75850300  0.84614500  1
  O  O21  1  0.95858700  0.74149700  0.15385500  1
  O  O22  1  0.04141300  0.24149700  0.15385500  1
  O  O23  1  0.04141300  0.25850300  0.84614500  1
loop_
_geom_bond_atom_site_label_1
_geom_bond_atom_site_label_2
_geom_bond_distance
_geom_bond_site_symmetry_2
Mg0 O18 2.035339 1_555
Mg0 O19 2.035339 1_554
Mg0 O1 2.100051 1_545
Mg0 O0 2.100051 1_554
Mg0 O2 2.207209 1_555
Mg0 O3 2.207209 1_554
Mg1 O16 2.035339 1_554
Mg1 O17 2.035339 1_555
Mg1 O2 2.100051 1_555
Mg1 O3 2.100051 1_564
Mg1 O1 2.207209 1_555
Mg1 O0 2.207209 1_554
Mg2 O17 2.035782 1_545
Mg2 O16 2.035782 1_554
Mg2 O2 2.069001 1_555
Mg2 O3 2.069001 1_554
Mg2 O22 2.267100 1_555
Mg2 O23 2.267100 1_554
Mg3 O19 2.035782 1_564
Mg3 O18 2.035782 1_555
Mg3 O1 2.069001 1_555
Mg3 O0 2.069001 1_554
Mg3 O21 2.267100 1_555
Mg3 O20 2.267100 1_554
Mg4 O7 2.071572 1_555
Mg4 O6 2.071572 1_555
Mg4 O12 2.089936 1_555
Mg4 O13 2.089936 1_545
Mg4 O15 2.189597 1_455
Mg4 O14 2.189597 1_455
Mg5 O5 2.071572 1_555
Mg5 O4 2.071572 1_555
Mg5 O15 2.089936 1_565
Mg5 O14 2.089936 1_555
Mg5 O12 2.189597 1_655
Mg5 O13 2.189597 1_655
Mg6 O4 2.020054 1_555
Mg6 O5 2.020054 1_545
Mg6 O15 2.068609 1_555
Mg6 O14 2.068609 1_555
Mg6 O11 2.663846 1_545
Mg6 O10 2.663846 1_555
Mg7 O7 2.020054 1_565
Mg7 O6 2.020054 1_555
Mg7 O12 2.068609 1_555
Mg7 O13 2.068609 1_555
Mg7 O8 2.663846 1_555
Mg7 O9 2.663846 1_565
O0 Si0 1.637547 1_555
O1 Si1 1.637547 1_555
O2 Si2 1.637547 1_555
O3 Si3 1.637547 1_555
O4 Si0 1.616299 1_555
O5 Si1 1.616299 1_555
O6 Si2 1.616299 1_555
O7 Si3 1.616299 1_555
O8 Si3 1.684538 1_555
O8 Si0 1.691636 1_555
O9 Si2 1.684538 1_555
O9 Si1 1.691636 1_545
O10 Si1 1.684538 1_555
O10 Si2 1.691636 1_555
O11 Si0 1.684538 1_555
O11 Si3 1.691636 1_565
O12 Si7 1.635087 1_555
O13 Si6 1.635087 1_555
O14 Si5 1.635087 1_555
O15 Si4 1.635087 1_555
O16 Si7 1.598618 1_555
O17 Si6 1.598618 1_555
O18 Si5 1.598618 1_555
O19 Si4 1.598618 1_555
O20 Si7 1.665566 1_655
O20 Si4 1.682892 1_565
O21 Si6 1.665566 1_655
O21 Si5 1.682892 1_555
O22 Si5 1.665566 1_455
O22 Si6 1.682892 1_545
O23 Si4 1.665566 1_455
O23 Si7 1.682892 1_555
