# generated using pymatgen
data_Sr4CaMn2(GaO5)2
_symmetry_space_group_name_H-M   'P 1'
_cell_length_a   5.83965536
_cell_length_b   5.84540058
_cell_length_c   9.38705600
_cell_angle_alpha   71.49664745
_cell_angle_beta   71.51449840
_cell_angle_gamma   88.89138880
_symmetry_Int_Tables_number   1
_chemical_formula_structural   Sr4CaMn2(GaO5)2
_chemical_formula_sum   'Sr4 Ca1 Mn2 Ga2 O10'
_cell_volume   287.00646937
_cell_formula_units_Z   1
loop_
 _symmetry_equiv_pos_site_id
 _symmetry_equiv_pos_as_xyz
  1  'x, y, z'
loop_
 _atom_site_type_symbol
 _atom_site_label
 _atom_site_symmetry_multiplicity
 _atom_site_fract_x
 _atom_site_fract_y
 _atom_site_fract_z
 _atom_site_occupancy
  Sr  Sr0  1  0.09367000  0.60003900  0.80831700  1
  Sr  Sr1  1  0.90633000  0.39996100  0.19168300  1
  Sr  Sr2  1  0.59793900  0.09157600  0.80832300  1
  Sr  Sr3  1  0.40206100  0.90842400  0.19167700  1
  Ca  Ca0  1  0.00000000  0.00000000  0.50000000  1
  Mn  Mn0  1  0.50000000  0.50000000  0.00000000  1
  Mn  Mn1  1  0.00000000  0.00000000  0.00000000  1
  Ga  Ga0  1  0.66231500  0.66675100  0.49998900  1
  Ga  Ga1  1  0.33768500  0.33324900  0.50001100  1
  O  O0  1  0.25854500  0.25849600  0.98294300  1
  O  O1  1  0.24887400  0.74887400  0.00221600  1
  O  O2  1  0.75112600  0.25112600  0.99778400  1
  O  O3  1  0.74145500  0.74150400  0.01705700  1
  O  O4  1  0.69953400  0.70684800  0.68102100  1
  O  O5  1  0.30046600  0.29315200  0.31897900  1
  O  O6  1  0.11955100  0.11207600  0.68103600  1
  O  O7  1  0.88044900  0.88792400  0.31896400  1
  O  O8  1  0.32827800  0.66749300  0.49999400  1
  O  O9  1  0.67172200  0.33250700  0.50000600  1
loop_
_geom_bond_atom_site_label_1
_geom_bond_atom_site_label_2
_geom_bond_distance
_geom_bond_site_symmetry_2
Ca0 O5 2.297827 1_555
Ca0 O4 2.297827 1_445
Ca0 O6 2.298090 1_555
Ca0 O7 2.298090 1_445
Ca0 O8 2.703433 1_545
Ca0 O9 2.703433 1_455
Mn0 O2 2.045650 1_554
Mn0 O1 2.045650 1_555
Mn0 O3 2.090524 1_555
Mn0 O0 2.090524 1_554
Mn0 O4 2.707297 1_554
Mn0 O5 2.707297 1_555
Mn1 O1 2.045651 1_545
Mn1 O2 2.045651 1_454
Mn1 O0 2.090395 1_554
Mn1 O3 2.090395 1_445
Mn1 O7 2.707131 1_445
Mn1 O6 2.707131 1_554
Ga0 O7 1.865029 1_555
Ga0 O4 1.865204 1_555
Ga0 O8 1.950567 1_555
Ga0 O9 1.953450 1_555
Ga1 O6 1.865029 1_555
Ga1 O5 1.865204 1_555
Ga1 O9 1.950567 1_555
Ga1 O8 1.953450 1_555
O0 Sr2 2.539131 1_555
O0 Sr0 2.539515 1_555
O0 Sr3 2.675639 1_546
O0 Sr1 2.675945 1_456
O1 Sr1 2.631296 1_455
O1 Sr3 2.631917 1_555
O1 Sr2 2.640436 1_564
O1 Sr0 2.640638 1_554
O2 Sr0 2.631296 1_655
O2 Sr2 2.631917 1_555
O2 Sr3 2.640436 1_546
O2 Sr1 2.640638 1_556
O3 Sr3 2.539131 1_555
O3 Sr1 2.539515 1_555
O3 Sr2 2.675639 1_564
O3 Sr0 2.675945 1_654
O4 Sr2 2.835848 1_565
O4 Sr0 2.886177 1_655
O5 Sr3 2.835848 1_545
O5 Sr1 2.886177 1_455
O6 Sr0 2.835836 1_545
O6 Sr2 2.887152 1_455
O7 Sr1 2.835836 1_565
O7 Sr3 2.887152 1_655
O8 Sr3 2.681602 1_555
O8 Sr0 2.681646 1_555
O9 Sr2 2.681602 1_555
O9 Sr1 2.681646 1_555
