# generated using pymatgen
data_Sr2ZnS3
_symmetry_space_group_name_H-M   'P 1'
_cell_length_a   4.09636600
_cell_length_b   8.53238500
_cell_length_c   16.52202700
_cell_angle_alpha   90.00000000
_cell_angle_beta   90.00000000
_cell_angle_gamma   90.00000000
_symmetry_Int_Tables_number   1
_chemical_formula_structural   Sr2ZnS3
_chemical_formula_sum   'Sr8 Zn4 S12'
_cell_volume   577.47411759
_cell_formula_units_Z   4
loop_
 _symmetry_equiv_pos_site_id
 _symmetry_equiv_pos_as_xyz
  1  'x, y, z'
loop_
 _atom_site_type_symbol
 _atom_site_label
 _atom_site_symmetry_multiplicity
 _atom_site_fract_x
 _atom_site_fract_y
 _atom_site_fract_z
 _atom_site_occupancy
  Sr  Sr0  1  0.75000000  0.24076000  0.54186300  1
  Sr  Sr1  1  0.25000000  0.75924000  0.45813700  1
  Sr  Sr2  1  0.25000000  0.25924000  0.04186300  1
  Sr  Sr3  1  0.75000000  0.74076000  0.95813700  1
  Sr  Sr4  1  0.25000000  0.41978000  0.78488200  1
  Sr  Sr5  1  0.75000000  0.58022000  0.21511800  1
  Sr  Sr6  1  0.75000000  0.08022000  0.28488200  1
  Sr  Sr7  1  0.25000000  0.91978000  0.71511800  1
  Zn  Zn0  1  0.75000000  0.12695700  0.86663100  1
  Zn  Zn1  1  0.25000000  0.87304300  0.13336900  1
  Zn  Zn2  1  0.25000000  0.37304300  0.36663100  1
  Zn  Zn3  1  0.75000000  0.62695700  0.63336900  1
  S  S0  1  0.75000000  0.18118400  0.72643500  1
  S  S1  1  0.25000000  0.81881600  0.27356500  1
  S  S2  1  0.25000000  0.31881600  0.22643500  1
  S  S3  1  0.75000000  0.68118400  0.77356500  1
  S  S4  1  0.25000000  0.49121800  0.59875700  1
  S  S5  1  0.75000000  0.50878200  0.40124300  1
  S  S6  1  0.75000000  0.00878200  0.09875700  1
  S  S7  1  0.25000000  0.99121800  0.90124300  1
  S  S8  1  0.75000000  0.37392800  0.92814600  1
  S  S9  1  0.25000000  0.62607200  0.07185400  1
  S  S10  1  0.25000000  0.12607200  0.42814600  1
  S  S11  1  0.75000000  0.87392800  0.57185400  1
loop_
_geom_bond_atom_site_label_1
_geom_bond_atom_site_label_2
_geom_bond_distance
_geom_bond_site_symmetry_2
S0 Zn0 2.362081 1_555
S0 Sr7 3.033924 1_545
S0 Sr7 3.033924 1_645
S0 Sr4 3.044998 1_655
S0 Sr4 3.044998 1_555
S0 Sr0 3.091580 1_555
S1 Zn1 2.362081 1_555
S1 Sr6 3.033924 1_565
S1 Sr6 3.033924 1_465
S1 Sr5 3.044998 1_555
S1 Sr5 3.044998 1_455
S1 Sr1 3.091580 1_555
S2 Zn2 2.362081 1_555
S2 Sr5 3.033924 1_455
S2 Sr5 3.033924 1_555
S2 Sr6 3.044998 1_455
S2 Sr6 3.044998 1_555
S2 Sr2 3.091580 1_555
S3 Zn3 2.362081 1_555
S3 Sr4 3.033924 1_555
S3 Sr4 3.033924 1_655
S3 Sr7 3.044998 1_655
S3 Sr7 3.044998 1_555
S3 Sr3 3.091580 1_555
S4 Zn3 2.421457 1_455
S4 Zn3 2.421457 1_555
S4 Sr0 3.105712 1_455
S4 Sr0 3.105712 1_555
S4 Sr4 3.134989 1_555
S4 Sr1 3.260002 1_555
S5 Zn2 2.421457 1_655
S5 Zn2 2.421457 1_555
S5 Sr1 3.105712 1_655
S5 Sr1 3.105712 1_555
S5 Sr5 3.134989 1_555
S5 Sr0 3.260002 1_555
S6 Zn1 2.421457 1_645
S6 Zn1 2.421457 1_545
S6 Sr2 3.105712 1_655
S6 Sr2 3.105712 1_555
S6 Sr6 3.134989 1_555
S6 Sr3 3.260002 1_544
S7 Zn0 2.421457 1_465
S7 Zn0 2.421457 1_565
S7 Sr3 3.105712 1_455
S7 Sr3 3.105712 1_555
S7 Sr7 3.134989 1_555
S7 Sr2 3.260002 1_566
S8 Zn0 2.339547 1_555
S8 Sr2 2.946635 1_556
S8 Sr2 2.946635 1_656
S8 Sr4 3.154498 1_555
S8 Sr4 3.154498 1_655
S8 Sr3 3.168932 1_555
S9 Zn1 2.339547 1_555
S9 Sr3 2.946635 1_454
S9 Sr3 2.946635 1_554
S9 Sr5 3.154498 1_455
S9 Sr5 3.154498 1_555
S9 Sr2 3.168932 1_555
S10 Zn2 2.339547 1_555
S10 Sr0 2.946635 1_455
S10 Sr0 2.946635 1_555
S10 Sr6 3.154498 1_555
S10 Sr6 3.154498 1_455
S10 Sr1 3.168932 1_545
S11 Zn3 2.339547 1_555
S11 Sr1 2.946635 1_555
S11 Sr1 2.946635 1_655
S11 Sr7 3.154498 1_555
S11 Sr7 3.154498 1_655
S11 Sr0 3.168932 1_565
