# generated using pymatgen
data_CsLa2TaTi2O10
_symmetry_space_group_name_H-M   'P 1'
_cell_length_a   3.89483470
_cell_length_b   3.89483470
_cell_length_c   15.71052733
_cell_angle_alpha   89.57125297
_cell_angle_beta   90.42874703
_cell_angle_gamma   90.06640539
_symmetry_Int_Tables_number   1
_chemical_formula_structural   CsLa2TaTi2O10
_chemical_formula_sum   'Cs1 La2 Ta1 Ti2 O10'
_cell_volume   238.31108272
_cell_formula_units_Z   1
loop_
 _symmetry_equiv_pos_site_id
 _symmetry_equiv_pos_as_xyz
  1  'x, y, z'
loop_
 _atom_site_type_symbol
 _atom_site_label
 _atom_site_symmetry_multiplicity
 _atom_site_fract_x
 _atom_site_fract_y
 _atom_site_fract_z
 _atom_site_occupancy
  Cs  Cs0  1  0.49994800  0.50005200  0.50771300  1
  La  La0  1  0.50738700  0.49261300  0.84570600  1
  La  La1  1  0.49953000  0.50047000  0.12792500  1
  Ta  Ta0  1  0.99971800  0.00028200  0.27804200  1
  Ti  Ti0  1  0.98422500  0.01577500  0.99847800  1
  Ti  Ti1  1  0.00040700  0.99959300  0.71553800  1
  O  O0  1  0.98660300  0.01339700  0.88000200  1
  O  O1  1  0.98498200  0.01501800  0.12881200  1
  O  O2  1  0.99883900  0.00116100  0.60786200  1
  O  O3  1  0.00222700  0.99777300  0.39208800  1
  O  O4  1  0.49875700  0.99942800  0.75145900  1
  O  O5  1  0.00057200  0.50124300  0.75145900  1
  O  O6  1  0.49711500  0.00356700  0.24844200  1
  O  O7  1  0.99643300  0.50288500  0.24844200  1
  O  O8  1  0.47615000  0.04189300  0.00901600  1
  O  O9  1  0.95810700  0.52385000  0.00901600  1
loop_
_geom_bond_atom_site_label_1
_geom_bond_atom_site_label_2
_geom_bond_distance
_geom_bond_site_symmetry_2
Cs0 O2 3.153422 1_555
Cs0 O2 3.170471 1_455
Cs0 O2 3.170471 1_565
Cs0 O2 3.192940 1_465
Cs0 O3 3.273984 1_555
Cs0 O3 3.297954 1_545
Cs0 O3 3.297954 1_655
Cs0 O3 3.327039 1_645
La0 O4 2.434120 1_545
La0 O5 2.434120 1_655
La0 O5 2.458801 1_555
La0 O4 2.458801 1_555
La0 O0 2.689923 1_555
La0 O0 2.807280 1_455
La0 O0 2.807280 1_565
La0 O0 2.925938 1_465
La0 O9 3.100972 1_556
La0 O8 3.100972 1_556
La0 O8 3.355862 1_566
La0 O9 3.355862 1_456
La1 O9 2.595241 1_555
La1 O8 2.595241 1_555
La1 O1 2.675370 1_555
La1 O7 2.697402 1_555
La1 O6 2.697402 1_555
La1 O6 2.735030 1_565
La1 O7 2.735030 1_455
La1 O1 2.753675 1_565
La1 O1 2.753675 1_455
La1 O8 2.807839 1_565
La1 O9 2.807839 1_455
La1 O1 2.836020 1_465
O0 Ti0 1.861505 1_555
O1 Ti0 2.047576 1_554
O1 Ta0 2.345030 1_555
O2 Ti1 1.691577 1_645
O3 Ta0 1.791630 1_465
O4 Ti1 2.017307 1_555
O4 Ti1 2.037763 1_655
O5 Ti1 2.017307 1_555
O5 Ti1 2.037763 1_545
O6 Ta0 1.995697 1_455
O6 Ta0 2.008678 1_555
O7 Ta0 1.995697 1_565
O7 Ta0 2.008678 1_555
O8 Ti0 1.924510 1_454
O8 Ti0 1.989799 1_554
O9 Ti0 1.924510 1_564
O9 Ti0 1.989799 1_554
