# generated using pymatgen
data_SrMgCu(PO4)2
_symmetry_space_group_name_H-M   'P 1'
_cell_length_a   5.65254000
_cell_length_b   6.75173623
_cell_length_c   9.22978971
_cell_angle_alpha   109.18844451
_cell_angle_beta   102.23291724
_cell_angle_gamma   99.40555824
_symmetry_Int_Tables_number   1
_chemical_formula_structural   SrMgCu(PO4)2
_chemical_formula_sum   'Sr2 Mg2 Cu2 P4 O16'
_cell_volume   314.59044991
_cell_formula_units_Z   2
loop_
 _symmetry_equiv_pos_site_id
 _symmetry_equiv_pos_as_xyz
  1  'x, y, z'
loop_
 _atom_site_type_symbol
 _atom_site_label
 _atom_site_symmetry_multiplicity
 _atom_site_fract_x
 _atom_site_fract_y
 _atom_site_fract_z
 _atom_site_occupancy
  Sr  Sr0  1  0.20066300  0.74438700  0.05967700  1
  Sr  Sr1  1  0.79933700  0.25561300  0.94032300  1
  Mg  Mg0  1  0.34154000  0.75403300  0.64801400  1
  Mg  Mg1  1  0.65846000  0.24596700  0.35198600  1
  Cu  Cu0  1  0.09653400  0.30310900  0.54682900  1
  Cu  Cu1  1  0.90346600  0.69689100  0.45317100  1
  P  P0  1  0.15395800  0.18518000  0.24242100  1
  P  P1  1  0.84604200  0.81482000  0.75757900  1
  P  P2  1  0.54064500  0.72629800  0.30112100  1
  P  P3  1  0.45935500  0.27370200  0.69887900  1
  O  O0  1  0.94692200  0.67372500  0.88020100  1
  O  O1  1  0.44247100  0.26912000  0.20870400  1
  O  O2  1  0.90696500  0.05032400  0.75036700  1
  O  O3  1  0.26733300  0.42093700  0.68053600  1
  O  O4  1  0.55752900  0.73088000  0.79129600  1
  O  O5  1  0.44872300  0.14213500  0.58834200  1
  O  O6  1  0.55127700  0.85786500  0.41165800  1
  O  O7  1  0.38559200  0.13213100  0.87458400  1
  O  O8  1  0.09303500  0.94967600  0.24963300  1
  O  O9  1  0.61440800  0.86786900  0.12541600  1
  O  O10  1  0.05307800  0.32627500  0.11979900  1
  O  O11  1  0.97738000  0.19024400  0.40422400  1
  O  O12  1  0.02262000  0.80975600  0.59577600  1
  O  O13  1  0.26743400  0.57368500  0.35565200  1
  O  O14  1  0.73266700  0.57906300  0.31946400  1
  O  O15  1  0.73256600  0.42631500  0.64434800  1
loop_
_geom_bond_atom_site_label_1
_geom_bond_atom_site_label_2
_geom_bond_distance
_geom_bond_site_symmetry_2
Mg0 O4 1.666724 1_555
Mg0 O12 1.896405 1_555
Mg0 O13 2.476713 1_555
Mg0 O7 2.648454 1_565
Mg1 O1 1.666724 1_555
Mg1 O11 1.896405 1_555
Mg1 O15 2.476713 1_555
Mg1 O9 2.648454 1_545
Cu0 O11 1.250599 1_455
Cu0 O3 1.298709 1_555
Cu0 O15 2.566457 1_455
Cu1 O12 1.250599 1_655
Cu1 O14 1.298709 1_555
Cu1 O13 2.566457 1_655
O0 P1 1.768159 1_555
O0 Sr0 1.810756 1_656
O1 P0 1.762547 1_555
O2 P1 1.597384 1_545
O2 Sr1 2.120223 1_555
O3 P3 1.606370 1_555
O4 P1 1.762547 1_555
O5 P3 1.092885 1_555
O6 P2 1.092885 1_555
O7 P3 2.211952 1_555
O7 Sr1 2.227474 1_555
O8 P0 1.597384 1_565
O8 Sr0 2.120223 1_555
O9 P2 2.211952 1_555
O9 Sr0 2.227474 1_555
O10 P0 1.768159 1_555
O10 Sr1 1.810756 1_454
O11 P0 1.958808 1_655
O12 P1 1.958808 1_455
O13 P2 1.962198 1_555
O13 P0 2.397535 1_555
O14 P2 1.606370 1_555
O15 P3 1.962198 1_555
O15 P1 2.397535 1_555
