# generated using pymatgen
data_Rb3YbN6
_symmetry_space_group_name_H-M   'P 1'
_cell_length_a   11.23216600
_cell_length_b   8.15101400
_cell_length_c   13.96282455
_cell_angle_alpha   58.80567142
_cell_angle_beta   90.00000000
_cell_angle_gamma   90.00000000
_symmetry_Int_Tables_number   1
_chemical_formula_structural   Rb3YbN6
_chemical_formula_sum   'Rb12 Yb4 N24'
_cell_volume   1093.51706584
_cell_formula_units_Z   4
loop_
 _symmetry_equiv_pos_site_id
 _symmetry_equiv_pos_as_xyz
  1  'x, y, z'
loop_
 _atom_site_type_symbol
 _atom_site_label
 _atom_site_symmetry_multiplicity
 _atom_site_fract_x
 _atom_site_fract_y
 _atom_site_fract_z
 _atom_site_occupancy
  Rb  Rb0  1  0.58920500  0.08401000  0.33547500  1
  Rb  Rb1  1  0.91079500  0.08401000  0.83547500  1
  Rb  Rb2  1  0.41079500  0.91599000  0.66452500  1
  Rb  Rb3  1  0.08920500  0.91599000  0.16452500  1
  Rb  Rb4  1  0.08553600  0.25771100  0.49626100  1
  Rb  Rb5  1  0.41446400  0.25771100  0.99626100  1
  Rb  Rb6  1  0.91446400  0.74228900  0.50373900  1
  Rb  Rb7  1  0.58553600  0.74228900  0.00373900  1
  Rb  Rb8  1  0.93041400  0.42078700  0.16749500  1
  Rb  Rb9  1  0.56958600  0.42078700  0.66749500  1
  Rb  Rb10  1  0.06958600  0.57921300  0.83250500  1
  Rb  Rb11  1  0.43041400  0.57921300  0.33250500  1
  Yb  Yb0  1  0.75269100  0.76667900  0.24466200  1
  Yb  Yb1  1  0.74730900  0.76667900  0.74466200  1
  Yb  Yb2  1  0.24730900  0.23332100  0.75533800  1
  Yb  Yb3  1  0.25269100  0.23332100  0.25533800  1
  N  N0  1  0.34351700  0.19014700  0.41881600  1
  N  N1  1  0.15648300  0.19014700  0.91881600  1
  N  N2  1  0.65648300  0.80985300  0.58118400  1
  N  N3  1  0.84351700  0.80985300  0.08118400  1
  N  N4  1  0.92742300  0.60397900  0.33657100  1
  N  N5  1  0.57257700  0.60397900  0.83657100  1
  N  N6  1  0.07257700  0.39602100  0.66342900  1
  N  N7  1  0.42742300  0.39602100  0.16342900  1
  N  N8  1  0.19147000  0.50257500  0.26491500  1
  N  N9  1  0.30853000  0.50257500  0.76491500  1
  N  N10  1  0.80853000  0.49742500  0.73508500  1
  N  N11  1  0.69147000  0.49742500  0.23508500  1
  N  N12  1  0.66190200  0.66391300  0.42625800  1
  N  N13  1  0.83809800  0.66391300  0.92625800  1
  N  N14  1  0.33809800  0.33608700  0.57374200  1
  N  N15  1  0.16190200  0.33608700  0.07374200  1
  N  N16  1  0.06739600  0.07039200  0.33338300  1
  N  N17  1  0.43260400  0.07039200  0.83338300  1
  N  N18  1  0.93260400  0.92960800  0.66661700  1
  N  N19  1  0.56739600  0.92960800  0.16661700  1
  N  N20  1  0.86192000  0.00580400  0.25887000  1
  N  N21  1  0.63808000  0.00580400  0.75887000  1
  N  N22  1  0.13808000  0.99419600  0.74113000  1
  N  N23  1  0.36192000  0.99419600  0.24113000  1
loop_
_geom_bond_atom_site_label_1
_geom_bond_atom_site_label_2
_geom_bond_distance
_geom_bond_site_symmetry_2
N0 Yb3 2.354319 1_555
N0 Rb11 2.916001 1_555
N0 Rb2 3.064852 1_545
N0 Rb4 3.238221 1_555
N0 Rb0 3.280376 1_555
N1 Yb2 2.354319 1_555
N1 Rb10 2.916001 1_555
N1 Rb3 3.064852 1_546
N1 Rb5 3.238221 1_555
N1 Rb1 3.280376 1_455
N2 Yb1 2.354319 1_555
N2 Rb9 2.916001 1_555
N2 Rb0 3.064852 1_565
N2 Rb6 3.238221 1_555
N2 Rb2 3.280376 1_555
N3 Yb0 2.354319 1_555
N3 Rb8 2.916001 1_555
N3 Rb1 3.064852 1_564
N3 Rb7 3.238221 1_555
N3 Rb3 3.280376 1_655
N4 Yb0 2.344040 1_555
N4 Rb3 3.035148 1_655
N4 Rb6 3.076719 1_555
N4 Rb4 3.093983 1_655
N4 Rb8 3.384622 1_555
N5 Yb1 2.344040 1_555
N5 Rb2 3.035148 1_555
N5 Rb7 3.076719 1_556
N5 Rb5 3.093983 1_555
N5 Rb9 3.384622 1_555
N6 Yb2 2.344040 1_555
N6 Rb1 3.035148 1_455
N6 Rb4 3.076719 1_555
N6 Rb6 3.093983 1_455
N6 Rb10 3.384622 1_555
N7 Yb3 2.344040 1_555
N7 Rb0 3.035148 1_555
N7 Rb5 3.076719 1_554
N7 Rb7 3.093983 1_555
N7 Rb11 3.384622 1_555
N8 Yb3 2.368845 1_555
N8 Rb11 3.015737 1_555
N8 Rb4 3.025768 1_555
N8 Rb3 3.121939 1_555
N8 Rb8 3.439773 1_455
N9 Yb2 2.368845 1_555
N9 Rb10 3.015737 1_555
N9 Rb5 3.025768 1_555
N9 Rb2 3.121939 1_555
N9 Rb9 3.439773 1_555
N10 Yb1 2.368845 1_555
N10 Rb9 3.015737 1_555
N10 Rb6 3.025768 1_555
N10 Rb1 3.121939 1_555
N10 Rb10 3.439773 1_655
N11 Yb0 2.368845 1_555
N11 Rb8 3.015737 1_555
N11 Rb7 3.025768 1_555
N11 Rb0 3.121939 1_555
N11 Rb11 3.439773 1_555
N12 Yb0 2.443489 1_555
N12 Rb9 3.071403 1_555
N12 Rb0 3.082618 1_565
N12 Rb11 3.144367 1_555
N12 Rb6 3.215899 1_555
N13 Yb1 2.443489 1_555
N13 Rb8 3.071403 1_556
N13 Rb1 3.082618 1_565
N13 Rb10 3.144367 1_655
N13 Rb7 3.215899 1_556
N14 Yb2 2.443489 1_555
N14 Rb11 3.071403 1_555
N14 Rb2 3.082618 1_545
N14 Rb9 3.144367 1_555
N14 Rb4 3.215899 1_555
N15 Yb3 2.443489 1_555
N15 Rb10 3.071403 1_554
N15 Rb3 3.082618 1_545
N15 Rb8 3.144367 1_455
N15 Rb5 3.215899 1_554
N16 Yb3 2.404936 1_555
N16 Rb8 3.006116 1_455
N16 Rb6 3.028409 1_445
N16 Rb3 3.205712 1_545
N16 Rb4 3.337950 1_555
N17 Yb2 2.404936 1_555
N17 Rb9 3.006116 1_555
N17 Rb7 3.028409 1_546
N17 Rb2 3.205712 1_545
N17 Rb5 3.337950 1_555
N18 Yb1 2.404936 1_555
N18 Rb10 3.006116 1_655
N18 Rb4 3.028409 1_665
N18 Rb1 3.205712 1_565
N18 Rb6 3.337950 1_555
N19 Yb0 2.404936 1_555
N19 Rb11 3.006116 1_555
N19 Rb5 3.028409 1_564
N19 Rb0 3.205712 1_565
N19 Rb7 3.337950 1_555
N20 Yb0 2.396700 1_545
N20 Rb6 3.007400 1_545
N20 Rb8 3.031621 1_555
N20 Rb3 3.128510 1_645
N20 Rb0 3.411719 1_555
N21 Yb1 2.396700 1_545
N21 Rb7 3.007400 1_546
N21 Rb9 3.031621 1_555
N21 Rb2 3.128510 1_545
N21 Rb1 3.411719 1_555
N22 Yb2 2.396700 1_565
N22 Rb4 3.007400 1_565
N22 Rb10 3.031621 1_555
N22 Rb1 3.128510 1_465
N22 Rb2 3.411719 1_555
N23 Yb3 2.396700 1_565
N23 Rb5 3.007400 1_564
N23 Rb11 3.031621 1_555
N23 Rb0 3.128510 1_565
N23 Rb3 3.411719 1_555
