# generated using pymatgen
data_Ca8Mn8O21
_symmetry_space_group_name_H-M   'P 1'
_cell_length_a   10.95947961
_cell_length_b   15.42821828
_cell_length_c   10.94319195
_cell_angle_alpha   89.99728411
_cell_angle_beta   91.68288909
_cell_angle_gamma   90.44047534
_symmetry_Int_Tables_number   1
_chemical_formula_structural   Ca8Mn8O21
_chemical_formula_sum   'Ca32 Mn32 O84'
_cell_volume   1849.47949854
_cell_formula_units_Z   4
loop_
 _symmetry_equiv_pos_site_id
 _symmetry_equiv_pos_as_xyz
  1  'x, y, z'
loop_
 _atom_site_type_symbol
 _atom_site_label
 _atom_site_symmetry_multiplicity
 _atom_site_fract_x
 _atom_site_fract_y
 _atom_site_fract_z
 _atom_site_occupancy
  Ca  Ca0  1  0.99784919  0.11125565  0.51114437  1
  Ca  Ca1  1  0.99948547  0.11024238  0.00649593  1
  Ca  Ca2  1  0.00841239  0.62152452  0.51141854  1
  Ca  Ca3  1  0.01914539  0.62044948  0.99303196  1
  Ca  Ca4  1  0.54456903  0.12695304  0.47353188  1
  Ca  Ca5  1  0.54249770  0.12962093  0.98393238  1
  Ca  Ca6  1  0.52902563  0.62812215  0.51162252  1
  Ca  Ca7  1  0.53240217  0.62230756  0.97395473  1
  Ca  Ca8  1  0.50983321  0.38682015  0.98327867  1
  Ca  Ca9  1  0.50214602  0.37914452  0.50783944  1
  Ca  Ca10  1  0.51649272  0.86075978  0.98177156  1
  Ca  Ca11  1  0.49151416  0.86777757  0.50822609  1
  Ca  Ca12  1  0.96440410  0.38533995  0.00626347  1
  Ca  Ca13  1  0.96064366  0.38508421  0.50073424  1
  Ca  Ca14  1  0.95862812  0.88138740  0.00097696  1
  Ca  Ca15  1  0.96746048  0.87364080  0.51349552  1
  Ca  Ca16  1  0.23560618  0.39145274  0.25197269  1
  Ca  Ca17  1  0.23623606  0.39818915  0.77490030  1
  Ca  Ca18  1  0.23146069  0.89083184  0.26967275  1
  Ca  Ca19  1  0.22007920  0.87400278  0.73634061  1
  Ca  Ca20  1  0.75185093  0.37973987  0.25281992  1
  Ca  Ca21  1  0.73612251  0.38247537  0.75280439  1
  Ca  Ca22  1  0.76042516  0.86981004  0.25559060  1
  Ca  Ca23  1  0.73885456  0.86789154  0.75026449  1
  Ca  Ca24  1  0.22641855  0.11878624  0.23925198  1
  Ca  Ca25  1  0.22381448  0.11490728  0.74453918  1
  Ca  Ca26  1  0.23809753  0.62485909  0.26178324  1
  Ca  Ca27  1  0.26526999  0.62869183  0.74056417  1
  Ca  Ca28  1  0.78254429  0.12298104  0.25413222  1
  Ca  Ca29  1  0.78290601  0.12360690  0.75248043  1
  Ca  Ca30  1  0.78285128  0.62026143  0.25523775  1
  Ca  Ca31  1  0.77377990  0.62254356  0.75866150  1
  Mn  Mn0  1  0.99372162  0.99594909  0.25489613  1
  Mn  Mn1  1  0.99277366  0.99418064  0.75541766  1
  Mn  Mn2  1  0.00300202  0.50074651  0.25132987  1
  Mn  Mn3  1  0.99797910  0.49921887  0.75493102  1
  Mn  Mn4  1  0.50615366  0.98521723  0.23068293  1
  Mn  Mn5  1  0.50742163  0.99462784  0.73241348  1
  Mn  Mn6  1  0.50685687  0.48999726  0.24438442  1
  Mn  Mn7  1  0.49516545  0.50083903  0.74910282  1
  Mn  Mn8  1  0.24313954  0.99724449  0.01461760  1
  Mn  Mn9  1  0.23975719  0.00424244  0.51425216  1
  Mn  Mn10  1  0.25487269  0.50816781  0.01009421  1
  Mn  Mn11  1  0.23827168  0.49461100  0.51134084  1
  Mn  Mn12  1  0.74186383  0.00114245  0.99604723  1
  Mn  Mn13  1  0.74502866  0.99844197  0.49523694  1
  Mn  Mn14  1  0.75150483  0.50259712  0.00153354  1
  Mn  Mn15  1  0.74533183  0.50224013  0.50406647  1
  Mn  Mn16  1  0.26825360  0.23923332  0.95762021  1
  Mn  Mn17  1  0.26753784  0.24339837  0.45217903  1
  Mn  Mn18  1  0.26151231  0.75533684  0.97824901  1
  Mn  Mn19  1  0.24803962  0.75202086  0.49820808  1
  Mn  Mn20  1  0.75476607  0.24918159  0.00460241  1
  Mn  Mn21  1  0.75721443  0.24843124  0.50318481  1
  Mn  Mn22  1  0.75452664  0.74620755  0.00079959  1
  Mn  Mn23  1  0.75253568  0.74570998  0.50538236  1
  Mn  Mn24  1  0.99469576  0.25347443  0.25794818  1
  Mn  Mn25  1  0.99446098  0.25609513  0.76489851  1
  Mn  Mn26  1  0.99781706  0.75082017  0.26389634  1
  Mn  Mn27  1  0.99724723  0.75010990  0.75038450  1
  Mn  Mn28  1  0.51297829  0.25236463  0.24894219  1
  Mn  Mn29  1  0.51569407  0.24758663  0.74948550  1
  Mn  Mn30  1  0.51955972  0.74998337  0.26180254  1
  Mn  Mn31  1  0.50255432  0.74749341  0.74612577  1
  O  O0  1  0.09885605  0.77131008  0.60887661  1
  O  O1  1  0.58339968  0.26049980  0.08730702  1
  O  O2  1  0.58265783  0.25284146  0.59172797  1
  O  O3  1  0.59673171  0.75613180  0.10763594  1
  O  O4  1  0.60136761  0.76157592  0.60083302  1
  O  O5  1  0.39867185  0.18428542  0.34477157  1
  O  O6  1  0.40202294  0.18868171  0.84936274  1
  O  O7  1  0.40680462  0.69847478  0.36134544  1
  O  O8  1  0.40949135  0.73235823  0.89603072  1
  O  O9  1  0.91172676  0.23714210  0.42049878  1
  O  O10  1  0.91038864  0.23612239  0.92515689  1
  O  O11  1  0.89434142  0.72919688  0.40768270  1
  O  O12  1  0.89876345  0.73195687  0.90280898  1
  O  O13  1  0.16500443  0.25283400  0.29371531  1
  O  O14  1  0.16687724  0.25169919  0.80990880  1
  O  O15  1  0.16093830  0.75117493  0.33535637  1
  O  O16  1  0.14605585  0.73925621  0.85000826  1
  O  O17  1  0.65871703  0.22636505  0.35254320  1
  O  O18  1  0.66028349  0.22606883  0.85017821  1
  O  O19  1  0.65944183  0.72188195  0.35252866  1
  O  O20  1  0.64959453  0.72861105  0.85382467  1
  O  O21  1  0.35487961  0.76642028  0.64350506  1
  O  O22  1  0.84734310  0.27080898  0.15580136  1
  O  O23  1  0.85324831  0.27438018  0.65676972  1
  O  O24  1  0.86635569  0.77084257  0.14162858  1
  O  O25  1  0.85089240  0.76955903  0.64854766  1
  O  O26  1  0.35534733  0.51151631  0.16627178  1
  O  O27  1  0.34941356  0.49022965  0.64770465  1
  O  O28  1  0.34817507  0.00695318  0.16553448  1
  O  O29  1  0.34749684  0.00143797  0.66358375  1
  O  O30  1  0.85822139  0.48407209  0.14551856  1
  O  O31  1  0.85456778  0.47935551  0.64669261  1
  O  O32  1  0.84761075  0.98066893  0.14317671  1
  O  O33  1  0.84669885  0.97983223  0.64459276  1
  O  O34  1  0.14766941  0.01441693  0.36340044  1
  O  O35  1  0.15184239  0.00272758  0.86390847  1
  O  O36  1  0.15004878  0.50813004  0.35636648  1
  O  O37  1  0.14892724  0.52397495  0.86146264  1
  O  O38  1  0.63362896  0.02361573  0.33869041  1
  O  O39  1  0.63217474  0.03200134  0.84331200  1
  O  O40  1  0.62377005  0.52514761  0.36569687  1
  O  O41  1  0.64236219  0.51529257  0.85714533  1
  O  O42  1  0.39505632  0.51464989  0.90259150  1
  O  O43  1  0.88775049  0.01646939  0.39185974  1
  O  O44  1  0.88660936  0.01394850  0.89531991  1
  O  O45  1  0.89173164  0.51798641  0.39062218  1
  O  O46  1  0.89327399  0.51764842  0.89817055  1
  O  O47  1  0.11155797  0.47735019  0.10675852  1
  O  O48  1  0.09718715  0.47311370  0.61689063  1
  O  O49  1  0.09604286  0.97433809  0.11894727  1
  O  O50  1  0.09479649  0.98030754  0.61866316  1
  O  O51  1  0.61107461  0.48842901  0.10674204  1
  O  O52  1  0.59984295  0.48569952  0.61220109  1
  O  O53  1  0.58524780  0.99186429  0.07703362  1
  O  O54  1  0.58838338  0.99545287  0.57800667  1
  O  O55  1  0.99738616  0.37771980  0.28601982  1
  O  O56  1  0.01002842  0.37888621  0.80054473  1
  O  O57  1  0.99496304  0.87369932  0.29639066  1
  O  O58  1  0.99760908  0.87216019  0.79203107  1
  O  O59  1  0.47139492  0.37469003  0.29121068  1
  O  O60  1  0.48781016  0.37088723  0.77007229  1
  O  O61  1  0.47230624  0.87134285  0.29020720  1
  O  O62  1  0.51598478  0.87376621  0.77407757  1
  O  O63  1  0.48646695  0.62488789  0.71975511  1
  O  O64  1  0.99908982  0.12813149  0.21770750  1
  O  O65  1  0.99990063  0.12918142  0.72679395  1
  O  O66  1  0.00789216  0.62779918  0.21656074  1
  O  O67  1  0.99032416  0.62410275  0.71897740  1
  O  O68  1  0.22399936  0.12929272  0.02406066  1
  O  O69  1  0.22193288  0.13276678  0.53532553  1
  O  O70  1  0.23144531  0.65153313  0.05457221  1
  O  O71  1  0.23023495  0.62426569  0.52330372  1
  O  O72  1  0.74822132  0.12530142  0.04089829  1
  O  O73  1  0.75409691  0.12446197  0.53745946  1
  O  O74  1  0.74537567  0.62441817  0.03976899  1
  O  O75  1  0.74540546  0.62408005  0.54569424  1
  O  O76  1  0.28382332  0.37164771  0.47413676  1
  O  O77  1  0.29373993  0.35581466  0.99215433  1
  O  O78  1  0.28033211  0.88408326  0.47540578  1
  O  O79  1  0.29468641  0.87588596  0.99910567  1
  O  O80  1  0.74272185  0.37559350  0.46678030  1
  O  O81  1  0.74824117  0.37555380  0.96797236  1
  O  O82  1  0.74460699  0.87312550  0.46468623  1
  O  O83  1  0.74125415  0.87402891  0.96593382  1
loop_
_geom_bond_atom_site_label_1
_geom_bond_atom_site_label_2
_geom_bond_distance
_geom_bond_site_symmetry_2
Ca0 O43 2.275741 1_555
Ca0 O9 2.370654 1_555
Ca0 O65 2.375488 1_555
Ca0 O69 2.482061 1_655
Ca0 O50 2.560121 1_645
Ca0 O73 2.704509 1_555
Ca0 O34 2.781379 1_655
Ca1 O44 2.258571 1_554
Ca1 O64 2.327896 1_555
Ca1 O10 2.344242 1_554
Ca1 O68 2.477654 1_655
Ca1 O49 2.643471 1_645
Ca1 O72 2.801686 1_555
Ca1 O35 2.858348 1_654
Ca1 O32 3.016418 1_545
Ca1 O65 3.074867 1_554
Ca2 O67 2.286158 1_455
Ca2 O11 2.357867 1_455
Ca2 O45 2.409121 1_455
Ca2 O71 2.430762 1_555
Ca2 O0 2.713527 1_555
Ca2 O48 2.736714 1_555
Ca2 O75 2.918190 1_455
Ca2 O36 2.923341 1_555
Ca3 O46 2.319164 1_455
Ca3 O12 2.373457 1_455
Ca3 O70 2.447013 1_556
Ca3 O66 2.455509 1_556
Ca3 O37 2.542539 1_555
Ca3 O47 2.721935 1_556
Ca3 O16 2.798637 1_555
Ca4 O5 2.283371 1_555
Ca4 O2 2.361266 1_555
Ca4 O54 2.374085 1_545
Ca4 O73 2.381375 1_555
Ca4 O17 2.395406 1_555
Ca4 O38 2.404294 1_555
Ca5 O6 2.292888 1_555
Ca5 O72 2.322959 1_556
Ca5 O1 2.348289 1_556
Ca5 O39 2.390413 1_555
Ca5 O53 2.400344 1_546
Ca5 O18 2.470667 1_555
Ca6 O63 2.338736 1_555
Ca6 O7 2.359989 1_555
Ca6 O75 2.390990 1_555
Ca6 O4 2.398033 1_555
Ca6 O40 2.505043 1_555
Ca6 O52 2.572520 1_555
Ca6 O19 2.698253 1_555
Ca7 O8 2.322079 1_555
Ca7 O42 2.350970 1_555
Ca7 O74 2.422353 1_556
Ca7 O41 2.435874 1_555
Ca7 O20 2.476734 1_555
Ca7 O3 2.610998 1_556
Ca7 O51 2.659846 1_556
Ca7 O63 2.812691 1_555
Ca8 O51 2.323671 1_556
Ca8 O60 2.351250 1_555
Ca8 O1 2.390448 1_556
Ca8 O77 2.417241 1_555
Ca8 O42 2.494835 1_555
Ca8 O81 2.630176 1_555
Ca8 O41 2.831394 1_555
Ca9 O52 2.248237 1_555
Ca9 O2 2.323180 1_555
Ca9 O59 2.385546 1_555
Ca9 O76 2.412125 1_555
Ca9 O80 2.688546 1_555
Ca9 O27 2.876906 1_555
Ca9 O60 2.881324 1_555
Ca10 O62 2.281515 1_555
Ca10 O3 2.286178 1_556
Ca10 O53 2.382544 1_556
Ca10 O79 2.456713 1_555
Ca10 O8 2.465718 1_555
Ca10 O83 2.481322 1_555
Ca11 O4 2.262670 1_555
Ca11 O78 2.347138 1_555
Ca11 O54 2.347485 1_555
Ca11 O61 2.389593 1_555
Ca11 O21 2.640683 1_555
Ca11 O82 2.828729 1_555
Ca12 O56 2.322676 1_654
Ca12 O47 2.384581 1_655
Ca12 O81 2.397269 1_554
Ca12 O30 2.475567 1_555
Ca12 O46 2.478674 1_554
Ca12 O10 2.527160 1_554
Ca12 O22 2.744864 1_555
Ca13 O48 2.357293 1_655
Ca13 O55 2.398389 1_555
Ca13 O80 2.409570 1_555
Ca13 O31 2.480599 1_555
Ca13 O45 2.489338 1_555
Ca13 O9 2.494355 1_555
Ca13 O23 2.702772 1_555
Ca14 O58 2.342938 1_554
Ca14 O83 2.403646 1_554
Ca14 O49 2.417424 1_655
Ca14 O44 2.472568 1_564
Ca14 O24 2.522921 1_555
Ca14 O32 2.527479 1_555
Ca14 O12 2.614416 1_554
Ca15 O0 2.366898 1_655
Ca15 O57 2.403628 1_555
Ca15 O50 2.418845 1_655
Ca15 O82 2.484663 1_555
Ca15 O25 2.544401 1_555
Ca15 O33 2.576627 1_555
Ca15 O11 2.620594 1_555
Ca15 O43 2.711413 1_565
Ca16 O13 2.318701 1_555
Ca16 O36 2.348149 1_555
Ca16 O47 2.455686 1_555
Ca16 O26 2.463268 1_555
Ca16 O76 2.492031 1_555
Ca16 O59 2.621838 1_555
Ca16 O55 2.654889 1_455
Ca16 O77 2.983989 1_554
Ca17 O27 2.359357 1_555
Ca17 O37 2.379283 1_555
Ca17 O14 2.413119 1_555
Ca17 O56 2.518526 1_555
Ca17 O77 2.528841 1_555
Ca17 O48 2.553532 1_555
Ca17 O60 2.794342 1_555
Ca17 O42 2.831952 1_555
Ca18 O78 2.301395 1_555
Ca18 O34 2.369227 1_565
Ca18 O15 2.400717 1_555
Ca18 O28 2.488915 1_565
Ca18 O49 2.543311 1_555
Ca18 O57 2.628160 1_455
Ca18 O61 2.661850 1_555
Ca19 O0 2.465742 1_555
Ca19 O21 2.468927 1_555
Ca19 O50 2.482748 1_555
Ca19 O58 2.530421 1_455
Ca19 O29 2.544096 1_565
Ca19 O35 2.556691 1_565
Ca19 O16 2.561310 1_555
Ca19 O78 2.953476 1_555
Ca19 O79 2.966376 1_555
Ca20 O22 2.267018 1_555
Ca20 O30 2.319520 1_555
Ca20 O80 2.347328 1_555
Ca20 O55 2.705177 1_555
Ca20 O51 2.764474 1_555
Ca20 O17 2.803598 1_555
Ca21 O31 2.307830 1_555
Ca21 O81 2.356931 1_555
Ca21 O23 2.376082 1_555
Ca21 O41 2.580718 1_555
Ca21 O52 2.652502 1_555
Ca21 O60 2.737932 1_555
Ca21 O18 2.769503 1_555
Ca22 O82 2.300403 1_555
Ca22 O24 2.312345 1_555
Ca22 O32 2.322786 1_555
Ca22 O57 2.596188 1_555
Ca22 O19 2.754777 1_555
Ca22 O38 2.917879 1_565
Ca22 O3 2.949098 1_555
Ca23 O25 2.270979 1_555
Ca23 O83 2.361381 1_555
Ca23 O33 2.401155 1_555
Ca23 O62 2.466354 1_555
Ca23 O20 2.625148 1_555
Ca23 O4 2.729918 1_555
Ca23 O58 2.859386 1_555
Ca23 O39 2.988317 1_565
Ca24 O13 2.265046 1_555
Ca24 O34 2.287081 1_555
Ca24 O28 2.346716 1_555
Ca24 O68 2.359831 1_555
Ca24 O5 2.400233 1_555
Ca24 O64 2.500898 1_455
Ca25 O69 2.305483 1_555
Ca25 O35 2.315878 1_555
Ca25 O14 2.324164 1_555
Ca25 O29 2.407087 1_555
Ca25 O65 2.467496 1_455
Ca25 O6 2.502041 1_555
Ca25 O50 2.837237 1_545
Ca26 O15 2.286201 1_555
Ca26 O36 2.297295 1_555
Ca26 O70 2.303719 1_555
Ca26 O7 2.396897 1_555
Ca26 O26 2.432106 1_555
Ca26 O66 2.557453 1_555
Ca26 O71 2.865706 1_555
Ca27 O71 2.398062 1_555
Ca27 O63 2.442678 1_555
Ca27 O37 2.460384 1_555
Ca27 O16 2.485473 1_555
Ca27 O27 2.555780 1_555
Ca27 O21 2.576197 1_555
Ca27 O8 2.784633 1_555
Ca27 O42 2.855316 1_555
Ca27 O67 3.015872 1_455
Ca28 O72 2.352968 1_555
Ca28 O17 2.380097 1_555
Ca28 O64 2.418690 1_555
Ca28 O38 2.433118 1_555
Ca28 O43 2.495641 1_555
Ca28 O32 2.622736 1_545
Ca28 O22 2.623673 1_555
Ca28 O9 2.869091 1_555
Ca29 O18 2.359067 1_555
Ca29 O73 2.364946 1_555
Ca29 O39 2.403074 1_555
Ca29 O65 2.403771 1_555
Ca29 O44 2.553884 1_555
Ca29 O33 2.622140 1_545
Ca29 O23 2.668703 1_555
Ca29 O10 2.888610 1_555
Ca30 O19 2.353339 1_555
Ca30 O74 2.382452 1_555
Ca30 O45 2.456335 1_555
Ca30 O66 2.516416 1_655
Ca30 O30 2.573709 1_555
Ca30 O40 2.595842 1_555
Ca30 O11 2.636216 1_555
Ca30 O24 2.795408 1_555
Ca31 O75 2.342270 1_555
Ca31 O20 2.394242 1_555
Ca31 O67 2.425069 1_555
Ca31 O41 2.455247 1_555
Ca31 O46 2.565098 1_555
Ca31 O12 2.655530 1_555
Ca31 O31 2.694366 1_555
Ca31 O25 2.709425 1_555
Mn0 O49 1.919833 1_655
Mn0 O57 1.940022 1_555
Mn0 O43 1.950244 1_565
Mn0 O32 1.998410 1_555
Mn0 O34 2.052471 1_665
Mn0 O64 2.080256 1_565
Mn1 O50 1.907248 1_655
Mn1 O58 1.925509 1_555
Mn1 O44 1.975038 1_565
Mn1 O33 1.990796 1_555
Mn1 O35 2.083498 1_665
Mn1 O65 2.107424 1_565
Mn2 O55 1.936524 1_455
Mn2 O30 1.952041 1_455
Mn2 O36 1.954400 1_555
Mn2 O66 1.997379 1_555
Mn2 O45 1.998886 1_455
Mn2 O47 2.041049 1_555
Mn3 O56 1.926933 1_655
Mn3 O48 1.931203 1_655
Mn3 O31 1.962259 1_555
Mn3 O67 1.968407 1_555
Mn3 O46 1.991329 1_555
Mn3 O37 2.029473 1_655
Mn4 O28 1.885405 1_565
Mn4 O38 1.894756 1_565
Mn4 O61 1.911176 1_555
Mn4 O53 1.916583 1_555
Mn5 O39 1.888138 1_565
Mn5 O29 1.890923 1_565
Mn5 O62 1.921930 1_555
Mn5 O54 1.931435 1_555
Mn6 O26 1.877003 1_555
Mn6 O59 1.891929 1_555
Mn6 O40 1.894122 1_555
Mn6 O51 1.917133 1_555
Mn7 O27 1.923932 1_555
Mn7 O52 1.928777 1_555
Mn7 O63 1.943196 1_555
Mn7 O41 1.983055 1_555
Mn7 O60 2.019266 1_555
Mn7 O42 2.045052 1_555
Mn8 O35 1.905951 1_564
Mn8 O79 1.968645 1_554
Mn8 O28 1.990163 1_565
Mn8 O49 2.031393 1_555
Mn8 O68 2.052562 1_565
Mn9 O34 1.916478 1_555
Mn9 O78 1.959346 1_545
Mn9 O29 1.988474 1_555
Mn9 O69 2.007955 1_555
Mn9 O50 2.015783 1_545
Mn10 O42 1.964204 1_554
Mn10 O47 1.974348 1_555
Mn10 O37 1.986593 1_554
Mn10 O26 2.006179 1_555
Mn10 O70 2.282844 1_555
Mn10 O77 2.401117 1_554
Mn11 O27 1.899883 1_555
Mn11 O36 1.939391 1_555
Mn11 O48 1.982902 1_555
Mn11 O71 2.007404 1_555
Mn11 O76 2.010114 1_555
Mn12 O53 1.958984 1_546
Mn12 O44 1.966819 1_555
Mn12 O72 1.977655 1_556
Mn12 O32 1.982723 1_546
Mn12 O83 1.988573 1_545
Mn12 O39 2.087133 1_555
Mn13 O82 1.962065 1_555
Mn13 O54 1.964658 1_555
Mn13 O33 1.973135 1_555
Mn13 O43 1.975081 1_565
Mn13 O73 1.999487 1_565
Mn13 O38 2.112003 1_565
Mn14 O74 1.927616 1_555
Mn14 O30 1.956809 1_555
Mn14 O51 1.959806 1_555
Mn14 O46 1.960878 1_554
Mn14 O41 1.964258 1_554
Mn14 O81 1.994038 1_554
Mn15 O75 1.934192 1_555
Mn15 O31 1.972466 1_555
Mn15 O80 1.995918 1_555
Mn15 O40 2.020229 1_555
Mn15 O52 2.027887 1_555
Mn15 O45 2.070140 1_555
Mn16 O77 1.855287 1_555
Mn16 O68 1.910199 1_556
Mn16 O14 1.944740 1_555
Mn16 O6 2.068987 1_555
Mn17 O76 1.999195 1_555
Mn17 O69 2.001120 1_555
Mn17 O13 2.044275 1_555
Mn17 O5 2.097183 1_555
Mn18 O70 1.838184 1_556
Mn18 O16 1.876960 1_555
Mn18 O79 1.904762 1_555
Mn18 O8 1.913092 1_555
Mn19 O21 1.958369 1_555
Mn19 O15 1.996807 1_555
Mn19 O71 1.998914 1_555
Mn19 O78 2.081568 1_555
Mn19 O0 2.086194 1_555
Mn19 O7 2.475569 1_555
Mn20 O22 1.942855 1_555
Mn20 O10 1.948768 1_554
Mn20 O72 1.953274 1_555
Mn20 O18 1.986634 1_554
Mn20 O81 1.991859 1_554
Mn20 O1 2.117006 1_555
Mn21 O73 1.949272 1_555
Mn21 O9 1.952217 1_555
Mn21 O17 1.971956 1_555
Mn21 O23 1.995611 1_555
Mn21 O80 2.008466 1_555
Mn21 O2 2.171203 1_555
Mn22 O74 1.929267 1_555
Mn22 O12 1.949862 1_554
Mn22 O20 1.967150 1_554
Mn22 O24 1.975734 1_555
Mn22 O83 2.014154 1_554
Mn22 O3 2.122217 1_555
Mn23 O25 1.909609 1_555
Mn23 O75 1.929191 1_555
Mn23 O11 1.930535 1_555
Mn23 O19 1.966744 1_555
Mn23 O4 2.000901 1_555
Mn23 O82 2.017548 1_555
Mn24 O13 1.895909 1_655
Mn24 O55 1.941221 1_555
Mn24 O22 1.956922 1_555
Mn24 O64 1.984603 1_555
Mn24 O9 2.036163 1_555
Mn25 O56 1.939432 1_655
Mn25 O14 1.940379 1_655
Mn25 O23 1.942669 1_555
Mn25 O65 2.003680 1_555
Mn25 O10 2.027314 1_555
Mn26 O57 1.929543 1_555
Mn26 O15 1.930091 1_655
Mn26 O24 1.963416 1_555
Mn26 O66 1.972201 1_655
Mn26 O11 1.993019 1_555
Mn27 O58 1.937354 1_555
Mn27 O16 1.943207 1_655
Mn27 O25 1.951174 1_555
Mn27 O0 1.959765 1_655
Mn27 O67 1.974725 1_555
Mn27 O12 2.031429 1_555
Mn28 O1 1.954160 1_555
Mn28 O5 1.956815 1_555
Mn28 O17 1.975044 1_555
Mn28 O59 2.002273 1_555
Mn29 O2 1.897105 1_555
Mn29 O6 1.906552 1_555
Mn29 O18 1.934147 1_555
Mn29 O60 1.943178 1_555
Mn30 O7 1.846366 1_555
Mn30 O19 1.855981 1_555
Mn30 O3 1.911308 1_555
Mn30 O61 1.973567 1_555
Mn31 O63 1.919477 1_555
Mn31 O4 1.960981 1_555
Mn31 O21 1.966270 1_555
Mn31 O8 1.969868 1_555
Mn31 O62 1.975747 1_555
Mn31 O20 1.991584 1_555
