# generated using pymatgen
data_Ce3Y(InAu2)4
_symmetry_space_group_name_H-M   'P 1'
_cell_length_a   16.20585426
_cell_length_b   16.20585426
_cell_length_c   16.20585396
_cell_angle_alpha   18.04655844
_cell_angle_beta   18.04655844
_cell_angle_gamma   18.04655636
_symmetry_Int_Tables_number   1
_chemical_formula_structural   Ce3Y(InAu2)4
_chemical_formula_sum   'Ce3 Y1 In4 Au8'
_cell_volume   356.66081729
_cell_formula_units_Z   1
loop_
 _symmetry_equiv_pos_site_id
 _symmetry_equiv_pos_as_xyz
  1  'x, y, z'
loop_
 _atom_site_type_symbol
 _atom_site_label
 _atom_site_symmetry_multiplicity
 _atom_site_fract_x
 _atom_site_fract_y
 _atom_site_fract_z
 _atom_site_occupancy
  Ce  Ce0  1  0.25034000  0.25034000  0.25034000  1
  Ce  Ce1  1  0.50000000  0.50000000  0.50000000  1
  Ce  Ce2  1  0.74966000  0.74966000  0.74966000  1
  Y  Y0  1  0.00000000  0.00000000  0.00000000  1
  In  In0  1  0.87549100  0.87549100  0.87549100  1
  In  In1  1  0.12450900  0.12450900  0.12450900  1
  In  In2  1  0.37508200  0.37508200  0.37508200  1
  In  In3  1  0.62491800  0.62491800  0.62491800  1
  Au  Au0  1  0.18630300  0.18630300  0.18630300  1
  Au  Au1  1  0.43575100  0.43575100  0.43575100  1
  Au  Au2  1  0.68463900  0.68463900  0.68463900  1
  Au  Au3  1  0.93666500  0.93666500  0.93666500  1
  Au  Au4  1  0.81369700  0.81369700  0.81369700  1
  Au  Au5  1  0.06333500  0.06333500  0.06333500  1
  Au  Au6  1  0.31536100  0.31536100  0.31536100  1
  Au  Au7  1  0.56424900  0.56424900  0.56424900  1
loop_
_geom_bond_atom_site_label_1
_geom_bond_atom_site_label_2
_geom_bond_distance
_geom_bond_site_symmetry_2
Au0 In1 2.954598 1_555
Au0 Ce0 3.061844 1_555
Au0 Ce1 3.081374 1_455
Au0 Ce1 3.081374 1_545
Au0 Ce1 3.081374 1_554
Au0 In0 3.126167 1_544
Au0 In0 3.126167 1_454
Au0 In0 3.126167 1_445
Au1 In2 2.900808 1_555
Au1 Ce1 3.071981 1_555
Au1 Ce2 3.078301 1_455
Au1 Ce2 3.078301 1_545
Au1 Ce2 3.078301 1_554
Au1 In1 3.119145 1_565
Au1 In1 3.119145 1_655
Au1 In1 3.119145 1_556
Au2 In3 2.855480 1_555
Au2 Y0 3.058071 1_656
Au2 Y0 3.058071 1_566
Au2 Y0 3.058071 1_665
Au2 Ce2 3.108893 1_555
Au2 In2 3.147341 1_655
Au2 In2 3.147341 1_565
Au2 In2 3.147341 1_556
Au3 In0 2.924954 1_555
Au3 Y0 3.028279 1_666
Au3 Ce0 3.081695 1_656
Au3 Ce0 3.081695 1_566
Au3 Ce0 3.081695 1_665
Au3 In3 3.111051 1_565
Au3 In3 3.111051 1_655
Au3 In3 3.111051 1_556
Au4 In0 2.954598 1_555
Au4 Ce2 3.061844 1_555
Au4 Ce1 3.081374 1_565
Au4 Ce1 3.081374 1_655
Au4 Ce1 3.081374 1_556
Au4 In1 3.126167 1_566
Au4 In1 3.126167 1_656
Au4 In1 3.126167 1_665
Au5 In1 2.924954 1_555
Au5 Y0 3.028279 1_555
Au5 Ce2 3.081695 1_454
Au5 Ce2 3.081695 1_544
Au5 Ce2 3.081695 1_445
Au5 In2 3.111051 1_545
Au5 In2 3.111051 1_455
Au5 In2 3.111051 1_554
Au6 In2 2.855480 1_555
Au6 Y0 3.058071 1_565
Au6 Y0 3.058071 1_655
Au6 Y0 3.058071 1_556
Au6 Ce0 3.108893 1_555
Au6 In3 3.147341 1_455
Au6 In3 3.147341 1_545
Au6 In3 3.147341 1_554
Au7 In3 2.900808 1_555
Au7 Ce1 3.071981 1_555
Au7 Ce0 3.078301 1_655
Au7 Ce0 3.078301 1_565
Au7 Ce0 3.078301 1_556
Au7 In0 3.119145 1_455
Au7 In0 3.119145 1_545
Au7 In0 3.119145 1_554
