# generated using pymatgen
data_MnAl(WO4)2
_symmetry_space_group_name_H-M   'P 1'
_cell_length_a   5.12757738
_cell_length_b   5.70133428
_cell_length_c   9.30428509
_cell_angle_alpha   90.52555752
_cell_angle_beta   91.94832854
_cell_angle_gamma   88.61064866
_symmetry_Int_Tables_number   1
_chemical_formula_structural   MnAl(WO4)2
_chemical_formula_sum   'Mn2 Al2 W4 O16'
_cell_volume   271.75512329
_cell_formula_units_Z   2
loop_
 _symmetry_equiv_pos_site_id
 _symmetry_equiv_pos_as_xyz
  1  'x, y, z'
loop_
 _atom_site_type_symbol
 _atom_site_label
 _atom_site_symmetry_multiplicity
 _atom_site_fract_x
 _atom_site_fract_y
 _atom_site_fract_z
 _atom_site_occupancy
  Mn  Mn0  1  0.74990000  0.34631200  0.25769000  1
  Mn  Mn1  1  0.24959500  0.65327000  0.74248600  1
  Al  Al0  1  0.24453800  0.65332900  0.26469500  1
  Al  Al1  1  0.75536500  0.34667700  0.73532100  1
  W  W0  1  0.24432700  0.16956400  0.99885800  1
  W  W1  1  0.75576400  0.83040800  0.00110400  1
  W  W2  1  0.25032100  0.16202000  0.50268300  1
  W  W3  1  0.74972200  0.83797600  0.49739200  1
  O  O0  1  0.37267600  0.39607500  0.12377900  1
  O  O1  1  0.12180700  0.39343500  0.36941700  1
  O  O2  1  0.62753000  0.60400900  0.87618100  1
  O  O3  1  0.87819900  0.60645300  0.63057000  1
  O  O4  1  0.41616600  0.88854400  0.60786000  1
  O  O5  1  0.06295200  0.88527200  0.89143600  1
  O  O6  1  0.58368100  0.11139500  0.39222700  1
  O  O7  1  0.93728500  0.11492900  0.10849300  1
  O  O8  1  0.93484200  0.64716300  0.13795700  1
  O  O9  1  0.56597600  0.63846500  0.35360700  1
  O  O10  1  0.06535300  0.35284300  0.86201900  1
  O  O11  1  0.43394600  0.36160800  0.64632700  1
  O  O12  1  0.42945200  0.88744900  0.10805600  1
  O  O13  1  0.57062200  0.11274600  0.89185600  1
  O  O14  1  0.07818400  0.88147400  0.38171100  1
  O  O15  1  0.92179300  0.11858600  0.61827700  1
loop_
_geom_bond_atom_site_label_1
_geom_bond_atom_site_label_2
_geom_bond_distance
_geom_bond_site_symmetry_2
Mn0 O6 2.060542 1_555
Mn0 O9 2.100969 1_555
Mn0 O7 2.141522 1_555
Mn0 O1 2.162020 1_655
Mn0 O0 2.278198 1_555
Mn0 O8 2.295256 1_555
Mn1 O4 2.063229 1_555
Mn1 O11 2.100742 1_555
Mn1 O5 2.140398 1_555
Mn1 O3 2.160290 1_455
Mn1 O2 2.279864 1_555
Mn1 O10 2.290866 1_555
Al0 O9 1.819314 1_555
Al0 O14 1.894265 1_555
Al0 O1 1.911643 1_555
Al0 O8 1.946303 1_455
Al0 O0 2.068451 1_555
Al0 O12 2.235121 1_555
Al1 O11 1.819562 1_555
Al1 O15 1.894383 1_555
Al1 O3 1.911448 1_555
Al1 O10 1.947280 1_655
Al1 O2 2.067928 1_555
Al1 O13 2.233406 1_555
O0 W0 1.847561 1_554
O1 W2 1.909120 1_555
O2 W1 1.846917 1_556
O3 W3 1.908959 1_555
O4 W2 2.004732 1_565
O4 W3 2.038375 1_555
O5 W1 1.938838 1_456
O5 W0 2.114522 1_565
O6 W3 2.004818 1_545
O6 W2 2.037497 1_555
O7 W0 1.937800 1_654
O7 W1 2.115724 1_545
O8 W1 1.858593 1_555
O9 W3 1.977283 1_555
O10 W0 1.858369 1_555
O11 W2 1.976388 1_555
O12 W1 1.994108 1_555
O12 W0 2.100179 1_564
O13 W0 1.994103 1_555
O13 W1 2.101402 1_546
O14 W3 2.050604 1_455
O14 W2 2.138266 1_565
O15 W2 2.050388 1_655
O15 W3 2.137992 1_545
