# generated using pymatgen
data_KMn16O32
_symmetry_space_group_name_H-M   'P 1'
_cell_length_a   5.88375400
_cell_length_b   9.89371110
_cell_length_c   9.94354813
_cell_angle_alpha   89.84030233
_cell_angle_beta   89.99975920
_cell_angle_gamma   89.99992129
_symmetry_Int_Tables_number   1
_chemical_formula_structural   KMn16O32
_chemical_formula_sum   'K1 Mn16 O32'
_cell_volume   578.83318933
_cell_formula_units_Z   1
loop_
 _symmetry_equiv_pos_site_id
 _symmetry_equiv_pos_as_xyz
  1  'x, y, z'
loop_
 _atom_site_type_symbol
 _atom_site_label
 _atom_site_symmetry_multiplicity
 _atom_site_fract_x
 _atom_site_fract_y
 _atom_site_fract_z
 _atom_site_occupancy
  K  K0  1  0.00001600  0.49907800  0.49452300  1
  Mn  Mn0  1  0.50000100  0.16711100  0.34659600  1
  Mn  Mn1  1  0.00000600  0.16502000  0.34479100  1
  Mn  Mn2  1  0.49998900  0.34908600  0.82948100  1
  Mn  Mn3  1  0.99999100  0.34727900  0.83135900  1
  Mn  Mn4  1  0.00000000  0.65192000  0.16114900  1
  Mn  Mn5  1  0.50000200  0.65001200  0.16310500  1
  Mn  Mn6  1  0.00000300  0.83386000  0.64795000  1
  Mn  Mn7  1  0.50000500  0.83194800  0.64618800  1
  Mn  Mn8  1  0.74986500  0.66780400  0.84608400  1
  Mn  Mn9  1  0.25013900  0.66779800  0.84608000  1
  Mn  Mn10  1  0.74978700  0.84820700  0.32915400  1
  Mn  Mn11  1  0.25021600  0.84820400  0.32915100  1
  Mn  Mn12  1  0.74982500  0.15072700  0.66368600  1
  Mn  Mn13  1  0.25017200  0.15072800  0.66368500  1
  Mn  Mn14  1  0.74987500  0.33128700  0.14658600  1
  Mn  Mn15  1  0.25012000  0.33128800  0.14658100  1
  O  O0  1  0.74947900  0.95698200  0.65842900  1
  O  O1  1  0.25052700  0.95698000  0.65843000  1
  O  O2  1  0.74938500  0.66498500  0.03895800  1
  O  O3  1  0.25061800  0.66498500  0.03895800  1
  O  O4  1  0.74941700  0.33428300  0.95368400  1
  O  O5  1  0.25055800  0.33427900  0.95368300  1
  O  O6  1  0.74940000  0.04189200  0.33451100  1
  O  O7  1  0.25061000  0.04189200  0.33450900  1
  O  O8  1  0.00000000  0.45656300  0.16152500  1
  O  O9  1  0.49999600  0.45592300  0.15970400  1
  O  O10  1  0.00000700  0.16820600  0.53918300  1
  O  O11  1  0.50000000  0.16650800  0.53981600  1
  O  O12  1  0.50000100  0.83232300  0.45303400  1
  O  O13  1  0.00000100  0.83059700  0.45360900  1
  O  O14  1  0.49999900  0.54320100  0.83292100  1
  O  O15  1  0.99999700  0.54260500  0.83142700  1
  O  O16  1  0.50000200  0.79736800  0.83949900  1
  O  O17  1  0.00000100  0.79755300  0.84068500  1
  O  O18  1  0.00000200  0.84507000  0.19998800  1
  O  O19  1  0.50000200  0.84373600  0.20012500  1
  O  O20  1  0.99999900  0.20147800  0.15200200  1
  O  O21  1  0.50000300  0.20169100  0.15324300  1
  O  O22  1  0.49999900  0.15532500  0.79267800  1
  O  O23  1  0.99999200  0.15406400  0.79281800  1
  O  O24  1  0.75191600  0.29755200  0.34112400  1
  O  O25  1  0.24809000  0.29755200  0.34112000  1
  O  O26  1  0.75183100  0.34602700  0.69970100  1
  O  O27  1  0.24814800  0.34602300  0.69970300  1
  O  O28  1  0.75186100  0.70140600  0.65159100  1
  O  O29  1  0.24814700  0.70140700  0.65159200  1
  O  O30  1  0.75181600  0.65292300  0.29284800  1
  O  O31  1  0.24818500  0.65292300  0.29284900  1
loop_
_geom_bond_atom_site_label_1
_geom_bond_atom_site_label_2
_geom_bond_distance
_geom_bond_site_symmetry_2
K0 O25 2.906808 1_555
K0 O24 2.906873 1_455
K0 O31 2.907453 1_555
K0 O30 2.907557 1_455
K0 O27 2.927419 1_555
K0 O26 2.927533 1_455
K0 O29 2.931777 1_555
K0 O28 2.931826 1_455
Mn0 O11 1.921285 1_555
Mn0 O7 1.924380 1_555
Mn0 O6 1.924411 1_555
Mn0 O21 1.951879 1_555
Mn0 O25 1.965945 1_555
Mn0 O24 1.965964 1_555
Mn1 O7 1.915532 1_555
Mn1 O6 1.915543 1_455
Mn1 O10 1.933291 1_555
Mn1 O20 1.949658 1_455
Mn1 O25 1.962403 1_555
Mn1 O24 1.962426 1_455
Mn2 O14 1.920918 1_555
Mn2 O4 1.923408 1_555
Mn2 O5 1.923410 1_555
Mn2 O22 1.952634 1_555
Mn2 O27 1.965214 1_555
Mn2 O26 1.965223 1_555
Mn3 O5 1.915370 1_655
Mn3 O4 1.915397 1_555
Mn3 O15 1.932501 1_555
Mn3 O23 1.950697 1_555
Mn3 O27 1.961102 1_655
Mn3 O26 1.961136 1_555
Mn4 O2 1.914790 1_455
Mn4 O3 1.914796 1_555
Mn4 O8 1.932799 1_555
Mn4 O18 1.950659 1_555
Mn4 O30 1.961487 1_455
Mn4 O31 1.961506 1_555
Mn5 O9 1.920653 1_555
Mn5 O2 1.922966 1_555
Mn5 O3 1.922979 1_555
Mn5 O19 1.952686 1_555
Mn5 O30 1.964841 1_555
Mn5 O31 1.964852 1_555
Mn6 O1 1.915232 1_555
Mn6 O0 1.915241 1_455
Mn6 O13 1.932799 1_555
Mn6 O17 1.948859 1_555
Mn6 O29 1.962136 1_555
Mn6 O28 1.962137 1_455
Mn7 O12 1.920629 1_555
Mn7 O0 1.923673 1_555
Mn7 O1 1.923676 1_555
Mn7 O16 1.951468 1_555
Mn7 O28 1.966339 1_555
Mn7 O29 1.966344 1_555
Mn8 O2 1.917979 1_556
Mn8 O14 1.923315 1_555
Mn8 O15 1.929384 1_555
Mn8 O16 1.951485 1_555
Mn8 O17 1.953561 1_655
Mn8 O28 1.961438 1_555
Mn9 O3 1.918018 1_556
Mn9 O14 1.923244 1_555
Mn9 O15 1.929391 1_455
Mn9 O16 1.951525 1_555
Mn9 O17 1.953606 1_555
Mn9 O29 1.961401 1_555
Mn10 O6 1.917153 1_565
Mn10 O12 1.923774 1_555
Mn10 O13 1.930803 1_655
Mn10 O19 1.951495 1_555
Mn10 O18 1.954010 1_655
Mn10 O30 1.966547 1_555
Mn11 O7 1.917183 1_565
Mn11 O12 1.923794 1_555
Mn11 O13 1.930816 1_555
Mn11 O19 1.951471 1_555
Mn11 O18 1.953994 1_555
Mn11 O31 1.966510 1_555
Mn12 O0 1.917716 1_545
Mn12 O11 1.923813 1_555
Mn12 O10 1.930844 1_655
Mn12 O22 1.951458 1_555
Mn12 O23 1.953619 1_555
Mn12 O26 1.966164 1_555
Mn13 O1 1.917746 1_545
Mn13 O11 1.923811 1_555
Mn13 O10 1.930768 1_555
Mn13 O22 1.951477 1_555
Mn13 O23 1.953675 1_455
Mn13 O27 1.966122 1_555
Mn14 O4 1.918279 1_554
Mn14 O9 1.923548 1_555
Mn14 O8 1.930064 1_655
Mn14 O21 1.951757 1_555
Mn14 O20 1.953900 1_555
Mn14 O24 1.962101 1_555
Mn15 O5 1.918238 1_554
Mn15 O9 1.923535 1_555
Mn15 O8 1.930035 1_555
Mn15 O21 1.951812 1_555
Mn15 O20 1.953897 1_455
Mn15 O25 1.962112 1_555
