# generated using pymatgen
data_Mn2CdTe3
_symmetry_space_group_name_H-M   'P 1'
_cell_length_a   4.07657431
_cell_length_b   4.07657431
_cell_length_c   10.46425000
_cell_angle_alpha   90.00000000
_cell_angle_beta   90.00000000
_cell_angle_gamma   120.00000500
_symmetry_Int_Tables_number   1
_chemical_formula_structural   Mn2CdTe3
_chemical_formula_sum   'Mn2 Cd1 Te3'
_cell_volume   150.60155037
_cell_formula_units_Z   1
loop_
 _symmetry_equiv_pos_site_id
 _symmetry_equiv_pos_as_xyz
  1  'x, y, z'
loop_
 _atom_site_type_symbol
 _atom_site_label
 _atom_site_symmetry_multiplicity
 _atom_site_fract_x
 _atom_site_fract_y
 _atom_site_fract_z
 _atom_site_occupancy
  Mn  Mn0  1  0.33333300  0.66666700  0.65936700  1
  Mn  Mn1  1  0.66666700  0.33333300  0.34063300  1
  Cd  Cd0  1  0.00000000  0.00000000  0.00000000  1
  Te  Te0  1  0.00000000  0.00000000  0.50000000  1
  Te  Te1  1  0.33333300  0.66666700  0.19090900  1
  Te  Te2  1  0.66666700  0.33333300  0.80909100  1
loop_
_geom_bond_atom_site_label_1
_geom_bond_atom_site_label_2
_geom_bond_distance
_geom_bond_site_symmetry_2
Mn0 Te2 2.827398 1_455
Mn0 Te2 2.827398 1_565
Mn0 Te2 2.827404 1_555
Mn0 Te0 2.884537 1_565
Mn0 Te0 2.884539 1_665
Mn0 Te0 2.884539 1_555
Mn1 Te1 2.827398 1_545
Mn1 Te1 2.827398 1_655
Mn1 Te1 2.827404 1_555
Mn1 Te0 2.884537 1_655
Mn1 Te0 2.884539 1_555
Mn1 Te0 2.884539 1_665
Cd0 Te2 3.087128 1_454
Cd0 Te1 3.087128 1_545
Cd0 Te2 3.087130 1_554
Cd0 Te1 3.087130 1_555
Cd0 Te2 3.087130 1_444
Cd0 Te1 3.087130 1_445
