# generated using pymatgen
data_Rb4Ca(Se2O7)2
_symmetry_space_group_name_H-M   'P 1'
_cell_length_a   8.09876946
_cell_length_b   8.47898358
_cell_length_c   8.10346824
_cell_angle_alpha   92.38944596
_cell_angle_beta   86.49357494
_cell_angle_gamma   58.19161198
_symmetry_Int_Tables_number   1
_chemical_formula_structural   Rb4Ca(Se2O7)2
_chemical_formula_sum   'Rb4 Ca1 Se4 O14'
_cell_volume   470.20674450
_cell_formula_units_Z   1
loop_
 _symmetry_equiv_pos_site_id
 _symmetry_equiv_pos_as_xyz
  1  'x, y, z'
loop_
 _atom_site_type_symbol
 _atom_site_label
 _atom_site_symmetry_multiplicity
 _atom_site_fract_x
 _atom_site_fract_y
 _atom_site_fract_z
 _atom_site_occupancy
  Rb  Rb0  1  0.14861300  0.58977500  0.28342500  1
  Rb  Rb1  1  0.49740700  0.78912600  0.12268700  1
  Rb  Rb2  1  0.76047300  0.49588100  0.64790800  1
  Rb  Rb3  1  0.63714700  0.14797300  0.96468300  1
  Ca  Ca0  1  0.33937700  0.22522300  0.60063200  1
  Se  Se0  1  0.71457800  0.12706900  0.41550100  1
  Se  Se1  1  0.95068100  0.29305900  0.12910800  1
  Se  Se2  1  0.27547300  0.90234800  0.61965900  1
  Se  Se3  1  0.08392600  0.66873300  0.84629400  1
  O  O0  1  0.63104000  0.22005600  0.61979100  1
  O  O1  1  0.78091800  0.39606100  0.99630600  1
  O  O2  1  0.38062000  0.73083400  0.46441100  1
  O  O3  1  0.29469000  0.57338000  0.93181500  1
  O  O4  1  0.49184300  0.21687100  0.33367500  1
  O  O5  1  0.89622600  0.44065900  0.29517300  1
  O  O6  1  0.45615300  0.92306200  0.70222800  1
  O  O7  1  0.10761600  0.52331100  0.68384500  1
  O  O8  1  0.80971200  0.89868100  0.40889800  1
  O  O9  1  0.17776400  0.20433900  0.04241000  1
  O  O10  1  0.13907300  0.11324200  0.54086900  1
  O  O11  1  0.89656400  0.71471400  0.97960600  1
  O  O12  1  0.93958400  0.10443900  0.18809500  1
  O  O13  1  0.02385500  0.87616200  0.77464700  1
loop_
_geom_bond_atom_site_label_1
_geom_bond_atom_site_label_2
_geom_bond_distance
_geom_bond_site_symmetry_2
Ca0 O7 2.251226 1_555
Ca0 O10 2.334328 1_555
Ca0 O0 2.354130 1_555
Ca0 O4 2.403703 1_555
Ca0 O6 2.419304 1_545
O0 Se0 1.735440 1_555
O0 Rb3 2.883488 1_555
O0 Rb2 3.031409 1_555
O1 Se1 1.674724 1_556
O1 Rb3 2.901684 1_555
O1 Rb1 2.964671 1_556
O1 Rb2 2.970370 1_555
O2 Se2 1.683348 1_555
O2 Rb1 3.015564 1_555
O2 Rb0 3.109959 1_555
O2 Rb2 3.160648 1_555
O3 Se3 1.668584 1_555
O3 Rb0 2.986384 1_556
O3 Rb3 3.224650 1_555
O3 Rb1 3.416829 1_556
O4 Se0 1.736063 1_555
O4 Rb0 2.978376 1_555
O4 Rb3 3.060412 1_554
O5 Se1 1.666376 1_555
O5 Rb0 2.914834 1_655
O5 Rb2 2.925686 1_555
O6 Se2 1.732231 1_555
O6 Rb2 3.116295 1_555
O7 Se3 1.695425 1_555
O7 Rb2 2.970999 1_455
O7 Rb0 3.342818 1_555
O8 Se0 1.661327 1_565
O8 Rb0 2.699199 1_655
O9 Se1 1.667700 1_455
O9 Rb1 3.210716 1_545
O9 Rb3 3.504376 1_554
O10 Se2 1.710157 1_545
O10 Rb2 3.103753 1_455
O11 Se3 1.662007 1_655
O11 Rb1 3.085948 1_556
O11 Rb3 3.139425 1_565
O11 Rb0 3.146921 1_656
O12 Se1 1.733305 1_555
O12 Se0 2.438131 1_555
O12 Rb3 3.009700 1_554
O13 Se3 1.698470 1_555
O13 Se2 2.442631 1_555
O13 Rb3 2.999467 1_465
