# generated using pymatgen
data_K3V2P2O8F3
_symmetry_space_group_name_H-M   'P 1'
_cell_length_a   7.50090209
_cell_length_b   7.50090209
_cell_length_c   9.26273500
_cell_angle_alpha   90.00000000
_cell_angle_beta   90.00000000
_cell_angle_gamma   103.74479133
_symmetry_Int_Tables_number   1
_chemical_formula_structural   K3V2P2O8F3
_chemical_formula_sum   'K6 V4 P4 O16 F6'
_cell_volume   506.23024694
_cell_formula_units_Z   2
loop_
 _symmetry_equiv_pos_site_id
 _symmetry_equiv_pos_as_xyz
  1  'x, y, z'
loop_
 _atom_site_type_symbol
 _atom_site_label
 _atom_site_symmetry_multiplicity
 _atom_site_fract_x
 _atom_site_fract_y
 _atom_site_fract_z
 _atom_site_occupancy
  K  K0  1  0.47245100  0.47245100  0.76198600  1
  K  K1  1  0.52754900  0.52754900  0.26198600  1
  K  K2  1  0.86065900  0.86065900  0.42068800  1
  K  K3  1  0.13934100  0.13934100  0.92068800  1
  K  K4  1  0.78472000  0.78472000  0.03570600  1
  K  K5  1  0.21528000  0.21528000  0.53570600  1
  V  V0  1  0.93851400  0.57232900  0.74601500  1
  V  V1  1  0.06148600  0.42767100  0.24601500  1
  V  V2  1  0.57232900  0.93851400  0.74601500  1
  V  V3  1  0.42767100  0.06148600  0.24601500  1
  P  P0  1  0.25484800  0.74364900  0.49926800  1
  P  P1  1  0.25635100  0.74515200  0.99926800  1
  P  P2  1  0.74515200  0.25635100  0.99926800  1
  P  P3  1  0.74364900  0.25484800  0.49926800  1
  O  O0  1  0.08481100  0.73223600  0.90217600  1
  O  O1  1  0.91518900  0.26776400  0.40217600  1
  O  O2  1  0.26776400  0.91518900  0.40217600  1
  O  O3  1  0.73223600  0.08481100  0.90217600  1
  O  O4  1  0.23740100  0.57088000  0.09446100  1
  O  O5  1  0.57088000  0.23740100  0.09446100  1
  O  O6  1  0.42912000  0.76259900  0.59446100  1
  O  O7  1  0.76259900  0.42912000  0.59446100  1
  O  O8  1  0.23245000  0.56652200  0.40670800  1
  O  O9  1  0.76755000  0.43347800  0.90670800  1
  O  O10  1  0.56652200  0.23245000  0.40670800  1
  O  O11  1  0.43347800  0.76755000  0.90670800  1
  O  O12  1  0.26681500  0.91821700  0.09435800  1
  O  O13  1  0.91821700  0.26681500  0.09435800  1
  O  O14  1  0.08178300  0.73318500  0.59435800  1
  O  O15  1  0.73318500  0.08178300  0.59435800  1
  F  F0  1  0.75818500  0.75818500  0.74848000  1
  F  F1  1  0.24181500  0.24181500  0.24848000  1
  F  F2  1  0.89297400  0.59853000  0.24508000  1
  F  F3  1  0.10702600  0.40147000  0.74508000  1
  F  F4  1  0.59853000  0.89297400  0.24508000  1
  F  F5  1  0.40147000  0.10702600  0.74508000  1
loop_
_geom_bond_atom_site_label_1
_geom_bond_atom_site_label_2
_geom_bond_distance
_geom_bond_site_symmetry_2
K0 O11 2.662624 1_555
K0 O9 2.662624 1_555
K0 O6 2.754318 1_555
K0 O7 2.754318 1_555
K1 O8 2.662624 1_555
K1 O10 2.662624 1_555
K1 O4 2.754318 1_555
K1 O5 2.754318 1_555
K2 O15 2.647022 1_565
K2 O14 2.647022 1_655
K2 O2 2.987973 1_655
K2 O1 2.987973 1_565
K3 O13 2.647022 1_456
K3 O12 2.647022 1_546
K3 O0 2.987973 1_545
K3 O3 2.987973 1_455
K4 O3 2.678184 1_564
K4 O0 2.678184 1_654
K4 O9 2.867814 1_554
K4 O11 2.867814 1_554
K5 O2 2.678184 1_545
K5 O1 2.678184 1_455
K5 O10 2.867814 1_555
K5 O8 2.867814 1_555
O0 P1 1.553887 1_555
O0 V0 2.027241 1_455
O1 P3 1.553887 1_555
O1 V1 2.027241 1_655
O2 P0 1.553887 1_555
O2 V3 2.027241 1_565
O3 P2 1.553887 1_555
O3 V2 2.027241 1_545
O4 P1 1.555041 1_554
O4 V1 2.047474 1_555
O5 P2 1.555041 1_554
O5 V3 2.047474 1_555
O6 P0 1.555041 1_555
O6 V2 2.047474 1_555
O7 P3 1.555041 1_555
O7 V0 2.047474 1_555
O8 P0 1.556416 1_555
O8 V1 2.076072 1_555
O9 P2 1.556416 1_555
O9 V0 2.076072 1_555
O10 P3 1.556416 1_555
O10 V3 2.076072 1_555
O11 P1 1.556416 1_555
O11 V2 2.076072 1_555
O12 P1 1.555222 1_554
O12 V3 1.991948 1_565
O13 P2 1.555222 1_554
O13 V1 1.991948 1_655
O14 P0 1.555222 1_555
O14 V0 1.991948 1_455
O15 P3 1.555222 1_555
O15 V2 1.991948 1_545
F0 V2 2.160944 1_555
F0 V0 2.160944 1_555
F0 K0 2.649520 1_555
F0 K4 2.671827 1_556
F0 K2 3.181148 1_555
F1 V3 2.160944 1_555
F1 V1 2.160944 1_555
F1 K1 2.649520 1_555
F1 K5 2.671827 1_555
F1 K3 3.181148 1_554
F2 V1 2.002504 1_655
F2 K2 2.607115 1_555
F2 K4 2.628667 1_555
F2 K1 2.669772 1_555
F3 V0 2.002504 1_455
F3 K3 2.607115 1_555
F3 K5 2.628667 1_555
F3 K0 2.669772 1_555
F4 V3 2.002504 1_565
F4 K2 2.607115 1_555
F4 K4 2.628667 1_555
F4 K1 2.669772 1_555
F5 V2 2.002504 1_545
F5 K3 2.607115 1_555
F5 K5 2.628667 1_555
F5 K0 2.669772 1_555
