# generated using pymatgen
data_LiFe2(P2O7)2
_symmetry_space_group_name_H-M   'P 1'
_cell_length_a   8.24973900
_cell_length_b   9.15696600
_cell_length_c   13.39875000
_cell_angle_alpha   90.00000000
_cell_angle_beta   90.00000000
_cell_angle_gamma   90.00000000
_symmetry_Int_Tables_number   1
_chemical_formula_structural   LiFe2(P2O7)2
_chemical_formula_sum   'Li4 Fe8 P16 O56'
_cell_volume   1012.17613750
_cell_formula_units_Z   4
loop_
 _symmetry_equiv_pos_site_id
 _symmetry_equiv_pos_as_xyz
  1  'x, y, z'
loop_
 _atom_site_type_symbol
 _atom_site_label
 _atom_site_symmetry_multiplicity
 _atom_site_fract_x
 _atom_site_fract_y
 _atom_site_fract_z
 _atom_site_occupancy
  Li  Li0  1  0.50000000  0.50000000  0.00000000  1
  Li  Li1  1  0.00000000  0.50000000  0.50000000  1
  Li  Li2  1  0.50000000  0.00000000  0.50000000  1
  Li  Li3  1  0.00000000  0.00000000  0.00000000  1
  Fe  Fe0  1  0.35377900  0.98296800  0.09645500  1
  Fe  Fe1  1  0.14622100  0.98296800  0.40354500  1
  Fe  Fe2  1  0.64622100  0.51703200  0.59645500  1
  Fe  Fe3  1  0.85377900  0.51703200  0.90354500  1
  Fe  Fe4  1  0.64622100  0.01703200  0.90354500  1
  Fe  Fe5  1  0.85377900  0.01703200  0.59645500  1
  Fe  Fe6  1  0.35377900  0.48296800  0.40354500  1
  Fe  Fe7  1  0.14622100  0.48296800  0.09645500  1
  P  P0  1  0.05073700  0.17658500  0.20087900  1
  P  P1  1  0.44926300  0.17658500  0.29912100  1
  P  P2  1  0.94926300  0.32341500  0.70087900  1
  P  P3  1  0.55073700  0.32341500  0.79912100  1
  P  P4  1  0.94926300  0.82341500  0.79912100  1
  P  P5  1  0.55073700  0.82341500  0.70087900  1
  P  P6  1  0.05073700  0.67658500  0.29912100  1
  P  P7  1  0.44926300  0.67658500  0.20087900  1
  P  P8  1  0.70811300  0.76963900  0.06680200  1
  P  P9  1  0.79188700  0.76963900  0.43319800  1
  P  P10  1  0.29188700  0.73036100  0.56680200  1
  P  P11  1  0.20811300  0.73036100  0.93319800  1
  P  P12  1  0.29188700  0.23036100  0.93319800  1
  P  P13  1  0.20811300  0.23036100  0.56680200  1
  P  P14  1  0.70811300  0.26963900  0.43319800  1
  P  P15  1  0.79188700  0.26963900  0.06680200  1
  O  O0  1  0.12916900  0.06800200  0.12742900  1
  O  O1  1  0.37083100  0.06800200  0.37257100  1
  O  O2  1  0.87083100  0.43199800  0.62742900  1
  O  O3  1  0.62916900  0.43199800  0.87257100  1
  O  O4  1  0.87083100  0.93199800  0.87257100  1
  O  O5  1  0.62916900  0.93199800  0.62742900  1
  O  O6  1  0.12916900  0.56800200  0.37257100  1
  O  O7  1  0.37083100  0.56800200  0.12742900  1
  O  O8  1  0.86425300  0.19965900  0.16806500  1
  O  O9  1  0.63574700  0.19965900  0.33193500  1
  O  O10  1  0.13574700  0.30034100  0.66806500  1
  O  O11  1  0.36425300  0.30034100  0.83193500  1
  O  O12  1  0.13574700  0.80034100  0.83193500  1
  O  O13  1  0.36425300  0.80034100  0.66806500  1
  O  O14  1  0.86425300  0.69965900  0.33193500  1
  O  O15  1  0.63574700  0.69965900  0.16806500  1
  O  O16  1  0.04447700  0.12010200  0.30768900  1
  O  O17  1  0.45552300  0.12010200  0.19231100  1
  O  O18  1  0.95552300  0.37989800  0.80768900  1
  O  O19  1  0.54447700  0.37989800  0.69231100  1
  O  O20  1  0.95552300  0.87989800  0.69231100  1
  O  O21  1  0.54447700  0.87989800  0.80768900  1
  O  O22  1  0.04447700  0.62010200  0.19231100  1
  O  O23  1  0.45552300  0.62010200  0.30768900  1
  O  O24  1  0.12613900  0.32773000  0.19102400  1
  O  O25  1  0.37386100  0.32773000  0.30897600  1
  O  O26  1  0.87386100  0.17227000  0.69102400  1
  O  O27  1  0.62613900  0.17227000  0.80897600  1
  O  O28  1  0.87386100  0.67227000  0.80897600  1
  O  O29  1  0.62613900  0.67227000  0.69102400  1
  O  O30  1  0.12613900  0.82773000  0.30897600  1
  O  O31  1  0.37386100  0.82773000  0.19102400  1
  O  O32  1  0.86748900  0.84317900  0.08761700  1
  O  O33  1  0.63251100  0.84317900  0.41238300  1
  O  O34  1  0.13251100  0.65682100  0.58761700  1
  O  O35  1  0.36748900  0.65682100  0.91238300  1
  O  O36  1  0.13251100  0.15682100  0.91238300  1
  O  O37  1  0.36748900  0.15682100  0.58761700  1
  O  O38  1  0.86748900  0.34317900  0.41238300  1
  O  O39  1  0.63251100  0.34317900  0.08761700  1
  O  O40  1  0.58300400  0.88672800  0.02828600  1
  O  O41  1  0.91699600  0.88672800  0.47171400  1
  O  O42  1  0.41699600  0.61327200  0.52828600  1
  O  O43  1  0.08300400  0.61327200  0.97171400  1
  O  O44  1  0.41699600  0.11327200  0.97171400  1
  O  O45  1  0.08300400  0.11327200  0.52828600  1
  O  O46  1  0.58300400  0.38672800  0.47171400  1
  O  O47  1  0.91699600  0.38672800  0.02828600  1
  O  O48  1  0.71524000  0.63841500  0.99602000  1
  O  O49  1  0.78476000  0.63841500  0.50398000  1
  O  O50  1  0.28476000  0.86158500  0.49602000  1
  O  O51  1  0.21524000  0.86158500  0.00398000  1
  O  O52  1  0.28476000  0.36158500  0.00398000  1
  O  O53  1  0.21524000  0.36158500  0.49602000  1
  O  O54  1  0.71524000  0.13841500  0.50398000  1
  O  O55  1  0.78476000  0.13841500  0.99602000  1
loop_
_geom_bond_atom_site_label_1
_geom_bond_atom_site_label_2
_geom_bond_distance
_geom_bond_site_symmetry_2
Li0 O7 2.106763 1_555
Li0 O3 2.106763 1_554
Li0 O35 2.152982 1_554
Li0 O39 2.152982 1_555
Li0 O48 2.182274 1_554
Li0 O52 2.182274 1_555
Li1 O2 2.106763 1_455
Li1 O6 2.106763 1_555
Li1 O34 2.152982 1_555
Li1 O38 2.152982 1_455
Li1 O49 2.182274 1_455
Li1 O53 2.182274 1_555
Li2 O5 2.106763 1_545
Li2 O1 2.106763 1_555
Li2 O37 2.152982 1_555
Li2 O33 2.152982 1_545
Li2 O50 2.182274 1_545
Li2 O54 2.182274 1_555
Li3 O0 2.106763 1_555
Li3 O4 2.106763 1_444
Li3 O36 2.152982 1_554
Li3 O32 2.152982 1_445
Li3 O51 2.182274 1_545
Li3 O55 2.182274 1_454
Fe0 O31 1.911464 1_555
Fe0 O17 1.982661 1_565
Fe0 O51 2.019139 1_555
Fe0 O0 2.052328 1_565
Fe0 O44 2.118768 1_564
Fe0 O40 2.277487 1_555
Fe1 O30 1.911464 1_555
Fe1 O16 1.982661 1_565
Fe1 O50 2.019139 1_555
Fe1 O1 2.052328 1_565
Fe1 O45 2.118768 1_565
Fe1 O41 2.277487 1_455
Fe2 O29 1.911464 1_555
Fe2 O19 1.982661 1_555
Fe2 O49 2.019139 1_555
Fe2 O2 2.052328 1_555
Fe2 O46 2.118768 1_555
Fe2 O42 2.277487 1_555
Fe3 O28 1.911464 1_555
Fe3 O18 1.982661 1_555
Fe3 O48 2.019139 1_555
Fe3 O3 2.052328 1_555
Fe3 O47 2.118768 1_556
Fe3 O43 2.277487 1_655
Fe4 O27 1.911464 1_555
Fe4 O21 1.982661 1_545
Fe4 O55 2.019139 1_555
Fe4 O4 2.052328 1_545
Fe4 O40 2.118768 1_546
Fe4 O44 2.277487 1_555
Fe5 O26 1.911464 1_555
Fe5 O20 1.982661 1_545
Fe5 O54 2.019139 1_555
Fe5 O5 2.052328 1_545
Fe5 O41 2.118768 1_545
Fe5 O45 2.277487 1_655
Fe6 O25 1.911464 1_555
Fe6 O23 1.982661 1_555
Fe6 O53 2.019139 1_555
Fe6 O6 2.052328 1_555
Fe6 O42 2.118768 1_555
Fe6 O46 2.277487 1_555
Fe7 O24 1.911464 1_555
Fe7 O22 1.982661 1_555
Fe7 O52 2.019139 1_555
Fe7 O7 2.052328 1_555
Fe7 O43 2.118768 1_554
Fe7 O47 2.277487 1_455
O0 P0 1.541365 1_555
O1 P1 1.541365 1_555
O2 P2 1.541365 1_555
O3 P3 1.541365 1_555
O4 P4 1.541365 1_555
O5 P5 1.541365 1_555
O6 P6 1.541365 1_555
O7 P7 1.541365 1_555
O8 P0 1.613927 1_655
O8 P15 1.614912 1_555
O9 P1 1.613927 1_555
O9 P14 1.614912 1_555
O10 P2 1.613927 1_455
O10 P13 1.614912 1_555
O11 P3 1.613927 1_555
O11 P12 1.614912 1_555
O12 P4 1.613927 1_455
O12 P11 1.614912 1_555
O13 P5 1.613927 1_555
O13 P10 1.614912 1_555
O14 P6 1.613927 1_655
O14 P9 1.614912 1_555
O15 P7 1.613927 1_555
O15 P8 1.614912 1_555
O16 P0 1.522591 1_555
O17 P1 1.522591 1_555
O18 P2 1.522591 1_555
O19 P3 1.522591 1_555
O20 P4 1.522591 1_555
O21 P5 1.522591 1_555
O22 P6 1.522591 1_555
O23 P7 1.522591 1_555
O24 P0 1.523127 1_555
O25 P1 1.523127 1_555
O26 P2 1.523127 1_555
O27 P3 1.523127 1_555
O28 P4 1.523127 1_555
O29 P5 1.523127 1_555
O30 P6 1.523127 1_555
O31 P7 1.523127 1_555
O32 P8 1.503323 1_555
O33 P9 1.503323 1_555
O34 P10 1.503323 1_555
O35 P11 1.503323 1_555
O36 P12 1.503323 1_555
O37 P13 1.503323 1_555
O38 P14 1.503323 1_555
O39 P15 1.503323 1_555
O40 P8 1.575170 1_555
O41 P9 1.575170 1_555
O42 P10 1.575170 1_555
O43 P11 1.575170 1_555
O44 P12 1.575170 1_555
O45 P13 1.575170 1_555
O46 P14 1.575170 1_555
O47 P15 1.575170 1_555
O48 P8 1.531919 1_556
O49 P9 1.531919 1_555
O50 P10 1.531919 1_555
O51 P11 1.531919 1_554
O52 P12 1.531919 1_554
O53 P13 1.531919 1_555
O54 P14 1.531919 1_555
O55 P15 1.531919 1_556
