# generated using pymatgen
data_Y4CdNi
_symmetry_space_group_name_H-M   'P 1'
_cell_length_a   9.57636573
_cell_length_b   9.57633954
_cell_length_c   9.57645639
_cell_angle_alpha   60.00078176
_cell_angle_beta   60.00097206
_cell_angle_gamma   60.00087984
_symmetry_Int_Tables_number   1
_chemical_formula_structural   Y4CdNi
_chemical_formula_sum   'Y16 Cd4 Ni4'
_cell_volume   621.01021159
_cell_formula_units_Z   4
loop_
 _symmetry_equiv_pos_site_id
 _symmetry_equiv_pos_as_xyz
  1  'x, y, z'
loop_
 _atom_site_type_symbol
 _atom_site_label
 _atom_site_symmetry_multiplicity
 _atom_site_fract_x
 _atom_site_fract_y
 _atom_site_fract_z
 _atom_site_occupancy
  Y  Y0  1  0.59913225  0.59913383  0.59912102  1
  Y  Y1  1  0.59913437  0.59913582  0.20261095  1
  Y  Y2  1  0.59914028  0.20260449  0.59912986  1
  Y  Y3  1  0.20260366  0.59914203  0.59912929  1
  Y  Y4  1  0.06070718  0.43928186  0.43927889  1
  Y  Y5  1  0.43928495  0.06070644  0.06072715  1
  Y  Y6  1  0.43928191  0.06070397  0.43928024  1
  Y  Y7  1  0.06070982  0.43928406  0.06072627  1
  Y  Y8  1  0.43927616  0.43927708  0.06071873  1
  Y  Y9  1  0.06071577  0.06071122  0.43928750  1
  Y  Y10  1  0.18678357  0.81319825  0.81320869  1
  Y  Y11  1  0.81320254  0.18678226  0.18680164  1
  Y  Y12  1  0.81320206  0.18678057  0.81320932  1
  Y  Y13  1  0.18678451  0.81319983  0.18680158  1
  Y  Y14  1  0.81319871  0.81319729  0.18679809  1
  Y  Y15  1  0.18678782  0.18678454  0.81321183  1
  Cd  Cd0  1  0.83050894  0.83050302  0.83052273  1
  Cd  Cd1  1  0.83050727  0.83050208  0.50847562  1
  Cd  Cd2  1  0.83049259  0.50851260  0.83049577  1
  Cd  Cd3  1  0.50850727  0.83049675  0.83049687  1
  Ni  Ni0  1  0.39252301  0.39253217  0.39249989  1
  Ni  Ni1  1  0.39252836  0.39253882  0.82244192  1
  Ni  Ni2  1  0.39253690  0.82244904  0.39251496  1
  Ni  Ni3  1  0.82245012  0.39254198  0.39251118  1
loop_
_geom_bond_atom_site_label_1
_geom_bond_atom_site_label_2
_geom_bond_distance
_geom_bond_site_symmetry_2
Y0 Y14 3.465516 1_555
Y0 Y10 3.465710 1_555
Y0 Y12 3.465738 1_555
Y1 Y14 3.465367 1_555
Y1 Y13 3.465712 1_555
Y1 Y11 3.465734 1_555
Y10 Y3 3.465430 1_555
Y10 Y12 3.577600 1_465
Y10 Y15 3.577625 1_565
Y10 Y14 3.577676 1_456
Y10 Y13 3.577708 1_556
Y10 Y7 3.587720 1_556
Y10 Y9 3.587782 1_565
Y10 Y8 3.587843 1_556
Y10 Y6 3.587879 1_565
Y11 Y2 3.465607 1_555
Y11 Y13 3.577602 1_645
Y11 Y14 3.577612 1_545
Y11 Y15 3.577680 1_654
Y11 Y12 3.577701 1_554
Y11 Y6 3.587806 1_555
Y11 Y9 3.587820 1_655
Y11 Y7 3.587860 1_655
Y11 Y8 3.587877 1_555
Y12 Y2 3.465458 1_555
Y12 Y15 3.577625 1_655
Y12 Y14 3.577651 1_546
Y12 Y5 3.587756 1_556
Y12 Y9 3.587803 1_655
Y12 Y8 3.587885 1_556
Y12 Y4 3.587896 1_655
Y13 Y3 3.465587 1_555
Y13 Y14 3.577623 1_455
Y13 Y15 3.577662 1_564
Y13 Y4 3.587769 1_555
Y13 Y9 3.587814 1_565
Y13 Y8 3.587845 1_555
Y13 Y5 3.587847 1_565
Y14 Y7 3.587715 1_655
Y14 Y5 3.587717 1_565
Y14 Y4 3.587761 1_655
Y14 Y6 3.587775 1_565
Y15 Y2 3.465769 1_555
Y15 Y3 3.465782 1_555
Y15 Y5 3.587904 1_556
Y15 Y7 3.587917 1_556
Y15 Y6 3.587936 1_555
Y15 Y4 3.587938 1_555
Cd0 Cd2 3.083697 1_555
Cd0 Cd3 3.083760 1_555
Cd0 Cd1 3.084083 1_555
Cd0 Y10 3.254513 1_655
Cd0 Y12 3.254524 1_565
Cd0 Y14 3.254565 1_556
Cd0 Y1 3.410992 1_556
Cd0 Y3 3.411073 1_655
Cd0 Y2 3.411117 1_565
Cd0 Y7 3.478156 1_656
Cd0 Y5 3.478204 1_566
Cd0 Y9 3.478282 1_665
Cd1 Cd2 3.083683 1_555
Cd1 Cd3 3.083751 1_555
Cd1 Y13 3.254661 1_655
Cd1 Y11 3.254662 1_565
Cd1 Y14 3.254712 1_555
Cd1 Y0 3.410969 1_555
Cd1 Y3 3.411033 1_655
Cd1 Y2 3.411081 1_565
Cd1 Y4 3.478191 1_655
Cd1 Y9 3.478195 1_665
Cd1 Y6 3.478233 1_565
Cd2 Cd3 3.083480 1_555
Cd2 Y15 3.254967 1_655
Cd2 Y12 3.255005 1_555
Cd2 Y11 3.255045 1_556
Cd2 Y0 3.411019 1_555
Cd2 Y3 3.411047 1_655
Cd2 Y1 3.411085 1_556
Cd2 Y7 3.478294 1_656
Cd2 Y8 3.478320 1_556
Cd2 Y4 3.478337 1_655
Cd3 Y15 3.254888 1_565
Cd3 Y10 3.254984 1_555
Cd3 Y13 3.255019 1_556
Cd3 Y2 3.411024 1_565
Cd3 Y0 3.411034 1_555
Cd3 Y1 3.411084 1_556
Cd3 Y5 3.478256 1_566
Cd3 Y6 3.478305 1_565
Cd3 Y8 3.478315 1_556
Ni0 Y8 2.802079 1_555
Ni0 Y4 2.802276 1_555
Ni0 Y6 2.802348 1_555
Ni0 Y1 2.802678 1_555
Ni0 Y3 2.802851 1_555
Ni0 Y2 2.802899 1_555
Ni0 Y13 3.464028 1_555
Ni0 Y11 3.464140 1_555
Ni0 Y15 3.464427 1_555
Ni1 Y8 2.801913 1_556
Ni1 Y7 2.802319 1_556
Ni1 Y5 2.802394 1_556
Ni1 Y0 2.802579 1_555
Ni1 Y3 2.802834 1_555
Ni1 Y2 2.802898 1_555
Ni1 Y10 3.463936 1_555
Ni1 Y12 3.464066 1_555
Ni1 Y15 3.464445 1_555
Ni2 Y6 2.801836 1_565
Ni2 Y5 2.802048 1_565
Ni2 Y9 2.802254 1_565
Ni2 Y0 2.802603 1_555
Ni2 Y1 2.802705 1_555
Ni2 Y3 2.802835 1_555
Ni2 Y14 3.463920 1_555
Ni2 Y10 3.464220 1_555
Ni2 Y13 3.464332 1_555
Ni3 Y4 2.801843 1_655
Ni3 Y7 2.802045 1_655
Ni3 Y9 2.802318 1_655
Ni3 Y0 2.802611 1_555
Ni3 Y1 2.802695 1_555
Ni3 Y2 2.802884 1_555
Ni3 Y14 3.463851 1_555
Ni3 Y12 3.464258 1_555
Ni3 Y11 3.464350 1_555
