# generated using pymatgen
data_Li9Mn2Co5O16
_symmetry_space_group_name_H-M   'P 1'
_cell_length_a   5.81100700
_cell_length_b   5.92977707
_cell_length_c   10.00752145
_cell_angle_alpha   76.02036559
_cell_angle_beta   73.45239591
_cell_angle_gamma   60.90318902
_symmetry_Int_Tables_number   1
_chemical_formula_structural   Li9Mn2Co5O16
_chemical_formula_sum   'Li9 Mn2 Co5 O16'
_cell_volume   286.64494423
_cell_formula_units_Z   1
loop_
 _symmetry_equiv_pos_site_id
 _symmetry_equiv_pos_as_xyz
  1  'x, y, z'
loop_
 _atom_site_type_symbol
 _atom_site_label
 _atom_site_symmetry_multiplicity
 _atom_site_fract_x
 _atom_site_fract_y
 _atom_site_fract_z
 _atom_site_occupancy
  Li  Li0  1  0.49616900  0.50310500  0.99884900  1
  Li  Li1  1  0.74341700  0.26986200  0.73901700  1
  Li  Li2  1  0.00330400  0.99872500  0.50005400  1
  Li  Li3  1  0.49874100  0.00520500  0.99558100  1
  Li  Li4  1  0.74452900  0.75245600  0.75055600  1
  Li  Li5  1  0.00338500  0.49019800  0.50464800  1
  Li  Li6  1  0.25336900  0.24746300  0.25132700  1
  Li  Li7  1  0.25430400  0.73572000  0.26025600  1
  Li  Li8  1  0.25274600  0.74775000  0.74781700  1
  Mn  Mn0  1  0.99875800  0.00429500  0.99667100  1
  Mn  Mn1  1  0.99831900  0.51108600  0.99530800  1
  Co  Co0  1  0.50095600  0.49287100  0.50280900  1
  Co  Co1  1  0.74791200  0.25415500  0.25071200  1
  Co  Co2  1  0.25139300  0.24954500  0.74978200  1
  Co  Co3  1  0.49955000  0.98530700  0.50747600  1
  Co  Co4  1  0.74715600  0.75406600  0.25346700  1
  O  O0  1  0.64759700  0.12159700  0.12963500  1
  O  O1  1  0.89073600  0.84950200  0.89039800  1
  O  O2  1  0.16880700  0.56810700  0.63045300  1
  O  O3  1  0.64462400  0.63287400  0.12068400  1
  O  O4  1  0.88973700  0.39349600  0.86909200  1
  O  O5  1  0.14725300  0.12820300  0.63072700  1
  O  O6  1  0.38020100  0.87949100  0.37547300  1
  O  O7  1  0.40812000  0.35806500  0.37887700  1
  O  O8  1  0.34014100  0.92165000  0.86975300  1
  O  O9  1  0.61566200  0.62166200  0.61096400  1
  O  O10  1  0.84461000  0.38951900  0.36983400  1
  O  O11  1  0.34838900  0.37219300  0.87548500  1
  O  O12  1  0.60813800  0.11172700  0.63577400  1
  O  O13  1  0.86500900  0.87135600  0.37281900  1
  O  O14  1  0.11937700  0.61393900  0.12010000  1
  O  O15  1  0.08759100  0.16480700  0.11560100  1
loop_
_geom_bond_atom_site_label_1
_geom_bond_atom_site_label_2
_geom_bond_distance
_geom_bond_site_symmetry_2
Li0 O14 2.042251 1_556
Li0 O3 2.126270 1_556
Li0 O11 2.139980 1_555
Li0 O4 2.146989 1_555
Li0 O0 2.212368 1_556
Li0 O8 2.362281 1_555
Li1 O12 2.052425 1_555
Li1 O9 2.071048 1_555
Li1 O5 2.112117 1_655
Li1 O4 2.157018 1_555
Li1 O11 2.182348 1_555
Li1 O1 2.465783 1_545
Li2 O6 2.053168 1_555
Li2 O13 2.115516 1_455
Li2 O5 2.175346 1_565
Li2 O12 2.175647 1_465
Li2 O10 2.250728 1_465
Li2 O2 2.421696 1_555
Li3 O8 2.021668 1_545
Li3 O1 2.051224 1_545
Li3 O11 2.104473 1_555
Li3 O3 2.146943 1_546
Li3 O0 2.171021 1_556
Li3 O15 2.182209 1_556
Li4 O12 2.044577 1_565
Li4 O4 2.062359 1_555
Li4 O1 2.133872 1_555
Li4 O8 2.154088 1_555
Li4 O9 2.190446 1_555
Li4 O2 2.245845 1_655
Li5 O2 2.030971 1_555
Li5 O9 2.035446 1_455
Li5 O5 2.108445 1_555
Li5 O10 2.159127 1_455
Li5 O7 2.174316 1_555
Li5 O13 2.211682 1_455
Li6 O0 2.115486 1_555
Li6 O6 2.120277 1_545
Li6 O7 2.121339 1_555
Li6 O15 2.130583 1_555
Li6 O14 2.147398 1_555
Li6 O10 2.165683 1_455
Li7 O6 2.038029 1_555
Li7 O13 2.061545 1_455
Li7 O7 2.143906 1_555
Li7 O3 2.174636 1_555
Li7 O14 2.184041 1_555
Li7 O15 2.475883 1_565
Li8 O2 2.046544 1_555
Li8 O9 2.048947 1_555
Li8 O8 2.068972 1_555
Li8 O1 2.072933 1_455
Li8 O5 2.150651 1_565
Li8 O11 2.174090 1_555
Mn0 O8 1.925810 1_645
Mn0 O1 1.944208 1_545
Mn0 O0 1.984565 1_556
Mn0 O15 1.991008 1_656
Mn0 O14 2.215583 1_646
Mn0 O4 2.229983 1_555
Mn1 O1 1.912036 1_555
Mn1 O14 1.926708 1_656
Mn1 O11 1.926820 1_655
Mn1 O4 1.946070 1_555
Mn1 O3 1.960973 1_556
Mn1 O15 2.014955 1_656
Co0 O9 1.872024 1_555
Co0 O2 1.894622 1_555
Co0 O7 1.935920 1_555
Co0 O10 1.955604 1_555
Co0 O6 2.214815 1_555
Co0 O12 2.217339 1_555
Co1 O10 1.914089 1_555
Co1 O7 1.918202 1_555
Co1 O0 1.932353 1_555
Co1 O15 1.952912 1_655
Co1 O13 2.177163 1_545
Co1 O3 2.195185 1_555
Co2 O5 1.884642 1_555
Co2 O2 1.891978 1_555
Co2 O11 1.916699 1_555
Co2 O12 1.929417 1_555
Co2 O8 1.933261 1_545
Co2 O4 1.972128 1_455
Co3 O5 1.951895 1_565
Co3 O6 1.991333 1_555
Co3 O12 1.998808 1_565
Co3 O9 2.020307 1_555
Co3 O13 2.048594 1_555
Co3 O7 2.167303 1_565
Co4 O13 1.926119 1_555
Co4 O3 1.991492 1_555
Co4 O6 2.001054 1_555
Co4 O14 2.072120 1_655
Co4 O10 2.078105 1_555
Co4 O0 2.120697 1_565
