# generated using pymatgen
data_RbMgAlF6
_symmetry_space_group_name_H-M   'P 1'
_cell_length_a   7.15675315
_cell_length_b   7.15675315
_cell_length_c   7.15675315
_cell_angle_alpha   120.42557155
_cell_angle_beta   119.40563128
_cell_angle_gamma   90.14850864
_symmetry_Int_Tables_number   1
_chemical_formula_structural   RbMgAlF6
_chemical_formula_sum   'Rb2 Mg2 Al2 F12'
_cell_volume   259.50296936
_cell_formula_units_Z   2
loop_
 _symmetry_equiv_pos_site_id
 _symmetry_equiv_pos_as_xyz
  1  'x, y, z'
loop_
 _atom_site_type_symbol
 _atom_site_label
 _atom_site_symmetry_multiplicity
 _atom_site_fract_x
 _atom_site_fract_y
 _atom_site_fract_z
 _atom_site_occupancy
  Rb  Rb0  1  0.61912800  0.86912800  0.75000000  1
  Rb  Rb1  1  0.38087200  0.13087200  0.25000000  1
  Mg  Mg0  1  0.50000000  0.50000000  0.00000000  1
  Mg  Mg1  1  0.00000000  0.50000000  0.50000000  1
  Al  Al0  1  0.00000000  0.50000000  0.00000000  1
  Al  Al1  1  0.00000000  0.00000000  0.50000000  1
  F  F0  1  0.05274600  0.80274600  0.25000000  1
  F  F1  1  0.66888800  0.41888800  0.25000000  1
  F  F2  1  0.05661500  0.83340000  0.63356300  1
  F  F3  1  0.69983700  0.42305200  0.86643700  1
  F  F4  1  0.69983700  0.83340000  0.27678500  1
  F  F5  1  0.05661500  0.42305200  0.22321500  1
  F  F6  1  0.94725400  0.19725400  0.75000000  1
  F  F7  1  0.33111200  0.58111200  0.75000000  1
  F  F8  1  0.94338500  0.16660000  0.36643700  1
  F  F9  1  0.30016300  0.57694800  0.13356300  1
  F  F10  1  0.30016300  0.16660000  0.72321500  1
  F  F11  1  0.94338500  0.57694800  0.77678500  1
loop_
_geom_bond_atom_site_label_1
_geom_bond_atom_site_label_2
_geom_bond_distance
_geom_bond_site_symmetry_2
Al0 F3 1.809974 1_454
Al0 F5 1.809974 1_555
Al0 F9 1.809974 1_555
Al0 F11 1.809974 1_454
Al0 F6 1.855898 1_454
Al0 F0 1.855898 1_555
Al1 F4 1.809974 1_445
Al1 F2 1.809974 1_545
Al1 F10 1.809974 1_555
Al1 F8 1.809974 1_455
Al1 F6 1.855898 1_455
Al1 F0 1.855898 1_545
F0 Rb1 3.316715 1_565
F1 Mg1 1.982699 1_655
F1 Mg0 1.982699 1_555
F1 Rb1 2.911281 1_555
F2 Mg1 2.018853 1_555
F2 Rb1 3.128722 1_566
F3 Mg0 2.018853 1_556
F3 Rb1 3.128722 1_555
F4 Mg0 2.018853 1_555
F4 Rb1 3.128722 1_565
F5 Mg1 2.018853 1_555
F5 Rb1 3.128722 1_555
F6 Rb0 3.316715 1_545
F7 Mg0 1.982699 1_556
F7 Mg1 1.982699 1_555
F7 Rb0 2.911281 1_555
F8 Mg1 2.018853 1_655
F8 Rb0 3.128722 1_544
F9 Mg0 2.018853 1_555
F9 Rb0 3.128722 1_555
F10 Mg0 2.018853 1_556
F10 Rb0 3.128722 1_545
F11 Mg1 2.018853 1_655
F11 Rb0 3.128722 1_555
