# generated using pymatgen
data_In2O3
_symmetry_space_group_name_H-M   'P 1'
_cell_length_a   11.38218930
_cell_length_b   11.75486271
_cell_length_c   11.54581918
_cell_angle_alpha   97.05760636
_cell_angle_beta   91.63779507
_cell_angle_gamma   92.73019532
_symmetry_Int_Tables_number   1
_chemical_formula_structural   In2O3
_chemical_formula_sum   'In40 O60'
_cell_volume   1530.41630526
_cell_formula_units_Z   20
loop_
 _symmetry_equiv_pos_site_id
 _symmetry_equiv_pos_as_xyz
  1  'x, y, z'
loop_
 _atom_site_type_symbol
 _atom_site_label
 _atom_site_symmetry_multiplicity
 _atom_site_fract_x
 _atom_site_fract_y
 _atom_site_fract_z
 _atom_site_occupancy
  In  In0  1  0.77762755  0.49282845  0.31089294  1
  In  In1  1  0.25184158  0.31439063  0.08396214  1
  In  In2  1  0.19583241  0.72755756  0.78841323  1
  In  In3  1  0.13052761  0.31299229  0.77270232  1
  In  In4  1  0.09846143  0.57151904  0.97784543  1
  In  In5  1  0.60759427  0.11586643  0.66641904  1
  In  In6  1  0.41097212  0.20666304  0.88277628  1
  In  In7  1  0.58803811  0.88460252  0.19480378  1
  In  In8  1  0.29932075  0.76792263  0.09180865  1
  In  In9  1  0.63154191  0.21745243  0.41165782  1
  In  In10  1  0.34675270  0.93733486  0.69340191  1
  In  In11  1  0.59222961  0.30216444  0.12431233  1
  In  In12  1  0.70782121  0.37317504  0.76150356  1
  In  In13  1  0.85667444  0.09714743  0.20106663  1
  In  In14  1  0.38480482  0.02487334  0.07516690  1
  In  In15  1  0.89652406  0.33604115  0.07397899  1
  In  In16  1  0.66871901  0.05645367  0.95910451  1
  In  In17  1  0.97275584  0.04870135  0.48734659  1
  In  In18  1  0.34419961  0.97930419  0.39134145  1
  In  In19  1  0.70271697  0.58233193  0.62501339  1
  In  In20  1  0.12017091  0.02919878  0.94025332  1
  In  In21  1  0.41681113  0.64344708  0.61124628  1
  In  In22  1  0.10172361  0.88177772  0.22403131  1
  In  In23  1  0.89774492  0.14645185  0.75171642  1
  In  In24  1  0.40952353  0.42979591  0.34435841  1
  In  In25  1  0.39083486  0.52460520  0.98446020  1
  In  In26  1  0.16910386  0.49945603  0.53961180  1
  In  In27  1  0.96756604  0.87109103  0.74327245  1
  In  In28  1  0.71600801  0.58596025  0.01098985  1
  In  In29  1  0.88873394  0.31552226  0.52039979  1
  In  In30  1  0.11679870  0.77550740  0.50401267  1
  In  In31  1  0.83070054  0.80331598  0.31073901  1
  In  In32  1  0.03574515  0.56995855  0.23808422  1
  In  In33  1  0.07441754  0.27818692  0.30050017  1
  In  In34  1  0.95339881  0.56030534  0.74215296  1
  In  In35  1  0.53639165  0.76974951  0.86859640  1
  In  In36  1  0.60451532  0.82256304  0.51548716  1
  In  In37  1  0.43684041  0.33079584  0.63622978  1
  In  In38  1  0.33456772  0.65529310  0.32565559  1
  In  In39  1  0.82556593  0.85074569  0.01879652  1
  O  O0  1  0.46329084  0.85477976  0.04209206  1
  O  O1  1  0.52277665  0.14318948  0.03010731  1
  O  O2  1  0.86715249  0.32302967  0.87132008  1
  O  O3  1  0.27719454  0.82268318  0.28444731  1
  O  O4  1  0.06214283  0.16430071  0.84857235  1
  O  O5  1  0.75731654  0.21297406  0.08924215  1
  O  O6  1  0.74719333  0.70752693  0.48849913  1
  O  O7  1  0.71718232  0.98780187  0.11654297  1
  O  O8  1  0.05895448  0.36790242  0.46479996  1
  O  O9  1  0.24898907  0.92484282  0.53446732  1
  O  O10  1  0.84617509  0.13395141  0.38564773  1
  O  O11  1  0.94715891  0.40590930  0.25660829  1
  O  O12  1  0.99834697  0.72402390  0.63471857  1
  O  O13  1  0.77102587  0.55047136  0.82502829  1
  O  O14  1  0.26868168  0.65094697  0.93242350  1
  O  O15  1  0.49526010  0.18282762  0.52629795  1
  O  O16  1  0.43325819  0.35782001  0.02852181  1
  O  O17  1  0.23899224  0.35068752  0.25947443  1
  O  O18  1  0.96581918  0.39403016  0.82844661  1
  O  O19  1  0.55067364  0.26506429  0.78050608  1
  O  O20  1  0.00441835  0.19285413  0.13532038  1
  O  O21  1  0.12613371  0.48439225  0.71620970  1
  O  O22  1  0.99978047  0.20988881  0.61649363  1
  O  O23  1  0.95710279  0.50743275  0.06273502  1
  O  O24  1  0.18707861  0.04811229  0.30762077  1
  O  O25  1  0.88659709  0.64008315  0.30532041  1
  O  O26  1  0.52103034  0.95881895  0.60613013  1
  O  O27  1  0.89836021  0.98443095  0.63562739  1
  O  O28  1  0.67084368  0.60050814  0.43478972  1
  O  O29  1  0.30791812  0.27630700  0.74910082  1
  O  O30  1  0.20772392  0.42313314  0.96123151  1
  O  O31  1  0.70639562  0.45494930  0.12926542  1
  O  O32  1  0.58782013  0.71163902  0.67459639  1
  O  O33  1  0.11308994  0.12294170  0.38392743  1
  O  O34  1  0.41905927  0.02961309  0.84118978  1
  O  O35  1  0.38009738  0.62457302  0.14983910  1
  O  O36  1  0.72233535  0.74674576  0.13139784  1
  O  O37  1  0.67490925  0.88578664  0.36116767  1
  O  O38  1  0.15539691  0.61534421  0.38737748  1
  O  O39  1  0.35471488  0.46139138  0.54452632  1
  O  O40  1  0.94438548  0.94412407  0.91699817  1
  O  O41  1  0.44075354  0.73572541  0.46631495  1
  O  O42  1  0.58386076  0.44677625  0.64956592  1
  O  O43  1  0.75311190  0.35216268  0.40106736  1
  O  O44  1  0.16144361  0.90766074  0.78405822  1
  O  O45  1  0.68812523  0.87497402  0.89240603  1
  O  O46  1  0.85254924  0.48577993  0.60051321  1
  O  O47  1  0.00602473  0.87264575  0.39899374  1
  O  O48  1  0.26925104  0.14726878  0.00637547  1
  O  O49  1  0.52217368  0.29609583  0.29024765  1
  O  O50  1  0.75011128  0.23682312  0.62413542  1
  O  O51  1  0.54390819  0.60472262  0.92954175  1
  O  O52  1  0.38211361  0.77650683  0.76267792  1
  O  O53  1  0.03031415  0.68666064  0.86806389  1
  O  O54  1  0.72962543  0.10795837  0.80841214  1
  O  O55  1  0.22900066  0.67070482  0.60858315  1
  O  O56  1  0.92473449  0.91416648  0.18334840  1
  O  O57  1  0.45759852  0.00933034  0.25264325  1
  O  O58  1  0.11459465  0.69829798  0.13855253  1
  O  O59  1  0.20945023  0.92692332  0.06799080  1
loop_
_geom_bond_atom_site_label_1
_geom_bond_atom_site_label_2
_geom_bond_distance
_geom_bond_site_symmetry_2
In0 O43 2.071619 1_555
In0 O25 2.089529 1_555
In0 O31 2.211822 1_555
In0 O28 2.219625 1_555
In0 O11 2.293434 1_555
In1 O17 2.029849 1_555
In1 O48 2.077439 1_555
In1 O30 2.087973 1_554
In1 O16 2.233756 1_555
In2 O14 2.150218 1_555
In2 O55 2.151273 1_555
In2 O44 2.177562 1_555
In2 O53 2.178883 1_555
In2 O52 2.208345 1_555
In3 O29 2.102967 1_555
In3 O4 2.171126 1_555
In3 O21 2.194984 1_555
In3 O18 2.219182 1_455
In3 O22 2.464549 1_455
In3 O30 2.505229 1_555
In4 O23 2.067132 1_456
In4 O53 2.122624 1_555
In4 O30 2.182648 1_555
In4 O14 2.215098 1_555
In4 O58 2.229896 1_556
In5 O26 2.082077 1_545
In5 O54 2.131951 1_555
In5 O19 2.195450 1_555
In5 O50 2.210756 1_555
In5 O15 2.272063 1_555
In6 O34 2.084615 1_555
In6 O19 2.143952 1_555
In6 O29 2.174080 1_555
In6 O16 2.291516 1_556
In6 O1 2.312651 1_556
In6 O48 2.322743 1_556
In7 O37 2.133294 1_555
In7 O7 2.150396 1_555
In7 O57 2.196208 1_565
In7 O0 2.214813 1_555
In7 O36 2.346688 1_555
In8 O35 2.126843 1_555
In8 O14 2.166707 1_554
In8 O0 2.208817 1_555
In8 O59 2.215317 1_555
In8 O3 2.262821 1_555
In8 O58 2.321948 1_555
In9 O43 2.070182 1_555
In9 O15 2.124474 1_555
In9 O49 2.167384 1_555
In9 O10 2.686965 1_555
In9 O50 2.745131 1_555
In10 O34 2.036019 1_565
In10 O9 2.104433 1_555
In10 O52 2.191221 1_555
In10 O26 2.267831 1_555
In10 O44 2.410789 1_555
In11 O49 2.104026 1_555
In11 O1 2.147268 1_555
In11 O31 2.159986 1_555
In11 O5 2.218293 1_555
In11 O16 2.258643 1_555
In12 O42 2.167125 1_555
In12 O19 2.176448 1_555
In12 O50 2.192854 1_555
In12 O13 2.202344 1_555
In12 O2 2.323372 1_555
In13 O7 2.129348 1_545
In13 O10 2.129818 1_555
In13 O20 2.184589 1_655
In13 O5 2.301056 1_555
In13 O56 2.308262 1_545
In14 O1 2.165090 1_555
In14 O48 2.198199 1_555
In14 O57 2.219933 1_555
In14 O0 2.223428 1_545
In14 O59 2.250429 1_545
In15 O23 2.118559 1_555
In15 O5 2.120059 1_555
In15 O11 2.216479 1_555
In15 O20 2.298449 1_655
In15 O2 2.339356 1_554
In15 O31 2.681842 1_555
In16 O54 2.040119 1_555
In16 O1 2.122442 1_556
In16 O7 2.146001 1_546
In16 O45 2.200814 1_545
In16 O5 2.391030 1_556
In17 O27 2.135086 1_545
In17 O10 2.188320 1_555
In17 O33 2.229584 1_655
In17 O47 2.246072 1_645
In17 O22 2.265401 1_555
In18 O57 2.137435 1_565
In18 O9 2.147386 1_555
In18 O3 2.179089 1_555
In18 O24 2.240086 1_565
In19 O32 2.089667 1_555
In19 O42 2.092165 1_555
In19 O46 2.099922 1_555
In19 O28 2.253463 1_555
In19 O6 2.334732 1_555
In19 O13 2.493079 1_555
In20 O4 2.133510 1_555
In20 O40 2.188186 1_445
In20 O48 2.197644 1_556
In20 O44 2.234560 1_545
In20 O59 2.262649 1_546
In21 O41 2.120124 1_555
In21 O32 2.142925 1_555
In21 O55 2.176525 1_555
In21 O52 2.255128 1_555
In21 O39 2.256639 1_555
In22 O56 2.118210 1_455
In22 O24 2.236067 1_565
In22 O3 2.264884 1_555
In22 O58 2.272108 1_555
In22 O59 2.308711 1_555
In22 O47 2.333813 1_555
In23 O54 2.087315 1_555
In23 O4 2.140402 1_655
In23 O22 2.156302 1_555
In23 O27 2.190509 1_545
In23 O2 2.393429 1_555
In23 O50 2.556386 1_555
In24 O49 2.121523 1_555
In24 O17 2.255693 1_555
In24 O39 2.400390 1_555
In25 O51 2.092416 1_555
In25 O35 2.125418 1_556
In25 O16 2.157987 1_556
In25 O14 2.206340 1_555
In25 O30 2.343328 1_555
In26 O8 2.033336 1_555
In26 O21 2.136687 1_555
In26 O55 2.143697 1_555
In26 O39 2.180871 1_555
In26 O38 2.358479 1_555
In27 O12 2.057321 1_555
In27 O27 2.095494 1_555
In27 O40 2.111531 1_555
In27 O44 2.253170 1_655
In28 O51 2.181049 1_554
In28 O31 2.181221 1_555
In28 O36 2.201284 1_555
In28 O13 2.248949 1_554
In29 O43 2.134088 1_555
In29 O8 2.144673 1_655
In29 O46 2.162413 1_555
In29 O22 2.185922 1_555
In29 O50 2.240784 1_555
In29 O10 2.500615 1_555
In30 O12 2.173568 1_455
In30 O47 2.180316 1_555
In30 O55 2.243572 1_555
In30 O9 2.243983 1_555
In30 O38 2.245132 1_555
In31 O25 2.044379 1_555
In31 O37 2.123036 1_555
In31 O47 2.282444 1_655
In31 O56 2.331284 1_555
In31 O36 2.385082 1_555
In31 O6 2.638373 1_555
In32 O25 2.053160 1_455
In32 O38 2.163607 1_555
In32 O11 2.170138 1_455
In32 O58 2.181278 1_555
In32 O23 2.215474 1_455
In33 O8 2.070466 1_555
In33 O17 2.111270 1_555
In33 O20 2.155237 1_555
In33 O33 2.221717 1_555
In33 O11 2.227369 1_455
In34 O46 2.050439 1_555
In34 O53 2.087744 1_655
In34 O21 2.210584 1_655
In34 O18 2.308615 1_555
In34 O13 2.314254 1_555
In34 O12 2.456242 1_555
In35 O45 2.067372 1_555
In35 O52 2.121285 1_555
In35 O51 2.147872 1_555
In35 O0 2.320871 1_556
In35 O32 2.358690 1_555
In36 O26 2.086504 1_555
In36 O41 2.110568 1_555
In36 O6 2.167385 1_555
In36 O37 2.172370 1_555
In36 O32 2.386621 1_555
In37 O42 2.097390 1_555
In37 O29 2.118196 1_555
In37 O15 2.166657 1_555
In37 O39 2.197955 1_555
In37 O19 2.310608 1_555
In38 O41 2.096134 1_555
In38 O35 2.101777 1_555
In38 O3 2.204350 1_555
In38 O38 2.227422 1_555
In39 O45 2.161473 1_554
In39 O40 2.163746 1_554
In39 O56 2.211025 1_555
In39 O36 2.215028 1_555
In39 O7 2.283249 1_555
O18 O2 1.498941 1_555
O24 O33 1.477052 1_555
O28 O6 1.547787 1_555
