# generated using pymatgen
data_Pr2P3H5WO9
_symmetry_space_group_name_H-M   'P 1'
_cell_length_a   8.86148300
_cell_length_b   9.95321279
_cell_length_c   12.94139116
_cell_angle_alpha   107.49210880
_cell_angle_beta   90.00000000
_cell_angle_gamma   90.00000000
_symmetry_Int_Tables_number   1
_chemical_formula_structural   Pr2P3H5WO9
_chemical_formula_sum   'Pr8 P12 H20 W4 O36'
_cell_volume   1088.65185856
_cell_formula_units_Z   4
loop_
 _symmetry_equiv_pos_site_id
 _symmetry_equiv_pos_as_xyz
  1  'x, y, z'
loop_
 _atom_site_type_symbol
 _atom_site_label
 _atom_site_symmetry_multiplicity
 _atom_site_fract_x
 _atom_site_fract_y
 _atom_site_fract_z
 _atom_site_occupancy
  Pr  Pr0  1  0.19970500  0.62119200  0.54255400  1
  Pr  Pr1  1  0.80029500  0.37880800  0.45744600  1
  Pr  Pr2  1  0.69970500  0.87880800  0.95744600  1
  Pr  Pr3  1  0.30029500  0.12119200  0.04255400  1
  Pr  Pr4  1  0.03884300  0.06259200  0.75206000  1
  Pr  Pr5  1  0.96115700  0.93740800  0.24794000  1
  Pr  Pr6  1  0.53884300  0.43740800  0.74794000  1
  Pr  Pr7  1  0.46115700  0.56259200  0.25206000  1
  P  P0  1  0.25371100  0.37615200  0.93839900  1
  P  P1  1  0.74628900  0.62384800  0.06160100  1
  P  P2  1  0.75371100  0.12384800  0.56160100  1
  P  P3  1  0.24628900  0.87615200  0.43839900  1
  P  P4  1  0.58830600  0.69556400  0.66506700  1
  P  P5  1  0.41169400  0.30443600  0.33493300  1
  P  P6  1  0.08830600  0.80443600  0.83493300  1
  P  P7  1  0.91169400  0.19556400  0.16506700  1
  P  P8  1  0.69674300  0.18763200  0.92104400  1
  P  P9  1  0.30325700  0.81236800  0.07895600  1
  P  P10  1  0.19674300  0.31236800  0.57895600  1
  P  P11  1  0.80325700  0.68763200  0.42104400  1
  H  H0  1  0.49155300  0.96450100  0.71744100  1
  H  H1  1  0.50844700  0.03549900  0.28255900  1
  H  H2  1  0.99155300  0.53549900  0.78255900  1
  H  H3  1  0.00844700  0.46450100  0.21744100  1
  H  H4  1  0.11269500  0.44617400  0.94092900  1
  H  H5  1  0.88730500  0.55382600  0.05907100  1
  H  H6  1  0.61269500  0.05382600  0.55907100  1
  H  H7  1  0.38730500  0.94617400  0.44092900  1
  H  H8  1  0.68336800  0.80523800  0.65862100  1
  H  H9  1  0.31663200  0.19476200  0.34137900  1
  H  H10  1  0.18336800  0.69476200  0.84137900  1
  H  H11  1  0.81663200  0.30523800  0.15862100  1
  H  H12  1  0.76833400  0.27075500  0.01515900  1
  H  H13  1  0.23166600  0.72924500  0.98484100  1
  H  H14  1  0.26833400  0.22924500  0.48484100  1
  H  H15  1  0.73166600  0.77075500  0.51515900  1
  H  H16  1  0.47755900  0.22031600  0.70920900  1
  H  H17  1  0.52244100  0.77968400  0.29079100  1
  H  H18  1  0.97755900  0.27968400  0.79079100  1
  H  H19  1  0.02244100  0.72031600  0.20920900  1
  W  W0  1  0.36983700  0.06338300  0.65737200  1
  W  W1  1  0.63016300  0.93661700  0.34262800  1
  W  W2  1  0.86983700  0.43661700  0.84262800  1
  W  W3  1  0.13016300  0.56338300  0.15737200  1
  O  O0  1  0.16669300  0.20617200  0.64179100  1
  O  O1  1  0.83330700  0.79382800  0.35820900  1
  O  O2  1  0.66669300  0.29382800  0.85820900  1
  O  O3  1  0.33330700  0.70617200  0.14179100  1
  O  O4  1  0.43975900  0.69840900  0.60567300  1
  O  O5  1  0.56024100  0.30159100  0.39432700  1
  O  O6  1  0.93975900  0.80159100  0.89432700  1
  O  O7  1  0.06024100  0.19840900  0.10567300  1
  O  O8  1  0.36268700  0.44788000  0.88220700  1
  O  O9  1  0.63731300  0.55212000  0.11779300  1
  O  O10  1  0.86268700  0.05212000  0.61779300  1
  O  O11  1  0.13731300  0.94788000  0.38220700  1
  O  O12  1  0.20492700  0.89405400  0.55981200  1
  O  O13  1  0.79507300  0.10594600  0.44018800  1
  O  O14  1  0.70492700  0.60594600  0.94018800  1
  O  O15  1  0.29507300  0.39405400  0.05981200  1
  O  O16  1  0.80809900  0.06641200  0.86532700  1
  O  O17  1  0.19190100  0.93358800  0.13467300  1
  O  O18  1  0.30809900  0.43358800  0.63467300  1
  O  O19  1  0.69190100  0.56641200  0.36532700  1
  O  O20  1  0.55964600  0.11684900  0.95848300  1
  O  O21  1  0.44035400  0.88315100  0.04151700  1
  O  O22  1  0.05964600  0.38315100  0.54151700  1
  O  O23  1  0.94035400  0.61684900  0.45848300  1
  O  O24  1  0.16914700  0.94856200  0.88605400  1
  O  O25  1  0.83085300  0.05143800  0.11394600  1
  O  O26  1  0.66914700  0.55143800  0.61394600  1
  O  O27  1  0.33085300  0.44856200  0.38605400  1
  O  O28  1  0.06856800  0.78783000  0.71245300  1
  O  O29  1  0.93143200  0.21217000  0.28754700  1
  O  O30  1  0.56856800  0.71217000  0.78754700  1
  O  O31  1  0.43143200  0.28783000  0.21245300  1
  O  O32  1  0.22677400  0.21602600  0.88665200  1
  O  O33  1  0.77322600  0.78397400  0.11334800  1
  O  O34  1  0.72677400  0.28397400  0.61334800  1
  O  O35  1  0.27322600  0.71602600  0.38665200  1
loop_
_geom_bond_atom_site_label_1
_geom_bond_atom_site_label_2
_geom_bond_distance
_geom_bond_site_symmetry_2
H0 W0 1.787800 1_565
H1 W1 1.787800 1_545
H2 W2 1.787800 1_555
H3 W3 1.787800 1_555
H4 P0 1.426398 1_555
H5 P1 1.426398 1_555
H6 P2 1.426398 1_555
H7 P3 1.426398 1_555
H8 P4 1.401047 1_555
H9 P5 1.401047 1_555
H10 P6 1.401047 1_555
H11 P7 1.401047 1_555
H12 P8 1.401665 1_554
H13 P9 1.401665 1_556
H14 P10 1.401665 1_555
H15 P11 1.401665 1_555
H16 W0 1.780769 1_555
H16 Pr6 2.136348 1_555
H17 W1 1.780769 1_555
H17 Pr7 2.136348 1_555
H18 W2 1.780769 1_555
H18 Pr4 2.136348 1_655
H19 W3 1.780769 1_555
H19 Pr5 2.136348 1_455
O0 P10 1.538209 1_555
O0 W0 2.339515 1_555
O0 Pr4 2.566751 1_555
O1 P11 1.538209 1_555
O1 W1 2.339515 1_555
O1 Pr5 2.566751 1_555
O2 P8 1.538209 1_555
O2 W2 2.339515 1_555
O2 Pr6 2.566751 1_555
O3 P9 1.538209 1_555
O3 W3 2.339515 1_555
O3 Pr7 2.566751 1_555
O4 P4 1.528877 1_555
O4 Pr0 2.325005 1_555
O5 P5 1.528877 1_555
O5 Pr1 2.325005 1_555
O6 P6 1.528877 1_655
O6 Pr2 2.325005 1_555
O7 P7 1.528877 1_455
O7 Pr3 2.325005 1_555
O8 P0 1.511014 1_555
O8 Pr6 2.314731 1_555
O9 P1 1.511014 1_555
O9 Pr7 2.314731 1_555
O10 P2 1.511014 1_555
O10 Pr4 2.314731 1_655
O11 P3 1.511014 1_555
O11 Pr5 2.314731 1_455
O12 P3 1.570549 1_555
O12 W0 2.300193 1_565
O12 Pr0 2.657677 1_555
O12 Pr4 2.942966 1_565
O13 P2 1.570549 1_555
O13 W1 2.300193 1_545
O13 Pr1 2.657677 1_555
O13 Pr5 2.942966 1_545
O14 P1 1.570549 1_556
O14 W2 2.300193 1_555
O14 Pr2 2.657677 1_555
O14 Pr6 2.942966 1_555
O15 P0 1.570549 1_554
O15 W3 2.300193 1_555
O15 Pr3 2.657677 1_555
O15 Pr7 2.942966 1_555
O16 P8 1.557685 1_555
O16 Pr4 2.509491 1_655
O16 Pr2 2.677442 1_545
O17 P9 1.557685 1_555
O17 Pr5 2.509491 1_455
O17 Pr3 2.677442 1_565
O18 P10 1.557685 1_555
O18 Pr6 2.509491 1_555
O18 Pr0 2.677442 1_555
O19 P11 1.557685 1_555
O19 Pr7 2.509491 1_555
O19 Pr1 2.677442 1_555
O20 P8 1.553139 1_555
O20 Pr3 2.537560 1_556
O20 Pr2 2.671128 1_545
O21 P9 1.553139 1_555
O21 Pr2 2.537560 1_554
O21 Pr3 2.671128 1_565
O22 P10 1.553139 1_555
O22 Pr1 2.537560 1_455
O22 Pr0 2.671128 1_555
O23 P11 1.553139 1_555
O23 Pr0 2.537560 1_655
O23 Pr1 2.671128 1_555
O24 P6 1.561472 1_555
O24 Pr3 2.512548 1_566
O24 Pr4 2.609898 1_565
O25 P7 1.561472 1_555
O25 Pr2 2.512548 1_544
O25 Pr5 2.609898 1_545
O26 P4 1.561472 1_555
O26 Pr1 2.512548 1_555
O26 Pr6 2.609898 1_555
O27 P5 1.561472 1_555
O27 Pr0 2.512548 1_555
O27 Pr7 2.609898 1_555
O28 P6 1.553332 1_555
O28 Pr0 2.596817 1_555
O28 Pr4 2.639770 1_565
O29 P7 1.553332 1_555
O29 Pr1 2.596817 1_555
O29 Pr5 2.639770 1_545
O30 P4 1.553332 1_555
O30 Pr2 2.596817 1_555
O30 Pr6 2.639770 1_555
O31 P5 1.553332 1_555
O31 Pr3 2.596817 1_555
O31 Pr7 2.639770 1_555
O32 P0 1.550462 1_555
O32 Pr3 2.555564 1_556
O32 Pr4 2.557426 1_555
O33 P1 1.550462 1_555
O33 Pr2 2.555564 1_554
O33 Pr5 2.557426 1_555
O34 P2 1.550462 1_555
O34 Pr1 2.555564 1_555
O34 Pr6 2.557426 1_555
O35 P3 1.550462 1_555
O35 Pr0 2.555564 1_555
O35 Pr7 2.557426 1_555
