# generated using pymatgen
data_UInRh
_symmetry_space_group_name_H-M   'P 1'
_cell_length_a   7.24622394
_cell_length_b   7.24622394
_cell_length_c   4.16436000
_cell_angle_alpha   90.00000000
_cell_angle_beta   90.00000000
_cell_angle_gamma   119.99999948
_symmetry_Int_Tables_number   1
_chemical_formula_structural   UInRh
_chemical_formula_sum   'U3 In3 Rh3'
_cell_volume   189.36617355
_cell_formula_units_Z   3
loop_
 _symmetry_equiv_pos_site_id
 _symmetry_equiv_pos_as_xyz
  1  'x, y, z'
loop_
 _atom_site_type_symbol
 _atom_site_label
 _atom_site_symmetry_multiplicity
 _atom_site_fract_x
 _atom_site_fract_y
 _atom_site_fract_z
 _atom_site_occupancy
  U  U0  1  0.41802500  0.41802500  0.50000000  1
  U  U1  1  0.58197500  0.00000000  0.50000000  1
  U  U2  1  0.00000000  0.58197500  0.50000000  1
  In  In0  1  0.75325700  0.75325700  0.00000000  1
  In  In1  1  0.24674300  0.00000000  0.00000000  1
  In  In2  1  0.00000000  0.24674300  0.00000000  1
  Rh  Rh0  1  0.66666700  0.33333300  0.00000000  1
  Rh  Rh1  1  0.33333300  0.66666700  0.00000000  1
  Rh  Rh2  1  0.00000000  0.00000000  0.50000000  1
loop_
_geom_bond_atom_site_label_1
_geom_bond_atom_site_label_2
_geom_bond_distance
_geom_bond_site_symmetry_2
In0 Rh2 2.744496 1_664
In0 Rh2 2.744496 1_665
In0 Rh0 2.782708 1_555
In0 Rh1 2.782708 1_555
In0 U0 3.199425 1_555
In0 U0 3.199425 1_554
In0 U1 3.360330 1_564
In0 U1 3.360330 1_565
In0 U2 3.360330 1_655
In0 U2 3.360330 1_654
In1 Rh2 2.744496 1_554
In1 Rh2 2.744496 1_555
In1 Rh1 2.782701 1_545
In1 Rh0 2.782706 1_555
In1 U1 3.199425 1_555
In1 U1 3.199425 1_554
In1 U0 3.360330 1_555
In1 U0 3.360330 1_554
In1 U2 3.360330 1_544
In1 U2 3.360330 1_545
In2 Rh2 2.744496 1_554
In2 Rh2 2.744496 1_555
In2 Rh0 2.782701 1_455
In2 Rh1 2.782706 1_555
In2 U2 3.199425 1_554
In2 U2 3.199425 1_555
In2 U0 3.360330 1_555
In2 U0 3.360330 1_554
In2 U1 3.360330 1_454
In2 U1 3.360330 1_455
Rh0 U1 3.010640 1_554
Rh0 U1 3.010640 1_555
Rh0 U2 3.010642 1_655
Rh0 U2 3.010642 1_654
Rh0 U0 3.010645 1_555
Rh0 U0 3.010645 1_554
Rh1 U2 3.010640 1_555
Rh1 U2 3.010640 1_554
Rh1 U1 3.010642 1_565
Rh1 U1 3.010642 1_564
Rh1 U0 3.010645 1_555
Rh1 U0 3.010645 1_554
Rh2 U2 3.029103 1_545
Rh2 U1 3.029103 1_455
Rh2 U0 3.029103 1_555
