# generated using pymatgen
data_NaAsF6
_symmetry_space_group_name_H-M   'P 1'
_cell_length_a   5.63288237
_cell_length_b   5.63288237
_cell_length_c   5.63288237
_cell_angle_alpha   60.00000000
_cell_angle_beta   60.00000000
_cell_angle_gamma   60.00000000
_symmetry_Int_Tables_number   1
_chemical_formula_structural   NaAsF6
_chemical_formula_sum   'Na1 As1 F6'
_cell_volume   126.37962079
_cell_formula_units_Z   1
loop_
 _symmetry_equiv_pos_site_id
 _symmetry_equiv_pos_as_xyz
  1  'x, y, z'
loop_
 _atom_site_type_symbol
 _atom_site_label
 _atom_site_symmetry_multiplicity
 _atom_site_fract_x
 _atom_site_fract_y
 _atom_site_fract_z
 _atom_site_occupancy
  Na  Na0  1  0.50000000  0.50000000  0.50000000  1
  As  As0  1  -0.00000000  0.00000000  0.00000000  1
  F  F0  1  0.78162988  0.78162988  0.21837012  1
  F  F1  1  0.21837012  0.78162988  0.21837012  1
  F  F2  1  0.78162988  0.21837012  0.21837012  1
  F  F3  1  0.21837012  0.21837012  0.78162988  1
  F  F4  1  0.78162988  0.21837012  0.78162988  1
  F  F5  1  0.21837012  0.78162988  0.78162988  1
loop_
_geom_bond_atom_site_label_1
_geom_bond_atom_site_label_2
_geom_bond_distance
_geom_bond_site_symmetry_2
As0 F1 1.739558 1_545
As0 F5 1.739558 1_544
As0 F3 1.739558 1_554
As0 F0 1.739558 1_445
As0 F2 1.739558 1_455
As0 F4 1.739558 1_454
F0 Na0 2.243491 1_555
F1 Na0 2.243491 1_555
F2 Na0 2.243491 1_555
F3 Na0 2.243491 1_555
F4 Na0 2.243491 1_555
F5 Na0 2.243491 1_555
