# generated using pymatgen
data_V6O13
_symmetry_space_group_name_H-M   'P 1'
_cell_length_a   3.74202700
_cell_length_b   10.29310307
_cell_length_c   12.17131297
_cell_angle_alpha   100.93459222
_cell_angle_beta   90.00000000
_cell_angle_gamma   90.00000000
_symmetry_Int_Tables_number   1
_chemical_formula_structural   V6O13
_chemical_formula_sum   'V12 O26'
_cell_volume   460.29188817
_cell_formula_units_Z   2
loop_
 _symmetry_equiv_pos_site_id
 _symmetry_equiv_pos_as_xyz
  1  'x, y, z'
loop_
 _atom_site_type_symbol
 _atom_site_label
 _atom_site_symmetry_multiplicity
 _atom_site_fract_x
 _atom_site_fract_y
 _atom_site_fract_z
 _atom_site_occupancy
  V  V0  1  0.24714800  0.36775900  0.90908900  1
  V  V1  1  0.75285200  0.36775900  0.40908900  1
  V  V2  1  0.25325400  0.64000500  0.08340600  1
  V  V3  1  0.74674600  0.64000500  0.58340600  1
  V  V4  1  0.25373000  0.36912400  0.20976600  1
  V  V5  1  0.74627000  0.36912400  0.70976600  1
  V  V6  1  0.75356900  0.63876600  0.28266600  1
  V  V7  1  0.24643100  0.63876600  0.78266600  1
  V  V8  1  0.25867400  0.00525900  0.14096300  1
  V  V9  1  0.74132600  0.00525900  0.64096300  1
  V  V10  1  0.24124800  0.00181400  0.84306500  1
  V  V11  1  0.75875300  0.00181400  0.34306500  1
  O  O0  1  0.74951100  0.41347200  0.55632700  1
  O  O1  1  0.25048900  0.41347200  0.05632700  1
  O  O2  1  0.25588000  0.80651800  0.11155500  1
  O  O3  1  0.74412000  0.80651800  0.61155500  1
  O  O4  1  0.74308400  0.00416800  0.81837300  1
  O  O5  1  0.25691600  0.00416800  0.31837300  1
  O  O6  1  0.74217600  0.20169300  0.67415600  1
  O  O7  1  0.25782400  0.20169300  0.17415600  1
  O  O8  1  0.24958200  0.59576500  0.93638200  1
  O  O9  1  0.75041800  0.59576500  0.43638200  1
  O  O10  1  0.74671600  0.38846600  0.87599300  1
  O  O11  1  0.25328400  0.38846600  0.37599300  1
  O  O12  1  0.75517200  0.20196100  0.38381600  1
  O  O13  1  0.24482800  0.20196100  0.88381600  1
  O  O14  1  0.75653500  0.80600900  0.32033200  1
  O  O15  1  0.24346500  0.80600900  0.82033200  1
  O  O16  1  0.24653000  0.61937600  0.61592200  1
  O  O17  1  0.75347000  0.61937600  0.11592200  1
  O  O18  1  0.24626500  0.41442500  0.74966900  1
  O  O19  1  0.75373500  0.41442500  0.24966900  1
  O  O20  1  0.25366500  0.59334800  0.24264000  1
  O  O21  1  0.74633500  0.59334800  0.74264000  1
  O  O22  1  0.25153300  0.00340200  0.00085600  1
  O  O23  1  0.74846700  0.00340200  0.50085600  1
  O  O24  1  0.75730600  0.00391900  0.17857600  1
  O  O25  1  0.24269400  0.00391900  0.67857600  1
loop_
_geom_bond_atom_site_label_1
_geom_bond_atom_site_label_2
_geom_bond_distance
_geom_bond_site_symmetry_2
O0 V1 1.764427 1_555
O0 V5 2.004918 1_555
O0 V3 2.292190 1_555
O1 V0 1.764427 1_554
O1 V4 2.004918 1_555
O1 V2 2.292190 1_555
O2 V2 1.682938 1_555
O2 V8 2.008774 1_565
O3 V3 1.682938 1_555
O3 V9 2.008774 1_565
O4 V10 1.889100 1_655
O4 V10 1.902661 1_555
O4 V9 2.161481 1_555
O5 V11 1.889097 1_455
O5 V11 1.902665 1_555
O5 V8 2.161481 1_555
O6 V5 1.695514 1_555
O6 V9 1.985314 1_555
O7 V4 1.695514 1_555
O7 V8 1.985314 1_555
O8 V2 1.760860 1_556
O8 V7 2.002641 1_555
O8 V0 2.307066 1_555
O9 V3 1.760860 1_555
O9 V6 2.002641 1_555
O9 V1 2.307066 1_555
O10 V0 1.932592 1_555
O10 V0 1.935719 1_655
O10 V5 1.995036 1_555
O11 V1 1.932592 1_555
O11 V1 1.935719 1_455
O11 V4 1.995036 1_555
O12 V1 1.675692 1_555
O12 V11 2.025509 1_555
O13 V0 1.675692 1_555
O13 V10 2.025509 1_555
O14 V6 1.695371 1_555
O14 V11 1.981683 1_565
O15 V7 1.695371 1_555
O15 V10 1.981683 1_565
O16 V3 1.931648 1_455
O16 V3 1.933213 1_555
O16 V7 2.001252 1_555
O17 V2 1.931648 1_655
O17 V2 1.933213 1_555
O17 V6 2.001252 1_555
O18 V5 1.966725 1_455
O18 V5 1.966761 1_555
O18 V0 2.085494 1_555
O18 V7 2.267533 1_555
O19 V4 1.966725 1_655
O19 V4 1.966761 1_555
O19 V1 2.085494 1_555
O19 V6 2.267533 1_555
O20 V6 1.966934 1_555
O20 V6 1.967617 1_455
O20 V2 2.083249 1_555
O20 V4 2.266371 1_555
O21 V7 1.966934 1_555
O21 V7 1.967617 1_655
O21 V3 2.083249 1_555
O21 V5 2.266371 1_555
O22 V8 1.701974 1_555
O22 V10 1.917876 1_554
O23 V9 1.701974 1_555
O23 V11 1.917877 1_555
O24 V8 1.921907 1_555
O24 V8 1.931849 1_655
O24 V11 2.006277 1_555
O25 V9 1.921907 1_555
O25 V9 1.931849 1_455
O25 V10 2.006277 1_555
