# generated using pymatgen
data_MgCo2(CuO4)2
_symmetry_space_group_name_H-M   'P 1'
_cell_length_a   6.45463008
_cell_length_b   8.30304400
_cell_length_c   11.71318065
_cell_angle_alpha   90.00000000
_cell_angle_beta   91.05165471
_cell_angle_gamma   90.00000000
_symmetry_Int_Tables_number   1
_chemical_formula_structural   MgCo2(CuO4)2
_chemical_formula_sum   'Mg4 Co8 Cu8 O32'
_cell_volume   627.63965821
_cell_formula_units_Z   4
loop_
 _symmetry_equiv_pos_site_id
 _symmetry_equiv_pos_as_xyz
  1  'x, y, z'
loop_
 _atom_site_type_symbol
 _atom_site_label
 _atom_site_symmetry_multiplicity
 _atom_site_fract_x
 _atom_site_fract_y
 _atom_site_fract_z
 _atom_site_occupancy
  Mg  Mg0  1  0.11507000  0.15914200  0.04744600  1
  Mg  Mg1  1  0.88493000  0.84085800  0.95255400  1
  Mg  Mg2  1  0.88493000  0.65914200  0.45255400  1
  Mg  Mg3  1  0.11507000  0.34085800  0.54744600  1
  Co  Co0  1  0.10385200  0.46453200  0.84275700  1
  Co  Co1  1  0.10385200  0.03546800  0.34275700  1
  Co  Co2  1  0.60928300  0.09114700  0.13273100  1
  Co  Co3  1  0.89614800  0.96453200  0.65724300  1
  Co  Co4  1  0.39071700  0.90885300  0.86726900  1
  Co  Co5  1  0.39071700  0.59114700  0.36726900  1
  Co  Co6  1  0.60928300  0.40885300  0.63273100  1
  Co  Co7  1  0.89614800  0.53546800  0.15724300  1
  Cu  Cu0  1  0.75787400  0.18885400  0.87800900  1
  Cu  Cu1  1  0.37736800  0.05953800  0.63187400  1
  Cu  Cu2  1  0.62263200  0.94046200  0.36812600  1
  Cu  Cu3  1  0.24212600  0.81114600  0.12199100  1
  Cu  Cu4  1  0.75787400  0.31114600  0.37800900  1
  Cu  Cu5  1  0.37736800  0.44046200  0.13187400  1
  Cu  Cu6  1  0.24212600  0.68885400  0.62199100  1
  Cu  Cu7  1  0.62263200  0.55953800  0.86812600  1
  O  O0  1  0.02896200  0.22933500  0.39500400  1
  O  O1  1  0.65275200  0.00945600  0.59965200  1
  O  O2  1  0.18803900  0.57606700  0.47728700  1
  O  O3  1  0.81196100  0.07606700  0.02271300  1
  O  O4  1  0.02896200  0.27066500  0.89500400  1
  O  O5  1  0.97103800  0.77066500  0.60499600  1
  O  O6  1  0.09423000  0.10844400  0.62095000  1
  O  O7  1  0.50758200  0.89781900  0.14149800  1
  O  O8  1  0.50758200  0.60218100  0.64149800  1
  O  O9  1  0.31790200  0.87045300  0.71655800  1
  O  O10  1  0.68209800  0.37045300  0.78344200  1
  O  O11  1  0.49241800  0.10218100  0.85850200  1
  O  O12  1  0.90577000  0.89155600  0.37905000  1
  O  O13  1  0.87279100  0.51990900  0.30078800  1
  O  O14  1  0.41406700  0.27129000  0.58343100  1
  O  O15  1  0.41406700  0.22871000  0.08343100  1
  O  O16  1  0.12720900  0.01990900  0.19921200  1
  O  O17  1  0.49241800  0.39781900  0.35850200  1
  O  O18  1  0.12720900  0.48009100  0.69921200  1
  O  O19  1  0.81196100  0.42393300  0.52271300  1
  O  O20  1  0.65275200  0.49054400  0.09965200  1
  O  O21  1  0.68209800  0.12954700  0.28344200  1
  O  O22  1  0.97103800  0.72933500  0.10499600  1
  O  O23  1  0.09423000  0.39155600  0.12095000  1
  O  O24  1  0.18803900  0.92393300  0.97728700  1
  O  O25  1  0.58593300  0.77129000  0.91656900  1
  O  O26  1  0.34724800  0.99054400  0.40034800  1
  O  O27  1  0.34724800  0.50945600  0.90034800  1
  O  O28  1  0.90577000  0.60844400  0.87905000  1
  O  O29  1  0.58593300  0.72871000  0.41656900  1
  O  O30  1  0.31790200  0.62954700  0.21655800  1
  O  O31  1  0.87279100  0.98009100  0.80078800  1
loop_
_geom_bond_atom_site_label_1
_geom_bond_atom_site_label_2
_geom_bond_distance
_geom_bond_site_symmetry_2
Mg0 O15 2.050860 1_555
Mg0 O4 2.078032 1_554
Mg0 O3 2.089649 1_455
Mg0 O23 2.118376 1_555
Mg0 O16 2.120750 1_555
Mg0 O24 2.173795 1_544
Mg1 O25 2.050860 1_555
Mg1 O22 2.078032 1_556
Mg1 O24 2.089649 1_655
Mg1 O28 2.118376 1_555
Mg1 O31 2.120750 1_555
Mg1 O3 2.173795 1_566
Mg2 O29 2.050860 1_555
Mg2 O5 2.078032 1_555
Mg2 O2 2.089649 1_655
Mg2 O12 2.118376 1_555
Mg2 O13 2.120750 1_555
Mg2 O19 2.173795 1_555
Mg3 O14 2.050860 1_555
Mg3 O0 2.078032 1_555
Mg3 O19 2.089649 1_455
Mg3 O6 2.118376 1_555
Mg3 O18 2.120750 1_555
Mg3 O2 2.173795 1_555
Co0 O18 1.695796 1_555
Co0 O27 1.738798 1_555
Co0 O4 1.791683 1_555
Co0 O28 1.806419 1_455
Co1 O16 1.695796 1_555
Co1 O26 1.738798 1_545
Co1 O0 1.791683 1_555
Co1 O12 1.806419 1_445
Co2 O7 1.737998 1_545
Co2 O15 1.788595 1_555
Co2 O21 1.846185 1_555
Co2 O3 1.857316 1_555
Co3 O31 1.695796 1_555
Co3 O1 1.738798 1_565
Co3 O5 1.791683 1_555
Co3 O6 1.806419 1_665
Co4 O11 1.737998 1_565
Co4 O25 1.788595 1_555
Co4 O9 1.846185 1_555
Co4 O24 1.857316 1_555
Co5 O17 1.737998 1_555
Co5 O29 1.788595 1_555
Co5 O30 1.846185 1_555
Co5 O2 1.857316 1_555
Co6 O8 1.737998 1_555
Co6 O14 1.788595 1_555
Co6 O10 1.846185 1_555
Co6 O19 1.857316 1_555
Co7 O13 1.695796 1_555
Co7 O20 1.738798 1_555
Co7 O22 1.791683 1_555
Co7 O23 1.806419 1_655
Cu0 O11 1.868567 1_555
Cu0 O4 1.884136 1_655
Cu0 O10 1.928686 1_555
Cu0 O3 1.962137 1_556
Cu0 O31 2.097024 1_545
Cu1 O14 1.863929 1_555
Cu1 O1 1.870696 1_555
Cu1 O6 1.874199 1_555
Cu1 O9 1.900012 1_545
Cu2 O29 1.863929 1_555
Cu2 O26 1.870696 1_555
Cu2 O12 1.874199 1_555
Cu2 O21 1.900012 1_565
Cu3 O7 1.868567 1_555
Cu3 O22 1.884136 1_455
Cu3 O30 1.928686 1_555
Cu3 O24 1.962137 1_554
Cu3 O16 2.097024 1_565
Cu4 O17 1.868567 1_555
Cu4 O0 1.884136 1_655
Cu4 O21 1.928686 1_555
Cu4 O19 1.962137 1_555
Cu4 O13 2.097024 1_555
Cu5 O15 1.863929 1_555
Cu5 O20 1.870696 1_555
Cu5 O23 1.874199 1_555
Cu5 O30 1.900012 1_555
Cu6 O8 1.868567 1_555
Cu6 O5 1.884136 1_455
Cu6 O9 1.928686 1_555
Cu6 O2 1.962137 1_555
Cu6 O18 2.097024 1_555
Cu7 O25 1.863929 1_555
Cu7 O27 1.870696 1_555
Cu7 O28 1.874199 1_555
Cu7 O10 1.900012 1_555
