# generated using pymatgen
data_TbFe6Co5W
_symmetry_space_group_name_H-M   'P 1'
_cell_length_a   4.62611500
_cell_length_b   6.32580997
_cell_length_c   6.32580997
_cell_angle_alpha   96.70163723
_cell_angle_beta   111.44783925
_cell_angle_gamma   68.55216075
_symmetry_Int_Tables_number   1
_chemical_formula_structural   TbFe6Co5W
_chemical_formula_sum   'Tb1 Fe6 Co5 W1'
_cell_volume   160.33631699
_cell_formula_units_Z   1
loop_
 _symmetry_equiv_pos_site_id
 _symmetry_equiv_pos_as_xyz
  1  'x, y, z'
loop_
 _atom_site_type_symbol
 _atom_site_label
 _atom_site_symmetry_multiplicity
 _atom_site_fract_x
 _atom_site_fract_y
 _atom_site_fract_z
 _atom_site_occupancy
  Tb  Tb0  1  0.00000000  0.00598800  0.00598800  1
  Fe  Fe0  1  0.49762800  0.00384000  0.50190200  1
  Fe  Fe1  1  0.00043400  0.00384000  0.50190200  1
  Fe  Fe2  1  0.50237200  0.50190200  0.00384000  1
  Fe  Fe3  1  0.99956600  0.50190200  0.00384000  1
  Fe  Fe4  1  0.50000000  0.77360800  0.77360800  1
  Fe  Fe5  1  0.50000000  0.23055900  0.23055900  1
  Co  Co0  1  0.64479000  0.35302100  0.64260100  1
  Co  Co1  1  0.35521000  0.64260100  0.35302100  1
  Co  Co2  1  0.00000000  0.35326500  0.35326500  1
  Co  Co3  1  0.71288600  0.78609300  0.21186500  1
  Co  Co4  1  0.28711400  0.21186500  0.78609300  1
  W  W0  1  0.00000000  0.63151600  0.63151600  1
loop_
_geom_bond_atom_site_label_1
_geom_bond_atom_site_label_2
_geom_bond_distance
_geom_bond_site_symmetry_2
Tb0 W0 3.148508 1_544
Fe0 Fe1 2.300077 1_555
Fe0 Fe1 2.326038 1_655
Fe0 Fe5 2.367085 1_555
Fe0 Fe4 2.373633 1_545
Fe0 W0 2.583572 1_645
Fe0 Tb0 3.137936 1_555
Fe0 Tb0 3.187927 1_656
Fe1 Fe5 2.367085 1_455
Fe1 Fe4 2.373633 1_545
Fe1 W0 2.583572 1_545
Fe1 Tb0 3.137936 1_555
Fe1 Tb0 3.187927 1_556
Fe2 Fe3 2.300077 1_555
Fe2 Fe3 2.326038 1_455
Fe2 Fe5 2.367085 1_555
Fe2 Fe4 2.373633 1_554
Fe2 W0 2.583572 1_554
Fe2 Tb0 3.137936 1_655
Fe2 Tb0 3.187927 1_565
Fe3 Fe5 2.367085 1_655
Fe3 Fe4 2.373633 1_554
Fe3 W0 2.583572 1_654
Fe3 Tb0 3.137936 1_655
Fe3 Tb0 3.187927 1_665
Fe4 W0 2.603367 1_555
Fe4 W0 2.603367 1_655
Fe4 Tb0 3.027811 1_666
Fe4 Tb0 3.027811 1_566
Fe5 Tb0 2.985865 1_555
Fe5 Tb0 2.985865 1_655
Co0 Co1 2.387419 1_555
Co0 Fe1 2.516428 1_655
Co0 Fe0 2.516428 1_555
Co0 Fe5 2.544411 1_555
Co0 Fe3 2.586079 1_556
Co0 Fe2 2.586079 1_556
Co0 Co4 2.593675 1_655
Co0 Co4 2.593675 1_555
Co0 Fe4 2.608077 1_555
Co0 W0 2.835303 1_555
Co0 W0 2.835303 1_655
Co0 Co2 2.872662 1_555
Co0 Co2 2.872662 1_655
Co0 Tb0 2.929307 1_656
Co1 Fe3 2.516428 1_455
Co1 Fe2 2.516428 1_555
Co1 Fe5 2.544411 1_555
Co1 Fe1 2.586079 1_565
Co1 Fe0 2.586079 1_565
Co1 Co3 2.593675 1_455
Co1 Co3 2.593675 1_555
Co1 Fe4 2.608077 1_555
Co1 W0 2.835303 1_655
Co1 W0 2.835303 1_555
Co1 Co2 2.872662 1_655
Co1 Co2 2.872662 1_555
Co1 Tb0 2.929307 1_565
Co2 W0 2.339495 1_555
Co2 Fe0 2.500075 1_555
Co2 Fe2 2.500075 1_455
Co2 Fe3 2.500075 1_455
Co2 Fe1 2.500075 1_555
Co2 Fe5 2.532712 1_555
Co2 Fe5 2.532712 1_455
Co2 Co4 2.665348 1_555
Co2 Co3 2.665348 1_455
Co2 Tb0 2.919856 1_555
Co3 Fe3 2.388080 1_555
Co3 Fe2 2.388080 1_555
Co3 Fe1 2.449145 1_665
Co3 Fe0 2.449145 1_565
Co3 Fe4 2.582838 1_554
Co3 W0 2.616273 1_655
Co3 Fe5 2.621377 1_565
Co3 Tb0 2.904162 1_565
Co3 Tb0 2.904162 1_665
Co4 Fe1 2.388080 1_555
Co4 Fe0 2.388080 1_555
Co4 Fe3 2.449145 1_456
Co4 Fe2 2.449145 1_556
Co4 Fe4 2.582838 1_545
Co4 W0 2.616273 1_555
Co4 Fe5 2.621377 1_556
Co4 Tb0 2.904162 1_656
Co4 Tb0 2.904162 1_556
