# generated using pymatgen
data_CaCr3P3O13
_symmetry_space_group_name_H-M   'P 1'
_cell_length_a   6.36789400
_cell_length_b   7.58275300
_cell_length_c   10.34038798
_cell_angle_alpha   79.75459078
_cell_angle_beta   90.00000000
_cell_angle_gamma   90.00000000
_symmetry_Int_Tables_number   1
_chemical_formula_structural   CaCr3P3O13
_chemical_formula_sum   'Ca2 Cr6 P6 O26'
_cell_volume   491.33637855
_cell_formula_units_Z   2
loop_
 _symmetry_equiv_pos_site_id
 _symmetry_equiv_pos_as_xyz
  1  'x, y, z'
loop_
 _atom_site_type_symbol
 _atom_site_label
 _atom_site_symmetry_multiplicity
 _atom_site_fract_x
 _atom_site_fract_y
 _atom_site_fract_z
 _atom_site_occupancy
  Ca  Ca0  1  0.75000000  0.34215800  0.19540700  1
  Ca  Ca1  1  0.25000000  0.65784200  0.80459300  1
  Cr  Cr0  1  0.25000000  0.64131700  0.20031200  1
  Cr  Cr1  1  0.75000000  0.35868300  0.79968800  1
  Cr  Cr2  1  0.25000000  0.22468900  0.43950200  1
  Cr  Cr3  1  0.50000000  0.00000000  0.00000000  1
  Cr  Cr4  1  0.75000000  0.77531100  0.56049800  1
  Cr  Cr5  1  0.00000000  0.00000000  0.00000000  1
  P  P0  1  0.25000000  0.79031700  0.48573300  1
  P  P1  1  0.75000000  0.20968300  0.51426700  1
  P  P2  1  0.25000000  0.25975200  0.76404600  1
  P  P3  1  0.75000000  0.74024800  0.23595400  1
  P  P4  1  0.75000000  0.68648100  0.88688400  1
  P  P5  1  0.25000000  0.31351900  0.11311600  1
  O  O0  1  0.75000000  0.64378800  0.74342900  1
  O  O1  1  0.56068600  0.24805800  0.41698500  1
  O  O2  1  0.25000000  0.20300800  0.63053300  1
  O  O3  1  0.54705200  0.79046900  0.90515000  1
  O  O4  1  0.75000000  0.34009100  0.61166700  1
  O  O5  1  0.75000000  0.12278400  0.90526100  1
  O  O6  1  0.25000000  0.65990900  0.38833300  1
  O  O7  1  0.04705200  0.20953100  0.09485000  1
  O  O8  1  0.25000000  0.98353700  0.40747600  1
  O  O9  1  0.75000000  0.01646300  0.59252400  1
  O  O10  1  0.06212300  0.37850100  0.78859000  1
  O  O11  1  0.25000000  0.87721600  0.09473900  1
  O  O12  1  0.56212300  0.62149900  0.21141000  1
  O  O13  1  0.75000000  0.49209300  0.96515700  1
  O  O14  1  0.75000000  0.79699200  0.36946700  1
  O  O15  1  0.45294800  0.20953100  0.09485000  1
  O  O16  1  0.93931400  0.24805800  0.41698500  1
  O  O17  1  0.43931400  0.75194200  0.58301500  1
  O  O18  1  0.43787700  0.37850100  0.78859000  1
  O  O19  1  0.25000000  0.35621200  0.25657100  1
  O  O20  1  0.75000000  0.91614700  0.12685200  1
  O  O21  1  0.25000000  0.08385300  0.87314800  1
  O  O22  1  0.93787700  0.62149900  0.21141000  1
  O  O23  1  0.95294800  0.79046900  0.90515000  1
  O  O24  1  0.06068600  0.75194200  0.58301500  1
  O  O25  1  0.25000000  0.50790700  0.03484300  1
loop_
_geom_bond_atom_site_label_1
_geom_bond_atom_site_label_2
_geom_bond_distance
_geom_bond_site_symmetry_2
Ca0 O13 2.449130 1_554
Ca0 O15 2.458188 1_555
Ca0 O7 2.458188 1_655
Ca0 O22 2.463748 1_555
Ca0 O12 2.463748 1_555
Ca0 O16 2.574972 1_555
Ca0 O1 2.574972 1_555
Ca1 O25 2.449130 1_556
Ca1 O3 2.458188 1_555
Ca1 O23 2.458188 1_455
Ca1 O18 2.463748 1_555
Ca1 O10 2.463748 1_555
Ca1 O17 2.574972 1_555
Ca1 O24 2.574972 1_555
Cr0 O11 1.922698 1_555
Cr0 O6 1.974166 1_555
Cr0 O12 1.995003 1_555
Cr0 O22 1.995003 1_455
Cr0 O19 2.136531 1_555
Cr0 O25 2.136975 1_555
Cr1 O5 1.922698 1_555
Cr1 O4 1.974166 1_555
Cr1 O10 1.995003 1_655
Cr1 O18 1.995003 1_555
Cr1 O0 2.136531 1_555
Cr1 O13 2.136975 1_555
Cr2 O8 1.915423 1_545
Cr2 O2 1.952806 1_555
Cr2 O19 1.975249 1_555
Cr2 O16 1.996262 1_455
Cr2 O1 1.996262 1_555
Cr3 O11 2.009092 1_545
Cr3 O5 2.009092 1_554
Cr3 O3 2.032339 1_544
Cr3 O15 2.032339 1_555
Cr3 O20 2.088668 1_545
Cr3 O21 2.088668 1_554
Cr4 O9 1.915423 1_565
Cr4 O14 1.952806 1_555
Cr4 O0 1.975249 1_555
Cr4 O17 1.996262 1_555
Cr4 O24 1.996262 1_655
Cr5 O11 2.009092 1_545
Cr5 O5 2.009092 1_454
Cr5 O23 2.032339 1_444
Cr5 O7 2.032339 1_555
Cr5 O20 2.088668 1_445
Cr5 O21 2.088668 1_554
O0 P4 1.573546 1_555
O1 P1 1.563891 1_555
O2 P2 1.517380 1_555
O3 P4 1.542914 1_555
O4 P1 1.531818 1_555
O6 P0 1.531818 1_555
O7 P5 1.542914 1_555
O8 P0 1.542627 1_555
O9 P1 1.542627 1_555
O10 P2 1.545261 1_555
O12 P3 1.545261 1_555
O13 P4 1.550277 1_555
O14 P3 1.517380 1_555
O15 P5 1.542914 1_555
O16 P1 1.563891 1_555
O17 P0 1.563891 1_555
O18 P2 1.545261 1_555
O19 P5 1.573546 1_555
O20 P3 1.586341 1_555
O21 P2 1.586341 1_555
O22 P3 1.545261 1_555
O23 P4 1.542914 1_555
O24 P0 1.563891 1_555
O25 P5 1.550277 1_555
