# generated using pymatgen
data_Mn2ZnO4
_symmetry_space_group_name_H-M   'P 1'
_cell_length_a   3.00815100
_cell_length_b   9.10823200
_cell_length_c   10.49544100
_cell_angle_alpha   90.00000000
_cell_angle_beta   90.00000000
_cell_angle_gamma   90.00000000
_symmetry_Int_Tables_number   1
_chemical_formula_structural   Mn2ZnO4
_chemical_formula_sum   'Mn8 Zn4 O16'
_cell_volume   287.56392884
_cell_formula_units_Z   4
loop_
 _symmetry_equiv_pos_site_id
 _symmetry_equiv_pos_as_xyz
  1  'x, y, z'
loop_
 _atom_site_type_symbol
 _atom_site_label
 _atom_site_symmetry_multiplicity
 _atom_site_fract_x
 _atom_site_fract_y
 _atom_site_fract_z
 _atom_site_occupancy
  Mn  Mn0  1  0.75000000  0.91645100  0.10515400  1
  Mn  Mn1  1  0.25000000  0.58354900  0.60515400  1
  Mn  Mn2  1  0.75000000  0.41645100  0.39484600  1
  Mn  Mn3  1  0.25000000  0.08354900  0.89484600  1
  Mn  Mn4  1  0.25000000  0.06545500  0.38296200  1
  Mn  Mn5  1  0.75000000  0.93454500  0.61703800  1
  Mn  Mn6  1  0.25000000  0.56545500  0.11703800  1
  Mn  Mn7  1  0.75000000  0.43454500  0.88296200  1
  Zn  Zn0  1  0.25000000  0.74899000  0.34916600  1
  Zn  Zn1  1  0.75000000  0.25101000  0.65083400  1
  Zn  Zn2  1  0.25000000  0.24899000  0.15083400  1
  Zn  Zn3  1  0.75000000  0.75101000  0.84916600  1
  O  O0  1  0.75000000  0.40192600  0.07135900  1
  O  O1  1  0.25000000  0.59807400  0.92864100  1
  O  O2  1  0.75000000  0.90192600  0.42864100  1
  O  O3  1  0.25000000  0.09807400  0.57135900  1
  O  O4  1  0.75000000  0.52223500  0.71534900  1
  O  O5  1  0.25000000  0.47776500  0.28465100  1
  O  O6  1  0.75000000  0.02223500  0.78465100  1
  O  O7  1  0.25000000  0.97776500  0.21534900  1
  O  O8  1  0.75000000  0.11781000  0.03225300  1
  O  O9  1  0.25000000  0.88219000  0.96774700  1
  O  O10  1  0.75000000  0.61781000  0.46774700  1
  O  O11  1  0.25000000  0.38219000  0.53225300  1
  O  O12  1  0.25000000  0.28156600  0.81938900  1
  O  O13  1  0.75000000  0.71843400  0.18061100  1
  O  O14  1  0.75000000  0.21843400  0.31938900  1
  O  O15  1  0.25000000  0.78156600  0.68061100  1
loop_
_geom_bond_atom_site_label_1
_geom_bond_atom_site_label_2
_geom_bond_distance
_geom_bond_site_symmetry_2
Mn0 O13 1.969799 1_555
Mn0 O7 1.977807 1_655
Mn0 O7 1.977807 1_555
Mn0 O8 1.987226 1_565
Mn0 O9 2.106991 1_654
Mn0 O9 2.106991 1_554
Mn1 O15 1.969799 1_555
Mn1 O4 1.977807 1_455
Mn1 O4 1.977807 1_555
Mn1 O11 1.987226 1_555
Mn1 O10 2.106991 1_455
Mn1 O10 2.106991 1_555
Mn2 O14 1.969799 1_555
Mn2 O5 1.977807 1_655
Mn2 O5 1.977807 1_555
Mn2 O10 1.987226 1_555
Mn2 O11 2.106991 1_655
Mn2 O11 2.106991 1_555
Mn3 O12 1.969799 1_555
Mn3 O6 1.977807 1_555
Mn3 O6 1.977807 1_455
Mn3 O9 1.987226 1_545
Mn3 O8 2.106991 1_456
Mn3 O8 2.106991 1_556
Mn4 O7 1.931996 1_545
Mn4 O3 1.999506 1_555
Mn4 O14 2.156133 1_455
Mn4 O14 2.156133 1_555
Mn4 O2 2.170387 1_545
Mn4 O2 2.170387 1_445
Mn5 O6 1.931996 1_565
Mn5 O2 1.999506 1_555
Mn5 O15 2.156133 1_555
Mn5 O15 2.156133 1_655
Mn5 O3 2.170387 1_665
Mn5 O3 2.170387 1_565
Mn6 O5 1.931996 1_555
Mn6 O1 1.999506 1_554
Mn6 O13 2.156133 1_455
Mn6 O13 2.156133 1_555
Mn6 O0 2.170387 1_555
Mn6 O0 2.170387 1_455
Mn7 O4 1.931996 1_555
Mn7 O0 1.999506 1_556
Mn7 O12 2.156133 1_555
Mn7 O12 2.156133 1_655
Mn7 O1 2.170387 1_655
Mn7 O1 2.170387 1_555
O0 Zn2 2.213231 1_555
O0 Zn2 2.213231 1_655
O1 Zn3 2.213231 1_455
O1 Zn3 2.213231 1_555
O2 Zn0 2.213231 1_555
O2 Zn0 2.213231 1_655
O3 Zn1 2.213231 1_555
O3 Zn1 2.213231 1_455
O4 Zn3 2.512864 1_555
O4 Zn1 2.561496 1_555
O5 Zn2 2.512864 1_555
O5 Zn0 2.561496 1_555
O6 Zn1 2.512864 1_555
O6 Zn3 2.561496 1_545
O7 Zn0 2.512864 1_555
O7 Zn2 2.561496 1_565
O8 Zn2 2.288834 1_555
O8 Zn2 2.288834 1_655
O9 Zn3 2.288834 1_455
O9 Zn3 2.288834 1_555
O10 Zn0 2.288834 1_555
O10 Zn0 2.288834 1_655
O11 Zn1 2.288834 1_555
O11 Zn1 2.288834 1_455
O12 Zn1 2.338647 1_455
O12 Zn1 2.338647 1_555
O13 Zn0 2.338647 1_555
O13 Zn0 2.338647 1_655
O14 Zn2 2.338647 1_555
O14 Zn2 2.338647 1_655
O15 Zn3 2.338647 1_555
O15 Zn3 2.338647 1_455
