# generated using pymatgen
data_Ce4ZrO10
_symmetry_space_group_name_H-M   'P 1'
_cell_length_a   13.81323069
_cell_length_b   13.81323069
_cell_length_c   13.81323069
_cell_angle_alpha   164.12384202
_cell_angle_beta   164.12384202
_cell_angle_gamma   22.52530123
_symmetry_Int_Tables_number   1
_chemical_formula_structural   Ce4ZrO10
_chemical_formula_sum   'Ce4 Zr1 O10'
_cell_volume   197.19944271
_cell_formula_units_Z   1
loop_
 _symmetry_equiv_pos_site_id
 _symmetry_equiv_pos_as_xyz
  1  'x, y, z'
loop_
 _atom_site_type_symbol
 _atom_site_label
 _atom_site_symmetry_multiplicity
 _atom_site_fract_x
 _atom_site_fract_y
 _atom_site_fract_z
 _atom_site_occupancy
  Ce  Ce0  1  0.40267300  0.40267300  0.00000000  1
  Ce  Ce1  1  0.80091700  0.80091700  0.00000000  1
  Ce  Ce2  1  0.19908300  0.19908300  0.00000000  1
  Ce  Ce3  1  0.59732700  0.59732700  0.00000000  1
  Zr  Zr0  1  0.00000000  0.00000000  0.00000000  1
  O  O0  1  0.54632100  0.04632100  0.50000000  1
  O  O1  1  0.75000000  0.25000000  0.50000000  1
  O  O2  1  0.14813800  0.64813800  0.50000000  1
  O  O3  1  0.95367900  0.45367900  0.50000000  1
  O  O4  1  0.35186200  0.85186200  0.50000000  1
  O  O5  1  0.45367900  0.95367900  0.50000000  1
  O  O6  1  0.64813800  0.14813800  0.50000000  1
  O  O7  1  0.04632100  0.54632100  0.50000000  1
  O  O8  1  0.85186200  0.35186200  0.50000000  1
  O  O9  1  0.25000000  0.75000000  0.50000000  1
loop_
_geom_bond_atom_site_label_1
_geom_bond_atom_site_label_2
_geom_bond_distance
_geom_bond_site_symmetry_2
Ce0 O8 2.352531 1_454
Ce0 O4 2.352531 1_555
Ce0 O8 2.352531 1_555
Ce0 O4 2.352531 1_544
Ce0 O5 2.355627 1_544
Ce0 O3 2.355627 1_555
Ce0 O3 2.355627 1_454
Ce0 O5 2.355627 1_555
Ce1 O1 2.354213 1_554
Ce1 O9 2.354213 1_655
Ce1 O1 2.354213 1_565
Ce1 O9 2.354213 1_554
Ce1 O4 2.354658 1_554
Ce1 O8 2.354658 1_554
Ce1 O4 2.354658 1_655
Ce1 O8 2.354658 1_565
Ce2 O9 2.354213 1_544
Ce2 O1 2.354213 1_555
Ce2 O9 2.354213 1_555
Ce2 O1 2.354213 1_454
Ce2 O6 2.354658 1_555
Ce2 O2 2.354658 1_544
Ce2 O6 2.354658 1_454
Ce2 O2 2.354658 1_555
Ce3 O6 2.352531 1_565
Ce3 O2 2.352531 1_655
Ce3 O2 2.352531 1_554
Ce3 O6 2.352531 1_554
Ce3 O7 2.355627 1_655
Ce3 O0 2.355627 1_565
Ce3 O0 2.355627 1_554
Ce3 O7 2.355627 1_554
O0 Zr0 2.283472 1_555
O0 Zr0 2.283472 1_656
O3 Zr0 2.283472 1_655
O3 Zr0 2.283472 1_666
O5 Zr0 2.283472 1_565
O5 Zr0 2.283472 1_666
O7 Zr0 2.283472 1_555
O7 Zr0 2.283472 1_566
