# generated using pymatgen
data_CeGaRh
_symmetry_space_group_name_H-M   'P 1'
_cell_length_a   4.64615800
_cell_length_b   6.91441100
_cell_length_c   7.42406300
_cell_angle_alpha   90.00000000
_cell_angle_beta   90.00000000
_cell_angle_gamma   90.00000000
_symmetry_Int_Tables_number   1
_chemical_formula_structural   CeGaRh
_chemical_formula_sum   'Ce4 Ga4 Rh4'
_cell_volume   238.50133488
_cell_formula_units_Z   4
loop_
 _symmetry_equiv_pos_site_id
 _symmetry_equiv_pos_as_xyz
  1  'x, y, z'
loop_
 _atom_site_type_symbol
 _atom_site_label
 _atom_site_symmetry_multiplicity
 _atom_site_fract_x
 _atom_site_fract_y
 _atom_site_fract_z
 _atom_site_occupancy
  Ce  Ce0  1  0.25000000  0.17598000  0.97093200  1
  Ce  Ce1  1  0.25000000  0.32402000  0.47093200  1
  Ce  Ce2  1  0.75000000  0.82402000  0.02906800  1
  Ce  Ce3  1  0.75000000  0.67598000  0.52906800  1
  Ga  Ga0  1  0.25000000  0.89070300  0.30743900  1
  Ga  Ga1  1  0.25000000  0.60929700  0.80743900  1
  Ga  Ga2  1  0.75000000  0.10929700  0.69256100  1
  Ga  Ga3  1  0.75000000  0.39070300  0.19256100  1
  Rh  Rh0  1  0.25000000  0.93886500  0.65192800  1
  Rh  Rh1  1  0.25000000  0.56113500  0.15192800  1
  Rh  Rh2  1  0.75000000  0.06113500  0.34807200  1
  Rh  Rh3  1  0.75000000  0.43886500  0.84807200  1
loop_
_geom_bond_atom_site_label_1
_geom_bond_atom_site_label_2
_geom_bond_distance
_geom_bond_site_symmetry_2
Ce0 Rh0 2.880428 1_545
Ce0 Rh1 2.982919 1_556
Ce0 Rh3 3.087503 1_555
Ce0 Rh3 3.087503 1_455
Ce0 Ga2 3.143295 1_455
Ce0 Ga2 3.143295 1_555
Ce0 Ga0 3.183095 1_546
Ce0 Ga3 3.210651 1_456
Ce0 Ga3 3.210651 1_556
Ce0 Ga1 3.232657 1_555
Ce1 Rh1 2.880428 1_555
Ce1 Rh0 2.982919 1_545
Ce1 Rh2 3.087503 1_455
Ce1 Rh2 3.087503 1_555
Ce1 Ga3 3.143295 1_455
Ce1 Ga3 3.143295 1_555
Ce1 Ga1 3.183095 1_555
Ce1 Ga2 3.210651 1_555
Ce1 Ga2 3.210651 1_455
Ce1 Ga0 3.232657 1_545
Ce2 Rh2 2.880428 1_565
Ce2 Rh3 2.982919 1_554
Ce2 Rh1 3.087503 1_555
Ce2 Rh1 3.087503 1_655
Ce2 Ga0 3.143295 1_555
Ce2 Ga0 3.143295 1_655
Ce2 Ga2 3.183095 1_564
Ce2 Ga1 3.210651 1_654
Ce2 Ga1 3.210651 1_554
Ce2 Ga3 3.232657 1_555
Ce3 Rh3 2.880428 1_555
Ce3 Rh2 2.982919 1_565
Ce3 Rh0 3.087503 1_655
Ce3 Rh0 3.087503 1_555
Ce3 Ga1 3.143295 1_555
Ce3 Ga1 3.143295 1_655
Ce3 Ga3 3.183095 1_555
Ce3 Ga0 3.210651 1_555
Ce3 Ga0 3.210651 1_655
Ce3 Ga2 3.232657 1_565
Ga0 Rh1 2.554547 1_555
Ga0 Rh0 2.579098 1_555
Ga0 Rh2 2.622291 1_565
Ga0 Rh2 2.622291 1_465
Ga1 Rh0 2.554547 1_555
Ga1 Rh1 2.579098 1_556
Ga1 Rh3 2.622291 1_455
Ga1 Rh3 2.622291 1_555
Ga2 Rh3 2.554547 1_555
Ga2 Rh2 2.579098 1_555
Ga2 Rh0 2.622291 1_645
Ga2 Rh0 2.622291 1_545
Ga3 Rh2 2.554547 1_555
Ga3 Rh3 2.579098 1_554
Ga3 Rh1 2.622291 1_555
Ga3 Rh1 2.622291 1_655
