# generated using pymatgen
data_LaNi3B
_symmetry_space_group_name_H-M   'P 1'
_cell_length_a   9.64092516
_cell_length_b   9.64092516
_cell_length_c   7.13031900
_cell_angle_alpha   90.00000000
_cell_angle_beta   90.00000000
_cell_angle_gamma   118.56859189
_symmetry_Int_Tables_number   1
_chemical_formula_structural   LaNi3B
_chemical_formula_sum   'La8 Ni24 B8'
_cell_volume   582.05254546
_cell_formula_units_Z   8
loop_
 _symmetry_equiv_pos_site_id
 _symmetry_equiv_pos_as_xyz
  1  'x, y, z'
loop_
 _atom_site_type_symbol
 _atom_site_label
 _atom_site_symmetry_multiplicity
 _atom_site_fract_x
 _atom_site_fract_y
 _atom_site_fract_z
 _atom_site_occupancy
  La  La0  1  0.45887200  0.03050300  0.75000000  1
  La  La1  1  0.03050300  0.45887200  0.25000000  1
  La  La2  1  0.54112800  0.96949700  0.25000000  1
  La  La3  1  0.96949700  0.54112800  0.75000000  1
  La  La4  1  0.53658300  0.46341700  0.75000000  1
  La  La5  1  0.46341700  0.53658300  0.25000000  1
  La  La6  1  0.03529200  0.96470800  0.75000000  1
  La  La7  1  0.96470800  0.03529200  0.25000000  1
  Ni  Ni0  1  0.74934900  0.00191500  0.92654200  1
  Ni  Ni1  1  0.00191500  0.74934900  0.07345800  1
  Ni  Ni2  1  0.74934900  0.00191500  0.57345800  1
  Ni  Ni3  1  0.00191500  0.74934900  0.42654200  1
  Ni  Ni4  1  0.25065100  0.99808500  0.07345800  1
  Ni  Ni5  1  0.99808500  0.25065100  0.92654200  1
  Ni  Ni6  1  0.25065100  0.99808500  0.42654200  1
  Ni  Ni7  1  0.99808500  0.25065100  0.57345800  1
  Ni  Ni8  1  0.50206600  0.74942000  0.92647300  1
  Ni  Ni9  1  0.74942000  0.50206600  0.07352700  1
  Ni  Ni10  1  0.50206600  0.74942000  0.57352700  1
  Ni  Ni11  1  0.74942000  0.50206600  0.42647300  1
  Ni  Ni12  1  0.49793400  0.25058000  0.07352700  1
  Ni  Ni13  1  0.25058000  0.49793400  0.92647300  1
  Ni  Ni14  1  0.49793400  0.25058000  0.42647300  1
  Ni  Ni15  1  0.25058000  0.49793400  0.57352700  1
  Ni  Ni16  1  0.74517200  0.25482800  0.98978500  1
  Ni  Ni17  1  0.25482800  0.74517200  0.01021500  1
  Ni  Ni18  1  0.74517200  0.25482800  0.51021500  1
  Ni  Ni19  1  0.25482800  0.74517200  0.48978500  1
  Ni  Ni20  1  0.75227400  0.75227400  0.00000000  1
  Ni  Ni21  1  0.75227400  0.75227400  0.50000000  1
  Ni  Ni22  1  0.24772600  0.24772600  0.00000000  1
  Ni  Ni23  1  0.24772600  0.24772600  0.50000000  1
  B  B0  1  0.68611200  0.81864000  0.75000000  1
  B  B1  1  0.81864000  0.68611200  0.25000000  1
  B  B2  1  0.31388800  0.18136000  0.25000000  1
  B  B3  1  0.18136000  0.31388800  0.75000000  1
  B  B4  1  0.81372000  0.18628000  0.75000000  1
  B  B5  1  0.18628000  0.81372000  0.25000000  1
  B  B6  1  0.31907800  0.68092200  0.75000000  1
  B  B7  1  0.68092200  0.31907800  0.25000000  1
loop_
_geom_bond_atom_site_label_1
_geom_bond_atom_site_label_2
_geom_bond_distance
_geom_bond_site_symmetry_2
La0 Ni4 2.974346 1_546
La0 Ni6 2.974346 1_545
La0 Ni12 3.033311 1_556
La0 Ni14 3.033311 1_555
La0 Ni18 3.083804 1_555
La0 Ni16 3.083804 1_555
La0 Ni19 3.115117 1_545
La0 Ni17 3.115117 1_546
La0 Ni10 3.190552 1_545
La0 Ni8 3.190552 1_545
La0 Ni0 3.200214 1_555
La0 Ni2 3.200214 1_555
La1 Ni7 2.974346 1_455
La1 Ni5 2.974346 1_454
La1 Ni15 3.033311 1_555
La1 Ni13 3.033311 1_554
La1 Ni19 3.083804 1_555
La1 Ni17 3.083804 1_555
La1 Ni16 3.115117 1_454
La1 Ni18 3.115117 1_455
La1 Ni11 3.190552 1_455
La1 Ni9 3.190552 1_455
La1 Ni1 3.200214 1_555
La1 Ni3 3.200214 1_555
La2 Ni2 2.974346 1_565
La2 Ni0 2.974346 1_564
La2 Ni10 3.033311 1_555
La2 Ni8 3.033311 1_554
La2 Ni19 3.083804 1_555
La2 Ni17 3.083804 1_555
La2 Ni16 3.115117 1_564
La2 Ni18 3.115117 1_565
La2 Ni12 3.190552 1_565
La2 Ni14 3.190552 1_565
La2 Ni4 3.200214 1_555
La2 Ni6 3.200214 1_555
La3 Ni1 2.974346 1_656
La3 Ni3 2.974346 1_655
La3 Ni9 3.033311 1_556
La3 Ni11 3.033311 1_555
La3 Ni16 3.083804 1_555
La3 Ni18 3.083804 1_555
La3 Ni19 3.115117 1_655
La3 Ni17 3.115117 1_656
La3 Ni15 3.190552 1_655
La3 Ni13 3.190552 1_655
La3 Ni7 3.200214 1_555
La3 Ni5 3.200214 1_555
La4 Ni9 2.989920 1_556
La4 Ni11 2.989920 1_555
La4 Ni12 2.989920 1_556
La4 Ni14 2.989920 1_555
La4 Ni21 3.117453 1_555
La4 Ni20 3.117453 1_556
La4 Ni23 3.117453 1_555
La4 Ni22 3.117453 1_556
La4 Ni13 3.189758 1_555
La4 Ni10 3.189758 1_555
La4 Ni8 3.189758 1_555
La4 Ni15 3.189758 1_555
La5 Ni10 2.989920 1_555
La5 Ni8 2.989920 1_554
La5 Ni13 2.989920 1_554
La5 Ni15 2.989920 1_555
La5 Ni21 3.117453 1_555
La5 Ni20 3.117453 1_555
La5 Ni22 3.117453 1_555
La5 Ni23 3.117453 1_555
La5 Ni9 3.189758 1_555
La5 Ni14 3.189758 1_555
La5 Ni11 3.189758 1_555
La5 Ni12 3.189758 1_555
La6 Ni1 3.015742 1_556
La6 Ni3 3.015742 1_555
La6 Ni6 3.015742 1_555
La6 Ni4 3.015742 1_556
La6 Ni20 3.077733 1_456
La6 Ni21 3.077733 1_455
La6 Ni23 3.077733 1_565
La6 Ni22 3.077733 1_566
La6 Ni0 3.202926 1_465
La6 Ni2 3.202926 1_465
La6 Ni7 3.202926 1_465
La6 Ni5 3.202926 1_465
La7 Ni0 3.015742 1_554
La7 Ni2 3.015742 1_555
La7 Ni7 3.015742 1_555
La7 Ni5 3.015742 1_554
La7 Ni21 3.077733 1_545
La7 Ni20 3.077733 1_545
La7 Ni22 3.077733 1_655
La7 Ni23 3.077733 1_655
La7 Ni3 3.202926 1_645
La7 Ni1 3.202926 1_645
La7 Ni6 3.202926 1_645
La7 Ni4 3.202926 1_645
B0 Ni10 2.011113 1_555
B0 Ni8 2.011113 1_555
B0 Ni2 2.011978 1_565
B0 Ni0 2.011978 1_565
B0 Ni20 2.093843 1_556
B0 Ni21 2.093843 1_555
B0 La6 2.963408 1_655
B0 La4 3.014095 1_555
B1 Ni9 2.011113 1_555
B1 Ni11 2.011113 1_555
B1 Ni3 2.011978 1_655
B1 Ni1 2.011978 1_655
B1 Ni20 2.093843 1_555
B1 Ni21 2.093843 1_555
B1 La7 2.963408 1_565
B1 La5 3.014095 1_555
B2 Ni14 2.011113 1_555
B2 Ni12 2.011113 1_555
B2 Ni6 2.011978 1_545
B2 Ni4 2.011978 1_545
B2 Ni22 2.093843 1_555
B2 Ni23 2.093843 1_555
B2 La7 2.963408 1_455
B2 La5 3.014095 1_555
B3 Ni13 2.011113 1_555
B3 Ni15 2.011113 1_555
B3 Ni5 2.011978 1_455
B3 Ni7 2.011978 1_455
B3 Ni23 2.093843 1_555
B3 Ni22 2.093843 1_556
B3 La6 2.963408 1_545
B3 La4 3.014095 1_555
B4 Ni7 2.018425 1_555
B4 Ni0 2.018425 1_555
B4 Ni5 2.018425 1_555
B4 Ni2 2.018425 1_555
B4 Ni16 2.052906 1_555
B4 Ni18 2.052906 1_555
B4 La0 3.007526 1_555
B4 La3 3.007526 1_555
B5 Ni6 2.018425 1_555
B5 Ni3 2.018425 1_555
B5 Ni1 2.018425 1_555
B5 Ni4 2.018425 1_555
B5 Ni19 2.052906 1_555
B5 Ni17 2.052906 1_555
B5 La1 3.007526 1_555
B5 La2 3.007526 1_555
B6 Ni13 2.004369 1_555
B6 Ni10 2.004369 1_555
B6 Ni8 2.004369 1_555
B6 Ni15 2.004369 1_555
B6 Ni19 2.139375 1_555
B6 Ni17 2.139375 1_556
B6 La3 2.971683 1_455
B6 La0 2.971683 1_565
B7 Ni9 2.004369 1_555
B7 Ni14 2.004369 1_555
B7 Ni11 2.004369 1_555
B7 Ni12 2.004369 1_555
B7 Ni16 2.139375 1_554
B7 Ni18 2.139375 1_555
B7 La2 2.971683 1_545
B7 La1 2.971683 1_655
