# generated using pymatgen
data_Ca6Mg2Co(AsO5)6
_symmetry_space_group_name_H-M   'P 1'
_cell_length_a   6.31572500
_cell_length_b   8.77386370
_cell_length_c   11.42397095
_cell_angle_alpha   89.53736237
_cell_angle_beta   89.32896933
_cell_angle_gamma   88.07904585
_symmetry_Int_Tables_number   1
_chemical_formula_structural   Ca6Mg2Co(AsO5)6
_chemical_formula_sum   'Ca6 Mg2 Co1 As6 O30'
_cell_volume   632.62221340
_cell_formula_units_Z   1
loop_
 _symmetry_equiv_pos_site_id
 _symmetry_equiv_pos_as_xyz
  1  'x, y, z'
loop_
 _atom_site_type_symbol
 _atom_site_label
 _atom_site_symmetry_multiplicity
 _atom_site_fract_x
 _atom_site_fract_y
 _atom_site_fract_z
 _atom_site_occupancy
  Ca  Ca0  1  0.84151500  0.60155400  0.88030300  1
  Ca  Ca1  1  0.53780700  0.90106400  0.19742100  1
  Ca  Ca2  1  0.20298600  0.24317500  0.52527900  1
  Ca  Ca3  1  0.46219300  0.09893600  0.80257900  1
  Ca  Ca4  1  0.15848500  0.39844600  0.11969700  1
  Ca  Ca5  1  0.79701400  0.75682500  0.47472100  1
  Mg  Mg0  1  0.67810600  0.33409800  0.33540900  1
  Mg  Mg1  1  0.32189400  0.66590200  0.66459100  1
  Co  Co0  1  0.00000000  0.00000000  0.00000000  1
  As  As0  1  0.65162800  0.27455000  0.04980600  1
  As  As1  1  0.29974000  0.60113100  0.38105900  1
  As  As2  1  0.96710000  0.94629800  0.72236800  1
  As  As3  1  0.70026000  0.39886900  0.61894100  1
  As  As4  1  0.34837200  0.72545000  0.95019400  1
  As  As5  1  0.03290000  0.05370200  0.27763200  1
  O  O0  1  0.74059600  0.08356500  0.07300700  1
  O  O1  1  0.39313500  0.41741400  0.40643800  1
  O  O2  1  0.04214800  0.75735500  0.74023500  1
  O  O3  1  0.60686500  0.58258600  0.59356200  1
  O  O4  1  0.25940400  0.91643500  0.92699300  1
  O  O5  1  0.95785200  0.24264500  0.25976500  1
  O  O6  1  0.47314500  0.87607600  0.68544100  1
  O  O7  1  0.09408900  0.17571900  0.97820100  1
  O  O8  1  0.82839400  0.54194100  0.34890300  1
  O  O9  1  0.90591100  0.82428100  0.02179900  1
  O  O10  1  0.52685500  0.12392400  0.31455900  1
  O  O11  1  0.17160600  0.45805900  0.65109700  1
  O  O12  1  0.51374100  0.32503100  0.17687500  1
  O  O13  1  0.16258500  0.67047000  0.50327300  1
  O  O14  1  0.83866700  0.01253700  0.84988500  1
  O  O15  1  0.83741500  0.32953000  0.49672700  1
  O  O16  1  0.48625900  0.67496900  0.82312500  1
  O  O17  1  0.16133300  0.98746300  0.15011500  1
  O  O18  1  0.47129600  0.28428700  0.94071300  1
  O  O19  1  0.13351400  0.59875600  0.26133200  1
  O  O20  1  0.78150900  0.96037100  0.61229000  1
  O  O21  1  0.86648600  0.40124400  0.73866800  1
  O  O22  1  0.52870400  0.71571300  0.05928700  1
  O  O23  1  0.21849100  0.03962900  0.38771000  1
  O  O24  1  0.83919200  0.40649300  0.02487800  1
  O  O25  1  0.50060000  0.72338800  0.34981700  1
  O  O26  1  0.16728200  0.06350600  0.68194100  1
  O  O27  1  0.49940000  0.27661200  0.65018300  1
  O  O28  1  0.16080800  0.59350700  0.97512200  1
  O  O29  1  0.83271800  0.93649400  0.31805900  1
loop_
_geom_bond_atom_site_label_1
_geom_bond_atom_site_label_2
_geom_bond_distance
_geom_bond_site_symmetry_2
Ca0 O28 2.298968 1_655
Ca0 O24 2.369083 1_556
Ca0 O21 2.398552 1_555
Ca0 O16 2.409649 1_555
Ca0 O2 2.463334 1_655
Ca0 O9 2.591680 1_556
Ca0 O22 2.982107 1_556
Ca1 O22 2.277722 1_555
Ca1 O25 2.342546 1_555
Ca1 O29 2.360302 1_555
Ca1 O10 2.376952 1_565
Ca1 O0 2.506493 1_565
Ca1 O17 2.534331 1_555
Ca2 O11 2.381567 1_555
Ca2 O1 2.381986 1_555
Ca2 O23 2.387226 1_555
Ca2 O26 2.389081 1_555
Ca2 O27 2.394348 1_555
Ca2 O15 2.430554 1_455
Ca3 O18 2.277722 1_555
Ca3 O27 2.342546 1_555
Ca3 O26 2.360302 1_555
Ca3 O6 2.376952 1_545
Ca3 O4 2.506493 1_545
Ca3 O14 2.534331 1_555
Ca4 O24 2.298968 1_455
Ca4 O28 2.369083 1_554
Ca4 O19 2.398552 1_555
Ca4 O12 2.409649 1_555
Ca4 O5 2.463334 1_455
Ca4 O7 2.591680 1_554
Ca4 O18 2.982107 1_554
Ca5 O8 2.381567 1_555
Ca5 O3 2.381986 1_555
Ca5 O20 2.387226 1_555
Ca5 O29 2.389081 1_555
Ca5 O25 2.394348 1_555
Ca5 O13 2.430554 1_655
Mg0 O1 2.078276 1_555
Mg0 O8 2.091454 1_555
Mg0 O5 2.095847 1_555
Mg0 O12 2.101401 1_555
Mg0 O15 2.109439 1_555
Mg0 O10 2.121379 1_555
Mg1 O3 2.078276 1_555
Mg1 O11 2.091454 1_555
Mg1 O2 2.095847 1_555
Mg1 O16 2.101401 1_555
Mg1 O13 2.109439 1_555
Mg1 O6 2.121379 1_555
Co0 O7 1.686368 1_554
Co0 O9 1.686368 1_445
Co0 O4 1.953104 1_544
Co0 O0 1.953104 1_455
Co0 O17 2.005395 1_545
Co0 O14 2.005395 1_454
As0 O18 1.697840 1_554
As0 O24 1.703892 1_555
As0 O12 1.736869 1_555
As0 O0 1.768350 1_555
As1 O25 1.720965 1_555
As1 O1 1.721323 1_555
As1 O19 1.734622 1_555
As1 O13 1.737764 1_555
As2 O26 1.713211 1_665
As2 O2 1.720062 1_655
As2 O20 1.729987 1_555
As2 O14 1.752779 1_565
As3 O27 1.720965 1_555
As3 O3 1.721323 1_555
As3 O21 1.734622 1_555
As3 O15 1.737764 1_555
As4 O22 1.697840 1_556
As4 O28 1.703892 1_555
As4 O16 1.736869 1_555
As4 O4 1.768350 1_555
As5 O29 1.713211 1_445
As5 O5 1.720062 1_455
As5 O23 1.729987 1_555
As5 O17 1.752779 1_545
