# generated using pymatgen
data_SrTeO3
_symmetry_space_group_name_H-M   'P 1'
_cell_length_a   5.99365100
_cell_length_b   14.59121092
_cell_length_c   26.70280780
_cell_angle_alpha   93.78794742
_cell_angle_beta   96.31558572
_cell_angle_gamma   101.83785509
_symmetry_Int_Tables_number   1
_chemical_formula_structural   SrTeO3
_chemical_formula_sum   'Sr24 Te24 O72'
_cell_volume   2262.29766754
_cell_formula_units_Z   24
loop_
 _symmetry_equiv_pos_site_id
 _symmetry_equiv_pos_as_xyz
  1  'x, y, z'
loop_
 _atom_site_type_symbol
 _atom_site_label
 _atom_site_symmetry_multiplicity
 _atom_site_fract_x
 _atom_site_fract_y
 _atom_site_fract_z
 _atom_site_occupancy
  Sr  Sr0  1  0.71992900  0.56413000  0.44498200  1
  Sr  Sr1  1  0.21220400  0.93637000  0.05499500  1
  Sr  Sr2  1  0.87598400  0.32762700  0.92359900  1
  Sr  Sr3  1  0.76908800  0.34608300  0.63715600  1
  Sr  Sr4  1  0.12390600  0.53864500  0.21083600  1
  Sr  Sr5  1  0.28066700  0.15291900  0.86130000  1
  Sr  Sr6  1  0.71933300  0.84708100  0.13870000  1
  Sr  Sr7  1  0.63583400  0.44344700  0.30250700  1
  Sr  Sr8  1  0.87399200  0.96271900  0.29000600  1
  Sr  Sr9  1  0.12401600  0.67237300  0.07640100  1
  Sr  Sr10  1  0.23091200  0.65391700  0.36284400  1
  Sr  Sr11  1  0.96693100  0.75053200  0.74981200  1
  Sr  Sr12  1  0.50000000  0.50000000  0.00000000  1
  Sr  Sr13  1  0.36416600  0.55655300  0.69749300  1
  Sr  Sr14  1  0.12253800  0.17100500  0.57677900  1
  Sr  Sr15  1  0.61047800  0.94428500  0.80297400  1
  Sr  Sr16  1  0.87746200  0.82899500  0.42322100  1
  Sr  Sr17  1  0.28007100  0.43587000  0.55501800  1
  Sr  Sr18  1  0.50000000  0.00000000  0.50000000  1
  Sr  Sr19  1  0.87609400  0.46135500  0.78916400  1
  Sr  Sr20  1  0.03306900  0.24946800  0.25018800  1
  Sr  Sr21  1  0.12600800  0.03728100  0.70999400  1
  Sr  Sr22  1  0.38952200  0.05571500  0.19702600  1
  Sr  Sr23  1  0.78779600  0.06363000  0.94500500  1
  Te  Te0  1  0.12936900  0.40536100  0.38427900  1
  Te  Te1  1  0.72245400  0.68604000  0.29278600  1
  Te  Te2  1  0.63884600  0.29705800  0.49962000  1
  Te  Te3  1  0.83899900  0.09431200  0.11518000  1
  Te  Te4  1  0.34252400  0.20353900  0.00039000  1
  Te  Te5  1  0.53548000  0.84300000  0.67304000  1
  Te  Te6  1  0.36115400  0.70294200  0.50038000  1
  Te  Te7  1  0.97860300  0.88441000  0.57359800  1
  Te  Te8  1  0.24376200  0.81515000  0.20834000  1
  Te  Te9  1  0.02139700  0.11559000  0.42640200  1
  Te  Te10  1  0.16100100  0.90568800  0.88482000  1
  Te  Te11  1  0.39697400  0.41300500  0.86070700  1
  Te  Te12  1  0.75623800  0.18485000  0.79166000  1
  Te  Te13  1  0.65747600  0.79646100  0.99961000  1
  Te  Te14  1  0.02250600  0.61441900  0.92676100  1
  Te  Te15  1  0.87063100  0.59463900  0.61572100  1
  Te  Te16  1  0.61895100  0.08531400  0.64034500  1
  Te  Te17  1  0.27754600  0.31396000  0.70721400  1
  Te  Te18  1  0.60302600  0.58699500  0.13929300  1
  Te  Te19  1  0.97749400  0.38558100  0.07323900  1
  Te  Te20  1  0.48577500  0.34170300  0.17331200  1
  Te  Te21  1  0.51422500  0.65829700  0.82668800  1
  Te  Te22  1  0.38104900  0.91468600  0.35965500  1
  Te  Te23  1  0.46452000  0.15700000  0.32696000  1
  O  O0  1  0.03910700  0.89813000  0.21438400  1
  O  O1  1  0.52578000  0.70206600  0.44366700  1
  O  O2  1  0.90130900  0.66441400  0.15551300  1
  O  O3  1  0.27295900  0.89716600  0.55450200  1
  O  O4  1  0.80075900  0.67566100  0.36268100  1
  O  O5  1  0.56223200  0.33664900  0.82663700  1
  O  O6  1  0.42705700  0.60467200  0.28709300  1
  O  O7  1  0.06709000  0.69683100  0.46502600  1
  O  O8  1  0.01210000  0.00148000  0.61222800  1
  O  O9  1  0.23910800  0.07493700  0.00873000  1
  O  O10  1  0.47422000  0.29793400  0.55633300  1
  O  O11  1  0.58073600  0.83391200  0.34443600  1
  O  O12  1  0.57290800  0.99787200  0.11058200  1
  O  O13  1  0.00314300  0.36665900  0.31736600  1
  O  O14  1  0.89582200  0.49822500  0.88755700  1
  O  O15  1  0.34489200  0.21906800  0.18580800  1
  O  O16  1  0.98790000  0.99852000  0.38777200  1
  O  O17  1  0.44010600  0.28098700  0.31274000  1
  O  O18  1  0.40979200  0.48543000  0.37612100  1
  O  O19  1  0.34106000  0.88240500  0.42585600  1
  O  O20  1  0.19924100  0.32433900  0.63731900  1
  O  O21  1  0.42709200  0.00212800  0.88941800  1
  O  O22  1  0.89320900  0.16224800  0.67408800  1
  O  O23  1  0.04836300  0.01502700  0.12399600  1
  O  O24  1  0.80664900  0.90078500  0.51226900  1
  O  O25  1  0.96089300  0.10187000  0.78561600  1
  O  O26  1  0.10417800  0.50177500  0.11244300  1
  O  O27  1  0.90070500  0.59713000  0.98877000  1
  O  O28  1  0.12266800  0.20059300  0.94293800  1
  O  O29  1  0.89153500  0.59351000  0.27433200  1
  O  O30  1  0.65894000  0.11759500  0.57414400  1
  O  O31  1  0.81484500  0.13280100  0.18216600  1
  O  O32  1  0.43776800  0.66335100  0.17336300  1
  O  O33  1  0.72704100  0.10283400  0.44549800  1
  O  O34  1  0.32401800  0.60068000  0.94345100  1
  O  O35  1  0.67598200  0.39932000  0.05654900  1
  O  O36  1  0.26179000  0.82498800  0.13836000  1
  O  O37  1  0.76089200  0.92506300  0.99127000  1
  O  O38  1  0.59020800  0.51457000  0.62387900  1
  O  O39  1  0.57294300  0.39532800  0.71290700  1
  O  O40  1  0.03715800  0.49880600  0.60992900  1
  O  O41  1  0.96284200  0.50119400  0.39007100  1
  O  O42  1  0.18515500  0.86719900  0.81783400  1
  O  O43  1  0.66718800  0.59526000  0.78159400  1
  O  O44  1  0.47481200  0.09391700  0.77304300  1
  O  O45  1  0.46724100  0.38039400  0.92670000  1
  O  O46  1  0.21992000  0.62733600  0.78819200  1
  O  O47  1  0.87733200  0.79940700  0.05706200  1
  O  O48  1  0.09929500  0.40287000  0.01123000  1
  O  O49  1  0.60195300  0.19842700  0.96706700  1
  O  O50  1  0.20319700  0.09675900  0.28081200  1
  O  O51  1  0.78008000  0.37266400  0.21180800  1
  O  O52  1  0.30693500  0.87184300  0.71149200  1
  O  O53  1  0.93291000  0.30316900  0.53497400  1
  O  O54  1  0.10846500  0.40649000  0.72566800  1
  O  O55  1  0.09869100  0.33558600  0.84448700  1
  O  O56  1  0.65439000  0.42615600  0.49325500  1
  O  O57  1  0.99685700  0.63334100  0.68263400  1
  O  O58  1  0.79680300  0.90324100  0.71918800  1
  O  O59  1  0.34561000  0.57384400  0.50674500  1
  O  O60  1  0.53275900  0.61960600  0.07330000  1
  O  O61  1  0.10679100  0.83775200  0.32591200  1
  O  O62  1  0.55989400  0.71901300  0.68726000  1
  O  O63  1  0.33281200  0.40474000  0.21840600  1
  O  O64  1  0.65510800  0.78093200  0.81419200  1
  O  O65  1  0.95163700  0.98497300  0.87600400  1
  O  O66  1  0.69306500  0.12815700  0.28850800  1
  O  O67  1  0.73821000  0.17501200  0.86164000  1
  O  O68  1  0.52518800  0.90608300  0.22695700  1
  O  O69  1  0.41926400  0.16608800  0.65556400  1
  O  O70  1  0.19335100  0.09921500  0.48773100  1
  O  O71  1  0.39804700  0.80157300  0.03293300  1
loop_
_geom_bond_atom_site_label_1
_geom_bond_atom_site_label_2
_geom_bond_distance
_geom_bond_site_symmetry_2
O0 Te8 1.903612 1_555
O0 Sr8 2.552665 1_455
O0 Sr6 2.583748 1_455
O0 Sr22 2.878647 1_565
O1 Te6 1.896979 1_555
O1 Sr0 2.523365 1_555
O1 Sr10 2.593443 1_555
O1 Sr16 2.637485 1_555
O2 Te18 1.896394 1_555
O2 Sr9 2.616709 1_655
O2 Sr4 2.873871 1_655
O2 Sr6 3.120624 1_555
O3 Te7 1.866289 1_455
O3 Sr18 2.471392 1_565
O4 Te1 1.897477 1_555
O4 Sr16 2.601336 1_555
O4 Sr10 2.661024 1_655
O4 Sr0 2.845366 1_555
O5 Te11 1.888686 1_555
O5 Sr19 2.664844 1_555
O5 Sr2 3.054964 1_555
O5 Sr5 3.115601 1_555
O6 Te1 1.903124 1_555
O6 Sr4 2.566045 1_555
O6 Sr10 2.582190 1_555
O6 Sr7 2.914061 1_555
O7 Te6 1.887849 1_555
O7 Sr0 2.515993 1_455
O7 Sr16 2.676067 1_455
O7 Sr10 3.068731 1_555
O8 Te7 1.898209 1_445
O8 Sr21 2.614521 1_555
O8 Sr14 2.688532 1_555
O9 Te4 1.887664 1_555
O9 Sr1 2.424921 1_545
O9 Sr23 3.001160 1_454
O10 Te2 1.896979 1_555
O10 Sr17 2.523365 1_555
O10 Sr3 2.593443 1_555
O10 Sr14 2.637485 1_555
O11 Te22 1.899780 1_555
O11 Sr16 2.615937 1_555
O11 Sr8 2.881291 1_555
O11 Sr10 3.110233 1_555
O12 Te3 1.884701 1_565
O12 Sr1 2.450407 1_555
O12 Sr6 2.653392 1_555
O12 Sr22 2.816045 1_565
O13 Te0 1.864883 1_555
O13 Sr20 2.442404 1_555
O13 Sr7 2.671719 1_455
O14 Te14 1.899817 1_655
O14 Sr19 2.631590 1_555
O14 Sr2 2.712370 1_555
O15 Te20 1.883411 1_555
O15 Sr22 2.486110 1_555
O15 Sr20 2.755254 1_555
O16 Te9 1.898209 1_665
O16 Sr8 2.614521 1_555
O16 Sr16 2.688532 1_555
O17 Te23 1.904118 1_555
O17 Sr7 2.466831 1_555
O17 Sr20 2.737686 1_555
O18 Te0 1.883047 1_555
O18 Sr0 2.499668 1_555
O18 Sr7 2.615740 1_555
O18 Sr10 2.903795 1_555
O19 Te22 1.887106 1_555
O19 Sr18 2.497403 1_565
O19 Sr16 2.719272 1_455
O20 Te17 1.897477 1_555
O20 Sr14 2.601336 1_555
O20 Sr3 2.661024 1_455
O20 Sr17 2.845366 1_555
O21 Te10 1.884701 1_545
O21 Sr23 2.450407 1_555
O21 Sr5 2.653392 1_555
O21 Sr15 2.816045 1_545
O22 Te16 1.886136 1_555
O22 Sr21 2.677980 1_655
O22 Sr14 3.068391 1_655
O22 Sr3 3.118973 1_555
O23 Te3 1.880164 1_455
O23 Sr1 2.501503 1_545
O23 Sr22 2.609251 1_555
O23 Sr6 2.891910 1_445
O24 Te7 1.892777 1_555
O24 Sr18 2.569625 1_565
O24 Sr16 2.647042 1_555
O25 Te12 1.903612 1_555
O25 Sr21 2.552665 1_655
O25 Sr5 2.583748 1_655
O25 Sr15 2.878647 1_545
O26 Te19 1.899817 1_455
O26 Sr4 2.631590 1_555
O26 Sr9 2.712370 1_555
O27 Te14 1.893116 1_655
O27 Sr12 2.585476 1_556
O27 Sr9 2.615524 1_656
O28 Te4 1.901347 1_556
O28 Sr23 2.533494 1_455
O28 Sr5 2.580121 1_555
O28 Sr2 2.640345 1_455
O29 Te1 1.917289 1_555
O29 Sr4 2.500614 1_655
O29 Sr7 2.608395 1_555
O29 Sr10 2.903812 1_655
O30 Te16 1.887106 1_555
O30 Sr18 2.497403 1_555
O30 Sr14 2.719272 1_655
O31 Te3 1.869079 1_555
O31 Sr20 2.462336 1_655
O31 Sr22 2.650715 1_555
O32 Te18 1.888686 1_555
O32 Sr4 2.664844 1_555
O32 Sr9 3.054964 1_555
O32 Sr6 3.115601 1_555
O33 Te9 1.866289 1_655
O33 Sr18 2.471392 1_555
O34 Te14 1.867586 1_555
O34 Sr12 2.475725 1_556
O35 Te19 1.867586 1_555
O35 Sr12 2.475725 1_555
O36 Te8 1.896756 1_555
O36 Sr9 2.614608 1_555
O36 Sr6 2.693683 1_555
O36 Sr1 2.866297 1_555
O37 Te13 1.887664 1_555
O37 Sr23 2.424921 1_565
O37 Sr1 3.001160 1_656
O38 Te15 1.883047 1_555
O38 Sr17 2.499668 1_555
O38 Sr13 2.615740 1_555
O38 Sr3 2.903795 1_555
O39 Te17 1.903124 1_555
O39 Sr19 2.566045 1_555
O39 Sr3 2.582190 1_555
O39 Sr13 2.914061 1_555
O40 Te15 1.885057 1_455
O40 Sr17 2.439946 1_555
O40 Sr3 2.660455 1_455
O40 Sr13 2.841217 1_555
O41 Te0 1.885057 1_655
O41 Sr0 2.439946 1_555
O41 Sr10 2.660455 1_655
O41 Sr7 2.841217 1_555
O42 Te10 1.869079 1_555
O42 Sr11 2.462336 1_455
O42 Sr15 2.650715 1_555
O43 Te21 1.891827 1_555
O43 Sr19 2.535023 1_555
O43 Sr13 2.678640 1_555
O43 Sr11 2.828486 1_555
O44 Te12 1.913873 1_555
O44 Sr21 2.494192 1_555
O44 Sr15 2.623509 1_545
O44 Sr5 2.897514 1_555
O45 Te11 1.881187 1_555
O45 Sr12 2.497773 1_556
O45 Sr2 2.722423 1_555
O46 Te21 1.893432 1_555
O46 Sr11 2.756937 1_455
O46 Sr19 2.843459 1_455
O46 Sr13 2.859436 1_555
O47 Te13 1.901347 1_554
O47 Sr1 2.533494 1_655
O47 Sr6 2.580121 1_555
O47 Sr9 2.640345 1_655
O48 Te19 1.893116 1_455
O48 Sr12 2.585476 1_555
O48 Sr2 2.615524 1_454
O49 Te4 1.886361 1_556
O49 Sr23 2.519212 1_555
O49 Sr2 2.652733 1_555
O49 Sr5 3.186960 1_555
O50 Te23 1.900462 1_555
O50 Sr8 2.522980 1_445
O50 Sr22 2.694162 1_555
O50 Sr20 2.768192 1_555
O51 Te20 1.893432 1_555
O51 Sr20 2.756937 1_655
O51 Sr4 2.843459 1_655
O51 Sr7 2.859436 1_555
O52 Te5 1.896488 1_555
O52 Sr11 2.747948 1_455
O52 Sr21 2.842866 1_565
O52 Sr15 2.878660 1_555
O53 Te2 1.887849 1_555
O53 Sr17 2.515993 1_655
O53 Sr14 2.676067 1_655
O53 Sr3 3.068731 1_555
O54 Te17 1.917289 1_555
O54 Sr19 2.500614 1_455
O54 Sr13 2.608395 1_555
O54 Sr3 2.903812 1_455
O55 Te11 1.896394 1_555
O55 Sr2 2.616709 1_455
O55 Sr19 2.873871 1_455
O55 Sr5 3.120624 1_555
O56 Te2 1.886706 1_555
O56 Sr0 2.449228 1_555
O56 Sr17 2.947407 1_555
O57 Te15 1.864883 1_555
O57 Sr11 2.442404 1_555
O57 Sr13 2.671719 1_655
O58 Te5 1.900462 1_555
O58 Sr21 2.522980 1_665
O58 Sr15 2.694162 1_555
O58 Sr11 2.768192 1_555
O59 Te6 1.886706 1_555
O59 Sr17 2.449228 1_555
O59 Sr0 2.947407 1_555
O60 Te18 1.881187 1_555
O60 Sr12 2.497773 1_555
O60 Sr9 2.722423 1_555
O61 Te22 1.886136 1_555
O61 Sr8 2.677980 1_455
O61 Sr16 3.068391 1_455
O61 Sr10 3.118973 1_555
O62 Te5 1.904118 1_555
O62 Sr13 2.466831 1_555
O62 Sr11 2.737686 1_555
O63 Te20 1.891827 1_555
O63 Sr4 2.535023 1_555
O63 Sr7 2.678640 1_555
O63 Sr20 2.828486 1_555
O64 Te21 1.883411 1_555
O64 Sr15 2.486110 1_555
O64 Sr11 2.755254 1_555
O65 Te10 1.880164 1_655
O65 Sr23 2.501503 1_565
O65 Sr15 2.609251 1_555
O65 Sr5 2.891910 1_665
O66 Te23 1.896488 1_555
O66 Sr20 2.747948 1_655
O66 Sr8 2.842866 1_545
O66 Sr22 2.878660 1_555
O67 Te12 1.896756 1_555
O67 Sr2 2.614608 1_555
O67 Sr5 2.693683 1_555
O67 Sr23 2.866297 1_555
O68 Te8 1.913873 1_555
O68 Sr8 2.494192 1_555
O68 Sr22 2.623509 1_565
O68 Sr6 2.897514 1_555
O69 Te16 1.899780 1_555
O69 Sr14 2.615937 1_555
O69 Sr21 2.881291 1_555
O69 Sr3 3.110233 1_555
O70 Te9 1.892777 1_555
O70 Sr18 2.569625 1_555
O70 Sr14 2.647042 1_555
O71 Te13 1.886361 1_554
O71 Sr1 2.519212 1_555
O71 Sr9 2.652733 1_555
O71 Sr6 3.186960 1_555
