# generated using pymatgen
data_RbMg6Ti
_symmetry_space_group_name_H-M   'P 1'
_cell_length_a   6.49495867
_cell_length_b   6.49495867
_cell_length_c   5.34500900
_cell_angle_alpha   90.00000000
_cell_angle_beta   90.00000000
_cell_angle_gamma   110.08695396
_symmetry_Int_Tables_number   1
_chemical_formula_structural   RbMg6Ti
_chemical_formula_sum   'Rb1 Mg6 Ti1'
_cell_volume   211.76129373
_cell_formula_units_Z   1
loop_
 _symmetry_equiv_pos_site_id
 _symmetry_equiv_pos_as_xyz
  1  'x, y, z'
loop_
 _atom_site_type_symbol
 _atom_site_label
 _atom_site_symmetry_multiplicity
 _atom_site_fract_x
 _atom_site_fract_y
 _atom_site_fract_z
 _atom_site_occupancy
  Rb  Rb0  1  0.60971100  0.39028900  0.50000000  1
  Mg  Mg0  1  0.89118600  0.67761200  0.00000000  1
  Mg  Mg1  1  0.32238800  0.10881400  0.00000000  1
  Mg  Mg2  1  0.36436200  0.63563800  0.00000000  1
  Mg  Mg3  1  0.68851300  0.91173300  0.50000000  1
  Mg  Mg4  1  0.08826700  0.31148700  0.50000000  1
  Mg  Mg5  1  0.16842900  0.83157100  0.50000000  1
  Ti  Ti0  1  0.86714400  0.13285600  0.00000000  1
loop_
_geom_bond_atom_site_label_1
_geom_bond_atom_site_label_2
_geom_bond_distance
_geom_bond_site_symmetry_2
Rb0 Ti0 3.828036 1_555
Rb0 Ti0 3.828036 1_556
Mg0 Ti0 3.013991 1_565
Mg0 Mg2 3.177222 1_655
Mg0 Mg5 3.185566 1_654
Mg0 Mg5 3.185566 1_655
Mg0 Mg1 3.209279 1_665
Mg0 Mg2 3.337904 1_555
Mg0 Rb0 3.409336 1_555
Mg0 Rb0 3.409336 1_554
Mg0 Ti0 3.487623 1_555
Mg1 Ti0 3.013991 1_455
Mg1 Mg2 3.177222 1_545
Mg1 Mg5 3.185566 1_544
Mg1 Mg5 3.185566 1_545
Mg1 Mg2 3.337904 1_555
Mg1 Rb0 3.409336 1_554
Mg1 Rb0 3.409336 1_555
Mg1 Ti0 3.487623 1_555
Mg2 Mg5 3.390217 1_554
Mg2 Mg5 3.390217 1_555
Mg2 Mg3 3.492443 1_554
Mg2 Mg3 3.492443 1_555
Mg2 Mg4 3.492443 1_555
Mg2 Mg4 3.492443 1_554
Mg2 Ti0 3.721435 1_455
Mg2 Ti0 3.721435 1_565
Mg2 Rb0 3.737007 1_554
Mg2 Rb0 3.737007 1_555
Mg3 Ti0 3.066991 1_565
Mg3 Ti0 3.066991 1_566
Mg3 Mg5 3.236263 1_555
Mg3 Rb0 3.246756 1_555
Mg3 Rb0 3.318975 1_565
Mg3 Mg5 3.331925 1_655
Mg4 Ti0 3.066991 1_456
Mg4 Ti0 3.066991 1_455
Mg4 Mg5 3.236263 1_555
Mg4 Rb0 3.246756 1_555
Mg4 Rb0 3.318975 1_455
Mg4 Mg5 3.331925 1_545
Mg5 Rb0 3.773459 1_455
Mg5 Rb0 3.773459 1_565
