# generated using pymatgen
data_Zr6Zn23Ge
_symmetry_space_group_name_H-M   'P 1'
_cell_length_a   8.70028149
_cell_length_b   8.70028795
_cell_length_c   8.70028641
_cell_angle_alpha   60.00132181
_cell_angle_beta   60.00130057
_cell_angle_gamma   60.00132178
_symmetry_Int_Tables_number   1
_chemical_formula_structural   Zr6Zn23Ge
_chemical_formula_sum   'Zr6 Zn23 Ge1'
_cell_volume   465.69162495
_cell_formula_units_Z   1
loop_
 _symmetry_equiv_pos_site_id
 _symmetry_equiv_pos_as_xyz
  1  'x, y, z'
loop_
 _atom_site_type_symbol
 _atom_site_label
 _atom_site_symmetry_multiplicity
 _atom_site_fract_x
 _atom_site_fract_y
 _atom_site_fract_z
 _atom_site_occupancy
  Zr  Zr0  1  0.71469036  0.28530845  0.28530982  1
  Zr  Zr1  1  0.28530900  0.71469023  0.71469140  1
  Zr  Zr2  1  0.28530914  0.71468987  0.28530888  1
  Zr  Zr3  1  0.71469159  0.28530774  0.71469081  1
  Zr  Zr4  1  0.28530975  0.28530831  0.71469036  1
  Zr  Zr5  1  0.71469187  0.71468996  0.28530935  1
  Zn  Zn0  1  0.12447200  0.12449483  0.12448640  1
  Zn  Zn1  1  0.87549843  0.87551993  0.87551200  1
  Zn  Zn2  1  0.12448523  0.12450554  0.62652658  1
  Zn  Zn3  1  0.12448934  0.62652250  0.12450137  1
  Zn  Zn4  1  0.87550540  0.87552773  0.37346625  1
  Zn  Zn5  1  0.87550975  0.37346129  0.87552246  1
  Zn  Zn6  1  0.62653532  0.12449800  0.12449027  1
  Zn  Zn7  1  0.37347358  0.87552037  0.87551041  1
  Zn  Zn8  1  0.49999840  0.00000443  -0.00000853  1
  Zn  Zn9  1  0.00000568  0.49999232  0.50000364  1
  Zn  Zn10  1  -0.00001040  0.49998117  0.00001034  1
  Zn  Zn11  1  0.50000937  0.00002031  0.49999004  1
  Zn  Zn12  1  -0.00001761  0.00001650  0.49998760  1
  Zn  Zn13  1  0.50001470  0.49998413  0.00001456  1
  Zn  Zn14  1  0.33518137  0.33516321  0.33516987  1
  Zn  Zn15  1  0.66485035  0.66483161  0.66483880  1
  Zn  Zn16  1  0.33516724  0.33514866  0.99451161  1
  Zn  Zn17  1  0.33516186  0.99452009  0.33515030  1
  Zn  Zn18  1  0.66484008  0.66481763  0.00550359  1
  Zn  Zn19  1  0.66483153  0.00551188  0.66482212  1
  Zn  Zn20  1  0.99449482  0.33515834  0.33516522  1
  Zn  Zn21  1  0.00548943  0.66482748  0.66483419  1
  Zn  Zn22  1  -0.00000793  0.00001344  0.00000591  1
  Ge  Ge0  1  0.50001836  0.49996503  0.49998440  1
loop_
_geom_bond_atom_site_label_1
_geom_bond_atom_site_label_2
_geom_bond_distance
_geom_bond_site_symmetry_2
Zn0 Zn22 2.652812 1_555
Zn0 Zn10 2.667427 1_555
Zn0 Zn12 2.667532 1_555
Zn0 Zn8 2.667709 1_555
Zn0 Zn20 2.685510 1_455
Zn0 Zn16 2.685562 1_554
Zn0 Zn17 2.685596 1_545
Zn0 Zr0 2.933841 1_455
Zn0 Zr4 2.933948 1_554
Zn0 Zr2 2.934014 1_545
Zn1 Zn22 2.653091 1_666
Zn1 Zn8 2.667522 1_566
Zn1 Zn12 2.667697 1_665
Zn1 Zn10 2.667800 1_656
Zn1 Zn19 2.685578 1_565
Zn1 Zn18 2.685606 1_556
Zn1 Zn21 2.685676 1_655
Zn1 Zr3 2.933874 1_565
Zn1 Zr5 2.933942 1_556
Zn1 Zr1 2.934039 1_655
Zn2 Zn22 2.653149 1_556
Zn2 Zn9 2.667431 1_555
Zn2 Zn20 2.685569 1_455
Zn2 Zr4 2.933811 1_555
Zn2 Zr3 2.933901 1_455
Zn2 Zr1 2.934063 1_545
Zn3 Zn9 2.667540 1_555
Zn3 Zr2 2.933834 1_555
Zn3 Zr5 2.933926 1_455
Zn3 Zr1 2.934020 1_554
Zn4 Zn9 2.667776 1_655
Zn4 Zr0 2.933816 1_565
Zn4 Zr5 2.933944 1_555
Zn4 Zr2 2.933982 1_655
Zn5 Zn9 2.667657 1_655
Zn5 Zr0 2.933867 1_556
Zn5 Zr3 2.933911 1_555
Zn5 Zr4 2.933958 1_655
Zn6 Zn8 2.667661 1_555
Zn6 Zr0 2.933775 1_555
Zn6 Zr3 2.933953 1_554
Zn6 Zr5 2.934017 1_545
Zn7 Zn8 2.667381 1_566
Zn7 Zr4 2.933862 1_565
Zn7 Zr2 2.933938 1_556
Zn7 Zr1 2.933978 1_555
Zn8 Zr4 3.106519 1_554
Zn8 Zr3 3.106552 1_554
Zn8 Zr2 3.106615 1_545
Zn8 Zr5 3.106655 1_545
Zn9 Zr4 3.106511 1_555
Zn9 Zr2 3.106563 1_555
Zn9 Zr3 3.106564 1_455
Zn9 Zr5 3.106613 1_455
Zn10 Zn18 2.511780 1_455
Zn10 Zn20 2.511818 1_455
Zn10 Zn21 2.511966 1_554
Zn10 Zn16 2.511978 1_554
Zn10 Zn5 2.667364 1_454
Zn10 Zn3 2.667681 1_555
Zn10 Zr0 3.106419 1_455
Zn10 Zr4 3.106564 1_554
Zn10 Zr5 3.106605 1_455
Zn10 Zr1 3.106748 1_554
Zn11 Zn19 2.511705 1_555
Zn11 Zn14 2.511744 1_555
Zn11 Zn17 2.511999 1_545
Zn11 Zn15 2.512079 1_545
Zn11 Zn4 2.667494 1_545
Zn11 Zn6 2.667522 1_555
Zn11 Zn7 2.667668 1_545
Zn11 Zn2 2.667693 1_555
Zn11 Zr0 3.106369 1_555
Zn11 Zr4 3.106470 1_555
Zn11 Zr5 3.106659 1_545
Zn11 Zr1 3.106760 1_545
Zn12 Zn20 2.511737 1_455
Zn12 Zn19 2.511784 1_455
Zn12 Zn17 2.511997 1_545
Zn12 Zn21 2.512046 1_545
Zn12 Zn4 2.667361 1_445
Zn12 Zn2 2.667672 1_555
Zn12 Zr0 3.106396 1_455
Zn12 Zr3 3.106523 1_455
Zn12 Zr2 3.106642 1_545
Zn12 Zr1 3.106772 1_545
Zn13 Zn18 2.511727 1_555
Zn13 Zn14 2.511822 1_555
Zn13 Zn16 2.511980 1_554
Zn13 Zn15 2.511996 1_554
Zn13 Zn6 2.667426 1_555
Zn13 Zn5 2.667487 1_554
Zn13 Zn3 2.667702 1_555
Zn13 Zn7 2.667782 1_554
Zn13 Zr0 3.106390 1_555
Zn13 Zr2 3.106541 1_555
Zn13 Zr3 3.106592 1_554
Zn13 Zr1 3.106741 1_554
Zn14 Zn9 2.511946 1_555
Zn14 Zn6 2.685534 1_555
Zn14 Zn2 2.685583 1_555
Zn14 Zn3 2.685622 1_555
Zn14 Zr0 2.932951 1_555
Zn14 Zr4 2.933016 1_555
Zn14 Zr2 2.933049 1_555
Zn14 Zn17 2.963863 1_545
Zn14 Zn16 2.963949 1_554
Zn14 Zn20 2.964110 1_455
Zn15 Zn9 2.511869 1_655
Zn15 Zn5 2.685563 1_555
Zn15 Zn4 2.685606 1_555
Zn15 Zn7 2.685660 1_555
Zn15 Zr3 2.933144 1_555
Zn15 Zr5 2.933171 1_555
Zn15 Zr1 2.933237 1_555
Zn15 Zn21 2.963618 1_655
Zn15 Zn18 2.963776 1_556
Zn15 Zn19 2.963862 1_565
Zn16 Zn8 2.511774 1_556
Zn16 Zn6 2.685559 1_556
Zn16 Zn3 2.685654 1_556
Zn16 Zr4 2.933055 1_555
Zn16 Zr3 2.933154 1_555
Zn16 Zr1 2.933250 1_555
Zn16 Zn17 2.963670 1_546
Zn16 Zn20 2.963923 1_456
Zn17 Zn8 2.511872 1_565
Zn17 Zn6 2.685593 1_565
Zn17 Zn2 2.685650 1_565
Zn17 Zr2 2.933111 1_555
Zn17 Zr5 2.933214 1_555
Zn17 Zr1 2.933276 1_555
Zn17 Zn20 2.963834 1_465
Zn18 Zn8 2.512017 1_565
Zn18 Zn5 2.685489 1_554
Zn18 Zn7 2.685618 1_554
Zn18 Zr0 2.933029 1_555
Zn18 Zr5 2.933069 1_555
Zn18 Zr2 2.933145 1_555
Zn18 Zn21 2.963892 1_654
Zn18 Zn19 2.964141 1_564
Zn19 Zn8 2.511896 1_556
Zn19 Zn4 2.685500 1_545
Zn19 Zn7 2.685549 1_545
Zn19 Zr3 2.933011 1_555
Zn19 Zr0 2.933017 1_555
Zn19 Zr4 2.933068 1_555
Zn19 Zn21 2.963995 1_645
Zn20 Zn9 2.511942 1_655
Zn20 Zn3 2.685608 1_655
Zn20 Zr0 2.932953 1_555
Zn20 Zr3 2.933109 1_555
Zn20 Zr5 2.933143 1_555
Zn21 Zn9 2.511752 1_555
Zn21 Zn5 2.685552 1_455
Zn21 Zn4 2.685585 1_455
Zn21 Zr4 2.933126 1_555
Zn21 Zr2 2.933157 1_555
Zn21 Zr1 2.933162 1_555
Zn22 Zn5 2.652926 1_454
Zn22 Zn6 2.652987 1_455
Zn22 Zn4 2.653014 1_445
Zn22 Zn7 2.653163 1_544
Zn22 Zn3 2.653233 1_545
Ge0 Zr0 2.641285 1_555
Ge0 Zr4 2.641495 1_555
Ge0 Zr3 2.641583 1_555
Ge0 Zr2 2.641615 1_555
Ge0 Zr5 2.641698 1_555
Ge0 Zr1 2.641907 1_555
