# generated using pymatgen
data_Al9Fe2(SiO6)4
_symmetry_space_group_name_H-M   'P 1'
_cell_length_a   9.27066262
_cell_length_b   9.27066262
_cell_length_c   5.71036493
_cell_angle_alpha   89.69804354
_cell_angle_beta   89.69804354
_cell_angle_gamma   129.63019072
_symmetry_Int_Tables_number   1
_chemical_formula_structural   Al9Fe2(SiO6)4
_chemical_formula_sum   'Al9 Fe2 Si4 O24'
_cell_volume   377.95735415
_cell_formula_units_Z   1
loop_
 _symmetry_equiv_pos_site_id
 _symmetry_equiv_pos_as_xyz
  1  'x, y, z'
loop_
 _atom_site_type_symbol
 _atom_site_label
 _atom_site_symmetry_multiplicity
 _atom_site_fract_x
 _atom_site_fract_y
 _atom_site_fract_z
 _atom_site_occupancy
  Al  Al0  1  0.32465900  0.67534100  0.50000000  1
  Al  Al1  1  0.32374300  0.67625700  0.00000000  1
  Al  Al2  1  0.67534100  0.32465900  0.50000000  1
  Al  Al3  1  0.67625700  0.32374300  0.00000000  1
  Al  Al4  1  0.00000000  0.00000000  0.50000000  1
  Al  Al5  1  0.67485300  0.84884000  0.23721500  1
  Al  Al6  1  0.15116000  0.32514700  0.76278500  1
  Al  Al7  1  0.32514700  0.15116000  0.76278500  1
  Al  Al8  1  0.84884000  0.67485300  0.23721500  1
  Fe  Fe0  1  0.61799500  0.61799500  0.76033900  1
  Fe  Fe1  1  0.38200500  0.38200500  0.23966100  1
  Si  Si0  1  0.70131000  0.03133900  0.74243900  1
  Si  Si1  1  0.96866100  0.29869000  0.25756100  1
  Si  Si2  1  0.29869000  0.96866100  0.25756100  1
  Si  Si3  1  0.03133900  0.70131000  0.74243900  1
  O  O0  1  0.91152500  0.08918600  0.73032400  1
  O  O1  1  0.91081400  0.08847500  0.26967600  1
  O  O2  1  0.08847500  0.91081400  0.26967600  1
  O  O3  1  0.08918600  0.91152500  0.73032400  1
  O  O4  1  0.37695900  0.57831900  0.74880300  1
  O  O5  1  0.42168100  0.62304100  0.25119700  1
  O  O6  1  0.62304100  0.42168100  0.25119700  1
  O  O7  1  0.57831900  0.37695900  0.74880300  1
  O  O8  1  0.76777700  0.76777700  0.46642400  1
  O  O9  1  0.23222300  0.23222300  0.53357600  1
  O  O10  1  0.74304200  0.74304200  0.03744800  1
  O  O11  1  0.25695800  0.25695800  0.96255200  1
  O  O12  1  0.58100500  0.90356100  0.51232000  1
  O  O13  1  0.09643900  0.41899500  0.48768000  1
  O  O14  1  0.58567100  0.90719600  0.98120600  1
  O  O15  1  0.09280400  0.41432900  0.01879400  1
  O  O16  1  0.41899500  0.09643900  0.48768000  1
  O  O17  1  0.90356100  0.58100500  0.51232000  1
  O  O18  1  0.41432900  0.09280400  0.01879400  1
  O  O19  1  0.90719600  0.58567100  0.98120600  1
  O  O20  1  0.72801900  0.22614800  0.74945700  1
  O  O21  1  0.77385200  0.27198100  0.25054300  1
  O  O22  1  0.27198100  0.77385200  0.25054300  1
  O  O23  1  0.22614800  0.72801900  0.74945700  1
loop_
_geom_bond_atom_site_label_1
_geom_bond_atom_site_label_2
_geom_bond_distance
_geom_bond_site_symmetry_2
Al0 O4 1.900730 1_555
Al0 O5 1.900730 1_555
Al0 O23 1.914231 1_555
Al0 O22 1.914231 1_555
Al0 O13 1.928291 1_555
Al0 O12 1.928291 1_555
Al1 O22 1.912073 1_555
Al1 O23 1.912073 1_554
Al1 O4 1.924325 1_554
Al1 O5 1.924325 1_555
Al1 O14 1.963304 1_554
Al1 O15 1.963304 1_555
Al2 O7 1.900730 1_555
Al2 O6 1.900730 1_555
Al2 O20 1.914231 1_555
Al2 O21 1.914231 1_555
Al2 O16 1.928291 1_555
Al2 O17 1.928291 1_555
Al3 O21 1.912073 1_555
Al3 O20 1.912073 1_554
Al3 O7 1.924325 1_554
Al3 O6 1.924325 1_555
Al3 O19 1.963304 1_554
Al3 O18 1.963304 1_555
Al4 O9 1.844625 1_555
Al4 O8 1.844625 1_445
Al4 O2 1.987821 1_545
Al4 O1 1.987821 1_455
Al4 O0 1.987821 1_455
Al4 O3 1.987821 1_545
Al5 O10 1.859586 1_555
Al5 O1 1.887917 1_565
Al5 O5 1.904159 1_555
Al5 O14 1.920518 1_554
Al5 O8 1.961479 1_555
Al5 O12 2.009782 1_555
Al6 O11 1.859586 1_555
Al6 O0 1.887917 1_455
Al6 O4 1.904159 1_555
Al6 O15 1.920518 1_556
Al6 O9 1.961479 1_555
Al6 O13 2.009782 1_555
Al7 O11 1.859586 1_555
Al7 O3 1.887917 1_545
Al7 O7 1.904159 1_555
Al7 O18 1.920518 1_556
Al7 O9 1.961479 1_555
Al7 O16 2.009782 1_555
Al8 O10 1.859586 1_555
Al8 O2 1.887917 1_655
Al8 O6 1.904159 1_555
Al8 O19 1.920518 1_554
Al8 O8 1.961479 1_555
Al8 O17 2.009782 1_555
Fe0 O10 1.875122 1_556
Fe0 O7 2.021440 1_555
Fe0 O4 2.021440 1_555
Fe0 O8 2.040688 1_555
Fe1 O11 1.875122 1_554
Fe1 O6 2.021440 1_555
Fe1 O5 2.021440 1_555
Fe1 O9 2.040688 1_555
O0 Si0 1.659910 1_555
O1 Si1 1.659910 1_555
O2 Si2 1.659910 1_555
O3 Si3 1.659910 1_555
O12 Si0 1.649363 1_565
O13 Si1 1.649363 1_455
O14 Si0 1.651349 1_565
O15 Si1 1.651349 1_455
O16 Si2 1.649363 1_545
O17 Si3 1.649363 1_655
O18 Si2 1.651349 1_545
O19 Si3 1.651349 1_655
O20 Si0 1.659817 1_555
O21 Si1 1.659817 1_555
O22 Si2 1.659817 1_555
O23 Si3 1.659817 1_555
