# generated using pymatgen
data_Nd2Sn2O7
_symmetry_space_group_name_H-M   'P 1'
_cell_length_a   7.50856072
_cell_length_b   7.50856072
_cell_length_c   7.50856072
_cell_angle_alpha   60.00000000
_cell_angle_beta   60.00000000
_cell_angle_gamma   60.00000000
_symmetry_Int_Tables_number   1
_chemical_formula_structural   Nd2Sn2O7
_chemical_formula_sum   'Nd4 Sn4 O14'
_cell_volume   299.33334104
_cell_formula_units_Z   2
loop_
 _symmetry_equiv_pos_site_id
 _symmetry_equiv_pos_as_xyz
  1  'x, y, z'
loop_
 _atom_site_type_symbol
 _atom_site_label
 _atom_site_symmetry_multiplicity
 _atom_site_fract_x
 _atom_site_fract_y
 _atom_site_fract_z
 _atom_site_occupancy
  Nd  Nd0  1  0.12500000  0.12500000  0.12500000  1
  Nd  Nd1  1  0.62500000  0.12500000  0.12500000  1
  Nd  Nd2  1  0.12500000  0.12500000  0.62500000  1
  Nd  Nd3  1  0.12500000  0.62500000  0.12500000  1
  Sn  Sn0  1  0.62500000  0.62500000  0.62500000  1
  Sn  Sn1  1  0.12500000  0.62500000  0.62500000  1
  Sn  Sn2  1  0.62500000  0.62500000  0.12500000  1
  Sn  Sn3  1  0.62500000  0.12500000  0.62500000  1
  O  O0  1  -0.00000000  0.00000000  -0.00000000  1
  O  O1  1  0.25000000  0.25000000  0.25000000  1
  O  O2  1  0.29217122  0.29217122  0.70782878  1
  O  O3  1  0.54217122  0.54217122  0.95782878  1
  O  O4  1  0.70782878  0.29217122  0.70782878  1
  O  O5  1  0.70782878  0.29217122  0.29217122  1
  O  O6  1  0.29217122  0.70782878  0.70782878  1
  O  O7  1  0.29217122  0.70782878  0.29217122  1
  O  O8  1  0.70782878  0.70782878  0.29217122  1
  O  O9  1  0.95782878  0.54217122  0.54217122  1
  O  O10  1  0.54217122  0.95782878  0.95782878  1
  O  O11  1  0.95782878  0.95782878  0.54217122  1
  O  O12  1  0.95782878  0.54217122  0.95782878  1
  O  O13  1  0.54217122  0.95782878  0.54217122  1
loop_
_geom_bond_atom_site_label_1
_geom_bond_atom_site_label_2
_geom_bond_distance
_geom_bond_site_symmetry_2
Nd0 O0 2.299018 1_555
Nd0 O1 2.299018 1_555
Nd0 O11 2.583561 1_445
Nd0 O5 2.583561 1_455
Nd0 O2 2.583561 1_554
Nd0 O12 2.583561 1_454
Nd0 O10 2.583561 1_544
Nd0 O7 2.583561 1_545
Nd1 O1 2.299018 1_555
Nd1 O0 2.299018 1_655
Nd1 O10 2.583561 1_544
Nd1 O8 2.583561 1_545
Nd1 O4 2.583561 1_554
Nd1 O3 2.583561 1_554
Nd1 O5 2.583561 1_555
Nd1 O13 2.583561 1_545
Nd2 O0 2.299018 1_556
Nd2 O1 2.299018 1_555
Nd2 O11 2.583561 1_445
Nd2 O4 2.583561 1_455
Nd2 O6 2.583561 1_545
Nd2 O13 2.583561 1_545
Nd2 O2 2.583561 1_555
Nd2 O9 2.583561 1_455
Nd3 O0 2.299018 1_565
Nd3 O1 2.299018 1_555
Nd3 O12 2.583561 1_454
Nd3 O8 2.583561 1_455
Nd3 O6 2.583561 1_554
Nd3 O3 2.583561 1_554
Nd3 O7 2.583561 1_555
Nd3 O9 2.583561 1_455
O2 Sn3 2.072978 1_555
O2 Sn1 2.072978 1_555
O3 Sn2 2.072978 1_556
O3 Sn0 2.072978 1_555
O4 Sn0 2.072978 1_555
O4 Sn3 2.072978 1_555
O5 Sn3 2.072978 1_555
O5 Sn2 2.072978 1_555
O6 Sn0 2.072978 1_555
O6 Sn1 2.072978 1_555
O7 Sn2 2.072978 1_555
O7 Sn1 2.072978 1_555
O8 Sn0 2.072978 1_555
O8 Sn2 2.072978 1_555
O9 Sn1 2.072978 1_655
O9 Sn0 2.072978 1_555
O10 Sn3 2.072978 1_565
O10 Sn2 2.072978 1_556
O11 Sn3 2.072978 1_565
O11 Sn1 2.072978 1_655
O12 Sn2 2.072978 1_556
O12 Sn1 2.072978 1_655
O13 Sn3 2.072978 1_565
O13 Sn0 2.072978 1_555
