# generated using pymatgen
data_LiGd(C2O5)2
_symmetry_space_group_name_H-M   'P 1'
_cell_length_a   7.49087800
_cell_length_b   9.57531300
_cell_length_c   12.46985808
_cell_angle_alpha   76.48406838
_cell_angle_beta   90.00000000
_cell_angle_gamma   90.00000000
_symmetry_Int_Tables_number   1
_chemical_formula_structural   LiGd(C2O5)2
_chemical_formula_sum   'Li4 Gd4 C16 O40'
_cell_volume   869.66045051
_cell_formula_units_Z   4
loop_
 _symmetry_equiv_pos_site_id
 _symmetry_equiv_pos_as_xyz
  1  'x, y, z'
loop_
 _atom_site_type_symbol
 _atom_site_label
 _atom_site_symmetry_multiplicity
 _atom_site_fract_x
 _atom_site_fract_y
 _atom_site_fract_z
 _atom_site_occupancy
  Li  Li0  1  0.30028000  0.59010500  0.30160000  1
  Li  Li1  1  0.69972000  0.40989500  0.69840000  1
  Li  Li2  1  0.30028000  0.90989500  0.69840000  1
  Li  Li3  1  0.69972000  0.09010500  0.30160000  1
  Gd  Gd0  1  0.77295100  0.71079200  0.25534100  1
  Gd  Gd1  1  0.22704900  0.28920800  0.74465900  1
  Gd  Gd2  1  0.77295100  0.78920800  0.74465900  1
  Gd  Gd3  1  0.22704900  0.21079200  0.25534100  1
  C  C0  1  0.83340900  0.37381000  0.27775700  1
  C  C1  1  0.16659100  0.62619000  0.72224300  1
  C  C2  1  0.83340900  0.12619000  0.72224300  1
  C  C3  1  0.16659100  0.87381000  0.27775700  1
  C  C4  1  0.87448100  0.75000000  0.00000000  1
  C  C5  1  0.12551900  0.25000000  0.00000000  1
  C  C6  1  0.66823200  0.75000000  0.00000000  1
  C  C7  1  0.33176800  0.25000000  0.00000000  1
  C  C8  1  0.37237100  0.88384000  0.28602300  1
  C  C9  1  0.62762900  0.11616000  0.71397700  1
  C  C10  1  0.37237100  0.61616000  0.71397700  1
  C  C11  1  0.62762900  0.38384000  0.28602300  1
  C  C12  1  0.77767800  0.83306300  0.47955400  1
  C  C13  1  0.22232200  0.16693700  0.52044600  1
  C  C14  1  0.77767800  0.66693700  0.52044600  1
  C  C15  1  0.22232200  0.33306300  0.47955400  1
  O  O0  1  0.56414000  0.50840500  0.27867200  1
  O  O1  1  0.43586000  0.49159500  0.72132800  1
  O  O2  1  0.56414000  0.99159500  0.72132800  1
  O  O3  1  0.43586000  0.00840500  0.27867200  1
  O  O4  1  0.94923600  0.75974800  0.08892100  1
  O  O5  1  0.05076400  0.24025200  0.91107900  1
  O  O6  1  0.94923600  0.74025200  0.91107900  1
  O  O7  1  0.05076400  0.25974800  0.08892100  1
  O  O8  1  0.59280500  0.74657500  0.09136100  1
  O  O9  1  0.40719500  0.25342500  0.90863900  1
  O  O10  1  0.59280500  0.75342500  0.90863900  1
  O  O11  1  0.40719500  0.24657500  0.09136100  1
  O  O12  1  0.77269200  0.88271000  0.37547900  1
  O  O13  1  0.22730800  0.11729000  0.62452100  1
  O  O14  1  0.77269200  0.61729000  0.62452100  1
  O  O15  1  0.22730800  0.38271000  0.37547900  1
  O  O16  1  0.26178800  0.51914100  0.12531200  1
  O  O17  1  0.73821200  0.48085900  0.87468800  1
  O  O18  1  0.26178800  0.98085900  0.87468800  1
  O  O19  1  0.73821200  0.01914100  0.12531200  1
  O  O20  1  0.77798600  0.90633900  0.55136200  1
  O  O21  1  0.22201400  0.09366100  0.44863800  1
  O  O22  1  0.77798600  0.59366100  0.44863800  1
  O  O23  1  0.22201400  0.40633900  0.55136200  1
  O  O24  1  0.45896100  0.76802300  0.29613100  1
  O  O25  1  0.54103900  0.23197700  0.70386900  1
  O  O26  1  0.45896100  0.73197700  0.70386900  1
  O  O27  1  0.54103900  0.26802300  0.29613100  1
  O  O28  1  0.90195600  0.24948600  0.29360300  1
  O  O29  1  0.09804400  0.75051400  0.70639700  1
  O  O30  1  0.90195600  0.25051400  0.70639700  1
  O  O31  1  0.09804400  0.74948600  0.29360300  1
  O  O32  1  0.73759700  0.42534800  0.97429800  1
  O  O33  1  0.26240300  0.57465200  0.02570200  1
  O  O34  1  0.73759700  0.07465200  0.02570200  1
  O  O35  1  0.26240300  0.92534800  0.97429800  1
  O  O36  1  0.91547600  0.49244500  0.25257900  1
  O  O37  1  0.08452400  0.50755500  0.74742100  1
  O  O38  1  0.91547600  0.00755500  0.74742100  1
  O  O39  1  0.08452400  0.99244500  0.25257900  1
loop_
_geom_bond_atom_site_label_1
_geom_bond_atom_site_label_2
_geom_bond_distance
_geom_bond_site_symmetry_2
Li0 O15 2.058164 1_555
Li0 O24 2.065328 1_555
Li0 O31 2.136084 1_555
Li0 O0 2.169104 1_555
Li0 O16 2.464863 1_555
Li1 O14 2.058164 1_555
Li1 O25 2.065328 1_555
Li1 O30 2.136084 1_555
Li1 O1 2.169104 1_555
Li1 O17 2.464863 1_555
Li2 O13 2.058164 1_565
Li2 O26 2.065328 1_555
Li2 O29 2.136084 1_555
Li2 O2 2.169104 1_555
Li2 O18 2.464863 1_555
Li3 O12 2.058164 1_545
Li3 O27 2.065328 1_555
Li3 O28 2.136084 1_555
Li3 O3 2.169104 1_555
Li3 O19 2.464863 1_555
Gd0 O36 2.354972 1_555
Gd0 O8 2.406691 1_555
Gd0 O22 2.409489 1_555
Gd0 O4 2.411518 1_555
Gd0 O0 2.454238 1_555
Gd0 O12 2.471222 1_555
Gd0 O24 2.494296 1_555
Gd0 O31 2.525452 1_655
Gd0 O19 3.029275 1_565
Gd1 O37 2.354972 1_555
Gd1 O9 2.406691 1_555
Gd1 O23 2.409489 1_555
Gd1 O5 2.411518 1_555
Gd1 O1 2.454238 1_555
Gd1 O13 2.471222 1_555
Gd1 O25 2.494296 1_555
Gd1 O30 2.525452 1_455
Gd1 O18 3.029275 1_545
Gd2 O38 2.354972 1_565
Gd2 O10 2.406691 1_555
Gd2 O20 2.409489 1_555
Gd2 O6 2.411518 1_555
Gd2 O2 2.454238 1_555
Gd2 O14 2.471222 1_555
Gd2 O26 2.494296 1_555
Gd2 O29 2.525452 1_655
Gd2 O17 3.029275 1_555
Gd3 O39 2.354972 1_545
Gd3 O11 2.406691 1_555
Gd3 O21 2.409489 1_555
Gd3 O7 2.411518 1_555
Gd3 O3 2.454238 1_555
Gd3 O15 2.471222 1_555
Gd3 O27 2.494296 1_555
Gd3 O28 2.525452 1_455
Gd3 O16 3.029275 1_555
C0 O36 1.264993 1_555
C0 O28 1.268819 1_555
C1 O37 1.264993 1_555
C1 O29 1.268819 1_555
C2 O38 1.264993 1_555
C2 O30 1.268819 1_555
C3 O39 1.264993 1_555
C3 O31 1.268819 1_555
C4 O4 1.264981 1_555
C4 O6 1.264981 1_554
C5 O7 1.264981 1_555
C5 O5 1.264981 1_554
C6 O8 1.265213 1_555
C6 O10 1.265213 1_554
C7 O11 1.265213 1_555
C7 O9 1.265213 1_554
C8 O24 1.265354 1_555
C8 O3 1.267332 1_565
C9 O25 1.265354 1_555
C9 O2 1.267332 1_545
C10 O26 1.265354 1_555
C10 O1 1.267332 1_555
C11 O27 1.265354 1_555
C11 O0 1.267332 1_555
C12 O20 1.260073 1_555
C12 O12 1.274083 1_555
C13 O21 1.260073 1_555
C13 O13 1.274083 1_555
C14 O22 1.260073 1_555
C14 O14 1.274083 1_555
C15 O23 1.260073 1_555
C15 O15 1.274083 1_555
O16 O33 1.231587 1_555
O17 O32 1.231587 1_555
O18 O35 1.231587 1_555
O19 O34 1.231587 1_555
