# generated using pymatgen
data_Te2MoW2(SeS)2
_symmetry_space_group_name_H-M   'P 1'
_cell_length_a   3.35140536
_cell_length_b   3.35140536
_cell_length_c   30.98378800
_cell_angle_alpha   90.00000000
_cell_angle_beta   90.00000000
_cell_angle_gamma   119.99998744
_symmetry_Int_Tables_number   1
_chemical_formula_structural   Te2MoW2(SeS)2
_chemical_formula_sum   'Te2 Mo1 W2 Se2 S2'
_cell_volume   301.38325560
_cell_formula_units_Z   1
loop_
 _symmetry_equiv_pos_site_id
 _symmetry_equiv_pos_as_xyz
  1  'x, y, z'
loop_
 _atom_site_type_symbol
 _atom_site_label
 _atom_site_symmetry_multiplicity
 _atom_site_fract_x
 _atom_site_fract_y
 _atom_site_fract_z
 _atom_site_occupancy
  Te  Te0  1  0.66666700  0.33333300  0.51682500  1
  Te  Te1  1  0.66666700  0.33333300  0.63978200  1
  Mo  Mo0  1  0.66666700  0.33333300  0.34697000  1
  W  W0  1  0.33333300  0.66666700  0.11565600  1
  W  W1  1  0.33333300  0.66666700  0.57832900  1
  Se  Se0  1  0.66666700  0.33333300  0.06167800  1
  Se  Se1  1  0.66666700  0.33333300  0.16965000  1
  S  S0  1  0.33333300  0.66666700  0.39586700  1
  S  S1  1  0.33333300  0.66666700  0.29808500  1
loop_
_geom_bond_atom_site_label_1
_geom_bond_atom_site_label_2
_geom_bond_distance
_geom_bond_site_symmetry_2
Te0 W1 2.715765 1_545
Te0 W1 2.715765 1_655
Te0 W1 2.715769 1_555
Te1 W1 2.714657 1_655
Te1 W1 2.714657 1_545
Te1 W1 2.714660 1_555
Mo0 S1 2.457256 1_545
Mo0 S1 2.457256 1_655
Mo0 S1 2.457260 1_555
Mo0 S0 2.457485 1_545
Mo0 S0 2.457485 1_655
Mo0 S0 2.457490 1_555
Se0 W0 2.557544 1_545
Se0 W0 2.557544 1_655
Se0 W0 2.557548 1_555
Se1 W0 2.557868 1_655
Se1 W0 2.557868 1_545
Se1 W0 2.557872 1_555
