# generated using pymatgen
data_Lu3Pd4
_symmetry_space_group_name_H-M   'P 1'
_cell_length_a   5.64443238
_cell_length_b   7.64897536
_cell_length_c   7.64633821
_cell_angle_alpha   114.23938312
_cell_angle_beta   104.29806887
_cell_angle_gamma   104.14332566
_symmetry_Int_Tables_number   1
_chemical_formula_structural   Lu3Pd4
_chemical_formula_sum   'Lu6 Pd8'
_cell_volume   268.43774343
_cell_formula_units_Z   2
loop_
 _symmetry_equiv_pos_site_id
 _symmetry_equiv_pos_as_xyz
  1  'x, y, z'
loop_
 _atom_site_type_symbol
 _atom_site_label
 _atom_site_symmetry_multiplicity
 _atom_site_fract_x
 _atom_site_fract_y
 _atom_site_fract_z
 _atom_site_occupancy
  Lu  Lu0  1  0.40557779  0.13156171  0.38321805  1
  Lu  Lu1  1  0.02188650  0.61642769  0.74841435  1
  Lu  Lu2  1  0.27407684  0.25178674  0.86831520  1
  Lu  Lu3  1  0.59442325  0.86843844  0.61678266  1
  Lu  Lu4  1  0.97811254  0.38357162  0.25158532  1
  Lu  Lu5  1  0.72592307  0.74821240  0.13168366  1
  Pd  Pd0  1  0.00000100  0.00000010  0.00000087  1
  Pd  Pd1  1  0.49999999  0.00000007  0.99999988  1
  Pd  Pd2  1  0.23076352  0.68575166  0.16628728  1
  Pd  Pd3  1  0.06475575  0.83389415  0.52024068  1
  Pd  Pd4  1  0.54520037  0.48009433  0.31430586  1
  Pd  Pd5  1  0.76923682  0.31424929  0.83371433  1
  Pd  Pd6  1  0.93524507  0.16610489  0.47975998  1
  Pd  Pd7  1  0.45479651  0.51990389  0.68569087  1
loop_
_geom_bond_atom_site_label_1
_geom_bond_atom_site_label_2
_geom_bond_distance
_geom_bond_site_symmetry_2
Lu0 Pd7 2.808567 1_555
Lu0 Pd6 2.813645 1_555
Lu0 Pd0 2.824743 1_555
Lu0 Pd2 2.873315 1_545
Lu0 Pd4 2.887500 1_555
Lu0 Pd1 2.914645 1_554
Lu0 Pd6 2.968688 1_455
Lu0 Pd5 3.030696 1_555
Lu0 Pd3 3.285777 1_545
Lu0 Lu3 3.381687 1_545
Lu1 Pd5 2.808536 1_455
Lu1 Pd7 2.813489 1_555
Lu1 Pd0 2.825612 1_566
Lu1 Pd3 2.874742 1_555
Lu1 Pd2 2.884977 1_556
Lu1 Pd1 2.919515 1_565
Lu1 Pd7 2.969336 1_455
Lu1 Pd6 3.032207 1_455
Lu1 Pd4 3.274169 1_455
Lu1 Lu4 3.380935 1_455
Lu2 Pd6 2.810033 1_455
Lu2 Pd5 2.815346 1_555
Lu2 Pd0 2.832295 1_556
Lu2 Pd4 2.871825 1_556
Lu2 Pd3 2.883159 1_545
Lu2 Pd1 2.916748 1_555
Lu2 Pd5 2.968983 1_455
Lu2 Pd7 3.037932 1_555
Lu2 Pd2 3.275825 1_556
Lu2 Lu5 3.380843 1_556
Lu3 Pd4 2.808580 1_555
Lu3 Pd3 2.813644 1_555
Lu3 Pd0 2.824751 1_666
Lu3 Pd5 2.873321 1_565
Lu3 Pd7 2.887497 1_555
Lu3 Pd1 2.914642 1_565
Lu3 Pd3 2.968689 1_655
Lu3 Pd2 3.030693 1_555
Lu3 Pd6 3.285771 1_565
Lu4 Pd2 2.808539 1_655
Lu4 Pd4 2.813491 1_555
Lu4 Pd0 2.825610 1_655
Lu4 Pd6 2.874749 1_555
Lu4 Pd5 2.884968 1_554
Lu4 Pd1 2.919509 1_554
Lu4 Pd4 2.969329 1_655
Lu4 Pd3 3.032204 1_655
Lu4 Pd7 3.274151 1_655
Lu5 Pd3 2.810046 1_655
Lu5 Pd2 2.815352 1_555
Lu5 Pd0 2.832290 1_665
Lu5 Pd7 2.871839 1_554
Lu5 Pd6 2.883163 1_565
Lu5 Pd1 2.916751 1_564
Lu5 Pd2 2.968978 1_655
Lu5 Pd4 3.037929 1_555
Lu5 Pd5 3.275809 1_554
Pd0 Pd1 2.822212 1_554
Pd0 Pd1 2.822220 1_454
Pd2 Pd5 2.916280 1_454
Pd2 Pd4 2.956280 1_555
Pd2 Pd3 2.956388 1_555
Pd3 Pd6 2.920459 1_465
Pd3 Pd4 2.957183 1_455
Pd4 Pd7 2.915281 1_555
Pd5 Pd7 2.956292 1_555
Pd5 Pd6 2.956397 1_555
Pd6 Pd7 2.957168 1_655
