# generated using pymatgen
data_Sc(NF2)3
_symmetry_space_group_name_H-M   'P 1'
_cell_length_a   5.53265660
_cell_length_b   5.53265660
_cell_length_c   5.53265660
_cell_angle_alpha   60.00000000
_cell_angle_beta   60.00000000
_cell_angle_gamma   60.00000000
_symmetry_Int_Tables_number   1
_chemical_formula_structural   Sc(NF2)3
_chemical_formula_sum   'Sc1 N3 F6'
_cell_volume   119.75293003
_cell_formula_units_Z   1
loop_
 _symmetry_equiv_pos_site_id
 _symmetry_equiv_pos_as_xyz
  1  'x, y, z'
loop_
 _atom_site_type_symbol
 _atom_site_label
 _atom_site_symmetry_multiplicity
 _atom_site_fract_x
 _atom_site_fract_y
 _atom_site_fract_z
 _atom_site_occupancy
  Sc  Sc0  1  0.00000000  0.00000000  0.00000000  1
  N  N0  1  0.50000000  0.50000000  0.50000000  1
  N  N1  1  0.25000000  0.25000000  0.25000000  1
  N  N2  1  0.75000000  0.75000000  0.75000000  1
  F  F0  1  0.73496600  0.73496600  0.26503400  1
  F  F1  1  0.73496600  0.26503400  0.26503400  1
  F  F2  1  0.73496600  0.26503400  0.73496600  1
  F  F3  1  0.26503400  0.73496600  0.73496600  1
  F  F4  1  0.26503400  0.73496600  0.26503400  1
  F  F5  1  0.26503400  0.26503400  0.73496600  1
loop_
_geom_bond_atom_site_label_1
_geom_bond_atom_site_label_2
_geom_bond_distance
_geom_bond_site_symmetry_2
F0 N0 1.838458 1_555
F0 Sc0 2.073721 1_665
F1 N0 1.838458 1_555
F1 Sc0 2.073721 1_655
F2 N0 1.838458 1_555
F2 Sc0 2.073721 1_656
F3 N0 1.838458 1_555
F3 Sc0 2.073721 1_566
F4 N0 1.838458 1_555
F4 Sc0 2.073721 1_565
F5 N0 1.838458 1_555
F5 Sc0 2.073721 1_556
