# generated using pymatgen
data_RbSm(MoO4)2
_symmetry_space_group_name_H-M   'P 1'
_cell_length_a   5.22273200
_cell_length_b   8.30824100
_cell_length_c   18.95172800
_cell_angle_alpha   90.00000000
_cell_angle_beta   90.00000000
_cell_angle_gamma   90.00000000
_symmetry_Int_Tables_number   1
_chemical_formula_structural   RbSm(MoO4)2
_chemical_formula_sum   'Rb4 Sm4 Mo8 O32'
_cell_volume   822.34800163
_cell_formula_units_Z   4
loop_
 _symmetry_equiv_pos_site_id
 _symmetry_equiv_pos_as_xyz
  1  'x, y, z'
loop_
 _atom_site_type_symbol
 _atom_site_label
 _atom_site_symmetry_multiplicity
 _atom_site_fract_x
 _atom_site_fract_y
 _atom_site_fract_z
 _atom_site_occupancy
  Rb  Rb0  1  0.00000000  0.75000000  0.76917800  1
  Rb  Rb1  1  0.00000000  0.25000000  0.23082200  1
  Rb  Rb2  1  0.50000000  0.25000000  0.73082200  1
  Rb  Rb3  1  0.50000000  0.75000000  0.26917800  1
  Sm  Sm0  1  0.00000000  0.75000000  0.00627600  1
  Sm  Sm1  1  0.00000000  0.25000000  0.99372400  1
  Sm  Sm2  1  0.50000000  0.25000000  0.49372400  1
  Sm  Sm3  1  0.50000000  0.75000000  0.50627600  1
  Mo  Mo0  1  0.02263800  0.51632800  0.39919000  1
  Mo  Mo1  1  0.97736200  0.48367200  0.60081000  1
  Mo  Mo2  1  0.47736200  0.01632800  0.10081000  1
  Mo  Mo3  1  0.97736200  0.98367200  0.39919000  1
  Mo  Mo4  1  0.52263800  0.98367200  0.89919000  1
  Mo  Mo5  1  0.02263800  0.01632800  0.60081000  1
  Mo  Mo6  1  0.52263800  0.48367200  0.10081000  1
  Mo  Mo7  1  0.47736200  0.51632800  0.89919000  1
  O  O0  1  0.10095900  0.97432100  0.31314200  1
  O  O1  1  0.89904100  0.02567900  0.68685800  1
  O  O2  1  0.39904100  0.47432100  0.18685800  1
  O  O3  1  0.89904100  0.52567900  0.31314200  1
  O  O4  1  0.60095900  0.52567900  0.81314200  1
  O  O5  1  0.10095900  0.47432100  0.68685800  1
  O  O6  1  0.60095900  0.02567900  0.18685800  1
  O  O7  1  0.39904100  0.97432100  0.81314200  1
  O  O8  1  0.27335500  0.84190500  0.09944700  1
  O  O9  1  0.72664500  0.15809500  0.90055300  1
  O  O10  1  0.22664500  0.34190500  0.40055300  1
  O  O11  1  0.72664500  0.65809500  0.09944700  1
  O  O12  1  0.77335500  0.65809500  0.59944700  1
  O  O13  1  0.27335500  0.34190500  0.90055300  1
  O  O14  1  0.77335500  0.15809500  0.40055300  1
  O  O15  1  0.22664500  0.84190500  0.59944700  1
  O  O16  1  0.25303500  0.50256600  0.03655400  1
  O  O17  1  0.74696500  0.49743400  0.96344600  1
  O  O18  1  0.24696500  0.00256600  0.46344600  1
  O  O19  1  0.74696500  0.99743400  0.03655400  1
  O  O20  1  0.75303500  0.99743400  0.53655400  1
  O  O21  1  0.25303500  0.00256600  0.96344600  1
  O  O22  1  0.75303500  0.49743400  0.46344600  1
  O  O23  1  0.24696500  0.50256600  0.53655400  1
  O  O24  1  0.23960600  0.68631500  0.40838100  1
  O  O25  1  0.76039400  0.31368500  0.59161900  1
  O  O26  1  0.26039400  0.18631500  0.09161900  1
  O  O27  1  0.76039400  0.81368500  0.40838100  1
  O  O28  1  0.73960600  0.81368500  0.90838100  1
  O  O29  1  0.23960600  0.18631500  0.59161900  1
  O  O30  1  0.73960600  0.31368500  0.09161900  1
  O  O31  1  0.26039400  0.68631500  0.90838100  1
loop_
_geom_bond_atom_site_label_1
_geom_bond_atom_site_label_2
_geom_bond_distance
_geom_bond_site_symmetry_2
Mo0 O3 1.755590 1_455
Mo0 O10 1.798870 1_555
Mo0 O24 1.819059 1_555
Mo0 O22 1.868216 1_455
Mo1 O5 1.755590 1_655
Mo1 O12 1.798870 1_555
Mo1 O25 1.819059 1_555
Mo1 O23 1.868216 1_655
Mo2 O6 1.755590 1_555
Mo2 O8 1.798870 1_545
Mo2 O26 1.819059 1_555
Mo2 O19 1.868216 1_545
Mo3 O0 1.755590 1_655
Mo3 O14 1.798870 1_565
Mo3 O27 1.819059 1_555
Mo3 O18 1.868216 1_665
Mo4 O7 1.755590 1_555
Mo4 O9 1.798870 1_565
Mo4 O28 1.819059 1_555
Mo4 O21 1.868216 1_565
Mo5 O1 1.755590 1_455
Mo5 O15 1.798870 1_545
Mo5 O29 1.819059 1_555
Mo5 O20 1.868216 1_445
Mo6 O2 1.755590 1_555
Mo6 O11 1.798870 1_555
Mo6 O30 1.819059 1_555
Mo6 O16 1.868216 1_555
Mo7 O4 1.755590 1_555
Mo7 O13 1.798870 1_555
Mo7 O31 1.819059 1_555
Mo7 O17 1.868216 1_555
O0 Rb1 2.820979 1_565
O0 Rb3 2.917369 1_555
O1 Rb0 2.820979 1_645
O1 Rb2 2.917369 1_555
O2 Rb3 2.820979 1_555
O2 Rb1 2.917369 1_555
O3 Rb1 2.820979 1_655
O3 Rb3 2.917369 1_555
O4 Rb2 2.820979 1_555
O4 Rb0 2.917369 1_655
O5 Rb0 2.820979 1_555
O5 Rb2 2.917369 1_555
O6 Rb3 2.820979 1_545
O6 Rb1 2.917369 1_655
O7 Rb2 2.820979 1_565
O7 Rb0 2.917369 1_555
O8 Sm0 2.395648 1_555
O9 Sm1 2.395648 1_655
O10 Sm2 2.395648 1_555
O11 Sm0 2.395648 1_655
O12 Sm3 2.395648 1_555
O13 Sm1 2.395648 1_555
O14 Sm2 2.395648 1_555
O15 Sm3 2.395648 1_555
O16 Sm0 2.510337 1_555
O16 Sm1 2.609312 1_554
O17 Sm1 2.510337 1_655
O17 Sm0 2.609312 1_656
O18 Sm2 2.510337 1_555
O18 Sm3 2.609312 1_545
O19 Sm0 2.510337 1_655
O19 Sm1 2.609312 1_664
O20 Sm3 2.510337 1_555
O20 Sm2 2.609312 1_565
O21 Sm1 2.510337 1_555
O21 Sm0 2.609312 1_546
O22 Sm2 2.510337 1_555
O22 Sm3 2.609312 1_555
O23 Sm3 2.510337 1_555
O23 Sm2 2.609312 1_555
O24 Sm3 2.360409 1_555
O24 Rb3 3.014837 1_555
O25 Sm2 2.360409 1_555
O25 Rb2 3.014837 1_555
O26 Sm1 2.360409 1_554
O26 Rb1 3.014837 1_555
O27 Sm3 2.360409 1_555
O27 Rb3 3.014837 1_555
O28 Sm0 2.360409 1_656
O28 Rb0 3.014837 1_655
O29 Sm2 2.360409 1_555
O29 Rb2 3.014837 1_555
O30 Sm1 2.360409 1_654
O30 Rb1 3.014837 1_655
O31 Sm0 2.360409 1_556
O31 Rb0 3.014837 1_555
