# generated using pymatgen
data_La3Ge6(Pd2Pt)2
_symmetry_space_group_name_H-M   'P 1'
_cell_length_a   4.50579900
_cell_length_b   4.50579900
_cell_length_c   29.53076200
_cell_angle_alpha   90.00000000
_cell_angle_beta   90.00000000
_cell_angle_gamma   90.00000000
_symmetry_Int_Tables_number   1
_chemical_formula_structural   La3Ge6(Pd2Pt)2
_chemical_formula_sum   'La6 Ge12 Pd8 Pt4'
_cell_volume   599.54016357
_cell_formula_units_Z   2
loop_
 _symmetry_equiv_pos_site_id
 _symmetry_equiv_pos_as_xyz
  1  'x, y, z'
loop_
 _atom_site_type_symbol
 _atom_site_label
 _atom_site_symmetry_multiplicity
 _atom_site_fract_x
 _atom_site_fract_y
 _atom_site_fract_z
 _atom_site_occupancy
  La  La0  1  0.50000000  0.50000000  0.08537700  1
  La  La1  1  0.50000000  0.50000000  0.41928900  1
  La  La2  1  0.50000000  0.50000000  0.75246200  1
  La  La3  1  0.00000000  0.00000000  0.24799200  1
  La  La4  1  0.00000000  0.00000000  0.58116700  1
  La  La5  1  0.00000000  0.00000000  0.91432200  1
  Ge  Ge0  1  0.50000000  0.00000000  0.16671400  1
  Ge  Ge1  1  0.50000000  0.00000000  0.49979900  1
  Ge  Ge2  1  0.50000000  0.00000000  0.83290200  1
  Ge  Ge3  1  0.00000000  0.50000000  0.16671400  1
  Ge  Ge4  1  0.00000000  0.50000000  0.49979900  1
  Ge  Ge5  1  0.00000000  0.50000000  0.83290200  1
  Ge  Ge6  1  0.50000000  0.50000000  0.29224600  1
  Ge  Ge7  1  0.50000000  0.50000000  0.62555900  1
  Ge  Ge8  1  0.50000000  0.50000000  0.95889200  1
  Ge  Ge9  1  0.00000000  0.00000000  0.04080500  1
  Ge  Ge10  1  0.00000000  0.00000000  0.37485600  1
  Ge  Ge11  1  0.00000000  0.00000000  0.70764800  1
  Pd  Pd0  1  0.00000000  0.00000000  0.45973000  1
  Pd  Pd1  1  0.00000000  0.00000000  0.79246600  1
  Pd  Pd2  1  0.50000000  0.00000000  0.99970900  1
  Pd  Pd3  1  0.50000000  0.00000000  0.33355300  1
  Pd  Pd4  1  0.50000000  0.00000000  0.66658000  1
  Pd  Pd5  1  0.00000000  0.50000000  0.99970900  1
  Pd  Pd6  1  0.00000000  0.50000000  0.33355300  1
  Pd  Pd7  1  0.00000000  0.50000000  0.66658000  1
  Pt  Pt0  1  0.50000000  0.50000000  0.20745600  1
  Pt  Pt1  1  0.50000000  0.50000000  0.54109100  1
  Pt  Pt2  1  0.50000000  0.50000000  0.87464000  1
  Pt  Pt3  1  0.00000000  0.00000000  0.12548800  1
loop_
_geom_bond_atom_site_label_1
_geom_bond_atom_site_label_2
_geom_bond_distance
_geom_bond_site_symmetry_2
La0 Pd2 3.387573 1_564
La0 Pd5 3.387573 1_554
La0 Pd2 3.387573 1_554
La0 Pd5 3.387573 1_654
La0 Pt3 3.399143 1_555
La0 Pt3 3.399143 1_565
La0 Pt3 3.399143 1_655
La0 Pt3 3.399143 1_665
La1 Pd6 3.389073 1_655
La1 Pd3 3.389073 1_565
La1 Pd6 3.389073 1_555
La1 Pd3 3.389073 1_555
La1 Pd0 3.402551 1_565
La1 Pd0 3.402551 1_655
La1 Pd0 3.402551 1_665
La1 Pd0 3.402551 1_555
La2 Pd7 3.392295 1_555
La2 Pd4 3.392295 1_555
La2 Pd4 3.392295 1_565
La2 Pd7 3.392295 1_655
La2 Pd1 3.398043 1_565
La2 Pd1 3.398043 1_655
La2 Pd1 3.398043 1_555
La2 Pd1 3.398043 1_665
La3 Pd6 3.385214 1_555
La3 Pd3 3.385214 1_555
La3 Pd6 3.385214 1_545
La3 Pd3 3.385214 1_455
La3 Pt0 3.403537 1_455
La3 Pt0 3.403537 1_555
La3 Pt0 3.403537 1_545
La3 Pt0 3.403537 1_445
La4 Pd7 3.381953 1_545
La4 Pd4 3.381953 1_555
La4 Pd4 3.381953 1_455
La4 Pd7 3.381953 1_555
La4 Pt1 3.398783 1_545
La4 Pt1 3.398783 1_455
La4 Pt1 3.398783 1_555
La4 Pt1 3.398783 1_445
La5 Pd5 3.381381 1_545
La5 Pd2 3.381381 1_455
La5 Pd5 3.381381 1_555
La5 Pd2 3.381381 1_555
La5 Pt2 3.394749 1_545
La5 Pt2 3.394749 1_455
La5 Pt2 3.394749 1_555
La5 Pt2 3.394749 1_445
Ge0 Pt0 2.554038 1_555
Ge0 Pt0 2.554038 1_545
Ge0 Pt3 2.560802 1_655
Ge0 Pt3 2.560802 1_555
Ge0 La3 3.291887 1_555
Ge0 La3 3.291887 1_655
Ge0 La0 3.293158 1_545
Ge0 La0 3.293158 1_555
Ge1 Pd0 2.544736 1_655
Ge1 Pd0 2.544736 1_555
Ge1 Pt1 2.561729 1_545
Ge1 Pt1 2.561729 1_555
Ge1 La1 3.275388 1_555
Ge1 La1 3.275388 1_545
Ge1 La4 3.293826 1_655
Ge1 La4 3.293826 1_555
Ge2 Pd1 2.549793 1_555
Ge2 Pd1 2.549793 1_655
Ge2 Pt2 2.568024 1_545
Ge2 Pt2 2.568024 1_555
Ge2 La2 3.273888 1_555
Ge2 La2 3.273888 1_545
Ge2 La5 3.294946 1_555
Ge2 La5 3.294946 1_655
Ge3 Pt0 2.554038 1_455
Ge3 Pt0 2.554038 1_555
Ge3 Pt3 2.560802 1_555
Ge3 Pt3 2.560802 1_565
Ge3 La3 3.291887 1_565
Ge3 La3 3.291887 1_555
Ge3 La0 3.293158 1_455
Ge3 La0 3.293158 1_555
Ge4 Pd0 2.544736 1_565
Ge4 Pd0 2.544736 1_555
Ge4 Pt1 2.561729 1_455
Ge4 Pt1 2.561729 1_555
Ge4 La1 3.275388 1_555
Ge4 La1 3.275388 1_455
Ge4 La4 3.293826 1_565
Ge4 La4 3.293826 1_555
Ge5 Pd1 2.549793 1_555
Ge5 Pd1 2.549793 1_565
Ge5 Pt2 2.568024 1_455
Ge5 Pt2 2.568024 1_555
Ge5 La2 3.273888 1_455
Ge5 La2 3.273888 1_555
Ge5 La5 3.294946 1_565
Ge5 La5 3.294946 1_555
Ge6 Pt0 2.503913 1_555
Ge6 Pd6 2.561940 1_555
Ge6 Pd3 2.561940 1_555
Ge6 Pd3 2.561940 1_565
Ge6 Pd6 2.561940 1_655
Ge6 La3 3.443687 1_665
Ge6 La3 3.443687 1_655
Ge6 La3 3.443687 1_565
Ge6 La3 3.443687 1_555
Ge7 Pt1 2.494404 1_555
Ge7 Pd7 2.557929 1_655
Ge7 Pd7 2.557929 1_555
Ge7 Pd4 2.557929 1_555
Ge7 Pd4 2.557929 1_565
Ge7 La4 3.445236 1_555
Ge7 La4 3.445236 1_655
Ge7 La4 3.445236 1_665
Ge7 La4 3.445236 1_565
Ge8 Pt2 2.488026 1_555
Ge8 Pd2 2.555082 1_565
Ge8 Pd5 2.555082 1_655
Ge8 Pd5 2.555082 1_555
Ge8 Pd2 2.555082 1_555
Ge8 La5 3.447239 1_555
Ge8 La5 3.447239 1_565
Ge8 La5 3.447239 1_665
Ge8 La5 3.447239 1_655
Ge9 Pt3 2.500754 1_555
Ge9 Pd5 2.558979 1_554
Ge9 Pd2 2.558979 1_454
Ge9 Pd2 2.558979 1_554
Ge9 Pd5 2.558979 1_544
Ge9 La0 3.447262 1_455
Ge9 La0 3.447262 1_545
Ge9 La0 3.447262 1_555
Ge9 La0 3.447262 1_445
Ge10 Pd0 2.506394 1_555
Ge10 Pd3 2.561883 1_455
Ge10 Pd3 2.561883 1_555
Ge10 Pd6 2.561883 1_555
Ge10 Pd6 2.561883 1_545
Ge10 La1 3.445697 1_445
Ge10 La1 3.445697 1_555
Ge10 La1 3.445697 1_545
Ge10 La1 3.445697 1_455
Ge11 Pd1 2.504740 1_555
Ge11 Pd7 2.558587 1_545
Ge11 Pd4 2.558587 1_455
Ge11 Pd7 2.558587 1_555
Ge11 Pd4 2.558587 1_555
Ge11 La2 3.449997 1_455
Ge11 La2 3.449997 1_555
Ge11 La2 3.449997 1_545
Ge11 La2 3.449997 1_445
