# generated using pymatgen
data_Ce8GaPd24
_symmetry_space_group_name_H-M   'P 1'
_cell_length_a   8.45295700
_cell_length_b   8.45295700
_cell_length_c   8.45295700
_cell_angle_alpha   90.00000000
_cell_angle_beta   90.00000000
_cell_angle_gamma   90.00000000
_symmetry_Int_Tables_number   1
_chemical_formula_structural   Ce8GaPd24
_chemical_formula_sum   'Ce8 Ga1 Pd24'
_cell_volume   603.98475826
_cell_formula_units_Z   1
loop_
 _symmetry_equiv_pos_site_id
 _symmetry_equiv_pos_as_xyz
  1  'x, y, z'
loop_
 _atom_site_type_symbol
 _atom_site_label
 _atom_site_symmetry_multiplicity
 _atom_site_fract_x
 _atom_site_fract_y
 _atom_site_fract_z
 _atom_site_occupancy
  Ce  Ce0  1  0.25090100  0.25090100  0.74909900  1
  Ce  Ce1  1  0.25090100  0.74909900  0.25090100  1
  Ce  Ce2  1  0.74909900  0.25090100  0.25090100  1
  Ce  Ce3  1  0.74909900  0.74909900  0.74909900  1
  Ce  Ce4  1  0.74909900  0.74909900  0.25090100  1
  Ce  Ce5  1  0.74909900  0.25090100  0.74909900  1
  Ce  Ce6  1  0.25090100  0.74909900  0.74909900  1
  Ce  Ce7  1  0.25090100  0.25090100  0.25090100  1
  Ga  Ga0  1  0.00000000  0.00000000  0.00000000  1
  Pd  Pd0  1  0.50000000  0.50000000  0.74586500  1
  Pd  Pd1  1  0.50000000  0.25413500  0.50000000  1
  Pd  Pd2  1  0.25413500  0.50000000  0.50000000  1
  Pd  Pd3  1  0.50000000  0.50000000  0.25413500  1
  Pd  Pd4  1  0.50000000  0.74586500  0.50000000  1
  Pd  Pd5  1  0.74586500  0.50000000  0.50000000  1
  Pd  Pd6  1  0.00000000  0.00000000  0.70720600  1
  Pd  Pd7  1  0.00000000  0.29279400  0.00000000  1
  Pd  Pd8  1  0.29279400  0.00000000  0.00000000  1
  Pd  Pd9  1  0.00000000  0.00000000  0.29279400  1
  Pd  Pd10  1  0.00000000  0.70720600  0.00000000  1
  Pd  Pd11  1  0.70720600  0.00000000  0.00000000  1
  Pd  Pd12  1  0.00000000  0.50000000  0.74002400  1
  Pd  Pd13  1  0.50000000  0.25997600  0.00000000  1
  Pd  Pd14  1  0.25997600  0.00000000  0.50000000  1
  Pd  Pd15  1  0.00000000  0.25997600  0.50000000  1
  Pd  Pd16  1  0.50000000  0.00000000  0.74002400  1
  Pd  Pd17  1  0.25997600  0.50000000  0.00000000  1
  Pd  Pd18  1  0.00000000  0.50000000  0.25997600  1
  Pd  Pd19  1  0.50000000  0.74002400  0.00000000  1
  Pd  Pd20  1  0.00000000  0.74002400  0.50000000  1
  Pd  Pd21  1  0.50000000  0.00000000  0.25997600  1
  Pd  Pd22  1  0.74002400  0.00000000  0.50000000  1
  Pd  Pd23  1  0.74002400  0.50000000  0.00000000  1
loop_
_geom_bond_atom_site_label_1
_geom_bond_atom_site_label_2
_geom_bond_distance
_geom_bond_site_symmetry_2
Ce0 Pd2 2.977926 1_555
Ce0 Pd1 2.977926 1_555
Ce0 Pd0 2.977926 1_555
Ce0 Pd16 2.989575 1_555
Ce0 Pd14 2.989575 1_555
Ce0 Pd15 2.989575 1_555
Ce0 Pd12 2.989575 1_555
Ce0 Pd13 2.989575 1_556
Ce0 Pd17 2.989575 1_556
Ce0 Pd6 3.020175 1_555
Ce0 Pd7 3.020175 1_556
Ce0 Pd8 3.020175 1_556
Ce1 Pd2 2.977926 1_555
Ce1 Pd3 2.977926 1_555
Ce1 Pd4 2.977926 1_555
Ce1 Pd17 2.989575 1_555
Ce1 Pd18 2.989575 1_555
Ce1 Pd19 2.989575 1_555
Ce1 Pd21 2.989575 1_565
Ce1 Pd14 2.989575 1_565
Ce1 Pd20 2.989575 1_555
Ce1 Pd10 3.020175 1_555
Ce1 Pd8 3.020175 1_565
Ce1 Pd9 3.020175 1_565
Ce2 Pd1 2.977926 1_555
Ce2 Pd3 2.977926 1_555
Ce2 Pd5 2.977926 1_555
Ce2 Pd21 2.989575 1_555
Ce2 Pd13 2.989575 1_555
Ce2 Pd23 2.989575 1_555
Ce2 Pd22 2.989575 1_555
Ce2 Pd18 2.989575 1_655
Ce2 Pd15 2.989575 1_655
Ce2 Pd11 3.020175 1_555
Ce2 Pd7 3.020175 1_655
Ce2 Pd9 3.020175 1_655
Ce3 Pd5 2.977926 1_555
Ce3 Pd4 2.977926 1_555
Ce3 Pd0 2.977926 1_555
Ce3 Pd12 2.989575 1_655
Ce3 Pd16 2.989575 1_565
Ce3 Pd20 2.989575 1_655
Ce3 Pd19 2.989575 1_556
Ce3 Pd22 2.989575 1_565
Ce3 Pd23 2.989575 1_556
Ce3 Pd6 3.020175 1_665
Ce3 Pd10 3.020175 1_656
Ce3 Pd11 3.020175 1_566
Ce4 Pd5 2.977926 1_555
Ce4 Pd4 2.977926 1_555
Ce4 Pd3 2.977926 1_555
Ce4 Pd19 2.989575 1_555
Ce4 Pd23 2.989575 1_555
Ce4 Pd21 2.989575 1_565
Ce4 Pd18 2.989575 1_655
Ce4 Pd20 2.989575 1_655
Ce4 Pd22 2.989575 1_565
Ce4 Pd10 3.020175 1_655
Ce4 Pd11 3.020175 1_565
Ce4 Pd9 3.020175 1_665
Ce5 Pd5 2.977926 1_555
Ce5 Pd0 2.977926 1_555
Ce5 Pd1 2.977926 1_555
Ce5 Pd16 2.989575 1_555
Ce5 Pd22 2.989575 1_555
Ce5 Pd15 2.989575 1_655
Ce5 Pd13 2.989575 1_556
Ce5 Pd23 2.989575 1_556
Ce5 Pd12 2.989575 1_655
Ce5 Pd11 3.020175 1_556
Ce5 Pd6 3.020175 1_655
Ce5 Pd7 3.020175 1_656
Ce6 Pd4 2.977926 1_555
Ce6 Pd0 2.977926 1_555
Ce6 Pd2 2.977926 1_555
Ce6 Pd12 2.989575 1_555
Ce6 Pd20 2.989575 1_555
Ce6 Pd14 2.989575 1_565
Ce6 Pd19 2.989575 1_556
Ce6 Pd17 2.989575 1_556
Ce6 Pd16 2.989575 1_565
Ce6 Pd6 3.020175 1_565
Ce6 Pd10 3.020175 1_556
Ce6 Pd8 3.020175 1_566
Ce7 Pd1 2.977926 1_555
Ce7 Pd2 2.977926 1_555
Ce7 Pd3 2.977926 1_555
Ce7 Pd18 2.989575 1_555
Ce7 Pd13 2.989575 1_555
Ce7 Pd17 2.989575 1_555
Ce7 Pd21 2.989575 1_555
Ce7 Pd15 2.989575 1_555
Ce7 Pd14 2.989575 1_555
Ce7 Pd7 3.020175 1_555
Ce7 Pd8 3.020175 1_555
Ce7 Pd9 3.020175 1_555
Ga0 Pd8 2.474975 1_555
Ga0 Pd7 2.474975 1_555
Ga0 Pd11 2.474975 1_455
Ga0 Pd10 2.474975 1_545
Ga0 Pd9 2.474975 1_555
Ga0 Pd6 2.474975 1_554
