# generated using pymatgen
data_Li2MgSi5O12
_symmetry_space_group_name_H-M   'P 1'
_cell_length_a   9.85423071
_cell_length_b   9.85423071
_cell_length_c   9.85423071
_cell_angle_alpha   109.65788127
_cell_angle_beta   109.65788127
_cell_angle_gamma   109.09854091
_symmetry_Int_Tables_number   1
_chemical_formula_structural   Li2MgSi5O12
_chemical_formula_sum   'Li8 Mg4 Si20 O48'
_cell_volume   736.60136118
_cell_formula_units_Z   4
loop_
 _symmetry_equiv_pos_site_id
 _symmetry_equiv_pos_as_xyz
  1  'x, y, z'
loop_
 _atom_site_type_symbol
 _atom_site_label
 _atom_site_symmetry_multiplicity
 _atom_site_fract_x
 _atom_site_fract_y
 _atom_site_fract_z
 _atom_site_occupancy
  Li  Li0  1  0.75106100  0.37500000  0.87606100  1
  Li  Li1  1  0.49893900  0.87500000  0.12393900  1
  Li  Li2  1  0.12500000  0.74894000  0.12393900  1
  Li  Li3  1  0.62500000  0.00106100  0.87606100  1
  Li  Li4  1  0.99893900  0.87500000  0.62393900  1
  Li  Li5  1  0.25106100  0.37500000  0.37606100  1
  Li  Li6  1  0.62500000  0.50106100  0.37606100  1
  Li  Li7  1  0.12500000  0.24893900  0.62393900  1
  Mg  Mg0  1  0.50000000  0.00000000  0.50000000  1
  Mg  Mg1  1  0.75000000  0.75000000  0.00000000  1
  Mg  Mg2  1  0.25000000  0.25000000  0.00000000  1
  Mg  Mg3  1  0.00000000  0.50000000  0.50000000  1
  Si  Si0  1  0.75000000  0.25000000  0.50000000  1
  Si  Si1  1  0.50000000  0.50000000  0.00000000  1
  Si  Si2  1  0.99906600  0.37500000  0.12406600  1
  Si  Si3  1  0.25093400  0.87500000  0.87593400  1
  Si  Si4  1  0.12500000  0.00093400  0.37593400  1
  Si  Si5  1  0.62500000  0.74906600  0.62406600  1
  Si  Si6  1  0.00000000  0.00000000  0.00000000  1
  Si  Si7  1  0.25000000  0.75000000  0.50000000  1
  Si  Si8  1  0.75093400  0.87500000  0.37593400  1
  Si  Si9  1  0.49906600  0.37500000  0.62406600  1
  Si  Si10  1  0.62500000  0.24906600  0.12406600  1
  Si  Si11  1  0.12500000  0.50093400  0.87593400  1
  Si  Si12  1  0.37500000  0.12500000  0.75000000  1
  Si  Si13  1  0.37500000  0.62500000  0.25000000  1
  Si  Si14  1  0.87500000  0.62500000  0.75000000  1
  Si  Si15  1  0.87500000  0.12500000  0.25000000  1
  Si  Si16  1  0.87500000  0.12500000  0.75000000  1
  Si  Si17  1  0.87500000  0.62500000  0.25000000  1
  Si  Si18  1  0.37500000  0.12500000  0.25000000  1
  Si  Si19  1  0.37500000  0.62500000  0.75000000  1
  O  O0  1  0.44839900  0.50583100  0.14358500  1
  O  O1  1  0.36224600  0.30481400  0.85641500  1
  O  O2  1  0.88775400  0.24416900  0.44256900  1
  O  O3  1  0.80160100  0.44518600  0.55743100  1
  O  O4  1  0.25975800  0.02296700  0.82856600  1
  O  O5  1  0.05559900  0.72703300  0.73679100  1
  O  O6  1  0.99024200  0.31880800  0.26320900  1
  O  O7  1  0.19440100  0.43119200  0.17143400  1
  O  O8  1  0.77187800  0.70157700  0.63651300  1
  O  O9  1  0.47812200  0.61463500  0.42969900  1
  O  O10  1  0.06506400  0.13536500  0.36348700  1
  O  O11  1  0.18493600  0.04842300  0.57030100  1
  O  O12  1  0.30160100  0.74416900  0.35641500  1
  O  O13  1  0.38775400  0.94518600  0.64358500  1
  O  O14  1  0.86224600  0.00583100  0.05743100  1
  O  O15  1  0.94839900  0.80481400  0.94256900  1
  O  O16  1  0.49024200  0.22703300  0.67143400  1
  O  O17  1  0.69440100  0.52296700  0.76320900  1
  O  O18  1  0.75975800  0.93119200  0.23679100  1
  O  O19  1  0.55559900  0.81880800  0.32856600  1
  O  O20  1  0.97812200  0.54842300  0.86348700  1
  O  O21  1  0.27187800  0.63536500  0.07030100  1
  O  O22  1  0.68493600  0.11463500  0.13651300  1
  O  O23  1  0.56506400  0.20157700  0.92969900  1
  O  O24  1  0.95157700  0.52187800  0.13651300  1
  O  O25  1  0.86463500  0.22812200  0.92969900  1
  O  O26  1  0.38536500  0.81506400  0.86348700  1
  O  O27  1  0.29842300  0.93493600  0.07030100  1
  O  O28  1  0.75583100  0.19839900  0.64358500  1
  O  O29  1  0.55481400  0.11224600  0.35641500  1
  O  O30  1  0.49416900  0.63775400  0.94256900  1
  O  O31  1  0.69518600  0.55160100  0.05743100  1
  O  O32  1  0.27296700  0.00975800  0.32856600  1
  O  O33  1  0.97703300  0.80559900  0.23679100  1
  O  O34  1  0.56880800  0.74024200  0.76320900  1
  O  O35  1  0.68119200  0.94440100  0.67143400  1
  O  O36  1  0.79842300  0.72812200  0.36348700  1
  O  O37  1  0.88536500  0.02187800  0.57030100  1
  O  O38  1  0.36463500  0.43493600  0.63651300  1
  O  O39  1  0.45157700  0.31506400  0.42969900  1
  O  O40  1  0.99416900  0.05160100  0.85641500  1
  O  O41  1  0.19518600  0.13775400  0.14358500  1
  O  O42  1  0.25583100  0.61224600  0.55743100  1
  O  O43  1  0.05481400  0.69839900  0.44256900  1
  O  O44  1  0.47703300  0.24024200  0.17143400  1
  O  O45  1  0.77296700  0.44440100  0.26320900  1
  O  O46  1  0.18119200  0.50975800  0.73679100  1
  O  O47  1  0.06880800  0.30559900  0.82856600  1
loop_
_geom_bond_atom_site_label_1
_geom_bond_atom_site_label_2
_geom_bond_distance
_geom_bond_site_symmetry_2
Li0 O24 2.191703 1_556
Li0 O25 2.191703 1_555
Li0 O17 2.209176 1_555
Li0 O16 2.209176 1_555
Li0 O31 2.392172 1_556
Li0 O28 2.392178 1_555
Li0 O23 2.401890 1_555
Li0 O20 2.401890 1_555
Li1 O26 2.191703 1_554
Li1 O27 2.191703 1_555
Li1 O18 2.209176 1_555
Li1 O19 2.209176 1_555
Li1 O30 2.392174 1_554
Li1 O29 2.392178 1_565
Li1 O22 2.401890 1_565
Li1 O21 2.401890 1_555
Li2 O20 2.191706 1_454
Li2 O21 2.191710 1_555
Li2 O32 2.209169 1_565
Li2 O33 2.209173 1_455
Li2 O15 2.392165 1_454
Li2 O12 2.392184 1_555
Li2 O27 2.401884 1_555
Li2 O24 2.401897 1_455
Li3 O22 2.191703 1_556
Li3 O23 2.191703 1_555
Li3 O34 2.209176 1_545
Li3 O35 2.209176 1_545
Li3 O14 2.392174 1_556
Li3 O13 2.392178 1_545
Li3 O25 2.401890 1_555
Li3 O26 2.401890 1_545
Li4 O36 2.191703 1_555
Li4 O37 2.191703 1_565
Li4 O5 2.209176 1_655
Li4 O4 2.209176 1_665
Li4 O43 2.392172 1_655
Li4 O40 2.392178 1_565
Li4 O8 2.401890 1_555
Li4 O11 2.401890 1_665
Li5 O38 2.191703 1_555
Li5 O39 2.191703 1_555
Li5 O7 2.209176 1_555
Li5 O6 2.209176 1_455
Li5 O42 2.392174 1_555
Li5 O41 2.392178 1_555
Li5 O10 2.401890 1_555
Li5 O9 2.401890 1_555
Li6 O8 2.191703 1_555
Li6 O9 2.191703 1_555
Li6 O45 2.209176 1_555
Li6 O44 2.209176 1_555
Li6 O3 2.392172 1_555
Li6 O0 2.392178 1_555
Li6 O39 2.401890 1_555
Li6 O36 2.401890 1_555
Li7 O10 2.191703 1_555
Li7 O11 2.191703 1_555
Li7 O47 2.209176 1_555
Li7 O46 2.209176 1_555
Li7 O2 2.392174 1_455
Li7 O1 2.392178 1_555
Li7 O37 2.401890 1_455
Li7 O38 2.401890 1_555
Mg0 O13 2.166429 1_545
Mg0 O28 2.166429 1_555
Mg0 O12 2.166429 1_545
Mg0 O29 2.166429 1_555
Mg0 O19 2.361269 1_545
Mg0 O16 2.361269 1_555
Mg0 O32 2.361269 1_555
Mg0 O35 2.361269 1_545
Mg1 O15 2.166423 1_554
Mg1 O31 2.166423 1_555
Mg1 O30 2.166432 1_554
Mg1 O14 2.166432 1_565
Mg1 O34 2.361269 1_554
Mg1 O18 2.361269 1_555
Mg1 O17 2.361269 1_554
Mg1 O33 2.361269 1_555
Mg2 O1 2.166429 1_554
Mg2 O41 2.166429 1_555
Mg2 O40 2.166429 1_454
Mg2 O0 2.166429 1_555
Mg2 O47 2.361269 1_554
Mg2 O44 2.361269 1_555
Mg2 O4 2.361269 1_554
Mg2 O7 2.361269 1_555
Mg3 O3 2.166423 1_455
Mg3 O43 2.166423 1_555
Mg3 O42 2.166432 1_555
Mg3 O2 2.166432 1_455
Mg3 O6 2.361269 1_455
Mg3 O45 2.361269 1_455
Mg3 O5 2.361269 1_555
Mg3 O46 2.361269 1_555
O0 Si1 1.646919 1_555
O0 Si13 1.799839 1_555
O1 Si1 1.646919 1_556
O1 Si12 1.799839 1_555
O2 Si0 1.646913 1_555
O2 Si15 1.799847 1_555
O3 Si0 1.646921 1_555
O3 Si14 1.799845 1_555
O4 Si3 1.659444 1_545
O4 Si12 1.807776 1_555
O5 Si3 1.659444 1_555
O5 Si14 1.807776 1_455
O6 Si2 1.659444 1_555
O6 Si15 1.807776 1_555
O7 Si2 1.659444 1_455
O7 Si13 1.807776 1_555
O8 Si5 1.640526 1_555
O8 Si14 1.776994 1_555
O9 Si5 1.640526 1_555
O9 Si13 1.776994 1_555
O10 Si4 1.640526 1_555
O10 Si15 1.776994 1_455
O11 Si4 1.640526 1_555
O11 Si12 1.776994 1_555
O12 Si7 1.646919 1_555
O12 Si13 1.799839 1_555
O13 Si7 1.646919 1_555
O13 Si12 1.799839 1_565
O14 Si6 1.646913 1_655
O14 Si15 1.799847 1_555
O15 Si6 1.646921 1_666
O15 Si14 1.799845 1_555
O16 Si9 1.659444 1_555
O16 Si12 1.807776 1_555
O17 Si9 1.659444 1_555
O17 Si14 1.807776 1_555
O18 Si8 1.659444 1_555
O18 Si15 1.807776 1_565
O19 Si8 1.659444 1_555
O19 Si13 1.807776 1_555
O20 Si11 1.640526 1_655
O20 Si14 1.776994 1_555
O21 Si11 1.640526 1_554
O21 Si13 1.776994 1_555
O22 Si10 1.640526 1_555
O22 Si15 1.776994 1_555
O23 Si10 1.640526 1_556
O23 Si12 1.776994 1_555
O24 Si2 1.640526 1_555
O24 Si17 1.776994 1_555
O25 Si2 1.640526 1_556
O25 Si16 1.776994 1_555
O26 Si3 1.640526 1_555
O26 Si19 1.776994 1_555
O27 Si3 1.640526 1_554
O27 Si18 1.776994 1_565
O28 Si0 1.646919 1_555
O28 Si16 1.799839 1_555
O29 Si0 1.646919 1_555
O29 Si18 1.799839 1_555
O30 Si1 1.646913 1_556
O30 Si19 1.799847 1_555
O31 Si1 1.646921 1_555
O31 Si17 1.799845 1_555
O32 Si4 1.659444 1_555
O32 Si18 1.807776 1_555
O33 Si4 1.659444 1_665
O33 Si17 1.807776 1_555
O34 Si5 1.659444 1_555
O34 Si19 1.807776 1_555
O35 Si5 1.659444 1_555
O35 Si16 1.807776 1_565
O36 Si8 1.640526 1_555
O36 Si17 1.776994 1_555
O37 Si8 1.640526 1_545
O37 Si16 1.776994 1_555
O38 Si9 1.640526 1_555
O38 Si19 1.776994 1_555
O39 Si9 1.640526 1_555
O39 Si18 1.776994 1_555
O40 Si6 1.646919 1_656
O40 Si16 1.799839 1_555
O41 Si6 1.646919 1_555
O41 Si18 1.799839 1_555
O42 Si7 1.646913 1_555
O42 Si19 1.799847 1_555
O43 Si7 1.646921 1_555
O43 Si17 1.799845 1_455
O44 Si10 1.659444 1_555
O44 Si18 1.807776 1_555
O45 Si10 1.659444 1_555
O45 Si17 1.807776 1_555
O46 Si11 1.659444 1_555
O46 Si19 1.807776 1_555
O47 Si11 1.659444 1_555
O47 Si16 1.807776 1_455
