# generated using pymatgen
data_KMoP3WO12
_symmetry_space_group_name_H-M   'P 1'
_cell_length_a   9.03093900
_cell_length_b   9.38164600
_cell_length_c   12.66102600
_cell_angle_alpha   90.00000000
_cell_angle_beta   90.00000000
_cell_angle_gamma   90.00000000
_symmetry_Int_Tables_number   1
_chemical_formula_structural   KMoP3WO12
_chemical_formula_sum   'K4 Mo4 P12 W4 O48'
_cell_volume   1072.70634888
_cell_formula_units_Z   4
loop_
 _symmetry_equiv_pos_site_id
 _symmetry_equiv_pos_as_xyz
  1  'x, y, z'
loop_
 _atom_site_type_symbol
 _atom_site_label
 _atom_site_symmetry_multiplicity
 _atom_site_fract_x
 _atom_site_fract_y
 _atom_site_fract_z
 _atom_site_occupancy
  K  K0  1  0.82391300  0.08703600  0.75151100  1
  K  K1  1  0.17608700  0.41296400  0.25151100  1
  K  K2  1  0.82391300  0.91296400  0.24848900  1
  K  K3  1  0.17608700  0.58703600  0.74848900  1
  Mo  Mo0  1  0.24739400  0.22092900  0.59495100  1
  Mo  Mo1  1  0.75260600  0.27907100  0.09495100  1
  Mo  Mo2  1  0.24739400  0.77907100  0.40504900  1
  Mo  Mo3  1  0.75260600  0.72092900  0.90504900  1
  P  P0  1  0.96684200  0.00000000  0.50000000  1
  P  P1  1  0.03315800  0.50000000  0.00000000  1
  P  P2  1  0.02933700  0.50000000  0.50000000  1
  P  P3  1  0.97066300  0.00000000  0.00000000  1
  P  P4  1  0.40438800  0.88265200  0.63343600  1
  P  P5  1  0.59561200  0.61734800  0.13343600  1
  P  P6  1  0.40438800  0.11734800  0.36656400  1
  P  P7  1  0.59561200  0.38265200  0.86656400  1
  P  P8  1  0.59464600  0.61406800  0.36983300  1
  P  P9  1  0.40535400  0.88593200  0.86983300  1
  P  P10  1  0.59464600  0.38593200  0.63016700  1
  P  P11  1  0.40535400  0.11406800  0.13016700  1
  W  W0  1  0.75323500  0.27747000  0.39841600  1
  W  W1  1  0.24676500  0.22253000  0.89841600  1
  W  W2  1  0.75323500  0.72253000  0.60158400  1
  W  W3  1  0.24676500  0.77747000  0.10158400  1
  O  O0  1  0.12175900  0.41358800  0.57864200  1
  O  O1  1  0.87824100  0.08641200  0.07864200  1
  O  O2  1  0.12175900  0.58641200  0.42135800  1
  O  O3  1  0.87824100  0.91358800  0.92135800  1
  O  O4  1  0.86176200  0.09437300  0.43150400  1
  O  O5  1  0.13823800  0.40562700  0.93150400  1
  O  O6  1  0.86176200  0.90562700  0.56849600  1
  O  O7  1  0.13823800  0.59437300  0.06849600  1
  O  O8  1  0.05455900  0.09072000  0.57823300  1
  O  O9  1  0.94544100  0.40928000  0.07823300  1
  O  O10  1  0.05455900  0.90928000  0.42176700  1
  O  O11  1  0.94544100  0.59072000  0.92176700  1
  O  O12  1  0.93195900  0.39972800  0.43127700  1
  O  O13  1  0.06804100  0.10027200  0.93127700  1
  O  O14  1  0.93195900  0.60027200  0.56872300  1
  O  O15  1  0.06804100  0.89972800  0.06872300  1
  O  O16  1  0.20310400  0.23146400  0.75936100  1
  O  O17  1  0.79689600  0.26853600  0.25936100  1
  O  O18  1  0.20310400  0.76853600  0.24063900  1
  O  O19  1  0.79689600  0.73146400  0.74063900  1
  O  O20  1  0.38734100  0.04211000  0.62336200  1
  O  O21  1  0.61265900  0.45789000  0.12336200  1
  O  O22  1  0.38734100  0.95789000  0.37663800  1
  O  O23  1  0.61265900  0.54211000  0.87663800  1
  O  O24  1  0.62477000  0.45431400  0.38065800  1
  O  O25  1  0.37523000  0.04568600  0.88065800  1
  O  O26  1  0.62477000  0.54568600  0.61934200  1
  O  O27  1  0.37523000  0.95431400  0.11934200  1
  O  O28  1  0.30101500  0.21310600  0.42989100  1
  O  O29  1  0.69898500  0.28689400  0.92989100  1
  O  O30  1  0.30101500  0.78689400  0.57010900  1
  O  O31  1  0.69898500  0.71310600  0.07010900  1
  O  O32  1  0.69705700  0.29527300  0.55880500  1
  O  O33  1  0.30294300  0.20472700  0.05880500  1
  O  O34  1  0.69705700  0.70472700  0.44119500  1
  O  O35  1  0.30294300  0.79527300  0.94119500  1
  O  O36  1  0.35288000  0.83691200  0.75335100  1
  O  O37  1  0.64712000  0.66308800  0.25335100  1
  O  O38  1  0.35288000  0.16308800  0.24664900  1
  O  O39  1  0.64712000  0.33691200  0.74664900  1
  O  O40  1  0.43186100  0.35856800  0.62014000  1
  O  O41  1  0.56813900  0.14143200  0.12014000  1
  O  O42  1  0.43186100  0.64143200  0.37986000  1
  O  O43  1  0.56813900  0.85856800  0.87986000  1
  O  O44  1  0.56943600  0.15257800  0.37936700  1
  O  O45  1  0.43056400  0.34742200  0.87936700  1
  O  O46  1  0.56943600  0.84742200  0.62063300  1
  O  O47  1  0.43056400  0.65257800  0.12063300  1
loop_
_geom_bond_atom_site_label_1
_geom_bond_atom_site_label_2
_geom_bond_distance
_geom_bond_site_symmetry_2
K0 O3 2.740980 1_545
K0 O39 2.836978 1_555
K0 O6 2.895267 1_545
K0 O8 3.025388 1_655
K0 O29 3.144709 1_555
K0 O13 3.171186 1_655
K0 O32 3.328954 1_555
K0 O19 3.347593 1_545
K1 O2 2.740980 1_555
K1 O38 2.836978 1_555
K1 O7 2.895267 1_555
K1 O9 3.025388 1_455
K1 O28 3.144709 1_555
K1 O12 3.171186 1_455
K1 O33 3.328954 1_555
K1 O18 3.347593 1_555
K2 O1 2.740980 1_565
K2 O37 2.836978 1_555
K2 O4 2.895267 1_565
K2 O10 3.025388 1_655
K2 O31 3.144709 1_555
K2 O15 3.171186 1_655
K2 O34 3.328954 1_555
K2 O17 3.347593 1_565
K3 O0 2.740980 1_555
K3 O36 2.836978 1_555
K3 O5 2.895267 1_555
K3 O11 3.025388 1_455
K3 O30 3.144709 1_555
K3 O14 3.171186 1_455
K3 O35 3.328954 1_555
K3 O16 3.347593 1_555
Mo0 O16 2.121982 1_555
Mo0 O20 2.130989 1_555
Mo0 O40 2.131753 1_555
Mo0 O8 2.137710 1_555
Mo0 O0 2.144030 1_555
Mo0 O28 2.146455 1_555
Mo1 O17 2.121982 1_555
Mo1 O21 2.130989 1_555
Mo1 O41 2.131753 1_555
Mo1 O9 2.137710 1_555
Mo1 O1 2.144030 1_555
Mo1 O29 2.146455 1_554
Mo2 O18 2.121982 1_555
Mo2 O22 2.130989 1_555
Mo2 O42 2.131753 1_555
Mo2 O10 2.137710 1_555
Mo2 O2 2.144030 1_555
Mo2 O30 2.146455 1_555
Mo3 O19 2.121982 1_555
Mo3 O23 2.130989 1_555
Mo3 O43 2.131753 1_555
Mo3 O11 2.137710 1_555
Mo3 O3 2.144030 1_555
Mo3 O31 2.146455 1_556
O0 P2 1.531425 1_555
O1 P3 1.531425 1_555
O2 P2 1.531425 1_555
O3 P3 1.531425 1_566
O4 P0 1.560936 1_555
O4 W0 2.021575 1_555
O5 P1 1.560936 1_556
O5 W1 2.021575 1_555
O6 P0 1.560936 1_565
O6 W2 2.021575 1_555
O7 P1 1.560936 1_555
O7 W3 2.021575 1_555
O8 P0 1.527421 1_455
O9 P1 1.527421 1_655
O10 P0 1.527421 1_465
O11 P1 1.527421 1_656
O12 P2 1.554155 1_655
O12 W0 2.023317 1_555
O13 P3 1.554155 1_456
O13 W1 2.023317 1_555
O14 P2 1.554155 1_655
O14 W2 2.023317 1_555
O15 P3 1.554155 1_465
O15 W3 2.023317 1_555
O16 W1 1.806138 1_555
O17 W0 1.806138 1_555
O18 W3 1.806138 1_555
O19 W2 1.806138 1_555
O20 P4 1.509278 1_545
O21 P5 1.509278 1_555
O22 P6 1.509278 1_565
O23 P7 1.509278 1_555
O24 P8 1.529399 1_555
O24 W0 2.036932 1_555
O25 P9 1.529399 1_545
O25 W1 2.036932 1_555
O26 P10 1.529399 1_555
O26 W2 2.036932 1_555
O27 P11 1.529399 1_565
O27 W3 2.036932 1_555
O28 P6 1.523630 1_555
O29 P7 1.523630 1_555
O30 P4 1.523630 1_555
O31 P5 1.523630 1_555
O32 P10 1.547619 1_555
O32 W0 2.099759 1_555
O33 P11 1.547619 1_555
O33 W1 2.099759 1_554
O34 P8 1.547619 1_555
O34 W2 2.099759 1_555
O35 P9 1.547619 1_555
O35 W3 2.099759 1_556
O36 P9 1.615874 1_555
O36 P4 1.644869 1_555
O37 P8 1.615874 1_555
O37 P5 1.644869 1_555
O38 P11 1.615874 1_555
O38 P6 1.644869 1_555
O39 P10 1.615874 1_555
O39 P7 1.644869 1_555
O40 P10 1.497738 1_555
O41 P11 1.497738 1_555
O42 P8 1.497738 1_555
O43 P9 1.497738 1_555
O44 P6 1.535325 1_555
O44 W0 2.046027 1_555
O45 P7 1.535325 1_555
O45 W1 2.046027 1_555
O46 P4 1.535325 1_555
O46 W2 2.046027 1_555
O47 P5 1.535325 1_555
O47 W3 2.046027 1_555
