# generated using pymatgen
data_C(NO)2
_symmetry_space_group_name_H-M   'P 1'
_cell_length_a   6.92073700
_cell_length_b   7.25578800
_cell_length_c   16.30109500
_cell_angle_alpha   90.00000000
_cell_angle_beta   90.00000000
_cell_angle_gamma   90.00000000
_symmetry_Int_Tables_number   1
_chemical_formula_structural   C(NO)2
_chemical_formula_sum   'C8 N16 O16'
_cell_volume   818.56601362
_cell_formula_units_Z   8
loop_
 _symmetry_equiv_pos_site_id
 _symmetry_equiv_pos_as_xyz
  1  'x, y, z'
loop_
 _atom_site_type_symbol
 _atom_site_label
 _atom_site_symmetry_multiplicity
 _atom_site_fract_x
 _atom_site_fract_y
 _atom_site_fract_z
 _atom_site_occupancy
  C  C0  1  0.05508800  0.12528500  0.09920200  1
  C  C1  1  0.94491200  0.87471500  0.90079800  1
  C  C2  1  0.44491200  0.87471500  0.59920200  1
  C  C3  1  0.94491200  0.62528500  0.40079800  1
  C  C4  1  0.55508800  0.12528500  0.40079800  1
  C  C5  1  0.05508800  0.37471500  0.59920200  1
  C  C6  1  0.55508800  0.37471500  0.90079800  1
  C  C7  1  0.44491200  0.62528500  0.09920200  1
  N  N0  1  0.18924700  0.22355100  0.05665800  1
  N  N1  1  0.81075300  0.77644900  0.94334200  1
  N  N2  1  0.31075300  0.77644900  0.55665800  1
  N  N3  1  0.81075300  0.72355100  0.44334200  1
  N  N4  1  0.68924700  0.22355100  0.44334200  1
  N  N5  1  0.18924700  0.27644900  0.55665800  1
  N  N6  1  0.68924700  0.27644900  0.94334200  1
  N  N7  1  0.31075300  0.72355100  0.05665800  1
  N  N8  1  0.07567100  0.13372400  0.31813400  1
  N  N9  1  0.92432900  0.86627600  0.68186600  1
  N  N10  1  0.42432900  0.86627600  0.81813400  1
  N  N11  1  0.92432900  0.63372400  0.18186600  1
  N  N12  1  0.57567100  0.13372400  0.18186600  1
  N  N13  1  0.07567100  0.36627600  0.81813400  1
  N  N14  1  0.57567100  0.36627600  0.68186600  1
  N  N15  1  0.42432900  0.63372400  0.31813400  1
  O  O0  1  0.15131500  0.26014200  0.14568900  1
  O  O1  1  0.84868500  0.73985800  0.85431100  1
  O  O2  1  0.34868500  0.73985800  0.64568900  1
  O  O3  1  0.84868500  0.76014200  0.35431100  1
  O  O4  1  0.65131500  0.26014200  0.35431100  1
  O  O5  1  0.15131500  0.23985800  0.64568900  1
  O  O6  1  0.65131500  0.23985800  0.85431100  1
  O  O7  1  0.34868500  0.76014200  0.14568900  1
  O  O8  1  0.43408100  0.00963700  0.39314300  1
  O  O9  1  0.56591900  0.99036300  0.60685700  1
  O  O10  1  0.06591900  0.99036300  0.89314300  1
  O  O11  1  0.56591900  0.50963700  0.10685700  1
  O  O12  1  0.93408100  0.00963700  0.10685700  1
  O  O13  1  0.43408100  0.49036300  0.89314300  1
  O  O14  1  0.93408100  0.49036300  0.60685700  1
  O  O15  1  0.06591900  0.50963700  0.39314300  1
loop_
_geom_bond_atom_site_label_1
_geom_bond_atom_site_label_2
_geom_bond_distance
_geom_bond_site_symmetry_2
C0 O12 1.192067 1_455
C0 N0 1.360662 1_555
C0 O0 1.405418 1_555
C1 O10 1.192067 1_655
C1 N1 1.360662 1_555
C1 O1 1.405418 1_555
C2 O9 1.192067 1_555
C2 N2 1.360662 1_555
C2 O2 1.405418 1_555
C3 O15 1.192067 1_655
C3 N3 1.360662 1_555
C3 O3 1.405418 1_555
C4 O8 1.192067 1_555
C4 N4 1.360662 1_555
C4 O4 1.405418 1_555
C5 O14 1.192067 1_455
C5 N5 1.360662 1_555
C5 O5 1.405418 1_555
C6 O13 1.192067 1_555
C6 N6 1.360662 1_555
C6 O6 1.405418 1_555
C7 O11 1.192067 1_555
C7 N7 1.360662 1_555
C7 O7 1.405418 1_555
N0 O0 1.498561 1_555
N1 O1 1.498561 1_555
N2 O2 1.498561 1_555
N3 O3 1.498561 1_555
N4 O4 1.498561 1_555
N5 O5 1.498561 1_555
N6 O6 1.498561 1_555
N7 O7 1.498561 1_555
