# generated using pymatgen
data_Cs2Sn3HgSe8
_symmetry_space_group_name_H-M   'P 1'
_cell_length_a   8.25886600
_cell_length_b   13.53569500
_cell_length_c   18.97191800
_cell_angle_alpha   90.00000000
_cell_angle_beta   90.00000000
_cell_angle_gamma   90.00000000
_symmetry_Int_Tables_number   1
_chemical_formula_structural   Cs2Sn3HgSe8
_chemical_formula_sum   'Cs8 Sn12 Hg4 Se32'
_cell_volume   2120.86106072
_cell_formula_units_Z   4
loop_
 _symmetry_equiv_pos_site_id
 _symmetry_equiv_pos_as_xyz
  1  'x, y, z'
loop_
 _atom_site_type_symbol
 _atom_site_label
 _atom_site_symmetry_multiplicity
 _atom_site_fract_x
 _atom_site_fract_y
 _atom_site_fract_z
 _atom_site_occupancy
  Cs  Cs0  1  0.74858500  0.62687900  0.04928800  1
  Cs  Cs1  1  0.75141500  0.37312100  0.54928800  1
  Cs  Cs2  1  0.24858500  0.87312100  0.95071200  1
  Cs  Cs3  1  0.25141500  0.12687900  0.45071200  1
  Cs  Cs4  1  0.23895900  0.81127700  0.33995500  1
  Cs  Cs5  1  0.26104100  0.18872300  0.83995500  1
  Cs  Cs6  1  0.73895900  0.68872300  0.66004500  1
  Cs  Cs7  1  0.76104100  0.31127700  0.16004500  1
  Sn  Sn0  1  0.76181200  0.04976900  0.32271700  1
  Sn  Sn1  1  0.73818800  0.95023100  0.82271700  1
  Sn  Sn2  1  0.26181200  0.45023100  0.67728300  1
  Sn  Sn3  1  0.23818800  0.54976900  0.17728300  1
  Sn  Sn4  1  0.73253200  0.93131500  0.48466200  1
  Sn  Sn5  1  0.76746800  0.06868500  0.98466200  1
  Sn  Sn6  1  0.23253200  0.56868500  0.51533800  1
  Sn  Sn7  1  0.26746800  0.43131500  0.01533800  1
  Sn  Sn8  1  0.51470400  0.97994700  0.15308200  1
  Sn  Sn9  1  0.98529600  0.02005300  0.65308200  1
  Sn  Sn10  1  0.01470400  0.52005300  0.84691800  1
  Sn  Sn11  1  0.48529600  0.47994700  0.34691800  1
  Hg  Hg0  1  0.98450700  0.50162700  0.34720500  1
  Hg  Hg1  1  0.51549300  0.49837300  0.84720500  1
  Hg  Hg2  1  0.48450700  0.99837300  0.65279500  1
  Hg  Hg3  1  0.01549300  0.00162700  0.15279500  1
  Se  Se0  1  0.98145400  0.61703800  0.22908800  1
  Se  Se1  1  0.51854600  0.38296200  0.72908800  1
  Se  Se2  1  0.48145400  0.88296200  0.77091200  1
  Se  Se3  1  0.01854600  0.11703800  0.27091200  1
  Se  Se4  1  0.97421600  0.62694800  0.45892100  1
  Se  Se5  1  0.52578400  0.37305200  0.95892100  1
  Se  Se6  1  0.47421600  0.87305200  0.54107900  1
  Se  Se7  1  0.02578400  0.12694800  0.04107900  1
  Se  Se8  1  0.76407800  0.87250800  0.15881200  1
  Se  Se9  1  0.73592200  0.12749200  0.65881200  1
  Se  Se10  1  0.26407800  0.62749200  0.84118800  1
  Se  Se11  1  0.23592200  0.37250800  0.34118800  1
  Se  Se12  1  0.76609400  0.62938300  0.85197600  1
  Se  Se13  1  0.73390600  0.37061700  0.35197600  1
  Se  Se14  1  0.26609400  0.87061700  0.14802400  1
  Se  Se15  1  0.23390600  0.12938300  0.64802400  1
  Se  Se16  1  0.75904700  0.86346400  0.35679500  1
  Se  Se17  1  0.74095300  0.13653600  0.85679500  1
  Se  Se18  1  0.25904700  0.63653600  0.64320500  1
  Se  Se19  1  0.24095300  0.36346400  0.14320500  1
  Se  Se20  1  0.73414100  0.11826700  0.45136000  1
  Se  Se21  1  0.76585900  0.88173300  0.95136000  1
  Se  Se22  1  0.23414100  0.38173300  0.54864000  1
  Se  Se23  1  0.26585900  0.61826700  0.04864000  1
  Se  Se24  1  0.50410100  0.60019500  0.23861600  1
  Se  Se25  1  0.99589900  0.39980500  0.73861600  1
  Se  Se26  1  0.00410100  0.89980500  0.76138400  1
  Se  Se27  1  0.49589900  0.10019500  0.26138400  1
  Se  Se28  1  0.49730500  0.61070200  0.44907000  1
  Se  Se29  1  0.00269500  0.38929800  0.94907000  1
  Se  Se30  1  0.99730500  0.88929800  0.55093000  1
  Se  Se31  1  0.50269500  0.11070200  0.05093000  1
loop_
_geom_bond_atom_site_label_1
_geom_bond_atom_site_label_2
_geom_bond_distance
_geom_bond_site_symmetry_2
Cs0 Se12 3.746332 1_554
Cs0 Se0 3.918229 1_555
Cs0 Se21 3.920714 1_554
Cs0 Se8 3.922752 1_555
Cs0 Se23 3.988492 1_555
Cs0 Se24 4.136341 1_555
Cs0 Se5 4.257863 1_554
Cs0 Se23 4.273704 1_655
Cs0 Se29 4.284967 1_654
Cs1 Se13 3.746332 1_555
Cs1 Se1 3.918229 1_555
Cs1 Se20 3.920714 1_555
Cs1 Se9 3.922752 1_555
Cs1 Se22 3.988492 1_655
Cs1 Se25 4.136341 1_555
Cs1 Se4 4.257863 1_555
Cs1 Se22 4.273704 1_555
Cs1 Se28 4.284967 1_555
Cs2 Se14 3.746332 1_556
Cs2 Se2 3.918229 1_555
Cs2 Se23 3.920714 1_556
Cs2 Se10 3.922752 1_555
Cs2 Se21 3.988492 1_455
Cs2 Se26 4.136341 1_555
Cs2 Se7 4.257863 1_566
Cs2 Se21 4.273704 1_555
Cs2 Se31 4.284967 1_566
Cs3 Se15 3.746332 1_555
Cs3 Se3 3.918229 1_555
Cs3 Se22 3.920714 1_555
Cs3 Se11 3.922752 1_555
Cs3 Se20 3.988492 1_555
Cs3 Se27 4.136341 1_555
Cs3 Se6 4.257863 1_545
Cs3 Se20 4.273704 1_455
Cs3 Se30 4.284967 1_445
Cs4 Se14 3.735562 1_555
Cs4 Se0 3.982393 1_455
Cs4 Se4 4.012471 1_455
Cs4 Se28 4.025996 1_555
Cs4 Se16 4.038640 1_455
Cs4 Se24 4.081021 1_555
Cs5 Se15 3.735562 1_555
Cs5 Se1 3.982393 1_555
Cs5 Se5 4.012471 1_555
Cs5 Se29 4.025996 1_555
Cs5 Se17 4.038640 1_555
Cs5 Se25 4.081021 1_455
Cs6 Se12 3.735562 1_555
Cs6 Se2 3.982393 1_555
Cs6 Se6 4.012471 1_555
Cs6 Se30 4.025996 1_555
Cs6 Se18 4.038640 1_555
Cs6 Se26 4.081021 1_655
Cs7 Se13 3.735562 1_555
Cs7 Se3 3.982393 1_655
Cs7 Se7 4.012471 1_655
Cs7 Se31 4.025996 1_555
Cs7 Se19 4.038640 1_655
Cs7 Se27 4.081021 1_555
Hg0 Se4 2.716030 1_555
Hg0 Se11 2.716429 1_655
Hg0 Se13 2.726977 1_555
Hg0 Se0 2.731788 1_555
Hg1 Se5 2.716030 1_555
Hg1 Se10 2.716429 1_555
Hg1 Se12 2.726977 1_555
Hg1 Se1 2.731788 1_555
Hg2 Se6 2.716030 1_555
Hg2 Se9 2.716429 1_565
Hg2 Se15 2.726977 1_565
Hg2 Se2 2.731788 1_555
Hg3 Se7 2.716030 1_555
Hg3 Se8 2.716429 1_445
Hg3 Se14 2.726977 1_545
Hg3 Se3 2.731788 1_555
Se0 Sn3 2.508157 1_655
Se1 Sn2 2.508157 1_555
Se2 Sn1 2.508157 1_555
Se3 Sn0 2.508157 1_455
Se4 Sn6 2.513751 1_655
Se5 Sn7 2.513751 1_556
Se6 Sn4 2.513751 1_555
Se7 Sn5 2.513751 1_454
Se8 Sn8 2.523574 1_555
Se9 Sn9 2.523574 1_555
Se10 Sn10 2.523574 1_555
Se11 Sn11 2.523574 1_555
Se12 Sn10 2.532779 1_655
Se13 Sn11 2.532779 1_555
Se14 Sn8 2.532779 1_555
Se15 Sn9 2.532779 1_455
Se16 Sn4 2.603140 1_555
Se16 Sn0 2.603426 1_565
Se17 Sn5 2.603140 1_555
Se17 Sn1 2.603426 1_545
Se18 Sn6 2.603140 1_555
Se18 Sn2 2.603426 1_555
Se19 Sn7 2.603140 1_555
Se19 Sn3 2.603426 1_555
Se20 Sn4 2.608239 1_545
Se20 Sn0 2.620767 1_555
Se21 Sn5 2.608239 1_565
Se21 Sn1 2.620767 1_555
Se22 Sn6 2.608239 1_555
Se22 Sn2 2.620767 1_555
Se23 Sn7 2.608239 1_555
Se23 Sn3 2.620767 1_555
Se24 Sn3 2.577379 1_555
Se24 Sn11 2.625854 1_555
Se25 Sn2 2.577379 1_655
Se25 Sn10 2.625854 1_655
Se26 Sn1 2.577379 1_455
Se26 Sn9 2.625854 1_465
Se27 Sn0 2.577379 1_555
Se27 Sn8 2.625854 1_545
Se28 Sn6 2.585701 1_555
Se28 Sn11 2.626435 1_555
Se29 Sn7 2.585701 1_556
Se29 Sn10 2.626435 1_555
Se30 Sn4 2.585701 1_555
Se30 Sn9 2.626435 1_565
Se31 Sn5 2.585701 1_554
Se31 Sn8 2.626435 1_545
