# generated using pymatgen
data_SrCa3Si4
_symmetry_space_group_name_H-M   'P 1'
_cell_length_a   3.94184435
_cell_length_b   4.61568812
_cell_length_c   10.90439591
_cell_angle_alpha   90.00000000
_cell_angle_beta   90.00000000
_cell_angle_gamma   90.00000000
_symmetry_Int_Tables_number   1
_chemical_formula_structural   SrCa3Si4
_chemical_formula_sum   'Sr1 Ca3 Si4'
_cell_volume   198.39811371
_cell_formula_units_Z   1
loop_
 _symmetry_equiv_pos_site_id
 _symmetry_equiv_pos_as_xyz
  1  'x, y, z'
loop_
 _atom_site_type_symbol
 _atom_site_label
 _atom_site_symmetry_multiplicity
 _atom_site_fract_x
 _atom_site_fract_y
 _atom_site_fract_z
 _atom_site_occupancy
  Sr  Sr0  1  -0.00000000  0.50000000  0.14101060  1
  Ca  Ca0  1  -0.00000000  -0.00000000  0.63938141  1
  Ca  Ca1  1  0.50000000  -0.00000000  0.36850531  1
  Ca  Ca2  1  0.50000000  0.50000000  0.85863601  1
  Si  Si0  1  -0.00000000  0.50000000  0.43760919  1
  Si  Si1  1  -0.00000000  0.00000000  0.92512019  1
  Si  Si2  1  0.50000000  -0.00000000  0.05829111  1
  Si  Si3  1  0.50000000  0.50000000  0.57144618  1
loop_
_geom_bond_atom_site_label_1
_geom_bond_atom_site_label_2
_geom_bond_distance
_geom_bond_site_symmetry_2
Ca0 Si1 3.115809 1_555
Ca0 Si3 3.124012 1_445
Ca0 Si3 3.124012 1_545
Ca0 Si3 3.124012 1_455
Ca0 Si3 3.124012 1_555
Ca0 Si0 3.188580 1_545
Ca0 Si0 3.188580 1_555
Ca1 Si0 3.127059 1_645
Ca1 Si0 3.127059 1_545
Ca1 Si0 3.127059 1_555
Ca1 Si0 3.127059 1_655
Ca1 Si3 3.197387 1_545
Ca1 Si3 3.197387 1_555
Ca1 Si2 3.382698 1_555
Ca2 Si1 3.120298 1_655
Ca2 Si1 3.120298 1_565
Ca2 Si1 3.120298 1_665
Ca2 Si1 3.120298 1_555
Ca2 Si3 3.131632 1_555
Ca2 Si2 3.172694 1_556
Ca2 Si2 3.172694 1_566
Si0 Si3 2.452431 1_455
Si0 Si3 2.452431 1_555
Si0 Sr0 3.234228 1_555
Si1 Si2 2.448115 1_556
Si1 Si2 2.448115 1_456
Si1 Sr0 3.296693 1_556
Si1 Sr0 3.296693 1_546
Si2 Sr0 3.166116 1_555
Si2 Sr0 3.166116 1_645
Si2 Sr0 3.166116 1_655
Si2 Sr0 3.166116 1_545
