# generated using pymatgen
data_La5Sm3Ni7AgO20
_symmetry_space_group_name_H-M   'P 1'
_cell_length_a   11.02820216
_cell_length_b   11.51320221
_cell_length_c   17.60283934
_cell_angle_alpha   109.50528658
_cell_angle_beta   108.41265464
_cell_angle_gamma   89.83478062
_symmetry_Int_Tables_number   1
_chemical_formula_structural   La5Sm3Ni7AgO20
_chemical_formula_sum   'La20 Sm12 Ni28 Ag4 O80'
_cell_volume   1985.71939933
_cell_formula_units_Z   4
loop_
 _symmetry_equiv_pos_site_id
 _symmetry_equiv_pos_as_xyz
  1  'x, y, z'
loop_
 _atom_site_type_symbol
 _atom_site_label
 _atom_site_symmetry_multiplicity
 _atom_site_fract_x
 _atom_site_fract_y
 _atom_site_fract_z
 _atom_site_occupancy
  La  La0  1  0.30638100  0.06136200  0.60814900  1
  La  La1  1  0.30941300  0.56516200  0.60947400  1
  La  La2  1  0.80452700  0.06357200  0.60901700  1
  La  La3  1  0.80501200  0.56382500  0.61063600  1
  La  La4  1  0.19697800  0.43585000  0.39046400  1
  La  La5  1  0.19030200  0.43671800  0.88741400  1
  La  La6  1  0.19422000  0.93669500  0.38772800  1
  La  La7  1  0.69599400  0.43540200  0.38953400  1
  La  La8  1  0.69791700  0.93686900  0.38918200  1
  La  La9  1  0.05499200  0.30218000  0.11453000  1
  La  La10  1  0.05557700  0.29618200  0.60907800  1
  La  La11  1  0.05409100  0.79817700  0.61034800  1
  La  La12  1  0.55700800  0.29721000  0.61021900  1
  La  La13  1  0.44724600  0.20271100  0.38951500  1
  La  La14  1  0.44257900  0.20516500  0.89001600  1
  La  La15  1  0.44484100  0.70299800  0.38924300  1
  La  La16  1  0.43481800  0.69568600  0.88720900  1
  La  La17  1  0.94642300  0.20247600  0.38912900  1
  La  La18  1  0.94142200  0.19828900  0.88523100  1
  La  La19  1  0.94844800  0.70400800  0.38962200  1
  Sm  Sm0  1  0.29963800  0.06661300  0.11371200  1
  Sm  Sm1  1  0.30868300  0.56467100  0.11255700  1
  Sm  Sm2  1  0.79359100  0.07023600  0.11257200  1
  Sm  Sm3  1  0.79416500  0.56023700  0.11427500  1
  Sm  Sm4  1  0.18657000  0.93540000  0.88718500  1
  Sm  Sm5  1  0.68474400  0.43350000  0.88889900  1
  Sm  Sm6  1  0.68412900  0.93434500  0.88015900  1
  Sm  Sm7  1  0.05765700  0.79214200  0.11411700  1
  Sm  Sm8  1  0.55415900  0.30011500  0.11247500  1
  Sm  Sm9  1  0.54113000  0.79437400  0.11348500  1
  Sm  Sm10  1  0.55461100  0.79262300  0.60641100  1
  Sm  Sm11  1  0.94341400  0.70748100  0.88608300  1
  Ni  Ni0  1  0.00454400  0.00017400  0.50010900  1
  Ni  Ni1  1  0.00481700  0.50059200  0.50032900  1
  Ni  Ni2  1  0.50499900  0.99876400  0.49960100  1
  Ni  Ni3  1  0.50113800  0.49691600  0.00140400  1
  Ni  Ni4  1  0.50461700  0.49996000  0.49942900  1
  Ni  Ni5  1  0.25641700  0.25216400  0.00096700  1
  Ni  Ni6  1  0.25494500  0.24959900  0.50009000  1
  Ni  Ni7  1  0.25348200  0.75021400  0.00299000  1
  Ni  Ni8  1  0.25509700  0.75059800  0.50049300  1
  Ni  Ni9  1  0.75023100  0.25154600  0.99990800  1
  Ni  Ni10  1  0.75401300  0.24998600  0.49978800  1
  Ni  Ni11  1  0.75388100  0.74962500  0.49924000  1
  Ni  Ni12  1  0.10732000  0.09604500  0.25026800  1
  Ni  Ni13  1  0.10974600  0.09576900  0.75133100  1
  Ni  Ni14  1  0.10872900  0.60041100  0.25000000  1
  Ni  Ni15  1  0.10812800  0.59994700  0.75106900  1
  Ni  Ni16  1  0.60883700  0.09547300  0.25001900  1
  Ni  Ni17  1  0.60591100  0.09683100  0.74924800  1
  Ni  Ni18  1  0.60838300  0.59751600  0.24943400  1
  Ni  Ni19  1  0.61156300  0.60003300  0.75014800  1
  Ni  Ni20  1  0.36008500  0.40127200  0.24722600  1
  Ni  Ni21  1  0.35990100  0.40266900  0.74902100  1
  Ni  Ni22  1  0.35697600  0.90250100  0.24832600  1
  Ni  Ni23  1  0.36112400  0.90228400  0.74840300  1
  Ni  Ni24  1  0.85560300  0.40048100  0.24835300  1
  Ni  Ni25  1  0.85511900  0.40435400  0.74922100  1
  Ni  Ni26  1  0.85767400  0.90043500  0.24717500  1
  Ni  Ni27  1  0.85502100  0.89850200  0.74708400  1
  Ag  Ag0  1  0.99960600  0.00394000  0.00306100  1
  Ag  Ag1  1  0.00140500  0.50032300  0.00037600  1
  Ag  Ag2  1  0.49635300  0.00033800  0.00169400  1
  Ag  Ag3  1  0.74749900  0.74858900  0.00282800  1
  O  O0  1  0.11856900  0.11924900  0.48368200  1
  O  O1  1  0.11748600  0.12257100  0.97582200  1
  O  O2  1  0.11904400  0.61906500  0.48370100  1
  O  O3  1  0.11052500  0.62647900  0.97472100  1
  O  O4  1  0.61764200  0.11721100  0.48147100  1
  O  O5  1  0.61617800  0.12166500  0.97972200  1
  O  O6  1  0.61670700  0.61974900  0.48219500  1
  O  O7  1  0.60754500  0.60323100  0.97320800  1
  O  O8  1  0.14822100  0.38461300  0.03210700  1
  O  O9  1  0.13622100  0.38203900  0.51844500  1
  O  O10  1  0.14000000  0.88098700  0.02868700  1
  O  O11  1  0.13565100  0.88164300  0.51841700  1
  O  O12  1  0.63238100  0.38024700  0.02307600  1
  O  O13  1  0.63533500  0.38172800  0.51684700  1
  O  O14  1  0.63681300  0.88759900  0.04156700  1
  O  O15  1  0.63437400  0.87933100  0.51895800  1
  O  O16  1  0.36815700  0.11188500  0.48221100  1
  O  O17  1  0.35018000  0.10875600  0.96874100  1
  O  O18  1  0.36943000  0.61449500  0.48212400  1
  O  O19  1  0.36688300  0.61308300  0.98715400  1
  O  O20  1  0.86930100  0.11465400  0.48330800  1
  O  O21  1  0.84842300  0.10871400  0.96955100  1
  O  O22  1  0.86817500  0.61334700  0.48100900  1
  O  O23  1  0.85314300  0.60249600  0.96065000  1
  O  O24  1  0.38856600  0.38907500  0.02451600  1
  O  O25  1  0.38551800  0.38551000  0.51580900  1
  O  O26  1  0.38114000  0.88840200  0.03018600  1
  O  O27  1  0.39037000  0.88370900  0.51882600  1
  O  O28  1  0.87320300  0.39415000  0.02450700  1
  O  O29  1  0.88556500  0.38683500  0.51674600  1
  O  O30  1  0.88477700  0.89500000  0.03286000  1
  O  O31  1  0.88531000  0.88610900  0.51674000  1
  O  O32  1  0.13014600  0.13753300  0.15817400  1
  O  O33  1  0.08396800  0.10733500  0.63889300  1
  O  O34  1  0.13631400  0.63238100  0.15693100  1
  O  O35  1  0.08281300  0.61060300  0.63890500  1
  O  O36  1  0.62370000  0.13921800  0.15740300  1
  O  O37  1  0.58634500  0.10905200  0.63796400  1
  O  O38  1  0.59666100  0.61199200  0.13886100  1
  O  O39  1  0.58055700  0.60860100  0.63551100  1
  O  O40  1  0.44616000  0.39151200  0.36082800  1
  O  O41  1  0.45080900  0.39246100  0.86135800  1
  O  O42  1  0.44346400  0.89219900  0.36146900  1
  O  O43  1  0.47172800  0.86501100  0.84596800  1
  O  O44  1  0.94472300  0.39159300  0.36122800  1
  O  O45  1  0.96315100  0.36552100  0.84454500  1
  O  O46  1  0.94299100  0.89543900  0.36305600  1
  O  O47  1  0.97337000  0.87297700  0.84454400  1
  O  O48  1  0.35589800  0.27400000  0.13838200  1
  O  O49  1  0.33602500  0.27979800  0.63690900  1
  O  O50  1  0.34872900  0.77661000  0.14025100  1
  O  O51  1  0.34010100  0.78129700  0.63520700  1
  O  O52  1  0.84375800  0.27744600  0.13687200  1
  O  O53  1  0.82763600  0.28215100  0.63482600  1
  O  O54  1  0.88119700  0.76148900  0.15560500  1
  O  O55  1  0.82759700  0.77744100  0.63335700  1
  O  O56  1  0.19207500  0.21825800  0.36488600  1
  O  O57  1  0.20150500  0.22396400  0.86156800  1
  O  O58  1  0.19014600  0.72258600  0.36534100  1
  O  O59  1  0.20915900  0.72380700  0.86383000  1
  O  O60  1  0.69399900  0.21825900  0.36473100  1
  O  O61  1  0.69404300  0.22445400  0.86127000  1
  O  O62  1  0.69536100  0.72001000  0.36204100  1
  O  O63  1  0.72678300  0.73460300  0.84448100  1
  O  O64  1  0.42381200  0.06495000  0.24629500  1
  O  O65  1  0.42365100  0.06777800  0.74951200  1
  O  O66  1  0.42639300  0.56491700  0.24648700  1
  O  O67  1  0.42802200  0.56476600  0.74933200  1
  O  O68  1  0.92079600  0.06561800  0.24547500  1
  O  O69  1  0.92480400  0.06126500  0.74780200  1
  O  O70  1  0.92232300  0.56191400  0.24630600  1
  O  O71  1  0.92740400  0.56866400  0.75329100  1
  O  O72  1  0.17937000  0.43800600  0.25218300  1
  O  O73  1  0.17869600  0.43711900  0.74985100  1
  O  O74  1  0.17339100  0.93187100  0.24652500  1
  O  O75  1  0.18079500  0.93330300  0.75421000  1
  O  O76  1  0.67269900  0.43324200  0.24660700  1
  O  O77  1  0.67304900  0.43436100  0.75452100  1
  O  O78  1  0.67094700  0.92765400  0.24655100  1
  O  O79  1  0.67026000  0.93121700  0.74599200  1
loop_
_geom_bond_atom_site_label_1
_geom_bond_atom_site_label_2
_geom_bond_distance
_geom_bond_site_symmetry_2
La0 O65 2.390592 1_555
La0 O49 2.395382 1_555
La0 O27 2.505025 1_545
La0 O11 2.506510 1_545
La0 O33 2.688702 1_555
La0 O16 2.744900 1_555
La0 O0 2.763139 1_555
La0 O37 2.983836 1_555
La1 O51 2.380584 1_555
La1 O67 2.396894 1_555
La1 O25 2.507560 1_555
La1 O9 2.548445 1_555
La1 O35 2.723302 1_555
La1 O18 2.752407 1_555
La1 O2 2.769137 1_555
La1 O39 2.896800 1_555
La2 O69 2.392591 1_555
La2 O53 2.402378 1_555
La2 O31 2.508806 1_545
La2 O15 2.536138 1_545
La2 O37 2.629160 1_555
La2 O20 2.760952 1_555
La2 O4 2.768632 1_555
La2 O33 2.972491 1_655
La3 O55 2.356778 1_555
La3 O71 2.428291 1_555
La3 O29 2.518150 1_555
La3 O13 2.526305 1_555
La3 O39 2.666716 1_555
La3 O6 2.799512 1_555
La3 O22 2.809283 1_555
La3 O35 2.964976 1_655
La4 O72 2.388531 1_555
La4 O56 2.390345 1_555
La4 O18 2.513685 1_555
La4 O2 2.539810 1_555
La4 O44 2.681828 1_455
La4 O25 2.734301 1_555
La4 O9 2.792135 1_555
La4 O40 2.967169 1_555
La5 O57 2.347717 1_555
La5 O73 2.385735 1_555
La5 O45 2.433377 1_455
La5 O19 2.545601 1_555
La5 O3 2.551468 1_555
La5 O24 2.906834 1_556
La5 O8 2.971722 1_556
La5 O41 3.064571 1_555
La6 O58 2.361076 1_555
La6 O74 2.404399 1_555
La6 O16 2.506137 1_565
La6 O0 2.544775 1_565
La6 O46 2.683316 1_455
La6 O11 2.833015 1_555
La6 O27 2.855862 1_555
La6 O42 2.944130 1_555
La7 O60 2.388831 1_555
La7 O76 2.438529 1_555
La7 O22 2.506718 1_555
La7 O6 2.551115 1_555
La7 O40 2.657054 1_555
La7 O29 2.751332 1_555
La7 O13 2.779575 1_555
La7 O44 2.952034 1_555
La8 O62 2.378676 1_555
La8 O78 2.398739 1_555
La8 O20 2.507298 1_565
La8 O4 2.525749 1_565
La8 O42 2.711645 1_555
La8 O31 2.755376 1_555
La8 O15 2.858853 1_555
La8 O46 2.893963 1_555
La9 O32 2.330604 1_555
La9 O72 2.362334 1_555
La9 O8 2.435235 1_555
La9 O52 2.513931 1_455
La9 O28 2.598643 1_455
La9 O1 2.897570 1_554
La10 O33 2.398968 1_555
La10 O73 2.412293 1_555
La10 O9 2.503575 1_555
La10 O29 2.538257 1_455
La10 O53 2.705842 1_455
La10 O0 2.731729 1_555
La10 O20 2.747966 1_455
La10 O49 2.990385 1_555
La11 O35 2.374280 1_555
La11 O75 2.435578 1_555
La11 O11 2.512794 1_555
La11 O31 2.523938 1_455
La11 O55 2.677173 1_455
La11 O2 2.768729 1_555
La11 O22 2.785067 1_455
La11 O51 3.059317 1_555
La12 O37 2.374599 1_555
La12 O77 2.421362 1_555
La12 O13 2.522748 1_555
La12 O25 2.550246 1_555
La12 O49 2.643694 1_555
La12 O4 2.773277 1_555
La12 O16 2.796066 1_555
La12 O53 2.890617 1_555
La13 O40 2.389386 1_555
La13 O64 2.420496 1_555
La13 O4 2.500448 1_555
La13 O16 2.561341 1_555
La13 O56 2.723461 1_555
La13 O13 2.752665 1_555
La13 O25 2.767384 1_555
La13 O60 2.903870 1_555
La14 O41 2.381000 1_555
La14 O65 2.392886 1_555
La14 O17 2.473166 1_555
La14 O5 2.485218 1_555
La14 O57 2.567851 1_555
La14 O12 2.775796 1_556
La14 O24 2.824811 1_556
La14 O61 2.993500 1_555
La15 O42 2.385495 1_555
La15 O66 2.427876 1_555
La15 O6 2.503193 1_555
La15 O18 2.525743 1_555
La15 O58 2.725903 1_555
La15 O27 2.753524 1_555
La15 O15 2.760095 1_555
La15 O62 2.966830 1_555
La16 O67 2.368722 1_555
La16 O43 2.372652 1_555
La16 O59 2.429966 1_555
La16 O7 2.509180 1_555
La16 O19 2.552453 1_555
La17 O44 2.385466 1_555
La17 O68 2.418136 1_555
La17 O0 2.520114 1_655
La17 O20 2.551302 1_555
La17 O60 2.694597 1_555
La17 O9 2.776553 1_655
La17 O29 2.786077 1_555
La17 O56 2.887784 1_655
La18 O45 2.304199 1_555
La18 O69 2.355346 1_555
La18 O1 2.456737 1_655
La18 O21 2.511665 1_555
La18 O61 2.657937 1_555
La18 O8 3.014495 1_656
La18 O28 3.020785 1_556
La18 O57 3.054435 1_655
La19 O46 2.397827 1_555
La19 O70 2.431303 1_555
La19 O2 2.518172 1_655
La19 O22 2.547017 1_555
La19 O62 2.694550 1_555
La19 O11 2.748833 1_655
La19 O31 2.780369 1_555
La19 O58 2.849093 1_655
Ni0 O20 2.004875 1_455
Ni0 O11 2.011142 1_545
Ni0 O0 2.012146 1_555
Ni0 O31 2.012281 1_445
Ni0 O46 2.182341 1_445
Ni0 O33 2.213436 1_555
Ni1 O29 2.007784 1_455
Ni1 O22 2.007859 1_455
Ni1 O2 2.010601 1_555
Ni1 O9 2.012976 1_555
Ni1 O35 2.216312 1_555
Ni1 O44 2.221999 1_455
Ni2 O16 2.007592 1_565
Ni2 O15 2.009233 1_555
Ni2 O27 2.011610 1_555
Ni2 O4 2.013844 1_565
Ni2 O42 2.201894 1_555
Ni2 O37 2.215905 1_565
Ni3 O7 1.975739 1_554
Ni3 O24 1.978279 1_555
Ni3 O19 2.005456 1_554
Ni3 O12 2.006708 1_555
Ni3 O38 2.230871 1_555
Ni3 O41 2.234119 1_554
Ni4 O13 2.003320 1_555
Ni4 O18 2.006084 1_555
Ni4 O25 2.011844 1_555
Ni4 O6 2.012038 1_555
Ni4 O39 2.177584 1_555
Ni4 O40 2.214461 1_555
Ni5 O17 1.962743 1_554
Ni5 O8 1.973339 1_555
Ni5 O1 1.978217 1_554
Ni5 O24 1.993914 1_555
Ni5 O57 2.241374 1_554
Ni5 O48 2.244314 1_555
Ni6 O0 2.011658 1_555
Ni6 O9 2.017539 1_555
Ni6 O25 2.017619 1_555
Ni6 O16 2.018749 1_555
Ni6 O56 2.158876 1_555
Ni6 O49 2.191579 1_555
Ni7 O3 1.951044 1_554
Ni7 O26 1.954729 1_555
Ni7 O10 1.982348 1_555
Ni7 O19 2.012296 1_554
Ni7 O50 2.223030 1_555
Ni7 O59 2.253680 1_554
Ni8 O11 2.011041 1_555
Ni8 O27 2.014228 1_555
Ni8 O18 2.014355 1_555
Ni8 O2 2.016420 1_555
Ni8 O51 2.159842 1_555
Ni8 O58 2.165516 1_555
Ni9 O5 1.968237 1_555
Ni9 O28 1.972155 1_556
Ni9 O21 1.982643 1_555
Ni9 O12 1.992805 1_556
Ni9 O52 2.217261 1_556
Ni9 O61 2.230341 1_555
Ni10 O13 2.009082 1_555
Ni10 O20 2.011986 1_555
Ni10 O4 2.019991 1_555
Ni10 O29 2.025297 1_555
Ni10 O53 2.154398 1_555
Ni10 O60 2.156602 1_555
Ni11 O15 2.004743 1_555
Ni11 O6 2.010257 1_555
Ni11 O22 2.015285 1_555
Ni11 O31 2.018107 1_555
Ni11 O55 2.149699 1_555
Ni11 O62 2.198224 1_555
Ni12 O32 1.922271 1_555
Ni12 O56 1.960787 1_555
Ni12 O74 2.011770 1_545
Ni12 O68 2.058147 1_455
Ni13 O57 1.955367 1_555
Ni13 O33 1.958630 1_555
Ni13 O75 2.035941 1_545
Ni13 O69 2.056624 1_455
Ni14 O34 1.905296 1_555
Ni14 O58 1.963555 1_555
Ni14 O72 2.031062 1_555
Ni14 O70 2.080442 1_455
Ni15 O35 1.950543 1_555
Ni15 O59 1.984119 1_555
Ni15 O73 2.023807 1_555
Ni15 O71 2.041160 1_455
Ni16 O36 1.912073 1_555
Ni16 O60 1.965021 1_555
Ni16 O78 2.036187 1_545
Ni16 O64 2.048330 1_555
Ni17 O37 1.954627 1_555
Ni17 O61 1.963341 1_555
Ni17 O79 2.021754 1_545
Ni17 O65 2.040300 1_555
Ni18 O62 1.943719 1_555
Ni18 O38 1.972438 1_555
Ni18 O76 2.008574 1_555
Ni18 O66 2.024170 1_555
Ni19 O63 1.932046 1_555
Ni19 O39 1.973718 1_555
Ni19 O77 2.039992 1_555
Ni19 O67 2.060253 1_555
Ni20 O40 1.965418 1_555
Ni20 O48 1.972278 1_555
Ni20 O66 2.028541 1_555
Ni20 O72 2.058817 1_555
Ni21 O49 1.942876 1_555
Ni21 O41 1.957389 1_555
Ni21 O67 2.011463 1_555
Ni21 O73 2.039852 1_555
Ni22 O50 1.943808 1_555
Ni22 O42 1.961505 1_555
Ni22 O64 2.027774 1_565
Ni22 O74 2.043787 1_555
Ni23 O43 1.946099 1_555
Ni23 O51 1.954724 1_555
Ni23 O65 2.020032 1_565
Ni23 O75 2.047652 1_555
Ni24 O44 1.955979 1_555
Ni24 O52 1.964024 1_555
Ni24 O70 2.016555 1_555
Ni24 O76 2.043552 1_555
Ni25 O45 1.915708 1_555
Ni25 O53 1.962456 1_555
Ni25 O71 2.025189 1_555
Ni25 O77 2.062172 1_555
Ni26 O54 1.940207 1_555
Ni26 O46 1.978666 1_555
Ni26 O68 2.039870 1_565
Ni26 O78 2.079226 1_555
Ni27 O47 1.911284 1_555
Ni27 O55 1.948966 1_555
Ni27 O69 2.022464 1_565
Ni27 O79 2.066312 1_555
Ag0 O30 2.078481 1_545
Ag0 O21 2.103608 1_554
Ag0 O10 2.139426 1_645
Ag0 O1 2.150982 1_654
Ag0 O32 2.572668 1_655
Ag0 O47 2.612691 1_544
Ag1 O23 2.088575 1_454
Ag1 O28 2.099930 1_455
Ag1 O3 2.133814 1_554
Ag1 O8 2.149749 1_555
Ag1 O45 2.557520 1_454
Ag1 O34 2.597044 1_555
Ag2 O26 2.090559 1_545
Ag2 O17 2.091509 1_554
Ag2 O14 2.118214 1_545
Ag2 O5 2.131045 1_554
Ag2 O43 2.587591 1_544
Ag2 O36 2.587711 1_555
Ag3 O14 2.074185 1_555
Ag3 O30 2.080133 1_555
Ag3 O7 2.092515 1_554
Ag3 O23 2.106876 1_554
Ag3 O54 2.580322 1_555
Ag3 O63 2.673143 1_554
O1 Sm4 2.480889 1_545
O1 Sm0 2.880724 1_556
O3 Sm11 2.417830 1_455
O3 Sm7 2.787611 1_556
O3 Sm1 2.993907 1_556
O5 Sm6 2.565265 1_545
O5 Sm2 2.770383 1_556
O5 Sm8 2.818710 1_556
O6 Sm10 2.691332 1_555
O7 Sm5 2.365993 1_555
O7 Sm3 2.869392 1_556
O7 Sm9 2.996856 1_556
O8 Sm1 2.431482 1_555
O10 Sm7 2.455124 1_555
O10 Sm0 2.475490 1_565
O10 Sm11 2.868863 1_454
O10 Sm4 2.951697 1_554
O12 Sm8 2.429701 1_555
O12 Sm3 2.458687 1_555
O12 Sm5 2.849319 1_554
O14 Sm9 2.371905 1_555
O14 Sm2 2.423598 1_565
O15 Sm10 2.454976 1_555
O17 Sm4 2.402316 1_545
O17 Sm0 2.963994 1_556
O18 Sm10 2.714486 1_555
O19 Sm9 2.686724 1_556
O19 Sm1 2.704477 1_556
O21 Sm6 2.428899 1_545
O21 Sm2 2.933963 1_556
O23 Sm5 2.393305 1_555
O23 Sm11 2.463098 1_555
O24 Sm1 2.454587 1_555
O24 Sm8 2.458315 1_555
O26 Sm9 2.418626 1_555
O26 Sm0 2.447266 1_565
O27 Sm10 2.462137 1_555
O28 Sm3 2.399145 1_555
O28 Sm5 2.793865 1_554
O30 Sm2 2.457594 1_565
O30 Sm7 2.545319 1_655
O32 Sm0 2.293848 1_555
O34 Sm7 2.281933 1_555
O34 Sm1 2.313904 1_555
O36 Sm8 2.287384 1_555
O36 Sm2 2.295818 1_555
O38 Sm9 2.330208 1_555
O38 Sm3 2.387956 1_555
O38 Sm1 3.083829 1_555
O39 Sm10 2.337035 1_555
O41 Sm5 2.485564 1_555
O43 Sm6 2.299055 1_555
O47 Sm4 2.267764 1_655
O47 Sm11 2.315365 1_555
O48 Sm0 2.328199 1_555
O48 Sm8 2.409198 1_555
O50 Sm1 2.337225 1_555
O50 Sm9 2.337606 1_555
O51 Sm10 2.583354 1_555
O52 Sm2 2.314530 1_555
O54 Sm3 2.294618 1_555
O54 Sm7 2.349218 1_655
O55 Sm10 2.910184 1_555
O59 Sm4 2.357565 1_555
O61 Sm5 2.299586 1_555
O63 Sm6 2.262764 1_555
O63 Sm11 2.320462 1_555
O64 Sm0 2.309369 1_555
O66 Sm1 2.303353 1_555
O68 Sm2 2.335232 1_555
O70 Sm3 2.301000 1_555
O71 Sm11 2.301221 1_555
O74 Sm7 2.297423 1_555
O75 Sm4 2.313393 1_555
O76 Sm8 2.297399 1_555
O77 Sm5 2.331295 1_555
O78 Sm9 2.320529 1_555
O79 Sm6 2.305961 1_555
O79 Sm10 2.371447 1_555
