# generated using pymatgen
data_Gd3Y3Fe23
_symmetry_space_group_name_H-M   'P 1'
_cell_length_a   8.50534109
_cell_length_b   8.50534109
_cell_length_c   8.52566806
_cell_angle_alpha   90.00000000
_cell_angle_beta   60.07883774
_cell_angle_gamma   120.00000000
_symmetry_Int_Tables_number   1
_chemical_formula_structural   Gd3Y3Fe23
_chemical_formula_sum   'Gd3 Y3 Fe23'
_cell_volume   436.62981099
_cell_formula_units_Z   1
loop_
 _symmetry_equiv_pos_site_id
 _symmetry_equiv_pos_as_xyz
  1  'x, y, z'
loop_
 _atom_site_type_symbol
 _atom_site_label
 _atom_site_symmetry_multiplicity
 _atom_site_fract_x
 _atom_site_fract_y
 _atom_site_fract_z
 _atom_site_occupancy
  Gd  Gd0  1  0.57800560  0.28900280  0.71089537  1
  Gd  Gd1  1  0.00010183  0.71109903  0.71089537  1
  Gd  Gd2  1  0.00010183  0.28900280  0.71089537  1
  Y  Y0  1  0.42309437  0.71154719  0.28824150  1
  Y  Y1  1  0.00021131  0.28866413  0.28824150  1
  Y  Y2  1  0.00021131  0.71154719  0.28824150  1
  Fe  Fe0  1  0.64752532  0.32376266  0.02871202  1
  Fe  Fe1  1  0.35184487  0.32425017  0.32390497  1
  Fe  Fe2  1  0.35184487  0.02759470  0.32390497  1
  Fe  Fe3  1  0.64850034  0.32425017  0.32390497  1
  Fe  Fe4  1  0.35116151  0.67558076  0.97325773  1
  Fe  Fe5  1  0.64799574  0.67602674  0.67597752  1
  Fe  Fe6  1  0.64799574  0.97196900  0.67597752  1
  Fe  Fe7  1  0.35205348  0.67602674  0.67597752  1
  Fe  Fe8  1  0.99946553  0.99973277  0.00080170  1
  Fe  Fe9  1  0.24379015  0.12189508  0.63431477  1
  Fe  Fe10  1  0.75652073  0.12180695  0.12167232  1
  Fe  Fe11  1  0.75652073  0.63471378  0.12167232  1
  Fe  Fe12  1  0.24361390  0.12180695  0.12167232  1
  Fe  Fe13  1  0.75630742  0.87815371  0.36553887  1
  Fe  Fe14  1  0.24352490  0.87817379  0.87830131  1
  Fe  Fe15  1  0.24352490  0.36535111  0.87830131  1
  Fe  Fe16  1  0.75634758  0.87817379  0.87830131  1
  Fe  Fe17  1  0.00021518  0.00010759  0.49902036  1
  Fe  Fe18  1  0.50087205  0.50076446  0.49902036  1
  Fe  Fe19  1  0.50087205  0.00010759  0.49902036  1
  Fe  Fe20  1  0.00008009  0.50004004  0.00111162  1
  Fe  Fe21  1  0.49884833  0.99880829  0.00111162  1
  Fe  Fe22  1  0.49884833  0.50004004  0.00111162  1
loop_
_geom_bond_atom_site_label_1
_geom_bond_atom_site_label_2
_geom_bond_distance
_geom_bond_site_symmetry_2
Fe0 Fe21 2.468834 1_545
Fe0 Fe22 2.468834 1_555
Fe0 Fe20 2.468834 1_655
Fe0 Fe1 2.520860 1_555
Fe0 Fe2 2.520860 1_555
Fe0 Fe3 2.520860 1_555
Fe0 Fe10 2.600654 1_555
Fe0 Fe11 2.600654 1_555
Fe0 Fe12 2.600654 1_555
Fe0 Gd0 3.033559 1_554
Fe0 Gd2 3.033559 1_654
Fe0 Gd1 3.033559 1_654
Fe1 Fe22 2.463802 1_555
Fe1 Fe18 2.464643 1_555
Fe1 Fe17 2.464643 1_555
Fe1 Fe3 2.523156 1_555
Fe1 Fe2 2.523156 1_555
Fe1 Fe11 2.604471 1_555
Fe1 Fe12 2.604471 1_555
Fe1 Fe9 2.608133 1_555
Fe1 Y0 3.021704 1_555
Fe1 Y1 3.021704 1_555
Fe1 Gd2 3.030154 1_555
Fe2 Fe21 2.463802 1_545
Fe2 Fe3 2.523156 1_555
Fe2 Fe9 2.608133 1_555
Fe2 Y0 3.021704 1_545
Fe2 Y2 3.021704 1_545
Fe2 Gd1 3.030154 1_545
Fe3 Fe9 2.608133 1_555
Fe3 Y1 3.021704 1_655
Fe3 Y2 3.021704 1_655
Fe3 Gd0 3.030154 1_555
Fe4 Fe7 2.530734 1_555
Fe4 Fe6 2.530734 1_555
Fe4 Fe5 2.530734 1_555
Fe4 Y0 3.021827 1_556
Fe4 Y2 3.021827 1_556
Fe4 Y1 3.021827 1_556
Fe5 Fe6 2.517090 1_555
Fe5 Fe7 2.517090 1_555
Fe5 Gd1 3.023639 1_655
Fe5 Gd0 3.023639 1_555
Fe5 Y2 3.034615 1_655
Fe6 Fe7 2.517090 1_555
Fe6 Gd2 3.023639 1_665
Fe6 Gd0 3.023639 1_565
Fe6 Y1 3.034615 1_665
Fe7 Gd2 3.023639 1_555
Fe7 Gd1 3.023639 1_555
Fe7 Y0 3.034615 1_555
Fe8 Fe9 2.554217 1_664
Fe9 Gd2 2.887586 1_555
Fe9 Gd0 2.887586 1_555
Fe9 Gd1 2.887586 1_545
Fe10 Fe8 2.535909 1_545
Fe10 Fe2 2.604471 1_555
Fe10 Fe3 2.604471 1_555
Fe10 Fe20 2.628412 1_655
Fe10 Fe21 2.628412 1_545
Fe10 Fe19 2.630601 1_555
Fe10 Y1 2.884732 1_655
Fe10 Y0 2.884732 1_545
Fe10 Gd2 2.897416 1_654
Fe10 Fe16 2.932431 1_544
Fe10 Fe15 2.932431 1_654
Fe10 Fe13 2.934262 1_545
Fe11 Fe8 2.535909 1_555
Fe11 Fe3 2.604471 1_555
Fe11 Fe22 2.628412 1_555
Fe11 Fe20 2.628412 1_655
Fe11 Fe18 2.630601 1_555
Fe11 Y2 2.884732 1_655
Fe11 Y0 2.884732 1_555
Fe11 Gd1 2.897416 1_654
Fe11 Fe16 2.932431 1_554
Fe11 Fe14 2.932431 1_654
Fe11 Fe13 2.934262 1_555
Fe12 Fe8 2.535909 1_445
Fe12 Fe2 2.604471 1_555
Fe12 Fe21 2.628412 1_545
Fe12 Fe22 2.628412 1_555
Fe12 Fe17 2.630601 1_555
Fe12 Y2 2.884732 1_545
Fe12 Y1 2.884732 1_555
Fe12 Gd0 2.897416 1_554
Fe12 Fe14 2.932431 1_544
Fe12 Fe15 2.932431 1_554
Fe12 Fe13 2.934262 1_445
Fe13 Fe8 2.542022 1_555
Fe13 Fe6 2.606346 1_555
Fe13 Fe5 2.606346 1_555
Fe13 Fe7 2.606346 1_555
Fe13 Fe17 2.622598 1_665
Fe13 Fe18 2.622598 1_555
Fe13 Fe19 2.622598 1_565
Fe13 Y2 2.884717 1_655
Fe13 Y0 2.884717 1_555
Fe13 Y1 2.884717 1_665
Fe14 Fe8 2.540094 1_456
Fe14 Fe4 2.603755 1_555
Fe14 Fe7 2.604267 1_555
Fe14 Fe6 2.604267 1_555
Fe14 Fe21 2.627763 1_556
Fe14 Fe20 2.627763 1_556
Fe14 Fe19 2.644213 1_565
Fe14 Gd1 2.889417 1_555
Fe14 Gd0 2.889417 1_565
Fe14 Y2 2.890997 1_556
Fe14 Fe9 2.935083 1_565
Fe15 Fe8 2.540094 1_446
Fe15 Fe4 2.603755 1_555
Fe15 Fe7 2.604267 1_555
Fe15 Fe5 2.604267 1_555
Fe15 Fe22 2.627763 1_556
Fe15 Fe20 2.627763 1_556
Fe15 Fe18 2.644213 1_555
Fe15 Gd2 2.889417 1_555
Fe15 Gd0 2.889417 1_555
Fe15 Y1 2.890997 1_556
Fe15 Fe9 2.935083 1_555
Fe16 Fe8 2.540094 1_556
Fe16 Fe4 2.603755 1_555
Fe16 Fe6 2.604267 1_555
Fe16 Fe5 2.604267 1_555
Fe16 Fe22 2.627763 1_556
Fe16 Fe21 2.627763 1_556
Fe16 Fe17 2.644213 1_665
Fe16 Gd2 2.889417 1_665
Fe16 Gd1 2.889417 1_655
Fe16 Y0 2.890997 1_556
Fe16 Fe9 2.935083 1_665
Fe17 Fe2 2.464643 1_555
Fe17 Fe6 2.466187 1_445
Fe17 Fe5 2.466187 1_445
Fe17 Fe9 2.633129 1_555
Fe17 Y2 3.041859 1_545
Fe17 Y1 3.041859 1_555
Fe17 Gd1 3.049791 1_545
Fe17 Gd2 3.049791 1_555
Fe18 Fe3 2.464643 1_555
Fe18 Fe5 2.466187 1_555
Fe18 Fe7 2.466187 1_555
Fe18 Fe9 2.633129 1_555
Fe18 Y2 3.041859 1_655
Fe18 Y0 3.041859 1_555
Fe18 Gd0 3.049791 1_555
Fe18 Gd2 3.049791 1_555
Fe19 Fe2 2.464643 1_555
Fe19 Fe3 2.464643 1_555
Fe19 Fe6 2.466187 1_545
Fe19 Fe7 2.466187 1_545
Fe19 Fe9 2.633129 1_555
Fe19 Y0 3.041859 1_545
Fe19 Y1 3.041859 1_655
Fe19 Gd0 3.049791 1_555
Fe19 Gd1 3.049791 1_545
Fe20 Fe4 2.456913 1_554
Fe20 Fe3 2.463802 1_455
Fe20 Fe7 2.475236 1_554
Fe20 Y1 3.038006 1_555
Fe20 Y2 3.038006 1_555
Fe20 Gd2 3.056762 1_554
Fe20 Gd1 3.056762 1_554
Fe21 Fe4 2.456913 1_554
Fe21 Fe6 2.475236 1_554
Fe21 Y0 3.038006 1_555
Fe21 Y2 3.038006 1_555
Fe21 Gd0 3.056762 1_564
Fe21 Gd2 3.056762 1_664
Fe22 Fe4 2.456913 1_554
Fe22 Fe5 2.475236 1_554
Fe22 Y1 3.038006 1_555
Fe22 Y0 3.038006 1_555
Fe22 Gd0 3.056762 1_554
Fe22 Gd1 3.056762 1_654
