# generated using pymatgen
data_SrMg6W
_symmetry_space_group_name_H-M   'P 1'
_cell_length_a   6.48960200
_cell_length_b   6.48960200
_cell_length_c   4.41649700
_cell_angle_alpha   90.00000000
_cell_angle_beta   90.00000000
_cell_angle_gamma   90.00000000
_symmetry_Int_Tables_number   1
_chemical_formula_structural   SrMg6W
_chemical_formula_sum   'Sr1 Mg6 W1'
_cell_volume   186.00048019
_cell_formula_units_Z   1
loop_
 _symmetry_equiv_pos_site_id
 _symmetry_equiv_pos_as_xyz
  1  'x, y, z'
loop_
 _atom_site_type_symbol
 _atom_site_label
 _atom_site_symmetry_multiplicity
 _atom_site_fract_x
 _atom_site_fract_y
 _atom_site_fract_z
 _atom_site_occupancy
  Sr  Sr0  1  0.50000000  0.50000000  0.50000000  1
  Mg  Mg0  1  0.50000000  0.00000000  0.50000000  1
  Mg  Mg1  1  0.00000000  0.50000000  0.50000000  1
  Mg  Mg2  1  0.21739600  0.78260400  0.00000000  1
  Mg  Mg3  1  0.78260400  0.21739600  0.00000000  1
  Mg  Mg4  1  0.21739600  0.21739600  0.00000000  1
  Mg  Mg5  1  0.78260400  0.78260400  0.00000000  1
  W  W0  1  0.00000000  0.00000000  0.50000000  1
loop_
_geom_bond_atom_site_label_1
_geom_bond_atom_site_label_2
_geom_bond_distance
_geom_bond_site_symmetry_2
Mg0 Mg3 3.198479 1_555
Mg0 Mg3 3.198479 1_556
Mg0 Mg5 3.198479 1_545
Mg0 Mg5 3.198479 1_546
Mg0 Mg4 3.198479 1_556
Mg0 Mg4 3.198479 1_555
Mg0 Mg2 3.198479 1_545
Mg0 Mg2 3.198479 1_546
Mg0 Sr0 3.244801 1_545
Mg0 Sr0 3.244801 1_555
Mg0 W0 3.244801 1_655
Mg0 W0 3.244801 1_555
Mg1 Mg2 3.198479 1_555
Mg1 Mg2 3.198479 1_556
Mg1 Mg5 3.198479 1_456
Mg1 Mg5 3.198479 1_455
Mg1 Mg4 3.198479 1_556
Mg1 Mg4 3.198479 1_555
Mg1 Mg3 3.198479 1_456
Mg1 Mg3 3.198479 1_455
Mg1 Sr0 3.244801 1_455
Mg1 Sr0 3.244801 1_555
Mg1 W0 3.244801 1_565
Mg1 W0 3.244801 1_555
Mg2 W0 2.976097 1_565
Mg2 W0 2.976097 1_564
Mg2 Sr0 3.406374 1_555
Mg2 Sr0 3.406374 1_554
Mg3 W0 2.976097 1_655
Mg3 W0 2.976097 1_654
Mg3 Sr0 3.406374 1_554
Mg3 Sr0 3.406374 1_555
Mg4 W0 2.976097 1_554
Mg4 W0 2.976097 1_555
Mg4 Sr0 3.406374 1_555
Mg4 Sr0 3.406374 1_554
Mg5 W0 2.976097 1_665
Mg5 W0 2.976097 1_664
Mg5 Sr0 3.406374 1_555
Mg5 Sr0 3.406374 1_554
