# generated using pymatgen
data_YMg14Co
_symmetry_space_group_name_H-M   'P 1'
_cell_length_a   6.44677847
_cell_length_b   6.17525382
_cell_length_c   10.21597082
_cell_angle_alpha   90.00000000
_cell_angle_beta   90.00000000
_cell_angle_gamma   118.61626915
_symmetry_Int_Tables_number   1
_chemical_formula_structural   YMg14Co
_chemical_formula_sum   'Y1 Mg14 Co1'
_cell_volume   357.02287331
_cell_formula_units_Z   1
loop_
 _symmetry_equiv_pos_site_id
 _symmetry_equiv_pos_as_xyz
  1  'x, y, z'
loop_
 _atom_site_type_symbol
 _atom_site_label
 _atom_site_symmetry_multiplicity
 _atom_site_fract_x
 _atom_site_fract_y
 _atom_site_fract_z
 _atom_site_occupancy
  Y  Y0  1  0.13716870  0.31858385  0.12500000  1
  Mg  Mg0  1  0.16856395  0.33428147  0.62500000  1
  Mg  Mg1  1  0.16098418  0.83049159  0.62500000  1
  Mg  Mg2  1  0.63251514  0.30469915  0.12500000  1
  Mg  Mg3  1  0.66298562  0.33580394  0.62500000  1
  Mg  Mg4  1  0.63251514  0.82781499  0.12500000  1
  Mg  Mg5  1  0.66298562  0.82718068  0.62500000  1
  Mg  Mg6  1  0.33848146  0.16447369  0.37226558  1
  Mg  Mg7  1  0.33848146  0.16447369  0.87773442  1
  Mg  Mg8  1  0.33848146  0.67400877  0.37226558  1
  Mg  Mg9  1  0.33848146  0.67400877  0.87773442  1
  Mg  Mg10  1  0.83575972  0.16788036  0.38680718  1
  Mg  Mg11  1  0.83575972  0.16788036  0.86319282  1
  Mg  Mg12  1  0.86684441  0.68342271  0.34525468  1
  Mg  Mg13  1  0.86684441  0.68342271  0.90474532  1
  Co  Co0  1  0.18314754  0.84157327  0.12500000  1
loop_
_geom_bond_atom_site_label_1
_geom_bond_atom_site_label_2
_geom_bond_distance
_geom_bond_site_symmetry_2
Mg0 Mg10 3.077112 1_455
Mg0 Mg11 3.077112 1_455
Mg0 Mg1 3.087925 1_545
Mg0 Mg1 3.087925 1_555
Mg0 Mg6 3.172721 1_555
Mg0 Mg7 3.172721 1_555
Mg0 Mg8 3.172727 1_555
Mg0 Mg9 3.172727 1_555
Mg0 Mg5 3.182935 1_555
Mg0 Mg3 3.182935 1_555
Mg0 Mg5 3.263864 1_445
Mg0 Mg3 3.263865 1_455
Mg1 Mg8 3.157323 1_555
Mg1 Mg9 3.157323 1_555
Mg1 Mg6 3.157329 1_565
Mg1 Mg7 3.157329 1_565
Mg1 Mg3 3.200744 1_455
Mg1 Mg5 3.200744 1_455
Mg1 Mg3 3.246134 1_565
Mg1 Mg5 3.246134 1_555
Mg1 Mg12 3.307323 1_455
Mg1 Mg13 3.307323 1_455
Mg2 Mg7 3.025176 1_554
Mg2 Mg6 3.025176 1_555
Mg2 Y0 3.213206 1_655
Mg2 Y0 3.235330 1_555
Mg3 Mg5 3.034376 1_555
Mg3 Mg5 3.140878 1_545
Mg3 Mg6 3.168925 1_555
Mg3 Mg7 3.168925 1_555
Mg4 Mg9 3.025176 1_554
Mg4 Mg8 3.025176 1_555
Mg4 Y0 3.213206 1_665
Mg4 Y0 3.235329 1_555
Mg5 Mg9 3.168925 1_555
Mg5 Mg8 3.168925 1_555
Mg6 Mg8 3.028745 1_545
Mg6 Mg8 3.146508 1_555
Mg6 Y0 3.186542 1_555
Mg7 Mg9 3.028745 1_545
Mg7 Mg9 3.146508 1_555
Mg7 Y0 3.186542 1_556
Mg8 Y0 3.186548 1_555
Mg9 Y0 3.186548 1_556
Mg10 Mg3 3.056731 1_555
Mg10 Mg5 3.056737 1_545
Mg10 Mg12 3.121632 1_545
Mg10 Mg12 3.121632 1_555
Mg10 Y0 3.172251 1_655
Mg10 Mg8 3.199271 1_545
Mg10 Mg6 3.199272 1_555
Mg10 Mg8 3.254456 1_655
Mg10 Mg6 3.254456 1_655
Mg10 Mg2 3.262611 1_555
Mg10 Mg4 3.262616 1_545
Mg11 Mg3 3.056731 1_555
Mg11 Mg5 3.056737 1_545
Mg11 Mg13 3.121632 1_545
Mg11 Mg13 3.121632 1_555
Mg11 Y0 3.172251 1_656
Mg11 Mg9 3.199271 1_545
Mg11 Mg7 3.199272 1_555
Mg11 Mg9 3.254456 1_655
Mg11 Mg7 3.254456 1_655
Mg11 Mg2 3.262611 1_556
Mg11 Mg4 3.262616 1_546
Mg12 Mg6 3.081187 1_665
Mg12 Mg8 3.081188 1_655
Mg12 Mg6 3.390031 1_555
Mg12 Mg8 3.390031 1_555
Mg12 Mg5 3.435153 1_555
Mg12 Mg3 3.435158 1_555
Mg13 Mg7 3.081187 1_665
Mg13 Mg9 3.081188 1_655
Mg13 Mg7 3.390031 1_555
Mg13 Mg9 3.390031 1_555
Mg13 Mg5 3.435153 1_555
Mg13 Mg3 3.435158 1_555
Co0 Mg13 2.875291 1_454
Co0 Mg12 2.875291 1_455
Co0 Mg2 2.938611 1_565
Co0 Mg4 2.938611 1_555
Co0 Mg9 3.073606 1_554
Co0 Mg8 3.073606 1_555
Co0 Mg7 3.073612 1_564
Co0 Mg6 3.073612 1_565
Co0 Y0 3.098572 1_555
Co0 Y0 3.098572 1_565
