# generated using pymatgen
data_AlCu3(MoO3)4
_symmetry_space_group_name_H-M   'P 1'
_cell_length_a   6.63994667
_cell_length_b   6.63994667
_cell_length_c   6.63994667
_cell_angle_alpha   109.47122063
_cell_angle_beta   109.47122063
_cell_angle_gamma   109.47122063
_symmetry_Int_Tables_number   1
_chemical_formula_structural   AlCu3(MoO3)4
_chemical_formula_sum   'Al1 Cu3 Mo4 O12'
_cell_volume   225.35743139
_cell_formula_units_Z   1
loop_
 _symmetry_equiv_pos_site_id
 _symmetry_equiv_pos_as_xyz
  1  'x, y, z'
loop_
 _atom_site_type_symbol
 _atom_site_label
 _atom_site_symmetry_multiplicity
 _atom_site_fract_x
 _atom_site_fract_y
 _atom_site_fract_z
 _atom_site_occupancy
  Al  Al0  1  0.00000000  0.00000000  0.00000000  1
  Cu  Cu0  1  0.00000000  0.50000000  0.50000000  1
  Cu  Cu1  1  0.50000000  0.50000000  0.00000000  1
  Cu  Cu2  1  0.50000000  0.00000000  0.50000000  1
  Mo  Mo0  1  0.50000000  0.00000000  0.00000000  1
  Mo  Mo1  1  0.50000000  0.50000000  0.50000000  1
  Mo  Mo2  1  0.00000000  0.50000000  0.00000000  1
  Mo  Mo3  1  0.00000000  0.00000000  0.50000000  1
  O  O0  1  0.30342700  0.83059700  0.13402500  1
  O  O1  1  0.69657300  0.16940300  0.86597500  1
  O  O2  1  0.69657300  0.83059700  0.52717000  1
  O  O3  1  0.86597500  0.69657300  0.16940300  1
  O  O4  1  0.83059700  0.13402500  0.30342700  1
  O  O5  1  0.16940300  0.47283000  0.30342700  1
  O  O6  1  0.47283000  0.30342700  0.16940300  1
  O  O7  1  0.16940300  0.86597500  0.69657300  1
  O  O8  1  0.30342700  0.16940300  0.47283000  1
  O  O9  1  0.13402500  0.30342700  0.83059700  1
  O  O10  1  0.83059700  0.52717000  0.69657300  1
  O  O11  1  0.52717000  0.69657300  0.83059700  1
loop_
_geom_bond_atom_site_label_1
_geom_bond_atom_site_label_2
_geom_bond_distance
_geom_bond_site_symmetry_2
Cu0 O4 1.989592 1_455
Cu0 O7 1.989592 1_555
Cu0 O10 1.989597 1_455
Cu0 O5 1.989597 1_555
Cu1 O9 1.989592 1_554
Cu1 O3 1.989592 1_555
Cu1 O11 1.989597 1_554
Cu1 O6 1.989597 1_555
Cu2 O0 1.989592 1_545
Cu2 O1 1.989592 1_555
Cu2 O2 1.989597 1_545
Cu2 O8 1.989597 1_555
Mo0 O7 2.055171 1_544
Mo0 O4 2.055171 1_555
Mo0 O6 2.055173 1_555
Mo0 O11 2.055173 1_544
Mo0 O1 2.055178 1_554
Mo0 O0 2.055178 1_545
Mo1 O6 2.055173 1_555
Mo1 O8 2.055173 1_555
Mo1 O5 2.055173 1_555
Mo1 O2 2.055173 1_555
Mo1 O10 2.055173 1_555
Mo1 O11 2.055173 1_555
Mo2 O1 2.055171 1_454
Mo2 O0 2.055171 1_555
Mo2 O10 2.055173 1_454
Mo2 O5 2.055173 1_555
Mo2 O9 2.055178 1_554
Mo2 O3 2.055178 1_455
Mo3 O9 2.055171 1_555
Mo3 O3 2.055171 1_445
Mo3 O2 2.055173 1_445
Mo3 O8 2.055173 1_555
Mo3 O7 2.055178 1_545
Mo3 O4 2.055178 1_455
