# generated using pymatgen
data_ZnWF4
_symmetry_space_group_name_H-M   'P 1'
_cell_length_a   6.87755726
_cell_length_b   6.87755726
_cell_length_c   5.88808475
_cell_angle_alpha   64.73011758
_cell_angle_beta   64.73011758
_cell_angle_gamma   50.83309300
_symmetry_Int_Tables_number   1
_chemical_formula_structural   ZnWF4
_chemical_formula_sum   'Zn2 W2 F8'
_cell_volume   190.29295855
_cell_formula_units_Z   2
loop_
 _symmetry_equiv_pos_site_id
 _symmetry_equiv_pos_as_xyz
  1  'x, y, z'
loop_
 _atom_site_type_symbol
 _atom_site_label
 _atom_site_symmetry_multiplicity
 _atom_site_fract_x
 _atom_site_fract_y
 _atom_site_fract_z
 _atom_site_occupancy
  Zn  Zn0  1  0.24296300  0.75703700  0.50000000  1
  Zn  Zn1  1  0.74359000  0.25641000  0.00000000  1
  W  W0  1  0.49712200  0.00249300  0.75011400  1
  W  W1  1  0.99750700  0.50287800  0.24988600  1
  F  F0  1  0.45177300  0.30243800  0.80205900  1
  F  F1  1  0.19043500  0.04831400  0.05081900  1
  F  F2  1  0.54638800  0.69777200  0.70176100  1
  F  F3  1  0.04186500  0.19999100  0.55555200  1
  F  F4  1  0.80000900  0.95813500  0.44444800  1
  F  F5  1  0.30222800  0.45361200  0.29823900  1
  F  F6  1  0.95168600  0.80956500  0.94918100  1
  F  F7  1  0.69756200  0.54822700  0.19794100  1
loop_
_geom_bond_atom_site_label_1
_geom_bond_atom_site_label_2
_geom_bond_distance
_geom_bond_site_symmetry_2
F0 W0 2.022587 1_555
F0 Zn1 2.523119 1_556
F1 W0 2.032608 1_554
F1 Zn1 2.538913 1_455
F2 W0 2.029300 1_565
F2 Zn1 2.533663 1_556
F3 W1 2.033916 1_455
F3 Zn1 2.546634 1_456
F4 W0 2.033916 1_565
F4 Zn1 2.546634 1_565
F5 W1 2.029300 1_455
F5 Zn1 2.533663 1_555
F6 W1 2.032608 1_556
F6 Zn1 2.538913 1_566
F7 W1 2.022587 1_555
F7 Zn1 2.523119 1_555
