# generated using pymatgen
data_CaZnFe(AsO5)2
_symmetry_space_group_name_H-M   'P 1'
_cell_length_a   5.35653400
_cell_length_b   5.42706939
_cell_length_c   7.66744198
_cell_angle_alpha   69.92748038
_cell_angle_beta   71.09015832
_cell_angle_gamma   70.57361069
_symmetry_Int_Tables_number   1
_chemical_formula_structural   CaZnFe(AsO5)2
_chemical_formula_sum   'Ca1 Zn1 Fe1 As2 O10'
_cell_volume   191.81214746
_cell_formula_units_Z   1
loop_
 _symmetry_equiv_pos_site_id
 _symmetry_equiv_pos_as_xyz
  1  'x, y, z'
loop_
 _atom_site_type_symbol
 _atom_site_label
 _atom_site_symmetry_multiplicity
 _atom_site_fract_x
 _atom_site_fract_y
 _atom_site_fract_z
 _atom_site_occupancy
  Ca  Ca0  1  0.00000000  0.00000000  0.00000000  1
  Zn  Zn0  1  0.50000000  0.00000000  0.50000000  1
  Fe  Fe0  1  0.00000000  0.50000000  0.50000000  1
  As  As0  1  0.41188400  0.42716800  0.79087400  1
  As  As1  1  0.58811600  0.57283200  0.20912600  1
  O  O0  1  0.86924000  0.82877900  0.57148100  1
  O  O1  1  0.13076000  0.17122100  0.42851900  1
  O  O2  1  0.31191100  0.33330600  0.63110700  1
  O  O3  1  0.68808900  0.66669400  0.36889300  1
  O  O4  1  0.73163300  0.73866400  0.98866100  1
  O  O5  1  0.26836700  0.26133600  0.01133900  1
  O  O6  1  0.31367500  0.77352200  0.75426000  1
  O  O7  1  0.76518000  0.32143500  0.74611200  1
  O  O8  1  0.68632500  0.22647800  0.24574000  1
  O  O9  1  0.23482000  0.67856500  0.25388800  1
loop_
_geom_bond_atom_site_label_1
_geom_bond_atom_site_label_2
_geom_bond_distance
_geom_bond_site_symmetry_2
Ca0 O5 2.367996 1_555
Ca0 O4 2.367996 1_444
Ca0 O8 2.459265 1_455
Ca0 O6 2.459265 1_544
Ca0 O7 2.492239 1_454
Ca0 O9 2.492239 1_545
Fe0 O0 1.888346 1_455
Fe0 O1 1.888346 1_555
Fe0 O2 2.019740 1_555
Fe0 O3 2.019740 1_455
Fe0 O9 2.024674 1_555
Fe0 O7 2.024674 1_455
As0 O5 1.682877 1_556
As0 O6 1.721778 1_555
As0 O7 1.737888 1_555
As0 O2 1.755526 1_555
As1 O4 1.682877 1_554
As1 O8 1.721778 1_555
As1 O9 1.737888 1_555
As1 O3 1.755526 1_555
O0 Zn0 2.050908 1_565
O1 Zn0 2.050908 1_555
O2 Zn0 2.162653 1_555
O3 Zn0 2.162653 1_565
O6 Zn0 2.053667 1_565
O8 Zn0 2.053667 1_555
