# generated using pymatgen
data_TbTl(MoO4)2
_symmetry_space_group_name_H-M   'P 1'
_cell_length_a   5.08110398
_cell_length_b   8.01427239
_cell_length_c   18.72335816
_cell_angle_alpha   90.00000000
_cell_angle_beta   90.00000000
_cell_angle_gamma   90.00000000
_symmetry_Int_Tables_number   1
_chemical_formula_structural   TbTl(MoO4)2
_chemical_formula_sum   'Tb4 Tl4 Mo8 O32'
_cell_volume   762.44044585
_cell_formula_units_Z   4
loop_
 _symmetry_equiv_pos_site_id
 _symmetry_equiv_pos_as_xyz
  1  'x, y, z'
loop_
 _atom_site_type_symbol
 _atom_site_label
 _atom_site_symmetry_multiplicity
 _atom_site_fract_x
 _atom_site_fract_y
 _atom_site_fract_z
 _atom_site_occupancy
  Tb  Tb0  1  0.00000000  0.75000000  0.00632594  1
  Tb  Tb1  1  0.00000000  0.25000000  0.99367406  1
  Tb  Tb2  1  0.50000000  0.25000000  0.49367406  1
  Tb  Tb3  1  0.50000000  0.75000000  0.50632594  1
  Tl  Tl0  1  0.00000000  0.75000000  0.77066318  1
  Tl  Tl1  1  0.00000000  0.25000000  0.22933682  1
  Tl  Tl2  1  0.50000000  0.25000000  0.72933682  1
  Tl  Tl3  1  0.50000000  0.75000000  0.27066318  1
  Mo  Mo0  1  0.02031512  0.51682628  0.40054209  1
  Mo  Mo1  1  0.97968488  0.48317372  0.59945791  1
  Mo  Mo2  1  0.47968488  0.01682628  0.09945791  1
  Mo  Mo3  1  0.97968488  0.98317372  0.40054209  1
  Mo  Mo4  1  0.52031512  0.98317372  0.90054209  1
  Mo  Mo5  1  0.02031512  0.01682628  0.59945791  1
  Mo  Mo6  1  0.52031512  0.48317372  0.09945791  1
  Mo  Mo7  1  0.47968488  0.51682628  0.90054209  1
  O  O0  1  0.10451866  0.97610705  0.31492629  1
  O  O1  1  0.89548134  0.02389295  0.68507371  1
  O  O2  1  0.39548134  0.47610705  0.18507371  1
  O  O3  1  0.89548134  0.52389295  0.31492629  1
  O  O4  1  0.60451866  0.52389295  0.81492629  1
  O  O5  1  0.10451866  0.47610705  0.68507371  1
  O  O6  1  0.60451866  0.02389295  0.18507371  1
  O  O7  1  0.39548134  0.97610705  0.81492629  1
  O  O8  1  0.27145887  0.84096576  0.09747591  1
  O  O9  1  0.72854113  0.15903424  0.90252409  1
  O  O10  1  0.22854113  0.34096576  0.40252409  1
  O  O11  1  0.72854113  0.65903424  0.09747591  1
  O  O12  1  0.77145887  0.65903424  0.59747591  1
  O  O13  1  0.27145887  0.34096576  0.90252409  1
  O  O14  1  0.77145887  0.15903424  0.40252409  1
  O  O15  1  0.22854113  0.84096576  0.59747591  1
  O  O16  1  0.24961811  0.50498306  0.03493139  1
  O  O17  1  0.75038189  0.49501694  0.96506861  1
  O  O18  1  0.25038189  0.00498306  0.46506861  1
  O  O19  1  0.75038189  0.99501694  0.03493139  1
  O  O20  1  0.74961811  0.99501694  0.53493139  1
  O  O21  1  0.24961811  0.00498306  0.96506861  1
  O  O22  1  0.74961811  0.49501694  0.46506861  1
  O  O23  1  0.25038189  0.50498306  0.53493139  1
  O  O24  1  0.23979357  0.69039315  0.40968373  1
  O  O25  1  0.76020643  0.30960685  0.59031627  1
  O  O26  1  0.26020643  0.19039315  0.09031627  1
  O  O27  1  0.76020643  0.80960685  0.40968373  1
  O  O28  1  0.73979357  0.80960685  0.90968373  1
  O  O29  1  0.23979357  0.19039315  0.59031627  1
  O  O30  1  0.73979357  0.30960685  0.09031627  1
  O  O31  1  0.26020643  0.69039315  0.90968373  1
loop_
_geom_bond_atom_site_label_1
_geom_bond_atom_site_label_2
_geom_bond_distance
_geom_bond_site_symmetry_2
Mo0 O3 1.724875 1_455
Mo0 O10 1.762717 1_555
Mo0 O24 1.791052 1_555
Mo0 O22 1.839026 1_455
Mo1 O5 1.724875 1_655
Mo1 O12 1.762717 1_555
Mo1 O25 1.791052 1_555
Mo1 O23 1.839026 1_655
Mo2 O6 1.724875 1_555
Mo2 O8 1.762717 1_545
Mo2 O26 1.791052 1_555
Mo2 O19 1.839026 1_545
Mo3 O0 1.724875 1_655
Mo3 O14 1.762717 1_565
Mo3 O27 1.791052 1_555
Mo3 O18 1.839026 1_665
Mo4 O7 1.724875 1_555
Mo4 O9 1.762717 1_565
Mo4 O28 1.791052 1_555
Mo4 O21 1.839026 1_565
Mo5 O1 1.724875 1_455
Mo5 O15 1.762717 1_545
Mo5 O29 1.791052 1_555
Mo5 O20 1.839026 1_445
Mo6 O2 1.724875 1_555
Mo6 O11 1.762717 1_555
Mo6 O30 1.791052 1_555
Mo6 O16 1.839026 1_555
Mo7 O4 1.724875 1_555
Mo7 O13 1.762717 1_555
Mo7 O31 1.791052 1_555
Mo7 O17 1.839026 1_555
O0 Tl1 2.769182 1_565
O0 Tl3 2.829929 1_555
O1 Tl0 2.769182 1_645
O1 Tl2 2.829929 1_555
O2 Tl3 2.769182 1_555
O2 Tl1 2.829929 1_555
O3 Tl1 2.769182 1_655
O3 Tl3 2.829929 1_555
O4 Tl2 2.769182 1_555
O4 Tl0 2.829929 1_655
O5 Tl0 2.769182 1_555
O5 Tl2 2.829929 1_555
O6 Tl3 2.769182 1_545
O6 Tl1 2.829929 1_655
O7 Tl2 2.769182 1_565
O7 Tl0 2.829929 1_555
O8 Tb0 2.312266 1_555
O9 Tb1 2.312266 1_655
O10 Tb2 2.312266 1_555
O11 Tb0 2.312266 1_655
O12 Tb3 2.312266 1_555
O13 Tb1 2.312266 1_555
O14 Tb2 2.312266 1_555
O15 Tb3 2.312266 1_555
O16 Tb0 2.398204 1_555
O16 Tb1 2.526124 1_554
O17 Tb1 2.398204 1_655
O17 Tb0 2.526124 1_656
O18 Tb2 2.398204 1_555
O18 Tb3 2.526124 1_545
O19 Tb0 2.398204 1_655
O19 Tb1 2.526124 1_664
O20 Tb3 2.398204 1_555
O20 Tb2 2.526124 1_565
O21 Tb1 2.398204 1_555
O21 Tb0 2.526124 1_546
O22 Tb2 2.398204 1_555
O22 Tb3 2.526124 1_555
O23 Tb3 2.398204 1_555
O23 Tb2 2.526124 1_555
O24 Tb3 2.291379 1_555
O25 Tb2 2.291379 1_555
O26 Tb1 2.291379 1_554
O27 Tb3 2.291379 1_555
O28 Tb0 2.291379 1_656
O29 Tb2 2.291379 1_555
O30 Tb1 2.291379 1_654
O31 Tb0 2.291379 1_556
