# generated using pymatgen
data_Sr2CaTi3O9
_symmetry_space_group_name_H-M   'P 1'
_cell_length_a   23.53594700
_cell_length_b   5.54060800
_cell_length_c   5.54585370
_cell_angle_alpha   89.92539779
_cell_angle_beta   90.00000000
_cell_angle_gamma   90.00000000
_symmetry_Int_Tables_number   1
_chemical_formula_structural   Sr2CaTi3O9
_chemical_formula_sum   'Sr8 Ca4 Ti12 O36'
_cell_volume   723.19787736
_cell_formula_units_Z   4
loop_
 _symmetry_equiv_pos_site_id
 _symmetry_equiv_pos_as_xyz
  1  'x, y, z'
loop_
 _atom_site_type_symbol
 _atom_site_label
 _atom_site_symmetry_multiplicity
 _atom_site_fract_x
 _atom_site_fract_y
 _atom_site_fract_z
 _atom_site_occupancy
  Sr  Sr0  1  0.83313400  0.99190100  0.00128600  1
  Sr  Sr1  1  0.16686600  0.99190100  0.00128600  1
  Sr  Sr2  1  0.33319600  0.50850900  0.50156600  1
  Sr  Sr3  1  0.66680400  0.50850900  0.50156600  1
  Sr  Sr4  1  0.00000000  0.50665400  0.50023700  1
  Sr  Sr5  1  0.33417300  0.00985700  0.99671600  1
  Sr  Sr6  1  0.66582700  0.00985700  0.99671600  1
  Sr  Sr7  1  0.00000000  0.00921700  0.99636500  1
  Ca  Ca0  1  0.50000000  0.48453200  0.50122500  1
  Ca  Ca1  1  0.83329100  0.48724600  0.50149200  1
  Ca  Ca2  1  0.16670900  0.48724600  0.50149200  1
  Ca  Ca3  1  0.50000000  0.98453600  0.99865200  1
  Ti  Ti0  1  0.24970200  0.99921100  0.49934500  1
  Ti  Ti1  1  0.58164900  0.99809500  0.50143000  1
  Ti  Ti2  1  0.91590800  0.99866400  0.49958900  1
  Ti  Ti3  1  0.41833300  0.49861000  0.99824400  1
  Ti  Ti4  1  0.75028800  0.49966000  0.99880100  1
  Ti  Ti5  1  0.08404100  0.49976500  0.99828300  1
  Ti  Ti6  1  0.41835100  0.99809500  0.50143000  1
  Ti  Ti7  1  0.75029800  0.99921100  0.49934500  1
  Ti  Ti8  1  0.08409200  0.99866400  0.49958900  1
  Ti  Ti9  1  0.58166700  0.49861000  0.99824400  1
  Ti  Ti10  1  0.91595900  0.49976500  0.99828300  1
  Ti  Ti11  1  0.24971200  0.49966000  0.99880100  1
  O  O0  1  0.50000000  0.00912000  0.55645100  1
  O  O1  1  0.83312200  0.01093500  0.53469400  1
  O  O2  1  0.16687800  0.01093500  0.53469400  1
  O  O3  1  0.50000000  0.50840000  0.94262600  1
  O  O4  1  0.83311400  0.50001900  0.95038800  1
  O  O5  1  0.16688600  0.50001900  0.95038800  1
  O  O6  1  0.33399300  0.99675100  0.46305400  1
  O  O7  1  0.66600700  0.99675100  0.46305400  1
  O  O8  1  0.00000000  0.99461000  0.46511700  1
  O  O9  1  0.33406900  0.50086000  0.03545500  1
  O  O10  1  0.66593100  0.50086000  0.03545500  1
  O  O11  1  0.00000000  0.50332800  0.03207600  1
  O  O12  1  0.57279200  0.72470000  0.27537100  1
  O  O13  1  0.90768200  0.72668900  0.27400100  1
  O  O14  1  0.24123100  0.72685600  0.27424000  1
  O  O15  1  0.42705700  0.22470300  0.22394200  1
  O  O16  1  0.75601800  0.23434900  0.23465200  1
  O  O17  1  0.08942200  0.23413200  0.23428500  1
  O  O18  1  0.41095400  0.27515300  0.72531200  1
  O  O19  1  0.74425600  0.26848300  0.73328900  1
  O  O20  1  0.07783100  0.26835900  0.73294800  1
  O  O21  1  0.25593000  0.77029400  0.77060400  1
  O  O22  1  0.58861400  0.77560300  0.77422500  1
  O  O23  1  0.92184400  0.77039900  0.77041300  1
  O  O24  1  0.25574400  0.26848300  0.73328900  1
  O  O25  1  0.58904600  0.27515300  0.72531200  1
  O  O26  1  0.92216900  0.26835900  0.73294800  1
  O  O27  1  0.41138600  0.77560300  0.77422500  1
  O  O28  1  0.74407000  0.77029400  0.77060400  1
  O  O29  1  0.07815600  0.77039900  0.77041300  1
  O  O30  1  0.42720800  0.72470000  0.27537100  1
  O  O31  1  0.75876900  0.72685600  0.27424000  1
  O  O32  1  0.09231800  0.72668900  0.27400100  1
  O  O33  1  0.57294300  0.22470300  0.22394200  1
  O  O34  1  0.91057800  0.23413200  0.23428500  1
  O  O35  1  0.24398200  0.23434900  0.23465200  1
loop_
_geom_bond_atom_site_label_1
_geom_bond_atom_site_label_2
_geom_bond_distance
_geom_bond_site_symmetry_2
Ca0 O3 2.451687 1_555
Ca0 O12 2.504077 1_555
Ca0 O30 2.504077 1_555
Ca0 O0 2.651422 1_555
Ca0 O25 2.697923 1_555
Ca0 O18 2.697923 1_555
Ca0 O33 2.718515 1_555
Ca0 O15 2.718515 1_555
Ca0 O0 2.923025 1_565
Ca0 O22 3.041255 1_555
Ca0 O27 3.041255 1_555
Ca0 O3 3.100558 1_554
Ca1 O4 2.490613 1_555
Ca1 O13 2.532371 1_555
Ca1 O31 2.534329 1_555
Ca1 O1 2.645232 1_555
Ca1 O16 2.732469 1_555
Ca1 O34 2.734410 1_555
Ca1 O26 2.736819 1_555
Ca1 O19 2.740226 1_555
Ca1 O1 2.907634 1_565
Ca1 O23 3.005897 1_555
Ca1 O28 3.017041 1_555
Ca1 O4 3.057072 1_554
Ca2 O5 2.490613 1_555
Ca2 O32 2.532371 1_555
Ca2 O14 2.534329 1_555
Ca2 O2 2.645232 1_555
Ca2 O35 2.732469 1_555
Ca2 O17 2.734410 1_555
Ca2 O20 2.736819 1_555
Ca2 O24 2.740226 1_555
Ca2 O2 2.907634 1_565
Ca2 O29 3.005897 1_555
Ca2 O21 3.017041 1_555
Ca2 O5 3.057072 1_554
Ca3 O0 2.455985 1_565
Ca3 O33 2.506675 1_566
Ca3 O15 2.506675 1_566
Ca3 O3 2.656719 1_555
Ca3 O22 2.691234 1_555
Ca3 O27 2.691234 1_555
Ca3 O12 2.712401 1_556
Ca3 O30 2.712401 1_556
Ca3 O3 2.918706 1_565
Ca3 O25 3.045757 1_565
Ca3 O18 3.045757 1_565
Ca3 O0 3.096646 1_566
O0 Ti1 1.946733 1_545
O0 Ti6 1.946733 1_545
O1 Ti2 1.959338 1_545
O1 Ti7 1.960259 1_545
O1 Sr0 2.589662 1_546
O1 Sr0 2.960219 1_545
O2 Ti8 1.959338 1_545
O2 Ti0 1.960259 1_545
O2 Sr1 2.589662 1_546
O2 Sr1 2.960219 1_545
O3 Ti9 1.947446 1_555
O3 Ti3 1.947446 1_555
O4 Ti4 1.967792 1_555
O4 Ti10 1.967845 1_555
O4 Sr0 2.740270 1_556
O4 Sr0 2.829033 1_546
O5 Ti11 1.967792 1_555
O5 Ti5 1.967845 1_555
O5 Sr1 2.740270 1_556
O5 Sr1 2.829033 1_546
O6 Ti0 1.994100 1_555
O6 Ti6 1.996835 1_555
O6 Sr5 2.587171 1_564
O6 Sr2 2.713364 1_555
O6 Sr2 2.843822 1_565
O6 Sr5 2.960600 1_565
O7 Ti7 1.994100 1_555
O7 Ti1 1.996835 1_555
O7 Sr6 2.587171 1_564
O7 Sr3 2.713364 1_555
O7 Sr3 2.843822 1_565
O7 Sr6 2.960600 1_565
O8 Ti8 1.988526 1_555
O8 Ti2 1.988526 1_455
O8 Sr7 2.600784 1_564
O8 Sr4 2.710327 1_555
O8 Sr4 2.843966 1_565
O8 Sr7 2.947440 1_565
O9 Ti3 1.993982 1_554
O9 Ti11 1.995813 1_554
O9 Sr2 2.585468 1_555
O9 Sr5 2.729205 1_554
O9 Sr5 2.828046 1_564
O9 Sr2 2.961190 1_554
O10 Ti9 1.993982 1_554
O10 Ti4 1.995813 1_554
O10 Sr3 2.585468 1_555
O10 Sr6 2.729205 1_554
O10 Sr6 2.828046 1_564
O10 Sr3 2.961190 1_554
O11 Ti5 1.986944 1_554
O11 Ti10 1.986944 1_454
O11 Sr4 2.596442 1_555
O11 Sr7 2.745087 1_554
O11 Sr7 2.809663 1_564
O11 Sr4 2.949535 1_554
O12 Ti1 1.978555 1_555
O12 Ti9 1.994974 1_554
O12 Sr3 2.810762 1_555
O12 Sr6 3.110097 1_564
O13 Ti2 1.969355 1_555
O13 Ti10 1.990445 1_554
O13 Sr0 2.742151 1_555
O13 Sr4 2.788819 1_655
O13 Sr7 3.088028 1_664
O14 Ti0 1.969841 1_555
O14 Ti11 1.990686 1_554
O14 Sr1 2.739633 1_555
O14 Sr2 2.781003 1_555
O14 Sr5 3.099394 1_564
O15 Ti3 1.976633 1_554
O15 Ti6 1.995392 1_545
O15 Sr5 2.790699 1_554
O15 Sr2 3.119238 1_555
O16 Ti7 1.966043 1_545
O16 Ti4 1.971011 1_554
O16 Sr0 2.603500 1_545
O16 Sr6 2.792595 1_554
O16 Sr3 2.985521 1_555
O17 Ti8 1.969174 1_545
O17 Ti5 1.972351 1_554
O17 Sr1 2.607258 1_545
O17 Sr7 2.779871 1_554
O17 Sr4 2.981712 1_555
O18 Ti3 1.964437 1_555
O18 Ti6 1.983261 1_545
O18 Sr2 2.560573 1_555
O18 Sr5 2.772370 1_555
O19 Ti4 1.958035 1_555
O19 Ti7 1.983536 1_545
O19 Sr3 2.595887 1_555
O19 Sr6 2.754912 1_555
O19 Sr0 2.987836 1_546
O20 Ti5 1.958436 1_555
O20 Ti8 1.983556 1_545
O20 Sr4 2.599988 1_555
O20 Sr7 2.746963 1_555
O20 Sr1 2.991012 1_546
O21 Ti11 1.966346 1_555
O21 Ti0 1.971880 1_555
O21 Sr5 2.594187 1_565
O21 Sr1 2.746349 1_556
O21 Sr2 2.764540 1_555
O22 Ti1 1.957160 1_555
O22 Ti9 1.980051 1_555
O22 Sr6 2.552208 1_565
O22 Sr3 2.805168 1_555
O23 Ti10 1.964613 1_555
O23 Ti2 1.967222 1_555
O23 Sr7 2.590191 1_665
O23 Sr0 2.740230 1_556
O23 Sr4 2.787448 1_655
O24 Ti11 1.958035 1_555
O24 Ti0 1.983536 1_545
O24 Sr2 2.595887 1_555
O24 Sr5 2.754912 1_555
O24 Sr1 2.987836 1_546
O25 Ti9 1.964437 1_555
O25 Ti1 1.983261 1_545
O25 Sr3 2.560573 1_555
O25 Sr6 2.772370 1_555
O26 Ti10 1.958436 1_555
O26 Ti2 1.983556 1_545
O26 Sr4 2.599988 1_655
O26 Sr7 2.746963 1_655
O26 Sr0 2.991012 1_546
O27 Ti6 1.957160 1_555
O27 Ti3 1.980051 1_555
O27 Sr5 2.552208 1_565
O27 Sr2 2.805168 1_555
O28 Ti4 1.966346 1_555
O28 Ti7 1.971880 1_555
O28 Sr6 2.594187 1_565
O28 Sr0 2.746349 1_556
O28 Sr3 2.764540 1_555
O29 Ti5 1.964613 1_555
O29 Ti8 1.967222 1_555
O29 Sr7 2.590191 1_565
O29 Sr1 2.740230 1_556
O29 Sr4 2.787448 1_555
O30 Ti6 1.978555 1_555
O30 Ti3 1.994974 1_554
O30 Sr2 2.810762 1_555
O30 Sr5 3.110097 1_564
O31 Ti7 1.969841 1_555
O31 Ti4 1.990686 1_554
O31 Sr0 2.739633 1_555
O31 Sr3 2.781003 1_555
O31 Sr6 3.099394 1_564
O32 Ti8 1.969355 1_555
O32 Ti5 1.990445 1_554
O32 Sr1 2.742151 1_555
O32 Sr4 2.788819 1_555
O32 Sr7 3.088028 1_564
O33 Ti9 1.976633 1_554
O33 Ti1 1.995392 1_545
O33 Sr6 2.790699 1_554
O33 Sr3 3.119238 1_555
O34 Ti2 1.969174 1_545
O34 Ti10 1.972351 1_554
O34 Sr0 2.607258 1_545
O34 Sr7 2.779871 1_654
O34 Sr4 2.981712 1_655
O35 Ti0 1.966043 1_545
O35 Ti11 1.971011 1_554
O35 Sr1 2.603500 1_545
O35 Sr5 2.792595 1_554
O35 Sr2 2.985521 1_555
