# generated using pymatgen
data_CeSe2
_symmetry_space_group_name_H-M   'P 1'
_cell_length_a   4.27245258
_cell_length_b   7.69203774
_cell_length_c   7.69235249
_cell_angle_alpha   119.99903317
_cell_angle_beta   90.00000000
_cell_angle_gamma   90.00000000
_symmetry_Int_Tables_number   1
_chemical_formula_structural   CeSe2
_chemical_formula_sum   'Ce3 Se6'
_cell_volume   218.93374062
_cell_formula_units_Z   3
loop_
 _symmetry_equiv_pos_site_id
 _symmetry_equiv_pos_as_xyz
  1  'x, y, z'
loop_
 _atom_site_type_symbol
 _atom_site_label
 _atom_site_symmetry_multiplicity
 _atom_site_fract_x
 _atom_site_fract_y
 _atom_site_fract_z
 _atom_site_occupancy
  Ce  Ce0  1  0.50000000  0.33332056  0.66667611  1
  Ce  Ce1  1  0.50000000  0.66664329  0.33332241  1
  Ce  Ce2  1  0.00000000  0.99997823  -0.00000039  1
  Se  Se0  1  0.50000000  0.25962620  0.99998004  1
  Se  Se1  1  0.50000000  0.74027647  0.74029936  1
  Se  Se2  1  0.50000000  0.00001508  0.25971912  1
  Se  Se3  1  -0.00000000  0.59498751  0.99997531  1
  Se  Se4  1  -0.00000000  0.40501886  0.40503835  1
  Se  Se5  1  0.00000000  0.00003380  0.59498870  1
loop_
_geom_bond_atom_site_label_1
_geom_bond_atom_site_label_2
_geom_bond_distance
_geom_bond_site_symmetry_2
Ce0 Se1 2.889097 1_555
Ce0 Se2 2.889151 1_555
Ce0 Se0 2.889324 1_555
Ce0 Se5 3.166418 1_655
Ce0 Se5 3.166418 1_555
Ce0 Se3 3.166659 1_655
Ce0 Se3 3.166659 1_555
Ce0 Se4 3.166726 1_555
Ce0 Se4 3.166726 1_655
Ce1 Se2 2.889302 1_565
Ce1 Se1 2.889364 1_555
Ce1 Se0 2.889500 1_554
Ce1 Se4 3.166670 1_555
Ce1 Se4 3.166670 1_655
Ce1 Se3 3.166891 1_554
Ce1 Se3 3.166891 1_654
Ce1 Se5 3.166971 1_565
Ce1 Se5 3.166971 1_665
Ce2 Se0 2.924493 1_464
Ce2 Se0 2.924493 1_564
Ce2 Se1 2.924768 1_554
Ce2 Se1 2.924768 1_454
Ce2 Se2 2.924776 1_465
Ce2 Se2 2.924776 1_565
Ce2 Se3 3.115110 1_554
Ce2 Se4 3.115690 1_565
Ce2 Se5 3.115700 1_564
