# generated using pymatgen
data_Cs2TcCl6
_symmetry_space_group_name_H-M   'P 1'
_cell_length_a   7.32909519
_cell_length_b   7.32909668
_cell_length_c   7.32909370
_cell_angle_alpha   60.00000000
_cell_angle_beta   60.00002020
_cell_angle_gamma   59.99997980
_symmetry_Int_Tables_number   1
_chemical_formula_structural   Cs2TcCl6
_chemical_formula_sum   'Cs2 Tc1 Cl6'
_cell_volume   278.37875580
_cell_formula_units_Z   1
loop_
 _symmetry_equiv_pos_site_id
 _symmetry_equiv_pos_as_xyz
  1  'x, y, z'
loop_
 _atom_site_type_symbol
 _atom_site_label
 _atom_site_symmetry_multiplicity
 _atom_site_fract_x
 _atom_site_fract_y
 _atom_site_fract_z
 _atom_site_occupancy
  Cs  Cs0  1  0.25000000  0.25000000  0.25000000  1
  Cs  Cs1  1  0.75000000  0.75000000  0.75000000  1
  Tc  Tc0  1  0.00000000  -0.00000000  0.00000000  1
  Cl  Cl0  1  0.77149873  0.22850127  0.22850127  1
  Cl  Cl1  1  0.22850127  0.77149873  0.77149873  1
  Cl  Cl2  1  0.22850027  0.77149973  0.22850027  1
  Cl  Cl3  1  0.77149973  0.22850027  0.77149973  1
  Cl  Cl4  1  0.22850127  0.22850127  0.77149873  1
  Cl  Cl5  1  0.77149873  0.77149873  0.22850127  1
loop_
_geom_bond_atom_site_label_1
_geom_bond_atom_site_label_2
_geom_bond_distance
_geom_bond_site_symmetry_2
Cl0 Tc0 2.368394 1_655
Cl0 Cs0 3.671316 1_655
Cl0 Cs1 3.671316 1_554
Cl0 Cs1 3.671316 1_545
Cl0 Cs0 3.671316 1_555
Cl1 Tc0 2.368394 1_566
Cl1 Cs0 3.671316 1_565
Cl1 Cs1 3.671316 1_455
Cl1 Cs1 3.671316 1_555
Cl1 Cs0 3.671316 1_556
Cl2 Tc0 2.368383 1_565
Cl2 Cs0 3.671318 1_565
Cl2 Cs1 3.671318 1_455
Cl2 Cs1 3.671318 1_554
Cl2 Cs0 3.671318 1_555
Cl3 Tc0 2.368383 1_656
Cl3 Cs1 3.671318 1_555
Cl3 Cs0 3.671318 1_556
Cl3 Cs0 3.671318 1_655
Cl3 Cs1 3.671318 1_545
Cl4 Tc0 2.368395 1_556
Cl4 Cs1 3.671316 1_545
Cl4 Cs0 3.671316 1_555
Cl4 Cs0 3.671316 1_556
Cl4 Cs1 3.671316 1_455
Cl5 Tc0 2.368395 1_665
Cl5 Cs0 3.671316 1_655
Cl5 Cs1 3.671316 1_554
Cl5 Cs0 3.671316 1_565
Cl5 Cs1 3.671316 1_555
