# generated using pymatgen
data_Sr2ScF7
_symmetry_space_group_name_H-M   'P 1'
_cell_length_a   12.19979834
_cell_length_b   5.42556548
_cell_length_c   8.23824990
_cell_angle_alpha   89.47662819
_cell_angle_beta   90.00000000
_cell_angle_gamma   90.00000000
_symmetry_Int_Tables_number   1
_chemical_formula_structural   Sr2ScF7
_chemical_formula_sum   'Sr8 Sc4 F28'
_cell_volume   545.27364086
_cell_formula_units_Z   4
loop_
 _symmetry_equiv_pos_site_id
 _symmetry_equiv_pos_as_xyz
  1  'x, y, z'
loop_
 _atom_site_type_symbol
 _atom_site_label
 _atom_site_symmetry_multiplicity
 _atom_site_fract_x
 _atom_site_fract_y
 _atom_site_fract_z
 _atom_site_occupancy
  Sr  Sr0  1  0.56217892  0.23669898  0.67627501  1
  Sr  Sr1  1  0.06217892  0.76330102  0.82372499  1
  Sr  Sr2  1  0.43782108  0.76330102  0.32372499  1
  Sr  Sr3  1  0.93782108  0.23669898  0.17627501  1
  Sr  Sr4  1  0.22059674  0.23743795  0.55318228  1
  Sr  Sr5  1  0.72059674  0.76256205  0.94681772  1
  Sr  Sr6  1  0.77940326  0.76256205  0.44681772  1
  Sr  Sr7  1  0.27940326  0.23743795  0.05318228  1
  Sc  Sc0  1  0.12542813  0.72172622  0.28531102  1
  Sc  Sc1  1  0.62542813  0.27827378  0.21468898  1
  Sc  Sc2  1  0.87457187  0.27827378  0.71468898  1
  Sc  Sc3  1  0.37457187  0.72172622  0.78531102  1
  F  F0  1  0.13816993  0.79419005  0.52837510  1
  F  F1  1  0.63816993  0.20580995  0.97162490  1
  F  F2  1  0.86183007  0.20580995  0.47162490  1
  F  F3  1  0.36183007  0.79419005  0.02837510  1
  F  F4  1  0.25398003  0.98574262  0.30481089  1
  F  F5  1  0.75398003  0.01425738  0.19518911  1
  F  F6  1  0.74601997  0.01425738  0.69518911  1
  F  F7  1  0.24601997  0.98574262  0.80481089  1
  F  F8  1  0.03891522  0.20377789  0.71167886  1
  F  F9  1  0.53891522  0.79622211  0.78832114  1
  F  F10  1  0.96108478  0.79622211  0.28832114  1
  F  F11  1  0.46108478  0.20377789  0.21167886  1
  F  F12  1  0.10510459  0.50941715  0.07596915  1
  F  F13  1  0.60510459  0.49058285  0.42403085  1
  F  F14  1  0.89489541  0.49058285  0.92403085  1
  F  F15  1  0.39489541  0.50941715  0.57596915  1
  F  F16  1  0.23104911  0.51008755  0.79660406  1
  F  F17  1  0.73104911  0.48991245  0.70339594  1
  F  F18  1  0.76895089  0.48991245  0.20339594  1
  F  F19  1  0.26895089  0.51008755  0.29660406  1
  F  F20  1  0.42637792  0.37999913  0.87256197  1
  F  F21  1  0.92637792  0.62000087  0.62743803  1
  F  F22  1  0.57362208  0.62000087  0.12743803  1
  F  F23  1  0.07362208  0.37999913  0.37256197  1
  F  F24  1  0.10447310  0.98470388  0.09134747  1
  F  F25  1  0.60447310  0.01529612  0.40865253  1
  F  F26  1  0.89552690  0.01529612  0.90865253  1
  F  F27  1  0.39552690  0.98470388  0.59134747  1
loop_
_geom_bond_atom_site_label_1
_geom_bond_atom_site_label_2
_geom_bond_distance
_geom_bond_site_symmetry_2
F0 Sc0 2.050077 1_555
F0 Sr1 2.607758 1_555
F0 Sr4 2.616364 1_565
F1 Sc1 2.050077 1_556
F1 Sr0 2.607758 1_555
F1 Sr5 2.616364 1_545
F2 Sc2 2.050077 1_555
F2 Sr3 2.607758 1_555
F2 Sr6 2.616364 1_545
F3 Sc3 2.050077 1_554
F3 Sr2 2.607758 1_555
F3 Sr7 2.616364 1_565
F4 Sc0 2.131074 1_555
F4 Sr7 2.491297 1_565
F4 Sr4 2.503690 1_565
F4 Sr2 2.551008 1_555
F5 Sc1 2.131074 1_555
F5 Sr6 2.491297 1_545
F5 Sr5 2.503690 1_544
F5 Sr3 2.551008 1_555
F6 Sc2 2.131074 1_555
F6 Sr5 2.491297 1_545
F6 Sr6 2.503690 1_545
F6 Sr0 2.551008 1_555
F7 Sc3 2.131074 1_555
F7 Sr4 2.491297 1_565
F7 Sr7 2.503690 1_566
F7 Sr1 2.551008 1_555
F8 Sc2 2.045485 1_455
F8 Sr1 2.569750 1_545
F8 Sr4 2.578122 1_555
F9 Sc3 2.045485 1_555
F9 Sr0 2.569750 1_565
F9 Sr5 2.578122 1_555
F10 Sc0 2.045485 1_655
F10 Sr3 2.569750 1_565
F10 Sr6 2.578122 1_555
F11 Sc1 2.045485 1_555
F11 Sr2 2.569750 1_545
F11 Sr7 2.578122 1_555
F12 Sc0 2.097359 1_555
F12 Sr1 2.537253 1_554
F12 Sr7 2.596041 1_555
F12 Sr3 2.648554 1_455
F13 Sc1 2.097359 1_555
F13 Sr0 2.537253 1_555
F13 Sr6 2.596041 1_555
F13 Sr2 2.648554 1_555
F14 Sc2 2.097359 1_555
F14 Sr3 2.537253 1_556
F14 Sr5 2.596041 1_555
F14 Sr1 2.648554 1_655
F15 Sc3 2.097359 1_555
F15 Sr2 2.537253 1_555
F15 Sr4 2.596041 1_555
F15 Sr0 2.648554 1_555
F16 Sc3 2.095477 1_555
F16 Sr1 2.487424 1_555
F16 Sr4 2.506038 1_555
F16 Sr7 2.635735 1_556
F17 Sc2 2.095477 1_555
F17 Sr0 2.487424 1_555
F17 Sr5 2.506038 1_555
F17 Sr6 2.635735 1_555
F18 Sc1 2.095477 1_555
F18 Sr3 2.487424 1_555
F18 Sr6 2.506038 1_555
F18 Sr5 2.635735 1_554
F19 Sc0 2.095477 1_555
F19 Sr2 2.487424 1_555
F19 Sr7 2.506038 1_555
F19 Sr4 2.635735 1_555
F20 Sc3 2.080702 1_555
F20 Sr0 2.446863 1_555
F20 Sr7 2.450803 1_556
F21 Sc2 2.080702 1_555
F21 Sr1 2.446863 1_655
F21 Sr6 2.450803 1_555
F22 Sc1 2.080702 1_555
F22 Sr2 2.446863 1_555
F22 Sr5 2.450803 1_554
F23 Sc0 2.080702 1_555
F23 Sr3 2.446863 1_455
F23 Sr4 2.450803 1_555
F24 Sc0 2.147747 1_555
F24 Sr3 2.551441 1_465
F24 Sr7 2.554540 1_565
F24 Sr1 2.572639 1_554
F25 Sc1 2.147747 1_555
F25 Sr2 2.551441 1_545
F25 Sr6 2.554540 1_545
F25 Sr0 2.572639 1_555
F26 Sc2 2.147747 1_555
F26 Sr1 2.551441 1_645
F26 Sr5 2.554540 1_545
F26 Sr3 2.572639 1_556
F27 Sc3 2.147747 1_555
F27 Sr0 2.551441 1_565
F27 Sr4 2.554540 1_565
F27 Sr2 2.572639 1_555
