# generated using pymatgen
data_Tb2NiAs2
_symmetry_space_group_name_H-M   'P 1'
_cell_length_a   4.13067433
_cell_length_b   4.13067433
_cell_length_c   14.22549900
_cell_angle_alpha   90.00000000
_cell_angle_beta   90.00000000
_cell_angle_gamma   120.00000529
_symmetry_Int_Tables_number   1
_chemical_formula_structural   Tb2NiAs2
_chemical_formula_sum   'Tb4 Ni2 As4'
_cell_volume   210.20354189
_cell_formula_units_Z   2
loop_
 _symmetry_equiv_pos_site_id
 _symmetry_equiv_pos_as_xyz
  1  'x, y, z'
loop_
 _atom_site_type_symbol
 _atom_site_label
 _atom_site_symmetry_multiplicity
 _atom_site_fract_x
 _atom_site_fract_y
 _atom_site_fract_z
 _atom_site_occupancy
  Tb  Tb0  1  0.66666700  0.33333300  0.61809600  1
  Tb  Tb1  1  0.33333300  0.66666700  0.11809600  1
  Tb  Tb2  1  0.66666700  0.33333300  0.35241800  1
  Tb  Tb3  1  0.33333300  0.66666700  0.85241800  1
  Ni  Ni0  1  0.00000000  0.00000000  0.99777100  1
  Ni  Ni1  1  0.00000000  0.00000000  0.49777100  1
  As  As0  1  0.66666700  0.33333300  0.98282700  1
  As  As1  1  0.33333300  0.66666700  0.48282700  1
  As  As2  1  0.00000000  0.00000000  0.73321900  1
  As  As3  1  0.00000000  0.00000000  0.23321900  1
loop_
_geom_bond_atom_site_label_1
_geom_bond_atom_site_label_2
_geom_bond_distance
_geom_bond_site_symmetry_2
Ni0 Tb1 2.935530 1_546
Ni0 Tb1 2.935533 1_446
Ni0 Tb1 2.935533 1_556
Ni0 Tb3 3.156413 1_545
Ni0 Tb3 3.156415 1_555
Ni0 Tb3 3.156415 1_445
Ni1 Tb0 2.935530 1_455
Ni1 Tb0 2.935533 1_445
Ni1 Tb0 2.935533 1_555
Ni1 Tb2 3.156413 1_455
Ni1 Tb2 3.156415 1_555
Ni1 Tb2 3.156415 1_445
As0 Ni0 2.394300 1_655
As0 Ni0 2.394303 1_665
As0 Ni0 2.394303 1_555
As0 Tb3 3.021423 1_545
As0 Tb3 3.021423 1_655
As0 Tb3 3.021429 1_555
As0 Tb1 3.064358 1_656
As0 Tb1 3.064358 1_546
As0 Tb1 3.064364 1_556
As1 Ni1 2.394300 1_565
As1 Ni1 2.394303 1_665
As1 Ni1 2.394303 1_555
As1 Tb2 3.021423 1_565
As1 Tb2 3.021423 1_455
As1 Tb2 3.021429 1_555
As1 Tb0 3.064358 1_455
As1 Tb0 3.064358 1_565
As1 Tb0 3.064364 1_555
As2 Tb0 2.893006 1_455
As2 Tb0 2.893008 1_445
As2 Tb0 2.893008 1_555
As2 Tb3 2.926219 1_545
As2 Tb3 2.926222 1_445
As2 Tb3 2.926222 1_555
As3 Tb1 2.893006 1_545
As3 Tb1 2.893008 1_555
As3 Tb1 2.893008 1_445
As3 Tb2 2.926219 1_455
As3 Tb2 2.926222 1_555
As3 Tb2 2.926222 1_445
