# generated using pymatgen
data_ZnS
_symmetry_space_group_name_H-M   'P 1'
_cell_length_a   13.93645273
_cell_length_b   13.03355895
_cell_length_c   13.19920060
_cell_angle_alpha   85.28834023
_cell_angle_beta   85.97948432
_cell_angle_gamma   93.31239479
_symmetry_Int_Tables_number   1
_chemical_formula_structural   ZnS
_chemical_formula_sum   'Zn50 S50'
_cell_volume   2378.66825854
_cell_formula_units_Z   50
loop_
 _symmetry_equiv_pos_site_id
 _symmetry_equiv_pos_as_xyz
  1  'x, y, z'
loop_
 _atom_site_type_symbol
 _atom_site_label
 _atom_site_symmetry_multiplicity
 _atom_site_fract_x
 _atom_site_fract_y
 _atom_site_fract_z
 _atom_site_occupancy
  Zn  Zn0  1  0.35062015  0.39241417  0.11547848  1
  Zn  Zn1  1  0.51478132  0.34278263  0.52460048  1
  Zn  Zn2  1  0.63628014  0.31524289  0.36805607  1
  Zn  Zn3  1  0.93153865  0.96766739  0.96648260  1
  Zn  Zn4  1  0.54671473  0.16298462  0.49260571  1
  Zn  Zn5  1  0.57535312  0.55276618  0.17484857  1
  Zn  Zn6  1  0.74273458  0.89642267  0.07867987  1
  Zn  Zn7  1  0.86140625  0.32555757  0.42649129  1
  Zn  Zn8  1  0.88300511  0.92654092  0.72960539  1
  Zn  Zn9  1  0.15655500  0.80190445  0.07941236  1
  Zn  Zn10  1  0.36455827  0.07651216  0.15294374  1
  Zn  Zn11  1  0.03571810  0.31450650  0.94647336  1
  Zn  Zn12  1  0.22825971  0.54052605  0.62684051  1
  Zn  Zn13  1  0.90344966  0.75635526  0.13786664  1
  Zn  Zn14  1  0.68962466  0.50977287  0.62452443  1
  Zn  Zn15  1  0.59706548  0.37969100  0.01607020  1
  Zn  Zn16  1  0.48926436  0.80402632  0.15842224  1
  Zn  Zn17  1  0.00775756  0.07108432  0.76401643  1
  Zn  Zn18  1  0.03015951  0.32076876  0.23092684  1
  Zn  Zn19  1  0.34021591  0.65034583  0.84580717  1
  Zn  Zn20  1  0.15423916  0.98679409  0.29433062  1
  Zn  Zn21  1  0.21066359  0.77098190  0.81974967  1
  Zn  Zn22  1  0.74973239  0.47705155  0.84957784  1
  Zn  Zn23  1  0.02630495  0.10852806  0.46543986  1
  Zn  Zn24  1  0.72835347  0.55397848  0.39082284  1
  Zn  Zn25  1  0.02866859  0.66370060  0.21454847  1
  Zn  Zn26  1  0.81815816  0.08957217  0.78077798  1
  Zn  Zn27  1  0.14865317  0.43134963  0.29148263  1
  Zn  Zn28  1  0.43879278  0.49947495  0.56211526  1
  Zn  Zn29  1  0.45220647  0.21208636  0.91591759  1
  Zn  Zn30  1  0.85796077  0.88131979  0.36085145  1
  Zn  Zn31  1  0.37447733  0.30223575  0.68725770  1
  Zn  Zn32  1  0.78168802  0.11930837  0.35964058  1
  Zn  Zn33  1  0.19010938  0.07840747  0.98363920  1
  Zn  Zn34  1  0.63775552  0.76404439  0.84973166  1
  Zn  Zn35  1  0.49441281  0.94325406  0.90778587  1
  Zn  Zn36  1  0.76494719  0.73697706  0.57845531  1
  Zn  Zn37  1  0.17144488  0.69518355  0.43886691  1
  Zn  Zn38  1  0.23531734  0.41228275  0.89673281  1
  Zn  Zn39  1  0.27665850  0.19094806  0.25780898  1
  Zn  Zn40  1  0.98069946  0.68015165  0.68853334  1
  Zn  Zn41  1  0.36048693  0.90257116  0.38701060  1
  Zn  Zn42  1  0.97895141  0.29249961  0.66605114  1
  Zn  Zn43  1  0.14694747  0.92968333  0.60383765  1
  Zn  Zn44  1  0.41999174  0.89460672  0.69311084  1
  Zn  Zn45  1  0.81723478  0.37510311  0.12274095  1
  Zn  Zn46  1  0.94031158  0.50389875  0.53862865  1
  Zn  Zn47  1  0.19840087  0.65283453  0.99874180  1
  Zn  Zn48  1  0.29491307  0.13811648  0.64120656  1
  Zn  Zn49  1  0.33438602  0.56047097  0.32464065  1
  S  S0  1  0.37075807  0.05338472  0.97025010  1
  S  S1  1  0.62834756  0.14428252  0.33361216  1
  S  S2  1  0.69023894  0.46050327  0.24729296  1
  S  S3  1  0.25991171  0.92670379  0.72514995  1
  S  S4  1  0.31686601  0.38203367  0.28910962  1
  S  S5  1  0.80911031  0.06676018  0.03969894  1
  S  S6  1  0.39575524  0.06964175  0.49886139  1
  S  S7  1  0.19695915  0.87702689  0.43236379  1
  S  S8  1  0.71590026  0.08429456  0.92175063  1
  S  S9  1  0.72906995  0.39027920  0.49925189  1
  S  S10  1  0.08869661  0.47270535  0.83628951  1
  S  S11  1  0.84914070  0.54396794  0.69278508  1
  S  S12  1  0.04354796  0.71930861  0.83971290  1
  S  S13  1  0.32707514  0.47102360  0.73921536  1
  S  S14  1  0.08712803  0.59816875  0.57651485  1
  S  S15  1  0.98013739  0.40247147  0.08025659  1
  S  S16  1  0.13062428  0.95752629  0.13288631  1
  S  S17  1  0.46524407  0.27936709  0.07219127  1
  S  S18  1  0.59066835  0.85107218  0.01486365  1
  S  S19  1  0.73050435  0.17103802  0.65461172  1
  S  S20  1  0.64437976  0.64208758  0.51127251  1
  S  S21  1  0.94876413  0.23167553  0.82264973  1
  S  S22  1  0.11098499  0.15339914  0.31352053  1
  S  S23  1  0.11151891  0.10921915  0.60965315  1
  S  S24  1  0.18639685  0.25642475  0.99247796  1
  S  S25  1  0.00332946  0.34394854  0.50385571  1
  S  S26  1  0.47517110  0.65158280  0.25557353  1
  S  S27  1  0.73962701  0.83395281  0.71079806  1
  S  S28  1  0.30951119  0.52442491  0.00198500  1
  S  S29  1  0.33415562  0.61811209  0.49129687  1
  S  S30  1  0.89565139  0.60341709  0.39033768  1
  S  S31  1  0.85470539  0.80570455  0.98022320  1
  S  S32  1  0.47298292  0.77459065  0.81341363  1
  S  S33  1  0.08440270  0.98700091  0.89198908  1
  S  S34  1  0.91193316  0.74145918  0.46598955  1
  S  S35  1  0.87456885  0.02013387  0.45447871  1
  S  S36  1  0.99268431  0.85172483  0.62557902  1
  S  S37  1  0.77517408  0.81472204  0.24076073  1
  S  S38  1  0.17409208  0.62053207  0.28576476  1
  S  S39  1  0.58891680  0.44859963  0.77253408  1
  S  S40  1  0.56275106  0.55317826  0.00004051  1
  S  S41  1  0.45981047  0.92643318  0.51831009  1
  S  S42  1  0.62429108  0.06392261  0.63236922  1
  S  S43  1  0.04435262  0.58272674  0.93305945  1
  S  S44  1  0.69687306  0.61957500  0.93814492  1
  S  S45  1  0.44205077  0.94328646  0.23507700  1
  S  S46  1  0.50646581  0.05549635  0.74915370  1
  S  S47  1  0.74680497  0.34086078  0.97435384  1
  S  S48  1  0.53353832  0.29426973  0.76242852  1
  S  S49  1  0.86540400  0.26368206  0.27180079  1
loop_
_geom_bond_atom_site_label_1
_geom_bond_atom_site_label_2
_geom_bond_distance
_geom_bond_site_symmetry_2
Zn1 Zn28 2.424880 1_555
Zn1 Zn4 2.474814 1_555
Zn1 Zn2 2.639483 1_555
Zn1 Zn31 2.795984 1_555
Zn18 Zn27 2.354243 1_555
Zn31 Zn48 2.491704 1_555
S0 Zn29 2.334965 1_555
S0 Zn35 2.447641 1_545
S0 Zn10 2.450802 1_556
S0 Zn33 2.553013 1_555
S1 Zn32 2.226165 1_555
S1 Zn2 2.308439 1_555
S1 Zn4 2.353524 1_555
S2 Zn5 2.274242 1_555
S2 Zn24 2.408527 1_555
S2 Zn2 2.421220 1_555
S2 Zn45 2.682222 1_555
S3 Zn44 2.309890 1_555
S3 Zn43 2.322554 1_555
S3 Zn21 2.334953 1_555
S3 Zn48 2.885388 1_565
S4 Zn0 2.298355 1_555
S4 Zn49 2.412040 1_555
S4 Zn27 2.465149 1_555
S4 Zn39 2.593767 1_555
S5 S8 2.103050 1_554
S5 Zn6 2.357450 1_545
S5 Zn3 2.396171 1_544
S6 Zn4 2.361443 1_555
S6 Zn48 2.520276 1_555
S6 Zn41 2.769293 1_545
S7 Zn41 2.313287 1_555
S7 Zn20 2.354354 1_555
S7 Zn37 2.369795 1_555
S7 Zn43 2.483678 1_555
S8 Zn26 2.256940 1_555
S9 Zn7 2.258285 1_555
S9 Zn14 2.419994 1_555
S9 Zn2 2.464455 1_555
S9 Zn24 2.470500 1_555
S9 Zn1 3.004348 1_555
S10 S43 2.088604 1_555
S10 Zn38 2.396538 1_555
S10 Zn11 2.468301 1_555
S11 Zn46 2.432293 1_555
S11 Zn40 2.471508 1_555
S11 Zn22 2.474829 1_555
S11 Zn14 2.486940 1_555
S12 S43 2.081116 1_555
S12 Zn40 2.317367 1_455
S12 Zn21 2.377137 1_555
S13 Zn12 2.264290 1_555
S13 Zn38 2.407620 1_555
S13 Zn31 2.469533 1_555
S13 Zn28 2.703034 1_555
S13 Zn19 2.828850 1_555
S14 Zn12 2.268537 1_555
S14 Zn37 2.330680 1_555
S14 Zn40 2.379714 1_455
S14 Zn46 2.429019 1_455
S15 Zn11 2.296962 1_654
S15 Zn45 2.300199 1_555
S15 Zn18 2.346759 1_655
S16 Zn20 2.238770 1_555
S16 Zn9 2.242080 1_555
S16 Zn33 2.482006 1_564
S17 Zn15 2.237397 1_555
S17 Zn0 2.309010 1_555
S17 Zn29 2.321197 1_554
S18 Zn16 2.301547 1_555
S18 Zn35 2.326736 1_554
S18 Zn6 2.395312 1_555
S18 Zn34 2.599910 1_554
S19 S42 2.028752 1_555
S19 Zn26 2.353197 1_555
S20 Zn36 2.299609 1_555
S20 Zn24 2.326002 1_555
S20 Zn14 2.332482 1_555
S21 Zn42 2.155961 1_555
S21 Zn11 2.391991 1_655
S21 Zn17 2.455932 1_655
S21 Zn26 2.639790 1_555
S22 Zn23 2.269666 1_555
S22 Zn20 2.315809 1_545
S22 Zn39 2.384006 1_555
S22 Zn18 2.698400 1_555
S23 Zn23 2.313507 1_555
S23 Zn17 2.413889 1_555
S23 Zn43 2.425478 1_545
S23 Zn48 2.628982 1_555
S24 Zn33 2.336045 1_555
S24 Zn38 2.342183 1_555
S24 Zn11 2.374547 1_555
S25 Zn42 2.187272 1_455
S25 Zn7 2.298034 1_455
S25 Zn46 2.374927 1_455
S26 Zn5 2.228908 1_555
S26 Zn16 2.265313 1_555
S26 Zn49 2.322274 1_555
S27 Zn36 2.258596 1_555
S27 Zn8 2.313164 1_555
S27 Zn34 2.328010 1_555
S28 Zn0 2.311600 1_555
S28 Zn38 2.344319 1_554
S28 Zn47 2.344717 1_554
S28 Zn19 2.522984 1_554
S29 Zn12 2.358271 1_555
S29 Zn28 2.367595 1_555
S29 Zn49 2.382016 1_555
S29 Zn37 2.645581 1_555
S30 S34 2.136672 1_555
S30 Zn24 2.382212 1_555
S30 Zn46 2.397489 1_555
S30 Zn25 2.892504 1_655
S31 Zn13 2.287709 1_556
S31 Zn3 2.298750 1_555
S31 Zn6 2.388140 1_556
S32 Zn44 2.324552 1_555
S32 Zn19 2.378612 1_555
S32 Zn34 2.387866 1_555
S32 Zn35 2.626673 1_555
S33 Zn3 2.274278 1_455
S33 Zn17 2.297680 1_565
S33 Zn33 2.310154 1_565
S34 Zn30 2.388250 1_555
S34 Zn36 2.439004 1_555
S35 Zn32 2.251239 1_555
S35 Zn30 2.283238 1_545
S35 Zn23 2.368289 1_655
S36 Zn8 2.295755 1_555
S36 Zn43 2.312986 1_655
S36 Zn40 2.313247 1_555
S37 Zn30 2.227977 1_555
S37 Zn13 2.367597 1_555
S37 Zn6 2.394173 1_555
S38 Zn37 2.312679 1_555
S38 Zn25 2.370581 1_555
S38 Zn27 2.464918 1_555
S38 Zn49 2.482614 1_555
S39 S48 2.130388 1_555
S39 Zn14 2.377484 1_555
S39 Zn22 2.545606 1_555
S40 S44 2.095943 1_554
S40 Zn5 2.325839 1_555
S40 Zn15 2.333847 1_555
S41 S6 2.119593 1_565
S41 Zn41 2.321946 1_555
S41 Zn44 2.332372 1_555
S42 S46 2.163552 1_555
S42 Zn4 2.507735 1_555
S43 Zn47 2.521928 1_555
S44 Zn34 2.353562 1_555
S44 Zn22 2.398757 1_555
S45 Zn41 2.243025 1_555
S45 Zn16 2.257749 1_555
S45 Zn10 2.329878 1_565
S46 Zn35 2.443662 1_545
S46 Zn44 2.546491 1_545
S47 Zn15 2.218312 1_556
S47 Zn45 2.315436 1_556
S47 Zn22 2.316643 1_555
S48 Zn29 2.391172 1_555
S48 Zn31 2.495453 1_555
S49 Zn7 2.254360 1_555
S49 Zn32 2.333335 1_555
S49 Zn18 2.383211 1_655
S49 Zn45 2.501799 1_555
