# generated using pymatgen
data_ThH2SO6
_symmetry_space_group_name_H-M   'P 1'
_cell_length_a   6.06587898
_cell_length_b   7.07422769
_cell_length_c   11.68077931
_cell_angle_alpha   90.00000000
_cell_angle_beta   90.00000000
_cell_angle_gamma   90.00000000
_symmetry_Int_Tables_number   1
_chemical_formula_structural   ThH2SO6
_chemical_formula_sum   'Th4 H8 S4 O24'
_cell_volume   501.23869893
_cell_formula_units_Z   4
loop_
 _symmetry_equiv_pos_site_id
 _symmetry_equiv_pos_as_xyz
  1  'x, y, z'
loop_
 _atom_site_type_symbol
 _atom_site_label
 _atom_site_symmetry_multiplicity
 _atom_site_fract_x
 _atom_site_fract_y
 _atom_site_fract_z
 _atom_site_occupancy
  Th  Th0  1  0.25000000  0.35184200  0.56338584  1
  Th  Th1  1  0.25000000  0.14815800  0.06338584  1
  Th  Th2  1  0.75000000  0.64815800  0.43661416  1
  Th  Th3  1  0.75000000  0.85184200  0.93661416  1
  H  H0  1  0.01652521  0.33143559  0.33855522  1
  H  H1  1  0.48347479  0.16856441  0.83855522  1
  H  H2  1  0.51652521  0.66856441  0.66144478  1
  H  H3  1  0.98347479  0.83143559  0.16144478  1
  H  H4  1  0.98347479  0.66856441  0.66144478  1
  H  H5  1  0.51652521  0.83143559  0.16144478  1
  H  H6  1  0.48347479  0.33143559  0.33855522  1
  H  H7  1  0.01652521  0.16856441  0.83855522  1
  S  S0  1  0.25000000  0.94680009  0.36130530  1
  S  S1  1  0.25000000  0.55319991  0.86130530  1
  S  S2  1  0.75000000  0.05319991  0.63869470  1
  S  S3  1  0.75000000  0.44680009  0.13869470  1
  O  O0  1  0.25000000  0.03469227  0.47466596  1
  O  O1  1  0.25000000  0.46530773  0.97466596  1
  O  O2  1  0.75000000  0.96530773  0.52533404  1
  O  O3  1  0.75000000  0.53469227  0.02533404  1
  O  O4  1  0.94766430  0.17152876  0.65420673  1
  O  O5  1  0.55233570  0.32847124  0.15420673  1
  O  O6  1  0.44766430  0.82847124  0.34579327  1
  O  O7  1  0.05233570  0.67152876  0.84579327  1
  O  O8  1  0.05233570  0.82847124  0.34579327  1
  O  O9  1  0.44766430  0.67152876  0.84579327  1
  O  O10  1  0.55233570  0.17152876  0.65420673  1
  O  O11  1  0.94766430  0.32847124  0.15420673  1
  O  O12  1  0.25000000  0.40404102  0.77296927  1
  O  O13  1  0.25000000  0.09595898  0.27296927  1
  O  O14  1  0.75000000  0.59595898  0.22703073  1
  O  O15  1  0.75000000  0.90404102  0.72703073  1
  O  O16  1  0.00161721  0.39642304  0.41129765  1
  O  O17  1  0.49838279  0.10357696  0.91129765  1
  O  O18  1  0.50161721  0.60357696  0.58870235  1
  O  O19  1  0.99838279  0.89642304  0.08870235  1
  O  O20  1  0.99838279  0.60357696  0.58870235  1
  O  O21  1  0.50161721  0.89642304  0.08870235  1
  O  O22  1  0.49838279  0.39642304  0.41129765  1
  O  O23  1  0.00161721  0.10357696  0.91129765  1
loop_
_geom_bond_atom_site_label_1
_geom_bond_atom_site_label_2
_geom_bond_distance
_geom_bond_site_symmetry_2
H0 O16 0.970312 1_555
H1 O17 0.970312 1_555
H2 O18 0.970312 1_555
H3 O19 0.970312 1_555
H4 O20 0.970312 1_555
H5 O21 0.970312 1_555
H6 O22 0.970312 1_555
H7 O23 0.970312 1_555
O0 S0 1.462855 1_545
O0 Th0 2.471365 1_555
O1 S1 1.462855 1_555
O1 Th1 2.471365 1_556
O2 S2 1.462855 1_565
O2 Th2 2.471365 1_555
O3 S3 1.462855 1_555
O3 Th3 2.471365 1_554
O4 S2 1.473486 1_555
O4 Th0 2.473019 1_655
O5 S3 1.473486 1_555
O5 Th1 2.473019 1_555
O6 S0 1.473486 1_555
O6 Th2 2.473019 1_555
O7 S1 1.473486 1_555
O7 Th3 2.473019 1_455
O8 S0 1.473486 1_555
O8 Th2 2.473019 1_455
O9 S1 1.473486 1_555
O9 Th3 2.473019 1_555
O10 S2 1.473486 1_555
O10 Th0 2.473019 1_555
O11 S3 1.473486 1_555
O11 Th1 2.473019 1_655
O12 S1 1.475837 1_555
O12 Th0 2.475791 1_555
O13 S0 1.475837 1_545
O13 Th1 2.475791 1_555
O14 S3 1.475837 1_555
O14 Th2 2.475791 1_555
O15 S2 1.475837 1_565
O15 Th3 2.475791 1_555
O16 Th0 2.350632 1_555
O16 Th2 2.363966 1_455
O17 Th1 2.350632 1_556
O17 Th3 2.363966 1_545
O18 Th2 2.350632 1_555
O18 Th0 2.363966 1_555
O19 Th3 2.350632 1_554
O19 Th1 2.363966 1_665
O20 Th2 2.350632 1_555
O20 Th0 2.363966 1_655
O21 Th3 2.350632 1_554
O21 Th1 2.363966 1_565
O22 Th0 2.350632 1_555
O22 Th2 2.363966 1_555
O23 Th1 2.350632 1_556
O23 Th3 2.363966 1_445
