# generated using pymatgen
data_Rb7GdFe6(P4O17)2
_symmetry_space_group_name_H-M   'P 1'
_cell_length_a   9.30359266
_cell_length_b   9.88326351
_cell_length_c   10.01771166
_cell_angle_alpha   92.15063001
_cell_angle_beta   93.96891510
_cell_angle_gamma   116.09424166
_symmetry_Int_Tables_number   1
_chemical_formula_structural   Rb7GdFe6(P4O17)2
_chemical_formula_sum   'Rb7 Gd1 Fe6 P8 O34'
_cell_volume   822.87593505
_cell_formula_units_Z   1
loop_
 _symmetry_equiv_pos_site_id
 _symmetry_equiv_pos_as_xyz
  1  'x, y, z'
loop_
 _atom_site_type_symbol
 _atom_site_label
 _atom_site_symmetry_multiplicity
 _atom_site_fract_x
 _atom_site_fract_y
 _atom_site_fract_z
 _atom_site_occupancy
  Rb  Rb0  1  0.07342094  0.20825358  0.34039987  1
  Rb  Rb1  1  0.92657906  0.79174642  0.65960013  1
  Rb  Rb2  1  0.62585687  0.97470514  0.37432984  1
  Rb  Rb3  1  0.37414313  0.02529486  0.62567016  1
  Rb  Rb4  1  0.67896008  0.43960979  0.91164486  1
  Rb  Rb5  1  0.32103992  0.56039021  0.08835514  1
  Rb  Rb6  1  0.50000000  -0.00000000  0.00000000  1
  Gd  Gd0  1  0.50000000  0.50000000  0.50000000  1
  Fe  Fe0  1  0.15621438  0.10680356  0.96565063  1
  Fe  Fe1  1  0.84378562  0.89319644  0.03434937  1
  Fe  Fe2  1  0.83280979  0.09282930  0.75239612  1
  Fe  Fe3  1  0.16719021  0.90717070  0.24760388  1
  Fe  Fe4  1  0.84397621  0.42281139  0.27610000  1
  Fe  Fe5  1  0.15602379  0.57718861  0.72390000  1
  P  P0  1  0.78844892  0.33085990  0.56884512  1
  P  P1  1  0.21155108  0.66914010  0.43115488  1
  P  P2  1  0.19403687  0.26613001  0.69314457  1
  P  P3  1  0.80596313  0.73386999  0.30685543  1
  P  P4  1  0.91077387  0.23290661  0.03667788  1
  P  P5  1  0.08922613  0.76709339  0.96332212  1
  P  P6  1  0.55731782  0.75493572  0.78339980  1
  P  P7  1  0.44268218  0.24506428  0.21660020  1
  O  O0  1  0.37410421  0.21979968  0.06822964  1
  O  O1  1  0.62589579  0.78020032  0.93177036  1
  O  O2  1  0.83679463  0.30523827  0.42847785  1
  O  O3  1  0.16320537  0.69476173  0.57152215  1
  O  O4  1  0.01554469  0.16041840  0.64397657  1
  O  O5  1  0.98445531  0.83958160  0.35602343  1
  O  O6  1  0.17877437  0.91291252  0.89296917  1
  O  O7  1  0.82122563  0.08708748  0.10703083  1
  O  O8  1  0.25717368  0.19335918  0.79976036  1
  O  O9  1  0.74282632  0.80664082  0.20023964  1
  O  O10  1  0.93140877  0.00478508  0.87523781  1
  O  O11  1  0.06859123  0.99521492  0.12476219  1
  O  O12  1  0.21155938  0.41782664  0.75425244  1
  O  O13  1  0.78844062  0.58217336  0.24574756  1
  O  O14  1  0.08681802  0.26722823  0.02546450  1
  O  O15  1  0.91318198  0.73277177  0.97453550  1
  O  O16  1  0.61782543  0.27212308  0.21677974  1
  O  O17  1  0.38217457  0.72787692  0.78322026  1
  O  O18  1  0.29225636  0.29027516  0.57250517  1
  O  O19  1  0.70774364  0.70972484  0.42749483  1
  O  O20  1  0.71476275  0.17487626  0.62684568  1
  O  O21  1  0.28523725  0.82512374  0.37315432  1
  O  O22  1  0.66227986  0.39040542  0.55356254  1
  O  O23  1  0.33772014  0.60959458  0.44643746  1
  O  O24  1  0.81672376  0.21866718  0.89844574  1
  O  O25  1  0.18327624  0.78133282  0.10155426  1
  O  O26  1  0.91236048  0.36896029  0.11693597  1
  O  O27  1  0.08763952  0.63103971  0.88306403  1
  O  O28  1  0.57721139  0.62573173  0.71186441  1
  O  O29  1  0.42278861  0.37426827  0.28813559  1
  O  O30  1  0.64553865  0.90109468  0.70959558  1
  O  O31  1  0.35446135  0.09890532  0.29040442  1
  O  O32  1  0.93235048  0.44209690  0.66090404  1
  O  O33  1  0.06764952  0.55790310  0.33909596  1
loop_
_geom_bond_atom_site_label_1
_geom_bond_atom_site_label_2
_geom_bond_distance
_geom_bond_site_symmetry_2
Gd0 O23 2.260675 1_555
Gd0 O22 2.260675 1_555
Gd0 O19 2.311408 1_555
Gd0 O18 2.311408 1_555
Gd0 O28 2.317431 1_555
Gd0 O29 2.317431 1_555
Fe0 O11 1.985548 1_546
Fe0 O8 1.997924 1_555
Fe0 O10 2.006352 1_455
Fe0 O0 2.011592 1_556
Fe0 O14 2.042675 1_556
Fe0 O6 2.125219 1_545
Fe1 O10 1.985548 1_564
Fe1 O9 1.997924 1_555
Fe1 O11 2.006352 1_655
Fe1 O1 2.011592 1_554
Fe1 O15 2.042675 1_554
Fe1 O7 2.125219 1_565
Fe2 O10 1.933733 1_555
Fe2 O30 1.934303 1_545
Fe2 O24 1.940940 1_555
Fe2 O4 1.956325 1_655
Fe2 O20 2.028390 1_555
Fe3 O11 1.933733 1_555
Fe3 O31 1.934303 1_565
Fe3 O25 1.940940 1_555
Fe3 O5 1.956325 1_455
Fe3 O21 2.028390 1_555
Fe4 O13 1.889488 1_555
Fe4 O26 1.898671 1_555
Fe4 O2 1.940052 1_555
Fe4 O33 1.955022 1_655
Fe4 O16 2.000493 1_555
Fe5 O12 1.889488 1_555
Fe5 O27 1.898671 1_555
Fe5 O3 1.940052 1_555
Fe5 O32 1.955022 1_455
Fe5 O17 2.000493 1_555
O0 P7 1.542508 1_555
O0 Rb6 2.965779 1_555
O0 Rb4 3.267371 1_554
O1 P6 1.542508 1_555
O1 Rb6 2.965779 1_566
O1 Rb5 3.267371 1_556
O2 P0 1.550723 1_555
O2 Rb0 2.933516 1_655
O2 Rb2 2.982811 1_545
O3 P1 1.550723 1_555
O3 Rb1 2.933516 1_455
O3 Rb3 2.982811 1_565
O4 P2 1.553613 1_555
O4 Rb0 3.142078 1_555
O4 Rb1 3.375452 1_445
O5 P3 1.553613 1_555
O5 Rb1 3.142078 1_555
O5 Rb0 3.375452 1_665
O6 P5 1.539173 1_555
O6 Rb6 2.836586 1_566
O6 Rb1 2.993911 1_455
O6 Rb3 3.290692 1_565
O7 P4 1.539173 1_555
O7 Rb6 2.836586 1_555
O7 Rb0 2.993911 1_655
O7 Rb2 3.290692 1_545
O8 P2 1.531495 1_555
O8 Rb3 2.936014 1_555
O9 P3 1.531495 1_555
O9 Rb2 2.936014 1_555
O10 Rb1 2.943406 1_545
O11 Rb0 2.943406 1_565
O12 P2 1.533422 1_555
O13 P3 1.533422 1_555
O14 P4 1.532907 1_455
O14 Rb5 2.767509 1_555
O14 Rb0 3.230696 1_555
O15 P5 1.532907 1_655
O15 Rb4 2.767509 1_555
O15 Rb1 3.230696 1_555
O16 P7 1.530648 1_555
O16 Rb6 3.128813 1_555
O16 Rb2 3.414982 1_545
O17 P6 1.530648 1_555
O17 Rb6 3.128813 1_566
O17 Rb3 3.414982 1_565
O18 P2 1.528138 1_555
O18 Rb0 2.821343 1_555
O18 Rb3 3.086453 1_555
O19 P3 1.528138 1_555
O19 Rb1 2.821343 1_555
O19 Rb2 3.086453 1_555
O20 P0 1.541701 1_555
O20 Rb3 2.846118 1_555
O20 Rb2 2.981992 1_545
O21 P1 1.541701 1_555
O21 Rb2 2.846118 1_555
O21 Rb3 2.981992 1_565
O22 P0 1.528798 1_555
O23 P1 1.528798 1_555
O24 P4 1.553170 1_556
O24 Rb4 2.982003 1_555
O24 Rb6 3.060443 1_556
O25 P5 1.553170 1_554
O25 Rb5 2.982003 1_555
O25 Rb6 3.060443 1_565
O26 P4 1.534434 1_555
O26 Rb4 3.202434 1_554
O26 Rb0 3.416948 1_655
O27 P5 1.534434 1_555
O27 Rb5 3.202434 1_556
O27 Rb1 3.416948 1_455
O28 P6 1.528401 1_555
O28 Rb1 3.023195 1_555
O28 Rb4 3.135456 1_555
O29 P7 1.528401 1_555
O29 Rb0 3.023195 1_555
O29 Rb5 3.135456 1_555
O30 P6 1.558246 1_555
O30 Rb1 3.298761 1_555
O30 Rb3 3.331533 1_565
O30 Rb2 3.472522 1_555
O31 P7 1.558246 1_555
O31 Rb0 3.298761 1_555
O31 Rb2 3.331533 1_545
O31 Rb3 3.472522 1_555
O32 P0 1.519778 1_555
O32 Rb1 3.480127 1_555
O33 P1 1.519778 1_555
O33 Rb0 3.480127 1_555
