# generated using pymatgen
data_HfMg14V
_symmetry_space_group_name_H-M   'P 1'
_cell_length_a   6.36861332
_cell_length_b   6.23451829
_cell_length_c   10.18761451
_cell_angle_alpha   90.00000000
_cell_angle_beta   90.00000000
_cell_angle_gamma   119.30590171
_symmetry_Int_Tables_number   1
_chemical_formula_structural   HfMg14V
_chemical_formula_sum   'Hf1 Mg14 V1'
_cell_volume   352.73305946
_cell_formula_units_Z   1
loop_
 _symmetry_equiv_pos_site_id
 _symmetry_equiv_pos_as_xyz
  1  'x, y, z'
loop_
 _atom_site_type_symbol
 _atom_site_label
 _atom_site_symmetry_multiplicity
 _atom_site_fract_x
 _atom_site_fract_y
 _atom_site_fract_z
 _atom_site_occupancy
  Hf  Hf0  1  0.16347247  0.83173574  0.12500000  1
  Mg  Mg0  1  0.16558181  0.33279040  0.62500000  1
  Mg  Mg1  1  0.16684574  0.83342237  0.62500000  1
  Mg  Mg2  1  0.66150933  0.33491995  0.12500000  1
  Mg  Mg3  1  0.66524277  0.33155573  0.62500000  1
  Mg  Mg4  1  0.66150933  0.82658838  0.12500000  1
  Mg  Mg5  1  0.66524277  0.83368604  0.62500000  1
  Mg  Mg6  1  0.32975531  0.16647677  0.36971517  1
  Mg  Mg7  1  0.32975531  0.16647677  0.88028483  1
  Mg  Mg8  1  0.32975531  0.66327955  0.36971517  1
  Mg  Mg9  1  0.32975531  0.66327955  0.88028483  1
  Mg  Mg10  1  0.84222898  0.17111499  0.36715474  1
  Mg  Mg11  1  0.84222898  0.17111499  0.88284526  1
  Mg  Mg12  1  0.84038534  0.67019317  0.37502291  1
  Mg  Mg13  1  0.84038534  0.67019317  0.87497709  1
  V  V0  1  0.16634586  0.33317243  0.12500000  1
loop_
_geom_bond_atom_site_label_1
_geom_bond_atom_site_label_2
_geom_bond_distance
_geom_bond_site_symmetry_2
Hf0 Mg8 3.086846 1_555
Hf0 Mg9 3.086846 1_554
Hf0 Mg7 3.086853 1_564
Hf0 Mg6 3.086853 1_565
Hf0 Mg13 3.115662 1_454
Hf0 Mg12 3.115662 1_455
Hf0 V0 3.117300 1_565
Hf0 V0 3.117300 1_555
Hf0 Mg2 3.181224 1_455
Hf0 Mg4 3.181224 1_455
Hf0 Mg2 3.187635 1_565
Hf0 Mg4 3.187635 1_555
Mg0 Mg1 3.117267 1_545
Mg0 Mg1 3.117267 1_555
Mg0 Mg6 3.161247 1_555
Mg0 Mg7 3.161247 1_555
Mg0 Mg8 3.161253 1_555
Mg0 Mg9 3.161253 1_555
Mg0 Mg10 3.181975 1_455
Mg0 Mg11 3.181975 1_455
Mg0 Mg5 3.182705 1_445
Mg0 Mg3 3.182705 1_455
Mg0 Mg5 3.185922 1_555
Mg0 Mg3 3.185922 1_555
Mg1 Mg13 3.126108 1_455
Mg1 Mg12 3.126108 1_455
Mg1 Mg8 3.169049 1_555
Mg1 Mg9 3.169049 1_555
Mg1 Mg6 3.169055 1_565
Mg1 Mg7 3.169055 1_565
Mg1 Mg3 3.173293 1_565
Mg1 Mg5 3.173294 1_555
Mg1 Mg3 3.195320 1_455
Mg1 Mg5 3.195320 1_455
Mg2 Mg4 3.065316 1_555
Mg2 Mg6 3.100017 1_555
Mg2 Mg7 3.100017 1_554
Mg2 V0 3.148186 1_555
Mg2 Mg4 3.169202 1_545
Mg2 V0 3.220455 1_655
Mg3 Mg5 3.103978 1_545
Mg3 Mg5 3.130541 1_555
Mg3 Mg6 3.199290 1_555
Mg3 Mg7 3.199290 1_555
Mg4 Mg9 3.100018 1_554
Mg4 Mg8 3.100018 1_555
Mg4 V0 3.148186 1_555
Mg4 V0 3.220455 1_665
Mg5 Mg8 3.199290 1_555
Mg5 Mg9 3.199290 1_555
Mg6 V0 3.072013 1_555
Mg6 Mg8 3.097326 1_555
Mg6 Mg8 3.137192 1_545
Mg7 V0 3.072013 1_556
Mg7 Mg9 3.097326 1_555
Mg7 Mg9 3.137192 1_545
Mg8 V0 3.072020 1_555
Mg9 V0 3.072020 1_556
Mg10 V0 3.053848 1_655
Mg10 Mg2 3.099066 1_555
Mg10 Mg4 3.099073 1_545
Mg10 Mg12 3.118306 1_545
Mg10 Mg12 3.118306 1_555
Mg10 Mg8 3.119232 1_655
Mg10 Mg6 3.119232 1_655
Mg10 Mg3 3.205460 1_555
Mg10 Mg5 3.205466 1_545
Mg10 Mg8 3.249795 1_545
Mg10 Mg6 3.249795 1_555
Mg11 V0 3.053848 1_656
Mg11 Mg2 3.099066 1_556
Mg11 Mg4 3.099073 1_546
Mg11 Mg13 3.118306 1_545
Mg11 Mg13 3.118306 1_555
Mg11 Mg9 3.119232 1_655
Mg11 Mg7 3.119232 1_655
Mg11 Mg3 3.205460 1_555
Mg11 Mg5 3.205466 1_545
Mg11 Mg9 3.249795 1_545
Mg11 Mg7 3.249795 1_555
Mg12 Mg4 3.134289 1_555
Mg12 Mg2 3.134295 1_555
Mg12 Mg6 3.138397 1_665
Mg12 Mg8 3.138397 1_655
Mg12 Mg5 3.143510 1_555
Mg12 Mg3 3.143516 1_555
Mg12 Mg6 3.231578 1_555
Mg12 Mg8 3.231578 1_555
Mg13 Mg4 3.134289 1_556
Mg13 Mg2 3.134295 1_556
Mg13 Mg7 3.138397 1_665
Mg13 Mg9 3.138397 1_655
Mg13 Mg5 3.143510 1_555
Mg13 Mg3 3.143516 1_555
Mg13 Mg7 3.231578 1_555
Mg13 Mg9 3.231578 1_555
