# generated using pymatgen
data_SmSiPd2
_symmetry_space_group_name_H-M   'P 1'
_cell_length_a   5.62327477
_cell_length_b   6.91652696
_cell_length_c   7.46257377
_cell_angle_alpha   90.00000000
_cell_angle_beta   90.00000000
_cell_angle_gamma   90.00000000
_symmetry_Int_Tables_number   1
_chemical_formula_structural   SmSiPd2
_chemical_formula_sum   'Sm4 Si4 Pd8'
_cell_volume   290.24584837
_cell_formula_units_Z   4
loop_
 _symmetry_equiv_pos_site_id
 _symmetry_equiv_pos_as_xyz
  1  'x, y, z'
loop_
 _atom_site_type_symbol
 _atom_site_label
 _atom_site_symmetry_multiplicity
 _atom_site_fract_x
 _atom_site_fract_y
 _atom_site_fract_z
 _atom_site_occupancy
  Sm  Sm0  1  0.35482400  0.75000000  0.03074933  1
  Sm  Sm1  1  0.14517600  0.75000000  0.53074933  1
  Sm  Sm2  1  0.64517600  0.25000000  0.96925067  1
  Sm  Sm3  1  0.85482400  0.25000000  0.46925067  1
  Si  Si0  1  0.64671504  0.75000000  0.37569727  1
  Si  Si1  1  0.85328496  0.75000000  0.87569727  1
  Si  Si2  1  0.35328496  0.25000000  0.62430273  1
  Si  Si3  1  0.14671504  0.25000000  0.12430273  1
  Pd  Pd0  1  0.90701233  0.55216872  0.17505008  1
  Pd  Pd1  1  0.59298767  0.94783128  0.67505008  1
  Pd  Pd2  1  0.09298767  0.05216872  0.82494992  1
  Pd  Pd3  1  0.40701233  0.44783128  0.32494992  1
  Pd  Pd4  1  0.09298767  0.44783128  0.82494992  1
  Pd  Pd5  1  0.40701233  0.05216872  0.32494992  1
  Pd  Pd6  1  0.90701233  0.94783128  0.17505008  1
  Pd  Pd7  1  0.59298767  0.55216872  0.67505008  1
loop_
_geom_bond_atom_site_label_1
_geom_bond_atom_site_label_2
_geom_bond_distance
_geom_bond_site_symmetry_2
Si0 Sm1 3.032419 1_655
Si0 Sm1 3.048425 1_555
Si0 Sm0 3.052973 1_555
Si1 Sm0 3.032419 1_556
Si1 Sm0 3.048425 1_656
Si1 Sm1 3.052973 1_655
Si2 Sm3 3.032419 1_455
Si2 Sm3 3.048425 1_555
Si2 Sm2 3.052973 1_555
Si3 Sm2 3.032419 1_554
Si3 Sm2 3.048425 1_454
Si3 Sm3 3.052973 1_455
Pd0 Si0 2.501357 1_555
Pd0 Si3 2.515594 1_655
Pd0 Si1 2.637051 1_554
Pd0 Pd6 2.736611 1_555
Pd0 Pd4 2.905235 1_654
Pd0 Sm2 2.982362 1_554
Pd0 Sm3 3.045364 1_555
Pd0 Sm0 3.061543 1_655
Pd0 Pd3 3.110858 1_655
Pd0 Pd3 3.110858 1_555
Pd0 Sm1 3.272902 1_655
Pd0 Sm0 3.559995 1_555
Pd1 Si1 2.501357 1_555
Pd1 Si2 2.515594 1_565
Pd1 Si0 2.637051 1_555
Pd1 Pd7 2.736611 1_555
Pd1 Pd5 2.905235 1_565
Pd1 Sm3 2.982362 1_565
Pd1 Sm2 3.045364 1_565
Pd1 Sm1 3.061543 1_555
Pd1 Pd2 3.110858 1_565
Pd1 Pd2 3.110858 1_665
Pd1 Sm0 3.272902 1_556
Pd1 Sm1 3.559995 1_655
Pd2 Si2 2.501357 1_555
Pd2 Si1 2.515594 1_445
Pd2 Si3 2.637051 1_556
Pd2 Pd4 2.736611 1_555
Pd2 Pd6 2.905235 1_446
Pd2 Sm0 2.982362 1_546
Pd2 Sm1 3.045364 1_545
Pd2 Sm2 3.061543 1_455
Pd2 Sm3 3.272902 1_455
Pd2 Sm2 3.559995 1_555
Pd3 Si3 2.501357 1_555
Pd3 Si0 2.515594 1_555
Pd3 Si2 2.637051 1_555
Pd3 Pd5 2.736611 1_555
Pd3 Pd7 2.905235 1_555
Pd3 Sm1 2.982362 1_555
Pd3 Sm0 3.045364 1_555
Pd3 Sm3 3.061543 1_555
Pd3 Sm2 3.272902 1_554
Pd3 Sm3 3.559995 1_455
Pd4 Si2 2.501357 1_555
Pd4 Si1 2.515594 1_455
Pd4 Si3 2.637051 1_556
Pd4 Sm0 2.982362 1_556
Pd4 Sm1 3.045364 1_555
Pd4 Sm2 3.061543 1_455
Pd4 Pd7 3.110858 1_455
Pd4 Pd7 3.110858 1_555
Pd4 Sm3 3.272902 1_455
Pd4 Sm2 3.559995 1_555
Pd5 Si3 2.501357 1_555
Pd5 Si0 2.515594 1_545
Pd5 Si2 2.637051 1_555
Pd5 Sm1 2.982362 1_545
Pd5 Sm0 3.045364 1_545
Pd5 Sm3 3.061543 1_555
Pd5 Pd6 3.110858 1_445
Pd5 Pd6 3.110858 1_545
Pd5 Sm2 3.272902 1_554
Pd5 Sm3 3.559995 1_455
Pd6 Si0 2.501357 1_555
Pd6 Si3 2.515594 1_665
Pd6 Si1 2.637051 1_554
Pd6 Sm2 2.982362 1_564
Pd6 Sm3 3.045364 1_565
Pd6 Sm0 3.061543 1_655
Pd6 Sm1 3.272902 1_655
Pd6 Sm0 3.559995 1_555
Pd7 Si1 2.501357 1_555
Pd7 Si2 2.515594 1_555
Pd7 Si0 2.637051 1_555
Pd7 Sm3 2.982362 1_555
Pd7 Sm2 3.045364 1_555
Pd7 Sm1 3.061543 1_555
Pd7 Sm0 3.272902 1_556
Pd7 Sm1 3.559995 1_655
