# generated using pymatgen
data_K2RuCl5O
_symmetry_space_group_name_H-M   'P 1'
_cell_length_a   10.07236454
_cell_length_b   10.07236454
_cell_length_c   10.07236454
_cell_angle_alpha   137.34779129
_cell_angle_beta   137.34779129
_cell_angle_gamma   61.90336935
_symmetry_Int_Tables_number   1
_chemical_formula_structural   K2RuCl5O
_chemical_formula_sum   'K4 Ru2 Cl10 O2'
_cell_volume   463.62649383
_cell_formula_units_Z   2
loop_
 _symmetry_equiv_pos_site_id
 _symmetry_equiv_pos_as_xyz
  1  'x, y, z'
loop_
 _atom_site_type_symbol
 _atom_site_label
 _atom_site_symmetry_multiplicity
 _atom_site_fract_x
 _atom_site_fract_y
 _atom_site_fract_z
 _atom_site_occupancy
  K  K0  1  0.00000000  0.50000000  0.50000000  1
  K  K1  1  0.50000000  0.00000000  0.50000000  1
  K  K2  1  0.75000000  0.25000000  0.50000000  1
  K  K3  1  0.25000000  0.75000000  0.50000000  1
  Ru  Ru0  1  0.89578700  0.89578700  0.00000000  1
  Ru  Ru1  1  0.10421300  0.10421300  0.00000000  1
  Cl  Cl0  1  0.76045900  0.76045900  0.00000000  1
  Cl  Cl1  1  0.23954100  0.23954100  0.00000000  1
  Cl  Cl2  1  0.11928300  0.11928300  0.46259800  1
  Cl  Cl3  1  0.65668500  0.65668500  0.53740200  1
  Cl  Cl4  1  0.11928300  0.65668500  0.00000000  1
  Cl  Cl5  1  0.65668500  0.11928300  0.00000000  1
  Cl  Cl6  1  0.88071700  0.88071700  0.53740200  1
  Cl  Cl7  1  0.34331500  0.34331500  0.46259800  1
  Cl  Cl8  1  0.88071700  0.34331500  0.00000000  1
  Cl  Cl9  1  0.34331500  0.88071700  0.00000000  1
  O  O0  1  0.00000000  0.00000000  0.00000000  1
  O  O1  1  0.50000000  0.50000000  0.00000000  1
loop_
_geom_bond_atom_site_label_1
_geom_bond_atom_site_label_2
_geom_bond_distance
_geom_bond_site_symmetry_2
Cl0 Ru0 2.337946 1_555
Cl0 K2 3.667528 1_565
Cl0 K3 3.667528 1_655
Cl0 K3 3.667528 1_554
Cl0 K2 3.667528 1_554
Cl1 Ru1 2.337946 1_555
Cl1 K3 3.667528 1_555
Cl1 K2 3.667528 1_454
Cl1 K3 3.667528 1_544
Cl1 K2 3.667528 1_555
Cl2 Ru0 2.400217 1_445
Cl2 K1 3.239076 1_555
Cl2 K0 3.239076 1_555
Cl2 K2 3.525514 1_455
Cl2 K3 3.525514 1_545
Cl3 Ru0 2.400217 1_556
Cl3 K1 3.239076 1_565
Cl3 K0 3.239076 1_655
Cl3 K3 3.525514 1_555
Cl3 K2 3.525514 1_555
Cl4 Ru0 2.400217 1_455
Cl4 K1 3.239076 1_565
Cl4 K0 3.239076 1_554
Cl4 K3 3.525514 1_555
Cl4 K2 3.525514 1_454
Cl5 Ru0 2.400217 1_545
Cl5 K0 3.239076 1_655
Cl5 K1 3.239076 1_554
Cl5 K3 3.525514 1_544
Cl5 K2 3.525514 1_555
Cl6 Ru1 2.400217 1_666
Cl6 K0 3.239076 1_655
Cl6 K1 3.239076 1_565
Cl6 K3 3.525514 1_655
Cl6 K2 3.525514 1_565
Cl7 Ru1 2.400217 1_555
Cl7 K1 3.239076 1_555
Cl7 K0 3.239076 1_555
Cl7 K2 3.525514 1_555
Cl7 K3 3.525514 1_555
Cl8 Ru1 2.400217 1_655
Cl8 K0 3.239076 1_655
Cl8 K1 3.239076 1_554
Cl8 K3 3.525514 1_655
Cl8 K2 3.525514 1_554
Cl9 Ru1 2.400217 1_565
Cl9 K0 3.239076 1_554
Cl9 K1 3.239076 1_565
Cl9 K3 3.525514 1_554
Cl9 K2 3.525514 1_565
O0 Ru0 1.800399 1_445
O0 Ru1 1.800399 1_555
