# generated using pymatgen
data_TmS2
_symmetry_space_group_name_H-M   'P 1'
_cell_length_a   3.80731045
_cell_length_b   3.80731045
_cell_length_c   7.83111204
_cell_angle_alpha   90.00000000
_cell_angle_beta   90.00000000
_cell_angle_gamma   90.00000000
_symmetry_Int_Tables_number   1
_chemical_formula_structural   TmS2
_chemical_formula_sum   'Tm2 S4'
_cell_volume   113.51676842
_cell_formula_units_Z   2
loop_
 _symmetry_equiv_pos_site_id
 _symmetry_equiv_pos_as_xyz
  1  'x, y, z'
loop_
 _atom_site_type_symbol
 _atom_site_label
 _atom_site_symmetry_multiplicity
 _atom_site_fract_x
 _atom_site_fract_y
 _atom_site_fract_z
 _atom_site_occupancy
  Tm  Tm0  1  0.00000000  0.50000000  0.72666422  1
  Tm  Tm1  1  0.50000000  -0.00000000  0.27333578  1
  S  S0  1  0.00000000  0.00000000  0.00000000  1
  S  S1  1  0.50000000  0.50000000  0.00000000  1
  S  S2  1  0.00000000  0.50000000  0.36890312  1
  S  S3  1  0.50000000  0.00000000  0.63109688  1
loop_
_geom_bond_atom_site_label_1
_geom_bond_atom_site_label_2
_geom_bond_distance
_geom_bond_site_symmetry_2
S0 S1 2.692175 1_555
S0 S1 2.692175 1_545
S0 S1 2.692175 1_445
S0 S1 2.692175 1_455
S0 Tm1 2.864567 1_555
S0 Tm0 2.864567 1_554
S0 Tm1 2.864567 1_455
S0 Tm0 2.864567 1_544
S1 Tm1 2.864567 1_555
S1 Tm0 2.864567 1_554
S1 Tm1 2.864567 1_565
S1 Tm0 2.864567 1_654
S2 Tm1 2.794263 1_555
S2 Tm1 2.794263 1_465
S2 Tm1 2.794263 1_455
S2 Tm1 2.794263 1_565
S2 Tm0 2.801667 1_555
S3 Tm0 2.794263 1_545
S3 Tm0 2.794263 1_555
S3 Tm0 2.794263 1_655
S3 Tm0 2.794263 1_645
S3 Tm1 2.801667 1_555
