# generated using pymatgen
data_Ca3Ti3(AsO4)4
_symmetry_space_group_name_H-M   'P 1'
_cell_length_a   5.14458700
_cell_length_b   8.97802200
_cell_length_c   17.53705423
_cell_angle_alpha   69.95516649
_cell_angle_beta   90.00000000
_cell_angle_gamma   90.00000000
_symmetry_Int_Tables_number   1
_chemical_formula_structural   Ca3Ti3(AsO4)4
_chemical_formula_sum   'Ca6 Ti6 As8 O32'
_cell_volume   760.93892996
_cell_formula_units_Z   2
loop_
 _symmetry_equiv_pos_site_id
 _symmetry_equiv_pos_as_xyz
  1  'x, y, z'
loop_
 _atom_site_type_symbol
 _atom_site_label
 _atom_site_symmetry_multiplicity
 _atom_site_fract_x
 _atom_site_fract_y
 _atom_site_fract_z
 _atom_site_occupancy
  Ca  Ca0  1  0.56228900  0.33048600  0.22302900  1
  Ca  Ca1  1  0.06228900  0.66951400  0.27697100  1
  Ca  Ca2  1  0.43771100  0.66951400  0.77697100  1
  Ca  Ca3  1  0.93771100  0.33048600  0.72302900  1
  Ca  Ca4  1  0.50000000  0.00000000  0.50000000  1
  Ca  Ca5  1  0.00000000  0.00000000  0.00000000  1
  Ti  Ti0  1  0.43904700  0.22096900  0.61999400  1
  Ti  Ti1  1  0.56095300  0.77903100  0.38000600  1
  Ti  Ti2  1  0.93904700  0.77903100  0.88000600  1
  Ti  Ti3  1  0.06095300  0.22096900  0.11999400  1
  Ti  Ti4  1  0.00000000  0.50000000  0.50000000  1
  Ti  Ti5  1  0.50000000  0.50000000  0.00000000  1
  As  As0  1  0.01076300  0.04618500  0.33844400  1
  As  As1  1  0.49648100  0.43134700  0.39690700  1
  As  As2  1  0.99648100  0.56865300  0.10309300  1
  As  As3  1  0.00351900  0.43134700  0.89690700  1
  As  As4  1  0.98923700  0.95381500  0.66155600  1
  As  As5  1  0.50351900  0.56865300  0.60309300  1
  As  As6  1  0.48923700  0.04618500  0.83844400  1
  As  As7  1  0.51076300  0.95381500  0.16155600  1
  O  O0  1  0.46401700  0.80800400  0.25557400  1
  O  O1  1  0.83371400  0.78408900  0.97277600  1
  O  O2  1  0.38210800  0.46645000  0.29888400  1
  O  O3  1  0.38332100  0.12079900  0.17716200  1
  O  O4  1  0.61789200  0.53355000  0.70111600  1
  O  O5  1  0.03598300  0.80800400  0.75557400  1
  O  O6  1  0.88210800  0.53355000  0.20111600  1
  O  O7  1  0.72382500  0.57238800  0.89031700  1
  O  O8  1  0.64627200  0.11070600  0.90639500  1
  O  O9  1  0.53598300  0.19199600  0.74442600  1
  O  O10  1  0.11667900  0.12079900  0.67716200  1
  O  O11  1  0.27617500  0.42761200  0.10968300  1
  O  O12  1  0.29146600  0.59982100  0.41532500  1
  O  O13  1  0.35372800  0.88929400  0.09360500  1
  O  O14  1  0.66729100  0.00730900  0.63274500  1
  O  O15  1  0.16729100  0.99269100  0.86725500  1
  O  O16  1  0.79146600  0.40017900  0.08467500  1
  O  O17  1  0.11789200  0.46645000  0.79888400  1
  O  O18  1  0.14627200  0.88929400  0.59360500  1
  O  O19  1  0.22382500  0.42761200  0.60968300  1
  O  O20  1  0.83270900  0.00730900  0.13274500  1
  O  O21  1  0.33270900  0.99269100  0.36725500  1
  O  O22  1  0.16628600  0.21591100  0.02722400  1
  O  O23  1  0.33371400  0.21591100  0.52722400  1
  O  O24  1  0.70853400  0.40017900  0.58467500  1
  O  O25  1  0.96401700  0.19199600  0.24442600  1
  O  O26  1  0.61667900  0.87920100  0.82283800  1
  O  O27  1  0.85372800  0.11070600  0.40639500  1
  O  O28  1  0.66628600  0.78408900  0.47277600  1
  O  O29  1  0.77617500  0.57238800  0.39031700  1
  O  O30  1  0.20853400  0.59982100  0.91532500  1
  O  O31  1  0.88332100  0.87920100  0.32283800  1
loop_
_geom_bond_atom_site_label_1
_geom_bond_atom_site_label_2
_geom_bond_distance
_geom_bond_site_symmetry_2
Ca0 O2 2.287383 1_555
Ca0 O25 2.374507 1_555
Ca0 O11 2.385361 1_555
Ca0 O6 2.387107 1_555
Ca0 O3 2.465133 1_555
Ca0 O16 2.574474 1_555
Ca1 O6 2.287383 1_455
Ca1 O0 2.374507 1_555
Ca1 O29 2.385361 1_455
Ca1 O2 2.387107 1_555
Ca1 O31 2.465133 1_455
Ca1 O12 2.574474 1_555
Ca2 O4 2.287383 1_555
Ca2 O5 2.374507 1_555
Ca2 O7 2.385361 1_555
Ca2 O17 2.387107 1_555
Ca2 O26 2.465133 1_555
Ca2 O30 2.574474 1_555
Ca3 O17 2.287383 1_655
Ca3 O9 2.374507 1_555
Ca3 O19 2.385361 1_655
Ca3 O4 2.387107 1_555
Ca3 O10 2.465133 1_655
Ca3 O24 2.574474 1_555
Ca4 O23 2.313395 1_555
Ca4 O28 2.313395 1_545
Ca4 O27 2.423992 1_555
Ca4 O18 2.423992 1_545
Ca4 O14 2.503820 1_555
Ca4 O21 2.503820 1_545
Ca5 O22 2.313395 1_555
Ca5 O1 2.313395 1_444
Ca5 O13 2.423992 1_545
Ca5 O8 2.423992 1_454
Ca5 O15 2.503820 1_544
Ca5 O20 2.503820 1_455
As0 O27 1.697493 1_455
As0 O25 1.735071 1_455
As0 O31 1.741720 1_445
As0 O21 1.750103 1_545
As1 O2 1.740470 1_555
As1 O29 1.893921 1_555
As1 O12 1.959468 1_555
As2 O6 1.740470 1_555
As2 O11 1.893921 1_655
As2 O16 1.959468 1_555
As3 O17 1.740470 1_555
As3 O7 1.893921 1_455
As3 O30 1.959468 1_555
As4 O18 1.697493 1_655
As4 O5 1.735071 1_655
As4 O10 1.741720 1_665
As4 O14 1.750103 1_565
As5 O4 1.740470 1_555
As5 O19 1.893921 1_555
As5 O24 1.959468 1_555
As6 O8 1.697493 1_555
As6 O9 1.735071 1_555
As6 O26 1.741720 1_545
As6 O15 1.750103 1_545
As7 O13 1.697493 1_555
As7 O0 1.735071 1_555
As7 O3 1.741720 1_565
As7 O20 1.750103 1_565
O0 Ti1 2.165436 1_555
O1 Ti2 1.730087 1_555
O3 Ti3 1.986529 1_555
O5 Ti2 2.165436 1_455
O7 Ti2 2.114383 1_555
O7 Ti5 2.142722 1_556
O9 Ti0 2.165436 1_555
O10 Ti0 1.986529 1_555
O11 Ti3 2.114383 1_555
O11 Ti5 2.142722 1_555
O12 Ti1 2.052148 1_555
O12 Ti4 2.084317 1_555
O14 Ti0 2.194177 1_555
O15 Ti2 2.194177 1_455
O16 Ti3 2.052148 1_655
O16 Ti5 2.084317 1_555
O19 Ti0 2.114383 1_555
O19 Ti4 2.142722 1_555
O20 Ti3 2.194177 1_655
O21 Ti1 2.194177 1_555
O22 Ti3 1.730087 1_555
O23 Ti0 1.730087 1_555
O24 Ti0 2.052148 1_555
O24 Ti4 2.084317 1_655
O25 Ti3 2.165436 1_655
O26 Ti2 1.986529 1_555
O28 Ti1 1.730087 1_555
O29 Ti1 2.114383 1_555
O29 Ti4 2.142722 1_655
O30 Ti2 2.052148 1_455
O30 Ti5 2.084317 1_556
O31 Ti1 1.986529 1_555
