# generated using pymatgen
data_SrCaSi4
_symmetry_space_group_name_H-M   'P 1'
_cell_length_a   3.93160144
_cell_length_b   3.93160144
_cell_length_c   10.07016571
_cell_angle_alpha   90.00000000
_cell_angle_beta   90.00000000
_cell_angle_gamma   119.99999603
_symmetry_Int_Tables_number   1
_chemical_formula_structural   SrCaSi4
_chemical_formula_sum   'Sr1 Ca1 Si4'
_cell_volume   134.80507366
_cell_formula_units_Z   1
loop_
 _symmetry_equiv_pos_site_id
 _symmetry_equiv_pos_as_xyz
  1  'x, y, z'
loop_
 _atom_site_type_symbol
 _atom_site_label
 _atom_site_symmetry_multiplicity
 _atom_site_fract_x
 _atom_site_fract_y
 _atom_site_fract_z
 _atom_site_occupancy
  Sr  Sr0  1  -0.00000000  -0.00000000  0.50000000  1
  Ca  Ca0  1  -0.00000000  -0.00000000  -0.00000000  1
  Si  Si0  1  0.66666700  0.33333300  0.71799643  1
  Si  Si1  1  0.66666700  0.33333300  0.20175435  1
  Si  Si2  1  0.33333300  0.66666700  0.79824565  1
  Si  Si3  1  0.33333300  0.66666700  0.28200357  1
loop_
_geom_bond_atom_site_label_1
_geom_bond_atom_site_label_2
_geom_bond_distance
_geom_bond_site_symmetry_2
Ca0 Si2 3.046357 1_544
Ca0 Si1 3.046357 1_455
Ca0 Si2 3.046359 1_444
Ca0 Si2 3.046359 1_554
Ca0 Si1 3.046359 1_445
Ca0 Si1 3.046359 1_555
Si0 Si2 2.409471 1_545
Si0 Si2 2.409471 1_655
Si0 Si2 2.409477 1_555
Si0 Sr0 3.157792 1_655
Si0 Sr0 3.157795 1_555
Si0 Sr0 3.157795 1_665
Si1 Si3 2.409471 1_545
Si1 Si3 2.409471 1_655
Si1 Si3 2.409477 1_555
Si3 Sr0 3.157792 1_565
Si3 Sr0 3.157795 1_555
Si3 Sr0 3.157795 1_665
