# generated using pymatgen
data_YbZn13
_symmetry_space_group_name_H-M   'P 1'
_cell_length_a   8.63808856
_cell_length_b   8.63808856
_cell_length_c   8.63808856
_cell_angle_alpha   60.00000000
_cell_angle_beta   60.00000000
_cell_angle_gamma   60.00000000
_symmetry_Int_Tables_number   1
_chemical_formula_structural   YbZn13
_chemical_formula_sum   'Yb2 Zn26'
_cell_volume   455.76183966
_cell_formula_units_Z   2
loop_
 _symmetry_equiv_pos_site_id
 _symmetry_equiv_pos_as_xyz
  1  'x, y, z'
loop_
 _atom_site_type_symbol
 _atom_site_label
 _atom_site_symmetry_multiplicity
 _atom_site_fract_x
 _atom_site_fract_y
 _atom_site_fract_z
 _atom_site_occupancy
  Yb  Yb0  1  0.25000000  0.25000000  0.25000000  1
  Yb  Yb1  1  0.75000000  0.75000000  0.75000000  1
  Zn  Zn0  1  0.50000000  0.50000000  0.50000000  1
  Zn  Zn1  1  0.00000000  0.00000000  0.00000000  1
  Zn  Zn2  1  0.80146100  0.55918600  0.19853900  1
  Zn  Zn3  1  0.19853900  0.44081400  0.80146100  1
  Zn  Zn4  1  0.55918600  0.80146100  0.44081400  1
  Zn  Zn5  1  0.44081400  0.19853900  0.55918600  1
  Zn  Zn6  1  0.30146100  0.94081400  0.69853900  1
  Zn  Zn7  1  0.69853900  0.05918600  0.30146100  1
  Zn  Zn8  1  0.94081400  0.30146100  0.05918600  1
  Zn  Zn9  1  0.05918600  0.69853900  0.94081400  1
  Zn  Zn10  1  0.19853900  0.80146100  0.55918600  1
  Zn  Zn11  1  0.80146100  0.19853900  0.44081400  1
  Zn  Zn12  1  0.44081400  0.55918600  0.80146100  1
  Zn  Zn13  1  0.55918600  0.44081400  0.19853900  1
  Zn  Zn14  1  0.69853900  0.30146100  0.94081400  1
  Zn  Zn15  1  0.30146100  0.69853900  0.05918600  1
  Zn  Zn16  1  0.05918600  0.94081400  0.30146100  1
  Zn  Zn17  1  0.94081400  0.05918600  0.69853900  1
  Zn  Zn18  1  0.55918600  0.19853900  0.80146100  1
  Zn  Zn19  1  0.44081400  0.80146100  0.19853900  1
  Zn  Zn20  1  0.80146100  0.44081400  0.55918600  1
  Zn  Zn21  1  0.19853900  0.55918600  0.44081400  1
  Zn  Zn22  1  0.94081400  0.69853900  0.30146100  1
  Zn  Zn23  1  0.05918600  0.30146100  0.69853900  1
  Zn  Zn24  1  0.30146100  0.05918600  0.94081400  1
  Zn  Zn25  1  0.69853900  0.94081400  0.05918600  1
loop_
_geom_bond_atom_site_label_1
_geom_bond_atom_site_label_2
_geom_bond_distance
_geom_bond_site_symmetry_2
Yb0 Zn21 3.539727 1_555
Yb0 Zn5 3.539727 1_555
Yb0 Zn13 3.539727 1_555
Yb0 Zn6 3.539727 1_545
Yb0 Zn24 3.539727 1_554
Yb0 Zn4 3.539727 1_545
Yb0 Zn17 3.539727 1_455
Yb0 Zn25 3.539727 1_545
Yb0 Zn20 3.539727 1_455
Yb0 Zn19 3.539727 1_545
Yb0 Zn16 3.539727 1_545
Yb0 Zn23 3.539727 1_555
Yb0 Zn9 3.539727 1_554
Yb0 Zn12 3.539727 1_554
Yb0 Zn8 3.539727 1_455
Yb0 Zn22 3.539727 1_455
Yb0 Zn18 3.539727 1_554
Yb0 Zn2 3.539727 1_455
Yb0 Zn3 3.539727 1_554
Yb0 Zn14 3.539727 1_554
Yb0 Zn10 3.539727 1_545
Yb0 Zn15 3.539727 1_555
Yb0 Zn11 3.539727 1_455
Yb0 Zn7 3.539727 1_555
Yb1 Zn23 3.539727 1_655
Yb1 Zn14 3.539727 1_555
Yb1 Zn24 3.539727 1_565
Yb1 Zn16 3.539727 1_655
Yb1 Zn19 3.539727 1_556
Yb1 Zn18 3.539727 1_565
Yb1 Zn15 3.539727 1_556
Yb1 Zn25 3.539727 1_556
Yb1 Zn9 3.539727 1_655
Yb1 Zn17 3.539727 1_565
Yb1 Zn22 3.539727 1_555
Yb1 Zn6 3.539727 1_555
Yb1 Zn7 3.539727 1_565
Yb1 Zn8 3.539727 1_556
Yb1 Zn10 3.539727 1_655
Yb1 Zn11 3.539727 1_565
Yb1 Zn5 3.539727 1_565
Yb1 Zn3 3.539727 1_655
Yb1 Zn2 3.539727 1_556
Yb1 Zn12 3.539727 1_555
Yb1 Zn13 3.539727 1_556
Yb1 Zn20 3.539727 1_555
Yb1 Zn21 3.539727 1_655
Yb1 Zn4 3.539727 1_555
Zn0 Zn20 2.653760 1_555
Zn0 Zn12 2.653760 1_555
Zn0 Zn10 2.653760 1_555
Zn0 Zn3 2.653760 1_555
Zn0 Zn4 2.653760 1_555
Zn0 Zn11 2.653760 1_555
Zn0 Zn18 2.653760 1_555
Zn0 Zn2 2.653760 1_555
Zn0 Zn19 2.653760 1_555
Zn0 Zn5 2.653760 1_555
Zn0 Zn13 2.653760 1_555
Zn0 Zn21 2.653760 1_555
Zn1 Zn17 2.653760 1_454
Zn1 Zn14 2.653760 1_454
Zn1 Zn9 2.653760 1_544
Zn1 Zn15 2.653760 1_545
Zn1 Zn25 2.653760 1_445
Zn1 Zn22 2.653760 1_445
Zn1 Zn7 2.653760 1_455
Zn1 Zn23 2.653760 1_554
Zn1 Zn6 2.653760 1_544
Zn1 Zn8 2.653760 1_455
Zn1 Zn24 2.653760 1_554
Zn1 Zn16 2.653760 1_545
Zn2 Zn8 2.530848 1_555
Zn2 Zn9 2.530848 1_654
Zn2 Zn25 2.697736 1_555
Zn2 Zn22 2.697736 1_555
Zn2 Zn20 2.750491 1_555
Zn2 Zn4 2.959656 1_555
Zn3 Zn8 2.530848 1_456
Zn3 Zn9 2.530848 1_555
Zn3 Zn5 2.959656 1_555
Zn4 Zn7 2.530848 1_565
Zn4 Zn6 2.530848 1_555
Zn5 Zn6 2.530848 1_545
Zn5 Zn7 2.530848 1_555
Zn6 Zn9 2.959656 1_555
Zn7 Zn8 2.959656 1_555
Zn10 Zn16 2.530848 1_555
Zn10 Zn17 2.530848 1_465
Zn10 Zn9 2.697736 1_555
Zn10 Zn6 2.697736 1_555
Zn10 Zn19 2.750491 1_555
Zn10 Zn4 2.750491 1_555
Zn10 Zn3 2.750491 1_555
Zn10 Zn21 2.750491 1_555
Zn10 Zn12 2.959656 1_555
Zn11 Zn16 2.530848 1_645
Zn11 Zn17 2.530848 1_555
Zn11 Zn8 2.697736 1_555
Zn11 Zn7 2.697736 1_555
Zn11 Zn20 2.750491 1_555
Zn11 Zn2 2.750491 1_555
Zn11 Zn18 2.750491 1_555
Zn11 Zn5 2.750491 1_555
Zn11 Zn13 2.959656 1_555
Zn12 Zn15 2.530848 1_556
Zn12 Zn14 2.530848 1_555
Zn12 Zn9 2.697736 1_555
Zn12 Zn6 2.697736 1_555
Zn12 Zn18 2.750491 1_555
Zn12 Zn3 2.750491 1_555
Zn12 Zn4 2.750491 1_555
Zn12 Zn20 2.750491 1_555
Zn13 Zn14 2.530848 1_554
Zn13 Zn15 2.530848 1_555
Zn13 Zn7 2.697736 1_555
Zn13 Zn8 2.697736 1_555
Zn13 Zn5 2.750491 1_555
Zn13 Zn21 2.750491 1_555
Zn13 Zn2 2.750491 1_555
Zn13 Zn19 2.750491 1_555
Zn14 Zn20 2.697736 1_555
Zn14 Zn18 2.697736 1_555
Zn14 Zn25 2.750491 1_546
Zn14 Zn7 2.750491 1_556
Zn14 Zn8 2.750491 1_556
Zn14 Zn23 2.750491 1_655
Zn14 Zn17 2.959656 1_555
Zn15 Zn21 2.697736 1_555
Zn15 Zn19 2.697736 1_555
Zn15 Zn22 2.750491 1_455
Zn15 Zn24 2.750491 1_564
Zn15 Zn9 2.750491 1_554
Zn15 Zn6 2.750491 1_554
Zn15 Zn16 2.959656 1_555
Zn16 Zn19 2.697736 1_555
Zn16 Zn21 2.697736 1_555
Zn16 Zn24 2.750491 1_564
Zn16 Zn8 2.750491 1_465
Zn16 Zn7 2.750491 1_465
Zn16 Zn22 2.750491 1_455
Zn17 Zn20 2.697736 1_555
Zn17 Zn18 2.697736 1_555
Zn17 Zn23 2.750491 1_655
Zn17 Zn6 2.750491 1_645
Zn17 Zn25 2.750491 1_546
Zn17 Zn9 2.750491 1_645
Zn18 Zn24 2.530848 1_555
Zn18 Zn25 2.530848 1_546
Zn18 Zn3 2.750491 1_555
Zn18 Zn5 2.750491 1_555
Zn18 Zn20 2.959656 1_555
Zn19 Zn24 2.530848 1_564
Zn19 Zn25 2.530848 1_555
Zn19 Zn4 2.750491 1_555
Zn19 Zn2 2.750491 1_555
Zn19 Zn21 2.959656 1_555
Zn20 Zn23 2.530848 1_655
Zn20 Zn22 2.530848 1_555
Zn20 Zn4 2.750491 1_555
Zn21 Zn22 2.530848 1_455
Zn21 Zn23 2.530848 1_555
Zn21 Zn5 2.750491 1_555
Zn21 Zn3 2.750491 1_555
Zn22 Zn4 2.697736 1_555
Zn22 Zn7 2.750491 1_565
Zn22 Zn9 2.750491 1_654
Zn22 Zn25 2.959656 1_555
Zn23 Zn5 2.697736 1_555
Zn23 Zn3 2.697736 1_555
Zn23 Zn8 2.750491 1_456
Zn23 Zn6 2.750491 1_545
Zn23 Zn24 2.959656 1_555
Zn24 Zn3 2.697736 1_555
Zn24 Zn5 2.697736 1_555
Zn24 Zn8 2.750491 1_456
Zn24 Zn6 2.750491 1_545
Zn25 Zn4 2.697736 1_555
Zn25 Zn7 2.750491 1_565
Zn25 Zn9 2.750491 1_654
