# generated using pymatgen
data_VGa(CuO2)2
_symmetry_space_group_name_H-M   'P 1'
_cell_length_a   6.08699807
_cell_length_b   6.15967173
_cell_length_c   6.72380014
_cell_angle_alpha   63.13814202
_cell_angle_beta   63.09023838
_cell_angle_gamma   60.38838577
_symmetry_Int_Tables_number   1
_chemical_formula_structural   VGa(CuO2)2
_chemical_formula_sum   'V2 Ga2 Cu4 O8'
_cell_volume   186.78393141
_cell_formula_units_Z   2
loop_
 _symmetry_equiv_pos_site_id
 _symmetry_equiv_pos_as_xyz
  1  'x, y, z'
loop_
 _atom_site_type_symbol
 _atom_site_label
 _atom_site_symmetry_multiplicity
 _atom_site_fract_x
 _atom_site_fract_y
 _atom_site_fract_z
 _atom_site_occupancy
  V  V0  1  0.00000000  0.00000000  0.50000000  1
  V  V1  1  0.50000000  0.00000000  0.50000000  1
  Ga  Ga0  1  0.00000000  0.50000000  0.50000000  1
  Ga  Ga1  1  0.50000000  0.50000000  0.50000000  1
  Cu  Cu0  1  0.50000000  0.00000000  0.00000000  1
  Cu  Cu1  1  0.00000000  0.00000000  0.00000000  1
  Cu  Cu2  1  0.00000000  0.50000000  0.00000000  1
  Cu  Cu3  1  0.50000000  0.50000000  0.00000000  1
  O  O0  1  0.61089100  0.60177900  0.67646400  1
  O  O1  1  0.11089600  0.60176000  0.67647300  1
  O  O2  1  0.88910400  0.39824000  0.32352700  1
  O  O3  1  0.38910900  0.39822100  0.32353600  1
  O  O4  1  0.10490400  0.11485200  0.67533300  1
  O  O5  1  0.60493700  0.11485300  0.67533100  1
  O  O6  1  0.39506300  0.88514700  0.32466900  1
  O  O7  1  0.89509600  0.88514800  0.32466700  1
loop_
_geom_bond_atom_site_label_1
_geom_bond_atom_site_label_2
_geom_bond_distance
_geom_bond_site_symmetry_2
Ga0 O0 2.017843 1_455
Ga0 O3 2.017843 1_555
Ga0 O2 2.017858 1_455
Ga0 O1 2.017858 1_555
Ga0 O7 2.020564 1_455
Ga0 O4 2.020564 1_555
Ga1 O2 2.017832 1_555
Ga1 O1 2.017832 1_555
Ga1 O0 2.017868 1_555
Ga1 O3 2.017868 1_555
Ga1 O6 2.020557 1_555
Ga1 O5 2.020557 1_555
Cu0 O5 1.860859 1_554
Cu0 O6 1.860859 1_545
Cu1 O7 1.860847 1_445
Cu1 O4 1.860847 1_554
Cu2 O1 1.854023 1_554
Cu2 O2 1.854023 1_455
Cu3 O3 1.854074 1_555
Cu3 O0 1.854074 1_554
O0 V1 2.082987 1_565
O1 V0 2.083087 1_565
O2 V0 2.083087 1_655
O3 V1 2.082987 1_555
O4 V0 2.044399 1_555
O4 V1 2.044516 1_555
O5 V0 2.044364 1_655
O5 V1 2.044541 1_555
O6 V0 2.044364 1_565
O6 V1 2.044541 1_565
O7 V0 2.044399 1_665
O7 V1 2.044516 1_565
