# generated using pymatgen
data_MgN(ClO2)3
_symmetry_space_group_name_H-M   'P 1'
_cell_length_a   5.38671500
_cell_length_b   5.49776535
_cell_length_c   12.08108256
_cell_angle_alpha   95.25991635
_cell_angle_beta   93.11273551
_cell_angle_gamma   94.70438462
_symmetry_Int_Tables_number   1
_chemical_formula_structural   MgN(ClO2)3
_chemical_formula_sum   'Mg2 N2 Cl6 O12'
_cell_volume   354.38362970
_cell_formula_units_Z   2
loop_
 _symmetry_equiv_pos_site_id
 _symmetry_equiv_pos_as_xyz
  1  'x, y, z'
loop_
 _atom_site_type_symbol
 _atom_site_label
 _atom_site_symmetry_multiplicity
 _atom_site_fract_x
 _atom_site_fract_y
 _atom_site_fract_z
 _atom_site_occupancy
  Mg  Mg0  1  0.04428900  0.49390300  0.77699700  1
  Mg  Mg1  1  0.02406800  0.45002300  0.30915000  1
  N  N0  1  0.38630900  0.81639900  0.97108800  1
  N  N1  1  0.48588100  0.02774600  0.46590500  1
  Cl  Cl0  1  0.36574200  0.55760700  0.00047300  1
  Cl  Cl1  1  0.62700900  0.56058200  0.52373700  1
  Cl  Cl2  1  0.97546700  0.87899000  0.99522000  1
  Cl  Cl3  1  0.20981400  0.98361200  0.44593600  1
  Cl  Cl4  1  0.49994400  0.06319900  0.73363500  1
  Cl  Cl5  1  0.49704200  0.14240900  0.22921700  1
  O  O0  1  0.21337300  0.35798000  0.91295100  1
  O  O1  1  0.88922500  0.77901300  0.87442600  1
  O  O2  1  0.68349300  0.28848300  0.76994800  1
  O  O3  1  0.31242600  0.64379200  0.69192000  1
  O  O4  1  0.24044300  0.13429300  0.70956600  1
  O  O5  1  0.84421300  0.62550000  0.60732900  1
  O  O6  1  0.07840200  0.22229000  0.42717300  1
  O  O7  1  0.70294800  0.54768900  0.40511700  1
  O  O8  1  0.13440600  0.81358700  0.33124800  1
  O  O9  1  0.75590200  0.25513900  0.20241200  1
  O  O10  1  0.29664200  0.32161500  0.20761400  1
  O  O11  1  0.94246400  0.69004900  0.07674100  1
loop_
_geom_bond_atom_site_label_1
_geom_bond_atom_site_label_2
_geom_bond_distance
_geom_bond_site_symmetry_2
Mg0 O3 1.985697 1_555
Mg0 O0 2.063956 1_555
Mg0 O1 2.126819 1_455
Mg0 O2 2.159690 1_455
Mg0 O4 2.414471 1_555
Mg0 O5 2.458952 1_455
Mg1 O6 2.007077 1_555
Mg1 O8 2.027254 1_555
Mg1 O9 2.046457 1_455
Mg1 O10 2.089443 1_555
Mg1 O7 2.209217 1_455
Cl0 N0 1.494530 1_554
Cl0 O0 1.594180 1_554
Cl1 O5 1.501092 1_555
Cl1 O7 1.508578 1_555
Cl2 O11 1.502285 1_556
Cl2 O1 1.544337 1_555
Cl2 N0 2.297338 1_655
Cl3 N1 1.489847 1_565
Cl3 O6 1.569651 1_565
Cl3 O8 1.611727 1_555
Cl4 O4 1.502546 1_555
Cl4 O2 1.535078 1_555
Cl5 O9 1.541889 1_555
Cl5 O10 1.547616 1_555
