# generated using pymatgen
data_Tb5(Ge5Rh2)2
_symmetry_space_group_name_H-M   'P 1'
_cell_length_a   12.99673735
_cell_length_b   12.99673735
_cell_length_c   4.29379823
_cell_angle_alpha   90.00000000
_cell_angle_beta   90.00000000
_cell_angle_gamma   90.00000000
_symmetry_Int_Tables_number   1
_chemical_formula_structural   Tb5(Ge5Rh2)2
_chemical_formula_sum   'Tb10 Ge20 Rh8'
_cell_volume   725.28770840
_cell_formula_units_Z   2
loop_
 _symmetry_equiv_pos_site_id
 _symmetry_equiv_pos_as_xyz
  1  'x, y, z'
loop_
 _atom_site_type_symbol
 _atom_site_label
 _atom_site_symmetry_multiplicity
 _atom_site_fract_x
 _atom_site_fract_y
 _atom_site_fract_z
 _atom_site_occupancy
  Tb  Tb0  1  0.50000000  0.50000000  -0.00000000  1
  Tb  Tb1  1  0.00000000  -0.00000000  -0.00000000  1
  Tb  Tb2  1  0.67501181  0.17501181  0.50000000  1
  Tb  Tb3  1  0.32498819  0.82498819  0.50000000  1
  Tb  Tb4  1  0.17501181  0.32498819  0.50000000  1
  Tb  Tb5  1  0.82498819  0.67501181  0.50000000  1
  Tb  Tb6  1  0.88743351  0.38743351  0.50000000  1
  Tb  Tb7  1  0.11256649  0.61256649  0.50000000  1
  Tb  Tb8  1  0.38743351  0.11256649  0.50000000  1
  Tb  Tb9  1  0.61256649  0.88743351  0.50000000  1
  Ge  Ge0  1  0.56714244  0.06714244  0.00000000  1
  Ge  Ge1  1  0.43285756  0.93285756  -0.00000000  1
  Ge  Ge2  1  0.06714244  0.43285756  0.00000000  1
  Ge  Ge3  1  0.93285756  0.56714244  -0.00000000  1
  Ge  Ge4  1  0.66150219  0.70092860  -0.00000000  1
  Ge  Ge5  1  0.33849781  0.29907140  0.00000000  1
  Ge  Ge6  1  0.16150219  0.79907140  -0.00000000  1
  Ge  Ge7  1  0.83849781  0.20092860  0.00000000  1
  Ge  Ge8  1  0.29907140  0.66150219  0.00000000  1
  Ge  Ge9  1  0.70092860  0.33849781  -0.00000000  1
  Ge  Ge10  1  0.20092860  0.16150219  -0.00000000  1
  Ge  Ge11  1  0.79907140  0.83849781  0.00000000  1
  Ge  Ge12  1  0.65878337  0.50237029  0.50000000  1
  Ge  Ge13  1  0.34121663  0.49762971  0.50000000  1
  Ge  Ge14  1  0.15878337  0.99762971  0.50000000  1
  Ge  Ge15  1  0.84121663  0.00237029  0.50000000  1
  Ge  Ge16  1  0.49762971  0.65878337  0.50000000  1
  Ge  Ge17  1  0.50237029  0.34121663  0.50000000  1
  Ge  Ge18  1  0.00237029  0.15878337  0.50000000  1
  Ge  Ge19  1  0.99762971  0.84121663  0.50000000  1
  Rh  Rh0  1  0.74471638  0.52131595  0.00000000  1
  Rh  Rh1  1  0.25528362  0.47868405  -0.00000000  1
  Rh  Rh2  1  0.24471638  0.97868405  0.00000000  1
  Rh  Rh3  1  0.75528362  0.02131595  -0.00000000  1
  Rh  Rh4  1  0.47868405  0.74471638  -0.00000000  1
  Rh  Rh5  1  0.52131595  0.25528362  0.00000000  1
  Rh  Rh6  1  0.02131595  0.24471638  0.00000000  1
  Rh  Rh7  1  0.97868405  0.75528362  -0.00000000  1
loop_
_geom_bond_atom_site_label_1
_geom_bond_atom_site_label_2
_geom_bond_distance
_geom_bond_site_symmetry_2
Ge0 Ge1 2.468178 1_545
Ge0 Rh3 2.516712 1_555
Ge0 Rh5 2.516712 1_555
Ge0 Tb2 2.922345 1_555
Ge0 Tb2 2.922345 1_554
Ge0 Tb9 3.226898 1_544
Ge0 Tb9 3.226898 1_545
Ge0 Tb8 3.226898 1_555
Ge0 Tb8 3.226898 1_554
Ge1 Rh4 2.516712 1_555
Ge1 Rh2 2.516712 1_555
Ge1 Tb3 2.922345 1_555
Ge1 Tb3 2.922345 1_554
Ge1 Tb9 3.226898 1_555
Ge1 Tb9 3.226898 1_554
Ge1 Tb8 3.226898 1_565
Ge1 Tb8 3.226898 1_564
Ge2 Ge3 2.468178 1_455
Ge2 Rh1 2.516712 1_555
Ge2 Rh6 2.516712 1_555
Ge2 Tb4 2.922345 1_555
Ge2 Tb4 2.922345 1_554
Ge2 Tb7 3.226898 1_555
Ge2 Tb7 3.226898 1_554
Ge2 Tb6 3.226898 1_455
Ge2 Tb6 3.226898 1_454
Ge3 Rh0 2.516712 1_555
Ge3 Rh7 2.516712 1_555
Ge3 Tb5 2.922345 1_555
Ge3 Tb5 2.922345 1_554
Ge3 Tb6 3.226898 1_554
Ge3 Tb6 3.226898 1_555
Ge3 Tb7 3.226898 1_655
Ge3 Tb7 3.226898 1_654
Ge4 Rh4 2.443243 1_555
Ge4 Rh0 2.572740 1_555
Ge4 Tb5 3.039300 1_555
Ge4 Tb5 3.039300 1_554
Ge4 Tb9 3.299884 1_555
Ge4 Tb9 3.299884 1_554
Ge4 Tb0 3.350418 1_555
Ge5 Rh5 2.443243 1_555
Ge5 Rh1 2.572740 1_555
Ge5 Tb4 3.039300 1_555
Ge5 Tb4 3.039300 1_554
Ge5 Tb8 3.299884 1_555
Ge5 Tb8 3.299884 1_554
Ge5 Tb0 3.350418 1_555
Ge6 Rh7 2.443243 1_455
Ge6 Ge8 2.528544 1_555
Ge6 Rh2 2.572740 1_555
Ge6 Tb3 3.039300 1_554
Ge6 Tb3 3.039300 1_555
Ge6 Tb7 3.299884 1_554
Ge6 Tb7 3.299884 1_555
Ge6 Tb1 3.350418 1_565
Ge7 Rh6 2.443243 1_655
Ge7 Ge9 2.528544 1_555
Ge7 Rh3 2.572740 1_555
Ge7 Tb2 3.039300 1_554
Ge7 Tb2 3.039300 1_555
Ge7 Tb6 3.299884 1_554
Ge7 Tb6 3.299884 1_555
Ge7 Tb1 3.350418 1_655
Ge8 Rh1 2.443243 1_555
Ge8 Rh4 2.572740 1_555
Ge8 Tb3 3.039300 1_554
Ge8 Tb3 3.039300 1_555
Ge8 Tb7 3.299884 1_554
Ge8 Tb7 3.299884 1_555
Ge8 Tb0 3.350418 1_555
Ge9 Rh0 2.443243 1_555
Ge9 Rh5 2.572740 1_555
Ge9 Tb2 3.039300 1_554
Ge9 Tb2 3.039300 1_555
Ge9 Tb6 3.299884 1_554
Ge9 Tb6 3.299884 1_555
Ge9 Tb0 3.350418 1_555
Ge10 Rh2 2.443243 1_545
Ge10 Ge5 2.528544 1_555
Ge10 Rh6 2.572740 1_555
Ge10 Tb4 3.039300 1_555
Ge10 Tb4 3.039300 1_554
Ge10 Tb8 3.299884 1_555
Ge10 Tb8 3.299884 1_554
Ge10 Tb1 3.350418 1_555
Ge11 Rh3 2.443243 1_565
Ge11 Ge4 2.528544 1_555
Ge11 Rh7 2.572740 1_555
Ge11 Tb5 3.039300 1_555
Ge11 Tb5 3.039300 1_554
Ge11 Tb9 3.299884 1_555
Ge11 Tb9 3.299884 1_554
Ge11 Tb1 3.350418 1_665
Ge12 Rh0 2.432521 1_555
Ge12 Rh0 2.432521 1_556
Ge12 Tb0 2.978060 1_555
Ge12 Tb0 2.978060 1_556
Ge12 Tb5 3.114587 1_555
Ge12 Tb6 3.326031 1_555
Ge13 Rh1 2.432521 1_555
Ge13 Rh1 2.432521 1_556
Ge13 Tb0 2.978060 1_555
Ge13 Tb0 2.978060 1_556
Ge13 Tb4 3.114587 1_555
Ge13 Tb7 3.326031 1_555
Ge14 Rh2 2.432521 1_555
Ge14 Rh2 2.432521 1_556
Ge14 Tb1 2.978060 1_565
Ge14 Tb1 2.978060 1_566
Ge14 Tb3 3.114587 1_555
Ge14 Tb8 3.326031 1_565
Ge15 Rh3 2.432521 1_556
Ge15 Rh3 2.432521 1_555
Ge15 Tb1 2.978060 1_656
Ge15 Tb1 2.978060 1_655
Ge15 Tb2 3.114587 1_555
Ge15 Tb9 3.326031 1_545
Ge16 Rh4 2.432521 1_556
Ge16 Rh4 2.432521 1_555
Ge16 Tb0 2.978060 1_555
Ge16 Tb0 2.978060 1_556
Ge16 Tb3 3.114587 1_555
Ge16 Tb9 3.326031 1_555
Ge17 Rh5 2.432521 1_555
Ge17 Rh5 2.432521 1_556
Ge17 Tb0 2.978060 1_555
Ge17 Tb0 2.978060 1_556
Ge17 Tb2 3.114587 1_555
Ge17 Tb8 3.326031 1_555
Ge18 Rh6 2.432521 1_555
Ge18 Rh6 2.432521 1_556
Ge18 Tb1 2.978060 1_555
Ge18 Tb1 2.978060 1_556
Ge18 Tb4 3.114587 1_555
Ge18 Tb6 3.326031 1_455
Ge19 Rh7 2.432521 1_555
Ge19 Rh7 2.432521 1_556
Ge19 Tb1 2.978060 1_665
Ge19 Tb1 2.978060 1_666
Ge19 Tb5 3.114587 1_555
Ge19 Tb7 3.326031 1_655
Rh0 Tb5 3.112519 1_555
Rh0 Tb5 3.112519 1_554
Rh0 Tb0 3.192557 1_555
Rh0 Tb6 3.328272 1_554
Rh0 Tb6 3.328272 1_555
Rh1 Tb4 3.112519 1_555
Rh1 Tb4 3.112519 1_554
Rh1 Tb0 3.192557 1_555
Rh1 Tb7 3.328272 1_554
Rh1 Tb7 3.328272 1_555
Rh2 Tb3 3.112519 1_555
Rh2 Tb3 3.112519 1_554
Rh2 Tb1 3.192557 1_565
Rh2 Tb8 3.328272 1_565
Rh2 Tb8 3.328272 1_564
Rh3 Tb2 3.112519 1_555
Rh3 Tb2 3.112519 1_554
Rh3 Tb1 3.192557 1_655
Rh3 Tb9 3.328272 1_545
Rh3 Tb9 3.328272 1_544
Rh4 Tb3 3.112519 1_554
Rh4 Tb3 3.112519 1_555
Rh4 Tb0 3.192557 1_555
Rh4 Tb9 3.328272 1_555
Rh4 Tb9 3.328272 1_554
Rh5 Tb2 3.112519 1_555
Rh5 Tb2 3.112519 1_554
Rh5 Tb0 3.192557 1_555
Rh5 Tb8 3.328272 1_555
Rh5 Tb8 3.328272 1_554
Rh6 Tb4 3.112519 1_555
Rh6 Tb4 3.112519 1_554
Rh6 Tb1 3.192557 1_555
Rh6 Tb6 3.328272 1_454
Rh6 Tb6 3.328272 1_455
Rh7 Tb5 3.112519 1_554
Rh7 Tb5 3.112519 1_555
Rh7 Tb1 3.192557 1_665
Rh7 Tb7 3.328272 1_655
Rh7 Tb7 3.328272 1_654
