# generated using pymatgen
data_Mn2PO5
_symmetry_space_group_name_H-M   'P 1'
_cell_length_a   13.28550500
_cell_length_b   9.65373100
_cell_length_c   12.33581474
_cell_angle_alpha   72.60045176
_cell_angle_beta   90.00000000
_cell_angle_gamma   90.00000000
_symmetry_Int_Tables_number   1
_chemical_formula_structural   Mn2PO5
_chemical_formula_sum   'Mn32 P16 O80'
_cell_volume   1509.73227323
_cell_formula_units_Z   16
loop_
 _symmetry_equiv_pos_site_id
 _symmetry_equiv_pos_as_xyz
  1  'x, y, z'
loop_
 _atom_site_type_symbol
 _atom_site_label
 _atom_site_symmetry_multiplicity
 _atom_site_fract_x
 _atom_site_fract_y
 _atom_site_fract_z
 _atom_site_occupancy
  Mn  Mn0  1  0.01194500  0.80434000  0.69902300  1
  Mn  Mn1  1  0.51194500  0.19566000  0.80097700  1
  Mn  Mn2  1  0.98805500  0.19566000  0.30097700  1
  Mn  Mn3  1  0.48805500  0.80434000  0.19902300  1
  Mn  Mn4  1  0.49437700  0.78345900  0.69596100  1
  Mn  Mn5  1  0.99437700  0.21654100  0.80403900  1
  Mn  Mn6  1  0.50562300  0.21654100  0.30403900  1
  Mn  Mn7  1  0.00562300  0.78345900  0.19596100  1
  Mn  Mn8  1  0.24195700  0.28647700  0.19666700  1
  Mn  Mn9  1  0.74195700  0.71352300  0.30333300  1
  Mn  Mn10  1  0.75804300  0.71352300  0.80333300  1
  Mn  Mn11  1  0.25804300  0.28647700  0.69666700  1
  Mn  Mn12  1  0.75820900  0.30102800  0.19484000  1
  Mn  Mn13  1  0.25820900  0.69897200  0.30516000  1
  Mn  Mn14  1  0.24179100  0.69897200  0.80516000  1
  Mn  Mn15  1  0.74179100  0.30102800  0.69484000  1
  Mn  Mn16  1  0.42822900  0.52807900  0.60467100  1
  Mn  Mn17  1  0.92822900  0.47192100  0.89532900  1
  Mn  Mn18  1  0.57177100  0.47192100  0.39532900  1
  Mn  Mn19  1  0.07177100  0.52807900  0.10467100  1
  Mn  Mn20  1  0.92882600  0.54544100  0.59891800  1
  Mn  Mn21  1  0.42882600  0.45455900  0.90108200  1
  Mn  Mn22  1  0.07117400  0.45455900  0.40108200  1
  Mn  Mn23  1  0.57117400  0.54544100  0.09891800  1
  Mn  Mn24  1  0.17758400  0.02632400  0.11690400  1
  Mn  Mn25  1  0.67758400  0.97367600  0.38309600  1
  Mn  Mn26  1  0.82241600  0.97367600  0.88309600  1
  Mn  Mn27  1  0.32241600  0.02632400  0.61690400  1
  Mn  Mn28  1  0.67948500  0.04083500  0.08653000  1
  Mn  Mn29  1  0.17948500  0.95916500  0.41347000  1
  Mn  Mn30  1  0.32051500  0.95916500  0.91347000  1
  Mn  Mn31  1  0.82051500  0.04083500  0.58653000  1
  P  P0  1  0.17492600  0.37083600  0.92504600  1
  P  P1  1  0.67492600  0.62916400  0.57495400  1
  P  P2  1  0.82507400  0.62916400  0.07495400  1
  P  P3  1  0.32507400  0.37083600  0.42504600  1
  P  P4  1  0.67065400  0.38663400  0.92311400  1
  P  P5  1  0.17065400  0.61336600  0.57688600  1
  P  P6  1  0.32934600  0.61336600  0.07688600  1
  P  P7  1  0.82934600  0.38663400  0.42311400  1
  P  P8  1  0.41881900  0.88475900  0.42687100  1
  P  P9  1  0.91881900  0.11524100  0.07312900  1
  P  P10  1  0.58118100  0.11524100  0.57312900  1
  P  P11  1  0.08118100  0.88475900  0.92687100  1
  P  P12  1  0.92548300  0.87783800  0.42279600  1
  P  P13  1  0.42548300  0.12216200  0.07720400  1
  P  P14  1  0.07451700  0.12216200  0.57720400  1
  P  P15  1  0.57451700  0.87783800  0.92279600  1
  O  O0  1  0.08089900  0.52931200  0.54813000  1
  O  O1  1  0.58089900  0.47068800  0.95187000  1
  O  O2  1  0.91910100  0.47068800  0.45187000  1
  O  O3  1  0.41910100  0.52931200  0.04813000  1
  O  O4  1  0.59170500  0.52732900  0.54885200  1
  O  O5  1  0.09170500  0.47267100  0.95114800  1
  O  O6  1  0.40829500  0.47267100  0.45114800  1
  O  O7  1  0.90829500  0.52732900  0.04885200  1
  O  O8  1  0.34087700  0.01292800  0.07099100  1
  O  O9  1  0.84087700  0.98707200  0.42900900  1
  O  O10  1  0.65912300  0.98707200  0.92900900  1
  O  O11  1  0.15912300  0.01292800  0.57099100  1
  O  O12  1  0.83361700  0.03022000  0.03224000  1
  O  O13  1  0.33361700  0.96978000  0.46776000  1
  O  O14  1  0.16638300  0.96978000  0.96776000  1
  O  O15  1  0.66638300  0.03022000  0.53224000  1
  O  O16  1  0.45440400  0.75361400  0.52612100  1
  O  O17  1  0.95440400  0.24638600  0.97387900  1
  O  O18  1  0.54559600  0.24638600  0.47387900  1
  O  O19  1  0.04559600  0.75361400  0.02612100  1
  O  O20  1  0.94379600  0.77284800  0.54399700  1
  O  O21  1  0.44379600  0.22715200  0.95600300  1
  O  O22  1  0.05620400  0.22715200  0.45600300  1
  O  O23  1  0.55620400  0.77284800  0.04399700  1
  O  O24  1  0.20258800  0.24675000  0.03357800  1
  O  O25  1  0.70258800  0.75325000  0.46642200  1
  O  O26  1  0.79741200  0.75325000  0.96642200  1
  O  O27  1  0.29741200  0.24675000  0.53357800  1
  O  O28  1  0.70481400  0.26903400  0.03300200  1
  O  O29  1  0.20481400  0.73096600  0.46699800  1
  O  O30  1  0.29518600  0.73096600  0.96699800  1
  O  O31  1  0.79518600  0.26903400  0.53300200  1
  O  O32  1  0.14318800  0.30279700  0.83104700  1
  O  O33  1  0.64318800  0.69720300  0.66895300  1
  O  O34  1  0.85681200  0.69720300  0.16895300  1
  O  O35  1  0.35681200  0.30279700  0.33104700  1
  O  O36  1  0.64136600  0.31819400  0.82897800  1
  O  O37  1  0.14136600  0.68180600  0.67102200  1
  O  O38  1  0.35863400  0.68180600  0.17102200  1
  O  O39  1  0.85863400  0.31819400  0.32897800  1
  O  O40  1  0.38188700  0.83129000  0.32718900  1
  O  O41  1  0.88188700  0.16871000  0.17281100  1
  O  O42  1  0.61811300  0.16871000  0.67281100  1
  O  O43  1  0.11811300  0.83129000  0.82718900  1
  O  O44  1  0.90001100  0.79184900  0.33866500  1
  O  O45  1  0.40001100  0.20815100  0.16133500  1
  O  O46  1  0.09998900  0.20815100  0.66133500  1
  O  O47  1  0.59998900  0.79184900  0.83866500  1
  O  O48  1  0.26849300  0.46947200  0.88193900  1
  O  O49  1  0.76849300  0.53052800  0.61806100  1
  O  O50  1  0.73150700  0.53052800  0.11806100  1
  O  O51  1  0.23150700  0.46947200  0.38193900  1
  O  O52  1  0.75917400  0.49447400  0.87946700  1
  O  O53  1  0.25917400  0.50552600  0.62053300  1
  O  O54  1  0.24082600  0.50552600  0.12053300  1
  O  O55  1  0.74082600  0.49447400  0.37946700  1
  O  O56  1  0.02202900  0.97032100  0.38107000  1
  O  O57  1  0.52202900  0.02967900  0.11893000  1
  O  O58  1  0.97797100  0.02967900  0.61893000  1
  O  O59  1  0.47797100  0.97032100  0.88107000  1
  O  O60  1  0.50682100  0.99260400  0.38218900  1
  O  O61  1  0.00682100  0.00739600  0.11781100  1
  O  O62  1  0.49317900  0.00739600  0.61781100  1
  O  O63  1  0.99317900  0.99260400  0.88218900  1
  O  O64  1  0.40562300  0.33317300  0.70562000  1
  O  O65  1  0.90562300  0.66682700  0.79438000  1
  O  O66  1  0.59437700  0.66682700  0.29438000  1
  O  O67  1  0.09437700  0.33317300  0.20562000  1
  O  O68  1  0.95256300  0.41585400  0.75847000  1
  O  O69  1  0.45256300  0.58414600  0.74153000  1
  O  O70  1  0.04743700  0.58414600  0.24153000  1
  O  O71  1  0.54743700  0.41585400  0.25847000  1
  O  O72  1  0.14947900  0.83290800  0.21422000  1
  O  O73  1  0.64947900  0.16709200  0.28578000  1
  O  O74  1  0.85052100  0.16709200  0.78578000  1
  O  O75  1  0.35052100  0.83290800  0.71422000  1
  O  O76  1  0.70492500  0.91342400  0.24847200  1
  O  O77  1  0.20492500  0.08657600  0.25152800  1
  O  O78  1  0.29507500  0.08657600  0.75152800  1
  O  O79  1  0.79507500  0.91342400  0.74847200  1
loop_
_geom_bond_atom_site_label_1
_geom_bond_atom_site_label_2
_geom_bond_distance
_geom_bond_site_symmetry_2
Mn0 O65 2.051181 1_455
Mn0 O58 2.150972 1_465
Mn0 O37 2.172412 1_555
Mn0 O43 2.191541 1_555
Mn0 O20 2.217440 1_455
Mn1 O64 2.051181 1_555
Mn1 O59 2.150972 1_545
Mn1 O36 2.172412 1_555
Mn1 O42 2.191541 1_555
Mn1 O21 2.217440 1_555
Mn2 O67 2.051181 1_655
Mn2 O56 2.150972 1_645
Mn2 O39 2.172412 1_555
Mn2 O41 2.191541 1_555
Mn2 O22 2.217440 1_655
Mn3 O66 2.051181 1_555
Mn3 O57 2.150972 1_565
Mn3 O38 2.172412 1_555
Mn3 O40 2.191541 1_555
Mn3 O23 2.217440 1_555
Mn4 O69 1.918316 1_555
Mn4 O75 1.998900 1_555
Mn4 O62 2.087272 1_565
Mn4 O33 2.208832 1_555
Mn4 O16 2.261760 1_555
Mn4 O47 2.271442 1_555
Mn5 O68 1.918316 1_555
Mn5 O74 1.998900 1_555
Mn5 O63 2.087272 1_545
Mn5 O32 2.208832 1_655
Mn5 O17 2.261760 1_555
Mn5 O46 2.271442 1_655
Mn6 O71 1.918316 1_555
Mn6 O73 1.998900 1_555
Mn6 O60 2.087272 1_545
Mn6 O35 2.208832 1_555
Mn6 O18 2.261760 1_555
Mn6 O45 2.271442 1_555
Mn7 O70 1.918316 1_555
Mn7 O72 1.998900 1_555
Mn7 O61 2.087272 1_565
Mn7 O34 2.208832 1_455
Mn7 O19 2.261760 1_555
Mn7 O44 2.271442 1_455
Mn8 O77 1.908683 1_555
Mn8 O67 2.022234 1_555
Mn8 O54 2.041129 1_555
Mn8 O24 2.220266 1_555
Mn8 O35 2.292888 1_555
Mn8 O45 2.316913 1_555
Mn9 O76 1.908683 1_555
Mn9 O66 2.022234 1_555
Mn9 O55 2.041129 1_555
Mn9 O25 2.220266 1_555
Mn9 O34 2.292888 1_555
Mn9 O44 2.316913 1_555
Mn10 O79 1.908683 1_555
Mn10 O65 2.022234 1_555
Mn10 O52 2.041129 1_555
Mn10 O26 2.220266 1_555
Mn10 O33 2.292888 1_555
Mn10 O47 2.316913 1_555
Mn11 O78 1.908683 1_555
Mn11 O64 2.022234 1_555
Mn11 O53 2.041129 1_555
Mn11 O27 2.220266 1_555
Mn11 O32 2.292888 1_555
Mn11 O46 2.316913 1_555
Mn12 O73 2.037024 1_555
Mn12 O41 2.147780 1_555
Mn12 O50 2.162522 1_555
Mn12 O39 2.170156 1_555
Mn12 O28 2.225537 1_555
Mn13 O72 2.037024 1_555
Mn13 O40 2.147780 1_555
Mn13 O51 2.162522 1_555
Mn13 O38 2.170156 1_555
Mn13 O29 2.225537 1_555
Mn14 O75 2.037024 1_555
Mn14 O43 2.147780 1_555
Mn14 O48 2.162522 1_555
Mn14 O37 2.170156 1_555
Mn14 O30 2.225537 1_555
Mn15 O74 2.037024 1_555
Mn15 O42 2.147780 1_555
Mn15 O49 2.162522 1_555
Mn15 O36 2.170156 1_555
Mn15 O31 2.225537 1_555
Mn16 O64 1.944202 1_555
Mn16 O69 1.947877 1_555
Mn16 O16 2.130384 1_555
Mn16 O6 2.132765 1_555
Mn16 O53 2.259345 1_555
Mn16 O4 2.279067 1_555
Mn17 O65 1.944202 1_555
Mn17 O68 1.947877 1_555
Mn17 O17 2.130384 1_555
Mn17 O7 2.132765 1_556
Mn17 O52 2.259345 1_555
Mn17 O5 2.279067 1_655
Mn18 O66 1.944202 1_555
Mn18 O71 1.947877 1_555
Mn18 O18 2.130384 1_555
Mn18 O4 2.132765 1_555
Mn18 O55 2.259345 1_555
Mn18 O6 2.279067 1_555
Mn19 O67 1.944202 1_555
Mn19 O70 1.947877 1_555
Mn19 O19 2.130384 1_555
Mn19 O5 2.132765 1_554
Mn19 O54 2.259345 1_555
Mn19 O7 2.279067 1_455
Mn20 O68 2.016359 1_555
Mn20 O20 2.104398 1_555
Mn20 O0 2.134709 1_655
Mn20 O49 2.143246 1_555
Mn20 O2 2.147276 1_555
Mn21 O69 2.016359 1_555
Mn21 O21 2.104398 1_555
Mn21 O1 2.134709 1_555
Mn21 O48 2.143246 1_555
Mn21 O3 2.147276 1_556
Mn22 O70 2.016359 1_555
Mn22 O22 2.104398 1_555
Mn22 O2 2.134709 1_455
Mn22 O51 2.143246 1_555
Mn22 O0 2.147276 1_555
Mn23 O71 2.016359 1_555
Mn23 O23 2.104398 1_555
Mn23 O3 2.134709 1_555
Mn23 O50 2.143246 1_555
Mn23 O1 2.147276 1_554
Mn24 O72 1.930380 1_545
Mn24 O77 1.950868 1_555
Mn24 O14 2.075005 1_544
Mn24 O24 2.094486 1_555
Mn24 O8 2.255601 1_555
Mn24 O61 2.275778 1_555
Mn25 O73 1.930380 1_565
Mn25 O76 1.950868 1_555
Mn25 O15 2.075005 1_565
Mn25 O25 2.094486 1_555
Mn25 O9 2.255601 1_555
Mn25 O60 2.275778 1_555
Mn26 O74 1.930380 1_565
Mn26 O79 1.950868 1_555
Mn26 O12 2.075005 1_566
Mn26 O26 2.094486 1_555
Mn26 O10 2.255601 1_555
Mn26 O63 2.275778 1_555
Mn27 O75 1.930380 1_545
Mn27 O78 1.950868 1_555
Mn27 O13 2.075005 1_545
Mn27 O27 2.094486 1_555
Mn27 O11 2.255601 1_555
Mn27 O62 2.275778 1_555
Mn28 O76 2.036745 1_545
Mn28 O57 2.126399 1_555
Mn28 O28 2.128933 1_555
Mn28 O12 2.166384 1_555
Mn28 O10 2.172913 1_544
Mn29 O77 2.036745 1_565
Mn29 O56 2.126399 1_555
Mn29 O29 2.128933 1_555
Mn29 O13 2.166384 1_555
Mn29 O11 2.172913 1_565
Mn30 O78 2.036745 1_565
Mn30 O59 2.126399 1_555
Mn30 O30 2.128933 1_555
Mn30 O14 2.166384 1_555
Mn30 O8 2.172913 1_566
Mn31 O79 2.036745 1_545
Mn31 O58 2.126399 1_555
Mn31 O31 2.128933 1_555
Mn31 O15 2.166384 1_555
Mn31 O9 2.172913 1_545
O0 P5 1.542180 1_555
O1 P4 1.542180 1_555
O2 P7 1.542180 1_555
O3 P6 1.542180 1_555
O4 P1 1.575397 1_555
O5 P0 1.575397 1_555
O6 P3 1.575397 1_555
O7 P2 1.575397 1_555
O8 P13 1.558738 1_555
O9 P12 1.558738 1_555
O10 P15 1.558738 1_555
O11 P14 1.558738 1_555
O12 P9 1.567480 1_555
O13 P8 1.567480 1_555
O14 P11 1.567480 1_555
O15 P10 1.567480 1_555
O16 P8 1.548648 1_555
O17 P9 1.548648 1_556
O18 P10 1.548648 1_555
O19 P11 1.548648 1_554
O20 P12 1.554201 1_555
O21 P13 1.554201 1_556
O22 P14 1.554201 1_555
O23 P15 1.554201 1_554
O24 P0 1.550261 1_554
O25 P1 1.550261 1_555
O26 P2 1.550261 1_556
O27 P3 1.550261 1_555
O28 P4 1.553053 1_554
O29 P5 1.553053 1_555
O30 P6 1.553053 1_556
O31 P7 1.553053 1_555
O32 P0 1.552189 1_555
O33 P1 1.552189 1_555
O34 P2 1.552189 1_555
O35 P3 1.552189 1_555
O36 P4 1.547668 1_555
O37 P5 1.547668 1_555
O38 P6 1.547668 1_555
O39 P7 1.547668 1_555
O40 P8 1.548822 1_555
O41 P9 1.548822 1_555
O42 P10 1.548822 1_555
O43 P11 1.548822 1_555
O44 P12 1.547880 1_555
O45 P13 1.547880 1_555
O46 P14 1.547880 1_555
O47 P15 1.547880 1_555
O48 P0 1.559454 1_555
O49 P1 1.559454 1_555
O50 P2 1.559454 1_555
O51 P3 1.559454 1_555
O52 P4 1.556123 1_555
O53 P5 1.556123 1_555
O54 P6 1.556123 1_555
O55 P7 1.556123 1_555
O56 P12 1.559624 1_455
O57 P13 1.559624 1_555
O58 P14 1.559624 1_655
O59 P15 1.559624 1_555
O60 P8 1.552877 1_555
O61 P9 1.552877 1_455
O62 P10 1.552877 1_555
O63 P11 1.552877 1_655
