# generated using pymatgen
data_Nb4Ag2O11
_symmetry_space_group_name_H-M   'P 1'
_cell_length_a   13.04401412
_cell_length_b   13.04401412
_cell_length_c   13.04401381
_cell_angle_alpha   27.95345320
_cell_angle_beta   27.95345320
_cell_angle_gamma   27.95345045
_symmetry_Int_Tables_number   1
_chemical_formula_structural   Nb4Ag2O11
_chemical_formula_sum   'Nb8 Ag4 O22'
_cell_volume   430.70060378
_cell_formula_units_Z   2
loop_
 _symmetry_equiv_pos_site_id
 _symmetry_equiv_pos_as_xyz
  1  'x, y, z'
loop_
 _atom_site_type_symbol
 _atom_site_label
 _atom_site_symmetry_multiplicity
 _atom_site_fract_x
 _atom_site_fract_y
 _atom_site_fract_z
 _atom_site_occupancy
  Nb  Nb0  1  0.38613900  0.11386100  0.75000000  1
  Nb  Nb1  1  0.75000000  0.38613900  0.11386100  1
  Nb  Nb2  1  0.11386100  0.75000000  0.38613900  1
  Nb  Nb3  1  0.25000000  0.61386100  0.88613900  1
  Nb  Nb4  1  0.88613900  0.25000000  0.61386100  1
  Nb  Nb5  1  0.61386100  0.88613900  0.25000000  1
  Nb  Nb6  1  0.00000000  0.00000000  0.00000000  1
  Nb  Nb7  1  0.50000000  0.50000000  0.50000000  1
  Ag  Ag0  1  0.67148000  0.67148000  0.67148000  1
  Ag  Ag1  1  0.17148000  0.17148000  0.17148000  1
  Ag  Ag2  1  0.32852000  0.32852000  0.32852000  1
  Ag  Ag3  1  0.82852000  0.82852000  0.82852000  1
  O  O0  1  0.74500200  0.43624800  0.22566500  1
  O  O1  1  0.22566500  0.74500200  0.43624800  1
  O  O2  1  0.43624800  0.22566500  0.74500200  1
  O  O3  1  0.72566500  0.93624800  0.24500200  1
  O  O4  1  0.24500200  0.72566500  0.93624800  1
  O  O5  1  0.93624800  0.24500200  0.72566500  1
  O  O6  1  0.25499800  0.56375200  0.77433500  1
  O  O7  1  0.77433500  0.25499800  0.56375200  1
  O  O8  1  0.56375200  0.77433500  0.25499800  1
  O  O9  1  0.27433500  0.06375200  0.75499800  1
  O  O10  1  0.75499800  0.27433500  0.06375200  1
  O  O11  1  0.06375200  0.75499800  0.27433500  1
  O  O12  1  0.99872400  0.50127600  0.75000000  1
  O  O13  1  0.75000000  0.99872400  0.50127600  1
  O  O14  1  0.50127600  0.75000000  0.99872400  1
  O  O15  1  0.25000000  0.00127600  0.49872400  1
  O  O16  1  0.49872400  0.25000000  0.00127600  1
  O  O17  1  0.00127600  0.49872400  0.25000000  1
  O  O18  1  0.59346800  0.59346800  0.59346800  1
  O  O19  1  0.09346800  0.09346800  0.09346800  1
  O  O20  1  0.40653200  0.40653200  0.40653200  1
  O  O21  1  0.90653200  0.90653200  0.90653200  1
loop_
_geom_bond_atom_site_label_1
_geom_bond_atom_site_label_2
_geom_bond_distance
_geom_bond_site_symmetry_2
Nb0 O2 1.999774 1_555
Nb0 O9 1.999774 1_555
Nb0 O14 2.029635 1_545
Nb0 O13 2.029635 1_545
Nb0 O20 2.046807 1_555
Nb0 O19 2.046807 1_556
Nb0 O12 2.441095 1_455
Nb1 O0 1.999774 1_555
Nb1 O10 1.999774 1_555
Nb1 O14 2.029635 1_554
Nb1 O12 2.029635 1_554
Nb1 O19 2.046807 1_655
Nb1 O20 2.046807 1_555
Nb1 O13 2.441095 1_545
Nb2 O11 1.999774 1_555
Nb2 O1 1.999774 1_555
Nb2 O13 2.029635 1_455
Nb2 O12 2.029635 1_455
Nb2 O20 2.046807 1_555
Nb2 O19 2.046807 1_565
Nb2 O14 2.441095 1_554
Nb3 O6 1.999774 1_555
Nb3 O4 1.999774 1_555
Nb3 O16 2.029635 1_556
Nb3 O17 2.029635 1_556
Nb3 O21 2.046807 1_455
Nb3 O18 2.046807 1_555
Nb3 O15 2.441095 1_565
Nb4 O5 1.999774 1_555
Nb4 O7 1.999774 1_555
Nb4 O15 2.029635 1_655
Nb4 O17 2.029635 1_655
Nb4 O18 2.046807 1_555
Nb4 O21 2.046807 1_545
Nb4 O16 2.441095 1_556
Nb5 O3 1.999774 1_555
Nb5 O8 1.999774 1_555
Nb5 O16 2.029635 1_565
Nb5 O15 2.029635 1_565
Nb5 O21 2.046807 1_554
Nb5 O18 2.046807 1_555
Nb5 O17 2.441095 1_655
Nb6 O10 2.017063 1_455
Nb6 O4 2.017063 1_544
Nb6 O11 2.017063 1_545
Nb6 O5 2.017063 1_454
Nb6 O9 2.017063 1_554
Nb6 O3 2.017063 1_445
Nb7 O7 2.017063 1_555
Nb7 O1 2.017063 1_555
Nb7 O6 2.017063 1_555
Nb7 O0 2.017063 1_555
Nb7 O8 2.017063 1_555
Nb7 O2 2.017063 1_555
Ag0 O5 2.607327 1_555
Ag0 O3 2.607327 1_555
Ag0 O4 2.607327 1_555
Ag0 O9 2.693271 1_565
Ag0 O10 2.693271 1_556
Ag0 O11 2.693271 1_655
Ag1 O0 2.607327 1_455
Ag1 O2 2.607327 1_554
Ag1 O1 2.607327 1_545
Ag1 O8 2.693271 1_545
Ag1 O7 2.693271 1_455
Ag1 O6 2.693271 1_554
Ag2 O11 2.607327 1_555
Ag2 O9 2.607327 1_555
Ag2 O10 2.607327 1_555
Ag2 O3 2.693271 1_545
Ag2 O4 2.693271 1_554
Ag2 O5 2.693271 1_455
Ag3 O6 2.607327 1_655
Ag3 O8 2.607327 1_556
Ag3 O7 2.607327 1_565
Ag3 O2 2.693271 1_565
Ag3 O1 2.693271 1_655
Ag3 O0 2.693271 1_556
