# generated using pymatgen
data_SiPd
_symmetry_space_group_name_H-M   'P 1'
_cell_length_a   6.30763884
_cell_length_b   6.30763884
_cell_length_c   6.30763884
_cell_angle_alpha   97.80519851
_cell_angle_beta   97.80519851
_cell_angle_gamma   136.75151382
_symmetry_Int_Tables_number   1
_chemical_formula_structural   SiPd
_chemical_formula_sum   'Si4 Pd4'
_cell_volume   159.84556472
_cell_formula_units_Z   4
loop_
 _symmetry_equiv_pos_site_id
 _symmetry_equiv_pos_as_xyz
  1  'x, y, z'
loop_
 _atom_site_type_symbol
 _atom_site_label
 _atom_site_symmetry_multiplicity
 _atom_site_fract_x
 _atom_site_fract_y
 _atom_site_fract_z
 _atom_site_occupancy
  Si  Si0  1  0.88920500  0.38920500  0.27841100  1
  Si  Si1  1  0.11079500  0.61079500  0.72158900  1
  Si  Si2  1  0.61079500  0.88920500  0.50000000  1
  Si  Si3  1  0.38920500  0.11079500  0.50000000  1
  Pd  Pd0  1  0.67833200  0.17833200  0.85666300  1
  Pd  Pd1  1  0.32166800  0.82166800  0.14333700  1
  Pd  Pd2  1  0.82166800  0.67833200  0.50000000  1
  Pd  Pd3  1  0.17833200  0.32166800  0.50000000  1
loop_
_geom_bond_atom_site_label_1
_geom_bond_atom_site_label_2
_geom_bond_distance
_geom_bond_site_symmetry_2
Pd0 Si1 2.455711 1_655
Pd0 Si1 2.455711 1_545
Pd0 Si2 2.462135 1_545
Pd0 Si3 2.462135 1_555
Pd0 Si0 2.473008 1_556
Pd1 Si0 2.455711 1_455
Pd1 Si0 2.455711 1_565
Pd1 Si2 2.462135 1_555
Pd1 Si3 2.462135 1_565
Pd1 Si1 2.473008 1_554
Pd2 Si3 2.455711 1_665
Pd2 Si3 2.455711 1_555
Pd2 Si0 2.462137 1_555
Pd2 Si1 2.462137 1_655
Pd2 Si2 2.472997 1_555
Pd3 Si2 2.455711 1_445
Pd3 Si2 2.455711 1_555
Pd3 Si0 2.462137 1_455
Pd3 Si1 2.462137 1_555
Pd3 Si3 2.472997 1_555
