# generated using pymatgen
data_Fe23(BC)3
_symmetry_space_group_name_H-M   'P 1'
_cell_length_a   7.44630203
_cell_length_b   7.44630203
_cell_length_c   7.44630278
_cell_angle_alpha   60.01359758
_cell_angle_beta   60.01359758
_cell_angle_gamma   60.01359404
_symmetry_Int_Tables_number   1
_chemical_formula_structural   Fe23(BC)3
_chemical_formula_sum   'Fe23 B3 C3'
_cell_volume   292.03898783
_cell_formula_units_Z   1
loop_
 _symmetry_equiv_pos_site_id
 _symmetry_equiv_pos_as_xyz
  1  'x, y, z'
loop_
 _atom_site_type_symbol
 _atom_site_label
 _atom_site_symmetry_multiplicity
 _atom_site_fract_x
 _atom_site_fract_y
 _atom_site_fract_z
 _atom_site_occupancy
  Fe  Fe0  1  0.00039500  0.34480700  0.00039500  1
  Fe  Fe1  1  0.34480700  0.00039500  0.00039500  1
  Fe  Fe2  1  0.00039500  0.00039500  0.34480700  1
  Fe  Fe3  1  0.34103900  0.99629900  0.65950300  1
  Fe  Fe4  1  0.99629900  0.34103900  0.65950300  1
  Fe  Fe5  1  0.00020800  0.00020800  0.66330800  1
  Fe  Fe6  1  0.65950300  0.99629900  0.34103900  1
  Fe  Fe7  1  0.66330800  0.00020800  0.00020800  1
  Fe  Fe8  1  0.65950300  0.34103900  0.99629900  1
  Fe  Fe9  1  0.00020800  0.66330800  0.00020800  1
  Fe  Fe10  1  0.99629900  0.65950300  0.34103900  1
  Fe  Fe11  1  0.34103900  0.65950300  0.99629900  1
  Fe  Fe12  1  0.38044600  0.38044600  0.38044600  1
  Fe  Fe13  1  0.38460500  0.38460500  0.85063200  1
  Fe  Fe14  1  0.85063200  0.38460500  0.38460500  1
  Fe  Fe15  1  0.38460500  0.85063200  0.38460500  1
  Fe  Fe16  1  0.61585600  0.61585600  0.61585600  1
  Fe  Fe17  1  0.61987400  0.61987400  0.14557100  1
  Fe  Fe18  1  0.14557100  0.61987400  0.61987400  1
  Fe  Fe19  1  0.61987400  0.14557100  0.61987400  1
  Fe  Fe20  1  0.00409000  0.00409000  0.00409000  1
  Fe  Fe21  1  0.24892900  0.24892900  0.24892900  1
  Fe  Fe22  1  0.74916900  0.74916900  0.74916900  1
  B  B0  1  0.27512700  0.72350300  0.27512700  1
  B  B1  1  0.72350300  0.27512700  0.27512700  1
  B  B2  1  0.27512700  0.27512700  0.72350300  1
  C  C0  1  0.72122300  0.27714100  0.72122300  1
  C  C1  1  0.27714100  0.72122300  0.72122300  1
  C  C2  1  0.72122300  0.72122300  0.27714100  1
loop_
_geom_bond_atom_site_label_1
_geom_bond_atom_site_label_2
_geom_bond_distance
_geom_bond_site_symmetry_2
Fe0 Fe20 2.509881 1_555
Fe1 Fe20 2.509881 1_555
Fe2 Fe20 2.509881 1_555
Fe10 Fe20 2.539773 1_665
Fe11 Fe20 2.539773 1_566
Fe12 Fe21 2.398576 1_555
Fe13 Fe21 2.422311 1_556
Fe14 Fe21 2.422311 1_655
Fe15 Fe21 2.422311 1_565
Fe16 Fe22 2.431331 1_555
Fe17 Fe22 2.410761 1_554
Fe18 Fe22 2.410760 1_455
Fe19 Fe22 2.410760 1_545
Fe20 Fe8 2.539773 1_454
Fe20 Fe6 2.539773 1_445
Fe20 Fe3 2.539773 1_544
Fe20 Fe4 2.539773 1_454
Fe20 Fe9 2.566786 1_545
Fe20 Fe7 2.566786 1_455
Fe20 Fe5 2.566786 1_554
B0 Fe12 2.089330 1_555
B0 Fe17 2.098717 1_555
B0 Fe18 2.098717 1_555
B0 Fe15 2.105308 1_555
B0 Fe2 2.120729 1_565
B0 Fe1 2.120730 1_565
B0 Fe10 2.124950 1_455
B0 Fe11 2.124950 1_554
B1 Fe12 2.089330 1_555
B1 Fe17 2.098717 1_555
B1 Fe19 2.098717 1_555
B1 Fe14 2.105308 1_555
B1 Fe2 2.120729 1_655
B1 Fe0 2.120730 1_655
B1 Fe6 2.124950 1_545
B1 Fe8 2.124950 1_554
B2 Fe12 2.089331 1_555
B2 Fe18 2.098717 1_555
B2 Fe19 2.098717 1_555
B2 Fe13 2.105308 1_555
B2 Fe0 2.120730 1_556
B2 Fe1 2.120730 1_556
B2 Fe3 2.124950 1_545
B2 Fe4 2.124950 1_455
C0 Fe19 2.036251 1_555
C0 Fe13 2.050169 1_555
C0 Fe14 2.050169 1_555
C0 Fe16 2.061973 1_555
C0 Fe4 2.108971 1_555
C0 Fe8 2.108972 1_555
C0 Fe5 2.113117 1_655
C0 Fe7 2.113117 1_556
C1 Fe18 2.036251 1_555
C1 Fe13 2.050169 1_555
C1 Fe15 2.050169 1_555
C1 Fe16 2.061973 1_555
C1 Fe3 2.108971 1_555
C1 Fe11 2.108972 1_555
C1 Fe5 2.113117 1_565
C1 Fe9 2.113117 1_556
C2 Fe17 2.036251 1_555
C2 Fe14 2.050169 1_555
C2 Fe15 2.050169 1_555
C2 Fe16 2.061974 1_555
C2 Fe6 2.108971 1_555
C2 Fe10 2.108971 1_555
C2 Fe7 2.113117 1_565
C2 Fe9 2.113117 1_655
