# generated using pymatgen
data_Nb4NiSe8
_symmetry_space_group_name_H-M   'P 1'
_cell_length_a   6.98649310
_cell_length_b   6.98649261
_cell_length_c   12.61410541
_cell_angle_alpha   89.99993177
_cell_angle_beta   90.00008129
_cell_angle_gamma   119.99965110
_symmetry_Int_Tables_number   1
_chemical_formula_structural   Nb4NiSe8
_chemical_formula_sum   'Nb8 Ni2 Se16'
_cell_volume   533.22076420
_cell_formula_units_Z   2
loop_
 _symmetry_equiv_pos_site_id
 _symmetry_equiv_pos_as_xyz
  1  'x, y, z'
loop_
 _atom_site_type_symbol
 _atom_site_label
 _atom_site_symmetry_multiplicity
 _atom_site_fract_x
 _atom_site_fract_y
 _atom_site_fract_z
 _atom_site_occupancy
  Nb  Nb0  1  -0.00000058  0.00000075  0.24998108  1
  Nb  Nb1  1  0.00000000  -0.00000045  0.75002116  1
  Nb  Nb2  1  0.50964936  0.01929456  0.24997799  1
  Nb  Nb3  1  0.98070493  0.49035063  0.24997799  1
  Nb  Nb4  1  0.50964600  0.49035312  0.24997703  1
  Nb  Nb5  1  0.49035679  0.98071741  0.75002280  1
  Nb  Nb6  1  0.01928279  0.50964090  0.75002278  1
  Nb  Nb7  1  0.49036196  0.50964139  0.75002191  1
  Ni  Ni0  1  0.00000026  -0.00000028  0.50000062  1
  Ni  Ni1  1  0.00000036  -0.00000031  0.00000459  1
  Se  Se0  1  0.33333157  0.66666885  0.88781011  1
  Se  Se1  1  0.66666712  0.33333215  0.11218013  1
  Se  Se2  1  0.66666711  0.33333337  0.38778848  1
  Se  Se3  1  0.33333225  0.66666827  0.61221090  1
  Se  Se4  1  0.16777831  0.83222444  0.38057958  1
  Se  Se5  1  0.16777499  0.33555168  0.38058081  1
  Se  Se6  1  0.66444821  0.83222122  0.38058074  1
  Se  Se7  1  0.83223243  0.16777079  0.61941666  1
  Se  Se8  1  0.83222872  0.66446168  0.61941642  1
  Se  Se9  1  0.33553840  0.16776879  0.61941668  1
  Se  Se10  1  0.83220763  0.16778713  0.88062063  1
  Se  Se11  1  0.83221218  0.66442106  0.88062106  1
  Se  Se12  1  0.33557856  0.16779358  0.88062081  1
  Se  Se13  1  0.16779719  0.83220623  0.11938462  1
  Se  Se14  1  0.16779226  0.33558715  0.11938215  1
  Se  Se15  1  0.66441320  0.83220388  0.11938226  1
loop_
_geom_bond_atom_site_label_1
_geom_bond_atom_site_label_2
_geom_bond_distance
_geom_bond_site_symmetry_2
Nb0 Se4 2.614545 1_545
Nb0 Se5 2.614545 1_555
Nb0 Se6 2.614547 1_445
Nb0 Se15 2.614702 1_445
Nb0 Se14 2.614704 1_555
Nb0 Se13 2.614707 1_545
Nb1 Se7 2.614515 1_455
Nb1 Se8 2.614524 1_445
Nb1 Se9 2.614525 1_555
Nb1 Se10 2.614673 1_455
Nb1 Se12 2.614673 1_555
Nb1 Se11 2.614675 1_445
Nb2 Se1 2.575198 1_555
Nb2 Se2 2.575313 1_555
Nb2 Se13 2.646619 1_545
Nb2 Se15 2.646642 1_545
Nb2 Se4 2.646766 1_545
Nb2 Se6 2.646770 1_545
Nb3 Se1 2.575199 1_555
Nb3 Se2 2.575309 1_555
Nb3 Se14 2.646625 1_655
Nb3 Se13 2.646636 1_655
Nb3 Se5 2.646754 1_655
Nb3 Se4 2.646779 1_655
Nb4 Se1 2.575206 1_555
Nb4 Se2 2.575320 1_555
Nb4 Se15 2.646621 1_555
Nb4 Se14 2.646636 1_555
Nb4 Se6 2.646767 1_555
Nb4 Se5 2.646782 1_555
Nb5 Se0 2.575158 1_555
Nb5 Se3 2.575371 1_555
Nb5 Se10 2.646642 1_565
Nb5 Se12 2.646656 1_565
Nb5 Se9 2.646778 1_565
Nb5 Se7 2.646818 1_565
Nb6 Se0 2.575158 1_555
Nb6 Se3 2.575373 1_555
Nb6 Se11 2.646639 1_455
Nb6 Se10 2.646658 1_455
Nb6 Se7 2.646791 1_455
Nb6 Se8 2.646804 1_455
Nb7 Se0 2.575202 1_555
Nb7 Se3 2.575387 1_555
Nb7 Se12 2.646634 1_555
Nb7 Se11 2.646648 1_555
Nb7 Se8 2.646769 1_555
Nb7 Se9 2.646794 1_555
Ni0 Se7 2.527966 1_455
Ni0 Se8 2.527966 1_445
Ni0 Se9 2.527968 1_555
Ni0 Se5 2.528064 1_555
Ni0 Se6 2.528064 1_445
Ni0 Se4 2.528073 1_545
Ni1 Se15 2.527920 1_445
Ni1 Se14 2.527920 1_555
Ni1 Se10 2.527922 1_454
Ni1 Se11 2.527922 1_444
Ni1 Se12 2.527922 1_554
Ni1 Se13 2.527941 1_545
