# generated using pymatgen
data_Sr2MgZn2Sn2(PO4)4
_symmetry_space_group_name_H-M   'P 1'
_cell_length_a   6.36594681
_cell_length_b   7.72298107
_cell_length_c   9.48922617
_cell_angle_alpha   104.40818034
_cell_angle_beta   109.75021370
_cell_angle_gamma   106.13308737
_symmetry_Int_Tables_number   1
_chemical_formula_structural   Sr2MgZn2Sn2(PO4)4
_chemical_formula_sum   'Sr2 Mg1 Zn2 Sn2 P4 O16'
_cell_volume   390.31352433
_cell_formula_units_Z   1
loop_
 _symmetry_equiv_pos_site_id
 _symmetry_equiv_pos_as_xyz
  1  'x, y, z'
loop_
 _atom_site_type_symbol
 _atom_site_label
 _atom_site_symmetry_multiplicity
 _atom_site_fract_x
 _atom_site_fract_y
 _atom_site_fract_z
 _atom_site_occupancy
  Sr  Sr0  1  0.24267958  0.63727165  0.93929040  1
  Sr  Sr1  1  0.75732042  0.36272835  0.06070960  1
  Mg  Mg0  1  0.00000000  0.00000000  0.00000000  1
  Zn  Zn0  1  0.16214857  0.26224139  0.57114968  1
  Zn  Zn1  1  0.83785143  0.73775861  0.42885032  1
  Sn  Sn0  1  0.52370326  0.82094305  0.52545168  1
  Sn  Sn1  1  0.47629674  0.17905695  0.47454832  1
  P  P0  1  0.30999390  0.39305483  0.19728749  1
  P  P1  1  0.69000610  0.60694517  0.80271251  1
  P  P2  1  0.75787995  0.01774677  0.26013181  1
  P  P3  1  0.24212005  0.98225323  0.73986819  1
  O  O0  1  0.88285305  0.68227030  0.98260581  1
  O  O1  1  0.56514718  0.51200418  0.21292763  1
  O  O2  1  0.68599257  0.79787831  0.77529255  1
  O  O3  1  0.06390243  0.07908625  0.67679062  1
  O  O4  1  0.43485282  0.48799582  0.78707237  1
  O  O5  1  0.17538001  0.78721667  0.59231653  1
  O  O6  1  0.82461999  0.21278333  0.40768347  1
  O  O7  1  0.20407862  0.92890729  0.87906465  1
  O  O8  1  0.31400743  0.20212169  0.22470745  1
  O  O9  1  0.79592138  0.07109271  0.12093535  1
  O  O10  1  0.11714695  0.31772870  0.01739419  1
  O  O11  1  0.22513268  0.51740847  0.30362726  1
  O  O12  1  0.77486732  0.48259153  0.69637274  1
  O  O13  1  0.49338222  0.88670829  0.20796627  1
  O  O14  1  0.93609757  0.92091375  0.32320938  1
  O  O15  1  0.50661778  0.11329171  0.79203373  1
loop_
_geom_bond_atom_site_label_1
_geom_bond_atom_site_label_2
_geom_bond_distance
_geom_bond_site_symmetry_2
Mg0 O7 2.096818 1_544
Mg0 O9 2.096818 1_455
Mg0 O2 2.169787 1_444
Mg0 O8 2.169787 1_555
Mg0 O10 2.302796 1_555
Mg0 O0 2.302803 1_444
Sn0 Zn1 2.629123 1_555
Sn1 Zn0 2.629123 1_555
O0 P1 1.565931 1_555
O0 Sr0 2.558195 1_655
O0 Sr1 2.737252 1_556
O1 P0 1.563407 1_555
O1 Zn1 2.094724 1_555
O1 Sr1 2.461994 1_555
O2 P1 1.565280 1_555
O2 Sn0 2.318800 1_555
O3 P3 1.562052 1_545
O3 Zn0 2.008639 1_555
O4 P1 1.563407 1_555
O4 Zn0 2.094724 1_555
O4 Sr0 2.461994 1_555
O5 P3 1.613232 1_555
O5 Zn1 2.040921 1_455
O5 Sn0 2.469708 1_555
O6 P2 1.613232 1_555
O6 Zn0 2.040921 1_655
O6 Sn1 2.469708 1_555
O7 P3 1.550685 1_555
O7 Sr0 2.512583 1_555
O8 P0 1.565280 1_555
O8 Sn1 2.318800 1_555
O9 P2 1.550685 1_555
O9 Sr1 2.512583 1_555
O10 P0 1.565930 1_555
O10 Sr1 2.558197 1_455
O10 Sr0 2.737259 1_554
O11 P0 1.551414 1_555
O11 Sn0 2.429595 1_555
O11 Sr1 2.760887 1_455
O12 P1 1.551414 1_555
O12 Sn1 2.429595 1_555
O12 Sr0 2.760887 1_655
O13 P2 1.531248 1_565
O13 Sr0 2.419801 1_554
O14 P2 1.562052 1_565
O14 Zn1 2.008639 1_555
O15 P3 1.531248 1_545
O15 Sr1 2.419801 1_556
