# generated using pymatgen
data_Yb5P7Pd9
_symmetry_space_group_name_H-M   'P 1'
_cell_length_a   10.08867042
_cell_length_b   10.08867042
_cell_length_c   4.06550200
_cell_angle_alpha   90.00000000
_cell_angle_beta   90.00000000
_cell_angle_gamma   120.00000278
_symmetry_Int_Tables_number   1
_chemical_formula_structural   Yb5P7Pd9
_chemical_formula_sum   'Yb5 P7 Pd9'
_cell_volume   358.35433964
_cell_formula_units_Z   1
loop_
 _symmetry_equiv_pos_site_id
 _symmetry_equiv_pos_as_xyz
  1  'x, y, z'
loop_
 _atom_site_type_symbol
 _atom_site_label
 _atom_site_symmetry_multiplicity
 _atom_site_fract_x
 _atom_site_fract_y
 _atom_site_fract_z
 _atom_site_occupancy
  Yb  Yb0  1  0.66666700  0.33333300  0.00000000  1
  Yb  Yb1  1  0.33333300  0.66666700  0.50000000  1
  Yb  Yb2  1  0.10537000  0.22872400  0.50000000  1
  Yb  Yb3  1  0.77127600  0.87664600  0.50000000  1
  Yb  Yb4  1  0.12335400  0.89463000  0.50000000  1
  P  P0  1  0.85256600  0.27749500  0.50000000  1
  P  P1  1  0.72250500  0.57507100  0.50000000  1
  P  P2  1  0.42492900  0.14743400  0.50000000  1
  P  P3  1  0.00000000  0.00000000  0.00000000  1
  P  P4  1  0.31504200  0.42511700  0.00000000  1
  P  P5  1  0.57488300  0.88992500  0.00000000  1
  P  P6  1  0.11007500  0.68495800  0.00000000  1
  Pd  Pd0  1  0.59736900  0.05428500  0.50000000  1
  Pd  Pd1  1  0.94571500  0.54308400  0.50000000  1
  Pd  Pd2  1  0.45691600  0.40263100  0.50000000  1
  Pd  Pd3  1  0.82996300  0.12732700  0.00000000  1
  Pd  Pd4  1  0.87267300  0.70263700  0.00000000  1
  Pd  Pd5  1  0.29736300  0.17003700  0.00000000  1
  Pd  Pd6  1  0.07944400  0.43818700  0.00000000  1
  Pd  Pd7  1  0.56181300  0.64125700  0.00000000  1
  Pd  Pd8  1  0.35874300  0.92055600  0.00000000  1
loop_
_geom_bond_atom_site_label_1
_geom_bond_atom_site_label_2
_geom_bond_distance
_geom_bond_site_symmetry_2
P0 Pd1 2.354681 1_555
P0 Pd0 2.429374 1_555
P0 Pd3 2.476654 1_556
P0 Pd3 2.476654 1_555
P0 Yb2 2.828752 1_655
P0 Pd6 2.878997 1_655
P0 Pd6 2.878997 1_656
P0 Yb0 3.003886 1_555
P0 Yb0 3.003886 1_556
P1 Pd2 2.354681 1_555
P1 Pd1 2.429374 1_555
P1 Pd4 2.476656 1_556
P1 Pd4 2.476656 1_555
P1 Yb3 2.828752 1_555
P1 Pd7 2.878998 1_556
P1 Pd7 2.878998 1_555
P1 Yb0 3.003894 1_555
P1 Yb0 3.003894 1_556
P2 Pd0 2.354682 1_555
P2 Pd2 2.429374 1_555
P2 Pd5 2.476660 1_555
P2 Pd5 2.476660 1_556
P2 Yb4 2.828752 1_545
P2 Pd8 2.878998 1_545
P2 Pd8 2.878998 1_546
P2 Yb0 3.003891 1_555
P2 Yb0 3.003891 1_556
P3 Pd4 2.606991 1_445
P3 Pd5 2.606992 1_555
P3 Pd3 2.607000 1_455
P3 Yb3 2.851981 1_444
P3 Yb3 2.851981 1_445
P3 Yb2 2.851981 1_554
P3 Yb2 2.851981 1_555
P3 Yb4 2.851981 1_545
P3 Yb4 2.851981 1_544
P4 Pd7 2.350364 1_555
P4 Pd6 2.445468 1_555
P4 Pd5 2.489037 1_555
P4 Pd2 2.560648 1_555
P4 Pd2 2.560648 1_554
P4 Yb2 2.888111 1_555
P4 Yb2 2.888111 1_554
P4 Yb1 3.107251 1_555
P4 Yb1 3.107251 1_554
P5 Pd8 2.350365 1_555
P5 Pd7 2.445468 1_555
P5 Pd3 2.489041 1_565
P5 Pd0 2.560648 1_565
P5 Pd0 2.560648 1_564
P5 Yb3 2.888111 1_554
P5 Yb3 2.888111 1_555
P5 Yb1 3.107248 1_554
P5 Yb1 3.107248 1_555
P6 Pd6 2.350364 1_555
P6 Pd8 2.445468 1_555
P6 Pd4 2.489047 1_455
P6 Pd1 2.560648 1_455
P6 Pd1 2.560648 1_454
P6 Yb4 2.888111 1_554
P6 Yb4 2.888111 1_555
P6 Yb1 3.107244 1_555
P6 Yb1 3.107244 1_554
Pd0 Pd3 2.907281 1_556
Pd0 Pd3 2.907281 1_555
Pd0 Pd8 2.915472 1_545
Pd0 Pd8 2.915472 1_546
Pd0 Yb3 3.071531 1_545
Pd0 Yb0 3.252406 1_555
Pd0 Yb0 3.252406 1_556
Pd0 Yb1 3.459952 1_545
Pd1 Pd4 2.907288 1_556
Pd1 Pd4 2.907288 1_555
Pd1 Pd6 2.915472 1_655
Pd1 Pd6 2.915472 1_656
Pd1 Yb4 3.071531 1_655
Pd1 Yb0 3.252408 1_555
Pd1 Yb0 3.252408 1_556
Pd1 Yb1 3.459950 1_655
Pd2 Pd5 2.907282 1_556
Pd2 Pd5 2.907282 1_555
Pd2 Pd7 2.915472 1_556
Pd2 Pd7 2.915472 1_555
Pd2 Yb2 3.071531 1_555
Pd2 Yb0 3.252413 1_555
Pd2 Yb0 3.252413 1_556
Pd2 Yb1 3.459960 1_555
Pd3 Pd6 2.876970 1_655
Pd3 Yb3 3.062888 1_545
Pd3 Yb3 3.062888 1_544
Pd3 Yb2 3.171159 1_654
Pd3 Yb2 3.171159 1_655
Pd3 Yb0 3.233793 1_555
Pd4 Pd7 2.876967 1_555
Pd4 Yb4 3.062886 1_655
Pd4 Yb4 3.062886 1_654
Pd4 Yb3 3.171152 1_555
Pd4 Yb3 3.171152 1_554
Pd4 Yb0 3.233809 1_555
Pd5 Pd8 2.876977 1_545
Pd5 Yb2 3.062881 1_555
Pd5 Yb2 3.062881 1_554
Pd5 Yb4 3.171158 1_545
Pd5 Yb4 3.171158 1_544
Pd5 Yb0 3.233811 1_555
Pd6 Yb2 3.036255 1_554
Pd6 Yb2 3.036255 1_555
Pd6 Yb1 3.178360 1_554
Pd6 Yb1 3.178360 1_555
Pd7 Yb3 3.036255 1_555
Pd7 Yb3 3.036255 1_554
Pd7 Yb1 3.178365 1_554
Pd7 Yb1 3.178365 1_555
Pd8 Yb4 3.036255 1_555
Pd8 Yb4 3.036255 1_554
Pd8 Yb1 3.178357 1_555
Pd8 Yb1 3.178357 1_554
