# generated using pymatgen
data_Fe3B7BrO13
_symmetry_space_group_name_H-M   'P 1'
_cell_length_a   8.68432203
_cell_length_b   8.68432203
_cell_length_c   8.68432203
_cell_angle_alpha   60.00000000
_cell_angle_beta   60.00000000
_cell_angle_gamma   60.00000000
_symmetry_Int_Tables_number   1
_chemical_formula_structural   Fe3B7BrO13
_chemical_formula_sum   'Fe6 B14 Br2 O26'
_cell_volume   463.11917316
_cell_formula_units_Z   2
loop_
 _symmetry_equiv_pos_site_id
 _symmetry_equiv_pos_as_xyz
  1  'x, y, z'
loop_
 _atom_site_type_symbol
 _atom_site_label
 _atom_site_symmetry_multiplicity
 _atom_site_fract_x
 _atom_site_fract_y
 _atom_site_fract_z
 _atom_site_occupancy
  Fe  Fe0  1  0.50000000  0.00000000  0.00000000  1
  Fe  Fe1  1  0.00000000  0.50000000  0.50000000  1
  Fe  Fe2  1  0.00000000  0.50000000  0.00000000  1
  Fe  Fe3  1  0.50000000  0.00000000  0.50000000  1
  Fe  Fe4  1  0.00000000  0.00000000  0.50000000  1
  Fe  Fe5  1  0.50000000  0.50000000  0.00000000  1
  B  B0  1  0.07949600  0.07949600  0.07949600  1
  B  B1  1  0.07949600  0.07949600  0.76151100  1
  B  B2  1  0.07949600  0.76151100  0.07949600  1
  B  B3  1  0.57949600  0.57949600  0.57949600  1
  B  B4  1  0.76151100  0.07949600  0.07949600  1
  B  B5  1  0.57949600  0.57949600  0.26151100  1
  B  B6  1  0.26151100  0.57949600  0.57949600  1
  B  B7  1  0.57949600  0.26151100  0.57949600  1
  B  B8  1  0.75000000  0.25000000  0.25000000  1
  B  B9  1  0.25000000  0.75000000  0.75000000  1
  B  B10  1  0.25000000  0.75000000  0.25000000  1
  B  B11  1  0.75000000  0.25000000  0.75000000  1
  B  B12  1  0.25000000  0.25000000  0.75000000  1
  B  B13  1  0.75000000  0.75000000  0.25000000  1
  Br  Br0  1  0.25000000  0.25000000  0.25000000  1
  Br  Br1  1  0.75000000  0.75000000  0.75000000  1
  O  O0  1  0.25456800  0.10508000  0.93601800  1
  O  O1  1  0.10508000  0.25456800  0.70433500  1
  O  O2  1  0.93601800  0.70433500  0.25456800  1
  O  O3  1  0.93601800  0.25456800  0.10508000  1
  O  O4  1  0.60508000  0.75456800  0.43601800  1
  O  O5  1  0.70433500  0.93601800  0.10508000  1
  O  O6  1  0.70433500  0.10508000  0.25456800  1
  O  O7  1  0.75456800  0.60508000  0.20433500  1
  O  O8  1  0.25456800  0.93601800  0.70433500  1
  O  O9  1  0.20433500  0.43601800  0.75456800  1
  O  O10  1  0.10508000  0.70433500  0.93601800  1
  O  O11  1  0.43601800  0.20433500  0.60508000  1
  O  O12  1  0.10508000  0.93601800  0.25456800  1
  O  O13  1  0.75456800  0.43601800  0.60508000  1
  O  O14  1  0.70433500  0.25456800  0.93601800  1
  O  O15  1  0.43601800  0.75456800  0.20433500  1
  O  O16  1  0.93601800  0.10508000  0.70433500  1
  O  O17  1  0.20433500  0.60508000  0.43601800  1
  O  O18  1  0.25456800  0.70433500  0.10508000  1
  O  O19  1  0.60508000  0.20433500  0.75456800  1
  O  O20  1  0.43601800  0.60508000  0.75456800  1
  O  O21  1  0.20433500  0.75456800  0.60508000  1
  O  O22  1  0.60508000  0.43601800  0.20433500  1
  O  O23  1  0.75456800  0.20433500  0.43601800  1
  O  O24  1  0.00000000  0.00000000  0.00000000  1
  O  O25  1  0.50000000  0.50000000  0.50000000  1
loop_
_geom_bond_atom_site_label_1
_geom_bond_atom_site_label_2
_geom_bond_distance
_geom_bond_site_symmetry_2
Fe0 O0 2.101577 1_554
Fe0 O15 2.101579 1_545
Fe0 O19 2.101582 1_554
Fe0 O5 2.101585 1_545
Fe1 O13 2.101577 1_455
Fe1 O2 2.101579 1_455
Fe1 O1 2.101582 1_555
Fe1 O17 2.101585 1_555
Fe2 O3 2.101577 1_455
Fe2 O9 2.101579 1_554
Fe2 O7 2.101582 1_455
Fe2 O10 2.101585 1_554
Fe3 O4 2.101577 1_545
Fe3 O8 2.101579 1_545
Fe3 O6 2.101582 1_555
Fe3 O11 2.101585 1_555
Fe4 O12 2.101577 1_545
Fe4 O23 2.101579 1_455
Fe4 O21 2.101582 1_545
Fe4 O16 2.101585 1_455
Fe5 O20 2.101577 1_554
Fe5 O14 2.101579 1_554
Fe5 O18 2.101582 1_555
Fe5 O22 2.101585 1_555
B0 O12 1.442225 1_545
B0 O3 1.442225 1_455
B0 O0 1.442225 1_554
B0 O24 1.691051 1_555
B1 O16 1.442213 1_455
B1 O8 1.442221 1_545
B1 O1 1.442230 1_555
B1 O24 1.691059 1_556
B2 O10 1.442213 1_554
B2 O2 1.442221 1_455
B2 O18 1.442230 1_555
B2 O24 1.691059 1_565
B3 O13 1.442225 1_555
B3 O20 1.442225 1_555
B3 O4 1.442225 1_555
B3 O25 1.691051 1_555
B4 O5 1.442213 1_545
B4 O14 1.442221 1_554
B4 O6 1.442230 1_555
B4 O24 1.691059 1_655
B5 O22 1.442213 1_555
B5 O15 1.442221 1_555
B5 O7 1.442230 1_555
B5 O25 1.691059 1_555
B6 O17 1.442213 1_555
B6 O9 1.442221 1_555
B6 O21 1.442230 1_555
B6 O25 1.691059 1_555
B7 O11 1.442213 1_555
B7 O23 1.442221 1_555
B7 O19 1.442230 1_555
B7 O25 1.691059 1_555
B8 O6 1.475189 1_555
B8 O22 1.475193 1_555
B8 O3 1.475195 1_555
B8 O23 1.475197 1_555
B9 O21 1.475189 1_555
B9 O10 1.475193 1_555
B9 O20 1.475195 1_555
B9 O8 1.475197 1_555
B10 O18 1.475189 1_555
B10 O17 1.475193 1_555
B10 O12 1.475195 1_555
B10 O15 1.475197 1_555
B11 O19 1.475189 1_555
B11 O16 1.475193 1_555
B11 O13 1.475195 1_555
B11 O14 1.475197 1_555
B12 O1 1.475189 1_555
B12 O11 1.475193 1_555
B12 O0 1.475195 1_555
B12 O9 1.475197 1_555
B13 O7 1.475189 1_555
B13 O5 1.475193 1_555
B13 O4 1.475195 1_555
B13 O2 1.475197 1_555
Br0 Fe3 3.070371 1_555
Br0 Fe1 3.070371 1_555
Br0 Fe0 3.070371 1_555
Br0 Fe5 3.070371 1_555
Br0 Fe4 3.070371 1_555
Br0 Fe2 3.070371 1_555
Br1 Fe3 3.070371 1_565
Br1 Fe1 3.070371 1_655
Br1 Fe4 3.070371 1_665
Br1 Fe0 3.070371 1_566
Br1 Fe5 3.070371 1_556
Br1 Fe2 3.070371 1_656
