# generated using pymatgen
data_BaCaEuWO6
_symmetry_space_group_name_H-M   'P 1'
_cell_length_a   8.45839021
_cell_length_b   8.41569757
_cell_length_c   8.37472358
_cell_angle_alpha   90.00000000
_cell_angle_beta   90.00000000
_cell_angle_gamma   90.00000000
_symmetry_Int_Tables_number   1
_chemical_formula_structural   BaCaEuWO6
_chemical_formula_sum   'Ba4 Ca4 Eu4 W4 O24'
_cell_volume   596.14007524
_cell_formula_units_Z   4
loop_
 _symmetry_equiv_pos_site_id
 _symmetry_equiv_pos_as_xyz
  1  'x, y, z'
loop_
 _atom_site_type_symbol
 _atom_site_label
 _atom_site_symmetry_multiplicity
 _atom_site_fract_x
 _atom_site_fract_y
 _atom_site_fract_z
 _atom_site_occupancy
  Ba  Ba0  1  -0.00000000  0.00000000  -0.00000000  1
  Ba  Ba1  1  0.50000000  0.50000000  0.50000000  1
  Ba  Ba2  1  0.50000000  0.00000000  0.50000000  1
  Ba  Ba3  1  0.00000000  0.50000000  -0.00000000  1
  Ca  Ca0  1  0.75000000  0.75000000  0.75000000  1
  Ca  Ca1  1  0.25000000  0.25000000  0.75000000  1
  Ca  Ca2  1  0.25000000  0.75000000  0.25000000  1
  Ca  Ca3  1  0.75000000  0.25000000  0.25000000  1
  Eu  Eu0  1  0.00000000  0.50000000  0.50000000  1
  Eu  Eu1  1  0.50000000  0.50000000  -0.00000000  1
  Eu  Eu2  1  0.50000000  0.00000000  -0.00000000  1
  Eu  Eu3  1  -0.00000000  0.00000000  0.50000000  1
  W  W0  1  0.25000000  0.25000000  0.25000000  1
  W  W1  1  0.75000000  0.75000000  0.25000000  1
  W  W2  1  0.75000000  0.25000000  0.75000000  1
  W  W3  1  0.25000000  0.75000000  0.75000000  1
  O  O0  1  0.02207260  0.21128883  0.28169864  1
  O  O1  1  0.97792740  0.78871117  0.28169864  1
  O  O2  1  0.97792740  0.21128883  0.71830136  1
  O  O3  1  0.02207260  0.78871117  0.71830136  1
  O  O4  1  0.28563923  0.02145022  0.21393564  1
  O  O5  1  0.28563923  0.97854978  0.78606436  1
  O  O6  1  0.71436077  0.97854978  0.21393564  1
  O  O7  1  0.71436077  0.02145022  0.78606436  1
  O  O8  1  0.22107988  0.27707991  0.02052950  1
  O  O9  1  0.77892012  0.27707991  0.97947050  1
  O  O10  1  0.22107988  0.72292009  0.97947050  1
  O  O11  1  0.77892012  0.72292009  0.02052950  1
  O  O12  1  0.47792740  0.28871117  0.21830136  1
  O  O13  1  0.52207260  0.71128883  0.21830136  1
  O  O14  1  0.52207260  0.28871117  0.78169864  1
  O  O15  1  0.47792740  0.71128883  0.78169864  1
  O  O16  1  0.21436077  0.47854978  0.28606436  1
  O  O17  1  0.21436077  0.52145022  0.71393564  1
  O  O18  1  0.78563923  0.52145022  0.28606436  1
  O  O19  1  0.78563923  0.47854978  0.71393564  1
  O  O20  1  0.27892012  0.22292009  0.47947050  1
  O  O21  1  0.72107988  0.22292009  0.52052950  1
  O  O22  1  0.27892012  0.77707991  0.52052950  1
  O  O23  1  0.72107988  0.77707991  0.47947050  1
loop_
_geom_bond_atom_site_label_1
_geom_bond_atom_site_label_2
_geom_bond_distance
_geom_bond_site_symmetry_2
Ba0 O1 2.960106 1_445
Ba0 O0 2.960106 1_555
Ba0 O2 2.960106 1_454
Ba0 O3 2.960106 1_544
Ba0 O10 2.993956 1_544
Ba0 O9 2.993956 1_454
Ba0 O8 2.993956 1_555
Ba0 O11 2.993956 1_445
Ba0 O6 3.013286 1_445
Ba0 O4 3.013286 1_555
Ba0 O5 3.013286 1_544
Ba0 O7 3.013286 1_454
Ba1 O14 2.960106 1_555
Ba1 O15 2.960106 1_555
Ba1 O12 2.960106 1_555
Ba1 O13 2.960106 1_555
Ba1 O20 2.993956 1_555
Ba1 O23 2.993956 1_555
Ba1 O21 2.993956 1_555
Ba1 O22 2.993956 1_555
Ba1 O18 3.013286 1_555
Ba1 O19 3.013286 1_555
Ba1 O16 3.013286 1_555
Ba1 O17 3.013286 1_555
Ba2 O20 2.654405 1_555
Ba2 O21 2.654405 1_555
Ba2 O23 2.654405 1_545
Ba2 O22 2.654405 1_545
Ba2 O4 3.009903 1_555
Ba2 O6 3.009903 1_545
Ba2 O7 3.009903 1_555
Ba2 O5 3.009903 1_545
Ba3 O9 2.654405 1_454
Ba3 O8 2.654405 1_555
Ba3 O10 2.654405 1_554
Ba3 O11 2.654405 1_455
Ba3 O18 3.009903 1_455
Ba3 O19 3.009903 1_454
Ba3 O16 3.009903 1_555
Ba3 O17 3.009903 1_554
Ca0 O23 2.290145 1_555
Ca0 O11 2.290145 1_556
Ca0 O7 2.323956 1_565
Ca0 O19 2.323956 1_555
Ca0 O15 2.339353 1_555
Ca0 O3 2.339353 1_655
Ca1 O20 2.290145 1_555
Ca1 O8 2.290145 1_556
Ca1 O17 2.323956 1_555
Ca1 O5 2.323956 1_545
Ca1 O2 2.339353 1_455
Ca1 O14 2.339353 1_555
Ca2 O22 2.290145 1_555
Ca2 O10 2.290145 1_554
Ca2 O4 2.323956 1_565
Ca2 O16 2.323956 1_555
Ca2 O1 2.339353 1_455
Ca2 O13 2.339353 1_555
Ca3 O21 2.290145 1_555
Ca3 O9 2.290145 1_554
Ca3 O6 2.323956 1_545
Ca3 O18 2.323956 1_555
Ca3 O0 2.339353 1_655
Ca3 O12 2.339353 1_555
Eu0 O17 2.555407 1_555
Eu0 O16 2.555407 1_555
Eu0 O18 2.555407 1_455
Eu0 O19 2.555407 1_455
Eu1 O15 2.557149 1_554
Eu1 O13 2.557149 1_555
Eu1 O12 2.557149 1_555
Eu1 O14 2.557149 1_554
Eu1 O10 3.019095 1_554
Eu1 O11 3.019095 1_555
Eu1 O8 3.019095 1_555
Eu1 O9 3.019095 1_554
Eu2 O4 2.555407 1_555
Eu2 O7 2.555407 1_554
Eu2 O6 2.555407 1_545
Eu2 O5 2.555407 1_544
Eu3 O1 2.557149 1_445
Eu3 O0 2.557149 1_555
Eu3 O2 2.557149 1_455
Eu3 O3 2.557149 1_545
Eu3 O21 3.019095 1_455
Eu3 O20 3.019095 1_555
Eu3 O22 3.019095 1_545
Eu3 O23 3.019095 1_445
O0 W0 1.973170 1_555
O1 W1 1.973170 1_555
O2 W2 1.973170 1_555
O3 W3 1.973170 1_555
O4 W0 1.970174 1_555
O5 W3 1.970174 1_555
O6 W1 1.970174 1_555
O7 W2 1.970174 1_555
O8 W0 1.950617 1_555
O9 W2 1.950617 1_555
O10 W3 1.950617 1_555
O11 W1 1.950617 1_555
O12 W0 1.973170 1_555
O13 W1 1.973170 1_555
O14 W2 1.973170 1_555
O15 W3 1.973170 1_555
O16 W0 1.970174 1_555
O17 W3 1.970174 1_555
O18 W1 1.970174 1_555
O19 W2 1.970174 1_555
O20 W0 1.950617 1_555
O21 W2 1.950617 1_555
O22 W3 1.950617 1_555
O23 W1 1.950617 1_555
