# generated using pymatgen
data_YbInPt
_symmetry_space_group_name_H-M   'P 1'
_cell_length_a   7.57203434
_cell_length_b   7.57203434
_cell_length_c   3.78194931
_cell_angle_alpha   90.00000000
_cell_angle_beta   90.00000000
_cell_angle_gamma   120.00000471
_symmetry_Int_Tables_number   1
_chemical_formula_structural   YbInPt
_chemical_formula_sum   'Yb3 In3 Pt3'
_cell_volume   187.78956825
_cell_formula_units_Z   3
loop_
 _symmetry_equiv_pos_site_id
 _symmetry_equiv_pos_as_xyz
  1  'x, y, z'
loop_
 _atom_site_type_symbol
 _atom_site_label
 _atom_site_symmetry_multiplicity
 _atom_site_fract_x
 _atom_site_fract_y
 _atom_site_fract_z
 _atom_site_occupancy
  Yb  Yb0  1  0.40517505  0.00000000  0.00000000  1
  Yb  Yb1  1  0.00000000  0.40517505  0.00000000  1
  Yb  Yb2  1  0.59482495  0.59482495  0.00000000  1
  In  In0  1  0.73708961  1.00000000  0.50000000  1
  In  In1  1  1.00000000  0.73708961  0.50000000  1
  In  In2  1  0.26291039  0.26291039  0.50000000  1
  Pt  Pt0  1  0.33333300  0.66666700  0.50000000  1
  Pt  Pt1  1  0.66666700  0.33333300  0.50000000  1
  Pt  Pt2  1  0.00000000  0.00000000  0.00000000  1
loop_
_geom_bond_atom_site_label_1
_geom_bond_atom_site_label_2
_geom_bond_distance
_geom_bond_site_symmetry_2
In0 Pt2 2.745712 1_665
In0 Pt2 2.745712 1_666
In0 Pt1 2.828582 1_565
In0 Pt0 2.828587 1_555
In0 Yb0 3.145203 1_565
In0 Yb0 3.145203 1_566
In0 Yb1 3.293006 1_665
In0 Yb1 3.293006 1_666
In0 Yb2 3.293006 1_556
In0 Yb2 3.293006 1_555
In1 Pt2 2.745712 1_665
In1 Pt2 2.745712 1_666
In1 Pt0 2.828582 1_655
In1 Pt1 2.828587 1_555
In1 Yb1 3.145203 1_655
In1 Yb1 3.145203 1_656
In1 Yb0 3.293006 1_666
In1 Yb0 3.293006 1_665
In1 Yb2 3.293006 1_556
In1 Yb2 3.293006 1_555
In2 Pt2 2.745712 1_555
In2 Pt2 2.745712 1_556
In2 Pt0 2.828590 1_555
In2 Pt1 2.828590 1_555
In2 Yb2 3.145203 1_556
In2 Yb2 3.145203 1_555
In2 Yb0 3.293006 1_555
In2 Yb0 3.293006 1_556
In2 Yb1 3.293006 1_555
In2 Yb1 3.293006 1_556
Pt0 Yb0 2.978136 1_566
Pt0 Yb0 2.978136 1_565
Pt0 Yb1 2.978138 1_556
Pt0 Yb1 2.978138 1_555
Pt0 Yb2 2.978142 1_556
Pt0 Yb2 2.978142 1_555
Pt1 Yb1 2.978136 1_655
Pt1 Yb1 2.978136 1_656
Pt1 Yb0 2.978138 1_555
Pt1 Yb0 2.978138 1_556
Pt1 Yb2 2.978142 1_555
Pt1 Yb2 2.978142 1_556
Pt2 Yb2 3.067999 1_445
Pt2 Yb0 3.067999 1_555
Pt2 Yb1 3.067999 1_555
