# generated using pymatgen
data_Mg16UAl12
_symmetry_space_group_name_H-M   'P 1'
_cell_length_a   9.10938001
_cell_length_b   9.10938001
_cell_length_c   9.10938001
_cell_angle_alpha   109.47122063
_cell_angle_beta   109.47122063
_cell_angle_gamma   109.47122063
_symmetry_Int_Tables_number   1
_chemical_formula_structural   Mg16UAl12
_chemical_formula_sum   'Mg16 U1 Al12'
_cell_volume   581.89492286
_cell_formula_units_Z   1
loop_
 _symmetry_equiv_pos_site_id
 _symmetry_equiv_pos_as_xyz
  1  'x, y, z'
loop_
 _atom_site_type_symbol
 _atom_site_label
 _atom_site_symmetry_multiplicity
 _atom_site_fract_x
 _atom_site_fract_y
 _atom_site_fract_z
 _atom_site_occupancy
  Mg  Mg0  1  0.28393600  0.60554200  0.60554200  1
  Mg  Mg1  1  0.64026800  0.00000000  0.00000000  1
  Mg  Mg2  1  0.71606400  0.32160600  0.32160600  1
  Mg  Mg3  1  0.35973200  0.35973200  0.35973200  1
  Mg  Mg4  1  0.00000000  0.67839400  0.39445800  1
  Mg  Mg5  1  0.60554200  0.60554200  0.28393600  1
  Mg  Mg6  1  0.39445800  0.00000000  0.67839400  1
  Mg  Mg7  1  0.00000000  0.00000000  0.64026800  1
  Mg  Mg8  1  0.32160600  0.71606400  0.32160600  1
  Mg  Mg9  1  0.67839400  0.39445800  0.00000000  1
  Mg  Mg10  1  0.67839400  0.00000000  0.39445800  1
  Mg  Mg11  1  0.32160600  0.32160600  0.71606400  1
  Mg  Mg12  1  0.00000000  0.64026800  0.00000000  1
  Mg  Mg13  1  0.60554200  0.28393600  0.60554200  1
  Mg  Mg14  1  0.39445800  0.67839400  0.00000000  1
  Mg  Mg15  1  0.00000000  0.39445800  0.67839400  1
  U  U0  1  0.00000000  0.00000000  0.00000000  1
  Al  Al0  1  0.17987000  0.81575900  0.81575900  1
  Al  Al1  1  0.82013000  0.63588900  0.63588900  1
  Al  Al2  1  0.00000000  0.36411100  0.18424100  1
  Al  Al3  1  0.36411100  0.18424100  0.00000000  1
  Al  Al4  1  0.63588900  0.82013000  0.63588900  1
  Al  Al5  1  0.81575900  0.17987000  0.81575900  1
  Al  Al6  1  0.18424100  0.36411100  0.00000000  1
  Al  Al7  1  0.81575900  0.81575900  0.17987000  1
  Al  Al8  1  0.18424100  0.00000000  0.36411100  1
  Al  Al9  1  0.63588900  0.63588900  0.82013000  1
  Al  Al10  1  0.36411100  0.00000000  0.18424100  1
  Al  Al11  1  0.00000000  0.18424100  0.36411100  1
loop_
_geom_bond_atom_site_label_1
_geom_bond_atom_site_label_2
_geom_bond_distance
_geom_bond_site_symmetry_2
Mg0 Mg3 3.036996 1_555
Mg0 Mg4 3.083353 1_555
Mg0 Mg15 3.083353 1_555
Mg0 Mg11 3.149391 1_555
Mg0 Mg8 3.149391 1_555
Mg0 Mg6 3.149391 1_565
Mg0 Mg14 3.149391 1_556
Mg1 Mg2 3.036996 1_555
Mg1 Mg14 3.036996 1_545
Mg1 Mg6 3.036996 1_554
Mg1 U0 3.276935 1_655
Mg2 Mg4 3.083353 1_655
Mg2 Mg5 3.149391 1_555
Mg2 Mg9 3.149391 1_555
Mg3 Mg5 3.036996 1_555
Mg3 U0 3.276935 1_555
Mg4 Mg7 3.036996 1_565
Mg4 Mg8 3.149391 1_555
Mg4 Mg6 3.149391 1_565
Mg4 Mg9 3.149391 1_455
Mg4 Mg5 3.149391 1_455
Mg5 Mg9 3.083353 1_555
Mg5 Mg8 3.149391 1_555
Mg6 Mg8 3.083353 1_545
Mg6 Mg9 3.149391 1_556
Mg7 U0 3.276935 1_556
Mg10 Mg7 3.036996 1_655
Mg10 Mg13 3.083353 1_555
Mg10 Mg8 3.083353 1_545
Mg10 Mg2 3.149391 1_555
Mg10 Mg15 3.149391 1_655
Mg10 Mg5 3.149391 1_545
Mg10 Mg14 3.149391 1_545
Mg11 Mg7 3.036996 1_555
Mg11 Mg14 3.083353 1_556
Mg11 Mg9 3.083353 1_556
Mg11 Mg13 3.149391 1_555
Mg11 Mg6 3.149391 1_555
Mg11 Mg15 3.149391 1_555
Mg12 Mg8 3.036996 1_555
Mg12 Mg9 3.036996 1_455
Mg12 Mg15 3.036996 1_554
Mg12 U0 3.276935 1_565
Mg13 Mg3 3.036996 1_555
Mg13 Mg6 3.083353 1_555
Mg13 Mg2 3.149391 1_555
Mg13 Mg9 3.149391 1_556
Mg13 Mg15 3.149391 1_655
Mg14 Mg5 3.083353 1_555
Mg14 Mg8 3.149391 1_555
Mg14 Mg15 3.149391 1_554
Mg15 Mg2 3.083353 1_455
Al0 Al1 2.675666 1_455
Al0 Al3 2.740687 1_566
Al0 Al10 2.740687 1_566
Al0 Mg0 2.865040 1_555
Al0 Mg14 3.007862 1_556
Al0 Mg6 3.007862 1_565
Al0 Mg7 3.151627 1_565
Al0 Mg12 3.151627 1_556
Al0 U0 3.179145 1_566
Al0 Mg15 3.196653 1_555
Al0 Mg4 3.196653 1_555
Al1 Al9 2.740687 1_555
Al1 Al4 2.740687 1_555
Al1 Mg2 2.865040 1_555
Al1 Mg5 3.007862 1_555
Al1 Mg13 3.007862 1_555
Al1 Mg7 3.151627 1_665
Al1 Mg12 3.151627 1_656
Al1 U0 3.179145 1_666
Al1 Mg15 3.196653 1_655
Al1 Mg4 3.196653 1_655
Al2 Al5 2.740687 1_454
Al2 Al6 2.740687 1_555
Al2 Mg4 2.865040 1_555
Al2 Mg8 3.007862 1_555
Al2 Mg9 3.007862 1_455
Al2 Mg1 3.151627 1_455
Al2 Mg3 3.151627 1_555
Al2 U0 3.179145 1_555
Al2 Mg0 3.196653 1_555
Al2 Mg2 3.196653 1_455
Al3 Al6 2.675666 1_555
Al3 Mg9 2.865040 1_555
Al3 Mg2 3.007862 1_555
Al3 Mg6 3.007862 1_554
Al3 Mg3 3.151627 1_555
Al3 Mg7 3.151627 1_554
Al3 U0 3.179145 1_555
Al3 Mg5 3.196653 1_555
Al3 Mg11 3.196653 1_554
Al4 Al5 2.675666 1_565
Al4 Al9 2.740687 1_555
Al4 Mg8 2.865040 1_555
Al4 Mg0 3.007862 1_555
Al4 Mg5 3.007862 1_555
Al4 Mg1 3.151627 1_566
Al4 Mg7 3.151627 1_665
Al4 U0 3.179145 1_666
Al4 Mg6 3.196653 1_565
Al4 Mg10 3.196653 1_565
Al5 Al6 2.740687 1_656
Al5 Mg13 2.865040 1_555
Al5 Mg9 3.007862 1_556
Al5 Mg15 3.007862 1_655
Al5 Mg1 3.151627 1_556
Al5 Mg7 3.151627 1_655
Al5 U0 3.179145 1_656
Al5 Mg6 3.196653 1_555
Al5 Mg10 3.196653 1_555
Al6 Mg14 2.865040 1_555
Al6 Mg8 3.007862 1_555
Al6 Mg15 3.007862 1_554
Al6 Mg3 3.151627 1_555
Al6 Mg7 3.151627 1_554
Al6 U0 3.179145 1_555
Al6 Mg5 3.196653 1_555
Al6 Mg11 3.196653 1_554
Al7 Al9 2.675666 1_554
Al7 Al8 2.740687 1_665
Al7 Mg5 2.865040 1_555
Al7 Mg10 3.007862 1_565
Al7 Mg4 3.007862 1_655
Al7 Mg1 3.151627 1_565
Al7 Mg12 3.151627 1_655
Al7 U0 3.179145 1_665
Al7 Mg9 3.196653 1_555
Al7 Mg14 3.196653 1_555
Al8 Mg6 2.865040 1_555
Al8 Mg11 3.007862 1_555
Al8 Mg4 3.007862 1_545
Al8 Mg3 3.151627 1_555
Al8 Mg12 3.151627 1_545
Al8 U0 3.179145 1_555
Al8 Mg13 3.196653 1_555
Al8 Mg8 3.196653 1_545
Al9 Mg11 2.865040 1_555
Al9 Mg0 3.007862 1_555
Al9 Mg13 3.007862 1_555
Al9 Mg1 3.151627 1_566
Al9 Mg12 3.151627 1_656
Al9 U0 3.179145 1_666
Al9 Mg9 3.196653 1_556
Al9 Mg14 3.196653 1_556
Al10 Al8 2.675666 1_555
Al10 Al3 2.740687 1_555
Al10 Mg10 2.865040 1_555
Al10 Mg2 3.007862 1_555
Al10 Mg14 3.007862 1_545
Al10 Mg3 3.151627 1_555
Al10 Mg12 3.151627 1_545
Al10 U0 3.179145 1_555
Al10 Mg13 3.196653 1_555
Al10 Mg8 3.196653 1_545
Al11 Al2 2.675666 1_555
Al11 Al8 2.740687 1_555
Al11 Al7 2.740687 1_445
Al11 Mg15 2.865040 1_555
Al11 Mg11 3.007862 1_555
Al11 Mg10 3.007862 1_455
Al11 Mg3 3.151627 1_555
Al11 Mg1 3.151627 1_455
Al11 U0 3.179145 1_555
Al11 Mg0 3.196653 1_555
Al11 Mg2 3.196653 1_455
