# generated using pymatgen
data_CaAl2Si3H6O13
_symmetry_space_group_name_H-M   'P 1'
_cell_length_a   6.60881587
_cell_length_b   9.91098631
_cell_length_c   10.07414247
_cell_angle_alpha   84.31190611
_cell_angle_beta   70.85203448
_cell_angle_gamma   72.41229136
_symmetry_Int_Tables_number   1
_chemical_formula_structural   CaAl2Si3H6O13
_chemical_formula_sum   'Ca2 Al4 Si6 H12 O26'
_cell_volume   594.21033686
_cell_formula_units_Z   2
loop_
 _symmetry_equiv_pos_site_id
 _symmetry_equiv_pos_as_xyz
  1  'x, y, z'
loop_
 _atom_site_type_symbol
 _atom_site_label
 _atom_site_symmetry_multiplicity
 _atom_site_fract_x
 _atom_site_fract_y
 _atom_site_fract_z
 _atom_site_occupancy
  Ca  Ca0  1  0.38287800  0.43918400  0.03815600  1
  Ca  Ca1  1  0.17103400  0.93918400  0.46184400  1
  Al  Al0  1  0.41917200  0.56594400  0.31609400  1
  Al  Al1  1  0.48526600  0.06594400  0.18390600  1
  Al  Al2  1  0.31968900  0.40339700  0.67689900  1
  Al  Al3  1  0.74658700  0.90339700  0.82310100  1
  Si  Si0  1  0.75311500  0.49989900  0.48837600  1
  Si  Si1  1  0.99149100  0.99989900  0.01162400  1
  Si  Si2  1  0.41650200  0.80137100  0.08725300  1
  Si  Si3  1  0.25375500  0.30137100  0.41274700  1
  Si  Si4  1  0.34199700  0.16585800  0.91132300  1
  Si  Si5  1  0.00332000  0.66585800  0.58867700  1
  H  H0  1  0.87458300  0.55676600  0.19376700  1
  H  H1  1  0.81835000  0.05676600  0.30623300  1
  H  H2  1  0.97607600  0.65799400  0.07526900  1
  H  H3  1  0.80134500  0.15799400  0.42473100  1
  H  H4  1  0.89631400  0.31204300  0.93843800  1
  H  H5  1  0.58475300  0.81204300  0.56156200  1
  H  H6  1  0.83535900  0.46733900  0.88117900  1
  H  H7  1  0.46653900  0.96733900  0.61882100  1
  H  H8  1  0.30438000  0.71621500  0.86600500  1
  H  H9  1  0.92038600  0.21621500  0.63399500  1
  H  H10  1  0.45519800  0.58481800  0.76279900  1
  H  H11  1  0.96799700  0.08481800  0.73720100  1
  O  O0  1  0.67828400  0.53445600  0.34637400  1
  O  O1  1  0.77465900  0.03445600  0.15362600  1
  O  O2  1  0.55496700  0.46956000  0.62232800  1
  O  O3  1  0.92729500  0.96956000  0.87767200  1
  O  O4  1  0.41969200  0.64397600  0.15219900  1
  O  O5  1  0.32189200  0.14397600  0.34780100  1
  O  O6  1  0.30997300  0.32349800  0.84234900  1
  O  O7  1  0.90232200  0.82349800  0.65765100  1
  O  O8  1  0.21627400  0.68035000  0.45149500  1
  O  O9  1  0.41776900  0.18035000  0.04850500  1
  O  O10  1  0.34430700  0.29327100  0.54460000  1
  O  O11  1  0.63890800  0.79327100  0.95540000  1
  O  O12  1  0.35546300  0.40961200  0.29143200  1
  O  O13  1  0.39689500  0.90961200  0.20856800  1
  O  O14  1  0.07073500  0.54198300  0.69655000  1
  O  O15  1  0.51728500  0.04198300  0.80345000  1
  O  O16  1  0.97552800  0.36146900  0.46161600  1
  O  O17  1  0.18714300  0.86146900  0.03838400  1
  O  O18  1  0.81201400  0.63896800  0.52816100  1
  O  O19  1  0.09017600  0.13896800  0.97183900  1
  O  O20  1  0.00066100  0.55998600  0.10660300  1
  O  O21  1  0.85726500  0.05998600  0.39339700  1
  O  O22  1  0.77074000  0.39130100  0.92671800  1
  O  O23  1  0.44745800  0.89130100  0.57328200  1
  O  O24  1  0.37850900  0.61516300  0.86240600  1
  O  O25  1  0.99091500  0.11516300  0.63759400  1
loop_
_geom_bond_atom_site_label_1
_geom_bond_atom_site_label_2
_geom_bond_distance
_geom_bond_site_symmetry_2
Ca0 O20 2.341566 1_555
Ca0 O22 2.353454 1_554
Ca0 O24 2.359780 1_554
Ca0 O12 2.491919 1_555
Ca0 O9 2.500016 1_555
Ca0 O4 2.538270 1_555
Ca0 O6 2.616013 1_554
Ca1 O21 2.341561 1_465
Ca1 O23 2.353454 1_555
Ca1 O25 2.359780 1_465
Ca1 O13 2.491919 1_555
Ca1 O8 2.500016 1_555
Ca1 O5 2.538273 1_565
Ca1 O7 2.616013 1_455
Al0 O4 1.751862 1_555
Al0 O0 1.767397 1_555
Al0 O8 1.769802 1_555
Al0 O12 1.782927 1_555
Al1 O5 1.751861 1_555
Al1 O1 1.767403 1_555
Al1 O9 1.769802 1_555
Al1 O13 1.782927 1_545
Al2 O10 1.741521 1_555
Al2 O14 1.762746 1_555
Al2 O6 1.763006 1_555
Al2 O2 1.770288 1_555
Al3 O11 1.741516 1_555
Al3 O15 1.762742 1_565
Al3 O7 1.763007 1_555
Al3 O3 1.770293 1_555
H0 O20 0.998440 1_655
H0 O0 1.700886 1_555
H1 O21 0.998444 1_555
H1 O1 1.700882 1_555
H2 O20 0.973171 1_655
H3 O21 0.973171 1_555
H4 O22 0.985721 1_555
H5 O23 0.985725 1_555
H6 O22 0.978881 1_555
H7 O23 0.978884 1_555
H8 O24 0.971289 1_555
H9 O25 0.971288 1_555
H10 O24 0.994140 1_555
H11 O25 0.994140 1_555
O0 Si0 1.634924 1_555
O1 Si1 1.634920 1_545
O2 Si0 1.620043 1_555
O3 Si1 1.620043 1_556
O4 Si2 1.627511 1_555
O5 Si3 1.627510 1_555
O6 Si4 1.627899 1_555
O7 Si5 1.627899 1_655
O8 Si5 1.648667 1_555
O9 Si4 1.648667 1_554
O10 Si3 1.612538 1_555
O11 Si2 1.612542 1_556
O12 Si3 1.653260 1_555
O13 Si2 1.653260 1_555
O14 Si5 1.615355 1_555
O15 Si4 1.615355 1_555
O16 Si0 1.646270 1_555
O16 Si3 1.667499 1_655
O17 Si1 1.646266 1_455
O17 Si2 1.667505 1_555
O18 Si0 1.657704 1_555
O18 Si5 1.668126 1_655
O19 Si1 1.657707 1_446
O19 Si4 1.668120 1_555
