# generated using pymatgen
data_Li4MnCo2O7
_symmetry_space_group_name_H-M   'P 1'
_cell_length_a   5.09467300
_cell_length_b   7.64977639
_cell_length_c   7.73344306
_cell_angle_alpha   60.74750933
_cell_angle_beta   78.34268429
_cell_angle_gamma   71.83774030
_symmetry_Int_Tables_number   1
_chemical_formula_structural   Li4MnCo2O7
_chemical_formula_sum   'Li8 Mn2 Co4 O14'
_cell_volume   249.40923289
_cell_formula_units_Z   2
loop_
 _symmetry_equiv_pos_site_id
 _symmetry_equiv_pos_as_xyz
  1  'x, y, z'
loop_
 _atom_site_type_symbol
 _atom_site_label
 _atom_site_symmetry_multiplicity
 _atom_site_fract_x
 _atom_site_fract_y
 _atom_site_fract_z
 _atom_site_occupancy
  Li  Li0  1  0.50310400  0.85334200  0.21325000  1
  Li  Li1  1  0.49426700  0.00239200  0.50372100  1
  Li  Li2  1  0.51152700  0.56889300  0.63854400  1
  Li  Li3  1  0.49392000  0.71409100  0.92916000  1
  Li  Li4  1  0.49648700  0.29182900  0.07001500  1
  Li  Li5  1  0.49920300  0.41983500  0.36693500  1
  Li  Li6  1  0.49981100  0.15184600  0.77451800  1
  Li  Li7  1  0.00362600  0.28693000  0.56976400  1
  Mn  Mn0  1  0.00311800  0.99897900  0.99738600  1
  Mn  Mn1  1  0.99826800  0.14381500  0.28816200  1
  Co  Co0  1  0.00009600  0.43193200  0.84843500  1
  Co  Co1  1  0.99911100  0.56487500  0.15493400  1
  Co  Co2  1  0.00776700  0.71073000  0.43074100  1
  Co  Co3  1  0.99029100  0.86302400  0.71133300  1
  O  O0  1  0.76940400  0.86451400  0.96279100  1
  O  O1  1  0.78908800  0.99053000  0.24449500  1
  O  O2  1  0.78407500  0.58364500  0.38173100  1
  O  O3  1  0.75890300  0.71609300  0.68471800  1
  O  O4  1  0.77559700  0.27332600  0.83932200  1
  O  O5  1  0.77156100  0.40989600  0.12041300  1
  O  O6  1  0.76633500  0.13758800  0.51814300  1
  O  O7  1  0.22132800  0.86827000  0.45862800  1
  O  O8  1  0.21999700  0.99242400  0.76486200  1
  O  O9  1  0.21757100  0.56763600  0.90253100  1
  O  O10  1  0.23405300  0.72993100  0.16411200  1
  O  O11  1  0.23221300  0.27680900  0.31479800  1
  O  O12  1  0.23585600  0.45004300  0.60210200  1
  O  O13  1  0.22342200  0.13678200  0.04445600  1
loop_
_geom_bond_atom_site_label_1
_geom_bond_atom_site_label_2
_geom_bond_distance
_geom_bond_site_symmetry_2
Li0 O10 2.069398 1_555
Li0 O2 2.070901 1_555
Li0 O0 2.109064 1_554
Li0 O13 2.120148 1_565
Li0 O1 2.150796 1_555
Li0 O7 2.164147 1_555
Li1 O6 2.017971 1_555
Li1 O11 2.089827 1_555
Li1 O3 2.121173 1_545
Li1 O7 2.131418 1_545
Li1 O8 2.193698 1_545
Li1 O1 2.271372 1_545
Li2 O12 2.021119 1_555
Li2 O3 2.107941 1_555
Li2 O2 2.156244 1_555
Li2 O4 2.202231 1_555
Li2 O7 2.230000 1_555
Li2 O9 2.272666 1_555
Li3 O10 2.052308 1_556
Li3 O8 2.077396 1_555
Li3 O3 2.085559 1_555
Li3 O9 2.146111 1_555
Li3 O0 2.192808 1_555
Li3 O5 2.243462 1_556
Li4 O11 2.064790 1_555
Li4 O5 2.070133 1_555
Li4 O4 2.078704 1_554
Li4 O9 2.086212 1_554
Li4 O13 2.179478 1_555
Li4 O1 2.233092 1_545
Li5 O6 2.055509 1_555
Li5 O12 2.095795 1_555
Li5 O5 2.138366 1_555
Li5 O11 2.188710 1_555
Li5 O2 2.242939 1_555
Li5 O10 2.265916 1_555
Li6 O12 2.151619 1_555
Li6 O0 2.153151 1_545
Li6 O4 2.154668 1_555
Li6 O8 2.177370 1_545
Li6 O6 2.194921 1_555
Li6 O13 2.243229 1_556
Li7 O12 2.089065 1_555
Li7 O2 2.089603 1_455
Li7 O8 2.090213 1_545
Li7 O11 2.101218 1_555
Li7 O6 2.104227 1_455
Li7 O4 2.142601 1_455
Mn0 O8 1.925511 1_555
Mn0 O0 1.925785 1_455
Mn0 O13 1.944539 1_566
Mn0 O4 1.947086 1_465
Mn0 O10 1.947465 1_556
Mn0 O1 1.981476 1_456
Mn1 O11 1.886271 1_655
Mn1 O6 1.914350 1_555
Mn1 O5 1.928539 1_555
Mn1 O7 1.966909 1_645
Mn1 O1 1.983993 1_545
Mn1 O13 2.014376 1_655
Co0 O4 1.940745 1_455
Co0 O9 1.951681 1_555
Co0 O12 2.003009 1_555
Co0 O3 2.027789 1_455
Co0 O13 2.107318 1_556
Co0 O5 2.143411 1_456
Co1 O2 1.915364 1_555
Co1 O11 2.023384 1_655
Co1 O10 2.023883 1_655
Co1 O5 2.027805 1_555
Co1 O9 2.036097 1_654
Co1 O0 2.129148 1_554
Co2 O2 1.900766 1_455
Co2 O12 1.917863 1_555
Co2 O7 1.961876 1_555
Co2 O1 2.011464 1_455
Co2 O10 2.109800 1_555
Co2 O3 2.122953 1_455
Co3 O8 1.959393 1_655
Co3 O3 1.961016 1_555
Co3 O6 2.018293 1_565
Co3 O0 2.043881 1_555
Co3 O7 2.056574 1_655
Co3 O9 2.104390 1_655
