# generated using pymatgen
data_Nd(PO5)2
_symmetry_space_group_name_H-M   'P 1'
_cell_length_a   6.88248900
_cell_length_b   10.84908300
_cell_length_c   12.86667500
_cell_angle_alpha   90.00000000
_cell_angle_beta   90.00000000
_cell_angle_gamma   90.00000000
_symmetry_Int_Tables_number   1
_chemical_formula_structural   Nd(PO5)2
_chemical_formula_sum   'Nd4 P8 O40'
_cell_volume   960.73782362
_cell_formula_units_Z   4
loop_
 _symmetry_equiv_pos_site_id
 _symmetry_equiv_pos_as_xyz
  1  'x, y, z'
loop_
 _atom_site_type_symbol
 _atom_site_label
 _atom_site_symmetry_multiplicity
 _atom_site_fract_x
 _atom_site_fract_y
 _atom_site_fract_z
 _atom_site_occupancy
  Nd  Nd0  1  0.25000000  0.23530900  0.25000000  1
  Nd  Nd1  1  0.75000000  0.76469100  0.75000000  1
  Nd  Nd2  1  0.25000000  0.26469100  0.75000000  1
  Nd  Nd3  1  0.75000000  0.73530900  0.25000000  1
  P  P0  1  0.03107800  0.49630800  0.09112300  1
  P  P1  1  0.96892200  0.50369200  0.90887700  1
  P  P2  1  0.03107800  0.00369200  0.90887700  1
  P  P3  1  0.46892200  0.00369200  0.59112300  1
  P  P4  1  0.96892200  0.99630800  0.09112300  1
  P  P5  1  0.53107800  0.99630800  0.40887700  1
  P  P6  1  0.46892200  0.49630800  0.40887700  1
  P  P7  1  0.53107800  0.50369200  0.59112300  1
  O  O0  1  0.13823800  0.55666800  0.98851200  1
  O  O1  1  0.86176200  0.44333200  0.01148800  1
  O  O2  1  0.13823800  0.94333200  0.01148800  1
  O  O3  1  0.36176200  0.94333200  0.48851200  1
  O  O4  1  0.86176200  0.05666800  0.98851200  1
  O  O5  1  0.63823800  0.05666800  0.51148800  1
  O  O6  1  0.36176200  0.55666800  0.51148800  1
  O  O7  1  0.63823800  0.44333200  0.48851200  1
  O  O8  1  0.04735300  0.09212500  0.16394400  1
  O  O9  1  0.95264700  0.90787500  0.83605600  1
  O  O10  1  0.04735300  0.40787500  0.83605600  1
  O  O11  1  0.45264700  0.40787500  0.66394400  1
  O  O12  1  0.95264700  0.59212500  0.16394400  1
  O  O13  1  0.54735300  0.59212500  0.33605600  1
  O  O14  1  0.45264700  0.09212500  0.33605600  1
  O  O15  1  0.54735300  0.90787500  0.66394400  1
  O  O16  1  0.56997200  0.27713900  0.15829300  1
  O  O17  1  0.43002800  0.72286100  0.84170700  1
  O  O18  1  0.56997200  0.22286100  0.84170700  1
  O  O19  1  0.93002800  0.22286100  0.65829300  1
  O  O20  1  0.43002800  0.77713900  0.15829300  1
  O  O21  1  0.06997200  0.77713900  0.34170700  1
  O  O22  1  0.93002800  0.27713900  0.34170700  1
  O  O23  1  0.06997200  0.72286100  0.65829300  1
  O  O24  1  0.46867700  0.21449300  0.09247200  1
  O  O25  1  0.53132300  0.78550700  0.90752800  1
  O  O26  1  0.46867700  0.28550700  0.90752800  1
  O  O27  1  0.03132300  0.28550700  0.59247200  1
  O  O28  1  0.53132300  0.71449300  0.09247200  1
  O  O29  1  0.96867700  0.71449300  0.40752800  1
  O  O30  1  0.03132300  0.21449300  0.40752800  1
  O  O31  1  0.96867700  0.78550700  0.59247200  1
  O  O32  1  0.14896500  0.39476400  0.13804000  1
  O  O33  1  0.85103500  0.60523600  0.86196000  1
  O  O34  1  0.14896500  0.10523600  0.86196000  1
  O  O35  1  0.35103500  0.10523600  0.63804000  1
  O  O36  1  0.85103500  0.89476400  0.13804000  1
  O  O37  1  0.64896500  0.89476400  0.36196000  1
  O  O38  1  0.35103500  0.39476400  0.36196000  1
  O  O39  1  0.64896500  0.60523600  0.63804000  1
loop_
_geom_bond_atom_site_label_1
_geom_bond_atom_site_label_2
_geom_bond_distance
_geom_bond_site_symmetry_2
Nd0 O32 2.356147 1_555
Nd0 O38 2.356147 1_555
Nd0 O14 2.363121 1_555
Nd0 O8 2.363121 1_555
Nd0 O24 2.534624 1_555
Nd0 O30 2.534624 1_555
Nd0 O16 2.539285 1_555
Nd0 O22 2.539285 1_455
Nd1 O39 2.356147 1_555
Nd1 O33 2.356147 1_555
Nd1 O9 2.363121 1_555
Nd1 O15 2.363121 1_555
Nd1 O31 2.534624 1_555
Nd1 O25 2.534624 1_555
Nd1 O23 2.539285 1_655
Nd1 O17 2.539285 1_555
Nd2 O35 2.356147 1_555
Nd2 O34 2.356147 1_555
Nd2 O10 2.363121 1_555
Nd2 O11 2.363121 1_555
Nd2 O26 2.534624 1_555
Nd2 O27 2.534624 1_555
Nd2 O18 2.539285 1_555
Nd2 O19 2.539285 1_455
Nd3 O36 2.356147 1_555
Nd3 O37 2.356147 1_555
Nd3 O13 2.363121 1_555
Nd3 O12 2.363121 1_555
Nd3 O29 2.534624 1_555
Nd3 O28 2.534624 1_555
Nd3 O21 2.539285 1_655
Nd3 O20 2.539285 1_555
O0 P0 1.647989 1_556
O0 P1 1.654742 1_455
O1 P1 1.647989 1_554
O1 P0 1.654742 1_655
O2 P2 1.647989 1_564
O2 P4 1.654742 1_455
O3 P3 1.647989 1_565
O3 P5 1.654742 1_555
O4 P4 1.647989 1_546
O4 P2 1.654742 1_655
O5 P5 1.647989 1_545
O5 P3 1.654742 1_555
O6 P6 1.647989 1_555
O6 P7 1.654742 1_555
O7 P7 1.647989 1_555
O7 P6 1.654742 1_555
O8 P4 1.499967 1_445
O9 P2 1.499967 1_665
O10 P1 1.499967 1_455
O11 P7 1.499967 1_555
O12 P0 1.499967 1_655
O13 P6 1.499967 1_555
O14 P5 1.499967 1_545
O15 P3 1.499967 1_565
O16 O24 1.290425 1_555
O17 O25 1.290425 1_555
O18 O26 1.290425 1_555
O19 O27 1.290425 1_655
O20 O28 1.290425 1_555
O21 O29 1.290425 1_455
O22 O30 1.290425 1_655
O23 O31 1.290425 1_455
O32 P0 1.495448 1_555
O33 P1 1.495448 1_555
O34 P2 1.495448 1_555
O35 P3 1.495448 1_555
O36 P4 1.495448 1_555
O37 P5 1.495448 1_555
O38 P6 1.495448 1_555
O39 P7 1.495448 1_555
