# generated using pymatgen
data_Li4Mn3NbFe2(PO4)6
_symmetry_space_group_name_H-M   'P 1'
_cell_length_a   8.56257014
_cell_length_b   8.65939390
_cell_length_c   8.65382202
_cell_angle_alpha   63.46259590
_cell_angle_beta   63.61341990
_cell_angle_gamma   63.92245635
_symmetry_Int_Tables_number   1
_chemical_formula_structural   Li4Mn3NbFe2(PO4)6
_chemical_formula_sum   'Li4 Mn3 Nb1 Fe2 P6 O24'
_cell_volume   490.43589243
_cell_formula_units_Z   1
loop_
 _symmetry_equiv_pos_site_id
 _symmetry_equiv_pos_as_xyz
  1  'x, y, z'
loop_
 _atom_site_type_symbol
 _atom_site_label
 _atom_site_symmetry_multiplicity
 _atom_site_fract_x
 _atom_site_fract_y
 _atom_site_fract_z
 _atom_site_occupancy
  Li  Li0  1  0.74753400  0.14967900  0.35332700  1
  Li  Li1  1  0.29166800  0.84703600  0.64623500  1
  Li  Li2  1  0.64136000  0.29111800  0.85106400  1
  Li  Li3  1  0.84967400  0.63942500  0.29346200  1
  Mn  Mn0  1  0.15093600  0.15325500  0.15241900  1
  Mn  Mn1  1  0.34926600  0.35415500  0.34839800  1
  Mn  Mn2  1  0.65539800  0.65574600  0.65962100  1
  Nb  Nb0  1  0.84986400  0.84573400  0.84927400  1
  Fe  Fe0  1  0.01508600  0.00197900  0.99593800  1
  Fe  Fe1  1  0.49046400  0.50383200  0.50072500  1
  P  P0  1  0.74801100  0.43556900  0.05820000  1
  P  P1  1  0.24798800  0.55316800  0.94428000  1
  P  P2  1  0.56377400  0.94755600  0.25181600  1
  P  P3  1  0.93340700  0.24569800  0.54975800  1
  P  P4  1  0.05921900  0.74581800  0.43645900  1
  P  P5  1  0.43690700  0.05730600  0.74903500  1
  O  O0  1  0.10166600  0.29447000  0.50296700  1
  O  O1  1  0.30799800  0.52709800  0.09669400  1
  O  O2  1  0.05992400  0.90672500  0.25941000  1
  O  O3  1  0.56117100  0.09255200  0.30916600  1
  O  O4  1  0.00108900  0.81351000  0.60404400  1
  O  O5  1  0.24874900  0.60458000  0.43371000  1
  O  O6  1  0.25124800  0.07653800  0.89925000  1
  O  O7  1  0.45426900  0.23735700  0.59517200  1
  O  O8  1  0.16938000  0.40955400  0.98324900  1
  O  O9  1  0.60689900  0.42728600  0.25039300  1
  O  O10  1  0.10044800  0.75399200  0.90875600  1
  O  O11  1  0.40598200  0.00573000  0.18363500  1
  O  O12  1  0.60113800  0.99675100  0.82406100  1
  O  O13  1  0.89562800  0.24793900  0.07892500  1
  O  O14  1  0.40039100  0.57255500  0.75239900  1
  O  O15  1  0.81704100  0.59985200  0.00468500  1
  O  O16  1  0.57232200  0.75664100  0.40226400  1
  O  O17  1  0.76004400  0.90826000  0.09806600  1
  O  O18  1  0.74637300  0.40220300  0.57574900  1
  O  O19  1  0.94370500  0.17593000  0.41057800  1
  O  O20  1  0.46636700  0.90797800  0.67982500  1
  O  O21  1  0.90946900  0.09776900  0.74931700  1
  O  O22  1  0.67601700  0.46633300  0.91034000  1
  O  O23  1  0.91212800  0.66832900  0.47033500  1
loop_
_geom_bond_atom_site_label_1
_geom_bond_atom_site_label_2
_geom_bond_distance
_geom_bond_site_symmetry_2
Li0 O19 2.072356 1_555
Li0 O3 2.083785 1_555
Li0 O13 2.106532 1_555
Li0 O9 2.125405 1_555
Li0 O7 2.516870 1_555
Li0 O2 2.624800 1_645
Li1 O20 1.954023 1_555
Li1 O14 2.055165 1_555
Li1 O10 2.170047 1_555
Li1 O16 2.481618 1_555
Li2 O22 1.969739 1_555
Li2 O18 2.053927 1_555
Li2 O21 2.233857 1_555
Li2 O14 2.492242 1_555
Li3 O23 1.969516 1_555
Li3 O16 2.074580 1_555
Li3 O17 2.221011 1_555
Li3 O18 2.482442 1_555
Mn0 O11 2.058492 1_555
Mn0 O8 2.072005 1_554
Mn0 O19 2.177217 1_455
Mn0 O13 2.247174 1_455
Mn0 O2 2.253227 1_545
Mn0 O6 2.259483 1_554
Mn1 O0 2.091904 1_555
Mn1 O1 2.101483 1_555
Mn1 O3 2.250597 1_555
Mn1 O9 2.252123 1_555
Mn1 O5 2.283246 1_555
Mn1 O7 2.317110 1_555
Mn2 O22 2.082040 1_555
Mn2 O23 2.092348 1_555
Mn2 O20 2.098236 1_555
Mn2 O14 2.288919 1_555
Mn2 O16 2.313540 1_555
Mn2 O18 2.317696 1_555
Nb0 O12 2.000748 1_555
Nb0 O4 2.006778 1_655
Nb0 O15 2.013098 1_556
Nb0 O10 2.148850 1_655
Nb0 O21 2.161448 1_565
Nb0 O17 2.173432 1_556
Fe0 O6 2.089796 1_555
Fe0 O2 2.201251 1_546
Fe0 O13 2.212877 1_456
Fe0 O10 2.300532 1_545
Fe0 O17 2.326041 1_446
Fe0 O21 2.352646 1_455
Fe1 O5 2.099623 1_555
Fe1 O7 2.192492 1_555
Fe1 O9 2.215555 1_555
Fe1 O14 2.225755 1_555
Fe1 O18 2.248579 1_555
Fe1 O16 2.271822 1_555
O0 P3 1.510508 1_455
O1 P1 1.512950 1_554
O2 P4 1.542897 1_555
O3 P2 1.531555 1_545
O4 P4 1.598768 1_555
O5 P4 1.541671 1_555
O6 P5 1.539031 1_555
O7 P5 1.548774 1_555
O8 P1 1.507565 1_555
O9 P0 1.553925 1_555
O10 P1 1.628087 1_555
O11 P2 1.507311 1_545
O12 P5 1.591553 1_565
O13 P0 1.550886 1_555
O14 P1 1.582987 1_555
O15 P0 1.579514 1_555
O16 P2 1.577512 1_555
O17 P2 1.620093 1_555
O18 P3 1.579899 1_555
O19 P3 1.527226 1_555
O20 P5 1.537988 1_565
O21 P3 1.613923 1_555
O22 P0 1.529832 1_556
O23 P4 1.536725 1_655
