# generated using pymatgen
data_DyMnGa
_symmetry_space_group_name_H-M   'P 1'
_cell_length_a   7.22888607
_cell_length_b   7.22888607
_cell_length_c   3.90843500
_cell_angle_alpha   90.00000000
_cell_angle_beta   90.00000000
_cell_angle_gamma   120.00000066
_symmetry_Int_Tables_number   1
_chemical_formula_structural   DyMnGa
_chemical_formula_sum   'Dy3 Mn3 Ga3'
_cell_volume   176.87900359
_cell_formula_units_Z   3
loop_
 _symmetry_equiv_pos_site_id
 _symmetry_equiv_pos_as_xyz
  1  'x, y, z'
loop_
 _atom_site_type_symbol
 _atom_site_label
 _atom_site_symmetry_multiplicity
 _atom_site_fract_x
 _atom_site_fract_y
 _atom_site_fract_z
 _atom_site_occupancy
  Dy  Dy0  1  0.58542300  0.00000000  0.00000000  1
  Dy  Dy1  1  0.00000000  0.58542300  0.00000000  1
  Dy  Dy2  1  0.41457700  0.41457700  0.00000000  1
  Mn  Mn0  1  0.33333300  0.66666700  0.50000000  1
  Mn  Mn1  1  0.66666700  0.33333300  0.50000000  1
  Mn  Mn2  1  0.00000000  0.00000000  0.00000000  1
  Ga  Ga0  1  0.25583100  0.00000000  0.50000000  1
  Ga  Ga1  1  0.00000000  0.25583100  0.50000000  1
  Ga  Ga2  1  0.74416900  0.74416900  0.50000000  1
loop_
_geom_bond_atom_site_label_1
_geom_bond_atom_site_label_2
_geom_bond_distance
_geom_bond_site_symmetry_2
Dy0 Mn1 2.924895 1_554
Dy0 Mn1 2.924895 1_555
Dy0 Mn0 2.924896 1_544
Dy0 Mn0 2.924896 1_545
Dy0 Mn2 2.996930 1_655
Dy0 Ga0 3.081504 1_554
Dy0 Ga0 3.081504 1_555
Dy0 Ga1 3.267766 1_654
Dy0 Ga1 3.267766 1_655
Dy0 Ga2 3.267766 1_544
Dy0 Ga2 3.267766 1_545
Dy1 Mn0 2.924895 1_555
Dy1 Mn0 2.924895 1_554
Dy1 Mn1 2.924896 1_455
Dy1 Mn1 2.924896 1_454
Dy1 Mn2 2.996930 1_565
Dy1 Ga1 3.081504 1_555
Dy1 Ga1 3.081504 1_554
Dy1 Ga0 3.267766 1_564
Dy1 Ga0 3.267766 1_565
Dy1 Ga2 3.267766 1_454
Dy1 Ga2 3.267766 1_455
Dy2 Mn1 2.924900 1_555
Dy2 Mn0 2.924900 1_554
Dy2 Mn1 2.924900 1_554
Dy2 Mn0 2.924900 1_555
Dy2 Mn2 2.996930 1_555
Dy2 Ga2 3.081504 1_555
Dy2 Ga2 3.081504 1_554
Dy2 Ga1 3.267766 1_555
Dy2 Ga1 3.267766 1_554
Dy2 Ga0 3.267766 1_555
Dy2 Ga0 3.267766 1_554
Ga0 Mn2 2.690566 1_555
Ga0 Mn2 2.690566 1_556
Ga0 Mn0 2.733164 1_545
Ga0 Mn1 2.733168 1_555
Ga1 Mn2 2.690566 1_555
Ga1 Mn2 2.690566 1_556
Ga1 Mn1 2.733164 1_455
Ga1 Mn0 2.733168 1_555
Ga2 Mn2 2.690566 1_666
Ga2 Mn2 2.690566 1_665
Ga2 Mn0 2.733171 1_555
Ga2 Mn1 2.733171 1_555
