# generated using pymatgen
data_LiLa2OsO6
_symmetry_space_group_name_H-M   'P 1'
_cell_length_a   5.69988159
_cell_length_b   5.55900668
_cell_length_c   9.61316329
_cell_angle_alpha   54.89083482
_cell_angle_beta   90.00085335
_cell_angle_gamma   90.00089449
_symmetry_Int_Tables_number   1
_chemical_formula_structural   LiLa2OsO6
_chemical_formula_sum   'Li2 La4 Os2 O12'
_cell_volume   249.18006831
_cell_formula_units_Z   2
loop_
 _symmetry_equiv_pos_site_id
 _symmetry_equiv_pos_as_xyz
  1  'x, y, z'
loop_
 _atom_site_type_symbol
 _atom_site_label
 _atom_site_symmetry_multiplicity
 _atom_site_fract_x
 _atom_site_fract_y
 _atom_site_fract_z
 _atom_site_occupancy
  Li  Li0  1  -0.00000000  0.00000000  -0.00000000  1
  Li  Li1  1  0.50000000  0.00000000  0.50000000  1
  La  La0  1  0.05108785  0.76087127  0.74886129  1
  La  La1  1  0.55107957  0.23918522  0.75110371  1
  La  La2  1  0.44892043  0.76081478  0.24889629  1
  La  La3  1  0.94891215  0.23912873  0.25113871  1
  Os  Os0  1  0.50000000  0.50000000  -0.00000000  1
  Os  Os1  1  -0.00000000  0.50000000  0.50000000  1
  O  O0  1  0.28503512  0.26197912  0.54531145  1
  O  O1  1  0.78503727  0.73805704  0.95468824  1
  O  O2  1  0.71496488  0.73802088  0.45468855  1
  O  O3  1  0.21496273  0.26194296  0.04531176  1
  O  O4  1  0.02251509  0.65981098  0.25659107  1
  O  O5  1  0.52251386  0.34016960  0.24343149  1
  O  O6  1  0.30439012  0.82934066  0.95741735  1
  O  O7  1  0.80439067  0.17068586  0.54257877  1
  O  O8  1  0.69560988  0.17065934  0.04258265  1
  O  O9  1  0.19560933  0.82931414  0.45742123  1
  O  O10  1  0.47748614  0.65983040  0.75656851  1
  O  O11  1  0.97748491  0.34018902  0.74340893  1
loop_
_geom_bond_atom_site_label_1
_geom_bond_atom_site_label_2
_geom_bond_distance
_geom_bond_site_symmetry_2
Li0 O4 2.076404 1_545
Li0 O11 2.076404 1_454
Li0 O8 2.127102 1_455
Li0 O6 2.127102 1_544
Li0 O1 2.130934 1_444
Li0 O3 2.130934 1_555
Li1 O5 2.076236 1_555
Li1 O10 2.076236 1_545
Li1 O7 2.127135 1_555
Li1 O9 2.127135 1_545
Li1 O2 2.131134 1_545
Li1 O0 2.131134 1_555
La0 O11 2.405961 1_455
La0 O7 2.429639 1_465
La0 O1 2.437664 1_455
La0 O10 2.485979 1_555
La0 O0 2.664009 1_565
La0 O6 2.669577 1_555
La0 O9 2.728837 1_555
La0 O3 2.755841 1_556
La1 O10 2.405831 1_555
La1 O6 2.429767 1_545
La1 O0 2.437394 1_555
La1 O11 2.485972 1_555
La1 O1 2.664168 1_545
La1 O7 2.669489 1_555
La1 O8 2.728976 1_556
La1 O2 2.755494 1_555
La2 O5 2.405831 1_555
La2 O8 2.429767 1_565
La2 O2 2.437394 1_555
La2 O4 2.485972 1_555
La2 O3 2.664168 1_565
La2 O9 2.669489 1_555
La2 O6 2.728976 1_554
La2 O0 2.755494 1_555
La3 O4 2.405961 1_655
La3 O9 2.429639 1_645
La3 O3 2.437664 1_655
La3 O5 2.485979 1_555
La3 O2 2.664009 1_545
La3 O8 2.669577 1_555
La3 O7 2.728837 1_555
La3 O1 2.755841 1_554
O0 Os1 1.979170 1_555
O1 Os0 1.979265 1_556
O2 Os1 1.979170 1_655
O3 Os0 1.979265 1_555
O4 Os1 1.972265 1_555
O5 Os0 1.972438 1_555
O6 Os0 1.974975 1_556
O7 Os1 1.974841 1_655
O8 Os0 1.974975 1_555
O9 Os1 1.974841 1_555
O10 Os0 1.972438 1_556
O11 Os1 1.972265 1_655
