# generated using pymatgen
data_Ce(SnRh)2
_symmetry_space_group_name_H-M   'P 1'
_cell_length_a   4.51695400
_cell_length_b   4.51695400
_cell_length_c   10.71218700
_cell_angle_alpha   90.00000000
_cell_angle_beta   90.00000000
_cell_angle_gamma   90.00000000
_symmetry_Int_Tables_number   1
_chemical_formula_structural   Ce(SnRh)2
_chemical_formula_sum   'Ce2 Sn4 Rh4'
_cell_volume   218.55939561
_cell_formula_units_Z   2
loop_
 _symmetry_equiv_pos_site_id
 _symmetry_equiv_pos_as_xyz
  1  'x, y, z'
loop_
 _atom_site_type_symbol
 _atom_site_label
 _atom_site_symmetry_multiplicity
 _atom_site_fract_x
 _atom_site_fract_y
 _atom_site_fract_z
 _atom_site_occupancy
  Ce  Ce0  1  0.00000000  0.50000000  0.24703200  1
  Ce  Ce1  1  0.50000000  0.00000000  0.75296800  1
  Sn  Sn0  1  0.00000000  0.00000000  0.50000000  1
  Sn  Sn1  1  0.50000000  0.50000000  0.50000000  1
  Sn  Sn2  1  0.00000000  0.50000000  0.87215300  1
  Sn  Sn3  1  0.50000000  0.00000000  0.12784700  1
  Rh  Rh0  1  0.00000000  0.00000000  0.00000000  1
  Rh  Rh1  1  0.50000000  0.50000000  0.00000000  1
  Rh  Rh2  1  0.00000000  0.50000000  0.63235000  1
  Rh  Rh3  1  0.50000000  0.00000000  0.36765000  1
loop_
_geom_bond_atom_site_label_1
_geom_bond_atom_site_label_2
_geom_bond_distance
_geom_bond_site_symmetry_2
Ce0 Sn3 3.439692 1_465
Ce0 Sn3 3.439692 1_565
Ce0 Sn3 3.439692 1_455
Ce0 Sn3 3.439692 1_555
Ce0 Rh3 3.445419 1_455
Ce0 Rh3 3.445419 1_565
Ce0 Rh3 3.445419 1_555
Ce0 Rh3 3.445419 1_465
Ce0 Rh1 3.478990 1_455
Ce0 Rh0 3.478990 1_565
Ce0 Rh0 3.478990 1_555
Ce0 Rh1 3.478990 1_555
Ce0 Sn1 3.527599 1_555
Ce0 Sn0 3.527599 1_565
Ce0 Sn1 3.527599 1_455
Ce0 Sn0 3.527599 1_555
Ce1 Sn2 3.439692 1_645
Ce1 Sn2 3.439692 1_555
Ce1 Sn2 3.439692 1_545
Ce1 Sn2 3.439692 1_655
Ce1 Rh2 3.445419 1_545
Ce1 Rh2 3.445419 1_645
Ce1 Rh2 3.445419 1_655
Ce1 Rh2 3.445419 1_555
Ce1 Rh0 3.478990 1_556
Ce1 Rh0 3.478990 1_656
Ce1 Rh1 3.478990 1_556
Ce1 Rh1 3.478990 1_546
Ce1 Sn0 3.527599 1_655
Ce1 Sn1 3.527599 1_555
Ce1 Sn1 3.527599 1_545
Ce1 Sn0 3.527599 1_555
Rh0 Sn2 2.641270 1_544
Rh0 Sn3 2.641270 1_455
Rh0 Sn3 2.641270 1_555
Rh0 Sn2 2.641270 1_554
Rh1 Sn2 2.641270 1_654
Rh1 Sn3 2.641270 1_555
Rh1 Sn2 2.641270 1_554
Rh1 Sn3 2.641270 1_565
Rh2 Sn2 2.568815 1_555
Rh2 Sn0 2.666600 1_555
Rh2 Sn1 2.666600 1_555
Rh2 Sn0 2.666600 1_565
Rh2 Sn1 2.666600 1_455
Rh3 Sn3 2.568815 1_555
Rh3 Sn1 2.666600 1_555
Rh3 Sn1 2.666600 1_545
Rh3 Sn0 2.666600 1_555
Rh3 Sn0 2.666600 1_655
