# generated using pymatgen
data_Tm2MgS4
_symmetry_space_group_name_H-M   'P 1'
_cell_length_a   13.34654100
_cell_length_b   7.78760100
_cell_length_c   6.47934300
_cell_angle_alpha   90.00000000
_cell_angle_beta   90.00000000
_cell_angle_gamma   90.00000000
_symmetry_Int_Tables_number   1
_chemical_formula_structural   Tm2MgS4
_chemical_formula_sum   'Tm8 Mg4 S16'
_cell_volume   673.44694657
_cell_formula_units_Z   4
loop_
 _symmetry_equiv_pos_site_id
 _symmetry_equiv_pos_as_xyz
  1  'x, y, z'
loop_
 _atom_site_type_symbol
 _atom_site_label
 _atom_site_symmetry_multiplicity
 _atom_site_fract_x
 _atom_site_fract_y
 _atom_site_fract_z
 _atom_site_occupancy
  Tm  Tm0  1  0.00000000  0.00000000  0.50000000  1
  Tm  Tm1  1  0.50000000  0.00000000  0.00000000  1
  Tm  Tm2  1  0.50000000  0.50000000  0.00000000  1
  Tm  Tm3  1  0.00000000  0.50000000  0.50000000  1
  Tm  Tm4  1  0.23321200  0.75000000  0.00140800  1
  Tm  Tm5  1  0.76678800  0.25000000  0.99859200  1
  Tm  Tm6  1  0.26678800  0.25000000  0.50140800  1
  Tm  Tm7  1  0.73321200  0.75000000  0.49859200  1
  Mg  Mg0  1  0.09311000  0.25000000  0.92338200  1
  Mg  Mg1  1  0.90689000  0.75000000  0.07661800  1
  Mg  Mg2  1  0.40689000  0.75000000  0.42338200  1
  Mg  Mg3  1  0.59311000  0.25000000  0.57661800  1
  S  S0  1  0.16879500  0.00657300  0.73948900  1
  S  S1  1  0.83120500  0.99342700  0.26051100  1
  S  S2  1  0.33120500  0.99342700  0.23948900  1
  S  S3  1  0.66879500  0.00657300  0.76051100  1
  S  S4  1  0.66879500  0.49342700  0.76051100  1
  S  S5  1  0.33120500  0.50657300  0.23948900  1
  S  S6  1  0.83120500  0.50657300  0.26051100  1
  S  S7  1  0.16879500  0.49342700  0.73948900  1
  S  S8  1  0.07211500  0.75000000  0.24992500  1
  S  S9  1  0.92788500  0.25000000  0.75007500  1
  S  S10  1  0.42788500  0.25000000  0.74992500  1
  S  S11  1  0.57211500  0.75000000  0.25007500  1
  S  S12  1  0.09157500  0.25000000  0.29235700  1
  S  S13  1  0.90842500  0.75000000  0.70764300  1
  S  S14  1  0.40842500  0.75000000  0.79235700  1
  S  S15  1  0.59157500  0.25000000  0.20764300  1
loop_
_geom_bond_atom_site_label_1
_geom_bond_atom_site_label_2
_geom_bond_distance
_geom_bond_site_symmetry_2
Mg0 S12 2.390803 1_556
Mg0 S7 2.456375 1_555
Mg0 S0 2.456375 1_555
Mg0 S9 2.474625 1_455
Mg1 S13 2.390803 1_554
Mg1 S1 2.456375 1_555
Mg1 S6 2.456375 1_555
Mg1 S8 2.474625 1_655
Mg2 S14 2.390803 1_555
Mg2 S5 2.456375 1_555
Mg2 S2 2.456375 1_555
Mg2 S11 2.474625 1_555
Mg3 S15 2.390803 1_555
Mg3 S3 2.456375 1_555
Mg3 S4 2.456375 1_555
Mg3 S10 2.474625 1_555
S0 Tm0 2.736006 1_555
S0 Tm4 2.758902 1_546
S0 Tm6 2.771982 1_555
S1 Tm0 2.736006 1_665
S1 Tm5 2.758902 1_564
S1 Tm7 2.771982 1_555
S2 Tm1 2.736006 1_565
S2 Tm6 2.758902 1_565
S2 Tm4 2.771982 1_555
S3 Tm1 2.736006 1_556
S3 Tm7 2.758902 1_545
S3 Tm5 2.771982 1_555
S4 Tm2 2.736006 1_556
S4 Tm7 2.758902 1_555
S4 Tm5 2.771982 1_555
S5 Tm2 2.736006 1_555
S5 Tm6 2.758902 1_555
S5 Tm4 2.771982 1_555
S6 Tm3 2.736006 1_655
S6 Tm5 2.758902 1_554
S6 Tm7 2.771982 1_555
S7 Tm3 2.736006 1_555
S7 Tm4 2.758902 1_556
S7 Tm6 2.771982 1_555
S8 Tm4 2.686207 1_555
S8 Tm0 2.709657 1_565
S8 Tm3 2.709657 1_555
S9 Tm5 2.686207 1_555
S9 Tm3 2.709657 1_655
S9 Tm0 2.709657 1_655
S10 Tm6 2.686207 1_555
S10 Tm1 2.709657 1_556
S10 Tm2 2.709657 1_556
S11 Tm7 2.686207 1_555
S11 Tm1 2.709657 1_565
S11 Tm2 2.709657 1_555
S12 Tm0 2.663511 1_555
S12 Tm3 2.663511 1_555
S12 Tm6 2.702449 1_555
S13 Tm3 2.663511 1_655
S13 Tm0 2.663511 1_665
S13 Tm7 2.702449 1_555
S14 Tm2 2.663511 1_556
S14 Tm1 2.663511 1_566
S14 Tm4 2.702449 1_556
S15 Tm2 2.663511 1_555
S15 Tm1 2.663511 1_555
S15 Tm5 2.702449 1_554
