# generated using pymatgen
data_Sr10Fe10O27
_symmetry_space_group_name_H-M   'P 1'
_cell_length_a   3.86644900
_cell_length_b   7.90967700
_cell_length_c   19.70347100
_cell_angle_alpha   90.00000000
_cell_angle_beta   90.00000000
_cell_angle_gamma   90.00000000
_symmetry_Int_Tables_number   1
_chemical_formula_structural   Sr10Fe10O27
_chemical_formula_sum   'Sr10 Fe10 O27'
_cell_volume   602.57869710
_cell_formula_units_Z   1
loop_
 _symmetry_equiv_pos_site_id
 _symmetry_equiv_pos_as_xyz
  1  'x, y, z'
loop_
 _atom_site_type_symbol
 _atom_site_label
 _atom_site_symmetry_multiplicity
 _atom_site_fract_x
 _atom_site_fract_y
 _atom_site_fract_z
 _atom_site_occupancy
  Sr  Sr0  1  0.00000000  0.26707500  0.09768500  1
  Sr  Sr1  1  0.00000000  0.24965200  0.30080200  1
  Sr  Sr2  1  0.00000000  0.24218900  0.50351900  1
  Sr  Sr3  1  0.00000000  0.25738500  0.69795600  1
  Sr  Sr4  1  0.00000000  0.26540400  0.89929300  1
  Sr  Sr5  1  0.00000000  0.73292500  0.09768500  1
  Sr  Sr6  1  0.00000000  0.75034800  0.30080200  1
  Sr  Sr7  1  0.00000000  0.75781100  0.50351900  1
  Sr  Sr8  1  0.00000000  0.74261500  0.69795600  1
  Sr  Sr9  1  0.00000000  0.73459600  0.89929300  1
  Fe  Fe0  1  0.50000000  0.00000000  0.00764800  1
  Fe  Fe1  1  0.50000000  0.00000000  0.20026800  1
  Fe  Fe2  1  0.50000000  0.00000000  0.39964700  1
  Fe  Fe3  1  0.50000000  0.00000000  0.59936600  1
  Fe  Fe4  1  0.50000000  0.00000000  0.79451400  1
  Fe  Fe5  1  0.50000000  0.50000000  0.99845800  1
  Fe  Fe6  1  0.50000000  0.50000000  0.20162500  1
  Fe  Fe7  1  0.50000000  0.50000000  0.40033600  1
  Fe  Fe8  1  0.50000000  0.50000000  0.59817400  1
  Fe  Fe9  1  0.50000000  0.50000000  0.80004500  1
  O  O0  1  0.50000000  0.24131900  0.99472800  1
  O  O1  1  0.50000000  0.23651800  0.19974800  1
  O  O2  1  0.50000000  0.26280400  0.39905600  1
  O  O3  1  0.50000000  0.25219900  0.60014600  1
  O  O4  1  0.50000000  0.23975400  0.80662700  1
  O  O5  1  0.50000000  0.75868100  0.99472800  1
  O  O6  1  0.50000000  0.76348200  0.19974800  1
  O  O7  1  0.50000000  0.73719600  0.39905600  1
  O  O8  1  0.50000000  0.74780100  0.60014600  1
  O  O9  1  0.50000000  0.76024600  0.80662700  1
  O  O10  1  0.50000000  0.00000000  0.10467200  1
  O  O11  1  0.50000000  0.00000000  0.29444300  1
  O  O12  1  0.50000000  0.00000000  0.50057000  1
  O  O13  1  0.50000000  0.00000000  0.69926400  1
  O  O14  1  0.50000000  0.50000000  0.09865100  1
  O  O15  1  0.50000000  0.50000000  0.30507600  1
  O  O16  1  0.50000000  0.50000000  0.49436000  1
  O  O17  1  0.50000000  0.50000000  0.70243500  1
  O  O18  1  0.50000000  0.50000000  0.89962500  1
  O  O19  1  0.00000000  0.00000000  0.98701900  1
  O  O20  1  0.00000000  0.00000000  0.39683900  1
  O  O21  1  0.00000000  0.00000000  0.59956700  1
  O  O22  1  0.00000000  0.00000000  0.81715500  1
  O  O23  1  0.00000000  0.50000000  0.00066800  1
  O  O24  1  0.00000000  0.50000000  0.20149300  1
  O  O25  1  0.00000000  0.50000000  0.59889700  1
  O  O26  1  0.00000000  0.50000000  0.80006600  1
loop_
_geom_bond_atom_site_label_1
_geom_bond_atom_site_label_2
_geom_bond_distance
_geom_bond_site_symmetry_2
Fe0 O10 1.911710 1_555
Fe0 O0 1.925656 1_554
Fe0 O5 1.925656 1_544
Fe0 O19 1.975492 1_654
Fe0 O19 1.975492 1_554
Fe1 O11 1.855574 1_555
Fe1 O1 1.870809 1_555
Fe1 O6 1.870809 1_545
Fe1 O10 1.883573 1_555
Fe2 O20 1.934016 1_655
Fe2 O20 1.934016 1_555
Fe2 O12 1.988533 1_555
Fe2 O11 2.072884 1_555
Fe2 O2 2.078727 1_555
Fe2 O7 2.078727 1_545
Fe3 O21 1.933229 1_655
Fe3 O21 1.933229 1_555
Fe3 O12 1.946624 1_555
Fe3 O13 1.968337 1_555
Fe3 O3 1.994872 1_555
Fe3 O8 1.994872 1_545
Fe4 O13 1.876756 1_555
Fe4 O4 1.911336 1_555
Fe4 O9 1.911336 1_545
Fe4 O22 1.984028 1_555
Fe4 O22 1.984028 1_655
Fe5 O23 1.933715 1_556
Fe5 O23 1.933715 1_656
Fe5 O18 1.947353 1_555
Fe5 O14 1.974150 1_556
Fe5 O5 2.047403 1_555
Fe5 O0 2.047403 1_555
Fe6 O24 1.933226 1_655
Fe6 O24 1.933226 1_555
Fe6 O14 2.028945 1_555
Fe6 O15 2.038344 1_555
Fe6 O6 2.084386 1_555
Fe6 O1 2.084386 1_555
Fe7 O16 1.852599 1_555
Fe7 O7 1.876313 1_555
Fe7 O2 1.876313 1_555
Fe7 O15 1.876953 1_555
Fe8 O25 1.933277 1_555
Fe8 O25 1.933277 1_655
Fe8 O8 1.960411 1_555
Fe8 O3 1.960411 1_555
Fe8 O16 2.045496 1_555
Fe8 O17 2.054304 1_555
Fe9 O17 1.923256 1_555
Fe9 O26 1.933225 1_555
Fe9 O26 1.933225 1_655
Fe9 O18 1.962072 1_555
Fe9 O9 2.062543 1_555
Fe9 O4 2.062543 1_555
O0 Sr4 2.703619 1_555
O0 Sr4 2.703619 1_655
O0 Sr0 2.809648 1_556
O0 Sr0 2.809648 1_656
O1 Sr1 2.777172 1_655
O1 Sr1 2.777172 1_555
O1 Sr0 2.799978 1_555
O1 Sr0 2.799978 1_655
O2 Sr1 2.737894 1_655
O2 Sr1 2.737894 1_555
O2 Sr2 2.828511 1_555
O2 Sr2 2.828511 1_655
O3 Sr2 2.714482 1_555
O3 Sr2 2.714482 1_655
O3 Sr3 2.730041 1_555
O3 Sr3 2.730041 1_655
O4 Sr4 2.666874 1_655
O4 Sr4 2.666874 1_555
O4 Sr3 2.888170 1_555
O4 Sr3 2.888170 1_655
O5 Sr9 2.703619 1_555
O5 Sr9 2.703619 1_655
O5 Sr5 2.809648 1_656
O5 Sr5 2.809648 1_556
O6 Sr6 2.777172 1_655
O6 Sr6 2.777172 1_555
O6 Sr5 2.799978 1_555
O6 Sr5 2.799978 1_655
O7 Sr6 2.737894 1_655
O7 Sr6 2.737894 1_555
O7 Sr7 2.828511 1_655
O7 Sr7 2.828511 1_555
O8 Sr7 2.714482 1_555
O8 Sr7 2.714482 1_655
O8 Sr8 2.730041 1_555
O8 Sr8 2.730041 1_655
O9 Sr9 2.666874 1_555
O9 Sr9 2.666874 1_655
O9 Sr8 2.888170 1_555
O9 Sr8 2.888170 1_655
O10 Sr0 2.866857 1_655
O10 Sr0 2.866857 1_555
O10 Sr5 2.866857 1_545
O10 Sr5 2.866857 1_645
O11 Sr1 2.766291 1_655
O11 Sr1 2.766291 1_555
O11 Sr6 2.766291 1_545
O11 Sr6 2.766291 1_645
O12 Sr7 2.722205 1_545
O12 Sr2 2.722205 1_555
O12 Sr2 2.722205 1_655
O12 Sr7 2.722205 1_645
O13 Sr3 2.807603 1_555
O13 Sr3 2.807603 1_655
O13 Sr8 2.807603 1_545
O13 Sr8 2.807603 1_645
O14 Sr5 2.670583 1_555
O14 Sr5 2.670583 1_655
O14 Sr0 2.670583 1_555
O14 Sr0 2.670583 1_655
O15 Sr6 2.768669 1_555
O15 Sr6 2.768669 1_655
O15 Sr1 2.768669 1_655
O15 Sr1 2.768669 1_555
O16 Sr2 2.815718 1_555
O16 Sr2 2.815718 1_655
O16 Sr7 2.815718 1_555
O16 Sr7 2.815718 1_655
O17 Sr8 2.725386 1_555
O17 Sr8 2.725386 1_655
O17 Sr3 2.725386 1_655
O17 Sr3 2.725386 1_555
O18 Sr9 2.679659 1_555
O18 Sr9 2.679659 1_655
O18 Sr4 2.679659 1_555
O18 Sr4 2.679659 1_655
O19 Sr4 2.719306 1_555
O19 Sr9 2.719306 1_545
O19 Sr0 3.035977 1_556
O19 Sr5 3.035977 1_546
O20 Sr1 2.734952 1_555
O20 Sr6 2.734952 1_545
O20 Sr7 2.843928 1_545
O20 Sr2 2.843928 1_555
O21 Sr7 2.692794 1_545
O21 Sr2 2.692794 1_555
O21 Sr3 2.811192 1_555
O21 Sr8 2.811192 1_545
O22 Sr4 2.650683 1_555
O22 Sr9 2.650683 1_545
O22 Sr3 3.108166 1_555
O22 Sr8 3.108166 1_545
O23 Sr5 2.654883 1_555
O23 Sr0 2.654883 1_555
O23 Sr9 2.726341 1_554
O23 Sr4 2.726341 1_554
O24 Sr5 2.752793 1_555
O24 Sr0 2.752793 1_555
O24 Sr6 2.783861 1_555
O24 Sr1 2.783861 1_555
O25 Sr8 2.737176 1_555
O25 Sr3 2.737176 1_555
O25 Sr2 2.773090 1_555
O25 Sr7 2.773090 1_555
O26 Sr9 2.695487 1_555
O26 Sr4 2.695487 1_555
O26 Sr8 2.780362 1_555
O26 Sr3 2.780362 1_555
