# generated using pymatgen
data_K5C4Br
_symmetry_space_group_name_H-M   'P 1'
_cell_length_a   7.69528424
_cell_length_b   7.69528424
_cell_length_c   7.69528424
_cell_angle_alpha   99.76554616
_cell_angle_beta   99.76554616
_cell_angle_gamma   131.35833220
_symmetry_Int_Tables_number   1
_chemical_formula_structural   K5C4Br
_chemical_formula_sum   'K5 C4 Br1'
_cell_volume   311.68583341
_cell_formula_units_Z   1
loop_
 _symmetry_equiv_pos_site_id
 _symmetry_equiv_pos_as_xyz
  1  'x, y, z'
loop_
 _atom_site_type_symbol
 _atom_site_label
 _atom_site_symmetry_multiplicity
 _atom_site_fract_x
 _atom_site_fract_y
 _atom_site_fract_z
 _atom_site_occupancy
  K  K0  1  0.18578200  0.60933000  0.79511300  1
  K  K1  1  0.39067000  0.18578200  0.57645200  1
  K  K2  1  0.60933000  0.81421800  0.42354800  1
  K  K3  1  0.81421800  0.39067000  0.20488700  1
  K  K4  1  0.00000000  0.00000000  0.00000000  1
  C  C0  1  0.69624200  0.10299200  0.79923400  1
  C  C1  1  0.89700800  0.69624200  0.59325100  1
  C  C2  1  0.10299200  0.30375800  0.40674900  1
  C  C3  1  0.30375800  0.89700800  0.20076600  1
  Br  Br0  1  0.50000000  0.50000000  0.00000000  1
loop_
_geom_bond_atom_site_label_1
_geom_bond_atom_site_label_2
_geom_bond_distance
_geom_bond_site_symmetry_2
C0 K2 2.990654 1_545
C0 K3 3.083468 1_556
C0 K1 3.139600 1_555
C0 K0 3.171587 1_655
C0 K0 3.171593 1_545
C0 K4 3.180801 1_656
C1 K0 2.990654 1_655
C1 K2 3.083478 1_555
C1 K3 3.139613 1_555
C1 K1 3.171587 1_555
C1 K1 3.171593 1_665
C1 K4 3.180795 1_666
C2 K3 2.990654 1_455
C2 K1 3.083478 1_555
C2 K0 3.139613 1_555
C2 K2 3.171587 1_555
C2 K2 3.171593 1_445
C2 K4 3.180795 1_555
C3 K1 2.990654 1_565
C3 K0 3.083468 1_554
C3 K2 3.139600 1_555
C3 K3 3.171587 1_455
C3 K3 3.171593 1_565
C3 K4 3.180801 1_565
Br0 K4 3.169270 1_555
Br0 K4 3.169270 1_665
Br0 K3 3.299323 1_555
Br0 K0 3.299323 1_554
Br0 K2 3.299326 1_555
Br0 K1 3.299326 1_554
