# generated using pymatgen
data_Li6Mn3CoO10
_symmetry_space_group_name_H-M   'P 1'
_cell_length_a   6.66495802
_cell_length_b   6.66495802
_cell_length_c   9.86976947
_cell_angle_alpha   78.05881815
_cell_angle_beta   78.05881815
_cell_angle_gamma   25.19276730
_symmetry_Int_Tables_number   1
_chemical_formula_structural   Li6Mn3CoO10
_chemical_formula_sum   'Li6 Mn3 Co1 O10'
_cell_volume   182.38254443
_cell_formula_units_Z   1
loop_
 _symmetry_equiv_pos_site_id
 _symmetry_equiv_pos_as_xyz
  1  'x, y, z'
loop_
 _atom_site_type_symbol
 _atom_site_label
 _atom_site_symmetry_multiplicity
 _atom_site_fract_x
 _atom_site_fract_y
 _atom_site_fract_z
 _atom_site_occupancy
  Li  Li0  1  0.69491500  0.69491500  0.90582300  1
  Li  Li1  1  0.10671200  0.10671200  0.68724900  1
  Li  Li2  1  0.29859600  0.29859600  0.10950400  1
  Li  Li3  1  0.89743900  0.89743900  0.30299800  1
  Li  Li4  1  0.50673000  0.50673000  0.48722200  1
  Li  Li5  1  0.19807700  0.19807700  0.40288700  1
  Mn  Mn0  1  0.00323100  0.00323100  0.00365500  1
  Mn  Mn1  1  0.79125400  0.79125400  0.59479500  1
  Mn  Mn2  1  0.40033600  0.40033600  0.79603300  1
  Co  Co0  1  0.61410300  0.61410300  0.21715400  1
  O  O0  1  0.54725600  0.54725600  0.87160300  1
  O  O1  1  0.93744300  0.93744300  0.66036300  1
  O  O2  1  0.13559000  0.13559000  0.05369500  1
  O  O3  1  0.74626600  0.74626600  0.24170800  1
  O  O4  1  0.34321200  0.34321200  0.46986600  1
  O  O5  1  0.86435100  0.86435100  0.93550600  1
  O  O6  1  0.25206100  0.25206100  0.73311700  1
  O  O7  1  0.45368700  0.45368700  0.13006900  1
  O  O8  1  0.04875800  0.04875800  0.34078700  1
  O  O9  1  0.65998500  0.65998500  0.55596600  1
loop_
_geom_bond_atom_site_label_1
_geom_bond_atom_site_label_2
_geom_bond_distance
_geom_bond_site_symmetry_2
Li0 O0 2.019665 1_555
Li0 O2 2.088235 1_656
Li0 O2 2.088235 1_566
Li0 O6 2.243564 1_655
Li0 O6 2.243564 1_565
Li0 O5 2.284330 1_555
Li1 O9 1.972595 1_545
Li1 O9 1.972595 1_455
Li1 O6 2.035495 1_555
Li1 O1 2.273132 1_445
Li1 O0 2.329137 1_545
Li1 O0 2.329137 1_455
Li2 O3 1.975356 1_455
Li2 O3 1.975356 1_545
Li2 O7 2.070147 1_555
Li2 O5 2.273918 1_544
Li2 O5 2.273918 1_454
Li2 O2 2.301183 1_555
Li3 O8 2.079781 1_665
Li3 O3 2.176685 1_555
Li3 O4 2.197755 1_655
Li3 O4 2.197755 1_565
Li3 O7 2.243126 1_655
Li3 O7 2.243126 1_565
Li4 O8 2.040926 1_655
Li4 O8 2.040926 1_565
Li4 O4 2.170002 1_555
Li4 O9 2.238031 1_555
Li4 O1 2.278643 1_545
Li4 O1 2.278643 1_455
Li5 O9 2.079293 1_455
Li5 O9 2.079293 1_545
Li5 O4 2.128629 1_555
Li5 O3 2.147896 1_455
Li5 O3 2.147896 1_545
Li5 O8 2.157268 1_555
Mn0 O2 1.889269 1_555
Mn0 O7 1.934891 1_455
Mn0 O7 1.934891 1_545
Mn0 O0 1.955206 1_454
Mn0 O0 1.955206 1_544
Mn0 O5 2.057146 1_444
Mn1 O9 1.827721 1_555
Mn1 O4 1.933003 1_565
Mn1 O4 1.933003 1_655
Mn1 O6 1.985265 1_565
Mn1 O6 1.985265 1_655
Mn1 O1 2.134812 1_555
Mn2 O1 1.965865 1_545
Mn2 O1 1.965865 1_455
Mn2 O5 1.988344 1_545
Mn2 O5 1.988344 1_455
Mn2 O6 2.148074 1_555
Mn2 O0 2.194040 1_555
Co0 O3 1.786465 1_555
Co0 O8 1.970897 1_655
Co0 O8 1.970897 1_565
Co0 O2 2.145307 1_655
Co0 O2 2.145307 1_565
Co0 O7 2.419568 1_555
