# generated using pymatgen
data_K2U3H4(O3F4)2
_symmetry_space_group_name_H-M   'P 1'
_cell_length_a   8.32649328
_cell_length_b   8.32649328
_cell_length_c   13.35092000
_cell_angle_alpha   90.00000000
_cell_angle_beta   90.00000000
_cell_angle_gamma   118.30245672
_symmetry_Int_Tables_number   1
_chemical_formula_structural   K2U3H4(O3F4)2
_chemical_formula_sum   'K4 U6 H8 O12 F16'
_cell_volume   814.97376457
_cell_formula_units_Z   2
loop_
 _symmetry_equiv_pos_site_id
 _symmetry_equiv_pos_as_xyz
  1  'x, y, z'
loop_
 _atom_site_type_symbol
 _atom_site_label
 _atom_site_symmetry_multiplicity
 _atom_site_fract_x
 _atom_site_fract_y
 _atom_site_fract_z
 _atom_site_occupancy
  K  K0  1  0.63240900  0.65258300  0.25000000  1
  K  K1  1  0.65258300  0.63240900  0.75000000  1
  K  K2  1  0.36811500  0.11034900  0.25000000  1
  K  K3  1  0.11034900  0.36811500  0.75000000  1
  U  U0  1  0.80371800  0.39565700  0.02380200  1
  U  U1  1  0.39565700  0.80371800  0.97619800  1
  U  U2  1  0.39565700  0.80371800  0.52380200  1
  U  U3  1  0.80371800  0.39565700  0.47619800  1
  U  U4  1  0.99135300  0.99135300  0.00000000  1
  U  U5  1  0.99135300  0.99135300  0.50000000  1
  H  H0  1  0.64055100  0.00098100  0.25000000  1
  H  H1  1  0.00098100  0.64055100  0.75000000  1
  H  H2  1  0.25007200  0.38527400  0.25000000  1
  H  H3  1  0.38527400  0.25007200  0.75000000  1
  H  H4  1  0.29819800  0.29819800  0.00000000  1
  H  H5  1  0.29819800  0.29819800  0.50000000  1
  H  H6  1  0.05375900  0.75905600  0.25000000  1
  H  H7  1  0.75905600  0.05375900  0.75000000  1
  O  O0  1  0.93245700  0.41007400  0.13436700  1
  O  O1  1  0.41007400  0.93245700  0.86563300  1
  O  O2  1  0.41007400  0.93245700  0.63436700  1
  O  O3  1  0.93245700  0.41007400  0.36563300  1
  O  O4  1  0.39752700  0.69315700  0.09326200  1
  O  O5  1  0.69315700  0.39752800  0.90673800  1
  O  O6  1  0.69315700  0.39752800  0.59326200  1
  O  O7  1  0.39752700  0.69315700  0.40673800  1
  O  O8  1  0.96133800  0.04692900  0.12695800  1
  O  O9  1  0.04692900  0.96133800  0.87304200  1
  O  O10  1  0.04692900  0.96133800  0.62695800  1
  O  O11  1  0.96133800  0.04692900  0.37304200  1
  F  F0  1  0.85770900  0.69883400  0.05473800  1
  F  F1  1  0.69883400  0.85770900  0.94526200  1
  F  F2  1  0.69883400  0.85770900  0.55473800  1
  F  F3  1  0.85770900  0.69883400  0.44526200  1
  F  F4  1  0.37772800  0.57636400  0.61895400  1
  F  F5  1  0.57636400  0.37772800  0.38104600  1
  F  F6  1  0.57636400  0.37772800  0.11895400  1
  F  F7  1  0.37772800  0.57636400  0.88104600  1
  F  F8  1  0.08429500  0.61263300  0.54737800  1
  F  F9  1  0.61263300  0.08429500  0.45262200  1
  F  F10  1  0.61263300  0.08429500  0.04737800  1
  F  F11  1  0.08429500  0.61263300  0.95262200  1
  F  F12  1  0.96013800  0.23701600  0.55424700  1
  F  F13  1  0.23701600  0.96013800  0.44575300  1
  F  F14  1  0.23701600  0.96013800  0.05424700  1
  F  F15  1  0.96013800  0.23701600  0.94575300  1
loop_
_geom_bond_atom_site_label_1
_geom_bond_atom_site_label_2
_geom_bond_distance
_geom_bond_site_symmetry_2
K0 O7 2.990746 1_555
K0 O4 2.990746 1_555
K1 O6 2.990740 1_555
K1 O5 2.990740 1_555
H0 K2 2.816727 1_555
H0 K0 2.869411 1_545
H1 K3 2.816727 1_555
H1 K1 2.869411 1_455
H2 K2 2.887883 1_555
H2 K0 2.893050 1_555
H3 K3 2.887883 1_555
H3 K1 2.893050 1_555
H4 U4 2.620216 1_445
H5 U5 2.620216 1_445
H6 K2 2.854300 1_565
H7 K3 2.854300 1_655
O0 U0 1.794563 1_555
O1 U1 1.794563 1_555
O2 U2 1.794563 1_555
O3 U3 1.794563 1_555
O4 U1 1.817693 1_554
O5 U0 1.817695 1_556
O6 U3 1.817695 1_555
O7 U2 1.817693 1_555
O8 U4 1.805357 1_545
O9 U4 1.805357 1_456
O10 U5 1.805357 1_455
O11 U5 1.805357 1_545
F0 U4 2.265984 1_555
F0 U0 2.381000 1_555
F0 K0 3.127065 1_555
F1 U4 2.265984 1_556
F1 U1 2.381000 1_555
F1 K1 3.127065 1_555
F2 U5 2.265984 1_555
F2 U2 2.381000 1_555
F2 K1 3.127065 1_555
F3 U5 2.265984 1_555
F3 U3 2.381000 1_555
F3 K0 3.127065 1_555
F4 U2 2.225268 1_555
F4 K3 2.713603 1_555
F4 K1 2.739286 1_555
F5 U3 2.225268 1_555
F5 K2 2.713603 1_555
F5 K0 2.739286 1_555
F6 U0 2.225268 1_555
F6 K2 2.713603 1_555
F6 K0 2.739286 1_555
F7 U1 2.225268 1_555
F7 K3 2.713603 1_555
F7 K1 2.739286 1_555
F8 U2 2.332474 1_555
F8 U3 2.371224 1_455
F9 U3 2.332474 1_555
F9 U2 2.371224 1_545
F10 U0 2.332474 1_555
F10 U1 2.371224 1_544
F11 U1 2.332474 1_555
F11 U0 2.371224 1_456
F12 U5 2.297900 1_545
F12 U3 2.481605 1_555
F12 K3 2.879507 1_655
F13 U5 2.297900 1_455
F13 U2 2.481605 1_555
F13 K2 2.879507 1_565
F14 U4 2.297900 1_455
F14 U1 2.481605 1_554
F14 K2 2.879507 1_565
F15 U4 2.297900 1_546
F15 U0 2.481605 1_556
F15 K3 2.879507 1_655
