# generated using pymatgen
data_Eu(GaTe2)2
_symmetry_space_group_name_H-M   'P 1'
_cell_length_a   6.73351326
_cell_length_b   6.73351326
_cell_length_c   11.69297224
_cell_angle_alpha   90.00000000
_cell_angle_beta   90.00000000
_cell_angle_gamma   119.67814063
_symmetry_Int_Tables_number   1
_chemical_formula_structural   Eu(GaTe2)2
_chemical_formula_sum   'Eu2 Ga4 Te8'
_cell_volume   460.61534930
_cell_formula_units_Z   2
loop_
 _symmetry_equiv_pos_site_id
 _symmetry_equiv_pos_as_xyz
  1  'x, y, z'
loop_
 _atom_site_type_symbol
 _atom_site_label
 _atom_site_symmetry_multiplicity
 _atom_site_fract_x
 _atom_site_fract_y
 _atom_site_fract_z
 _atom_site_occupancy
  Eu  Eu0  1  0.50000000  0.50000000  0.25000000  1
  Eu  Eu1  1  0.50000000  0.50000000  0.75000000  1
  Ga  Ga0  1  0.75775868  0.23948218  0.50000000  1
  Ga  Ga1  1  0.24224132  0.76051882  0.50000000  1
  Ga  Ga2  1  0.76051982  0.24224132  0.00000000  1
  Ga  Ga3  1  0.23948118  0.75775868  0.00000000  1
  Te  Te0  1  0.81092209  0.65879049  0.50000000  1
  Te  Te1  1  0.18907791  0.34120951  0.50000000  1
  Te  Te2  1  0.34120951  0.18907791  0.00000000  1
  Te  Te3  1  0.65879049  0.81092209  0.00000000  1
  Te  Te4  1  -0.00000000  0.50000000  0.17456309  1
  Te  Te5  1  0.50000000  -0.00000000  0.32543691  1
  Te  Te6  1  -0.00000000  0.50000000  0.82543691  1
  Te  Te7  1  0.50000000  -0.00000000  0.67456309  1
loop_
_geom_bond_atom_site_label_1
_geom_bond_atom_site_label_2
_geom_bond_distance
_geom_bond_site_symmetry_2
Eu0 Te3 3.443114 1_555
Eu0 Te1 3.443114 1_555
Eu0 Te2 3.443114 1_555
Eu0 Te0 3.443114 1_555
Eu0 Te4 3.480391 1_655
Eu0 Te4 3.480391 1_555
Eu0 Te5 3.480391 1_565
Eu0 Te5 3.480391 1_555
Eu1 Te2 3.443114 1_556
Eu1 Te1 3.443114 1_555
Eu1 Te3 3.443114 1_556
Eu1 Te0 3.443114 1_555
Eu1 Te6 3.480391 1_655
Eu1 Te6 3.480391 1_555
Eu1 Te7 3.480391 1_565
Eu1 Te7 3.480391 1_555
Ga0 Te1 2.633272 1_655
Ga0 Te7 2.647177 1_555
Ga0 Te5 2.647177 1_555
Ga0 Te0 2.664389 1_555
Ga1 Te0 2.633270 1_455
Ga1 Te5 2.647175 1_565
Ga1 Te7 2.647175 1_565
Ga1 Te1 2.664396 1_555
Ga2 Te3 2.633268 1_545
Ga2 Te4 2.647174 1_655
Ga2 Te6 2.647174 1_654
Ga2 Te2 2.664402 1_555
Ga3 Te2 2.633270 1_565
Ga3 Te4 2.647175 1_555
Ga3 Te6 2.647175 1_554
Ga3 Te3 2.664396 1_555
