# generated using pymatgen
data_Sr2LiTi6N2O11
_symmetry_space_group_name_H-M   'P 1'
_cell_length_a   3.88711305
_cell_length_b   7.79811733
_cell_length_c   9.38839001
_cell_angle_alpha   82.58404908
_cell_angle_beta   89.99174571
_cell_angle_gamma   75.55032854
_symmetry_Int_Tables_number   1
_chemical_formula_structural   Sr2LiTi6N2O11
_chemical_formula_sum   'Sr2 Li1 Ti6 N2 O11'
_cell_volume   273.12274378
_cell_formula_units_Z   1
loop_
 _symmetry_equiv_pos_site_id
 _symmetry_equiv_pos_as_xyz
  1  'x, y, z'
loop_
 _atom_site_type_symbol
 _atom_site_label
 _atom_site_symmetry_multiplicity
 _atom_site_fract_x
 _atom_site_fract_y
 _atom_site_fract_z
 _atom_site_occupancy
  Sr  Sr0  1  0.52960700  0.93839700  0.76657700  1
  Sr  Sr1  1  0.44505700  0.10594400  0.23045700  1
  Li  Li0  1  0.71157300  0.57331400  0.95830500  1
  Ti  Ti0  1  0.12400800  0.74841500  0.10156700  1
  Ti  Ti1  1  0.16233200  0.67152300  0.42351100  1
  Ti  Ti2  1  0.23369900  0.52934200  0.75152800  1
  Ti  Ti3  1  0.75977300  0.47681700  0.23918100  1
  Ti  Ti4  1  0.83140200  0.33415800  0.56177900  1
  Ti  Ti5  1  0.88192500  0.23285100  0.91869200  1
  N  N0  1  0.23065700  0.53513600  0.25459000  1
  N  N1  1  0.83140400  0.33380100  0.08877000  1
  O  O0  1  0.05888400  0.87825200  0.29556300  1
  O  O1  1  0.12728500  0.74145100  0.62823800  1
  O  O2  1  0.17431100  0.64795900  0.92075400  1
  O  O3  1  0.63035500  0.73571800  0.10732300  1
  O  O4  1  0.69174900  0.61289400  0.44213500  1
  O  O5  1  0.75933400  0.47806700  0.76633200  1
  O  O6  1  0.29825700  0.40022400  0.56898400  1
  O  O7  1  0.37081800  0.25510700  0.87249200  1
  O  O8  1  0.86986900  0.25705100  0.38407000  1
  O  O9  1  0.93306900  0.13114600  0.68499800  1
  O  O10  1  0.00195900  0.99244500  0.98885200  1
loop_
_geom_bond_atom_site_label_1
_geom_bond_atom_site_label_2
_geom_bond_distance
_geom_bond_site_symmetry_2
Li0 O3 1.979541 1_556
Li0 O5 2.027595 1_555
Li0 O2 2.040854 1_555
Li0 O2 2.041533 1_655
Li0 N1 2.044788 1_556
N0 Ti3 2.002000 1_555
N0 Ti3 2.002630 1_455
N0 Ti1 2.002770 1_555
N0 Ti0 2.010278 1_555
N1 Ti5 1.858807 1_554
N1 Ti3 1.888612 1_555
N1 Sr1 2.809284 1_655
N1 Sr1 2.811226 1_555
O0 Ti1 1.838540 1_555
O0 Ti0 2.180450 1_555
O0 Sr1 2.612528 1_465
O0 Sr1 2.613288 1_565
O1 Ti2 1.846954 1_555
O1 Ti1 2.060008 1_555
O1 Sr0 2.859434 1_455
O1 Sr0 2.864502 1_555
O2 Ti2 1.925032 1_555
O2 Ti0 1.949433 1_556
O3 Ti0 1.946288 1_555
O3 Ti0 1.946343 1_655
O3 Ti3 2.170207 1_555
O4 Ti1 1.995556 1_655
O4 Ti1 1.996118 1_555
O4 Ti4 2.249902 1_555
O4 Ti3 2.282172 1_555
O5 Ti2 1.982900 1_555
O5 Ti2 1.983111 1_655
O5 Ti5 2.183829 1_555
O5 Ti4 2.329199 1_555
O6 Ti4 2.009680 1_455
O6 Ti4 2.010209 1_555
O6 Ti2 2.081608 1_555
O6 Ti1 2.305814 1_555
O7 Ti5 1.993512 1_555
O7 Ti5 1.993649 1_455
O7 Ti2 2.225188 1_555
O7 Sr0 2.709684 1_545
O8 Ti4 1.838884 1_555
O8 Ti3 2.000710 1_555
O8 Sr1 2.755037 1_655
O8 Sr1 2.757825 1_555
O9 Ti4 1.793269 1_555
O9 Ti5 2.419215 1_555
O9 Sr0 2.486829 1_545
O9 Sr0 2.487301 1_645
O10 Ti5 1.846865 1_465
O10 Ti0 1.998988 1_556
O10 Sr0 2.918553 1_455
O10 Sr0 2.921216 1_555
