# generated using pymatgen
data_Ba2MgNb6(NO7)2
_symmetry_space_group_name_H-M   'P 1'
_cell_length_a   8.94050709
_cell_length_b   10.61407206
_cell_length_c   4.06703606
_cell_angle_alpha   78.94838158
_cell_angle_beta   90.01242857
_cell_angle_gamma   91.27763775
_symmetry_Int_Tables_number   1
_chemical_formula_structural   Ba2MgNb6(NO7)2
_chemical_formula_sum   'Ba2 Mg1 Nb6 N2 O14'
_cell_volume   378.68739577
_cell_formula_units_Z   1
loop_
 _symmetry_equiv_pos_site_id
 _symmetry_equiv_pos_as_xyz
  1  'x, y, z'
loop_
 _atom_site_type_symbol
 _atom_site_label
 _atom_site_symmetry_multiplicity
 _atom_site_fract_x
 _atom_site_fract_y
 _atom_site_fract_z
 _atom_site_occupancy
  Ba  Ba0  1  0.25178500  0.72632700  0.13465400  1
  Ba  Ba1  1  0.73990300  0.03129700  0.98268200  1
  Mg  Mg0  1  0.25737100  0.99272400  0.50093000  1
  Nb  Nb0  1  0.04152500  0.27376300  0.36089100  1
  Nb  Nb1  1  0.24282800  0.46019100  0.76778100  1
  Nb  Nb2  1  0.44885600  0.28105900  0.35773600  1
  Nb  Nb3  1  0.57014300  0.73198400  0.63157300  1
  Nb  Nb4  1  0.76235000  0.54046800  0.22763900  1
  Nb  Nb5  1  0.92811500  0.73486400  0.63064100  1
  N  N0  1  0.74699100  0.59959500  0.69802900  1
  N  N1  1  0.90909800  0.41937100  0.28817300  1
  O  O0  1  0.09416900  0.86617900  0.56554100  1
  O  O1  1  0.08708100  0.29940200  0.84806600  1
  O  O2  1  0.09537400  0.59398400  0.70105300  1
  O  O3  1  0.24783000  0.43958200  0.27806600  1
  O  O4  1  0.24928900  0.17469500  0.41042200  1
  O  O5  1  0.40207200  0.59656700  0.69943000  1
  O  O6  1  0.40877000  0.30983700  0.84307400  1
  O  O7  1  0.41777200  0.87064300  0.56146800  1
  O  O8  1  0.56954700  0.14333300  0.42681600  1
  O  O9  1  0.57436900  0.72935300  0.13306500  1
  O  O10  1  0.58695900  0.42549200  0.28524500  1
  O  O11  1  0.75526300  0.85908000  0.56848700  1
  O  O12  1  0.92262900  0.72361200  0.13640800  1
  O  O13  1  0.91460400  0.13462000  0.43049600  1
loop_
_geom_bond_atom_site_label_1
_geom_bond_atom_site_label_2
_geom_bond_distance
_geom_bond_site_symmetry_2
Ba0 O5 2.801186 1_555
Ba0 O5 2.802435 1_554
Ba0 O2 2.810613 1_554
Ba0 O2 2.812175 1_555
Ba0 O9 2.883522 1_555
Ba0 O0 2.884650 1_554
Ba0 O0 2.889961 1_555
Ba0 O7 2.911837 1_555
Ba0 O7 2.917892 1_554
Ba0 O12 2.942317 1_455
Ba0 O3 2.986497 1_555
Ba1 O11 2.716215 1_546
Ba1 O11 2.718398 1_545
Ba1 O13 2.765405 1_556
Ba1 O13 2.768867 1_555
Ba1 O8 2.809504 1_555
Ba1 O8 2.811060 1_556
Mg0 O4 1.898649 1_565
Mg0 O7 1.938196 1_555
Mg0 O0 1.944113 1_555
Nb0 O13 1.820451 1_455
Nb0 O1 2.089773 1_555
Nb0 O1 2.089933 1_554
Nb0 O4 2.145310 1_555
Nb0 O3 2.498280 1_555
Nb1 O2 1.940059 1_555
Nb1 O5 1.988349 1_555
Nb1 O3 2.045303 1_556
Nb1 O3 2.045527 1_555
Nb1 O1 2.153766 1_555
Nb1 O6 2.181669 1_555
Nb2 O8 1.814654 1_555
Nb2 O10 1.924593 1_555
Nb2 O4 2.078828 1_555
Nb2 O6 2.086700 1_555
Nb2 O6 2.088648 1_554
Nb2 O3 2.468163 1_555
Nb3 O7 2.007848 1_555
Nb3 O9 2.033359 1_555
Nb3 O9 2.034772 1_556
Nb3 O5 2.037593 1_555
Nb3 O11 2.095904 1_555
Nb4 O10 1.951480 1_555
Nb4 O12 2.359944 1_555
Nb4 O9 2.616530 1_555
Nb5 O0 1.995799 1_655
Nb5 O12 2.036850 1_555
Nb5 O11 2.037966 1_555
Nb5 O12 2.037990 1_556
Nb5 O2 2.118840 1_655
N0 Nb3 2.121508 1_555
N0 Nb5 2.122362 1_555
N0 Nb4 2.129998 1_555
N0 Nb4 2.130175 1_556
N1 Nb4 1.840593 1_555
N1 Nb0 1.945251 1_655
