# generated using pymatgen
data_Dy6Nb4Al43
_symmetry_space_group_name_H-M   'P 1'
_cell_length_a   11.03132239
_cell_length_b   11.03131850
_cell_length_c   17.76297036
_cell_angle_alpha   90.00002279
_cell_angle_beta   89.99997719
_cell_angle_gamma   119.99997711
_symmetry_Int_Tables_number   1
_chemical_formula_structural   Dy6Nb4Al43
_chemical_formula_sum   'Dy12 Nb8 Al86'
_cell_volume   1871.98051418
_cell_formula_units_Z   2
loop_
 _symmetry_equiv_pos_site_id
 _symmetry_equiv_pos_as_xyz
  1  'x, y, z'
loop_
 _atom_site_type_symbol
 _atom_site_label
 _atom_site_symmetry_multiplicity
 _atom_site_fract_x
 _atom_site_fract_y
 _atom_site_fract_z
 _atom_site_occupancy
  Dy  Dy0  1  0.53080749  0.00000043  0.59606352  1
  Dy  Dy1  1  0.46919024  0.00000057  0.40394643  1
  Dy  Dy2  1  0.00000093  0.53080852  0.59606364  1
  Dy  Dy3  1  0.46919217  0.00000008  0.09604762  1
  Dy  Dy4  1  0.00000014  0.53080771  0.90394131  1
  Dy  Dy5  1  0.00000014  0.46919038  0.40394625  1
  Dy  Dy6  1  0.53080722  0.00000026  0.90394117  1
  Dy  Dy7  1  0.00000090  0.46919156  0.09604800  1
  Dy  Dy8  1  0.46919226  0.46919206  0.59606415  1
  Dy  Dy9  1  0.53080959  0.53080962  0.40394595  1
  Dy  Dy10  1  0.53080894  0.53080809  0.09604795  1
  Dy  Dy11  1  0.46919293  0.46919302  0.90394182  1
  Nb  Nb0  1  0.00000020  0.00000002  0.50000377  1
  Nb  Nb1  1  0.00000081  0.00000052  -0.00000388  1
  Nb  Nb2  1  0.72634422  -0.00000097  0.75000465  1
  Nb  Nb3  1  0.27365927  0.00000234  0.24999509  1
  Nb  Nb4  1  -0.00000053  0.72634464  0.75000477  1
  Nb  Nb5  1  0.00000001  0.27366129  0.24999529  1
  Nb  Nb6  1  0.27364869  0.27364884  0.75000456  1
  Nb  Nb7  1  0.72634069  0.72633996  0.24999516  1
  Al  Al0  1  0.15321813  0.59695494  0.75000173  1
  Al  Al1  1  0.84677538  0.40304630  0.24999837  1
  Al  Al2  1  0.40304018  0.55626231  0.75000090  1
  Al  Al3  1  0.59695580  0.15321900  0.74999961  1
  Al  Al4  1  0.59695635  0.44372879  0.24999660  1
  Al  Al5  1  0.40304683  0.84677570  0.24999831  1
  Al  Al6  1  0.44373669  0.84678111  0.74999957  1
  Al  Al7  1  0.55626179  0.40304034  0.75000113  1
  Al  Al8  1  0.55627136  0.15322746  0.24999725  1
  Al  Al9  1  0.44372973  0.59695571  0.24999716  1
  Al  Al10  1  0.84678143  0.44373748  0.74999978  1
  Al  Al11  1  0.15322790  0.55627132  0.24999680  1
  Al  Al12  1  0.15910466  0.00000089  0.11520473  1
  Al  Al13  1  0.84089696  0.00000004  0.88479553  1
  Al  Al14  1  0.00000044  0.15910571  0.11520383  1
  Al  Al15  1  0.84090328  -0.00000037  0.61520968  1
  Al  Al16  1  0.00000011  0.15910735  0.38479826  1
  Al  Al17  1  0.00000009  0.84089557  0.88479602  1
  Al  Al18  1  0.15910236  -0.00000245  0.38479402  1
  Al  Al19  1  -0.00000060  0.84090278  0.61520993  1
  Al  Al20  1  0.84089530  0.84089488  0.11520363  1
  Al  Al21  1  0.15910388  0.15910454  0.88479538  1
  Al  Al22  1  0.15910191  0.15910158  0.61520818  1
  Al  Al23  1  0.84089269  0.84089283  0.38479795  1
  Al  Al24  1  0.24749119  0.49498503  0.50000327  1
  Al  Al25  1  0.75250600  0.50501537  0.50000346  1
  Al  Al26  1  0.50501546  0.75250611  0.50000297  1
  Al  Al27  1  0.75250568  0.50501391  0.99999654  1
  Al  Al28  1  0.49498724  0.24749177  0.99999700  1
  Al  Al29  1  0.49498491  0.24749116  0.50000356  1
  Al  Al30  1  0.24749188  0.49498655  0.99999670  1
  Al  Al31  1  0.50501376  0.75250487  0.99999639  1
  Al  Al32  1  0.24749408  0.75250974  0.50000317  1
  Al  Al33  1  0.75250936  0.24749447  0.50000325  1
  Al  Al34  1  0.75250910  0.24749527  0.99999663  1
  Al  Al35  1  0.24749539  0.75250879  0.99999693  1
  Al  Al36  1  0.14794897  -0.00000328  0.75000164  1
  Al  Al37  1  0.85204070  -0.00000050  0.24999660  1
  Al  Al38  1  -0.00000350  0.14794902  0.75000133  1
  Al  Al39  1  0.00000139  0.85204048  0.24999633  1
  Al  Al40  1  0.85204390  0.85204394  0.75000320  1
  Al  Al41  1  0.14795548  0.14795853  0.24999757  1
  Al  Al42  1  0.33333344  0.66666705  0.62497271  1
  Al  Al43  1  0.66666637  0.33333335  0.37503213  1
  Al  Al44  1  0.66667025  0.33333463  0.12496682  1
  Al  Al45  1  0.66666702  0.33333309  0.87502744  1
  Al  Al46  1  0.33333308  0.66666743  0.87502748  1
  Al  Al47  1  0.33333536  0.66666620  0.12496696  1
  Al  Al48  1  0.33333306  0.66666690  0.37503192  1
  Al  Al49  1  0.66666647  0.33333338  0.62497324  1
  Al  Al50  1  0.25539284  0.00000007  0.52963079  1
  Al  Al51  1  0.74461548  0.00000008  0.47037007  1
  Al  Al52  1  0.00000015  0.25539332  0.52963538  1
  Al  Al53  1  0.74461357  -0.00000033  0.02963096  1
  Al  Al54  1  0.00000065  0.25539589  0.97036791  1
  Al  Al55  1  -0.00000009  0.74461570  0.47037028  1
  Al  Al56  1  0.25539561  0.00000069  0.97036812  1
  Al  Al57  1  0.00000028  0.74461293  0.02963206  1
  Al  Al58  1  0.74460701  0.74460782  0.52963290  1
  Al  Al59  1  0.25538541  0.25538523  0.47036914  1
  Al  Al60  1  0.25538763  0.25538716  0.02963202  1
  Al  Al61  1  0.74460506  0.74460495  0.97036790  1
  Al  Al62  1  0.15814180  0.39485570  0.66257131  1
  Al  Al63  1  0.84185390  0.60513968  0.33743129  1
  Al  Al64  1  0.60514326  0.76328550  0.66257133  1
  Al  Al65  1  0.84185782  0.60513950  0.16257037  1
  Al  Al66  1  0.39485572  0.15813987  0.83742794  1
  Al  Al67  1  0.39486092  0.23671533  0.33743003  1
  Al  Al68  1  0.15813958  0.39485664  0.83742740  1
  Al  Al69  1  0.60513958  0.84185622  0.16257044  1
  Al  Al70  1  0.23671393  0.84185816  0.66257070  1
  Al  Al71  1  0.39486356  0.23671516  0.16256861  1
  Al  Al72  1  0.76328347  0.60514256  0.83742797  1
  Al  Al73  1  0.76328479  0.15814553  0.33743079  1
  Al  Al74  1  0.60514271  0.76328355  0.83742773  1
  Al  Al75  1  0.23671778  0.39486080  0.16257046  1
  Al  Al76  1  0.60513959  0.84185373  0.33743077  1
  Al  Al77  1  0.39485562  0.15814246  0.66257096  1
  Al  Al78  1  0.76328328  0.15814360  0.16257036  1
  Al  Al79  1  0.23671505  0.39486145  0.33743078  1
  Al  Al80  1  0.23671693  0.84186056  0.83742778  1
  Al  Al81  1  0.76328530  0.60514350  0.66257178  1
  Al  Al82  1  0.84185995  0.23671672  0.83742754  1
  Al  Al83  1  0.15814938  0.76328541  0.16256853  1
  Al  Al84  1  0.15814540  0.76328486  0.33743015  1
  Al  Al85  1  0.84185807  0.23671399  0.66257065  1
loop_
_geom_bond_atom_site_label_1
_geom_bond_atom_site_label_2
_geom_bond_distance
_geom_bond_site_symmetry_2
Dy0 Dy1 3.479606 1_555
Dy0 Nb2 3.482820 1_555
Dy1 Nb3 3.482925 1_555
Dy2 Dy5 3.479611 1_555
Dy2 Nb4 3.482814 1_555
Dy3 Dy6 3.479415 1_554
Dy3 Nb3 3.482884 1_555
Dy4 Dy7 3.479423 1_556
Dy4 Nb4 3.482755 1_555
Dy5 Nb5 3.482898 1_555
Dy6 Nb2 3.482756 1_555
Dy7 Nb5 3.482854 1_555
Dy8 Dy9 3.479625 1_555
Dy8 Nb6 3.482851 1_555
Dy9 Nb7 3.482909 1_555
Dy10 Dy11 3.479411 1_554
Dy10 Nb7 3.482866 1_555
Dy11 Nb6 3.482812 1_555
Al0 Nb4 2.703069 1_555
Al0 Al68 2.739686 1_555
Al0 Al62 2.739752 1_555
Al0 Al46 2.818386 1_555
Al0 Al42 2.818434 1_555
Al0 Al80 2.840846 1_555
Al0 Al70 2.840879 1_555
Al0 Al10 2.927515 1_455
Al0 Al2 3.005562 1_555
Al0 Al6 3.005606 1_555
Al0 Dy2 3.103676 1_555
Al0 Dy4 3.103702 1_555
Al1 Nb5 2.703084 1_655
Al1 Al65 2.739645 1_555
Al1 Al63 2.739713 1_555
Al1 Al44 2.818406 1_555
Al1 Al43 2.818460 1_555
Al1 Al78 2.840851 1_555
Al1 Al73 2.840880 1_555
Al1 Al11 2.927666 1_655
Al1 Al4 3.005461 1_555
Al1 Al8 3.005478 1_555
Al1 Dy5 3.103866 1_655
Al1 Dy7 3.103907 1_655
Al2 Nb6 2.703118 1_555
Al2 Al74 2.739724 1_555
Al2 Al64 2.739763 1_555
Al2 Al46 2.818384 1_555
Al2 Al42 2.818403 1_555
Al2 Al68 2.840814 1_555
Al2 Al62 2.840831 1_555
Al2 Al7 2.927579 1_555
Al2 Al6 3.005590 1_555
Al2 Dy8 3.103676 1_555
Al2 Dy11 3.103741 1_555
Al3 Nb2 2.703070 1_555
Al3 Al66 2.739726 1_555
Al3 Al77 2.739743 1_555
Al3 Al49 2.818392 1_555
Al3 Al45 2.818410 1_555
Al3 Al85 2.840852 1_555
Al3 Al82 2.840855 1_555
Al3 Al6 2.927525 1_545
Al3 Al7 3.005562 1_555
Al3 Dy0 3.103650 1_555
Al3 Dy6 3.103737 1_555
Al4 Nb7 2.703100 1_555
Al4 Al71 2.739657 1_555
Al4 Al67 2.739722 1_555
Al4 Al44 2.818396 1_555
Al4 Al43 2.818465 1_555
Al4 Al65 2.840826 1_555
Al4 Al63 2.840882 1_555
Al4 Al9 2.927674 1_555
Al4 Al8 3.005447 1_555
Al4 Dy10 3.103886 1_555
Al4 Dy9 3.103900 1_555
Al5 Nb3 2.703127 1_565
Al5 Al69 2.739648 1_555
Al5 Al76 2.739707 1_555
Al5 Al83 2.840827 1_555
Al5 Al84 2.840880 1_555
Al5 Al8 2.927658 1_565
Al5 Al9 3.005473 1_555
Al5 Dy1 3.103870 1_565
Al5 Dy3 3.103907 1_565
Al6 Nb2 2.703062 1_565
Al6 Al80 2.739715 1_555
Al6 Al70 2.739740 1_555
Al6 Al64 2.840843 1_555
Al6 Al74 2.840852 1_555
Al6 Dy0 3.103653 1_565
Al6 Dy6 3.103739 1_565
Al7 Nb6 2.703116 1_555
Al7 Al72 2.739724 1_555
Al7 Al81 2.739762 1_555
Al7 Al77 2.840831 1_555
Al7 Dy8 3.103676 1_555
Al7 Dy11 3.103734 1_555
Al8 Nb3 2.703108 1_555
Al8 Dy1 3.103895 1_555
Al8 Dy3 3.103903 1_555
Al9 Nb7 2.703099 1_555
Al9 Dy9 3.103885 1_555
Al9 Dy10 3.103894 1_555
Al10 Nb4 2.703058 1_655
Al10 Al82 2.739716 1_555
Al10 Al85 2.739745 1_555
Al10 Al49 2.818399 1_555
Al10 Al45 2.818411 1_555
Al10 Al81 2.840840 1_555
Al10 Al72 2.840845 1_555
Al10 Al7 3.005597 1_555
Al10 Al3 3.005603 1_555
Al10 Dy2 3.103655 1_655
Al10 Dy4 3.103736 1_655
Al11 Nb5 2.703090 1_555
Al11 Al83 2.739660 1_555
Al11 Al84 2.739723 1_555
Al11 Al47 2.818396 1_555
Al11 Al48 2.818458 1_555
Al11 Al75 2.840818 1_555
Al11 Al79 2.840869 1_555
Al11 Al9 3.005456 1_555
Al11 Al5 3.005480 1_555
Al11 Dy7 3.103890 1_555
Al11 Dy5 3.103903 1_555
Al12 Nb1 2.695999 1_555
Al12 Nb3 2.707297 1_555
Al12 Al71 2.738459 1_555
Al12 Al83 2.738471 1_545
Al12 Al56 2.783386 1_554
Al12 Al60 2.895376 1_555
Al12 Al57 2.895389 1_545
Al12 Al39 2.934703 1_545
Al12 Al41 2.934725 1_555
Al12 Al14 3.039979 1_555
Al12 Al20 3.039984 1_445
Al12 Dy3 3.437564 1_555
Al13 Nb1 2.695890 1_656
Al13 Nb2 2.707296 1_555
Al13 Al82 2.738466 1_555
Al13 Al74 2.738468 1_545
Al13 Al53 2.783333 1_556
Al13 Al61 2.895438 1_545
Al13 Al54 2.895444 1_655
Al13 Al38 2.934695 1_655
Al13 Al40 2.934700 1_545
Al13 Al21 3.039960 1_655
Al13 Al17 3.039965 1_645
Al13 Dy6 3.437565 1_555
Al14 Nb1 2.695997 1_555
Al14 Nb5 2.707323 1_555
Al14 Al78 2.738468 1_455
Al14 Al75 2.738470 1_555
Al14 Al54 2.783371 1_554
Al14 Al60 2.895378 1_555
Al14 Al53 2.895386 1_455
Al14 Al41 2.934716 1_555
Al14 Al37 2.934729 1_455
Al14 Al20 3.039997 1_445
Al14 Dy7 3.437535 1_555
Al15 Nb0 2.695911 1_655
Al15 Nb2 2.707393 1_555
Al15 Al85 2.738445 1_555
Al15 Al64 2.738452 1_545
Al15 Al51 2.783423 1_555
Al15 Al52 2.895437 1_655
Al15 Al58 2.895444 1_545
Al15 Al38 2.934637 1_655
Al15 Al40 2.934693 1_545
Al15 Al19 3.039826 1_645
Al15 Al22 3.039881 1_655
Al15 Dy0 3.437636 1_555
Al16 Nb0 2.695983 1_555
Al16 Nb5 2.707495 1_555
Al16 Al73 2.738456 1_455
Al16 Al79 2.738457 1_555
Al16 Al52 2.783372 1_555
Al16 Al59 2.895358 1_555
Al16 Al51 2.895361 1_455
Al16 Al41 2.934823 1_555
Al16 Al37 2.934862 1_455
Al16 Al18 3.040008 1_555
Al16 Al23 3.040032 1_445
Al16 Dy5 3.437493 1_555
Al17 Nb1 2.695889 1_566
Al17 Nb4 2.707293 1_555
Al17 Al80 2.738459 1_555
Al17 Al72 2.738463 1_455
Al17 Al57 2.783342 1_556
Al17 Al61 2.895435 1_455
Al17 Al56 2.895442 1_565
Al17 Al36 2.934703 1_565
Al17 Al40 2.934714 1_455
Al17 Al21 3.039979 1_565
Al17 Dy4 3.437542 1_555
Al18 Nb0 2.696011 1_555
Al18 Nb3 2.707434 1_555
Al18 Al84 2.738432 1_545
Al18 Al67 2.738476 1_555
Al18 Al50 2.783381 1_555
Al18 Al55 2.895376 1_545
Al18 Al59 2.895410 1_555
Al18 Al39 2.934774 1_545
Al18 Al41 2.934791 1_555
Al18 Al23 3.039987 1_445
Al18 Dy1 3.437539 1_555
Al19 Nb0 2.695916 1_565
Al19 Nb4 2.707389 1_555
Al19 Al70 2.738444 1_555
Al19 Al81 2.738449 1_455
Al19 Al55 2.783420 1_555
Al19 Al58 2.895455 1_455
Al19 Al50 2.895481 1_565
Al19 Al36 2.934641 1_565
Al19 Al40 2.934689 1_455
Al19 Al22 3.039882 1_565
Al19 Dy2 3.437622 1_555
Al20 Nb1 2.695997 1_665
Al20 Nb7 2.707319 1_555
Al20 Al69 2.738472 1_555
Al20 Al65 2.738474 1_555
Al20 Al61 2.783368 1_554
Al20 Al57 2.895371 1_655
Al20 Al53 2.895379 1_565
Al20 Al37 2.934723 1_565
Al20 Al39 2.934730 1_655
Al20 Dy10 3.437547 1_555
Al21 Nb1 2.695891 1_556
Al21 Nb6 2.707255 1_555
Al21 Al66 2.738452 1_555
Al21 Al68 2.738456 1_555
Al21 Al60 2.783353 1_556
Al21 Al54 2.895435 1_555
Al21 Al56 2.895446 1_555
Al21 Al36 2.934728 1_555
Al21 Al38 2.934729 1_555
Al21 Dy11 3.437555 1_555
Al22 Nb0 2.695927 1_555
Al22 Nb6 2.707355 1_555
Al22 Al77 2.738418 1_555
Al22 Al62 2.738428 1_555
Al22 Al59 2.783395 1_555
Al22 Al52 2.895428 1_555
Al22 Al50 2.895462 1_555
Al22 Al38 2.934711 1_555
Al22 Al36 2.934712 1_555
Al22 Dy8 3.437569 1_555
Al23 Nb0 2.695987 1_665
Al23 Nb7 2.707484 1_555
Al23 Al63 2.738443 1_555
Al23 Al76 2.738445 1_555
Al23 Al58 2.783335 1_555
Al23 Al51 2.895361 1_565
Al23 Al55 2.895364 1_655
Al23 Al37 2.934852 1_565
Al23 Al39 2.934869 1_655
Al23 Dy9 3.437496 1_555
Al24 Al52 2.738700 1_555
Al24 Al59 2.738764 1_555
Al24 Al42 2.760022 1_555
Al24 Al48 2.760049 1_555
Al24 Al26 2.840816 1_555
Al24 Al32 2.840821 1_555
Al24 Al62 3.072719 1_555
Al24 Al79 3.072777 1_555
Al24 Dy5 3.109528 1_555
Al24 Dy8 3.109599 1_555
Al24 Dy2 3.405917 1_555
Al24 Dy9 3.405930 1_555
Al25 Al58 2.738695 1_555
Al25 Al55 2.738764 1_655
Al25 Al49 2.760027 1_555
Al25 Al43 2.760049 1_555
Al25 Al33 2.840814 1_555
Al25 Al29 2.840816 1_555
Al25 Al81 3.072720 1_555
Al25 Al63 3.072775 1_555
Al25 Dy9 3.109531 1_555
Al25 Dy2 3.109600 1_655
Al25 Dy8 3.405921 1_555
Al25 Dy5 3.405934 1_655
Al26 Al58 2.738684 1_555
Al26 Al51 2.738762 1_565
Al26 Al42 2.760027 1_555
Al26 Al48 2.760048 1_555
Al26 Al32 2.840821 1_555
Al26 Al64 3.072720 1_555
Al26 Al76 3.072774 1_555
Al26 Dy9 3.109524 1_555
Al26 Dy0 3.109601 1_565
Al26 Dy8 3.405929 1_555
Al26 Dy1 3.405933 1_565
Al27 Al61 2.738687 1_555
Al27 Al57 2.738769 1_656
Al27 Al45 2.760010 1_555
Al27 Al44 2.760019 1_556
Al27 Al34 2.840789 1_555
Al27 Al28 2.840790 1_555
Al27 Al72 3.072729 1_555
Al27 Al65 3.072812 1_556
Al27 Dy10 3.109473 1_556
Al27 Dy4 3.109544 1_655
Al27 Dy11 3.405869 1_555
Al27 Dy7 3.405880 1_656
Al28 Al56 2.738689 1_555
Al28 Al60 2.738772 1_556
Al28 Al45 2.760011 1_555
Al28 Al44 2.760034 1_556
Al28 Al34 2.840787 1_555
Al28 Al66 3.072745 1_555
Al28 Al71 3.072762 1_556
Al28 Dy3 3.109469 1_556
Al28 Dy11 3.109552 1_555
Al28 Dy10 3.405864 1_556
Al28 Dy6 3.405868 1_555
Al29 Al50 2.738685 1_555
Al29 Al59 2.738762 1_555
Al29 Al49 2.760024 1_555
Al29 Al43 2.760048 1_555
Al29 Al33 2.840817 1_555
Al29 Al77 3.072707 1_555
Al29 Al67 3.072797 1_555
Al29 Dy1 3.109523 1_555
Al29 Dy8 3.109591 1_555
Al29 Dy0 3.405913 1_555
Al29 Dy9 3.405933 1_555
Al30 Al54 2.738684 1_555
Al30 Al60 2.738772 1_556
Al30 Al46 2.760013 1_555
Al30 Al47 2.760020 1_556
Al30 Al31 2.840788 1_555
Al30 Al35 2.840790 1_555
Al30 Al68 3.072746 1_555
Al30 Al75 3.072810 1_556
Al30 Dy7 3.109469 1_556
Al30 Dy11 3.109542 1_555
Al30 Dy4 3.405875 1_555
Al30 Dy10 3.405876 1_556
Al31 Al61 2.738686 1_555
Al31 Al53 2.738771 1_566
Al31 Al46 2.760008 1_555
Al31 Al47 2.760018 1_556
Al31 Al35 2.840790 1_555
Al31 Al74 3.072729 1_555
Al31 Al69 3.072815 1_556
Al31 Dy10 3.109480 1_556
Al31 Dy6 3.109554 1_565
Al31 Dy11 3.405857 1_555
Al31 Dy3 3.405871 1_566
Al32 Al50 2.738678 1_565
Al32 Al55 2.738763 1_555
Al32 Al42 2.760024 1_555
Al32 Al48 2.760046 1_555
Al32 Al70 3.072707 1_555
Al32 Al84 3.072789 1_555
Al32 Dy1 3.109523 1_565
Al32 Dy2 3.109591 1_555
Al32 Dy0 3.405918 1_565
Al32 Dy5 3.405933 1_555
Al33 Al52 2.738699 1_655
Al33 Al51 2.738766 1_555
Al33 Al49 2.760028 1_555
Al33 Al43 2.760046 1_555
Al33 Al85 3.072707 1_555
Al33 Al73 3.072781 1_555
Al33 Dy5 3.109524 1_655
Al33 Dy0 3.109596 1_555
Al33 Dy2 3.405925 1_655
Al33 Dy1 3.405931 1_555
Al34 Al54 2.738687 1_655
Al34 Al53 2.738775 1_556
Al34 Al45 2.760007 1_555
Al34 Al44 2.760011 1_556
Al34 Al82 3.072738 1_555
Al34 Al78 3.072810 1_556
Al34 Dy7 3.109476 1_656
Al34 Dy6 3.109555 1_555
Al34 Dy4 3.405869 1_655
Al34 Dy3 3.405872 1_556
Al35 Al56 2.738692 1_565
Al35 Al57 2.738771 1_556
Al35 Al46 2.760005 1_555
Al35 Al47 2.760034 1_556
Al35 Al80 3.072743 1_555
Al35 Al83 3.072758 1_556
Al35 Dy3 3.109469 1_566
Al35 Dy4 3.109555 1_555
Al35 Dy6 3.405871 1_565
Al35 Dy7 3.405872 1_556
Al36 Nb4 2.617187 1_545
Al36 Nb6 2.617189 1_555
Al36 Al38 2.826897 1_555
Al36 Al40 2.826902 1_445
Al36 Al80 2.849887 1_545
Al36 Al66 2.849919 1_555
Al36 Al70 2.849932 1_545
Al36 Al77 2.849964 1_555
Al37 Nb7 2.617261 1_545
Al37 Nb5 2.617282 1_655
Al37 Al41 2.826995 1_655
Al37 Al39 2.827040 1_645
Al37 Al69 2.849878 1_545
Al37 Al78 2.849882 1_555
Al37 Al76 2.849958 1_545
Al37 Al73 2.849963 1_555
Al38 Nb2 2.617190 1_455
Al38 Nb6 2.617190 1_555
Al38 Al40 2.826901 1_445
Al38 Al82 2.849889 1_455
Al38 Al68 2.849922 1_555
Al38 Al85 2.849930 1_455
Al38 Al62 2.849957 1_555
Al39 Nb3 2.617248 1_565
Al39 Nb7 2.617274 1_455
Al39 Al41 2.827025 1_565
Al39 Al65 2.849874 1_455
Al39 Al83 2.849913 1_555
Al39 Al84 2.849942 1_555
Al39 Al63 2.849966 1_455
Al40 Nb2 2.617214 1_565
Al40 Nb4 2.617216 1_655
Al40 Al74 2.849858 1_555
Al40 Al72 2.849862 1_555
Al40 Al81 2.849920 1_555
Al40 Al64 2.849928 1_555
Al41 Nb5 2.617247 1_555
Al41 Nb3 2.617263 1_555
Al41 Al75 2.849889 1_555
Al41 Al79 2.849957 1_555
Al41 Al71 2.849966 1_555
Al41 Al67 2.849977 1_555
Al42 Al64 2.716020 1_555
Al42 Al70 2.716021 1_555
Al42 Al62 2.716032 1_555
Al42 Al6 2.818397 1_555
Al42 Dy2 3.243453 1_555
Al42 Dy0 3.243460 1_565
Al42 Dy8 3.243462 1_555
Al43 Al67 2.715992 1_555
Al43 Al63 2.715993 1_555
Al43 Al73 2.715994 1_555
Al43 Al8 2.818458 1_555
Al43 Dy1 3.243471 1_555
Al43 Dy9 3.243471 1_555
Al43 Dy5 3.243481 1_655
Al44 Al78 2.715992 1_555
Al44 Al65 2.715993 1_555
Al44 Al71 2.716000 1_555
Al44 Al8 2.818406 1_555
Al44 Dy7 3.243463 1_655
Al44 Dy10 3.243498 1_555
Al44 Dy3 3.243503 1_555
Al45 Al82 2.716022 1_555
Al45 Al72 2.716023 1_555
Al45 Al66 2.716039 1_555
Al45 Al7 2.818383 1_555
Al45 Dy6 3.243466 1_555
Al45 Dy4 3.243472 1_655
Al45 Dy11 3.243479 1_555
Al46 Al80 2.716022 1_555
Al46 Al74 2.716027 1_555
Al46 Al68 2.716037 1_555
Al46 Al6 2.818410 1_555
Al46 Dy6 3.243468 1_565
Al46 Dy4 3.243469 1_555
Al46 Dy11 3.243482 1_555
Al47 Al83 2.715984 1_555
Al47 Al69 2.715993 1_555
Al47 Al75 2.715997 1_555
Al47 Al9 2.818387 1_555
Al47 Al5 2.818430 1_555
Al47 Dy10 3.243471 1_555
Al47 Dy3 3.243496 1_565
Al47 Dy7 3.243499 1_555
Al48 Al79 2.715987 1_555
Al48 Al84 2.715992 1_555
Al48 Al76 2.715996 1_555
Al48 Al5 2.818456 1_555
Al48 Al9 2.818467 1_555
Al48 Dy5 3.243474 1_555
Al48 Dy1 3.243480 1_565
Al48 Dy9 3.243480 1_555
Al49 Al81 2.716020 1_555
Al49 Al77 2.716024 1_555
Al49 Al85 2.716024 1_555
Al49 Al7 2.818399 1_555
Al49 Dy8 3.243455 1_555
Al49 Dy0 3.243457 1_555
Al49 Dy2 3.243473 1_655
Al50 Nb0 2.866049 1_555
Al50 Al70 2.881419 1_545
Al50 Al77 2.881423 1_555
Al50 Al55 3.007506 1_545
Al50 Al59 3.007515 1_555
Al50 Dy1 3.247543 1_555
Al50 Dy0 3.259306 1_555
Al51 Nb0 2.865986 1_655
Al51 Al73 2.881456 1_555
Al51 Al76 2.881459 1_545
Al51 Al58 3.007513 1_545
Al51 Al52 3.007539 1_655
Al51 Dy0 3.247742 1_555
Al51 Dy1 3.259361 1_555
Al52 Nb0 2.866070 1_555
Al52 Al85 2.881350 1_455
Al52 Al62 2.881358 1_555
Al52 Al59 3.007548 1_555
Al52 Dy5 3.247601 1_555
Al52 Dy2 3.259279 1_555
Al53 Nb1 2.866011 1_655
Al53 Al69 2.881446 1_545
Al53 Al78 2.881446 1_555
Al53 Al61 3.007539 1_544
Al53 Al54 3.007553 1_654
Al53 Dy6 3.247686 1_554
Al53 Dy3 3.259275 1_555
Al54 Nb1 2.866083 1_556
Al54 Al68 2.881410 1_555
Al54 Al82 2.881417 1_455
Al54 Al60 3.007557 1_556
Al54 Dy7 3.247477 1_556
Al54 Dy4 3.259241 1_555
Al55 Nb0 2.865977 1_565
Al55 Al63 2.881454 1_455
Al55 Al84 2.881469 1_555
Al55 Al58 3.007522 1_455
Al55 Dy2 3.247738 1_555
Al55 Dy5 3.259361 1_555
Al56 Nb1 2.866075 1_556
Al56 Al66 2.881405 1_555
Al56 Al80 2.881413 1_545
Al56 Al60 3.007544 1_556
Al56 Al57 3.007558 1_546
Al56 Dy3 3.247482 1_556
Al56 Dy6 3.259241 1_555
Al57 Nb1 2.866020 1_565
Al57 Al65 2.881424 1_455
Al57 Al83 2.881430 1_555
Al57 Al61 3.007556 1_454
Al57 Dy4 3.247684 1_554
Al57 Dy7 3.259271 1_555
Al58 Nb0 2.866057 1_665
Al58 Al64 2.881396 1_555
Al58 Al81 2.881410 1_555
Al58 Dy9 3.247581 1_555
Al58 Dy8 3.259305 1_555
Al59 Nb0 2.865994 1_555
Al59 Al79 2.881447 1_555
Al59 Al67 2.881451 1_555
Al59 Dy8 3.247751 1_555
Al59 Dy9 3.259346 1_555
Al60 Nb1 2.866014 1_555
Al60 Al71 2.881426 1_555
Al60 Al75 2.881429 1_555
Al60 Dy11 3.247682 1_554
Al60 Dy10 3.259267 1_555
Al61 Nb1 2.866086 1_666
Al61 Al72 2.881412 1_555
Al61 Al74 2.881417 1_555
Al61 Dy10 3.247486 1_556
Al61 Dy11 3.259238 1_555
Al62 Nb6 2.743549 1_555
Al62 Al85 3.021587 1_455
Al62 Dy2 3.050320 1_555
Al62 Al68 3.105964 1_555
Al62 Dy8 3.320860 1_555
Al63 Nb7 2.743575 1_555
Al63 Al84 3.021662 1_655
Al63 Dy5 3.050388 1_655
Al63 Al65 3.106049 1_555
Al63 Dy9 3.320865 1_555
Al64 Nb2 2.743546 1_565
Al64 Al81 3.021589 1_555
Al64 Dy8 3.050315 1_555
Al64 Al74 3.105969 1_555
Al64 Dy0 3.320868 1_565
Al65 Nb7 2.743492 1_555
Al65 Al83 3.021662 1_655
Al65 Dy7 3.050398 1_655
Al65 Dy10 3.320956 1_555
Al66 Nb6 2.743467 1_555
Al66 Al7 2.840817 1_555
Al66 Al80 3.021544 1_545
Al66 Dy6 3.050335 1_555
Al66 Al77 3.105979 1_555
Al66 Dy11 3.320926 1_555
Al67 Nb3 2.743559 1_555
Al67 Al8 2.840866 1_555
Al67 Al79 3.021665 1_555
Al67 Dy9 3.050383 1_555
Al67 Al71 3.106058 1_555
Al67 Dy1 3.320875 1_555
Al68 Nb6 2.743468 1_555
Al68 Al82 3.021548 1_455
Al68 Dy4 3.050334 1_555
Al68 Dy11 3.320936 1_555
Al69 Nb7 2.743491 1_555
Al69 Al9 2.840823 1_555
Al69 Al78 3.021621 1_565
Al69 Dy3 3.050405 1_565
Al69 Al76 3.106039 1_555
Al69 Dy10 3.320950 1_555
Al70 Nb4 2.743562 1_555
Al70 Al77 3.021592 1_565
Al70 Dy0 3.050317 1_565
Al70 Al80 3.105981 1_555
Al70 Dy2 3.320851 1_555
Al71 Nb3 2.743473 1_555
Al71 Al8 2.840803 1_555
Al71 Al75 3.021659 1_555
Al71 Dy10 3.050406 1_555
Al71 Dy3 3.320901 1_555
Al72 Nb4 2.743465 1_655
Al72 Al74 3.021567 1_555
Al72 Dy11 3.050336 1_555
Al72 Al81 3.105965 1_555
Al72 Dy4 3.320915 1_655
Al73 Al8 2.739723 1_555
Al73 Nb5 2.743582 1_655
Al73 Al76 3.021663 1_545
Al73 Dy1 3.050384 1_555
Al73 Al78 3.106041 1_555
Al73 Dy5 3.320877 1_655
Al74 Nb2 2.743459 1_565
Al74 Dy11 3.050337 1_555
Al74 Dy6 3.320918 1_565
Al75 Al9 2.739645 1_555
Al75 Nb5 2.743495 1_555
Al75 Dy10 3.050402 1_555
Al75 Al79 3.106039 1_555
Al75 Dy7 3.320945 1_555
Al76 Nb7 2.743579 1_555
Al76 Al9 2.840872 1_555
Al76 Dy1 3.050398 1_565
Al76 Dy9 3.320866 1_555
Al77 Nb6 2.743548 1_555
Al77 Dy0 3.050319 1_555
Al77 Dy8 3.320848 1_555
Al78 Al8 2.739650 1_555
Al78 Nb5 2.743488 1_655
Al78 Dy3 3.050404 1_555
Al78 Dy7 3.320949 1_655
Al79 Al9 2.739725 1_555
Al79 Nb5 2.743581 1_555
Al79 Dy9 3.050382 1_555
Al79 Dy5 3.320868 1_555
Al80 Nb4 2.743475 1_555
Al80 Dy6 3.050331 1_565
Al80 Dy4 3.320926 1_555
Al81 Nb4 2.743549 1_655
Al81 Dy8 3.050315 1_555
Al81 Dy2 3.320871 1_655
Al82 Nb2 2.743474 1_555
Al82 Dy4 3.050338 1_655
Al82 Al85 3.105978 1_555
Al82 Dy6 3.320925 1_555
Al83 Nb3 2.743506 1_565
Al83 Dy7 3.050413 1_555
Al83 Al84 3.106062 1_555
Al83 Dy3 3.320895 1_565
Al84 Nb3 2.743596 1_565
Al84 Dy5 3.050387 1_555
Al84 Dy1 3.320884 1_565
Al85 Nb2 2.743565 1_555
Al85 Dy2 3.050324 1_655
Al85 Dy0 3.320860 1_555
