# generated using pymatgen
data_La8Si5N14O
_symmetry_space_group_name_H-M   'P 1'
_cell_length_a   5.77478100
_cell_length_b   11.45035267
_cell_length_c   13.51545305
_cell_angle_alpha   112.19238216
_cell_angle_beta   89.98931702
_cell_angle_gamma   90.87841921
_symmetry_Int_Tables_number   1
_chemical_formula_structural   La8Si5N14O
_chemical_formula_sum   'La16 Si10 N28 O2'
_cell_volume   827.37012942
_cell_formula_units_Z   2
loop_
 _symmetry_equiv_pos_site_id
 _symmetry_equiv_pos_as_xyz
  1  'x, y, z'
loop_
 _atom_site_type_symbol
 _atom_site_label
 _atom_site_symmetry_multiplicity
 _atom_site_fract_x
 _atom_site_fract_y
 _atom_site_fract_z
 _atom_site_occupancy
  La  La0  1  0.75796500  0.78876600  0.79911600  1
  La  La1  1  0.24203500  0.21123400  0.20088400  1
  La  La2  1  0.31799200  0.89423300  0.58472100  1
  La  La3  1  0.68200800  0.10576700  0.41527900  1
  La  La4  1  0.76254600  0.41851000  0.67168200  1
  La  La5  1  0.23745400  0.58149000  0.32831800  1
  La  La6  1  0.75314300  0.61315700  0.51475700  1
  La  La7  1  0.24685700  0.38684300  0.48524300  1
  La  La8  1  0.20291400  0.31561900  0.95965900  1
  La  La9  1  0.79708600  0.68438100  0.04034100  1
  La  La10  1  0.25855500  0.58342800  0.84322200  1
  La  La11  1  0.74144500  0.41657200  0.15677800  1
  La  La12  1  0.80513300  0.09863000  0.72197700  1
  La  La13  1  0.19486700  0.90137000  0.27802300  1
  La  La14  1  0.25497400  0.00248400  0.90462600  1
  La  La15  1  0.74502600  0.99751600  0.09537400  1
  Si  Si0  1  0.66773800  0.40667400  0.89278500  1
  Si  Si1  1  0.33226200  0.59332600  0.10721500  1
  Si  Si2  1  0.26690400  0.66373300  0.65039900  1
  Si  Si3  1  0.73309600  0.33626700  0.34960100  1
  Si  Si4  1  0.80946400  0.87258800  0.48030500  1
  Si  Si5  1  0.19053600  0.12741200  0.51969500  1
  Si  Si6  1  0.30891800  0.22176800  0.70592700  1
  Si  Si7  1  0.69108200  0.77823200  0.29407300  1
  Si  Si8  1  0.73482500  0.16532100  0.96712300  1
  Si  Si9  1  0.26517500  0.83467900  0.03287700  1
  N  N0  1  0.88758500  0.49751100  0.86957100  1
  N  N1  1  0.11241500  0.50248900  0.13042900  1
  N  N2  1  0.45889900  0.12229400  0.58933300  1
  N  N3  1  0.54110100  0.87770600  0.41066700  1
  N  N4  1  0.91227400  0.74181300  0.37048300  1
  N  N5  1  0.08772600  0.25818700  0.62951700  1
  N  N6  1  0.46322000  0.35449800  0.78746300  1
  N  N7  1  0.53678000  0.64550200  0.21253700  1
  N  N8  1  0.48461900  0.19920900  0.04403000  1
  N  N9  1  0.51538100  0.80079100  0.95597000  1
  N  N10  1  0.72557200  0.01649600  0.86567500  1
  N  N11  1  0.27442800  0.98350400  0.13432500  1
  N  N12  1  0.77998500  0.28111000  0.91418500  1
  N  N13  1  0.22001500  0.71889000  0.08581500  1
  N  N14  1  0.50000000  0.50000000  0.00000000  1
  N  N15  1  0.21518100  0.12312000  0.77141000  1
  N  N16  1  0.78481900  0.87688000  0.22859000  1
  N  N17  1  0.75916300  0.85477000  0.59977300  1
  N  N18  1  0.24083700  0.14523000  0.40022700  1
  N  N19  1  0.97702900  0.17967300  0.04892800  1
  N  N20  1  0.02297100  0.82032700  0.95107200  1
  N  N21  1  0.00000000  0.00000000  0.50000000  1
  N  N22  1  0.01226700  0.58986700  0.66378200  1
  N  N23  1  0.98773300  0.41013300  0.33621800  1
  N  N24  1  0.69861100  0.34533000  0.47972500  1
  N  N25  1  0.30138900  0.65467000  0.52027500  1
  N  N26  1  0.49796300  0.59201800  0.68469800  1
  N  N27  1  0.50203700  0.40798200  0.31530200  1
  O  O0  1  0.26807800  0.81935600  0.73365000  1
  O  O1  1  0.73192200  0.18064400  0.26635000  1
loop_
_geom_bond_atom_site_label_1
_geom_bond_atom_site_label_2
_geom_bond_distance
_geom_bond_site_symmetry_2
La0 N10 2.426231 1_565
La0 N20 2.472654 1_655
La0 N9 2.501977 1_555
La0 N26 2.643175 1_555
La0 N22 2.764720 1_655
La0 O0 3.028892 1_555
La0 N17 3.060728 1_555
La0 O0 3.128060 1_655
La1 N11 2.426231 1_545
La1 N19 2.472654 1_455
La1 N8 2.501977 1_555
La1 N27 2.643175 1_555
La1 N23 2.764720 1_455
La1 O1 3.028892 1_555
La1 N18 3.060728 1_555
La1 O1 3.128060 1_455
La2 O0 2.483062 1_555
La2 N25 2.545463 1_555
La2 N17 2.615550 1_555
La2 N3 2.626732 1_555
La2 N21 2.695643 1_565
La2 N2 2.701334 1_565
La2 N15 2.939271 1_565
La3 O1 2.483062 1_555
La3 N24 2.545463 1_555
La3 N18 2.615550 1_555
La3 N2 2.626732 1_555
La3 N21 2.695643 1_655
La3 N3 2.701334 1_545
La3 N16 2.939271 1_545
La4 N24 2.432673 1_555
La4 N22 2.451996 1_655
La4 N26 2.478203 1_555
La4 N5 2.556569 1_655
La4 N0 2.577974 1_555
La4 N6 2.607755 1_555
La5 N25 2.432673 1_555
La5 N23 2.451996 1_455
La5 N27 2.478203 1_555
La5 N4 2.556569 1_455
La5 N1 2.577974 1_555
La5 N7 2.607755 1_555
La6 N17 2.563386 1_555
La6 N22 2.605028 1_655
La6 N25 2.654885 1_555
La6 N26 2.813062 1_555
La6 N24 2.932853 1_555
La6 N23 2.986612 1_555
La6 N4 2.990773 1_555
La6 N27 3.162551 1_555
La6 N25 3.190961 1_655
La7 N18 2.563386 1_555
La7 N23 2.605028 1_455
La7 N24 2.654885 1_555
La7 N27 2.813062 1_555
La7 N25 2.932853 1_555
La7 N22 2.986612 1_555
La7 N5 2.990773 1_555
La7 N26 3.162551 1_555
La7 N24 3.190961 1_455
La8 N12 2.507253 1_455
La8 N1 2.545908 1_556
La8 N14 2.591828 1_556
La8 N19 2.633676 1_456
La8 N8 2.634173 1_556
La8 N15 2.665513 1_555
La9 N13 2.507253 1_655
La9 N0 2.545908 1_554
La9 N14 2.591828 1_555
La9 N20 2.633676 1_654
La9 N9 2.634173 1_554
La9 N16 2.665513 1_555
La10 N0 2.425639 1_455
La10 N26 2.581742 1_555
La10 N6 2.727362 1_555
La10 N9 2.781871 1_555
La10 N22 2.837163 1_555
La10 N20 2.908445 1_555
La10 N14 2.986222 1_556
La10 N13 3.061712 1_556
La11 N1 2.425639 1_655
La11 N27 2.581742 1_555
La11 N7 2.727362 1_555
La11 N8 2.781871 1_555
La11 N23 2.837163 1_555
La11 N19 2.908445 1_555
La11 N14 2.986222 1_555
La11 N12 3.061712 1_554
La12 N15 2.443529 1_655
La12 N10 2.496741 1_555
La12 N12 2.654069 1_555
La12 N17 2.662465 1_545
La12 N2 2.769470 1_555
La12 N21 3.003437 1_655
La12 N5 3.032349 1_655
La13 N16 2.443529 1_455
La13 N11 2.496741 1_555
La13 N13 2.654069 1_555
La13 N18 2.662465 1_565
La13 N3 2.769470 1_555
La13 N21 3.003437 1_565
La13 N4 3.032349 1_455
La14 O0 2.467153 1_545
La14 N8 2.661920 1_556
La14 N15 2.662942 1_555
La14 N20 2.728102 1_545
La14 N19 2.757855 1_456
La14 N10 2.781751 1_555
La15 O1 2.467153 1_565
La15 N9 2.661920 1_554
La15 N16 2.662942 1_555
La15 N19 2.728102 1_565
La15 N20 2.757855 1_654
La15 N11 2.781751 1_555
N0 Si0 1.731464 1_555
N1 Si1 1.731464 1_555
N2 Si6 1.790119 1_555
N2 Si5 1.826459 1_555
N3 Si7 1.790119 1_555
N3 Si4 1.826459 1_555
N4 Si4 1.773632 1_555
N4 Si7 1.792802 1_555
N5 Si5 1.773632 1_555
N5 Si6 1.792802 1_555
N6 Si6 1.735459 1_555
N6 Si0 1.764830 1_555
N7 Si7 1.735459 1_555
N7 Si1 1.764830 1_555
N8 Si8 1.740868 1_554
N9 Si9 1.740868 1_556
N10 Si8 1.737502 1_555
N11 Si9 1.737502 1_555
N12 Si0 1.706967 1_555
N12 Si8 1.744612 1_555
N13 Si1 1.706967 1_555
N13 Si9 1.744612 1_555
N14 Si1 1.743969 1_555
N14 Si0 1.743969 1_554
N15 Si6 1.757404 1_555
N16 Si7 1.757404 1_555
N17 Si4 1.726271 1_555
N18 Si5 1.726271 1_555
N19 Si8 1.749854 1_554
N20 Si9 1.749854 1_556
N21 Si5 1.751420 1_555
N21 Si4 1.751420 1_445
N22 Si2 1.728499 1_555
N23 Si3 1.728499 1_555
N24 Si3 1.733791 1_555
N25 Si2 1.733791 1_555
N26 Si2 1.729448 1_555
N27 Si3 1.729448 1_555
O0 Si2 1.710660 1_555
O1 Si3 1.710660 1_555
