# generated using pymatgen
data_Ba10Er5Cu15O34
_symmetry_space_group_name_H-M   'P 1'
_cell_length_a   8.62276500
_cell_length_b   8.75698465
_cell_length_c   12.53240570
_cell_angle_alpha   106.37783221
_cell_angle_beta   98.23103807
_cell_angle_gamma   88.83387604
_symmetry_Int_Tables_number   1
_chemical_formula_structural   Ba10Er5Cu15O34
_chemical_formula_sum   'Ba10 Er5 Cu15 O34'
_cell_volume   898.36392760
_cell_formula_units_Z   1
loop_
 _symmetry_equiv_pos_site_id
 _symmetry_equiv_pos_as_xyz
  1  'x, y, z'
loop_
 _atom_site_type_symbol
 _atom_site_label
 _atom_site_symmetry_multiplicity
 _atom_site_fract_x
 _atom_site_fract_y
 _atom_site_fract_z
 _atom_site_occupancy
  Ba  Ba0  1  0.03634900  0.07255900  0.18168500  1
  Ba  Ba1  1  0.24497900  0.47245000  0.18897800  1
  Ba  Ba2  1  0.43552200  0.87305200  0.18167600  1
  Ba  Ba3  1  0.63689800  0.27211300  0.18143500  1
  Ba  Ba4  1  0.83072300  0.67878800  0.18893700  1
  Ba  Ba5  1  0.16927700  0.32121200  0.81106300  1
  Ba  Ba6  1  0.36310200  0.72788700  0.81856500  1
  Ba  Ba7  1  0.56447800  0.12694800  0.81832400  1
  Ba  Ba8  1  0.75502100  0.52755000  0.81102200  1
  Ba  Ba9  1  0.96365100  0.92744100  0.81831500  1
  Er  Er0  1  0.90050900  0.80063700  0.50130000  1
  Er  Er1  1  0.69967200  0.39941300  0.49874200  1
  Er  Er2  1  0.50000000  0.00000000  0.50000000  1
  Er  Er3  1  0.30032800  0.60058700  0.50125800  1
  Er  Er4  1  0.09949100  0.19936300  0.49870000  1
  Cu  Cu0  1  0.17178500  0.84345100  0.36028100  1
  Cu  Cu1  1  0.97253000  0.44486000  0.36009500  1
  Cu  Cu2  1  0.77144600  0.04432400  0.35873100  1
  Cu  Cu3  1  0.57190300  0.64390800  0.35936800  1
  Cu  Cu4  1  0.37174000  0.24242200  0.35863500  1
  Cu  Cu5  1  0.22855400  0.95567600  0.64126900  1
  Cu  Cu6  1  0.02747000  0.55514000  0.63990500  1
  Cu  Cu7  1  0.82821500  0.15654900  0.63971900  1
  Cu  Cu8  1  0.62826000  0.75757800  0.64136500  1
  Cu  Cu9  1  0.42809700  0.35609200  0.64063200  1
  Cu  Cu10  1  0.10604000  0.71230300  0.00027000  1
  Cu  Cu11  1  0.89396000  0.28769700  0.99973000  1
  Cu  Cu12  1  0.69853200  0.89540800  0.00006900  1
  Cu  Cu13  1  0.50000000  0.50000000  0.00000000  1
  Cu  Cu14  1  0.30146800  0.10459200  0.99993100  1
  O  O0  1  0.12235700  0.74659300  0.15154000  1
  O  O1  1  0.93852200  0.37489700  0.15208500  1
  O  O2  1  0.73027400  0.96277900  0.15914200  1
  O  O3  1  0.53186600  0.56368900  0.15915500  1
  O  O4  1  0.33336000  0.16426600  0.15915000  1
  O  O5  1  0.26972600  0.03722100  0.84085800  1
  O  O6  1  0.06147800  0.62510300  0.84791500  1
  O  O7  1  0.87764300  0.25340700  0.84846000  1
  O  O8  1  0.66664000  0.83573400  0.84085000  1
  O  O9  1  0.46813400  0.43631100  0.84084500  1
  O  O10  1  0.97623600  0.95307200  0.38231600  1
  O  O11  1  0.77677200  0.55290000  0.38237700  1
  O  O12  1  0.57656400  0.15322100  0.38278700  1
  O  O13  1  0.37653200  0.75289000  0.38241300  1
  O  O14  1  0.17633200  0.35293100  0.38237100  1
  O  O15  1  0.02376400  0.04692800  0.61768400  1
  O  O16  1  0.82366800  0.64706900  0.61762900  1
  O  O17  1  0.62346800  0.24711000  0.61758700  1
  O  O18  1  0.42343600  0.84677900  0.61721300  1
  O  O19  1  0.22322800  0.44710000  0.61762300  1
  O  O20  1  0.07645900  0.65277800  0.38249800  1
  O  O21  1  0.87645100  0.25275400  0.37931800  1
  O  O22  1  0.67642800  0.85218700  0.38079000  1
  O  O23  1  0.47570800  0.45240900  0.38060100  1
  O  O24  1  0.27554400  0.05121600  0.38000500  1
  O  O25  1  0.12354900  0.74724600  0.62068200  1
  O  O26  1  0.92354100  0.34722200  0.61750200  1
  O  O27  1  0.72445600  0.94878400  0.61999500  1
  O  O28  1  0.52429200  0.54759100  0.61939900  1
  O  O29  1  0.32357200  0.14781300  0.61921000  1
  O  O30  1  0.20523900  0.91155400  0.99998800  1
  O  O31  1  0.39934600  0.30683900  0.00014800  1
  O  O32  1  0.60065400  0.69316100  0.99985200  1
  O  O33  1  0.79476100  0.08844600  0.00001200  1
loop_
_geom_bond_atom_site_label_1
_geom_bond_atom_site_label_2
_geom_bond_distance
_geom_bond_site_symmetry_2
Ba0 O4 2.775323 1_555
Ba0 O2 2.775977 1_445
Ba0 O0 2.868222 1_545
Ba0 O1 2.869174 1_455
Ba0 O30 2.889508 1_544
Ba0 O33 2.889897 1_455
Ba0 O21 3.034924 1_455
Ba0 O24 3.040518 1_555
Ba0 O10 3.092669 1_445
Ba0 O14 3.095102 1_555
Ba1 O3 2.722339 1_555
Ba1 O4 2.726310 1_555
Ba1 O1 2.728681 1_455
Ba1 O0 2.736996 1_555
Ba1 O31 2.891917 1_555
Ba1 O23 2.934555 1_555
Ba1 O13 3.027074 1_555
Ba1 O14 3.030934 1_555
Ba1 O20 3.040231 1_555
Ba2 O2 2.751125 1_555
Ba2 O4 2.757238 1_565
Ba2 O3 2.766459 1_555
Ba2 O0 2.873098 1_555
Ba2 O30 2.890044 1_554
Ba2 O32 2.918028 1_554
Ba2 O24 3.036807 1_565
Ba2 O22 3.054967 1_555
Ba2 O13 3.094487 1_555
Ba2 O12 3.099585 1_565
Ba3 O4 2.750079 1_555
Ba3 O2 2.759159 1_545
Ba3 O3 2.766442 1_555
Ba3 O1 2.875009 1_555
Ba3 O33 2.888618 1_555
Ba3 O31 2.912352 1_555
Ba3 O21 3.033433 1_555
Ba3 O23 3.055549 1_555
Ba3 O11 3.098620 1_555
Ba3 O12 3.098683 1_555
Ba4 O3 2.722898 1_555
Ba4 O2 2.723553 1_555
Ba4 O0 2.729663 1_655
Ba4 O1 2.736470 1_555
Ba4 O32 2.894622 1_554
Ba4 O22 2.937965 1_555
Ba4 O11 3.026501 1_555
Ba4 O10 3.030860 1_555
Ba4 O20 3.040780 1_655
Ba5 O9 2.722898 1_555
Ba5 O5 2.723553 1_555
Ba5 O7 2.729663 1_455
Ba5 O6 2.736470 1_555
Ba5 O31 2.894622 1_556
Ba5 O29 2.937965 1_555
Ba5 O19 3.026501 1_555
Ba5 O15 3.030860 1_555
Ba5 O26 3.040780 1_455
Ba6 O8 2.750079 1_555
Ba6 O5 2.759159 1_565
Ba6 O9 2.766442 1_555
Ba6 O6 2.875009 1_555
Ba6 O30 2.888618 1_555
Ba6 O32 2.912352 1_555
Ba6 O25 3.033433 1_555
Ba6 O28 3.055549 1_555
Ba6 O19 3.098620 1_555
Ba6 O18 3.098683 1_555
Ba7 O5 2.751125 1_555
Ba7 O8 2.757238 1_545
Ba7 O9 2.766459 1_555
Ba7 O7 2.873098 1_555
Ba7 O33 2.890044 1_556
Ba7 O31 2.918028 1_556
Ba7 O27 3.036807 1_545
Ba7 O29 3.054967 1_555
Ba7 O17 3.094487 1_555
Ba7 O18 3.099585 1_545
Ba8 O9 2.722339 1_555
Ba8 O8 2.726310 1_555
Ba8 O6 2.728681 1_655
Ba8 O7 2.736996 1_555
Ba8 O32 2.891917 1_555
Ba8 O28 2.934555 1_555
Ba8 O17 3.027074 1_555
Ba8 O16 3.030934 1_555
Ba8 O26 3.040231 1_555
Ba9 O8 2.775323 1_555
Ba9 O5 2.775977 1_665
Ba9 O7 2.868222 1_565
Ba9 O6 2.869174 1_655
Ba9 O33 2.889508 1_566
Ba9 O30 2.889897 1_655
Ba9 O25 3.034924 1_655
Ba9 O27 3.040518 1_555
Ba9 O15 3.092669 1_665
Ba9 O16 3.095102 1_555
Er0 O20 2.382172 1_655
Er0 O27 2.382948 1_555
Er0 O25 2.385334 1_655
Er0 O22 2.394063 1_555
Er0 O15 2.404997 1_665
Er0 O16 2.406530 1_555
Er0 O10 2.422520 1_555
Er0 O11 2.425199 1_555
Er1 O23 2.381035 1_555
Er1 O26 2.382319 1_555
Er1 O21 2.388003 1_555
Er1 O28 2.392815 1_555
Er1 O12 2.402330 1_555
Er1 O11 2.407206 1_555
Er1 O17 2.421787 1_555
Er1 O16 2.425374 1_555
Er2 O22 2.387859 1_545
Er2 O29 2.387859 1_555
Er2 O27 2.391691 1_545
Er2 O24 2.391691 1_555
Er2 O12 2.412314 1_555
Er2 O18 2.412314 1_545
Er2 O17 2.415352 1_555
Er2 O13 2.415352 1_545
Er3 O28 2.381035 1_555
Er3 O20 2.382319 1_555
Er3 O25 2.388003 1_555
Er3 O23 2.392815 1_555
Er3 O18 2.402330 1_555
Er3 O19 2.407206 1_555
Er3 O13 2.421787 1_555
Er3 O14 2.425374 1_555
Er4 O26 2.382172 1_455
Er4 O24 2.382948 1_555
Er4 O21 2.385334 1_455
Er4 O29 2.394063 1_555
Er4 O10 2.404997 1_445
Er4 O14 2.406530 1_555
Er4 O15 2.422520 1_555
Er4 O19 2.425199 1_555
Cu0 O13 1.936397 1_555
Cu0 O10 1.938786 1_455
Cu0 O24 1.980171 1_565
Cu0 O20 1.981087 1_555
Cu0 O0 2.487733 1_555
Cu1 O14 1.934661 1_655
Cu1 O11 1.934767 1_555
Cu1 O20 1.975622 1_655
Cu1 O21 1.979104 1_555
Cu1 O1 2.478878 1_555
Cu2 O12 1.934369 1_555
Cu2 O10 1.941772 1_545
Cu2 O21 1.988117 1_555
Cu2 O22 1.990459 1_545
Cu2 O2 2.375157 1_545
Cu3 O13 1.936658 1_555
Cu3 O11 1.940459 1_555
Cu3 O22 1.983051 1_555
Cu3 O23 1.985565 1_555
Cu3 O3 2.382504 1_555
Cu4 O12 1.935247 1_555
Cu4 O14 1.943931 1_555
Cu4 O24 1.984026 1_555
Cu4 O23 1.992943 1_555
Cu4 O4 2.373914 1_555
Cu5 O18 1.934369 1_555
Cu5 O15 1.941772 1_565
Cu5 O25 1.988117 1_555
Cu5 O29 1.990459 1_565
Cu5 O5 2.375157 1_565
Cu6 O16 1.934661 1_455
Cu6 O19 1.934767 1_555
Cu6 O26 1.975622 1_455
Cu6 O25 1.979104 1_555
Cu6 O6 2.478878 1_555
Cu7 O17 1.936397 1_555
Cu7 O15 1.938786 1_655
Cu7 O27 1.980171 1_545
Cu7 O26 1.981087 1_555
Cu7 O7 2.487733 1_555
Cu8 O18 1.935247 1_555
Cu8 O16 1.943931 1_555
Cu8 O27 1.984026 1_555
Cu8 O28 1.992943 1_555
Cu8 O8 2.373914 1_555
Cu9 O17 1.936658 1_555
Cu9 O19 1.940459 1_555
Cu9 O29 1.983051 1_555
Cu9 O28 1.985565 1_555
Cu9 O9 2.382504 1_555
Cu10 O0 1.818860 1_555
Cu10 O6 1.831964 1_554
Cu10 O30 1.959903 1_554
Cu11 O7 1.818860 1_555
Cu11 O1 1.831964 1_556
Cu11 O33 1.959903 1_556
Cu12 O2 1.893238 1_555
Cu12 O8 1.894994 1_554
Cu12 O33 1.898421 1_565
Cu12 O32 1.976481 1_554
Cu13 O3 1.893919 1_555
Cu13 O9 1.893919 1_554
Cu13 O31 1.917411 1_555
Cu13 O32 1.917411 1_554
Cu14 O5 1.893238 1_555
Cu14 O4 1.894994 1_556
Cu14 O30 1.898421 1_545
Cu14 O31 1.976481 1_556
