# generated using pymatgen
data_BaDyCo4O7
_symmetry_space_group_name_H-M   'P 1'
_cell_length_a   6.29527748
_cell_length_b   6.29540822
_cell_length_c   10.25202527
_cell_angle_alpha   90.00000000
_cell_angle_beta   90.00000000
_cell_angle_gamma   120.00074478
_symmetry_Int_Tables_number   1
_chemical_formula_structural   BaDyCo4O7
_chemical_formula_sum   'Ba2 Dy2 Co8 O14'
_cell_volume   351.86479310
_cell_formula_units_Z   2
loop_
 _symmetry_equiv_pos_site_id
 _symmetry_equiv_pos_as_xyz
  1  'x, y, z'
loop_
 _atom_site_type_symbol
 _atom_site_label
 _atom_site_symmetry_multiplicity
 _atom_site_fract_x
 _atom_site_fract_y
 _atom_site_fract_z
 _atom_site_occupancy
  Ba  Ba0  1  0.33334344  0.66667231  0.98809496  1
  Ba  Ba1  1  0.66665656  0.33332769  0.48809496  1
  Dy  Dy0  1  0.33332787  0.66666483  0.37614211  1
  Dy  Dy1  1  0.66667213  0.33333517  0.87614211  1
  Co  Co0  1  0.83083943  0.16913436  0.18616016  1
  Co  Co1  1  0.66172200  0.83086123  0.68617105  1
  Co  Co2  1  0.16916668  0.33832088  0.68615910  1
  Co  Co3  1  0.83083332  0.66167912  0.18615910  1
  Co  Co4  1  0.33827800  0.16913877  0.18617105  1
  Co  Co5  1  0.16916057  0.83086564  0.68616016  1
  Co  Co6  1  0.00001616  0.00000785  0.93380316  1
  Co  Co7  1  -0.00001616  -0.00000785  0.43380316  1
  O  O0  1  0.83606538  0.16394528  0.00223787  1
  O  O1  1  0.67210339  0.83605883  0.50224903  1
  O  O2  1  0.16393143  0.32787898  0.50223258  1
  O  O3  1  0.83606857  0.67212102  0.00223258  1
  O  O4  1  0.32789661  0.16394117  0.00224903  1
  O  O5  1  0.16393462  0.83605472  0.50223787  1
  O  O6  1  0.00002001  0.00001041  0.74641991  1
  O  O7  1  -0.00002001  -0.00001041  0.24641991  1
  O  O8  1  0.50691828  0.49304103  0.25681151  1
  O  O9  1  0.01387616  0.50695775  0.75680601  1
  O  O10  1  0.49306537  0.98612296  0.75681156  1
  O  O11  1  0.50693463  0.01387704  0.25681156  1
  O  O12  1  0.49308172  0.50695897  0.75681151  1
  O  O13  1  0.98612384  0.49304225  0.25680601  1
loop_
_geom_bond_atom_site_label_1
_geom_bond_atom_site_label_2
_geom_bond_distance
_geom_bond_site_symmetry_2
Ba0 O10 2.942021 1_555
Ba0 O12 2.942026 1_555
Ba0 O9 2.942099 1_555
Ba0 O0 3.151097 1_566
Ba0 O3 3.151110 1_456
Ba0 O3 3.151118 1_556
Ba0 O0 3.151130 1_456
Ba0 O4 3.151138 1_566
Ba0 O4 3.151236 1_556
Ba0 O13 3.342526 1_456
Ba0 O11 3.342550 1_566
Ba0 O8 3.342554 1_556
Ba1 O11 2.942021 1_555
Ba1 O8 2.942026 1_555
Ba1 O13 2.942099 1_555
Ba1 O5 3.151097 1_545
Ba1 O2 3.151110 1_655
Ba1 O2 3.151118 1_555
Ba1 O5 3.151130 1_655
Ba1 O1 3.151138 1_545
Ba1 O1 3.151236 1_555
Ba1 O9 3.342526 1_655
Ba1 O10 3.342550 1_545
Ba1 O12 3.342554 1_555
Dy0 O13 2.253854 1_455
Dy0 O11 2.253893 1_565
Dy0 O8 2.253904 1_555
Dy0 O2 2.254460 1_555
Dy0 O1 2.254479 1_555
Dy0 O5 2.254480 1_555
Dy1 O9 2.253854 1_655
Dy1 O10 2.253893 1_545
Dy1 O12 2.253904 1_555
Dy1 O3 2.254460 1_556
Dy1 O4 2.254479 1_556
Dy1 O0 2.254480 1_556
Co0 O0 1.886431 1_555
Co0 O11 1.909117 1_555
Co0 O13 1.909142 1_555
Co0 O7 1.945032 1_655
Co1 O1 1.886422 1_555
Co1 O12 1.909093 1_555
Co1 O10 1.909177 1_555
Co1 O6 1.945025 1_665
Co2 O2 1.886479 1_555
Co2 O12 1.909170 1_555
Co2 O9 1.909246 1_555
Co2 O6 1.945164 1_555
Co3 O3 1.886479 1_555
Co3 O8 1.909170 1_555
Co3 O13 1.909246 1_555
Co3 O7 1.945164 1_665
Co4 O4 1.886422 1_555
Co4 O8 1.909093 1_555
Co4 O11 1.909177 1_555
Co4 O7 1.945025 1_555
Co5 O5 1.886431 1_555
Co5 O10 1.909117 1_555
Co5 O9 1.909142 1_555
Co5 O6 1.945032 1_565
Co6 O4 1.920345 1_556
Co6 O3 1.920350 1_446
Co6 O0 1.920378 1_456
Co6 O6 1.921058 1_555
Co7 O1 1.920345 1_445
Co7 O2 1.920350 1_555
Co7 O5 1.920378 1_545
Co7 O7 1.921058 1_555
