# generated using pymatgen
data_NiAg(PO3)3
_symmetry_space_group_name_H-M   'P 1'
_cell_length_a   10.04930910
_cell_length_b   10.86341985
_cell_length_c   14.06243456
_cell_angle_alpha   90.00000000
_cell_angle_beta   90.00000000
_cell_angle_gamma   90.00000000
_symmetry_Int_Tables_number   1
_chemical_formula_structural   NiAg(PO3)3
_chemical_formula_sum   'Ni8 Ag8 P24 O72'
_cell_volume   1535.19406780
_cell_formula_units_Z   8
loop_
 _symmetry_equiv_pos_site_id
 _symmetry_equiv_pos_as_xyz
  1  'x, y, z'
loop_
 _atom_site_type_symbol
 _atom_site_label
 _atom_site_symmetry_multiplicity
 _atom_site_fract_x
 _atom_site_fract_y
 _atom_site_fract_z
 _atom_site_occupancy
  Ni  Ni0  1  0.53088025  0.50000000  0.75000000  1
  Ni  Ni1  1  0.46911975  0.50000000  0.25000000  1
  Ni  Ni2  1  0.96911975  0.50000000  0.25000000  1
  Ni  Ni3  1  0.03088025  0.50000000  0.75000000  1
  Ni  Ni4  1  -0.00000000  0.00000000  0.00000000  1
  Ni  Ni5  1  -0.00000000  0.00000000  0.50000000  1
  Ni  Ni6  1  0.50000000  0.00000000  -0.00000000  1
  Ni  Ni7  1  0.50000000  0.00000000  0.50000000  1
  Ag  Ag0  1  0.97580522  0.75149063  0.62309452  1
  Ag  Ag1  1  0.02419478  0.24850937  0.37690548  1
  Ag  Ag2  1  0.97580522  0.24850937  0.87690548  1
  Ag  Ag3  1  0.52419478  0.75149063  0.37690548  1
  Ag  Ag4  1  0.02419478  0.75149063  0.12309452  1
  Ag  Ag5  1  0.47580522  0.24850937  0.62309452  1
  Ag  Ag6  1  0.52419478  0.24850937  0.12309452  1
  Ag  Ag7  1  0.47580522  0.75149063  0.87690548  1
  P  P0  1  0.78564960  0.53017610  0.89849199  1
  P  P1  1  0.21435040  0.46982390  0.10150801  1
  P  P2  1  0.78564960  0.46982390  0.60150801  1
  P  P3  1  0.71435040  0.53017610  0.10150801  1
  P  P4  1  0.21435040  0.53017610  0.39849199  1
  P  P5  1  0.28564960  0.46982390  0.89849199  1
  P  P6  1  0.71435040  0.46982390  0.39849199  1
  P  P7  1  0.28564960  0.53017610  0.60150801  1
  P  P8  1  0.76196444  0.95420174  0.85175974  1
  P  P9  1  0.23803556  0.04579826  0.14824026  1
  P  P10  1  0.76196444  0.04579826  0.64824026  1
  P  P11  1  0.73803556  0.95420174  0.14824026  1
  P  P12  1  0.23803556  0.95420174  0.35175974  1
  P  P13  1  0.26196444  0.04579826  0.85175974  1
  P  P14  1  0.73803556  0.04579826  0.35175974  1
  P  P15  1  0.26196444  0.95420174  0.64824026  1
  P  P16  1  0.95108454  0.74922112  0.87349820  1
  P  P17  1  0.04891546  0.25077888  0.12650180  1
  P  P18  1  0.95108454  0.25077888  0.62650180  1
  P  P19  1  0.54891546  0.74922112  0.12650180  1
  P  P20  1  0.04891546  0.74922112  0.37349820  1
  P  P21  1  0.45108454  0.25077888  0.87349820  1
  P  P22  1  0.54891546  0.25077888  0.37349820  1
  P  P23  1  0.45108454  0.74922112  0.62650180  1
  O  O0  1  0.66081548  0.56748115  0.84863731  1
  O  O1  1  0.33918452  0.43251885  0.15136269  1
  O  O2  1  0.66081548  0.43251885  0.65136269  1
  O  O3  1  0.83918452  0.56748115  0.15136269  1
  O  O4  1  0.33918452  0.56748115  0.34863731  1
  O  O5  1  0.16081548  0.43251885  0.84863731  1
  O  O6  1  0.83918452  0.43251885  0.34863731  1
  O  O7  1  0.16081548  0.56748115  0.65136269  1
  O  O8  1  0.97481775  0.82616338  0.44472729  1
  O  O9  1  0.02518225  0.17383662  0.55527271  1
  O  O10  1  0.97481775  0.17383662  0.05527271  1
  O  O11  1  0.52518225  0.82616338  0.55527271  1
  O  O12  1  0.02518225  0.82616338  0.94472729  1
  O  O13  1  0.47481775  0.17383662  0.44472729  1
  O  O14  1  0.52518225  0.17383662  0.94472729  1
  O  O15  1  0.47481775  0.82616338  0.05527271  1
  O  O16  1  0.75000000  0.46965383  0.00000000  1
  O  O17  1  0.25000000  0.53034617  -0.00000000  1
  O  O18  1  0.75000000  0.53034617  0.50000000  1
  O  O19  1  0.25000000  0.46965383  0.50000000  1
  O  O20  1  0.85980044  0.95616410  0.60596619  1
  O  O21  1  0.14019956  0.04383590  0.39403381  1
  O  O22  1  0.85980044  0.04383590  0.89403381  1
  O  O23  1  0.64019956  0.95616410  0.39403381  1
  O  O24  1  0.14019956  0.95616410  0.10596619  1
  O  O25  1  0.35980044  0.04383590  0.60596619  1
  O  O26  1  0.64019956  0.04383590  0.10596619  1
  O  O27  1  0.35980044  0.95616410  0.89403381  1
  O  O28  1  0.86345548  0.65255573  0.93416849  1
  O  O29  1  0.13654452  0.34744427  0.06583151  1
  O  O30  1  0.86345548  0.34744427  0.56583151  1
  O  O31  1  0.63654452  0.65255573  0.06583151  1
  O  O32  1  0.13654452  0.65255573  0.43416849  1
  O  O33  1  0.36345548  0.34744427  0.93416849  1
  O  O34  1  0.63654452  0.34744427  0.43416849  1
  O  O35  1  0.36345548  0.65255573  0.56583151  1
  O  O36  1  0.64082533  0.91784858  0.90791886  1
  O  O37  1  0.35917467  0.08215142  0.09208114  1
  O  O38  1  0.64082533  0.08215142  0.59208114  1
  O  O39  1  0.85917467  0.91784858  0.09208114  1
  O  O40  1  0.35917467  0.91784858  0.40791886  1
  O  O41  1  0.14082533  0.08215142  0.90791886  1
  O  O42  1  0.85917467  0.08215142  0.40791886  1
  O  O43  1  0.14082533  0.91784858  0.59208114  1
  O  O44  1  0.88197893  0.55491197  0.65102713  1
  O  O45  1  0.11802107  0.44508803  0.34897287  1
  O  O46  1  0.88197893  0.44508803  0.84897287  1
  O  O47  1  0.61802107  0.55491197  0.34897287  1
  O  O48  1  0.11802107  0.55491197  0.15102713  1
  O  O49  1  0.38197893  0.44508803  0.65102713  1
  O  O50  1  0.61802107  0.44508803  0.15102713  1
  O  O51  1  0.38197893  0.55491197  0.84897287  1
  O  O52  1  0.83995196  0.83057544  0.81903911  1
  O  O53  1  0.16004804  0.16942456  0.18096089  1
  O  O54  1  0.83995196  0.16942456  0.68096089  1
  O  O55  1  0.66004804  0.83057544  0.18096089  1
  O  O56  1  0.16004804  0.83057544  0.31903911  1
  O  O57  1  0.33995196  0.16942456  0.81903911  1
  O  O58  1  0.66004804  0.16942456  0.31903911  1
  O  O59  1  0.33995196  0.83057544  0.68096089  1
  O  O60  1  0.70868408  0.00000000  0.75000000  1
  O  O61  1  0.29131592  0.00000000  0.25000000  1
  O  O62  1  0.79131592  0.00000000  0.25000000  1
  O  O63  1  0.20868408  0.00000000  0.75000000  1
  O  O64  1  0.52663101  0.68177008  0.70227809  1
  O  O65  1  0.47336899  0.31822992  0.29772191  1
  O  O66  1  0.52663101  0.31822992  0.79772191  1
  O  O67  1  0.97336899  0.68177008  0.29772191  1
  O  O68  1  0.47336899  0.68177008  0.20227809  1
  O  O69  1  0.02663101  0.31822992  0.70227809  1
  O  O70  1  0.97336899  0.31822992  0.20227809  1
  O  O71  1  0.02663101  0.68177008  0.79772191  1
loop_
_geom_bond_atom_site_label_1
_geom_bond_atom_site_label_2
_geom_bond_distance
_geom_bond_site_symmetry_2
Ni0 O0 2.041176 1_555
Ni0 O2 2.041176 1_555
Ni0 O66 2.086001 1_555
Ni0 O64 2.086001 1_555
Ni0 O49 2.128858 1_555
Ni0 O51 2.128858 1_555
Ni1 O1 2.041176 1_555
Ni1 O4 2.041176 1_555
Ni1 O65 2.086001 1_555
Ni1 O68 2.086001 1_555
Ni1 O50 2.128858 1_555
Ni1 O47 2.128858 1_555
Ni2 O3 2.041176 1_555
Ni2 O6 2.041176 1_555
Ni2 O70 2.086001 1_555
Ni2 O67 2.086001 1_555
Ni2 O45 2.128858 1_655
Ni2 O48 2.128858 1_655
Ni3 O7 2.041176 1_555
Ni3 O5 2.041176 1_555
Ni3 O69 2.086001 1_555
Ni3 O71 2.086001 1_555
Ni3 O46 2.128858 1_455
Ni3 O44 2.128858 1_455
Ni4 O10 2.057783 1_455
Ni4 O12 2.057783 1_544
Ni4 O22 2.105308 1_454
Ni4 O24 2.105308 1_545
Ni4 O39 2.115649 1_445
Ni4 O41 2.115649 1_554
Ni5 O8 2.057783 1_445
Ni5 O9 2.057783 1_555
Ni5 O20 2.105308 1_445
Ni5 O21 2.105308 1_555
Ni5 O42 2.115649 1_455
Ni5 O43 2.115649 1_545
Ni6 O14 2.057783 1_554
Ni6 O15 2.057783 1_545
Ni6 O27 2.105308 1_544
Ni6 O26 2.105308 1_555
Ni6 O36 2.115649 1_544
Ni6 O37 2.115649 1_555
Ni7 O11 2.057783 1_545
Ni7 O13 2.057783 1_555
Ni7 O25 2.105308 1_555
Ni7 O23 2.105308 1_545
Ni7 O40 2.115649 1_545
Ni7 O38 2.115649 1_555
Ag0 O44 2.367227 1_555
Ag0 O43 2.491249 1_655
Ag0 O20 2.522058 1_555
Ag0 O71 2.620102 1_655
Ag0 O8 2.636210 1_555
Ag0 O7 2.758737 1_655
Ag1 O45 2.367227 1_555
Ag1 O42 2.491249 1_455
Ag1 O21 2.522058 1_555
Ag1 O70 2.620102 1_455
Ag1 O9 2.636210 1_555
Ag1 O6 2.758737 1_455
Ag2 O46 2.367227 1_555
Ag2 O41 2.491249 1_655
Ag2 O22 2.522058 1_555
Ag2 O69 2.620102 1_655
Ag2 O10 2.636210 1_556
Ag2 O5 2.758737 1_655
Ag3 O47 2.367227 1_555
Ag3 O40 2.491249 1_555
Ag3 O23 2.522058 1_555
Ag3 O68 2.620102 1_555
Ag3 O11 2.636210 1_555
Ag3 O4 2.758737 1_555
Ag4 O48 2.367227 1_555
Ag4 O39 2.491249 1_455
Ag4 O24 2.522058 1_555
Ag4 O67 2.620102 1_455
Ag4 O12 2.636210 1_554
Ag4 O3 2.758737 1_455
Ag5 O49 2.367227 1_555
Ag5 O38 2.491249 1_555
Ag5 O25 2.522058 1_555
Ag5 O66 2.620102 1_555
Ag5 O13 2.636210 1_555
Ag5 O2 2.758737 1_555
Ag6 O50 2.367227 1_555
Ag6 O37 2.491249 1_555
Ag6 O26 2.522058 1_555
Ag6 O65 2.620102 1_555
Ag6 O14 2.636210 1_554
Ag6 O1 2.758737 1_555
Ag7 O51 2.367227 1_555
Ag7 O36 2.491249 1_555
Ag7 O27 2.522058 1_555
Ag7 O64 2.620102 1_555
Ag7 O15 2.636210 1_556
Ag7 O0 2.758737 1_555
O0 P0 1.493154 1_555
O1 P1 1.493154 1_555
O2 P2 1.493154 1_555
O3 P3 1.493154 1_555
O4 P4 1.493154 1_555
O5 P5 1.493154 1_555
O6 P6 1.493154 1_555
O7 P7 1.493154 1_555
O8 P20 1.502146 1_655
O9 P18 1.502146 1_455
O10 P17 1.502146 1_655
O11 P23 1.502146 1_555
O12 P16 1.502146 1_455
O13 P22 1.502146 1_555
O14 P21 1.502146 1_555
O15 P19 1.502146 1_555
O16 P0 1.611905 1_554
O16 P3 1.611905 1_555
O17 P5 1.611905 1_554
O17 P1 1.611905 1_555
O18 P2 1.611905 1_555
O18 P6 1.611905 1_555
O19 P4 1.611905 1_555
O19 P7 1.611905 1_555
O20 P10 1.506058 1_565
O21 P12 1.506058 1_545
O22 P8 1.506058 1_545
O23 P14 1.506058 1_565
O24 P9 1.506058 1_565
O25 P15 1.506058 1_545
O26 P11 1.506058 1_545
O27 P13 1.506058 1_565
O28 P16 1.614349 1_555
O28 P0 1.621891 1_555
O29 P17 1.614349 1_555
O29 P1 1.621891 1_555
O30 P18 1.614349 1_555
O30 P2 1.621891 1_555
O31 P19 1.614349 1_555
O31 P3 1.621891 1_555
O32 P20 1.614349 1_555
O32 P4 1.621891 1_555
O33 P21 1.614349 1_555
O33 P5 1.621891 1_555
O34 P22 1.614349 1_555
O34 P6 1.621891 1_555
O35 P23 1.614349 1_555
O35 P7 1.621891 1_555
O36 P8 1.503867 1_555
O37 P9 1.503867 1_555
O38 P10 1.503867 1_555
O39 P11 1.503867 1_555
O40 P12 1.503867 1_555
O41 P13 1.503867 1_555
O42 P14 1.503867 1_555
O43 P15 1.503867 1_555
O44 P2 1.508788 1_555
O45 P4 1.508788 1_555
O46 P0 1.508788 1_555
O47 P6 1.508788 1_555
O48 P1 1.508788 1_555
O49 P7 1.508788 1_555
O50 P3 1.508788 1_555
O51 P5 1.508788 1_555
O52 P16 1.617042 1_555
O52 P8 1.621604 1_555
O53 P17 1.617042 1_555
O53 P9 1.621604 1_555
O54 P18 1.617042 1_555
O54 P10 1.621604 1_555
O55 P19 1.617042 1_555
O55 P11 1.621604 1_555
O56 P20 1.617042 1_555
O56 P12 1.621604 1_555
O57 P21 1.617042 1_555
O57 P13 1.621604 1_555
O58 P22 1.617042 1_555
O58 P14 1.621604 1_555
O59 P23 1.617042 1_555
O59 P15 1.621604 1_555
O60 P8 1.606845 1_545
O60 P10 1.606845 1_555
O61 P12 1.606845 1_545
O61 P9 1.606845 1_555
O62 P11 1.606845 1_545
O62 P14 1.606845 1_555
O63 P15 1.606845 1_545
O63 P13 1.606845 1_555
O64 P23 1.499597 1_555
O65 P22 1.499597 1_555
O66 P21 1.499597 1_555
O67 P20 1.499597 1_655
O68 P19 1.499597 1_555
O69 P18 1.499597 1_455
O70 P17 1.499597 1_655
O71 P16 1.499597 1_455
