# generated using pymatgen
data_Sc11Ga10
_symmetry_space_group_name_H-M   'P 1'
_cell_length_a   10.62139201
_cell_length_b   10.62139201
_cell_length_c   10.62139201
_cell_angle_alpha   121.39153962
_cell_angle_beta   121.39153962
_cell_angle_gamma   87.60622057
_symmetry_Int_Tables_number   1
_chemical_formula_structural   Sc11Ga10
_chemical_formula_sum   'Sc22 Ga20'
_cell_volume   828.67777769
_cell_formula_units_Z   2
loop_
 _symmetry_equiv_pos_site_id
 _symmetry_equiv_pos_as_xyz
  1  'x, y, z'
loop_
 _atom_site_type_symbol
 _atom_site_label
 _atom_site_symmetry_multiplicity
 _atom_site_fract_x
 _atom_site_fract_y
 _atom_site_fract_z
 _atom_site_occupancy
  Sc  Sc0  1  0.16691312  0.16691312  -0.00000000  1
  Sc  Sc1  1  0.83308688  0.83308688  -0.00000000  1
  Sc  Sc2  1  0.32177408  0.32177408  0.64354817  1
  Sc  Sc3  1  0.67822592  0.67822592  0.35645183  1
  Sc  Sc4  1  0.32177408  0.67822592  -0.00000000  1
  Sc  Sc5  1  0.67822592  0.32177408  -0.00000000  1
  Sc  Sc6  1  0.43205450  0.10474327  0.32730923  1
  Sc  Sc7  1  0.56794550  0.89525673  0.67269077  1
  Sc  Sc8  1  0.77743404  0.10474327  0.67269077  1
  Sc  Sc9  1  0.10474327  0.77743404  0.67269077  1
  Sc  Sc10  1  0.22256596  0.89525673  0.32730923  1
  Sc  Sc11  1  0.89525673  0.22256596  0.32730923  1
  Sc  Sc12  1  0.10474327  0.43205450  0.32730923  1
  Sc  Sc13  1  0.89525673  0.56794550  0.67269077  1
  Sc  Sc14  1  0.56069238  0.31446575  0.24622663  1
  Sc  Sc15  1  0.43930762  0.68553425  0.75377337  1
  Sc  Sc16  1  0.06824111  0.31446575  0.75377337  1
  Sc  Sc17  1  0.31446575  0.06824111  0.75377337  1
  Sc  Sc18  1  0.93175889  0.68553425  0.24622663  1
  Sc  Sc19  1  0.68553425  0.93175889  0.24622663  1
  Sc  Sc20  1  0.31446575  0.56069238  0.24622663  1
  Sc  Sc21  1  0.68553425  0.43930762  0.75377337  1
  Ga  Ga0  1  0.38334629  0.38334629  0.41303198  1
  Ga  Ga1  1  0.61665371  0.61665371  0.58696802  1
  Ga  Ga2  1  0.97031432  0.97031432  0.58696802  1
  Ga  Ga3  1  0.38334629  0.97031432  0.00000000  1
  Ga  Ga4  1  0.02968568  0.61665371  0.00000000  1
  Ga  Ga5  1  0.02968568  0.02968568  0.41303198  1
  Ga  Ga6  1  0.61665371  0.02968568  -0.00000000  1
  Ga  Ga7  1  0.97031432  0.38334629  -0.00000000  1
  Ga  Ga8  1  0.39669623  0.39669623  0.00000000  1
  Ga  Ga9  1  0.60330377  0.60330377  -0.00000000  1
  Ga  Ga10  1  0.12449870  0.12449870  0.24899641  1
  Ga  Ga11  1  0.87550130  0.87550130  0.75100359  1
  Ga  Ga12  1  0.12449870  0.87550130  -0.00000000  1
  Ga  Ga13  1  0.87550130  0.12449870  0.00000000  1
  Ga  Ga14  1  0.75000000  0.25000000  0.50000000  1
  Ga  Ga15  1  0.25000000  0.75000000  0.50000000  1
  Ga  Ga16  1  0.50000000  0.13165396  0.63165396  1
  Ga  Ga17  1  0.50000000  0.86834604  0.36834604  1
  Ga  Ga18  1  0.13165396  0.50000000  0.63165396  1
  Ga  Ga19  1  0.86834604  0.50000000  0.36834604  1
loop_
_geom_bond_atom_site_label_1
_geom_bond_atom_site_label_2
_geom_bond_distance
_geom_bond_site_symmetry_2
Ga0 Ga1 2.582427 1_555
Ga0 Sc12 2.721992 1_555
Ga0 Sc6 2.721992 1_555
Ga0 Ga10 2.967182 1_555
Ga0 Sc14 3.038685 1_555
Ga0 Sc20 3.038685 1_555
Ga0 Sc0 3.040390 1_555
Ga0 Sc21 3.093601 1_555
Ga0 Sc15 3.093601 1_555
Ga0 Sc2 3.197182 1_555
Ga1 Sc7 2.721992 1_555
Ga1 Sc13 2.721992 1_555
Ga1 Ga11 2.967182 1_555
Ga1 Sc21 3.038685 1_555
Ga1 Sc15 3.038685 1_555
Ga1 Sc1 3.040390 1_556
Ga1 Sc14 3.093601 1_555
Ga1 Sc20 3.093601 1_555
Ga1 Sc3 3.197182 1_555
Ga2 Ga5 2.582427 1_665
Ga2 Sc9 2.721985 1_655
Ga2 Sc8 2.721985 1_565
Ga2 Sc16 3.038687 1_665
Ga2 Sc17 3.038687 1_665
Ga2 Sc0 3.040390 1_666
Ga2 Sc19 3.093592 1_555
Ga2 Sc18 3.093592 1_555
Ga2 Sc3 3.197182 1_555
Ga3 Ga6 2.582427 1_565
Ga3 Sc6 2.721975 1_565
Ga3 Sc9 2.721985 1_554
Ga3 Sc14 3.038685 1_565
Ga3 Sc17 3.038701 1_564
Ga3 Sc0 3.040390 1_565
Ga3 Sc15 3.093601 1_554
Ga3 Sc19 3.093612 1_555
Ga3 Sc4 3.197182 1_555
Ga4 Ga7 2.582427 1_455
Ga4 Sc13 2.721975 1_454
Ga4 Sc10 2.721985 1_555
Ga4 Sc21 3.038685 1_454
Ga4 Sc18 3.038701 1_455
Ga4 Sc1 3.040390 1_455
Ga4 Sc20 3.093601 1_555
Ga4 Sc16 3.093612 1_554
Ga4 Sc4 3.197182 1_555
Ga5 Sc11 2.721985 1_455
Ga5 Sc10 2.721985 1_545
Ga5 Sc18 3.038687 1_445
Ga5 Sc19 3.038687 1_445
Ga5 Sc1 3.040390 1_445
Ga5 Sc16 3.093592 1_555
Ga5 Sc17 3.093592 1_555
Ga5 Sc2 3.197182 1_555
Ga6 Sc7 2.721975 1_544
Ga6 Sc11 2.721985 1_555
Ga6 Sc15 3.038685 1_544
Ga6 Sc19 3.038701 1_545
Ga6 Sc1 3.040390 1_545
Ga6 Sc14 3.093601 1_555
Ga6 Sc17 3.093612 1_554
Ga6 Sc5 3.197182 1_555
Ga7 Sc12 2.721975 1_655
Ga7 Sc8 2.721985 1_554
Ga7 Sc20 3.038685 1_655
Ga7 Sc16 3.038701 1_654
Ga7 Sc0 3.040390 1_655
Ga7 Sc21 3.093601 1_554
Ga7 Sc18 3.093612 1_555
Ga7 Sc5 3.197182 1_555
Ga8 Sc17 2.853639 1_554
Ga8 Sc16 2.853639 1_554
Ga8 Sc20 2.853655 1_555
Ga8 Sc14 2.853655 1_555
Ga8 Sc2 3.062026 1_554
Ga8 Sc3 3.062026 1_555
Ga8 Sc4 3.062026 1_555
Ga8 Sc5 3.062026 1_555
Ga9 Sc18 2.853639 1_555
Ga9 Sc19 2.853639 1_555
Ga9 Sc21 2.853655 1_554
Ga9 Sc15 2.853655 1_554
Ga9 Sc3 3.062026 1_555
Ga9 Sc2 3.062026 1_554
Ga9 Sc5 3.062026 1_555
Ga9 Sc4 3.062026 1_555
Ga10 Ga12 2.588874 1_545
Ga10 Ga13 2.588874 1_455
Ga10 Sc2 2.900721 1_555
Ga10 Sc11 2.949722 1_455
Ga10 Sc10 2.949722 1_545
Ga10 Sc12 2.949734 1_555
Ga10 Sc6 2.949734 1_555
Ga10 Ga5 2.967196 1_555
Ga10 Sc0 3.146366 1_555
Ga10 Sc1 3.146379 1_445
Ga11 Ga12 2.588874 1_656
Ga11 Ga13 2.588874 1_566
Ga11 Sc3 2.900721 1_555
Ga11 Sc8 2.949722 1_565
Ga11 Sc9 2.949722 1_655
Ga11 Sc13 2.949734 1_555
Ga11 Sc7 2.949734 1_555
Ga11 Ga2 2.967196 1_555
Ga11 Sc1 3.146366 1_556
Ga11 Sc0 3.146379 1_666
Ga12 Sc4 2.900714 1_555
Ga12 Sc10 2.949717 1_555
Ga12 Sc9 2.949717 1_554
Ga12 Sc13 2.949728 1_454
Ga12 Sc6 2.949728 1_565
Ga12 Ga4 2.967186 1_555
Ga12 Ga3 2.967186 1_555
Ga12 Sc1 3.146377 1_455
Ga12 Sc0 3.146377 1_565
Ga13 Sc5 2.900714 1_555
Ga13 Sc11 2.949717 1_555
Ga13 Sc8 2.949717 1_554
Ga13 Sc7 2.949728 1_544
Ga13 Sc12 2.949728 1_655
Ga13 Ga6 2.967186 1_555
Ga13 Ga7 2.967186 1_555
Ga13 Sc1 3.146377 1_545
Ga13 Sc0 3.146377 1_655
Ga14 Sc21 2.817571 1_555
Ga14 Sc14 2.817571 1_555
Ga14 Sc16 2.817586 1_655
Ga14 Sc19 2.817586 1_545
Ga14 Sc6 2.860630 1_555
Ga14 Sc13 2.860630 1_555
Ga14 Sc8 2.860648 1_555
Ga14 Sc11 2.860648 1_555
Ga15 Sc15 2.817571 1_555
Ga15 Sc20 2.817571 1_555
Ga15 Sc18 2.817586 1_455
Ga15 Sc17 2.817586 1_565
Ga15 Sc7 2.860630 1_555
Ga15 Sc12 2.860630 1_555
Ga15 Sc9 2.860648 1_555
Ga15 Sc10 2.860648 1_555
Ga16 Sc5 2.709470 1_556
Ga16 Sc2 2.709470 1_555
Ga16 Ga17 2.737669 1_545
Ga16 Sc7 2.770615 1_545
Ga16 Sc10 2.770618 1_545
Ga16 Sc8 2.770618 1_555
Ga16 Sc6 2.770626 1_555
Ga16 Sc17 3.115005 1_555
Ga16 Sc21 3.115015 1_555
Ga17 Sc4 2.709470 1_555
Ga17 Sc3 2.709470 1_555
Ga17 Sc6 2.770615 1_565
Ga17 Sc8 2.770618 1_565
Ga17 Sc10 2.770618 1_555
Ga17 Sc7 2.770626 1_555
Ga17 Sc19 3.115005 1_555
Ga17 Sc20 3.115015 1_555
Ga18 Sc4 2.709470 1_556
Ga18 Sc2 2.709470 1_555
Ga18 Ga19 2.737669 1_455
Ga18 Sc13 2.770615 1_455
Ga18 Sc11 2.770618 1_455
Ga18 Sc9 2.770618 1_555
Ga18 Sc12 2.770626 1_555
Ga18 Sc16 3.115005 1_555
Ga18 Sc15 3.115015 1_555
Ga19 Sc5 2.709470 1_555
Ga19 Sc3 2.709470 1_555
Ga19 Sc12 2.770615 1_655
Ga19 Sc11 2.770618 1_555
Ga19 Sc9 2.770618 1_655
Ga19 Sc13 2.770626 1_555
Ga19 Sc18 3.115005 1_555
Ga19 Sc14 3.115015 1_555
