# generated using pymatgen
data_LaAlCuNi3
_symmetry_space_group_name_H-M   'P 1'
_cell_length_a   4.07132500
_cell_length_b   5.02814600
_cell_length_c   5.11130011
_cell_angle_alpha   61.46095654
_cell_angle_beta   90.00000000
_cell_angle_gamma   90.00000000
_symmetry_Int_Tables_number   1
_chemical_formula_structural   LaAlCuNi3
_chemical_formula_sum   'La1 Al1 Cu1 Ni3'
_cell_volume   91.92057288
_cell_formula_units_Z   1
loop_
 _symmetry_equiv_pos_site_id
 _symmetry_equiv_pos_as_xyz
  1  'x, y, z'
loop_
 _atom_site_type_symbol
 _atom_site_label
 _atom_site_symmetry_multiplicity
 _atom_site_fract_x
 _atom_site_fract_y
 _atom_site_fract_z
 _atom_site_occupancy
  La  La0  1  0.00000000  0.50000000  0.50000000  1
  Al  Al0  1  0.50000000  0.00000000  0.00000000  1
  Cu  Cu0  1  0.50000000  0.00000000  0.50000000  1
  Ni  Ni0  1  0.00000000  0.16770600  0.16271100  1
  Ni  Ni1  1  0.00000000  0.83229400  0.83728900  1
  Ni  Ni2  1  0.50000000  0.50000000  0.00000000  1
loop_
_geom_bond_atom_site_label_1
_geom_bond_atom_site_label_2
_geom_bond_distance
_geom_bond_site_symmetry_2
La0 Ni1 2.918237 1_555
La0 Ni0 2.918237 1_555
La0 Ni0 2.951821 1_565
La0 Ni1 2.951821 1_545
La0 Ni0 2.976191 1_556
La0 Ni1 2.976191 1_554
La0 Ni2 3.267303 1_555
La0 Ni2 3.267303 1_455
La0 Ni2 3.267303 1_456
La0 Ni2 3.267303 1_556
Al0 Ni0 2.493344 1_655
Al0 Ni0 2.493344 1_555
Al0 Ni1 2.493344 1_644
Al0 Ni1 2.493344 1_544
Al0 Ni2 2.514073 1_555
Al0 Ni2 2.514073 1_545
Al0 Cu0 2.555650 1_554
Al0 Cu0 2.555650 1_555
Al0 La0 3.294930 1_545
Al0 La0 3.294930 1_654
Al0 La0 3.294930 1_554
Al0 La0 3.294930 1_645
Cu0 Ni1 2.537329 1_645
Cu0 Ni1 2.537329 1_545
Cu0 Ni0 2.537329 1_655
Cu0 Ni0 2.537329 1_555
Cu0 Ni2 2.590876 1_546
Cu0 Ni2 2.590876 1_555
Cu0 La0 3.234886 1_645
Cu0 La0 3.234886 1_545
Cu0 La0 3.234886 1_555
Cu0 La0 3.234886 1_655
Ni0 Ni2 2.509878 1_455
Ni0 Ni2 2.509878 1_555
Ni0 Ni1 2.879473 1_544
Ni0 Ni1 2.936369 1_554
Ni0 Ni1 3.029267 1_545
Ni1 Ni2 2.509878 1_456
Ni1 Ni2 2.509878 1_556
