# generated using pymatgen
data_La5(Sn5Ir2)2
_symmetry_space_group_name_H-M   'P 1'
_cell_length_a   14.26248300
_cell_length_b   14.26248300
_cell_length_c   4.73821100
_cell_angle_alpha   90.00000000
_cell_angle_beta   90.00000000
_cell_angle_gamma   90.00000000
_symmetry_Int_Tables_number   1
_chemical_formula_structural   La5(Sn5Ir2)2
_chemical_formula_sum   'La10 Sn20 Ir8'
_cell_volume   963.83940153
_cell_formula_units_Z   2
loop_
 _symmetry_equiv_pos_site_id
 _symmetry_equiv_pos_as_xyz
  1  'x, y, z'
loop_
 _atom_site_type_symbol
 _atom_site_label
 _atom_site_symmetry_multiplicity
 _atom_site_fract_x
 _atom_site_fract_y
 _atom_site_fract_z
 _atom_site_occupancy
  La  La0  1  0.50000000  0.50000000  0.00000000  1
  La  La1  1  0.00000000  0.00000000  0.00000000  1
  La  La2  1  0.67639700  0.17639700  0.50000000  1
  La  La3  1  0.32360300  0.82360300  0.50000000  1
  La  La4  1  0.17639700  0.32360300  0.50000000  1
  La  La5  1  0.82360300  0.67639700  0.50000000  1
  La  La6  1  0.88764000  0.38764000  0.50000000  1
  La  La7  1  0.11236000  0.61236000  0.50000000  1
  La  La8  1  0.38764000  0.11236000  0.50000000  1
  La  La9  1  0.61236000  0.88764000  0.50000000  1
  Sn  Sn0  1  0.56930600  0.06930600  0.00000000  1
  Sn  Sn1  1  0.43069400  0.93069400  0.00000000  1
  Sn  Sn2  1  0.06930600  0.43069400  0.00000000  1
  Sn  Sn3  1  0.93069400  0.56930600  0.00000000  1
  Sn  Sn4  1  0.65457700  0.69800500  0.00000000  1
  Sn  Sn5  1  0.34542300  0.30199500  0.00000000  1
  Sn  Sn6  1  0.15457700  0.80199500  0.00000000  1
  Sn  Sn7  1  0.84542300  0.19800500  0.00000000  1
  Sn  Sn8  1  0.30199500  0.65457700  0.00000000  1
  Sn  Sn9  1  0.69800500  0.34542300  0.00000000  1
  Sn  Sn10  1  0.19800500  0.15457700  0.00000000  1
  Sn  Sn11  1  0.80199500  0.84542300  0.00000000  1
  Sn  Sn12  1  0.66377800  0.50501100  0.50000000  1
  Sn  Sn13  1  0.33622200  0.49498900  0.50000000  1
  Sn  Sn14  1  0.16377800  0.99498900  0.50000000  1
  Sn  Sn15  1  0.83622200  0.00501100  0.50000000  1
  Sn  Sn16  1  0.49498900  0.66377800  0.50000000  1
  Sn  Sn17  1  0.50501100  0.33622200  0.50000000  1
  Sn  Sn18  1  0.00501100  0.16377800  0.50000000  1
  Sn  Sn19  1  0.99498900  0.83622200  0.50000000  1
  Ir  Ir0  1  0.74628200  0.52774600  0.00000000  1
  Ir  Ir1  1  0.25371800  0.47225400  0.00000000  1
  Ir  Ir2  1  0.24628200  0.97225400  0.00000000  1
  Ir  Ir3  1  0.75371800  0.02774600  0.00000000  1
  Ir  Ir4  1  0.47225400  0.74628200  0.00000000  1
  Ir  Ir5  1  0.52774600  0.25371800  0.00000000  1
  Ir  Ir6  1  0.02774600  0.24628200  0.00000000  1
  Ir  Ir7  1  0.97225400  0.75371800  0.00000000  1
loop_
_geom_bond_atom_site_label_1
_geom_bond_atom_site_label_2
_geom_bond_distance
_geom_bond_site_symmetry_2
La0 Sn12 3.327778 1_554
La0 Sn17 3.327778 1_555
La0 Sn16 3.327778 1_555
La0 Sn13 3.327778 1_554
La0 Sn16 3.327778 1_554
La0 Sn12 3.327778 1_555
La0 Sn13 3.327778 1_555
La0 Sn17 3.327778 1_554
La0 Sn4 3.582696 1_555
La0 Sn8 3.582696 1_555
La0 Sn5 3.582696 1_555
La0 Sn9 3.582696 1_555
La1 Sn14 3.327778 1_544
La1 Sn14 3.327778 1_545
La1 Sn15 3.327778 1_455
La1 Sn18 3.327778 1_555
La1 Sn15 3.327778 1_454
La1 Sn19 3.327778 1_444
La1 Sn19 3.327778 1_445
La1 Sn18 3.327778 1_554
La1 Sn7 3.582696 1_455
La1 Sn11 3.582696 1_445
La1 Sn10 3.582696 1_555
La1 Sn6 3.582696 1_545
La2 Sn0 3.206004 1_555
La2 Sn0 3.206004 1_556
La2 Sn15 3.342330 1_555
La2 Sn17 3.342330 1_555
La2 Sn9 3.394003 1_556
La2 Sn9 3.394003 1_555
La2 Sn7 3.394003 1_556
La2 Sn7 3.394003 1_555
La3 Sn1 3.206004 1_555
La3 Sn1 3.206004 1_556
La3 Sn14 3.342330 1_555
La3 Sn16 3.342330 1_555
La3 Sn6 3.394003 1_555
La3 Sn6 3.394003 1_556
La3 Sn8 3.394003 1_556
La3 Sn8 3.394003 1_555
La4 Sn2 3.206004 1_556
La4 Sn2 3.206004 1_555
La4 Sn18 3.342330 1_555
La4 Sn13 3.342330 1_555
La4 Sn5 3.394003 1_556
La4 Sn10 3.394003 1_555
La4 Sn5 3.394003 1_555
La4 Sn10 3.394003 1_556
La5 Sn3 3.206004 1_556
La5 Sn3 3.206004 1_555
La5 Sn12 3.342330 1_555
La5 Sn19 3.342330 1_555
La5 Sn4 3.394003 1_556
La5 Sn11 3.394003 1_556
La5 Sn4 3.394003 1_555
La5 Sn11 3.394003 1_555
La6 Sn3 3.564134 1_555
La6 Sn3 3.564134 1_556
La6 Sn2 3.564134 1_655
La6 Sn2 3.564134 1_656
La6 Sn12 3.605057 1_555
La6 Sn18 3.605057 1_655
La6 Sn9 3.645604 1_556
La6 Sn9 3.645604 1_555
La6 Sn7 3.645604 1_556
La6 Sn7 3.645604 1_555
La7 Sn2 3.564134 1_556
La7 Sn2 3.564134 1_555
La7 Sn3 3.564134 1_455
La7 Sn3 3.564134 1_456
La7 Sn13 3.605057 1_555
La7 Sn19 3.605057 1_455
La7 Sn6 3.645604 1_555
La7 Sn6 3.645604 1_556
La7 Sn8 3.645604 1_556
La7 Sn8 3.645604 1_555
La8 Sn0 3.564134 1_555
La8 Sn0 3.564134 1_556
La8 Sn1 3.564134 1_545
La8 Sn1 3.564134 1_546
La8 Sn14 3.605057 1_545
La8 Sn17 3.605057 1_555
La8 Sn5 3.645604 1_555
La8 Sn10 3.645604 1_555
La8 Sn10 3.645604 1_556
La8 Sn5 3.645604 1_556
La9 Sn1 3.564134 1_555
La9 Sn1 3.564134 1_556
La9 Sn0 3.564134 1_566
La9 Sn0 3.564134 1_565
La9 Sn16 3.605057 1_555
La9 Sn15 3.605057 1_565
La9 Sn4 3.645604 1_556
La9 Sn11 3.645604 1_556
La9 Sn4 3.645604 1_555
La9 Sn11 3.645604 1_555
Sn0 Sn1 2.795831 1_545
Sn2 Sn3 2.795831 1_455
Sn6 Sn8 2.973450 1_555
Sn7 Sn9 2.973450 1_555
Sn10 Sn5 2.973450 1_555
Sn10 Sn14 3.321399 1_544
Sn10 Sn14 3.321399 1_545
Sn11 Sn4 2.973450 1_555
Sn11 Sn15 3.321399 1_565
Sn11 Sn15 3.321399 1_564
Sn12 Sn9 3.321399 1_556
Sn12 Sn9 3.321399 1_555
Sn13 Sn8 3.321399 1_555
Sn13 Sn8 3.321399 1_556
Sn16 Sn4 3.321399 1_556
Sn16 Sn4 3.321399 1_555
Sn17 Sn5 3.321399 1_556
Sn17 Sn5 3.321399 1_555
Sn18 Sn7 3.321399 1_455
Sn18 Sn7 3.321399 1_456
Sn19 Sn6 3.321399 1_656
Sn19 Sn6 3.321399 1_655
Ir0 Sn12 2.665043 1_555
Ir0 Sn12 2.665043 1_554
Ir0 Sn9 2.689994 1_555
Ir0 Sn3 2.696138 1_555
Ir0 Sn4 2.758157 1_555
Ir0 La5 3.365080 1_555
Ir0 La5 3.365080 1_554
Ir0 La0 3.534814 1_555
Ir0 La6 3.697354 1_554
Ir0 La6 3.697354 1_555
Ir1 Sn13 2.665043 1_554
Ir1 Sn13 2.665043 1_555
Ir1 Sn8 2.689994 1_555
Ir1 Sn2 2.696138 1_555
Ir1 Sn5 2.758157 1_555
Ir1 La4 3.365080 1_555
Ir1 La4 3.365080 1_554
Ir1 La0 3.534814 1_555
Ir1 La7 3.697354 1_555
Ir1 La7 3.697354 1_554
Ir2 Sn14 2.665043 1_555
Ir2 Sn14 2.665043 1_554
Ir2 Sn10 2.689994 1_565
Ir2 Sn1 2.696138 1_555
Ir2 Sn6 2.758157 1_555
Ir2 La3 3.365080 1_555
Ir2 La3 3.365080 1_554
Ir2 La1 3.534814 1_565
Ir2 La8 3.697354 1_564
Ir2 La8 3.697354 1_565
Ir3 Sn15 2.665043 1_554
Ir3 Sn15 2.665043 1_555
Ir3 Sn11 2.689994 1_545
Ir3 Sn0 2.696138 1_555
Ir3 Sn7 2.758157 1_555
Ir3 La2 3.365080 1_555
Ir3 La2 3.365080 1_554
Ir3 La1 3.534814 1_655
Ir3 La9 3.697354 1_544
Ir3 La9 3.697354 1_545
Ir4 Sn16 2.665043 1_554
Ir4 Sn16 2.665043 1_555
Ir4 Sn4 2.689994 1_555
Ir4 Sn1 2.696138 1_555
Ir4 Sn8 2.758157 1_555
Ir4 La3 3.365080 1_554
Ir4 La3 3.365080 1_555
Ir4 La0 3.534814 1_555
Ir4 La9 3.697354 1_555
Ir4 La9 3.697354 1_554
Ir5 Sn17 2.665043 1_554
Ir5 Sn17 2.665043 1_555
Ir5 Sn5 2.689994 1_555
Ir5 Sn0 2.696138 1_555
Ir5 Sn9 2.758157 1_555
Ir5 La2 3.365080 1_555
Ir5 La2 3.365080 1_554
Ir5 La0 3.534814 1_555
Ir5 La8 3.697354 1_555
Ir5 La8 3.697354 1_554
Ir6 Sn18 2.665043 1_555
Ir6 Sn18 2.665043 1_554
Ir6 Sn7 2.689994 1_455
Ir6 Sn2 2.696138 1_555
Ir6 Sn10 2.758157 1_555
Ir6 La4 3.365080 1_554
Ir6 La4 3.365080 1_555
Ir6 La1 3.534814 1_555
Ir6 La6 3.697354 1_455
Ir6 La6 3.697354 1_454
Ir7 Sn19 2.665043 1_554
Ir7 Sn19 2.665043 1_555
Ir7 Sn6 2.689994 1_655
Ir7 Sn3 2.696138 1_555
Ir7 Sn11 2.758157 1_555
Ir7 La5 3.365080 1_555
Ir7 La5 3.365080 1_554
Ir7 La1 3.534814 1_665
Ir7 La7 3.697354 1_655
Ir7 La7 3.697354 1_654
