# generated using pymatgen
data_Na2BeSi4(H4O7)2
_symmetry_space_group_name_H-M   'P 1'
_cell_length_a   9.89737300
_cell_length_b   10.22519700
_cell_length_c   12.05848400
_cell_angle_alpha   90.00000000
_cell_angle_beta   90.00000000
_cell_angle_gamma   90.00000000
_symmetry_Int_Tables_number   1
_chemical_formula_structural   Na2BeSi4(H4O7)2
_chemical_formula_sum   'Na8 Be4 Si16 H32 O56'
_cell_volume   1220.34979669
_cell_formula_units_Z   4
loop_
 _symmetry_equiv_pos_site_id
 _symmetry_equiv_pos_as_xyz
  1  'x, y, z'
loop_
 _atom_site_type_symbol
 _atom_site_label
 _atom_site_symmetry_multiplicity
 _atom_site_fract_x
 _atom_site_fract_y
 _atom_site_fract_z
 _atom_site_occupancy
  Na  Na0  1  0.97264300  0.69527500  0.68498600  1
  Na  Na1  1  0.52735700  0.30472500  0.18498600  1
  Na  Na2  1  0.47264300  0.80472500  0.31501400  1
  Na  Na3  1  0.02735700  0.19527500  0.81501400  1
  Na  Na4  1  0.63671200  0.75609000  0.75769300  1
  Na  Na5  1  0.86328800  0.24391000  0.25769300  1
  Na  Na6  1  0.13671200  0.74391000  0.24230700  1
  Na  Na7  1  0.36328800  0.25609000  0.74230700  1
  Be  Be0  1  0.75771900  0.76392600  0.24387400  1
  Be  Be1  1  0.74228100  0.23607400  0.74387400  1
  Be  Be2  1  0.25771900  0.73607400  0.75612600  1
  Be  Be3  1  0.24228100  0.26392600  0.25612600  1
  Si  Si0  1  0.91628300  0.85451400  0.43428000  1
  Si  Si1  1  0.58371700  0.14548600  0.93428000  1
  Si  Si2  1  0.41628300  0.64548600  0.56572000  1
  Si  Si3  1  0.08371700  0.35451400  0.06572000  1
  Si  Si4  1  0.60209200  0.86340100  0.05181900  1
  Si  Si5  1  0.89790800  0.13659900  0.55181900  1
  Si  Si6  1  0.10209200  0.63659900  0.94818100  1
  Si  Si7  1  0.39790800  0.36340100  0.44818100  1
  Si  Si8  1  0.70829100  0.65113600  0.46569500  1
  Si  Si9  1  0.79170900  0.34886400  0.96569500  1
  Si  Si10  1  0.20829100  0.84886400  0.53430500  1
  Si  Si11  1  0.29170900  0.15113600  0.03430500  1
  Si  Si12  1  0.80080300  0.64806600  0.02216800  1
  Si  Si13  1  0.69919700  0.35193400  0.52216800  1
  Si  Si14  1  0.30080300  0.85193400  0.97783200  1
  Si  Si15  1  0.19919700  0.14806600  0.47783200  1
  H  H0  1  0.74483800  0.49349800  0.69861500  1
  H  H1  1  0.75516200  0.50650200  0.19861500  1
  H  H2  1  0.24483800  0.00650200  0.30138500  1
  H  H3  1  0.25516200  0.99349800  0.80138500  1
  H  H4  1  0.80473500  0.53642700  0.80867200  1
  H  H5  1  0.69526500  0.46357300  0.30867200  1
  H  H6  1  0.30473400  0.96357300  0.19132800  1
  H  H7  1  0.19526500  0.03642700  0.69132800  1
  H  H8  1  0.83958200  0.96348300  0.72545600  1
  H  H9  1  0.66041800  0.03651700  0.22545600  1
  H  H10  1  0.33958200  0.53651700  0.27454400  1
  H  H11  1  0.16041800  0.46348300  0.77454400  1
  H  H12  1  0.88008900  0.89920200  0.83606400  1
  H  H13  1  0.61991100  0.10079800  0.33606400  1
  H  H14  1  0.38008900  0.60079800  0.16393600  1
  H  H15  1  0.11991100  0.39920200  0.66393600  1
  H  H16  1  0.08014500  0.53633000  0.48098100  1
  H  H17  1  0.41985500  0.46367000  0.98098100  1
  H  H18  1  0.58014500  0.96367000  0.51901900  1
  H  H19  1  0.91985500  0.03633000  0.01901900  1
  H  H20  1  0.94570600  0.49773400  0.53099300  1
  H  H21  1  0.55429400  0.50226600  0.03099300  1
  H  H22  1  0.44570600  0.00226600  0.46900700  1
  H  H23  1  0.05429400  0.99773400  0.96900700  1
  H  H24  1  0.56582500  0.02472400  0.73168200  1
  H  H25  1  0.93417500  0.97527600  0.23168200  1
  H  H26  1  0.06582500  0.47527600  0.26831800  1
  H  H27  1  0.43417500  0.52472400  0.76831800  1
  H  H28  1  0.44683400  0.92298800  0.73392200  1
  H  H29  1  0.05316600  0.07701200  0.23392200  1
  H  H30  1  0.94683400  0.57701200  0.26607800  1
  H  H31  1  0.55316600  0.42298800  0.76607800  1
  O  O0  1  0.88320200  0.84197700  0.30420500  1
  O  O1  1  0.61679800  0.15802300  0.80420500  1
  O  O2  1  0.38320200  0.65802300  0.69579500  1
  O  O3  1  0.11679800  0.34197700  0.19579500  1
  O  O4  1  0.87904900  0.99720500  0.48723500  1
  O  O5  1  0.62095100  0.00279500  0.98723500  1
  O  O6  1  0.37904900  0.50279500  0.51276500  1
  O  O7  1  0.12095100  0.49720500  0.01276500  1
  O  O8  1  0.07928800  0.82683700  0.45050300  1
  O  O9  1  0.42071200  0.17316300  0.95050300  1
  O  O10  1  0.57928800  0.67316300  0.54949700  1
  O  O11  1  0.92071200  0.32683700  0.04949700  1
  O  O12  1  0.83351000  0.74478200  0.50994400  1
  O  O13  1  0.66649000  0.25521800  0.00994400  1
  O  O14  1  0.33351000  0.75521800  0.49005600  1
  O  O15  1  0.16649000  0.24478200  0.99005600  1
  O  O16  1  0.65481700  0.86535300  0.17785200  1
  O  O17  1  0.84518300  0.13464700  0.67785200  1
  O  O18  1  0.15481700  0.63464700  0.82214800  1
  O  O19  1  0.34518300  0.36535300  0.32214800  1
  O  O20  1  0.43959900  0.82674000  0.04895900  1
  O  O21  1  0.06040100  0.17326000  0.54895900  1
  O  O22  1  0.93959900  0.67326000  0.95104100  1
  O  O23  1  0.56040100  0.32674000  0.45104100  1
  O  O24  1  0.68543400  0.75274900  0.97729900  1
  O  O25  1  0.81456600  0.24725100  0.47729900  1
  O  O26  1  0.18543400  0.74725100  0.02270100  1
  O  O27  1  0.31456600  0.25274900  0.52270100  1
  O  O28  1  0.67254500  0.68300200  0.33940300  1
  O  O29  1  0.82745500  0.31699800  0.83940300  1
  O  O30  1  0.17254500  0.81699800  0.66059700  1
  O  O31  1  0.32745500  0.18300200  0.16059700  1
  O  O32  1  0.75853400  0.49738500  0.48421800  1
  O  O33  1  0.74146600  0.50261500  0.98421800  1
  O  O34  1  0.25853400  0.00261500  0.51578200  1
  O  O35  1  0.24146600  0.99738500  0.01578200  1
  O  O36  1  0.81981400  0.65513500  0.15449200  1
  O  O37  1  0.68018600  0.34486500  0.65449200  1
  O  O38  1  0.31981400  0.84486500  0.84550800  1
  O  O39  1  0.18018600  0.15513500  0.34550800  1
  O  O40  1  0.77831500  0.57374900  0.73730600  1
  O  O41  1  0.72168500  0.42625100  0.23730600  1
  O  O42  1  0.27831500  0.92625100  0.26269400  1
  O  O43  1  0.22168500  0.07374900  0.76269400  1
  O  O44  1  0.84527200  0.87641300  0.76190300  1
  O  O45  1  0.65472800  0.12358700  0.26190300  1
  O  O46  1  0.34527200  0.62358700  0.23809700  1
  O  O47  1  0.15472800  0.37641300  0.73809700  1
  O  O48  1  0.03961700  0.51551600  0.55294300  1
  O  O49  1  0.46038300  0.48448400  0.05294300  1
  O  O50  1  0.53961700  0.98448400  0.44705700  1
  O  O51  1  0.96038300  0.01551600  0.94705700  1
  O  O52  1  0.53051900  0.94423200  0.69397800  1
  O  O53  1  0.96948100  0.05576800  0.19397800  1
  O  O54  1  0.03051900  0.55576800  0.30602200  1
  O  O55  1  0.46948100  0.44423200  0.80602200  1
loop_
_geom_bond_atom_site_label_1
_geom_bond_atom_site_label_2
_geom_bond_distance
_geom_bond_site_symmetry_2
Na0 O30 2.355866 1_655
Na0 O40 2.375159 1_555
Na0 O44 2.424873 1_555
Na0 O48 2.520540 1_655
Na0 O18 2.524062 1_655
Na0 O12 2.570556 1_555
Na1 O31 2.355866 1_555
Na1 O41 2.375159 1_555
Na1 O45 2.424873 1_555
Na1 O49 2.520540 1_555
Na1 O19 2.524062 1_555
Na1 O13 2.570556 1_555
Na2 O28 2.355866 1_555
Na2 O42 2.375159 1_555
Na2 O46 2.424873 1_555
Na2 O50 2.520540 1_555
Na2 O16 2.524062 1_555
Na2 O14 2.570556 1_555
Na3 O29 2.355866 1_455
Na3 O43 2.375159 1_555
Na3 O47 2.424873 1_555
Na3 O51 2.520540 1_455
Na3 O17 2.524062 1_455
Na3 O15 2.570556 1_555
Na4 O52 2.322913 1_555
Na4 O40 2.345398 1_555
Na4 O44 2.403578 1_555
Na4 O24 2.691880 1_555
Na4 O10 2.710125 1_555
Na4 O2 2.803234 1_555
Na5 O53 2.322913 1_555
Na5 O41 2.345398 1_555
Na5 O45 2.403578 1_555
Na5 O25 2.691880 1_555
Na5 O11 2.710125 1_555
Na5 O3 2.803234 1_655
Na6 O54 2.322913 1_555
Na6 O42 2.345398 1_555
Na6 O46 2.403578 1_555
Na6 O26 2.691880 1_555
Na6 O8 2.710125 1_555
Na6 O0 2.803234 1_455
Na7 O55 2.322913 1_555
Na7 O43 2.345398 1_555
Na7 O47 2.403578 1_555
Na7 O27 2.691880 1_555
Na7 O9 2.710125 1_555
Na7 O1 2.803234 1_555
Be0 O0 1.645796 1_555
Be0 O28 1.649939 1_555
Be0 O16 1.657309 1_555
Be0 O36 1.666385 1_555
Be1 O1 1.645796 1_555
Be1 O29 1.649939 1_555
Be1 O17 1.657309 1_555
Be1 O37 1.666385 1_555
Be2 O2 1.645796 1_555
Be2 O30 1.649939 1_555
Be2 O18 1.657309 1_555
Be2 O38 1.666385 1_555
Be3 O3 1.645796 1_555
Be3 O31 1.649939 1_555
Be3 O19 1.657309 1_555
Be3 O39 1.666385 1_555
H0 O40 1.000405 1_555
H1 O41 1.000405 1_555
H2 O42 1.000405 1_545
H3 O43 1.000405 1_565
H4 O40 0.977030 1_555
H5 O41 0.977030 1_555
H6 O42 0.977027 1_555
H7 O43 0.977030 1_555
H8 O44 0.994473 1_555
H9 O45 0.994473 1_555
H10 O46 0.994473 1_555
H11 O47 0.994473 1_555
H12 O44 0.986288 1_555
H13 O45 0.986288 1_555
H14 O46 0.986288 1_555
H15 O47 0.986288 1_555
H16 O48 0.979381 1_555
H17 O49 0.979381 1_556
H18 O50 0.979381 1_555
H19 O51 0.979381 1_554
H20 O48 0.983380 1_655
H21 O49 0.983380 1_555
H22 O50 0.983380 1_545
H23 O51 0.983380 1_465
H24 O52 1.003106 1_545
H25 O53 1.003106 1_565
H26 O54 1.003106 1_555
H27 O55 1.003106 1_555
H28 O52 0.982448 1_555
H28 Na4 2.554657 1_555
H29 O53 0.982448 1_455
H29 Na5 2.554657 1_455
H30 O54 0.982448 1_655
H30 Na6 2.554657 1_655
H31 O55 0.982448 1_555
H31 Na7 2.554657 1_555
O0 Si0 1.607436 1_555
O1 Si1 1.607436 1_555
O2 Si2 1.607436 1_555
O3 Si3 1.607436 1_555
O4 Si0 1.634738 1_555
O4 Si5 1.634905 1_565
O5 Si1 1.634738 1_555
O5 Si4 1.634905 1_546
O6 Si2 1.634738 1_555
O6 Si7 1.634905 1_555
O7 Si3 1.634738 1_555
O7 Si6 1.634905 1_554
O8 Si10 1.643802 1_555
O8 Si0 1.649595 1_455
O9 Si11 1.643802 1_556
O9 Si1 1.649595 1_555
O10 Si8 1.643802 1_555
O10 Si2 1.649595 1_555
O11 Si9 1.643802 1_554
O11 Si3 1.649595 1_655
O12 Si8 1.654559 1_555
O12 Si0 1.662096 1_555
O13 Si9 1.654559 1_554
O13 Si1 1.662096 1_554
O14 Si10 1.654559 1_555
O14 Si2 1.662096 1_555
O15 Si11 1.654559 1_556
O15 Si3 1.662096 1_556
O16 Si4 1.606987 1_555
O17 Si5 1.606987 1_555
O18 Si6 1.606987 1_555
O19 Si7 1.606987 1_555
O20 Si14 1.639842 1_554
O20 Si4 1.651725 1_555
O21 Si15 1.639842 1_555
O21 Si5 1.651725 1_455
O22 Si12 1.639842 1_556
O22 Si6 1.651725 1_655
O23 Si13 1.639842 1_555
O23 Si7 1.651725 1_555
O24 Si12 1.655996 1_556
O24 Si4 1.663742 1_556
O25 Si13 1.655996 1_555
O25 Si5 1.663742 1_555
O26 Si14 1.655996 1_554
O26 Si6 1.663742 1_554
O27 Si15 1.655996 1_555
O27 Si7 1.663742 1_555
O28 Si8 1.597038 1_555
O29 Si9 1.597038 1_555
O30 Si10 1.597038 1_555
O31 Si11 1.597038 1_555
O32 Si13 1.663211 1_555
O32 Si8 1.663964 1_555
O33 Si12 1.663211 1_556
O33 Si9 1.663964 1_555
O34 Si15 1.663211 1_555
O34 Si10 1.663964 1_545
O35 Si14 1.663211 1_554
O35 Si11 1.663964 1_565
O36 Si12 1.608308 1_555
O37 Si13 1.608308 1_555
O38 Si14 1.608308 1_555
O39 Si15 1.608308 1_555
