# generated using pymatgen
data_ZnS
_symmetry_space_group_name_H-M   'P 1'
_cell_length_a   13.58552578
_cell_length_b   13.11358828
_cell_length_c   13.54170118
_cell_angle_alpha   85.01093225
_cell_angle_beta   88.42763051
_cell_angle_gamma   93.41221472
_symmetry_Int_Tables_number   1
_chemical_formula_structural   ZnS
_chemical_formula_sum   'Zn50 S50'
_cell_volume   2397.82984004
_cell_formula_units_Z   50
loop_
 _symmetry_equiv_pos_site_id
 _symmetry_equiv_pos_as_xyz
  1  'x, y, z'
loop_
 _atom_site_type_symbol
 _atom_site_label
 _atom_site_symmetry_multiplicity
 _atom_site_fract_x
 _atom_site_fract_y
 _atom_site_fract_z
 _atom_site_occupancy
  Zn  Zn0  1  0.63152013  0.89807855  0.17781212  1
  Zn  Zn1  1  0.42743708  0.50579808  0.41001180  1
  Zn  Zn2  1  0.35174022  0.01041442  0.56626223  1
  Zn  Zn3  1  0.04377155  0.42502367  0.16173429  1
  Zn  Zn4  1  0.29240485  0.29188181  0.62157585  1
  Zn  Zn5  1  0.97383304  0.64143171  0.00603752  1
  Zn  Zn6  1  0.44902703  0.45949339  0.17524669  1
  Zn  Zn7  1  0.98944653  0.70993785  0.46801794  1
  Zn  Zn8  1  0.98570620  0.51651357  0.53113370  1
  Zn  Zn9  1  0.28215857  0.09755414  0.91289412  1
  Zn  Zn10  1  0.21497479  0.18668662  0.31469529  1
  Zn  Zn11  1  0.23166445  0.39672823  0.97735389  1
  Zn  Zn12  1  0.45161996  0.16526885  0.34387384  1
  Zn  Zn13  1  0.85378441  0.98632516  0.28534830  1
  Zn  Zn14  1  0.01680582  0.07379948  0.78228022  1
  Zn  Zn15  1  0.28123641  0.67157868  0.55019833  1
  Zn  Zn16  1  0.12202286  0.91392831  0.68797419  1
  Zn  Zn17  1  0.61517618  0.70401488  0.84466874  1
  Zn  Zn18  1  0.95853119  0.27140375  0.99470059  1
  Zn  Zn19  1  0.83393390  0.14499877  0.06937834  1
  Zn  Zn20  1  0.93070756  0.96899718  0.54203834  1
  Zn  Zn21  1  0.79587413  0.78352067  0.27826384  1
  Zn  Zn22  1  0.31182618  0.67896513  0.97716270  1
  Zn  Zn23  1  0.51796337  0.08413969  0.01202918  1
  Zn  Zn24  1  0.63575521  0.92670536  0.94298875  1
  Zn  Zn25  1  0.00044398  0.35849915  0.66018513  1
  Zn  Zn26  1  0.76568647  0.16725570  0.37527899  1
  Zn  Zn27  1  0.01667564  0.82503984  0.13353556  1
  Zn  Zn28  1  0.37875466  0.66301146  0.69603056  1
  Zn  Zn29  1  0.57511907  0.06604047  0.66897995  1
  Zn  Zn30  1  0.06045009  0.09388748  0.09591556  1
  Zn  Zn31  1  0.83668052  0.75378237  0.01239729  1
  Zn  Zn32  1  0.81607828  0.53342066  0.72487379  1
  Zn  Zn33  1  0.24243459  0.49126958  0.18480443  1
  Zn  Zn34  1  0.24622687  0.35048468  0.44989934  1
  Zn  Zn35  1  0.65416368  0.42595032  0.89570710  1
  Zn  Zn36  1  0.64488519  0.32881397  0.25527594  1
  Zn  Zn37  1  0.10811748  0.58641017  0.81686714  1
  Zn  Zn38  1  0.42205173  0.89846311  0.76613407  1
  Zn  Zn39  1  0.78827587  0.25984943  0.76471273  1
  Zn  Zn40  1  0.16542900  0.43324639  0.59501386  1
  Zn  Zn41  1  0.12038298  0.87727364  0.96853440  1
  Zn  Zn42  1  0.82895491  0.41428663  0.18433562  1
  Zn  Zn43  1  0.92888463  0.77476982  0.72682534  1
  Zn  Zn44  1  0.18794254  0.89704449  0.18883653  1
  Zn  Zn45  1  0.64131623  0.59540404  0.23731033  1
  Zn  Zn46  1  0.58407331  0.32612708  0.53338321  1
  Zn  Zn47  1  0.55868696  0.23361870  0.82279534  1
  Zn  Zn48  1  0.08885700  0.55770907  0.36412631  1
  Zn  Zn49  1  0.45024870  0.21451030  0.17230830  1
  S  S0  1  0.34423932  0.51193396  0.03744965  1
  S  S1  1  0.83873418  0.42489603  0.60829045  1
  S  S2  1  0.14454559  0.68750899  0.94116659  1
  S  S3  1  0.65291448  0.55400674  0.77843227  1
  S  S4  1  0.44489123  0.72502383  0.83428169  1
  S  S5  1  0.11941293  0.29751491  0.08113728  1
  S  S6  1  0.53257437  0.02856302  0.84285349  1
  S  S7  1  0.90075487  0.08306612  0.40881644  1
  S  S8  1  0.91879939  0.45997668  0.04375268  1
  S  S9  1  0.69960276  0.26822246  0.91614247  1
  S  S10  1  0.09219757  0.26865561  0.41210662  1
  S  S11  1  0.22927453  0.90392963  0.46984619  1
  S  S12  1  0.42003355  0.32031049  0.82994499  1
  S  S13  1  0.67064643  0.04196611  0.06325023  1
  S  S14  1  0.71010335  0.73700794  0.14076010  1
  S  S15  1  0.35493865  0.83198698  0.06137501  1
  S  S16  1  0.11372729  0.58993492  0.19293039  1
  S  S17  1  0.55944061  0.36015834  0.11034350  1
  S  S18  1  0.11275085  0.07052242  0.93398730  1
  S  S19  1  0.46874233  0.43380171  0.55697030  1
  S  S20  1  0.24225573  0.54343996  0.44482734  1
  S  S21  1  0.15622873  0.41183336  0.83021076  1
  S  S22  1  0.50320961  0.93664243  0.59864146  1
  S  S23  1  0.05450807  0.06054405  0.61308880  1
  S  S24  1  0.34516346  0.19907233  0.76505880  1
  S  S25  1  0.94970699  0.23837667  0.79136046  1
  S  S26  1  0.36925047  0.12363104  0.05681987  1
  S  S27  1  0.73751004  0.47703738  0.30514844  1
  S  S28  1  0.24163907  0.52767577  0.72546246  1
  S  S29  1  0.31363467  0.35917203  0.27767002  1
  S  S30  1  0.14271014  0.78780507  0.55666821  1
  S  S31  1  0.95730097  0.77200220  0.30187808  1
  S  S32  1  0.32383433  0.15537308  0.46168248  1
  S  S33  1  0.61126667  0.22433895  0.40793583  1
  S  S34  1  0.24860310  0.76166316  0.28499618  1
  S  S35  1  0.27666386  0.97603602  0.72034270  1
  S  S36  1  0.30543547  0.90856066  0.92903270  1
  S  S37  1  0.47534083  0.59957239  0.26672328  1
  S  S38  1  0.87727395  0.79912304  0.56883655  1
  S  S39  1  0.64900204  0.22508884  0.66705276  1
  S  S40  1  0.51061372  0.81958761  0.06732273  1
  S  S41  1  0.94071301  0.61232408  0.80423462  1
  S  S42  1  0.91041861  0.98569819  0.12432011  1
  S  S43  1  0.14915789  0.05323822  0.23504339  1
  S  S44  1  0.01059221  0.38363330  0.34291776  1
  S  S45  1  0.69470963  0.90429052  0.33238497  1
  S  S46  1  0.73846281  0.81810439  0.87622407  1
  S  S47  1  0.00528856  0.88750322  0.82306865  1
  S  S48  1  0.32911357  0.82561051  0.39288959  1
  S  S49  1  0.78729949  0.23740110  0.21045663  1
loop_
_geom_bond_atom_site_label_1
_geom_bond_atom_site_label_2
_geom_bond_distance
_geom_bond_site_symmetry_2
Zn15 Zn28 2.406330 1_555
Zn31 Zn5 2.447445 1_555
S0 Zn11 2.300173 1_554
S0 Zn22 2.341298 1_554
S0 Zn33 2.382846 1_555
S0 Zn6 2.453700 1_555
S1 Zn32 2.242488 1_555
S1 Zn8 2.429715 1_555
S1 Zn25 2.506870 1_655
S1 Zn39 2.930445 1_555
S2 Zn37 2.278505 1_555
S2 Zn22 2.344451 1_555
S2 Zn5 2.478837 1_456
S2 Zn41 2.586250 1_555
S3 Zn35 2.209830 1_555
S3 Zn17 2.310574 1_555
S3 Zn32 2.351503 1_555
S4 Zn28 2.289914 1_555
S4 Zn17 2.352561 1_555
S4 Zn38 2.419815 1_555
S4 Zn22 2.617491 1_555
S5 Zn11 2.306870 1_554
S5 Zn3 2.345962 1_555
S5 Zn18 2.526947 1_454
S5 Zn30 2.730527 1_555
S6 Zn24 2.366432 1_545
S6 Zn29 2.410336 1_555
S6 Zn23 2.470137 1_556
S6 Zn38 2.516648 1_545
S6 Zn47 2.680402 1_555
S7 Zn26 2.234267 1_555
S7 Zn13 2.267859 1_545
S7 Zn20 2.302420 1_545
S8 Zn42 2.249455 1_555
S8 Zn3 2.399863 1_655
S8 Zn5 2.457209 1_555
S8 Zn18 2.696771 1_554
S9 Zn35 2.190355 1_555
S9 Zn39 2.363822 1_555
S9 Zn47 2.366001 1_555
S10 S44 2.095377 1_555
S10 Zn34 2.383115 1_555
S10 Zn10 2.452956 1_555
S11 S48 2.062761 1_555
S11 S30 2.117504 1_555
S11 Zn2 2.565634 1_565
S12 S24 2.105672 1_555
S12 Zn47 2.261433 1_555
S13 Zn23 2.288755 1_555
S13 Zn24 2.355131 1_544
S13 Zn0 2.361316 1_545
S13 Zn19 2.535016 1_555
S14 Zn45 2.309773 1_555
S14 Zn21 2.330023 1_555
S14 Zn31 2.398210 1_555
S14 Zn0 2.505258 1_555
S15 S36 2.122714 1_554
S15 S40 2.133975 1_555
S15 Zn22 2.442332 1_554
S15 Zn44 3.020900 1_555
S16 Zn33 2.242128 1_555
S16 Zn48 2.331696 1_555
S16 Zn3 2.386360 1_555
S17 Zn6 2.253618 1_555
S17 Zn36 2.325912 1_555
S17 Zn49 2.422459 1_555
S18 Zn9 2.313723 1_555
S18 Zn30 2.337587 1_556
S18 Zn14 2.461621 1_555
S18 Zn41 2.545475 1_545
S19 Zn46 2.205690 1_555
S19 Zn1 2.228049 1_555
S20 Zn15 2.343647 1_555
S20 Zn48 2.389183 1_555
S20 Zn34 2.529121 1_555
S20 Zn40 2.550797 1_555
S20 Zn1 2.630272 1_555
S21 S28 2.234101 1_555
S21 Zn11 2.264383 1_555
S21 Zn37 2.411129 1_555
S22 Zn29 2.208140 1_565
S22 Zn2 2.361221 1_565
S22 Zn38 2.492048 1_555
S23 Zn20 2.290211 1_445
S23 Zn16 2.342673 1_545
S23 Zn14 2.357405 1_555
S24 Zn4 2.353552 1_555
S24 Zn9 2.412358 1_555
S25 Zn39 2.262428 1_555
S25 Zn25 2.329964 1_655
S25 Zn14 2.403767 1_655
S25 Zn18 2.829040 1_555
S26 Zn23 2.197681 1_555
S26 Zn49 2.310733 1_555
S26 Zn9 2.347293 1_554
S27 Zn45 2.240635 1_555
S27 Zn42 2.267457 1_555
S27 Zn36 2.408631 1_555
S28 Zn37 2.371643 1_555
S28 Zn40 2.460507 1_555
S28 Zn28 2.494235 1_555
S28 Zn15 2.917786 1_555
S29 Zn33 2.324907 1_555
S29 Zn34 2.472911 1_555
S29 Zn6 2.508453 1_555
S29 Zn10 2.563024 1_555
S30 Zn15 2.495608 1_555
S30 Zn16 2.552556 1_555
S30 Zn7 2.629931 1_455
S31 Zn21 2.236994 1_555
S31 Zn7 2.385907 1_555
S31 Zn27 2.426460 1_655
S32 Zn12 2.315366 1_555
S32 Zn2 2.325911 1_555
S32 Zn10 2.531679 1_555
S32 Zn34 2.818322 1_555
S32 Zn4 2.964704 1_555
S33 Zn46 2.285316 1_555
S33 Zn26 2.313136 1_555
S33 Zn36 2.395896 1_555
S33 Zn12 2.465119 1_555
S34 S48 2.055695 1_555
S34 Zn44 2.314640 1_555
S35 Zn16 2.275545 1_555
S35 Zn2 2.293892 1_565
S35 Zn38 2.348896 1_555
S36 Zn9 2.508590 1_565
S36 Zn41 2.557360 1_555
S36 Zn38 2.697704 1_555
S37 Zn1 2.263006 1_555
S37 Zn45 2.283684 1_555
S37 Zn6 2.319170 1_555
S38 Zn43 2.271771 1_555
S38 Zn20 2.296424 1_555
S38 Zn7 2.435115 1_555
S39 Zn29 2.257916 1_555
S39 Zn46 2.370602 1_555
S39 Zn39 2.382504 1_555
S39 Zn47 2.425141 1_555
S40 Zn0 2.489508 1_555
S40 Zn24 2.616420 1_554
S41 Zn32 2.275367 1_555
S41 Zn43 2.307424 1_555
S41 Zn37 2.328159 1_655
S41 Zn5 2.836295 1_556
S42 Zn13 2.293218 1_555
S42 Zn30 2.415185 1_665
S42 Zn19 2.455129 1_565
S42 Zn27 2.619973 1_655
S43 Zn44 2.279874 1_545
S43 Zn10 2.284813 1_555
S43 Zn30 2.304881 1_555
S44 Zn3 2.489210 1_555
S44 Zn48 2.503172 1_555
S45 Zn0 2.290183 1_555
S45 Zn21 2.310828 1_555
S45 Zn13 2.400403 1_555
S46 Zn17 2.253552 1_555
S46 Zn24 2.276805 1_555
S46 Zn31 2.427100 1_556
S47 Zn43 2.277759 1_455
S47 Zn16 2.376339 1_555
S47 Zn14 2.452128 1_565
S47 Zn41 2.547795 1_555
S48 Zn15 2.839038 1_555
S49 Zn26 2.342830 1_555
S49 Zn42 2.348613 1_555
S49 Zn36 2.426294 1_555
S49 Zn19 2.438658 1_555
