# generated using pymatgen
data_ZrCrCuS4
_symmetry_space_group_name_H-M   'P 1'
_cell_length_a   6.08932100
_cell_length_b   7.11629400
_cell_length_c   12.41591700
_cell_angle_alpha   90.00000000
_cell_angle_beta   90.00000000
_cell_angle_gamma   90.00000000
_symmetry_Int_Tables_number   1
_chemical_formula_structural   ZrCrCuS4
_chemical_formula_sum   'Zr4 Cr4 Cu4 S16'
_cell_volume   538.02387906
_cell_formula_units_Z   4
loop_
 _symmetry_equiv_pos_site_id
 _symmetry_equiv_pos_as_xyz
  1  'x, y, z'
loop_
 _atom_site_type_symbol
 _atom_site_label
 _atom_site_symmetry_multiplicity
 _atom_site_fract_x
 _atom_site_fract_y
 _atom_site_fract_z
 _atom_site_occupancy
  Zr  Zr0  1  0.50000000  0.25000000  0.25000000  1
  Zr  Zr1  1  0.50000000  0.75000000  0.75000000  1
  Zr  Zr2  1  0.50000000  0.75000000  0.25000000  1
  Zr  Zr3  1  0.50000000  0.25000000  0.75000000  1
  Cr  Cr0  1  0.99595600  0.00000000  0.24328400  1
  Cr  Cr1  1  0.99595600  0.00000000  0.75671600  1
  Cr  Cr2  1  0.00404400  0.50000000  0.25671600  1
  Cr  Cr3  1  0.00404400  0.50000000  0.74328400  1
  Cu  Cu0  1  0.36142400  0.00000000  0.00000000  1
  Cu  Cu1  1  0.63857600  0.50000000  0.50000000  1
  Cu  Cu2  1  0.02986800  0.00000000  0.50000000  1
  Cu  Cu3  1  0.97013200  0.50000000  0.00000000  1
  S  S0  1  0.85046800  0.24911200  0.36605200  1
  S  S1  1  0.85046800  0.75088800  0.63394800  1
  S  S2  1  0.14953200  0.74911200  0.13394800  1
  S  S3  1  0.14953200  0.25088800  0.86605200  1
  S  S4  1  0.14953200  0.25088800  0.13394800  1
  S  S5  1  0.14953200  0.74911200  0.86605200  1
  S  S6  1  0.85046800  0.75088800  0.36605200  1
  S  S7  1  0.85046800  0.24911200  0.63394800  1
  S  S8  1  0.66992100  0.00000000  0.12964700  1
  S  S9  1  0.66992100  0.00000000  0.87035300  1
  S  S10  1  0.33007900  0.50000000  0.37035300  1
  S  S11  1  0.33007900  0.50000000  0.62964700  1
  S  S12  1  0.30852900  0.00000000  0.36376600  1
  S  S13  1  0.30852900  0.00000000  0.63623400  1
  S  S14  1  0.69147100  0.50000000  0.13623400  1
  S  S15  1  0.69147100  0.50000000  0.86376600  1
loop_
_geom_bond_atom_site_label_1
_geom_bond_atom_site_label_2
_geom_bond_distance
_geom_bond_site_symmetry_2
Cr0 S12 2.420841 1_655
Cr0 S4 2.430021 1_655
Cr0 S2 2.430021 1_645
Cr0 S8 2.435611 1_555
Cr0 S6 2.500188 1_545
Cr0 S0 2.500188 1_555
Cr1 S13 2.420841 1_655
Cr1 S5 2.430021 1_645
Cr1 S3 2.430021 1_655
Cr1 S9 2.435611 1_555
Cr1 S1 2.500188 1_545
Cr1 S7 2.500188 1_555
Cr2 S14 2.420841 1_455
Cr2 S0 2.430021 1_455
Cr2 S6 2.430021 1_455
Cr2 S10 2.435611 1_555
Cr2 S4 2.500188 1_555
Cr2 S2 2.500188 1_555
Cr3 S15 2.420841 1_455
Cr3 S7 2.430021 1_455
Cr3 S1 2.430021 1_455
Cr3 S11 2.435611 1_555
Cr3 S3 2.500188 1_555
Cr3 S5 2.500188 1_555
Cu0 S8 2.473862 1_555
Cu0 S9 2.473862 1_554
Cu0 S4 2.760128 1_555
Cu0 S2 2.760128 1_545
Cu0 S5 2.760128 1_544
Cu0 S3 2.760128 1_554
Cu1 S11 2.473862 1_555
Cu1 S10 2.473862 1_555
Cu1 S7 2.760128 1_555
Cu1 S1 2.760128 1_555
Cu1 S0 2.760128 1_555
Cu1 S6 2.760128 1_555
Cu2 S13 2.395912 1_555
Cu2 S12 2.395912 1_555
Cu2 S1 2.664940 1_445
Cu2 S7 2.664940 1_455
Cu2 S6 2.664940 1_445
Cu2 S0 2.664940 1_455
Cu3 S14 2.395912 1_555
Cu3 S15 2.395912 1_554
Cu3 S4 2.664940 1_655
Cu3 S2 2.664940 1_655
Cu3 S5 2.664940 1_654
Cu3 S3 2.664940 1_654
S0 Zr0 2.575004 1_555
S1 Zr1 2.575004 1_555
S2 Zr2 2.575004 1_555
S3 Zr3 2.575004 1_555
S4 Zr0 2.575004 1_555
S5 Zr1 2.575004 1_555
S6 Zr2 2.575004 1_555
S7 Zr3 2.575004 1_555
S8 Zr2 2.543349 1_545
S8 Zr0 2.543349 1_555
S9 Zr1 2.543349 1_545
S9 Zr3 2.543349 1_555
S10 Zr2 2.543349 1_555
S10 Zr0 2.543349 1_555
S11 Zr1 2.543349 1_555
S11 Zr3 2.543349 1_555
S12 Zr0 2.553365 1_555
S12 Zr2 2.553365 1_545
S13 Zr3 2.553365 1_555
S13 Zr1 2.553365 1_545
S14 Zr0 2.553365 1_555
S14 Zr2 2.553365 1_555
S15 Zr1 2.553365 1_555
S15 Zr3 2.553365 1_555
