# generated using pymatgen
data_MgCu2P2O9
_symmetry_space_group_name_H-M   'P 1'
_cell_length_a   6.23485400
_cell_length_b   7.14181700
_cell_length_c   14.29443900
_cell_angle_alpha   90.00000000
_cell_angle_beta   90.00000000
_cell_angle_gamma   90.00000000
_symmetry_Int_Tables_number   1
_chemical_formula_structural   MgCu2P2O9
_chemical_formula_sum   'Mg4 Cu8 P8 O36'
_cell_volume   636.50544270
_cell_formula_units_Z   4
loop_
 _symmetry_equiv_pos_site_id
 _symmetry_equiv_pos_as_xyz
  1  'x, y, z'
loop_
 _atom_site_type_symbol
 _atom_site_label
 _atom_site_symmetry_multiplicity
 _atom_site_fract_x
 _atom_site_fract_y
 _atom_site_fract_z
 _atom_site_occupancy
  Mg  Mg0  1  0.25000000  0.39632200  0.77656600  1
  Mg  Mg1  1  0.25000000  0.10367800  0.27656600  1
  Mg  Mg2  1  0.75000000  0.89632200  0.72343400  1
  Mg  Mg3  1  0.75000000  0.60367800  0.22343400  1
  Cu  Cu0  1  0.25000000  0.85283500  0.87937600  1
  Cu  Cu1  1  0.75000000  0.14716500  0.12062400  1
  Cu  Cu2  1  0.75000000  0.35283500  0.62062400  1
  Cu  Cu3  1  0.25000000  0.64716500  0.37937600  1
  Cu  Cu4  1  0.00000000  0.50000000  0.00000000  1
  Cu  Cu5  1  0.00000000  0.00000000  0.50000000  1
  Cu  Cu6  1  0.50000000  0.00000000  0.50000000  1
  Cu  Cu7  1  0.50000000  0.50000000  0.00000000  1
  P  P0  1  0.75000000  0.86677700  0.92935700  1
  P  P1  1  0.25000000  0.13322300  0.07064300  1
  P  P2  1  0.25000000  0.36677700  0.57064300  1
  P  P3  1  0.75000000  0.63322300  0.42935700  1
  P  P4  1  0.25000000  0.88655300  0.69762400  1
  P  P5  1  0.25000000  0.61344700  0.19762400  1
  P  P6  1  0.75000000  0.38655300  0.80237600  1
  P  P7  1  0.75000000  0.11344700  0.30237600  1
  O  O0  1  0.53856900  0.11117400  0.35980700  1
  O  O1  1  0.03856900  0.88882600  0.64019300  1
  O  O2  1  0.46143100  0.61117400  0.14019300  1
  O  O3  1  0.96143100  0.38882600  0.85980700  1
  O  O4  1  0.46143100  0.88882600  0.64019300  1
  O  O5  1  0.96143100  0.11117400  0.35980700  1
  O  O6  1  0.53856900  0.38882600  0.85980700  1
  O  O7  1  0.03856900  0.61117400  0.14019300  1
  O  O8  1  0.75000000  0.82929000  0.47966300  1
  O  O9  1  0.25000000  0.17071000  0.52033700  1
  O  O10  1  0.25000000  0.32929000  0.02033700  1
  O  O11  1  0.75000000  0.67071000  0.97966300  1
  O  O12  1  0.25000000  0.62549400  0.94904700  1
  O  O13  1  0.75000000  0.37450600  0.05095300  1
  O  O14  1  0.75000000  0.12549400  0.55095300  1
  O  O15  1  0.25000000  0.87450600  0.44904700  1
  O  O16  1  0.25000000  0.70308300  0.75859200  1
  O  O17  1  0.75000000  0.29691700  0.24140800  1
  O  O18  1  0.75000000  0.20308300  0.74140800  1
  O  O19  1  0.25000000  0.79691700  0.25859200  1
  O  O20  1  0.93634300  0.62866000  0.35741600  1
  O  O21  1  0.43634300  0.37134000  0.64258400  1
  O  O22  1  0.06365700  0.12866000  0.14258400  1
  O  O23  1  0.56365700  0.87134000  0.85741600  1
  O  O24  1  0.06365700  0.37134000  0.64258400  1
  O  O25  1  0.56365700  0.62866000  0.35741600  1
  O  O26  1  0.93634300  0.87134000  0.85741600  1
  O  O27  1  0.43634300  0.12866000  0.14258400  1
  O  O28  1  0.25000000  0.97779300  0.00037500  1
  O  O29  1  0.75000000  0.54928900  0.72918400  1
  O  O30  1  0.75000000  0.95071100  0.22918400  1
  O  O31  1  0.25000000  0.04928900  0.77081600  1
  O  O32  1  0.25000000  0.52220700  0.50037500  1
  O  O33  1  0.75000000  0.47779300  0.49962500  1
  O  O34  1  0.75000000  0.02220700  0.99962500  1
  O  O35  1  0.25000000  0.45071100  0.27081600  1
loop_
_geom_bond_atom_site_label_1
_geom_bond_atom_site_label_2
_geom_bond_distance
_geom_bond_site_symmetry_2
Mg0 O6 2.157720 1_555
Mg0 O3 2.157720 1_455
Mg0 O16 2.205845 1_555
Mg0 O21 2.247141 1_555
Mg0 O24 2.247141 1_555
Mg0 O31 2.479809 1_555
Mg1 O0 2.157720 1_555
Mg1 O5 2.157720 1_455
Mg1 O19 2.205845 1_545
Mg1 O27 2.247141 1_555
Mg1 O22 2.247141 1_555
Mg1 O35 2.479809 1_555
Mg2 O4 2.157720 1_555
Mg2 O1 2.157720 1_655
Mg2 O18 2.205845 1_565
Mg2 O26 2.247141 1_555
Mg2 O23 2.247141 1_555
Mg2 O29 2.479809 1_555
Mg3 O2 2.157720 1_555
Mg3 O7 2.157720 1_655
Mg3 O17 2.205845 1_555
Mg3 O20 2.247141 1_555
Mg3 O25 2.247141 1_555
Mg3 O30 2.479809 1_555
Cu0 O12 1.904731 1_555
Cu0 O28 1.946275 1_556
Cu0 O23 1.985043 1_555
Cu0 O26 1.985043 1_455
Cu0 O16 2.030953 1_555
Cu0 O31 2.092036 1_565
Cu1 O13 1.904731 1_555
Cu1 O34 1.946275 1_554
Cu1 O22 1.985043 1_655
Cu1 O27 1.985043 1_555
Cu1 O17 2.030953 1_555
Cu1 O30 2.092036 1_545
Cu2 O14 1.904731 1_555
Cu2 O33 1.946275 1_555
Cu2 O24 1.985043 1_655
Cu2 O21 1.985043 1_555
Cu2 O18 2.030953 1_555
Cu2 O29 2.092036 1_555
Cu3 O15 1.904731 1_555
Cu3 O32 1.946275 1_555
Cu3 O25 1.985043 1_555
Cu3 O20 1.985043 1_455
Cu3 O19 2.030953 1_555
Cu3 O35 2.092036 1_555
Cu4 O12 1.939935 1_554
Cu4 O13 1.939935 1_455
Cu4 O10 2.000124 1_555
Cu4 O11 2.000124 1_454
Cu4 O7 2.168911 1_555
Cu4 O3 2.168911 1_454
Cu5 O14 1.939935 1_455
Cu5 O15 1.939935 1_545
Cu5 O9 2.000124 1_555
Cu5 O8 2.000124 1_445
Cu5 O1 2.168911 1_545
Cu5 O5 2.168911 1_455
Cu6 O14 1.939935 1_555
Cu6 O15 1.939935 1_545
Cu6 O9 2.000124 1_555
Cu6 O8 2.000124 1_545
Cu6 O4 2.168911 1_545
Cu6 O0 2.168911 1_555
Cu7 O12 1.939935 1_554
Cu7 O13 1.939935 1_555
Cu7 O10 2.000124 1_555
Cu7 O11 2.000124 1_554
Cu7 O2 2.168911 1_555
Cu7 O6 2.168911 1_554
O0 P7 1.553053 1_555
O1 P4 1.553053 1_555
O2 P5 1.553053 1_555
O3 P6 1.553053 1_555
O4 P4 1.553053 1_555
O5 P7 1.553053 1_555
O6 P6 1.553053 1_555
O7 P5 1.553053 1_555
O8 P3 1.574125 1_555
O9 P2 1.574125 1_555
O10 P1 1.574125 1_555
O11 P0 1.574125 1_555
O16 P4 1.573667 1_555
O17 P7 1.573667 1_555
O18 P6 1.573667 1_555
O19 P5 1.573667 1_555
O20 P3 1.551904 1_555
O21 P2 1.551904 1_555
O22 P1 1.551904 1_555
O23 P0 1.551904 1_555
O24 P2 1.551904 1_555
O25 P3 1.551904 1_555
O26 P0 1.551904 1_555
O27 P1 1.551904 1_555
O28 P1 1.497037 1_565
O29 P6 1.563776 1_555
O30 P7 1.563776 1_565
O31 P4 1.563776 1_545
O32 P2 1.497037 1_555
O33 P3 1.497037 1_555
O34 P0 1.497037 1_545
O35 P5 1.563776 1_555
