# generated using pymatgen
data_SrGa4O7
_symmetry_space_group_name_H-M   'P 1'
_cell_length_a   8.18328660
_cell_length_b   8.18328660
_cell_length_c   5.72339816
_cell_angle_alpha   77.05014780
_cell_angle_beta   77.05014780
_cell_angle_gamma   68.74672790
_symmetry_Int_Tables_number   1
_chemical_formula_structural   SrGa4O7
_chemical_formula_sum   'Sr2 Ga8 O14'
_cell_volume   343.78827194
_cell_formula_units_Z   2
loop_
 _symmetry_equiv_pos_site_id
 _symmetry_equiv_pos_as_xyz
  1  'x, y, z'
loop_
 _atom_site_type_symbol
 _atom_site_label
 _atom_site_symmetry_multiplicity
 _atom_site_fract_x
 _atom_site_fract_y
 _atom_site_fract_z
 _atom_site_occupancy
  Sr  Sr0  1  0.31320436  0.68679564  0.75000000  1
  Sr  Sr1  1  0.68679564  0.31320436  0.25000000  1
  Ga  Ga0  1  0.75650165  0.58018134  0.70297705  1
  Ga  Ga1  1  0.41981866  0.24349835  0.79702295  1
  Ga  Ga2  1  0.24349835  0.41981866  0.29702295  1
  Ga  Ga3  1  0.58018134  0.75650165  0.20297705  1
  Ga  Ga4  1  0.05902222  0.17990975  0.74099234  1
  Ga  Ga5  1  0.82009025  0.94097778  0.75900766  1
  Ga  Ga6  1  0.17990975  0.05902222  0.24099234  1
  Ga  Ga7  1  0.94097778  0.82009025  0.25900766  1
  O  O0  1  0.03535938  0.96464062  0.75000000  1
  O  O1  1  0.96464062  0.03535938  0.25000000  1
  O  O2  1  0.87840054  0.36312338  0.85437467  1
  O  O3  1  0.63687662  0.12159946  0.64562533  1
  O  O4  1  0.12159946  0.63687662  0.14562533  1
  O  O5  1  0.36312338  0.87840054  0.35437467  1
  O  O6  1  0.33800710  0.42980952  0.55329404  1
  O  O7  1  0.57019048  0.66199290  0.94670596  1
  O  O8  1  0.74843079  0.87422320  0.09424975  1
  O  O9  1  0.12577680  0.25156921  0.40575025  1
  O  O10  1  0.25156921  0.12577680  0.90575025  1
  O  O11  1  0.87422320  0.74843079  0.59424975  1
  O  O12  1  0.42980952  0.33800710  0.05329404  1
  O  O13  1  0.66199290  0.57019048  0.44670596  1
loop_
_geom_bond_atom_site_label_1
_geom_bond_atom_site_label_2
_geom_bond_distance
_geom_bond_site_symmetry_2
Ga0 O2 1.820431 1_555
Ga0 O13 1.834164 1_555
Ga0 O7 1.855796 1_555
Ga0 O11 1.876128 1_555
Ga1 O3 1.820431 1_555
Ga1 O12 1.834164 1_556
Ga1 O6 1.855796 1_555
Ga1 O10 1.876128 1_555
Ga2 O4 1.820431 1_555
Ga2 O6 1.834164 1_555
Ga2 O12 1.855796 1_555
Ga2 O9 1.876128 1_555
Ga3 O5 1.820431 1_555
Ga3 O7 1.834164 1_554
Ga3 O13 1.855796 1_555
Ga3 O8 1.876128 1_555
Ga4 O2 1.803679 1_455
Ga4 O0 1.829083 1_545
Ga4 O10 1.881713 1_555
Ga4 O9 1.892608 1_555
Ga5 O3 1.803679 1_565
Ga5 O0 1.829083 1_655
Ga5 O11 1.881713 1_555
Ga5 O8 1.892608 1_556
Ga6 O5 1.803679 1_545
Ga6 O1 1.829083 1_455
Ga6 O9 1.881713 1_555
Ga6 O10 1.892608 1_554
Ga7 O4 1.803679 1_655
Ga7 O1 1.829083 1_565
Ga7 O8 1.881713 1_555
Ga7 O11 1.892608 1_555
O0 Sr0 2.567370 1_555
O1 Sr1 2.567370 1_555
O2 Sr1 2.492197 1_556
O3 Sr1 2.492197 1_555
O4 Sr0 2.492197 1_554
O5 Sr0 2.492197 1_555
O6 Sr0 2.525972 1_555
O6 Sr1 2.935588 1_555
O7 Sr0 2.525972 1_555
O7 Sr1 2.935588 1_556
O12 Sr1 2.525972 1_555
O12 Sr0 2.935588 1_554
O13 Sr1 2.525972 1_555
O13 Sr0 2.935588 1_555
