# generated using pymatgen
data_LiAl2(HO2)2
_symmetry_space_group_name_H-M   'P 1'
_cell_length_a   7.96259934
_cell_length_b   7.96259934
_cell_length_c   3.75161449
_cell_angle_alpha   103.52969017
_cell_angle_beta   103.52969017
_cell_angle_gamma   20.73103590
_symmetry_Int_Tables_number   1
_chemical_formula_structural   LiAl2(HO2)2
_chemical_formula_sum   'Li1 Al2 H2 O4'
_cell_volume   81.78334289
_cell_formula_units_Z   1
loop_
 _symmetry_equiv_pos_site_id
 _symmetry_equiv_pos_as_xyz
  1  'x, y, z'
loop_
 _atom_site_type_symbol
 _atom_site_label
 _atom_site_symmetry_multiplicity
 _atom_site_fract_x
 _atom_site_fract_y
 _atom_site_fract_z
 _atom_site_occupancy
  Li  Li0  1  0.50581000  0.50581000  0.77791800  1
  Al  Al0  1  0.69946700  0.69946700  0.18435300  1
  Al  Al1  1  0.30969600  0.30969600  0.79390400  1
  H  H0  1  0.07584400  0.07584400  0.27900600  1
  H  H1  1  0.93290100  0.93290100  0.13325600  1
  O  O0  1  0.28613500  0.28613500  0.27100500  1
  O  O1  1  0.72278100  0.72278100  0.70808500  1
  O  O2  1  0.11464000  0.11464000  0.09389000  1
  O  O3  1  0.89439200  0.89439200  0.87189100  1
loop_
_geom_bond_atom_site_label_1
_geom_bond_atom_site_label_2
_geom_bond_distance
_geom_bond_site_symmetry_2
Li0 O2 2.324441 1_566
Li0 O2 2.324441 1_656
Li0 O3 2.348614 1_455
Li0 O3 2.348614 1_545
Al0 O1 1.906921 1_554
Al0 O1 1.911191 1_555
Al0 O2 1.928491 1_655
Al0 O2 1.928491 1_565
Al0 O0 1.947211 1_655
Al0 O0 1.947211 1_565
Al1 O0 1.907918 1_555
Al1 O0 1.911597 1_556
Al1 O3 1.927153 1_545
Al1 O3 1.927153 1_455
Al1 O1 1.949758 1_455
Al1 O1 1.949758 1_545
H0 O2 1.025882 1_555
H1 O3 1.021771 1_554
