# generated using pymatgen
data_Mg2Cu3Ge
_symmetry_space_group_name_H-M   'P 1'
_cell_length_a   5.01599923
_cell_length_b   5.01599923
_cell_length_c   7.95531257
_cell_angle_alpha   90.00000000
_cell_angle_beta   90.00000000
_cell_angle_gamma   120.00000462
_symmetry_Int_Tables_number   1
_chemical_formula_structural   Mg2Cu3Ge
_chemical_formula_sum   'Mg4 Cu6 Ge2'
_cell_volume   173.34159241
_cell_formula_units_Z   2
loop_
 _symmetry_equiv_pos_site_id
 _symmetry_equiv_pos_as_xyz
  1  'x, y, z'
loop_
 _atom_site_type_symbol
 _atom_site_label
 _atom_site_symmetry_multiplicity
 _atom_site_fract_x
 _atom_site_fract_y
 _atom_site_fract_z
 _atom_site_occupancy
  Mg  Mg0  1  0.33333300  0.66666700  0.43744589  1
  Mg  Mg1  1  0.66666700  0.33333300  0.56255411  1
  Mg  Mg2  1  0.66666700  0.33333300  0.93744589  1
  Mg  Mg3  1  0.33333300  0.66666700  0.06255411  1
  Cu  Cu0  1  0.82918814  0.17081186  0.25000000  1
  Cu  Cu1  1  0.82918814  0.65837728  0.25000000  1
  Cu  Cu2  1  0.34162272  0.17081186  0.25000000  1
  Cu  Cu3  1  0.17081186  0.82918814  0.75000000  1
  Cu  Cu4  1  0.17081186  0.34162272  0.75000000  1
  Cu  Cu5  1  0.65837728  0.82918814  0.75000000  1
  Ge  Ge0  1  -0.00000000  0.00000000  0.50000000  1
  Ge  Ge1  1  -0.00000000  0.00000000  -0.00000000  1
loop_
_geom_bond_atom_site_label_1
_geom_bond_atom_site_label_2
_geom_bond_distance
_geom_bond_site_symmetry_2
Cu0 Cu1 2.445628 1_555
Cu0 Cu2 2.445628 1_555
Cu0 Ge1 2.481475 1_655
Cu0 Ge0 2.481475 1_655
Cu0 Cu2 2.570371 1_655
Cu0 Cu1 2.570371 1_545
Cu0 Mg1 2.859404 1_555
Cu0 Mg2 2.859404 1_554
Cu0 Mg0 2.918049 1_545
Cu0 Mg3 2.918049 1_655
Cu0 Mg0 2.918049 1_655
Cu0 Mg3 2.918049 1_545
Cu1 Cu2 2.445628 1_555
Cu1 Ge1 2.481472 1_665
Cu1 Ge0 2.481472 1_665
Cu1 Cu2 2.570371 1_665
Cu1 Mg1 2.859409 1_555
Cu1 Mg2 2.859409 1_554
Cu1 Mg0 2.918049 1_655
Cu1 Mg3 2.918049 1_655
Cu1 Mg3 2.918049 1_555
Cu1 Mg0 2.918049 1_555
Cu2 Ge0 2.481472 1_555
Cu2 Ge1 2.481472 1_555
Cu2 Mg1 2.859409 1_555
Cu2 Mg2 2.859409 1_554
Cu2 Mg3 2.918049 1_545
Cu2 Mg0 2.918049 1_545
Cu2 Mg3 2.918049 1_555
Cu2 Mg0 2.918049 1_555
Cu3 Cu4 2.445628 1_555
Cu3 Cu5 2.445628 1_555
Cu3 Ge1 2.481475 1_566
Cu3 Ge0 2.481475 1_565
Cu3 Cu4 2.570371 1_565
Cu3 Cu5 2.570371 1_455
Cu3 Mg3 2.859404 1_556
Cu3 Mg0 2.859404 1_555
Cu3 Mg1 2.918049 1_455
Cu3 Mg2 2.918049 1_455
Cu3 Mg2 2.918049 1_565
Cu3 Mg1 2.918049 1_565
Cu4 Cu5 2.445628 1_555
Cu4 Ge0 2.481472 1_555
Cu4 Ge1 2.481472 1_556
Cu4 Cu5 2.570371 1_445
Cu4 Mg0 2.859409 1_555
Cu4 Mg3 2.859409 1_556
Cu4 Mg1 2.918049 1_455
Cu4 Mg2 2.918049 1_455
Cu4 Mg1 2.918049 1_555
Cu4 Mg2 2.918049 1_555
Cu5 Ge1 2.481472 1_666
Cu5 Ge0 2.481472 1_665
Cu5 Mg3 2.859409 1_556
Cu5 Mg0 2.859409 1_555
Cu5 Mg2 2.918049 1_565
Cu5 Mg1 2.918049 1_565
Cu5 Mg2 2.918049 1_555
Cu5 Mg1 2.918049 1_555
Ge0 Mg0 2.938431 1_545
Ge0 Mg1 2.938431 1_455
Ge0 Mg0 2.938435 1_555
Ge0 Mg1 2.938435 1_445
Ge0 Mg0 2.938435 1_445
Ge0 Mg1 2.938435 1_555
Ge1 Mg2 2.938431 1_454
Ge1 Mg3 2.938431 1_545
Ge1 Mg2 2.938435 1_444
Ge1 Mg3 2.938435 1_555
Ge1 Mg2 2.938435 1_554
Ge1 Mg3 2.938435 1_445
