# generated using pymatgen
data_Mg2MnCo3S8
_symmetry_space_group_name_H-M   'P 1'
_cell_length_a   6.99321304
_cell_length_b   6.97434914
_cell_length_c   6.99876870
_cell_angle_alpha   59.93135238
_cell_angle_beta   60.00847855
_cell_angle_gamma   59.89110937
_symmetry_Int_Tables_number   1
_chemical_formula_structural   Mg2MnCo3S8
_chemical_formula_sum   'Mg2 Mn1 Co3 S8'
_cell_volume   241.06308354
_cell_formula_units_Z   1
loop_
 _symmetry_equiv_pos_site_id
 _symmetry_equiv_pos_as_xyz
  1  'x, y, z'
loop_
 _atom_site_type_symbol
 _atom_site_label
 _atom_site_symmetry_multiplicity
 _atom_site_fract_x
 _atom_site_fract_y
 _atom_site_fract_z
 _atom_site_occupancy
  Mg  Mg0  1  0.87491100  0.87527600  0.87485900  1
  Mg  Mg1  1  0.12509300  0.12471300  0.12514900  1
  Mn  Mn0  1  0.50000200  0.00002900  0.49999600  1
  Co  Co0  1  0.49999900  0.50000500  0.49999400  1
  Co  Co1  1  0.49999800  0.49999300  0.00000000  1
  Co  Co2  1  0.99999900  0.49999500  0.50000300  1
  S  S0  1  0.73584900  0.72596000  0.73580800  1
  S  S1  1  0.26417200  0.27406900  0.69757300  1
  S  S2  1  0.26847400  0.69457400  0.26847900  1
  S  S3  1  0.69763500  0.27402600  0.26418400  1
  S  S4  1  0.73152000  0.30541700  0.73151300  1
  S  S5  1  0.30236900  0.72597500  0.73580900  1
  S  S6  1  0.26415300  0.27402500  0.26420300  1
  S  S7  1  0.73583200  0.72593800  0.30243000  1
loop_
_geom_bond_atom_site_label_1
_geom_bond_atom_site_label_2
_geom_bond_distance
_geom_bond_site_symmetry_2
Mg0 S5 2.439552 1_655
Mg0 S0 2.440308 1_555
Mg0 S7 2.443153 1_556
Mg0 S4 2.446108 1_565
Mg1 S3 2.439553 1_455
Mg1 S6 2.440290 1_555
Mg1 S1 2.443183 1_554
Mg1 S2 2.446096 1_545
Mn0 S1 2.343265 1_555
Mn0 S7 2.343484 1_545
Mn0 S6 2.343987 1_555
Mn0 S3 2.344083 1_555
Mn0 S0 2.344120 1_545
Mn0 S5 2.344385 1_545
Co0 S5 2.293137 1_555
Co0 S3 2.293153 1_555
Co0 S1 2.293217 1_555
Co0 S7 2.293244 1_555
Co0 S4 2.302916 1_555
Co0 S2 2.302931 1_555
Co1 S6 2.293862 1_555
Co1 S0 2.293877 1_554
Co1 S5 2.293931 1_554
Co1 S3 2.293932 1_555
Co1 S2 2.302849 1_555
Co1 S4 2.302869 1_554
Co2 S0 2.292881 1_555
Co2 S6 2.292883 1_655
Co2 S7 2.292961 1_555
Co2 S1 2.292981 1_655
Co2 S2 2.302939 1_655
Co2 S4 2.302956 1_555
