# generated using pymatgen
data_LaZn13
_symmetry_space_group_name_H-M   'P 1'
_cell_length_a   8.52763576
_cell_length_b   8.52763576
_cell_length_c   8.52763576
_cell_angle_alpha   60.00000000
_cell_angle_beta   60.00000000
_cell_angle_gamma   60.00000000
_symmetry_Int_Tables_number   1
_chemical_formula_structural   LaZn13
_chemical_formula_sum   'La2 Zn26'
_cell_volume   438.50134293
_cell_formula_units_Z   2
loop_
 _symmetry_equiv_pos_site_id
 _symmetry_equiv_pos_as_xyz
  1  'x, y, z'
loop_
 _atom_site_type_symbol
 _atom_site_label
 _atom_site_symmetry_multiplicity
 _atom_site_fract_x
 _atom_site_fract_y
 _atom_site_fract_z
 _atom_site_occupancy
  La  La0  1  0.75000000  0.75000000  0.75000000  1
  La  La1  1  0.25000000  0.25000000  0.25000000  1
  Zn  Zn0  1  0.50000000  0.50000000  0.50000000  1
  Zn  Zn1  1  0.00000000  0.00000000  -0.00000000  1
  Zn  Zn2  1  0.79946845  0.44206212  0.20053155  1
  Zn  Zn3  1  0.20053155  0.55793788  0.79946845  1
  Zn  Zn4  1  0.55793788  0.20053155  0.44206212  1
  Zn  Zn5  1  0.44206212  0.79946845  0.55793788  1
  Zn  Zn6  1  0.29946845  0.05793788  0.70053155  1
  Zn  Zn7  1  0.70053155  0.94206212  0.29946845  1
  Zn  Zn8  1  0.94206212  0.70053155  0.05793788  1
  Zn  Zn9  1  0.05793788  0.29946845  0.94206212  1
  Zn  Zn10  1  0.44206212  0.20053155  0.79946845  1
  Zn  Zn11  1  0.55793788  0.79946845  0.20053155  1
  Zn  Zn12  1  0.20053155  0.44206212  0.55793788  1
  Zn  Zn13  1  0.79946845  0.55793788  0.44206212  1
  Zn  Zn14  1  0.05793788  0.70053155  0.29946845  1
  Zn  Zn15  1  0.94206212  0.29946845  0.70053155  1
  Zn  Zn16  1  0.70053155  0.05793788  0.94206212  1
  Zn  Zn17  1  0.29946845  0.94206212  0.05793788  1
  Zn  Zn18  1  0.20053155  0.79946845  0.44206212  1
  Zn  Zn19  1  0.79946845  0.20053155  0.55793788  1
  Zn  Zn20  1  0.44206212  0.55793788  0.20053155  1
  Zn  Zn21  1  0.55793788  0.44206212  0.79946845  1
  Zn  Zn22  1  0.70053155  0.29946845  0.05793788  1
  Zn  Zn23  1  0.29946845  0.70053155  0.94206212  1
  Zn  Zn24  1  0.05793788  0.94206212  0.70053155  1
  Zn  Zn25  1  0.94206212  0.05793788  0.29946845  1
loop_
_geom_bond_atom_site_label_1
_geom_bond_atom_site_label_2
_geom_bond_distance
_geom_bond_site_symmetry_2
La0 Zn10 3.501212 1_565
La0 Zn18 3.501212 1_655
La0 Zn11 3.501212 1_556
La0 Zn15 3.501212 1_555
La0 Zn20 3.501212 1_556
La0 Zn19 3.501212 1_565
La0 Zn23 3.501212 1_555
La0 Zn13 3.501212 1_555
La0 Zn7 3.501212 1_555
La0 Zn4 3.501212 1_565
La0 Zn3 3.501212 1_655
La0 Zn2 3.501212 1_556
La0 Zn21 3.501212 1_555
La0 Zn5 3.501212 1_555
La0 Zn12 3.501212 1_655
La0 Zn9 3.501212 1_655
La0 Zn25 3.501212 1_565
La0 Zn17 3.501212 1_556
La0 Zn6 3.501212 1_565
La0 Zn22 3.501212 1_556
La0 Zn14 3.501212 1_655
La0 Zn16 3.501212 1_565
La0 Zn24 3.501212 1_655
La0 Zn8 3.501212 1_556
La1 Zn20 3.501212 1_555
La1 Zn5 3.501212 1_545
La1 Zn8 3.501212 1_455
La1 Zn23 3.501212 1_554
La1 Zn17 3.501212 1_545
La1 Zn7 3.501212 1_545
La1 Zn14 3.501212 1_555
La1 Zn4 3.501212 1_555
La1 Zn21 3.501212 1_554
La1 Zn19 3.501212 1_455
La1 Zn9 3.501212 1_554
La1 Zn10 3.501212 1_554
La1 Zn12 3.501212 1_555
La1 Zn16 3.501212 1_554
La1 Zn15 3.501212 1_455
La1 Zn11 3.501212 1_545
La1 Zn2 3.501212 1_455
La1 Zn3 3.501212 1_554
La1 Zn24 3.501212 1_545
La1 Zn18 3.501212 1_545
La1 Zn25 3.501212 1_455
La1 Zn13 3.501212 1_455
La1 Zn22 3.501212 1_555
La1 Zn6 3.501212 1_555
Zn0 Zn20 2.601113 1_555
Zn0 Zn12 2.601113 1_555
Zn0 Zn13 2.601113 1_555
Zn0 Zn21 2.601113 1_555
Zn0 Zn18 2.601113 1_555
Zn0 Zn5 2.601113 1_555
Zn0 Zn2 2.601113 1_555
Zn0 Zn10 2.601113 1_555
Zn0 Zn3 2.601113 1_555
Zn0 Zn19 2.601113 1_555
Zn0 Zn4 2.601113 1_555
Zn0 Zn11 2.601113 1_555
Zn1 Zn8 2.601113 1_445
Zn1 Zn17 2.601113 1_545
Zn1 Zn15 2.601113 1_454
Zn1 Zn24 2.601113 1_544
Zn1 Zn14 2.601113 1_545
Zn1 Zn16 2.601113 1_454
Zn1 Zn25 2.601113 1_455
Zn1 Zn22 2.601113 1_455
Zn1 Zn7 2.601113 1_445
Zn1 Zn9 2.601113 1_554
Zn1 Zn6 2.601113 1_554
Zn1 Zn23 2.601113 1_544
Zn2 Zn8 2.517306 1_555
Zn2 Zn9 2.517306 1_654
Zn2 Zn25 2.683198 1_555
Zn2 Zn22 2.683198 1_555
Zn2 Zn20 2.693326 1_555
Zn2 Zn4 2.912834 1_555
Zn3 Zn9 2.517306 1_555
Zn3 Zn8 2.517306 1_456
Zn3 Zn5 2.912834 1_555
Zn4 Zn7 2.517306 1_545
Zn4 Zn6 2.517306 1_555
Zn5 Zn7 2.517306 1_555
Zn5 Zn6 2.517306 1_565
Zn6 Zn9 2.912834 1_555
Zn7 Zn8 2.912834 1_555
Zn10 Zn16 2.517306 1_555
Zn10 Zn17 2.517306 1_546
Zn10 Zn9 2.683198 1_555
Zn10 Zn6 2.683198 1_555
Zn10 Zn3 2.693326 1_555
Zn10 Zn19 2.693326 1_555
Zn10 Zn4 2.693326 1_555
Zn10 Zn21 2.693326 1_555
Zn10 Zn12 2.912834 1_555
Zn11 Zn17 2.517306 1_555
Zn11 Zn16 2.517306 1_564
Zn11 Zn7 2.683198 1_555
Zn11 Zn8 2.683198 1_555
Zn11 Zn5 2.693326 1_555
Zn11 Zn20 2.693326 1_555
Zn11 Zn18 2.693326 1_555
Zn11 Zn2 2.693326 1_555
Zn11 Zn13 2.912834 1_555
Zn12 Zn15 2.517306 1_455
Zn12 Zn14 2.517306 1_555
Zn12 Zn6 2.683198 1_555
Zn12 Zn9 2.683198 1_555
Zn12 Zn18 2.693326 1_555
Zn12 Zn4 2.693326 1_555
Zn12 Zn3 2.693326 1_555
Zn12 Zn20 2.693326 1_555
Zn13 Zn15 2.517306 1_555
Zn13 Zn14 2.517306 1_655
Zn13 Zn7 2.683198 1_555
Zn13 Zn8 2.683198 1_555
Zn13 Zn5 2.693326 1_555
Zn13 Zn19 2.693326 1_555
Zn13 Zn21 2.693326 1_555
Zn13 Zn2 2.693326 1_555
Zn14 Zn18 2.683198 1_555
Zn14 Zn20 2.683198 1_555
Zn14 Zn23 2.693326 1_554
Zn14 Zn8 2.693326 1_455
Zn14 Zn7 2.693326 1_455
Zn14 Zn25 2.693326 1_465
Zn14 Zn17 2.912834 1_555
Zn15 Zn19 2.683198 1_555
Zn15 Zn21 2.683198 1_555
Zn15 Zn24 2.693326 1_645
Zn15 Zn6 2.693326 1_655
Zn15 Zn22 2.693326 1_556
Zn15 Zn9 2.693326 1_655
Zn15 Zn16 2.912834 1_555
Zn16 Zn19 2.683198 1_555
Zn16 Zn21 2.683198 1_555
Zn16 Zn8 2.693326 1_546
Zn16 Zn7 2.693326 1_546
Zn16 Zn22 2.693326 1_556
Zn16 Zn24 2.693326 1_645
Zn17 Zn18 2.683198 1_555
Zn17 Zn20 2.683198 1_555
Zn17 Zn9 2.693326 1_564
Zn17 Zn6 2.693326 1_564
Zn17 Zn23 2.693326 1_554
Zn17 Zn25 2.693326 1_465
Zn18 Zn24 2.517306 1_555
Zn18 Zn25 2.517306 1_465
Zn18 Zn3 2.693326 1_555
Zn18 Zn5 2.693326 1_555
Zn18 Zn20 2.912834 1_555
Zn19 Zn25 2.517306 1_555
Zn19 Zn24 2.517306 1_645
Zn19 Zn4 2.693326 1_555
Zn19 Zn2 2.693326 1_555
Zn19 Zn21 2.912834 1_555
Zn20 Zn23 2.517306 1_554
Zn20 Zn22 2.517306 1_555
Zn20 Zn4 2.693326 1_555
Zn21 Zn23 2.517306 1_555
Zn21 Zn22 2.517306 1_556
Zn21 Zn3 2.693326 1_555
Zn21 Zn5 2.693326 1_555
Zn22 Zn4 2.683198 1_555
Zn22 Zn7 2.693326 1_545
Zn22 Zn9 2.693326 1_654
Zn22 Zn25 2.912834 1_555
Zn23 Zn3 2.683198 1_555
Zn23 Zn5 2.683198 1_555
Zn23 Zn8 2.693326 1_456
Zn23 Zn6 2.693326 1_565
Zn23 Zn24 2.912834 1_555
Zn24 Zn3 2.683198 1_555
Zn24 Zn5 2.683198 1_555
Zn24 Zn8 2.693326 1_456
Zn24 Zn6 2.693326 1_565
Zn25 Zn4 2.683198 1_555
Zn25 Zn7 2.693326 1_545
Zn25 Zn9 2.693326 1_654
