# generated using pymatgen
data_HoAlCu4
_symmetry_space_group_name_H-M   'P 1'
_cell_length_a   5.15930371
_cell_length_b   5.15930371
_cell_length_c   4.00801500
_cell_angle_alpha   90.00000000
_cell_angle_beta   90.00000000
_cell_angle_gamma   119.99999634
_symmetry_Int_Tables_number   1
_chemical_formula_structural   HoAlCu4
_chemical_formula_sum   'Ho1 Al1 Cu4'
_cell_volume   92.39366074
_cell_formula_units_Z   1
loop_
 _symmetry_equiv_pos_site_id
 _symmetry_equiv_pos_as_xyz
  1  'x, y, z'
loop_
 _atom_site_type_symbol
 _atom_site_label
 _atom_site_symmetry_multiplicity
 _atom_site_fract_x
 _atom_site_fract_y
 _atom_site_fract_z
 _atom_site_occupancy
  Ho  Ho0  1  0.66666700  0.33333300  0.00000000  1
  Al  Al0  1  0.00000000  0.00000000  0.00000000  1
  Cu  Cu0  1  0.33333300  0.66666700  0.00000000  1
  Cu  Cu1  1  0.66436100  0.83218100  0.50000000  1
  Cu  Cu2  1  0.16781900  0.83218100  0.50000000  1
  Cu  Cu3  1  0.16781900  0.33563900  0.50000000  1
loop_
_geom_bond_atom_site_label_1
_geom_bond_atom_site_label_2
_geom_bond_distance
_geom_bond_site_symmetry_2
Al0 Cu2 2.503004 1_544
Al0 Cu2 2.503004 1_545
Al0 Cu3 2.503006 1_555
Al0 Cu3 2.503006 1_554
Al0 Cu1 2.503006 1_445
Al0 Cu1 2.503006 1_444
Al0 Ho0 2.978722 1_455
Al0 Cu0 2.978722 1_545
Al0 Ho0 2.978727 1_555
Al0 Cu0 2.978727 1_555
Al0 Cu0 2.978727 1_445
Al0 Ho0 2.978727 1_445
Cu0 Cu2 2.490717 1_555
Cu0 Cu2 2.490717 1_554
Cu0 Cu1 2.490717 1_554
Cu0 Cu1 2.490717 1_555
Cu0 Cu3 2.490717 1_554
Cu0 Cu3 2.490717 1_555
Cu0 Ho0 2.978723 1_455
Cu0 Ho0 2.978723 1_565
Cu0 Ho0 2.978731 1_555
Cu1 Cu2 2.561811 1_555
Cu1 Cu3 2.561811 1_555
Cu1 Cu2 2.597493 1_655
Cu1 Cu3 2.597493 1_665
Cu1 Ho0 3.266608 1_566
Cu1 Ho0 3.266608 1_565
Cu1 Ho0 3.266616 1_556
Cu1 Ho0 3.266616 1_555
Cu2 Cu3 2.561811 1_555
Cu2 Cu3 2.597493 1_565
Cu2 Ho0 3.266612 1_566
Cu2 Ho0 3.266612 1_456
Cu2 Ho0 3.266612 1_455
Cu2 Ho0 3.266612 1_565
Cu3 Ho0 3.266608 1_455
Cu3 Ho0 3.266608 1_456
Cu3 Ho0 3.266616 1_555
Cu3 Ho0 3.266616 1_556
