# generated using pymatgen
data_VCrMoO7
_symmetry_space_group_name_H-M   'P 1'
_cell_length_a   5.64009100
_cell_length_b   6.75485166
_cell_length_c   8.02104438
_cell_angle_alpha   96.01776598
_cell_angle_beta   90.03781601
_cell_angle_gamma   101.40602234
_symmetry_Int_Tables_number   1
_chemical_formula_structural   VCrMoO7
_chemical_formula_sum   'V2 Cr2 Mo2 O14'
_cell_volume   297.82794937
_cell_formula_units_Z   2
loop_
 _symmetry_equiv_pos_site_id
 _symmetry_equiv_pos_as_xyz
  1  'x, y, z'
loop_
 _atom_site_type_symbol
 _atom_site_label
 _atom_site_symmetry_multiplicity
 _atom_site_fract_x
 _atom_site_fract_y
 _atom_site_fract_z
 _atom_site_occupancy
  V  V0  1  0.69128400  0.76125700  0.33666000  1
  V  V1  1  0.30871600  0.23874300  0.66334000  1
  Cr  Cr0  1  0.17029800  0.68803800  0.59554000  1
  Cr  Cr1  1  0.82970200  0.31196200  0.40446000  1
  Mo  Mo0  1  0.70251800  0.78715400  0.89046800  1
  Mo  Mo1  1  0.29748200  0.21284600  0.10953200  1
  O  O0  1  0.77791600  0.04875000  0.89952500  1
  O  O1  1  0.22208400  0.95125000  0.10047500  1
  O  O2  1  0.42726900  0.70601400  0.76820900  1
  O  O3  1  0.57273100  0.29398600  0.23179100  1
  O  O4  1  0.93233700  0.68303500  0.78026600  1
  O  O5  1  0.06766300  0.31696500  0.21973400  1
  O  O6  1  0.20304700  0.98808000  0.61234700  1
  O  O7  1  0.79695300  0.01192000  0.38765300  1
  O  O8  1  0.10596700  0.37730600  0.57601800  1
  O  O9  1  0.89403300  0.62269400  0.42398200  1
  O  O10  1  0.33491800  0.29413600  0.89100400  1
  O  O11  1  0.66508200  0.70586400  0.10899600  1
  O  O12  1  0.58619400  0.30719600  0.58234800  1
  O  O13  1  0.41380600  0.69280400  0.41765200  1
loop_
_geom_bond_atom_site_label_1
_geom_bond_atom_site_label_2
_geom_bond_distance
_geom_bond_site_symmetry_2
Cr0 O13 1.979371 1_555
Cr0 O2 1.981413 1_555
Cr0 O6 1.988612 1_555
Cr0 O4 1.998259 1_455
Cr0 O9 2.028315 1_455
Cr0 O8 2.047327 1_555
Cr1 O12 1.979371 1_555
Cr1 O3 1.981413 1_555
Cr1 O7 1.988612 1_555
Cr1 O5 1.998259 1_655
Cr1 O8 2.028315 1_655
Cr1 O9 2.047327 1_555
Mo0 O0 1.727538 1_565
Mo0 O4 1.785455 1_555
Mo0 O2 1.794676 1_555
Mo0 O11 1.890746 1_556
Mo1 O1 1.727538 1_545
Mo1 O5 1.785455 1_555
Mo1 O3 1.794676 1_555
Mo1 O10 1.890746 1_554
O6 V1 1.686633 1_565
O7 V0 1.686633 1_545
O8 V1 1.798331 1_555
O9 V0 1.798331 1_555
O10 V1 1.825104 1_555
O11 V0 1.825104 1_555
O12 V1 1.692092 1_555
O13 V0 1.692092 1_555
