# generated using pymatgen
data_PrIO9
_symmetry_space_group_name_H-M   'P 1'
_cell_length_a   10.76668300
_cell_length_b   7.16754700
_cell_length_c   11.40864893
_cell_angle_alpha   51.61307148
_cell_angle_beta   90.00000000
_cell_angle_gamma   90.00000000
_symmetry_Int_Tables_number   1
_chemical_formula_structural   PrIO9
_chemical_formula_sum   'Pr4 I4 O36'
_cell_volume   690.09904231
_cell_formula_units_Z   4
loop_
 _symmetry_equiv_pos_site_id
 _symmetry_equiv_pos_as_xyz
  1  'x, y, z'
loop_
 _atom_site_type_symbol
 _atom_site_label
 _atom_site_symmetry_multiplicity
 _atom_site_fract_x
 _atom_site_fract_y
 _atom_site_fract_z
 _atom_site_occupancy
  Pr  Pr0  1  0.40525600  0.75295200  0.99641400  1
  Pr  Pr1  1  0.59474400  0.24704800  0.00358600  1
  Pr  Pr2  1  0.90525600  0.24704800  0.50358600  1
  Pr  Pr3  1  0.09474400  0.75295200  0.49641400  1
  I  I0  1  0.18029300  0.03981800  0.70724200  1
  I  I1  1  0.81970700  0.96018200  0.29275800  1
  I  I2  1  0.68029300  0.96018200  0.79275800  1
  I  I3  1  0.31970700  0.03981800  0.20724200  1
  O  O0  1  0.07575200  0.95093500  0.61345600  1
  O  O1  1  0.92424800  0.04906500  0.38654400  1
  O  O2  1  0.57575200  0.04906500  0.88654400  1
  O  O3  1  0.42424800  0.95093500  0.11345600  1
  O  O4  1  0.77198100  0.88940000  0.68213300  1
  O  O5  1  0.22801900  0.11060000  0.31786700  1
  O  O6  1  0.27198100  0.11060000  0.81786700  1
  O  O7  1  0.72801900  0.88940000  0.18213300  1
  O  O8  1  0.22618200  0.52415800  0.21664700  1
  O  O9  1  0.77381800  0.47584200  0.78335300  1
  O  O10  1  0.72618200  0.47584200  0.28335300  1
  O  O11  1  0.27381800  0.52415800  0.71664700  1
  O  O12  1  0.26930800  0.74949000  0.82237700  1
  O  O13  1  0.73069200  0.25051000  0.17762300  1
  O  O14  1  0.76930800  0.25051000  0.67762300  1
  O  O15  1  0.23069200  0.74949000  0.32237700  1
  O  O16  1  0.52393800  0.47425100  0.25710200  1
  O  O17  1  0.47606200  0.52574900  0.74289800  1
  O  O18  1  0.02393800  0.52574900  0.24289800  1
  O  O19  1  0.97606200  0.47425100  0.75710200  1
  O  O20  1  0.61761900  0.40179700  0.34567000  1
  O  O21  1  0.38238100  0.59820300  0.65433000  1
  O  O22  1  0.11761900  0.59820300  0.15433000  1
  O  O23  1  0.88238100  0.40179700  0.84567000  1
  O  O24  1  0.80286500  0.83581700  0.93729400  1
  O  O25  1  0.19713500  0.16418300  0.06270600  1
  O  O26  1  0.30286500  0.16418300  0.56270600  1
  O  O27  1  0.69713500  0.83581700  0.43729400  1
  O  O28  1  0.58875500  0.66755300  0.90679800  1
  O  O29  1  0.41124500  0.33244700  0.09320200  1
  O  O30  1  0.08875500  0.33244700  0.59320200  1
  O  O31  1  0.91124500  0.66755300  0.40679800  1
  O  O32  1  0.06517300  0.91065400  0.86178800  1
  O  O33  1  0.93482700  0.08934600  0.13821200  1
  O  O34  1  0.56517300  0.08934600  0.63821200  1
  O  O35  1  0.43482700  0.91065400  0.36178800  1
loop_
_geom_bond_atom_site_label_1
_geom_bond_atom_site_label_2
_geom_bond_distance
_geom_bond_site_symmetry_2
I0 O26 1.851960 1_555
I0 O32 1.864095 1_545
I0 O12 1.891959 1_545
I0 O6 1.902620 1_555
I0 O0 1.914198 1_545
I0 O30 1.916821 1_555
I1 O27 1.851960 1_555
I1 O33 1.864095 1_565
I1 O13 1.891959 1_565
I1 O7 1.902620 1_555
I1 O1 1.914198 1_565
I1 O31 1.916821 1_555
I2 O24 1.851960 1_555
I2 O34 1.864095 1_565
I2 O14 1.891959 1_565
I2 O4 1.902620 1_555
I2 O2 1.914198 1_565
I2 O28 1.916821 1_555
I3 O25 1.851960 1_555
I3 O35 1.864095 1_545
I3 O15 1.891959 1_545
I3 O5 1.902620 1_555
I3 O3 1.914198 1_545
I3 O29 1.916821 1_555
O0 Pr2 2.478201 1_465
O0 Pr3 2.488334 1_555
O1 Pr3 2.478201 1_645
O1 Pr2 2.488334 1_555
O2 Pr0 2.478201 1_545
O2 Pr1 2.488334 1_556
O3 Pr1 2.478201 1_565
O3 Pr0 2.488334 1_554
O4 Pr2 2.508902 1_565
O5 Pr3 2.508902 1_545
O6 Pr0 2.508902 1_545
O7 Pr1 2.508902 1_565
O8 Pr0 2.757232 1_554
O9 Pr1 2.757232 1_556
O10 O20 1.297981 1_555
O10 Pr2 2.757232 1_555
O11 O21 1.297981 1_555
O11 Pr3 2.757232 1_555
O12 Pr0 2.479227 1_555
O13 Pr1 2.479227 1_555
O14 Pr2 2.479227 1_555
O15 Pr3 2.479227 1_555
O16 O20 1.286985 1_555
O16 Pr0 2.662713 1_554
O17 O21 1.286985 1_555
O17 Pr1 2.662713 1_556
O18 O22 1.286985 1_555
O18 Pr2 2.662713 1_455
O19 O23 1.286985 1_555
O19 Pr3 2.662713 1_655
O22 O8 1.297981 1_555
O23 O9 1.297981 1_555
O28 Pr0 2.469914 1_555
O28 Pr1 2.484812 1_556
O29 Pr1 2.469914 1_555
O29 Pr0 2.484812 1_554
O30 Pr2 2.469914 1_455
O30 Pr3 2.484812 1_555
O31 Pr3 2.469914 1_655
O31 Pr2 2.484812 1_555
