# generated using pymatgen
data_PrGa2Co3
_symmetry_space_group_name_H-M   'P 1'
_cell_length_a   9.17171905
_cell_length_b   9.17171905
_cell_length_c   3.82494400
_cell_angle_alpha   90.00000000
_cell_angle_beta   90.00000000
_cell_angle_gamma   120.00000759
_symmetry_Int_Tables_number   1
_chemical_formula_structural   PrGa2Co3
_chemical_formula_sum   'Pr3 Ga6 Co9'
_cell_volume   278.64879261
_cell_formula_units_Z   3
loop_
 _symmetry_equiv_pos_site_id
 _symmetry_equiv_pos_as_xyz
  1  'x, y, z'
loop_
 _atom_site_type_symbol
 _atom_site_label
 _atom_site_symmetry_multiplicity
 _atom_site_fract_x
 _atom_site_fract_y
 _atom_site_fract_z
 _atom_site_occupancy
  Pr  Pr0  1  0.00000000  0.00000000  0.00000000  1
  Pr  Pr1  1  0.66666700  0.33333300  0.50000000  1
  Pr  Pr2  1  0.33333300  0.66666700  0.50000000  1
  Ga  Ga0  1  0.68293600  0.68293600  0.50000000  1
  Ga  Ga1  1  0.31706400  0.00000000  0.50000000  1
  Ga  Ga2  1  0.00000000  0.31706400  0.50000000  1
  Ga  Ga3  1  0.31706400  0.31706400  0.50000000  1
  Ga  Ga4  1  0.68293600  0.00000000  0.50000000  1
  Ga  Ga5  1  0.00000000  0.68293600  0.50000000  1
  Co  Co0  1  0.50000000  0.50000000  0.00000000  1
  Co  Co1  1  0.50000000  0.00000000  0.00000000  1
  Co  Co2  1  0.00000000  0.50000000  0.00000000  1
  Co  Co3  1  0.81750300  0.18249700  0.00000000  1
  Co  Co4  1  0.81750300  0.63500500  0.00000000  1
  Co  Co5  1  0.36499500  0.18249700  0.00000000  1
  Co  Co6  1  0.18249700  0.81750300  0.00000000  1
  Co  Co7  1  0.63500500  0.81750300  0.00000000  1
  Co  Co8  1  0.18249700  0.36499500  0.00000000  1
loop_
_geom_bond_atom_site_label_1
_geom_bond_atom_site_label_2
_geom_bond_distance
_geom_bond_site_symmetry_2
Ga0 Ga5 2.908022 1_655
Ga0 Ga4 2.908022 1_565
Ga0 Pr2 3.134518 1_555
Ga0 Pr1 3.134518 1_555
Ga0 Pr0 3.480537 1_666
Ga0 Pr0 3.480537 1_665
Ga1 Ga5 2.908022 1_545
Ga1 Ga3 2.908022 1_555
Ga1 Pr2 3.134509 1_545
Ga1 Pr1 3.134513 1_555
Ga1 Pr0 3.480537 1_556
Ga1 Pr0 3.480537 1_555
Ga2 Ga4 2.908022 1_455
Ga2 Ga3 2.908022 1_555
Ga2 Pr1 3.134509 1_455
Ga2 Pr2 3.134513 1_555
Ga2 Pr0 3.480537 1_555
Ga2 Pr0 3.480537 1_556
Ga3 Pr2 3.134518 1_555
Ga3 Pr1 3.134518 1_555
Ga3 Pr0 3.480537 1_555
Ga3 Pr0 3.480537 1_556
Ga4 Pr1 3.134509 1_555
Ga4 Pr2 3.134513 1_545
Ga4 Pr0 3.480537 1_655
Ga4 Pr0 3.480537 1_656
Ga5 Pr2 3.134509 1_555
Ga5 Pr1 3.134513 1_455
Ga5 Pr0 3.480537 1_565
Ga5 Pr0 3.480537 1_566
Co0 Co4 2.531295 1_555
Co0 Co7 2.531295 1_555
Co0 Co5 2.531295 1_555
Co0 Co8 2.531295 1_555
Co0 Ga3 2.544148 1_554
Co0 Ga0 2.544148 1_554
Co0 Ga3 2.544148 1_555
Co0 Ga0 2.544148 1_555
Co0 Pr2 3.266131 1_554
Co0 Pr1 3.266131 1_555
Co0 Pr1 3.266131 1_554
Co0 Pr2 3.266131 1_555
Co1 Co5 2.531287 1_555
Co1 Co7 2.531287 1_545
Co1 Co6 2.531294 1_545
Co1 Co3 2.531294 1_555
Co1 Ga4 2.544148 1_554
Co1 Ga1 2.544148 1_554
Co1 Ga1 2.544148 1_555
Co1 Ga4 2.544148 1_555
Co1 Pr1 3.266125 1_555
Co1 Pr1 3.266125 1_554
Co1 Pr2 3.266125 1_545
Co1 Pr2 3.266125 1_544
Co2 Co8 2.531287 1_555
Co2 Co4 2.531287 1_455
Co2 Co3 2.531294 1_455
Co2 Co6 2.531294 1_555
Co2 Ga2 2.544148 1_555
Co2 Ga5 2.544148 1_554
Co2 Ga2 2.544148 1_554
Co2 Ga5 2.544148 1_555
Co2 Pr2 3.266125 1_554
Co2 Pr1 3.266125 1_455
Co2 Pr2 3.266125 1_555
Co2 Pr1 3.266125 1_454
Co3 Ga4 2.432413 1_555
Co3 Ga2 2.432413 1_655
Co3 Ga4 2.432413 1_554
Co3 Ga2 2.432413 1_654
Co3 Pr0 2.899126 1_655
Co3 Pr1 3.065803 1_554
Co3 Pr1 3.065803 1_555
Co4 Ga5 2.432412 1_654
Co4 Ga5 2.432412 1_655
Co4 Ga0 2.432417 1_554
Co4 Ga0 2.432417 1_555
Co4 Pr0 2.899134 1_665
Co4 Pr1 3.065803 1_555
Co4 Pr1 3.065803 1_554
Co5 Ga1 2.432412 1_555
Co5 Ga1 2.432412 1_554
Co5 Ga3 2.432417 1_554
Co5 Ga3 2.432417 1_555
Co5 Pr0 2.899134 1_555
Co5 Pr1 3.065803 1_555
Co5 Pr1 3.065803 1_554
Co6 Ga5 2.432413 1_555
Co6 Ga1 2.432413 1_565
Co6 Ga1 2.432413 1_564
Co6 Ga5 2.432413 1_554
Co6 Pr0 2.899126 1_565
Co6 Pr2 3.065803 1_555
Co6 Pr2 3.065803 1_554
Co7 Ga4 2.432412 1_564
Co7 Ga4 2.432412 1_565
Co7 Ga0 2.432417 1_554
Co7 Ga0 2.432417 1_555
Co7 Pr0 2.899134 1_665
Co7 Pr2 3.065803 1_554
Co7 Pr2 3.065803 1_555
Co8 Ga2 2.432412 1_555
Co8 Ga2 2.432412 1_554
Co8 Ga3 2.432417 1_554
Co8 Ga3 2.432417 1_555
Co8 Pr0 2.899134 1_555
Co8 Pr2 3.065803 1_555
Co8 Pr2 3.065803 1_554
