# generated using pymatgen
data_SrLiCrF6
_symmetry_space_group_name_H-M   'P 1'
_cell_length_a   5.28723180
_cell_length_b   5.28723180
_cell_length_c   10.51521700
_cell_angle_alpha   90.00000000
_cell_angle_beta   90.00000000
_cell_angle_gamma   119.99999753
_symmetry_Int_Tables_number   1
_chemical_formula_structural   SrLiCrF6
_chemical_formula_sum   'Sr2 Li2 Cr2 F12'
_cell_volume   254.56903974
_cell_formula_units_Z   2
loop_
 _symmetry_equiv_pos_site_id
 _symmetry_equiv_pos_as_xyz
  1  'x, y, z'
loop_
 _atom_site_type_symbol
 _atom_site_label
 _atom_site_symmetry_multiplicity
 _atom_site_fract_x
 _atom_site_fract_y
 _atom_site_fract_z
 _atom_site_occupancy
  Sr  Sr0  1  0.00000000  0.00000000  0.50000000  1
  Sr  Sr1  1  0.00000000  0.00000000  0.00000000  1
  Li  Li0  1  0.33333300  0.66666700  0.75000000  1
  Li  Li1  1  0.66666700  0.33333300  0.25000000  1
  Cr  Cr0  1  0.66666700  0.33333300  0.75000000  1
  Cr  Cr1  1  0.33333300  0.66666700  0.25000000  1
  F  F0  1  0.64432100  0.01806400  0.64536700  1
  F  F1  1  0.35567900  0.98193600  0.35463300  1
  F  F2  1  0.98193600  0.62625700  0.64536700  1
  F  F3  1  0.64432100  0.62625700  0.85463300  1
  F  F4  1  0.01806400  0.37374300  0.35463300  1
  F  F5  1  0.35567900  0.37374300  0.14536700  1
  F  F6  1  0.37374300  0.35567900  0.64536700  1
  F  F7  1  0.98193600  0.35567900  0.85463300  1
  F  F8  1  0.62625700  0.64432100  0.35463300  1
  F  F9  1  0.01806400  0.64432100  0.14536700  1
  F  F10  1  0.37374300  0.01806400  0.85463300  1
  F  F11  1  0.62625700  0.98193600  0.14536700  1
loop_
_geom_bond_atom_site_label_1
_geom_bond_atom_site_label_2
_geom_bond_distance
_geom_bond_site_symmetry_2
Cr0 F0 1.950923 1_555
Cr0 F7 1.950923 1_555
Cr0 F10 1.950925 1_555
Cr0 F2 1.950925 1_555
Cr0 F3 1.950927 1_555
Cr0 F6 1.950927 1_555
Cr1 F1 1.950923 1_555
Cr1 F9 1.950923 1_555
Cr1 F4 1.950925 1_555
Cr1 F11 1.950925 1_555
Cr1 F8 1.950927 1_555
Cr1 F5 1.950927 1_555
F0 Li0 2.076315 1_545
F0 Sr0 2.462060 1_655
F1 Li1 2.076315 1_565
F1 Sr0 2.462060 1_565
F2 Li0 2.076313 1_655
F2 Sr0 2.462060 1_665
F3 Li0 2.076317 1_555
F3 Sr1 2.462060 1_666
F4 Li1 2.076313 1_455
F4 Sr0 2.462060 1_555
F5 Li1 2.076317 1_555
F5 Sr1 2.462060 1_555
F6 Li0 2.076317 1_555
F6 Sr0 2.462060 1_555
F7 Li0 2.076315 1_655
F7 Sr1 2.462060 1_656
F8 Li1 2.076317 1_555
F8 Sr0 2.462060 1_665
F9 Li1 2.076315 1_455
F9 Sr1 2.462060 1_565
F10 Li0 2.076313 1_545
F10 Sr1 2.462060 1_556
F11 Li1 2.076313 1_565
F11 Sr1 2.462060 1_665
