# generated using pymatgen
data_Cs2CaP2O7
_symmetry_space_group_name_H-M   'P 1'
_cell_length_a   6.00838396
_cell_length_b   6.00838396
_cell_length_c   7.49635294
_cell_angle_alpha   66.33924586
_cell_angle_beta   66.33924586
_cell_angle_gamma   60.04572420
_symmetry_Int_Tables_number   1
_chemical_formula_structural   Cs2CaP2O7
_chemical_formula_sum   'Cs2 Ca1 P2 O7'
_cell_volume   207.76583410
_cell_formula_units_Z   1
loop_
 _symmetry_equiv_pos_site_id
 _symmetry_equiv_pos_as_xyz
  1  'x, y, z'
loop_
 _atom_site_type_symbol
 _atom_site_label
 _atom_site_symmetry_multiplicity
 _atom_site_fract_x
 _atom_site_fract_y
 _atom_site_fract_z
 _atom_site_occupancy
  Cs  Cs0  1  0.78001600  0.78001600  0.66469100  1
  Cs  Cs1  1  0.22148400  0.22148400  0.33568900  1
  Ca  Ca0  1  0.00176700  0.00176700  0.00023800  1
  P  P0  1  0.42386700  0.42386700  0.74389200  1
  P  P1  1  0.58483600  0.58483600  0.25647200  1
  O  O0  1  0.25652500  0.68313400  0.81065000  1
  O  O1  1  0.68313400  0.25652500  0.81065000  1
  O  O2  1  0.74094500  0.31221700  0.20899900  1
  O  O3  1  0.31221700  0.74094500  0.20899900  1
  O  O4  1  0.26482800  0.26482800  0.78462200  1
  O  O5  1  0.74958100  0.74958100  0.17759200  1
  O  O6  1  0.52529900  0.52529900  0.50010600  1
loop_
_geom_bond_atom_site_label_1
_geom_bond_atom_site_label_2
_geom_bond_distance
_geom_bond_site_symmetry_2
Cs0 O4 3.120769 1_655
Cs0 O4 3.120769 1_565
Cs0 O1 3.159753 1_555
Cs0 O0 3.159753 1_555
Cs0 O0 3.173635 1_655
Cs0 O1 3.173635 1_565
Cs0 O6 3.402478 1_555
Cs0 O2 3.616070 1_565
Cs0 O3 3.616070 1_655
Cs1 O3 3.122328 1_545
Cs1 O2 3.122328 1_455
Cs1 O2 3.137671 1_555
Cs1 O3 3.137671 1_555
Cs1 O5 3.194763 1_455
Cs1 O5 3.194763 1_545
Cs1 O4 3.596657 1_555
Ca0 O5 2.327730 1_445
Ca0 O0 2.353603 1_544
Ca0 O1 2.353603 1_454
Ca0 O2 2.416549 1_455
Ca0 O3 2.416549 1_545
Ca0 O4 2.450028 1_554
O0 P0 1.531598 1_555
O1 P0 1.531598 1_555
O2 P1 1.534654 1_555
O3 P1 1.534654 1_555
O4 P0 1.537183 1_555
O5 P1 1.532358 1_555
O6 P0 1.632675 1_555
O6 P1 1.634182 1_555
