# generated using pymatgen
data_YbEuTl2
_symmetry_space_group_name_H-M   'P 1'
_cell_length_a   5.58678421
_cell_length_b   5.58678421
_cell_length_c   5.58678421
_cell_angle_alpha   60.00000000
_cell_angle_beta   60.00000000
_cell_angle_gamma   60.00000000
_symmetry_Int_Tables_number   1
_chemical_formula_structural   YbEuTl2
_chemical_formula_sum   'Yb1 Eu1 Tl2'
_cell_volume   123.30216246
_cell_formula_units_Z   1
loop_
 _symmetry_equiv_pos_site_id
 _symmetry_equiv_pos_as_xyz
  1  'x, y, z'
loop_
 _atom_site_type_symbol
 _atom_site_label
 _atom_site_symmetry_multiplicity
 _atom_site_fract_x
 _atom_site_fract_y
 _atom_site_fract_z
 _atom_site_occupancy
  Yb  Yb0  1  0.00000000  0.00000000  0.00000000  1
  Eu  Eu0  1  0.50000000  0.50000000  0.50000000  1
  Tl  Tl0  1  0.25000000  0.25000000  0.25000000  1
  Tl  Tl1  1  0.75000000  0.75000000  0.75000000  1
loop_
_geom_bond_atom_site_label_1
_geom_bond_atom_site_label_2
_geom_bond_distance
_geom_bond_site_symmetry_2
Eu0 Tl0 3.421193 1_655
Eu0 Tl1 3.421193 1_545
Eu0 Tl0 3.421193 1_555
Eu0 Tl0 3.421193 1_556
Eu0 Tl1 3.421193 1_455
Eu0 Tl1 3.421193 1_555
Eu0 Tl0 3.421193 1_565
Eu0 Tl1 3.421193 1_554
Tl0 Yb0 3.421193 1_555
Tl0 Yb0 3.421193 1_556
Tl0 Yb0 3.421193 1_655
Tl0 Yb0 3.421193 1_565
Tl1 Yb0 3.421193 1_566
Tl1 Yb0 3.421193 1_656
Tl1 Yb0 3.421193 1_666
Tl1 Yb0 3.421193 1_665
