# generated using pymatgen
data_Ti4NiS8
_symmetry_space_group_name_H-M   'P 1'
_cell_length_a   6.64633337
_cell_length_b   6.64633337
_cell_length_c   8.16939211
_cell_angle_alpha   53.60179676
_cell_angle_beta   53.60179676
_cell_angle_gamma   61.87503789
_symmetry_Int_Tables_number   1
_chemical_formula_structural   Ti4NiS8
_chemical_formula_sum   'Ti4 Ni1 S8'
_cell_volume   229.80701612
_cell_formula_units_Z   1
loop_
 _symmetry_equiv_pos_site_id
 _symmetry_equiv_pos_as_xyz
  1  'x, y, z'
loop_
 _atom_site_type_symbol
 _atom_site_label
 _atom_site_symmetry_multiplicity
 _atom_site_fract_x
 _atom_site_fract_y
 _atom_site_fract_z
 _atom_site_occupancy
  Ti  Ti0  1  0.25658482  0.74341518  0.50000000  1
  Ti  Ti1  1  0.74341518  0.25658482  0.50000000  1
  Ti  Ti2  1  0.25980497  0.25980497  0.99687854  1
  Ti  Ti3  1  0.74019503  0.74019503  0.00312146  1
  Ni  Ni0  1  -0.00000000  -0.00000000  0.00000000  1
  S  S0  1  0.96565690  0.96565690  0.32647190  1
  S  S1  1  0.03434310  0.03434310  0.67352810  1
  S  S2  1  0.45607342  0.45607342  0.33465244  1
  S  S3  1  0.54392658  0.54392658  0.66534756  1
  S  S4  1  0.03791503  0.54855253  0.16688003  1
  S  S5  1  0.54855253  0.03791503  0.16688003  1
  S  S6  1  0.96208497  0.45144747  0.83311997  1
  S  S7  1  0.45144747  0.96208497  0.83311997  1
loop_
_geom_bond_atom_site_label_1
_geom_bond_atom_site_label_2
_geom_bond_distance
_geom_bond_site_symmetry_2
Ni0 S5 2.401077 1_455
Ni0 S4 2.401077 1_545
Ni0 S7 2.401077 1_544
Ni0 S6 2.401077 1_454
Ni0 S1 2.412809 1_554
Ni0 S0 2.412809 1_445
S0 Ti2 2.450094 1_664
S0 Ti0 2.450631 1_655
S0 Ti1 2.450631 1_565
S1 Ti3 2.450094 1_446
S1 Ti1 2.450631 1_455
S1 Ti0 2.450631 1_545
S2 Ti3 2.385307 1_555
S2 Ti0 2.403868 1_555
S2 Ti1 2.403868 1_555
S3 Ti2 2.385307 1_555
S3 Ti0 2.403868 1_555
S3 Ti1 2.403868 1_555
S4 Ti2 2.418837 1_554
S4 Ti1 2.448421 1_455
S4 Ti3 2.463881 1_455
S5 Ti2 2.418837 1_554
S5 Ti0 2.448421 1_545
S5 Ti3 2.463881 1_545
S6 Ti3 2.418837 1_556
S6 Ti0 2.448421 1_655
S6 Ti2 2.463881 1_655
S7 Ti3 2.418837 1_556
S7 Ti1 2.448421 1_565
S7 Ti2 2.463881 1_565
