# generated using pymatgen
data_Ba2Mn3O8
_symmetry_space_group_name_H-M   'P 1'
_cell_length_a   3.87985400
_cell_length_b   3.87985400
_cell_length_c   12.43646000
_cell_angle_alpha   90.00000000
_cell_angle_beta   90.00000000
_cell_angle_gamma   90.00000000
_symmetry_Int_Tables_number   1
_chemical_formula_structural   Ba2Mn3O8
_chemical_formula_sum   'Ba2 Mn3 O8'
_cell_volume   187.20935368
_cell_formula_units_Z   1
loop_
 _symmetry_equiv_pos_site_id
 _symmetry_equiv_pos_as_xyz
  1  'x, y, z'
loop_
 _atom_site_type_symbol
 _atom_site_label
 _atom_site_symmetry_multiplicity
 _atom_site_fract_x
 _atom_site_fract_y
 _atom_site_fract_z
 _atom_site_occupancy
  Ba  Ba0  1  0.00000000  0.00000000  0.16915200  1
  Ba  Ba1  1  0.00000000  0.00000000  0.83084800  1
  Mn  Mn0  1  0.50000000  0.50000000  0.33146000  1
  Mn  Mn1  1  0.50000000  0.50000000  0.00000000  1
  Mn  Mn2  1  0.50000000  0.50000000  0.66854000  1
  O  O0  1  0.50000000  0.00000000  0.34877300  1
  O  O1  1  0.00000000  0.50000000  0.34877300  1
  O  O2  1  0.00000000  0.50000000  0.00000000  1
  O  O3  1  0.50000000  0.50000000  0.18059400  1
  O  O4  1  0.50000000  0.00000000  0.65122700  1
  O  O5  1  0.00000000  0.50000000  0.65122700  1
  O  O6  1  0.50000000  0.50000000  0.81940600  1
  O  O7  1  0.50000000  0.00000000  0.00000000  1
loop_
_geom_bond_atom_site_label_1
_geom_bond_atom_site_label_2
_geom_bond_distance
_geom_bond_site_symmetry_2
Ba0 O3 2.747159 1_545
Ba0 O3 2.747159 1_455
Ba0 O3 2.747159 1_555
Ba0 O3 2.747159 1_445
Ba0 O2 2.861585 1_545
Ba0 O7 2.861585 1_555
Ba0 O7 2.861585 1_455
Ba0 O2 2.861585 1_555
Ba0 O1 2.958615 1_555
Ba0 O0 2.958615 1_455
Ba0 O1 2.958615 1_545
Ba0 O0 2.958615 1_555
Ba1 O6 2.747159 1_545
Ba1 O6 2.747159 1_455
Ba1 O6 2.747159 1_555
Ba1 O6 2.747159 1_445
Ba1 O2 2.861585 1_546
Ba1 O7 2.861585 1_456
Ba1 O7 2.861585 1_556
Ba1 O2 2.861585 1_556
Ba1 O4 2.958615 1_555
Ba1 O5 2.958615 1_555
Ba1 O5 2.958615 1_545
Ba1 O4 2.958615 1_455
Mn0 O3 1.876239 1_555
Mn0 O1 1.951839 1_655
Mn0 O0 1.951839 1_565
Mn0 O1 1.951839 1_555
Mn0 O0 1.951839 1_555
Mn1 O7 1.939927 1_565
Mn1 O2 1.939927 1_555
Mn1 O2 1.939927 1_655
Mn1 O7 1.939927 1_555
Mn1 O3 2.245950 1_555
Mn1 O6 2.245950 1_554
Mn2 O6 1.876239 1_555
Mn2 O4 1.951839 1_565
Mn2 O5 1.951839 1_555
Mn2 O4 1.951839 1_555
Mn2 O5 1.951839 1_655
