# generated using pymatgen
data_YbCrSb3
_symmetry_space_group_name_H-M   'P 1'
_cell_length_a   6.02671000
_cell_length_b   6.22352500
_cell_length_c   13.14951300
_cell_angle_alpha   90.00000000
_cell_angle_beta   90.00000000
_cell_angle_gamma   90.00000000
_symmetry_Int_Tables_number   1
_chemical_formula_structural   YbCrSb3
_chemical_formula_sum   'Yb4 Cr4 Sb12'
_cell_volume   493.20378554
_cell_formula_units_Z   4
loop_
 _symmetry_equiv_pos_site_id
 _symmetry_equiv_pos_as_xyz
  1  'x, y, z'
loop_
 _atom_site_type_symbol
 _atom_site_label
 _atom_site_symmetry_multiplicity
 _atom_site_fract_x
 _atom_site_fract_y
 _atom_site_fract_z
 _atom_site_occupancy
  Yb  Yb0  1  0.25000000  0.50176100  0.30842600  1
  Yb  Yb1  1  0.75000000  0.49823900  0.69157400  1
  Yb  Yb2  1  0.25000000  0.00176100  0.69157400  1
  Yb  Yb3  1  0.75000000  0.99823900  0.30842600  1
  Cr  Cr0  1  0.50000000  0.75000000  0.90403400  1
  Cr  Cr1  1  0.00000000  0.25000000  0.09596600  1
  Cr  Cr2  1  0.50000000  0.25000000  0.09596600  1
  Cr  Cr3  1  0.00000000  0.75000000  0.90403400  1
  Sb  Sb0  1  0.00000000  0.75000000  0.50203500  1
  Sb  Sb1  1  0.50000000  0.25000000  0.49796500  1
  Sb  Sb2  1  0.00000000  0.25000000  0.49796500  1
  Sb  Sb3  1  0.50000000  0.75000000  0.50203500  1
  Sb  Sb4  1  0.75000000  0.89276000  0.06384500  1
  Sb  Sb5  1  0.25000000  0.10724000  0.93615500  1
  Sb  Sb6  1  0.75000000  0.39276000  0.93615500  1
  Sb  Sb7  1  0.25000000  0.60724000  0.06384500  1
  Sb  Sb8  1  0.75000000  0.50404000  0.21590100  1
  Sb  Sb9  1  0.25000000  0.49596000  0.78409900  1
  Sb  Sb10  1  0.75000000  0.00404000  0.78409900  1
  Sb  Sb11  1  0.25000000  0.99596000  0.21590100  1
loop_
_geom_bond_atom_site_label_1
_geom_bond_atom_site_label_2
_geom_bond_distance
_geom_bond_site_symmetry_2
Cr0 Sb9 2.693867 1_555
Cr0 Sb10 2.693867 1_565
Cr0 Sb6 2.718732 1_555
Cr0 Sb5 2.718732 1_565
Cr0 Sb7 2.734135 1_556
Cr0 Sb4 2.734135 1_556
Cr1 Sb8 2.693867 1_455
Cr1 Sb11 2.693867 1_545
Cr1 Sb7 2.718732 1_555
Cr1 Sb4 2.718732 1_445
Cr1 Sb6 2.734135 1_454
Cr1 Sb5 2.734135 1_554
Cr2 Sb11 2.693867 1_545
Cr2 Sb8 2.693867 1_555
Cr2 Sb7 2.718732 1_555
Cr2 Sb4 2.718732 1_545
Cr2 Sb6 2.734135 1_554
Cr2 Sb5 2.734135 1_554
Cr3 Sb9 2.693867 1_555
Cr3 Sb10 2.693867 1_465
Cr3 Sb6 2.718732 1_455
Cr3 Sb5 2.718732 1_565
Cr3 Sb7 2.734135 1_556
Cr3 Sb4 2.734135 1_456
Sb0 Sb3 3.013355 1_455
Sb0 Sb3 3.013355 1_555
Sb0 Sb2 3.112223 1_565
Sb0 Sb2 3.112223 1_555
Sb0 Yb1 3.307091 1_455
Sb0 Yb2 3.307091 1_565
Sb0 Yb0 3.337407 1_555
Sb0 Yb3 3.337407 1_455
Sb1 Sb2 3.013355 1_555
Sb1 Sb2 3.013355 1_655
Sb1 Sb3 3.112223 1_555
Sb1 Sb3 3.112223 1_545
Sb1 Yb0 3.307091 1_555
Sb1 Yb3 3.307091 1_545
Sb1 Yb2 3.337407 1_555
Sb1 Yb1 3.337407 1_555
Sb2 Yb0 3.307091 1_555
Sb2 Yb3 3.307091 1_445
Sb2 Yb2 3.337407 1_555
Sb2 Yb1 3.337407 1_455
Sb3 Yb2 3.307091 1_565
Sb3 Yb1 3.307091 1_555
Sb3 Yb3 3.337407 1_555
Sb3 Yb0 3.337407 1_555
Sb4 Sb8 3.138538 1_555
Sb4 Yb3 3.282432 1_555
Sb5 Sb9 3.138538 1_555
Sb5 Yb2 3.282432 1_555
Sb6 Yb1 3.282432 1_555
Sb7 Yb0 3.282432 1_555
Sb8 Yb0 3.249734 1_555
Sb8 Yb0 3.249734 1_655
Sb8 Yb3 3.307558 1_555
Sb8 Yb3 3.374806 1_545
Sb9 Yb1 3.249734 1_455
Sb9 Yb1 3.249734 1_555
Sb9 Yb2 3.307558 1_555
Sb9 Yb2 3.374806 1_565
Sb10 Sb6 3.138538 1_555
Sb10 Yb2 3.249734 1_555
Sb10 Yb2 3.249734 1_655
Sb10 Yb1 3.307558 1_555
Sb10 Yb1 3.374806 1_545
Sb11 Sb7 3.138538 1_555
Sb11 Yb3 3.249734 1_555
Sb11 Yb3 3.249734 1_455
Sb11 Yb0 3.307558 1_555
Sb11 Yb0 3.374806 1_565
