# generated using pymatgen
data_Mg6CoSn
_symmetry_space_group_name_H-M   'P 1'
_cell_length_a   4.86215700
_cell_length_b   6.18864300
_cell_length_c   10.57826100
_cell_angle_alpha   90.00000000
_cell_angle_beta   90.00000000
_cell_angle_gamma   90.00000000
_symmetry_Int_Tables_number   1
_chemical_formula_structural   Mg6CoSn
_chemical_formula_sum   'Mg12 Co2 Sn2'
_cell_volume   318.30150130
_cell_formula_units_Z   2
loop_
 _symmetry_equiv_pos_site_id
 _symmetry_equiv_pos_as_xyz
  1  'x, y, z'
loop_
 _atom_site_type_symbol
 _atom_site_label
 _atom_site_symmetry_multiplicity
 _atom_site_fract_x
 _atom_site_fract_y
 _atom_site_fract_z
 _atom_site_occupancy
  Mg  Mg0  1  0.00000000  0.24603500  0.08254600  1
  Mg  Mg1  1  0.00000000  0.75396500  0.08254600  1
  Mg  Mg2  1  0.00000000  0.50000000  0.83362800  1
  Mg  Mg3  1  0.50000000  0.23917100  0.91241100  1
  Mg  Mg4  1  0.50000000  0.76082900  0.91241100  1
  Mg  Mg5  1  0.50000000  0.50000000  0.66833400  1
  Mg  Mg6  1  0.00000000  0.74603500  0.58254600  1
  Mg  Mg7  1  0.00000000  0.25396500  0.58254600  1
  Mg  Mg8  1  0.00000000  0.00000000  0.33362800  1
  Mg  Mg9  1  0.50000000  0.73917100  0.41241100  1
  Mg  Mg10  1  0.50000000  0.26082900  0.41241100  1
  Mg  Mg11  1  0.50000000  0.00000000  0.16833400  1
  Co  Co0  1  0.00000000  0.50000000  0.33418500  1
  Co  Co1  1  0.00000000  0.00000000  0.83418500  1
  Sn  Sn0  1  0.50000000  0.50000000  0.17393800  1
  Sn  Sn1  1  0.50000000  0.00000000  0.67393800  1
loop_
_geom_bond_atom_site_label_1
_geom_bond_atom_site_label_2
_geom_bond_distance
_geom_bond_site_symmetry_2
Mg0 Mg11 3.008664 1_455
Mg0 Mg11 3.008664 1_555
Mg0 Mg3 3.025059 1_554
Mg0 Mg3 3.025059 1_454
Mg0 Mg1 3.045246 1_545
Mg0 Sn0 3.052052 1_555
Mg0 Sn0 3.052052 1_455
Mg0 Mg8 3.061499 1_555
Mg0 Mg2 3.066522 1_554
Mg0 Mg1 3.143397 1_555
Mg1 Mg11 3.008664 1_565
Mg1 Mg11 3.008664 1_465
Mg1 Mg4 3.025059 1_454
Mg1 Mg4 3.025059 1_554
Mg1 Sn0 3.052052 1_555
Mg1 Sn0 3.052052 1_455
Mg1 Mg8 3.061499 1_565
Mg1 Mg2 3.066522 1_554
Mg2 Mg5 2.994574 1_455
Mg2 Mg5 2.994574 1_555
Mg2 Mg4 3.034839 1_455
Mg2 Mg3 3.034839 1_555
Mg2 Mg4 3.034839 1_555
Mg2 Mg3 3.034839 1_455
Mg2 Mg6 3.061499 1_555
Mg2 Mg7 3.061499 1_555
Mg3 Sn1 2.924805 1_555
Mg3 Mg4 2.960288 1_545
Mg3 Mg5 3.044968 1_555
Mg3 Sn0 3.202982 1_556
Mg3 Mg4 3.228355 1_555
Mg4 Sn1 2.924805 1_565
Mg4 Mg5 3.044968 1_555
Mg4 Sn0 3.202982 1_556
Mg5 Mg7 3.008664 1_555
Mg5 Mg6 3.008664 1_655
Mg5 Mg7 3.008664 1_655
Mg5 Mg6 3.008664 1_555
Mg5 Mg9 3.085428 1_555
Mg5 Sn1 3.094889 1_555
Mg5 Sn1 3.094889 1_565
Mg6 Mg9 3.025059 1_455
Mg6 Mg9 3.025059 1_555
Mg6 Mg7 3.045246 1_555
Mg6 Sn1 3.052052 1_565
Mg6 Sn1 3.052052 1_465
Mg6 Mg8 3.066522 1_565
Mg6 Mg7 3.143397 1_565
Mg7 Sn1 3.052052 1_555
Mg7 Sn1 3.052052 1_455
Mg7 Mg8 3.066522 1_555
Mg8 Mg9 3.034839 1_445
Mg8 Mg9 3.034839 1_545
Mg9 Sn0 2.924805 1_555
Mg9 Sn1 3.202982 1_565
Mg10 Sn0 2.924805 1_555
Mg10 Mg9 2.960288 1_555
Mg10 Mg7 3.025059 1_655
Mg10 Mg7 3.025059 1_555
Mg10 Mg8 3.034839 1_655
Mg10 Mg8 3.034839 1_555
Mg10 Mg11 3.044968 1_555
Mg10 Mg5 3.085428 1_555
Mg10 Sn1 3.202982 1_555
Mg10 Mg9 3.228355 1_545
Mg11 Mg8 2.994574 1_655
Mg11 Mg8 2.994574 1_555
Mg11 Mg9 3.044968 1_545
Mg11 Mg3 3.085428 1_554
Mg11 Mg4 3.085428 1_544
Mg11 Sn0 3.094889 1_555
Mg11 Sn0 3.094889 1_545
Co0 Sn0 2.963718 1_555
Co0 Sn0 2.963718 1_455
Co0 Mg9 2.964071 1_455
Co0 Mg9 2.964071 1_555
Co0 Mg10 2.964071 1_455
Co0 Mg10 2.964071 1_555
Co0 Mg6 3.036561 1_555
Co0 Mg7 3.036561 1_555
Co0 Mg1 3.091272 1_555
Co0 Mg0 3.091272 1_555
Co0 Mg8 3.094327 1_565
Co0 Mg8 3.094327 1_555
Co1 Sn1 2.963718 1_555
Co1 Sn1 2.963718 1_455
Co1 Mg4 2.964071 1_545
Co1 Mg3 2.964071 1_555
Co1 Mg4 2.964071 1_445
Co1 Mg3 2.964071 1_455
Co1 Mg0 3.036561 1_556
Co1 Mg1 3.036561 1_546
Co1 Mg6 3.091272 1_545
Co1 Mg7 3.091272 1_555
Co1 Mg2 3.094327 1_555
Co1 Mg2 3.094327 1_545
