# generated using pymatgen
data_DyNiAs
_symmetry_space_group_name_H-M   'P 1'
_cell_length_a   4.03099451
_cell_length_b   4.03099451
_cell_length_c   15.31878919
_cell_angle_alpha   90.00000000
_cell_angle_beta   90.00000000
_cell_angle_gamma   120.00000995
_symmetry_Int_Tables_number   1
_chemical_formula_structural   DyNiAs
_chemical_formula_sum   'Dy4 Ni4 As4'
_cell_volume   215.56559161
_cell_formula_units_Z   4
loop_
 _symmetry_equiv_pos_site_id
 _symmetry_equiv_pos_as_xyz
  1  'x, y, z'
loop_
 _atom_site_type_symbol
 _atom_site_label
 _atom_site_symmetry_multiplicity
 _atom_site_fract_x
 _atom_site_fract_y
 _atom_site_fract_z
 _atom_site_occupancy
  Dy  Dy0  1  0.00000000  -0.00000000  0.25000000  1
  Dy  Dy1  1  0.00000000  -0.00000000  0.75000000  1
  Dy  Dy2  1  0.00000000  -0.00000000  -0.00000000  1
  Dy  Dy3  1  0.00000000  -0.00000000  0.50000000  1
  Ni  Ni0  1  0.33333300  0.66666700  0.13422851  1
  Ni  Ni1  1  0.66666700  0.33333300  0.86577149  1
  Ni  Ni2  1  0.66666700  0.33333300  0.63422851  1
  Ni  Ni3  1  0.33333300  0.66666700  0.36577149  1
  As  As0  1  0.33333300  0.66666700  0.62084344  1
  As  As1  1  0.66666700  0.33333300  0.37915656  1
  As  As2  1  0.66666700  0.33333300  0.12084344  1
  As  As3  1  0.33333300  0.66666700  0.87915656  1
loop_
_geom_bond_atom_site_label_1
_geom_bond_atom_site_label_2
_geom_bond_distance
_geom_bond_site_symmetry_2
Dy0 Ni0 2.926008 1_545
Dy0 Ni3 2.926008 1_545
Dy0 Ni0 2.926011 1_445
Dy0 Ni0 2.926011 1_555
Dy0 Ni3 2.926011 1_555
Dy0 Ni3 2.926011 1_445
Dy1 Ni2 2.926008 1_455
Dy1 Ni1 2.926008 1_455
Dy1 Ni2 2.926011 1_445
Dy1 Ni1 2.926011 1_445
Dy1 Ni1 2.926011 1_555
Dy1 Ni2 2.926011 1_555
Dy2 Ni0 3.105532 1_545
Dy2 Ni1 3.105532 1_454
Dy2 Ni0 3.105534 1_555
Dy2 Ni1 3.105534 1_554
Dy2 Ni0 3.105534 1_445
Dy2 Ni1 3.105534 1_444
Dy3 Ni3 3.105532 1_545
Dy3 Ni2 3.105532 1_455
Dy3 Ni3 3.105534 1_555
Dy3 Ni3 3.105534 1_445
Dy3 Ni2 3.105534 1_445
Dy3 Ni2 3.105534 1_555
As0 Ni2 2.336308 1_455
As0 Ni2 2.336308 1_565
As0 Ni2 2.336316 1_555
As0 Dy3 2.973743 1_565
As0 Dy3 2.973745 1_555
As0 Dy3 2.973745 1_665
As0 Dy1 3.054643 1_565
As0 Dy1 3.054646 1_665
As0 Dy1 3.054646 1_555
As1 Ni3 2.336308 1_545
As1 Ni3 2.336308 1_655
As1 Ni3 2.336316 1_555
As1 Dy3 2.973743 1_655
As1 Dy3 2.973745 1_555
As1 Dy3 2.973745 1_665
As1 Dy0 3.054643 1_655
As1 Dy0 3.054646 1_665
As1 Dy0 3.054646 1_555
As2 Ni0 2.336308 1_545
As2 Ni0 2.336308 1_655
As2 Ni0 2.336316 1_555
As2 Dy2 2.973743 1_655
As2 Dy2 2.973745 1_665
As2 Dy2 2.973745 1_555
As2 Dy0 3.054643 1_655
As2 Dy0 3.054646 1_665
As2 Dy0 3.054646 1_555
As3 Ni1 2.336308 1_455
As3 Ni1 2.336308 1_565
As3 Ni1 2.336316 1_555
As3 Dy2 2.973743 1_566
As3 Dy2 2.973745 1_556
As3 Dy2 2.973745 1_666
As3 Dy1 3.054643 1_565
As3 Dy1 3.054646 1_665
As3 Dy1 3.054646 1_555
