# generated using pymatgen
data_Cs2Th(AsO4)2
_symmetry_space_group_name_H-M   'P 1'
_cell_length_a   10.79034368
_cell_length_b   10.79034368
_cell_length_c   10.79034368
_cell_angle_alpha   139.72830911
_cell_angle_beta   139.72830911
_cell_angle_gamma   58.26605563
_symmetry_Int_Tables_number   1
_chemical_formula_structural   Cs2Th(AsO4)2
_chemical_formula_sum   'Cs4 Th2 As4 O16'
_cell_volume   520.19397262
_cell_formula_units_Z   2
loop_
 _symmetry_equiv_pos_site_id
 _symmetry_equiv_pos_as_xyz
  1  'x, y, z'
loop_
 _atom_site_type_symbol
 _atom_site_label
 _atom_site_symmetry_multiplicity
 _atom_site_fract_x
 _atom_site_fract_y
 _atom_site_fract_z
 _atom_site_occupancy
  Cs  Cs0  1  0.87500000  0.62500000  0.75000000  1
  Cs  Cs1  1  0.37500000  0.12500000  0.25000000  1
  Cs  Cs2  1  0.87500000  0.12500000  0.75000000  1
  Cs  Cs3  1  0.87500000  0.12500000  0.25000000  1
  Th  Th0  1  0.50000000  0.50000000  0.00000000  1
  Th  Th1  1  0.25000000  0.75000000  0.50000000  1
  As  As0  1  0.32583000  0.32583000  0.00000000  1
  As  As1  1  0.07583000  0.57583000  0.50000000  1
  As  As2  1  0.42417000  0.92417000  0.50000000  1
  As  As3  1  0.67417000  0.67417000  0.00000000  1
  O  O0  1  0.27083500  0.45572300  0.18488800  1
  O  O1  1  0.20572300  0.52083500  0.68488800  1
  O  O2  1  0.83594700  0.52083500  0.31511200  1
  O  O3  1  0.27083500  0.08594700  0.81511200  1
  O  O4  1  0.47916500  0.79427700  0.31511200  1
  O  O5  1  0.54427700  0.72916500  0.81511200  1
  O  O6  1  0.91405300  0.72916500  0.18488800  1
  O  O7  1  0.47916500  0.16405300  0.68488800  1
  O  O8  1  0.20593900  0.38424800  0.82169100  1
  O  O9  1  0.56255700  0.38424800  0.17830900  1
  O  O10  1  0.13424800  0.45593900  0.32169100  1
  O  O11  1  0.13424800  0.81255700  0.67830900  1
  O  O12  1  0.54406100  0.86575200  0.67830900  1
  O  O13  1  0.18744300  0.86575200  0.32169100  1
  O  O14  1  0.61575200  0.79406100  0.17830900  1
  O  O15  1  0.61575200  0.43744300  0.82169100  1
loop_
_geom_bond_atom_site_label_1
_geom_bond_atom_site_label_2
_geom_bond_distance
_geom_bond_site_symmetry_2
Cs0 O8 3.031722 1_655
Cs0 O12 3.031722 1_555
Cs0 O9 3.031722 1_555
Cs0 O13 3.031722 1_656
Cs1 O15 3.031722 1_555
Cs1 O14 3.031722 1_545
Cs1 O10 3.031722 1_555
Cs1 O11 3.031722 1_544
Cs2 O15 3.031722 1_555
Cs2 O14 3.031722 1_545
Cs2 O10 3.031722 1_656
Cs2 O11 3.031722 1_645
Cs3 O8 3.031722 1_655
Cs3 O9 3.031722 1_555
Cs3 O13 3.031722 1_645
Cs3 O12 3.031722 1_544
As0 O3 1.720859 1_554
As0 O0 1.720859 1_555
As0 O8 1.722622 1_554
As0 O9 1.722622 1_555
As1 O1 1.720859 1_555
As1 O2 1.720859 1_455
As1 O10 1.722622 1_555
As1 O11 1.722622 1_555
As2 O4 1.720859 1_555
As2 O7 1.720859 1_565
As2 O12 1.722622 1_555
As2 O13 1.722622 1_555
As3 O6 1.720859 1_555
As3 O5 1.720859 1_554
As3 O14 1.722622 1_555
As3 O15 1.722622 1_554
O0 Th1 2.373713 1_555
O1 Th0 2.373713 1_556
O2 Th0 2.373713 1_555
O3 Th1 2.373713 1_545
O4 Th0 2.373713 1_555
O5 Th1 2.373713 1_555
O6 Th1 2.373713 1_655
O7 Th0 2.373713 1_556
O8 Th0 2.552614 1_556
O9 Th0 2.552614 1_555
O10 Th1 2.552614 1_555
O11 Th1 2.552614 1_555
O12 Th1 2.552614 1_555
O13 Th1 2.552614 1_555
O14 Th0 2.552614 1_555
O15 Th0 2.552614 1_556
