# generated using pymatgen
data_SrLaCoO4
_symmetry_space_group_name_H-M   'P 1'
_cell_length_a   5.43612512
_cell_length_b   6.96154581
_cell_length_c   10.37195686
_cell_angle_alpha   74.83048565
_cell_angle_beta   89.67286558
_cell_angle_gamma   90.18142436
_symmetry_Int_Tables_number   1
_chemical_formula_structural   SrLaCoO4
_chemical_formula_sum   'Sr4 La4 Co4 O16'
_cell_volume   378.82718884
_cell_formula_units_Z   4
loop_
 _symmetry_equiv_pos_site_id
 _symmetry_equiv_pos_as_xyz
  1  'x, y, z'
loop_
 _atom_site_type_symbol
 _atom_site_label
 _atom_site_symmetry_multiplicity
 _atom_site_fract_x
 _atom_site_fract_y
 _atom_site_fract_z
 _atom_site_occupancy
  Sr  Sr0  1  0.99968900  0.46451200  0.82084600  1
  Sr  Sr1  1  0.00021800  0.96373900  0.32046400  1
  Sr  Sr2  1  0.50142400  0.71440200  0.56993100  1
  Sr  Sr3  1  0.49877300  0.21241700  0.07285000  1
  La  La0  1  0.49835600  0.78366800  0.92929400  1
  La  La1  1  0.50112900  0.28607000  0.42783500  1
  La  La2  1  0.99986900  0.03630700  0.67793400  1
  La  La3  1  0.00019600  0.53450600  0.18001800  1
  Co  Co0  1  0.49946300  0.25428100  0.75352900  1
  Co  Co1  1  0.00113400  0.50909400  0.50027500  1
  Co  Co2  1  0.49972100  0.75354400  0.25084900  1
  Co  Co3  1  0.99831800  0.00524800  0.00271700  1
  O  O0  1  0.99989400  0.75231500  0.91575200  1
  O  O1  1  0.00243100  0.25305500  0.41317900  1
  O  O2  1  0.50149300  0.99640500  0.66992900  1
  O  O3  1  0.49652800  0.49685800  0.16602900  1
  O  O4  1  0.49930700  0.50914900  0.83852500  1
  O  O5  1  0.50042300  0.01344600  0.33918600  1
  O  O6  1  0.00056600  0.76314100  0.58577400  1
  O  O7  1  0.99774800  0.25921000  0.08635400  1
  O  O8  1  0.74236700  0.12236800  0.86926000  1
  O  O9  1  0.74157600  0.61957300  0.36600700  1
  O  O10  1  0.25933300  0.36238500  0.62665300  1
  O  O11  1  0.25864100  0.86262200  0.12603700  1
  O  O12  1  0.75201400  0.86958100  0.11979200  1
  O  O13  1  0.76104600  0.37144300  0.61834900  1
  O  O14  1  0.24011300  0.11332400  0.87733600  1
  O  O15  1  0.24822900  0.61733800  0.37529200  1
loop_
_geom_bond_atom_site_label_1
_geom_bond_atom_site_label_2
_geom_bond_distance
_geom_bond_site_symmetry_2
La0 O4 2.340980 1_555
La0 O11 2.593354 1_556
La0 O12 2.609099 1_556
La0 O8 2.628539 1_565
La0 O14 2.628615 1_565
La0 O2 2.710097 1_555
La0 O0 2.725160 1_455
La0 O3 2.729381 1_556
La0 O0 2.741567 1_555
La1 O5 2.315309 1_555
La1 O9 2.588830 1_555
La1 O10 2.609444 1_555
La1 O15 2.622256 1_555
La1 O13 2.625910 1_555
La1 O3 2.728216 1_555
La1 O1 2.728445 1_555
La1 O1 2.742233 1_655
La1 O2 2.778763 1_545
La2 O6 2.341229 1_645
La2 O10 2.600876 1_655
La2 O13 2.604685 1_555
La2 O8 2.617664 1_555
La2 O14 2.622449 1_655
La2 O2 2.726514 1_545
La2 O0 2.727775 1_545
La2 O2 2.744863 1_645
La2 O1 2.765606 1_655
La3 O7 2.364581 1_455
La3 O9 2.573075 1_455
La3 O11 2.608881 1_555
La3 O15 2.624910 1_555
La3 O12 2.630320 1_455
La3 O1 2.684802 1_555
La3 O3 2.718367 1_555
La3 O3 2.757951 1_455
La3 O0 2.763503 1_454
Co0 O8 1.864579 1_555
Co0 O10 1.873403 1_555
Co0 O14 1.977543 1_555
Co0 O13 2.006129 1_555
Co0 O4 2.178034 1_555
Co0 O2 2.188482 1_545
Co1 O13 1.865776 1_455
Co1 O15 1.874845 1_555
Co1 O9 1.997642 1_455
Co1 O10 2.015147 1_555
Co1 O6 2.176008 1_555
Co1 O1 2.199054 1_555
Co2 O9 1.862185 1_555
Co2 O11 1.865795 1_555
Co2 O15 1.940425 1_555
Co2 O12 1.943788 1_555
Co2 O3 2.188629 1_555
Co2 O5 2.231750 1_565
Co3 O14 1.856639 1_654
Co3 O12 1.879491 1_545
Co3 O8 1.988788 1_554
Co3 O11 1.997355 1_645
Co3 O7 2.163538 1_555
Co3 O0 2.178376 1_544
O0 Sr0 2.452623 1_555
O1 Sr1 2.448479 1_545
O2 Sr2 2.448555 1_555
O3 Sr3 2.420067 1_555
O4 Sr0 2.745346 1_455
O4 Sr3 2.747080 1_556
O4 Sr0 2.749331 1_555
O4 Sr2 2.778312 1_555
O5 Sr2 2.730281 1_545
O5 Sr3 2.747278 1_555
O5 Sr1 2.752154 1_645
O5 Sr1 2.754380 1_545
O6 Sr1 2.740693 1_555
O6 Sr2 2.744649 1_455
O6 Sr2 2.754140 1_555
O6 Sr0 2.759278 1_455
O7 Sr3 2.739700 1_555
O7 Sr1 2.741136 1_645
O7 Sr0 2.750663 1_554
O7 Sr3 2.751192 1_655
O8 Sr0 2.688314 1_555
O8 Sr3 2.696586 1_556
O9 Sr2 2.705257 1_555
O9 Sr1 2.705409 1_655
O10 Sr0 2.697749 1_455
O10 Sr2 2.701783 1_555
O11 Sr3 2.684538 1_565
O11 Sr1 2.693046 1_555
O12 Sr3 2.692345 1_565
O12 Sr1 2.706054 1_655
O13 Sr0 2.692940 1_555
O13 Sr2 2.710403 1_555
O14 Sr0 2.703310 1_455
O14 Sr3 2.706249 1_556
O15 Sr2 2.677000 1_555
O15 Sr1 2.695922 1_555
