# generated using pymatgen
data_Na8N3O
_symmetry_space_group_name_H-M   'P 1'
_cell_length_a   5.78832700
_cell_length_b   5.78832700
_cell_length_c   5.78832700
_cell_angle_alpha   90.00000000
_cell_angle_beta   90.00000000
_cell_angle_gamma   90.00000000
_symmetry_Int_Tables_number   1
_chemical_formula_structural   Na8N3O
_chemical_formula_sum   'Na8 N3 O1'
_cell_volume   193.93633015
_cell_formula_units_Z   1
loop_
 _symmetry_equiv_pos_site_id
 _symmetry_equiv_pos_as_xyz
  1  'x, y, z'
loop_
 _atom_site_type_symbol
 _atom_site_label
 _atom_site_symmetry_multiplicity
 _atom_site_fract_x
 _atom_site_fract_y
 _atom_site_fract_z
 _atom_site_occupancy
  Na  Na0  1  0.25594900  0.74405100  0.25594900  1
  Na  Na1  1  0.74405100  0.25594900  0.25594900  1
  Na  Na2  1  0.74405100  0.74405100  0.74405100  1
  Na  Na3  1  0.25594900  0.25594900  0.74405100  1
  Na  Na4  1  0.25594900  0.74405100  0.74405100  1
  Na  Na5  1  0.74405100  0.25594900  0.74405100  1
  Na  Na6  1  0.74405100  0.74405100  0.25594900  1
  Na  Na7  1  0.25594900  0.25594900  0.25594900  1
  N  N0  1  0.00000000  0.50000000  0.00000000  1
  N  N1  1  0.50000000  0.00000000  0.00000000  1
  N  N2  1  0.00000000  0.00000000  0.50000000  1
  O  O0  1  0.50000000  0.50000000  0.50000000  1
loop_
_geom_bond_atom_site_label_1
_geom_bond_atom_site_label_2
_geom_bond_distance
_geom_bond_site_symmetry_2
Na0 O0 2.446776 1_555
Na1 O0 2.446776 1_555
Na2 O0 2.446776 1_555
Na3 O0 2.446776 1_555
Na4 O0 2.446776 1_555
Na5 O0 2.446776 1_555
Na6 O0 2.446776 1_555
Na7 O0 2.446776 1_555
N0 Na4 2.526926 1_554
N0 Na2 2.526926 1_454
N0 Na6 2.526926 1_455
N0 Na1 2.526926 1_455
N0 Na3 2.526926 1_554
N0 Na0 2.526926 1_555
N0 Na5 2.526926 1_454
N0 Na7 2.526926 1_555
N1 Na4 2.526926 1_544
N1 Na3 2.526926 1_554
N1 Na5 2.526926 1_554
N1 Na2 2.526926 1_544
N1 Na6 2.526926 1_545
N1 Na0 2.526926 1_545
N1 Na7 2.526926 1_555
N1 Na1 2.526926 1_555
N2 Na4 2.526926 1_545
N2 Na1 2.526926 1_455
N2 Na2 2.526926 1_445
N2 Na6 2.526926 1_445
N2 Na3 2.526926 1_555
N2 Na5 2.526926 1_455
N2 Na0 2.526926 1_545
N2 Na7 2.526926 1_555
