# generated using pymatgen
data_Ba4Ti6Si4O25
_symmetry_space_group_name_H-M   'P 1'
_cell_length_a   16.94338200
_cell_length_b   5.93200400
_cell_length_c   10.95840913
_cell_angle_alpha   74.49705083
_cell_angle_beta   90.00000000
_cell_angle_gamma   90.00000000
_symmetry_Int_Tables_number   1
_chemical_formula_structural   Ba4Ti6Si4O25
_chemical_formula_sum   'Ba8 Ti12 Si8 O50'
_cell_volume   1061.33714605
_cell_formula_units_Z   2
loop_
 _symmetry_equiv_pos_site_id
 _symmetry_equiv_pos_as_xyz
  1  'x, y, z'
loop_
 _atom_site_type_symbol
 _atom_site_label
 _atom_site_symmetry_multiplicity
 _atom_site_fract_x
 _atom_site_fract_y
 _atom_site_fract_z
 _atom_site_occupancy
  Ba  Ba0  1  0.37795800  0.60130300  0.54721600  1
  Ba  Ba1  1  0.62204200  0.39869700  0.45278400  1
  Ba  Ba2  1  0.37795800  0.39869700  0.95278400  1
  Ba  Ba3  1  0.62204200  0.60130300  0.04721600  1
  Ba  Ba4  1  0.87770500  0.59382800  0.04815500  1
  Ba  Ba5  1  0.12229500  0.40617200  0.95184500  1
  Ba  Ba6  1  0.87770500  0.40617200  0.45184500  1
  Ba  Ba7  1  0.12229500  0.59382800  0.54815500  1
  Ti  Ti0  1  0.75174300  0.50000000  0.75000000  1
  Ti  Ti1  1  0.24825700  0.50000000  0.25000000  1
  Ti  Ti2  1  0.74719800  0.00000000  0.75000000  1
  Ti  Ti3  1  0.25280200  0.00000000  0.25000000  1
  Ti  Ti4  1  0.94849500  0.76329800  0.72777100  1
  Ti  Ti5  1  0.05150500  0.23670200  0.27222900  1
  Ti  Ti6  1  0.94849500  0.23670200  0.77222900  1
  Ti  Ti7  1  0.05150500  0.76329800  0.22777100  1
  Ti  Ti8  1  0.55127200  0.75808400  0.73031900  1
  Ti  Ti9  1  0.44872800  0.24191600  0.26968100  1
  Ti  Ti10  1  0.55127200  0.24191600  0.76968100  1
  Ti  Ti11  1  0.44872800  0.75808400  0.23031900  1
  Si  Si0  1  0.25104800  0.88742900  0.97260100  1
  Si  Si1  1  0.74895200  0.11257100  0.02739900  1
  Si  Si2  1  0.25104800  0.11257100  0.52739900  1
  Si  Si3  1  0.74895200  0.88742900  0.47260100  1
  Si  Si4  1  0.38315700  0.00000000  0.75000000  1
  Si  Si5  1  0.61684300  0.00000000  0.25000000  1
  Si  Si6  1  0.11860700  0.00000000  0.75000000  1
  Si  Si7  1  0.88139300  0.00000000  0.25000000  1
  O  O0  1  0.32876200  0.93908800  0.87930200  1
  O  O1  1  0.67123800  0.06091200  0.12069800  1
  O  O2  1  0.32876200  0.06091200  0.62069800  1
  O  O3  1  0.67123800  0.93908800  0.37930200  1
  O  O4  1  0.74728100  0.61605500  0.55662700  1
  O  O5  1  0.25271900  0.38394500  0.44337300  1
  O  O6  1  0.74728100  0.38394500  0.94337300  1
  O  O7  1  0.25271900  0.61605500  0.05662700  1
  O  O8  1  0.75074300  0.92382100  0.94354300  1
  O  O9  1  0.24925700  0.07617900  0.05645700  1
  O  O10  1  0.75074300  0.07617900  0.55645700  1
  O  O11  1  0.24925700  0.92382100  0.44354300  1
  O  O12  1  0.54752800  0.55902700  0.62745500  1
  O  O13  1  0.45247200  0.44097300  0.37254500  1
  O  O14  1  0.54752800  0.44097300  0.87254500  1
  O  O15  1  0.45247200  0.55902700  0.12745500  1
  O  O16  1  0.55524200  0.94018400  0.87009900  1
  O  O17  1  0.44475800  0.05981600  0.12990100  1
  O  O18  1  0.55524200  0.05981600  0.62990100  1
  O  O19  1  0.44475800  0.94018400  0.37009900  1
  O  O20  1  0.82498300  0.74441600  0.75601200  1
  O  O21  1  0.17501700  0.25558400  0.24398800  1
  O  O22  1  0.82498300  0.25558400  0.74398800  1
  O  O23  1  0.17501700  0.74441600  0.25601200  1
  O  O24  1  0.43248500  0.76619800  0.74930200  1
  O  O25  1  0.56751500  0.23380200  0.25069800  1
  O  O26  1  0.43248500  0.23380200  0.75069800  1
  O  O27  1  0.56751500  0.76619800  0.24930200  1
  O  O28  1  0.82629300  0.92206300  0.37846700  1
  O  O29  1  0.17370700  0.07793700  0.62153300  1
  O  O30  1  0.82629300  0.07793700  0.12153300  1
  O  O31  1  0.17370700  0.92206300  0.87846700  1
  O  O32  1  0.93173600  0.77072200  0.24389800  1
  O  O33  1  0.06826400  0.22927800  0.75610200  1
  O  O34  1  0.93173600  0.22927800  0.25610200  1
  O  O35  1  0.06826400  0.77072200  0.74389800  1
  O  O36  1  0.25182300  0.50000000  0.75000000  1
  O  O37  1  0.74817700  0.50000000  0.25000000  1
  O  O38  1  0.94352000  0.93557100  0.87067500  1
  O  O39  1  0.05648000  0.06442900  0.12932500  1
  O  O40  1  0.94352000  0.06442900  0.62932500  1
  O  O41  1  0.05648000  0.93557100  0.37067500  1
  O  O42  1  0.67321000  0.74552700  0.75905500  1
  O  O43  1  0.32679000  0.25447300  0.24094500  1
  O  O44  1  0.67321000  0.25447300  0.74094500  1
  O  O45  1  0.32679000  0.74552700  0.25905500  1
  O  O46  1  0.95229800  0.55819600  0.62766800  1
  O  O47  1  0.04770200  0.44180400  0.37233200  1
  O  O48  1  0.95229800  0.44180400  0.87233200  1
  O  O49  1  0.04770200  0.55819600  0.12766800  1
loop_
_geom_bond_atom_site_label_1
_geom_bond_atom_site_label_2
_geom_bond_distance
_geom_bond_site_symmetry_2
Ba0 O19 2.646412 1_555
Ba0 O13 2.671241 1_555
Ba0 O24 2.805799 1_555
Ba0 O26 2.824814 1_555
Ba0 O5 2.871329 1_555
Ba0 O11 2.923042 1_555
Ba0 O12 2.995465 1_555
Ba0 O36 3.025361 1_555
Ba0 O2 3.154380 1_565
Ba0 O45 3.164011 1_555
Ba0 O2 3.199875 1_555
Ba1 O18 2.646412 1_555
Ba1 O12 2.671241 1_555
Ba1 O25 2.805799 1_555
Ba1 O27 2.824814 1_555
Ba1 O4 2.871329 1_555
Ba1 O10 2.923042 1_555
Ba1 O13 2.995465 1_555
Ba1 O37 3.025361 1_555
Ba1 O3 3.154380 1_545
Ba1 O44 3.164011 1_555
Ba1 O3 3.199875 1_555
Ba2 O17 2.646412 1_556
Ba2 O15 2.671241 1_556
Ba2 O26 2.805799 1_555
Ba2 O24 2.824814 1_555
Ba2 O7 2.871329 1_556
Ba2 O9 2.923042 1_556
Ba2 O14 2.995465 1_555
Ba2 O36 3.025361 1_555
Ba2 O0 3.154380 1_545
Ba2 O43 3.164011 1_556
Ba2 O0 3.199875 1_555
Ba3 O16 2.646412 1_554
Ba3 O14 2.671241 1_554
Ba3 O27 2.805799 1_555
Ba3 O25 2.824814 1_555
Ba3 O6 2.871329 1_554
Ba3 O8 2.923042 1_554
Ba3 O15 2.995465 1_555
Ba3 O37 3.025361 1_555
Ba3 O1 3.154380 1_565
Ba3 O42 3.164011 1_554
Ba3 O1 3.199875 1_555
Ba4 O38 2.651051 1_554
Ba4 O48 2.655517 1_554
Ba4 O32 2.782733 1_555
Ba4 O34 2.841304 1_555
Ba4 O6 2.918236 1_554
Ba4 O8 2.928133 1_554
Ba4 O49 3.000286 1_655
Ba4 O37 3.059513 1_555
Ba4 O30 3.074923 1_555
Ba4 O20 3.211893 1_554
Ba4 O30 3.299499 1_565
Ba5 O39 2.651051 1_556
Ba5 O49 2.655517 1_556
Ba5 O33 2.782733 1_555
Ba5 O35 2.841304 1_555
Ba5 O7 2.918236 1_556
Ba5 O9 2.928133 1_556
Ba5 O48 3.000286 1_455
Ba5 O36 3.059513 1_555
Ba5 O31 3.074923 1_555
Ba5 O21 3.211893 1_556
Ba5 O31 3.299499 1_545
Ba6 O40 2.651051 1_555
Ba6 O46 2.655517 1_555
Ba6 O34 2.782733 1_555
Ba6 O32 2.841304 1_555
Ba6 O4 2.918236 1_555
Ba6 O10 2.928133 1_555
Ba6 O47 3.000286 1_655
Ba6 O37 3.059513 1_555
Ba6 O28 3.074923 1_555
Ba6 O22 3.211893 1_555
Ba6 O28 3.299499 1_545
Ba7 O41 2.651051 1_555
Ba7 O47 2.655517 1_555
Ba7 O35 2.782733 1_555
Ba7 O33 2.841304 1_555
Ba7 O5 2.918236 1_555
Ba7 O11 2.928133 1_555
Ba7 O46 3.000286 1_455
Ba7 O36 3.059513 1_555
Ba7 O29 3.074923 1_555
Ba7 O23 3.211893 1_555
Ba7 O29 3.299499 1_565
O0 Si0 1.644852 1_555
O0 Si4 1.647424 1_565
O1 Si1 1.644852 1_555
O1 Si5 1.647424 1_555
O2 Si2 1.644852 1_555
O2 Si4 1.647424 1_555
O3 Si3 1.644852 1_555
O3 Si5 1.647424 1_565
O4 Si3 1.627174 1_555
O4 Ti0 2.047002 1_555
O5 Si2 1.627174 1_555
O5 Ti1 2.047002 1_555
O6 Si1 1.627174 1_556
O6 Ti0 2.047002 1_555
O7 Si0 1.627174 1_554
O7 Ti1 2.047002 1_555
O8 Si1 1.627582 1_566
O8 Ti2 2.047871 1_565
O9 Si0 1.627582 1_544
O9 Ti3 2.047871 1_555
O10 Si3 1.627582 1_545
O10 Ti2 2.047871 1_555
O11 Si2 1.627582 1_565
O11 Ti3 2.047871 1_565
O12 Ti8 1.838615 1_555
O12 Ti10 2.098673 1_555
O13 Ti9 1.838615 1_555
O13 Ti11 2.098673 1_555
O14 Ti10 1.838615 1_555
O14 Ti8 2.098673 1_555
O15 Ti11 1.838615 1_555
O15 Ti9 2.098673 1_555
O16 Ti10 1.834720 1_565
O16 Ti8 2.098150 1_555
O17 Ti11 1.834720 1_545
O17 Ti9 2.098150 1_555
O18 Ti8 1.834720 1_545
O18 Ti10 2.098150 1_555
O19 Ti9 1.834720 1_565
O19 Ti11 2.098150 1_555
O20 Ti0 1.922878 1_555
O20 Ti2 1.996634 1_565
O20 Ti4 2.114055 1_555
O21 Ti1 1.922878 1_555
O21 Ti3 1.996634 1_555
O21 Ti5 2.114055 1_555
O22 Ti0 1.922878 1_555
O22 Ti2 1.996634 1_555
O22 Ti6 2.114055 1_555
O23 Ti1 1.922878 1_555
O23 Ti3 1.996634 1_565
O23 Ti7 2.114055 1_555
O24 Si4 1.621047 1_565
O24 Ti8 2.025270 1_555
O25 Si5 1.621047 1_555
O25 Ti9 2.025270 1_555
O26 Si4 1.621047 1_555
O26 Ti10 2.025270 1_555
O27 Si5 1.621047 1_565
O27 Ti11 2.025270 1_555
O28 Si3 1.646276 1_555
O28 Si7 1.649020 1_565
O29 Si2 1.646276 1_555
O29 Si6 1.649020 1_555
O30 Si1 1.646276 1_555
O30 Si7 1.649020 1_555
O31 Si0 1.646276 1_555
O31 Si6 1.649020 1_565
O32 Si7 1.621875 1_565
O32 Ti7 2.038469 1_655
O33 Si6 1.621875 1_555
O33 Ti6 2.038469 1_455
O34 Si7 1.621875 1_555
O34 Ti5 2.038469 1_655
O35 Si6 1.621875 1_565
O35 Ti4 2.038469 1_455
O38 Ti6 1.825285 1_565
O38 Ti4 2.087892 1_555
O39 Ti7 1.825285 1_545
O39 Ti5 2.087892 1_555
O40 Ti4 1.825285 1_545
O40 Ti6 2.087892 1_555
O41 Ti5 1.825285 1_565
O41 Ti7 2.087892 1_555
O42 Ti2 1.944222 1_565
O42 Ti0 1.994727 1_555
O42 Ti8 2.088229 1_555
O43 Ti3 1.944222 1_555
O43 Ti1 1.994727 1_555
O43 Ti9 2.088229 1_555
O44 Ti2 1.944222 1_555
O44 Ti0 1.994727 1_555
O44 Ti10 2.088229 1_555
O45 Ti3 1.944222 1_565
O45 Ti1 1.994727 1_555
O45 Ti11 2.088229 1_555
O46 Ti4 1.844245 1_555
O46 Ti6 2.129723 1_555
O47 Ti5 1.844245 1_555
O47 Ti7 2.129723 1_555
O48 Ti6 1.844245 1_555
O48 Ti4 2.129723 1_555
O49 Ti7 1.844245 1_555
O49 Ti5 2.129723 1_555
