# generated using pymatgen
data_Re2W
_symmetry_space_group_name_H-M   'P 1'
_cell_length_a   5.13529035
_cell_length_b   5.13529035
_cell_length_c   8.38143600
_cell_angle_alpha   90.00000000
_cell_angle_beta   90.00000000
_cell_angle_gamma   120.00000451
_symmetry_Int_Tables_number   1
_chemical_formula_structural   Re2W
_chemical_formula_sum   'Re8 W4'
_cell_volume   191.41635961
_cell_formula_units_Z   4
loop_
 _symmetry_equiv_pos_site_id
 _symmetry_equiv_pos_as_xyz
  1  'x, y, z'
loop_
 _atom_site_type_symbol
 _atom_site_label
 _atom_site_symmetry_multiplicity
 _atom_site_fract_x
 _atom_site_fract_y
 _atom_site_fract_z
 _atom_site_occupancy
  Re  Re0  1  0.00000000  0.00000000  0.50000000  1
  Re  Re1  1  0.00000000  0.00000000  0.00000000  1
  Re  Re2  1  0.82760500  0.17239500  0.25000000  1
  Re  Re3  1  0.82760500  0.65521000  0.25000000  1
  Re  Re4  1  0.34479000  0.17239500  0.25000000  1
  Re  Re5  1  0.17239500  0.82760500  0.75000000  1
  Re  Re6  1  0.17239500  0.34479000  0.75000000  1
  Re  Re7  1  0.65521000  0.82760500  0.75000000  1
  W  W0  1  0.33333300  0.66666700  0.43335100  1
  W  W1  1  0.66666700  0.33333300  0.56664900  1
  W  W2  1  0.66666700  0.33333300  0.93335100  1
  W  W3  1  0.33333300  0.66666700  0.06664900  1
loop_
_geom_bond_atom_site_label_1
_geom_bond_atom_site_label_2
_geom_bond_distance
_geom_bond_site_symmetry_2
Re0 Re7 2.596495 1_445
Re0 Re3 2.596495 1_445
Re0 Re4 2.596495 1_555
Re0 Re6 2.596495 1_555
Re0 Re5 2.596496 1_545
Re0 Re2 2.596496 1_455
Re0 W1 3.017024 1_455
Re0 W0 3.017024 1_545
Re0 W0 3.017028 1_445
Re0 W0 3.017028 1_555
Re0 W1 3.017028 1_445
Re0 W1 3.017028 1_555
Re1 Re6 2.596495 1_554
Re1 Re3 2.596495 1_445
Re1 Re4 2.596495 1_555
Re1 Re7 2.596495 1_444
Re1 Re5 2.596496 1_544
Re1 Re2 2.596496 1_455
Re1 W2 3.017024 1_454
Re1 W3 3.017024 1_545
Re1 W2 3.017028 1_554
Re1 W2 3.017028 1_444
Re1 W3 3.017028 1_445
Re1 W3 3.017028 1_555
Re2 Re3 2.479395 1_555
Re2 Re4 2.479395 1_555
Re2 Re4 2.655895 1_655
Re2 Re3 2.655895 1_545
Re2 W3 2.992822 1_545
Re2 W0 2.992822 1_545
Re2 W0 2.992822 1_655
Re2 W3 2.992822 1_655
Re2 W2 3.015410 1_554
Re2 W1 3.015410 1_555
Re3 Re4 2.479395 1_555
Re3 Re4 2.655895 1_665
Re3 W3 2.992820 1_655
Re3 W0 2.992820 1_655
Re3 W3 2.992824 1_555
Re3 W0 2.992824 1_555
Re3 W1 3.015412 1_555
Re3 W2 3.015412 1_554
Re4 W3 2.992820 1_545
Re4 W0 2.992820 1_545
Re4 W3 2.992824 1_555
Re4 W0 2.992824 1_555
Re4 W1 3.015412 1_555
Re4 W2 3.015412 1_554
Re5 Re7 2.479395 1_555
Re5 Re6 2.479395 1_555
Re5 Re6 2.655895 1_565
Re5 Re7 2.655895 1_455
Re5 W2 2.992822 1_455
Re5 W1 2.992822 1_455
Re5 W1 2.992822 1_565
Re5 W2 2.992822 1_565
Re5 W3 3.015410 1_556
Re5 W0 3.015410 1_555
Re6 Re7 2.479395 1_555
Re6 Re7 2.655895 1_445
Re6 W1 2.992820 1_455
Re6 W2 2.992820 1_455
Re6 W1 2.992824 1_555
Re6 W2 2.992824 1_555
Re6 W0 3.015412 1_555
Re6 W3 3.015412 1_556
Re7 W1 2.992820 1_565
Re7 W2 2.992820 1_565
Re7 W1 2.992824 1_555
Re7 W2 2.992824 1_555
Re7 W3 3.015412 1_556
Re7 W0 3.015412 1_555
W0 W3 3.073489 1_555
W0 W1 3.168372 1_455
W0 W1 3.168372 1_565
W0 W1 3.168381 1_555
W1 W2 3.073489 1_555
W2 W3 3.168372 1_546
W2 W3 3.168372 1_656
W2 W3 3.168381 1_556
