# generated using pymatgen
data_Er6Al2Ge7
_symmetry_space_group_name_H-M   'P 1'
_cell_length_a   5.61493261
_cell_length_b   5.61493261
_cell_length_c   14.99199417
_cell_angle_alpha   89.22485160
_cell_angle_beta   89.22485160
_cell_angle_gamma   42.75095782
_symmetry_Int_Tables_number   1
_chemical_formula_structural   Er6Al2Ge7
_chemical_formula_sum   'Er6 Al2 Ge7'
_cell_volume   320.81364417
_cell_formula_units_Z   1
loop_
 _symmetry_equiv_pos_site_id
 _symmetry_equiv_pos_as_xyz
  1  'x, y, z'
loop_
 _atom_site_type_symbol
 _atom_site_label
 _atom_site_symmetry_multiplicity
 _atom_site_fract_x
 _atom_site_fract_y
 _atom_site_fract_z
 _atom_site_occupancy
  Er  Er0  1  0.68703600  0.68703600  0.90662600  1
  Er  Er1  1  0.02641200  0.02641200  0.23904700  1
  Er  Er2  1  0.35883500  0.35883500  0.57191500  1
  Er  Er3  1  0.97358800  0.97358800  0.76095300  1
  Er  Er4  1  0.31296400  0.31296400  0.09337400  1
  Er  Er5  1  0.64116500  0.64116500  0.42808500  1
  Al  Al0  1  0.33383200  0.33383200  0.33374200  1
  Al  Al1  1  0.66616800  0.66616800  0.66625800  1
  Ge  Ge0  1  0.39977600  0.39977600  0.90026500  1
  Ge  Ge1  1  0.74047800  0.74047800  0.23913100  1
  Ge  Ge2  1  0.07126500  0.07126500  0.57068200  1
  Ge  Ge3  1  0.25952200  0.25952200  0.76086900  1
  Ge  Ge4  1  0.60022400  0.60022400  0.09973500  1
  Ge  Ge5  1  0.92873500  0.92873500  0.42931800  1
  Ge  Ge6  1  0.00000000  0.00000000  0.00000000  1
loop_
_geom_bond_atom_site_label_1
_geom_bond_atom_site_label_2
_geom_bond_distance
_geom_bond_site_symmetry_2
Er0 Ge0 3.006886 1_555
Er0 Ge4 3.021477 1_556
Er0 Ge0 3.023324 1_655
Er0 Ge0 3.023324 1_565
Er0 Ge3 3.080544 1_565
Er0 Ge3 3.080544 1_655
Er0 Ge6 3.145454 1_566
Er0 Ge6 3.145454 1_656
Er0 Ge6 3.578247 1_666
Er1 Ge1 2.990104 1_445
Er1 Ge5 3.015906 1_445
Er1 Ge4 3.016506 1_545
Er1 Ge4 3.016506 1_455
Er1 Ge1 3.033073 1_455
Er1 Ge1 3.033073 1_545
Er1 Ge6 3.598417 1_555
Er2 Ge3 3.002974 1_555
Er2 Ge2 3.007555 1_555
Er2 Ge2 3.020313 1_565
Er2 Ge2 3.020313 1_655
Er2 Ge5 3.040955 1_545
Er2 Ge5 3.040955 1_455
Er3 Ge3 2.990104 1_665
Er3 Ge2 3.015906 1_665
Er3 Ge0 3.016506 1_565
Er3 Ge0 3.016506 1_655
Er3 Ge3 3.033073 1_655
Er3 Ge3 3.033073 1_565
Er3 Ge6 3.598417 1_666
Er4 Ge4 3.006886 1_555
Er4 Ge0 3.021477 1_554
Er4 Ge4 3.023324 1_455
Er4 Ge4 3.023324 1_545
Er4 Ge1 3.080544 1_545
Er4 Ge1 3.080544 1_455
Er4 Ge6 3.145454 1_565
Er4 Ge6 3.145454 1_655
Er4 Ge6 3.578247 1_555
Er5 Ge1 3.002974 1_555
Er5 Ge5 3.007555 1_555
Er5 Ge5 3.020313 1_545
Er5 Ge5 3.020313 1_455
Er5 Ge2 3.040955 1_565
Er5 Ge2 3.040955 1_655
Al0 Ge1 2.682052 1_545
Al0 Ge1 2.682052 1_455
Al0 Ge5 2.695854 1_545
Al0 Ge5 2.695854 1_455
Al0 Er5 3.188312 1_545
Al0 Er5 3.188312 1_455
Al0 Er1 3.190040 1_565
Al0 Er1 3.190040 1_655
Al1 Ge3 2.682052 1_655
Al1 Ge3 2.682052 1_565
Al1 Ge2 2.695854 1_565
Al1 Ge2 2.695854 1_655
Al1 Er2 3.188312 1_565
Al1 Er2 3.188312 1_655
Al1 Er3 3.190040 1_545
Al1 Er3 3.190040 1_455
Ge0 Ge3 2.570526 1_555
Ge0 Ge6 2.750992 1_656
Ge0 Ge6 2.750992 1_566
Ge1 Ge4 2.570526 1_555
Ge2 Ge5 2.608620 1_445
Ge4 Ge6 2.750992 1_655
Ge4 Ge6 2.750992 1_565
