# generated using pymatgen
data_FeCu2SbO6
_symmetry_space_group_name_H-M   'P 1'
_cell_length_a   8.39704554
_cell_length_b   8.39704554
_cell_length_c   8.39704554
_cell_angle_alpha   109.74441787
_cell_angle_beta   109.37467882
_cell_angle_gamma   109.29492085
_symmetry_Int_Tables_number   1
_chemical_formula_structural   FeCu2SbO6
_chemical_formula_sum   'Fe4 Cu8 Sb4 O24'
_cell_volume   455.77449168
_cell_formula_units_Z   4
loop_
 _symmetry_equiv_pos_site_id
 _symmetry_equiv_pos_as_xyz
  1  'x, y, z'
loop_
 _atom_site_type_symbol
 _atom_site_label
 _atom_site_symmetry_multiplicity
 _atom_site_fract_x
 _atom_site_fract_y
 _atom_site_fract_z
 _atom_site_occupancy
  Fe  Fe0  1  0.46088700  0.25000000  0.71088700  1
  Fe  Fe1  1  0.03911300  0.75000000  0.78911300  1
  Fe  Fe2  1  0.53911300  0.75000000  0.28911300  1
  Fe  Fe3  1  0.96088700  0.25000000  0.21088700  1
  Cu  Cu0  1  0.72126800  0.47126800  0.25000000  1
  Cu  Cu1  1  0.77873200  0.02873200  0.75000000  1
  Cu  Cu2  1  0.25000000  0.72258100  0.47258100  1
  Cu  Cu3  1  0.75000000  0.77741900  0.02741900  1
  Cu  Cu4  1  0.27873200  0.52873200  0.75000000  1
  Cu  Cu5  1  0.22126800  0.97126800  0.25000000  1
  Cu  Cu6  1  0.75000000  0.27741900  0.52741900  1
  Cu  Cu7  1  0.25000000  0.22258100  0.97258100  1
  Sb  Sb0  1  0.00000000  0.50000000  0.00000000  1
  Sb  Sb1  1  0.50000000  0.00000000  0.00000000  1
  Sb  Sb2  1  0.00000000  0.00000000  0.50000000  1
  Sb  Sb3  1  0.50000000  0.50000000  0.50000000  1
  O  O0  1  0.03690300  0.26561300  0.98731500  1
  O  O1  1  0.72170100  0.23438700  0.27129000  1
  O  O2  1  0.77829900  0.04958900  0.51268500  1
  O  O3  1  0.46309700  0.45041100  0.22871000  1
  O  O4  1  0.97125500  0.04447300  0.27261000  1
  O  O5  1  0.27186300  0.69864400  0.22739000  1
  O  O6  1  0.52874500  0.80135600  0.07321800  1
  O  O7  1  0.22813700  0.45552700  0.42678200  1
  O  O8  1  0.27675500  0.97966400  0.04815700  1
  O  O9  1  0.22324500  0.27140200  0.70290900  1
  O  O10  1  0.06849300  0.52033600  0.79709100  1
  O  O11  1  0.43150700  0.22859800  0.45184300  1
  O  O12  1  0.96309700  0.73438700  0.01268500  1
  O  O13  1  0.27829900  0.76561300  0.72871000  1
  O  O14  1  0.22170100  0.95041100  0.48731500  1
  O  O15  1  0.53690300  0.54958900  0.77129000  1
  O  O16  1  0.02874500  0.95552700  0.72739000  1
  O  O17  1  0.72813700  0.30135600  0.77261000  1
  O  O18  1  0.47125500  0.19864400  0.92678200  1
  O  O19  1  0.77186300  0.54447300  0.57321800  1
  O  O20  1  0.72324500  0.02033600  0.95184300  1
  O  O21  1  0.77675500  0.72859800  0.29709100  1
  O  O22  1  0.93150700  0.47966400  0.20290900  1
  O  O23  1  0.56849300  0.77140200  0.54815700  1
loop_
_geom_bond_atom_site_label_1
_geom_bond_atom_site_label_2
_geom_bond_distance
_geom_bond_site_symmetry_2
Fe0 O17 1.982009 1_555
Fe0 O18 1.982016 1_555
Fe0 O11 2.043331 1_555
Fe0 O9 2.043331 1_555
Fe0 O14 2.203440 1_545
Fe0 O15 2.203441 1_555
Fe1 O16 1.982011 1_555
Fe1 O19 1.982011 1_455
Fe1 O8 2.043331 1_556
Fe1 O10 2.043331 1_555
Fe1 O12 2.203433 1_456
Fe1 O13 2.203441 1_555
Fe2 O5 1.982009 1_555
Fe2 O6 1.982016 1_555
Fe2 O21 2.043331 1_555
Fe2 O23 2.043331 1_555
Fe2 O2 2.203440 1_565
Fe2 O3 2.203441 1_555
Fe3 O7 1.982011 1_655
Fe3 O4 1.982011 1_555
Fe3 O22 2.043331 1_555
Fe3 O20 2.043331 1_554
Fe3 O0 2.203433 1_654
Fe3 O1 2.203441 1_555
Cu0 O22 1.917726 1_555
Cu0 O21 1.917726 1_555
Cu0 O1 2.057450 1_555
Cu0 O3 2.057450 1_555
Cu0 O19 2.420683 1_555
Cu0 O18 2.420685 1_554
Cu1 O23 1.917726 1_545
Cu1 O20 1.917726 1_555
Cu1 O0 2.057453 1_655
Cu1 O2 2.057459 1_555
Cu1 O16 2.420683 1_645
Cu1 O17 2.420691 1_555
Cu2 O14 1.972749 1_555
Cu2 O13 1.972751 1_555
Cu2 O5 2.075730 1_555
Cu2 O7 2.075732 1_555
Cu2 O23 2.386797 1_555
Cu2 O22 2.386797 1_455
Cu3 O15 1.972751 1_554
Cu3 O12 1.972753 1_555
Cu3 O4 2.075732 1_565
Cu3 O6 2.075734 1_555
Cu3 O21 2.386797 1_555
Cu3 O20 2.386797 1_564
Cu4 O10 1.917726 1_555
Cu4 O9 1.917726 1_555
Cu4 O15 2.057450 1_555
Cu4 O13 2.057450 1_555
Cu4 O7 2.420683 1_555
Cu4 O6 2.420685 1_556
Cu5 O8 1.917726 1_555
Cu5 O11 1.917726 1_565
Cu5 O12 2.057453 1_455
Cu5 O14 2.057459 1_555
Cu5 O4 2.420683 1_465
Cu5 O5 2.420691 1_555
Cu6 O2 1.972749 1_555
Cu6 O1 1.972751 1_555
Cu6 O17 2.075730 1_555
Cu6 O19 2.075732 1_555
Cu6 O10 2.386797 1_655
Cu6 O11 2.386797 1_555
Cu7 O3 1.972751 1_556
Cu7 O0 1.972753 1_555
Cu7 O16 2.075732 1_545
Cu7 O18 2.075734 1_555
Cu7 O9 2.386797 1_555
Cu7 O8 2.386797 1_546
O0 Sb0 2.065023 1_556
O1 Sb1 2.065021 1_555
O2 Sb2 2.065019 1_655
O3 Sb3 2.065021 1_555
O4 Sb2 2.019678 1_655
O5 Sb0 2.019677 1_555
O6 Sb1 2.019670 1_565
O7 Sb3 2.019678 1_555
O8 Sb1 2.011183 1_565
O9 Sb2 2.011183 1_555
O10 Sb0 2.011183 1_556
O11 Sb3 2.011183 1_555
O12 Sb0 2.065023 1_655
O13 Sb1 2.065021 1_566
O14 Sb2 2.065019 1_565
O15 Sb3 2.065021 1_555
O16 Sb2 2.019678 1_565
O17 Sb0 2.019677 1_656
O18 Sb1 2.019670 1_556
O19 Sb3 2.019678 1_555
O20 Sb1 2.011183 1_556
O21 Sb2 2.011183 1_665
O22 Sb0 2.011183 1_655
O23 Sb3 2.011183 1_555
