# generated using pymatgen
data_TeMoWSe2S
_symmetry_space_group_name_H-M   'P 1'
_cell_length_a   3.34070577
_cell_length_b   3.34070577
_cell_length_c   38.07748600
_cell_angle_alpha   90.00000000
_cell_angle_beta   90.00000000
_cell_angle_gamma   119.99999550
_symmetry_Int_Tables_number   1
_chemical_formula_structural   TeMoWSe2S
_chemical_formula_sum   'Te2 Mo2 W2 Se4 S2'
_cell_volume   368.02334941
_cell_formula_units_Z   2
loop_
 _symmetry_equiv_pos_site_id
 _symmetry_equiv_pos_as_xyz
  1  'x, y, z'
loop_
 _atom_site_type_symbol
 _atom_site_label
 _atom_site_symmetry_multiplicity
 _atom_site_fract_x
 _atom_site_fract_y
 _atom_site_fract_z
 _atom_site_occupancy
  Te  Te0  1  0.33333300  0.66666700  0.41984100  1
  Te  Te1  1  0.33333300  0.66666700  0.51943300  1
  Mo  Mo0  1  0.00000000  0.00000000  0.09392300  1
  Mo  Mo1  1  0.00000000  0.00000000  0.46963600  1
  W  W0  1  0.33333300  0.66666700  0.28179600  1
  W  W1  1  0.33333300  0.66666700  0.65757500  1
  Se  Se0  1  0.00000000  0.00000000  0.70154500  1
  Se  Se1  1  0.33333300  0.66666700  0.05012800  1
  Se  Se2  1  0.33333300  0.66666700  0.13770800  1
  Se  Se3  1  0.00000000  0.00000000  0.61357400  1
  S  S0  1  0.00000000  0.00000000  0.32179900  1
  S  S1  1  0.00000000  0.00000000  0.24179000  1
loop_
_geom_bond_atom_site_label_1
_geom_bond_atom_site_label_2
_geom_bond_distance
_geom_bond_site_symmetry_2
Mo0 Se2 2.549457 1_545
Mo0 Se2 2.549459 1_445
Mo0 Se2 2.549459 1_555
Mo0 Se1 2.549706 1_545
Mo0 Se1 2.549708 1_445
Mo0 Se1 2.549708 1_555
Mo1 Te0 2.704658 1_545
Mo1 Te0 2.704660 1_445
Mo1 Te0 2.704660 1_555
Mo1 Te1 2.704711 1_545
Mo1 Te1 2.704713 1_445
Mo1 Te1 2.704713 1_555
Se0 W1 2.554069 1_545
Se0 W1 2.554071 1_555
Se0 W1 2.554071 1_445
Se3 W1 2.554843 1_545
Se3 W1 2.554845 1_445
Se3 W1 2.554845 1_555
S0 W0 2.457698 1_545
S0 W0 2.457700 1_445
S0 W0 2.457700 1_555
S1 W0 2.457768 1_545
S1 W0 2.457771 1_445
S1 W0 2.457771 1_555
