# generated using pymatgen
data_BaVZnP2O9
_symmetry_space_group_name_H-M   'P 1'
_cell_length_a   9.00728200
_cell_length_b   9.19036200
_cell_length_c   18.73567300
_cell_angle_alpha   90.00000000
_cell_angle_beta   90.00000000
_cell_angle_gamma   90.00000000
_symmetry_Int_Tables_number   1
_chemical_formula_structural   BaVZnP2O9
_chemical_formula_sum   'Ba8 V8 Zn8 P16 O72'
_cell_volume   1550.94242488
_cell_formula_units_Z   8
loop_
 _symmetry_equiv_pos_site_id
 _symmetry_equiv_pos_as_xyz
  1  'x, y, z'
loop_
 _atom_site_type_symbol
 _atom_site_label
 _atom_site_symmetry_multiplicity
 _atom_site_fract_x
 _atom_site_fract_y
 _atom_site_fract_z
 _atom_site_occupancy
  Ba  Ba0  1  0.65481800  0.50499600  0.09131000  1
  Ba  Ba1  1  0.15481800  0.99500400  0.90869000  1
  Ba  Ba2  1  0.34518200  0.00499600  0.40869000  1
  Ba  Ba3  1  0.84518200  0.49500400  0.59131000  1
  Ba  Ba4  1  0.34518200  0.49500400  0.90869000  1
  Ba  Ba5  1  0.84518200  0.00499600  0.09131000  1
  Ba  Ba6  1  0.65481800  0.99500400  0.59131000  1
  Ba  Ba7  1  0.15481800  0.50499600  0.40869000  1
  V  V0  1  0.49885500  0.65627800  0.28771500  1
  V  V1  1  0.99885500  0.84372200  0.71228500  1
  V  V2  1  0.50114500  0.15627800  0.21228500  1
  V  V3  1  0.00114500  0.34372200  0.78771500  1
  V  V4  1  0.50114500  0.34372200  0.71228500  1
  V  V5  1  0.00114500  0.15627800  0.28771500  1
  V  V6  1  0.49885500  0.84372200  0.78771500  1
  V  V7  1  0.99885500  0.65627800  0.21228500  1
  Zn  Zn0  1  0.68318600  0.40880200  0.41666500  1
  Zn  Zn1  1  0.18318600  0.09119800  0.58333500  1
  Zn  Zn2  1  0.31681400  0.90880200  0.08333500  1
  Zn  Zn3  1  0.81681400  0.59119800  0.91666500  1
  Zn  Zn4  1  0.31681400  0.59119800  0.58333500  1
  Zn  Zn5  1  0.81681400  0.90880200  0.41666500  1
  Zn  Zn6  1  0.68318600  0.09119800  0.91666500  1
  Zn  Zn7  1  0.18318600  0.40880200  0.08333500  1
  P  P0  1  0.95043200  0.29431200  0.97152900  1
  P  P1  1  0.45043200  0.20568800  0.02847100  1
  P  P2  1  0.04956800  0.79431200  0.52847100  1
  P  P3  1  0.54956800  0.70568800  0.47152900  1
  P  P4  1  0.04956800  0.70568800  0.02847100  1
  P  P5  1  0.54956800  0.79431200  0.97152900  1
  P  P6  1  0.95043200  0.20568800  0.47152900  1
  P  P7  1  0.45043200  0.29431200  0.52847100  1
  P  P8  1  0.75102400  0.90351700  0.26197300  1
  P  P9  1  0.25102400  0.59648300  0.73802700  1
  P  P10  1  0.24897600  0.40351700  0.23802700  1
  P  P11  1  0.74897600  0.09648300  0.76197300  1
  P  P12  1  0.24897600  0.09648300  0.73802700  1
  P  P13  1  0.74897600  0.40351700  0.26197300  1
  P  P14  1  0.75102400  0.59648300  0.76197300  1
  P  P15  1  0.25102400  0.90351700  0.23802700  1
  O  O0  1  0.65552000  0.80697100  0.31077600  1
  O  O1  1  0.15552000  0.69302900  0.68922400  1
  O  O2  1  0.34448000  0.30697100  0.18922400  1
  O  O3  1  0.84448000  0.19302900  0.81077600  1
  O  O4  1  0.34448000  0.19302900  0.68922400  1
  O  O5  1  0.84448000  0.30697100  0.31077600  1
  O  O6  1  0.65552000  0.69302900  0.81077600  1
  O  O7  1  0.15552000  0.80697100  0.18922400  1
  O  O8  1  0.66441500  0.00557800  0.21140000  1
  O  O9  1  0.16441500  0.49442200  0.78860000  1
  O  O10  1  0.33558500  0.50557800  0.28860000  1
  O  O11  1  0.83558500  0.99442200  0.71140000  1
  O  O12  1  0.33558500  0.99442200  0.78860000  1
  O  O13  1  0.83558500  0.50557800  0.21140000  1
  O  O14  1  0.66441500  0.49442200  0.71140000  1
  O  O15  1  0.16441500  0.00557800  0.28860000  1
  O  O16  1  0.02984800  0.27904700  0.04498400  1
  O  O17  1  0.52984800  0.22095300  0.95501600  1
  O  O18  1  0.97015200  0.77904700  0.45501600  1
  O  O19  1  0.47015200  0.72095300  0.54498400  1
  O  O20  1  0.97015200  0.72095300  0.95501600  1
  O  O21  1  0.47015200  0.77904700  0.04498400  1
  O  O22  1  0.02984800  0.22095300  0.54498400  1
  O  O23  1  0.52984800  0.27904700  0.45501600  1
  O  O24  1  0.84903900  0.99189500  0.31722100  1
  O  O25  1  0.34903900  0.50810500  0.68277900  1
  O  O26  1  0.15096100  0.49189500  0.18277900  1
  O  O27  1  0.53103700  0.64770900  0.20123500  1
  O  O28  1  0.65096100  0.00810500  0.81722100  1
  O  O29  1  0.65096100  0.49189500  0.31722100  1
  O  O30  1  0.84903900  0.50810500  0.81722100  1
  O  O31  1  0.34903900  0.99189500  0.18277900  1
  O  O32  1  0.88132200  0.13849400  0.95994800  1
  O  O33  1  0.38132200  0.36150600  0.04005200  1
  O  O34  1  0.11867800  0.63849400  0.54005200  1
  O  O35  1  0.61867800  0.86150600  0.45994800  1
  O  O36  1  0.11867800  0.86150600  0.04005200  1
  O  O37  1  0.61867800  0.63849400  0.95994800  1
  O  O38  1  0.88132200  0.36150600  0.45994800  1
  O  O39  1  0.38132200  0.13849400  0.54005200  1
  O  O40  1  0.05906400  0.17195500  0.40918400  1
  O  O41  1  0.55906400  0.32804500  0.59081600  1
  O  O42  1  0.94093600  0.67195500  0.09081600  1
  O  O43  1  0.44093600  0.82804500  0.90918400  1
  O  O44  1  0.94093600  0.82804500  0.59081600  1
  O  O45  1  0.44093600  0.67195500  0.40918400  1
  O  O46  1  0.05906400  0.32804500  0.90918400  1
  O  O47  1  0.55906400  0.17195500  0.09081600  1
  O  O48  1  0.14993500  0.31700700  0.29022100  1
  O  O49  1  0.64993500  0.18299300  0.70977900  1
  O  O50  1  0.85006500  0.81700700  0.20977900  1
  O  O51  1  0.35006500  0.68299300  0.79022100  1
  O  O52  1  0.85006500  0.68299300  0.70977900  1
  O  O53  1  0.35006500  0.81700700  0.29022100  1
  O  O54  1  0.14993500  0.18299300  0.79022100  1
  O  O55  1  0.64993500  0.31700700  0.20977900  1
  O  O56  1  0.32582100  0.40975500  0.52357900  1
  O  O57  1  0.82582100  0.09024500  0.47642100  1
  O  O58  1  0.67417900  0.90975500  0.97642100  1
  O  O59  1  0.17417900  0.59024500  0.02357900  1
  O  O60  1  0.67417900  0.59024500  0.47642100  1
  O  O61  1  0.17417900  0.90975500  0.52357900  1
  O  O62  1  0.32582100  0.09024500  0.02357900  1
  O  O63  1  0.82582100  0.40975500  0.97642100  1
  O  O64  1  0.03103700  0.64770900  0.29876500  1
  O  O65  1  0.53103700  0.85229100  0.70123500  1
  O  O66  1  0.96896300  0.14770900  0.20123500  1
  O  O67  1  0.46896300  0.35229100  0.79876500  1
  O  O68  1  0.96896300  0.35229100  0.70123500  1
  O  O69  1  0.46896300  0.14770900  0.29876500  1
  O  O70  1  0.03103700  0.85229100  0.79876500  1
  O  O71  1  0.15096100  0.00810500  0.68277900  1
loop_
_geom_bond_atom_site_label_1
_geom_bond_atom_site_label_2
_geom_bond_distance
_geom_bond_site_symmetry_2
Ba0 O27 2.684202 1_555
Ba0 O37 2.769210 1_554
Ba0 O13 2.777315 1_555
Ba0 O63 2.787820 1_554
Ba0 O55 2.813085 1_555
Ba0 O33 2.954645 1_555
Ba0 O42 2.999365 1_555
Ba0 O21 3.140624 1_555
Ba0 O47 3.179978 1_555
Ba1 O70 2.684202 1_555
Ba1 O36 2.769210 1_556
Ba1 O12 2.777315 1_555
Ba1 O62 2.787820 1_566
Ba1 O54 2.813085 1_565
Ba1 O32 2.954645 1_465
Ba1 O43 2.999365 1_555
Ba1 O20 3.140624 1_455
Ba1 O46 3.179978 1_565
Ba2 O69 2.684202 1_555
Ba2 O39 2.769210 1_555
Ba2 O15 2.777315 1_555
Ba2 O61 2.787820 1_545
Ba2 O53 2.813085 1_545
Ba2 O35 2.954645 1_545
Ba2 O40 2.999365 1_555
Ba2 O23 3.140624 1_555
Ba2 O45 3.179978 1_545
Ba3 O68 2.684202 1_555
Ba3 O38 2.769210 1_555
Ba3 O14 2.777315 1_555
Ba3 O60 2.787820 1_555
Ba3 O52 2.813085 1_555
Ba3 O34 2.954645 1_655
Ba3 O41 2.999365 1_555
Ba3 O22 3.140624 1_655
Ba3 O44 3.179978 1_555
Ba4 O67 2.684202 1_555
Ba4 O33 2.769210 1_556
Ba4 O9 2.777315 1_555
Ba4 O59 2.787820 1_556
Ba4 O51 2.813085 1_555
Ba4 O37 2.954645 1_555
Ba4 O46 2.999365 1_555
Ba4 O17 3.140624 1_555
Ba4 O43 3.179978 1_555
Ba5 O66 2.684202 1_555
Ba5 O32 2.769210 1_554
Ba5 O8 2.777315 1_555
Ba5 O58 2.787820 1_544
Ba5 O50 2.813085 1_545
Ba5 O36 2.954645 1_645
Ba5 O47 2.999365 1_555
Ba5 O16 3.140624 1_655
Ba5 O42 3.179978 1_545
Ba6 O65 2.684202 1_555
Ba6 O35 2.769210 1_555
Ba6 O11 2.777315 1_555
Ba6 O57 2.787820 1_565
Ba6 O49 2.813085 1_565
Ba6 O39 2.954645 1_565
Ba6 O44 2.999365 1_555
Ba6 O19 3.140624 1_555
Ba6 O41 3.179978 1_565
Ba7 O64 2.684202 1_555
Ba7 O34 2.769210 1_555
Ba7 O10 2.777315 1_555
Ba7 O56 2.787820 1_555
Ba7 O48 2.813085 1_555
Ba7 O38 2.954645 1_455
Ba7 O45 2.999365 1_555
Ba7 O18 3.140624 1_455
Ba7 O40 3.179978 1_555
O0 P8 1.537314 1_555
O0 V0 2.023850 1_555
O1 P9 1.537314 1_555
O1 V1 2.023850 1_455
O2 P10 1.537314 1_555
O2 V2 2.023850 1_555
O3 P11 1.537314 1_555
O3 V3 2.023850 1_655
O4 P12 1.537314 1_555
O4 V4 2.023850 1_555
O5 P13 1.537314 1_555
O5 V5 2.023850 1_655
O6 P14 1.537314 1_555
O6 V6 2.023850 1_555
O7 P15 1.537314 1_555
O7 V7 2.023850 1_455
O8 P8 1.544723 1_545
O8 V2 2.020194 1_555
O9 P9 1.544723 1_555
O9 V3 2.020194 1_555
O10 P10 1.544723 1_555
O10 V0 2.020194 1_555
O11 P11 1.544723 1_565
O11 V1 2.020194 1_555
O12 P12 1.544723 1_565
O12 V6 2.020194 1_555
O13 P13 1.544723 1_555
O13 V7 2.020194 1_555
O14 P14 1.544723 1_555
O14 V4 2.020194 1_555
O15 P15 1.544723 1_545
O15 V5 2.020194 1_555
O16 P0 1.557361 1_454
O16 Zn7 1.961105 1_555
O17 P1 1.557361 1_556
O17 Zn6 1.961105 1_555
O18 P2 1.557361 1_655
O18 Zn5 1.961105 1_555
O19 P3 1.557361 1_555
O19 Zn4 1.961105 1_555
O20 P4 1.557361 1_656
O20 Zn3 1.961105 1_555
O21 P5 1.557361 1_554
O21 Zn2 1.961105 1_555
O22 P6 1.557361 1_455
O22 Zn1 1.961105 1_555
O23 P7 1.557361 1_555
O23 Zn0 1.961105 1_555
O24 P8 1.584482 1_555
O24 Zn5 2.034391 1_555
O24 V5 2.113056 1_665
O25 P9 1.584482 1_555
O25 Zn4 2.034391 1_555
O25 V4 2.113056 1_555
O26 P10 1.584482 1_555
O26 Zn7 2.034391 1_555
O26 V7 2.113056 1_455
O27 V0 1.647869 1_555
O28 P11 1.584482 1_555
O28 Zn6 2.034391 1_555
O28 V6 2.113056 1_545
O29 P13 1.584482 1_555
O29 Zn0 2.034391 1_555
O29 V0 2.113056 1_555
O30 P14 1.584482 1_555
O30 Zn3 2.034391 1_555
O30 V3 2.113056 1_655
O31 P15 1.584482 1_555
O31 Zn2 2.034391 1_555
O31 V2 2.113056 1_565
O32 P0 1.576474 1_555
O32 Zn6 2.007882 1_555
O33 P1 1.576474 1_555
O33 Zn7 2.007882 1_555
O34 P2 1.576474 1_555
O34 Zn4 2.007882 1_555
O35 P3 1.576474 1_555
O35 Zn5 2.007882 1_555
O36 P4 1.576474 1_555
O36 Zn2 2.007882 1_555
O37 P5 1.576474 1_555
O37 Zn3 2.007882 1_555
O38 P6 1.576474 1_555
O38 Zn0 2.007882 1_555
O39 P7 1.576474 1_555
O39 Zn1 2.007882 1_555
O40 P6 1.554970 1_455
O40 V5 2.339274 1_555
O41 P7 1.554970 1_555
O41 V4 2.339274 1_555
O42 P4 1.554970 1_655
O42 V7 2.339274 1_555
O43 P5 1.554970 1_555
O43 V6 2.339274 1_555
O44 P2 1.554970 1_655
O44 V1 2.339274 1_555
O45 P3 1.554970 1_555
O45 V0 2.339274 1_555
O46 P0 1.554970 1_455
O46 V3 2.339274 1_555
O47 P1 1.554970 1_555
O47 V2 2.339274 1_555
O48 P10 1.544089 1_555
O48 V5 1.995073 1_555
O49 P11 1.544089 1_555
O49 V4 1.995073 1_555
O50 P8 1.544089 1_555
O50 V7 1.995073 1_555
O51 P9 1.544089 1_555
O51 V6 1.995073 1_555
O52 P14 1.544089 1_555
O52 V1 1.995073 1_555
O53 P15 1.544089 1_555
O53 V0 1.995073 1_555
O54 P12 1.544089 1_555
O54 V3 1.995073 1_555
O55 P13 1.544089 1_555
O55 V2 1.995073 1_555
O56 P7 1.547204 1_555
O56 Zn4 2.010140 1_555
O57 P6 1.547204 1_555
O57 Zn5 2.010140 1_545
O58 P5 1.547204 1_555
O58 Zn6 2.010140 1_565
O59 P4 1.547204 1_555
O59 Zn7 2.010140 1_555
O60 P3 1.547204 1_555
O60 Zn0 2.010140 1_555
O61 P2 1.547204 1_555
O61 Zn1 2.010140 1_565
O62 P1 1.547204 1_555
O62 Zn2 2.010140 1_545
O63 P0 1.547204 1_555
O63 Zn3 2.010140 1_555
O64 V7 1.647869 1_455
O65 V6 1.647869 1_555
O66 V5 1.647869 1_655
O67 V4 1.647869 1_555
O68 V3 1.647869 1_655
O69 V2 1.647869 1_555
O70 V1 1.647869 1_455
O71 P12 1.584482 1_555
O71 Zn1 2.034391 1_555
O71 V1 2.113056 1_445
