# generated using pymatgen
data_Al2Si3(WO4)3
_symmetry_space_group_name_H-M   'P 1'
_cell_length_a   10.19891444
_cell_length_b   10.19891444
_cell_length_c   10.19891444
_cell_angle_alpha   109.47122063
_cell_angle_beta   109.47122063
_cell_angle_gamma   109.47122063
_symmetry_Int_Tables_number   1
_chemical_formula_structural   Al2Si3(WO4)3
_chemical_formula_sum   'Al8 Si12 W12 O48'
_cell_volume   816.65750054
_cell_formula_units_Z   4
loop_
 _symmetry_equiv_pos_site_id
 _symmetry_equiv_pos_as_xyz
  1  'x, y, z'
loop_
 _atom_site_type_symbol
 _atom_site_label
 _atom_site_symmetry_multiplicity
 _atom_site_fract_x
 _atom_site_fract_y
 _atom_site_fract_z
 _atom_site_occupancy
  Al  Al0  1  0.00000000  0.00000000  0.00000000  1
  Al  Al1  1  0.50000000  0.00000000  0.00000000  1
  Al  Al2  1  0.50000000  0.50000000  0.00000000  1
  Al  Al3  1  0.00000000  0.50000000  0.50000000  1
  Al  Al4  1  0.00000000  0.00000000  0.50000000  1
  Al  Al5  1  0.50000000  0.50000000  0.50000000  1
  Al  Al6  1  0.00000000  0.50000000  0.00000000  1
  Al  Al7  1  0.50000000  0.00000000  0.50000000  1
  Si  Si0  1  0.12500000  0.75000000  0.87500000  1
  Si  Si1  1  0.75000000  0.87500000  0.12500000  1
  Si  Si2  1  0.25000000  0.62500000  0.37500000  1
  Si  Si3  1  0.62500000  0.75000000  0.37500000  1
  Si  Si4  1  0.87500000  0.12500000  0.75000000  1
  Si  Si5  1  0.37500000  0.25000000  0.62500000  1
  Si  Si6  1  0.37500000  0.62500000  0.75000000  1
  Si  Si7  1  0.25000000  0.12500000  0.87500000  1
  Si  Si8  1  0.62500000  0.37500000  0.25000000  1
  Si  Si9  1  0.12500000  0.87500000  0.25000000  1
  Si  Si10  1  0.75000000  0.37500000  0.62500000  1
  Si  Si11  1  0.87500000  0.25000000  0.12500000  1
  W  W0  1  0.87500000  0.75000000  0.62500000  1
  W  W1  1  0.87500000  0.62500000  0.25000000  1
  W  W2  1  0.62500000  0.87500000  0.75000000  1
  W  W3  1  0.25000000  0.87500000  0.62500000  1
  W  W4  1  0.75000000  0.62500000  0.87500000  1
  W  W5  1  0.62500000  0.25000000  0.87500000  1
  W  W6  1  0.12500000  0.25000000  0.37500000  1
  W  W7  1  0.12500000  0.37500000  0.75000000  1
  W  W8  1  0.37500000  0.12500000  0.25000000  1
  W  W9  1  0.75000000  0.12500000  0.37500000  1
  W  W10  1  0.25000000  0.37500000  0.12500000  1
  W  W11  1  0.37500000  0.75000000  0.12500000  1
  O  O0  1  0.59235300  0.90280700  0.38927100  1
  O  O1  1  0.38927100  0.59235300  0.90280700  1
  O  O2  1  0.29691800  0.31045400  0.90764700  1
  O  O3  1  0.48646400  0.59719300  0.18954600  1
  O  O4  1  0.31045400  0.90280700  0.01353600  1
  O  O5  1  0.11072900  0.01353600  0.20308200  1
  O  O6  1  0.38927100  0.29691800  0.48646400  1
  O  O7  1  0.90280700  0.38927100  0.59235300  1
  O  O8  1  0.18954600  0.20308200  0.59235300  1
  O  O9  1  0.48646400  0.38927100  0.29691800  1
  O  O10  1  0.90280700  0.01353600  0.31045400  1
  O  O11  1  0.59719300  0.90764700  0.11072900  1
  O  O12  1  0.90764700  0.11072900  0.59719300  1
  O  O13  1  0.29691800  0.48646400  0.38927100  1
  O  O14  1  0.59235300  0.18954600  0.20308200  1
  O  O15  1  0.20308200  0.59235300  0.18954600  1
  O  O16  1  0.01353600  0.31045400  0.90280700  1
  O  O17  1  0.90764700  0.29691800  0.31045400  1
  O  O18  1  0.01353600  0.20308200  0.11072900  1
  O  O19  1  0.81045400  0.79691800  0.40764700  1
  O  O20  1  0.31045400  0.90764700  0.29691800  1
  O  O21  1  0.59719300  0.18954600  0.48646400  1
  O  O22  1  0.20308200  0.11072900  0.01353600  1
  O  O23  1  0.11072900  0.59719300  0.90764700  1
  O  O24  1  0.40764700  0.09719300  0.61072900  1
  O  O25  1  0.61072900  0.40764700  0.09719300  1
  O  O26  1  0.70308200  0.68954600  0.09235300  1
  O  O27  1  0.51353600  0.40280700  0.81045400  1
  O  O28  1  0.68954600  0.09719300  0.98646400  1
  O  O29  1  0.88927100  0.98646400  0.79691800  1
  O  O30  1  0.61072900  0.70308200  0.51353600  1
  O  O31  1  0.09719300  0.61072900  0.40764700  1
  O  O32  1  0.88927100  0.40280700  0.09235300  1
  O  O33  1  0.79691800  0.88927100  0.98646400  1
  O  O34  1  0.40280700  0.81045400  0.51353600  1
  O  O35  1  0.68954600  0.09235300  0.70308200  1
  O  O36  1  0.81045400  0.51353600  0.40280700  1
  O  O37  1  0.98646400  0.79691800  0.88927100  1
  O  O38  1  0.09235300  0.70308200  0.68954600  1
  O  O39  1  0.98646400  0.68954600  0.09719300  1
  O  O40  1  0.79691800  0.40764700  0.81045400  1
  O  O41  1  0.40764700  0.81045400  0.79691800  1
  O  O42  1  0.70308200  0.51353600  0.61072900  1
  O  O43  1  0.09235300  0.88927100  0.40280700  1
  O  O44  1  0.40280700  0.09235300  0.88927100  1
  O  O45  1  0.09719300  0.98646400  0.68954600  1
  O  O46  1  0.51353600  0.61072900  0.70308200  1
  O  O47  1  0.18954600  0.48646400  0.59719300  1
loop_
_geom_bond_atom_site_label_1
_geom_bond_atom_site_label_2
_geom_bond_distance
_geom_bond_site_symmetry_2
Al0 O5 1.931428 1_555
Al0 O18 1.931428 1_555
Al0 O22 1.931428 1_555
Al0 O37 1.931428 1_444
Al0 O29 1.931428 1_444
Al0 O33 1.931428 1_444
Al1 O14 1.931428 1_555
Al1 O41 1.931428 1_544
Al1 O28 1.931428 1_554
Al1 O11 1.931428 1_545
Al1 O4 1.931428 1_545
Al1 O44 1.931428 1_554
Al2 O25 1.931428 1_555
Al2 O26 1.931428 1_555
Al2 O27 1.931428 1_554
Al2 O1 1.931428 1_554
Al2 O3 1.931428 1_555
Al2 O2 1.931428 1_554
Al3 O31 1.931428 1_555
Al3 O36 1.931428 1_455
Al3 O38 1.931428 1_555
Al3 O7 1.931428 1_455
Al3 O47 1.931428 1_555
Al3 O17 1.931428 1_455
Al4 O8 1.931428 1_555
Al4 O19 1.931428 1_445
Al4 O12 1.931428 1_455
Al4 O45 1.931428 1_545
Al4 O43 1.931428 1_545
Al4 O10 1.931428 1_455
Al5 O30 1.931428 1_555
Al5 O42 1.931428 1_555
Al5 O46 1.931428 1_555
Al5 O9 1.931428 1_555
Al5 O6 1.931428 1_555
Al5 O13 1.931428 1_555
Al6 O15 1.931428 1_555
Al6 O39 1.931428 1_455
Al6 O40 1.931428 1_454
Al6 O23 1.931428 1_554
Al6 O32 1.931428 1_455
Al6 O16 1.931428 1_554
Al7 O24 1.931428 1_555
Al7 O34 1.931428 1_545
Al7 O35 1.931428 1_555
Al7 O0 1.931428 1_545
Al7 O21 1.931428 1_555
Al7 O20 1.931428 1_545
O0 Si3 1.669698 1_555
O0 W11 2.349614 1_555
O0 W9 2.385058 1_565
O1 Si6 1.669698 1_555
O1 W7 2.349614 1_555
O1 W11 2.385058 1_556
O2 Si7 1.669698 1_555
O2 W10 2.349614 1_556
O2 W7 2.385058 1_555
O3 Si3 1.669698 1_555
O3 W11 2.349614 1_555
O3 W10 2.385058 1_555
O4 Si0 1.669698 1_554
O4 W11 2.349614 1_555
O4 W8 2.385058 1_565
O5 Si9 1.669698 1_545
O5 W8 2.349614 1_555
O5 W6 2.385058 1_555
O6 Si5 1.669698 1_555
O6 W6 2.349614 1_555
O6 W8 2.385058 1_555
O7 Si10 1.669698 1_555
O7 W9 2.349614 1_555
O7 W7 2.385058 1_655
O8 Si5 1.669698 1_555
O8 W6 2.349614 1_555
O8 W7 2.385058 1_555
O9 Si8 1.669698 1_555
O9 W8 2.349614 1_555
O9 W10 2.385058 1_555
O10 Si1 1.669698 1_545
O10 W9 2.349614 1_555
O10 W6 2.385058 1_655
O11 Si1 1.669698 1_555
O11 W9 2.349614 1_565
O11 W11 2.385058 1_555
O12 Si4 1.669698 1_555
O12 W7 2.349614 1_655
O12 W9 2.385058 1_555
O13 Si2 1.669698 1_555
O13 W10 2.349614 1_555
O13 W6 2.385058 1_555
O14 Si8 1.669698 1_555
O14 W8 2.349614 1_555
O14 W9 2.385058 1_555
O15 Si2 1.669698 1_555
O15 W10 2.349614 1_555
O15 W11 2.385058 1_555
O16 Si4 1.669698 1_455
O16 W7 2.349614 1_555
O16 W10 2.385058 1_556
O17 Si11 1.669698 1_555
O17 W6 2.349614 1_655
O17 W9 2.385058 1_555
O18 Si11 1.669698 1_455
O18 W6 2.349614 1_555
O18 W10 2.385058 1_555
O19 Si3 1.669698 1_555
O19 W0 2.349614 1_555
O19 W1 2.385058 1_555
O20 Si9 1.669698 1_555
O20 W8 2.349614 1_565
O20 W11 2.385058 1_555
O21 Si10 1.669698 1_555
O21 W9 2.349614 1_555
O21 W8 2.385058 1_555
O22 Si7 1.669698 1_554
O22 W10 2.349614 1_555
O22 W8 2.385058 1_555
O23 Si0 1.669698 1_555
O23 W11 2.349614 1_556
O23 W7 2.385058 1_555
O24 Si5 1.669698 1_555
O24 W5 2.349614 1_555
O24 W3 2.385058 1_545
O25 Si8 1.669698 1_555
O25 W1 2.349614 1_555
O25 W5 2.385058 1_554
O26 Si1 1.669698 1_555
O26 W4 2.349614 1_554
O26 W1 2.385058 1_555
O27 Si5 1.669698 1_555
O27 W5 2.349614 1_555
O27 W4 2.385058 1_555
O28 Si11 1.669698 1_556
O28 W5 2.349614 1_555
O28 W2 2.385058 1_545
O29 Si4 1.669698 1_565
O29 W2 2.349614 1_555
O29 W0 2.385058 1_555
O30 Si3 1.669698 1_555
O30 W0 2.349614 1_555
O30 W2 2.385058 1_555
O31 Si2 1.669698 1_555
O31 W3 2.349614 1_555
O31 W1 2.385058 1_455
O32 Si11 1.669698 1_555
O32 W5 2.349614 1_554
O32 W1 2.385058 1_555
O33 Si1 1.669698 1_556
O33 W4 2.349614 1_555
O33 W2 2.385058 1_555
O34 Si2 1.669698 1_555
O34 W3 2.349614 1_555
O34 W2 2.385058 1_555
O35 Si4 1.669698 1_555
O35 W2 2.349614 1_545
O35 W5 2.385058 1_555
O36 Si8 1.669698 1_555
O36 W1 2.349614 1_555
O36 W0 2.385058 1_555
O37 Si0 1.669698 1_655
O37 W0 2.349614 1_555
O37 W4 2.385058 1_555
O38 Si0 1.669698 1_555
O38 W0 2.349614 1_455
O38 W3 2.385058 1_555
O39 Si9 1.669698 1_655
O39 W1 2.349614 1_555
O39 W4 2.385058 1_554
O40 Si10 1.669698 1_555
O40 W4 2.349614 1_555
O40 W5 2.385058 1_555
O41 Si6 1.669698 1_555
O41 W2 2.349614 1_555
O41 W3 2.385058 1_555
O42 Si10 1.669698 1_555
O42 W4 2.349614 1_555
O42 W0 2.385058 1_555
O43 Si9 1.669698 1_555
O43 W1 2.349614 1_455
O43 W3 2.385058 1_555
O44 Si7 1.669698 1_555
O44 W3 2.349614 1_545
O44 W5 2.385058 1_555
O45 Si7 1.669698 1_565
O45 W3 2.349614 1_555
O45 W0 2.385058 1_455
O46 Si6 1.669698 1_555
O46 W2 2.349614 1_555
O46 W4 2.385058 1_555
O47 Si6 1.669698 1_555
O47 W7 2.349614 1_555
O47 W6 2.385058 1_555
