# generated using pymatgen
data_MgMnNiP2O9
_symmetry_space_group_name_H-M   'P 1'
_cell_length_a   6.21643900
_cell_length_b   7.22547800
_cell_length_c   14.21638900
_cell_angle_alpha   90.00000000
_cell_angle_beta   90.00000000
_cell_angle_gamma   90.00000000
_symmetry_Int_Tables_number   1
_chemical_formula_structural   MgMnNiP2O9
_chemical_formula_sum   'Mg4 Mn4 Ni4 P8 O36'
_cell_volume   638.55389441
_cell_formula_units_Z   4
loop_
 _symmetry_equiv_pos_site_id
 _symmetry_equiv_pos_as_xyz
  1  'x, y, z'
loop_
 _atom_site_type_symbol
 _atom_site_label
 _atom_site_symmetry_multiplicity
 _atom_site_fract_x
 _atom_site_fract_y
 _atom_site_fract_z
 _atom_site_occupancy
  Mg  Mg0  1  0.75000000  0.38157000  0.77895200  1
  Mg  Mg1  1  0.75000000  0.11843000  0.27895200  1
  Mg  Mg2  1  0.25000000  0.61843000  0.22104800  1
  Mg  Mg3  1  0.25000000  0.88157000  0.72104800  1
  Mn  Mn0  1  0.75000000  0.85198700  0.87988400  1
  Mn  Mn1  1  0.25000000  0.14801300  0.12011600  1
  Mn  Mn2  1  0.25000000  0.35198700  0.62011600  1
  Mn  Mn3  1  0.75000000  0.64801300  0.37988400  1
  Ni  Ni0  1  0.50000000  0.50000000  0.00000000  1
  Ni  Ni1  1  0.50000000  0.00000000  0.50000000  1
  Ni  Ni2  1  0.00000000  0.00000000  0.50000000  1
  Ni  Ni3  1  0.00000000  0.50000000  0.00000000  1
  P  P0  1  0.25000000  0.86060500  0.93355900  1
  P  P1  1  0.75000000  0.13939500  0.06644100  1
  P  P2  1  0.75000000  0.36060500  0.56644100  1
  P  P3  1  0.25000000  0.63939500  0.43355900  1
  P  P4  1  0.75000000  0.89284800  0.69750000  1
  P  P5  1  0.25000000  0.10715200  0.30250000  1
  P  P6  1  0.25000000  0.39284800  0.80250000  1
  P  P7  1  0.75000000  0.60715200  0.19750000  1
  O  O0  1  0.03739900  0.10992700  0.35851700  1
  O  O1  1  0.53739900  0.89007300  0.64148300  1
  O  O2  1  0.96260100  0.60992700  0.14148300  1
  O  O3  1  0.46260100  0.39007300  0.85851700  1
  O  O4  1  0.96260100  0.89007300  0.64148300  1
  O  O5  1  0.46260100  0.10992700  0.35851700  1
  O  O6  1  0.03739900  0.39007300  0.85851700  1
  O  O7  1  0.53739900  0.60992700  0.14148300  1
  O  O8  1  0.25000000  0.83015000  0.48043100  1
  O  O9  1  0.75000000  0.16985000  0.51956900  1
  O  O10  1  0.75000000  0.33015000  0.01956900  1
  O  O11  1  0.25000000  0.66985000  0.98043100  1
  O  O12  1  0.75000000  0.64276000  0.94574800  1
  O  O13  1  0.25000000  0.35724000  0.05425200  1
  O  O14  1  0.25000000  0.14276000  0.55425200  1
  O  O15  1  0.75000000  0.85724000  0.44574800  1
  O  O16  1  0.75000000  0.71393500  0.76361500  1
  O  O17  1  0.25000000  0.28606500  0.23638500  1
  O  O18  1  0.25000000  0.21393500  0.73638500  1
  O  O19  1  0.75000000  0.78606500  0.26361500  1
  O  O20  1  0.43881500  0.62536700  0.36116900  1
  O  O21  1  0.93881500  0.37463300  0.63883100  1
  O  O22  1  0.56118500  0.12536700  0.13883100  1
  O  O23  1  0.06118500  0.87463300  0.86116900  1
  O  O24  1  0.56118500  0.37463300  0.63883100  1
  O  O25  1  0.06118500  0.62536700  0.36116900  1
  O  O26  1  0.43881500  0.87463300  0.86116900  1
  O  O27  1  0.93881500  0.12536700  0.13883100  1
  O  O28  1  0.75000000  0.44712600  0.27200600  1
  O  O29  1  0.25000000  0.55287400  0.72799400  1
  O  O30  1  0.25000000  0.94712600  0.22799400  1
  O  O31  1  0.75000000  0.05287400  0.77200600  1
  O  O32  1  0.75000000  0.51249100  0.49372300  1
  O  O33  1  0.25000000  0.48750900  0.50627700  1
  O  O34  1  0.25000000  0.01249100  0.00627700  1
  O  O35  1  0.75000000  0.98750900  0.99372300  1
loop_
_geom_bond_atom_site_label_1
_geom_bond_atom_site_label_2
_geom_bond_distance
_geom_bond_site_symmetry_2
Mg0 O6 2.115457 1_655
Mg0 O3 2.115457 1_555
Mg0 O21 2.312648 1_555
Mg0 O24 2.312648 1_555
Mg0 O31 2.377038 1_555
Mg0 O16 2.411374 1_555
Mg1 O0 2.115457 1_655
Mg1 O5 2.115457 1_555
Mg1 O27 2.312648 1_555
Mg1 O22 2.312648 1_555
Mg1 O28 2.377038 1_555
Mg1 O19 2.411374 1_545
Mg2 O7 2.115457 1_555
Mg2 O2 2.115457 1_455
Mg2 O20 2.312648 1_555
Mg2 O25 2.312648 1_555
Mg2 O30 2.377038 1_555
Mg2 O17 2.411374 1_555
Mg3 O1 2.115457 1_555
Mg3 O4 2.115457 1_455
Mg3 O26 2.312648 1_555
Mg3 O23 2.312648 1_555
Mg3 O29 2.377038 1_555
Mg3 O18 2.411374 1_565
Mn0 O12 1.778252 1_555
Mn0 O35 1.891562 1_555
Mn0 O16 1.930583 1_555
Mn0 O23 1.959517 1_655
Mn0 O26 1.959517 1_555
Mn0 O31 2.111612 1_565
Mn1 O13 1.778252 1_555
Mn1 O34 1.891562 1_555
Mn1 O17 1.930583 1_555
Mn1 O22 1.959517 1_555
Mn1 O27 1.959517 1_455
Mn1 O30 2.111612 1_545
Mn2 O14 1.778252 1_555
Mn2 O33 1.891562 1_555
Mn2 O18 1.930583 1_555
Mn2 O24 1.959517 1_555
Mn2 O21 1.959517 1_455
Mn2 O29 2.111612 1_555
Mn3 O15 1.778252 1_555
Mn3 O32 1.891562 1_555
Mn3 O19 1.930583 1_555
Mn3 O25 1.959517 1_655
Mn3 O20 1.959517 1_555
Mn3 O28 2.111612 1_555
Ni0 O10 1.999697 1_555
Ni0 O11 1.999697 1_554
Ni0 O13 2.018445 1_555
Ni0 O12 2.018445 1_554
Ni0 O7 2.174986 1_555
Ni0 O3 2.174986 1_554
Ni1 O8 1.999697 1_545
Ni1 O9 1.999697 1_555
Ni1 O14 2.018445 1_555
Ni1 O15 2.018445 1_545
Ni1 O1 2.174986 1_545
Ni1 O5 2.174986 1_555
Ni2 O8 1.999697 1_545
Ni2 O9 1.999697 1_455
Ni2 O15 2.018445 1_445
Ni2 O14 2.018445 1_555
Ni2 O0 2.174986 1_555
Ni2 O4 2.174986 1_445
Ni3 O10 1.999697 1_455
Ni3 O11 1.999697 1_554
Ni3 O13 2.018445 1_555
Ni3 O12 2.018445 1_454
Ni3 O6 2.174986 1_554
Ni3 O2 2.174986 1_455
O0 P5 1.543137 1_555
O1 P4 1.543137 1_555
O2 P7 1.543137 1_555
O3 P6 1.543137 1_555
O4 P4 1.543137 1_555
O5 P5 1.543137 1_555
O6 P6 1.543137 1_555
O7 P7 1.543137 1_555
O8 P3 1.530922 1_555
O9 P2 1.530922 1_555
O10 P1 1.530922 1_555
O11 P0 1.530922 1_555
O16 P4 1.598311 1_555
O17 P5 1.598311 1_555
O18 P6 1.598311 1_555
O19 P7 1.598311 1_555
O20 P3 1.564313 1_555
O21 P2 1.564313 1_555
O22 P1 1.564313 1_555
O23 P0 1.564313 1_555
O24 P2 1.564313 1_555
O25 P3 1.564313 1_555
O26 P0 1.564313 1_555
O27 P1 1.564313 1_555
O28 P7 1.568077 1_555
O29 P6 1.568077 1_555
O30 P5 1.568077 1_565
O31 P4 1.568077 1_545
O32 P2 1.507684 1_555
O33 P3 1.507684 1_555
O34 P0 1.507684 1_544
O35 P1 1.507684 1_566
