# generated using pymatgen
data_SrLaCd2
_symmetry_space_group_name_H-M   'P 1'
_cell_length_a   12.58694051
_cell_length_b   12.58694051
_cell_length_c   12.58694051
_cell_angle_alpha   121.30687689
_cell_angle_beta   115.38626942
_cell_angle_gamma   92.96120051
_symmetry_Int_Tables_number   1
_chemical_formula_structural   SrLaCd2
_chemical_formula_sum   'Sr1 La1 Cd2'
_cell_volume   1438.71368247
_cell_formula_units_Z   1
loop_
 _symmetry_equiv_pos_site_id
 _symmetry_equiv_pos_as_xyz
  1  'x, y, z'
loop_
 _atom_site_type_symbol
 _atom_site_label
 _atom_site_symmetry_multiplicity
 _atom_site_fract_x
 _atom_site_fract_y
 _atom_site_fract_z
 _atom_site_occupancy
  Sr  Sr0  1  0.00000000  0.00000000  0.00000000  1
  La  La0  1  0.50000000  0.00000000  0.50000000  1
  Cd  Cd0  1  0.26195800  0.00000000  0.26195800  1
  Cd  Cd1  1  0.73804200  0.00000000  0.73804200  1
loop_
_geom_bond_atom_site_label_1
_geom_bond_atom_site_label_2
_geom_bond_distance
_geom_bond_site_symmetry_2
Cd0 La0 3.202682 1_555
Cd0 Sr0 3.524454 1_555
Cd1 La0 3.202682 1_555
Cd1 Sr0 3.524454 1_656
