# generated using pymatgen
data_Dy2Ga3Cu
_symmetry_space_group_name_H-M   'P 1'
_cell_length_a   4.33123423
_cell_length_b   4.33123423
_cell_length_c   7.21644364
_cell_angle_alpha   90.00000000
_cell_angle_beta   90.00000000
_cell_angle_gamma   119.99999213
_symmetry_Int_Tables_number   1
_chemical_formula_structural   Dy2Ga3Cu
_chemical_formula_sum   'Dy2 Ga3 Cu1'
_cell_volume   117.24038358
_cell_formula_units_Z   1
loop_
 _symmetry_equiv_pos_site_id
 _symmetry_equiv_pos_as_xyz
  1  'x, y, z'
loop_
 _atom_site_type_symbol
 _atom_site_label
 _atom_site_symmetry_multiplicity
 _atom_site_fract_x
 _atom_site_fract_y
 _atom_site_fract_z
 _atom_site_occupancy
  Dy  Dy0  1  0.33333300  0.66666700  0.73084854  1
  Dy  Dy1  1  0.33333300  0.66666700  0.26208973  1
  Ga  Ga0  1  0.66666700  0.33333300  0.47839611  1
  Ga  Ga1  1  0.66666700  0.33333300  0.04417777  1
  Ga  Ga2  1  0.00000000  -0.00000000  0.95119028  1
  Cu  Cu0  1  0.00000000  -0.00000000  0.53329856  1
loop_
_geom_bond_atom_site_label_1
_geom_bond_atom_site_label_2
_geom_bond_distance
_geom_bond_site_symmetry_2
Dy0 Ga2 2.963368 1_565
Dy0 Ga2 2.963371 1_555
Dy0 Ga2 2.963371 1_665
Dy0 Ga0 3.093893 1_455
Dy0 Ga0 3.093893 1_565
Dy0 Ga0 3.093899 1_555
Dy0 Ga1 3.371329 1_456
Dy0 Ga1 3.371329 1_566
Dy0 Ga1 3.371335 1_556
Dy1 Ga0 2.947845 1_455
Dy1 Ga0 2.947845 1_565
Dy1 Ga0 2.947851 1_555
Dy1 Ga1 2.953997 1_455
Dy1 Ga1 2.953997 1_565
Dy1 Ga1 2.954003 1_555
Dy1 Ga2 3.359594 1_564
Dy1 Ga2 3.359597 1_554
Dy1 Ga2 3.359597 1_664
Ga1 Ga2 2.589107 1_654
Ga1 Ga2 2.589111 1_554
Ga1 Ga2 2.589111 1_664
Cu0 Ga0 2.531829 1_455
Cu0 Ga0 2.531833 1_445
Cu0 Ga0 2.531833 1_555
Cu0 Dy0 2.878462 1_545
Cu0 Dy0 2.878465 1_445
Cu0 Dy0 2.878465 1_555
Cu0 Ga2 3.015692 1_555
Cu0 Dy1 3.175480 1_545
Cu0 Dy1 3.175483 1_445
Cu0 Dy1 3.175483 1_555
