# generated using pymatgen
data_Tl2Cu2S3
_symmetry_space_group_name_H-M   'P 1'
_cell_length_a   4.01373600
_cell_length_b   12.54071200
_cell_length_c   12.71546900
_cell_angle_alpha   90.00000000
_cell_angle_beta   90.00000000
_cell_angle_gamma   90.00000000
_symmetry_Int_Tables_number   1
_chemical_formula_structural   Tl2Cu2S3
_chemical_formula_sum   'Tl8 Cu8 S12'
_cell_volume   640.03449547
_cell_formula_units_Z   4
loop_
 _symmetry_equiv_pos_site_id
 _symmetry_equiv_pos_as_xyz
  1  'x, y, z'
loop_
 _atom_site_type_symbol
 _atom_site_label
 _atom_site_symmetry_multiplicity
 _atom_site_fract_x
 _atom_site_fract_y
 _atom_site_fract_z
 _atom_site_occupancy
  Tl  Tl0  1  0.25000000  0.92530100  0.82995000  1
  Tl  Tl1  1  0.25000000  0.57469900  0.32995000  1
  Tl  Tl2  1  0.75000000  0.07469900  0.17005000  1
  Tl  Tl3  1  0.75000000  0.42530100  0.67005000  1
  Tl  Tl4  1  0.25000000  0.25108100  0.93638400  1
  Tl  Tl5  1  0.25000000  0.24891900  0.43638400  1
  Tl  Tl6  1  0.75000000  0.74891900  0.06361600  1
  Tl  Tl7  1  0.75000000  0.75108100  0.56361600  1
  Cu  Cu0  1  0.25000000  0.65744200  0.79365500  1
  Cu  Cu1  1  0.25000000  0.84255800  0.29365500  1
  Cu  Cu2  1  0.75000000  0.34255800  0.20634500  1
  Cu  Cu3  1  0.75000000  0.15744200  0.70634500  1
  Cu  Cu4  1  0.25000000  0.02562500  0.57980700  1
  Cu  Cu5  1  0.25000000  0.47437500  0.07980700  1
  Cu  Cu6  1  0.75000000  0.97437500  0.42019300  1
  Cu  Cu7  1  0.75000000  0.52562500  0.92019300  1
  S  S0  1  0.25000000  0.44794200  0.87228700  1
  S  S1  1  0.25000000  0.05205800  0.37228700  1
  S  S2  1  0.75000000  0.55205800  0.12771300  1
  S  S3  1  0.75000000  0.94794200  0.62771300  1
  S  S4  1  0.25000000  0.62716900  0.61734300  1
  S  S5  1  0.25000000  0.87283100  0.11734300  1
  S  S6  1  0.75000000  0.37283100  0.38265700  1
  S  S7  1  0.75000000  0.12716900  0.88265700  1
  S  S8  1  0.25000000  0.20588400  0.63923400  1
  S  S9  1  0.25000000  0.29411600  0.13923400  1
  S  S10  1  0.75000000  0.79411600  0.36076600  1
  S  S11  1  0.75000000  0.70588400  0.86076600  1
loop_
_geom_bond_atom_site_label_1
_geom_bond_atom_site_label_2
_geom_bond_distance
_geom_bond_site_symmetry_2
Cu0 S11 2.263796 1_555
Cu0 S11 2.263796 1_455
Cu0 S4 2.273807 1_555
Cu0 S0 2.811100 1_555
Cu1 S10 2.263796 1_555
Cu1 S10 2.263796 1_455
Cu1 S5 2.273807 1_555
Cu1 S1 2.811100 1_565
Cu2 S9 2.263796 1_555
Cu2 S9 2.263796 1_655
Cu2 S6 2.273807 1_555
Cu2 S2 2.811100 1_555
Cu3 S8 2.263796 1_655
Cu3 S8 2.263796 1_555
Cu3 S7 2.273807 1_555
Cu3 S3 2.811100 1_545
Cu4 S3 2.312498 1_445
Cu4 S3 2.312498 1_545
Cu4 S8 2.383527 1_555
Cu4 S1 2.659454 1_555
Cu5 S2 2.312498 1_455
Cu5 S2 2.312498 1_555
Cu5 S9 2.383527 1_555
Cu5 S0 2.659454 1_554
Cu6 S1 2.312498 1_665
Cu6 S1 2.312498 1_565
Cu6 S10 2.383527 1_555
Cu6 S3 2.659454 1_555
Cu7 S0 2.312498 1_655
Cu7 S0 2.312498 1_555
Cu7 S11 2.383527 1_555
Cu7 S2 2.659454 1_556
S0 Tl4 2.599831 1_555
S1 Tl5 2.599831 1_555
S2 Tl6 2.599831 1_555
S3 Tl7 2.599831 1_555
S4 Tl7 2.628493 1_555
S4 Tl7 2.628493 1_455
S5 Tl6 2.628493 1_555
S5 Tl6 2.628493 1_455
S6 Tl5 2.628493 1_655
S6 Tl5 2.628493 1_555
S7 Tl4 2.628493 1_655
S7 Tl4 2.628493 1_555
S8 Tl5 2.635189 1_555
S9 Tl4 2.635189 1_554
S10 Tl7 2.635189 1_555
S11 Tl6 2.635189 1_556
