# generated using pymatgen
data_Ca(MoO2)2
_symmetry_space_group_name_H-M   'P 1'
_cell_length_a   6.44326300
_cell_length_b   6.53729272
_cell_length_c   16.13920209
_cell_angle_alpha   91.24524796
_cell_angle_beta   91.85989024
_cell_angle_gamma   119.35139608
_symmetry_Int_Tables_number   1
_chemical_formula_structural   Ca(MoO2)2
_chemical_formula_sum   'Ca6 Mo12 O24'
_cell_volume   591.67521178
_cell_formula_units_Z   6
loop_
 _symmetry_equiv_pos_site_id
 _symmetry_equiv_pos_as_xyz
  1  'x, y, z'
loop_
 _atom_site_type_symbol
 _atom_site_label
 _atom_site_symmetry_multiplicity
 _atom_site_fract_x
 _atom_site_fract_y
 _atom_site_fract_z
 _atom_site_occupancy
  Ca  Ca0  1  0.16830200  0.34465900  0.04488300  1
  Ca  Ca1  1  0.83767800  0.66596000  0.33011500  1
  Ca  Ca2  1  0.16826300  0.85022100  0.16685200  1
  Ca  Ca3  1  0.16936000  0.33208200  0.66736500  1
  Ca  Ca4  1  0.51577200  0.48870300  0.49985900  1
  Ca  Ca5  1  0.81474500  0.16237700  0.83168800  1
  Mo  Mo0  1  0.66947600  0.84552000  0.16649500  1
  Mo  Mo1  1  0.50058500  0.96946400  0.37074500  1
  Mo  Mo2  1  0.49120200  0.99836600  0.00420200  1
  Mo  Mo3  1  0.66695300  0.33971100  0.16465300  1
  Mo  Mo4  1  0.01183400  0.49827300  0.49707100  1
  Mo  Mo5  1  0.81213800  0.68085700  0.70016500  1
  Mo  Mo6  1  0.02347400  0.00593100  0.50033700  1
  Mo  Mo7  1  0.31658900  0.16027000  0.83557100  1
  Mo  Mo8  1  0.17690800  0.36087200  0.29624700  1
  Mo  Mo9  1  0.30728900  0.65031700  0.83436600  1
  Mo  Mo10  1  0.52585400  0.98108100  0.62810800  1
  Mo  Mo11  1  0.81314500  0.65889100  0.95554500  1
  O  O0  1  0.36564300  0.71918300  0.08285900  1
  O  O1  1  0.53565000  0.03106300  0.24507800  1
  O  O2  1  0.35778700  0.15821200  0.08354600  1
  O  O3  1  0.79160600  0.14770400  0.08964000  1
  O  O4  1  0.69896300  0.34557200  0.41144700  1
  O  O5  1  0.51202900  0.52160300  0.23070400  1
  O  O6  1  0.88549800  0.69211400  0.57057900  1
  O  O7  1  0.00030500  0.51208300  0.23457700  1
  O  O8  1  0.69115300  0.83774900  0.42286100  1
  O  O9  1  0.80227900  0.65378600  0.08195400  1
  O  O10  1  0.17832900  0.82806300  0.42460300  1
  O  O11  1  0.98720700  0.00054600  0.24994300  1
  O  O12  1  0.00626200  0.01548300  0.75774500  1
  O  O13  1  0.85844200  0.17812400  0.56605200  1
  O  O14  1  0.34527300  0.16685300  0.58288800  1
  O  O15  1  0.98997900  0.49115600  0.75623800  1
  O  O16  1  0.17462100  0.34120300  0.90616100  1
  O  O17  1  0.14850100  0.30567200  0.42385500  1
  O  O18  1  0.48350100  0.48752600  0.77346500  1
  O  O19  1  0.32531600  0.63979200  0.57950100  1
  O  O20  1  0.15492600  0.83064800  0.91885300  1
  O  O21  1  0.63590700  0.82308600  0.92315800  1
  O  O22  1  0.44509600  0.96378300  0.76355400  1
  O  O23  1  0.63616200  0.31544100  0.92647200  1
loop_
_geom_bond_atom_site_label_1
_geom_bond_atom_site_label_2
_geom_bond_distance
_geom_bond_site_symmetry_2
Ca0 O2 2.192720 1_555
Ca0 O0 2.195272 1_555
Ca0 O16 2.240378 1_554
Ca0 O3 2.271839 1_455
Ca1 O4 2.295459 1_555
Ca1 O8 2.334769 1_555
Ca1 O11 2.350470 1_565
Ca1 O7 2.357578 1_655
Ca1 O5 2.375257 1_555
Ca1 O10 2.387128 1_655
Ca2 O7 2.255848 1_555
Ca2 O2 2.273028 1_565
Ca2 O11 2.300687 1_465
Ca2 O0 2.306137 1_555
Ca2 O1 2.364896 1_565
Ca2 O9 2.415036 1_455
Ca3 O19 2.302606 1_555
Ca3 O13 2.332189 1_455
Ca3 O14 2.355164 1_555
Ca3 O12 2.369430 1_555
Ca3 O15 2.386564 1_455
Ca3 O18 2.396829 1_555
Ca4 O19 2.317128 1_555
Ca4 O14 2.319826 1_555
Ca4 O6 2.323380 1_555
Ca4 O4 2.332120 1_555
Ca4 O17 2.346974 1_555
Ca4 O8 2.390506 1_555
Ca5 O12 2.253113 1_655
Ca5 O15 2.280613 1_555
Ca5 O16 2.299701 1_655
Ca5 O22 2.303046 1_545
Ca5 O23 2.416984 1_555
Ca5 O21 2.484754 1_545
Mo0 O0 2.128754 1_555
Mo0 O5 2.155156 1_555
Mo0 O3 2.169366 1_565
Mo0 O11 2.181695 1_565
Mo0 O1 2.202887 1_565
Mo0 O9 2.284251 1_555
Mo1 O8 1.989346 1_555
Mo1 O10 2.047402 1_555
Mo1 O1 2.074297 1_565
Mo1 O4 2.214729 1_565
Mo2 O0 2.077717 1_555
Mo2 O2 2.089164 1_565
Mo2 O3 2.125256 1_565
Mo2 O21 2.225871 1_554
Mo2 O23 2.243620 1_564
Mo2 O20 2.281650 1_554
Mo3 O2 2.129710 1_555
Mo3 O7 2.138077 1_655
Mo3 O3 2.161408 1_555
Mo3 O5 2.173550 1_555
Mo3 O1 2.232354 1_555
Mo3 O9 2.279676 1_555
Mo4 O19 2.155390 1_555
Mo4 O6 2.164354 1_455
Mo4 O13 2.177474 1_455
Mo4 O4 2.180933 1_455
Mo4 O17 2.201549 1_555
Mo4 O10 2.256215 1_555
Mo5 O12 2.089805 1_665
Mo5 O6 2.153976 1_555
Mo5 O15 2.245993 1_555
Mo5 O18 2.254914 1_555
Mo6 O17 2.152769 1_555
Mo6 O6 2.159345 1_445
Mo6 O13 2.171968 1_455
Mo6 O14 2.191416 1_555
Mo6 O8 2.194482 1_445
Mo6 O10 2.235247 1_545
Mo7 O12 2.097995 1_555
Mo7 O16 2.145570 1_555
Mo7 O18 2.155418 1_555
Mo7 O22 2.174091 1_545
Mo7 O23 2.261137 1_555
Mo7 O20 2.356120 1_545
Mo8 O7 2.081957 1_555
Mo8 O17 2.096961 1_555
Mo8 O11 2.154709 1_455
Mo8 O5 2.204053 1_555
Mo9 O15 2.131376 1_455
Mo9 O18 2.144576 1_555
Mo9 O16 2.151626 1_555
Mo9 O22 2.162802 1_555
Mo9 O21 2.280520 1_555
Mo9 O20 2.316111 1_555
Mo10 O19 2.072389 1_555
Mo10 O14 2.174848 1_565
Mo10 O13 2.178045 1_565
Mo10 O22 2.255880 1_555
Mo11 O21 1.979105 1_555
Mo11 O23 1.992768 1_555
Mo11 O20 2.037290 1_655
Mo11 O9 2.044047 1_556
