# generated using pymatgen
data_Sr(PbN)2
_symmetry_space_group_name_H-M   'P 1'
_cell_length_a   3.58242811
_cell_length_b   3.58242779
_cell_length_c   9.48496250
_cell_angle_alpha   90.00000033
_cell_angle_beta   90.00001033
_cell_angle_gamma   119.99999394
_symmetry_Int_Tables_number   1
_chemical_formula_structural   Sr(PbN)2
_chemical_formula_sum   'Sr1 Pb2 N2'
_cell_volume   105.41956166
_cell_formula_units_Z   1
loop_
 _symmetry_equiv_pos_site_id
 _symmetry_equiv_pos_as_xyz
  1  'x, y, z'
loop_
 _atom_site_type_symbol
 _atom_site_label
 _atom_site_symmetry_multiplicity
 _atom_site_fract_x
 _atom_site_fract_y
 _atom_site_fract_z
 _atom_site_occupancy
  Sr  Sr0  1  -0.00000000  -0.00000000  0.50000000  1
  Pb  Pb0  1  0.66666600  0.33333300  0.19386487  1
  Pb  Pb1  1  0.33333400  0.66666700  0.80613513  1
  N  N0  1  0.66666800  0.33333400  0.67232873  1
  N  N1  1  0.33333200  0.66666600  0.32767127  1
loop_
_geom_bond_atom_site_label_1
_geom_bond_atom_site_label_2
_geom_bond_distance
_geom_bond_site_symmetry_2
N0 Pb1 2.426656 1_655
N0 Pb1 2.426659 1_555
N0 Pb1 2.426659 1_545
N0 Sr0 2.636212 1_655
N0 Sr0 2.636212 1_665
N0 Sr0 2.636217 1_555
N1 Pb0 2.426656 1_455
N1 Pb0 2.426659 1_555
N1 Pb0 2.426659 1_565
N1 Sr0 2.636212 1_565
N1 Sr0 2.636212 1_555
N1 Sr0 2.636217 1_665
