# generated using pymatgen
data_Pr4As2S9
_symmetry_space_group_name_H-M   'P 1'
_cell_length_a   7.07638700
_cell_length_b   7.14005500
_cell_length_c   29.49246200
_cell_angle_alpha   90.00000000
_cell_angle_beta   90.00000000
_cell_angle_gamma   90.00000000
_symmetry_Int_Tables_number   1
_chemical_formula_structural   Pr4As2S9
_chemical_formula_sum   'Pr16 As8 S36'
_cell_volume   1490.13001182
_cell_formula_units_Z   4
loop_
 _symmetry_equiv_pos_site_id
 _symmetry_equiv_pos_as_xyz
  1  'x, y, z'
loop_
 _atom_site_type_symbol
 _atom_site_label
 _atom_site_symmetry_multiplicity
 _atom_site_fract_x
 _atom_site_fract_y
 _atom_site_fract_z
 _atom_site_occupancy
  Pr  Pr0  1  0.70440100  0.54426300  0.44328800  1
  Pr  Pr1  1  0.79559900  0.04426300  0.05671200  1
  Pr  Pr2  1  0.79559900  0.45573700  0.94328800  1
  Pr  Pr3  1  0.70440100  0.95573700  0.55671200  1
  Pr  Pr4  1  0.29559900  0.45573700  0.55671200  1
  Pr  Pr5  1  0.20440100  0.95573700  0.94328800  1
  Pr  Pr6  1  0.20440100  0.54426300  0.05671200  1
  Pr  Pr7  1  0.29559900  0.04426300  0.44328800  1
  Pr  Pr8  1  0.79652000  0.82184000  0.29278800  1
  Pr  Pr9  1  0.70348000  0.32184000  0.20721200  1
  Pr  Pr10  1  0.70348000  0.17816000  0.79278800  1
  Pr  Pr11  1  0.79652000  0.67816000  0.70721200  1
  Pr  Pr12  1  0.20348000  0.17816000  0.70721200  1
  Pr  Pr13  1  0.29652000  0.67816000  0.79278800  1
  Pr  Pr14  1  0.29652000  0.82184000  0.20721200  1
  Pr  Pr15  1  0.20348000  0.32184000  0.29278800  1
  As  As0  1  0.69499100  0.57503900  0.09562400  1
  As  As1  1  0.80500900  0.07503900  0.40437600  1
  As  As2  1  0.80500900  0.42496100  0.59562400  1
  As  As3  1  0.69499100  0.92496100  0.90437600  1
  As  As4  1  0.30500900  0.42496100  0.90437600  1
  As  As5  1  0.19499100  0.92496100  0.59562400  1
  As  As6  1  0.19499100  0.57503900  0.40437600  1
  As  As7  1  0.30500900  0.07503900  0.09562400  1
  S  S0  1  0.93792800  0.75000000  0.00000000  1
  S  S1  1  0.56207200  0.25000000  0.50000000  1
  S  S2  1  0.06207200  0.25000000  0.00000000  1
  S  S3  1  0.43792800  0.75000000  0.50000000  1
  S  S4  1  0.99954600  0.07294100  0.23557300  1
  S  S5  1  0.50045400  0.57294100  0.26442700  1
  S  S6  1  0.50045400  0.92705900  0.73557300  1
  S  S7  1  0.99954600  0.42705900  0.76442700  1
  S  S8  1  0.00045400  0.92705900  0.76442700  1
  S  S9  1  0.49954600  0.42705900  0.73557300  1
  S  S10  1  0.49954600  0.07294100  0.26442700  1
  S  S11  1  0.00045400  0.57294100  0.23557300  1
  S  S12  1  0.91818800  0.88378300  0.45933100  1
  S  S13  1  0.58181200  0.38378300  0.04066900  1
  S  S14  1  0.58181200  0.11621700  0.95933100  1
  S  S15  1  0.91818800  0.61621700  0.54066900  1
  S  S16  1  0.08181200  0.11621700  0.54066900  1
  S  S17  1  0.41818800  0.61621700  0.95933100  1
  S  S18  1  0.41818800  0.88378300  0.04066900  1
  S  S19  1  0.08181200  0.38378300  0.45933100  1
  S  S20  1  0.94484900  0.52148600  0.35620200  1
  S  S21  1  0.55515100  0.02148600  0.14379800  1
  S  S22  1  0.55515100  0.47851400  0.85620200  1
  S  S23  1  0.94484900  0.97851400  0.64379800  1
  S  S24  1  0.05515100  0.47851400  0.64379800  1
  S  S25  1  0.44484900  0.97851400  0.85620200  1
  S  S26  1  0.44484900  0.52148600  0.14379800  1
  S  S27  1  0.05515100  0.02148600  0.35620200  1
  S  S28  1  0.57460400  0.87050200  0.38025300  1
  S  S29  1  0.92539600  0.37050200  0.11974700  1
  S  S30  1  0.92539600  0.12949800  0.88025300  1
  S  S31  1  0.57460400  0.62949800  0.61974700  1
  S  S32  1  0.42539600  0.12949800  0.61974700  1
  S  S33  1  0.07460400  0.62949800  0.88025300  1
  S  S34  1  0.07460400  0.87050200  0.11974700  1
  S  S35  1  0.42539600  0.37050200  0.38025300  1
loop_
_geom_bond_atom_site_label_1
_geom_bond_atom_site_label_2
_geom_bond_distance
_geom_bond_site_symmetry_2
Pr0 S1 2.868160 1_555
Pr0 S12 2.896421 1_555
Pr0 S3 2.917384 1_555
Pr0 S19 2.944398 1_655
Pr0 S35 2.982178 1_555
Pr0 S20 3.085148 1_555
Pr0 S28 3.118600 1_555
Pr0 S15 3.286494 1_555
Pr1 S0 2.868160 1_545
Pr1 S13 2.896421 1_555
Pr1 S2 2.917384 1_655
Pr1 S18 2.944398 1_545
Pr1 S34 2.982178 1_645
Pr1 S21 3.085148 1_555
Pr1 S29 3.118600 1_555
Pr1 S14 3.286494 1_554
Pr2 S0 2.868160 1_556
Pr2 S14 2.896421 1_555
Pr2 S2 2.917384 1_656
Pr2 S17 2.944398 1_555
Pr2 S33 2.982178 1_655
Pr2 S22 3.085148 1_555
Pr2 S30 3.118600 1_555
Pr2 S13 3.286494 1_556
Pr3 S1 2.868160 1_565
Pr3 S15 2.896421 1_555
Pr3 S3 2.917384 1_555
Pr3 S16 2.944398 1_665
Pr3 S32 2.982178 1_565
Pr3 S23 3.085148 1_555
Pr3 S31 3.118600 1_555
Pr3 S12 3.286494 1_555
Pr4 S3 2.868160 1_555
Pr4 S16 2.896421 1_555
Pr4 S1 2.917384 1_555
Pr4 S15 2.944398 1_455
Pr4 S31 2.982178 1_555
Pr4 S24 3.085148 1_555
Pr4 S32 3.118600 1_555
Pr4 S19 3.286494 1_555
Pr5 S2 2.868160 1_566
Pr5 S17 2.896421 1_555
Pr5 S0 2.917384 1_456
Pr5 S14 2.944398 1_565
Pr5 S30 2.982178 1_465
Pr5 S25 3.085148 1_555
Pr5 S33 3.118600 1_555
Pr5 S18 3.286494 1_556
Pr6 S2 2.868160 1_555
Pr6 S18 2.896421 1_555
Pr6 S0 2.917384 1_455
Pr6 S13 2.944398 1_555
Pr6 S29 2.982178 1_455
Pr6 S26 3.085148 1_555
Pr6 S34 3.118600 1_555
Pr6 S17 3.286494 1_554
Pr7 S3 2.868160 1_545
Pr7 S19 2.896421 1_555
Pr7 S1 2.917384 1_555
Pr7 S12 2.944398 1_445
Pr7 S28 2.982178 1_545
Pr7 S27 3.085148 1_555
Pr7 S35 3.118600 1_555
Pr7 S16 3.286494 1_555
Pr8 S11 2.843978 1_655
Pr8 S4 2.850585 1_565
Pr8 S5 2.871802 1_555
Pr8 S10 2.886233 1_565
Pr8 S27 2.979818 1_665
Pr8 S20 3.032916 1_555
Pr8 S28 3.039882 1_555
Pr9 S10 2.843978 1_555
Pr9 S5 2.850585 1_555
Pr9 S4 2.871802 1_555
Pr9 S11 2.886233 1_655
Pr9 S26 2.979818 1_555
Pr9 S21 3.032916 1_555
Pr9 S29 3.039882 1_555
Pr10 S9 2.843978 1_555
Pr10 S6 2.850585 1_545
Pr10 S7 2.871802 1_555
Pr10 S8 2.886233 1_645
Pr10 S25 2.979818 1_545
Pr10 S22 3.032916 1_555
Pr10 S30 3.039882 1_555
Pr11 S8 2.843978 1_655
Pr11 S7 2.850585 1_555
Pr11 S6 2.871802 1_555
Pr11 S9 2.886233 1_555
Pr11 S24 2.979818 1_655
Pr11 S23 3.032916 1_555
Pr11 S31 3.039882 1_555
Pr12 S7 2.843978 1_455
Pr12 S8 2.850585 1_545
Pr12 S9 2.871802 1_555
Pr12 S6 2.886233 1_545
Pr12 S23 2.979818 1_445
Pr12 S24 3.032916 1_555
Pr12 S32 3.039882 1_555
Pr13 S6 2.843978 1_555
Pr13 S9 2.850585 1_555
Pr13 S8 2.871802 1_555
Pr13 S7 2.886233 1_455
Pr13 S22 2.979818 1_555
Pr13 S25 3.032916 1_555
Pr13 S33 3.039882 1_555
Pr14 S5 2.843978 1_555
Pr14 S10 2.850585 1_565
Pr14 S11 2.871802 1_555
Pr14 S4 2.886233 1_465
Pr14 S21 2.979818 1_565
Pr14 S26 3.032916 1_555
Pr14 S34 3.039882 1_555
Pr15 S4 2.843978 1_455
Pr15 S11 2.850585 1_555
Pr15 S10 2.871802 1_555
Pr15 S5 2.886233 1_555
Pr15 S20 2.979818 1_455
Pr15 S27 3.032916 1_555
Pr15 S35 3.039882 1_555
As0 S13 2.265635 1_555
As0 S29 2.301577 1_555
As0 S26 2.301750 1_555
As1 S12 2.265635 1_545
As1 S28 2.301577 1_545
As1 S27 2.301750 1_655
As2 S15 2.265635 1_555
As2 S31 2.301577 1_555
As2 S24 2.301750 1_655
As3 S14 2.265635 1_565
As3 S30 2.301577 1_565
As3 S25 2.301750 1_555
As4 S17 2.265635 1_555
As4 S33 2.301577 1_555
As4 S22 2.301750 1_555
As5 S16 2.265635 1_565
As5 S32 2.301577 1_565
As5 S23 2.301750 1_455
As6 S19 2.265635 1_555
As6 S35 2.301577 1_555
As6 S20 2.301750 1_455
As7 S18 2.265635 1_545
As7 S34 2.301577 1_545
As7 S21 2.301750 1_555
