# generated using pymatgen
data_V2ZnO4
_symmetry_space_group_name_H-M   'P 1'
_cell_length_a   2.97277200
_cell_length_b   9.26554400
_cell_length_c   10.50269600
_cell_angle_alpha   90.00000000
_cell_angle_beta   90.00000000
_cell_angle_gamma   90.00000000
_symmetry_Int_Tables_number   1
_chemical_formula_structural   V2ZnO4
_chemical_formula_sum   'V8 Zn4 O16'
_cell_volume   289.28993213
_cell_formula_units_Z   4
loop_
 _symmetry_equiv_pos_site_id
 _symmetry_equiv_pos_as_xyz
  1  'x, y, z'
loop_
 _atom_site_type_symbol
 _atom_site_label
 _atom_site_symmetry_multiplicity
 _atom_site_fract_x
 _atom_site_fract_y
 _atom_site_fract_z
 _atom_site_occupancy
  V  V0  1  0.25000000  0.43697000  0.37918500  1
  V  V1  1  0.75000000  0.56303000  0.62081500  1
  V  V2  1  0.25000000  0.93697000  0.12081500  1
  V  V3  1  0.75000000  0.06303000  0.87918500  1
  V  V4  1  0.25000000  0.40772200  0.89745600  1
  V  V5  1  0.75000000  0.59227800  0.10254400  1
  V  V6  1  0.25000000  0.90772200  0.60254400  1
  V  V7  1  0.75000000  0.09227800  0.39745600  1
  Zn  Zn0  1  0.25000000  0.24698200  0.14585100  1
  Zn  Zn1  1  0.75000000  0.75301800  0.85414900  1
  Zn  Zn2  1  0.25000000  0.74698200  0.35414900  1
  Zn  Zn3  1  0.75000000  0.25301800  0.64585100  1
  O  O0  1  0.25000000  0.20176500  0.82295500  1
  O  O1  1  0.75000000  0.79823500  0.17704500  1
  O  O2  1  0.25000000  0.70176500  0.67704500  1
  O  O3  1  0.75000000  0.29823500  0.32295500  1
  O  O4  1  0.25000000  0.12179800  0.53743400  1
  O  O5  1  0.75000000  0.87820200  0.46256600  1
  O  O6  1  0.25000000  0.62179800  0.96256600  1
  O  O7  1  0.75000000  0.37820200  0.03743400  1
  O  O8  1  0.25000000  0.04475600  0.28224300  1
  O  O9  1  0.75000000  0.95524400  0.71775700  1
  O  O10  1  0.25000000  0.54475600  0.21775700  1
  O  O11  1  0.75000000  0.45524400  0.78224300  1
  O  O12  1  0.25000000  0.41010700  0.57017100  1
  O  O13  1  0.75000000  0.58989300  0.42982900  1
  O  O14  1  0.25000000  0.91010700  0.92982900  1
  O  O15  1  0.75000000  0.08989300  0.07017100  1
loop_
_geom_bond_atom_site_label_1
_geom_bond_atom_site_label_2
_geom_bond_distance
_geom_bond_site_symmetry_2
O0 V3 2.051952 1_455
O0 V3 2.051952 1_555
O0 V4 2.062491 1_555
O0 Zn3 2.427904 1_555
O0 Zn3 2.427904 1_455
O1 V2 2.051952 1_655
O1 V2 2.051952 1_555
O1 V5 2.062491 1_555
O1 Zn2 2.427904 1_655
O1 Zn2 2.427904 1_555
O2 V1 2.051952 1_455
O2 V1 2.051952 1_555
O2 V6 2.062491 1_555
O2 Zn1 2.427904 1_455
O2 Zn1 2.427904 1_555
O3 V0 2.051952 1_655
O3 V0 2.051952 1_555
O3 V7 2.062491 1_555
O3 Zn0 2.427904 1_655
O3 Zn0 2.427904 1_555
O4 V6 2.098099 1_545
O4 V7 2.108432 1_555
O4 V7 2.108432 1_455
O4 Zn3 2.232520 1_555
O4 Zn3 2.232520 1_455
O5 V7 2.098099 1_565
O5 V6 2.108432 1_655
O5 V6 2.108432 1_555
O5 Zn2 2.232520 1_555
O5 Zn2 2.232520 1_655
O6 V4 2.098099 1_555
O6 V5 2.108432 1_556
O6 V5 2.108432 1_456
O6 Zn1 2.232520 1_455
O6 Zn1 2.232520 1_555
O7 V5 2.098099 1_555
O7 V4 2.108432 1_554
O7 V4 2.108432 1_654
O7 Zn0 2.232520 1_555
O7 Zn0 2.232520 1_655
O8 V7 1.966580 1_555
O8 V7 1.966580 1_455
O8 V2 1.967708 1_545
O8 Zn0 2.358578 1_555
O9 V6 1.966580 1_555
O9 V6 1.966580 1_655
O9 V3 1.967708 1_565
O9 Zn1 2.358578 1_555
O10 V5 1.966580 1_555
O10 V5 1.966580 1_455
O10 V0 1.967708 1_555
O10 Zn2 2.358578 1_555
O11 V4 1.966580 1_555
O11 V4 1.966580 1_655
O11 V1 1.967708 1_555
O11 Zn3 2.358578 1_555
O12 V0 2.021251 1_555
O12 V1 2.121298 1_555
O12 V1 2.121298 1_455
O12 Zn3 2.227026 1_455
O12 Zn3 2.227026 1_555
O13 V1 2.021251 1_555
O13 V0 2.121298 1_555
O13 V0 2.121298 1_655
O13 Zn2 2.227026 1_555
O13 Zn2 2.227026 1_655
O14 V2 2.021251 1_556
O14 V3 2.121298 1_565
O14 V3 2.121298 1_465
O14 Zn1 2.227026 1_455
O14 Zn1 2.227026 1_555
O15 V3 2.021251 1_554
O15 V2 2.121298 1_545
O15 V2 2.121298 1_645
O15 Zn0 2.227026 1_555
O15 Zn0 2.227026 1_655
