# generated using pymatgen
data_LiVCrO4
_symmetry_space_group_name_H-M   'P 1'
_cell_length_a   5.85101567
_cell_length_b   5.85097213
_cell_length_c   5.85100837
_cell_angle_alpha   117.63874823
_cell_angle_beta   87.22095047
_cell_angle_gamma   60.81544368
_symmetry_Int_Tables_number   1
_chemical_formula_structural   LiVCrO4
_chemical_formula_sum   'Li2 V2 Cr2 O8'
_cell_volume   144.82115178
_cell_formula_units_Z   2
loop_
 _symmetry_equiv_pos_site_id
 _symmetry_equiv_pos_as_xyz
  1  'x, y, z'
loop_
 _atom_site_type_symbol
 _atom_site_label
 _atom_site_symmetry_multiplicity
 _atom_site_fract_x
 _atom_site_fract_y
 _atom_site_fract_z
 _atom_site_occupancy
  Li  Li0  1  0.00000500  0.99999500  0.49999200  1
  Li  Li1  1  0.49999500  0.50000500  0.49999800  1
  V  V0  1  0.13284700  0.24999900  0.11715100  1
  V  V1  1  0.86714200  0.74999800  0.88286000  1
  Cr  Cr0  1  0.50000500  0.49996100  0.99997200  1
  Cr  Cr1  1  0.50000400  0.00003600  0.50003300  1
  O  O0  1  0.24879500  0.50083100  0.25203400  1
  O  O1  1  0.75120600  0.00083300  0.24963400  1
  O  O2  1  0.24878900  0.99917200  0.75037600  1
  O  O3  1  0.75120100  0.49917100  0.74795600  1
  O  O4  1  0.27484000  0.97922500  0.24593200  1
  O  O5  1  0.73329300  0.52077300  0.24593900  1
  O  O6  1  0.72517600  0.02075500  0.75405700  1
  O  O7  1  0.26670100  0.47924600  0.75406700  1
loop_
_geom_bond_atom_site_label_1
_geom_bond_atom_site_label_2
_geom_bond_distance
_geom_bond_site_symmetry_2
Li0 O4 2.054352 1_555
Li0 O6 2.054384 1_465
Li0 O1 2.114574 1_465
Li0 O0 2.114581 1_555
Li0 O2 2.114622 1_555
Li0 O3 2.114631 1_465
Li1 O7 2.054337 1_555
Li1 O5 2.054348 1_555
Li1 O2 2.114595 1_555
Li1 O3 2.114604 1_555
Li1 O0 2.114605 1_555
Li1 O1 2.114614 1_555
Cr0 O0 2.027574 1_556
Cr0 O3 2.027654 1_555
Cr0 O6 2.034238 1_555
Cr0 O7 2.034264 1_555
Cr0 O5 2.034487 1_556
Cr0 O4 2.034499 1_556
Cr1 O1 2.027557 1_555
Cr1 O2 2.027655 1_545
Cr1 O6 2.034211 1_555
Cr1 O7 2.034252 1_555
Cr1 O5 2.034496 1_545
Cr1 O4 2.034528 1_545
O0 V0 1.784736 1_555
O1 V1 1.784716 1_544
O2 V0 1.784715 1_566
O3 V1 1.784689 1_555
O4 V0 1.911173 1_565
O5 V0 1.911170 1_655
O6 V1 1.911188 1_545
O7 V1 1.911186 1_455
