# generated using pymatgen
data_BaAl2(SiO5)2
_symmetry_space_group_name_H-M   'P 1'
_cell_length_a   37.26694400
_cell_length_b   5.37875200
_cell_length_c   8.09367058
_cell_angle_alpha   89.78386795
_cell_angle_beta   90.00000000
_cell_angle_gamma   90.00000000
_symmetry_Int_Tables_number   1
_chemical_formula_structural   BaAl2(SiO5)2
_chemical_formula_sum   'Ba8 Al16 Si16 O80'
_cell_volume   1622.36188964
_cell_formula_units_Z   8
loop_
 _symmetry_equiv_pos_site_id
 _symmetry_equiv_pos_as_xyz
  1  'x, y, z'
loop_
 _atom_site_type_symbol
 _atom_site_label
 _atom_site_symmetry_multiplicity
 _atom_site_fract_x
 _atom_site_fract_y
 _atom_site_fract_z
 _atom_site_occupancy
  Ba  Ba0  1  0.00000000  0.01420500  0.95818700  1
  Ba  Ba1  1  0.25110800  0.00626300  0.96298900  1
  Ba  Ba2  1  0.74889200  0.00626300  0.96298900  1
  Ba  Ba3  1  0.50000000  0.99381800  0.96216300  1
  Ba  Ba4  1  0.12366200  0.51625600  0.96288500  1
  Ba  Ba5  1  0.87633800  0.51625600  0.96288500  1
  Ba  Ba6  1  0.37413100  0.49386700  0.96004200  1
  Ba  Ba7  1  0.62586900  0.49386700  0.96004200  1
  Al  Al0  1  0.04160600  0.51425500  0.70203000  1
  Al  Al1  1  0.95839400  0.51425500  0.70203000  1
  Al  Al2  1  0.29020500  0.49666700  0.71065000  1
  Al  Al3  1  0.70979500  0.49666700  0.71065000  1
  Al  Al4  1  0.16615100  0.01902000  0.70458500  1
  Al  Al5  1  0.83384900  0.01902000  0.70458500  1
  Al  Al6  1  0.41622400  0.99657900  0.71437000  1
  Al  Al7  1  0.58377600  0.99657900  0.71437000  1
  Al  Al8  1  0.20704000  0.51867100  0.70613900  1
  Al  Al9  1  0.79296000  0.51867100  0.70613900  1
  Al  Al10  1  0.45817200  0.49650900  0.71484500  1
  Al  Al11  1  0.54182800  0.49650900  0.71484500  1
  Al  Al12  1  0.08322800  0.01416300  0.70272700  1
  Al  Al13  1  0.91677200  0.01416300  0.70272700  1
  Al  Al14  1  0.33249000  0.99650900  0.71221800  1
  Al  Al15  1  0.66751000  0.99650900  0.71221800  1
  Si  Si0  1  0.04168500  0.51589500  0.28953500  1
  Si  Si1  1  0.95831500  0.51589500  0.28953500  1
  Si  Si2  1  0.29181300  0.50484000  0.29829100  1
  Si  Si3  1  0.70818700  0.50484000  0.29829100  1
  Si  Si4  1  0.16690500  0.01365000  0.29187300  1
  Si  Si5  1  0.83309500  0.01365000  0.29187300  1
  Si  Si6  1  0.41680300  0.00136900  0.30187800  1
  Si  Si7  1  0.58319700  0.00136900  0.30187800  1
  Si  Si8  1  0.20849100  0.51283400  0.29356500  1
  Si  Si9  1  0.79150900  0.51283400  0.29356500  1
  Si  Si10  1  0.45836600  0.50107100  0.30238600  1
  Si  Si11  1  0.54163400  0.50107100  0.30238600  1
  Si  Si12  1  0.08349700  0.01574700  0.29012500  1
  Si  Si13  1  0.91650300  0.01574700  0.29012500  1
  Si  Si14  1  0.33356200  0.00408200  0.29994700  1
  Si  Si15  1  0.66643800  0.00408200  0.29994700  1
  O  O0  1  0.04162000  0.51538900  0.48396600  1
  O  O1  1  0.95838000  0.51538900  0.48396600  1
  O  O2  1  0.29156900  0.50185600  0.49293000  1
  O  O3  1  0.70843100  0.50185600  0.49293000  1
  O  O4  1  0.16657200  0.01385500  0.48635700  1
  O  O5  1  0.83342800  0.01385500  0.48635700  1
  O  O6  1  0.41658700  0.99914800  0.49667000  1
  O  O7  1  0.58341300  0.99914800  0.49667000  1
  O  O8  1  0.20822800  0.51389200  0.48806900  1
  O  O9  1  0.79177200  0.51389200  0.48806900  1
  O  O10  1  0.45829300  0.49912600  0.49717200  1
  O  O11  1  0.54170700  0.49912600  0.49717200  1
  O  O12  1  0.08322800  0.01540800  0.48456800  1
  O  O13  1  0.91677200  0.01540800  0.48456800  1
  O  O14  1  0.33331300  0.00240700  0.49463400  1
  O  O15  1  0.66668700  0.00240700  0.49463400  1
  O  O16  1  0.00000000  0.42186200  0.78195800  1
  O  O17  1  0.24796600  0.41781100  0.78913800  1
  O  O18  1  0.75203400  0.41781100  0.78913800  1
  O  O19  1  0.50000000  0.41536500  0.79664500  1
  O  O20  1  0.12471000  0.92033700  0.78344100  1
  O  O21  1  0.87529000  0.92033700  0.78344100  1
  O  O22  1  0.37426400  0.91717200  0.79548300  1
  O  O23  1  0.62573600  0.91717200  0.79548300  1
  O  O24  1  0.00000000  0.51528000  0.20887000  1
  O  O25  1  0.25041900  0.50904200  0.21557900  1
  O  O26  1  0.74958100  0.50904200  0.21557900  1
  O  O27  1  0.50000000  0.50287900  0.22254300  1
  O  O28  1  0.12523500  0.01352700  0.21038000  1
  O  O29  1  0.87476500  0.01352700  0.21038000  1
  O  O30  1  0.37524800  0.00462500  0.22092400  1
  O  O31  1  0.62475200  0.00462500  0.22092400  1
  O  O32  1  0.06284400  0.26717300  0.20917300  1
  O  O33  1  0.93715600  0.26717300  0.20917300  1
  O  O34  1  0.31283500  0.25488400  0.21919800  1
  O  O35  1  0.68716500  0.25488400  0.21919800  1
  O  O36  1  0.18808600  0.76459600  0.21216500  1
  O  O37  1  0.81191400  0.76459600  0.21216500  1
  O  O38  1  0.43758700  0.75157100  0.22248700  1
  O  O39  1  0.56241300  0.75157100  0.22248700  1
  O  O40  1  0.18770300  0.26431000  0.21200800  1
  O  O41  1  0.81229700  0.26431000  0.21200800  1
  O  O42  1  0.43769000  0.25145500  0.22229800  1
  O  O43  1  0.56231000  0.25145500  0.22229800  1
  O  O44  1  0.06244300  0.76701000  0.20914100  1
  O  O45  1  0.93755700  0.76701000  0.20914100  1
  O  O46  1  0.31291700  0.75470300  0.21919200  1
  O  O47  1  0.68708300  0.75470300  0.21919200  1
  O  O48  1  0.05085700  0.80961500  0.78213100  1
  O  O49  1  0.94914300  0.80961500  0.78213100  1
  O  O50  1  0.30161200  0.78501800  0.79361300  1
  O  O51  1  0.69838800  0.78501800  0.79361300  1
  O  O52  1  0.17368700  0.31885900  0.78147600  1
  O  O53  1  0.82631300  0.31885900  0.78147600  1
  O  O54  1  0.42704200  0.28677700  0.79669700  1
  O  O55  1  0.57295800  0.28677700  0.79669700  1
  O  O56  1  0.19912900  0.81823400  0.78371200  1
  O  O57  1  0.80087100  0.81823400  0.78371200  1
  O  O58  1  0.44719400  0.78649400  0.79719200  1
  O  O59  1  0.55280600  0.78649400  0.79719200  1
  O  O60  1  0.07375100  0.30933700  0.78248700  1
  O  O61  1  0.92624900  0.30933700  0.78248700  1
  O  O62  1  0.32076900  0.28468200  0.79574000  1
  O  O63  1  0.67923100  0.28468200  0.79574000  1
  O  O64  1  0.00000000  0.01807300  0.55318600  1
  O  O65  1  0.25145400  0.00780700  0.56318200  1
  O  O66  1  0.74854600  0.00780700  0.56318200  1
  O  O67  1  0.50000000  0.99484800  0.57440500  1
  O  O68  1  0.12439100  0.51872200  0.55253700  1
  O  O69  1  0.87560900  0.51872200  0.55253700  1
  O  O70  1  0.37501600  0.50040200  0.57336000  1
  O  O71  1  0.62498400  0.50040200  0.57336000  1
  O  O72  1  0.00000000  0.01484900  0.40095400  1
  O  O73  1  0.24960000  0.00798100  0.41115000  1
  O  O74  1  0.75040000  0.00798100  0.41115000  1
  O  O75  1  0.50000000  0.00065300  0.42225900  1
  O  O76  1  0.12526100  0.51307200  0.40035300  1
  O  O77  1  0.87473900  0.51307200  0.40035300  1
  O  O78  1  0.37508600  0.50104400  0.42122800  1
  O  O79  1  0.62491400  0.50104400  0.42122800  1
loop_
_geom_bond_atom_site_label_1
_geom_bond_atom_site_label_2
_geom_bond_distance
_geom_bond_site_symmetry_2
Ba0 O16 2.611268 1_555
Ba0 O48 2.616363 1_545
Ba0 O49 2.616363 1_445
Ba1 O50 2.617282 1_545
Ba1 O17 2.621109 1_555
Ba1 O56 2.625205 1_545
Ba2 O51 2.617282 1_545
Ba2 O18 2.621109 1_555
Ba2 O57 2.625205 1_545
Ba3 O59 2.628744 1_555
Ba3 O58 2.628744 1_555
Ba3 O19 2.629226 1_565
Ba4 O52 2.602001 1_555
Ba4 O20 2.609780 1_555
Ba4 O60 2.615818 1_555
Ba5 O53 2.602001 1_555
Ba5 O21 2.609780 1_555
Ba5 O61 2.615818 1_555
Ba6 O54 2.624465 1_555
Ba6 O22 2.633463 1_555
Ba6 O62 2.645813 1_555
Ba7 O55 2.624465 1_555
Ba7 O23 2.633463 1_555
Ba7 O63 2.645813 1_555
Al0 O16 1.751335 1_555
Al0 O60 1.751731 1_555
Al0 O48 1.752370 1_555
Al0 O0 1.764926 1_555
Al1 O16 1.751335 1_655
Al1 O61 1.751731 1_555
Al1 O49 1.752370 1_555
Al1 O1 1.764926 1_555
Al2 O50 1.744979 1_555
Al2 O17 1.749076 1_555
Al2 O62 1.750955 1_555
Al2 O2 1.763003 1_555
Al3 O51 1.744979 1_555
Al3 O18 1.749076 1_555
Al3 O63 1.750955 1_555
Al3 O3 1.763003 1_555
Al4 O20 1.752608 1_545
Al4 O52 1.753492 1_555
Al4 O56 1.755476 1_545
Al4 O4 1.766658 1_555
Al5 O21 1.752608 1_545
Al5 O53 1.753492 1_555
Al5 O57 1.755476 1_545
Al5 O5 1.766658 1_555
Al6 O54 1.746651 1_565
Al6 O58 1.747169 1_555
Al6 O22 1.748292 1_555
Al6 O6 1.762046 1_555
Al7 O55 1.746651 1_565
Al7 O59 1.747169 1_555
Al7 O23 1.748292 1_555
Al7 O7 1.762046 1_555
Al8 O52 1.751251 1_555
Al8 O17 1.751863 1_555
Al8 O56 1.756404 1_555
Al8 O8 1.765826 1_555
Al9 O53 1.751251 1_555
Al9 O18 1.751863 1_555
Al9 O57 1.756404 1_555
Al9 O9 1.765826 1_555
Al10 O54 1.746919 1_555
Al10 O58 1.747075 1_555
Al10 O19 1.748285 1_555
Al10 O10 1.761782 1_555
Al11 O55 1.746919 1_555
Al11 O59 1.747075 1_555
Al11 O19 1.748285 1_555
Al11 O11 1.761782 1_555
Al12 O20 1.751798 1_545
Al12 O60 1.752111 1_555
Al12 O48 1.753135 1_545
Al12 O12 1.765695 1_555
Al13 O21 1.751798 1_545
Al13 O61 1.752111 1_555
Al13 O49 1.753135 1_545
Al13 O13 1.765695 1_555
Al14 O50 1.745439 1_555
Al14 O22 1.748626 1_555
Al14 O62 1.748775 1_565
Al14 O14 1.761486 1_565
Al15 O51 1.745439 1_555
Al15 O23 1.748626 1_555
Al15 O63 1.748775 1_565
Al15 O15 1.761486 1_565
O0 Si0 1.573654 1_555
O1 Si1 1.573654 1_555
O2 Si2 1.575391 1_555
O3 Si3 1.575391 1_555
O4 Si4 1.574143 1_555
O5 Si5 1.574143 1_555
O6 Si6 1.576603 1_565
O7 Si7 1.576603 1_565
O8 Si8 1.574314 1_555
O9 Si9 1.574314 1_555
O10 Si10 1.576531 1_555
O11 Si11 1.576531 1_555
O12 Si12 1.573784 1_555
O13 Si13 1.573784 1_555
O14 Si14 1.575752 1_555
O15 Si15 1.575752 1_555
O24 Si0 1.685097 1_555
O24 Si1 1.685097 1_455
O25 Si2 1.681741 1_555
O25 Si8 1.685352 1_555
O26 Si3 1.681741 1_555
O26 Si9 1.685352 1_555
O27 Si11 1.680782 1_555
O27 Si10 1.680782 1_555
O28 Si12 1.684102 1_555
O28 Si4 1.687183 1_555
O29 Si13 1.684102 1_555
O29 Si5 1.687183 1_555
O30 Si14 1.680017 1_555
O30 Si6 1.681599 1_555
O31 Si15 1.680017 1_555
O31 Si7 1.681599 1_555
O32 Si0 1.685569 1_555
O32 Si12 1.686378 1_555
O33 Si1 1.685569 1_555
O33 Si13 1.686378 1_555
O34 Si14 1.684322 1_555
O34 Si2 1.684516 1_555
O35 Si15 1.684322 1_555
O35 Si3 1.684516 1_555
O36 Si8 1.685034 1_555
O36 Si4 1.685324 1_565
O37 Si9 1.685034 1_555
O37 Si5 1.685324 1_565
O38 Si6 1.680656 1_565
O38 Si10 1.681277 1_555
O39 Si7 1.680656 1_565
O39 Si11 1.681277 1_555
O40 Si8 1.682097 1_555
O40 Si4 1.682186 1_555
O41 Si9 1.682097 1_555
O41 Si5 1.682186 1_555
O42 Si10 1.680206 1_555
O42 Si6 1.680372 1_555
O43 Si11 1.680206 1_555
O43 Si7 1.680372 1_555
O44 Si0 1.685095 1_555
O44 Si12 1.685772 1_565
O45 Si1 1.685095 1_555
O45 Si13 1.685772 1_565
O46 Si14 1.680764 1_565
O46 Si2 1.681703 1_555
O47 Si15 1.680764 1_565
O47 Si3 1.681703 1_555
O64 O72 1.232303 1_555
O65 O73 1.232432 1_555
O66 O74 1.232432 1_555
O67 O75 1.231698 1_565
O68 O76 1.232643 1_555
O69 O77 1.232643 1_555
O70 O78 1.231301 1_555
O71 O79 1.231301 1_555
