# generated using pymatgen
data_Nd4Sn8Ir
_symmetry_space_group_name_H-M   'P 1'
_cell_length_a   4.51168200
_cell_length_b   4.53974400
_cell_length_c   17.44137300
_cell_angle_alpha   90.00000000
_cell_angle_beta   90.00000000
_cell_angle_gamma   90.00000000
_symmetry_Int_Tables_number   1
_chemical_formula_structural   Nd4Sn8Ir
_chemical_formula_sum   'Nd4 Sn8 Ir1'
_cell_volume   357.23213131
_cell_formula_units_Z   1
loop_
 _symmetry_equiv_pos_site_id
 _symmetry_equiv_pos_as_xyz
  1  'x, y, z'
loop_
 _atom_site_type_symbol
 _atom_site_label
 _atom_site_symmetry_multiplicity
 _atom_site_fract_x
 _atom_site_fract_y
 _atom_site_fract_z
 _atom_site_occupancy
  Nd  Nd0  1  0.25000000  0.00000000  0.09957500  1
  Nd  Nd1  1  0.25000000  0.50000000  0.60673800  1
  Nd  Nd2  1  0.75000000  0.50000000  0.39581800  1
  Nd  Nd3  1  0.75000000  0.00000000  0.89859900  1
  Sn  Sn0  1  0.25000000  0.50000000  0.23496700  1
  Sn  Sn1  1  0.25000000  0.00000000  0.74870900  1
  Sn  Sn2  1  0.75000000  0.00000000  0.23497600  1
  Sn  Sn3  1  0.75000000  0.50000000  0.75450300  1
  Sn  Sn4  1  0.25000000  0.00000000  0.46185300  1
  Sn  Sn5  1  0.25000000  0.50000000  0.94077700  1
  Sn  Sn6  1  0.75000000  0.50000000  0.05805600  1
  Sn  Sn7  1  0.75000000  0.00000000  0.57171500  1
  Ir  Ir0  1  0.25000000  0.00000000  0.31371500  1
loop_
_geom_bond_atom_site_label_1
_geom_bond_atom_site_label_2
_geom_bond_distance
_geom_bond_site_symmetry_2
Nd0 Sn2 3.265865 1_455
Nd0 Sn2 3.265865 1_555
Nd0 Sn0 3.275459 1_555
Nd0 Sn0 3.275459 1_545
Nd0 Sn6 3.281086 1_455
Nd0 Sn6 3.281086 1_445
Nd0 Sn6 3.281086 1_545
Nd0 Sn6 3.281086 1_555
Nd0 Sn5 3.580965 1_544
Nd0 Sn5 3.580965 1_554
Nd1 Sn7 3.257956 1_565
Nd1 Sn7 3.257956 1_455
Nd1 Sn7 3.257956 1_555
Nd1 Sn7 3.257956 1_465
Nd1 Sn1 3.359127 1_555
Nd1 Sn1 3.359127 1_565
Nd1 Sn4 3.396765 1_555
Nd1 Sn4 3.396765 1_565
Nd1 Sn3 3.425041 1_555
Nd1 Sn3 3.425041 1_455
Nd2 Sn4 3.401124 1_655
Nd2 Sn4 3.401124 1_665
Nd2 Sn4 3.401124 1_555
Nd2 Sn4 3.401124 1_565
Nd2 Sn0 3.599922 1_655
Nd2 Sn0 3.599922 1_555
Nd2 Sn2 3.608609 1_565
Nd2 Sn2 3.608609 1_555
Nd2 Sn7 3.816312 1_565
Nd2 Sn7 3.816312 1_555
Nd3 Sn5 3.283642 1_655
Nd3 Sn5 3.283642 1_545
Nd3 Sn5 3.283642 1_555
Nd3 Sn5 3.283642 1_645
Nd3 Sn3 3.386540 1_545
Nd3 Sn3 3.386540 1_555
Nd3 Sn1 3.453016 1_655
Nd3 Sn1 3.453016 1_555
Nd3 Sn6 3.589862 1_556
Nd3 Sn6 3.589862 1_546
Sn1 Sn3 3.201773 1_445
Sn1 Sn3 3.201773 1_545
Sn1 Sn3 3.201773 1_555
Sn1 Sn3 3.201773 1_455
Sn4 Sn7 2.959802 1_455
Sn4 Sn7 2.959802 1_555
Sn5 Sn6 3.045146 1_556
Sn5 Sn6 3.045146 1_456
Ir0 Sn4 2.583730 1_555
Ir0 Sn2 2.640988 1_555
Ir0 Sn2 2.640988 1_455
Ir0 Sn0 2.653064 1_555
Ir0 Sn0 2.653064 1_545
Ir0 Nd2 3.505956 1_555
Ir0 Nd2 3.505956 1_545
Ir0 Nd2 3.505956 1_445
Ir0 Nd2 3.505956 1_455
