# generated using pymatgen
data_U6Al43Cr4
_symmetry_space_group_name_H-M   'P 1'
_cell_length_a   10.91051238
_cell_length_b   10.91088185
_cell_length_c   17.29772900
_cell_angle_alpha   90.00000000
_cell_angle_beta   90.00000000
_cell_angle_gamma   119.99887891
_symmetry_Int_Tables_number   1
_chemical_formula_structural   U6Al43Cr4
_chemical_formula_sum   'U12 Al86 Cr8'
_cell_volume   1783.32141920
_cell_formula_units_Z   2
loop_
 _symmetry_equiv_pos_site_id
 _symmetry_equiv_pos_as_xyz
  1  'x, y, z'
loop_
 _atom_site_type_symbol
 _atom_site_label
 _atom_site_symmetry_multiplicity
 _atom_site_fract_x
 _atom_site_fract_y
 _atom_site_fract_z
 _atom_site_occupancy
  U  U0  1  0.52274500  0.00000000  0.58616900  1
  U  U1  1  0.47730100  0.47732100  0.58609600  1
  U  U2  1  0.99998000  0.52267900  0.58609600  1
  U  U3  1  0.47725500  0.00000000  0.41383100  1
  U  U4  1  0.52269900  0.52267900  0.41390400  1
  U  U5  1  0.00002000  0.47732100  0.41390400  1
  U  U6  1  0.47725500  0.00000000  0.08616900  1
  U  U7  1  0.52269900  0.52267900  0.08609600  1
  U  U8  1  0.00002000  0.47732100  0.08609600  1
  U  U9  1  0.52274500  0.00000000  0.91383100  1
  U  U10  1  0.47730100  0.47732100  0.91390400  1
  U  U11  1  0.99998000  0.52267900  0.91390400  1
  Al  Al0  1  0.16129900  0.39276900  0.66486700  1
  Al  Al1  1  0.23142100  0.83869300  0.66489000  1
  Al  Al2  1  0.60720100  0.76835900  0.66482600  1
  Al  Al3  1  0.76853000  0.60723100  0.66486700  1
  Al  Al4  1  0.39272800  0.16130700  0.66489000  1
  Al  Al5  1  0.83884200  0.23164100  0.66482600  1
  Al  Al6  1  0.83870100  0.60723100  0.33513300  1
  Al  Al7  1  0.76857900  0.16130700  0.33511000  1
  Al  Al8  1  0.39279900  0.23164100  0.33517400  1
  Al  Al9  1  0.23147000  0.39276900  0.33513300  1
  Al  Al10  1  0.60727200  0.83869300  0.33511000  1
  Al  Al11  1  0.16115800  0.76835900  0.33517400  1
  Al  Al12  1  0.83870100  0.60723100  0.16486700  1
  Al  Al13  1  0.76857900  0.16130700  0.16489000  1
  Al  Al14  1  0.39279900  0.23164100  0.16482600  1
  Al  Al15  1  0.23147000  0.39276900  0.16486700  1
  Al  Al16  1  0.60727200  0.83869300  0.16489000  1
  Al  Al17  1  0.16115800  0.76835900  0.16482600  1
  Al  Al18  1  0.16129900  0.39276900  0.83513300  1
  Al  Al19  1  0.23142100  0.83869300  0.83511000  1
  Al  Al20  1  0.60720100  0.76835900  0.83517400  1
  Al  Al21  1  0.76853000  0.60723100  0.83513300  1
  Al  Al22  1  0.39272800  0.16130700  0.83511000  1
  Al  Al23  1  0.83884200  0.23164100  0.83517400  1
  Al  Al24  1  0.15781500  0.00000000  0.11521900  1
  Al  Al25  1  0.84202700  0.84202400  0.11528900  1
  Al  Al26  1  0.00000200  0.15797600  0.11528900  1
  Al  Al27  1  0.84218500  0.00000000  0.88478100  1
  Al  Al28  1  0.15797300  0.15797600  0.88471100  1
  Al  Al29  1  0.99999800  0.84202400  0.88471100  1
  Al  Al30  1  0.84218500  0.00000000  0.61521900  1
  Al  Al31  1  0.15797300  0.15797600  0.61528900  1
  Al  Al32  1  0.99999800  0.84202400  0.61528900  1
  Al  Al33  1  0.15781500  0.00000000  0.38478100  1
  Al  Al34  1  0.84202700  0.84202400  0.38471100  1
  Al  Al35  1  0.00000200  0.15797600  0.38471100  1
  Al  Al36  1  0.25092400  0.00000000  0.52961400  1
  Al  Al37  1  0.74902700  0.74901700  0.52958300  1
  Al  Al38  1  0.00001000  0.25098300  0.52958300  1
  Al  Al39  1  0.74907600  0.00000000  0.47038600  1
  Al  Al40  1  0.25097300  0.25098300  0.47041700  1
  Al  Al41  1  0.99999000  0.74901700  0.47041700  1
  Al  Al42  1  0.74907600  0.00000000  0.02961400  1
  Al  Al43  1  0.25097300  0.25098300  0.02958300  1
  Al  Al44  1  0.99999000  0.74901700  0.02958300  1
  Al  Al45  1  0.25092400  0.00000000  0.97038600  1
  Al  Al46  1  0.74902700  0.74901700  0.97041700  1
  Al  Al47  1  0.00001000  0.25098300  0.97041700  1
  Al  Al48  1  0.13946900  0.59388000  0.75000000  1
  Al  Al49  1  0.45413800  0.86035900  0.75000000  1
  Al  Al50  1  0.40609000  0.54557400  0.75000000  1
  Al  Al51  1  0.54558900  0.40612000  0.75000000  1
  Al  Al52  1  0.59377900  0.13964100  0.75000000  1
  Al  Al53  1  0.86051600  0.45442600  0.75000000  1
  Al  Al54  1  0.86053100  0.40612000  0.25000000  1
  Al  Al55  1  0.54586200  0.13964100  0.25000000  1
  Al  Al56  1  0.59391000  0.45442600  0.25000000  1
  Al  Al57  1  0.45441100  0.59388000  0.25000000  1
  Al  Al58  1  0.40622100  0.86035900  0.25000000  1
  Al  Al59  1  0.13948400  0.54557400  0.25000000  1
  Al  Al60  1  0.24653100  0.49306100  0.50000000  1
  Al  Al61  1  0.24648400  0.75340500  0.50001000  1
  Al  Al62  1  0.50692100  0.75340500  0.49999000  1
  Al  Al63  1  0.75347000  0.50693900  0.50000000  1
  Al  Al64  1  0.49307900  0.24659500  0.50001000  1
  Al  Al65  1  0.75351600  0.24659500  0.49999000  1
  Al  Al66  1  0.75347000  0.50693900  0.00000000  1
  Al  Al67  1  0.75351600  0.24659500  0.00001000  1
  Al  Al68  1  0.49307900  0.24659500  0.99999000  1
  Al  Al69  1  0.24653100  0.49306100  0.00000000  1
  Al  Al70  1  0.50692100  0.75340500  0.00001000  1
  Al  Al71  1  0.24648400  0.75340500  0.99999000  1
  Al  Al72  1  0.33328600  0.66661800  0.62862600  1
  Al  Al73  1  0.66666800  0.33338200  0.62862600  1
  Al  Al74  1  0.66671400  0.33338200  0.37137400  1
  Al  Al75  1  0.33333200  0.66661800  0.37137400  1
  Al  Al76  1  0.66671400  0.33338200  0.12862600  1
  Al  Al77  1  0.33333200  0.66661800  0.12862600  1
  Al  Al78  1  0.33328600  0.66661800  0.87137400  1
  Al  Al79  1  0.66666800  0.33338200  0.87137400  1
  Al  Al80  1  0.14675600  0.00000000  0.75000000  1
  Al  Al81  1  0.85335200  0.85317900  0.75000000  1
  Al  Al82  1  0.00017300  0.14682100  0.75000000  1
  Al  Al83  1  0.85324400  0.00000000  0.25000000  1
  Al  Al84  1  0.14664800  0.14682100  0.25000000  1
  Al  Al85  1  0.99982700  0.85317900  0.25000000  1
  Cr  Cr0  1  0.73394400  0.00000000  0.75000000  1
  Cr  Cr1  1  0.26586200  0.26586800  0.75000000  1
  Cr  Cr2  1  0.99999400  0.73413200  0.75000000  1
  Cr  Cr3  1  0.26605600  0.00000000  0.25000000  1
  Cr  Cr4  1  0.73413800  0.73413200  0.25000000  1
  Cr  Cr5  1  0.00000600  0.26586800  0.25000000  1
  Cr  Cr6  1  0.00000000  0.00000000  0.50000000  1
  Cr  Cr7  1  0.00000000  0.00000000  0.00000000  1
loop_
_geom_bond_atom_site_label_1
_geom_bond_atom_site_label_2
_geom_bond_distance
_geom_bond_site_symmetry_2
U0 U3 3.022090 1_555
U1 U4 3.019401 1_555
U2 U5 3.019401 1_655
U6 U9 3.022090 1_554
U10 U7 3.019401 1_556
U11 U8 3.019401 1_656
Al0 Cr1 2.639460 1_555
Al0 Al31 2.684516 1_555
Al0 Al72 2.689850 1_555
Al0 Al48 2.750065 1_555
Al0 Al50 2.762010 1_555
Al0 Al82 2.782604 1_555
Al0 Al38 2.871200 1_555
Al0 Al18 2.945215 1_555
Al0 Al60 3.029446 1_555
Al0 Al5 3.046860 1_455
Al0 U2 3.075425 1_455
Al0 U1 3.378464 1_555
Al1 Cr2 2.638933 1_455
Al1 Al32 2.684132 1_455
Al1 Al72 2.690768 1_555
Al1 Al49 2.748375 1_555
Al1 Al48 2.762085 1_555
Al1 Al80 2.782809 1_565
Al1 Al36 2.871209 1_565
Al1 Al19 2.944419 1_555
Al1 Al61 3.029865 1_555
Al1 Al4 3.048447 1_565
Al1 U0 3.075821 1_565
Al1 U2 3.378796 1_455
Al2 Cr0 2.641177 1_565
Al2 Al30 2.686562 1_565
Al2 Al72 2.690428 1_555
Al2 Al50 2.749633 1_555
Al2 Al49 2.764679 1_555
Al2 Al81 2.784673 1_555
Al2 Al37 2.870242 1_555
Al2 Al20 2.946634 1_555
Al2 Al62 3.029031 1_555
Al2 Al3 3.046860 1_555
Al2 U1 3.073533 1_555
Al2 U0 3.378889 1_565
Al3 Cr2 2.639461 1_555
Al3 Al32 2.684521 1_555
Al3 Al73 2.689850 1_555
Al3 Al51 2.750065 1_555
Al3 Al53 2.762010 1_555
Al3 Al81 2.782604 1_555
Al3 Al37 2.871200 1_555
Al3 Al63 3.029446 1_555
Al3 U1 3.075425 1_555
Al3 U2 3.378464 1_555
Al4 Cr1 2.638933 1_555
Al4 Al73 2.690768 1_555
Al4 Al52 2.748375 1_555
Al4 Al51 2.762085 1_555
Al4 Al80 2.782809 1_555
Al4 Al64 3.029865 1_555
Al4 U0 3.075821 1_555
Al4 U1 3.378796 1_555
Al5 Cr0 2.641177 1_555
Al5 Al73 2.690428 1_555
Al5 Al53 2.749633 1_555
Al5 Al52 2.764679 1_555
Al5 Al82 2.784673 1_655
Al5 Al65 3.029031 1_555
Al5 U2 3.073533 1_555
Al5 U0 3.378890 1_555
Al6 Cr4 2.639460 1_555
Al6 Al74 2.689850 1_555
Al6 Al85 2.782604 1_555
Al6 Al63 3.029444 1_555
Al6 U5 3.075425 1_655
Al6 U4 3.378464 1_555
Al7 Cr5 2.638933 1_655
Al7 Al74 2.690768 1_555
Al7 Al83 2.782809 1_555
Al7 U3 3.075821 1_555
Al7 U5 3.378796 1_655
Al8 Cr3 2.641177 1_555
Al8 Al84 2.784673 1_555
Al8 Al9 3.046860 1_555
Al8 U4 3.073533 1_555
Al8 U3 3.378889 1_555
Al9 Cr5 2.639461 1_555
Al9 U4 3.075425 1_555
Al9 U5 3.378464 1_555
Al10 Cr4 2.638933 1_555
Al10 Al34 2.684142 1_555
Al10 Al75 2.690768 1_555
Al10 Al58 2.748375 1_555
Al10 Al57 2.762085 1_555
Al10 Al83 2.782809 1_565
Al10 Al39 2.871209 1_565
Al10 Al16 2.944419 1_555
Al10 Al62 3.029865 1_555
Al10 Al7 3.048447 1_565
Al10 U3 3.075821 1_565
Al10 U4 3.378796 1_555
Al11 Cr3 2.641177 1_565
Al11 Al33 2.686562 1_565
Al11 Al75 2.690428 1_555
Al11 Al59 2.749633 1_555
Al11 Al58 2.764679 1_555
Al11 Al85 2.784673 1_455
Al11 Al41 2.870242 1_455
Al11 Al17 2.946634 1_555
Al11 Al61 3.029031 1_555
Al11 Al6 3.046860 1_455
Al11 U5 3.073533 1_555
Al11 U3 3.378890 1_565
Al12 Cr4 2.639460 1_555
Al12 Al25 2.684516 1_555
Al12 Al76 2.689850 1_555
Al12 Al54 2.750065 1_555
Al12 Al56 2.762010 1_555
Al12 Al85 2.782604 1_555
Al12 Al44 2.871200 1_555
Al12 Al6 2.945215 1_555
Al12 Al66 3.029444 1_555
Al12 Al17 3.046860 1_655
Al12 U8 3.075425 1_655
Al12 U7 3.378464 1_555
Al13 Cr5 2.638933 1_655
Al13 Al26 2.684132 1_655
Al13 Al76 2.690768 1_555
Al13 Al55 2.748375 1_555
Al13 Al54 2.762085 1_555
Al13 Al83 2.782809 1_555
Al13 Al42 2.871209 1_555
Al13 Al7 2.944419 1_555
Al13 Al67 3.029865 1_555
Al13 Al16 3.048447 1_545
Al13 U6 3.075821 1_555
Al13 U8 3.378796 1_655
Al14 Cr3 2.641177 1_555
Al14 Al24 2.686562 1_555
Al14 Al76 2.690428 1_555
Al14 Al56 2.749633 1_555
Al14 Al55 2.764679 1_555
Al14 Al84 2.784673 1_555
Al14 Al43 2.870242 1_555
Al14 Al8 2.946634 1_555
Al14 Al68 3.029031 1_554
Al14 Al15 3.046860 1_555
Al14 U7 3.073533 1_555
Al14 U6 3.378889 1_555
Al15 Cr5 2.639461 1_555
Al15 Al26 2.684521 1_555
Al15 Al77 2.689850 1_555
Al15 Al57 2.750065 1_555
Al15 Al59 2.762010 1_555
Al15 Al84 2.782604 1_555
Al15 Al43 2.871200 1_555
Al15 Al9 2.945215 1_555
Al15 Al69 3.029444 1_555
Al15 U7 3.075425 1_555
Al15 U8 3.378464 1_555
Al16 Cr4 2.638933 1_555
Al16 Al25 2.684142 1_555
Al16 Al77 2.690768 1_555
Al16 Al58 2.748375 1_555
Al16 Al57 2.762085 1_555
Al16 Al83 2.782809 1_565
Al16 Al42 2.871209 1_565
Al16 Al70 3.029865 1_555
Al16 U6 3.075821 1_565
Al16 U7 3.378796 1_555
Al17 Cr3 2.641177 1_565
Al17 Al24 2.686562 1_565
Al17 Al77 2.690428 1_555
Al17 Al59 2.749633 1_555
Al17 Al58 2.764679 1_555
Al17 Al85 2.784673 1_455
Al17 Al44 2.870242 1_455
Al17 Al71 3.029031 1_554
Al17 U8 3.073533 1_555
Al17 U6 3.378890 1_565
Al18 Cr1 2.639460 1_555
Al18 Al28 2.684516 1_555
Al18 Al78 2.689850 1_555
Al18 Al48 2.750065 1_555
Al18 Al50 2.762010 1_555
Al18 Al82 2.782604 1_555
Al18 Al47 2.871200 1_555
Al18 Al69 3.029446 1_556
Al18 Al23 3.046860 1_455
Al18 U11 3.075425 1_455
Al18 U10 3.378464 1_555
Al19 Cr2 2.638933 1_455
Al19 Al29 2.684132 1_455
Al19 Al78 2.690768 1_555
Al19 Al49 2.748375 1_555
Al19 Al48 2.762085 1_555
Al19 Al80 2.782809 1_565
Al19 Al45 2.871209 1_565
Al19 Al71 3.029865 1_555
Al19 Al22 3.048447 1_565
Al19 U9 3.075821 1_565
Al19 U11 3.378796 1_455
Al20 Cr0 2.641177 1_565
Al20 Al27 2.686562 1_565
Al20 Al78 2.690428 1_555
Al20 Al50 2.749633 1_555
Al20 Al49 2.764679 1_555
Al20 Al81 2.784673 1_555
Al20 Al46 2.870242 1_555
Al20 Al70 3.029031 1_556
Al20 Al21 3.046860 1_555
Al20 U10 3.073533 1_555
Al20 U9 3.378889 1_565
Al21 Cr2 2.639461 1_555
Al21 Al29 2.684521 1_555
Al21 Al79 2.689850 1_555
Al21 Al51 2.750065 1_555
Al21 Al53 2.762010 1_555
Al21 Al81 2.782604 1_555
Al21 Al46 2.871200 1_555
Al21 Al3 2.945215 1_555
Al21 Al66 3.029446 1_556
Al21 U10 3.075425 1_555
Al21 U11 3.378464 1_555
Al22 Cr1 2.638933 1_555
Al22 Al28 2.684142 1_555
Al22 Al79 2.690768 1_555
Al22 Al52 2.748375 1_555
Al22 Al51 2.762085 1_555
Al22 Al80 2.782809 1_555
Al22 Al45 2.871209 1_555
Al22 Al4 2.944419 1_555
Al22 Al68 3.029865 1_555
Al22 U9 3.075821 1_555
Al22 U10 3.378796 1_555
Al23 Cr0 2.641177 1_555
Al23 Al27 2.686562 1_555
Al23 Al79 2.690428 1_555
Al23 Al53 2.749633 1_555
Al23 Al52 2.764679 1_555
Al23 Al82 2.784673 1_655
Al23 Al47 2.870242 1_655
Al23 Al5 2.946634 1_555
Al23 Al67 3.029031 1_556
Al23 U11 3.073533 1_555
Al23 U9 3.378890 1_555
Al24 Cr3 2.613451 1_555
Al24 Cr7 2.633799 1_555
Al24 Al45 2.703410 1_554
Al24 Al43 2.818362 1_555
Al24 Al44 2.818362 1_445
Al24 Al84 2.865606 1_555
Al24 Al85 2.865606 1_445
Al24 Al25 2.983846 1_445
Al24 Al26 2.983855 1_555
Al24 U6 3.521293 1_555
Al25 Cr4 2.610663 1_555
Al25 Cr7 2.635891 1_665
Al25 Al46 2.703615 1_554
Al25 Al42 2.818462 1_565
Al25 Al44 2.819016 1_555
Al25 Al85 2.863435 1_555
Al25 Al83 2.864409 1_565
Al25 Al26 2.985496 1_665
Al25 U7 3.520646 1_555
Al26 Cr5 2.610660 1_555
Al26 Cr7 2.635895 1_555
Al26 Al47 2.703613 1_554
Al26 Al42 2.818455 1_455
Al26 Al43 2.819024 1_555
Al26 Al84 2.863441 1_555
Al26 Al83 2.864406 1_455
Al26 U8 3.520640 1_555
Al27 Cr0 2.613451 1_555
Al27 Cr7 2.633799 1_656
Al27 Al42 2.703410 1_556
Al27 Al46 2.818362 1_545
Al27 Al47 2.818362 1_655
Al27 Al81 2.865606 1_545
Al27 Al82 2.865606 1_655
Al27 Al28 2.983846 1_655
Al27 Al29 2.983855 1_545
Al27 U9 3.521293 1_555
Al28 Cr1 2.610663 1_555
Al28 Cr7 2.635891 1_556
Al28 Al43 2.703615 1_556
Al28 Al45 2.818462 1_555
Al28 Al47 2.819016 1_555
Al28 Al82 2.863435 1_555
Al28 Al80 2.864409 1_555
Al28 Al29 2.985496 1_445
Al28 U10 3.520646 1_555
Al29 Cr2 2.610660 1_555
Al29 Cr7 2.635895 1_666
Al29 Al44 2.703613 1_556
Al29 Al45 2.818455 1_665
Al29 Al46 2.819024 1_555
Al29 Al81 2.863441 1_555
Al29 Al80 2.864406 1_665
Al29 U11 3.520640 1_555
Al30 Cr0 2.613451 1_555
Al30 Cr6 2.633799 1_655
Al30 Al5 2.686562 1_555
Al30 Al39 2.703410 1_555
Al30 Al37 2.818362 1_545
Al30 Al38 2.818362 1_655
Al30 Al81 2.865606 1_545
Al30 Al82 2.865606 1_655
Al30 Al31 2.983846 1_655
Al30 Al32 2.983855 1_545
Al30 U0 3.521293 1_555
Al31 Cr1 2.610663 1_555
Al31 Cr6 2.635891 1_555
Al31 Al4 2.684142 1_555
Al31 Al40 2.703615 1_555
Al31 Al36 2.818462 1_555
Al31 Al38 2.819016 1_555
Al31 Al82 2.863435 1_555
Al31 Al80 2.864409 1_555
Al31 Al32 2.985496 1_445
Al31 U1 3.520646 1_555
Al32 Cr2 2.610660 1_555
Al32 Cr6 2.635895 1_665
Al32 Al41 2.703613 1_555
Al32 Al36 2.818455 1_665
Al32 Al37 2.819024 1_555
Al32 Al81 2.863441 1_555
Al32 Al80 2.864406 1_665
Al32 U2 3.520640 1_555
Al33 Cr3 2.613451 1_555
Al33 Cr6 2.633799 1_555
Al33 Al8 2.686562 1_555
Al33 Al36 2.703410 1_555
Al33 Al40 2.818362 1_555
Al33 Al41 2.818362 1_445
Al33 Al84 2.865606 1_555
Al33 Al85 2.865606 1_445
Al33 Al34 2.983846 1_445
Al33 Al35 2.983855 1_555
Al33 U3 3.521293 1_555
Al34 Cr4 2.610663 1_555
Al34 Cr6 2.635891 1_665
Al34 Al6 2.684516 1_555
Al34 Al37 2.703615 1_555
Al34 Al39 2.818462 1_565
Al34 Al41 2.819016 1_555
Al34 Al85 2.863435 1_555
Al34 Al83 2.864409 1_565
Al34 Al35 2.985496 1_665
Al34 U4 3.520646 1_555
Al35 Cr5 2.610660 1_555
Al35 Cr6 2.635895 1_555
Al35 Al7 2.684132 1_455
Al35 Al9 2.684521 1_555
Al35 Al38 2.703613 1_555
Al35 Al39 2.818455 1_455
Al35 Al40 2.819024 1_555
Al35 Al84 2.863441 1_555
Al35 Al83 2.864406 1_455
Al35 U5 3.520640 1_555
Al36 Al61 2.715401 1_545
Al36 Al64 2.715401 1_555
Al36 Cr6 2.785221 1_555
Al36 Al4 2.871209 1_555
Al36 Al40 2.923379 1_555
Al36 Al41 2.923379 1_445
Al36 U0 3.122888 1_555
Al36 U3 3.179467 1_555
Al37 Al62 2.714464 1_555
Al37 Al63 2.714521 1_555
Al37 Cr6 2.785793 1_665
Al37 Al41 2.923150 1_555
Al37 Al39 2.923379 1_565
Al37 U1 3.121617 1_555
Al37 U4 3.178416 1_555
Al38 Al65 2.714464 1_455
Al38 Al60 2.714521 1_555
Al38 Cr6 2.785793 1_555
Al38 Al5 2.870242 1_455
Al38 Al40 2.923150 1_555
Al38 Al39 2.923379 1_455
Al38 U2 3.121617 1_455
Al38 U5 3.178416 1_555
Al39 Al65 2.715401 1_555
Al39 Al62 2.715401 1_545
Al39 Cr6 2.785221 1_655
Al39 Al7 2.871209 1_555
Al39 U3 3.122888 1_555
Al39 U0 3.179467 1_555
Al40 Al64 2.714464 1_555
Al40 Al60 2.714515 1_555
Al40 Cr6 2.785793 1_555
Al40 Al8 2.870242 1_555
Al40 Al9 2.871200 1_555
Al40 U4 3.121617 1_555
Al40 U1 3.178416 1_555
Al41 Al61 2.714464 1_655
Al41 Al63 2.714515 1_555
Al41 Cr6 2.785793 1_665
Al41 Al6 2.871200 1_555
Al41 U5 3.121617 1_655
Al41 U2 3.178416 1_555
Al42 Al67 2.715401 1_555
Al42 Al70 2.715401 1_545
Al42 Cr7 2.785221 1_655
Al42 Al46 2.923379 1_544
Al42 Al47 2.923379 1_654
Al42 U6 3.122888 1_555
Al42 U9 3.179467 1_554
Al43 Al68 2.714464 1_554
Al43 Al69 2.714515 1_555
Al43 Cr7 2.785793 1_555
Al43 Al47 2.923150 1_554
Al43 Al45 2.923379 1_554
Al43 U7 3.121617 1_555
Al43 U10 3.178416 1_554
Al44 Al71 2.714464 1_654
Al44 Al66 2.714515 1_555
Al44 Cr7 2.785793 1_665
Al44 Al46 2.923150 1_554
Al44 Al45 2.923379 1_664
Al44 U8 3.121617 1_655
Al44 U11 3.178416 1_554
Al45 Al71 2.715401 1_545
Al45 Al68 2.715401 1_555
Al45 Cr7 2.785221 1_556
Al45 U9 3.122888 1_555
Al45 U6 3.179467 1_556
Al46 Al70 2.714464 1_556
Al46 Al66 2.714521 1_556
Al46 Cr7 2.785793 1_666
Al46 U10 3.121617 1_555
Al46 U7 3.178416 1_556
Al47 Al67 2.714464 1_456
Al47 Al69 2.714521 1_556
Al47 Cr7 2.785793 1_556
Al47 U11 3.121617 1_455
Al47 U8 3.178416 1_556
Al48 Al53 2.635796 1_455
Al48 Cr2 2.643113 1_455
Al48 Al78 2.798437 1_555
Al48 Al72 2.798437 1_555
Al48 U2 3.126594 1_455
Al48 U11 3.126594 1_455
Al49 Al52 2.638994 1_565
Al49 Cr0 2.643857 1_565
Al49 Al78 2.797820 1_555
Al49 Al72 2.797820 1_555
Al49 U9 3.126061 1_565
Al49 U0 3.126061 1_565
Al50 Al51 2.635796 1_555
Al50 Cr1 2.643003 1_555
Al50 Al78 2.798590 1_555
Al50 Al72 2.798590 1_555
Al50 U10 3.126495 1_555
Al50 U1 3.126495 1_555
Al51 Cr1 2.643113 1_555
Al51 Al73 2.798437 1_555
Al51 Al79 2.798437 1_555
Al51 U10 3.126594 1_555
Al51 U1 3.126594 1_555
Al52 Cr0 2.643857 1_555
Al52 Al73 2.797820 1_555
Al52 Al79 2.797820 1_555
Al52 U9 3.126061 1_555
Al52 U0 3.126061 1_555
Al53 Cr2 2.643003 1_555
Al53 Al73 2.798590 1_555
Al53 Al79 2.798590 1_555
Al53 U2 3.126495 1_555
Al53 U11 3.126495 1_555
Al54 Al59 2.635796 1_655
Al54 Cr5 2.643113 1_655
Al54 Al6 2.750065 1_555
Al54 Al7 2.762085 1_555
Al54 Al74 2.798437 1_555
Al54 Al76 2.798437 1_555
Al54 U8 3.126594 1_655
Al54 U5 3.126594 1_655
Al55 Al58 2.638994 1_545
Al55 Cr3 2.643857 1_555
Al55 Al7 2.748375 1_555
Al55 Al8 2.764679 1_555
Al55 Al74 2.797820 1_555
Al55 Al76 2.797820 1_555
Al55 U3 3.126061 1_555
Al55 U6 3.126061 1_555
Al56 Al57 2.635796 1_555
Al56 Cr4 2.643003 1_555
Al56 Al8 2.749633 1_555
Al56 Al6 2.762010 1_555
Al56 Al74 2.798590 1_555
Al56 Al76 2.798590 1_555
Al56 U7 3.126495 1_555
Al56 U4 3.126495 1_555
Al57 Cr4 2.643113 1_555
Al57 Al9 2.750065 1_555
Al57 Al75 2.798437 1_555
Al57 Al77 2.798437 1_555
Al57 U7 3.126594 1_555
Al57 U4 3.126594 1_555
Al58 Cr3 2.643857 1_565
Al58 Al75 2.797820 1_555
Al58 Al77 2.797820 1_555
Al58 U6 3.126061 1_565
Al58 U3 3.126061 1_565
Al59 Cr5 2.643003 1_555
Al59 Al9 2.762010 1_555
Al59 Al75 2.798590 1_555
Al59 Al77 2.798590 1_555
Al59 U8 3.126495 1_555
Al59 U5 3.126495 1_555
Al60 Al75 2.764031 1_555
Al60 Al72 2.764031 1_555
Al60 Al62 2.840834 1_555
Al60 Al61 2.840839 1_555
Al60 U1 3.003199 1_555
Al60 U5 3.003209 1_555
Al60 Al9 3.029444 1_555
Al60 U4 3.229185 1_555
Al60 U2 3.229194 1_455
Al61 Al72 2.764039 1_555
Al61 Al75 2.764575 1_555
Al61 Al62 2.841501 1_555
Al61 U2 3.002966 1_455
Al61 U3 3.004439 1_565
Al61 U5 3.228541 1_555
Al61 U0 3.230466 1_565
Al62 Al75 2.764039 1_555
Al62 Al72 2.764575 1_555
Al62 U4 3.002966 1_555
Al62 U0 3.004439 1_565
Al62 U1 3.228541 1_555
Al62 U3 3.230466 1_565
Al63 Al74 2.764031 1_555
Al63 Al73 2.764031 1_555
Al63 Al65 2.840834 1_555
Al63 Al64 2.840839 1_555
Al63 U2 3.003199 1_555
Al63 U4 3.003209 1_555
Al63 U5 3.229185 1_655
Al63 U1 3.229194 1_555
Al64 Al73 2.764039 1_555
Al64 Al74 2.764575 1_555
Al64 Al65 2.841501 1_555
Al64 U1 3.002966 1_555
Al64 U3 3.004439 1_555
Al64 Al8 3.029031 1_555
Al64 U4 3.228541 1_555
Al64 U0 3.230466 1_555
Al65 Al74 2.764039 1_555
Al65 Al73 2.764575 1_555
Al65 U5 3.002966 1_655
Al65 U0 3.004439 1_555
Al65 Al7 3.029865 1_555
Al65 U2 3.228541 1_555
Al65 U3 3.230466 1_555
Al66 Al76 2.764031 1_555
Al66 Al79 2.764031 1_554
Al66 Al67 2.840834 1_555
Al66 Al68 2.840839 1_554
Al66 U11 3.003199 1_554
Al66 U7 3.003209 1_555
Al66 U8 3.229185 1_655
Al66 U10 3.229194 1_554
Al67 Al76 2.764039 1_555
Al67 Al79 2.764575 1_554
Al67 Al68 2.841501 1_554
Al67 U8 3.002966 1_655
Al67 U9 3.004439 1_554
Al67 U11 3.228541 1_554
Al67 U6 3.230466 1_555
Al68 Al79 2.764039 1_555
Al68 Al76 2.764575 1_556
Al68 U10 3.002966 1_555
Al68 U6 3.004439 1_556
Al68 U7 3.228541 1_556
Al68 U9 3.230466 1_555
Al69 Al77 2.764031 1_555
Al69 Al78 2.764031 1_554
Al69 Al70 2.840834 1_555
Al69 Al71 2.840839 1_554
Al69 U10 3.003199 1_554
Al69 U8 3.003209 1_555
Al69 U7 3.229185 1_555
Al69 U11 3.229194 1_454
Al70 Al77 2.764039 1_555
Al70 Al78 2.764575 1_554
Al70 Al71 2.841501 1_554
Al70 U7 3.002966 1_555
Al70 U9 3.004439 1_564
Al70 U10 3.228541 1_554
Al70 U6 3.230466 1_565
Al71 Al78 2.764039 1_555
Al71 Al77 2.764575 1_556
Al71 U11 3.002966 1_455
Al71 U6 3.004439 1_566
Al71 U8 3.228541 1_556
Al71 U9 3.230466 1_565
Al72 U2 3.243626 1_455
Al72 U1 3.243639 1_555
Al72 U0 3.244195 1_565
Al73 U1 3.243626 1_555
Al73 U2 3.243639 1_555
Al73 U0 3.244195 1_555
Al74 Al8 2.690428 1_555
Al74 U5 3.243626 1_655
Al74 U4 3.243639 1_555
Al74 U3 3.244195 1_555
Al75 Al9 2.689850 1_555
Al75 U4 3.243626 1_555
Al75 U5 3.243639 1_555
Al75 U3 3.244195 1_565
Al76 U8 3.243626 1_655
Al76 U7 3.243639 1_555
Al76 U6 3.244195 1_555
Al77 U7 3.243626 1_555
Al77 U8 3.243639 1_555
Al77 U6 3.244195 1_565
Al78 U11 3.243626 1_455
Al78 U10 3.243639 1_555
Al78 U9 3.244195 1_565
Al79 U10 3.243626 1_555
Al79 U11 3.243639 1_555
Al79 U9 3.244195 1_555
Al80 Cr1 2.516768 1_555
Al80 Cr2 2.516768 1_445
Al80 Al82 2.772342 1_555
Al80 Al81 2.772342 1_445
Al81 Cr2 2.514969 1_555
Al81 Cr0 2.520015 1_565
Al81 Al82 2.774684 1_665
Al82 Cr1 2.514969 1_555
Al82 Cr0 2.520015 1_455
Al83 Cr4 2.516768 1_545
Al83 Cr5 2.516768 1_655
Al83 Al85 2.772342 1_545
Al83 Al84 2.772342 1_655
Al84 Cr5 2.514969 1_555
Al84 Cr3 2.520015 1_555
Al84 Al85 2.774684 1_445
Al84 Al9 2.782604 1_555
Al85 Cr4 2.514969 1_555
Al85 Cr3 2.520015 1_665
Cr0 U9 3.652501 1_555
Cr0 U0 3.652501 1_555
Cr1 U10 3.655230 1_555
Cr1 U1 3.655230 1_555
Cr2 U11 3.655230 1_555
Cr2 U2 3.655230 1_555
Cr3 U6 3.652501 1_555
Cr3 U3 3.652501 1_555
Cr4 U7 3.655230 1_555
Cr4 U4 3.655230 1_555
Cr5 U8 3.655230 1_555
Cr5 U5 3.655230 1_555
