# generated using pymatgen
data_TiCuNi2
_symmetry_space_group_name_H-M   'P 1'
_cell_length_a   3.67356100
_cell_length_b   3.67356100
_cell_length_c   4.41880093
_cell_angle_alpha   114.56177354
_cell_angle_beta   114.56177354
_cell_angle_gamma   90.00000000
_symmetry_Int_Tables_number   1
_chemical_formula_structural   TiCuNi2
_chemical_formula_sum   'Ti1 Cu1 Ni2'
_cell_volume   48.24036538
_cell_formula_units_Z   1
loop_
 _symmetry_equiv_pos_site_id
 _symmetry_equiv_pos_as_xyz
  1  'x, y, z'
loop_
 _atom_site_type_symbol
 _atom_site_label
 _atom_site_symmetry_multiplicity
 _atom_site_fract_x
 _atom_site_fract_y
 _atom_site_fract_z
 _atom_site_occupancy
  Ti  Ti0  1  0.00000000  0.00000000  0.00000000  1
  Cu  Cu0  1  0.50000000  0.50000000  0.00000000  1
  Ni  Ni0  1  0.25000000  0.75000000  0.50000000  1
  Ni  Ni1  1  0.75000000  0.25000000  0.50000000  1
loop_
_geom_bond_atom_site_label_1
_geom_bond_atom_site_label_2
_geom_bond_distance
_geom_bond_site_symmetry_2
Cu0 Ni1 2.562875 1_454
Cu0 Ni1 2.562875 1_565
Cu0 Ni0 2.562875 1_655
Cu0 Ni0 2.562875 1_544
Cu0 Ni1 2.562876 1_555
Cu0 Ni0 2.562876 1_554
Cu0 Ni1 2.562876 1_554
Cu0 Ni0 2.562876 1_555
Cu0 Ti0 2.597600 1_665
Cu0 Ti0 2.597600 1_555
Cu0 Ti0 2.597600 1_655
Cu0 Ti0 2.597600 1_565
Ni0 Ti0 2.562875 1_555
Ni0 Ti0 2.562875 1_666
Ni0 Ti0 2.562876 1_566
Ni0 Ti0 2.562876 1_565
Ni0 Ni1 2.597600 1_465
Ni0 Ni1 2.597600 1_455
Ni0 Ni1 2.597600 1_555
Ni0 Ni1 2.597600 1_565
Ni1 Ti0 2.562875 1_555
Ni1 Ti0 2.562875 1_666
Ni1 Ti0 2.562876 1_656
Ni1 Ti0 2.562876 1_655
