# generated using pymatgen
data_Ba4Zn4B14Pb2O31
_symmetry_space_group_name_H-M   'P 1'
_cell_length_a   7.11069900
_cell_length_b   7.14203266
_cell_length_c   16.40108071
_cell_angle_alpha   79.39012917
_cell_angle_beta   83.01379660
_cell_angle_gamma   60.39023742
_symmetry_Int_Tables_number   1
_chemical_formula_structural   Ba4Zn4B14Pb2O31
_chemical_formula_sum   'Ba4 Zn4 B14 Pb2 O31'
_cell_volume   711.31647945
_cell_formula_units_Z   1
loop_
 _symmetry_equiv_pos_site_id
 _symmetry_equiv_pos_as_xyz
  1  'x, y, z'
loop_
 _atom_site_type_symbol
 _atom_site_label
 _atom_site_symmetry_multiplicity
 _atom_site_fract_x
 _atom_site_fract_y
 _atom_site_fract_z
 _atom_site_occupancy
  Ba  Ba0  1  0.10204300  0.07626100  0.59174200  1
  Ba  Ba1  1  0.83369900  0.65799000  0.74353600  1
  Ba  Ba2  1  0.36640700  0.92492300  0.17956100  1
  Ba  Ba3  1  0.08734400  0.50924600  0.34171300  1
  Zn  Zn0  1  0.74825900  0.79419300  0.51532000  1
  Zn  Zn1  1  0.04358600  0.59916800  0.12283300  1
  Zn  Zn2  1  0.43744400  0.79409800  0.41735600  1
  Zn  Zn3  1  0.15205100  0.98609300  0.81280900  1
  B  B0  1  0.02504800  0.46540500  0.96477500  1
  B  B1  1  0.47729400  0.42757800  0.16916300  1
  B  B2  1  0.59723600  0.20730400  0.57602700  1
  B  B3  1  0.97301700  0.11009800  0.37782400  1
  B  B4  1  0.32839800  0.27629600  0.76001100  1
  B  B5  1  0.72608700  0.99333400  0.32895600  1
  B  B6  1  0.46256400  0.59339300  0.60433900  1
  B  B7  1  0.44596200  0.55211300  0.76669500  1
  B  B8  1  0.74583900  0.03489000  0.16633300  1
  B  B9  1  0.86444000  0.30913700  0.17386800  1
  B  B10  1  0.58947100  0.37972800  0.35789300  1
  B  B11  1  0.20389300  0.04655100  0.97303200  1
  B  B12  1  0.21312400  0.47638900  0.55705500  1
  B  B13  1  0.71463600  0.15605700  0.76680300  1
  Pb  Pb0  1  0.76612800  0.94626900  0.96636400  1
  Pb  Pb1  1  0.51684800  0.54141200  0.95739400  1
  O  O0  1  0.17475400  0.24688900  0.98808400  1
  O  O1  1  0.78319500  0.88778400  0.10734100  1
  O  O2  1  0.76207000  0.99994400  0.57520400  1
  O  O3  1  0.91840600  0.98703600  0.75965200  1
  O  O4  1  0.41061900  0.69789500  0.82659300  1
  O  O5  1  0.27303200  0.59270800  0.17929700  1
  O  O6  1  0.54545400  0.10957700  0.76048600  1
  O  O7  1  0.27966600  0.47854700  0.77597500  1
  O  O8  1  0.02435300  0.34920900  0.18886400  1
  O  O9  1  0.45322000  0.66674800  0.68359200  1
  O  O10  1  0.66696200  0.35562800  0.78413300  1
  O  O11  1  0.79536100  0.32075400  0.38404800  1
  O  O12  1  0.94666700  0.96533800  0.34310700  1
  O  O13  1  0.49387200  0.74411100  0.53851500  1
  O  O14  1  0.02123300  0.51089200  0.53214800  1
  O  O15  1  0.05685700  0.03663800  0.92948200  1
  O  O16  1  0.16311700  0.07493000  0.40469800  1
  O  O17  1  0.69278200  0.84315000  0.39479200  1
  O  O18  1  0.73657200  0.92031300  0.24962400  1
  O  O19  1  0.42321400  0.58585500  0.35968100  1
  O  O20  1  0.24088600  0.62103900  0.59124700  1
  O  O21  1  0.52580100  0.23110400  0.14858100  1
  O  O22  1  0.91307700  0.10723400  0.15764100  1
  O  O23  1  0.39114600  0.26677700  0.54981900  1
  O  O24  1  0.84900900  0.55096100  0.91642600  1
  O  O25  1  0.16987300  0.23572600  0.74344400  1
  O  O26  1  0.06561600  0.60801000  0.99823200  1
  O  O27  1  0.39125900  0.86853200  0.00445500  1
  O  O28  1  0.55583400  0.22710100  0.33062400  1
  O  O29  1  0.64677200  0.47507300  0.17469600  1
  O  O30  1  0.63258400  0.35991100  0.60229800  1
loop_
_geom_bond_atom_site_label_1
_geom_bond_atom_site_label_2
_geom_bond_distance
_geom_bond_site_symmetry_2
Ba0 O2 2.780419 1_445
Ba0 O13 2.791404 1_545
Ba0 O14 2.859722 1_555
Ba0 O20 2.895000 1_545
Ba0 O30 2.929733 1_455
Ba0 O23 2.936995 1_555
Ba0 O3 2.999405 1_445
Ba0 O9 3.022356 1_545
Ba0 O16 3.046669 1_555
Ba0 O25 3.098142 1_555
Ba1 O3 2.760737 1_555
Ba1 O25 2.772408 1_655
Ba1 O24 2.798460 1_555
Ba1 O7 2.850424 1_655
Ba1 O10 2.884599 1_555
Ba1 O6 2.887841 1_565
Ba1 O9 2.957573 1_555
Ba1 O4 3.047312 1_555
Ba1 O2 3.236680 1_555
Ba2 O5 2.762564 1_555
Ba2 O8 2.813956 1_565
Ba2 O29 2.833629 1_555
Ba2 O22 2.859628 1_465
Ba2 O21 2.867857 1_565
Ba2 O27 2.945088 1_555
Ba2 O1 2.956611 1_555
Ba2 O18 2.980915 1_555
Ba2 O19 3.382876 1_555
Ba3 O19 2.758970 1_555
Ba3 O17 2.806261 1_455
Ba3 O16 2.878038 1_555
Ba3 O12 2.900671 1_455
Ba3 O5 2.920953 1_555
Ba3 O28 2.923223 1_555
Ba3 O11 2.944846 1_455
Ba3 O18 3.028041 1_455
Ba3 O8 3.102536 1_555
Ba3 O14 3.102784 1_555
B0 O24 1.369776 1_455
B0 O0 1.397341 1_555
B0 O26 1.398669 1_555
B1 O5 1.359730 1_555
B1 O21 1.367401 1_555
B1 O29 1.420378 1_555
B2 O2 1.362148 1_545
B2 O30 1.380853 1_555
B2 O23 1.408405 1_555
B3 O16 1.361335 1_655
B3 O12 1.364692 1_545
B3 O11 1.420162 1_555
B4 O25 1.361864 1_555
B4 O7 1.377584 1_555
B4 O6 1.408355 1_555
B5 O17 1.461109 1_555
B5 O18 1.469127 1_555
B5 O28 1.505076 1_565
B5 O12 1.521686 1_555
B6 O13 1.457456 1_555
B6 O9 1.470993 1_555
B6 O30 1.503974 1_555
B6 O20 1.526085 1_555
B7 O9 1.464380 1_555
B7 O4 1.473205 1_555
B7 O7 1.496061 1_555
B7 O10 1.517538 1_555
B8 O1 1.465108 1_545
B8 O18 1.469642 1_545
B8 O22 1.496741 1_555
B8 O21 1.513447 1_555
B9 O8 1.360484 1_655
B9 O22 1.376923 1_555
B9 O29 1.410139 1_555
B10 O19 1.361386 1_555
B10 O28 1.381546 1_555
B10 O11 1.407718 1_555
B11 O15 1.371770 1_555
B11 O27 1.381662 1_546
B11 O0 1.405629 1_555
B12 O14 1.362226 1_555
B12 O20 1.364747 1_555
B12 O23 1.419112 1_555
B13 O3 1.361173 1_545
B13 O10 1.369518 1_555
B13 O6 1.416249 1_555
O1 Zn1 1.972784 1_655
O1 Pb0 2.279885 1_554
O2 Zn0 1.957345 1_555
O3 Zn3 1.964548 1_655
O4 Zn3 1.964256 1_555
O4 Pb1 2.258079 1_555
O5 Zn1 1.949108 1_555
O8 Zn1 1.967698 1_555
O13 Zn0 1.991615 1_555
O13 Zn2 2.007071 1_555
O14 Zn0 1.995354 1_455
O15 Zn3 1.986969 1_545
O15 Pb0 2.434476 1_445
O16 Zn2 1.987463 1_545
O17 Zn2 1.993380 1_555
O17 Zn0 1.996106 1_555
O19 Zn2 1.951175 1_555
O24 Pb1 2.406435 1_555
O25 Zn3 1.982500 1_545
O26 Zn1 2.022170 1_556
O26 Pb0 2.316566 1_455
O27 Pb1 2.299175 1_554
