# generated using pymatgen
data_Sm3AlNi8
_symmetry_space_group_name_H-M   'P 1'
_cell_length_a   5.11901299
_cell_length_b   5.11901299
_cell_length_c   16.24570800
_cell_angle_alpha   90.00000000
_cell_angle_beta   90.00000000
_cell_angle_gamma   119.99998695
_symmetry_Int_Tables_number   1
_chemical_formula_structural   Sm3AlNi8
_chemical_formula_sum   'Sm6 Al2 Ni16'
_cell_volume   368.67339226
_cell_formula_units_Z   2
loop_
 _symmetry_equiv_pos_site_id
 _symmetry_equiv_pos_as_xyz
  1  'x, y, z'
loop_
 _atom_site_type_symbol
 _atom_site_label
 _atom_site_symmetry_multiplicity
 _atom_site_fract_x
 _atom_site_fract_y
 _atom_site_fract_z
 _atom_site_occupancy
  Sm  Sm0  1  0.33333300  0.66666700  0.95867300  1
  Sm  Sm1  1  0.66666700  0.33333300  0.04132700  1
  Sm  Sm2  1  0.66666700  0.33333300  0.45867300  1
  Sm  Sm3  1  0.33333300  0.66666700  0.54132700  1
  Sm  Sm4  1  0.33333300  0.66666700  0.75000000  1
  Sm  Sm5  1  0.66666700  0.33333300  0.25000000  1
  Al  Al0  1  0.33333300  0.66666700  0.25000000  1
  Al  Al1  1  0.66666700  0.33333300  0.75000000  1
  Ni  Ni0  1  0.16570200  0.83429800  0.37256800  1
  Ni  Ni1  1  0.16570200  0.33140400  0.37256800  1
  Ni  Ni2  1  0.66859600  0.83429800  0.37256800  1
  Ni  Ni3  1  0.83429800  0.16570200  0.62743200  1
  Ni  Ni4  1  0.83429800  0.66859600  0.62743200  1
  Ni  Ni5  1  0.33140400  0.16570200  0.62743200  1
  Ni  Ni6  1  0.83429800  0.16570200  0.87256800  1
  Ni  Ni7  1  0.83429800  0.66859600  0.87256800  1
  Ni  Ni8  1  0.33140400  0.16570200  0.87256800  1
  Ni  Ni9  1  0.16570200  0.83429800  0.12743200  1
  Ni  Ni10  1  0.16570200  0.33140400  0.12743200  1
  Ni  Ni11  1  0.66859600  0.83429800  0.12743200  1
  Ni  Ni12  1  0.00000000  0.00000000  0.25000000  1
  Ni  Ni13  1  0.00000000  0.00000000  0.75000000  1
  Ni  Ni14  1  0.00000000  0.00000000  0.50000000  1
  Ni  Ni15  1  0.00000000  0.00000000  0.00000000  1
loop_
_geom_bond_atom_site_label_1
_geom_bond_atom_site_label_2
_geom_bond_distance
_geom_bond_site_symmetry_2
Al0 Ni0 2.484739 1_555
Al0 Ni9 2.484739 1_555
Al0 Ni11 2.484742 1_555
Al0 Ni2 2.484742 1_555
Al0 Ni10 2.484742 1_555
Al0 Ni1 2.484742 1_555
Al0 Ni12 2.955460 1_565
Al0 Sm5 2.955461 1_455
Al0 Sm5 2.955461 1_565
Al0 Ni12 2.955465 1_665
Al0 Ni12 2.955465 1_555
Al0 Sm5 2.955469 1_555
Al1 Ni3 2.484739 1_555
Al1 Ni6 2.484739 1_555
Al1 Ni7 2.484742 1_555
Al1 Ni4 2.484742 1_555
Al1 Ni5 2.484742 1_555
Al1 Ni8 2.484742 1_555
Al1 Ni13 2.955460 1_655
Al1 Sm4 2.955461 1_545
Al1 Sm4 2.955461 1_655
Al1 Ni13 2.955465 1_555
Al1 Ni13 2.955465 1_665
Al1 Sm4 2.955469 1_555
Ni0 Ni12 2.474546 1_565
Ni0 Ni14 2.538564 1_565
Ni0 Ni2 2.544692 1_455
Ni0 Ni1 2.544692 1_565
Ni0 Ni2 2.574321 1_555
Ni0 Ni1 2.574321 1_555
Ni0 Sm2 2.916829 1_455
Ni0 Sm2 2.916829 1_565
Ni0 Sm3 3.118566 1_555
Ni0 Sm5 3.242845 1_455
Ni0 Sm5 3.242845 1_565
Ni1 Ni12 2.474546 1_555
Ni1 Ni14 2.538565 1_555
Ni1 Ni2 2.544693 1_445
Ni1 Ni2 2.574321 1_555
Ni1 Sm2 2.916827 1_455
Ni1 Sm2 2.916831 1_555
Ni1 Sm3 3.118569 1_555
Ni1 Sm5 3.242842 1_455
Ni1 Sm5 3.242846 1_555
Ni2 Sm2 2.916827 1_565
Ni2 Sm2 2.916831 1_555
Ni2 Sm3 3.118569 1_555
Ni2 Sm5 3.242842 1_565
Ni2 Sm5 3.242846 1_555
Ni3 Ni5 2.544692 1_655
Ni3 Ni4 2.544692 1_545
Ni3 Ni5 2.574321 1_555
Ni3 Ni4 2.574321 1_555
Ni3 Sm3 2.916829 1_545
Ni3 Sm3 2.916829 1_655
Ni3 Sm2 3.118566 1_555
Ni3 Sm4 3.242845 1_545
Ni3 Sm4 3.242845 1_655
Ni4 Ni5 2.544693 1_665
Ni4 Ni5 2.574321 1_555
Ni4 Sm3 2.916827 1_655
Ni4 Sm3 2.916831 1_555
Ni4 Sm2 3.118569 1_555
Ni4 Sm4 3.242842 1_655
Ni4 Sm4 3.242846 1_555
Ni5 Sm3 2.916827 1_545
Ni5 Sm3 2.916831 1_555
Ni5 Sm2 3.118569 1_555
Ni5 Sm4 3.242842 1_545
Ni5 Sm4 3.242846 1_555
Ni6 Ni7 2.544692 1_545
Ni6 Ni8 2.544692 1_655
Ni6 Ni8 2.574321 1_555
Ni6 Ni7 2.574321 1_555
Ni6 Sm0 2.916829 1_545
Ni6 Sm0 2.916829 1_655
Ni6 Sm1 3.118566 1_556
Ni6 Sm4 3.242845 1_545
Ni6 Sm4 3.242845 1_655
Ni7 Ni8 2.544693 1_665
Ni7 Ni8 2.574321 1_555
Ni7 Sm0 2.916827 1_655
Ni7 Sm0 2.916831 1_555
Ni7 Sm1 3.118569 1_556
Ni7 Sm4 3.242842 1_655
Ni7 Sm4 3.242846 1_555
Ni8 Sm0 2.916827 1_545
Ni8 Sm0 2.916831 1_555
Ni8 Sm1 3.118569 1_556
Ni8 Sm4 3.242842 1_545
Ni8 Sm4 3.242846 1_555
Ni9 Sm1 2.916829 1_455
Ni9 Sm1 2.916829 1_565
Ni9 Sm0 3.118566 1_554
Ni9 Sm5 3.242845 1_455
Ni9 Sm5 3.242845 1_565
Ni10 Ni12 2.474546 1_555
Ni10 Ni15 2.538565 1_555
Ni10 Ni9 2.544692 1_545
Ni10 Ni11 2.544693 1_445
Ni10 Ni9 2.574321 1_555
Ni10 Ni11 2.574321 1_555
Ni10 Sm1 2.916827 1_455
Ni10 Sm1 2.916831 1_555
Ni10 Sm0 3.118569 1_554
Ni10 Sm5 3.242842 1_455
Ni10 Sm5 3.242846 1_555
Ni11 Ni12 2.474546 1_665
Ni11 Ni15 2.538565 1_665
Ni11 Ni9 2.544692 1_655
Ni11 Ni9 2.574321 1_555
Ni11 Sm1 2.916827 1_565
Ni11 Sm1 2.916831 1_555
Ni11 Sm0 3.118569 1_554
Ni11 Sm5 3.242842 1_565
Ni11 Sm5 3.242846 1_555
Ni12 Ni9 2.474546 1_545
Ni12 Ni2 2.474546 1_445
Ni12 Sm5 2.955460 1_455
Ni12 Sm5 2.955465 1_555
Ni12 Sm5 2.955465 1_445
Ni13 Ni6 2.474546 1_455
Ni13 Ni3 2.474546 1_455
Ni13 Ni5 2.474546 1_555
Ni13 Ni8 2.474546 1_555
Ni13 Ni4 2.474546 1_445
Ni13 Ni7 2.474546 1_445
Ni13 Sm4 2.955460 1_545
Ni13 Sm4 2.955465 1_445
Ni13 Sm4 2.955465 1_555
Ni14 Ni3 2.538564 1_455
Ni14 Ni5 2.538565 1_555
Ni14 Ni2 2.538565 1_445
Ni14 Ni4 2.538565 1_445
Ni14 Sm2 3.030760 1_455
Ni14 Sm3 3.030760 1_545
Ni14 Sm3 3.030765 1_445
Ni14 Sm2 3.030765 1_555
Ni14 Sm2 3.030765 1_445
Ni14 Sm3 3.030765 1_555
Ni15 Ni6 2.538564 1_454
Ni15 Ni9 2.538564 1_545
Ni15 Ni8 2.538565 1_554
Ni15 Ni7 2.538565 1_444
Ni15 Sm0 3.030760 1_544
Ni15 Sm1 3.030760 1_455
Ni15 Sm0 3.030765 1_444
Ni15 Sm1 3.030765 1_555
Ni15 Sm0 3.030765 1_554
Ni15 Sm1 3.030765 1_445
