# generated using pymatgen
data_NaLaTa2O7
_symmetry_space_group_name_H-M   'P 1'
_cell_length_a   11.21002991
_cell_length_b   11.21002991
_cell_length_c   11.21002991
_cell_angle_alpha   159.83224138
_cell_angle_beta   159.83224138
_cell_angle_gamma   28.67276198
_symmetry_Int_Tables_number   1
_chemical_formula_structural   NaLaTa2O7
_chemical_formula_sum   'Na1 La1 Ta2 O7'
_cell_volume   167.36399957
_cell_formula_units_Z   1
loop_
 _symmetry_equiv_pos_site_id
 _symmetry_equiv_pos_as_xyz
  1  'x, y, z'
loop_
 _atom_site_type_symbol
 _atom_site_label
 _atom_site_symmetry_multiplicity
 _atom_site_fract_x
 _atom_site_fract_y
 _atom_site_fract_z
 _atom_site_occupancy
  Na  Na0  1  0.25000000  0.75000000  0.50000000  1
  La  La0  1  0.00000000  0.00000000  0.00000000  1
  Ta  Ta0  1  0.60424600  0.60424600  0.00000000  1
  Ta  Ta1  1  0.39575500  0.39575500  0.00000000  1
  O  O0  1  0.68746600  0.68746600  0.00000000  1
  O  O1  1  0.31253400  0.31253400  0.00000000  1
  O  O2  1  0.41500200  0.91500200  0.50000000  1
  O  O3  1  0.91531800  0.41531800  0.50000000  1
  O  O4  1  0.58468200  0.08468200  0.50000000  1
  O  O5  1  0.08499800  0.58499800  0.50000000  1
  O  O6  1  0.50000000  0.50000000  0.00000000  1
loop_
_geom_bond_atom_site_label_1
_geom_bond_atom_site_label_2
_geom_bond_distance
_geom_bond_site_symmetry_2
Na0 O0 2.386956 1_556
Na0 O1 2.386956 1_566
Na0 O0 2.386956 1_455
Na0 O1 2.386956 1_555
La0 O3 2.689984 1_444
La0 O4 2.689984 1_555
La0 O4 2.689984 1_454
La0 O3 2.689984 1_455
La0 O5 2.694682 1_555
La0 O2 2.694682 1_444
La0 O5 2.694682 1_544
La0 O2 2.694682 1_545
La0 O6 2.775763 1_556
La0 O6 2.775763 1_444
La0 O6 2.775763 1_545
La0 O6 2.775763 1_455
O0 Ta0 1.807694 1_555
O1 Ta1 1.807716 1_555
O2 Ta1 2.006794 1_566
O2 Ta1 2.006794 1_555
O3 Ta1 2.008235 1_656
O3 Ta1 2.008235 1_555
O4 Ta0 2.008240 1_556
O4 Ta0 2.008240 1_545
O5 Ta0 2.006799 1_455
O5 Ta0 2.006799 1_556
O6 Ta1 2.264396 1_555
O6 Ta0 2.264418 1_555
