# generated using pymatgen
data_MgAg14(PbO3)6
_symmetry_space_group_name_H-M   'P 1'
_cell_length_a   9.09293020
_cell_length_b   9.01188030
_cell_length_c   8.79395852
_cell_angle_alpha   74.39274953
_cell_angle_beta   107.87646164
_cell_angle_gamma   107.82241557
_symmetry_Int_Tables_number   1
_chemical_formula_structural   MgAg14(PbO3)6
_chemical_formula_sum   'Mg1 Ag14 Pb6 O18'
_cell_volume   640.60474484
_cell_formula_units_Z   1
loop_
 _symmetry_equiv_pos_site_id
 _symmetry_equiv_pos_as_xyz
  1  'x, y, z'
loop_
 _atom_site_type_symbol
 _atom_site_label
 _atom_site_symmetry_multiplicity
 _atom_site_fract_x
 _atom_site_fract_y
 _atom_site_fract_z
 _atom_site_occupancy
  Mg  Mg0  1  0.73624193  0.04693142  0.29042311  1
  Ag  Ag0  1  0.82917327  0.16415928  0.66213049  1
  Ag  Ag1  1  0.15948951  0.31519917  0.84454366  1
  Ag  Ag2  1  0.65645171  0.82751884  0.82635946  1
  Ag  Ag3  1  0.49457529  0.00606634  0.49709316  1
  Ag  Ag4  1  0.08126998  0.91423784  0.90655876  1
  Ag  Ag5  1  0.24079591  0.72294611  0.74535171  1
  Ag  Ag6  1  0.43264767  0.61257079  0.58394462  1
  Ag  Ag7  1  0.55960565  0.42644094  0.43421132  1
  Ag  Ag8  1  0.70022825  0.34591100  0.23596893  1
  Ag  Ag9  1  0.94158642  0.07488682  0.05741171  1
  Ag  Ag10  1  0.00979035  0.48632301  0.50937366  1
  Ag  Ag11  1  0.84545010  0.69643591  0.15259859  1
  Ag  Ag12  1  0.17481178  0.83126495  0.33318857  1
  Ag  Ag13  1  0.48513980  0.50441115  0.98352832  1
  Pb  Pb0  1  0.49998217  0.16214412  0.84460935  1
  Pb  Pb1  1  0.83046985  0.48281079  0.84577725  1
  Pb  Pb2  1  0.16861262  0.16469016  0.49847596  1
  Pb  Pb3  1  0.85563340  0.79564796  0.52563858  1
  Pb  Pb4  1  0.16203972  0.48355470  0.17617015  1
  Pb  Pb5  1  0.47791527  0.81767670  0.14899379  1
  O  O0  1  0.76556978  0.21832467  0.85399894  1
  O  O1  1  0.56077180  0.43431493  0.81156434  1
  O  O2  1  0.90391680  0.11327846  0.47777359  1
  O  O3  1  0.22987686  0.14012916  0.77975828  1
  O  O4  1  0.84595281  0.74832653  0.79692969  1
  O  O5  1  0.46868204  0.89163223  0.88117307  1
  O  O6  1  0.09966734  0.50369270  0.90114763  1
  O  O7  1  0.43433934  0.18489080  0.56672083  1
  O  O8  1  0.81696107  0.52260907  0.57560862  1
  O  O9  1  0.55606281  0.11440390  0.11879239  1
  O  O10  1  0.20341452  0.44071831  0.45174473  1
  O  O11  1  0.90091284  0.49109151  0.11452116  1
  O  O12  1  0.57693737  0.85164430  0.41444732  1
  O  O13  1  0.13084633  0.22387000  0.22954478  1
  O  O14  1  0.76049316  0.87120646  0.20557230  1
  O  O15  1  0.42983236  0.55167062  0.18436178  1
  O  O16  1  0.12792808  0.89842000  0.52331359  1
  O  O17  1  0.21963303  0.75852533  0.14380681  1
loop_
_geom_bond_atom_site_label_1
_geom_bond_atom_site_label_2
_geom_bond_distance
_geom_bond_site_symmetry_2
Mg0 O2 1.956111 1_555
Mg0 O9 1.982381 1_555
Mg0 O14 2.015897 1_545
Mg0 O12 2.182127 1_545
Ag0 O2 2.137232 1_555
Ag0 O0 2.152848 1_555
Ag1 O3 2.132844 1_555
Ag1 O6 2.148493 1_555
Ag2 O4 2.161339 1_555
Ag2 O5 2.177226 1_555
Ag3 O12 2.131218 1_545
Ag3 O7 2.132876 1_555
Ag4 O3 2.287618 1_565
Ag4 O4 2.300911 1_455
Ag4 O17 2.408059 1_556
Ag5 O16 2.338439 1_555
Ag5 O6 2.344911 1_555
Ag5 O5 2.358102 1_555
Ag6 O10 2.366396 1_555
Ag6 O1 2.434808 1_555
Ag6 O12 2.515409 1_555
Ag7 O8 2.307675 1_555
Ag7 O7 2.307818 1_555
Ag7 O15 2.320093 1_555
Ag8 O11 2.272774 1_555
Ag8 O9 2.405473 1_555
Ag9 O13 2.266165 1_655
Ag9 O0 2.386823 1_554
Ag9 O14 2.440993 1_545
Ag10 O8 2.144999 1_455
Ag10 O10 2.151343 1_555
Ag11 O14 2.157538 1_555
Ag11 O11 2.190740 1_555
Ag12 O16 2.117405 1_555
Ag12 O17 2.130046 1_555
Ag13 O1 2.139466 1_555
Ag13 O15 2.152818 1_556
O0 Pb1 2.259885 1_555
O0 Pb0 2.290601 1_555
O1 Pb1 2.292865 1_555
O1 Pb0 2.300268 1_555
O2 Pb2 2.265953 1_655
O2 Pb3 2.694325 1_545
O3 Pb0 2.302056 1_555
O3 Pb2 2.326552 1_555
O4 Pb1 2.282030 1_555
O4 Pb3 2.332335 1_555
O5 Pb5 2.250880 1_556
O5 Pb0 2.310205 1_565
O6 Pb4 2.277857 1_556
O6 Pb1 2.302129 1_455
O7 Pb2 2.265122 1_555
O7 Pb0 2.297827 1_555
O8 Pb1 2.275453 1_555
O8 Pb3 2.314018 1_555
O9 Pb0 2.253899 1_554
O9 Pb5 2.509319 1_545
O10 Pb4 2.277975 1_555
O10 Pb2 2.346222 1_555
O11 Pb1 2.266588 1_554
O11 Pb4 2.285817 1_655
O12 Pb5 2.297643 1_555
O12 Pb3 2.574641 1_555
O13 Pb4 2.204965 1_555
O13 Pb2 2.220421 1_555
O14 Pb5 2.380741 1_555
O14 Pb3 2.639836 1_555
O15 Pb5 2.252831 1_555
O15 Pb4 2.304874 1_555
O16 Pb2 2.273061 1_565
O16 Pb3 2.367644 1_455
O17 Pb5 2.232231 1_555
O17 Pb4 2.326670 1_555
