# generated using pymatgen
data_ZnCdAu2
_symmetry_space_group_name_H-M   'P 1'
_cell_length_a   3.15297684
_cell_length_b   3.15297684
_cell_length_c   6.93966843
_cell_angle_alpha   90.00000000
_cell_angle_beta   90.00000000
_cell_angle_gamma   90.00000000
_symmetry_Int_Tables_number   1
_chemical_formula_structural   ZnCdAu2
_chemical_formula_sum   'Zn1 Cd1 Au2'
_cell_volume   68.98906867
_cell_formula_units_Z   1
loop_
 _symmetry_equiv_pos_site_id
 _symmetry_equiv_pos_as_xyz
  1  'x, y, z'
loop_
 _atom_site_type_symbol
 _atom_site_label
 _atom_site_symmetry_multiplicity
 _atom_site_fract_x
 _atom_site_fract_y
 _atom_site_fract_z
 _atom_site_occupancy
  Zn  Zn0  1  0.50000000  0.50000000  0.50000000  1
  Cd  Cd0  1  0.50000000  0.50000000  -0.00000000  1
  Au  Au0  1  0.00000000  -0.00000000  0.72185987  1
  Au  Au1  1  -0.00000000  0.00000000  0.27814013  1
loop_
_geom_bond_atom_site_label_1
_geom_bond_atom_site_label_2
_geom_bond_distance
_geom_bond_site_symmetry_2
Au0 Zn0 2.709447 1_445
Au0 Zn0 2.709447 1_545
Au0 Zn0 2.709447 1_555
Au0 Zn0 2.709447 1_455
Au0 Cd0 2.948950 1_546
Au0 Cd0 2.948950 1_456
Au0 Cd0 2.948950 1_556
Au0 Cd0 2.948950 1_446
Au1 Zn0 2.709447 1_545
Au1 Zn0 2.709447 1_455
Au1 Zn0 2.709447 1_445
Au1 Zn0 2.709447 1_555
Au1 Cd0 2.948950 1_455
Au1 Cd0 2.948950 1_555
Au1 Cd0 2.948950 1_545
Au1 Cd0 2.948950 1_445
