# generated using pymatgen
data_Rb2UI5
_symmetry_space_group_name_H-M   'P 1'
_cell_length_a   9.40220900
_cell_length_b   9.99161300
_cell_length_c   15.32023200
_cell_angle_alpha   90.00000000
_cell_angle_beta   90.00000000
_cell_angle_gamma   90.00000000
_symmetry_Int_Tables_number   1
_chemical_formula_structural   Rb2UI5
_chemical_formula_sum   'Rb8 U4 I20'
_cell_volume   1439.23213470
_cell_formula_units_Z   4
loop_
 _symmetry_equiv_pos_site_id
 _symmetry_equiv_pos_as_xyz
  1  'x, y, z'
loop_
 _atom_site_type_symbol
 _atom_site_label
 _atom_site_symmetry_multiplicity
 _atom_site_fract_x
 _atom_site_fract_y
 _atom_site_fract_z
 _atom_site_occupancy
  Rb  Rb0  1  0.53716200  0.50165900  0.82510300  1
  Rb  Rb1  1  0.46283800  0.49834100  0.17489700  1
  Rb  Rb2  1  0.03716200  0.49834100  0.67489700  1
  Rb  Rb3  1  0.46283800  0.00165900  0.17489700  1
  Rb  Rb4  1  0.96283800  0.50165900  0.32510300  1
  Rb  Rb5  1  0.53716200  0.99834100  0.82510300  1
  Rb  Rb6  1  0.96283800  0.99834100  0.32510300  1
  Rb  Rb7  1  0.03716200  0.00165900  0.67489700  1
  U  U0  1  0.57368100  0.75000000  0.50143100  1
  U  U1  1  0.42631900  0.25000000  0.49856900  1
  U  U2  1  0.07368100  0.25000000  0.99856900  1
  U  U3  1  0.92631900  0.75000000  0.00143100  1
  I  I0  1  0.83020800  0.75000000  0.80185300  1
  I  I1  1  0.16979200  0.25000000  0.19814700  1
  I  I2  1  0.33020800  0.25000000  0.69814700  1
  I  I3  1  0.66979200  0.75000000  0.30185300  1
  I  I4  1  0.36454000  0.75000000  0.66615000  1
  I  I5  1  0.63546000  0.25000000  0.33385000  1
  I  I6  1  0.86454000  0.25000000  0.83385000  1
  I  I7  1  0.13546000  0.75000000  0.16615000  1
  I  I8  1  0.91627500  0.75000000  0.51190400  1
  I  I9  1  0.08372500  0.25000000  0.48809600  1
  I  I10  1  0.41627500  0.25000000  0.98809600  1
  I  I11  1  0.58372500  0.75000000  0.01190400  1
  I  I12  1  0.65512600  0.04241600  0.58030400  1
  I  I13  1  0.34487400  0.95758400  0.41969600  1
  I  I14  1  0.15512600  0.95758400  0.91969600  1
  I  I15  1  0.34487400  0.54241600  0.41969600  1
  I  I16  1  0.84487400  0.04241600  0.08030400  1
  I  I17  1  0.65512600  0.45758400  0.58030400  1
  I  I18  1  0.84487400  0.45758400  0.08030400  1
  I  I19  1  0.15512600  0.54241600  0.91969600  1
loop_
_geom_bond_atom_site_label_1
_geom_bond_atom_site_label_2
_geom_bond_distance
_geom_bond_site_symmetry_2
I0 U3 3.188322 1_556
I0 Rb5 3.724973 1_555
I0 Rb0 3.724973 1_555
I0 Rb2 3.727177 1_655
I0 Rb7 3.727177 1_665
I1 U2 3.188322 1_554
I1 Rb1 3.724973 1_555
I1 Rb3 3.724973 1_555
I1 Rb4 3.727177 1_455
I1 Rb6 3.727177 1_445
I2 U1 3.188322 1_555
I2 Rb2 3.724973 1_555
I2 Rb7 3.724973 1_555
I2 Rb0 3.727177 1_555
I2 Rb5 3.727177 1_545
I3 U0 3.188322 1_555
I3 Rb4 3.724973 1_555
I3 Rb6 3.724973 1_555
I3 Rb1 3.727177 1_555
I3 Rb3 3.727177 1_565
I4 U0 3.199203 1_555
I4 Rb0 3.836846 1_555
I4 Rb5 3.836846 1_555
I4 Rb2 3.976823 1_555
I4 Rb7 3.976823 1_565
I5 U1 3.199203 1_555
I5 Rb1 3.836846 1_555
I5 Rb3 3.836846 1_555
I5 Rb4 3.976823 1_555
I5 Rb6 3.976823 1_545
I6 U2 3.199203 1_655
I6 Rb7 3.836846 1_655
I6 Rb2 3.836846 1_655
I6 Rb5 3.976823 1_545
I6 Rb0 3.976823 1_555
I7 U3 3.199203 1_455
I7 Rb6 3.836846 1_455
I7 Rb4 3.836846 1_455
I7 Rb1 3.976823 1_555
I7 Rb3 3.976823 1_565
I8 U0 3.225134 1_555
I8 Rb2 3.721551 1_655
I8 Rb7 3.721551 1_665
I8 Rb6 3.812971 1_555
I8 Rb4 3.812971 1_555
I9 U1 3.225134 1_555
I9 Rb4 3.721551 1_455
I9 Rb6 3.721551 1_445
I9 Rb7 3.812971 1_555
I9 Rb2 3.812971 1_555
I10 U2 3.225134 1_555
I10 Rb0 3.721551 1_555
I10 Rb5 3.721551 1_545
I10 Rb1 3.812971 1_556
I10 Rb3 3.812971 1_556
I11 U3 3.225134 1_555
I11 Rb1 3.721551 1_555
I11 Rb3 3.721551 1_565
I11 Rb0 3.812971 1_554
I11 Rb5 3.812971 1_554
I12 U1 3.240053 1_555
I12 U0 3.253134 1_545
I12 Rb7 3.894652 1_655
I12 Rb5 3.935660 1_545
I13 U0 3.240053 1_555
I13 U1 3.253134 1_565
I13 Rb6 3.894652 1_455
I13 Rb3 3.935660 1_565
I14 U3 3.240053 1_456
I14 U2 3.253134 1_565
I14 Rb5 3.894652 1_555
I14 Rb7 3.935660 1_565
I15 U0 3.240053 1_555
I15 U1 3.253134 1_555
I15 Rb4 3.894652 1_455
I15 Rb1 3.935660 1_555
I16 U2 3.240053 1_654
I16 U3 3.253134 1_545
I16 Rb3 3.894652 1_555
I16 Rb6 3.935660 1_545
I17 U1 3.240053 1_555
I17 U0 3.253134 1_555
I17 Rb2 3.894652 1_655
I17 Rb0 3.935660 1_555
I18 U2 3.240053 1_654
I18 U3 3.253134 1_555
I18 Rb1 3.894652 1_555
I18 Rb4 3.935660 1_555
I19 U3 3.240053 1_456
I19 U2 3.253134 1_555
I19 Rb0 3.894652 1_555
I19 Rb2 3.935660 1_555
