# generated using pymatgen
data_PdRhN5Cl5O
_symmetry_space_group_name_H-M   'P 1'
_cell_length_a   8.02989873
_cell_length_b   11.70393114
_cell_length_c   14.53901625
_cell_angle_alpha   90.00000000
_cell_angle_beta   92.09718322
_cell_angle_gamma   90.00000000
_symmetry_Int_Tables_number   1
_chemical_formula_structural   PdRhN5Cl5O
_chemical_formula_sum   'Pd4 Rh4 N20 Cl20 O4'
_cell_volume   1365.48161740
_cell_formula_units_Z   4
loop_
 _symmetry_equiv_pos_site_id
 _symmetry_equiv_pos_as_xyz
  1  'x, y, z'
loop_
 _atom_site_type_symbol
 _atom_site_label
 _atom_site_symmetry_multiplicity
 _atom_site_fract_x
 _atom_site_fract_y
 _atom_site_fract_z
 _atom_site_occupancy
  Pd  Pd0  1  -0.00000000  0.50000000  0.50000000  1
  Pd  Pd1  1  -0.00000000  -0.00000000  -0.00000000  1
  Pd  Pd2  1  -0.00000000  -0.00000000  0.50000000  1
  Pd  Pd3  1  -0.00000000  0.50000000  -0.00000000  1
  Rh  Rh0  1  0.43389486  0.78357965  0.28975602  1
  Rh  Rh1  1  0.56610514  0.28357965  0.21024398  1
  Rh  Rh2  1  0.56610514  0.21642035  0.71024398  1
  Rh  Rh3  1  0.43389486  0.71642035  0.78975602  1
  N  N0  1  0.40923473  0.74381553  0.44228881  1
  N  N1  1  0.59076527  0.24381553  0.05771119  1
  N  N2  1  0.59076527  0.25618447  0.55771119  1
  N  N3  1  0.40923473  0.75618447  0.94228881  1
  N  N4  1  0.47504807  0.73409779  0.16723145  1
  N  N5  1  0.52495193  0.23409779  0.33276855  1
  N  N6  1  0.52495193  0.26590221  0.83276855  1
  N  N7  1  0.47504807  0.76590221  0.66723145  1
  N  N8  1  0.66739396  0.76367540  0.27189672  1
  N  N9  1  0.33260604  0.26367540  0.22810328  1
  N  N10  1  0.33260604  0.23632460  0.72810328  1
  N  N11  1  0.66739396  0.73632460  0.77189672  1
  N  N12  1  0.16389511  0.72572219  0.32267906  1
  N  N13  1  0.83610389  0.22572219  0.17732094  1
  N  N14  1  0.83610389  0.27427781  0.67732094  1
  N  N15  1  0.16389511  0.77427781  0.82267906  1
  N  N16  1  0.41468622  0.93702329  0.27276937  1
  N  N17  1  0.58531378  0.43702329  0.22723063  1
  N  N18  1  0.58531378  0.06297671  0.72723063  1
  N  N19  1  0.41468622  0.56297671  0.77276937  1
  Cl  Cl0  1  0.94668891  0.41771121  0.36501381  1
  Cl  Cl1  1  0.05331109  0.91771121  0.13498619  1
  Cl  Cl2  1  0.05331109  0.58228879  0.63498619  1
  Cl  Cl3  1  0.94668891  0.08228879  0.86501381  1
  Cl  Cl4  1  0.77625305  0.28148345  0.57665208  1
  Cl  Cl5  1  0.22374695  0.78148345  0.92334792  1
  Cl  Cl6  1  0.22374695  0.71851655  0.42334792  1
  Cl  Cl7  1  0.77625305  0.21851655  0.07665208  1
  Cl  Cl8  1  0.27775461  0.02604755  0.51625261  1
  Cl  Cl9  1  0.72224539  0.52604755  0.98374739  1
  Cl  Cl10  1  0.72224539  0.97395245  0.48374739  1
  Cl  Cl11  1  0.27775461  0.47395245  0.01625261  1
  Cl  Cl12  1  0.99555238  0.94738163  0.65044231  1
  Cl  Cl13  1  0.00444762  0.44738163  0.84955769  1
  Cl  Cl14  1  0.00444762  0.05261837  0.34955769  1
  Cl  Cl15  1  0.99555238  0.55261837  0.15044231  1
  Cl  Cl16  1  0.47104344  0.50481156  0.30297507  1
  Cl  Cl17  1  0.52895656  0.00481156  0.19702493  1
  Cl  Cl18  1  0.52895656  0.49518844  0.69702493  1
  Cl  Cl19  1  0.47104344  0.99518844  0.80297507  1
  O  O0  1  0.64276367  0.72304654  0.18450386  1
  O  O1  1  0.35723633  0.22304654  0.31549614  1
  O  O2  1  0.35723633  0.27695346  0.81549614  1
  O  O3  1  0.64276367  0.77695346  0.68450386  1
loop_
_geom_bond_atom_site_label_1
_geom_bond_atom_site_label_2
_geom_bond_distance
_geom_bond_site_symmetry_2
N0 Rh0 2.281674 1_555
N1 Rh1 2.281674 1_555
N2 Rh2 2.281674 1_555
N3 Rh3 2.281674 1_555
N4 O0 1.367021 1_555
N4 Rh0 1.913379 1_555
N5 O1 1.367021 1_555
N5 Rh1 1.913379 1_555
N6 O2 1.367021 1_555
N6 Rh2 1.913379 1_555
N7 O3 1.367021 1_555
N7 Rh3 1.913379 1_555
N8 O0 1.364288 1_555
N8 Rh0 1.916468 1_555
N9 O1 1.364288 1_555
N9 Rh1 1.916468 1_555
N10 O2 1.364288 1_555
N10 Rh2 1.916468 1_555
N11 O3 1.364288 1_555
N11 Rh3 1.916468 1_555
N12 Rh0 2.337553 1_555
N13 Rh1 2.337546 1_555
N14 Rh2 2.337546 1_555
N15 Rh3 2.337553 1_555
N16 Rh0 1.818579 1_555
N17 Rh1 1.818579 1_555
N18 Rh2 1.818579 1_555
N19 Rh3 1.818579 1_555
Cl0 Pd0 2.213820 1_655
Cl1 Pd1 2.213820 1_565
Cl2 Pd0 2.213820 1_555
Cl3 Pd1 2.213820 1_656
Cl4 N14 1.526042 1_555
Cl4 N2 1.533605 1_555
Cl5 N15 1.526044 1_555
Cl5 N3 1.533605 1_555
Cl6 N12 1.526044 1_555
Cl6 N0 1.533605 1_555
Cl7 N13 1.526042 1_555
Cl7 N1 1.533605 1_555
Cl8 Pd2 2.254911 1_555
Cl9 Pd3 2.254911 1_656
Cl10 Pd2 2.254911 1_665
Cl11 Pd3 2.254911 1_555
Cl12 Pd2 2.273865 1_665
Cl13 Pd3 2.273865 1_556
Cl14 Pd2 2.273865 1_555
Cl15 Pd3 2.273865 1_655
Cl16 N17 1.660760 1_555
Cl17 N16 1.660760 1_545
Cl18 N19 1.660760 1_555
Cl19 N18 1.660760 1_565
