# generated using pymatgen
data_K2NaNb(OF2)2
_symmetry_space_group_name_H-M   'P 1'
_cell_length_a   6.08342800
_cell_length_b   6.07810100
_cell_length_c   8.63949536
_cell_angle_alpha   89.94245549
_cell_angle_beta   90.00000000
_cell_angle_gamma   90.00000000
_symmetry_Int_Tables_number   1
_chemical_formula_structural   K2NaNb(OF2)2
_chemical_formula_sum   'K4 Na2 Nb2 O4 F8'
_cell_volume   319.45113933
_cell_formula_units_Z   2
loop_
 _symmetry_equiv_pos_site_id
 _symmetry_equiv_pos_as_xyz
  1  'x, y, z'
loop_
 _atom_site_type_symbol
 _atom_site_label
 _atom_site_symmetry_multiplicity
 _atom_site_fract_x
 _atom_site_fract_y
 _atom_site_fract_z
 _atom_site_occupancy
  K  K0  1  0.49739900  0.24952800  0.50278900  1
  K  K1  1  0.99739900  0.75047200  0.49721100  1
  K  K2  1  0.00126100  0.74547600  0.00386600  1
  K  K3  1  0.50126100  0.25452400  0.99613400  1
  Na  Na0  1  0.50484000  0.75036400  0.74865600  1
  Na  Na1  1  0.00484000  0.24963600  0.25134400  1
  Nb  Nb0  1  0.00363300  0.25038600  0.75129100  1
  Nb  Nb1  1  0.50363300  0.74961400  0.24870900  1
  O  O0  1  0.22349600  0.02782700  0.74807100  1
  O  O1  1  0.72349600  0.97217300  0.25192900  1
  O  O2  1  0.27801800  0.53374500  0.25209000  1
  O  O3  1  0.77801800  0.46625500  0.74791000  1
  F  F0  1  0.73757200  0.51354200  0.25346500  1
  F  F1  1  0.00651100  0.24799200  0.98614600  1
  F  F2  1  0.00169500  0.25174500  0.51502400  1
  F  F3  1  0.76448400  0.01650900  0.74802600  1
  F  F4  1  0.50169500  0.74825500  0.48497600  1
  F  F5  1  0.50651100  0.75200800  0.01385400  1
  F  F6  1  0.23757200  0.48645800  0.74653500  1
  F  F7  1  0.26448400  0.98349100  0.25197400  1
loop_
_geom_bond_atom_site_label_1
_geom_bond_atom_site_label_2
_geom_bond_distance
_geom_bond_site_symmetry_2
K0 O0 3.012834 1_555
K0 O3 3.023223 1_555
K0 O1 3.072179 1_545
K0 O2 3.073930 1_555
K1 O1 3.012834 1_555
K1 O2 3.023223 1_655
K1 O0 3.072179 1_665
K1 O3 3.073930 1_555
K2 O2 3.014009 1_555
K2 O1 3.058243 1_455
K2 O3 3.101963 1_454
K2 O0 3.106314 1_564
K3 O3 3.014009 1_555
K3 O0 3.058243 1_555
K3 O2 3.101963 1_556
K3 O1 3.106314 1_546
Na0 O3 2.396628 1_555
Na0 O0 2.402805 1_565
Na1 O2 2.396628 1_555
Na1 O1 2.402805 1_445
Nb0 O3 1.898975 1_455
Nb0 O0 1.902553 1_555
Nb1 O2 1.898975 1_555
Nb1 O1 1.902553 1_555
F0 Nb1 2.021331 1_555
F0 Na1 2.284060 1_655
F0 K1 3.002154 1_555
F0 K2 3.033899 1_655
F0 K0 3.056588 1_555
F0 K3 3.081375 1_554
F1 Nb0 2.029142 1_555
F1 Na1 2.291231 1_556
F1 K3 3.011276 1_555
F1 K2 3.027953 1_556
F1 K2 3.058190 1_546
F1 K3 3.075120 1_455
F2 Nb0 2.041270 1_555
F2 Na1 2.278191 1_555
F2 K0 3.017462 1_555
F2 K1 3.035175 1_455
F2 K1 3.050938 1_445
F2 K0 3.069699 1_455
F3 Nb0 2.034255 1_655
F3 Na0 2.260912 1_545
F3 K0 3.021400 1_555
F3 K3 3.042692 1_555
F3 K1 3.053672 1_545
F3 K2 3.109156 1_646
F4 Nb1 2.041270 1_555
F4 Na0 2.278191 1_555
F4 K1 3.017462 1_555
F4 K0 3.035175 1_555
F4 K0 3.050938 1_565
F4 K1 3.069699 1_455
F5 Nb1 2.029142 1_555
F5 Na0 2.291231 1_554
F5 K2 3.011276 1_655
F5 K3 3.027953 1_554
F5 K3 3.058190 1_564
F5 K2 3.075120 1_555
F6 Nb0 2.021331 1_555
F6 Na0 2.284060 1_555
F6 K0 3.002154 1_555
F6 K3 3.033899 1_555
F6 K1 3.056588 1_455
F6 K2 3.081375 1_556
F7 Nb1 2.034255 1_555
F7 Na1 2.260912 1_565
F7 K1 3.021400 1_455
F7 K2 3.042692 1_555
F7 K0 3.053672 1_565
F7 K3 3.109156 1_564
