# generated using pymatgen
data_MgTi2
_symmetry_space_group_name_H-M   'P 1'
_cell_length_a   5.48396422
_cell_length_b   5.48396422
_cell_length_c   4.66721700
_cell_angle_alpha   90.00000000
_cell_angle_beta   90.00000000
_cell_angle_gamma   127.40318296
_symmetry_Int_Tables_number   1
_chemical_formula_structural   MgTi2
_chemical_formula_sum   'Mg2 Ti4'
_cell_volume   111.50029095
_cell_formula_units_Z   2
loop_
 _symmetry_equiv_pos_site_id
 _symmetry_equiv_pos_as_xyz
  1  'x, y, z'
loop_
 _atom_site_type_symbol
 _atom_site_label
 _atom_site_symmetry_multiplicity
 _atom_site_fract_x
 _atom_site_fract_y
 _atom_site_fract_z
 _atom_site_occupancy
  Mg  Mg0  1  0.19775100  0.19775100  0.75000000  1
  Mg  Mg1  1  0.80224900  0.80224900  0.25000000  1
  Ti  Ti0  1  0.86490900  0.51296900  0.75000000  1
  Ti  Ti1  1  0.51296900  0.86490900  0.75000000  1
  Ti  Ti2  1  0.48703100  0.13509100  0.25000000  1
  Ti  Ti3  1  0.13509100  0.48703100  0.25000000  1
loop_
_geom_bond_atom_site_label_1
_geom_bond_atom_site_label_2
_geom_bond_distance
_geom_bond_site_symmetry_2
Mg0 Ti0 2.948013 1_555
Mg0 Ti1 2.948013 1_555
Mg0 Ti2 2.956809 1_556
Mg0 Ti2 2.956809 1_555
Mg0 Ti3 2.956809 1_555
Mg0 Ti3 2.956809 1_556
Mg0 Ti0 3.017769 1_445
Mg0 Ti1 3.017769 1_445
Mg0 Mg1 3.023125 1_446
Mg0 Mg1 3.023125 1_445
Mg0 Ti1 3.186389 1_545
Mg0 Ti0 3.186389 1_455
Mg1 Ti3 2.948013 1_555
Mg1 Ti2 2.948013 1_555
Mg1 Ti1 2.956809 1_555
Mg1 Ti0 2.956809 1_554
Mg1 Ti0 2.956809 1_555
Mg1 Ti1 2.956809 1_554
Mg1 Ti2 3.017769 1_665
Mg1 Ti3 3.017769 1_665
Mg1 Ti3 3.186389 1_655
Mg1 Ti2 3.186389 1_565
Ti0 Ti3 2.813777 1_655
Ti0 Ti3 2.813777 1_656
Ti0 Ti1 2.832429 1_545
Ti0 Ti1 2.832429 1_655
Ti0 Ti2 2.969418 1_556
Ti0 Ti2 2.969418 1_555
Ti0 Ti1 3.460532 1_555
Ti1 Ti2 2.813777 1_565
Ti1 Ti2 2.813777 1_566
Ti1 Ti3 2.969418 1_555
Ti1 Ti3 2.969418 1_556
Ti2 Ti3 2.832429 1_545
Ti2 Ti3 2.832429 1_655
Ti2 Ti3 3.460532 1_555
