# generated using pymatgen
data_U3(Al3Fe)4
_symmetry_space_group_name_H-M   'P 1'
_cell_length_a   8.72317981
_cell_length_b   8.72318696
_cell_length_c   9.13928700
_cell_angle_alpha   90.00002415
_cell_angle_beta   90.00007513
_cell_angle_gamma   120.00010630
_symmetry_Int_Tables_number   1
_chemical_formula_structural   U3(Al3Fe)4
_chemical_formula_sum   'U6 Al24 Fe8'
_cell_volume   602.27174267
_cell_formula_units_Z   2
loop_
 _symmetry_equiv_pos_site_id
 _symmetry_equiv_pos_as_xyz
  1  'x, y, z'
loop_
 _atom_site_type_symbol
 _atom_site_label
 _atom_site_symmetry_multiplicity
 _atom_site_fract_x
 _atom_site_fract_y
 _atom_site_fract_z
 _atom_site_occupancy
  U  U0  1  0.79865781  0.20133341  0.75000028  1
  U  U1  1  0.20135085  0.79865466  0.24999995  1
  U  U2  1  0.40267518  0.20134583  0.74999973  1
  U  U3  1  0.59730593  0.79864631  0.25000062  1
  U  U4  1  0.79867008  0.59733633  0.75000166  1
  U  U5  1  0.20134251  0.40268371  0.24999834  1
  Al  Al0  1  0.66666660  0.33331728  0.99517244  1
  Al  Al1  1  0.33333322  0.66668215  0.00483763  1
  Al  Al2  1  0.33333094  0.66668062  0.49516293  1
  Al  Al3  1  0.66665698  0.33331264  0.50482510  1
  Al  Al4  1  0.84192161  0.15807561  0.42066102  1
  Al  Al5  1  0.15808165  0.84191903  0.57931591  1
  Al  Al6  1  0.31615919  0.15807406  0.42066052  1
  Al  Al7  1  0.15808358  0.84191994  0.92068844  1
  Al  Al8  1  0.68383422  0.84192310  0.57931656  1
  Al  Al9  1  0.84191970  0.15807453  0.07933506  1
  Al  Al10  1  0.84192439  0.68384700  0.42065853  1
  Al  Al11  1  0.68383617  0.84192343  0.92068490  1
  Al  Al12  1  0.15808099  0.31616483  0.57932086  1
  Al  Al13  1  0.31615687  0.15807360  0.07933866  1
  Al  Al14  1  0.15808363  0.31616741  0.92067946  1
  Al  Al15  1  0.84192180  0.68384465  0.07934121  1
  Al  Al16  1  0.43859245  0.56141159  0.74999926  1
  Al  Al17  1  0.56140803  0.43859026  0.25000062  1
  Al  Al18  1  0.12281743  0.56140874  0.75000001  1
  Al  Al19  1  0.87718506  0.43859175  0.24999982  1
  Al  Al20  1  0.43859164  0.87718508  0.75000034  1
  Al  Al21  1  0.56140767  0.12281329  0.24999948  1
  Al  Al22  1  0.00000586  0.00001013  0.75000200  1
  Al  Al23  1  0.99999470  0.99998935  0.24999835  1
  Fe  Fe0  1  0.49999794  0.50000235  0.00000988  1
  Fe  Fe1  1  0.00000519  0.50000318  0.00001000  1
  Fe  Fe2  1  0.49999847  0.50000224  0.49999028  1
  Fe  Fe3  1  0.49999816  -0.00000518  0.00001026  1
  Fe  Fe4  1  0.00000466  0.50000312  0.49999016  1
  Fe  Fe5  1  0.49999838  -0.00000472  0.49998960  1
  Fe  Fe6  1  0.00000009  -0.00000065  -0.00000676  1
  Fe  Fe7  1  0.00000039  -0.00000064  0.50000693  1
loop_
_geom_bond_atom_site_label_1
_geom_bond_atom_site_label_2
_geom_bond_distance
_geom_bond_site_symmetry_2
U0 U2 3.454282 1_555
U0 U4 3.454354 1_555
U1 U3 3.454024 1_555
U1 U5 3.454092 1_555
U2 U4 3.454311 1_555
U3 U5 3.454052 1_555
Al0 Fe3 2.518471 1_556
Al0 Fe1 2.518590 1_656
Al0 Fe0 2.518710 1_556
Al0 Al9 2.757282 1_556
Al0 Al13 2.757389 1_556
Al0 Al15 2.757523 1_556
Al0 Al21 2.820081 1_556
Al0 Al19 2.820141 1_556
Al0 Al17 2.820207 1_556
Al0 U0 2.999595 1_555
Al0 U2 2.999675 1_555
Al0 U4 2.999806 1_555
Al1 Fe3 2.518395 1_565
Al1 Fe1 2.518509 1_555
Al1 Fe0 2.518639 1_555
Al1 Al7 2.757187 1_554
Al1 Al11 2.757305 1_554
Al1 Al14 2.757404 1_554
Al1 Al20 2.820154 1_554
Al1 Al18 2.820207 1_554
Al1 Al16 2.820277 1_554
Al1 U1 2.999426 1_555
Al1 U3 2.999515 1_555
Al1 U5 2.999634 1_555
Al2 Fe5 2.518410 1_565
Al2 Fe4 2.518496 1_555
Al2 Fe2 2.518649 1_555
Al2 Al5 2.757199 1_555
Al2 Al8 2.757307 1_555
Al2 Al20 2.820158 1_555
Al2 U1 2.999426 1_555
Al2 U3 2.999527 1_555
Al2 U5 2.999649 1_555
Al3 Fe5 2.518432 1_555
Al3 Fe4 2.518659 1_655
Al3 Fe2 2.518667 1_555
Al3 Al6 2.757295 1_555
Al3 Al4 2.757329 1_555
Al3 U0 2.999639 1_555
Al3 U2 2.999645 1_555
Al3 U4 2.999865 1_555
Al4 Fe7 2.496055 1_655
Al4 Fe5 2.685226 1_555
Al4 Fe4 2.685259 1_655
Al4 Al8 2.794070 1_545
Al4 U0 3.080079 1_555
Al4 Al9 3.119476 1_555
Al4 U5 3.182107 1_655
Al4 U3 3.182153 1_545
Al5 Fe7 2.496004 1_565
Al5 Fe4 2.685166 1_555
Al5 Fe5 2.685174 1_565
Al5 Al6 2.794085 1_565
Al5 U1 3.079890 1_555
Al5 Al7 3.119902 1_555
Al5 U4 3.182118 1_455
Al5 U2 3.182209 1_565
Al6 Fe7 2.496080 1_555
Al6 Fe5 2.685192 1_555
Al6 Fe2 2.685262 1_555
Al6 U2 3.080068 1_555
Al6 U1 3.182093 1_545
Al6 U5 3.182140 1_555
Al7 Fe6 2.496003 1_566
Al7 Fe3 2.685145 1_566
Al7 Fe1 2.685163 1_556
Al7 U1 3.079848 1_556
Al7 U4 3.182130 1_455
Al7 U2 3.182227 1_565
Al8 Fe7 2.496036 1_665
Al8 Fe5 2.685115 1_565
Al8 Fe2 2.685201 1_555
Al8 U3 3.079880 1_555
Al8 U0 3.182107 1_565
Al8 U4 3.182187 1_555
Al9 Fe6 2.496048 1_655
Al9 Fe3 2.685202 1_555
Al9 Fe1 2.685258 1_655
Al9 U0 3.080037 1_554
Al9 U5 3.182117 1_655
Al9 U3 3.182171 1_545
Al10 Fe7 2.496039 1_665
Al10 Fe4 2.685244 1_655
Al10 Fe2 2.685253 1_555
Al10 Al3 2.757570 1_555
Al10 Al17 2.786101 1_555
Al10 Al19 2.786106 1_555
Al10 Al5 2.794104 1_655
Al10 Al8 2.794172 1_555
Al10 Al23 2.852484 1_555
Al10 U4 3.080096 1_555
Al10 Al15 3.119397 1_555
Al10 U3 3.182085 1_555
Al10 U1 3.182137 1_655
Al11 Fe6 2.496014 1_666
Al11 Fe3 2.685122 1_566
Al11 Fe0 2.685202 1_556
Al11 Al20 2.786163 1_555
Al11 Al16 2.786187 1_555
Al11 Al9 2.794032 1_566
Al11 Al15 2.794150 1_556
Al11 Al22 2.852770 1_665
Al11 U3 3.079883 1_556
Al11 Al8 3.119863 1_555
Al11 U0 3.182115 1_565
Al11 U4 3.182170 1_555
Al12 Fe7 2.496042 1_555
Al12 Fe4 2.685172 1_555
Al12 Fe2 2.685188 1_555
Al12 Al2 2.757413 1_555
Al12 Al18 2.786141 1_555
Al12 Al16 2.786156 1_555
Al12 Al4 2.794129 1_455
Al12 Al6 2.794200 1_555
Al12 Al22 2.852667 1_555
Al12 U5 3.079925 1_555
Al12 Al14 3.119774 1_555
Al12 U2 3.182115 1_555
Al12 U0 3.182170 1_455
Al13 Fe6 2.496060 1_555
Al13 Fe3 2.685207 1_555
Al13 Fe0 2.685266 1_555
Al13 Al21 2.786080 1_555
Al13 Al17 2.786108 1_555
Al13 Al7 2.794049 1_544
Al13 Al14 2.794181 1_554
Al13 Al23 2.852606 1_445
Al13 U2 3.080071 1_554
Al13 Al6 3.119438 1_555
Al13 U1 3.182099 1_545
Al13 U5 3.182120 1_555
Al14 Fe6 2.496062 1_556
Al14 Fe0 2.685162 1_556
Al14 Fe1 2.685169 1_556
Al14 Al18 2.786136 1_555
Al14 Al16 2.786151 1_555
Al14 Al9 2.794143 1_456
Al14 Al22 2.852662 1_555
Al14 U5 3.079887 1_556
Al14 U2 3.182117 1_555
Al14 U0 3.182180 1_455
Al15 Fe6 2.496056 1_665
Al15 Fe0 2.685234 1_555
Al15 Fe1 2.685248 1_655
Al15 Al17 2.786096 1_555
Al15 Al19 2.786100 1_555
Al15 Al7 2.794115 1_654
Al15 Al23 2.852481 1_555
Al15 U4 3.080059 1_554
Al15 U3 3.182088 1_555
Al15 U1 3.182149 1_655
Al16 Fe2 2.466094 1_555
Al16 Fe0 2.466105 1_556
Al16 Al18 2.754550 1_555
Al16 Al20 2.754555 1_555
Al16 Al8 2.786169 1_555
Al16 Al2 2.820263 1_555
Al16 U2 2.996574 1_555
Al16 U4 2.996647 1_555
Al17 Fe2 2.465947 1_555
Al17 Fe0 2.465958 1_555
Al17 Al19 2.754573 1_555
Al17 Al21 2.754580 1_555
Al17 Al6 2.786093 1_555
Al17 Al3 2.820157 1_555
Al17 U3 2.996560 1_555
Al17 U5 2.996608 1_555
Al18 Fe4 2.466091 1_555
Al18 Fe1 2.466094 1_556
Al18 Al20 2.754561 1_555
Al18 Al5 2.786185 1_555
Al18 Al7 2.786207 1_555
Al18 Al2 2.820197 1_555
Al18 U4 2.996615 1_455
Al18 U0 2.996657 1_455
Al19 Fe4 2.465945 1_655
Al19 Fe1 2.465945 1_655
Al19 Al21 2.754584 1_555
Al19 Al4 2.786112 1_555
Al19 Al9 2.786131 1_555
Al19 Al3 2.820170 1_555
Al19 U5 2.996604 1_655
Al19 U1 2.996618 1_655
Al20 Fe3 2.466084 1_566
Al20 Fe5 2.466094 1_565
Al20 Al8 2.786149 1_555
Al20 Al5 2.786175 1_555
Al20 Al7 2.786186 1_555
Al20 U0 2.996570 1_565
Al20 U2 2.996677 1_565
Al21 Fe3 2.465933 1_555
Al21 Fe5 2.465942 1_555
Al21 Al6 2.786070 1_555
Al21 Al4 2.786097 1_555
Al21 Al9 2.786105 1_555
Al21 Al3 2.820047 1_555
Al21 U1 2.996560 1_545
Al21 U3 2.996640 1_545
Al22 Fe6 2.284742 1_556
Al22 Fe7 2.284777 1_555
Al22 Al5 2.852770 1_545
Al22 Al7 2.852777 1_545
Al22 Al8 2.852790 1_445
Al22 U2 3.041960 1_555
Al22 U0 3.041982 1_455
Al22 U4 3.041997 1_445
Al23 Fe6 2.284868 1_665
Al23 Fe7 2.284900 1_665
Al23 Al4 2.852606 1_565
Al23 Al9 2.852613 1_565
Al23 Al6 2.852629 1_665
Al23 U3 3.042107 1_555
Al23 U1 3.042129 1_655
Al23 U5 3.042152 1_665
Fe0 U3 3.242822 1_555
Fe0 U5 3.242864 1_555
Fe0 U2 3.243002 1_554
Fe0 U4 3.243070 1_554
Fe1 U1 3.242861 1_555
Fe1 U5 3.242868 1_555
Fe1 U4 3.243048 1_454
Fe1 U0 3.243075 1_454
Fe2 U3 3.242819 1_555
Fe2 U5 3.242884 1_555
Fe2 U2 3.242999 1_555
Fe2 U4 3.243082 1_555
Fe3 U1 3.242838 1_545
Fe3 U3 3.242894 1_545
Fe3 U0 3.243024 1_554
Fe3 U2 3.243109 1_554
Fe4 U1 3.242868 1_555
Fe4 U5 3.242896 1_555
Fe4 U4 3.243068 1_455
Fe4 U0 3.243082 1_455
Fe5 U1 3.242833 1_545
Fe5 U3 3.242888 1_545
Fe5 U0 3.243021 1_555
Fe5 U2 3.243106 1_555
