# generated using pymatgen
data_Nb2B2Os
_symmetry_space_group_name_H-M   'P 1'
_cell_length_a   5.92948500
_cell_length_b   5.92948500
_cell_length_c   6.89760400
_cell_angle_alpha   90.00000000
_cell_angle_beta   90.00000000
_cell_angle_gamma   90.00000000
_symmetry_Int_Tables_number   1
_chemical_formula_structural   Nb2B2Os
_chemical_formula_sum   'Nb8 B8 Os4'
_cell_volume   242.51142685
_cell_formula_units_Z   4
loop_
 _symmetry_equiv_pos_site_id
 _symmetry_equiv_pos_as_xyz
  1  'x, y, z'
loop_
 _atom_site_type_symbol
 _atom_site_label
 _atom_site_symmetry_multiplicity
 _atom_site_fract_x
 _atom_site_fract_y
 _atom_site_fract_z
 _atom_site_occupancy
  Nb  Nb0  1  0.66425600  0.81436900  0.50000000  1
  Nb  Nb1  1  0.33574400  0.18563100  0.50000000  1
  Nb  Nb2  1  0.83574400  0.31436900  0.00000000  1
  Nb  Nb3  1  0.16425600  0.68563100  0.00000000  1
  Nb  Nb4  1  0.81436900  0.33574400  0.50000000  1
  Nb  Nb5  1  0.18563100  0.66425600  0.50000000  1
  Nb  Nb6  1  0.31436900  0.16425600  0.00000000  1
  Nb  Nb7  1  0.68563100  0.83574400  0.00000000  1
  B  B0  1  0.38687800  0.88687800  0.25000000  1
  B  B1  1  0.61312200  0.11312200  0.25000000  1
  B  B2  1  0.11312200  0.38687800  0.75000000  1
  B  B3  1  0.88687800  0.61312200  0.75000000  1
  B  B4  1  0.88687800  0.61312200  0.25000000  1
  B  B5  1  0.11312200  0.38687800  0.25000000  1
  B  B6  1  0.38687800  0.88687800  0.75000000  1
  B  B7  1  0.61312200  0.11312200  0.75000000  1
  Os  Os0  1  0.50000000  0.50000000  0.22103600  1
  Os  Os1  1  0.00000000  0.00000000  0.72103600  1
  Os  Os2  1  0.50000000  0.50000000  0.77896400  1
  Os  Os3  1  0.00000000  0.00000000  0.27896400  1
loop_
_geom_bond_atom_site_label_1
_geom_bond_atom_site_label_2
_geom_bond_distance
_geom_bond_site_symmetry_2
Nb0 Os1 2.738473 1_665
Nb0 Os3 2.738473 1_665
Nb0 Os2 2.850567 1_555
Nb0 Os0 2.850567 1_555
Nb1 Os1 2.738473 1_555
Nb1 Os3 2.738473 1_555
Nb1 Os0 2.850567 1_555
Nb1 Os2 2.850567 1_555
Nb2 Os2 2.738473 1_554
Nb2 Os0 2.738473 1_555
Nb2 Os1 2.850567 1_654
Nb2 Os3 2.850567 1_655
Nb3 Os0 2.738473 1_555
Nb3 Os2 2.738473 1_554
Nb3 Os1 2.850567 1_564
Nb3 Os3 2.850567 1_565
Nb4 Os3 2.738473 1_655
Nb4 Os1 2.738473 1_655
Nb4 Os0 2.850567 1_555
Nb4 Os2 2.850567 1_555
Nb5 Os3 2.738473 1_565
Nb5 Os1 2.738473 1_565
Nb5 Os0 2.850567 1_555
Nb5 Os2 2.850567 1_555
Nb6 Os2 2.738473 1_554
Nb6 Os0 2.738473 1_555
Nb6 Os1 2.850567 1_554
Nb6 Os3 2.850567 1_555
Nb7 Os2 2.738473 1_554
Nb7 Os0 2.738473 1_555
Nb7 Os1 2.850567 1_664
Nb7 Os3 2.850567 1_665
B0 B1 1.897182 1_565
B0 Os3 2.398375 1_565
B0 Os0 2.398375 1_555
B0 Nb6 2.421461 1_565
B0 Nb0 2.421461 1_555
B0 Nb3 2.477901 1_555
B0 Nb5 2.477901 1_555
B0 Nb1 2.490688 1_565
B0 Nb7 2.490688 1_555
B1 Os0 2.398375 1_555
B1 Os3 2.398375 1_655
B1 Nb1 2.421461 1_555
B1 Nb7 2.421461 1_545
B1 Nb4 2.477901 1_555
B1 Nb2 2.477901 1_555
B1 Nb6 2.490688 1_555
B1 Nb0 2.490688 1_545
B2 B3 1.897182 1_455
B2 Os1 2.398375 1_555
B2 Os2 2.398375 1_555
B2 Nb5 2.421461 1_555
B2 Nb2 2.421461 1_456
B2 Nb1 2.477901 1_555
B2 Nb6 2.477901 1_556
B2 Nb3 2.490688 1_556
B2 Nb4 2.490688 1_455
B3 Os2 2.398375 1_555
B3 Os1 2.398375 1_665
B3 Nb3 2.421461 1_656
B3 Nb4 2.421461 1_555
B3 Nb7 2.477901 1_556
B3 Nb0 2.477901 1_555
B3 Nb5 2.490688 1_655
B3 Nb2 2.490688 1_556
B4 B5 1.897182 1_655
B4 Os0 2.398375 1_555
B4 Os3 2.398375 1_665
B4 Nb3 2.421461 1_655
B4 Nb4 2.421461 1_555
B4 Nb7 2.477901 1_555
B4 Nb0 2.477901 1_555
B4 Nb5 2.490688 1_655
B4 Nb2 2.490688 1_555
B5 Os3 2.398375 1_555
B5 Os0 2.398375 1_555
B5 Nb2 2.421461 1_455
B5 Nb5 2.421461 1_555
B5 Nb1 2.477901 1_555
B5 Nb6 2.477901 1_555
B5 Nb4 2.490688 1_455
B5 Nb3 2.490688 1_555
B6 B7 1.897182 1_565
B6 Os1 2.398375 1_565
B6 Os2 2.398375 1_555
B6 Nb6 2.421461 1_566
B6 Nb0 2.421461 1_555
B6 Nb3 2.477901 1_556
B6 Nb5 2.477901 1_555
B6 Nb1 2.490688 1_565
B6 Nb7 2.490688 1_556
B7 Os2 2.398375 1_555
B7 Os1 2.398375 1_655
B7 Nb7 2.421461 1_546
B7 Nb1 2.421461 1_555
B7 Nb4 2.477901 1_555
B7 Nb2 2.477901 1_556
B7 Nb6 2.490688 1_556
B7 Nb0 2.490688 1_545
