# generated using pymatgen
data_Tb(CrGe)6
_symmetry_space_group_name_H-M   'P 1'
_cell_length_a   5.11591804
_cell_length_b   5.11658498
_cell_length_c   8.32722800
_cell_angle_alpha   90.00000000
_cell_angle_beta   90.00000000
_cell_angle_gamma   119.99568774
_symmetry_Int_Tables_number   1
_chemical_formula_structural   Tb(CrGe)6
_chemical_formula_sum   'Tb1 Cr6 Ge6'
_cell_volume   188.77901991
_cell_formula_units_Z   1
loop_
 _symmetry_equiv_pos_site_id
 _symmetry_equiv_pos_as_xyz
  1  'x, y, z'
loop_
 _atom_site_type_symbol
 _atom_site_label
 _atom_site_symmetry_multiplicity
 _atom_site_fract_x
 _atom_site_fract_y
 _atom_site_fract_z
 _atom_site_occupancy
  Tb  Tb0  1  0.99998000  0.00000000  0.00000000  1
  Cr  Cr0  1  0.49998800  0.00000000  0.25050300  1
  Cr  Cr1  1  0.49998900  0.50000100  0.25045000  1
  Cr  Cr2  1  0.99998800  0.49999900  0.25045000  1
  Cr  Cr3  1  0.49998800  0.00000000  0.74949700  1
  Cr  Cr4  1  0.49998900  0.50000100  0.74955000  1
  Cr  Cr5  1  0.99998800  0.49999900  0.74955000  1
  Ge  Ge0  1  0.33324400  0.66652200  0.00000000  1
  Ge  Ge1  1  0.66672200  0.33347800  0.00000000  1
  Ge  Ge2  1  0.33325700  0.66655600  0.50000000  1
  Ge  Ge3  1  0.66670100  0.33344400  0.50000000  1
  Ge  Ge4  1  0.99998400  0.00000000  0.34612600  1
  Ge  Ge5  1  0.99998400  0.00000000  0.65387400  1
loop_
_geom_bond_atom_site_label_1
_geom_bond_atom_site_label_2
_geom_bond_distance
_geom_bond_site_symmetry_2
Cr0 Ge3 2.549462 1_555
Cr0 Ge2 2.549462 1_545
Cr0 Ge1 2.556381 1_555
Cr0 Ge0 2.556381 1_545
Cr0 Ge4 2.679012 1_555
Cr0 Ge4 2.679051 1_455
Cr1 Ge3 2.549261 1_555
Cr1 Ge2 2.549307 1_555
Cr1 Ge1 2.555341 1_555
Cr1 Ge0 2.555366 1_555
Cr1 Ge4 2.679466 1_565
Cr1 Ge4 2.679495 1_455
Cr2 Ge2 2.549261 1_655
Cr2 Ge3 2.549307 1_555
Cr2 Ge0 2.555341 1_655
Cr2 Ge1 2.555366 1_555
Cr2 Ge4 2.679466 1_555
Cr2 Ge4 2.679495 1_565
Cr3 Ge3 2.549462 1_555
Cr3 Ge2 2.549462 1_545
Cr3 Ge1 2.556381 1_556
Cr3 Ge0 2.556381 1_546
Cr3 Ge5 2.679012 1_555
Cr3 Ge5 2.679051 1_455
Cr4 Ge3 2.549261 1_555
Cr4 Ge2 2.549307 1_555
Cr4 Ge1 2.555341 1_556
Cr4 Ge0 2.555366 1_556
Cr4 Ge5 2.679466 1_565
Cr4 Ge5 2.679495 1_455
Cr5 Ge2 2.549261 1_655
Cr5 Ge3 2.549307 1_555
Cr5 Ge0 2.555341 1_656
Cr5 Ge1 2.555366 1_556
Cr5 Ge5 2.679466 1_555
Cr5 Ge5 2.679495 1_565
Ge0 Tb0 2.953549 1_455
Ge0 Tb0 2.954112 1_565
Ge0 Tb0 2.954139 1_465
Ge1 Tb0 2.953549 1_565
Ge1 Tb0 2.954112 1_555
Ge1 Tb0 2.954139 1_455
Ge4 Ge5 2.562688 1_555
Ge4 Tb0 2.882270 1_555
Ge5 Tb0 2.882270 1_556
