# generated using pymatgen
data_LaGe2IrRu
_symmetry_space_group_name_H-M   'P 1'
_cell_length_a   6.01006786
_cell_length_b   6.01006786
_cell_length_c   6.01006786
_cell_angle_alpha   138.24490934
_cell_angle_beta   138.24490934
_cell_angle_gamma   60.52811495
_symmetry_Int_Tables_number   1
_chemical_formula_structural   LaGe2IrRu
_chemical_formula_sum   'La1 Ge2 Ir1 Ru1'
_cell_volume   95.25193195
_cell_formula_units_Z   1
loop_
 _symmetry_equiv_pos_site_id
 _symmetry_equiv_pos_as_xyz
  1  'x, y, z'
loop_
 _atom_site_type_symbol
 _atom_site_label
 _atom_site_symmetry_multiplicity
 _atom_site_fract_x
 _atom_site_fract_y
 _atom_site_fract_z
 _atom_site_occupancy
  La  La0  1  0.00000000  0.00000000  0.00000000  1
  Ge  Ge0  1  0.63032200  0.63032200  0.00000000  1
  Ge  Ge1  1  0.36967800  0.36967800  0.00000000  1
  Ir  Ir0  1  0.25000000  0.75000000  0.50000000  1
  Ru  Ru0  1  0.75000000  0.25000000  0.50000000  1
loop_
_geom_bond_atom_site_label_1
_geom_bond_atom_site_label_2
_geom_bond_distance
_geom_bond_site_symmetry_2
La0 Ru0 3.365104 1_454
La0 Ru0 3.365104 1_455
La0 Ru0 3.365104 1_444
La0 Ru0 3.365104 1_555
Ge0 Ir0 2.476120 1_554
Ge0 Ru0 2.476120 1_565
Ge0 Ru0 2.476120 1_554
Ge0 Ir0 2.476120 1_655
Ge0 Ge1 2.705989 1_555
Ge0 La0 3.317434 1_565
Ge0 La0 3.317434 1_655
Ge0 La0 3.317434 1_666
Ge0 La0 3.317434 1_554
Ge1 Ir0 2.476120 1_544
Ge1 Ru0 2.476120 1_454
Ge1 Ir0 2.476120 1_555
Ge1 Ru0 2.476120 1_555
Ge1 La0 3.317434 1_554
Ge1 La0 3.317434 1_655
Ge1 La0 3.317434 1_565
Ge1 La0 3.317434 1_666
Ir0 La0 3.365104 1_566
Ir0 La0 3.365104 1_666
Ir0 La0 3.365104 1_555
Ir0 La0 3.365104 1_565
