# generated using pymatgen
data_Li10Zn7(PS4)8
_symmetry_space_group_name_H-M   'P 1'
_cell_length_a   9.20507700
_cell_length_b   11.62177234
_cell_length_c   11.63148538
_cell_angle_alpha   90.01986231
_cell_angle_beta   90.03891478
_cell_angle_gamma   90.02754412
_symmetry_Int_Tables_number   1
_chemical_formula_structural   Li10Zn7(PS4)8
_chemical_formula_sum   'Li10 Zn7 P8 S32'
_cell_volume   1244.32776663
_cell_formula_units_Z   1
loop_
 _symmetry_equiv_pos_site_id
 _symmetry_equiv_pos_as_xyz
  1  'x, y, z'
loop_
 _atom_site_type_symbol
 _atom_site_label
 _atom_site_symmetry_multiplicity
 _atom_site_fract_x
 _atom_site_fract_y
 _atom_site_fract_z
 _atom_site_occupancy
  Li  Li0  1  0.75158500  0.99890100  0.24491700  1
  Li  Li1  1  0.49457500  0.00041400  0.99671800  1
  Li  Li2  1  0.49922400  0.00012700  0.50313300  1
  Li  Li3  1  0.00596400  0.25268300  0.24817400  1
  Li  Li4  1  0.00340200  0.74857600  0.24904800  1
  Li  Li5  1  0.49624700  0.50039200  0.99983900  1
  Li  Li6  1  0.49948500  0.49971700  0.50038200  1
  Li  Li7  1  0.99920600  0.24771400  0.75125400  1
  Li  Li8  1  0.00222200  0.75080400  0.75167100  1
  Li  Li9  1  0.00555200  0.99995700  0.99718400  1
  Zn  Zn0  1  0.00736900  0.99899900  0.50269300  1
  Zn  Zn1  1  0.49477000  0.25085100  0.25062500  1
  Zn  Zn2  1  0.49391800  0.74785600  0.24759200  1
  Zn  Zn3  1  0.99893100  0.49922200  0.00020500  1
  Zn  Zn4  1  0.00099600  0.50060900  0.49996400  1
  Zn  Zn5  1  0.49872100  0.24957600  0.75147400  1
  Zn  Zn6  1  0.49887000  0.75204500  0.75090500  1
  P  P0  1  0.75263600  0.25031300  0.99632900  1
  P  P1  1  0.74692500  0.74947300  0.00487900  1
  P  P2  1  0.74754300  0.25001700  0.49887500  1
  P  P3  1  0.75290300  0.75075200  0.49998500  1
  P  P4  1  0.24962100  0.00367800  0.25156400  1
  P  P5  1  0.24939400  0.50010700  0.25032100  1
  P  P6  1  0.25042500  0.99595700  0.74870900  1
  P  P7  1  0.24980900  0.49990000  0.74977200  1
  S  S0  1  0.86574400  0.63981400  0.39498500  1
  S  S1  1  0.86327700  0.36134300  0.10442600  1
  S  S2  1  0.63423600  0.85377600  0.89198500  1
  S  S3  1  0.63511700  0.14606400  0.61037900  1
  S  S4  1  0.86360400  0.14071800  0.89557500  1
  S  S5  1  0.86498000  0.86260600  0.60415400  1
  S  S6  1  0.63548600  0.35441500  0.38703700  1
  S  S7  1  0.62985200  0.64291400  0.11230100  1
  S  S8  1  0.86458300  0.64071800  0.89977600  1
  S  S9  1  0.86661400  0.35906400  0.60155100  1
  S  S10  1  0.62833200  0.35489400  0.89218200  1
  S  S11  1  0.63449400  0.64821000  0.60920000  1
  S  S12  1  0.13342700  0.10459300  0.14422300  1
  S  S13  1  0.13575200  0.89583800  0.36151900  1
  S  S14  1  0.36657800  0.89189900  0.14741000  1
  S  S15  1  0.37173800  0.10943300  0.35763500  1
  S  S16  1  0.13602200  0.60382900  0.13836000  1
  S  S17  1  0.13555700  0.39615500  0.36212900  1
  S  S18  1  0.36996600  0.88885400  0.64266900  1
  S  S19  1  0.36434500  0.11010600  0.85209300  1
  S  S20  1  0.13871200  0.10446200  0.63775400  1
  S  S21  1  0.13758400  0.89393500  0.85673800  1
  S  S22  1  0.36317700  0.38876800  0.14594200  1
  S  S23  1  0.36337200  0.61120000  0.35540900  1
  S  S24  1  0.13447500  0.60422200  0.63872800  1
  S  S25  1  0.13463300  0.39597400  0.86087600  1
  S  S26  1  0.36477400  0.38859100  0.64576400  1
  S  S27  1  0.36491800  0.61149200  0.85321600  1
  S  S28  1  0.87031000  0.13871500  0.39533000  1
  S  S29  1  0.86869700  0.85803300  0.10595200  1
  S  S30  1  0.63005500  0.85376100  0.38836500  1
  S  S31  1  0.62929800  0.14696600  0.11012900  1
loop_
_geom_bond_atom_site_label_1
_geom_bond_atom_site_label_2
_geom_bond_distance
_geom_bond_site_symmetry_2
Li0 S29 2.541108 1_555
Li0 S31 2.586015 1_565
Li0 S30 2.623609 1_555
Li0 S28 2.624728 1_565
Li1 S19 2.427395 1_555
Li1 S2 2.458419 1_545
Li1 S14 2.460445 1_546
Li1 S31 2.484577 1_556
Li2 S18 2.392655 1_545
Li2 S15 2.419749 1_555
Li2 S3 2.447814 1_555
Li2 S30 2.475574 1_545
Li3 S12 2.408959 1_555
Li3 S17 2.440190 1_555
Li3 S1 2.472959 1_455
Li3 S28 2.499240 1_455
Li4 S29 2.434378 1_455
Li4 S16 2.445471 1_555
Li4 S0 2.467315 1_455
Li4 S13 2.473653 1_555
Li5 S10 2.430679 1_555
Li5 S7 2.441622 1_556
Li5 S27 2.457098 1_555
Li5 S22 2.464570 1_556
Li6 S26 2.463315 1_555
Li6 S23 2.468226 1_555
Li6 S11 2.473664 1_555
Li6 S6 2.481870 1_555
Li7 S4 2.434142 1_555
Li7 S25 2.478503 1_655
Li7 S20 2.483237 1_655
Li7 S9 2.489283 1_555
Li8 S21 2.409896 1_555
Li8 S24 2.472353 1_555
Li8 S8 2.492518 1_455
Li8 S5 2.495707 1_455
Li9 S21 2.380486 1_555
Li9 S4 2.404487 1_465
Li9 S12 2.404967 1_566
Li9 S29 2.430992 1_456
P0 S4 2.010203 1_555
P0 S10 2.062625 1_555
P0 S1 2.068586 1_556
P0 S31 2.117897 1_556
P1 S29 2.055766 1_555
P1 S7 2.063449 1_555
P1 S8 2.065688 1_554
P1 S2 2.066438 1_554
P2 S3 2.052889 1_555
P2 S6 2.056384 1_555
P2 S9 2.056592 1_555
P2 S28 2.098333 1_555
P3 S5 2.053826 1_555
P3 S11 2.055151 1_555
P3 S0 2.057841 1_555
P3 S30 2.097120 1_555
P4 S12 2.019585 1_555
P4 S15 2.071736 1_555
P4 S13 2.075274 1_545
P4 S14 2.077576 1_545
P5 S16 2.058770 1_555
P5 S22 2.060890 1_555
P5 S17 2.061692 1_555
P5 S23 2.063408 1_555
P6 S21 2.016248 1_555
P6 S18 2.069678 1_555
P6 S19 2.073988 1_565
P6 S20 2.076963 1_565
P7 S27 2.061126 1_555
P7 S25 2.062665 1_555
P7 S26 2.063697 1_555
P7 S24 2.065371 1_555
S0 Zn4 2.378986 1_655
S1 Zn3 2.366002 1_555
S2 Zn6 2.374387 1_555
S3 Zn5 2.391610 1_555
S5 Zn0 2.371646 1_655
S6 Zn1 2.374526 1_555
S7 Zn2 2.352085 1_555
S8 Zn3 2.366310 1_556
S9 Zn4 2.373557 1_655
S10 Zn5 2.365317 1_555
S11 Zn6 2.394655 1_555
S13 Zn0 2.352231 1_555
S14 Zn2 2.352788 1_555
S15 Zn1 2.352566 1_555
S16 Zn3 2.376372 1_455
S17 Zn4 2.362418 1_555
S18 Zn6 2.349904 1_555
S19 Zn5 2.351249 1_555
S20 Zn0 2.329500 1_545
S22 Zn1 2.349513 1_555
S23 Zn2 2.353863 1_555
S24 Zn4 2.357820 1_555
S25 Zn3 2.372633 1_456
S26 Zn5 2.375605 1_555
S27 Zn6 2.367741 1_555
S28 Zn0 2.406035 1_645
S30 Zn2 2.400141 1_555
S31 Zn1 2.380017 1_555
