# generated using pymatgen
data_Na2Cr2O5
_symmetry_space_group_name_H-M   'P 1'
_cell_length_a   8.04831869
_cell_length_b   8.04831869
_cell_length_c   8.04831869
_cell_angle_alpha   140.95474406
_cell_angle_beta   139.50053690
_cell_angle_gamma   57.51622930
_symmetry_Int_Tables_number   1
_chemical_formula_structural   Na2Cr2O5
_chemical_formula_sum   'Na4 Cr4 O10'
_cell_volume   211.44761184
_cell_formula_units_Z   2
loop_
 _symmetry_equiv_pos_site_id
 _symmetry_equiv_pos_as_xyz
  1  'x, y, z'
loop_
 _atom_site_type_symbol
 _atom_site_label
 _atom_site_symmetry_multiplicity
 _atom_site_fract_x
 _atom_site_fract_y
 _atom_site_fract_z
 _atom_site_occupancy
  Na  Na0  1  0.92613100  0.39367000  0.53059700  1
  Na  Na1  1  0.07386900  0.60446500  0.46753800  1
  Na  Na2  1  0.36307300  0.89367000  0.46753800  1
  Na  Na3  1  0.63692700  0.10446500  0.53059700  1
  Cr  Cr0  1  0.00000000  0.01083800  0.01083800  1
  Cr  Cr1  1  0.50000000  0.51083800  0.01083800  1
  Cr  Cr2  1  0.67220900  0.70368700  0.87589500  1
  Cr  Cr3  1  0.32779100  0.20368700  0.03147800  1
  O  O0  1  0.26991400  0.27820300  0.51467100  1
  O  O1  1  0.73008600  0.24475600  0.00828900  1
  O  O2  1  0.26353200  0.77820300  0.00828900  1
  O  O3  1  0.73646800  0.74475600  0.51467100  1
  O  O4  1  0.92411300  0.88715700  0.10028000  1
  O  O5  1  0.07588700  0.17616600  0.96304400  1
  O  O6  1  0.28687700  0.38715700  0.96304400  1
  O  O7  1  0.71312300  0.67616600  0.10028000  1
  O  O8  1  0.61680400  0.36505700  0.48186100  1
  O  O9  1  0.38319600  0.86505700  0.74825300  1
loop_
_geom_bond_atom_site_label_1
_geom_bond_atom_site_label_2
_geom_bond_distance
_geom_bond_site_symmetry_2
Na0 O6 2.301704 1_655
Na0 O8 2.322758 1_555
Na0 O1 2.390668 1_555
Na0 O3 2.441903 1_555
Na0 O0 2.475501 1_655
Na0 O2 2.529960 1_656
Na0 O4 2.582382 1_545
Na1 O7 2.301700 1_455
Na1 O9 2.322759 1_555
Na1 O0 2.390669 1_555
Na1 O2 2.441913 1_556
Na1 O1 2.475503 1_455
Na1 O3 2.529965 1_455
Na1 O5 2.582377 1_554
Na2 O4 2.301703 1_455
Na2 O9 2.322766 1_555
Na2 O3 2.390668 1_555
Na2 O1 2.441906 1_566
Na2 O2 2.475493 1_555
Na2 O0 2.529955 1_565
Na2 O6 2.582380 1_554
Na3 O5 2.301704 1_655
Na3 O8 2.322766 1_555
Na3 O2 2.390669 1_545
Na3 O0 2.441909 1_555
Na3 O3 2.475501 1_545
Na3 O1 2.529960 1_556
Na3 O7 2.582382 1_545
Cr0 O2 1.935353 1_545
Cr0 O3 1.935354 1_444
Cr0 O1 1.965503 1_455
Cr0 O0 1.965506 1_555
Cr0 O5 2.077686 1_554
Cr0 O4 2.077694 1_445
Cr1 O0 1.935353 1_554
Cr1 O1 1.935358 1_555
Cr1 O2 1.965506 1_555
Cr1 O3 1.965507 1_555
Cr1 O7 2.077687 1_555
Cr1 O6 2.077694 1_554
Cr2 O4 1.748537 1_556
Cr2 O7 1.748555 1_556
Cr2 O9 1.829237 1_555
Cr2 O8 1.847510 1_555
Cr3 O6 1.748541 1_554
Cr3 O5 1.748545 1_554
Cr3 O8 1.829238 1_555
Cr3 O9 1.847514 1_544
