# generated using pymatgen
data_InPt2
_symmetry_space_group_name_H-M   'P 1'
_cell_length_a   4.10887781
_cell_length_b   5.70271058
_cell_length_c   17.12578627
_cell_angle_alpha   87.29835424
_cell_angle_beta   90.00000000
_cell_angle_gamma   90.00000000
_symmetry_Int_Tables_number   1
_chemical_formula_structural   InPt2
_chemical_formula_sum   'In8 Pt16'
_cell_volume   400.84096605
_cell_formula_units_Z   8
loop_
 _symmetry_equiv_pos_site_id
 _symmetry_equiv_pos_as_xyz
  1  'x, y, z'
loop_
 _atom_site_type_symbol
 _atom_site_label
 _atom_site_symmetry_multiplicity
 _atom_site_fract_x
 _atom_site_fract_y
 _atom_site_fract_z
 _atom_site_occupancy
  In  In0  1  0.50000000  0.70849603  0.23839070  1
  In  In1  1  0.50000000  0.72609060  0.57539583  1
  In  In2  1  0.50000000  0.75853446  0.91617908  1
  In  In3  1  0.50000000  0.24146554  0.08382092  1
  In  In4  1  0.50000000  0.27390940  0.42460417  1
  In  In5  1  0.50000000  0.29150397  0.76160930  1
  In  In6  1  0.00000000  0.99124267  0.33082359  1
  In  In7  1  0.00000000  0.00875733  0.66917641  1
  Pt  Pt0  1  0.00000000  0.98142305  0.16767076  1
  Pt  Pt1  1  0.00000000  -0.00000000  0.50000000  1
  Pt  Pt2  1  0.00000000  0.01857695  0.83232924  1
  Pt  Pt3  1  0.00000000  0.50000000  0.00000000  1
  Pt  Pt4  1  0.00000000  0.49142366  0.33290598  1
  Pt  Pt5  1  0.00000000  0.50857634  0.66709402  1
  Pt  Pt6  1  0.00000000  0.47670625  0.16472135  1
  Pt  Pt7  1  0.00000000  0.50000000  0.50000000  1
  Pt  Pt8  1  0.00000000  0.52329375  0.83527865  1
  Pt  Pt9  1  0.50000000  0.22114144  0.25490254  1
  Pt  Pt10  1  0.50000000  0.23197970  0.59052659  1
  Pt  Pt11  1  0.50000000  0.25453856  0.92064812  1
  Pt  Pt12  1  0.50000000  0.74546144  0.07935188  1
  Pt  Pt13  1  0.50000000  0.76802030  0.40947341  1
  Pt  Pt14  1  0.50000000  0.77885856  0.74509746  1
  Pt  Pt15  1  0.00000000  -0.00000000  0.00000000  1
loop_
_geom_bond_atom_site_label_1
_geom_bond_atom_site_label_2
_geom_bond_distance
_geom_bond_site_symmetry_2
In0 Pt12 2.721886 1_555
In0 Pt6 2.777934 1_655
In0 Pt6 2.777934 1_555
In0 Pt9 2.780299 1_555
In0 Pt0 2.816437 1_655
In0 Pt0 2.816437 1_555
In0 Pt4 2.860813 1_655
In0 Pt4 2.860813 1_555
In0 Pt9 2.950350 1_565
In0 Pt13 2.965375 1_555
In1 Pt7 2.776195 1_655
In1 Pt7 2.776195 1_555
In1 Pt10 2.817472 1_555
In1 Pt5 2.835824 1_655
In1 Pt5 2.835824 1_555
In1 Pt13 2.840342 1_555
In1 Pt1 2.852673 1_565
In1 Pt1 2.852673 1_665
In1 Pt10 2.908693 1_565
In1 Pt14 2.935886 1_555
In2 Pt12 2.791942 1_556
In2 Pt11 2.833207 1_565
In2 Pt8 2.848710 1_555
In2 Pt8 2.848710 1_655
In2 Pt11 2.871553 1_555
In2 Pt3 2.873249 1_656
In2 Pt3 2.873249 1_556
In2 Pt2 2.877704 1_565
In2 Pt2 2.877704 1_665
In2 Pt15 2.892036 1_666
In2 Pt15 2.892036 1_566
In2 Pt14 2.926735 1_555
In3 Pt11 2.791942 1_554
In3 Pt12 2.833207 1_545
In3 Pt6 2.848710 1_655
In3 Pt6 2.848710 1_555
In3 Pt12 2.871553 1_555
In3 Pt3 2.873249 1_555
In3 Pt3 2.873249 1_655
In3 Pt0 2.877704 1_545
In3 Pt0 2.877704 1_645
In3 Pt15 2.892036 1_655
In3 Pt15 2.892036 1_555
In3 Pt9 2.926735 1_555
In4 Pt7 2.776195 1_655
In4 Pt7 2.776195 1_555
In4 Pt13 2.817472 1_555
In4 Pt4 2.835824 1_655
In4 Pt4 2.835824 1_555
In4 Pt10 2.840342 1_555
In4 Pt1 2.852673 1_555
In4 Pt1 2.852673 1_655
In4 Pt13 2.908693 1_545
In4 Pt9 2.935886 1_555
In5 Pt11 2.721886 1_555
In5 Pt8 2.777934 1_655
In5 Pt8 2.777934 1_555
In5 Pt14 2.780299 1_555
In5 Pt2 2.816437 1_555
In5 Pt2 2.816437 1_655
In5 Pt5 2.860813 1_655
In5 Pt5 2.860813 1_555
In5 Pt14 2.950350 1_545
In5 Pt10 2.965375 1_555
In6 Pt9 2.733021 1_565
In6 Pt9 2.733021 1_465
In6 Pt13 2.737478 1_555
In6 Pt13 2.737478 1_455
In6 Pt0 2.797319 1_555
In6 Pt4 2.848865 1_555
In6 Pt4 2.854291 1_565
In6 Pt1 2.900062 1_565
In7 Pt14 2.733021 1_445
In7 Pt14 2.733021 1_545
In7 Pt10 2.737478 1_455
In7 Pt10 2.737478 1_555
In7 Pt2 2.797319 1_555
In7 Pt5 2.848865 1_555
In7 Pt5 2.854291 1_545
In7 Pt1 2.900062 1_555
Pt0 Pt6 2.822527 1_565
Pt0 Pt15 2.868453 1_565
Pt0 Pt6 2.881077 1_555
Pt0 Pt12 2.917367 1_555
Pt0 Pt12 2.917367 1_455
Pt0 Pt9 2.917847 1_565
Pt0 Pt9 2.917847 1_465
Pt1 Pt7 2.851355 1_545
Pt1 Pt7 2.851355 1_555
Pt1 Pt10 2.927066 1_555
Pt1 Pt10 2.927066 1_455
Pt1 Pt13 2.927066 1_545
Pt1 Pt13 2.927066 1_445
Pt2 Pt8 2.822527 1_545
Pt2 Pt8 2.881077 1_555
Pt3 Pt8 2.817847 1_554
Pt3 Pt6 2.817847 1_555
Pt4 Pt7 2.864338 1_555
Pt4 Pt6 2.885468 1_555
Pt4 Pt9 2.928328 1_555
Pt4 Pt9 2.928328 1_455
Pt5 Pt7 2.864338 1_555
Pt5 Pt8 2.885468 1_555
Pt6 Pt9 2.918531 1_455
Pt6 Pt9 2.918531 1_555
Pt10 Pt5 2.936526 1_555
Pt10 Pt5 2.936526 1_655
Pt11 Pt15 2.826405 1_556
Pt11 Pt15 2.826405 1_656
Pt11 Pt3 2.864656 1_656
Pt11 Pt3 2.864656 1_556
Pt11 Pt8 2.914781 1_555
Pt11 Pt8 2.914781 1_655
Pt11 Pt2 2.917367 1_555
Pt11 Pt2 2.917367 1_655
Pt12 Pt15 2.826405 1_665
Pt12 Pt15 2.826405 1_565
Pt12 Pt3 2.864656 1_555
Pt12 Pt3 2.864656 1_655
Pt12 Pt6 2.914781 1_555
Pt12 Pt6 2.914781 1_655
Pt13 Pt4 2.936526 1_555
Pt13 Pt4 2.936526 1_655
Pt14 Pt2 2.917847 1_565
Pt14 Pt2 2.917847 1_665
Pt14 Pt8 2.918531 1_555
Pt14 Pt8 2.918531 1_655
Pt14 Pt5 2.928328 1_655
Pt14 Pt5 2.928328 1_555
Pt15 Pt3 2.851355 1_545
Pt15 Pt3 2.851355 1_555
Pt15 Pt2 2.868453 1_554
