# generated using pymatgen
data_Pr3Ho
_symmetry_space_group_name_H-M   'P 1'
_cell_length_a   7.47063590
_cell_length_b   7.47063590
_cell_length_c   5.89446336
_cell_angle_alpha   90.00000000
_cell_angle_beta   90.00000000
_cell_angle_gamma   120.00000404
_symmetry_Int_Tables_number   1
_chemical_formula_structural   Pr3Ho
_chemical_formula_sum   'Pr6 Ho2'
_cell_volume   284.89841102
_cell_formula_units_Z   2
loop_
 _symmetry_equiv_pos_site_id
 _symmetry_equiv_pos_as_xyz
  1  'x, y, z'
loop_
 _atom_site_type_symbol
 _atom_site_label
 _atom_site_symmetry_multiplicity
 _atom_site_fract_x
 _atom_site_fract_y
 _atom_site_fract_z
 _atom_site_occupancy
  Pr  Pr0  1  0.16814087  0.33628274  0.25000000  1
  Pr  Pr1  1  0.66371726  0.83185913  0.25000000  1
  Pr  Pr2  1  0.16814087  0.83185913  0.25000000  1
  Pr  Pr3  1  0.83185913  0.66371726  0.75000000  1
  Pr  Pr4  1  0.33628274  0.16814087  0.75000000  1
  Pr  Pr5  1  0.83185913  0.16814087  0.75000000  1
  Ho  Ho0  1  0.33333300  0.66666700  0.75000000  1
  Ho  Ho1  1  0.66666700  0.33333300  0.25000000  1
loop_
_geom_bond_atom_site_label_1
_geom_bond_atom_site_label_2
_geom_bond_distance
_geom_bond_site_symmetry_2
Pr0 Pr5 3.663288 1_455
Pr0 Pr5 3.663288 1_454
Pr0 Pr4 3.663296 1_555
Pr0 Pr4 3.663296 1_554
Pr0 Pr1 3.702271 1_555
Pr0 Pr2 3.702271 1_555
Pr0 Pr1 3.768365 1_445
Pr0 Pr2 3.768365 1_545
Pr1 Pr5 3.663288 1_564
Pr1 Pr5 3.663288 1_565
Pr1 Pr3 3.663296 1_554
Pr1 Pr3 3.663296 1_555
Pr1 Pr2 3.702271 1_555
Pr1 Pr2 3.768365 1_655
Pr2 Pr3 3.663288 1_455
Pr2 Pr4 3.663288 1_564
Pr2 Pr3 3.663288 1_454
Pr2 Pr4 3.663288 1_565
Pr3 Pr4 3.702271 1_555
Pr3 Pr5 3.702271 1_555
Pr3 Pr4 3.768365 1_665
Pr3 Pr5 3.768365 1_565
Pr4 Pr5 3.702271 1_555
Pr4 Pr5 3.768365 1_455
Ho0 Pr0 3.640757 1_556
Ho0 Pr1 3.640757 1_556
Ho0 Pr1 3.640757 1_555
Ho0 Pr0 3.640757 1_555
Ho0 Pr2 3.640757 1_555
Ho0 Pr2 3.640757 1_556
Ho0 Pr3 3.735359 1_455
Ho0 Pr4 3.735359 1_565
Ho0 Pr5 3.735366 1_565
Ho0 Pr5 3.735366 1_455
Ho0 Pr3 3.735374 1_555
Ho0 Pr4 3.735374 1_555
Ho1 Pr4 3.640757 1_555
Ho1 Pr3 3.640757 1_554
Ho1 Pr4 3.640757 1_554
Ho1 Pr3 3.640757 1_555
Ho1 Pr5 3.640757 1_554
Ho1 Pr5 3.640757 1_555
Ho1 Pr0 3.735359 1_655
Ho1 Pr1 3.735359 1_545
Ho1 Pr2 3.735366 1_655
Ho1 Pr2 3.735366 1_545
Ho1 Pr1 3.735374 1_555
Ho1 Pr0 3.735374 1_555
