# generated using pymatgen
data_GdB2HO5
_symmetry_space_group_name_H-M   'P 1'
_cell_length_a   6.51310300
_cell_length_b   5.92114962
_cell_length_c   11.21120680
_cell_angle_alpha   85.62086163
_cell_angle_beta   90.00000000
_cell_angle_gamma   90.00000000
_symmetry_Int_Tables_number   1
_chemical_formula_structural   GdB2HO5
_chemical_formula_sum   'Gd4 B8 H4 O20'
_cell_volume   431.09860760
_cell_formula_units_Z   4
loop_
 _symmetry_equiv_pos_site_id
 _symmetry_equiv_pos_as_xyz
  1  'x, y, z'
loop_
 _atom_site_type_symbol
 _atom_site_label
 _atom_site_symmetry_multiplicity
 _atom_site_fract_x
 _atom_site_fract_y
 _atom_site_fract_z
 _atom_site_occupancy
  Gd  Gd0  1  0.34992500  0.76252700  0.58147800  1
  Gd  Gd1  1  0.15007500  0.26252700  0.08147800  1
  Gd  Gd2  1  0.63780000  0.29873800  0.42448300  1
  Gd  Gd3  1  0.86220000  0.79873800  0.92448300  1
  B  B0  1  0.37217500  0.81056600  0.88668500  1
  B  B1  1  0.12782500  0.31056600  0.38668500  1
  B  B2  1  0.65991000  0.17400600  0.11210500  1
  B  B3  1  0.84009000  0.67400600  0.61210500  1
  B  B4  1  0.43059700  0.99430000  0.27242900  1
  B  B5  1  0.06940300  0.49430000  0.77242900  1
  B  B6  1  0.62104700  0.09934400  0.71674600  1
  B  B7  1  0.87895300  0.59934400  0.21674600  1
  H  H0  1  0.54087400  0.44187800  0.99050400  1
  H  H1  1  0.95912600  0.94187800  0.49050400  1
  H  H2  1  0.27278300  0.86326400  0.05547600  1
  H  H3  1  0.22721700  0.36326400  0.55547600  1
  O  O0  1  0.30055400  0.93985100  0.18606100  1
  O  O1  1  0.19944600  0.43985100  0.68606100  1
  O  O2  1  0.71539800  0.10834000  0.81455500  1
  O  O3  1  0.78460200  0.60834000  0.31455500  1
  O  O4  1  0.42101000  0.96568000  0.39462400  1
  O  O5  1  0.07899000  0.46568000  0.89462400  1
  O  O6  1  0.57168000  0.09267600  0.60622100  1
  O  O7  1  0.92832000  0.59267600  0.10622100  1
  O  O8  1  0.51066100  0.30483300  0.04898600  1
  O  O9  1  0.98933900  0.80483300  0.54898600  1
  O  O10  1  0.53736300  0.69577700  0.93760000  1
  O  O11  1  0.96263700  0.19577700  0.43760000  1
  O  O12  1  0.33763200  0.85962700  0.76928800  1
  O  O13  1  0.16236800  0.35962700  0.26928800  1
  O  O14  1  0.61392800  0.12810400  0.23502500  1
  O  O15  1  0.88607200  0.62810400  0.73502500  1
  O  O16  1  0.27534400  0.39790700  0.46906800  1
  O  O17  1  0.22465600  0.89790700  0.96906800  1
  O  O18  1  0.66652700  0.59258300  0.56566700  1
  O  O19  1  0.83347300  0.09258300  0.06566700  1
loop_
_geom_bond_atom_site_label_1
_geom_bond_atom_site_label_2
_geom_bond_distance
_geom_bond_site_symmetry_2
Gd0 O12 2.226049 1_555
Gd0 O18 2.307233 1_555
Gd0 O1 2.375640 1_555
Gd0 O4 2.380112 1_555
Gd0 O9 2.386864 1_455
Gd0 O6 2.463186 1_565
Gd1 O13 2.226049 1_555
Gd1 O19 2.307233 1_455
Gd1 O0 2.375640 1_545
Gd1 O5 2.380112 1_554
Gd1 O8 2.386864 1_555
Gd1 O7 2.463186 1_455
Gd2 O11 2.203583 1_555
Gd2 O6 2.333652 1_555
Gd2 O3 2.334239 1_555
Gd2 O14 2.425759 1_555
Gd2 O18 2.447084 1_555
Gd2 O4 2.468942 1_545
Gd2 O16 2.492476 1_555
Gd3 O10 2.203583 1_555
Gd3 O7 2.333652 1_556
Gd3 O2 2.334239 1_565
Gd3 O15 2.425759 1_555
Gd3 O19 2.447084 1_566
Gd3 O5 2.468942 1_655
Gd3 O17 2.492476 1_655
B0 O12 1.344954 1_555
B0 O10 1.373348 1_555
B0 O17 1.454856 1_555
B1 O13 1.344954 1_555
B1 O11 1.373348 1_455
B1 O16 1.454856 1_555
B2 O19 1.348963 1_555
B2 O8 1.400731 1_555
B2 O14 1.416147 1_555
B3 O18 1.348963 1_555
B3 O9 1.400731 1_555
B3 O15 1.416147 1_555
B4 O0 1.344091 1_555
B4 O4 1.368918 1_555
B4 O14 1.476000 1_565
B5 O1 1.344091 1_555
B5 O5 1.368918 1_555
B5 O15 1.476000 1_455
B6 O2 1.261676 1_555
B6 O6 1.283678 1_555
B7 O3 1.261676 1_555
B7 O7 1.283678 1_555
H0 O8 1.022658 1_556
H0 O10 1.573618 1_555
H1 O9 1.022658 1_555
H1 O11 1.573618 1_565
H2 O17 1.023933 1_554
H2 O0 1.575782 1_555
H3 O16 1.023933 1_555
H3 O1 1.575782 1_555
