# generated using pymatgen
data_Sr6Ti3FeO14
_symmetry_space_group_name_H-M   'P 1'
_cell_length_a   3.93334900
_cell_length_b   20.79336977
_cell_length_c   7.88371000
_cell_angle_alpha   79.06869822
_cell_angle_beta   90.00101856
_cell_angle_gamma   90.00008354
_symmetry_Int_Tables_number   1
_chemical_formula_structural   Sr6Ti3FeO14
_chemical_formula_sum   'Sr12 Ti6 Fe2 O28'
_cell_volume   633.09002478
_cell_formula_units_Z   2
loop_
 _symmetry_equiv_pos_site_id
 _symmetry_equiv_pos_as_xyz
  1  'x, y, z'
loop_
 _atom_site_type_symbol
 _atom_site_label
 _atom_site_symmetry_multiplicity
 _atom_site_fract_x
 _atom_site_fract_y
 _atom_site_fract_z
 _atom_site_occupancy
  Sr  Sr0  1  0.49999000  0.18525800  0.15736200  1
  Sr  Sr1  1  0.50000200  0.18548700  0.65725800  1
  Sr  Sr2  1  0.00000900  0.68355600  0.15916600  1
  Sr  Sr3  1  0.99999700  0.68355800  0.65728400  1
  Sr  Sr4  1  0.99999900  0.31814300  0.34125600  1
  Sr  Sr5  1  0.00001300  0.31813400  0.84058200  1
  Sr  Sr6  1  0.49999900  0.81564900  0.84217500  1
  Sr  Sr7  1  0.50000700  0.81551900  0.34223600  1
  Sr  Sr8  1  0.50000200  0.00027000  0.24985600  1
  Sr  Sr9  1  0.50000500  0.00028300  0.74985000  1
  Sr  Sr10  1  0.00000100  0.49701700  0.25084400  1
  Sr  Sr11  1  0.99999800  0.49701200  0.75217700  1
  Ti  Ti0  1  0.00000100  0.90220300  0.04887800  1
  Ti  Ti1  1  0.99999800  0.90220200  0.54892600  1
  Ti  Ti2  1  0.99999900  0.09851100  0.45067100  1
  Ti  Ti3  1  0.99999700  0.09850800  0.95079200  1
  Ti  Ti4  1  0.50000000  0.59742800  0.95131000  1
  Ti  Ti5  1  0.50000000  0.59672300  0.45166700  1
  Fe  Fe0  1  0.50001100  0.40262300  0.04870600  1
  Fe  Fe1  1  0.49998700  0.40242100  0.54878100  1
  O  O0  1  0.50000100  0.30702600  0.09645600  1
  O  O1  1  0.50000500  0.30625300  0.59685200  1
  O  O2  1  0.00000100  0.80558400  0.09693200  1
  O  O3  1  0.99999700  0.80558400  0.59738900  1
  O  O4  1  0.99999700  0.19451200  0.40211000  1
  O  O5  1  0.99999800  0.19451300  0.90345900  1
  O  O6  1  0.50000200  0.69302000  0.90350200  1
  O  O7  1  0.49999700  0.69338100  0.40333100  1
  O  O8  1  0.99999900  0.00002400  0.00000300  1
  O  O9  1  0.99999400  0.00002300  0.49998400  1
  O  O10  1  0.50000400  0.49872100  0.00060000  1
  O  O11  1  0.50000800  0.49938500  0.50031900  1
  O  O12  1  0.00000000  0.40390100  0.04801200  1
  O  O13  1  0.99999700  0.40410600  0.54790400  1
  O  O14  1  0.49994100  0.40427200  0.29091900  1
  O  O15  1  0.50005300  0.40430800  0.80476200  1
  O  O16  1  0.50000200  0.90341700  0.04815000  1
  O  O17  1  0.50000100  0.90341600  0.54830800  1
  O  O18  1  0.00000500  0.90344500  0.79822600  1
  O  O19  1  0.00000300  0.90342600  0.29823600  1
  O  O20  1  0.49999800  0.09675700  0.45146800  1
  O  O21  1  0.49999900  0.09675600  0.95189200  1
  O  O22  1  0.99999900  0.09672700  0.20168800  1
  O  O23  1  0.00000100  0.09679100  0.70165400  1
  O  O24  1  0.99999900  0.59588700  0.95209600  1
  O  O25  1  0.99999800  0.59626400  0.45190700  1
  O  O26  1  0.49999500  0.59599900  0.20179100  1
  O  O27  1  0.49999300  0.59599600  0.70227700  1
loop_
_geom_bond_atom_site_label_1
_geom_bond_atom_site_label_2
_geom_bond_distance
_geom_bond_site_symmetry_2
Fe0 O14 1.916335 1_555
Fe0 O15 1.916848 1_554
Fe0 O0 1.951716 1_555
Fe0 O10 1.961944 1_555
Fe0 O12 1.966804 1_655
Fe0 O12 1.966891 1_555
Fe1 O1 1.963374 1_555
Fe1 O13 1.966936 1_455
Fe1 O13 1.967015 1_555
Fe1 O11 1.979625 1_555
Fe1 O15 2.025887 1_555
Fe1 O14 2.025963 1_555
O0 Sr0 2.486025 1_555
O0 Sr5 2.795240 1_554
O0 Sr5 2.795356 1_654
O0 Sr4 2.795517 1_555
O0 Sr4 2.795576 1_455
O1 Sr1 2.465568 1_555
O1 Sr4 2.792910 1_455
O1 Sr4 2.792927 1_555
O1 Sr5 2.793029 1_655
O1 Sr5 2.793034 1_555
O2 Ti0 1.972582 1_555
O2 Sr2 2.491351 1_555
O2 Sr6 2.790318 1_454
O2 Sr6 2.790357 1_554
O2 Sr7 2.793197 1_555
O2 Sr7 2.793213 1_455
O3 Ti1 1.972561 1_555
O3 Sr3 2.491309 1_555
O3 Sr6 2.790859 1_655
O3 Sr6 2.790897 1_555
O3 Sr7 2.792656 1_555
O3 Sr7 2.792762 1_655
O4 Ti2 1.959969 1_555
O4 Sr4 2.524072 1_555
O4 Sr0 2.787235 1_555
O4 Sr0 2.787245 1_655
O4 Sr1 2.793919 1_655
O4 Sr1 2.793941 1_555
O5 Ti3 1.960053 1_555
O5 Sr5 2.523870 1_655
O5 Sr0 2.786625 1_656
O5 Sr0 2.786719 1_556
O5 Sr1 2.794349 1_555
O5 Sr1 2.794420 1_655
O6 Ti4 1.951614 1_555
O6 Sr6 2.503603 1_555
O6 Sr2 2.796182 1_656
O6 Sr2 2.796194 1_556
O6 Sr3 2.796286 1_455
O6 Sr3 2.796307 1_555
O7 Ti5 1.973377 1_555
O7 Sr7 2.493579 1_555
O7 Sr3 2.786156 1_555
O7 Sr3 2.786206 1_455
O7 Sr2 2.786344 1_555
O7 Sr2 2.786459 1_655
O8 Ti0 1.997121 1_645
O8 Ti3 2.010657 1_554
O8 Sr8 2.784161 1_655
O8 Sr8 2.784194 1_555
O8 Sr9 2.784401 1_554
O8 Sr9 2.784484 1_654
O9 Ti1 1.997121 1_545
O9 Ti2 2.010739 1_555
O9 Sr9 2.784284 1_555
O9 Sr8 2.784289 1_555
O9 Sr9 2.784295 1_655
O9 Sr8 2.784383 1_655
O10 Ti4 2.015210 1_554
O10 Sr11 2.780490 1_454
O10 Sr11 2.780506 1_554
O10 Sr10 2.781099 1_655
O10 Sr10 2.781165 1_555
O11 Ti5 1.987260 1_555
O11 Sr10 2.788403 1_555
O11 Sr10 2.788413 1_655
O11 Sr11 2.788423 1_555
O11 Sr11 2.788528 1_455
O12 Sr5 2.638335 1_554
O12 Sr4 2.638359 1_455
O12 Sr11 2.734118 1_454
O12 Sr10 2.734980 1_555
O13 Sr4 2.636966 1_555
O13 Sr5 2.637298 1_655
O13 Sr10 2.738806 1_655
O13 Sr11 2.739592 1_555
O14 Sr4 2.638604 1_455
O14 Sr4 2.638938 1_555
O14 Sr10 2.730320 1_555
O14 Sr10 2.730664 1_655
O15 Sr5 2.639268 1_655
O15 Sr5 2.639506 1_555
O15 Sr11 2.729746 1_555
O15 Sr11 2.730051 1_455
O16 Ti0 1.966827 1_655
O16 Ti0 1.966835 1_555
O16 Sr6 2.662974 1_554
O16 Sr7 2.666221 1_555
O16 Sr9 2.791227 1_564
O16 Sr8 2.792685 1_565
O17 Ti1 1.966819 1_555
O17 Ti1 1.966843 1_455
O17 Sr6 2.663526 1_555
O17 Sr7 2.665688 1_555
O17 Sr8 2.791933 1_565
O17 Sr9 2.792014 1_565
O18 Ti1 1.970474 1_455
O18 Ti0 1.971333 1_556
O18 Sr6 2.660936 1_555
O18 Sr6 2.660976 1_455
O18 Sr9 2.788643 1_465
O18 Sr9 2.788648 1_565
O19 Ti0 1.970847 1_555
O19 Ti1 1.971699 1_455
O19 Sr7 2.662474 1_455
O19 Sr7 2.662492 1_555
O19 Sr8 2.788732 1_565
O19 Sr8 2.788733 1_465
O20 Ti2 1.966997 1_455
O20 Ti2 1.967005 1_555
O20 Sr0 2.672886 1_555
O20 Sr1 2.677948 1_555
O20 Sr8 2.785855 1_555
O20 Sr9 2.787113 1_555
O21 Ti3 1.966993 1_555
O21 Ti3 1.967008 1_455
O21 Sr0 2.672279 1_556
O21 Sr1 2.678460 1_555
O21 Sr8 2.784923 1_556
O21 Sr9 2.788012 1_555
O22 Ti2 1.970281 1_555
O22 Ti3 1.971304 1_554
O22 Sr0 2.671064 1_655
O22 Sr0 2.671110 1_555
O22 Sr8 2.783131 1_555
O22 Sr8 2.783142 1_655
O23 Ti3 1.971214 1_455
O23 Ti2 1.972208 1_455
O23 Sr1 2.673362 1_455
O23 Sr1 2.673373 1_555
O23 Sr9 2.783865 1_455
O23 Sr9 2.783882 1_555
O24 Ti4 1.966922 1_555
O24 Ti4 1.966930 1_655
O24 Sr2 2.667720 1_656
O24 Sr3 2.668008 1_555
O24 Sr10 2.817313 1_656
O24 Sr11 2.817795 1_555
O25 Ti5 1.966689 1_555
O25 Ti5 1.966705 1_655
O25 Sr3 2.651593 1_555
O25 Sr2 2.651821 1_655
O25 Sr11 2.830221 1_555
O25 Sr10 2.830553 1_655
O26 Ti4 1.969301 1_554
O26 Ti5 1.972860 1_555
O26 Sr2 2.657644 1_555
O26 Sr2 2.657731 1_655
O26 Sr10 2.819836 1_555
O26 Sr10 2.819863 1_655
O27 Ti4 1.969167 1_555
O27 Ti5 1.972926 1_555
O27 Sr3 2.657743 1_455
O27 Sr3 2.657771 1_555
O27 Sr11 2.819867 1_455
O27 Sr11 2.819889 1_555
