# generated using pymatgen
data_Y5Ge3
_symmetry_space_group_name_H-M   'P 1'
_cell_length_a   8.49320136
_cell_length_b   8.49320176
_cell_length_c   6.44542277
_cell_angle_alpha   90.00000000
_cell_angle_beta   90.00000000
_cell_angle_gamma   120.00000250
_symmetry_Int_Tables_number   1
_chemical_formula_structural   Y5Ge3
_chemical_formula_sum   'Y10 Ge6'
_cell_volume   402.64739274
_cell_formula_units_Z   2
loop_
 _symmetry_equiv_pos_site_id
 _symmetry_equiv_pos_as_xyz
  1  'x, y, z'
loop_
 _atom_site_type_symbol
 _atom_site_label
 _atom_site_symmetry_multiplicity
 _atom_site_fract_x
 _atom_site_fract_y
 _atom_site_fract_z
 _atom_site_occupancy
  Y  Y0  1  0.00000000  0.75703064  0.75000000  1
  Y  Y1  1  -0.00000000  0.24296936  0.25000000  1
  Y  Y2  1  0.75703064  0.75703064  0.25000000  1
  Y  Y3  1  0.75703064  0.00000000  0.75000000  1
  Y  Y4  1  0.24296936  0.24296936  0.75000000  1
  Y  Y5  1  0.24296936  -0.00000000  0.25000000  1
  Y  Y6  1  0.33333300  0.66666700  0.50000000  1
  Y  Y7  1  0.66666700  0.33333300  -0.00000000  1
  Y  Y8  1  0.66666700  0.33333300  0.50000000  1
  Y  Y9  1  0.33333300  0.66666700  -0.00000000  1
  Ge  Ge0  1  0.39338083  0.00000000  0.75000000  1
  Ge  Ge1  1  0.39338083  0.39338083  0.25000000  1
  Ge  Ge2  1  -0.00000000  0.60661917  0.25000000  1
  Ge  Ge3  1  0.00000000  0.39338083  0.75000000  1
  Ge  Ge4  1  0.60661917  0.60661917  0.75000000  1
  Ge  Ge5  1  0.60661917  -0.00000000  0.25000000  1
loop_
_geom_bond_atom_site_label_1
_geom_bond_atom_site_label_2
_geom_bond_distance
_geom_bond_site_symmetry_2
Ge0 Y0 2.920020 1_545
Ge0 Y4 2.920020 1_555
Ge0 Y6 3.070448 1_545
Ge0 Y9 3.070448 1_546
Ge0 Y7 3.070451 1_556
Ge0 Y8 3.070451 1_555
Ge0 Y3 3.088551 1_555
Ge0 Y5 3.466671 1_556
Ge0 Y5 3.466671 1_555
Ge1 Y1 2.920020 1_555
Ge1 Y5 2.920020 1_555
Ge1 Y7 3.070455 1_555
Ge1 Y8 3.070455 1_555
Ge1 Y9 3.070455 1_555
Ge1 Y6 3.070455 1_555
Ge1 Y2 3.088551 1_555
Ge1 Y4 3.466671 1_554
Ge1 Y4 3.466671 1_555
Ge2 Y5 2.920020 1_565
Ge2 Y2 2.920020 1_455
Ge2 Y6 3.070448 1_555
Ge2 Y9 3.070448 1_555
Ge2 Y7 3.070451 1_455
Ge2 Y8 3.070451 1_455
Ge2 Y1 3.088551 1_555
Ge2 Y0 3.466671 1_554
Ge2 Y0 3.466671 1_555
Ge3 Y3 2.920020 1_455
Ge3 Y4 2.920020 1_555
Ge3 Y8 3.070448 1_455
Ge3 Y7 3.070448 1_456
Ge3 Y9 3.070451 1_556
Ge3 Y6 3.070451 1_555
Ge3 Y0 3.088551 1_555
Ge3 Y1 3.466671 1_556
Ge3 Y1 3.466671 1_555
Ge4 Y0 2.920020 1_655
Ge4 Y3 2.920020 1_565
Ge4 Y9 3.070455 1_556
Ge4 Y6 3.070455 1_555
Ge4 Y8 3.070455 1_555
Ge4 Y7 3.070455 1_556
Ge4 Y4 3.088551 1_555
Ge4 Y2 3.466671 1_556
Ge4 Y2 3.466671 1_555
Ge5 Y1 2.920020 1_655
Ge5 Y2 2.920020 1_545
Ge5 Y8 3.070448 1_555
Ge5 Y7 3.070448 1_555
Ge5 Y9 3.070451 1_545
Ge5 Y6 3.070451 1_545
Ge5 Y5 3.088551 1_555
Ge5 Y3 3.466671 1_554
Ge5 Y3 3.466671 1_555
