# generated using pymatgen
data_Nb(FeGe)6
_symmetry_space_group_name_H-M   'P 1'
_cell_length_a   5.01489977
_cell_length_b   5.01491607
_cell_length_c   8.14552872
_cell_angle_alpha   90.00000000
_cell_angle_beta   90.00000000
_cell_angle_gamma   119.99921043
_symmetry_Int_Tables_number   1
_chemical_formula_structural   Nb(FeGe)6
_chemical_formula_sum   'Nb1 Fe6 Ge6'
_cell_volume   177.41048877
_cell_formula_units_Z   1
loop_
 _symmetry_equiv_pos_site_id
 _symmetry_equiv_pos_as_xyz
  1  'x, y, z'
loop_
 _atom_site_type_symbol
 _atom_site_label
 _atom_site_symmetry_multiplicity
 _atom_site_fract_x
 _atom_site_fract_y
 _atom_site_fract_z
 _atom_site_occupancy
  Nb  Nb0  1  0.00000000  0.00000000  -0.00000000  1
  Fe  Fe0  1  0.00000000  0.50000000  0.75088166  1
  Fe  Fe1  1  0.50000000  0.00000000  0.24911924  1
  Fe  Fe2  1  0.50000000  0.50000000  0.24911908  1
  Fe  Fe3  1  0.00000000  0.50000000  0.24911834  1
  Fe  Fe4  1  0.50000000  0.00000000  0.75088076  1
  Fe  Fe5  1  0.50000000  0.50000000  0.75088092  1
  Ge  Ge0  1  0.00000000  0.00000000  0.66256560  1
  Ge  Ge1  1  0.33333795  0.66666213  0.50000000  1
  Ge  Ge2  1  0.66666205  0.33333787  0.50000000  1
  Ge  Ge3  1  0.33333535  0.66666053  -0.00000000  1
  Ge  Ge4  1  0.66666465  0.33333947  -0.00000000  1
  Ge  Ge5  1  0.00000000  0.00000000  0.33743440  1
loop_
_geom_bond_atom_site_label_1
_geom_bond_atom_site_label_2
_geom_bond_distance
_geom_bond_site_symmetry_2
Fe0 Ge3 2.492686 1_556
Fe0 Ge4 2.492686 1_456
Fe0 Ge2 2.504399 1_455
Fe0 Ge1 2.504399 1_555
Fe0 Fe5 2.507450 1_455
Fe0 Fe5 2.507450 1_555
Fe0 Fe4 2.507484 1_565
Fe0 Fe4 2.507484 1_455
Fe0 Ge0 2.608612 1_555
Fe0 Ge0 2.608612 1_565
Fe1 Ge4 2.492705 1_555
Fe1 Ge3 2.492705 1_545
Fe1 Ge2 2.504395 1_555
Fe1 Ge1 2.504395 1_545
Fe1 Fe2 2.507458 1_545
Fe1 Fe2 2.507458 1_555
Fe1 Fe3 2.507484 1_655
Fe1 Fe3 2.507484 1_545
Fe1 Ge5 2.608602 1_655
Fe1 Ge5 2.608602 1_555
Fe2 Ge4 2.492656 1_555
Fe2 Ge3 2.492656 1_555
Fe2 Ge1 2.504351 1_555
Fe2 Ge2 2.504351 1_555
Fe2 Fe3 2.507450 1_555
Fe2 Fe3 2.507450 1_655
Fe2 Ge5 2.608635 1_555
Fe2 Ge5 2.608635 1_665
Fe3 Ge3 2.492686 1_555
Fe3 Ge4 2.492686 1_455
Fe3 Ge2 2.504399 1_455
Fe3 Ge1 2.504399 1_555
Fe3 Ge5 2.608612 1_555
Fe3 Ge5 2.608612 1_565
Fe4 Ge3 2.492705 1_546
Fe4 Ge4 2.492705 1_556
Fe4 Ge2 2.504395 1_555
Fe4 Ge1 2.504395 1_545
Fe4 Fe5 2.507458 1_555
Fe4 Fe5 2.507458 1_545
Fe4 Ge0 2.608602 1_555
Fe4 Ge0 2.608602 1_655
Fe5 Ge4 2.492656 1_556
Fe5 Ge3 2.492656 1_556
Fe5 Ge2 2.504351 1_555
Fe5 Ge1 2.504351 1_555
Fe5 Ge0 2.608635 1_555
Fe5 Ge0 2.608635 1_665
Ge0 Ge5 2.648366 1_555
Ge0 Nb0 2.748582 1_556
Ge3 Nb0 2.895360 1_555
Ge3 Nb0 2.895368 1_665
Ge3 Nb0 2.895382 1_565
Ge4 Nb0 2.895360 1_665
Ge4 Nb0 2.895368 1_555
Ge4 Nb0 2.895382 1_655
Ge5 Nb0 2.748582 1_555
