# generated using pymatgen
data_Sr3TaCoO7
_symmetry_space_group_name_H-M   'P 1'
_cell_length_a   3.95244605
_cell_length_b   3.95342802
_cell_length_c   21.39505845
_cell_angle_alpha   89.98534961
_cell_angle_beta   90.01866638
_cell_angle_gamma   89.76955327
_symmetry_Int_Tables_number   1
_chemical_formula_structural   Sr3TaCoO7
_chemical_formula_sum   'Sr6 Ta2 Co2 O14'
_cell_volume   334.31026678
_cell_formula_units_Z   2
loop_
 _symmetry_equiv_pos_site_id
 _symmetry_equiv_pos_as_xyz
  1  'x, y, z'
loop_
 _atom_site_type_symbol
 _atom_site_label
 _atom_site_symmetry_multiplicity
 _atom_site_fract_x
 _atom_site_fract_y
 _atom_site_fract_z
 _atom_site_occupancy
  Sr  Sr0  1  0.00011400  0.99984400  0.48227600  1
  Sr  Sr1  1  0.49774500  0.50306000  0.98012900  1
  Sr  Sr2  1  0.50000400  0.50001900  0.19098600  1
  Sr  Sr3  1  0.00048900  0.99931900  0.69409600  1
  Sr  Sr4  1  0.99998500  0.00000100  0.31711600  1
  Sr  Sr5  1  0.50318500  0.49559700  0.81986200  1
  Ta  Ta0  1  0.99969400  0.00041800  0.09608900  1
  Ta  Ta1  1  0.50006600  0.49990400  0.59863900  1
  Co  Co0  1  0.00002900  0.99988900  0.89685300  1
  Co  Co1  1  0.49994900  0.50004700  0.39433200  1
  O  O0  1  0.49991700  0.50010600  0.30089300  1
  O  O1  1  0.99933700  0.00134900  0.80335700  1
  O  O2  1  0.00026000  0.99962200  0.19337600  1
  O  O3  1  0.50042600  0.49945400  0.69534400  1
  O  O4  1  0.00004600  0.99967900  0.00641800  1
  O  O5  1  0.49987600  0.50014900  0.50867200  1
  O  O6  1  0.99999000  0.49999200  0.40322400  1
  O  O7  1  0.49869400  0.00001800  0.90345700  1
  O  O8  1  0.50000100  0.00001500  0.40322400  1
  O  O9  1  0.00014400  0.50163700  0.90344100  1
  O  O10  1  0.49992500  0.99986200  0.10110900  1
  O  O11  1  0.00006300  0.50003900  0.60300100  1
  O  O12  1  0.00009400  0.50006800  0.10111000  1
  O  O13  1  0.49996600  0.99991100  0.60299600  1
loop_
_geom_bond_atom_site_label_1
_geom_bond_atom_site_label_2
_geom_bond_distance
_geom_bond_site_symmetry_2
Co0 O9 1.974802 1_555
Co0 O7 1.975961 1_565
Co0 O7 1.986575 1_465
Co0 O9 1.988664 1_565
Co0 O1 2.000360 1_465
Co0 O4 2.344149 1_556
Co1 O6 1.985260 1_455
Co1 O6 1.985458 1_555
Co1 O8 1.985771 1_565
Co1 O8 1.985924 1_555
Co1 O0 1.999133 1_555
Co1 O5 2.446311 1_555
O0 Sr2 2.351467 1_555
O0 Sr4 2.810696 1_465
O0 Sr4 2.811370 1_555
O0 Sr4 2.822069 1_565
O0 Sr4 2.822309 1_455
O1 Sr3 2.337667 1_645
O1 Sr5 2.785367 1_555
O1 Sr5 2.817749 1_655
O1 Sr5 2.828378 1_545
O1 Sr5 2.838215 1_645
O2 Ta0 2.081463 1_465
O2 Sr4 2.647426 1_465
O2 Sr2 2.788190 1_555
O2 Sr2 2.791791 1_465
O2 Sr2 2.800834 1_455
O2 Sr2 2.801629 1_565
O3 Ta1 2.069009 1_555
O3 Sr5 2.664128 1_555
O3 Sr3 2.789086 1_555
O3 Sr3 2.790213 1_645
O3 Sr3 2.800691 1_655
O3 Sr3 2.801092 1_545
O4 Ta0 1.918520 1_465
O4 Sr1 2.830354 1_554
O4 Sr1 2.853729 1_454
O4 Sr1 2.859722 1_564
O4 Sr1 2.860975 1_464
O5 Ta1 1.924849 1_555
O5 Sr0 2.844402 1_555
O5 Sr0 2.847827 1_645
O5 Sr0 2.856978 1_655
O5 Sr0 2.857292 1_545
O6 Sr0 2.601417 1_655
O6 Sr0 2.601646 1_645
O6 Sr4 2.701794 1_565
O6 Sr4 2.702432 1_555
O7 Sr1 2.559169 1_545
O7 Sr1 2.578300 1_555
O7 Sr5 2.652590 1_555
O7 Sr5 2.679082 1_545
O8 Sr0 2.601078 1_645
O8 Sr0 2.601240 1_545
O8 Sr4 2.701361 1_455
O8 Sr4 2.702146 1_555
O9 Sr1 2.560886 1_555
O9 Sr1 2.576264 1_455
O9 Sr5 2.656004 1_455
O9 Sr5 2.674549 1_555
O10 Ta0 1.978273 1_565
O10 Ta0 1.980009 1_465
O10 Sr2 2.756924 1_555
O10 Sr2 2.758521 1_565
O11 Ta1 1.978385 1_455
O11 Ta1 1.978466 1_555
O11 Sr3 2.774289 1_555
O11 Sr3 2.777624 1_545
O12 Ta0 1.978284 1_455
O12 Ta0 1.980979 1_465
O12 Sr2 2.756651 1_555
O12 Sr2 2.758060 1_455
O13 Ta1 1.978861 1_565
O13 Ta1 1.978961 1_555
O13 Sr3 2.774669 1_555
O13 Sr3 2.776695 1_655
