# generated using pymatgen
data_SmMn2O5
_symmetry_space_group_name_H-M   'P 1'
_cell_length_a   5.70648833
_cell_length_b   7.39461808
_cell_length_c   8.57926042
_cell_angle_alpha   90.00000000
_cell_angle_beta   90.00000000
_cell_angle_gamma   90.00000000
_symmetry_Int_Tables_number   1
_chemical_formula_structural   SmMn2O5
_chemical_formula_sum   'Sm4 Mn8 O20'
_cell_volume   362.02164098
_cell_formula_units_Z   4
loop_
 _symmetry_equiv_pos_site_id
 _symmetry_equiv_pos_as_xyz
  1  'x, y, z'
loop_
 _atom_site_type_symbol
 _atom_site_label
 _atom_site_symmetry_multiplicity
 _atom_site_fract_x
 _atom_site_fract_y
 _atom_site_fract_z
 _atom_site_occupancy
  Sm  Sm0  1  -0.00000000  0.36041379  0.67211828  1
  Sm  Sm1  1  -0.00000000  0.63958621  0.32788172  1
  Sm  Sm2  1  -0.00000000  0.86041379  0.82788172  1
  Sm  Sm3  1  -0.00000000  0.13958621  0.17211828  1
  Mn  Mn0  1  0.50000000  0.08907358  0.85043141  1
  Mn  Mn1  1  0.50000000  0.91092642  0.14956859  1
  Mn  Mn2  1  0.50000000  0.58907358  0.64956859  1
  Mn  Mn3  1  0.50000000  0.41092642  0.35043141  1
  Mn  Mn4  1  0.25604331  0.50000000  -0.00000000  1
  Mn  Mn5  1  0.74395669  0.00000000  0.50000000  1
  Mn  Mn6  1  0.74395669  0.50000000  -0.00000000  1
  Mn  Mn7  1  0.25604331  -0.00000000  0.50000000  1
  O  O0  1  0.24818982  0.89911700  0.29382832  1
  O  O1  1  0.24818982  0.10088300  0.70617168  1
  O  O2  1  0.75181018  0.39911700  0.20617168  1
  O  O3  1  0.75181018  0.60088300  0.79382832  1
  O  O4  1  0.75181018  0.10088300  0.70617168  1
  O  O5  1  0.75181018  0.89911700  0.29382832  1
  O  O6  1  0.24818982  0.60088300  0.79382832  1
  O  O7  1  0.24818982  0.39911700  0.20617168  1
  O  O8  1  0.50000000  0.34661217  0.93607503  1
  O  O9  1  0.50000000  0.65338783  0.06392497  1
  O  O10  1  0.50000000  0.84661217  0.56392497  1
  O  O11  1  0.50000000  0.15338783  0.43607503  1
  O  O12  1  0.27579815  0.00000000  -0.00000000  1
  O  O13  1  0.72420185  0.50000000  0.50000000  1
  O  O14  1  0.72420185  -0.00000000  -0.00000000  1
  O  O15  1  0.27579815  0.50000000  0.50000000  1
  O  O16  1  -0.00000000  0.15970317  0.44686953  1
  O  O17  1  -0.00000000  0.84029683  0.55313047  1
  O  O18  1  -0.00000000  0.65970317  0.05313047  1
  O  O19  1  -0.00000000  0.34029683  0.94686953  1
loop_
_geom_bond_atom_site_label_1
_geom_bond_atom_site_label_2
_geom_bond_distance
_geom_bond_site_symmetry_2
Mn0 O1 1.898477 1_555
Mn0 O4 1.898477 1_555
Mn0 O12 1.928027 1_556
Mn0 O14 1.928027 1_556
Mn0 O8 2.041227 1_555
Mn1 O0 1.898477 1_555
Mn1 O5 1.898477 1_555
Mn1 O12 1.928027 1_565
Mn1 O14 1.928027 1_565
Mn1 O9 2.041227 1_555
Mn2 O3 1.898477 1_555
Mn2 O6 1.898477 1_555
Mn2 O15 1.928027 1_555
Mn2 O13 1.928027 1_555
Mn2 O10 2.041227 1_555
Mn3 O2 1.898477 1_555
Mn3 O7 1.898477 1_555
Mn3 O15 1.928027 1_555
Mn3 O13 1.928027 1_555
Mn3 O11 2.041227 1_555
Mn4 O8 1.877586 1_554
Mn4 O9 1.877586 1_555
Mn4 O6 1.920200 1_554
Mn4 O7 1.920200 1_555
Mn4 O19 1.933194 1_554
Mn4 O18 1.933194 1_555
Mn5 O10 1.877586 1_545
Mn5 O11 1.877586 1_555
Mn5 O4 1.920200 1_555
Mn5 O5 1.920200 1_545
Mn5 O16 1.933194 1_655
Mn5 O17 1.933194 1_645
Mn6 O8 1.877586 1_554
Mn6 O9 1.877586 1_555
Mn6 O3 1.920200 1_554
Mn6 O2 1.920200 1_555
Mn6 O19 1.933194 1_654
Mn6 O18 1.933194 1_655
Mn7 O10 1.877586 1_545
Mn7 O11 1.877586 1_555
Mn7 O1 1.920200 1_555
Mn7 O0 1.920200 1_545
Mn7 O17 1.933194 1_545
Mn7 O16 1.933194 1_555
O0 Sm1 2.402978 1_555
O0 Sm3 2.501623 1_565
O1 Sm0 2.402978 1_555
O1 Sm2 2.501623 1_545
O2 Sm3 2.402978 1_655
O2 Sm1 2.501623 1_655
O3 Sm2 2.402978 1_655
O3 Sm0 2.501623 1_655
O4 Sm0 2.402978 1_655
O4 Sm2 2.501623 1_645
O5 Sm1 2.402978 1_655
O5 Sm3 2.501623 1_665
O6 Sm2 2.402978 1_555
O6 Sm0 2.501623 1_555
O7 Sm3 2.402978 1_555
O7 Sm1 2.501623 1_555
O12 Sm2 2.392251 1_544
O12 Sm3 2.392251 1_555
O13 Sm1 2.392251 1_655
O13 Sm0 2.392251 1_655
O14 Sm2 2.392251 1_644
O14 Sm3 2.392251 1_655
O15 Sm1 2.392251 1_555
O15 Sm0 2.392251 1_555
O16 Sm3 2.361852 1_555
O16 Sm0 2.436640 1_555
O17 Sm2 2.361852 1_555
O17 Sm1 2.436640 1_555
O18 Sm1 2.361852 1_555
O18 Sm2 2.436640 1_554
O19 Sm0 2.361852 1_555
O19 Sm3 2.436640 1_556
