# generated using pymatgen
data_Zr6Al2Co
_symmetry_space_group_name_H-M   'P 1'
_cell_length_a   15.85383012
_cell_length_b   15.85399637
_cell_length_c   6.65687604
_cell_angle_alpha   90.00000000
_cell_angle_beta   90.00000000
_cell_angle_gamma   119.99950468
_symmetry_Int_Tables_number   1
_chemical_formula_structural   Zr6Al2Co
_chemical_formula_sum   'Zr48 Al16 Co8'
_cell_volume   1449.02615300
_cell_formula_units_Z   8
loop_
 _symmetry_equiv_pos_site_id
 _symmetry_equiv_pos_as_xyz
  1  'x, y, z'
loop_
 _atom_site_type_symbol
 _atom_site_label
 _atom_site_symmetry_multiplicity
 _atom_site_fract_x
 _atom_site_fract_y
 _atom_site_fract_z
 _atom_site_occupancy
  Zr  Zr0_0  1  0.29917889  0.49999954  0.00000000  1
  Zr  Zr0_1  1  0.29917889  0.49999954  0.50000000  1
  Zr  Zr0_2  1  0.29917888  0.99999954  0.00000000  1
  Zr  Zr0_3  1  0.29917888  0.99999954  0.50000000  1
  Zr  Zr0_4  1  0.79917889  0.49999954  0.00000000  1
  Zr  Zr0_5  1  0.79917889  0.49999954  0.50000000  1
  Zr  Zr0_6  1  0.79917889  0.99999954  0.00000000  1
  Zr  Zr0_7  1  0.79917889  0.99999954  0.50000000  1
  Zr  Zr1_0  1  0.20078020  0.20076208  0.00000000  1
  Zr  Zr1_1  1  0.20078020  0.20076208  0.50000000  1
  Zr  Zr1_2  1  0.20078020  0.70076207  0.00000000  1
  Zr  Zr1_3  1  0.20078020  0.70076207  0.50000000  1
  Zr  Zr1_4  1  0.70078020  0.20076208  0.00000000  1
  Zr  Zr1_5  1  0.70078020  0.20076208  0.50000000  1
  Zr  Zr1_6  1  0.70078020  0.70076207  0.00000000  1
  Zr  Zr1_7  1  0.70078020  0.70076207  0.50000000  1
  Zr  Zr2_0  1  0.50001715  0.29923737  0.00000000  1
  Zr  Zr2_1  1  0.50001715  0.29923737  0.50000000  1
  Zr  Zr2_2  1  0.50001715  0.79923737  0.00000000  1
  Zr  Zr2_3  1  0.50001715  0.79923737  0.50000000  1
  Zr  Zr2_4  1  0.00001715  0.29923737  0.00000000  1
  Zr  Zr2_5  1  0.00001715  0.29923737  0.50000000  1
  Zr  Zr2_6  1  0.00001715  0.79923737  0.00000000  1
  Zr  Zr2_7  1  0.00001715  0.79923737  0.50000000  1
  Zr  Zr3_0  1  0.12441858  0.00000686  0.25000000  1
  Zr  Zr3_1  1  0.12441858  0.00000686  0.75000000  1
  Zr  Zr3_2  1  0.12441858  0.50000686  0.25000000  1
  Zr  Zr3_3  1  0.12441858  0.50000686  0.75000000  1
  Zr  Zr3_4  1  0.62441858  0.00000686  0.25000000  1
  Zr  Zr3_5  1  0.62441858  0.00000686  0.75000000  1
  Zr  Zr3_6  1  0.62441858  0.50000686  0.25000000  1
  Zr  Zr3_7  1  0.62441858  0.50000686  0.75000000  1
  Zr  Zr4_0  1  0.37560713  0.37560618  0.25000000  1
  Zr  Zr4_1  1  0.37560713  0.37560618  0.75000000  1
  Zr  Zr4_2  1  0.37560713  0.87560618  0.25000000  1
  Zr  Zr4_3  1  0.37560713  0.87560618  0.75000000  1
  Zr  Zr4_4  1  0.87560713  0.37560618  0.25000000  1
  Zr  Zr4_5  1  0.87560713  0.37560618  0.75000000  1
  Zr  Zr4_6  1  0.87560713  0.87560618  0.25000000  1
  Zr  Zr4_7  1  0.87560713  0.87560618  0.75000000  1
  Zr  Zr5_0  1  0.00000709  0.12439001  0.25000000  1
  Zr  Zr5_1  1  0.00000709  0.12439001  0.75000000  1
  Zr  Zr5_2  1  0.00000709  0.62439001  0.25000000  1
  Zr  Zr5_3  1  0.00000709  0.62439001  0.75000000  1
  Zr  Zr5_4  1  0.50000709  0.12439001  0.25000000  1
  Zr  Zr5_5  1  0.50000709  0.12439001  0.75000000  1
  Zr  Zr5_6  1  0.50000709  0.62439001  0.25000000  1
  Zr  Zr5_7  1  0.50000709  0.62439001  0.75000000  1
  Al  Al0_0  1  0.33332359  0.16665473  0.25000000  1
  Al  Al0_1  1  0.33332359  0.16665473  0.75000000  1
  Al  Al0_2  1  0.33332359  0.66665473  0.25000000  1
  Al  Al0_3  1  0.33332359  0.66665473  0.75000000  1
  Al  Al0_4  1  0.83332359  0.16665473  0.25000000  1
  Al  Al0_5  1  0.83332359  0.16665473  0.75000000  1
  Al  Al0_6  1  0.83332359  0.66665473  0.25000000  1
  Al  Al0_7  1  0.83332359  0.66665473  0.75000000  1
  Al  Al1_0  1  0.16667173  0.33334572  0.25000000  1
  Al  Al1_1  1  0.16667173  0.33334572  0.75000000  1
  Al  Al1_2  1  0.16667173  0.83334572  0.25000000  1
  Al  Al1_3  1  0.16667173  0.83334572  0.75000000  1
  Al  Al1_4  1  0.66667173  0.33334572  0.25000000  1
  Al  Al1_5  1  0.66667173  0.33334572  0.75000000  1
  Al  Al1_6  1  0.66667173  0.83334572  0.25000000  1
  Al  Al1_7  1  0.66667173  0.83334572  0.75000000  1
  Co  Co0_0  1  0.99999665  0.99999801  0.00000000  1
  Co  Co0_1  1  0.99999665  0.99999801  0.50000000  1
  Co  Co0_2  1  0.99999665  0.49999800  0.00000000  1
  Co  Co0_3  1  0.99999665  0.49999800  0.50000000  1
  Co  Co0_4  1  0.49999665  0.99999801  0.00000000  1
  Co  Co0_5  1  0.49999665  0.99999801  0.50000000  1
  Co  Co0_6  1  0.49999665  0.49999800  0.00000000  1
  Co  Co0_7  1  0.49999665  0.49999800  0.50000000  1
loop_
_geom_bond_atom_site_label_1
_geom_bond_atom_site_label_2
_geom_bond_distance
_geom_bond_site_symmetry_2
Zr0_0 Zr3_3 3.232071 1_554
Zr0_0 Zr3_2 3.232071 1_555
Zr0_0 Zr4_1 3.242939 1_554
Zr0_0 Zr4_0 3.242939 1_555
Zr0_0 Zr5_6 3.243011 1_555
Zr0_0 Zr5_7 3.243011 1_554
Zr0_0 Zr0_1 3.328438 1_554
Zr0_0 Zr0_1 3.328438 1_555
Zr0_1 Zr3_3 3.232071 1_555
Zr0_1 Zr3_2 3.232071 1_555
Zr0_1 Zr4_1 3.242939 1_555
Zr0_1 Zr4_0 3.242939 1_555
Zr0_1 Zr5_6 3.243011 1_555
Zr0_1 Zr5_7 3.243011 1_555
Zr0_2 Zr3_0 3.232071 1_565
Zr0_2 Zr3_1 3.232071 1_564
Zr0_2 Zr4_2 3.242939 1_555
Zr0_2 Zr4_3 3.242939 1_554
Zr0_2 Zr5_4 3.243011 1_565
Zr0_2 Zr5_5 3.243011 1_564
Zr0_2 Zr0_3 3.328438 1_554
Zr0_2 Zr0_3 3.328438 1_555
Zr0_3 Zr3_1 3.232071 1_565
Zr0_3 Zr3_0 3.232071 1_565
Zr0_3 Zr4_2 3.242939 1_555
Zr0_3 Zr4_3 3.242939 1_555
Zr0_3 Zr5_4 3.243011 1_565
Zr0_3 Zr5_5 3.243011 1_565
Zr0_4 Zr3_7 3.232071 1_554
Zr0_4 Zr3_6 3.232071 1_555
Zr0_4 Zr4_4 3.242939 1_555
Zr0_4 Zr4_5 3.242939 1_554
Zr0_4 Zr5_3 3.243011 1_654
Zr0_4 Zr5_2 3.243011 1_655
Zr0_4 Zr0_5 3.328438 1_554
Zr0_4 Zr0_5 3.328438 1_555
Zr0_5 Zr3_7 3.232071 1_555
Zr0_5 Zr3_6 3.232071 1_555
Zr0_5 Zr4_4 3.242939 1_555
Zr0_5 Zr4_5 3.242939 1_555
Zr0_5 Zr5_3 3.243011 1_655
Zr0_5 Zr5_2 3.243011 1_655
Zr0_6 Zr3_5 3.232071 1_564
Zr0_6 Zr3_4 3.232071 1_565
Zr0_6 Zr4_7 3.242939 1_554
Zr0_6 Zr4_6 3.242939 1_555
Zr0_6 Zr5_1 3.243011 1_664
Zr0_6 Zr5_0 3.243011 1_665
Zr0_6 Zr0_7 3.328438 1_555
Zr0_6 Zr0_7 3.328438 1_554
Zr0_7 Zr3_5 3.232071 1_565
Zr0_7 Zr3_4 3.232071 1_565
Zr0_7 Zr4_7 3.242939 1_555
Zr0_7 Zr4_6 3.242939 1_555
Zr0_7 Zr5_1 3.243011 1_665
Zr0_7 Zr5_0 3.243011 1_665
Zr1_0 Zr4_0 3.233074 1_555
Zr1_0 Zr4_1 3.233074 1_554
Zr1_0 Zr3_0 3.242251 1_555
Zr1_0 Zr3_1 3.242251 1_554
Zr1_0 Zr5_0 3.242429 1_555
Zr1_0 Zr5_1 3.242429 1_554
Zr1_0 Zr1_1 3.328438 1_555
Zr1_0 Zr1_1 3.328438 1_554
Zr1_1 Zr4_0 3.233074 1_555
Zr1_1 Zr4_1 3.233074 1_555
Zr1_1 Zr3_0 3.242251 1_555
Zr1_1 Zr3_1 3.242251 1_555
Zr1_1 Zr5_0 3.242429 1_555
Zr1_1 Zr5_1 3.242429 1_555
Zr1_2 Zr4_3 3.233074 1_554
Zr1_2 Zr4_2 3.233074 1_555
Zr1_2 Zr3_3 3.242251 1_554
Zr1_2 Zr3_2 3.242251 1_555
Zr1_2 Zr5_3 3.242429 1_554
Zr1_2 Zr5_2 3.242429 1_555
Zr1_2 Zr1_3 3.328438 1_555
Zr1_2 Zr1_3 3.328438 1_554
Zr1_3 Zr4_3 3.233074 1_555
Zr1_3 Zr4_2 3.233074 1_555
Zr1_3 Zr3_3 3.242251 1_555
Zr1_3 Zr3_2 3.242251 1_555
Zr1_3 Zr5_3 3.242429 1_555
Zr1_3 Zr5_2 3.242429 1_555
Zr1_4 Zr4_4 3.233074 1_555
Zr1_4 Zr4_5 3.233074 1_554
Zr1_4 Zr3_4 3.242251 1_555
Zr1_4 Zr3_5 3.242251 1_554
Zr1_4 Zr5_4 3.242429 1_555
Zr1_4 Zr5_5 3.242429 1_554
Zr1_4 Zr1_5 3.328438 1_555
Zr1_4 Zr1_5 3.328438 1_554
Zr1_5 Zr4_4 3.233074 1_555
Zr1_5 Zr4_5 3.233074 1_555
Zr1_5 Zr3_4 3.242251 1_555
Zr1_5 Zr3_5 3.242251 1_555
Zr1_5 Zr5_4 3.242429 1_555
Zr1_5 Zr5_5 3.242429 1_555
Zr1_6 Zr4_7 3.233074 1_554
Zr1_6 Zr4_6 3.233074 1_555
Zr1_6 Zr3_6 3.242251 1_555
Zr1_6 Zr3_7 3.242251 1_554
Zr1_6 Zr5_7 3.242429 1_554
Zr1_6 Zr5_6 3.242429 1_555
Zr1_6 Zr1_7 3.328438 1_554
Zr1_6 Zr1_7 3.328438 1_555
Zr1_7 Zr4_7 3.233074 1_555
Zr1_7 Zr4_6 3.233074 1_555
Zr1_7 Zr3_7 3.242251 1_555
Zr1_7 Zr3_6 3.242251 1_555
Zr1_7 Zr5_7 3.242429 1_555
Zr1_7 Zr5_6 3.242429 1_555
Zr2_0 Zr5_4 3.233161 1_555
Zr2_0 Zr5_5 3.233161 1_554
Zr2_0 Zr3_6 3.242421 1_555
Zr2_0 Zr3_7 3.242421 1_554
Zr2_0 Zr4_0 3.242503 1_555
Zr2_0 Zr4_1 3.242503 1_554
Zr2_0 Zr2_1 3.328438 1_554
Zr2_0 Zr2_1 3.328438 1_555
Zr2_1 Zr5_5 3.233161 1_555
Zr2_1 Zr5_4 3.233161 1_555
Zr2_1 Zr3_6 3.242421 1_555
Zr2_1 Zr3_7 3.242421 1_555
Zr2_1 Zr4_0 3.242503 1_555
Zr2_1 Zr4_1 3.242503 1_555
Zr2_2 Zr5_6 3.233161 1_555
Zr2_2 Zr5_7 3.233161 1_554
Zr2_2 Zr3_4 3.242421 1_565
Zr2_2 Zr3_5 3.242421 1_564
Zr2_2 Zr4_3 3.242503 1_554
Zr2_2 Zr4_2 3.242503 1_555
Zr2_2 Zr2_3 3.328438 1_555
Zr2_2 Zr2_3 3.328438 1_554
Zr2_3 Zr5_6 3.233161 1_555
Zr2_3 Zr5_7 3.233161 1_555
Zr2_3 Zr3_4 3.242421 1_565
Zr2_3 Zr3_5 3.242421 1_565
Zr2_3 Zr4_3 3.242503 1_555
Zr2_3 Zr4_2 3.242503 1_555
Zr2_4 Zr5_0 3.233161 1_555
Zr2_4 Zr5_1 3.233161 1_554
Zr2_4 Zr3_3 3.242421 1_554
Zr2_4 Zr3_2 3.242421 1_555
Zr2_4 Zr4_4 3.242503 1_455
Zr2_4 Zr4_5 3.242503 1_454
Zr2_4 Zr2_5 3.328438 1_554
Zr2_4 Zr2_5 3.328438 1_555
Zr2_5 Zr5_0 3.233161 1_555
Zr2_5 Zr5_1 3.233161 1_555
Zr2_5 Zr3_3 3.242421 1_555
Zr2_5 Zr3_2 3.242421 1_555
Zr2_5 Zr4_4 3.242503 1_455
Zr2_5 Zr4_5 3.242503 1_455
Zr2_6 Zr5_2 3.233161 1_555
Zr2_6 Zr5_3 3.233161 1_554
Zr2_6 Zr3_1 3.242421 1_564
Zr2_6 Zr3_0 3.242421 1_565
Zr2_6 Zr4_6 3.242503 1_455
Zr2_6 Zr4_7 3.242503 1_454
Zr2_6 Zr2_7 3.328438 1_554
Zr2_6 Zr2_7 3.328438 1_555
Zr2_7 Zr5_2 3.233161 1_555
Zr2_7 Zr5_3 3.233161 1_555
Zr2_7 Zr3_0 3.242421 1_565
Zr2_7 Zr3_1 3.242421 1_565
Zr2_7 Zr4_6 3.242503 1_455
Zr2_7 Zr4_7 3.242503 1_455
Al0_0 Zr0_2 2.934856 1_545
Al0_0 Zr0_3 2.934856 1_545
Al0_0 Zr1_0 2.934930 1_555
Al0_0 Zr1_1 2.934930 1_555
Al0_0 Zr2_0 2.935484 1_555
Al0_0 Zr2_1 2.935484 1_555
Al0_0 Zr3_0 3.033015 1_555
Al0_0 Zr4_0 3.033611 1_555
Al0_0 Zr5_4 3.033618 1_555
Al0_1 Zr0_3 2.934856 1_545
Al0_1 Zr0_2 2.934856 1_546
Al0_1 Zr1_0 2.934930 1_556
Al0_1 Zr1_1 2.934930 1_555
Al0_1 Zr2_0 2.935484 1_556
Al0_1 Zr2_1 2.935484 1_555
Al0_1 Zr3_1 3.033015 1_555
Al0_1 Zr4_1 3.033611 1_555
Al0_1 Zr5_5 3.033618 1_555
Al0_2 Zr0_1 2.934856 1_555
Al0_2 Zr0_0 2.934856 1_555
Al0_2 Zr1_2 2.934930 1_555
Al0_2 Zr1_3 2.934930 1_555
Al0_2 Zr2_2 2.935484 1_555
Al0_2 Zr2_3 2.935484 1_555
Al0_2 Zr3_2 3.033015 1_555
Al0_2 Zr4_2 3.033611 1_555
Al0_2 Zr5_6 3.033618 1_555
Al0_3 Zr0_1 2.934856 1_555
Al0_3 Zr0_0 2.934856 1_556
Al0_3 Zr1_2 2.934930 1_556
Al0_3 Zr1_3 2.934930 1_555
Al0_3 Zr2_2 2.935484 1_556
Al0_3 Zr2_3 2.935484 1_555
Al0_3 Zr3_3 3.033015 1_555
Al0_3 Zr4_3 3.033611 1_555
Al0_3 Zr5_7 3.033618 1_555
Al0_4 Zr0_7 2.934856 1_545
Al0_4 Zr0_6 2.934856 1_545
Al0_4 Zr1_4 2.934930 1_555
Al0_4 Zr1_5 2.934930 1_555
Al0_4 Zr2_4 2.935484 1_655
Al0_4 Zr2_5 2.935484 1_655
Al0_4 Zr3_4 3.033015 1_555
Al0_4 Zr4_4 3.033611 1_555
Al0_4 Zr5_0 3.033618 1_655
Al0_5 Zr0_6 2.934856 1_546
Al0_5 Zr0_7 2.934856 1_545
Al0_5 Zr1_4 2.934930 1_556
Al0_5 Zr1_5 2.934930 1_555
Al0_5 Zr2_4 2.935484 1_656
Al0_5 Zr2_5 2.935484 1_655
Al0_5 Zr3_5 3.033015 1_555
Al0_5 Zr4_5 3.033611 1_555
Al0_5 Zr5_1 3.033618 1_655
Al0_6 Zr0_5 2.934856 1_555
Al0_6 Zr0_4 2.934856 1_555
Al0_6 Zr1_6 2.934930 1_555
Al0_6 Zr1_7 2.934930 1_555
Al0_6 Zr2_7 2.935484 1_655
Al0_6 Zr2_6 2.935484 1_655
Al0_6 Zr3_6 3.033015 1_555
Al0_6 Zr4_6 3.033611 1_555
Al0_6 Zr5_2 3.033618 1_655
Al0_7 Zr0_5 2.934856 1_555
Al0_7 Zr0_4 2.934856 1_556
Al0_7 Zr1_7 2.934930 1_555
Al0_7 Zr1_6 2.934930 1_556
Al0_7 Zr2_6 2.935484 1_656
Al0_7 Zr2_7 2.935484 1_655
Al0_7 Zr3_7 3.033015 1_555
Al0_7 Zr4_7 3.033611 1_555
Al0_7 Zr5_3 3.033618 1_655
Al1_0 Zr0_0 2.934833 1_555
Al1_0 Zr0_1 2.934833 1_555
Al1_0 Zr2_4 2.934977 1_555
Al1_0 Zr2_5 2.934977 1_555
Al1_0 Zr1_0 2.935470 1_555
Al1_0 Zr1_1 2.935470 1_555
Al1_0 Zr3_2 3.033173 1_555
Al1_0 Zr4_0 3.033444 1_555
Al1_0 Zr5_0 3.033643 1_555
Al1_1 Zr0_0 2.934833 1_556
Al1_1 Zr0_1 2.934833 1_555
Al1_1 Zr2_4 2.934977 1_556
Al1_1 Zr2_5 2.934977 1_555
Al1_1 Zr1_0 2.935470 1_556
Al1_1 Zr1_1 2.935470 1_555
Al1_1 Zr3_3 3.033173 1_555
Al1_1 Zr4_1 3.033444 1_555
Al1_1 Zr5_1 3.033643 1_555
Al1_2 Zr0_3 2.934833 1_555
Al1_2 Zr0_2 2.934833 1_555
Al1_2 Zr2_7 2.934977 1_555
Al1_2 Zr2_6 2.934977 1_555
Al1_2 Zr1_2 2.935470 1_555
Al1_2 Zr1_3 2.935470 1_555
Al1_2 Zr3_0 3.033173 1_565
Al1_2 Zr4_2 3.033444 1_555
Al1_2 Zr5_2 3.033643 1_555
Al1_3 Zr0_3 2.934833 1_555
Al1_3 Zr0_2 2.934833 1_556
Al1_3 Zr2_7 2.934977 1_555
Al1_3 Zr2_6 2.934977 1_556
Al1_3 Zr1_2 2.935470 1_556
Al1_3 Zr1_3 2.935470 1_555
Al1_3 Zr3_1 3.033173 1_565
Al1_3 Zr4_3 3.033444 1_555
Al1_3 Zr5_3 3.033643 1_555
Al1_4 Zr0_5 2.934833 1_555
Al1_4 Zr0_4 2.934833 1_555
Al1_4 Zr2_1 2.934977 1_555
Al1_4 Zr2_0 2.934977 1_555
Al1_4 Zr1_5 2.935470 1_555
Al1_4 Zr1_4 2.935470 1_555
Al1_4 Zr3_6 3.033173 1_555
Al1_4 Zr4_4 3.033444 1_555
Al1_4 Zr5_4 3.033643 1_555
Al1_5 Zr0_5 2.934833 1_555
Al1_5 Zr0_4 2.934833 1_556
Al1_5 Zr2_1 2.934977 1_555
Al1_5 Zr2_0 2.934977 1_556
Al1_5 Zr1_5 2.935470 1_555
Al1_5 Zr1_4 2.935470 1_556
Al1_5 Zr3_7 3.033173 1_555
Al1_5 Zr4_5 3.033444 1_555
Al1_5 Zr5_5 3.033643 1_555
Al1_6 Zr0_6 2.934833 1_555
Al1_6 Zr0_7 2.934833 1_555
Al1_6 Zr2_3 2.934977 1_555
Al1_6 Zr2_2 2.934977 1_555
Al1_6 Zr1_6 2.935470 1_555
Al1_6 Zr1_7 2.935470 1_555
Al1_6 Zr3_4 3.033173 1_565
Al1_6 Zr4_6 3.033444 1_555
Al1_6 Zr5_6 3.033643 1_555
Al1_7 Zr0_6 2.934833 1_556
Al1_7 Zr0_7 2.934833 1_555
Al1_7 Zr2_3 2.934977 1_555
Al1_7 Zr2_2 2.934977 1_556
Al1_7 Zr1_6 2.935470 1_556
Al1_7 Zr1_7 2.935470 1_555
Al1_7 Zr3_5 3.033173 1_565
Al1_7 Zr4_7 3.033444 1_555
Al1_7 Zr5_7 3.033643 1_555
Co0_0 Zr5_0 2.580410 1_665
Co0_0 Zr5_1 2.580410 1_664
Co0_0 Zr4_6 2.580461 1_555
Co0_0 Zr4_7 2.580461 1_554
Co0_0 Zr3_1 2.580767 1_664
Co0_0 Zr3_0 2.580767 1_665
Co0_0 Zr2_6 3.183021 1_655
Co0_0 Zr1_0 3.183074 1_665
Co0_0 Zr0_6 3.183743 1_555
Co0_1 Zr5_0 2.580410 1_665
Co0_1 Zr5_1 2.580410 1_665
Co0_1 Zr4_6 2.580461 1_555
Co0_1 Zr4_7 2.580461 1_555
Co0_1 Zr3_0 2.580767 1_665
Co0_1 Zr3_1 2.580767 1_665
Co0_1 Zr2_7 3.183021 1_655
Co0_1 Zr1_1 3.183074 1_665
Co0_1 Zr0_7 3.183743 1_555
Co0_2 Zr5_3 2.580410 1_654
Co0_2 Zr5_2 2.580410 1_655
Co0_2 Zr4_5 2.580461 1_554
Co0_2 Zr4_4 2.580461 1_555
Co0_2 Zr3_3 2.580767 1_654
Co0_2 Zr3_2 2.580767 1_655
Co0_2 Zr2_4 3.183021 1_655
Co0_2 Zr1_2 3.183074 1_655
Co0_2 Zr0_4 3.183743 1_555
Co0_3 Zr5_2 2.580410 1_655
Co0_3 Zr5_3 2.580410 1_655
Co0_3 Zr4_5 2.580461 1_555
Co0_3 Zr4_4 2.580461 1_555
Co0_3 Zr3_2 2.580767 1_655
Co0_3 Zr3_3 2.580767 1_655
Co0_3 Zr2_5 3.183021 1_655
Co0_3 Zr1_3 3.183074 1_655
Co0_3 Zr0_5 3.183743 1_555
Co0_4 Zr5_5 2.580410 1_564
Co0_4 Zr5_4 2.580410 1_565
Co0_4 Zr4_3 2.580461 1_554
Co0_4 Zr4_2 2.580461 1_555
Co0_4 Zr3_4 2.580767 1_565
Co0_4 Zr3_5 2.580767 1_564
Co0_4 Zr2_2 3.183021 1_555
Co0_4 Zr1_4 3.183074 1_565
Co0_4 Zr0_2 3.183743 1_555
Co0_5 Zr5_5 2.580410 1_565
Co0_5 Zr5_4 2.580410 1_565
Co0_5 Zr4_3 2.580461 1_555
Co0_5 Zr4_2 2.580461 1_555
Co0_5 Zr3_5 2.580767 1_565
Co0_5 Zr3_4 2.580767 1_565
Co0_5 Zr2_3 3.183021 1_555
Co0_5 Zr1_5 3.183074 1_565
Co0_5 Zr0_3 3.183743 1_555
Co0_6 Zr5_7 2.580410 1_554
Co0_6 Zr5_6 2.580410 1_555
Co0_6 Zr4_0 2.580461 1_555
Co0_6 Zr4_1 2.580461 1_554
Co0_6 Zr3_6 2.580767 1_555
Co0_6 Zr3_7 2.580767 1_554
Co0_6 Zr2_0 3.183021 1_555
Co0_6 Zr1_6 3.183074 1_555
Co0_6 Zr0_0 3.183743 1_555
Co0_7 Zr5_6 2.580410 1_555
Co0_7 Zr5_7 2.580410 1_555
Co0_7 Zr4_0 2.580461 1_555
Co0_7 Zr4_1 2.580461 1_555
Co0_7 Zr3_7 2.580767 1_555
Co0_7 Zr3_6 2.580767 1_555
Co0_7 Zr2_1 3.183021 1_555
Co0_7 Zr1_7 3.183074 1_555
Co0_7 Zr0_1 3.183743 1_555
