# generated using pymatgen
data_Ti5CoSn3
_symmetry_space_group_name_H-M   'P 1'
_cell_length_a   8.20849050
_cell_length_b   8.20849050
_cell_length_c   5.43716452
_cell_angle_alpha   90.00000000
_cell_angle_beta   90.00000000
_cell_angle_gamma   119.99998762
_symmetry_Int_Tables_number   1
_chemical_formula_structural   Ti5CoSn3
_chemical_formula_sum   'Ti10 Co2 Sn6'
_cell_volume   317.27054920
_cell_formula_units_Z   2
loop_
 _symmetry_equiv_pos_site_id
 _symmetry_equiv_pos_as_xyz
  1  'x, y, z'
loop_
 _atom_site_type_symbol
 _atom_site_label
 _atom_site_symmetry_multiplicity
 _atom_site_fract_x
 _atom_site_fract_y
 _atom_site_fract_z
 _atom_site_occupancy
  Ti  Ti0  1  0.24486413  1.00000000  0.75000000  1
  Ti  Ti1  1  0.75513587  0.00000000  0.25000000  1
  Ti  Ti2  1  1.00000000  0.24486413  0.75000000  1
  Ti  Ti3  1  0.00000000  0.75513587  0.25000000  1
  Ti  Ti4  1  0.75513587  0.75513587  0.75000000  1
  Ti  Ti5  1  0.24486413  0.24486413  0.25000000  1
  Ti  Ti6  1  0.33333300  0.66666700  0.50000000  1
  Ti  Ti7  1  0.66666700  0.33333300  0.50000000  1
  Ti  Ti8  1  0.66666700  0.33333300  -0.00000000  1
  Ti  Ti9  1  0.33333300  0.66666700  -0.00000000  1
  Co  Co0  1  -0.00000000  0.00000000  0.50000000  1
  Co  Co1  1  -0.00000000  0.00000000  -0.00000000  1
  Sn  Sn0  1  0.60361959  1.00000000  0.75000000  1
  Sn  Sn1  1  0.39638041  0.00000000  0.25000000  1
  Sn  Sn2  1  1.00000000  0.60361959  0.75000000  1
  Sn  Sn3  1  0.00000000  0.39638041  0.25000000  1
  Sn  Sn4  1  0.39638041  0.39638041  0.75000000  1
  Sn  Sn5  1  0.60361959  0.60361959  0.25000000  1
loop_
_geom_bond_atom_site_label_1
_geom_bond_atom_site_label_2
_geom_bond_distance
_geom_bond_site_symmetry_2
Ti6 Ti9 2.718582 1_555
Ti6 Ti9 2.718582 1_556
Ti7 Ti8 2.718582 1_556
Ti7 Ti8 2.718582 1_555
Co0 Ti3 2.426444 1_545
Co0 Ti1 2.426444 1_455
Co0 Ti0 2.426444 1_545
Co0 Ti2 2.426444 1_455
Co0 Ti4 2.426444 1_445
Co0 Ti5 2.426444 1_555
Co0 Co1 2.718582 1_555
Co0 Co1 2.718582 1_556
Co1 Ti3 2.426444 1_545
Co1 Ti1 2.426444 1_455
Co1 Ti2 2.426444 1_454
Co1 Ti0 2.426444 1_544
Co1 Ti4 2.426444 1_444
Co1 Ti5 2.426444 1_555
Sn0 Ti4 2.843700 1_555
Sn0 Ti2 2.843701 1_565
Sn0 Ti8 2.861128 1_566
Sn0 Ti7 2.861128 1_565
Sn0 Ti6 2.861130 1_555
Sn0 Ti9 2.861130 1_556
Sn0 Ti0 2.944841 1_555
Sn0 Ti1 2.989570 1_566
Sn0 Ti1 2.989570 1_565
Sn0 Sn1 3.206946 1_565
Sn0 Sn1 3.206946 1_566
Sn1 Ti5 2.843700 1_555
Sn1 Ti3 2.843701 1_545
Sn1 Ti9 2.861128 1_545
Sn1 Ti6 2.861128 1_545
Sn1 Ti7 2.861130 1_555
Sn1 Ti8 2.861130 1_555
Sn1 Ti1 2.944841 1_555
Sn1 Ti0 2.989570 1_544
Sn1 Ti0 2.989570 1_545
Sn2 Ti4 2.843700 1_555
Sn2 Ti0 2.843701 1_655
Sn2 Ti9 2.861128 1_656
Sn2 Ti6 2.861128 1_655
Sn2 Ti7 2.861130 1_555
Sn2 Ti8 2.861130 1_556
Sn2 Ti2 2.944841 1_555
Sn2 Ti3 2.989570 1_656
Sn2 Ti3 2.989570 1_655
Sn2 Sn3 3.206946 1_656
Sn2 Sn3 3.206946 1_655
Sn3 Ti5 2.843700 1_555
Sn3 Ti1 2.843701 1_455
Sn3 Ti7 2.861128 1_455
Sn3 Ti8 2.861128 1_455
Sn3 Ti6 2.861130 1_555
Sn3 Ti9 2.861130 1_555
Sn3 Ti3 2.944841 1_555
Sn3 Ti2 2.989570 1_455
Sn3 Ti2 2.989570 1_454
Sn4 Ti0 2.843701 1_545
Sn4 Ti2 2.843701 1_455
Sn4 Ti6 2.861134 1_555
Sn4 Ti8 2.861134 1_556
Sn4 Ti9 2.861134 1_556
Sn4 Ti7 2.861134 1_555
Sn4 Ti4 2.944841 1_555
Sn4 Ti5 2.989570 1_556
Sn4 Ti5 2.989570 1_555
Sn4 Sn5 3.206946 1_555
Sn4 Sn5 3.206946 1_556
Sn5 Ti1 2.843701 1_565
Sn5 Ti3 2.843701 1_655
Sn5 Ti6 2.861134 1_555
Sn5 Ti8 2.861134 1_555
Sn5 Ti9 2.861134 1_555
Sn5 Ti7 2.861134 1_555
Sn5 Ti5 2.944841 1_555
Sn5 Ti4 2.989570 1_555
Sn5 Ti4 2.989570 1_554
