# generated using pymatgen
data_Li4H7RhS3O13
_symmetry_space_group_name_H-M   'P 1'
_cell_length_a   8.10167906
_cell_length_b   8.10167906
_cell_length_c   8.10167891
_cell_angle_alpha   69.62967562
_cell_angle_beta   69.62967562
_cell_angle_gamma   69.62967831
_symmetry_Int_Tables_number   1
_chemical_formula_structural   Li4H7RhS3O13
_chemical_formula_sum   'Li4 H7 Rh1 S3 O13'
_cell_volume   451.49207480
_cell_formula_units_Z   1
loop_
 _symmetry_equiv_pos_site_id
 _symmetry_equiv_pos_as_xyz
  1  'x, y, z'
loop_
 _atom_site_type_symbol
 _atom_site_label
 _atom_site_symmetry_multiplicity
 _atom_site_fract_x
 _atom_site_fract_y
 _atom_site_fract_z
 _atom_site_occupancy
  Li  Li0  1  0.70335500  0.70335500  0.70335500  1
  Li  Li1  1  0.55912100  0.41607600  0.18574700  1
  Li  Li2  1  0.41607600  0.18574700  0.55912100  1
  Li  Li3  1  0.18574700  0.55912100  0.41607600  1
  H  H0  1  0.89153200  0.24811100  0.26401900  1
  H  H1  1  0.24811100  0.26401900  0.89153200  1
  H  H2  1  0.26401900  0.89153200  0.24811100  1
  H  H3  1  0.85351200  0.37080300  0.07792300  1
  H  H4  1  0.37080300  0.07792300  0.85351200  1
  H  H5  1  0.07792300  0.85351200  0.37080300  1
  H  H6  1  0.48132800  0.48132800  0.48132800  1
  Rh  Rh0  1  0.02567600  0.02567600  0.02567600  1
  S  S0  1  0.44142400  0.18843100  0.13131600  1
  S  S1  1  0.18843100  0.13131600  0.44142400  1
  S  S2  1  0.13131600  0.44142400  0.18843100  1
  O  O0  1  0.68483700  0.57744000  0.96751100  1
  O  O1  1  0.57744000  0.96751100  0.68483700  1
  O  O2  1  0.96751100  0.68483700  0.57744000  1
  O  O3  1  0.53263700  0.99279900  0.21840000  1
  O  O4  1  0.99279900  0.21840000  0.53263700  1
  O  O5  1  0.21840000  0.53263700  0.99279900  1
  O  O6  1  0.89362800  0.64680500  0.47158500  1
  O  O7  1  0.64680500  0.47158500  0.89362800  1
  O  O8  1  0.47158500  0.89362800  0.64680500  1
  O  O9  1  0.84320900  0.25156900  0.16717900  1
  O  O10  1  0.25156900  0.16717900  0.84320900  1
  O  O11  1  0.16717900  0.84320900  0.25156900  1
  O  O12  1  0.42812500  0.42812500  0.42812500  1
loop_
_geom_bond_atom_site_label_1
_geom_bond_atom_site_label_2
_geom_bond_distance
_geom_bond_site_symmetry_2
Li0 O0 2.001593 1_555
Li0 O2 2.001593 1_555
Li0 O1 2.001593 1_555
Li0 O7 2.050410 1_555
Li0 O6 2.050410 1_555
Li0 O8 2.050410 1_555
Li1 O12 1.897984 1_555
Li1 O0 1.984106 1_554
Li1 O7 2.149178 1_554
Li1 O9 2.204376 1_555
Li1 S0 2.566793 1_555
Li2 O12 1.897984 1_555
Li2 O1 1.984106 1_545
Li2 O8 2.149179 1_545
Li2 O10 2.204375 1_555
Li2 S1 2.566793 1_555
Li3 O12 1.897984 1_555
Li3 O2 1.984106 1_455
Li3 O6 2.149179 1_455
Li3 O11 2.204375 1_555
Li3 S2 2.566793 1_555
H0 O9 0.980049 1_555
H1 O10 0.980049 1_555
H2 O11 0.980049 1_555
H3 O9 0.995407 1_555
H3 Li1 2.179387 1_555
H4 O10 0.995407 1_555
H4 Li2 2.179386 1_555
H5 O11 0.995407 1_555
H5 Li3 2.179387 1_555
H6 O12 0.972315 1_555
O0 O7 1.363250 1_555
O1 O8 1.363250 1_555
O2 O6 1.363250 1_555
O3 S0 1.524800 1_565
O4 S1 1.524800 1_655
O5 S2 1.524800 1_556
O9 Rh0 2.290469 1_655
O10 Rh0 2.290469 1_556
O11 Rh0 2.290469 1_565
