# generated using pymatgen
data_Dy2Ti3Si4
_symmetry_space_group_name_H-M   'P 1'
_cell_length_a   7.04717550
_cell_length_b   7.04716785
_cell_length_c   12.93589193
_cell_angle_alpha   89.99993057
_cell_angle_beta   89.99988832
_cell_angle_gamma   89.99967942
_symmetry_Int_Tables_number   1
_chemical_formula_structural   Dy2Ti3Si4
_chemical_formula_sum   'Dy8 Ti12 Si16'
_cell_volume   642.43039674
_cell_formula_units_Z   4
loop_
 _symmetry_equiv_pos_site_id
 _symmetry_equiv_pos_as_xyz
  1  'x, y, z'
loop_
 _atom_site_type_symbol
 _atom_site_label
 _atom_site_symmetry_multiplicity
 _atom_site_fract_x
 _atom_site_fract_y
 _atom_site_fract_z
 _atom_site_occupancy
  Dy  Dy0  1  0.99926423  0.65936568  0.03396280  1
  Dy  Dy1  1  0.00074837  0.34061742  0.53396007  1
  Dy  Dy2  1  0.65937021  0.99926034  0.96604090  1
  Dy  Dy3  1  0.15936457  0.50074127  0.78398085  1
  Dy  Dy4  1  0.84063653  0.49925466  0.28393817  1
  Dy  Dy5  1  0.50074237  0.15936856  0.21602309  1
  Dy  Dy6  1  0.49925619  0.84064133  0.71605721  1
  Dy  Dy7  1  0.34062159  0.00074577  0.46603648  1
  Ti  Ti0  1  0.34721223  0.50811312  0.37374278  1
  Ti  Ti1  1  0.84723167  0.99188478  0.37622572  1
  Ti  Ti2  1  0.00811595  0.15278455  0.12374935  1
  Ti  Ti3  1  0.99188336  0.84722849  0.62376712  1
  Ti  Ti4  1  0.50810687  0.34720883  0.62624874  1
  Ti  Ti5  1  0.15278598  0.00811751  0.87625720  1
  Ti  Ti6  1  0.67210548  0.67209853  0.49999638  1
  Ti  Ti7  1  0.82791709  0.17209698  0.75001855  1
  Ti  Ti8  1  0.17210777  0.82790782  0.24998082  1
  Ti  Ti9  1  0.32789299  0.32788648  0.00000390  1
  Ti  Ti10  1  0.49187212  0.65278430  0.12623732  1
  Ti  Ti11  1  0.65278662  0.49187835  0.87377141  1
  Si  Si0  1  0.04808533  0.70955782  0.43567455  1
  Si  Si1  1  0.95192727  0.29044069  0.93568292  1
  Si  Si2  1  0.70955727  0.04808269  0.56431502  1
  Si  Si3  1  0.20954671  0.45191220  0.18568277  1
  Si  Si4  1  0.79044456  0.54808164  0.68567513  1
  Si  Si5  1  0.45191670  0.20954978  0.81432172  1
  Si  Si6  1  0.54808669  0.79044921  0.31432206  1
  Si  Si7  1  0.29044092  0.95192673  0.06432524  1
  Si  Si8  1  0.79614957  0.86994269  0.18393800  1
  Si  Si9  1  0.29613863  0.63006204  0.56606519  1
  Si  Si10  1  0.70384944  0.36993822  0.06606704  1
  Si  Si11  1  0.63005894  0.29614074  0.43392552  1
  Si  Si12  1  0.36993346  0.70384748  0.93394162  1
  Si  Si13  1  0.13005767  0.20385562  0.31606832  1
  Si  Si14  1  0.20384223  0.13006277  0.68393312  1
  Si  Si15  1  0.86993938  0.79616390  0.81606191  1
loop_
_geom_bond_atom_site_label_1
_geom_bond_atom_site_label_2
_geom_bond_distance
_geom_bond_site_symmetry_2
Dy0 Si8 2.831051 1_555
Dy0 Si3 2.860988 1_655
Dy0 Si1 2.913239 1_554
Dy0 Si12 2.931856 1_654
Dy0 Si7 2.935239 1_655
Dy0 Si10 2.943929 1_555
Dy0 Si15 3.115330 1_554
Dy1 Si14 2.830877 1_555
Dy1 Si4 2.861060 1_455
Dy1 Si0 2.913364 1_555
Dy1 Si11 2.932060 1_455
Dy1 Si2 2.935165 1_455
Dy1 Si9 2.943894 1_555
Dy1 Si13 3.115110 1_555
Dy2 Si15 2.830991 1_555
Dy2 Si5 2.861007 1_565
Dy2 Si7 2.913287 1_556
Dy2 Si10 2.931938 1_566
Dy2 Si1 2.935228 1_565
Dy2 Si12 2.943957 1_555
Dy2 Si8 3.115230 1_556
Dy3 Si12 2.830875 1_555
Dy3 Si1 2.860842 1_455
Dy3 Si4 2.913356 1_455
Dy3 Si14 2.932060 1_555
Dy3 Si5 2.935214 1_555
Dy3 Si15 2.943899 1_455
Dy3 Si9 3.115441 1_555
Dy4 Si11 2.831164 1_555
Dy4 Si0 2.861204 1_655
Dy4 Si3 2.913007 1_655
Dy4 Si8 2.931854 1_555
Dy4 Si6 2.935292 1_555
Dy4 Si13 2.943852 1_655
Dy4 Si10 3.114945 1_555
Dy5 Si10 2.830833 1_555
Dy5 Si7 2.860830 1_545
Dy5 Si6 2.913311 1_545
Dy5 Si13 2.932091 1_555
Dy5 Si3 2.935191 1_555
Dy5 Si8 2.943833 1_545
Dy5 Si11 3.115279 1_555
Dy6 Si9 2.831231 1_555
Dy6 Si2 2.861214 1_565
Dy6 Si5 2.913046 1_565
Dy6 Si15 2.931848 1_555
Dy6 Si4 2.935307 1_555
Dy6 Si14 2.943917 1_565
Dy6 Si12 3.115123 1_555
Dy7 Si13 2.830925 1_555
Dy7 Si6 2.861031 1_545
Dy7 Si2 2.913302 1_555
Dy7 Si9 2.931989 1_545
Dy7 Si0 2.935171 1_545
Dy7 Si11 2.943891 1_555
Dy7 Si14 3.115221 1_555
Si0 Si9 2.492917 1_555
Si0 Ti1 2.559961 1_455
Si0 Ti3 2.649212 1_455
Si0 Ti0 2.664725 1_555
Si0 Ti8 2.688800 1_555
Si0 Ti6 2.789690 1_455
Si1 Si10 2.492980 1_556
Si1 Ti5 2.559869 1_655
Si1 Ti2 2.648850 1_656
Si1 Ti11 2.664698 1_555
Si1 Ti7 2.688424 1_555
Si1 Ti9 2.789586 1_656
Si2 Ti3 2.559972 1_545
Si2 Ti1 2.649177 1_545
Si2 Ti4 2.664750 1_555
Si2 Ti7 2.688921 1_555
Si2 Ti6 2.789701 1_545
Si3 Ti10 2.560022 1_555
Si3 Ti0 2.648815 1_555
Si3 Ti2 2.664697 1_555
Si3 Ti9 2.688627 1_555
Si3 Ti8 2.789687 1_555
Si4 Ti4 2.560021 1_555
Si4 Ti11 2.649224 1_555
Si4 Ti3 2.664733 1_555
Si4 Ti6 2.688590 1_555
Si4 Ti7 2.789809 1_555
Si5 Ti11 2.560050 1_555
Si5 Ti4 2.648937 1_555
Si5 Ti5 2.664726 1_555
Si5 Ti9 2.688639 1_556
Si5 Ti7 2.789748 1_555
Si6 Si8 2.492903 1_555
Si6 Ti0 2.559993 1_555
Si6 Ti10 2.649121 1_555
Si6 Ti1 2.664698 1_555
Si6 Ti6 2.688569 1_555
Si6 Ti8 2.789758 1_555
Si7 Ti2 2.559870 1_565
Si7 Ti5 2.648870 1_564
Si7 Ti10 2.664684 1_555
Si7 Ti8 2.688314 1_555
Si7 Ti9 2.789546 1_565
Si8 Ti2 2.609703 1_665
Si8 Ti1 2.656182 1_555
Si8 Ti10 2.738094 1_555
Si8 Ti8 2.799494 1_655
Si9 Ti4 2.609740 1_555
Si9 Ti0 2.656607 1_555
Si9 Ti3 2.737992 1_455
Si9 Ti6 2.799656 1_555
Si10 Ti10 2.609687 1_555
Si10 Ti11 2.656251 1_554
Si10 Ti2 2.737936 1_655
Si10 Ti9 2.799579 1_555
Si11 Si2 2.492930 1_555
Si11 Ti0 2.609720 1_555
Si11 Ti4 2.656617 1_555
Si11 Ti1 2.738012 1_545
Si11 Ti6 2.799611 1_555
Si12 Si7 2.492976 1_556
Si12 Ti11 2.609692 1_555
Si12 Ti10 2.656251 1_556
Si12 Ti5 2.737937 1_565
Si12 Ti9 2.799592 1_556
Si13 Si3 2.492877 1_555
Si13 Ti1 2.609515 1_445
Si13 Ti2 2.656550 1_555
Si13 Ti0 2.737875 1_555
Si13 Ti8 2.799609 1_545
Si14 Si5 2.492995 1_555
Si14 Ti3 2.609547 1_445
Si14 Ti5 2.656601 1_555
Si14 Ti4 2.737914 1_555
Si14 Ti7 2.799439 1_455
Si15 Si4 2.493028 1_555
Si15 Ti5 2.609706 1_665
Si15 Ti3 2.656252 1_555
Si15 Ti11 2.738143 1_555
Si15 Ti7 2.799314 1_565
