# generated using pymatgen
data_SmSbRh
_symmetry_space_group_name_H-M   'P 1'
_cell_length_a   4.59574822
_cell_length_b   7.32337936
_cell_length_c   7.84610712
_cell_angle_alpha   89.99364647
_cell_angle_beta   90.00000000
_cell_angle_gamma   90.00000000
_symmetry_Int_Tables_number   1
_chemical_formula_structural   SmSbRh
_chemical_formula_sum   'Sm4 Sb4 Rh4'
_cell_volume   264.07177825
_cell_formula_units_Z   4
loop_
 _symmetry_equiv_pos_site_id
 _symmetry_equiv_pos_as_xyz
  1  'x, y, z'
loop_
 _atom_site_type_symbol
 _atom_site_label
 _atom_site_symmetry_multiplicity
 _atom_site_fract_x
 _atom_site_fract_y
 _atom_site_fract_z
 _atom_site_occupancy
  Sm  Sm0  1  0.25000000  0.51226213  0.20046700  1
  Sm  Sm1  1  0.75000000  0.48773008  0.79953328  1
  Sm  Sm2  1  0.75000000  0.98778763  0.70047283  1
  Sm  Sm3  1  0.25000000  0.01222156  0.29952791  1
  Sb  Sb0  1  0.25000000  0.69018742  0.59050246  1
  Sb  Sb1  1  0.75000000  0.30981127  0.40949638  1
  Sb  Sb2  1  0.75000000  0.80979533  0.09049207  1
  Sb  Sb3  1  0.25000000  0.19020780  0.90950745  1
  Rh  Rh0  1  0.25000000  0.80610263  0.91748293  1
  Rh  Rh1  1  0.75000000  0.19389509  0.08251659  1
  Rh  Rh2  1  0.75000000  0.69392991  0.41743585  1
  Rh  Rh3  1  0.25000000  0.30607016  0.58256424  1
loop_
_geom_bond_atom_site_label_1
_geom_bond_atom_site_label_2
_geom_bond_distance
_geom_bond_site_symmetry_2
Sb0 Sm1 3.188708 1_555
Sb0 Sm1 3.188708 1_455
Sb0 Sm3 3.282213 1_565
Sb0 Sm2 3.282543 1_455
Sb0 Sm2 3.282543 1_555
Sb0 Sm0 3.326247 1_555
Sb1 Sm0 3.188680 1_555
Sb1 Sm0 3.188680 1_655
Sb1 Sm2 3.282168 1_545
Sb1 Sm3 3.282488 1_655
Sb1 Sm3 3.282488 1_555
Sb1 Sm1 3.326239 1_555
Sb2 Sm3 3.188791 1_565
Sb2 Sm3 3.188791 1_665
Sb2 Sm0 3.282100 1_655
Sb2 Sm0 3.282100 1_555
Sb2 Sm1 3.282655 1_554
Sb2 Sm2 3.326057 1_554
Sb3 Sm2 3.188766 1_445
Sb3 Sm2 3.188766 1_545
Sb3 Sm1 3.282045 1_555
Sb3 Sm1 3.282045 1_455
Sb3 Sm0 3.282601 1_556
Sb3 Sm3 3.326048 1_556
Rh0 Sb2 2.669013 1_556
Rh0 Sb2 2.669013 1_456
Rh0 Sb0 2.702408 1_555
Rh0 Sb3 2.813637 1_565
Rh0 Sm0 3.091840 1_556
Rh0 Sm2 3.154238 1_455
Rh0 Sm2 3.154238 1_555
Rh0 Sm3 3.356331 1_566
Rh0 Sm1 3.401961 1_555
Rh0 Sm1 3.401961 1_455
Rh1 Sb3 2.669013 1_654
Rh1 Sb3 2.669013 1_554
Rh1 Sb1 2.702406 1_555
Rh1 Sb2 2.813597 1_545
Rh1 Sm1 3.091807 1_554
Rh1 Sm3 3.154208 1_655
Rh1 Sm3 3.154208 1_555
Rh1 Sm2 3.356284 1_544
Rh1 Sm0 3.401935 1_655
Rh1 Sm0 3.401935 1_555
Rh2 Sb0 2.669243 1_555
Rh2 Sb0 2.669243 1_655
Rh2 Sb2 2.701842 1_555
Rh2 Sb1 2.813743 1_555
Rh2 Sm2 3.092568 1_555
Rh2 Sm0 3.154169 1_555
Rh2 Sm0 3.154169 1_655
Rh2 Sm1 3.356666 1_555
Rh2 Sm3 3.401325 1_665
Rh2 Sm3 3.401325 1_565
Rh3 Sb1 2.669248 1_455
Rh3 Sb1 2.669248 1_555
Rh3 Sb3 2.701831 1_555
Rh3 Sb0 2.813733 1_555
Rh3 Sm3 3.092518 1_555
Rh3 Sm1 3.154146 1_555
Rh3 Sm1 3.154146 1_455
Rh3 Sm0 3.356638 1_555
Rh3 Sm2 3.401281 1_445
Rh3 Sm2 3.401281 1_545
