# generated using pymatgen
data_Sr2EuFeO5
_symmetry_space_group_name_H-M   'P 1'
_cell_length_a   6.83904477
_cell_length_b   6.83904477
_cell_length_c   7.50638614
_cell_angle_alpha   63.00849854
_cell_angle_beta   63.00849854
_cell_angle_gamma   90.21256029
_symmetry_Int_Tables_number   1
_chemical_formula_structural   Sr2EuFeO5
_chemical_formula_sum   'Sr4 Eu2 Fe2 O10'
_cell_volume   268.87445405
_cell_formula_units_Z   2
loop_
 _symmetry_equiv_pos_site_id
 _symmetry_equiv_pos_as_xyz
  1  'x, y, z'
loop_
 _atom_site_type_symbol
 _atom_site_label
 _atom_site_symmetry_multiplicity
 _atom_site_fract_x
 _atom_site_fract_y
 _atom_site_fract_z
 _atom_site_occupancy
  Sr  Sr0  1  0.25000000  0.25000000  0.50000000  1
  Sr  Sr1  1  0.75000000  0.75000000  0.50000000  1
  Sr  Sr2  1  0.32688500  0.82688500  0.00000000  1
  Sr  Sr3  1  0.67311500  0.17311500  0.00000000  1
  Eu  Eu0  1  0.18009600  0.31990400  0.00000000  1
  Eu  Eu1  1  0.81990400  0.68009600  0.00000000  1
  Fe  Fe0  1  0.25182600  0.75182600  0.49634700  1
  Fe  Fe1  1  0.74817400  0.24817400  0.50365300  1
  O  O0  1  0.00079100  0.50079100  0.28600800  1
  O  O1  1  0.71320100  0.21320100  0.28600800  1
  O  O2  1  0.20646400  0.00790200  0.28563300  1
  O  O3  1  0.50790200  0.70646400  0.28563300  1
  O  O4  1  0.99920900  0.49920900  0.71399200  1
  O  O5  1  0.28679900  0.78679900  0.71399200  1
  O  O6  1  0.79353600  0.99209800  0.71436700  1
  O  O7  1  0.49209800  0.29353600  0.71436700  1
  O  O8  1  0.50000000  0.50000000  0.00000000  1
  O  O9  1  0.00000000  0.00000000  0.00000000  1
loop_
_geom_bond_atom_site_label_1
_geom_bond_atom_site_label_2
_geom_bond_distance
_geom_bond_site_symmetry_2
Eu0 O2 2.320270 1_555
Eu0 O7 2.320270 1_554
Eu0 O9 2.506728 1_555
Eu0 O8 2.506728 1_555
Eu0 O4 2.770490 1_454
Eu0 O0 2.770490 1_555
Eu0 O1 2.770490 1_455
Eu0 O5 2.770490 1_554
Eu1 O3 2.320270 1_555
Eu1 O6 2.320270 1_554
Eu1 O8 2.506728 1_555
Eu1 O9 2.506728 1_665
Eu1 O0 2.770490 1_655
Eu1 O4 2.770490 1_554
Eu1 O5 2.770490 1_654
Eu1 O1 2.770490 1_555
Fe0 O4 1.868803 1_455
Fe0 O5 1.868810 1_555
Fe0 O3 1.897404 1_555
Fe0 O2 1.897404 1_565
Fe1 O0 1.868803 1_655
Fe1 O1 1.868810 1_555
Fe1 O6 1.897404 1_545
Fe1 O7 1.897404 1_555
O0 Sr2 2.413999 1_555
O0 Sr1 2.903922 1_455
O0 Sr0 2.903922 1_555
O1 Sr3 2.413998 1_555
O1 Sr1 2.903922 1_545
O1 Sr0 2.903922 1_555
O2 Sr2 2.760800 1_545
O2 Sr3 2.760806 1_555
O2 Sr1 2.875571 1_445
O2 Sr0 2.875579 1_555
O3 Sr2 2.760800 1_555
O3 Sr3 2.760806 1_565
O3 Sr0 2.875571 1_555
O3 Sr1 2.875579 1_555
O4 Sr3 2.413999 1_556
O4 Sr0 2.903922 1_655
O4 Sr1 2.903922 1_555
O5 Sr2 2.413998 1_556
O5 Sr1 2.903922 1_555
O5 Sr0 2.903922 1_565
O6 Sr3 2.760800 1_566
O6 Sr2 2.760806 1_556
O6 Sr0 2.875571 1_665
O6 Sr1 2.875579 1_555
O7 Sr3 2.760800 1_556
O7 Sr2 2.760806 1_546
O7 Sr1 2.875571 1_555
O7 Sr0 2.875579 1_555
O8 Sr2 2.533610 1_555
O8 Sr3 2.533610 1_555
O8 Sr0 2.874297 1_555
O8 Sr1 2.874297 1_554
O9 Sr2 2.533610 1_545
O9 Sr3 2.533610 1_455
O9 Sr1 2.874297 1_445
O9 Sr0 2.874297 1_554
