# generated using pymatgen
data_Ca(SbO2)2
_symmetry_space_group_name_H-M   'P 1'
_cell_length_a   5.76868400
_cell_length_b   6.86938200
_cell_length_c   12.13845100
_cell_angle_alpha   90.00000000
_cell_angle_beta   90.00000000
_cell_angle_gamma   90.00000000
_symmetry_Int_Tables_number   1
_chemical_formula_structural   Ca(SbO2)2
_chemical_formula_sum   'Ca4 Sb8 O16'
_cell_volume   481.01396689
_cell_formula_units_Z   4
loop_
 _symmetry_equiv_pos_site_id
 _symmetry_equiv_pos_as_xyz
  1  'x, y, z'
loop_
 _atom_site_type_symbol
 _atom_site_label
 _atom_site_symmetry_multiplicity
 _atom_site_fract_x
 _atom_site_fract_y
 _atom_site_fract_z
 _atom_site_occupancy
  Ca  Ca0  1  0.36898600  0.00000000  0.50000000  1
  Ca  Ca1  1  0.63101400  0.50000000  0.00000000  1
  Ca  Ca2  1  0.04112500  0.00000000  0.00000000  1
  Ca  Ca3  1  0.95887500  0.50000000  0.50000000  1
  Sb  Sb0  1  0.00224700  0.50000000  0.20809200  1
  Sb  Sb1  1  0.00224700  0.50000000  0.79190800  1
  Sb  Sb2  1  0.99775300  0.00000000  0.29190800  1
  Sb  Sb3  1  0.99775300  0.00000000  0.70809200  1
  Sb  Sb4  1  0.50000000  0.25000000  0.25000000  1
  Sb  Sb5  1  0.50000000  0.75000000  0.75000000  1
  Sb  Sb6  1  0.50000000  0.75000000  0.25000000  1
  Sb  Sb7  1  0.50000000  0.25000000  0.75000000  1
  O  O0  1  0.34321200  0.50000000  0.13328000  1
  O  O1  1  0.34321200  0.50000000  0.86672000  1
  O  O2  1  0.65678800  0.00000000  0.36672000  1
  O  O3  1  0.65678800  0.00000000  0.63328000  1
  O  O4  1  0.67764000  0.50000000  0.34526600  1
  O  O5  1  0.67764000  0.50000000  0.65473400  1
  O  O6  1  0.32236000  0.00000000  0.15473400  1
  O  O7  1  0.32236000  0.00000000  0.84526600  1
  O  O8  1  0.16795600  0.21135800  0.37744300  1
  O  O9  1  0.16795600  0.78864200  0.62255700  1
  O  O10  1  0.83204400  0.71135800  0.12255700  1
  O  O11  1  0.83204400  0.28864200  0.87744300  1
  O  O12  1  0.83204400  0.28864200  0.12255700  1
  O  O13  1  0.83204400  0.71135800  0.87744300  1
  O  O14  1  0.16795600  0.78864200  0.37744300  1
  O  O15  1  0.16795600  0.21135800  0.62255700  1
loop_
_geom_bond_atom_site_label_1
_geom_bond_atom_site_label_2
_geom_bond_distance
_geom_bond_site_symmetry_2
Ca0 O2 2.318127 1_555
Ca0 O3 2.318127 1_555
Ca0 O8 2.380331 1_555
Ca0 O15 2.380331 1_555
Ca0 O14 2.380331 1_545
Ca0 O9 2.380331 1_545
Ca1 O0 2.318127 1_555
Ca1 O1 2.318127 1_554
Ca1 O10 2.380331 1_555
Ca1 O13 2.380331 1_554
Ca1 O12 2.380331 1_555
Ca1 O11 2.380331 1_554
Ca2 O6 2.481893 1_555
Ca2 O7 2.481893 1_554
Ca2 O11 2.756684 1_454
Ca2 O12 2.756684 1_455
Ca2 O10 2.756684 1_445
Ca2 O13 2.756684 1_444
Ca3 O5 2.481893 1_555
Ca3 O4 2.481893 1_555
Ca3 O14 2.756684 1_655
Ca3 O9 2.756684 1_655
Ca3 O15 2.756684 1_655
Ca3 O8 2.756684 1_655
O0 Sb0 2.166430 1_555
O0 Sb6 2.403049 1_555
O0 Sb4 2.403049 1_555
O1 Sb1 2.166430 1_555
O1 Sb7 2.403049 1_555
O1 Sb5 2.403049 1_555
O2 Sb2 2.166430 1_555
O2 Sb4 2.403049 1_555
O2 Sb6 2.403049 1_545
O3 Sb3 2.166430 1_555
O3 Sb7 2.403049 1_555
O3 Sb5 2.403049 1_545
O4 Sb4 2.310109 1_555
O4 Sb6 2.310109 1_555
O4 Sb0 2.505784 1_655
O5 Sb5 2.310109 1_555
O5 Sb7 2.310109 1_555
O5 Sb1 2.505784 1_655
O6 Sb4 2.310109 1_555
O6 Sb6 2.310109 1_545
O6 Sb2 2.505784 1_455
O7 Sb7 2.310109 1_555
O7 Sb5 2.310109 1_545
O7 Sb3 2.505784 1_455
O8 Sb2 2.037161 1_455
O8 Sb4 2.476393 1_555
O9 Sb3 2.037161 1_465
O9 Sb5 2.476393 1_555
O10 Sb0 2.037161 1_655
O10 Sb6 2.476393 1_555
O11 Sb1 2.037161 1_655
O11 Sb7 2.476393 1_555
O12 Sb0 2.037161 1_655
O12 Sb4 2.476393 1_555
O13 Sb1 2.037161 1_655
O13 Sb5 2.476393 1_555
O14 Sb2 2.037161 1_465
O14 Sb6 2.476393 1_555
O15 Sb3 2.037161 1_455
O15 Sb7 2.476393 1_555
