# generated using pymatgen
data_Eu4I6O
_symmetry_space_group_name_H-M   'P 1'
_cell_length_a   10.44539319
_cell_length_b   10.44687275
_cell_length_c   8.04295666
_cell_angle_alpha   90.00959044
_cell_angle_beta   90.01028159
_cell_angle_gamma   120.00736831
_symmetry_Int_Tables_number   1
_chemical_formula_structural   Eu4I6O
_chemical_formula_sum   'Eu8 I12 O2'
_cell_volume   760.02028050
_cell_formula_units_Z   2
loop_
 _symmetry_equiv_pos_site_id
 _symmetry_equiv_pos_as_xyz
  1  'x, y, z'
loop_
 _atom_site_type_symbol
 _atom_site_label
 _atom_site_symmetry_multiplicity
 _atom_site_fract_x
 _atom_site_fract_y
 _atom_site_fract_z
 _atom_site_occupancy
  Eu  Eu0  1  0.33350916  0.66654425  0.09807470  1
  Eu  Eu1  1  0.66689008  0.33363663  0.59783310  1
  Eu  Eu2  1  0.20641272  0.79361155  0.48689943  1
  Eu  Eu3  1  0.58664498  0.79321847  0.48652666  1
  Eu  Eu4  1  0.20675751  0.41337108  0.48649083  1
  Eu  Eu5  1  0.79325544  0.20644493  0.98687475  1
  Eu  Eu6  1  0.41317064  0.20640210  0.98686170  1
  Eu  Eu7  1  0.79342751  0.58686929  0.98640846  1
  I  I0  1  0.13548309  0.86451683  0.11003409  1
  I  I1  1  0.72907061  0.86450618  0.11001573  1
  I  I2  1  0.13540733  0.27085259  0.10999033  1
  I  I3  1  0.86453311  0.13548061  0.61002520  1
  I  I4  1  0.27095059  0.13547909  0.61004008  1
  I  I5  1  0.86453570  0.72914785  0.60996578  1
  I  I6  1  0.46478903  0.53532344  0.79282315  1
  I  I7  1  0.07054871  0.53523815  0.79268374  1
  I  I8  1  0.46473332  0.92934962  0.79272856  1
  I  I9  1  0.53539147  0.46476882  0.29276718  1
  I  I10  1  0.92943272  0.46476611  0.29271183  1
  I  I11  1  0.53514745  0.07045134  0.29280058  1
  O  O0  1  0.33324408  0.66669975  0.39317482  1
  O  O1  1  0.66666277  0.33331932  0.89311729  1
loop_
_geom_bond_atom_site_label_1
_geom_bond_atom_site_label_2
_geom_bond_distance
_geom_bond_site_symmetry_2
Eu0 O0 2.373481 1_555
Eu0 I6 3.415779 1_554
Eu0 I7 3.418645 1_554
Eu0 I8 3.418671 1_554
Eu0 I1 3.579234 1_555
Eu0 I2 3.580970 1_555
Eu0 I0 3.583873 1_555
Eu1 O1 2.374961 1_555
Eu1 I10 3.415495 1_555
Eu1 I9 3.415500 1_555
Eu1 I11 3.418237 1_555
Eu1 I5 3.579328 1_555
Eu1 I3 3.582118 1_555
Eu1 I4 3.582769 1_555
Eu2 O0 2.416208 1_555
Eu2 I0 3.291522 1_555
Eu2 I8 3.392827 1_555
Eu2 I7 3.394171 1_555
Eu2 I4 3.432352 1_565
Eu2 I5 3.432441 1_455
Eu2 I11 3.558449 1_565
Eu2 I10 3.559065 1_455
Eu3 O0 2.411714 1_555
Eu3 I1 3.291263 1_555
Eu3 I8 3.394208 1_555
Eu3 I6 3.394274 1_555
Eu3 I5 3.435364 1_555
Eu3 I3 3.437084 1_565
Eu3 I9 3.556596 1_555
Eu3 I11 3.558744 1_565
Eu4 O0 2.411741 1_555
Eu4 I2 3.290873 1_555
Eu4 I6 3.394091 1_555
Eu4 I7 3.394396 1_555
Eu4 I4 3.436975 1_555
Eu4 I3 3.437401 1_455
Eu4 I9 3.557827 1_555
Eu4 I10 3.558506 1_455
Eu5 O1 2.413909 1_555
Eu5 I3 3.292860 1_555
Eu5 I11 3.393192 1_556
Eu5 I10 3.393203 1_556
Eu5 I1 3.434665 1_546
Eu5 I2 3.435016 1_656
Eu5 I8 3.557293 1_545
Eu5 I7 3.560815 1_655
Eu6 O1 2.413917 1_555
Eu6 I4 3.292116 1_555
Eu6 I11 3.391942 1_556
Eu6 I9 3.393913 1_556
Eu6 I0 3.433860 1_546
Eu6 I2 3.436077 1_556
Eu6 I8 3.558543 1_545
Eu6 I6 3.561286 1_555
Eu7 O1 2.413157 1_555
Eu7 I5 3.290300 1_555
Eu7 I10 3.395133 1_556
Eu7 I9 3.395253 1_556
Eu7 I0 3.435049 1_656
Eu7 I1 3.435445 1_556
Eu7 I6 3.556251 1_555
Eu7 I7 3.558176 1_655
