# generated using pymatgen
data_Li2In(PO4)2
_symmetry_space_group_name_H-M   'P 1'
_cell_length_a   8.44299900
_cell_length_b   4.91459600
_cell_length_c   8.53196595
_cell_angle_alpha   64.57851338
_cell_angle_beta   90.00000000
_cell_angle_gamma   90.00000000
_symmetry_Int_Tables_number   1
_chemical_formula_structural   Li2In(PO4)2
_chemical_formula_sum   'Li4 In2 P4 O16'
_cell_volume   319.74611814
_cell_formula_units_Z   2
loop_
 _symmetry_equiv_pos_site_id
 _symmetry_equiv_pos_as_xyz
  1  'x, y, z'
loop_
 _atom_site_type_symbol
 _atom_site_label
 _atom_site_symmetry_multiplicity
 _atom_site_fract_x
 _atom_site_fract_y
 _atom_site_fract_z
 _atom_site_occupancy
  Li  Li0  1  0.37278100  0.94832400  0.16098300  1
  Li  Li1  1  0.62721900  0.05167600  0.83901700  1
  Li  Li2  1  0.87278100  0.05167600  0.33901700  1
  Li  Li3  1  0.12721900  0.94832400  0.66098300  1
  In  In0  1  0.00000000  0.00000000  0.00000000  1
  In  In1  1  0.50000000  0.00000000  0.50000000  1
  P  P0  1  0.65674100  0.65437900  0.23369500  1
  P  P1  1  0.34325900  0.34562100  0.76630500  1
  P  P2  1  0.15674100  0.34562100  0.26630500  1
  P  P3  1  0.84325900  0.65437900  0.73369500  1
  O  O0  1  0.81855800  0.81627200  0.20061000  1
  O  O1  1  0.18144200  0.18372800  0.79939000  1
  O  O2  1  0.31855800  0.18372800  0.29939000  1
  O  O3  1  0.68144200  0.81627200  0.70061000  1
  O  O4  1  0.68103200  0.30803900  0.33029100  1
  O  O5  1  0.31896800  0.69196100  0.66970900  1
  O  O6  1  0.18103200  0.69196100  0.16970900  1
  O  O7  1  0.81896800  0.30803900  0.83029100  1
  O  O8  1  0.56773800  0.72952900  0.06126900  1
  O  O9  1  0.43226200  0.27047100  0.93873100  1
  O  O10  1  0.06773800  0.27047100  0.43873100  1
  O  O11  1  0.93226200  0.72952900  0.56126900  1
  O  O12  1  0.54644700  0.75676100  0.34280300  1
  O  O13  1  0.45355300  0.24323900  0.65719700  1
  O  O14  1  0.04644700  0.24323900  0.15719700  1
  O  O15  1  0.95355300  0.75676100  0.84280300  1
loop_
_geom_bond_atom_site_label_1
_geom_bond_atom_site_label_2
_geom_bond_distance
_geom_bond_site_symmetry_2
Li0 O9 1.943459 1_564
Li0 O2 2.028659 1_565
Li0 O6 2.033068 1_555
Li0 O12 2.046671 1_555
Li0 O8 2.318368 1_555
Li1 O8 1.943459 1_546
Li1 O3 2.028659 1_545
Li1 O7 2.033068 1_555
Li1 O13 2.046671 1_555
Li1 O9 2.318368 1_555
Li2 O11 1.943459 1_545
Li2 O0 2.028659 1_545
Li2 O4 2.033068 1_555
Li2 O14 2.046671 1_655
Li2 O10 2.318368 1_655
Li3 O10 1.943459 1_565
Li3 O1 2.028659 1_565
Li3 O5 2.033068 1_555
Li3 O15 2.046671 1_455
Li3 O11 2.318368 1_455
In0 O14 2.181316 1_555
In0 O15 2.181316 1_444
In0 O1 2.182836 1_554
In0 O0 2.182836 1_445
In0 O6 2.200595 1_545
In0 O7 2.200595 1_454
In1 O13 2.181316 1_555
In1 O12 2.181316 1_545
In1 O2 2.182836 1_555
In1 O3 2.182836 1_545
In1 O4 2.200595 1_555
In1 O5 2.200595 1_545
O0 P0 1.544817 1_555
O1 P1 1.544817 1_555
O2 P2 1.544817 1_555
O3 P3 1.544817 1_555
O4 P0 1.553747 1_555
O5 P1 1.553747 1_555
O6 P2 1.553747 1_555
O7 P3 1.553747 1_555
O8 P0 1.548818 1_555
O9 P1 1.548818 1_555
O10 P2 1.548818 1_555
O11 P3 1.548818 1_555
O12 P0 1.545659 1_555
O13 P1 1.545659 1_555
O14 P2 1.545659 1_555
O15 P3 1.545659 1_555
