# generated using pymatgen
data_Y3Ga9Cu2
_symmetry_space_group_name_H-M   'P 1'
_cell_length_a   8.08797161
_cell_length_b   8.08797161
_cell_length_c   8.08797161
_cell_angle_alpha   150.20217542
_cell_angle_beta   104.82282196
_cell_angle_gamma   82.89920977
_symmetry_Int_Tables_number   1
_chemical_formula_structural   Y3Ga9Cu2
_chemical_formula_sum   'Y3 Ga9 Cu2'
_cell_volume   248.78257559
_cell_formula_units_Z   1
loop_
 _symmetry_equiv_pos_site_id
 _symmetry_equiv_pos_as_xyz
  1  'x, y, z'
loop_
 _atom_site_type_symbol
 _atom_site_label
 _atom_site_symmetry_multiplicity
 _atom_site_fract_x
 _atom_site_fract_y
 _atom_site_fract_z
 _atom_site_occupancy
  Y  Y0  1  0.31927821  0.31927821  0.00000000  1
  Y  Y1  1  0.68072179  0.68072179  -0.00000000  1
  Y  Y2  1  0.00000000  -0.00000000  0.00000000  1
  Ga  Ga0  1  0.70979239  0.33807964  0.37171274  1
  Ga  Ga1  1  0.29020761  0.66192036  0.62828726  1
  Ga  Ga2  1  0.96636690  0.33807964  0.62828726  1
  Ga  Ga3  1  0.03363310  0.66192036  0.37171274  1
  Ga  Ga4  1  0.40841430  0.13048490  0.27792941  1
  Ga  Ga5  1  0.59158570  0.86951510  0.72207059  1
  Ga  Ga6  1  0.85255549  0.13048490  0.72207059  1
  Ga  Ga7  1  0.14744451  0.86951510  0.27792941  1
  Ga  Ga8  1  0.50000000  -0.00000000  0.50000000  1
  Cu  Cu0  1  0.71957476  0.50000000  0.21957476  1
  Cu  Cu1  1  0.28042524  0.50000000  0.78042524  1
loop_
_geom_bond_atom_site_label_1
_geom_bond_atom_site_label_2
_geom_bond_distance
_geom_bond_site_symmetry_2
Ga0 Ga2 2.531652 1_555
Ga0 Ga5 2.578738 1_544
Ga0 Ga5 2.578738 1_555
Ga0 Ga4 2.681697 1_555
Ga0 Y1 3.093024 1_545
Ga0 Y1 3.093024 1_556
Ga0 Y2 3.127449 1_655
Ga0 Y2 3.127449 1_666
Ga1 Ga3 2.531652 1_555
Ga1 Ga4 2.578738 1_555
Ga1 Ga4 2.578738 1_566
Ga1 Ga5 2.681697 1_555
Ga1 Y0 3.093024 1_566
Ga1 Y0 3.093024 1_555
Ga1 Y2 3.127449 1_566
Ga1 Y2 3.127449 1_555
Ga2 Ga7 2.578738 1_656
Ga2 Ga7 2.578738 1_645
Ga2 Ga6 2.681697 1_555
Ga2 Y1 3.093024 1_556
Ga2 Y1 3.093024 1_545
Ga2 Y2 3.127449 1_666
Ga2 Y2 3.127449 1_655
Ga3 Ga6 2.578738 1_465
Ga3 Ga6 2.578738 1_454
Ga3 Ga7 2.681697 1_555
Ga3 Y0 3.093024 1_566
Ga3 Y0 3.093024 1_555
Ga3 Y2 3.127449 1_566
Ga3 Y2 3.127449 1_555
Ga4 Ga8 2.702641 1_555
Ga4 Y1 3.081689 1_556
Ga4 Y1 3.081689 1_545
Ga4 Y2 3.165988 1_555
Ga5 Ga8 2.702641 1_565
Ga5 Y0 3.081689 1_555
Ga5 Y0 3.081689 1_566
Ga5 Y2 3.165988 1_666
Ga6 Ga8 2.702641 1_555
Ga6 Y1 3.081689 1_556
Ga6 Y1 3.081689 1_545
Ga6 Y2 3.165988 1_656
Ga7 Ga8 2.702641 1_565
Ga7 Y0 3.081689 1_566
Ga7 Y0 3.081689 1_555
Ga7 Y2 3.165988 1_565
Ga8 Y1 3.020868 1_556
Ga8 Y0 3.020868 1_545
Ga8 Y1 3.020868 1_545
Ga8 Y0 3.020868 1_556
Cu0 Ga0 2.471367 1_555
Cu0 Ga3 2.471367 1_655
Cu0 Ga5 2.613043 1_555
Cu0 Ga5 2.613043 1_544
Cu0 Ga6 2.613043 1_565
Cu0 Ga6 2.613043 1_554
Cu0 Ga8 3.003080 1_565
Cu0 Ga8 3.003080 1_554
Cu0 Y0 3.081429 1_555
Cu0 Y1 3.081429 1_555
Cu1 Ga1 2.471367 1_555
Cu1 Ga2 2.471367 1_455
Cu1 Ga4 2.613043 1_555
Cu1 Ga4 2.613043 1_566
Cu1 Ga7 2.613043 1_556
Cu1 Ga7 2.613043 1_545
Cu1 Ga8 3.003080 1_555
Cu1 Ga8 3.003080 1_566
Cu1 Y0 3.081429 1_556
Cu1 Y1 3.081429 1_556
