# generated using pymatgen
data_MgTiSiO5
_symmetry_space_group_name_H-M   'P 1'
_cell_length_a   5.43113226
_cell_length_b   7.09398516
_cell_length_c   8.59424786
_cell_angle_alpha   92.32240425
_cell_angle_beta   144.89317564
_cell_angle_gamma   74.77320118
_symmetry_Int_Tables_number   1
_chemical_formula_structural   MgTiSiO5
_chemical_formula_sum   'Mg2 Ti2 Si2 O10'
_cell_volume   174.44035550
_cell_formula_units_Z   2
loop_
 _symmetry_equiv_pos_site_id
 _symmetry_equiv_pos_as_xyz
  1  'x, y, z'
loop_
 _atom_site_type_symbol
 _atom_site_label
 _atom_site_symmetry_multiplicity
 _atom_site_fract_x
 _atom_site_fract_y
 _atom_site_fract_z
 _atom_site_occupancy
  Mg  Mg0  1  0.44599500  0.29766900  0.16004800  1
  Mg  Mg1  1  0.54058500  0.73751200  0.84623700  1
  Ti  Ti0  1  0.50608200  0.50087600  0.51311000  1
  Ti  Ti1  1  0.49484100  0.00217800  0.48999100  1
  Si  Si0  1  0.48906900  0.23090200  0.81112000  1
  Si  Si1  1  0.51367200  0.74497700  0.18903800  1
  O  O0  1  0.16904600  0.15511900  0.52619500  1
  O  O1  1  0.68172900  0.37971600  0.81122300  1
  O  O2  1  0.82448000  0.82571600  0.46834400  1
  O  O3  1  0.32713400  0.59523300  0.19388000  1
  O  O4  1  0.82439000  0.60375100  0.19881800  1
  O  O5  1  0.11233500  0.93350500  0.89382700  1
  O  O6  1  0.18712000  0.36800600  0.80788500  1
  O  O7  1  0.89027900  0.02609300  0.09180800  1
  O  O8  1  0.52617800  0.73654600  0.60162500  1
  O  O9  1  0.46769500  0.24024800  0.39883000  1
loop_
_geom_bond_atom_site_label_1
_geom_bond_atom_site_label_2
_geom_bond_distance
_geom_bond_site_symmetry_2
Mg0 O9 2.009467 1_555
Mg0 O6 2.043873 1_554
Mg0 O0 2.073486 1_655
Mg0 O3 2.121038 1_555
Mg0 O1 2.251200 1_454
Mg1 O8 2.038535 1_555
Mg1 O4 2.069057 1_556
Mg1 O2 2.070071 1_455
Mg1 O3 2.300210 1_656
Mg1 O1 2.532611 1_555
Mg1 O5 2.705890 1_555
Mg1 O7 2.717752 1_566
O0 Si0 1.651262 1_555
O0 Ti1 2.066367 1_555
O1 Si0 1.669728 1_555
O1 Ti0 1.990415 1_555
O2 Si1 1.645072 1_555
O2 Ti1 2.038561 1_565
O3 Si1 1.671660 1_555
O3 Ti0 2.089033 1_555
O4 Si1 1.656886 1_555
O4 Ti0 1.978415 1_655
O5 Si1 1.634691 1_556
O5 Ti1 1.940294 1_465
O6 Si0 1.651020 1_555
O6 Ti0 2.004545 1_455
O7 Si0 1.642839 1_554
O7 Ti1 1.972465 1_655
O8 Ti0 1.800717 1_555
O8 Ti1 2.052133 1_565
O9 Ti1 1.809769 1_555
O9 Ti0 2.036361 1_555
