# generated using pymatgen
data_Tm4BClO7
_symmetry_space_group_name_H-M   'P 1'
_cell_length_a   7.95710800
_cell_length_b   8.49083100
_cell_length_c   12.08064591
_cell_angle_alpha   60.69856484
_cell_angle_beta   90.00000000
_cell_angle_gamma   90.00000000
_symmetry_Int_Tables_number   1
_chemical_formula_structural   Tm4BClO7
_chemical_formula_sum   'Tm16 B4 Cl4 O28'
_cell_volume   711.77131923
_cell_formula_units_Z   4
loop_
 _symmetry_equiv_pos_site_id
 _symmetry_equiv_pos_as_xyz
  1  'x, y, z'
loop_
 _atom_site_type_symbol
 _atom_site_label
 _atom_site_symmetry_multiplicity
 _atom_site_fract_x
 _atom_site_fract_y
 _atom_site_fract_z
 _atom_site_occupancy
  Tm  Tm0  1  0.62469600  0.79583700  0.22240000  1
  Tm  Tm1  1  0.87530400  0.79583700  0.72240000  1
  Tm  Tm2  1  0.37530400  0.20416300  0.77760000  1
  Tm  Tm3  1  0.12469600  0.20416300  0.27760000  1
  Tm  Tm4  1  0.61738900  0.42629300  0.90779900  1
  Tm  Tm5  1  0.88261100  0.42629300  0.40779900  1
  Tm  Tm6  1  0.38261100  0.57370700  0.09220100  1
  Tm  Tm7  1  0.11738900  0.57370700  0.59220100  1
  Tm  Tm8  1  0.63930300  0.56771400  0.58179900  1
  Tm  Tm9  1  0.86069700  0.56771400  0.08179900  1
  Tm  Tm10  1  0.36069700  0.43228600  0.41820100  1
  Tm  Tm11  1  0.13930300  0.43228600  0.91820100  1
  Tm  Tm12  1  0.61473900  0.18271900  0.27829300  1
  Tm  Tm13  1  0.88526100  0.18271900  0.77829300  1
  Tm  Tm14  1  0.38526100  0.81728100  0.72170700  1
  Tm  Tm15  1  0.11473900  0.81728100  0.22170700  1
  B  B0  1  0.86936700  0.86980200  0.41389000  1
  B  B1  1  0.63063300  0.86980200  0.91389000  1
  B  B2  1  0.13063300  0.13019800  0.58611000  1
  B  B3  1  0.36936700  0.13019800  0.08611000  1
  Cl  Cl0  1  0.84841400  0.11935100  0.03065000  1
  Cl  Cl1  1  0.65158600  0.11935100  0.53065000  1
  Cl  Cl2  1  0.15158600  0.88064900  0.96935000  1
  Cl  Cl3  1  0.34841400  0.88064900  0.46935000  1
  O  O0  1  0.62243000  0.54004400  0.40283500  1
  O  O1  1  0.87757000  0.54004400  0.90283500  1
  O  O2  1  0.37757000  0.45995600  0.59716500  1
  O  O3  1  0.12243000  0.45995600  0.09716500  1
  O  O4  1  0.63727300  0.31061700  0.77294600  1
  O  O5  1  0.86272700  0.31061700  0.27294600  1
  O  O6  1  0.36272700  0.68938300  0.22705400  1
  O  O7  1  0.13727300  0.68938300  0.72705400  1
  O  O8  1  0.61712500  0.67981000  0.71756300  1
  O  O9  1  0.88287500  0.67981000  0.21756300  1
  O  O10  1  0.38287500  0.32019000  0.28243700  1
  O  O11  1  0.11712500  0.32019000  0.78243700  1
  O  O12  1  0.62113900  0.42546200  0.09265200  1
  O  O13  1  0.87886100  0.42546200  0.59265200  1
  O  O14  1  0.37886100  0.57453800  0.90734800  1
  O  O15  1  0.12113900  0.57453800  0.40734800  1
  O  O16  1  0.89080200  0.77192100  0.54417900  1
  O  O17  1  0.60919800  0.77192100  0.04417900  1
  O  O18  1  0.10919800  0.22807900  0.45582100  1
  O  O19  1  0.39080200  0.22807900  0.95582100  1
  O  O20  1  0.00442500  0.93912400  0.33331100  1
  O  O21  1  0.49557500  0.93912400  0.83331100  1
  O  O22  1  0.99557500  0.06087600  0.66668900  1
  O  O23  1  0.50442500  0.06087600  0.16668900  1
  O  O24  1  0.70898400  0.88673000  0.36594000  1
  O  O25  1  0.79101600  0.88673000  0.86594000  1
  O  O26  1  0.29101600  0.11327000  0.63406000  1
  O  O27  1  0.20898400  0.11327000  0.13406000  1
loop_
_geom_bond_atom_site_label_1
_geom_bond_atom_site_label_2
_geom_bond_distance
_geom_bond_site_symmetry_2
B0 O20 1.374095 1_655
B0 O24 1.379624 1_555
B0 O16 1.384487 1_555
B1 O21 1.374095 1_555
B1 O25 1.379624 1_555
B1 O17 1.384487 1_556
B2 O22 1.374095 1_455
B2 O26 1.379624 1_555
B2 O18 1.384487 1_555
B3 O23 1.374095 1_555
B3 O27 1.379624 1_555
B3 O19 1.384487 1_554
Cl0 Tm13 2.839734 1_554
Cl0 Tm4 2.930568 1_554
Cl0 Tm0 3.138813 1_545
Cl0 Tm15 3.256090 1_645
Cl0 Tm11 3.275663 1_654
Cl1 Tm12 2.839734 1_555
Cl1 Tm5 2.930568 1_555
Cl1 Tm1 3.138813 1_545
Cl1 Tm14 3.256090 1_545
Cl1 Tm10 3.275663 1_555
Cl2 Tm15 2.839734 1_556
Cl2 Tm6 2.930568 1_556
Cl2 Tm2 3.138813 1_565
Cl2 Tm13 3.256090 1_465
Cl2 Tm9 3.275663 1_456
Cl3 Tm14 2.839734 1_555
Cl3 Tm7 2.930568 1_555
Cl3 Tm3 3.138813 1_565
Cl3 Tm12 3.256090 1_565
Cl3 Tm8 3.275663 1_555
O0 Tm0 2.198851 1_555
O0 Tm10 2.245604 1_555
O0 Tm5 2.272850 1_555
O0 Tm8 2.290120 1_555
O1 Tm1 2.198851 1_555
O1 Tm11 2.245604 1_655
O1 Tm4 2.272850 1_555
O1 Tm9 2.290120 1_556
O2 Tm2 2.198851 1_555
O2 Tm8 2.245604 1_555
O2 Tm7 2.272850 1_555
O2 Tm10 2.290120 1_555
O3 Tm3 2.198851 1_555
O3 Tm9 2.245604 1_455
O3 Tm6 2.272850 1_555
O3 Tm11 2.290120 1_554
O4 Tm13 2.237991 1_555
O4 Tm2 2.261776 1_555
O4 Tm8 2.272416 1_555
O4 Tm4 2.282522 1_555
O5 Tm12 2.237991 1_555
O5 Tm3 2.261776 1_655
O5 Tm9 2.272416 1_555
O5 Tm5 2.282522 1_555
O6 Tm15 2.237991 1_555
O6 Tm0 2.261776 1_555
O6 Tm10 2.272416 1_555
O6 Tm6 2.282522 1_555
O7 Tm14 2.237991 1_555
O7 Tm1 2.261776 1_455
O7 Tm11 2.272416 1_555
O7 Tm7 2.282522 1_555
O8 Tm14 2.196830 1_555
O8 Tm4 2.252336 1_555
O8 Tm8 2.270460 1_555
O8 Tm1 2.291441 1_555
O9 Tm15 2.196830 1_655
O9 Tm5 2.252336 1_555
O9 Tm9 2.270460 1_555
O9 Tm0 2.291441 1_555
O10 Tm12 2.196830 1_555
O10 Tm6 2.252336 1_555
O10 Tm10 2.270460 1_555
O10 Tm3 2.291441 1_555
O11 Tm13 2.196830 1_455
O11 Tm7 2.252336 1_555
O11 Tm11 2.270460 1_555
O11 Tm2 2.291441 1_555
O12 Tm12 2.180790 1_555
O12 Tm9 2.225896 1_555
O12 Tm4 2.229899 1_554
O12 Tm6 2.275979 1_555
O13 Tm13 2.180790 1_555
O13 Tm8 2.225896 1_555
O13 Tm5 2.229899 1_555
O13 Tm7 2.275979 1_655
O14 Tm14 2.180790 1_555
O14 Tm11 2.225896 1_555
O14 Tm6 2.229899 1_556
O14 Tm4 2.275979 1_555
O15 Tm15 2.180790 1_555
O15 Tm10 2.225896 1_555
O15 Tm7 2.229899 1_555
O15 Tm5 2.275979 1_455
O16 Tm1 2.262720 1_555
O16 Tm7 2.337541 1_655
O16 Tm8 2.538981 1_555
O17 Tm0 2.262720 1_555
O17 Tm6 2.337541 1_555
O17 Tm9 2.538981 1_555
O18 Tm3 2.262720 1_555
O18 Tm5 2.337541 1_455
O18 Tm10 2.538981 1_555
O19 Tm2 2.262720 1_555
O19 Tm4 2.337541 1_555
O19 Tm11 2.538981 1_555
O20 Tm3 2.225007 1_565
O20 Tm15 2.241391 1_555
O21 Tm2 2.225007 1_565
O21 Tm14 2.241391 1_555
O22 Tm1 2.225007 1_545
O22 Tm13 2.241391 1_555
O23 Tm0 2.225007 1_545
O23 Tm12 2.241391 1_555
O24 Tm0 2.315662 1_555
O24 Tm12 2.322710 1_565
O24 Tm8 2.744241 1_555
O25 Tm1 2.315662 1_555
O25 Tm13 2.322710 1_565
O25 Tm9 2.744241 1_556
O26 Tm2 2.315662 1_555
O26 Tm14 2.322710 1_545
O26 Tm10 2.744241 1_555
O27 Tm3 2.315662 1_555
O27 Tm15 2.322710 1_545
O27 Tm11 2.744241 1_554
