# generated using pymatgen
data_Mg2Zn
_symmetry_space_group_name_H-M   'P 1'
_cell_length_a   11.81803035
_cell_length_b   11.81803035
_cell_length_c   13.00158070
_cell_angle_alpha   74.58725226
_cell_angle_beta   74.58725226
_cell_angle_gamma   31.56791203
_symmetry_Int_Tables_number   1
_chemical_formula_structural   Mg2Zn
_chemical_formula_sum   'Mg32 Zn16'
_cell_volume   913.65251165
_cell_formula_units_Z   16
loop_
 _symmetry_equiv_pos_site_id
 _symmetry_equiv_pos_as_xyz
  1  'x, y, z'
loop_
 _atom_site_type_symbol
 _atom_site_label
 _atom_site_symmetry_multiplicity
 _atom_site_fract_x
 _atom_site_fract_y
 _atom_site_fract_z
 _atom_site_occupancy
  Mg  Mg0_0  1  0.42007639  0.42007639  0.04617538  1
  Mg  Mg0_1  1  0.42007639  0.42007639  0.54617538  1
  Mg  Mg0_2  1  0.42007639  0.92007639  0.04617538  1
  Mg  Mg0_3  1  0.42007639  0.92007639  0.54617538  1
  Mg  Mg0_4  1  0.92007639  0.42007639  0.04617538  1
  Mg  Mg0_5  1  0.92007639  0.42007639  0.54617538  1
  Mg  Mg0_6  1  0.92007639  0.92007639  0.04617538  1
  Mg  Mg0_7  1  0.92007639  0.92007639  0.54617538  1
  Mg  Mg1_0  1  0.07066700  0.07066700  0.21980759  1
  Mg  Mg1_1  1  0.07066700  0.07066700  0.71980759  1
  Mg  Mg1_2  1  0.07066700  0.57066700  0.21980759  1
  Mg  Mg1_3  1  0.07066700  0.57066700  0.71980759  1
  Mg  Mg1_4  1  0.57066699  0.07066700  0.21980759  1
  Mg  Mg1_5  1  0.57066700  0.07066700  0.71980759  1
  Mg  Mg1_6  1  0.57066700  0.57066700  0.21980759  1
  Mg  Mg1_7  1  0.57066700  0.57066700  0.71980759  1
  Mg  Mg2_0  1  0.42933301  0.42933301  0.28019241  1
  Mg  Mg2_1  1  0.42933301  0.42933301  0.78019241  1
  Mg  Mg2_2  1  0.42933301  0.92933301  0.28019241  1
  Mg  Mg2_3  1  0.42933301  0.92933301  0.78019241  1
  Mg  Mg2_4  1  0.92933301  0.42933301  0.28019241  1
  Mg  Mg2_5  1  0.92933301  0.42933301  0.78019241  1
  Mg  Mg2_6  1  0.92933301  0.92933301  0.28019241  1
  Mg  Mg2_7  1  0.92933301  0.92933301  0.78019241  1
  Mg  Mg3_0  1  0.07992362  0.07992362  0.45382462  1
  Mg  Mg3_1  1  0.07992362  0.07992362  0.95382462  1
  Mg  Mg3_2  1  0.07992362  0.57992362  0.45382462  1
  Mg  Mg3_3  1  0.07992362  0.57992362  0.95382462  1
  Mg  Mg3_4  1  0.57992362  0.07992362  0.45382462  1
  Mg  Mg3_5  1  0.57992362  0.07992362  0.95382462  1
  Mg  Mg3_6  1  0.57992362  0.57992362  0.45382462  1
  Mg  Mg3_7  1  0.57992362  0.57992362  0.95382462  1
  Zn  Zn0_0  1  0.25433102  0.25433102  0.11084170  1
  Zn  Zn0_1  1  0.25433103  0.25433103  0.61084170  1
  Zn  Zn0_2  1  0.25433103  0.75433103  0.11084170  1
  Zn  Zn0_3  1  0.25433103  0.75433103  0.61084171  1
  Zn  Zn0_4  1  0.75433103  0.25433103  0.11084170  1
  Zn  Zn0_5  1  0.75433102  0.25433102  0.61084171  1
  Zn  Zn0_6  1  0.75433103  0.75433103  0.11084170  1
  Zn  Zn0_7  1  0.75433103  0.75433103  0.61084170  1
  Zn  Zn1_0  1  0.24566898  0.24566898  0.38915829  1
  Zn  Zn1_1  1  0.24566898  0.24566898  0.88915829  1
  Zn  Zn1_2  1  0.24566898  0.74566898  0.38915829  1
  Zn  Zn1_3  1  0.24566898  0.74566898  0.88915829  1
  Zn  Zn1_4  1  0.74566898  0.24566898  0.38915829  1
  Zn  Zn1_5  1  0.74566898  0.24566898  0.88915829  1
  Zn  Zn1_6  1  0.74566898  0.74566898  0.38915829  1
  Zn  Zn1_7  1  0.74566898  0.74566898  0.88915829  1
loop_
_geom_bond_atom_site_label_1
_geom_bond_atom_site_label_2
_geom_bond_distance
_geom_bond_site_symmetry_2
Mg0_0 Zn1_5 2.787184 1_554
Mg0_0 Zn1_3 2.787184 1_554
Mg0_0 Zn0_4 2.802278 1_555
Mg0_0 Zn0_2 2.802278 1_555
Mg0_0 Mg3_3 3.096727 1_554
Mg0_0 Mg3_5 3.096727 1_554
Mg0_0 Mg2_0 3.107335 1_555
Mg0_0 Mg1_2 3.157947 1_555
Mg0_0 Mg1_4 3.157947 1_555
Mg0_0 Mg0_6 3.214632 1_455
Mg0_0 Mg0_6 3.214632 1_545
Mg0_0 Mg2_1 3.406067 1_554
Mg0_1 Zn1_4 2.787184 1_555
Mg0_1 Zn1_2 2.787184 1_555
Mg0_1 Zn0_5 2.802278 1_555
Mg0_1 Zn0_3 2.802278 1_555
Mg0_1 Mg3_2 3.096727 1_555
Mg0_1 Mg3_4 3.096727 1_555
Mg0_1 Mg2_1 3.107335 1_555
Mg0_1 Mg1_3 3.157947 1_555
Mg0_1 Mg1_5 3.157947 1_555
Mg0_1 Mg0_7 3.214632 1_455
Mg0_1 Mg0_7 3.214632 1_545
Mg0_1 Mg2_0 3.406067 1_555
Mg0_2 Zn1_1 2.787184 1_564
Mg0_2 Zn1_7 2.787184 1_554
Mg0_2 Zn0_0 2.802278 1_565
Mg0_2 Zn0_6 2.802278 1_555
Mg0_2 Mg3_7 3.096727 1_554
Mg0_2 Mg3_1 3.096727 1_564
Mg0_2 Mg2_2 3.107335 1_555
Mg0_2 Mg1_6 3.157947 1_555
Mg0_2 Mg1_0 3.157947 1_565
Mg0_2 Mg0_4 3.214632 1_555
Mg0_2 Mg0_4 3.214632 1_465
Mg0_2 Mg2_3 3.406067 1_554
Mg0_3 Zn1_0 2.787184 1_565
Mg0_3 Zn1_6 2.787184 1_555
Mg0_3 Zn0_1 2.802278 1_565
Mg0_3 Zn0_7 2.802278 1_555
Mg0_3 Mg3_6 3.096727 1_555
Mg0_3 Mg3_0 3.096727 1_565
Mg0_3 Mg2_3 3.107335 1_555
Mg0_3 Mg1_7 3.157947 1_555
Mg0_3 Mg1_1 3.157947 1_565
Mg0_3 Mg0_5 3.214632 1_555
Mg0_3 Mg0_5 3.214632 1_465
Mg0_3 Mg2_2 3.406067 1_555
Mg0_4 Zn1_1 2.787184 1_654
Mg0_4 Zn1_7 2.787184 1_554
Mg0_4 Zn0_0 2.802278 1_655
Mg0_4 Zn0_6 2.802278 1_555
Mg0_4 Mg3_7 3.096727 1_554
Mg0_4 Mg3_1 3.096727 1_654
Mg0_4 Mg2_4 3.107335 1_555
Mg0_4 Mg1_6 3.157947 1_555
Mg0_4 Mg1_0 3.157947 1_655
Mg0_4 Mg2_5 3.406067 1_554
Mg0_5 Zn1_0 2.787184 1_655
Mg0_5 Zn1_6 2.787184 1_555
Mg0_5 Zn0_1 2.802278 1_655
Mg0_5 Zn0_7 2.802278 1_555
Mg0_5 Mg3_6 3.096727 1_555
Mg0_5 Mg3_0 3.096727 1_655
Mg0_5 Mg2_5 3.107335 1_555
Mg0_5 Mg1_7 3.157947 1_555
Mg0_5 Mg1_1 3.157947 1_655
Mg0_5 Mg2_4 3.406067 1_555
Mg0_6 Zn1_5 2.787184 1_564
Mg0_6 Zn1_3 2.787184 1_654
Mg0_6 Zn0_4 2.802278 1_565
Mg0_6 Zn0_2 2.802278 1_655
Mg0_6 Mg3_3 3.096727 1_654
Mg0_6 Mg3_5 3.096727 1_564
Mg0_6 Mg2_6 3.107335 1_555
Mg0_6 Mg1_2 3.157947 1_655
Mg0_6 Mg1_4 3.157947 1_565
Mg0_6 Mg2_7 3.406067 1_554
Mg0_7 Zn1_4 2.787184 1_565
Mg0_7 Zn1_2 2.787184 1_655
Mg0_7 Zn0_5 2.802278 1_565
Mg0_7 Zn0_3 2.802278 1_655
Mg0_7 Mg3_2 3.096727 1_655
Mg0_7 Mg3_4 3.096727 1_565
Mg0_7 Mg2_7 3.107335 1_555
Mg0_7 Mg1_3 3.157947 1_655
Mg0_7 Mg1_5 3.157947 1_565
Mg0_7 Mg2_6 3.406067 1_555
Mg1_0 Zn0_2 2.836862 1_545
Mg1_0 Zn0_4 2.836862 1_455
Mg1_0 Zn1_2 2.875182 1_545
Mg1_0 Zn1_4 2.875182 1_455
Mg1_0 Mg2_6 3.091293 1_445
Mg1_0 Mg3_0 3.107335 1_555
Mg1_0 Mg1_6 3.214632 1_545
Mg1_0 Mg1_6 3.214632 1_455
Mg1_0 Mg2_4 3.221870 1_455
Mg1_0 Mg2_2 3.221870 1_545
Mg1_0 Mg3_1 3.406067 1_554
Mg1_1 Zn0_3 2.836862 1_545
Mg1_1 Zn0_5 2.836862 1_455
Mg1_1 Zn1_3 2.875182 1_545
Mg1_1 Zn1_5 2.875182 1_455
Mg1_1 Mg2_7 3.091293 1_445
Mg1_1 Mg3_1 3.107335 1_555
Mg1_1 Mg1_7 3.214632 1_545
Mg1_1 Mg1_7 3.214632 1_455
Mg1_1 Mg2_5 3.221870 1_455
Mg1_1 Mg2_3 3.221870 1_545
Mg1_1 Mg3_0 3.406067 1_555
Mg1_2 Zn0_6 2.836862 1_455
Mg1_2 Zn0_0 2.836862 1_555
Mg1_2 Zn1_6 2.875182 1_455
Mg1_2 Zn1_0 2.875182 1_555
Mg1_2 Mg2_4 3.091293 1_455
Mg1_2 Mg3_2 3.107335 1_555
Mg1_2 Mg1_4 3.214632 1_555
Mg1_2 Mg1_4 3.214632 1_465
Mg1_2 Mg2_6 3.221870 1_455
Mg1_2 Mg2_0 3.221870 1_555
Mg1_2 Mg3_3 3.406067 1_554
Mg1_3 Zn0_7 2.836862 1_455
Mg1_3 Zn0_1 2.836862 1_555
Mg1_3 Zn1_7 2.875182 1_455
Mg1_3 Zn1_1 2.875182 1_555
Mg1_3 Mg2_5 3.091293 1_455
Mg1_3 Mg3_3 3.107335 1_555
Mg1_3 Mg1_5 3.214632 1_555
Mg1_3 Mg1_5 3.214632 1_465
Mg1_3 Mg2_1 3.221870 1_555
Mg1_3 Mg2_7 3.221870 1_455
Mg1_3 Mg3_2 3.406067 1_555
Mg1_4 Zn0_6 2.836862 1_545
Mg1_4 Zn0_0 2.836862 1_555
Mg1_4 Zn1_6 2.875182 1_545
Mg1_4 Zn1_0 2.875182 1_555
Mg1_4 Mg2_2 3.091293 1_545
Mg1_4 Mg3_4 3.107335 1_555
Mg1_4 Mg2_6 3.221870 1_545
Mg1_4 Mg2_0 3.221870 1_555
Mg1_4 Mg3_5 3.406067 1_554
Mg1_5 Zn0_7 2.836862 1_545
Mg1_5 Zn0_1 2.836862 1_555
Mg1_5 Zn1_7 2.875182 1_545
Mg1_5 Zn1_1 2.875182 1_555
Mg1_5 Mg2_3 3.091293 1_545
Mg1_5 Mg3_5 3.107335 1_555
Mg1_5 Mg2_1 3.221870 1_555
Mg1_5 Mg2_7 3.221870 1_545
Mg1_5 Mg3_4 3.406067 1_555
Mg1_6 Zn0_2 2.836862 1_555
Mg1_6 Zn0_4 2.836862 1_555
Mg1_6 Zn1_2 2.875182 1_555
Mg1_6 Zn1_4 2.875182 1_555
Mg1_6 Mg2_0 3.091293 1_555
Mg1_6 Mg3_6 3.107335 1_555
Mg1_6 Mg2_4 3.221870 1_555
Mg1_6 Mg2_2 3.221870 1_555
Mg1_6 Mg3_7 3.406067 1_554
Mg1_7 Zn0_3 2.836862 1_555
Mg1_7 Zn0_5 2.836862 1_555
Mg1_7 Zn1_3 2.875182 1_555
Mg1_7 Zn1_5 2.875182 1_555
Mg1_7 Mg2_1 3.091293 1_555
Mg1_7 Mg3_7 3.107335 1_555
Mg1_7 Mg2_5 3.221870 1_555
Mg1_7 Mg2_3 3.221870 1_555
Mg1_7 Mg3_6 3.406067 1_555
Mg2_0 Zn1_4 2.836862 1_555
Mg2_0 Zn1_2 2.836862 1_555
Mg2_0 Zn0_4 2.875182 1_555
Mg2_0 Zn0_2 2.875182 1_555
Mg2_0 Mg3_2 3.157947 1_555
Mg2_0 Mg3_4 3.157947 1_555
Mg2_0 Mg2_6 3.214632 1_545
Mg2_0 Mg2_6 3.214632 1_455
Mg2_1 Zn1_5 2.836862 1_555
Mg2_1 Zn1_3 2.836862 1_555
Mg2_1 Zn0_5 2.875182 1_555
Mg2_1 Zn0_3 2.875182 1_555
Mg2_1 Mg3_3 3.157947 1_555
Mg2_1 Mg3_5 3.157947 1_555
Mg2_1 Mg2_7 3.214632 1_455
Mg2_1 Mg2_7 3.214632 1_545
Mg2_2 Zn1_0 2.836862 1_565
Mg2_2 Zn1_6 2.836862 1_555
Mg2_2 Zn0_0 2.875182 1_565
Mg2_2 Zn0_6 2.875182 1_555
Mg2_2 Mg3_6 3.157947 1_555
Mg2_2 Mg3_0 3.157947 1_565
Mg2_2 Mg2_4 3.214632 1_555
Mg2_2 Mg2_4 3.214632 1_465
Mg2_3 Zn1_7 2.836862 1_555
Mg2_3 Zn1_1 2.836862 1_565
Mg2_3 Zn0_1 2.875182 1_565
Mg2_3 Zn0_7 2.875182 1_555
Mg2_3 Mg3_1 3.157947 1_565
Mg2_3 Mg3_7 3.157947 1_555
Mg2_3 Mg2_5 3.214632 1_465
Mg2_3 Mg2_5 3.214632 1_555
Mg2_4 Zn1_0 2.836862 1_655
Mg2_4 Zn1_6 2.836862 1_555
Mg2_4 Zn0_0 2.875182 1_655
Mg2_4 Zn0_6 2.875182 1_555
Mg2_4 Mg3_6 3.157947 1_555
Mg2_4 Mg3_0 3.157947 1_655
Mg2_5 Zn1_7 2.836862 1_555
Mg2_5 Zn1_1 2.836862 1_655
Mg2_5 Zn0_1 2.875182 1_655
Mg2_5 Zn0_7 2.875182 1_555
Mg2_5 Mg3_1 3.157947 1_655
Mg2_5 Mg3_7 3.157947 1_555
Mg2_6 Zn1_4 2.836862 1_565
Mg2_6 Zn1_2 2.836862 1_655
Mg2_6 Zn0_4 2.875182 1_565
Mg2_6 Zn0_2 2.875182 1_655
Mg2_6 Mg3_2 3.157947 1_655
Mg2_6 Mg3_4 3.157947 1_565
Mg2_7 Zn1_5 2.836862 1_565
Mg2_7 Zn1_3 2.836862 1_655
Mg2_7 Zn0_5 2.875182 1_565
Mg2_7 Zn0_3 2.875182 1_655
Mg2_7 Mg3_3 3.157947 1_655
Mg2_7 Mg3_5 3.157947 1_565
Mg3_0 Zn0_3 2.787184 1_545
Mg3_0 Zn0_5 2.787184 1_455
Mg3_0 Zn1_2 2.802278 1_545
Mg3_0 Zn1_4 2.802278 1_455
Mg3_0 Mg3_6 3.214632 1_455
Mg3_0 Mg3_6 3.214632 1_545
Mg3_1 Zn0_2 2.787184 1_546
Mg3_1 Zn0_4 2.787184 1_456
Mg3_1 Zn1_3 2.802278 1_545
Mg3_1 Zn1_5 2.802278 1_455
Mg3_1 Mg3_7 3.214632 1_455
Mg3_1 Mg3_7 3.214632 1_545
Mg3_2 Zn0_7 2.787184 1_455
Mg3_2 Zn0_1 2.787184 1_555
Mg3_2 Zn1_6 2.802278 1_455
Mg3_2 Zn1_0 2.802278 1_555
Mg3_2 Mg3_4 3.214632 1_555
Mg3_2 Mg3_4 3.214632 1_465
Mg3_3 Zn0_6 2.787184 1_456
Mg3_3 Zn0_0 2.787184 1_556
Mg3_3 Zn1_1 2.802278 1_555
Mg3_3 Zn1_7 2.802278 1_455
Mg3_3 Mg3_5 3.214632 1_465
Mg3_3 Mg3_5 3.214632 1_555
Mg3_4 Zn0_7 2.787184 1_545
Mg3_4 Zn0_1 2.787184 1_555
Mg3_4 Zn1_6 2.802278 1_545
Mg3_4 Zn1_0 2.802278 1_555
Mg3_5 Zn0_6 2.787184 1_546
Mg3_5 Zn0_0 2.787184 1_556
Mg3_5 Zn1_7 2.802278 1_545
Mg3_5 Zn1_1 2.802278 1_555
Mg3_6 Zn0_3 2.787184 1_555
Mg3_6 Zn0_5 2.787184 1_555
Mg3_6 Zn1_2 2.802278 1_555
Mg3_6 Zn1_4 2.802278 1_555
Mg3_7 Zn0_2 2.787184 1_556
Mg3_7 Zn0_4 2.787184 1_556
Mg3_7 Zn1_3 2.802278 1_555
Mg3_7 Zn1_5 2.802278 1_555
Zn0_0 Zn1_1 2.942746 1_554
Zn0_1 Zn1_0 2.942746 1_555
Zn0_2 Zn1_3 2.942746 1_554
Zn0_3 Zn1_2 2.942746 1_555
Zn0_4 Zn1_5 2.942746 1_554
Zn0_5 Zn1_4 2.942746 1_555
Zn0_6 Zn1_7 2.942746 1_554
Zn0_7 Zn1_6 2.942746 1_555
