# generated using pymatgen
data_V3Cd5O12
_symmetry_space_group_name_H-M   'P 1'
_cell_length_a   9.45786262
_cell_length_b   9.45786262
_cell_length_c   7.14775089
_cell_angle_alpha   73.67489847
_cell_angle_beta   73.67489847
_cell_angle_gamma   94.21600049
_symmetry_Int_Tables_number   1
_chemical_formula_structural   V3Cd5O12
_chemical_formula_sum   'V6 Cd10 O24'
_cell_volume   580.72614449
_cell_formula_units_Z   2
loop_
 _symmetry_equiv_pos_site_id
 _symmetry_equiv_pos_as_xyz
  1  'x, y, z'
loop_
 _atom_site_type_symbol
 _atom_site_label
 _atom_site_symmetry_multiplicity
 _atom_site_fract_x
 _atom_site_fract_y
 _atom_site_fract_z
 _atom_site_occupancy
  V  V0  1  0.70230400  0.29769600  0.25000000  1
  V  V1  1  0.29769600  0.70230400  0.75000000  1
  V  V2  1  0.65751100  0.87866900  0.13115300  1
  V  V3  1  0.34248900  0.12133100  0.86884700  1
  V  V4  1  0.12133100  0.34248900  0.36884700  1
  V  V5  1  0.87866900  0.65751100  0.63115300  1
  Cd  Cd0  1  0.98959800  0.01040200  0.25000000  1
  Cd  Cd1  1  0.01040200  0.98959800  0.75000000  1
  Cd  Cd2  1  0.50000000  0.50000000  0.00000000  1
  Cd  Cd3  1  0.50000000  0.50000000  0.50000000  1
  Cd  Cd4  1  0.26980900  0.73019100  0.25000000  1
  Cd  Cd5  1  0.73019100  0.26980900  0.75000000  1
  Cd  Cd6  1  0.36934600  0.06117000  0.36541900  1
  Cd  Cd7  1  0.63065400  0.93883000  0.63458100  1
  Cd  Cd8  1  0.93883000  0.63065400  0.13458100  1
  Cd  Cd9  1  0.06117000  0.36934600  0.86541900  1
  O  O0  1  0.73087800  0.18484100  0.47123700  1
  O  O1  1  0.26912200  0.81515900  0.52876300  1
  O  O2  1  0.81515900  0.26912200  0.02876300  1
  O  O3  1  0.18484100  0.73087800  0.97123700  1
  O  O4  1  0.52064700  0.28244300  0.23150400  1
  O  O5  1  0.47935300  0.71755700  0.76849600  1
  O  O6  1  0.71755700  0.47935300  0.26849600  1
  O  O7  1  0.28244300  0.52064700  0.73150400  1
  O  O8  1  0.53080700  0.70793300  0.19775300  1
  O  O9  1  0.46919300  0.29206700  0.80224700  1
  O  O10  1  0.29206700  0.46919300  0.30224700  1
  O  O11  1  0.70793300  0.53080700  0.69775300  1
  O  O12  1  0.60086300  0.96051500  0.31910200  1
  O  O13  1  0.39913700  0.03948500  0.68089800  1
  O  O14  1  0.03948500  0.39913700  0.18089800  1
  O  O15  1  0.96051500  0.60086300  0.81910200  1
  O  O16  1  0.84619700  0.85217600  0.10593000  1
  O  O17  1  0.15380300  0.14782400  0.89407000  1
  O  O18  1  0.14782400  0.15380300  0.39407000  1
  O  O19  1  0.85217600  0.84619700  0.60593000  1
  O  O20  1  0.33391400  0.99125200  0.10113800  1
  O  O21  1  0.66608600  0.00874800  0.89886200  1
  O  O22  1  0.00874800  0.66608600  0.39886200  1
  O  O23  1  0.99125200  0.33391400  0.60113800  1
loop_
_geom_bond_atom_site_label_1
_geom_bond_atom_site_label_2
_geom_bond_distance
_geom_bond_site_symmetry_2
Cd0 O17 2.489326 1_654
Cd0 O19 2.489326 1_545
Cd0 O16 2.548023 1_545
Cd0 O18 2.548023 1_655
Cd1 O18 2.489326 1_565
Cd1 O16 2.489326 1_456
Cd1 O19 2.548023 1_455
Cd1 O17 2.548023 1_565
Cd2 O4 2.310135 1_555
Cd2 O5 2.310135 1_554
Cd2 O10 2.406886 1_555
Cd2 O11 2.406886 1_554
Cd2 O9 2.767736 1_554
Cd2 O8 2.767736 1_555
Cd3 O6 2.310135 1_555
Cd3 O7 2.310135 1_555
Cd3 O8 2.406886 1_555
Cd3 O9 2.406886 1_555
Cd3 O10 2.767736 1_555
Cd3 O11 2.767736 1_555
Cd4 O1 2.347268 1_555
Cd4 O3 2.347268 1_554
Cd4 O20 2.352955 1_555
Cd4 O22 2.352955 1_555
Cd4 O10 2.424778 1_555
Cd4 O8 2.424778 1_555
Cd5 O0 2.347268 1_555
Cd5 O2 2.347268 1_556
Cd5 O23 2.352955 1_555
Cd5 O21 2.352955 1_555
Cd5 O11 2.424778 1_555
Cd5 O9 2.424778 1_555
Cd6 O4 2.237662 1_555
Cd6 O20 2.267928 1_545
Cd6 O1 2.280735 1_545
Cd6 O13 2.304779 1_555
Cd6 O18 2.308376 1_555
Cd6 O12 2.426233 1_545
Cd7 O5 2.237662 1_555
Cd7 O21 2.267928 1_565
Cd7 O0 2.280735 1_565
Cd7 O12 2.304779 1_555
Cd7 O19 2.308376 1_555
Cd7 O13 2.426233 1_565
Cd8 O6 2.237662 1_555
Cd8 O22 2.267928 1_655
Cd8 O3 2.280735 1_654
Cd8 O15 2.304779 1_554
Cd8 O16 2.308376 1_555
Cd8 O14 2.426233 1_655
Cd9 O7 2.237662 1_555
Cd9 O23 2.267928 1_455
Cd9 O2 2.280735 1_456
Cd9 O14 2.304779 1_556
Cd9 O17 2.308376 1_555
Cd9 O15 2.426233 1_455
O0 V0 1.745493 1_555
O1 V1 1.745493 1_555
O2 V0 1.745493 1_555
O3 V1 1.745493 1_555
O4 V0 1.758432 1_555
O5 V1 1.758432 1_555
O6 V0 1.758432 1_555
O7 V1 1.758432 1_555
O8 V2 1.798014 1_555
O9 V3 1.798014 1_555
O10 V4 1.798014 1_555
O11 V5 1.798014 1_555
O12 V2 1.712304 1_555
O13 V3 1.712304 1_555
O14 V4 1.712304 1_555
O15 V5 1.712304 1_555
O16 V2 1.786123 1_555
O17 V3 1.786123 1_555
O18 V4 1.786123 1_555
O19 V5 1.786123 1_555
O20 V3 1.743047 1_564
O21 V2 1.743047 1_546
O22 V5 1.743047 1_455
O23 V4 1.743047 1_655
