# generated using pymatgen
data_Li7Mn4CoO12
_symmetry_space_group_name_H-M   'P 1'
_cell_length_a   5.02671600
_cell_length_b   6.49378498
_cell_length_c   6.76241442
_cell_angle_alpha   83.88459968
_cell_angle_beta   80.86803034
_cell_angle_gamma   82.80665275
_symmetry_Int_Tables_number   1
_chemical_formula_structural   Li7Mn4CoO12
_chemical_formula_sum   'Li7 Mn4 Co1 O12'
_cell_volume   215.38052737
_cell_formula_units_Z   1
loop_
 _symmetry_equiv_pos_site_id
 _symmetry_equiv_pos_as_xyz
  1  'x, y, z'
loop_
 _atom_site_type_symbol
 _atom_site_label
 _atom_site_symmetry_multiplicity
 _atom_site_fract_x
 _atom_site_fract_y
 _atom_site_fract_z
 _atom_site_occupancy
  Li  Li0  1  0.73736000  0.75062300  0.74448200  1
  Li  Li1  1  0.74729000  0.41795500  0.09297500  1
  Li  Li2  1  0.25996100  0.91157500  0.58501400  1
  Li  Li3  1  0.27167500  0.58633000  0.93549200  1
  Li  Li4  1  0.72860400  0.08559200  0.39625600  1
  Li  Li5  1  0.26102100  0.24475600  0.25014700  1
  Li  Li6  1  0.50121000  0.83259600  0.17143700  1
  Mn  Mn0  1  0.00113300  0.99612600  0.01159300  1
  Mn  Mn1  1  0.99675000  0.66847100  0.32948400  1
  Mn  Mn2  1  0.00146100  0.33488600  0.65983700  1
  Mn  Mn3  1  0.50021900  0.16111700  0.83877300  1
  Co  Co0  1  0.49487100  0.50444900  0.49225900  1
  O  O0  1  0.90071300  0.71713300  0.05740900  1
  O  O1  1  0.85421400  0.39936700  0.37346600  1
  O  O2  1  0.36408300  0.89213100  0.87781500  1
  O  O3  1  0.36071600  0.54580200  0.23555700  1
  O  O4  1  0.87930800  0.04738800  0.73783900  1
  O  O5  1  0.35731500  0.22828600  0.54000200  1
  O  O6  1  0.63664200  0.77139300  0.45356900  1
  O  O7  1  0.62558600  0.44613400  0.76581900  1
  O  O8  1  0.10458000  0.94717600  0.27760200  1
  O  O9  1  0.12356800  0.61902300  0.59534800  1
  O  O10  1  0.65400300  0.11909900  0.11741000  1
  O  O11  1  0.13771500  0.27259200  0.96041300  1
loop_
_geom_bond_atom_site_label_1
_geom_bond_atom_site_label_2
_geom_bond_distance
_geom_bond_site_symmetry_2
Li0 O2 2.094236 1_555
Li0 O6 2.094562 1_555
Li0 O7 2.106624 1_555
Li0 O4 2.130896 1_565
Li0 O9 2.159385 1_655
Li0 O0 2.368203 1_556
Li1 O10 2.036794 1_555
Li1 O1 2.039574 1_555
Li1 O3 2.136997 1_555
Li1 O0 2.154966 1_555
Li1 O11 2.168914 1_654
Li1 O7 2.370153 1_554
Li2 O9 2.089681 1_555
Li2 O6 2.100121 1_555
Li2 O2 2.114138 1_555
Li2 O5 2.152522 1_565
Li2 O4 2.156617 1_465
Li2 O8 2.313628 1_555
Li3 O0 2.035423 1_456
Li3 O2 2.078412 1_555
Li3 O7 2.116427 1_555
Li3 O3 2.128874 1_556
Li3 O11 2.206133 1_555
Li3 O9 2.508023 1_555
Li4 O10 1.964772 1_555
Li4 O8 2.066507 1_645
Li4 O5 2.114191 1_555
Li4 O6 2.130199 1_545
Li4 O1 2.190568 1_555
Li4 O4 2.521400 1_555
Li5 O3 2.066683 1_555
Li5 O5 2.081186 1_555
Li5 O11 2.130183 1_554
Li5 O10 2.136199 1_555
Li5 O8 2.155204 1_545
Li5 O1 2.237864 1_455
Li6 O3 2.053132 1_555
Li6 O10 2.075755 1_565
Li6 O8 2.081353 1_555
Li6 O0 2.108122 1_555
Li6 O6 2.108183 1_555
Li6 O2 2.184336 1_554
Mn0 O10 1.889698 1_465
Mn0 O0 1.921697 1_455
Mn0 O8 1.934176 1_555
Mn0 O2 1.975041 1_554
Mn0 O11 1.978677 1_564
Mn0 O4 2.022473 1_464
Mn1 O8 1.934547 1_655
Mn1 O3 1.938869 1_655
Mn1 O6 1.939552 1_555
Mn1 O1 1.946989 1_555
Mn1 O0 1.959064 1_555
Mn1 O9 1.982775 1_655
Mn2 O5 1.919614 1_555
Mn2 O7 1.985974 1_455
Mn2 O9 1.999658 1_555
Mn2 O4 2.028604 1_455
Mn2 O1 2.162877 1_455
Mn2 O11 2.227466 1_555
Mn3 O2 1.932054 1_545
Mn3 O11 1.960060 1_555
Mn3 O4 1.996153 1_555
Mn3 O7 2.016183 1_555
Mn3 O10 2.126602 1_556
Mn3 O5 2.232214 1_555
Co0 O1 1.929059 1_555
Co0 O6 1.932567 1_555
Co0 O3 1.940932 1_555
Co0 O9 1.967960 1_555
Co0 O5 1.978572 1_555
Co0 O7 2.042455 1_555
