# generated using pymatgen
data_La7SmMn3Fe5O24
_symmetry_space_group_name_H-M   'P 1'
_cell_length_a   7.90945110
_cell_length_b   7.90945110
_cell_length_c   7.87479604
_cell_angle_alpha   89.99599752
_cell_angle_beta   89.99599752
_cell_angle_gamma   90.00498908
_symmetry_Int_Tables_number   1
_chemical_formula_structural   La7SmMn3Fe5O24
_chemical_formula_sum   'La7 Sm1 Mn3 Fe5 O24'
_cell_volume   492.64264203
_cell_formula_units_Z   1
loop_
 _symmetry_equiv_pos_site_id
 _symmetry_equiv_pos_as_xyz
  1  'x, y, z'
loop_
 _atom_site_type_symbol
 _atom_site_label
 _atom_site_symmetry_multiplicity
 _atom_site_fract_x
 _atom_site_fract_y
 _atom_site_fract_z
 _atom_site_occupancy
  La  La0  1  0.75013300  0.24985700  0.25121200  1
  La  La1  1  0.24987000  0.24987000  0.25124600  1
  La  La2  1  0.75015300  0.24988200  0.74881100  1
  La  La3  1  0.24988100  0.24988100  0.74877800  1
  La  La4  1  0.24985700  0.75013300  0.25121200  1
  La  La5  1  0.75012400  0.75012400  0.74876500  1
  La  La6  1  0.24988200  0.75015300  0.74881100  1
  Sm  Sm0  1  0.75002000  0.75002000  0.25106900  1
  Mn  Mn0  1  0.99971100  0.99971100  0.49970700  1
  Mn  Mn1  1  0.50027600  0.99972200  0.49973800  1
  Mn  Mn2  1  0.99972200  0.50027600  0.49973800  1
  Fe  Fe0  1  0.99970500  0.99970500  0.00030100  1
  Fe  Fe1  1  0.50028000  0.99972900  0.00027800  1
  Fe  Fe2  1  0.99972900  0.50028000  0.00027800  1
  Fe  Fe3  1  0.50027700  0.50027700  0.00028200  1
  Fe  Fe4  1  0.50029300  0.50029300  0.49971500  1
  O  O0  1  0.99994400  0.24971600  0.00007700  1
  O  O1  1  0.50005900  0.24963500  0.00007300  1
  O  O2  1  0.99993700  0.24946900  0.49995700  1
  O  O3  1  0.50007700  0.25273500  0.49996400  1
  O  O4  1  0.99874500  0.75028700  0.00127000  1
  O  O5  1  0.50125600  0.75037800  0.00126700  1
  O  O6  1  0.99863500  0.75052700  0.49865900  1
  O  O7  1  0.50135200  0.74732500  0.49868500  1
  O  O8  1  0.99872500  0.99872500  0.25001200  1
  O  O9  1  0.50130900  0.99870800  0.24919900  1
  O  O10  1  0.99994300  0.99994300  0.75004500  1
  O  O11  1  0.50006400  0.99995400  0.75085000  1
  O  O12  1  0.99870800  0.50130900  0.24919900  1
  O  O13  1  0.50124800  0.50124800  0.24956700  1
  O  O14  1  0.99995400  0.50006400  0.75085000  1
  O  O15  1  0.50005900  0.50005900  0.75043100  1
  O  O16  1  0.75028700  0.99874500  0.00127000  1
  O  O17  1  0.24971600  0.99994400  0.00007700  1
  O  O18  1  0.75052700  0.99863500  0.49865900  1
  O  O19  1  0.24946900  0.99993700  0.49995700  1
  O  O20  1  0.75037800  0.50125600  0.00126700  1
  O  O21  1  0.24963500  0.50005900  0.00007300  1
  O  O22  1  0.74732500  0.50135200  0.49868500  1
  O  O23  1  0.25273500  0.50007700  0.49996400  1
loop_
_geom_bond_atom_site_label_1
_geom_bond_atom_site_label_2
_geom_bond_distance
_geom_bond_site_symmetry_2
La0 O2 2.782327 1_555
La0 O18 2.782943 1_545
La0 O3 2.783682 1_555
La0 O22 2.784910 1_555
La0 O8 2.795043 1_545
La0 O0 2.795453 1_555
La0 O9 2.796217 1_545
La0 O16 2.796310 1_545
La0 O12 2.796532 1_555
La0 O1 2.797141 1_555
La0 O20 2.797744 1_555
La0 O13 2.798144 1_555
La1 O19 2.782669 1_545
La1 O2 2.782669 1_455
La1 O23 2.784533 1_555
La1 O3 2.784533 1_555
La1 O17 2.796481 1_545
La1 O0 2.796481 1_455
La1 O1 2.797779 1_555
La1 O21 2.797779 1_555
La1 O8 2.809116 1_445
La1 O12 2.811129 1_455
La1 O9 2.811129 1_545
La1 O13 2.811734 1_555
La2 O2 2.782626 1_555
La2 O3 2.784511 1_555
La2 O10 2.795036 1_545
La2 O14 2.796245 1_555
La2 O0 2.796266 1_556
La2 O11 2.796431 1_545
La2 O1 2.797743 1_556
La2 O15 2.798080 1_555
La2 O18 2.798234 1_545
La2 O22 2.799237 1_555
La2 O16 2.810241 1_546
La2 O20 2.811746 1_556
La3 O19 2.783535 1_545
La3 O2 2.783535 1_455
La3 O3 2.784805 1_555
La3 O23 2.784805 1_555
La3 O10 2.795615 1_445
La3 O0 2.797071 1_456
La3 O17 2.797071 1_546
La3 O11 2.797198 1_545
La3 O14 2.797198 1_455
La3 O15 2.798314 1_555
La3 O21 2.798592 1_556
La3 O1 2.798592 1_556
La4 O19 2.782327 1_555
La4 O6 2.782943 1_455
La4 O23 2.783682 1_555
La4 O7 2.784910 1_555
La4 O8 2.795043 1_455
La4 O17 2.795453 1_555
La4 O12 2.796217 1_455
La4 O4 2.796310 1_455
La4 O9 2.796532 1_555
La4 O21 2.797141 1_555
La4 O5 2.797744 1_555
La4 O13 2.798144 1_555
La5 O6 2.782455 1_555
La5 O18 2.782455 1_555
La5 O7 2.784050 1_555
La5 O22 2.784050 1_555
La5 O10 2.794286 1_555
La5 O14 2.795968 1_555
La5 O11 2.795968 1_555
La5 O16 2.796664 1_556
La5 O4 2.796664 1_556
La5 O15 2.797048 1_555
La5 O5 2.797827 1_556
La5 O20 2.797827 1_556
La6 O19 2.782626 1_555
La6 O23 2.784511 1_555
La6 O10 2.795036 1_455
La6 O11 2.796245 1_555
La6 O17 2.796266 1_556
La6 O14 2.796431 1_455
La6 O21 2.797743 1_556
La6 O15 2.798080 1_555
La6 O6 2.798234 1_455
La6 O7 2.799237 1_555
La6 O4 2.810241 1_456
La6 O5 2.811746 1_556
Mn0 O8 1.966329 1_555
Mn0 O18 1.970944 1_555
Mn0 O6 1.970944 1_555
Mn0 O10 1.971363 1_555
Mn0 O2 1.975450 1_565
Mn0 O19 1.975450 1_655
Mn1 O9 1.972977 1_555
Mn1 O11 1.977457 1_555
Mn1 O18 1.979385 1_555
Mn1 O19 1.983747 1_555
Mn1 O7 1.996358 1_555
Mn1 O3 2.001196 1_565
Mn2 O12 1.972977 1_555
Mn2 O14 1.977457 1_555
Mn2 O6 1.979385 1_555
Mn2 O2 1.983747 1_555
Mn2 O22 1.996358 1_555
Mn2 O23 2.001196 1_655
Fe0 O8 1.966453 1_555
Fe0 O10 1.970716 1_554
Fe0 O16 1.972788 1_555
Fe0 O4 1.972788 1_555
Fe0 O0 1.977451 1_565
Fe0 O17 1.977451 1_655
Fe1 O9 1.960236 1_555
Fe1 O11 1.964196 1_554
Fe1 O5 1.972260 1_555
Fe1 O1 1.976621 1_565
Fe1 O16 1.977450 1_555
Fe1 O17 1.981825 1_555
Fe2 O12 1.960236 1_555
Fe2 O14 1.964196 1_554
Fe2 O20 1.972260 1_555
Fe2 O21 1.976621 1_655
Fe2 O4 1.977450 1_555
Fe2 O0 1.981825 1_555
Fe3 O13 1.963100 1_555
Fe3 O15 1.967527 1_554
Fe3 O20 1.978192 1_555
Fe3 O5 1.978192 1_555
Fe3 O1 1.982442 1_555
Fe3 O21 1.982442 1_555
Fe4 O7 1.953921 1_555
Fe4 O22 1.953921 1_555
Fe4 O3 1.958049 1_555
Fe4 O23 1.958049 1_555
Fe4 O13 1.969892 1_555
Fe4 O15 1.974339 1_555
O4 Sm0 2.781940 1_555
O5 Sm0 2.782370 1_555
O6 Sm0 2.769246 1_555
O7 Sm0 2.769571 1_555
O8 Sm0 2.781818 1_555
O9 Sm0 2.782026 1_555
O12 Sm0 2.782026 1_555
O13 Sm0 2.782582 1_555
O16 Sm0 2.781940 1_555
O18 Sm0 2.769246 1_555
O20 Sm0 2.782370 1_555
O22 Sm0 2.769571 1_555
