# generated using pymatgen
data_Y4V6O21
_symmetry_space_group_name_H-M   'P 1'
_cell_length_a   8.03343372
_cell_length_b   8.03343372
_cell_length_c   16.49099009
_cell_angle_alpha   84.12027035
_cell_angle_beta   84.12027035
_cell_angle_gamma   55.86582819
_symmetry_Int_Tables_number   1
_chemical_formula_structural   Y4V6O21
_chemical_formula_sum   'Y8 V12 O42'
_cell_volume   874.97670550
_cell_formula_units_Z   2
loop_
 _symmetry_equiv_pos_site_id
 _symmetry_equiv_pos_as_xyz
  1  'x, y, z'
loop_
 _atom_site_type_symbol
 _atom_site_label
 _atom_site_symmetry_multiplicity
 _atom_site_fract_x
 _atom_site_fract_y
 _atom_site_fract_z
 _atom_site_occupancy
  Y  Y0  1  0.63695100  0.16618100  0.82807400  1
  Y  Y1  1  0.36304900  0.83381900  0.17192600  1
  Y  Y2  1  0.00000000  0.50000000  0.50000000  1
  Y  Y3  1  0.50000000  0.50000000  0.50000000  1
  Y  Y4  1  0.00000000  0.00000000  0.00000000  1
  Y  Y5  1  0.16618100  0.63695100  0.82807400  1
  Y  Y6  1  0.83381900  0.36304900  0.17192600  1
  Y  Y7  1  0.50000000  0.00000000  0.50000000  1
  V  V0  1  0.50000000  0.50000000  0.00000000  1
  V  V1  1  0.18900100  0.18900100  0.33764100  1
  V  V2  1  0.81099900  0.81099900  0.66235900  1
  V  V3  1  0.72255700  0.72255700  0.86826400  1
  V  V4  1  0.27744300  0.27744300  0.13173600  1
  V  V5  1  0.00000000  0.00000000  0.50000000  1
  V  V6  1  0.50000000  0.00000000  0.00000000  1
  V  V7  1  0.15787400  0.67317500  0.35254500  1
  V  V8  1  0.84212600  0.32682500  0.64745500  1
  V  V9  1  0.00000000  0.50000000  0.00000000  1
  V  V10  1  0.67317500  0.15787400  0.35254500  1
  V  V11  1  0.32682500  0.84212600  0.64745500  1
  O  O0  1  0.74221200  0.74221200  0.00180800  1
  O  O1  1  0.46785900  0.46785900  0.36998800  1
  O  O2  1  0.11708500  0.11708500  0.63466800  1
  O  O3  1  0.32047300  0.89405000  0.01999500  1
  O  O4  1  0.10722300  0.49465600  0.35928200  1
  O  O5  1  0.65894400  0.04038900  0.70581400  1
  O  O6  1  0.49570700  0.99090100  0.88708600  1
  O  O7  1  0.19761000  0.73067300  0.25213900  1
  O  O8  1  0.84607000  0.31733700  0.52498100  1
  O  O9  1  0.44044300  0.44044300  0.90089000  1
  O  O10  1  0.13538200  0.13538200  0.14592900  1
  O  O11  1  0.79309900  0.79309900  0.54756200  1
  O  O12  1  0.60376600  0.60376600  0.92398000  1
  O  O13  1  0.29454300  0.29454300  0.22879800  1
  O  O14  1  0.94594100  0.94594100  0.60055900  1
  O  O15  1  0.50429300  0.00909900  0.11291400  1
  O  O16  1  0.15393000  0.68266300  0.47501900  1
  O  O17  1  0.80239000  0.26932700  0.74786100  1
  O  O18  1  0.67952700  0.10595000  0.98000500  1
  O  O19  1  0.34105600  0.95961100  0.29418600  1
  O  O20  1  0.89277700  0.50534400  0.64071800  1
  O  O21  1  0.10595000  0.67952700  0.98000500  1
  O  O22  1  0.95961100  0.34105600  0.29418600  1
  O  O23  1  0.50534400  0.89277700  0.64071800  1
  O  O24  1  0.39623400  0.39623400  0.07602000  1
  O  O25  1  0.05405900  0.05405900  0.39944100  1
  O  O26  1  0.70545700  0.70545700  0.77120200  1
  O  O27  1  0.00909900  0.50429300  0.11291400  1
  O  O28  1  0.68266300  0.15393000  0.47501900  1
  O  O29  1  0.26932700  0.80239000  0.74786100  1
  O  O30  1  0.99090100  0.49570700  0.88708600  1
  O  O31  1  0.73067300  0.19761000  0.25213900  1
  O  O32  1  0.31733700  0.84607000  0.52498100  1
  O  O33  1  0.89405000  0.32047300  0.01999500  1
  O  O34  1  0.49465600  0.10722300  0.35928200  1
  O  O35  1  0.04038900  0.65894400  0.70581400  1
  O  O36  1  0.25778800  0.25778800  0.99819200  1
  O  O37  1  0.88291500  0.88291500  0.36533200  1
  O  O38  1  0.53214100  0.53214100  0.63001200  1
  O  O39  1  0.55955700  0.55955700  0.09911000  1
  O  O40  1  0.20690100  0.20690100  0.45243800  1
  O  O41  1  0.86461800  0.86461800  0.85407100  1
loop_
_geom_bond_atom_site_label_1
_geom_bond_atom_site_label_2
_geom_bond_distance
_geom_bond_site_symmetry_2
O0 V9 1.884858 1_655
O0 V6 1.884858 1_565
O0 V3 2.251741 1_554
O1 V7 2.108205 1_555
O1 V10 2.108205 1_555
O1 Y3 2.243178 1_555
O2 V8 1.887612 1_455
O2 V11 1.887612 1_545
O3 V6 2.033679 1_565
O3 Y4 2.262401 1_565
O3 Y1 2.523899 1_555
O3 V0 2.683721 1_555
O4 V7 1.687484 1_555
O4 V1 2.215711 1_555
O4 Y2 2.387104 1_555
O5 V2 1.722357 1_545
O5 Y0 2.293797 1_555
O6 V6 1.875550 1_566
O6 V3 1.917521 1_555
O6 Y0 2.345929 1_565
O7 V7 1.719709 1_555
O7 Y1 2.203156 1_555
O8 V8 2.025288 1_555
O8 V5 2.184203 1_655
O8 Y3 2.363164 1_555
O8 Y2 2.379153 1_655
O9 V0 1.925224 1_556
O9 Y0 2.244698 1_555
O9 Y5 2.244698 1_555
O10 V4 2.002958 1_555
O10 Y1 2.091199 1_545
O10 Y6 2.091199 1_455
O11 V2 1.939072 1_555
O11 Y2 2.154323 1_655
O11 Y7 2.154323 1_565
O12 V0 1.820171 1_556
O12 V3 1.824373 1_555
O13 V4 1.646541 1_555
O13 V1 2.200611 1_555
O14 V5 1.744641 1_665
O14 V2 2.062791 1_555
O15 V6 1.875550 1_555
O15 V4 1.917521 1_555
O15 Y1 2.345929 1_545
O16 V7 2.025288 1_555
O16 V5 2.184203 1_565
O16 Y3 2.363164 1_555
O16 Y2 2.379153 1_555
O17 V8 1.719709 1_555
O17 Y0 2.203156 1_555
O18 V6 2.033679 1_556
O18 Y4 2.262401 1_656
O18 Y0 2.523899 1_555
O18 V0 2.683721 1_556
O19 V1 1.722357 1_565
O19 Y1 2.293797 1_555
O20 V8 1.687484 1_555
O20 V2 2.215711 1_555
O20 Y2 2.387104 1_655
O21 V9 2.033679 1_556
O21 Y4 2.262401 1_566
O21 Y5 2.523899 1_555
O21 V0 2.683721 1_556
O22 V1 1.722357 1_655
O22 Y6 2.293797 1_555
O23 V11 1.687484 1_555
O23 V2 2.215711 1_555
O23 Y7 2.387104 1_565
O24 V0 1.820171 1_555
O24 V4 1.824373 1_555
O25 V5 1.744641 1_555
O25 V1 2.062791 1_555
O26 V3 1.646541 1_555
O26 V2 2.200611 1_555
O27 V9 1.875550 1_555
O27 V4 1.917521 1_555
O27 Y6 2.345929 1_455
O28 V10 2.025288 1_555
O28 V5 2.184203 1_655
O28 Y3 2.363164 1_555
O28 Y7 2.379153 1_555
O29 V11 1.719709 1_555
O29 Y5 2.203156 1_555
O30 V9 1.875550 1_656
O30 V3 1.917521 1_555
O30 Y5 2.345929 1_655
O31 V10 1.719709 1_555
O31 Y6 2.203156 1_555
O32 V11 2.025288 1_555
O32 V5 2.184203 1_565
O32 Y3 2.363164 1_555
O32 Y7 2.379153 1_565
O33 V9 2.033679 1_655
O33 Y4 2.262401 1_655
O33 Y6 2.523899 1_555
O33 V0 2.683721 1_555
O34 V10 1.687484 1_555
O34 V1 2.215711 1_555
O34 Y7 2.387104 1_555
O35 V2 1.722357 1_455
O35 Y5 2.293797 1_555
O36 V6 1.884858 1_556
O36 V9 1.884858 1_556
O36 V4 2.251741 1_556
O37 V10 1.887612 1_565
O37 V7 1.887612 1_655
O38 V11 2.108205 1_555
O38 V8 2.108205 1_555
O38 Y3 2.243178 1_555
O39 V0 1.925224 1_555
O39 Y1 2.244698 1_555
O39 Y6 2.244698 1_555
O40 V1 1.939072 1_555
O40 Y7 2.154323 1_555
O40 Y2 2.154323 1_555
O41 V3 2.002958 1_555
O41 Y5 2.091199 1_655
O41 Y0 2.091199 1_565
