# generated using pymatgen
data_CsTm(MoO4)2
_symmetry_space_group_name_H-M   'P 1'
_cell_length_a   5.04484400
_cell_length_b   8.13428600
_cell_length_c   9.76014125
_cell_angle_alpha   87.98581442
_cell_angle_beta   90.00000000
_cell_angle_gamma   90.00000000
_symmetry_Int_Tables_number   1
_chemical_formula_structural   CsTm(MoO4)2
_chemical_formula_sum   'Cs2 Tm2 Mo4 O16'
_cell_volume   400.27168807
_cell_formula_units_Z   2
loop_
 _symmetry_equiv_pos_site_id
 _symmetry_equiv_pos_as_xyz
  1  'x, y, z'
loop_
 _atom_site_type_symbol
 _atom_site_label
 _atom_site_symmetry_multiplicity
 _atom_site_fract_x
 _atom_site_fract_y
 _atom_site_fract_z
 _atom_site_occupancy
  Cs  Cs0  1  0.46636100  0.75000000  0.50000000  1
  Cs  Cs1  1  0.53363900  0.25000000  0.50000000  1
  Tm  Tm0  1  0.50117600  0.75000000  0.00000000  1
  Tm  Tm1  1  0.49882400  0.25000000  0.00000000  1
  Mo  Mo0  1  0.97662100  0.49140200  0.19019400  1
  Mo  Mo1  1  0.02337900  0.50859800  0.80980600  1
  Mo  Mo2  1  0.97662100  0.00859800  0.80980600  1
  Mo  Mo3  1  0.02337900  0.99140200  0.19019400  1
  O  O0  1  0.89211000  0.98299500  0.35637700  1
  O  O1  1  0.10789000  0.01700500  0.64362300  1
  O  O2  1  0.89211000  0.51700500  0.64362300  1
  O  O3  1  0.10789000  0.48299500  0.35637700  1
  O  O4  1  0.75745300  0.31650200  0.17902900  1
  O  O5  1  0.24254700  0.68349800  0.82097100  1
  O  O6  1  0.75745300  0.18349800  0.82097100  1
  O  O7  1  0.24254700  0.81650200  0.17902900  1
  O  O8  1  0.74427900  0.99721200  0.06499500  1
  O  O9  1  0.25572100  0.00278800  0.93500500  1
  O  O10  1  0.74427900  0.50278800  0.93500500  1
  O  O11  1  0.25572100  0.49721200  0.06499500  1
  O  O12  1  0.75776700  0.66775500  0.17960100  1
  O  O13  1  0.24223300  0.33224500  0.82039900  1
  O  O14  1  0.75776700  0.83224500  0.82039900  1
  O  O15  1  0.24223300  0.16775500  0.17960100  1
loop_
_geom_bond_atom_site_label_1
_geom_bond_atom_site_label_2
_geom_bond_distance
_geom_bond_site_symmetry_2
Cs0 O2 3.159653 1_555
Cs0 O0 3.159653 1_555
Cs0 O1 3.188503 1_565
Cs0 O3 3.188503 1_555
Cs0 O5 3.355940 1_555
Cs0 O7 3.355940 1_555
Cs0 O12 3.540454 1_555
Cs0 O14 3.540454 1_555
Cs0 O2 3.709832 1_455
Cs0 O0 3.709832 1_455
Cs1 O1 3.159653 1_555
Cs1 O3 3.159653 1_555
Cs1 O2 3.188503 1_555
Cs1 O0 3.188503 1_545
Cs1 O6 3.355940 1_555
Cs1 O4 3.355940 1_555
Cs1 O13 3.540454 1_555
Cs1 O15 3.540454 1_555
Cs1 O3 3.709832 1_655
Cs1 O1 3.709832 1_655
Mo0 O3 1.751061 1_655
Mo0 O4 1.808124 1_555
Mo0 O12 1.810269 1_555
Mo0 O11 1.863832 1_655
Mo1 O2 1.751061 1_455
Mo1 O5 1.808124 1_555
Mo1 O13 1.810269 1_555
Mo1 O10 1.863832 1_455
Mo2 O1 1.751061 1_655
Mo2 O6 1.808124 1_555
Mo2 O14 1.810269 1_545
Mo2 O9 1.863832 1_655
Mo3 O0 1.751061 1_455
Mo3 O7 1.808124 1_555
Mo3 O15 1.810269 1_565
Mo3 O8 1.863832 1_455
O4 Tm1 2.261558 1_555
O5 Tm0 2.261558 1_556
O6 Tm1 2.261558 1_556
O7 Tm0 2.261558 1_555
O8 Tm0 2.457615 1_555
O8 Tm1 2.464189 1_565
O9 Tm1 2.457615 1_556
O9 Tm0 2.464189 1_546
O10 Tm0 2.457615 1_556
O10 Tm1 2.464189 1_556
O11 Tm1 2.457615 1_555
O11 Tm0 2.464189 1_555
O12 Tm0 2.261312 1_555
O13 Tm1 2.261312 1_556
O14 Tm0 2.261312 1_556
O15 Tm1 2.261312 1_555
