# generated using pymatgen
data_Mo4Ru
_symmetry_space_group_name_H-M   'P 1'
_cell_length_a   22.43651330
_cell_length_b   22.21422686
_cell_length_c   5.47492905
_cell_angle_alpha   85.27195579
_cell_angle_beta   80.65324784
_cell_angle_gamma   14.07479637
_symmetry_Int_Tables_number   1
_chemical_formula_structural   Mo4Ru
_chemical_formula_sum   'Mo32 Ru8'
_cell_volume   621.89099307
_cell_formula_units_Z   8
loop_
 _symmetry_equiv_pos_site_id
 _symmetry_equiv_pos_as_xyz
  1  'x, y, z'
loop_
 _atom_site_type_symbol
 _atom_site_label
 _atom_site_symmetry_multiplicity
 _atom_site_fract_x
 _atom_site_fract_y
 _atom_site_fract_z
 _atom_site_occupancy
  Mo  Mo0_0  1  0.20093250  0.20093250  0.29906750  1
  Mo  Mo0_1  1  0.20093250  0.20093250  0.79906750  1
  Mo  Mo0_2  1  0.20093250  0.70093250  0.29906750  1
  Mo  Mo0_3  1  0.20093250  0.70093250  0.79906750  1
  Mo  Mo0_4  1  0.70093250  0.20093250  0.29906750  1
  Mo  Mo0_5  1  0.70093250  0.20093250  0.79906750  1
  Mo  Mo0_6  1  0.70093250  0.70093250  0.29906750  1
  Mo  Mo0_7  1  0.70093250  0.70093250  0.79906750  1
  Mo  Mo1_0  1  0.40035800  0.40035800  0.09964200  1
  Mo  Mo1_1  1  0.40035800  0.40035800  0.59964200  1
  Mo  Mo1_2  1  0.40035800  0.90035800  0.09964200  1
  Mo  Mo1_3  1  0.40035800  0.90035800  0.59964200  1
  Mo  Mo1_4  1  0.90035800  0.40035800  0.09964200  1
  Mo  Mo1_5  1  0.90035800  0.40035800  0.59964200  1
  Mo  Mo1_6  1  0.90035800  0.90035800  0.09964200  1
  Mo  Mo1_7  1  0.90035800  0.90035800  0.59964200  1
  Mo  Mo2_0  1  0.09964200  0.09964200  0.40035800  1
  Mo  Mo2_1  1  0.09964200  0.09964200  0.90035800  1
  Mo  Mo2_2  1  0.09964200  0.59964200  0.40035800  1
  Mo  Mo2_3  1  0.09964200  0.59964200  0.90035800  1
  Mo  Mo2_4  1  0.59964200  0.09964200  0.40035800  1
  Mo  Mo2_5  1  0.59964200  0.09964200  0.90035800  1
  Mo  Mo2_6  1  0.59964200  0.59964200  0.40035800  1
  Mo  Mo2_7  1  0.59964200  0.59964200  0.90035800  1
  Mo  Mo3_0  1  0.29906750  0.29906750  0.20093250  1
  Mo  Mo3_1  1  0.29906750  0.29906750  0.70093250  1
  Mo  Mo3_2  1  0.29906750  0.79906750  0.20093250  1
  Mo  Mo3_3  1  0.29906750  0.79906750  0.70093250  1
  Mo  Mo3_4  1  0.79906750  0.29906750  0.20093250  1
  Mo  Mo3_5  1  0.79906750  0.29906750  0.70093250  1
  Mo  Mo3_6  1  0.79906750  0.79906750  0.20093250  1
  Mo  Mo3_7  1  0.79906750  0.79906750  0.70093250  1
  Ru  Ru0_0  1  0.00000000  0.00000000  0.00000000  1
  Ru  Ru0_1  1  0.00000000  0.00000000  0.50000000  1
  Ru  Ru0_2  1  0.00000000  0.50000000  0.00000000  1
  Ru  Ru0_3  1  0.00000000  0.50000000  0.50000000  1
  Ru  Ru0_4  1  0.50000000  0.00000000  0.00000000  1
  Ru  Ru0_5  1  0.50000000  0.00000000  0.50000000  1
  Ru  Ru0_6  1  0.50000000  0.50000000  0.00000000  1
  Ru  Ru0_7  1  0.50000000  0.50000000  0.50000000  1
loop_
_geom_bond_atom_site_label_1
_geom_bond_atom_site_label_2
_geom_bond_distance
_geom_bond_site_symmetry_2
Mo0_0 Ru0_4 2.676196 1_555
Mo0_0 Ru0_3 2.676196 1_555
Mo0_0 Mo1_2 2.729909 1_545
Mo0_0 Mo1_5 2.729909 1_455
Mo0_0 Mo0_6 2.737465 1_455
Mo0_0 Mo0_1 2.737465 1_554
Mo0_0 Mo0_1 2.737465 1_555
Mo0_0 Mo0_6 2.737465 1_545
Mo0_1 Ru0_5 2.676196 1_555
Mo0_1 Ru0_2 2.676196 1_556
Mo0_1 Mo1_3 2.729909 1_545
Mo0_1 Mo1_4 2.729909 1_456
Mo0_1 Mo0_7 2.737465 1_545
Mo0_1 Mo0_7 2.737465 1_455
Mo0_2 Ru0_6 2.676196 1_555
Mo0_2 Ru0_1 2.676196 1_565
Mo0_2 Mo1_0 2.729909 1_555
Mo0_2 Mo1_7 2.729909 1_455
Mo0_2 Mo0_3 2.737465 1_554
Mo0_2 Mo0_3 2.737465 1_555
Mo0_2 Mo0_4 2.737465 1_555
Mo0_2 Mo0_4 2.737465 1_465
Mo0_3 Ru0_7 2.676196 1_555
Mo0_3 Ru0_0 2.676196 1_566
Mo0_3 Mo1_1 2.729909 1_555
Mo0_3 Mo1_6 2.729909 1_456
Mo0_3 Mo0_5 2.737465 1_555
Mo0_3 Mo0_5 2.737465 1_465
Mo0_4 Ru0_0 2.676196 1_655
Mo0_4 Ru0_7 2.676196 1_555
Mo0_4 Mo1_1 2.729909 1_555
Mo0_4 Mo1_6 2.729909 1_545
Mo0_4 Mo0_5 2.737465 1_554
Mo0_4 Mo0_5 2.737465 1_555
Mo0_5 Ru0_1 2.676196 1_655
Mo0_5 Ru0_6 2.676196 1_556
Mo0_5 Mo1_0 2.729909 1_556
Mo0_5 Mo1_7 2.729909 1_545
Mo0_6 Ru0_2 2.676196 1_655
Mo0_6 Ru0_5 2.676196 1_565
Mo0_6 Mo1_4 2.729909 1_555
Mo0_6 Mo1_3 2.729909 1_555
Mo0_6 Mo0_7 2.737465 1_555
Mo0_6 Mo0_7 2.737465 1_554
Mo0_7 Ru0_3 2.676196 1_655
Mo0_7 Ru0_4 2.676196 1_566
Mo0_7 Mo1_5 2.729909 1_555
Mo0_7 Mo1_2 2.729909 1_556
Mo1_0 Mo2_2 2.734981 1_555
Mo1_0 Mo2_5 2.734981 1_554
Mo1_0 Mo1_6 2.737465 1_455
Mo1_0 Mo1_1 2.737465 1_555
Mo1_0 Mo1_1 2.737465 1_554
Mo1_0 Mo1_6 2.737465 1_545
Mo1_1 Mo2_4 2.734981 1_555
Mo1_1 Mo2_3 2.734981 1_555
Mo1_1 Mo1_7 2.737465 1_455
Mo1_1 Mo1_7 2.737465 1_545
Mo1_2 Mo2_7 2.734981 1_554
Mo1_2 Mo2_0 2.734981 1_565
Mo1_2 Mo1_4 2.737465 1_465
Mo1_2 Mo1_3 2.737465 1_555
Mo1_2 Mo1_3 2.737465 1_554
Mo1_2 Mo1_4 2.737465 1_555
Mo1_3 Mo2_6 2.734981 1_555
Mo1_3 Mo2_1 2.734981 1_565
Mo1_3 Mo1_5 2.737465 1_555
Mo1_3 Mo1_5 2.737465 1_465
Mo1_4 Mo2_6 2.734981 1_555
Mo1_4 Mo2_1 2.734981 1_654
Mo1_4 Mo1_5 2.737465 1_555
Mo1_4 Mo1_5 2.737465 1_554
Mo1_5 Mo2_0 2.734981 1_655
Mo1_5 Mo2_7 2.734981 1_555
Mo1_6 Mo2_4 2.734981 1_565
Mo1_6 Mo2_3 2.734981 1_654
Mo1_6 Mo1_7 2.737465 1_555
Mo1_6 Mo1_7 2.737465 1_554
Mo1_7 Mo2_2 2.734981 1_655
Mo1_7 Mo2_5 2.734981 1_565
Mo2_0 Mo3_5 2.729909 1_455
Mo2_0 Mo3_2 2.729909 1_545
Mo2_0 Mo2_6 2.737465 1_545
Mo2_0 Mo2_1 2.737465 1_554
Mo2_0 Mo2_1 2.737465 1_555
Mo2_0 Mo2_6 2.737465 1_455
Mo2_1 Mo3_4 2.729909 1_456
Mo2_1 Mo3_3 2.729909 1_545
Mo2_1 Mo2_7 2.737465 1_545
Mo2_1 Mo2_7 2.737465 1_455
Mo2_2 Mo3_0 2.729909 1_555
Mo2_2 Mo3_7 2.729909 1_455
Mo2_2 Mo2_3 2.737465 1_555
Mo2_2 Mo2_4 2.737465 1_465
Mo2_2 Mo2_4 2.737465 1_555
Mo2_2 Mo2_3 2.737465 1_554
Mo2_3 Mo3_1 2.729909 1_555
Mo2_3 Mo3_6 2.729909 1_456
Mo2_3 Mo2_5 2.737465 1_555
Mo2_3 Mo2_5 2.737465 1_465
Mo2_4 Mo3_1 2.729909 1_555
Mo2_4 Mo3_6 2.729909 1_545
Mo2_4 Mo2_5 2.737465 1_555
Mo2_4 Mo2_5 2.737465 1_554
Mo2_5 Mo3_0 2.729909 1_556
Mo2_5 Mo3_7 2.729909 1_545
Mo2_6 Mo3_3 2.729909 1_555
Mo2_6 Mo3_4 2.729909 1_555
Mo2_6 Mo2_7 2.737465 1_554
Mo2_6 Mo2_7 2.737465 1_555
Mo2_7 Mo3_2 2.729909 1_556
Mo2_7 Mo3_5 2.729909 1_555
Mo3_0 Ru0_4 2.676196 1_555
Mo3_0 Ru0_3 2.676196 1_555
Mo3_0 Mo3_6 2.737465 1_455
Mo3_0 Mo3_1 2.737465 1_554
Mo3_0 Mo3_6 2.737465 1_545
Mo3_0 Mo3_1 2.737465 1_555
Mo3_1 Ru0_5 2.676196 1_555
Mo3_1 Ru0_2 2.676196 1_556
Mo3_1 Mo3_7 2.737465 1_545
Mo3_1 Mo3_7 2.737465 1_455
Mo3_2 Ru0_6 2.676196 1_555
Mo3_2 Ru0_1 2.676196 1_565
Mo3_2 Mo3_3 2.737465 1_554
Mo3_2 Mo3_4 2.737465 1_465
Mo3_2 Mo3_4 2.737465 1_555
Mo3_2 Mo3_3 2.737465 1_555
Mo3_3 Ru0_7 2.676196 1_555
Mo3_3 Ru0_0 2.676196 1_566
Mo3_3 Mo3_5 2.737465 1_555
Mo3_3 Mo3_5 2.737465 1_465
Mo3_4 Ru0_0 2.676196 1_655
Mo3_4 Ru0_7 2.676196 1_555
Mo3_4 Mo3_5 2.737465 1_555
Mo3_4 Mo3_5 2.737465 1_554
Mo3_5 Ru0_1 2.676196 1_655
Mo3_5 Ru0_6 2.676196 1_556
Mo3_6 Ru0_2 2.676196 1_655
Mo3_6 Ru0_5 2.676196 1_565
Mo3_6 Mo3_7 2.737465 1_555
Mo3_6 Mo3_7 2.737465 1_554
Mo3_7 Ru0_3 2.676196 1_655
Mo3_7 Ru0_4 2.676196 1_566
Ru0_0 Ru0_6 2.737465 1_455
Ru0_0 Ru0_1 2.737465 1_555
Ru0_0 Ru0_1 2.737465 1_554
Ru0_0 Ru0_6 2.737465 1_545
Ru0_1 Ru0_7 2.737465 1_545
Ru0_1 Ru0_7 2.737465 1_455
Ru0_2 Ru0_4 2.737465 1_465
Ru0_2 Ru0_3 2.737465 1_554
Ru0_2 Ru0_4 2.737465 1_555
Ru0_2 Ru0_3 2.737465 1_555
Ru0_3 Ru0_5 2.737465 1_555
Ru0_3 Ru0_5 2.737465 1_465
Ru0_4 Ru0_5 2.737465 1_555
Ru0_4 Ru0_5 2.737465 1_554
Ru0_6 Ru0_7 2.737465 1_555
Ru0_6 Ru0_7 2.737465 1_554
