# generated using pymatgen
data_Cs2TePO10
_symmetry_space_group_name_H-M   'P 1'
_cell_length_a   18.75125500
_cell_length_b   7.29995700
_cell_length_c   11.02918767
_cell_angle_alpha   49.63435869
_cell_angle_beta   90.00000000
_cell_angle_gamma   90.00000000
_symmetry_Int_Tables_number   1
_chemical_formula_structural   Cs2TePO10
_chemical_formula_sum   'Cs8 Te4 P4 O40'
_cell_volume   1150.29024109
_cell_formula_units_Z   4
loop_
 _symmetry_equiv_pos_site_id
 _symmetry_equiv_pos_as_xyz
  1  'x, y, z'
loop_
 _atom_site_type_symbol
 _atom_site_label
 _atom_site_symmetry_multiplicity
 _atom_site_fract_x
 _atom_site_fract_y
 _atom_site_fract_z
 _atom_site_occupancy
  Cs  Cs0  1  0.84140200  0.22585500  0.01876700  1
  Cs  Cs1  1  0.65859800  0.22585500  0.51876700  1
  Cs  Cs2  1  0.15859800  0.77414500  0.98123300  1
  Cs  Cs3  1  0.34140200  0.77414500  0.48123300  1
  Cs  Cs4  1  0.05231200  0.57281500  0.66108600  1
  Cs  Cs5  1  0.44768800  0.57281500  0.16108600  1
  Cs  Cs6  1  0.94768800  0.42718500  0.33891400  1
  Cs  Cs7  1  0.55231200  0.42718500  0.83891400  1
  Te  Te0  1  0.68925800  0.73166000  0.01444000  1
  Te  Te1  1  0.81074200  0.73166000  0.51444000  1
  Te  Te2  1  0.31074200  0.26834000  0.98556000  1
  Te  Te3  1  0.18925800  0.26834000  0.48556000  1
  P  P0  1  0.95087100  0.91807600  0.82273600  1
  P  P1  1  0.54912900  0.91807600  0.32273600  1
  P  P2  1  0.04912900  0.08192400  0.17726400  1
  P  P3  1  0.45087100  0.08192400  0.67726400  1
  O  O0  1  0.51206200  0.90533500  0.78564500  1
  O  O1  1  0.98793800  0.90533500  0.28564500  1
  O  O2  1  0.48793800  0.09466500  0.21435500  1
  O  O3  1  0.01206200  0.09466500  0.71435500  1
  O  O4  1  0.88186200  0.03923300  0.72094100  1
  O  O5  1  0.61813800  0.03923300  0.22094100  1
  O  O6  1  0.11813800  0.96076700  0.27905900  1
  O  O7  1  0.38186200  0.96076700  0.77905900  1
  O  O8  1  0.62080900  0.99063000  0.90319800  1
  O  O9  1  0.87919100  0.99063000  0.40319800  1
  O  O10  1  0.37919100  0.00937000  0.09680200  1
  O  O11  1  0.12080900  0.00937000  0.59680200  1
  O  O12  1  0.75913300  0.99696100  0.89736400  1
  O  O13  1  0.74086700  0.99696100  0.39736400  1
  O  O14  1  0.24086700  0.00303900  0.10263600  1
  O  O15  1  0.25913300  0.00303900  0.60263600  1
  O  O16  1  0.77552300  0.54173500  0.12117800  1
  O  O17  1  0.72447700  0.54173500  0.62117800  1
  O  O18  1  0.22447700  0.45826500  0.87882200  1
  O  O19  1  0.27552300  0.45826500  0.37882200  1
  O  O20  1  0.62065800  0.48522300  0.14713000  1
  O  O21  1  0.87934200  0.48522300  0.64713000  1
  O  O22  1  0.37934200  0.51477700  0.85287000  1
  O  O23  1  0.12065800  0.51477700  0.35287000  1
  O  O24  1  0.71938600  0.80899400  0.14974900  1
  O  O25  1  0.78061400  0.80899400  0.64974900  1
  O  O26  1  0.28061400  0.19100600  0.85025100  1
  O  O27  1  0.21938600  0.19100600  0.35025100  1
  O  O28  1  0.54309500  0.67516600  0.36267700  1
  O  O29  1  0.95690500  0.67516600  0.86267700  1
  O  O30  1  0.45690500  0.32483400  0.63732300  1
  O  O31  1  0.04309500  0.32483400  0.13732300  1
  O  O32  1  0.81877200  0.64103600  0.38651200  1
  O  O33  1  0.68122800  0.64103600  0.88651200  1
  O  O34  1  0.18122800  0.35896400  0.61348800  1
  O  O35  1  0.31877200  0.35896400  0.11348800  1
  O  O36  1  0.94718700  0.89136700  0.97268300  1
  O  O37  1  0.55281300  0.89136700  0.47268300  1
  O  O38  1  0.05281300  0.10863300  0.02731700  1
  O  O39  1  0.44718700  0.10863300  0.52731700  1
loop_
_geom_bond_atom_site_label_1
_geom_bond_atom_site_label_2
_geom_bond_distance
_geom_bond_site_symmetry_2
Cs0 O12 3.140483 1_544
Cs0 O21 3.292264 1_554
Cs0 O24 3.299630 1_545
Cs0 O29 3.331431 1_554
Cs0 O16 3.390097 1_555
Cs0 O36 3.429684 1_544
Cs0 O9 3.463697 1_545
Cs0 O32 3.525227 1_545
Cs0 O1 3.573172 1_545
Cs0 O25 3.680076 1_554
Cs1 O13 3.140483 1_545
Cs1 O20 3.292264 1_555
Cs1 O25 3.299630 1_545
Cs1 O28 3.331431 1_555
Cs1 O17 3.390097 1_555
Cs1 O37 3.429684 1_545
Cs1 O8 3.463697 1_545
Cs1 O33 3.525227 1_545
Cs1 O0 3.573172 1_545
Cs1 O24 3.680076 1_555
Cs2 O14 3.140483 1_566
Cs2 O23 3.292264 1_556
Cs2 O26 3.299630 1_565
Cs2 O31 3.331431 1_556
Cs2 O18 3.390097 1_555
Cs2 O38 3.429684 1_566
Cs2 O11 3.463697 1_565
Cs2 O34 3.525227 1_565
Cs2 O3 3.573172 1_565
Cs2 O27 3.680076 1_556
Cs3 O15 3.140483 1_565
Cs3 O22 3.292264 1_555
Cs3 O27 3.299630 1_565
Cs3 O30 3.331431 1_555
Cs3 O19 3.390097 1_555
Cs3 O39 3.429684 1_565
Cs3 O10 3.463697 1_565
Cs3 O35 3.525227 1_565
Cs3 O2 3.573172 1_565
Cs3 O26 3.680076 1_555
Cs4 O11 3.062929 1_565
Cs4 O34 3.101243 1_555
Cs4 O38 3.173070 1_556
Cs4 O3 3.231391 1_555
Cs4 O29 3.294546 1_455
Cs4 O21 3.328620 1_455
Cs4 O1 3.387597 1_455
Cs4 O6 3.440997 1_555
Cs5 O10 3.062929 1_565
Cs5 O35 3.101243 1_555
Cs5 O39 3.173070 1_555
Cs5 O2 3.231391 1_555
Cs5 O28 3.294546 1_555
Cs5 O20 3.328620 1_555
Cs5 O0 3.387597 1_554
Cs5 O7 3.440997 1_554
Cs6 O9 3.062929 1_545
Cs6 O32 3.101243 1_555
Cs6 O36 3.173070 1_554
Cs6 O1 3.231391 1_555
Cs6 O31 3.294546 1_655
Cs6 O23 3.328620 1_655
Cs6 O3 3.387597 1_655
Cs6 O4 3.440997 1_555
Cs7 O8 3.062929 1_545
Cs7 O33 3.101243 1_555
Cs7 O37 3.173070 1_555
Cs7 O0 3.231391 1_555
Cs7 O30 3.294546 1_555
Cs7 O22 3.328620 1_555
Cs7 O2 3.387597 1_556
Cs7 O5 3.440997 1_556
O0 P3 1.552797 1_565
O1 P2 1.552797 1_665
O2 P1 1.552797 1_545
O3 P0 1.552797 1_445
O4 P0 1.559150 1_545
O5 P1 1.559150 1_545
O6 P2 1.559150 1_565
O7 P3 1.559150 1_565
O8 Te0 1.929285 1_556
O9 Te1 1.929285 1_555
O10 Te2 1.929285 1_554
O11 Te3 1.929285 1_555
O12 Te0 1.973711 1_556
O13 Te1 1.973711 1_555
O14 Te2 1.973711 1_554
O15 Te3 1.973711 1_555
O16 Te0 1.952043 1_555
O17 Te1 1.952043 1_555
O18 Te2 1.952043 1_555
O19 Te3 1.952043 1_555
O20 Te0 1.903275 1_555
O21 Te1 1.903275 1_555
O22 Te2 1.903275 1_555
O23 Te3 1.903275 1_555
O24 Te0 1.989032 1_555
O25 Te1 1.989032 1_555
O26 Te2 1.989032 1_555
O27 Te3 1.989032 1_555
O28 P1 1.529504 1_555
O29 P0 1.529504 1_555
O30 P3 1.529504 1_555
O31 P2 1.529504 1_555
O32 Te1 1.913152 1_555
O33 Te0 1.913152 1_556
O34 Te3 1.913152 1_555
O35 Te2 1.913152 1_554
O36 P0 1.536276 1_555
O37 P1 1.536276 1_555
O38 P2 1.536276 1_555
O39 P3 1.536276 1_555
