# generated using pymatgen
data_Sr2TaVO6
_symmetry_space_group_name_H-M   'P 1'
_cell_length_a   5.61032415
_cell_length_b   5.61051013
_cell_length_c   8.18742337
_cell_angle_alpha   89.97576292
_cell_angle_beta   89.97423019
_cell_angle_gamma   90.00070176
_symmetry_Int_Tables_number   1
_chemical_formula_structural   Sr2TaVO6
_chemical_formula_sum   'Sr4 Ta2 V2 O12'
_cell_volume   257.71367903
_cell_formula_units_Z   2
loop_
 _symmetry_equiv_pos_site_id
 _symmetry_equiv_pos_as_xyz
  1  'x, y, z'
loop_
 _atom_site_type_symbol
 _atom_site_label
 _atom_site_symmetry_multiplicity
 _atom_site_fract_x
 _atom_site_fract_y
 _atom_site_fract_z
 _atom_site_occupancy
  Sr  Sr0  1  0.00045200  0.50006500  0.24998300  1
  Sr  Sr1  1  0.49999700  0.99977000  0.75000800  1
  Sr  Sr2  1  0.49997000  0.00022500  0.24998500  1
  Sr  Sr3  1  0.99957300  0.49994100  0.75001100  1
  Ta  Ta0  1  0.00004800  0.00000000  0.00004500  1
  Ta  Ta1  1  0.49996000  0.50000400  0.49998000  1
  V  V0  1  0.99996300  0.00000800  0.50006500  1
  V  V1  1  0.50005200  0.49999600  0.99992100  1
  O  O0  1  0.00002300  0.00008300  0.24418000  1
  O  O1  1  0.49987900  0.49986300  0.74377700  1
  O  O2  1  0.50014600  0.50012900  0.25614000  1
  O  O3  1  0.99994100  0.99992600  0.75592200  1
  O  O4  1  0.70910600  0.78917400  0.50003600  1
  O  O5  1  0.20897100  0.28908500  0.99989900  1
  O  O6  1  0.79107600  0.71092400  0.00003300  1
  O  O7  1  0.29085100  0.21082000  0.50002300  1
  O  O8  1  0.71093000  0.20896100  0.99994800  1
  O  O9  1  0.21079700  0.70914300  0.50001700  1
  O  O10  1  0.78916500  0.29086900  0.50004200  1
  O  O11  1  0.28909800  0.79101500  0.99998300  1
loop_
_geom_bond_atom_site_label_1
_geom_bond_atom_site_label_2
_geom_bond_distance
_geom_bond_site_symmetry_2
O0 Ta0 1.998837 1_555
O0 V0 2.095039 1_455
O0 Sr2 2.805289 1_555
O0 Sr0 2.805578 1_555
O0 Sr0 2.805739 1_545
O0 Sr2 2.805841 1_455
O1 Ta1 1.996069 1_555
O1 V1 2.097160 1_555
O1 Sr3 2.803933 1_555
O1 Sr1 2.805219 1_555
O1 Sr1 2.806219 1_545
O1 Sr3 2.807320 1_455
O2 Ta1 1.996421 1_555
O2 V1 2.097774 1_554
O2 Sr0 2.803921 1_555
O2 Sr2 2.805191 1_555
O2 Sr2 2.806225 1_565
O2 Sr0 2.807309 1_655
O3 Ta0 1.998739 1_666
O3 V0 2.094809 1_565
O3 Sr1 2.805288 1_555
O3 Sr3 2.805610 1_555
O3 Sr3 2.805737 1_565
O3 Sr1 2.805872 1_655
O4 Ta1 2.002229 1_555
O4 V0 2.015428 1_565
O4 Sr1 2.638369 1_555
O4 Sr2 2.640124 1_565
O4 Sr3 3.078633 1_555
O4 Sr0 3.081240 1_655
O5 Ta0 2.001109 1_556
O5 V1 2.016699 1_555
O5 Sr0 2.638578 1_556
O5 Sr3 2.639254 1_455
O5 Sr2 3.079717 1_556
O5 Sr1 3.080017 1_545
O6 Ta0 2.001229 1_665
O6 V1 2.016497 1_554
O6 Sr3 2.638137 1_554
O6 Sr0 2.639600 1_655
O6 Sr1 3.079582 1_554
O6 Sr2 3.080545 1_565
O7 Ta1 2.002171 1_555
O7 V0 2.015496 1_455
O7 Sr2 2.638810 1_555
O7 Sr1 2.639728 1_545
O7 Sr0 3.078820 1_555
O7 Sr3 3.080720 1_455
O8 Ta0 2.001387 1_656
O8 V1 2.016426 1_555
O8 Sr2 2.637978 1_556
O8 Sr1 2.640023 1_545
O8 Sr3 3.077213 1_555
O8 Sr0 3.082599 1_656
O9 Ta1 2.002176 1_555
O9 V0 2.015509 1_465
O9 Sr0 2.638860 1_555
O9 Sr3 2.639530 1_455
O9 Sr2 3.079597 1_565
O9 Sr1 3.079989 1_555
O10 Ta1 2.002354 1_555
O10 V0 2.015372 1_555
O10 Sr3 2.638590 1_555
O10 Sr0 2.640086 1_655
O10 Sr1 3.079274 1_545
O10 Sr2 3.080384 1_555
O11 Ta0 2.001156 1_566
O11 V1 2.016604 1_555
O11 Sr1 2.637478 1_555
O11 Sr2 2.640311 1_566
O11 Sr0 3.077475 1_556
O11 Sr3 3.082176 1_455
