# generated using pymatgen
data_Li4V3P8O29
_symmetry_space_group_name_H-M   'P 1'
_cell_length_a   9.76494949
_cell_length_b   9.76494949
_cell_length_c   14.50132832
_cell_angle_alpha   89.33879471
_cell_angle_beta   89.33879471
_cell_angle_gamma   59.83226619
_symmetry_Int_Tables_number   1
_chemical_formula_structural   Li4V3P8O29
_chemical_formula_sum   'Li8 V6 P16 O58'
_cell_volume   1195.37287430
_cell_formula_units_Z   2
loop_
 _symmetry_equiv_pos_site_id
 _symmetry_equiv_pos_as_xyz
  1  'x, y, z'
loop_
 _atom_site_type_symbol
 _atom_site_label
 _atom_site_symmetry_multiplicity
 _atom_site_fract_x
 _atom_site_fract_y
 _atom_site_fract_z
 _atom_site_occupancy
  Li  Li0  1  0.13014400  0.64131900  0.46898800  1
  Li  Li1  1  0.64131900  0.13014400  0.96898800  1
  Li  Li2  1  0.09363500  0.23009400  0.93497000  1
  Li  Li3  1  0.77342400  0.90548500  0.55720800  1
  Li  Li4  1  0.23009400  0.09363500  0.43497000  1
  Li  Li5  1  0.90548500  0.77342400  0.05720800  1
  Li  Li6  1  0.06355100  0.97713900  0.99926700  1
  Li  Li7  1  0.97713900  0.06355100  0.49926700  1
  V  V0  1  0.56311300  0.99836500  0.74545600  1
  V  V1  1  0.43407400  0.99831400  0.25985300  1
  V  V2  1  0.99836500  0.56311300  0.24545600  1
  V  V3  1  0.99831400  0.43407400  0.75985300  1
  V  V4  1  0.44002200  0.55986600  0.74637500  1
  V  V5  1  0.55986600  0.44002200  0.24637500  1
  P  P0  1  0.21777500  0.70026700  0.15691900  1
  P  P1  1  0.08774600  0.68606600  0.66875700  1
  P  P2  1  0.70026700  0.21777500  0.65691900  1
  P  P3  1  0.34458900  0.32841500  0.86570600  1
  P  P4  1  0.32841500  0.34458900  0.36570600  1
  P  P5  1  0.68606600  0.08774600  0.16875700  1
  P  P6  1  0.77989500  0.90372800  0.34458700  1
  P  P7  1  0.08742200  0.22595500  0.15195300  1
  P  P8  1  0.90372800  0.77989500  0.84458700  1
  P  P9  1  0.22595500  0.08742200  0.65195300  1
  P  P10  1  0.30326100  0.90879000  0.82645600  1
  P  P11  1  0.67674400  0.66080600  0.63674100  1
  P  P12  1  0.66080600  0.67674400  0.13674100  1
  P  P13  1  0.29938300  0.77486400  0.34085200  1
  P  P14  1  0.90879000  0.30326100  0.32645600  1
  P  P15  1  0.77486400  0.29938300  0.84085200  1
  O  O0  1  0.20335300  0.77599700  0.42156600  1
  O  O1  1  0.25882400  0.65874700  0.67011800  1
  O  O2  1  0.97539600  0.78915900  0.93286300  1
  O  O3  1  0.07557300  0.66692100  0.16157100  1
  O  O4  1  0.37624600  0.54164900  0.17012400  1
  O  O5  1  0.33408200  0.47828500  0.81931700  1
  O  O6  1  0.54164900  0.37624600  0.67012400  1
  O  O7  1  0.77599700  0.20335300  0.92156600  1
  O  O8  1  0.65874700  0.25882400  0.17011800  1
  O  O9  1  0.18871300  0.46965400  0.30153400  1
  O  O10  1  0.09483400  0.52822300  0.68362500  1
  O  O11  1  0.47828500  0.33408200  0.31931700  1
  O  O12  1  0.40973100  0.29036700  0.96141400  1
  O  O13  1  0.29036700  0.40973100  0.46141400  1
  O  O14  1  0.46965400  0.18871300  0.80153400  1
  O  O15  1  0.06678400  0.39319000  0.15879200  1
  O  O16  1  0.18238800  0.33731700  0.85396800  1
  O  O17  1  0.66692100  0.07557300  0.66157100  1
  O  O18  1  0.79852200  0.99803100  0.25678300  1
  O  O19  1  0.78915900  0.97539600  0.43286300  1
  O  O20  1  0.77171100  0.00450900  0.08164000  1
  O  O21  1  0.52822300  0.09483400  0.18362500  1
  O  O22  1  0.33731700  0.18238800  0.35396800  1
  O  O23  1  0.73109700  0.92287800  0.83534400  1
  O  O24  1  0.39319000  0.06678400  0.65879200  1
  O  O25  1  0.10236400  0.25376800  0.68669700  1
  O  O26  1  0.99803100  0.79852200  0.75678300  1
  O  O27  1  0.00450900  0.77171100  0.58164000  1
  O  O28  1  0.00505000  0.19139500  0.40170900  1
  O  O29  1  0.92287800  0.73109700  0.33534400  1
  O  O30  1  0.62212400  0.90515900  0.33033600  1
  O  O31  1  0.25376800  0.10236400  0.18669700  1
  O  O32  1  0.67710700  0.80823400  0.68420400  1
  O  O33  1  0.45432800  0.92385900  0.82080700  1
  O  O34  1  0.19139500  0.00505000  0.90170900  1
  O  O35  1  0.18832700  0.04967900  0.55960900  1
  O  O36  1  0.21852100  0.96870700  0.72721000  1
  O  O37  1  0.33335700  0.91337500  0.34438100  1
  O  O38  1  0.80823400  0.67710700  0.18420400  1
  O  O39  1  0.90515900  0.62212400  0.83033600  1
  O  O40  1  0.51209400  0.81648200  0.18035900  1
  O  O41  1  0.68540600  0.67490600  0.03555300  1
  O  O42  1  0.67490600  0.68540600  0.53555300  1
  O  O43  1  0.52410200  0.66226000  0.67698000  1
  O  O44  1  0.92385900  0.45432800  0.32080700  1
  O  O45  1  0.81648200  0.51209400  0.68035900  1
  O  O46  1  0.34969900  0.73341400  0.83083700  1
  O  O47  1  0.19742800  0.80302200  0.24768700  1
  O  O48  1  0.20263000  0.79445600  0.07300600  1
  O  O49  1  0.45751500  0.61829400  0.32379600  1
  O  O50  1  0.66226000  0.52410200  0.17698000  1
  O  O51  1  0.61829400  0.45751500  0.82379600  1
  O  O52  1  0.91337500  0.33335700  0.84438100  1
  O  O53  1  0.04967900  0.18832700  0.05960900  1
  O  O54  1  0.96870700  0.21852100  0.22721000  1
  O  O55  1  0.73341400  0.34969900  0.33083700  1
  O  O56  1  0.79445600  0.20263000  0.57300600  1
  O  O57  1  0.80302200  0.19742800  0.74768700  1
loop_
_geom_bond_atom_site_label_1
_geom_bond_atom_site_label_2
_geom_bond_distance
_geom_bond_site_symmetry_2
Li0 O0 1.904263 1_555
Li0 O13 2.004926 1_555
Li0 O27 2.055901 1_555
Li1 O7 1.904263 1_555
Li1 O12 2.004926 1_555
Li1 O20 2.055901 1_556
Li2 O53 1.938664 1_556
Li2 O34 1.969397 1_555
Li2 O52 2.019842 1_455
Li2 O16 2.021705 1_555
Li3 O19 1.952355 1_555
Li3 O27 1.992238 1_655
Li3 O17 2.101470 1_565
Li3 O32 2.448535 1_555
Li4 O35 1.938664 1_555
Li4 O28 1.969397 1_555
Li4 O37 2.019842 1_545
Li4 O22 2.021705 1_555
Li5 O2 1.952355 1_554
Li5 O20 1.992238 1_565
Li5 O3 2.101470 1_655
Li5 O38 2.448535 1_555
Li6 O48 1.929934 1_556
Li6 O34 1.981541 1_565
Li6 O53 2.189755 1_566
Li6 O2 2.585703 1_455
Li7 O56 1.929934 1_555
Li7 O28 1.981541 1_655
Li7 O35 2.189755 1_655
Li7 O19 2.585703 1_545
O0 P13 1.487943 1_555
O1 P1 1.554052 1_555
O1 V4 1.894547 1_555
O2 P8 1.491186 1_555
O3 P0 1.578150 1_555
O3 V2 1.947868 1_455
O4 P0 1.556078 1_555
O4 V5 1.911679 1_555
O5 P3 1.559733 1_555
O5 V4 1.899276 1_555
O6 P2 1.556078 1_555
O6 V4 1.911679 1_555
O7 P15 1.487943 1_555
O8 P5 1.554052 1_555
O8 V5 1.894547 1_555
O9 P4 1.595948 1_555
O9 V2 1.806081 1_455
O10 P1 1.520666 1_555
O10 V3 1.943933 1_455
O11 P4 1.559733 1_555
O11 V5 1.899276 1_555
O12 P3 1.496616 1_555
O13 P4 1.496616 1_555
O14 P3 1.595948 1_555
O14 V0 1.806081 1_545
O15 P7 1.545891 1_555
O15 V2 1.921864 1_455
O16 P3 1.553293 1_555
O16 V3 2.075143 1_455
O17 P2 1.578150 1_555
O17 V0 1.947868 1_545
O18 P6 1.624267 1_555
O18 P5 1.625560 1_565
O19 P6 1.491186 1_555
O20 P5 1.507364 1_555
O21 P5 1.520666 1_555
O21 V1 1.943933 1_545
O22 P4 1.553293 1_555
O22 V1 2.075143 1_545
O23 P8 1.563461 1_555
O23 V0 1.935231 1_555
O24 P9 1.545891 1_555
O24 V0 1.921864 1_545
O25 P9 1.543844 1_555
O25 V3 1.864939 1_455
O26 P8 1.624267 1_555
O26 P1 1.625560 1_655
O27 P1 1.507364 1_555
O28 P14 1.493936 1_455
O29 P6 1.563461 1_555
O29 V2 1.935231 1_555
O30 P6 1.549863 1_555
O30 V1 1.893976 1_555
O31 P7 1.543844 1_555
O31 V1 1.864939 1_545
O32 P11 1.604468 1_555
O32 V0 1.847478 1_555
O33 P10 1.555495 1_555
O33 V0 1.892979 1_555
O34 P10 1.493936 1_545
O35 P9 1.490945 1_555
O36 P9 1.610486 1_565
O36 P10 1.618578 1_555
O37 P13 1.547597 1_555
O37 V1 1.981489 1_555
O38 P12 1.604468 1_555
O38 V2 1.847478 1_555
O39 P8 1.549863 1_555
O39 V3 1.893976 1_555
O40 P12 1.542067 1_555
O40 V1 1.931156 1_555
O41 P12 1.483008 1_555
O42 P11 1.483008 1_555
O43 P11 1.587847 1_555
O43 V4 1.862612 1_555
O44 P14 1.555495 1_555
O44 V2 1.892979 1_555
O45 P11 1.542067 1_555
O45 V3 1.931156 1_555
O46 P10 1.536260 1_555
O46 V4 1.915917 1_555
O47 P0 1.613347 1_555
O47 P13 1.624615 1_555
O48 P0 1.479915 1_555
O49 P13 1.552485 1_555
O49 V5 1.886890 1_555
O50 P12 1.587847 1_555
O50 V5 1.862612 1_555
O51 P15 1.552485 1_555
O51 V4 1.886890 1_555
O52 P15 1.547597 1_555
O52 V3 1.981489 1_555
O53 P7 1.490945 1_555
O54 P7 1.610486 1_655
O54 P14 1.618578 1_555
O55 P14 1.536260 1_555
O55 V5 1.915917 1_555
O56 P2 1.479915 1_555
O57 P2 1.613347 1_555
O57 P15 1.624615 1_555
