# generated using pymatgen
data_Li32Ti13Cr3O48
_symmetry_space_group_name_H-M   'P 1'
_cell_length_a   5.09277500
_cell_length_b   8.82592993
_cell_length_c   19.62290579
_cell_angle_alpha   98.29619092
_cell_angle_beta   94.88754751
_cell_angle_gamma   89.76549117
_symmetry_Int_Tables_number   1
_chemical_formula_structural   Li32Ti13Cr3O48
_chemical_formula_sum   'Li32 Ti13 Cr3 O48'
_cell_volume   869.58601100
_cell_formula_units_Z   1
loop_
 _symmetry_equiv_pos_site_id
 _symmetry_equiv_pos_as_xyz
  1  'x, y, z'
loop_
 _atom_site_type_symbol
 _atom_site_label
 _atom_site_symmetry_multiplicity
 _atom_site_fract_x
 _atom_site_fract_y
 _atom_site_fract_z
 _atom_site_occupancy
  Li  Li0  1  0.98708200  0.16835300  0.24943000  1
  Li  Li1  1  0.87505000  0.37630700  0.37507800  1
  Li  Li2  1  0.74958100  0.25026900  0.00011400  1
  Li  Li3  1  0.74211800  0.91926200  0.99977100  1
  Li  Li4  1  0.98921700  0.16999200  0.74956900  1
  Li  Li5  1  0.75653400  0.57873400  0.49964700  1
  Li  Li6  1  0.87399800  0.37643100  0.87475000  1
  Li  Li7  1  0.75623300  0.24830200  0.50050500  1
  Li  Li8  1  0.73977500  0.92178800  0.50027800  1
  Li  Li9  1  0.62500600  0.12504100  0.12508600  1
  Li  Li10  1  0.76012900  0.58000600  0.99946500  1
  Li  Li11  1  0.51104800  0.33277600  0.25100900  1
  Li  Li12  1  0.62532600  0.12568600  0.62482500  1
  Li  Li13  1  0.49992400  0.00023000  0.25021300  1
  Li  Li14  1  0.49109800  0.66842000  0.25041300  1
  Li  Li15  1  0.50754500  0.32962300  0.74966800  1
  Li  Li16  1  0.37463800  0.87474200  0.37499200  1
  Li  Li17  1  0.50014500  0.99987300  0.74991100  1
  Li  Li18  1  0.24541200  0.75127900  0.99980200  1
  Li  Li19  1  0.49319100  0.67056200  0.75036300  1
  Li  Li20  1  0.24106400  0.41997500  0.00008700  1
  Li  Li21  1  0.37423500  0.87452800  0.87524400  1
  Li  Li22  1  0.25817100  0.08101500  0.50017400  1
  Li  Li23  1  0.24971800  0.74876700  0.49949200  1
  Li  Li24  1  0.12507100  0.62501600  0.12503000  1
  Li  Li25  1  0.24055700  0.42091000  0.49997800  1
  Li  Li26  1  0.01002400  0.83126500  0.24982200  1
  Li  Li27  1  0.26088500  0.07954500  0.00020000  1
  Li  Li28  1  0.12584800  0.62381100  0.62509300  1
  Li  Li29  1  0.00256700  0.49901000  0.25008100  1
  Li  Li30  1  0.01023400  0.82997300  0.75026900  1
  Li  Li31  1  0.99915700  0.49992800  0.75003000  1
  Ti  Ti0  1  0.87225300  0.70415700  0.37469300  1
  Ti  Ti1  1  0.87763100  0.04023900  0.37492700  1
  Ti  Ti2  1  0.88336400  0.04071300  0.87700800  1
  Ti  Ti3  1  0.62639300  0.79115100  0.12515500  1
  Ti  Ti4  1  0.62409900  0.45892100  0.12518400  1
  Ti  Ti5  1  0.62298100  0.79064000  0.62491200  1
  Ti  Ti6  1  0.62426400  0.45782200  0.62617000  1
  Ti  Ti7  1  0.37454600  0.21083200  0.37532900  1
  Ti  Ti8  1  0.37413700  0.54053600  0.87295200  1
  Ti  Ti9  1  0.37823800  0.20828400  0.87464500  1
  Ti  Ti10  1  0.12361300  0.95873400  0.12518400  1
  Ti  Ti11  1  0.12718800  0.29118900  0.12516300  1
  Ti  Ti12  1  0.11862500  0.95883000  0.62363500  1
  Cr  Cr0  1  0.86900200  0.70953900  0.87532200  1
  Cr  Cr1  1  0.37487600  0.54318500  0.37512000  1
  Cr  Cr2  1  0.12831600  0.29046900  0.62460600  1
  O  O0  1  0.96233900  0.10661900  0.06834200  1
  O  O1  1  0.92899600  0.78435100  0.06853200  1
  O  O2  1  0.92772300  0.42781800  0.06710700  1
  O  O3  1  0.96046900  0.10691800  0.56823300  1
  O  O4  1  0.82144800  0.96571100  0.18172200  1
  O  O5  1  0.82299300  0.32238100  0.18283700  1
  O  O6  1  0.92862100  0.78527300  0.56810700  1
  O  O7  1  0.93077300  0.42589200  0.56810900  1
  O  O8  1  0.78832300  0.64326800  0.18176800  1
  O  O9  1  0.71363500  0.85579500  0.31820000  1
  O  O10  1  0.82160900  0.96545600  0.68180500  1
  O  O11  1  0.82598200  0.32059000  0.68205000  1
  O  O12  1  0.68094000  0.53376600  0.31809600  1
  O  O13  1  0.67697100  0.17762900  0.31719800  1
  O  O14  1  0.78779200  0.64287300  0.68193500  1
  O  O15  1  0.71493200  0.85128500  0.81917800  1
  O  O16  1  0.46238300  0.60673700  0.06814600  1
  O  O17  1  0.56432700  0.71171600  0.43086500  1
  O  O18  1  0.57178700  0.07364700  0.43292300  1
  O  O19  1  0.67455300  0.53302900  0.81801500  1
  O  O20  1  0.67571000  0.17621300  0.81701800  1
  O  O21  1  0.42771500  0.92777800  0.06732600  1
  O  O22  1  0.42902200  0.28427800  0.06839400  1
  O  O23  1  0.53757700  0.39675300  0.43087100  1
  O  O24  1  0.46516400  0.60633800  0.56837100  1
  O  O25  1  0.58109500  0.71687100  0.93099500  1
  O  O26  1  0.57207500  0.07201000  0.93274500  1
  O  O27  1  0.32248400  0.82219900  0.18289100  1
  O  O28  1  0.32142500  0.46581000  0.18155900  1
  O  O29  1  0.42754100  0.92787700  0.56707400  1
  O  O30  1  0.42239700  0.28365500  0.56866900  1
  O  O31  1  0.53468200  0.39383000  0.93172300  1
  O  O32  1  0.28730200  0.14357600  0.18182100  1
  O  O33  1  0.21411600  0.36130400  0.31944500  1
  O  O34  1  0.32331800  0.82365500  0.68289700  1
  O  O35  1  0.32174800  0.46544500  0.68149500  1
  O  O36  1  0.18347800  0.67509800  0.31812600  1
  O  O37  1  0.17890800  0.03575700  0.31826400  1
  O  O38  1  0.28617700  0.14734900  0.68061200  1
  O  O39  1  0.21185400  0.35685700  0.81798600  1
  O  O40  1  0.06990500  0.57203100  0.43300700  1
  O  O41  1  0.07133800  0.21559400  0.43156600  1
  O  O42  1  0.17388900  0.68010600  0.81838600  1
  O  O43  1  0.17829100  0.03444800  0.81808000  1
  O  O44  1  0.03516600  0.89298900  0.43170300  1
  O  O45  1  0.06926500  0.57461600  0.93162100  1
  O  O46  1  0.07029300  0.21510600  0.93165300  1
  O  O47  1  0.04136200  0.89504600  0.93213500  1
loop_
_geom_bond_atom_site_label_1
_geom_bond_atom_site_label_2
_geom_bond_distance
_geom_bond_site_symmetry_2
Li0 O37 2.090540 1_655
Li0 O32 2.098761 1_655
Li0 O5 2.138055 1_555
Li0 O13 2.143537 1_555
Li0 O4 2.193441 1_545
Li0 O33 2.279214 1_655
Li1 O12 2.099446 1_555
Li1 O23 2.108582 1_555
Li1 O33 2.113937 1_655
Li1 O41 2.119733 1_655
Li1 O40 2.125122 1_655
Li1 O13 2.151031 1_555
Li2 O2 2.054451 1_555
Li2 O26 2.061044 1_554
Li2 O22 2.191604 1_555
Li2 O0 2.192109 1_555
Li2 O46 2.195038 1_654
Li2 O31 2.198488 1_554
Li3 O1 2.092777 1_556
Li3 O47 2.095194 1_655
Li3 O26 2.146008 1_565
Li3 O21 2.158395 1_556
Li3 O25 2.193719 1_555
Li3 O0 2.217815 1_566
Li4 O43 2.097573 1_655
Li4 O38 2.103882 1_655
Li4 O11 2.127125 1_555
Li4 O20 2.154620 1_555
Li4 O10 2.209545 1_545
Li4 O39 2.219235 1_655
Li5 O24 2.079208 1_555
Li5 O17 2.092855 1_555
Li5 O40 2.143130 1_655
Li5 O7 2.173009 1_555
Li5 O23 2.185688 1_555
Li5 O6 2.236400 1_555
Li6 O19 2.102684 1_555
Li6 O39 2.121257 1_655
Li6 O46 2.128484 1_655
Li6 O31 2.130054 1_555
Li6 O45 2.134416 1_655
Li6 O20 2.160508 1_555
Li7 O7 2.053564 1_555
Li7 O18 2.055943 1_555
Li7 O3 2.153529 1_555
Li7 O41 2.177623 1_655
Li7 O30 2.244929 1_555
Li7 O23 2.251495 1_555
Li8 O44 2.093219 1_655
Li8 O6 2.093663 1_555
Li8 O29 2.140928 1_555
Li8 O18 2.141111 1_565
Li8 O3 2.200468 1_565
Li8 O17 2.273467 1_555
Li9 O22 2.111746 1_555
Li9 O4 2.112706 1_545
Li9 O0 2.118750 1_555
Li9 O32 2.120261 1_555
Li9 O21 2.139198 1_545
Li9 O5 2.141153 1_555
Li10 O25 2.084783 1_555
Li10 O16 2.103542 1_556
Li10 O45 2.142775 1_655
Li10 O2 2.146291 1_556
Li10 O31 2.215928 1_555
Li10 O1 2.222131 1_556
Li11 O28 2.096830 1_555
Li11 O33 2.097364 1_555
Li11 O13 2.143071 1_555
Li11 O5 2.155767 1_555
Li11 O12 2.184718 1_555
Li11 O32 2.242289 1_555
Li12 O3 2.107468 1_555
Li12 O30 2.112750 1_555
Li12 O38 2.115956 1_555
Li12 O10 2.122171 1_545
Li12 O11 2.127382 1_555
Li12 O29 2.143773 1_545
Li13 O13 2.051314 1_555
Li13 O27 2.059105 1_545
Li13 O37 2.191176 1_555
Li13 O32 2.192124 1_555
Li13 O9 2.195781 1_545
Li13 O4 2.198439 1_545
Li14 O12 2.082880 1_555
Li14 O8 2.100813 1_555
Li14 O36 2.134175 1_555
Li14 O27 2.156526 1_555
Li14 O28 2.210519 1_555
Li14 O9 2.216387 1_555
Li15 O35 2.087997 1_555
Li15 O39 2.090628 1_555
Li15 O20 2.151142 1_555
Li15 O11 2.175317 1_555
Li15 O38 2.195606 1_555
Li15 O19 2.206433 1_555
Li16 O17 2.114003 1_555
Li16 O37 2.123242 1_565
Li16 O9 2.126544 1_555
Li16 O44 2.127702 1_555
Li16 O36 2.135243 1_555
Li16 O18 2.150869 1_565
Li17 O20 2.043302 1_565
Li17 O34 2.044164 1_555
Li17 O10 2.193212 1_555
Li17 O43 2.195671 1_565
Li17 O38 2.231027 1_565
Li17 O15 2.239009 1_555
Li18 O45 2.056898 1_555
Li18 O21 2.061760 1_556
Li18 O47 2.166415 1_555
Li18 O1 2.180309 1_456
Li18 O16 2.208322 1_556
Li18 O25 2.260217 1_555
Li19 O19 2.082258 1_555
Li19 O14 2.087897 1_555
Li19 O34 2.153669 1_555
Li19 O42 2.183900 1_555
Li19 O15 2.185457 1_555
Li19 O35 2.229759 1_555
Li20 O31 2.082918 1_554
Li20 O22 2.093448 1_555
Li20 O2 2.147390 1_455
Li20 O45 2.180003 1_554
Li20 O16 2.212351 1_555
Li20 O46 2.223123 1_554
Li21 O47 2.101087 1_555
Li21 O25 2.115128 1_555
Li21 O42 2.120904 1_555
Li21 O43 2.121523 1_565
Li21 O15 2.126090 1_555
Li21 O26 2.139940 1_565
Li22 O41 2.088686 1_555
Li22 O3 2.094898 1_455
Li22 O29 2.145626 1_545
Li22 O18 2.151800 1_555
Li22 O30 2.198114 1_555
Li22 O44 2.227334 1_545
Li23 O40 2.048085 1_555
Li23 O29 2.068787 1_555
Li23 O17 2.173448 1_555
Li23 O44 2.193906 1_555
Li23 O6 2.199199 1_455
Li23 O24 2.199379 1_555
Li24 O1 2.110368 1_455
Li24 O28 2.110484 1_555
Li24 O8 2.116137 1_455
Li24 O16 2.120266 1_555
Li24 O27 2.139681 1_555
Li24 O2 2.140091 1_455
Li25 O30 2.095545 1_555
Li25 O23 2.106182 1_555
Li25 O40 2.136130 1_555
Li25 O7 2.149466 1_455
Li25 O24 2.215370 1_555
Li25 O41 2.223105 1_555
Li26 O4 2.084635 1_455
Li26 O9 2.093863 1_455
Li26 O27 2.142039 1_555
Li26 O36 2.190425 1_555
Li26 O37 2.217492 1_565
Li26 O8 2.220411 1_455
Li27 O0 2.099524 1_455
Li27 O46 2.101275 1_554
Li27 O21 2.135479 1_545
Li27 O26 2.144612 1_554
Li27 O47 2.195045 1_544
Li27 O22 2.215543 1_555
Li28 O35 2.102568 1_555
Li28 O14 2.123014 1_455
Li28 O24 2.127179 1_555
Li28 O6 2.132336 1_455
Li28 O7 2.133061 1_455
Li28 O34 2.156799 1_555
Li29 O5 2.054299 1_455
Li29 O36 2.061633 1_555
Li29 O33 2.169640 1_555
Li29 O28 2.187519 1_555
Li29 O12 2.192854 1_455
Li29 O8 2.200097 1_455
Li30 O10 2.095667 1_455
Li30 O15 2.096749 1_455
Li30 O42 2.131250 1_555
Li30 O34 2.151836 1_555
Li30 O43 2.210342 1_565
Li30 O14 2.219402 1_455
Li31 O11 2.065007 1_555
Li31 O42 2.076671 1_655
Li31 O14 2.183156 1_555
Li31 O39 2.185099 1_655
Li31 O35 2.203318 1_655
Li31 O19 2.203929 1_555
Cr0 O25 1.897187 1_555
Cr0 O15 1.907075 1_555
Cr0 O45 1.963777 1_655
Cr0 O42 1.983739 1_655
Cr0 O19 1.997371 1_555
Cr0 O47 2.003073 1_655
Cr1 O17 1.924141 1_555
Cr1 O36 1.933163 1_555
Cr1 O33 1.947560 1_555
Cr1 O23 1.948971 1_555
Cr1 O12 1.989451 1_555
Cr1 O40 1.995324 1_555
Cr2 O38 1.921321 1_555
Cr2 O30 1.926618 1_555
Cr2 O7 1.962721 1_455
Cr2 O3 1.977842 1_455
Cr2 O11 1.979381 1_455
Cr2 O35 1.982201 1_555
O0 Ti10 1.969155 1_645
O0 Ti11 1.982224 1_655
O1 Ti3 1.971014 1_555
O1 Ti10 1.979386 1_655
O2 Ti4 1.992905 1_555
O2 Ti11 1.993266 1_655
O3 Ti12 1.947088 1_645
O4 Ti10 1.968035 1_655
O4 Ti3 1.980819 1_555
O5 Ti4 1.986534 1_555
O5 Ti11 1.990470 1_655
O6 Ti12 1.954696 1_655
O6 Ti5 1.986815 1_555
O7 Ti6 2.005228 1_555
O8 Ti3 1.967557 1_555
O8 Ti4 1.977662 1_555
O9 Ti1 1.979003 1_565
O9 Ti0 1.984773 1_555
O10 Ti12 1.966890 1_655
O10 Ti5 1.993356 1_555
O11 Ti6 1.976326 1_555
O12 Ti0 1.946775 1_555
O13 Ti7 1.989585 1_555
O13 Ti1 1.996737 1_555
O14 Ti6 1.974484 1_555
O14 Ti5 1.977267 1_555
O15 Ti2 2.029062 1_565
O16 Ti4 1.971939 1_555
O16 Ti3 1.981096 1_555
O17 Ti0 1.987747 1_555
O18 Ti7 1.985895 1_555
O18 Ti1 2.002413 1_555
O19 Ti8 1.940845 1_555
O20 Ti9 1.962138 1_555
O20 Ti2 2.029314 1_555
O21 Ti3 1.988678 1_555
O21 Ti10 1.992193 1_555
O22 Ti11 1.969510 1_555
O22 Ti4 1.983160 1_555
O23 Ti7 1.977554 1_555
O24 Ti5 1.964903 1_555
O24 Ti6 1.981113 1_555
O25 Ti8 2.031653 1_555
O26 Ti9 1.978666 1_555
O26 Ti2 1.997617 1_555
O27 Ti10 1.987100 1_555
O27 Ti3 1.989949 1_555
O28 Ti4 1.968230 1_555
O28 Ti11 1.977936 1_555
O29 Ti5 1.985009 1_555
O29 Ti12 1.997022 1_555
O30 Ti6 2.001933 1_555
O31 Ti9 1.974933 1_555
O31 Ti8 1.984097 1_555
O32 Ti11 1.962950 1_555
O32 Ti10 1.980307 1_545
O33 Ti7 1.972953 1_555
O34 Ti5 1.976153 1_555
O34 Ti12 2.011470 1_555
O35 Ti6 1.954433 1_555
O36 Ti0 2.006099 1_455
O37 Ti1 1.967123 1_455
O37 Ti7 1.989323 1_555
O38 Ti12 2.014647 1_545
O39 Ti8 1.956777 1_555
O39 Ti9 1.981094 1_555
O40 Ti0 1.965122 1_455
O41 Ti7 1.969890 1_555
O41 Ti1 1.983182 1_455
O42 Ti8 1.971856 1_555
O43 Ti2 1.967992 1_455
O43 Ti9 1.987875 1_555
O44 Ti1 1.957272 1_465
O44 Ti0 2.008132 1_455
O45 Ti8 2.006840 1_555
O46 Ti2 1.946003 1_455
O46 Ti9 1.998329 1_555
O47 Ti2 1.927456 1_465
