# generated using pymatgen
data_H6C(NO)2
_symmetry_space_group_name_H-M   'P 1'
_cell_length_a   6.80490800
_cell_length_b   6.80824700
_cell_length_c   17.22612500
_cell_angle_alpha   90.00000000
_cell_angle_beta   90.00000000
_cell_angle_gamma   90.00000000
_symmetry_Int_Tables_number   1
_chemical_formula_structural   H6C(NO)2
_chemical_formula_sum   'H48 C8 N16 O16'
_cell_volume   798.07766304
_cell_formula_units_Z   8
loop_
 _symmetry_equiv_pos_site_id
 _symmetry_equiv_pos_as_xyz
  1  'x, y, z'
loop_
 _atom_site_type_symbol
 _atom_site_label
 _atom_site_symmetry_multiplicity
 _atom_site_fract_x
 _atom_site_fract_y
 _atom_site_fract_z
 _atom_site_occupancy
  H  H0  1  0.26456600  0.29309800  0.04291600  1
  H  H1  1  0.73543400  0.70690200  0.95708400  1
  H  H2  1  0.23543400  0.70690200  0.54291600  1
  H  H3  1  0.73543400  0.79309800  0.45708400  1
  H  H4  1  0.76456600  0.29309800  0.45708400  1
  H  H5  1  0.26456600  0.20690200  0.54291600  1
  H  H6  1  0.76456600  0.20690200  0.95708400  1
  H  H7  1  0.23543400  0.79309800  0.04291600  1
  H  H8  1  0.08207100  0.17111900  0.25966000  1
  H  H9  1  0.91792900  0.82888100  0.74034000  1
  H  H10  1  0.41792900  0.82888100  0.75966000  1
  H  H11  1  0.91792900  0.67111900  0.24034000  1
  H  H12  1  0.58207100  0.17111900  0.24034000  1
  H  H13  1  0.08207100  0.32888100  0.75966000  1
  H  H14  1  0.58207100  0.32888100  0.74034000  1
  H  H15  1  0.41792900  0.67111900  0.25966000  1
  H  H16  1  0.13522200  0.38948700  0.49398700  1
  H  H17  1  0.86477800  0.61051300  0.50601300  1
  H  H18  1  0.36477800  0.61051300  0.99398700  1
  H  H19  1  0.86477800  0.88948700  0.00601300  1
  H  H20  1  0.63522200  0.38948700  0.00601300  1
  H  H21  1  0.13522200  0.11051300  0.99398700  1
  H  H22  1  0.63522200  0.11051300  0.50601300  1
  H  H23  1  0.36477800  0.88948700  0.49398700  1
  H  H24  1  0.03750300  0.26486800  0.34878300  1
  H  H25  1  0.96249700  0.73513200  0.65121700  1
  H  H26  1  0.46249700  0.73513200  0.84878300  1
  H  H27  1  0.96249700  0.76486800  0.15121700  1
  H  H28  1  0.53750300  0.26486800  0.15121700  1
  H  H29  1  0.03750300  0.23513200  0.84878300  1
  H  H30  1  0.53750300  0.23513200  0.65121700  1
  H  H31  1  0.46249700  0.76486800  0.34878300  1
  H  H32  1  0.47961600  0.02225700  0.17038100  1
  H  H33  1  0.52038400  0.97774300  0.82961900  1
  H  H34  1  0.02038400  0.97774300  0.67038100  1
  H  H35  1  0.52038400  0.52225700  0.32961900  1
  H  H36  1  0.97961600  0.02225700  0.32961900  1
  H  H37  1  0.47961600  0.47774300  0.67038100  1
  H  H38  1  0.97961600  0.47774300  0.82961900  1
  H  H39  1  0.02038400  0.52225700  0.17038100  1
  H  H40  1  0.21437200  0.09206200  0.34055300  1
  H  H41  1  0.78562800  0.90793800  0.65944700  1
  H  H42  1  0.28562800  0.90793800  0.84055300  1
  H  H43  1  0.78562800  0.59206200  0.15944700  1
  H  H44  1  0.71437200  0.09206200  0.15944700  1
  H  H45  1  0.21437200  0.40793800  0.84055300  1
  H  H46  1  0.71437200  0.40793800  0.65944700  1
  H  H47  1  0.28562800  0.59206200  0.34055300  1
  C  C0  1  0.06444100  0.14712200  0.11086100  1
  C  C1  1  0.93555900  0.85287800  0.88913900  1
  C  C2  1  0.43555900  0.85287800  0.61086100  1
  C  C3  1  0.93555900  0.64712200  0.38913900  1
  C  C4  1  0.56444100  0.14712200  0.38913900  1
  C  C5  1  0.06444100  0.35287800  0.61086100  1
  C  C6  1  0.56444100  0.35287800  0.88913900  1
  C  C7  1  0.43555900  0.64712200  0.11086100  1
  N  N0  1  0.07677300  0.13688700  0.31984900  1
  N  N1  1  0.92322700  0.86311300  0.68015100  1
  N  N2  1  0.42322700  0.86311300  0.81984900  1
  N  N3  1  0.92322700  0.63688700  0.18015100  1
  N  N4  1  0.57677300  0.13688700  0.18015100  1
  N  N5  1  0.07677300  0.36311300  0.81984900  1
  N  N6  1  0.57677300  0.36311300  0.68015100  1
  N  N7  1  0.42322700  0.63688700  0.31984900  1
  N  N8  1  0.17662800  0.17331200  0.04550900  1
  N  N9  1  0.82337200  0.82668800  0.95449100  1
  N  N10  1  0.32337200  0.82668800  0.54550900  1
  N  N11  1  0.82337200  0.67331200  0.45449100  1
  N  N12  1  0.67662800  0.17331200  0.45449100  1
  N  N13  1  0.17662800  0.32668800  0.54550900  1
  N  N14  1  0.67662800  0.32668800  0.95449100  1
  N  N15  1  0.32337200  0.67331200  0.04550900  1
  O  O0  1  0.43222100  0.01115600  0.39080500  1
  O  O1  1  0.56777900  0.98884400  0.60919500  1
  O  O2  1  0.06777900  0.98884400  0.89080500  1
  O  O3  1  0.56777900  0.51115600  0.10919500  1
  O  O4  1  0.93222100  0.01115600  0.10919500  1
  O  O5  1  0.43222100  0.48884400  0.89080500  1
  O  O6  1  0.93222100  0.48884400  0.60919500  1
  O  O7  1  0.06777900  0.51115600  0.39080500  1
  O  O8  1  0.09946800  0.25673100  0.16983300  1
  O  O9  1  0.90053200  0.74326900  0.83016700  1
  O  O10  1  0.40053200  0.74326900  0.66983300  1
  O  O11  1  0.90053200  0.75673100  0.33016700  1
  O  O12  1  0.59946800  0.25673100  0.33016700  1
  O  O13  1  0.09946800  0.24326900  0.66983300  1
  O  O14  1  0.59946800  0.24326900  0.83016700  1
  O  O15  1  0.40053200  0.75673100  0.16983300  1
loop_
_geom_bond_atom_site_label_1
_geom_bond_atom_site_label_2
_geom_bond_distance
_geom_bond_site_symmetry_2
H0 N8 1.012513 1_555
H1 N9 1.012513 1_555
H2 N10 1.012513 1_555
H3 N11 1.012513 1_555
H4 N12 1.012513 1_555
H5 N13 1.012513 1_555
H6 N14 1.012513 1_555
H7 N15 1.012513 1_555
H8 N0 1.063306 1_555
H8 O8 1.657742 1_555
H9 N1 1.063306 1_555
H9 O9 1.657742 1_555
H10 N2 1.063306 1_555
H10 O10 1.657742 1_555
H11 N3 1.063306 1_555
H11 O11 1.657742 1_555
H12 N4 1.063306 1_555
H12 O12 1.657742 1_555
H13 N5 1.063306 1_555
H13 O13 1.657742 1_555
H14 N6 1.063306 1_555
H14 O14 1.657742 1_555
H15 N7 1.063306 1_555
H15 O15 1.657742 1_555
H16 N13 1.024642 1_555
H17 N11 1.024642 1_555
H18 N15 1.024642 1_556
H19 N9 1.024642 1_554
H20 N14 1.024642 1_554
H21 N8 1.024642 1_556
H22 N12 1.024642 1_555
H23 N10 1.024642 1_555
H24 N0 1.038770 1_555
H25 N1 1.038770 1_555
H26 N2 1.038770 1_555
H27 N3 1.038770 1_555
H28 N4 1.038770 1_555
H29 N5 1.038770 1_555
H30 N6 1.038770 1_555
H31 N7 1.038770 1_555
H32 N4 1.036584 1_555
H33 N2 1.036584 1_555
H34 N1 1.036584 1_455
H35 N7 1.036584 1_555
H36 N0 1.036584 1_655
H37 N6 1.036584 1_555
H38 N5 1.036584 1_655
H39 N3 1.036584 1_455
H40 N0 1.047417 1_555
H41 N1 1.047417 1_555
H42 N2 1.047417 1_555
H43 N3 1.047417 1_555
H44 N4 1.047417 1_555
H45 N5 1.047417 1_555
H46 N6 1.047417 1_555
H47 N7 1.047417 1_555
C0 O8 1.282835 1_555
C0 O4 1.291227 1_455
C0 N8 1.371841 1_555
C1 O9 1.282835 1_555
C1 O2 1.291227 1_655
C1 N9 1.371841 1_555
C2 O10 1.282835 1_555
C2 O1 1.291227 1_555
C2 N10 1.371841 1_555
C3 O11 1.282835 1_555
C3 O7 1.291227 1_655
C3 N11 1.371841 1_555
C4 O12 1.282835 1_555
C4 O0 1.291227 1_555
C4 N12 1.371841 1_555
C5 O13 1.282835 1_555
C5 O6 1.291227 1_455
C5 N13 1.371841 1_555
C6 O14 1.282835 1_555
C6 O5 1.291227 1_555
C6 N14 1.371841 1_555
C7 O15 1.282835 1_555
C7 O3 1.291227 1_555
C7 N15 1.371841 1_555
