# generated using pymatgen
data_SmH13C8N6O13
_symmetry_space_group_name_H-M   'P 1'
_cell_length_a   7.03428233
_cell_length_b   16.42750474
_cell_length_c   14.62405387
_cell_angle_alpha   101.97767964
_cell_angle_beta   90.00000000
_cell_angle_gamma   90.00000000
_symmetry_Int_Tables_number   1
_chemical_formula_structural   SmH13C8N6O13
_chemical_formula_sum   'Sm4 H52 C32 N24 O52'
_cell_volume   1653.10140842
_cell_formula_units_Z   4
loop_
 _symmetry_equiv_pos_site_id
 _symmetry_equiv_pos_as_xyz
  1  'x, y, z'
loop_
 _atom_site_type_symbol
 _atom_site_label
 _atom_site_symmetry_multiplicity
 _atom_site_fract_x
 _atom_site_fract_y
 _atom_site_fract_z
 _atom_site_occupancy
  Sm  Sm0  1  0.63809532  0.17804989  0.79205090  1
  Sm  Sm1  1  0.36190468  0.82195011  0.20794910  1
  Sm  Sm2  1  0.13809532  0.82195011  0.70794910  1
  Sm  Sm3  1  0.86190468  0.17804989  0.29205090  1
  H  H0  1  0.35432064  0.72643454  0.36586160  1
  H  H1  1  0.64567936  0.27356546  0.63413840  1
  H  H2  1  0.85432064  0.27356546  0.13413840  1
  H  H3  1  0.14567936  0.72643454  0.86586160  1
  H  H4  1  0.56867911  0.79418988  0.72426528  1
  H  H5  1  0.43132089  0.20581012  0.27573472  1
  H  H6  1  0.06867911  0.20581012  0.77573472  1
  H  H7  1  0.93132089  0.79418988  0.22426528  1
  H  H8  1  0.47933971  0.71843605  0.91258671  1
  H  H9  1  0.52066029  0.28156395  0.08741329  1
  H  H10  1  0.97933971  0.28156395  0.58741329  1
  H  H11  1  0.02066029  0.71843605  0.41258671  1
  H  H12  1  0.93634039  0.76474309  0.87463084  1
  H  H13  1  0.06365961  0.23525691  0.12536916  1
  H  H14  1  0.43634039  0.23525691  0.62536916  1
  H  H15  1  0.56365961  0.76474309  0.37463084  1
  H  H16  1  0.35859538  0.64939577  0.94973118  1
  H  H17  1  0.64140462  0.35060423  0.05026882  1
  H  H18  1  0.85859538  0.35060423  0.55026882  1
  H  H19  1  0.14140462  0.64939577  0.44973118  1
  H  H20  1  0.51928579  0.82540336  0.82946015  1
  H  H21  1  0.48071421  0.17459664  0.17053985  1
  H  H22  1  0.01928579  0.17459664  0.67053985  1
  H  H23  1  0.98071421  0.82540336  0.32946015  1
  H  H24  1  0.84830509  0.67910799  0.70705813  1
  H  H25  1  0.15169491  0.32089201  0.29294187  1
  H  H26  1  0.34830509  0.32089201  0.79294187  1
  H  H27  1  0.65169491  0.67910799  0.20705813  1
  H  H28  1  0.79206533  0.71062316  0.61635178  1
  H  H29  1  0.20793467  0.28937684  0.38364822  1
  H  H30  1  0.29206533  0.28937684  0.88364822  1
  H  H31  1  0.70793467  0.71062316  0.11635178  1
  H  H32  1  0.87133258  0.39460110  0.70355463  1
  H  H33  1  0.12866742  0.60539890  0.29644537  1
  H  H34  1  0.37133258  0.60539890  0.79644537  1
  H  H35  1  0.62866742  0.39460110  0.20355463  1
  H  H36  1  0.75841600  0.50323817  0.51483511  1
  H  H37  1  0.24158400  0.49676183  0.48516489  1
  H  H38  1  0.25841600  0.49676183  0.98516489  1
  H  H39  1  0.74158400  0.50323817  0.01483511  1
  H  H40  1  0.75179751  0.98604733  0.92469733  1
  H  H41  1  0.24820249  0.01395267  0.07530267  1
  H  H42  1  0.25179751  0.01395267  0.57530267  1
  H  H43  1  0.74820249  0.98604733  0.42469733  1
  H  H44  1  0.36043491  0.84344623  0.53009462  1
  H  H45  1  0.63956509  0.15655377  0.46990538  1
  H  H46  1  0.86043491  0.15655377  0.96990538  1
  H  H47  1  0.13956509  0.84344623  0.03009462  1
  H  H48  1  0.93325877  0.24279698  0.95256269  1
  H  H49  1  0.06674123  0.75720302  0.04743731  1
  H  H50  1  0.43325877  0.75720302  0.54743731  1
  H  H51  1  0.56674123  0.24279698  0.45256269  1
  C  C0  1  0.84329362  0.55055751  0.87611831  1
  C  C1  1  0.15670638  0.44944249  0.12388169  1
  C  C2  1  0.34329362  0.44944249  0.62388169  1
  C  C3  1  0.65670638  0.55055751  0.37611831  1
  C  C4  1  0.88367842  0.85987879  0.51253230  1
  C  C5  1  0.11632158  0.14012121  0.48746770  1
  C  C6  1  0.38367842  0.14012121  0.98746770  1
  C  C7  1  0.61632158  0.85987879  0.01253230  1
  C  C8  1  0.79629141  0.97628789  0.74061670  1
  C  C9  1  0.20370859  0.02371211  0.25938330  1
  C  C10  1  0.29629141  0.02371211  0.75938330  1
  C  C11  1  0.70370859  0.97628789  0.24061670  1
  C  C12  1  0.82537607  0.60372562  0.97061214  1
  C  C13  1  0.17462393  0.39627438  0.02938786  1
  C  C14  1  0.32537607  0.39627438  0.52938786  1
  C  C15  1  0.67462393  0.60372562  0.47061214  1
  C  C16  1  0.75505441  0.39580526  0.89031271  1
  C  C17  1  0.24494559  0.60419474  0.10968729  1
  C  C18  1  0.25505441  0.60419474  0.60968729  1
  C  C19  1  0.74494559  0.39580526  0.39031271  1
  C  C20  1  0.82239299  0.46418140  0.84567681  1
  C  C21  1  0.17760701  0.53581860  0.15432319  1
  C  C22  1  0.32239299  0.53581860  0.65432319  1
  C  C23  1  0.67760701  0.46418140  0.34567681  1
  C  C24  1  0.80490650  0.94438540  0.55350670  1
  C  C25  1  0.19509350  0.05561460  0.44649330  1
  C  C26  1  0.30490650  0.05561460  0.94649330  1
  C  C27  1  0.69509350  0.94438540  0.05350670  1
  C  C28  1  0.77465279  0.99171952  0.64370216  1
  C  C29  1  0.22534721  0.00828048  0.35629784  1
  C  C30  1  0.27465279  0.00828048  0.85629784  1
  C  C31  1  0.72534721  0.99171952  0.14370216  1
  N  N0  1  0.90686439  0.52165411  0.72697892  1
  N  N1  1  0.09313561  0.47834589  0.27302108  1
  N  N2  1  0.40686439  0.47834589  0.77302108  1
  N  N3  1  0.59313561  0.52165411  0.22697892  1
  N  N4  1  0.89301773  0.58287733  0.80053739  1
  N  N5  1  0.10698227  0.41712267  0.19946261  1
  N  N6  1  0.39301773  0.41712267  0.69946261  1
  N  N7  1  0.60698227  0.58287733  0.30053739  1
  N  N8  1  0.18917078  0.93052896  0.95430951  1
  N  N9  1  0.81082922  0.06947104  0.04569049  1
  N  N10  1  0.68917078  0.06947104  0.54569049  1
  N  N11  1  0.31082922  0.93052896  0.45430951  1
  N  N12  1  0.86585751  0.45060226  0.75402638  1
  N  N13  1  0.13414249  0.54939774  0.24597362  1
  N  N14  1  0.36585751  0.54939774  0.74597362  1
  N  N15  1  0.63414249  0.45060226  0.25402638  1
  N  N16  1  0.75202270  0.99568284  0.99704244  1
  N  N17  1  0.24797730  0.00431716  0.00295756  1
  N  N18  1  0.25202270  0.00431716  0.50295756  1
  N  N19  1  0.74797730  0.99568284  0.49704244  1
  N  N20  1  0.20384973  0.93318013  0.86546310  1
  N  N21  1  0.79615027  0.06681987  0.13453690  1
  N  N22  1  0.70384973  0.06681987  0.63453690  1
  N  N23  1  0.29615027  0.93318013  0.36546310  1
  O  O0  1  0.73873173  0.32425569  0.83912506  1
  O  O1  1  0.26126827  0.67574431  0.16087494  1
  O  O2  1  0.23873173  0.67574431  0.66087494  1
  O  O3  1  0.76126827  0.32425569  0.33912506  1
  O  O4  1  0.86269427  0.67954082  0.98736025  1
  O  O5  1  0.13730573  0.32045918  0.01263975  1
  O  O6  1  0.36269427  0.32045918  0.51263975  1
  O  O7  1  0.63730573  0.67954082  0.48736025  1
  O  O8  1  0.65181563  0.83072898  0.92717330  1
  O  O9  1  0.34818437  0.16927102  0.07282670  1
  O  O10  1  0.15181563  0.16927102  0.57282670  1
  O  O11  1  0.84818437  0.83072898  0.42717330  1
  O  O12  1  0.43921816  0.76709671  0.34551358  1
  O  O13  1  0.56078184  0.23290329  0.65448642  1
  O  O14  1  0.93921816  0.23290329  0.15448642  1
  O  O15  1  0.06078184  0.76709671  0.84551358  1
  O  O16  1  0.86539988  0.90866550  0.75327046  1
  O  O17  1  0.13460012  0.09133450  0.24672954  1
  O  O18  1  0.36539988  0.09133450  0.74672954  1
  O  O19  1  0.63460012  0.90866550  0.25327046  1
  O  O20  1  0.71673885  0.41545575  0.97774948  1
  O  O21  1  0.28326115  0.58454425  0.02225052  1
  O  O22  1  0.21673885  0.58454425  0.52225052  1
  O  O23  1  0.78326115  0.41545575  0.47774948  1
  O  O24  1  0.23817509  0.96531471  0.69308901  1
  O  O25  1  0.76182491  0.03468529  0.30691099  1
  O  O26  1  0.73817509  0.03468529  0.80691099  1
  O  O27  1  0.26182491  0.96531471  0.19308901  1
  O  O28  1  0.73238083  0.56768999  0.53829155  1
  O  O29  1  0.26761917  0.43231001  0.46170845  1
  O  O30  1  0.23238083  0.43231001  0.96170845  1
  O  O31  1  0.76761917  0.56768999  0.03829155  1
  O  O32  1  0.37688279  0.67726883  0.89590200  1
  O  O33  1  0.62311721  0.32273117  0.10409800  1
  O  O34  1  0.87688279  0.32273117  0.60409800  1
  O  O35  1  0.12311721  0.67726883  0.39590200  1
  O  O36  1  0.98322007  0.82424992  0.56472586  1
  O  O37  1  0.01677993  0.17575008  0.43527414  1
  O  O38  1  0.48322007  0.17575008  0.93527414  1
  O  O39  1  0.51677993  0.82424992  0.06472586  1
  O  O40  1  0.83159315  0.72956995  0.68186303  1
  O  O41  1  0.16840685  0.27043005  0.31813697  1
  O  O42  1  0.33159315  0.27043005  0.81813697  1
  O  O43  1  0.66840685  0.72956995  0.18186303  1
  O  O44  1  0.46338088  0.81625858  0.76584793  1
  O  O45  1  0.53661912  0.18374142  0.23415207  1
  O  O46  1  0.96338088  0.18374142  0.73415207  1
  O  O47  1  0.03661912  0.81625858  0.26584793  1
  O  O48  1  0.38289470  0.81134982  0.57912083  1
  O  O49  1  0.61710530  0.18865018  0.42087917  1
  O  O50  1  0.88289470  0.18865018  0.92087917  1
  O  O51  1  0.11710530  0.81134982  0.07912083  1
loop_
_geom_bond_atom_site_label_1
_geom_bond_atom_site_label_2
_geom_bond_distance
_geom_bond_site_symmetry_2
H0 O12 0.986856 1_555
H1 O13 0.986856 1_555
H2 O14 0.986856 1_555
H3 O15 0.986856 1_555
H4 O44 0.978955 1_555
H5 O45 0.978955 1_555
H6 O46 0.978955 1_455
H7 O47 0.978955 1_655
H8 O32 0.983777 1_555
H9 O33 0.983777 1_555
H10 O34 0.983777 1_555
H11 O35 0.983777 1_555
H12 O15 0.977698 1_655
H13 O14 0.977698 1_455
H14 O13 0.977698 1_555
H15 O12 0.977698 1_555
H16 O32 0.997747 1_555
H17 O33 0.997747 1_555
H18 O34 0.997747 1_555
H19 O35 0.997747 1_555
H20 O44 0.992274 1_555
H20 O8 1.693161 1_555
H21 O45 0.992274 1_555
H21 O9 1.693161 1_555
H22 O46 0.992274 1_455
H22 O10 1.693161 1_555
H23 O47 0.992274 1_655
H23 O11 1.693161 1_555
H24 O40 0.981598 1_555
H25 O41 0.981598 1_555
H26 O42 0.981598 1_555
H27 O43 0.981598 1_555
H28 O40 0.984003 1_555
H29 O41 0.984003 1_555
H30 O42 0.984003 1_555
H31 O43 0.984003 1_555
H32 N12 1.053929 1_555
H32 O34 1.672768 1_555
H33 N13 1.053929 1_555
H33 O35 1.672768 1_555
H34 N14 1.053929 1_555
H34 O32 1.672768 1_555
H35 N15 1.053929 1_555
H35 O33 1.672768 1_555
H36 O28 1.059000 1_555
H36 O23 1.442069 1_555
H37 O29 1.059000 1_555
H37 O22 1.442069 1_555
H38 O30 1.059000 1_555
H38 O21 1.442069 1_556
H39 O31 1.059000 1_555
H39 O20 1.442069 1_554
H40 N16 1.036759 1_555
H41 N17 1.036759 1_555
H42 N18 1.036759 1_555
H43 N19 1.036759 1_555
H44 O48 0.986867 1_555
H45 O49 0.986867 1_555
H46 O50 0.986867 1_555
H47 O51 0.986867 1_555
H48 O50 0.979968 1_555
H49 O51 0.979968 1_555
H50 O48 0.979968 1_555
H51 O49 0.979968 1_555
C0 N4 1.367294 1_555
C0 C20 1.403928 1_555
C0 C12 1.478981 1_555
C1 N5 1.367294 1_555
C1 C21 1.403928 1_555
C1 C13 1.478981 1_555
C2 N6 1.367294 1_555
C2 C22 1.403928 1_555
C3 N7 1.367294 1_555
C4 O36 1.265258 1_555
C4 O11 1.265613 1_555
C5 O37 1.265258 1_555
C5 O10 1.265613 1_555
C6 O38 1.265258 1_555
C6 O9 1.265613 1_556
C7 O39 1.265258 1_555
C7 O8 1.265613 1_554
C8 O16 1.260917 1_555
C8 O26 1.281135 1_565
C9 O17 1.260917 1_555
C9 O27 1.281135 1_545
C10 O18 1.260917 1_555
C10 O24 1.281135 1_545
C10 C30 1.498416 1_555
C11 O19 1.260917 1_555
C11 O25 1.281135 1_565
C11 C31 1.498416 1_555
C12 O4 1.246372 1_555
C12 O31 1.318440 1_556
C13 O5 1.246372 1_555
C13 O30 1.318440 1_554
C14 O6 1.246372 1_555
C14 O29 1.318440 1_555
C14 C2 1.478981 1_555
C15 O7 1.246372 1_555
C15 O28 1.318440 1_555
C15 C3 1.478981 1_555
C16 O0 1.260900 1_555
C16 O20 1.280838 1_555
C16 C20 1.488785 1_555
C17 O1 1.260900 1_555
C17 O21 1.280838 1_555
C17 C21 1.488785 1_555
C18 O2 1.260900 1_555
C18 O22 1.280838 1_555
C18 C22 1.488785 1_555
C19 O3 1.260900 1_555
C19 O23 1.280838 1_555
C19 C23 1.488785 1_555
C20 N12 1.347423 1_555
C21 N13 1.347423 1_555
C22 N14 1.347423 1_555
C23 N15 1.347423 1_555
C23 C3 1.403928 1_555
C24 N19 1.356888 1_555
C24 C28 1.401441 1_555
C24 C4 1.499336 1_555
C25 N18 1.356888 1_555
C25 C29 1.401441 1_555
C25 C5 1.499336 1_555
C26 N17 1.356888 1_556
C26 C30 1.401441 1_555
C26 C6 1.499336 1_555
C27 N16 1.356888 1_554
C27 C31 1.401441 1_555
C27 C7 1.499336 1_555
C28 N22 1.362606 1_565
C28 C8 1.498416 1_555
C29 N23 1.362606 1_545
C29 C9 1.498416 1_555
C30 N20 1.362606 1_545
C31 N21 1.362606 1_565
N0 N4 1.314965 1_555
N0 N12 1.339273 1_555
N1 N5 1.314965 1_555
N1 N13 1.339273 1_555
N2 N6 1.314965 1_555
N3 N7 1.314965 1_555
N10 N22 1.313093 1_555
N10 N19 1.337400 1_545
N11 N23 1.313093 1_555
N11 N18 1.337400 1_565
N14 N2 1.339273 1_555
N15 N3 1.339273 1_555
N16 N9 1.337400 1_566
N17 N8 1.337400 1_544
N20 N8 1.313093 1_555
N20 Sm2 2.666795 1_555
N21 N9 1.313093 1_555
N21 Sm3 2.666795 1_555
N22 Sm0 2.666795 1_555
N23 Sm1 2.666795 1_555
O0 Sm0 2.461178 1_555
O1 Sm1 2.461178 1_555
O2 Sm2 2.461178 1_555
O3 Sm3 2.461178 1_555
O12 Sm1 2.430497 1_555
O13 Sm0 2.430497 1_555
O14 Sm3 2.430497 1_555
O15 Sm2 2.430497 1_555
O16 Sm2 2.399210 1_655
O17 Sm3 2.399210 1_455
O18 Sm0 2.399210 1_555
O19 Sm1 2.399210 1_555
O24 Sm2 2.510350 1_555
O25 Sm3 2.510350 1_555
O26 Sm0 2.510350 1_555
O27 Sm1 2.510350 1_555
O36 Sm2 2.368141 1_655
O37 Sm3 2.368141 1_455
O38 Sm0 2.368141 1_555
O39 Sm1 2.368141 1_555
O40 Sm2 2.618532 1_655
O41 Sm3 2.618532 1_455
O42 Sm0 2.618532 1_555
O43 Sm1 2.618532 1_555
O44 Sm2 2.448297 1_555
O45 Sm3 2.448297 1_555
O46 Sm0 2.448297 1_555
O47 Sm1 2.448297 1_555
O48 Sm2 2.531565 1_555
O49 Sm3 2.531565 1_555
O50 Sm0 2.531565 1_555
O51 Sm1 2.531565 1_555
