# generated using pymatgen
data_ErNiGe2
_symmetry_space_group_name_H-M   'P 1'
_cell_length_a   8.58801274
_cell_length_b   8.58801274
_cell_length_c   4.18710200
_cell_angle_alpha   90.00000000
_cell_angle_beta   90.00000000
_cell_angle_gamma   152.55309648
_symmetry_Int_Tables_number   1
_chemical_formula_structural   ErNiGe2
_chemical_formula_sum   'Er2 Ni2 Ge4'
_cell_volume   142.34115924
_cell_formula_units_Z   2
loop_
 _symmetry_equiv_pos_site_id
 _symmetry_equiv_pos_as_xyz
  1  'x, y, z'
loop_
 _atom_site_type_symbol
 _atom_site_label
 _atom_site_symmetry_multiplicity
 _atom_site_fract_x
 _atom_site_fract_y
 _atom_site_fract_z
 _atom_site_occupancy
  Er  Er0  1  0.89167800  0.10832200  0.25000000  1
  Er  Er1  1  0.10832200  0.89167800  0.75000000  1
  Ni  Ni0  1  0.67786800  0.32213200  0.25000000  1
  Ni  Ni1  1  0.32213200  0.67786800  0.75000000  1
  Ge  Ge0  1  0.54072800  0.45927200  0.25000000  1
  Ge  Ge1  1  0.45927200  0.54072800  0.75000000  1
  Ge  Ge2  1  0.25263400  0.74736600  0.25000000  1
  Ge  Ge3  1  0.74736600  0.25263400  0.75000000  1
loop_
_geom_bond_atom_site_label_1
_geom_bond_atom_site_label_2
_geom_bond_distance
_geom_bond_site_symmetry_2
Er0 Ge2 3.087643 1_545
Er0 Ge2 3.087643 1_655
Er0 Ge1 3.131444 1_654
Er0 Ge1 3.131444 1_655
Er0 Ge1 3.131444 1_544
Er0 Ge1 3.131444 1_545
Er0 Ni1 3.143322 1_544
Er0 Ni1 3.143322 1_545
Er0 Ni1 3.143322 1_654
Er0 Ni1 3.143322 1_655
Er0 Ge3 3.190792 1_555
Er0 Ge3 3.190792 1_554
Er0 Ge0 3.214982 1_545
Er0 Ge0 3.214982 1_655
Er1 Ge3 3.087643 1_565
Er1 Ge3 3.087643 1_455
Er1 Ge0 3.131444 1_566
Er1 Ge0 3.131444 1_565
Er1 Ge0 3.131444 1_455
Er1 Ge0 3.131444 1_456
Er1 Ni0 3.143322 1_565
Er1 Ni0 3.143322 1_566
Er1 Ni0 3.143322 1_456
Er1 Ni0 3.143322 1_455
Er1 Ge2 3.190792 1_555
Er1 Ge2 3.190792 1_556
Er1 Ge1 3.214982 1_455
Er1 Ge1 3.214982 1_565
Ge0 Ni0 2.288275 1_555
Ge0 Ge1 2.496045 1_555
Ge0 Ge1 2.496045 1_554
Ge1 Ni1 2.288275 1_555
Ge2 Ni0 2.388984 1_565
Ge2 Ni0 2.388984 1_455
Ge2 Ni1 2.393257 1_554
Ge2 Ni1 2.393257 1_555
Ge3 Ni1 2.388984 1_655
Ge3 Ni1 2.388984 1_545
Ge3 Ni0 2.393257 1_556
Ge3 Ni0 2.393257 1_555
