# generated using pymatgen
data_Hf2TiNi3
_symmetry_space_group_name_H-M   'P 1'
_cell_length_a   14.52184444
_cell_length_b   13.79498549
_cell_length_c   7.71666549
_cell_angle_alpha   79.45451527
_cell_angle_beta   69.05155761
_cell_angle_gamma   31.49392712
_symmetry_Int_Tables_number   1
_chemical_formula_structural   Hf2TiNi3
_chemical_formula_sum   'Hf16 Ti8 Ni24'
_cell_volume   730.29633917
_cell_formula_units_Z   8
loop_
 _symmetry_equiv_pos_site_id
 _symmetry_equiv_pos_as_xyz
  1  'x, y, z'
loop_
 _atom_site_type_symbol
 _atom_site_label
 _atom_site_symmetry_multiplicity
 _atom_site_fract_x
 _atom_site_fract_y
 _atom_site_fract_z
 _atom_site_occupancy
  Hf  Hf0  1  0.40974600  0.40974600  0.09025400  1
  Hf  Hf1  1  0.09025400  0.09025400  0.40974600  1
  Hf  Hf2  1  0.84025400  0.84025400  0.15974600  1
  Hf  Hf3  1  0.15974600  0.15974600  0.84025400  1
  Hf  Hf4  1  0.28076700  0.71923300  0.28076700  1
  Hf  Hf5  1  0.71923300  0.28076700  0.71923300  1
  Hf  Hf6  1  0.96923300  0.53076700  0.96923300  1
  Hf  Hf7  1  0.53076700  0.96923300  0.53076700  1
  Hf  Hf8  1  0.18852000  0.66178700  0.81040400  1
  Hf  Hf9  1  0.33928800  0.81040400  0.66178700  1
  Hf  Hf10  1  0.06148000  0.58821300  0.43959600  1
  Hf  Hf11  1  0.91071200  0.43959600  0.58821300  1
  Hf  Hf12  1  0.81040400  0.33928800  0.18852000  1
  Hf  Hf13  1  0.66178700  0.18852000  0.33928800  1
  Hf  Hf14  1  0.43959600  0.91071200  0.06148000  1
  Hf  Hf15  1  0.58821300  0.06148000  0.91071200  1
  Ti  Ti0  1  0.50000000  0.50000000  0.50000000  1
  Ti  Ti1  1  0.75000000  0.75000000  0.75000000  1
  Ti  Ti2  1  0.00000000  0.00000000  0.00000000  1
  Ti  Ti3  1  0.25000000  0.25000000  0.25000000  1
  Ti  Ti4  1  0.91710600  0.91710600  0.58289400  1
  Ti  Ti5  1  0.58289400  0.58289400  0.91710600  1
  Ti  Ti6  1  0.33289400  0.33289400  0.66710600  1
  Ti  Ti7  1  0.66710600  0.66710600  0.33289400  1
  Ni  Ni0  1  0.27589900  0.53389800  0.46242700  1
  Ni  Ni1  1  0.72777600  0.46242700  0.53389800  1
  Ni  Ni2  1  0.97410100  0.71610200  0.78757300  1
  Ni  Ni3  1  0.52222400  0.78757300  0.71610200  1
  Ni  Ni4  1  0.46242700  0.72777600  0.27589900  1
  Ni  Ni5  1  0.53389800  0.27589900  0.72777600  1
  Ni  Ni6  1  0.78757300  0.52222400  0.97410100  1
  Ni  Ni7  1  0.71610200  0.97410100  0.52222400  1
  Ni  Ni8  1  0.79457800  0.04639400  0.93316700  1
  Ni  Ni9  1  0.22586100  0.93316700  0.04639400  1
  Ni  Ni10  1  0.45542200  0.20360600  0.31683300  1
  Ni  Ni11  1  0.02413900  0.31683300  0.20360600  1
  Ni  Ni12  1  0.93316700  0.22586100  0.79457800  1
  Ni  Ni13  1  0.04639400  0.79457800  0.22586100  1
  Ni  Ni14  1  0.31683300  0.02413900  0.45542200  1
  Ni  Ni15  1  0.20360600  0.45542200  0.02413900  1
  Ni  Ni16  1  0.07017800  0.93314300  0.64505500  1
  Ni  Ni17  1  0.35162500  0.64505500  0.93314300  1
  Ni  Ni18  1  0.17982200  0.31685700  0.60494500  1
  Ni  Ni19  1  0.89837500  0.60494500  0.31685700  1
  Ni  Ni20  1  0.64505500  0.35162500  0.07017800  1
  Ni  Ni21  1  0.93314300  0.07017800  0.35162500  1
  Ni  Ni22  1  0.60494500  0.89837500  0.17982200  1
  Ni  Ni23  1  0.31685700  0.17982200  0.89837500  1
loop_
_geom_bond_atom_site_label_1
_geom_bond_atom_site_label_2
_geom_bond_distance
_geom_bond_site_symmetry_2
Hf0 Ni0 2.662881 1_555
Hf0 Ni5 2.662881 1_554
Hf0 Ni17 2.708891 1_554
Hf0 Ni20 2.708894 1_555
Hf0 Ni10 2.715919 1_555
Hf0 Ni15 2.715919 1_555
Hf0 Ni13 2.726498 1_555
Hf0 Ni8 2.726498 1_554
Hf0 Hf13 3.199460 1_555
Hf0 Hf8 3.199466 1_554
Hf0 Hf15 3.217524 1_554
Hf0 Hf10 3.217527 1_555
Hf1 Ni1 2.662881 1_455
Hf1 Ni4 2.662881 1_545
Hf1 Ni21 2.708880 1_455
Hf1 Ni16 2.708883 1_545
Hf1 Ni14 2.715919 1_555
Hf1 Ni11 2.715919 1_555
Hf1 Ni12 2.726498 1_455
Hf1 Ni9 2.726498 1_545
Hf1 Hf9 3.199462 1_545
Hf1 Hf12 3.199468 1_455
Hf1 Hf14 3.217533 1_545
Hf1 Hf11 3.217536 1_455
Hf2 Ni2 2.662881 1_554
Hf2 Ni7 2.662881 1_555
Hf2 Ni19 2.708891 1_555
Hf2 Ni22 2.708894 1_555
Hf2 Ni13 2.715919 1_655
Hf2 Ni8 2.715919 1_564
Hf2 Ni10 2.726498 1_565
Hf2 Ni15 2.726498 1_655
Hf2 Hf8 3.217527 1_654
Hf3 Ni3 2.662881 1_545
Hf3 Ni6 2.662881 1_455
Hf3 Ni23 2.708880 1_555
Hf3 Ni18 2.708883 1_555
Hf3 Ni9 2.715919 1_546
Hf3 Ni12 2.715919 1_455
Hf3 Ni11 2.726498 1_556
Hf3 Ni14 2.726498 1_555
Hf3 Hf9 3.217536 1_545
Hf4 Ni17 2.556764 1_554
Hf4 Ni21 2.556767 1_465
Hf4 Ni4 2.726217 1_555
Hf4 Ni0 2.726217 1_555
Hf4 Ni20 2.731576 1_555
Hf4 Ni16 2.731580 1_555
Hf4 Ni9 2.771434 1_555
Hf4 Ni13 2.771434 1_555
Hf4 Ti0 2.775342 1_555
Hf5 Ni16 2.556768 1_645
Hf5 Ni20 2.556771 1_556
Hf5 Ni1 2.726217 1_555
Hf5 Ni5 2.726217 1_555
Hf5 Ni21 2.731573 1_555
Hf5 Ni17 2.731577 1_555
Hf5 Ni12 2.771434 1_555
Hf5 Ni8 2.771434 1_555
Hf5 Ti0 2.775342 1_555
Hf6 Ni19 2.556764 1_556
Hf6 Ni23 2.556767 1_655
Hf6 Ni2 2.726217 1_555
Hf6 Ni6 2.726217 1_555
Hf6 Ni22 2.731576 1_556
Hf6 Ni18 2.731580 1_655
Hf6 Ni15 2.771434 1_656
Hf6 Ni11 2.771434 1_656
Hf6 Ti1 2.775342 1_555
Hf7 Ni18 2.556768 1_565
Hf7 Ni22 2.556771 1_555
Hf7 Ni3 2.726217 1_555
Hf7 Ni7 2.726217 1_555
Hf7 Ni23 2.731573 1_565
Hf7 Ni19 2.731577 1_555
Hf7 Ni10 2.771434 1_565
Hf7 Ni14 2.771434 1_565
Hf7 Ti1 2.775342 1_555
Hf8 Ni2 2.579363 1_455
Hf8 Ni17 2.674378 1_555
Hf8 Ni5 2.706066 1_555
Hf8 Ni0 2.722664 1_555
Hf8 Ni16 2.728149 1_555
Hf8 Ni8 2.824248 1_465
Hf8 Ti0 2.858605 1_555
Hf8 Ni15 2.889409 1_556
Hf8 Ni13 2.977250 1_556
Hf8 Ti2 3.042234 1_566
Hf8 Ti4 3.167398 1_455
Hf8 Ti6 3.187449 1_555
Hf9 Ni3 2.579377 1_555
Hf9 Ni16 2.674351 1_555
Hf9 Ni4 2.706065 1_555
Hf9 Ni1 2.722671 1_555
Hf9 Ni17 2.728138 1_555
Hf9 Ni9 2.824252 1_556
Hf9 Ti0 2.858596 1_555
Hf9 Ni14 2.889417 1_565
Hf9 Ni12 2.977246 1_465
Hf9 Ti2 3.042226 1_566
Hf9 Ti5 3.167406 1_555
Hf9 Ti7 3.187459 1_555
Hf10 Ni0 2.579363 1_555
Hf10 Ni19 2.674378 1_455
Hf10 Ni7 2.706066 1_455
Hf10 Ni2 2.722664 1_455
Hf10 Ni18 2.728149 1_555
Hf10 Ni10 2.824248 1_555
Hf10 Ti1 2.858605 1_455
Hf10 Ni13 2.889409 1_555
Hf10 Ni15 2.977250 1_555
Hf10 Ti3 3.042234 1_555
Hf10 Ti6 3.167398 1_555
Hf10 Ti4 3.187449 1_455
Hf10 Hf2 3.199466 1_455
Hf11 Ni1 2.579377 1_555
Hf11 Ni18 2.674351 1_655
Hf11 Ni6 2.706065 1_555
Hf11 Ni3 2.722671 1_555
Hf11 Ni19 2.728138 1_555
Hf11 Ni11 2.824252 1_655
Hf11 Ti1 2.858596 1_555
Hf11 Ni12 2.889417 1_555
Hf11 Ni14 2.977246 1_655
Hf11 Ti3 3.042226 1_655
Hf11 Ti7 3.167406 1_555
Hf11 Ti5 3.187459 1_555
Hf11 Hf3 3.199462 1_655
Hf12 Ni6 2.579373 1_554
Hf12 Ni21 2.674358 1_555
Hf12 Ni1 2.706072 1_555
Hf12 Ni4 2.722670 1_555
Hf12 Ni20 2.728129 1_555
Hf12 Ni12 2.824245 1_554
Hf12 Ti0 2.858599 1_555
Hf12 Ni11 2.889420 1_655
Hf12 Ni9 2.977246 1_645
Hf12 Ti2 3.042222 1_655
Hf12 Ti5 3.167399 1_554
Hf12 Ti7 3.187462 1_555
Hf12 Hf3 3.217533 1_654
Hf13 Ni7 2.579367 1_545
Hf13 Ni20 2.674368 1_555
Hf13 Ni0 2.706066 1_555
Hf13 Ni5 2.722672 1_555
Hf13 Ni21 2.728156 1_555
Hf13 Ni13 2.824248 1_645
Hf13 Ti0 2.858608 1_555
Hf13 Ni10 2.889406 1_555
Hf13 Ni8 2.977242 1_554
Hf13 Ti2 3.042231 1_655
Hf13 Ti4 3.167404 1_545
Hf13 Ti6 3.187452 1_555
Hf13 Hf2 3.217524 1_545
Hf14 Ni4 2.579373 1_555
Hf14 Ni23 2.674358 1_564
Hf14 Ni3 2.706072 1_554
Hf14 Ni6 2.722670 1_554
Hf14 Ni22 2.728129 1_555
Hf14 Ni14 2.824245 1_565
Hf14 Ti1 2.858599 1_554
Hf14 Ni9 2.889420 1_555
Hf14 Ni11 2.977246 1_565
Hf14 Ti3 3.042222 1_565
Hf14 Ti7 3.167399 1_555
Hf14 Ti5 3.187462 1_554
Hf14 Hf3 3.199468 1_564
Hf15 Ni5 2.579367 1_555
Hf15 Ni22 2.674368 1_546
Hf15 Ni2 2.706066 1_545
Hf15 Ni7 2.722672 1_545
Hf15 Ni23 2.728156 1_555
Hf15 Ni15 2.824248 1_556
Hf15 Ti1 2.858608 1_545
Hf15 Ni8 2.889406 1_555
Hf15 Ni10 2.977242 1_556
Hf15 Ti3 3.042231 1_556
Hf15 Ti6 3.167404 1_555
Hf15 Ti4 3.187452 1_545
Hf15 Hf2 3.199460 1_546
Ni0 Ti6 2.507224 1_555
Ni0 Ti4 2.705531 1_455
Ni0 Ni2 2.734930 1_455
Ni0 Ni10 2.888109 1_555
Ni0 Ni13 2.979978 1_555
Ni0 Ti0 2.987203 1_555
Ni1 Ti7 2.507224 1_555
Ni1 Ti5 2.705531 1_555
Ni1 Ni3 2.734930 1_555
Ni1 Ni11 2.888109 1_655
Ni1 Ni12 2.979978 1_555
Ni1 Ti0 2.987203 1_555
Ni2 Ti4 2.507224 1_555
Ni2 Ti6 2.705531 1_655
Ni2 Ni8 2.888109 1_565
Ni2 Ti1 2.987203 1_555
Ni3 Ti5 2.507224 1_555
Ni3 Ti7 2.705531 1_555
Ni3 Ni9 2.888109 1_556
Ni3 Ti1 2.987203 1_555
Ni4 Ti7 2.507224 1_555
Ni4 Ti5 2.705531 1_554
Ni4 Ni6 2.734930 1_554
Ni4 Ni9 2.979978 1_555
Ni4 Ti0 2.987203 1_555
Ni5 Ti6 2.507224 1_555
Ni5 Ti4 2.705531 1_545
Ni5 Ni7 2.734930 1_545
Ni5 Ni8 2.979978 1_555
Ni5 Ti0 2.987203 1_555
Ni6 Ti5 2.507224 1_555
Ni6 Ti7 2.705531 1_556
Ni6 Ti1 2.987203 1_555
Ni7 Ti4 2.507224 1_555
Ni7 Ti6 2.705531 1_565
Ni7 Ti1 2.987203 1_555
Ni8 Ti4 2.562495 1_545
Ni8 Ti2 2.701453 1_656
Ni9 Ti5 2.562495 1_554
Ni9 Ti2 2.701453 1_565
Ni10 Ti6 2.562495 1_555
Ni10 Ti3 2.701453 1_555
Ni10 Ni18 2.765328 1_555
Ni10 Ni22 2.821009 1_545
Ni10 Ni7 2.979978 1_545
Ni11 Ti7 2.562495 1_455
Ni11 Ti3 2.701453 1_555
Ni11 Ni19 2.765318 1_455
Ni11 Ni23 2.821000 1_554
Ni11 Ni6 2.979978 1_454
Ni12 Ti5 2.562495 1_555
Ni12 Ti2 2.701453 1_656
Ni12 Ni20 2.765321 1_556
Ni12 Ni16 2.820996 1_645
Ni12 Ni6 2.888109 1_555
Ni13 Ti4 2.562495 1_455
Ni13 Ti2 2.701453 1_565
Ni13 Ni21 2.765331 1_465
Ni13 Ni17 2.821006 1_554
Ni13 Ni7 2.888109 1_455
Ni14 Ti7 2.562495 1_545
Ni14 Ti3 2.701453 1_555
Ni14 Ni22 2.765321 1_545
Ni14 Ni18 2.820996 1_555
Ni14 Ni4 2.888109 1_545
Ni14 Ni3 2.979978 1_545
Ni15 Ti6 2.562495 1_554
Ni15 Ti3 2.701453 1_555
Ni15 Ni23 2.765331 1_554
Ni15 Ni19 2.821006 1_455
Ni15 Ni5 2.888109 1_554
Ni15 Ni2 2.979978 1_454
Ni16 Ti2 2.591726 1_566
Ni16 Ti4 2.619199 1_455
Ni16 Ni8 2.765328 1_465
Ni16 Ni21 2.810784 1_465
Ni16 Ti0 3.124740 1_555
Ni17 Ti2 2.591730 1_566
Ni17 Ti5 2.619185 1_555
Ni17 Ni9 2.765318 1_556
Ni17 Ni20 2.810784 1_556
Ni17 Ti0 3.124743 1_555
Ni18 Ti3 2.591726 1_555
Ni18 Ti6 2.619199 1_555
Ni18 Ni23 2.810784 1_555
Ni18 Ti1 3.124740 1_455
Ni19 Ti3 2.591730 1_655
Ni19 Ti7 2.619185 1_555
Ni19 Ni22 2.810784 1_555
Ni19 Ti1 3.124743 1_555
Ni20 Ti2 2.591729 1_655
Ni20 Ti5 2.619187 1_554
Ni20 Ni8 2.821009 1_554
Ni20 Ti0 3.124736 1_555
Ni21 Ti2 2.591734 1_655
Ni21 Ti4 2.619195 1_545
Ni21 Ni9 2.821000 1_645
Ni21 Ti0 3.124740 1_555
Ni22 Ti3 2.591729 1_565
Ni22 Ti7 2.619187 1_555
Ni22 Ti1 3.124736 1_554
Ni23 Ti3 2.591734 1_556
Ni23 Ti6 2.619195 1_555
Ni23 Ti1 3.124740 1_545
