# generated using pymatgen
data_CeMg14Zn
_symmetry_space_group_name_H-M   'P 1'
_cell_length_a   6.49205633
_cell_length_b   6.49205579
_cell_length_c   10.23526635
_cell_angle_alpha   90.00000000
_cell_angle_beta   90.00000000
_cell_angle_gamma   120.00000279
_symmetry_Int_Tables_number   1
_chemical_formula_structural   CeMg14Zn
_chemical_formula_sum   'Ce1 Mg14 Zn1'
_cell_volume   373.58918124
_cell_formula_units_Z   1
loop_
 _symmetry_equiv_pos_site_id
 _symmetry_equiv_pos_as_xyz
  1  'x, y, z'
loop_
 _atom_site_type_symbol
 _atom_site_label
 _atom_site_symmetry_multiplicity
 _atom_site_fract_x
 _atom_site_fract_y
 _atom_site_fract_z
 _atom_site_occupancy
  Ce  Ce0  1  0.16666700  0.33333300  0.62500000  1
  Mg  Mg0  1  0.16248674  0.83124287  0.12500000  1
  Mg  Mg1  1  0.18229512  0.84114706  0.62500000  1
  Mg  Mg2  1  0.66875713  0.33751326  0.12500000  1
  Mg  Mg3  1  0.65885294  0.31770488  0.62500000  1
  Mg  Mg4  1  0.66875713  0.83124287  0.12500000  1
  Mg  Mg5  1  0.65885294  0.84114706  0.62500000  1
  Mg  Mg6  1  0.33179026  0.16820974  0.36347925  1
  Mg  Mg7  1  0.33179026  0.16820974  0.88652075  1
  Mg  Mg8  1  0.33179026  0.66358151  0.36347925  1
  Mg  Mg9  1  0.33179026  0.66358151  0.88652075  1
  Mg  Mg10  1  0.83641849  0.16820974  0.36347925  1
  Mg  Mg11  1  0.83641849  0.16820974  0.88652075  1
  Mg  Mg12  1  0.83333300  0.66666700  0.38360025  1
  Mg  Mg13  1  0.83333300  0.66666700  0.86639975  1
  Zn  Zn0  1  0.16666700  0.33333300  0.12500000  1
loop_
_geom_bond_atom_site_label_1
_geom_bond_atom_site_label_2
_geom_bond_distance
_geom_bond_site_symmetry_2
Ce0 Mg5 3.247217 1_555
Ce0 Mg1 3.247217 1_555
Ce0 Mg5 3.247217 1_445
Ce0 Mg1 3.247217 1_545
Ce0 Mg3 3.247217 1_455
Ce0 Mg3 3.247217 1_555
Ce0 Mg7 3.257667 1_555
Ce0 Mg6 3.257667 1_555
Ce0 Mg9 3.257673 1_555
Ce0 Mg8 3.257673 1_555
Ce0 Mg11 3.257673 1_455
Ce0 Mg10 3.257673 1_455
Mg0 Mg8 3.089853 1_555
Mg0 Mg9 3.089853 1_554
Mg0 Mg6 3.089860 1_565
Mg0 Mg7 3.089860 1_564
Mg0 Mg2 3.205320 1_455
Mg0 Mg4 3.205320 1_455
Mg0 Mg12 3.229626 1_455
Mg0 Mg13 3.229626 1_454
Mg0 Zn0 3.246113 1_565
Mg0 Zn0 3.246113 1_555
Mg0 Mg2 3.286736 1_565
Mg0 Mg4 3.286736 1_555
Mg1 Mg3 3.093840 1_565
Mg1 Mg5 3.093840 1_555
Mg1 Mg13 3.155014 1_455
Mg1 Mg12 3.155014 1_455
Mg1 Mg9 3.248769 1_555
Mg1 Mg8 3.248769 1_555
Mg1 Mg7 3.248776 1_565
Mg1 Mg6 3.248776 1_565
Mg1 Mg3 3.398216 1_455
Mg1 Mg5 3.398216 1_455
Mg2 Mg6 3.089860 1_555
Mg2 Mg7 3.089860 1_554
Mg2 Mg4 3.205320 1_555
Mg2 Zn0 3.246113 1_555
Mg2 Zn0 3.246113 1_655
Mg2 Mg4 3.286736 1_545
Mg3 Mg5 3.093840 1_545
Mg3 Mg7 3.248776 1_555
Mg3 Mg6 3.248776 1_555
Mg3 Mg5 3.398216 1_555
Mg4 Mg8 3.089860 1_555
Mg4 Mg9 3.089860 1_554
Mg4 Zn0 3.246113 1_665
Mg4 Zn0 3.246113 1_555
Mg5 Mg9 3.248775 1_555
Mg5 Mg8 3.248775 1_555
Mg6 Zn0 3.066834 1_555
Mg6 Mg8 3.215981 1_555
Mg6 Mg8 3.276075 1_545
Mg7 Zn0 3.066834 1_556
Mg7 Mg9 3.215981 1_555
Mg7 Mg9 3.276075 1_545
Mg8 Zn0 3.066841 1_555
Mg9 Zn0 3.066841 1_556
Mg10 Zn0 3.066841 1_655
Mg10 Mg2 3.089853 1_555
Mg10 Mg4 3.089860 1_545
Mg10 Mg8 3.215981 1_655
Mg10 Mg6 3.215981 1_655
Mg10 Mg3 3.248769 1_555
Mg10 Mg5 3.248775 1_545
Mg10 Mg12 3.252601 1_545
Mg10 Mg12 3.252601 1_555
Mg10 Mg8 3.276075 1_545
Mg10 Mg6 3.276075 1_555
Mg11 Zn0 3.066841 1_656
Mg11 Mg2 3.089853 1_556
Mg11 Mg4 3.089860 1_546
Mg11 Mg9 3.215981 1_655
Mg11 Mg7 3.215981 1_655
Mg11 Mg3 3.248769 1_555
Mg11 Mg5 3.248775 1_545
Mg11 Mg13 3.252601 1_545
Mg11 Mg13 3.252601 1_555
Mg11 Mg9 3.276075 1_545
Mg11 Mg7 3.276075 1_555
Mg12 Mg5 3.155007 1_555
Mg12 Mg3 3.155014 1_555
Mg12 Mg4 3.229619 1_555
Mg12 Mg2 3.229626 1_555
Mg12 Mg6 3.252601 1_665
Mg12 Mg6 3.252601 1_555
Mg12 Mg8 3.252601 1_555
Mg12 Mg8 3.252601 1_655
Mg13 Mg5 3.155007 1_555
Mg13 Mg3 3.155014 1_555
Mg13 Mg4 3.229619 1_556
Mg13 Mg2 3.229626 1_556
Mg13 Mg7 3.252601 1_665
Mg13 Mg7 3.252601 1_555
Mg13 Mg9 3.252601 1_555
Mg13 Mg9 3.252601 1_655
