# generated using pymatgen
data_Ba2Ca2Tl2Cu3O10
_symmetry_space_group_name_H-M   'P 1'
_cell_length_a   3.87998300
_cell_length_b   3.89488200
_cell_length_c   18.58130499
_cell_angle_alpha   83.98398336
_cell_angle_beta   84.00707919
_cell_angle_gamma   90.00000000
_symmetry_Int_Tables_number   1
_chemical_formula_structural   Ba2Ca2Tl2Cu3O10
_chemical_formula_sum   'Ba2 Ca2 Tl2 Cu3 O10'
_cell_volume   277.71242843
_cell_formula_units_Z   1
loop_
 _symmetry_equiv_pos_site_id
 _symmetry_equiv_pos_as_xyz
  1  'x, y, z'
loop_
 _atom_site_type_symbol
 _atom_site_label
 _atom_site_symmetry_multiplicity
 _atom_site_fract_x
 _atom_site_fract_y
 _atom_site_fract_z
 _atom_site_occupancy
  Ba  Ba0  1  0.14119900  0.14423300  0.71760200  1
  Ba  Ba1  1  0.85880100  0.86183500  0.28239800  1
  Ca  Ca0  1  0.04447100  0.04453100  0.91105700  1
  Ca  Ca1  1  0.95552900  0.95558800  0.08894300  1
  Tl  Tl0  1  0.71865600  0.70475900  0.56268800  1
  Tl  Tl1  1  0.28134400  0.26744700  0.43731200  1
  Cu  Cu0  1  0.50000000  0.49995800  0.00000000  1
  Cu  Cu1  1  0.58648900  0.58700900  0.82702200  1
  Cu  Cu2  1  0.41351100  0.41403200  0.17297800  1
  O  O0  1  0.66277600  0.67263100  0.67444800  1
  O  O1  1  0.33722400  0.34707900  0.32555200  1
  O  O2  1  0.08679200  0.58706700  0.82641600  1
  O  O3  1  0.58683700  0.08734600  0.82632600  1
  O  O4  1  0.91320800  0.41348300  0.17358400  1
  O  O5  1  0.41316300  0.91367200  0.17367400  1
  O  O6  1  0.00000000  0.50001400  0.00000000  1
  O  O7  1  0.50000000  0.99997100  0.00000000  1
  O  O8  1  0.77527700  0.87594800  0.44944700  1
  O  O9  1  0.22472300  0.32539400  0.55055300  1
loop_
_geom_bond_atom_site_label_1
_geom_bond_atom_site_label_2
_geom_bond_distance
_geom_bond_site_symmetry_2
Ba0 O2 2.783779 1_555
Ba0 O3 2.784904 1_455
Ba0 O3 2.784904 1_555
Ba0 O2 2.798773 1_545
Ba0 O0 2.842926 1_545
Ba0 O0 2.842926 1_445
Ba0 O0 2.879093 1_555
Ba0 O0 2.879093 1_455
Ba0 O9 3.093300 1_555
Ba1 O4 2.783779 1_565
Ba1 O5 2.784904 1_655
Ba1 O5 2.784904 1_555
Ba1 O4 2.798773 1_555
Ba1 O1 2.842926 1_555
Ba1 O1 2.842926 1_655
Ba1 O1 2.879093 1_565
Ba1 O1 2.879093 1_665
Ba1 O8 3.093300 1_555
Ca0 O3 2.487587 1_455
Ca0 O3 2.487590 1_555
Ca0 O2 2.491714 1_545
Ca0 O2 2.493025 1_555
Ca0 O7 2.536755 1_446
Ca0 O7 2.536758 1_546
Ca0 O6 2.542322 1_556
Ca0 O6 2.542594 1_546
Ca1 O5 2.487587 1_655
Ca1 O5 2.487590 1_555
Ca1 O4 2.491714 1_555
Ca1 O4 2.493025 1_565
Ca1 O7 2.536755 1_655
Ca1 O7 2.536758 1_555
Ca1 O6 2.542322 1_665
Ca1 O6 2.542594 1_655
Cu0 O6 1.939992 1_555
Cu0 O6 1.939992 1_655
Cu0 O7 1.947390 1_545
Cu0 O7 1.947492 1_555
Cu1 O2 1.940024 1_655
Cu1 O2 1.940024 1_555
Cu1 O3 1.947440 1_565
Cu1 O3 1.947526 1_555
Cu2 O4 1.940024 1_455
Cu2 O4 1.940024 1_555
Cu2 O5 1.947436 1_555
Cu2 O5 1.947530 1_545
O0 Tl0 2.055880 1_555
O1 Tl1 2.055880 1_555
O8 Tl0 2.128318 1_555
O8 Tl1 2.463112 1_665
O8 Tl1 2.463115 1_565
O9 Tl1 2.128317 1_555
O9 Tl0 2.463115 1_455
O9 Tl0 2.463118 1_555
