# generated using pymatgen
data_Ba2LiV2(Si2O7)2
_symmetry_space_group_name_H-M   'P 1'
_cell_length_a   5.50923702
_cell_length_b   7.32922400
_cell_length_c   8.50161858
_cell_angle_alpha   90.00094783
_cell_angle_beta   108.91568049
_cell_angle_gamma   89.99867248
_symmetry_Int_Tables_number   1
_chemical_formula_structural   Ba2LiV2(Si2O7)2
_chemical_formula_sum   'Ba2 Li1 V2 Si4 O14'
_cell_volume   324.74365831
_cell_formula_units_Z   1
loop_
 _symmetry_equiv_pos_site_id
 _symmetry_equiv_pos_as_xyz
  1  'x, y, z'
loop_
 _atom_site_type_symbol
 _atom_site_label
 _atom_site_symmetry_multiplicity
 _atom_site_fract_x
 _atom_site_fract_y
 _atom_site_fract_z
 _atom_site_occupancy
  Ba  Ba0  1  0.80636800  0.75000000  0.58772800  1
  Ba  Ba1  1  0.17241000  0.25000000  0.31966200  1
  Li  Li0  1  0.34718200  0.25000100  0.66975000  1
  V  V0  1  0.12025900  0.75000000  0.21548100  1
  V  V1  1  0.91272300  0.24998700  0.80060700  1
  Si  Si0  1  0.41588800  0.53576800  0.80676900  1
  Si  Si1  1  0.61421800  0.48017700  0.20336200  1
  Si  Si2  1  0.41578400  0.96423300  0.80677000  1
  Si  Si3  1  0.61422300  0.01982300  0.20336300  1
  O  O0  1  0.13540800  0.44114600  0.72221700  1
  O  O1  1  0.41474600  0.56284700  0.29236500  1
  O  O2  1  0.13534300  0.05884700  0.72221600  1
  O  O3  1  0.41475900  0.93715300  0.29235000  1
  O  O4  1  0.51584700  0.52395900  0.00684200  1
  O  O5  1  0.51581300  0.97604200  0.00684000  1
  O  O6  1  0.01895300  0.75000300  0.01312500  1
  O  O7  1  0.02365400  0.25000300  0.02251600  1
  O  O8  1  0.38358400  0.75000100  0.74214700  1
  O  O9  1  0.63252700  0.24999900  0.23991500  1
  O  O10  1  0.61171200  0.44112000  0.72222100  1
  O  O11  1  0.90271000  0.56284700  0.29232200  1
  O  O12  1  0.61164900  0.05888700  0.72222000  1
  O  O13  1  0.90273800  0.93715500  0.29233700  1
loop_
_geom_bond_atom_site_label_1
_geom_bond_atom_site_label_2
_geom_bond_distance
_geom_bond_site_symmetry_2
Ba0 O2 2.893540 1_665
Ba0 O0 2.893724 1_655
Ba0 O10 2.894419 1_555
Ba0 O12 2.894560 1_565
Ba0 O8 3.021470 1_655
Ba0 O8 3.021800 1_555
Ba0 O1 3.054401 1_555
Ba0 O3 3.054438 1_555
Ba0 O11 3.055261 1_555
Ba0 O13 3.055272 1_555
Ba0 O6 3.421257 1_656
Ba1 O7 2.389798 1_555
Ba1 O1 2.700900 1_555
Ba1 O3 2.700910 1_545
Ba1 O13 2.700934 1_445
Ba1 O11 2.700963 1_455
Ba1 Li0 2.815584 1_555
Ba1 O9 2.828240 1_455
Ba1 O9 2.828357 1_555
Li0 O0 1.964726 1_555
Li0 O2 1.965057 1_555
Li0 O12 1.965302 1_555
Li0 O10 1.965597 1_555
O0 Si0 1.632567 1_555
O0 V1 2.107696 1_455
O1 Si1 1.639030 1_555
O1 V0 2.062357 1_555
O2 Si2 1.632351 1_545
O2 V1 2.107311 1_455
O3 Si3 1.638929 1_565
O3 V0 2.062434 1_555
O4 Si0 1.611415 1_554
O4 Si1 1.612761 1_555
O5 Si2 1.611389 1_554
O5 Si3 1.612778 1_565
O6 V0 1.627449 1_555
O7 V1 1.784704 1_454
O8 Si2 1.653931 1_555
O8 Si0 1.653945 1_555
O9 Si3 1.712430 1_555
O9 Si1 1.712451 1_555
O10 Si0 1.632330 1_555
O10 V1 2.107131 1_555
O11 Si1 1.638871 1_555
O11 V0 2.062160 1_655
O12 Si2 1.632573 1_545
O12 V1 2.107245 1_555
O13 Si3 1.638969 1_565
O13 V0 2.062078 1_655
