# generated using pymatgen
data_Ba4Nb25O40
_symmetry_space_group_name_H-M   'P 1'
_cell_length_a   4.15292300
_cell_length_b   6.70395300
_cell_length_c   33.53997399
_cell_angle_alpha   89.89911727
_cell_angle_beta   90.00000000
_cell_angle_gamma   90.00000000
_symmetry_Int_Tables_number   1
_chemical_formula_structural   Ba4Nb25O40
_chemical_formula_sum   'Ba4 Nb25 O40'
_cell_volume   933.78498868
_cell_formula_units_Z   1
loop_
 _symmetry_equiv_pos_site_id
 _symmetry_equiv_pos_as_xyz
  1  'x, y, z'
loop_
 _atom_site_type_symbol
 _atom_site_label
 _atom_site_symmetry_multiplicity
 _atom_site_fract_x
 _atom_site_fract_y
 _atom_site_fract_z
 _atom_site_occupancy
  Ba  Ba0  1  0.00000000  0.00061800  0.80116600  1
  Ba  Ba1  1  0.00000000  0.00019200  0.60010300  1
  Ba  Ba2  1  0.00000000  0.99980800  0.39989700  1
  Ba  Ba3  1  0.00000000  0.99938200  0.19883400  1
  Nb  Nb0  1  0.00000000  0.50006100  0.69994500  1
  Nb  Nb1  1  0.00000000  0.50000000  0.50000000  1
  Nb  Nb2  1  0.00000000  0.49993900  0.30005500  1
  Nb  Nb3  1  0.00000000  0.49873100  0.09961500  1
  Nb  Nb4  1  0.00000000  0.50126900  0.90038500  1
  Nb  Nb5  1  0.50000000  0.21125000  0.71969000  1
  Nb  Nb6  1  0.50000000  0.21149400  0.51940700  1
  Nb  Nb7  1  0.50000000  0.21110200  0.31939900  1
  Nb  Nb8  1  0.50000000  0.20875900  0.11995900  1
  Nb  Nb9  1  0.50000000  0.20467300  0.92376200  1
  Nb  Nb10  1  0.50000000  0.78889800  0.68060100  1
  Nb  Nb11  1  0.50000000  0.78850600  0.48059300  1
  Nb  Nb12  1  0.50000000  0.78875000  0.28031000  1
  Nb  Nb13  1  0.50000000  0.79532700  0.07623800  1
  Nb  Nb14  1  0.50000000  0.79124100  0.88004100  1
  Nb  Nb15  1  0.50000000  0.59685900  0.75819500  1
  Nb  Nb16  1  0.50000000  0.59758200  0.55780400  1
  Nb  Nb17  1  0.50000000  0.59721300  0.35775600  1
  Nb  Nb18  1  0.50000000  0.60124500  0.15708600  1
  Nb  Nb19  1  0.50000000  0.61685700  0.96012000  1
  Nb  Nb20  1  0.50000000  0.40278700  0.64224400  1
  Nb  Nb21  1  0.50000000  0.40241800  0.44219600  1
  Nb  Nb22  1  0.50000000  0.40314100  0.24180500  1
  Nb  Nb23  1  0.50000000  0.38314300  0.03988000  1
  Nb  Nb24  1  0.50000000  0.39875500  0.84291400  1
  O  O0  1  0.50000000  0.29919900  0.78006700  1
  O  O1  1  0.50000000  0.29986900  0.57994900  1
  O  O2  1  0.50000000  0.29970700  0.38005300  1
  O  O3  1  0.50000000  0.30282500  0.18040100  1
  O  O4  1  0.50000000  0.30908100  0.97899000  1
  O  O5  1  0.50000000  0.70029300  0.61994700  1
  O  O6  1  0.50000000  0.70013100  0.42005100  1
  O  O7  1  0.50000000  0.70080100  0.21993300  1
  O  O8  1  0.50000000  0.69091900  0.02101000  1
  O  O9  1  0.50000000  0.69717500  0.81959900  1
  O  O10  1  0.50000000  0.89961600  0.73990300  1
  O  O11  1  0.50000000  0.90027000  0.54001400  1
  O  O12  1  0.50000000  0.89974400  0.34002400  1
  O  O13  1  0.50000000  0.89855000  0.13956800  1
  O  O14  1  0.50000000  0.90021500  0.93817600  1
  O  O15  1  0.50000000  0.10025600  0.65997600  1
  O  O16  1  0.50000000  0.09973000  0.45998600  1
  O  O17  1  0.50000000  0.10038400  0.26009700  1
  O  O18  1  0.50000000  0.09978500  0.06182400  1
  O  O19  1  0.50000000  0.10145000  0.86043200  1
  O  O20  1  0.00000000  0.20372500  0.72204400  1
  O  O21  1  0.00000000  0.20371200  0.52216300  1
  O  O22  1  0.00000000  0.20369200  0.32224700  1
  O  O23  1  0.00000000  0.20476000  0.12313100  1
  O  O24  1  0.00000000  0.20506000  0.92096000  1
  O  O25  1  0.00000000  0.79630800  0.67775300  1
  O  O26  1  0.00000000  0.79628800  0.47783700  1
  O  O27  1  0.00000000  0.79627500  0.27795600  1
  O  O28  1  0.00000000  0.79494000  0.07904000  1
  O  O29  1  0.00000000  0.79524000  0.87686900  1
  O  O30  1  0.00000000  0.61070000  0.75919100  1
  O  O31  1  0.00000000  0.61063100  0.55928800  1
  O  O32  1  0.00000000  0.61054300  0.35935600  1
  O  O33  1  0.00000000  0.61123600  0.15906000  1
  O  O34  1  0.00000000  0.60798700  0.95912400  1
  O  O35  1  0.00000000  0.38945700  0.64064400  1
  O  O36  1  0.00000000  0.38936900  0.44071200  1
  O  O37  1  0.00000000  0.38930000  0.24080900  1
  O  O38  1  0.00000000  0.39201300  0.04087600  1
  O  O39  1  0.00000000  0.38876400  0.84094000  1
loop_
_geom_bond_atom_site_label_1
_geom_bond_atom_site_label_2
_geom_bond_distance
_geom_bond_site_symmetry_2
Ba0 O29 2.886226 1_545
Ba0 O39 2.926230 1_555
Ba0 O19 2.953749 1_455
Ba0 O19 2.953749 1_555
Ba0 O0 2.968869 1_555
Ba0 O0 2.968869 1_455
Ba0 O9 2.971150 1_545
Ba0 O9 2.971150 1_445
Ba0 O30 2.971183 1_545
Ba0 O20 2.980549 1_555
Ba0 O10 2.999518 1_545
Ba0 O10 2.999518 1_445
Ba1 O25 2.939128 1_545
Ba1 O35 2.944739 1_555
Ba1 O21 2.946616 1_555
Ba1 O31 2.950766 1_545
Ba1 O5 2.965148 1_545
Ba1 O5 2.965148 1_445
Ba1 O15 2.966321 1_555
Ba1 O15 2.966321 1_455
Ba1 O1 2.966480 1_555
Ba1 O1 2.966480 1_455
Ba1 O11 2.971018 1_545
Ba1 O11 2.971018 1_445
Ba2 O22 2.939128 1_565
Ba2 O32 2.944739 1_555
Ba2 O26 2.946616 1_555
Ba2 O36 2.950766 1_565
Ba2 O2 2.965148 1_565
Ba2 O2 2.965148 1_465
Ba2 O12 2.966321 1_555
Ba2 O12 2.966321 1_455
Ba2 O6 2.966480 1_455
Ba2 O6 2.966480 1_555
Ba2 O16 2.971018 1_565
Ba2 O16 2.971018 1_465
Ba3 O23 2.886226 1_565
Ba3 O33 2.926230 1_555
Ba3 O13 2.953749 1_455
Ba3 O13 2.953749 1_555
Ba3 O7 2.968869 1_455
Ba3 O7 2.968869 1_555
Ba3 O3 2.971150 1_565
Ba3 O3 2.971150 1_465
Ba3 O37 2.971183 1_565
Ba3 O27 2.980549 1_555
Ba3 O17 2.999518 1_565
Ba3 O17 2.999518 1_465
Nb0 O20 2.119165 1_555
Nb0 O25 2.119694 1_555
Nb0 O30 2.122249 1_555
Nb0 O35 2.123895 1_555
Nb1 O21 2.119612 1_555
Nb1 O26 2.119612 1_555
Nb1 O31 2.123550 1_555
Nb1 O36 2.123550 1_555
Nb2 O27 2.119165 1_555
Nb2 O22 2.119694 1_555
Nb2 O37 2.122249 1_555
Nb2 O32 2.123895 1_555
Nb3 O38 2.097169 1_555
Nb3 O28 2.101114 1_555
Nb3 O23 2.121448 1_555
Nb3 O33 2.132916 1_555
Nb4 O34 2.097169 1_555
Nb4 O24 2.101114 1_555
Nb4 O29 2.121448 1_555
Nb4 O39 2.132916 1_555
Nb5 O20 2.078571 1_555
Nb5 O20 2.078571 1_655
Nb5 O0 2.110128 1_555
Nb5 O15 2.137794 1_555
Nb5 O10 2.195288 1_545
Nb6 O21 2.079168 1_655
Nb6 O21 2.079168 1_555
Nb6 O1 2.116245 1_555
Nb6 O16 2.130402 1_555
Nb6 O11 2.196774 1_545
Nb7 O22 2.079247 1_555
Nb7 O22 2.079247 1_655
Nb7 O2 2.120285 1_555
Nb7 O17 2.124195 1_555
Nb7 O12 2.197816 1_545
Nb8 O23 2.079356 1_655
Nb8 O23 2.079356 1_555
Nb8 O18 2.083418 1_555
Nb8 O3 2.124102 1_555
Nb8 O13 2.180041 1_545
Nb9 O4 1.981332 1_555
Nb9 O24 2.078589 1_655
Nb9 O24 2.078589 1_555
Nb9 O14 2.096716 1_545
Nb9 O19 2.235126 1_555
Nb10 O25 2.079247 1_555
Nb10 O25 2.079247 1_655
Nb10 O5 2.120285 1_555
Nb10 O10 2.124195 1_555
Nb10 O15 2.197816 1_565
Nb11 O26 2.079168 1_555
Nb11 O26 2.079168 1_655
Nb11 O6 2.116245 1_555
Nb11 O11 2.130402 1_555
Nb11 O16 2.196774 1_565
Nb12 O27 2.078571 1_555
Nb12 O27 2.078571 1_655
Nb12 O7 2.110128 1_555
Nb12 O12 2.137794 1_555
Nb12 O17 2.195288 1_565
Nb13 O8 1.981332 1_555
Nb13 O28 2.078589 1_555
Nb13 O28 2.078589 1_655
Nb13 O18 2.096716 1_565
Nb13 O13 2.235126 1_555
Nb14 O29 2.079356 1_555
Nb14 O29 2.079356 1_655
Nb14 O14 2.083418 1_555
Nb14 O9 2.124102 1_555
Nb14 O19 2.180041 1_565
Nb15 O30 2.078805 1_555
Nb15 O30 2.078805 1_655
Nb15 O10 2.119332 1_555
Nb15 O0 2.124855 1_555
Nb15 O9 2.167636 1_555
Nb16 O31 2.078903 1_555
Nb16 O31 2.078903 1_655
Nb16 O11 2.114104 1_555
Nb16 O1 2.128351 1_555
Nb16 O5 2.196220 1_555
Nb17 O32 2.079080 1_655
Nb17 O32 2.079080 1_555
Nb17 O12 2.112549 1_555
Nb17 O2 2.128828 1_555
Nb17 O6 2.201499 1_555
Nb18 O13 2.076925 1_555
Nb18 O33 2.078600 1_555
Nb18 O33 2.078600 1_655
Nb18 O3 2.146710 1_555
Nb18 O7 2.212146 1_555
Nb19 O14 2.036007 1_555
Nb19 O34 2.077583 1_555
Nb19 O34 2.077583 1_655
Nb19 O8 2.102587 1_556
Nb19 O4 2.157136 1_555
Nb20 O35 2.079080 1_655
Nb20 O35 2.079080 1_555
Nb20 O15 2.112549 1_555
Nb20 O5 2.128828 1_555
Nb20 O1 2.201499 1_555
Nb21 O36 2.078903 1_655
Nb21 O36 2.078903 1_555
Nb21 O16 2.114104 1_555
Nb21 O6 2.128351 1_555
Nb21 O2 2.196220 1_555
Nb22 O37 2.078805 1_555
Nb22 O37 2.078805 1_655
Nb22 O17 2.119332 1_555
Nb22 O7 2.124855 1_555
Nb22 O3 2.167636 1_555
Nb23 O18 2.036007 1_555
Nb23 O38 2.077583 1_555
Nb23 O38 2.077583 1_655
Nb23 O4 2.102587 1_554
Nb23 O8 2.157136 1_555
Nb24 O19 2.076925 1_555
Nb24 O39 2.078600 1_555
Nb24 O39 2.078600 1_655
Nb24 O9 2.146710 1_555
Nb24 O0 2.212146 1_555
