# generated using pymatgen
data_Sr2AlFeCu2O7
_symmetry_space_group_name_H-M   'P 1'
_cell_length_a   5.30926536
_cell_length_b   5.40747851
_cell_length_c   12.19937707
_cell_angle_alpha   102.85810340
_cell_angle_beta   102.55456501
_cell_angle_gamma   89.94181679
_symmetry_Int_Tables_number   1
_chemical_formula_structural   Sr2AlFeCu2O7
_chemical_formula_sum   'Sr4 Al2 Fe2 Cu4 O14'
_cell_volume   332.88091576
_cell_formula_units_Z   2
loop_
 _symmetry_equiv_pos_site_id
 _symmetry_equiv_pos_as_xyz
  1  'x, y, z'
loop_
 _atom_site_type_symbol
 _atom_site_label
 _atom_site_symmetry_multiplicity
 _atom_site_fract_x
 _atom_site_fract_y
 _atom_site_fract_z
 _atom_site_occupancy
  Sr  Sr0  1  0.33629200  0.33779500  0.70245800  1
  Sr  Sr1  1  0.63497800  0.66218500  0.29755700  1
  Sr  Sr2  1  0.83576900  0.86674200  0.70236700  1
  Sr  Sr3  1  0.13428400  0.13425400  0.29749100  1
  Al  Al0  1  0.98471100  0.99722100  0.00065400  1
  Al  Al1  1  0.48899100  0.49316000  0.00058400  1
  Fe  Fe0  1  0.27612200  0.68397600  0.50024500  1
  Fe  Fe1  1  0.77554000  0.31591000  0.50009700  1
  Cu  Cu0  1  0.92511000  0.44215000  0.88363300  1
  Cu  Cu1  1  0.04361600  0.55373600  0.11737500  1
  Cu  Cu2  1  0.42293200  0.93743700  0.88319100  1
  Cu  Cu3  1  0.54213200  0.05504600  0.11655900  1
  O  O0  1  0.14236400  0.34948800  0.50017400  1
  O  O1  1  0.64311100  0.65107600  0.50021700  1
  O  O2  1  0.24901000  0.26621900  0.89323100  1
  O  O3  1  0.35807700  0.72750100  0.10486900  1
  O  O4  1  0.74836200  0.12751500  0.89536400  1
  O  O5  1  0.85814800  0.87112100  0.10680700  1
  O  O6  1  0.60346700  0.61935400  0.89069000  1
  O  O7  1  0.71466900  0.37510900  0.11163000  1
  O  O8  1  0.09946700  0.76761300  0.88880600  1
  O  O9  1  0.21424900  0.22631900  0.10942000  1
  O  O10  1  0.29122900  0.86032500  0.65464400  1
  O  O11  1  0.63593500  0.13927800  0.34598600  1
  O  O12  1  0.78939200  0.29415500  0.65433000  1
  O  O13  1  0.13747200  0.70521400  0.34584600  1
loop_
_geom_bond_atom_site_label_1
_geom_bond_atom_site_label_2
_geom_bond_distance
_geom_bond_site_symmetry_2
Al0 O9 1.830022 1_665
Al0 O5 1.834603 1_555
Al0 O8 1.838596 1_654
Al0 O4 1.849642 1_564
Al1 O7 1.831944 1_555
Al1 O3 1.836442 1_555
Al1 O6 1.842449 1_554
Al1 O2 1.845795 1_554
Fe0 O13 1.896374 1_555
Fe0 O10 1.897018 1_555
Fe0 O0 1.943578 1_555
Fe0 O1 1.956434 1_555
Fe1 O11 1.895437 1_555
Fe1 O12 1.896788 1_555
Fe1 O1 1.943151 1_555
Fe1 O0 1.955973 1_655
Cu0 O2 1.958252 1_655
Cu0 O6 1.966134 1_555
Cu0 O8 1.971488 1_655
Cu0 O4 1.991425 1_555
Cu0 O12 2.667087 1_555
Cu1 O3 1.967569 1_555
Cu1 O7 1.976903 1_455
Cu1 O9 1.980732 1_555
Cu1 O5 1.992895 1_455
Cu1 O13 2.658697 1_555
Cu2 O8 1.969689 1_555
Cu2 O4 1.971779 1_565
Cu2 O6 1.978425 1_555
Cu2 O2 1.994353 1_565
Cu2 O10 2.659338 1_555
Cu3 O5 1.961914 1_545
Cu3 O9 1.965327 1_555
Cu3 O7 1.977796 1_555
Cu3 O3 1.985669 1_545
Cu3 O11 2.667626 1_555
O0 Sr0 2.473573 1_555
O0 Sr3 2.478583 1_555
O1 Sr2 2.472598 1_555
O1 Sr1 2.477408 1_555
O2 Sr0 2.578965 1_555
O3 Sr1 2.584147 1_555
O4 Sr2 2.596770 1_545
O5 Sr3 2.575604 1_665
O6 Sr0 2.575950 1_555
O7 Sr1 2.565594 1_555
O8 Sr2 2.564623 1_455
O9 Sr3 2.573791 1_555
O10 Sr0 2.516748 1_565
O10 Sr2 2.605862 1_455
O10 Sr2 2.821015 1_555
O10 Sr0 3.008793 1_555
O11 Sr1 2.514984 1_545
O11 Sr3 2.598540 1_555
O11 Sr3 2.832765 1_655
O11 Sr1 3.014404 1_555
O12 Sr2 2.506941 1_545
O12 Sr0 2.595895 1_555
O12 Sr0 2.833742 1_655
O12 Sr2 3.020276 1_555
O13 Sr3 2.517039 1_565
O13 Sr1 2.603023 1_455
O13 Sr1 2.827072 1_555
O13 Sr3 3.010946 1_555
