# generated using pymatgen
data_Eu3Bi
_symmetry_space_group_name_H-M   'P 1'
_cell_length_a   7.39067586
_cell_length_b   7.39067586
_cell_length_c   5.97467500
_cell_angle_alpha   90.00000000
_cell_angle_beta   90.00000000
_cell_angle_gamma   119.99999870
_symmetry_Int_Tables_number   1
_chemical_formula_structural   Eu3Bi
_chemical_formula_sum   'Eu6 Bi2'
_cell_volume   282.62673012
_cell_formula_units_Z   2
loop_
 _symmetry_equiv_pos_site_id
 _symmetry_equiv_pos_as_xyz
  1  'x, y, z'
loop_
 _atom_site_type_symbol
 _atom_site_label
 _atom_site_symmetry_multiplicity
 _atom_site_fract_x
 _atom_site_fract_y
 _atom_site_fract_z
 _atom_site_occupancy
  Eu  Eu0  1  0.17367100  0.34734200  0.25000000  1
  Eu  Eu1  1  0.65265800  0.82632900  0.25000000  1
  Eu  Eu2  1  0.17367100  0.82632900  0.25000000  1
  Eu  Eu3  1  0.82632900  0.65265800  0.75000000  1
  Eu  Eu4  1  0.34734200  0.17367100  0.75000000  1
  Eu  Eu5  1  0.82632900  0.17367100  0.75000000  1
  Bi  Bi0  1  0.33333300  0.66666700  0.75000000  1
  Bi  Bi1  1  0.66666700  0.33333300  0.25000000  1
loop_
_geom_bond_atom_site_label_1
_geom_bond_atom_site_label_2
_geom_bond_distance
_geom_bond_site_symmetry_2
Eu0 Eu2 3.540038 1_555
Eu0 Eu1 3.540038 1_555
Eu0 Eu4 3.723796 1_555
Eu0 Eu4 3.723796 1_554
Eu0 Eu5 3.723796 1_455
Eu0 Eu5 3.723796 1_454
Eu0 Eu2 3.850638 1_545
Eu0 Eu1 3.850638 1_445
Eu1 Eu2 3.540038 1_555
Eu1 Eu3 3.723796 1_555
Eu1 Eu3 3.723796 1_554
Eu1 Eu5 3.723796 1_564
Eu1 Eu5 3.723796 1_565
Eu1 Eu2 3.850638 1_655
Eu2 Eu4 3.723796 1_564
Eu2 Eu4 3.723796 1_565
Eu2 Eu3 3.723796 1_455
Eu2 Eu3 3.723796 1_454
Eu3 Eu5 3.540038 1_555
Eu3 Eu4 3.540038 1_555
Eu3 Eu5 3.850638 1_565
Eu3 Eu4 3.850638 1_665
Eu4 Eu5 3.540038 1_555
Eu4 Eu5 3.850638 1_455
Bi0 Eu2 3.619593 1_555
Bi0 Eu2 3.619593 1_556
Bi0 Eu1 3.619597 1_555
Bi0 Eu1 3.619597 1_556
Bi0 Eu0 3.619597 1_555
Bi0 Eu0 3.619597 1_556
Bi0 Eu4 3.696422 1_565
Bi0 Eu3 3.696422 1_455
Bi0 Eu5 3.696426 1_565
Bi0 Eu5 3.696426 1_455
Bi0 Eu3 3.696429 1_555
Bi0 Eu4 3.696429 1_555
Bi1 Eu5 3.619593 1_555
Bi1 Eu5 3.619593 1_554
Bi1 Eu3 3.619597 1_555
Bi1 Eu3 3.619597 1_554
Bi1 Eu4 3.619597 1_554
Bi1 Eu4 3.619597 1_555
Bi1 Eu0 3.696422 1_655
Bi1 Eu1 3.696422 1_545
Bi1 Eu2 3.696426 1_655
Bi1 Eu2 3.696426 1_545
Bi1 Eu0 3.696429 1_555
Bi1 Eu1 3.696429 1_555
