# generated using pymatgen
data_Al(SnO2)2
_symmetry_space_group_name_H-M   'P 1'
_cell_length_a   6.52137290
_cell_length_b   6.52137290
_cell_length_c   6.52137290
_cell_angle_alpha   60.00000000
_cell_angle_beta   60.00000000
_cell_angle_gamma   60.00000000
_symmetry_Int_Tables_number   1
_chemical_formula_structural   Al(SnO2)2
_chemical_formula_sum   'Al2 Sn4 O8'
_cell_volume   196.11106822
_cell_formula_units_Z   2
loop_
 _symmetry_equiv_pos_site_id
 _symmetry_equiv_pos_as_xyz
  1  'x, y, z'
loop_
 _atom_site_type_symbol
 _atom_site_label
 _atom_site_symmetry_multiplicity
 _atom_site_fract_x
 _atom_site_fract_y
 _atom_site_fract_z
 _atom_site_occupancy
  Al  Al0  1  0.75000000  0.75000000  0.75000000  1
  Al  Al1  1  0.50000000  0.50000000  0.50000000  1
  Sn  Sn0  1  0.12500000  0.12500000  0.62500000  1
  Sn  Sn1  1  0.12500000  0.12500000  0.12500000  1
  Sn  Sn2  1  0.12500000  0.62500000  0.12500000  1
  Sn  Sn3  1  0.62500000  0.12500000  0.12500000  1
  O  O0  1  0.86407400  0.40777800  0.86407400  1
  O  O1  1  0.84222200  0.38592600  0.38592600  1
  O  O2  1  0.38592600  0.38592600  0.84222200  1
  O  O3  1  0.38592600  0.38592600  0.38592600  1
  O  O4  1  0.40777800  0.86407400  0.86407400  1
  O  O5  1  0.38592600  0.84222200  0.38592600  1
  O  O6  1  0.86407400  0.86407400  0.40777800  1
  O  O7  1  0.86407400  0.86407400  0.86407400  1
loop_
_geom_bond_atom_site_label_1
_geom_bond_atom_site_label_2
_geom_bond_distance
_geom_bond_site_symmetry_2
Al0 O0 1.822222 1_555
Al0 O6 1.822222 1_555
Al0 O4 1.822222 1_555
Al0 O7 1.822222 1_555
Al1 O1 1.822222 1_555
Al1 O2 1.822222 1_555
Al1 O5 1.822222 1_555
Al1 O3 1.822222 1_555
O0 Sn1 2.410636 1_656
O0 Sn0 2.410636 1_655
O0 Sn3 2.410636 1_556
O1 Sn1 2.410636 1_655
O1 Sn0 2.410636 1_655
O1 Sn2 2.410636 1_655
O2 Sn1 2.410636 1_556
O2 Sn3 2.410636 1_556
O2 Sn2 2.410636 1_556
O3 Sn2 2.410636 1_555
O3 Sn0 2.410636 1_555
O3 Sn3 2.410636 1_555
O4 Sn2 2.410636 1_556
O4 Sn0 2.410636 1_565
O4 Sn1 2.410636 1_566
O5 Sn1 2.410636 1_565
O5 Sn3 2.410636 1_565
O5 Sn0 2.410636 1_565
O6 Sn1 2.410636 1_665
O6 Sn3 2.410636 1_565
O6 Sn2 2.410636 1_655
O7 Sn3 2.410636 1_566
O7 Sn0 2.410636 1_665
O7 Sn2 2.410636 1_656
