# generated using pymatgen
data_Li2CrNiO4
_symmetry_space_group_name_H-M   'P 1'
_cell_length_a   4.00719567
_cell_length_b   7.78433712
_cell_length_c   5.18965077
_cell_angle_alpha   93.06003614
_cell_angle_beta   112.71204972
_cell_angle_gamma   104.91618220
_symmetry_Int_Tables_number   1
_chemical_formula_structural   Li2CrNiO4
_chemical_formula_sum   'Li4 Cr2 Ni2 O8'
_cell_volume   142.16289580
_cell_formula_units_Z   2
loop_
 _symmetry_equiv_pos_site_id
 _symmetry_equiv_pos_as_xyz
  1  'x, y, z'
loop_
 _atom_site_type_symbol
 _atom_site_label
 _atom_site_symmetry_multiplicity
 _atom_site_fract_x
 _atom_site_fract_y
 _atom_site_fract_z
 _atom_site_occupancy
  Li  Li0  1  0.63477900  0.86245200  0.40690200  1
  Li  Li1  1  0.11734700  0.38608200  0.84845800  1
  Li  Li2  1  0.24765600  0.75354400  0.74178600  1
  Li  Li3  1  0.74330400  0.25623800  0.23052500  1
  Cr  Cr0  1  0.37287000  0.12526800  0.61851300  1
  Cr  Cr1  1  0.87630200  0.62708100  0.12538500  1
  Ni  Ni0  1  0.50085800  0.50054400  0.50128300  1
  Ni  Ni1  1  0.00054000  0.99671600  0.00450800  1
  O  O0  1  0.26266100  0.23076900  0.29526400  1
  O  O1  1  0.76365600  0.74276400  0.78458300  1
  O  O2  1  0.48803400  0.01730800  0.95935800  1
  O  O3  1  0.98829000  0.50615400  0.47047600  1
  O  O4  1  0.12339300  0.88203600  0.36471900  1
  O  O5  1  0.61469700  0.37936000  0.85000400  1
  O  O6  1  0.38361500  0.61457500  0.15257700  1
  O  O7  1  0.88199800  0.11910800  0.64565800  1
loop_
_geom_bond_atom_site_label_1
_geom_bond_atom_site_label_2
_geom_bond_distance
_geom_bond_site_symmetry_2
Li0 O4 2.021312 1_655
Li0 O4 2.021994 1_555
Li0 O6 2.044682 1_555
Li0 O7 2.068133 1_565
Li0 O1 2.153488 1_555
Li1 O5 2.004034 1_555
Li1 O5 2.004529 1_455
Li1 O6 2.053277 1_556
Li1 O7 2.075354 1_455
Li1 O3 2.156425 1_455
Li2 O1 2.017052 1_555
Li2 O1 2.017127 1_455
Li2 O2 2.076764 1_565
Li2 O3 2.078785 1_455
Li2 O4 2.188741 1_555
Li2 O6 2.380054 1_556
Li3 O3 2.028120 1_555
Li3 O2 2.028678 1_554
Li3 O0 2.040350 1_655
Li3 O0 2.042546 1_555
Li3 O5 2.180450 1_554
Li3 O7 2.390845 1_555
Cr0 O0 1.856175 1_555
Cr0 O2 1.943230 1_555
Cr0 O7 2.003400 1_555
Cr0 O7 2.014312 1_455
Cr0 O4 2.015356 1_545
Cr0 O5 2.038415 1_555
Cr1 O1 1.976259 1_554
Cr1 O6 2.010947 1_655
Cr1 O6 2.011190 1_555
Cr1 O3 2.017842 1_555
Cr1 O4 2.058508 1_655
Cr1 O5 2.089993 1_554
Ni0 O6 2.003298 1_555
Ni0 O3 2.009867 1_455
Ni0 O3 2.010117 1_555
Ni0 O5 2.034564 1_555
Ni0 O1 2.076533 1_555
Ni0 O0 2.098710 1_555
Ni1 O1 2.016952 1_454
Ni1 O2 2.023106 1_564
Ni1 O2 2.024901 1_464
Ni1 O0 2.048662 1_565
Ni1 O4 2.056112 1_555
Ni1 O7 2.083471 1_464
