# generated using pymatgen
data_Li9Mn2Co5O16
_symmetry_space_group_name_H-M   'P 1'
_cell_length_a   2.90277500
_cell_length_b   8.44690900
_cell_length_c   11.79686388
_cell_angle_alpha   89.81897461
_cell_angle_beta   90.00000000
_cell_angle_gamma   90.00000000
_symmetry_Int_Tables_number   1
_chemical_formula_structural   Li9Mn2Co5O16
_chemical_formula_sum   'Li9 Mn2 Co5 O16'
_cell_volume   289.25148029
_cell_formula_units_Z   1
loop_
 _symmetry_equiv_pos_site_id
 _symmetry_equiv_pos_as_xyz
  1  'x, y, z'
loop_
 _atom_site_type_symbol
 _atom_site_label
 _atom_site_symmetry_multiplicity
 _atom_site_fract_x
 _atom_site_fract_y
 _atom_site_fract_z
 _atom_site_occupancy
  Li  Li0  1  0.50000000  0.74994700  0.86968000  1
  Li  Li1  1  0.50000000  0.24241600  0.62007700  1
  Li  Li2  1  0.50000000  0.76447600  0.38411700  1
  Li  Li3  1  0.00000000  0.49876400  0.99472000  1
  Li  Li4  1  0.00000000  0.99626000  0.74561900  1
  Li  Li5  1  0.00000000  0.49884500  0.50383500  1
  Li  Li6  1  0.50000000  0.25099600  0.12727000  1
  Li  Li7  1  0.00000000  0.99946300  0.25211100  1
  Li  Li8  1  0.00000000  0.99516400  0.50141700  1
  Mn  Mn0  1  0.00000000  0.00157300  0.99999700  1
  Mn  Mn1  1  0.00000000  0.49631400  0.25262300  1
  Co  Co0  1  0.00000000  0.50581400  0.74759100  1
  Co  Co1  1  0.50000000  0.74364600  0.12456000  1
  Co  Co2  1  0.50000000  0.25749900  0.87291100  1
  Co  Co3  1  0.50000000  0.76462700  0.62083700  1
  Co  Co4  1  0.50000000  0.22252500  0.38319300  1
  O  O0  1  0.50000000  0.00302700  0.88686100  1
  O  O1  1  0.50000000  0.51906600  0.63283000  1
  O  O2  1  0.50000000  0.01015200  0.36962400  1
  O  O3  1  0.00000000  0.74324300  0.01538900  1
  O  O4  1  0.00000000  0.25623200  0.75536000  1
  O  O5  1  0.00000000  0.74526400  0.50905000  1
  O  O6  1  0.50000000  0.49460300  0.14132800  1
  O  O7  1  0.00000000  0.27139600  0.26047700  1
  O  O8  1  0.50000000  0.49844800  0.86575300  1
  O  O9  1  0.50000000  0.97378500  0.62662400  1
  O  O10  1  0.50000000  0.50752800  0.36009200  1
  O  O11  1  0.00000000  0.25827500  0.98845500  1
  O  O12  1  0.00000000  0.74416400  0.74475400  1
  O  O13  1  0.00000000  0.25325600  0.49335800  1
  O  O14  1  0.50000000  0.99985800  0.11411900  1
  O  O15  1  0.00000000  0.73337400  0.23536800  1
loop_
_geom_bond_atom_site_label_1
_geom_bond_atom_site_label_2
_geom_bond_distance
_geom_bond_site_symmetry_2
Li0 O12 2.069121 1_655
Li0 O12 2.069121 1_555
Li0 O8 2.125041 1_555
Li0 O0 2.147968 1_565
Li0 O3 2.250281 1_656
Li0 O3 2.250281 1_556
Li1 O13 2.085361 1_655
Li1 O13 2.085361 1_555
Li1 O4 2.160617 1_555
Li1 O4 2.160617 1_655
Li1 O9 2.270172 1_545
Li1 O1 2.342149 1_555
Li2 O5 2.074485 1_555
Li2 O5 2.074485 1_655
Li2 O2 2.081695 1_565
Li2 O10 2.189731 1_555
Li2 O15 2.292964 1_655
Li2 O15 2.292964 1_555
Li3 O11 2.032966 1_555
Li3 O3 2.080202 1_556
Li3 O8 2.102673 1_555
Li3 O8 2.102673 1_455
Li3 O6 2.258007 1_556
Li3 O6 2.258007 1_456
Li4 O9 2.028501 1_455
Li4 O9 2.028501 1_555
Li4 O12 2.129489 1_555
Li4 O4 2.199327 1_565
Li4 O0 2.210579 1_465
Li4 O0 2.210579 1_565
Li5 O13 2.078536 1_555
Li5 O5 2.082582 1_555
Li5 O1 2.110219 1_455
Li5 O1 2.110219 1_555
Li5 O10 2.233064 1_455
Li5 O10 2.233064 1_555
Li6 O6 2.064920 1_555
Li6 O14 2.127494 1_545
Li6 O7 2.146464 1_655
Li6 O7 2.146464 1_555
Li6 O11 2.188914 1_554
Li6 O11 2.188914 1_654
Li7 O2 2.009292 1_465
Li7 O2 2.009292 1_565
Li7 O14 2.180934 1_555
Li7 O14 2.180934 1_455
Li7 O15 2.256913 1_555
Li7 O7 2.299424 1_565
Li8 O9 2.078251 1_455
Li8 O9 2.078251 1_555
Li8 O5 2.112518 1_555
Li8 O2 2.130385 1_565
Li8 O2 2.130385 1_465
Li8 O13 2.181852 1_565
Mn0 O0 1.971767 1_455
Mn0 O0 1.971767 1_555
Mn0 O14 1.979668 1_446
Mn0 O14 1.979668 1_546
Mn0 O11 2.172180 1_555
Mn0 O3 2.189060 1_546
Mn1 O7 1.901827 1_555
Mn1 O10 1.929655 1_555
Mn1 O10 1.929655 1_455
Mn1 O6 1.957203 1_455
Mn1 O6 1.957203 1_555
Mn1 O15 2.012104 1_555
Co0 O1 1.987694 1_455
Co0 O1 1.987694 1_555
Co0 O8 2.013187 1_455
Co0 O8 2.013187 1_555
Co0 O12 2.013493 1_555
Co0 O4 2.109898 1_555
Co1 O3 1.940409 1_655
Co1 O3 1.940409 1_555
Co1 O15 1.955013 1_555
Co1 O15 1.955013 1_655
Co1 O6 2.112301 1_555
Co1 O14 2.167313 1_555
Co2 O11 1.991118 1_555
Co2 O11 1.991118 1_655
Co2 O4 2.007427 1_655
Co2 O4 2.007427 1_555
Co2 O8 2.036759 1_555
Co2 O0 2.155274 1_555
Co3 O9 1.768273 1_555
Co3 O5 1.968173 1_555
Co3 O5 1.968173 1_655
Co3 O12 2.066823 1_655
Co3 O12 2.066823 1_555
Co3 O1 2.078605 1_555
Co4 O2 1.801527 1_555
Co4 O13 1.965961 1_555
Co4 O13 1.965961 1_655
Co4 O7 2.090189 1_555
Co4 O7 2.090189 1_655
Co4 O10 2.421914 1_555
