# generated using pymatgen
data_MoW(SeS)2
_symmetry_space_group_name_H-M   'P 1'
_cell_length_a   3.25802302
_cell_length_b   3.25802302
_cell_length_c   36.90352400
_cell_angle_alpha   90.00000000
_cell_angle_beta   90.00000000
_cell_angle_gamma   120.00002079
_symmetry_Int_Tables_number   1
_chemical_formula_structural   MoW(SeS)2
_chemical_formula_sum   'Mo2 W2 Se4 S4'
_cell_volume   339.23970640
_cell_formula_units_Z   2
loop_
 _symmetry_equiv_pos_site_id
 _symmetry_equiv_pos_as_xyz
  1  'x, y, z'
loop_
 _atom_site_type_symbol
 _atom_site_label
 _atom_site_symmetry_multiplicity
 _atom_site_fract_x
 _atom_site_fract_y
 _atom_site_fract_z
 _atom_site_occupancy
  Mo  Mo0  1  0.00000000  0.00000000  0.09392200  1
  Mo  Mo1  1  0.33333300  0.66666700  0.28179600  1
  W  W0  1  0.00000000  0.00000000  0.46963800  1
  W  W1  1  0.33333300  0.66666700  0.65757400  1
  Se  Se0  1  0.00000000  0.00000000  0.70383200  1
  Se  Se1  1  0.33333300  0.66666700  0.42338700  1
  Se  Se2  1  0.33333300  0.66666700  0.51590000  1
  Se  Se3  1  0.00000000  0.00000000  0.61129500  1
  S  S0  1  0.00000000  0.00000000  0.32359300  1
  S  S1  1  0.33333300  0.66666700  0.05209600  1
  S  S2  1  0.33333300  0.66666700  0.13574600  1
  S  S3  1  0.00000000  0.00000000  0.23996700  1
loop_
_geom_bond_atom_site_label_1
_geom_bond_atom_site_label_2
_geom_bond_distance
_geom_bond_site_symmetry_2
Mo0 S2 2.433203 1_545
Mo0 S2 2.433205 1_555
Mo0 S2 2.433205 1_445
Mo0 S1 2.433250 1_545
Mo0 S1 2.433252 1_555
Mo0 S1 2.433252 1_445
Mo1 S0 2.432571 1_565
Mo1 S0 2.432573 1_665
Mo1 S0 2.432573 1_555
Mo1 S3 2.433320 1_565
Mo1 S3 2.433322 1_555
Mo1 S3 2.433322 1_665
Se0 W1 2.540151 1_545
Se0 W1 2.540152 1_445
Se0 W1 2.540152 1_555
Se1 W0 2.539977 1_565
Se1 W0 2.539979 1_555
Se1 W0 2.539979 1_665
Se2 W0 2.540250 1_565
Se2 W0 2.540251 1_665
Se2 W0 2.540251 1_555
Se3 W1 2.540671 1_545
Se3 W1 2.540673 1_555
Se3 W1 2.540673 1_445
