# generated using pymatgen
data_LiInGeO4
_symmetry_space_group_name_H-M   'P 1'
_cell_length_a   5.06879800
_cell_length_b   6.17447400
_cell_length_c   10.89044400
_cell_angle_alpha   90.00000000
_cell_angle_beta   90.00000000
_cell_angle_gamma   90.00000000
_symmetry_Int_Tables_number   1
_chemical_formula_structural   LiInGeO4
_chemical_formula_sum   'Li4 In4 Ge4 O16'
_cell_volume   340.83998426
_cell_formula_units_Z   4
loop_
 _symmetry_equiv_pos_site_id
 _symmetry_equiv_pos_as_xyz
  1  'x, y, z'
loop_
 _atom_site_type_symbol
 _atom_site_label
 _atom_site_symmetry_multiplicity
 _atom_site_fract_x
 _atom_site_fract_y
 _atom_site_fract_z
 _atom_site_occupancy
  Li  Li0  1  0.00000000  0.00000000  0.00000000  1
  Li  Li1  1  0.50000000  0.00000000  0.50000000  1
  Li  Li2  1  0.00000000  0.50000000  0.00000000  1
  Li  Li3  1  0.50000000  0.50000000  0.50000000  1
  In  In0  1  0.00732100  0.75000000  0.27220500  1
  In  In1  1  0.49267900  0.75000000  0.77220500  1
  In  In2  1  0.99267900  0.25000000  0.72779500  1
  In  In3  1  0.50732100  0.25000000  0.22779500  1
  Ge  Ge0  1  0.55825000  0.75000000  0.08699800  1
  Ge  Ge1  1  0.94175000  0.75000000  0.58699800  1
  Ge  Ge2  1  0.44175000  0.25000000  0.91300200  1
  Ge  Ge3  1  0.05825000  0.25000000  0.41300200  1
  O  O0  1  0.77290000  0.53216200  0.66607000  1
  O  O1  1  0.22710000  0.46783800  0.33393000  1
  O  O2  1  0.72710000  0.53216200  0.16607000  1
  O  O3  1  0.77290000  0.96783800  0.66607000  1
  O  O4  1  0.27290000  0.03216200  0.83393000  1
  O  O5  1  0.78601200  0.25000000  0.90596700  1
  O  O6  1  0.27290000  0.46783800  0.83393000  1
  O  O7  1  0.22710000  0.03216200  0.33393000  1
  O  O8  1  0.21398800  0.75000000  0.09403300  1
  O  O9  1  0.71398800  0.25000000  0.40596700  1
  O  O10  1  0.78949400  0.75000000  0.44106500  1
  O  O11  1  0.28601200  0.75000000  0.59403300  1
  O  O12  1  0.71050600  0.75000000  0.94106500  1
  O  O13  1  0.28949400  0.25000000  0.05893500  1
  O  O14  1  0.21050600  0.25000000  0.55893500  1
  O  O15  1  0.72710000  0.96783800  0.16607000  1
loop_
_geom_bond_atom_site_label_1
_geom_bond_atom_site_label_2
_geom_bond_distance
_geom_bond_site_symmetry_2
Li0 O8 2.146614 1_545
Li0 O5 2.146614 1_454
Li0 O13 2.224393 1_555
Li0 O12 2.224393 1_444
Li0 O4 2.285570 1_554
Li0 O15 2.285570 1_445
Li1 O11 2.146614 1_545
Li1 O9 2.146614 1_555
Li1 O10 2.224393 1_545
Li1 O14 2.224393 1_555
Li1 O7 2.285570 1_555
Li1 O3 2.285570 1_545
Li2 O8 2.146614 1_555
Li2 O5 2.146614 1_454
Li2 O13 2.224393 1_555
Li2 O12 2.224393 1_454
Li2 O6 2.285570 1_554
Li2 O2 2.285570 1_455
Li3 O11 2.146614 1_555
Li3 O9 2.146614 1_555
Li3 O10 2.224393 1_555
Li3 O14 2.224393 1_555
Li3 O1 2.285570 1_555
Li3 O0 2.285570 1_555
In0 O10 2.144961 1_455
In0 O7 2.174435 1_565
In0 O1 2.174435 1_555
In0 O8 2.205088 1_555
In0 O2 2.272139 1_455
In0 O15 2.272139 1_455
In1 O12 2.144961 1_555
In1 O4 2.174435 1_565
In1 O6 2.174435 1_555
In1 O11 2.205088 1_555
In1 O0 2.272139 1_555
In1 O3 2.272139 1_555
In2 O14 2.144961 1_655
In2 O0 2.174435 1_555
In2 O3 2.174435 1_545
In2 O5 2.205088 1_555
In2 O6 2.272139 1_655
In2 O4 2.272139 1_655
In3 O13 2.144961 1_555
In3 O2 2.174435 1_555
In3 O15 2.174435 1_545
In3 O9 2.205088 1_555
In3 O1 2.272139 1_555
In3 O7 2.272139 1_555
Ge0 O8 1.746676 1_555
Ge0 O12 1.766749 1_554
Ge0 O2 1.811952 1_555
Ge0 O15 1.811952 1_555
Ge1 O11 1.746676 1_655
Ge1 O10 1.766749 1_555
Ge1 O3 1.811952 1_555
Ge1 O0 1.811952 1_555
Ge2 O5 1.746676 1_555
Ge2 O13 1.766749 1_556
Ge2 O6 1.811952 1_555
Ge2 O4 1.811952 1_555
Ge3 O9 1.746676 1_455
Ge3 O14 1.766749 1_555
Ge3 O1 1.811952 1_555
Ge3 O7 1.811952 1_555
