# generated using pymatgen
data_KLu(MoO4)2
_symmetry_space_group_name_H-M   'P 1'
_cell_length_a   7.41500070
_cell_length_b   7.41500070
_cell_length_c   7.65240077
_cell_angle_alpha   61.75376504
_cell_angle_beta   61.75376504
_cell_angle_gamma   87.60642115
_symmetry_Int_Tables_number   1
_chemical_formula_structural   KLu(MoO4)2
_chemical_formula_sum   'K2 Lu2 Mo4 O16'
_cell_volume   317.38051437
_cell_formula_units_Z   2
loop_
 _symmetry_equiv_pos_site_id
 _symmetry_equiv_pos_as_xyz
  1  'x, y, z'
loop_
 _atom_site_type_symbol
 _atom_site_label
 _atom_site_symmetry_multiplicity
 _atom_site_fract_x
 _atom_site_fract_y
 _atom_site_fract_z
 _atom_site_occupancy
  K  K0  1  0.19939500  0.80060500  0.75000000  1
  K  K1  1  0.80060500  0.19939500  0.25000000  1
  Lu  Lu0  1  0.77156700  0.22843300  0.75000000  1
  Lu  Lu1  1  0.22843300  0.77156700  0.25000000  1
  Mo  Mo0  1  0.69737900  0.69834700  0.76243900  1
  Mo  Mo1  1  0.30262100  0.30165300  0.23756100  1
  Mo  Mo2  1  0.30165300  0.30262100  0.73756100  1
  Mo  Mo3  1  0.69834800  0.69737900  0.26243900  1
  O  O0  1  0.61260700  0.77108500  0.55848000  1
  O  O1  1  0.38739300  0.22891500  0.44152000  1
  O  O2  1  0.22891500  0.38739300  0.94152000  1
  O  O3  1  0.77108500  0.61260700  0.05848000  1
  O  O4  1  0.38029400  0.06207300  0.88233000  1
  O  O5  1  0.61970700  0.93792700  0.11767000  1
  O  O6  1  0.93792700  0.61970600  0.61767000  1
  O  O7  1  0.06207300  0.38029300  0.38233000  1
  O  O8  1  0.58872500  0.36620500  0.96606900  1
  O  O9  1  0.41127500  0.63379500  0.03393100  1
  O  O10  1  0.63379500  0.41127500  0.53393100  1
  O  O11  1  0.36620500  0.58872500  0.46606900  1
  O  O12  1  0.79253200  0.95835900  0.69207800  1
  O  O13  1  0.20746800  0.04164100  0.30792200  1
  O  O14  1  0.04164100  0.20746800  0.80792200  1
  O  O15  1  0.95835900  0.79253200  0.19207800  1
loop_
_geom_bond_atom_site_label_1
_geom_bond_atom_site_label_2
_geom_bond_distance
_geom_bond_site_symmetry_2
K0 O2 2.753363 1_555
K0 O0 2.753363 1_555
K0 O3 2.785870 1_456
K0 O1 2.785870 1_565
K0 O15 2.955784 1_456
K0 O13 2.955784 1_565
K0 O9 3.040406 1_556
K0 O11 3.040406 1_555
K0 O6 3.153539 1_455
K0 O4 3.153539 1_565
K0 O12 3.338648 1_455
K0 O14 3.338648 1_565
K1 O3 2.753363 1_555
K1 O1 2.753363 1_555
K1 O2 2.785870 1_654
K1 O0 2.785870 1_545
K1 O12 2.955784 1_545
K1 O14 2.955784 1_654
K1 O8 3.040406 1_554
K1 O10 3.040406 1_555
K1 O5 3.153535 1_545
K1 O7 3.153535 1_655
K1 O15 3.338648 1_545
K1 O13 3.338648 1_655
Lu0 O10 2.230902 1_555
Lu0 O8 2.230902 1_555
Lu0 O14 2.231587 1_655
Lu0 O12 2.231587 1_545
Lu0 O7 2.300324 1_655
Lu0 O5 2.300324 1_546
Lu0 O4 2.701911 1_555
Lu0 O6 2.701911 1_555
Lu1 O11 2.230902 1_555
Lu1 O9 2.230902 1_555
Lu1 O15 2.231587 1_455
Lu1 O13 2.231587 1_565
Lu1 O6 2.300324 1_455
Lu1 O4 2.300324 1_564
Lu1 O7 2.701917 1_555
Lu1 O5 2.701917 1_555
Mo0 O0 1.795981 1_555
Mo0 O12 1.810064 1_555
Mo0 O6 1.844730 1_555
Mo0 O9 2.004438 1_556
Mo0 O8 2.118431 1_555
Mo0 O3 2.369531 1_556
Mo1 O1 1.795981 1_555
Mo1 O13 1.810064 1_555
Mo1 O7 1.844726 1_555
Mo1 O8 2.004438 1_554
Mo1 O9 2.118431 1_555
Mo1 O2 2.369531 1_554
Mo2 O2 1.795981 1_555
Mo2 O14 1.810064 1_555
Mo2 O4 1.844730 1_555
Mo2 O11 2.004438 1_555
Mo2 O10 2.118431 1_555
Mo2 O1 2.369531 1_555
Mo3 O3 1.795982 1_555
Mo3 O15 1.810057 1_555
Mo3 O5 1.844730 1_555
Mo3 O10 2.004436 1_555
Mo3 O11 2.118437 1_555
Mo3 O0 2.369529 1_555
