# generated using pymatgen
data_Ba(SbO2)4
_symmetry_space_group_name_H-M   'P 1'
_cell_length_a   6.28186777
_cell_length_b   6.28186777
_cell_length_c   7.12358800
_cell_angle_alpha   90.00000000
_cell_angle_beta   90.00000000
_cell_angle_gamma   119.99999753
_symmetry_Int_Tables_number   1
_chemical_formula_structural   Ba(SbO2)4
_chemical_formula_sum   'Ba1 Sb4 O8'
_cell_volume   243.44845150
_cell_formula_units_Z   1
loop_
 _symmetry_equiv_pos_site_id
 _symmetry_equiv_pos_as_xyz
  1  'x, y, z'
loop_
 _atom_site_type_symbol
 _atom_site_label
 _atom_site_symmetry_multiplicity
 _atom_site_fract_x
 _atom_site_fract_y
 _atom_site_fract_z
 _atom_site_occupancy
  Ba  Ba0  1  0.00000000  0.00000000  0.00000000  1
  Sb  Sb0  1  0.33333300  0.66666700  0.72281000  1
  Sb  Sb1  1  0.66666700  0.33333300  0.72281000  1
  Sb  Sb2  1  0.33333300  0.66666700  0.27719000  1
  Sb  Sb3  1  0.66666700  0.33333300  0.27719000  1
  O  O0  1  0.34433500  0.34433500  0.73315800  1
  O  O1  1  0.65566500  0.00000000  0.73315800  1
  O  O2  1  0.00000000  0.65566500  0.73315800  1
  O  O3  1  0.65566500  0.65566500  0.26684200  1
  O  O4  1  0.00000000  0.34433500  0.26684200  1
  O  O5  1  0.34433500  0.00000000  0.26684200  1
  O  O6  1  0.33333300  0.66666700  0.00000000  1
  O  O7  1  0.66666700  0.33333300  0.00000000  1
loop_
_geom_bond_atom_site_label_1
_geom_bond_atom_site_label_2
_geom_bond_distance
_geom_bond_site_symmetry_2
Ba0 O4 2.879614 1_555
Ba0 O5 2.879614 1_555
Ba0 O2 2.879614 1_544
Ba0 O1 2.879614 1_454
Ba0 O3 2.879614 1_445
Ba0 O0 2.879614 1_554
O0 Sb0 2.061591 1_555
O0 Sb1 2.061591 1_555
O1 Sb1 2.061585 1_555
O1 Sb0 2.061588 1_545
O2 Sb0 2.061585 1_555
O2 Sb1 2.061588 1_455
O3 Sb3 2.061591 1_555
O3 Sb2 2.061591 1_555
O4 Sb3 2.061585 1_455
O4 Sb2 2.061588 1_555
O5 Sb2 2.061585 1_545
O5 Sb3 2.061588 1_555
O6 Sb0 1.974587 1_554
O6 Sb2 1.974587 1_555
O7 Sb1 1.974587 1_554
O7 Sb3 1.974587 1_555
