# generated using pymatgen
data_Na3Zr
_symmetry_space_group_name_H-M   'P 1'
_cell_length_a   6.94810350
_cell_length_b   6.94810350
_cell_length_c   5.59759800
_cell_angle_alpha   90.00000000
_cell_angle_beta   90.00000000
_cell_angle_gamma   119.99999528
_symmetry_Int_Tables_number   1
_chemical_formula_structural   Na3Zr
_chemical_formula_sum   'Na6 Zr2'
_cell_volume   234.02643500
_cell_formula_units_Z   2
loop_
 _symmetry_equiv_pos_site_id
 _symmetry_equiv_pos_as_xyz
  1  'x, y, z'
loop_
 _atom_site_type_symbol
 _atom_site_label
 _atom_site_symmetry_multiplicity
 _atom_site_fract_x
 _atom_site_fract_y
 _atom_site_fract_z
 _atom_site_occupancy
  Na  Na0  1  0.16658200  0.33316500  0.25000000  1
  Na  Na1  1  0.66683500  0.83341800  0.25000000  1
  Na  Na2  1  0.16658200  0.83341800  0.25000000  1
  Na  Na3  1  0.83341800  0.66683500  0.75000000  1
  Na  Na4  1  0.33316500  0.16658200  0.75000000  1
  Na  Na5  1  0.83341800  0.16658200  0.75000000  1
  Zr  Zr0  1  0.33333300  0.66666700  0.75000000  1
  Zr  Zr1  1  0.66666700  0.33333300  0.25000000  1
loop_
_geom_bond_atom_site_label_1
_geom_bond_atom_site_label_2
_geom_bond_distance
_geom_bond_site_symmetry_2
Na0 Na5 3.442703 1_455
Na0 Na5 3.442703 1_454
Na0 Na4 3.442710 1_554
Na0 Na4 3.442710 1_555
Na0 Zr0 3.443887 1_554
Na0 Zr0 3.443887 1_555
Na0 Na2 3.472294 1_545
Na0 Na1 3.472294 1_445
Na0 Zr1 3.474045 1_455
Na0 Zr1 3.474059 1_555
Na0 Na2 3.475810 1_555
Na0 Na1 3.475810 1_555
Na1 Na5 3.442703 1_564
Na1 Na5 3.442703 1_565
Na1 Na3 3.442710 1_554
Na1 Na3 3.442710 1_555
Na1 Zr0 3.443887 1_555
Na1 Zr0 3.443887 1_554
Na1 Na2 3.472294 1_655
Na1 Zr1 3.474045 1_565
Na1 Zr1 3.474059 1_555
Na1 Na2 3.475810 1_555
Na2 Na3 3.442703 1_455
Na2 Na4 3.442703 1_565
Na2 Na4 3.442703 1_564
Na2 Na3 3.442703 1_454
Na2 Zr0 3.443887 1_555
Na2 Zr0 3.443887 1_554
Na2 Zr1 3.474052 1_455
Na2 Zr1 3.474052 1_565
Na3 Zr1 3.443887 1_555
Na3 Zr1 3.443887 1_556
Na3 Na5 3.472294 1_565
Na3 Na4 3.472294 1_665
Na3 Zr0 3.474045 1_655
Na3 Zr0 3.474059 1_555
Na3 Na5 3.475810 1_555
Na3 Na4 3.475810 1_555
Na4 Zr1 3.443887 1_555
Na4 Zr1 3.443887 1_556
Na4 Na5 3.472294 1_455
Na4 Zr0 3.474045 1_545
Na4 Zr0 3.474059 1_555
Na4 Na5 3.475810 1_555
Na5 Zr1 3.443887 1_555
Na5 Zr1 3.443887 1_556
Na5 Zr0 3.474052 1_545
Na5 Zr0 3.474052 1_655
