# generated using pymatgen
data_Sm2MgPd2
_symmetry_space_group_name_H-M   'P 1'
_cell_length_a   7.74996024
_cell_length_b   7.74996024
_cell_length_c   3.87031301
_cell_angle_alpha   90.00000000
_cell_angle_beta   90.00000000
_cell_angle_gamma   90.00000000
_symmetry_Int_Tables_number   1
_chemical_formula_structural   Sm2MgPd2
_chemical_formula_sum   'Sm4 Mg2 Pd4'
_cell_volume   232.45828997
_cell_formula_units_Z   2
loop_
 _symmetry_equiv_pos_site_id
 _symmetry_equiv_pos_as_xyz
  1  'x, y, z'
loop_
 _atom_site_type_symbol
 _atom_site_label
 _atom_site_symmetry_multiplicity
 _atom_site_fract_x
 _atom_site_fract_y
 _atom_site_fract_z
 _atom_site_occupancy
  Sm  Sm0  1  0.67063215  0.17063215  0.50000000  1
  Sm  Sm1  1  0.32936785  0.82936785  0.50000000  1
  Sm  Sm2  1  0.17063215  0.32936785  0.50000000  1
  Sm  Sm3  1  0.82936785  0.67063215  0.50000000  1
  Mg  Mg0  1  0.00000000  -0.00000000  0.00000000  1
  Mg  Mg1  1  0.50000000  0.50000000  0.00000000  1
  Pd  Pd0  1  0.12993759  0.62993759  -0.00000000  1
  Pd  Pd1  1  0.87006241  0.37006241  0.00000000  1
  Pd  Pd2  1  0.62993759  0.87006241  -0.00000000  1
  Pd  Pd3  1  0.37006241  0.12993759  0.00000000  1
loop_
_geom_bond_atom_site_label_1
_geom_bond_atom_site_label_2
_geom_bond_distance
_geom_bond_site_symmetry_2
Mg0 Pd2 3.039625 1_445
Mg0 Pd0 3.039625 1_545
Mg0 Pd3 3.039625 1_555
Mg0 Pd1 3.039625 1_455
Mg0 Sm1 3.465437 1_544
Mg0 Sm3 3.465437 1_444
Mg0 Sm1 3.465437 1_545
Mg0 Sm3 3.465437 1_445
Mg0 Sm0 3.465437 1_454
Mg0 Sm2 3.465437 1_555
Mg0 Sm2 3.465437 1_554
Mg0 Sm0 3.465437 1_455
Mg1 Pd3 3.039625 1_555
Mg1 Pd1 3.039625 1_555
Mg1 Pd0 3.039625 1_555
Mg1 Pd2 3.039625 1_555
Mg1 Sm0 3.465437 1_554
Mg1 Sm1 3.465437 1_555
Mg1 Sm3 3.465437 1_554
Mg1 Sm3 3.465437 1_555
Mg1 Sm0 3.465437 1_555
Mg1 Sm1 3.465437 1_554
Mg1 Sm2 3.465437 1_555
Mg1 Sm2 3.465437 1_554
Pd0 Pd1 2.848258 1_455
Pd0 Sm1 2.919323 1_555
Pd0 Sm1 2.919323 1_554
Pd0 Sm3 3.044736 1_455
Pd0 Sm3 3.044736 1_454
Pd0 Sm2 3.044736 1_555
Pd0 Sm2 3.044736 1_554
Pd1 Sm0 2.919323 1_554
Pd1 Sm0 2.919323 1_555
Pd1 Sm3 3.044736 1_554
Pd1 Sm3 3.044736 1_555
Pd1 Sm2 3.044736 1_655
Pd1 Sm2 3.044736 1_654
Pd2 Pd3 2.848258 1_565
Pd2 Sm3 2.919323 1_554
Pd2 Sm3 2.919323 1_555
Pd2 Sm1 3.044736 1_555
Pd2 Sm0 3.044736 1_565
Pd2 Sm0 3.044736 1_564
Pd2 Sm1 3.044736 1_554
Pd3 Sm2 2.919323 1_555
Pd3 Sm2 2.919323 1_554
Pd3 Sm0 3.044736 1_555
Pd3 Sm0 3.044736 1_554
Pd3 Sm1 3.044736 1_544
Pd3 Sm1 3.044736 1_545
