# generated using pymatgen
data_Yb3Ge13Pt4
_symmetry_space_group_name_H-M   'P 1'
_cell_length_a   9.09287447
_cell_length_b   12.90641190
_cell_length_c   12.90641190
_cell_angle_alpha   90.00000000
_cell_angle_beta   90.00000000
_cell_angle_gamma   90.00000000
_symmetry_Int_Tables_number   1
_chemical_formula_structural   Yb3Ge13Pt4
_chemical_formula_sum   'Yb12 Ge52 Pt16'
_cell_volume   1514.64982151
_cell_formula_units_Z   4
loop_
 _symmetry_equiv_pos_site_id
 _symmetry_equiv_pos_as_xyz
  1  'x, y, z'
loop_
 _atom_site_type_symbol
 _atom_site_label
 _atom_site_symmetry_multiplicity
 _atom_site_fract_x
 _atom_site_fract_y
 _atom_site_fract_z
 _atom_site_occupancy
  Yb  Yb0  1  0.99950221  0.00000000  -0.00000000  1
  Yb  Yb1  1  0.49950221  0.00000000  -0.00000000  1
  Yb  Yb2  1  0.00191341  0.50000000  0.50000000  1
  Yb  Yb3  1  0.50191341  0.50000000  0.50000000  1
  Yb  Yb4  1  0.25837844  0.37732769  0.12787257  1
  Yb  Yb5  1  0.25837844  0.62267231  0.87212743  1
  Yb  Yb6  1  0.75837844  0.87212743  0.37732769  1
  Yb  Yb7  1  0.75837844  0.12787257  0.62267231  1
  Yb  Yb8  1  0.75837844  0.37732769  0.87212743  1
  Yb  Yb9  1  0.75837844  0.62267231  0.12787257  1
  Yb  Yb10  1  0.25837844  0.87212743  0.62267231  1
  Yb  Yb11  1  0.25837844  0.12787257  0.37732769  1
  Ge  Ge0  1  0.10503307  0.17119444  0.17119444  1
  Ge  Ge1  1  0.10503307  0.82880556  0.82880556  1
  Ge  Ge2  1  0.60503307  0.82880556  0.17119444  1
  Ge  Ge3  1  0.60503307  0.17119444  0.82880556  1
  Ge  Ge4  1  0.75773160  0.24709395  0.24709395  1
  Ge  Ge5  1  0.75773160  0.75290605  0.75290605  1
  Ge  Ge6  1  0.25773160  0.75290605  0.24709395  1
  Ge  Ge7  1  0.25773160  0.24709395  0.75290605  1
  Ge  Ge8  1  0.41244788  0.17251246  0.17251246  1
  Ge  Ge9  1  0.41244788  0.82748754  0.82748754  1
  Ge  Ge10  1  0.91244788  0.82748754  0.17251246  1
  Ge  Ge11  1  0.91244788  0.17251246  0.82748754  1
  Ge  Ge12  1  0.03631617  0.31457649  0.31457649  1
  Ge  Ge13  1  0.03631617  0.68542351  0.68542351  1
  Ge  Ge14  1  0.53631617  0.68542351  0.31457649  1
  Ge  Ge15  1  0.53631617  0.31457649  0.68542351  1
  Ge  Ge16  1  0.51025551  0.31090914  0.31090914  1
  Ge  Ge17  1  0.51025551  0.68909086  0.68909086  1
  Ge  Ge18  1  0.01025551  0.68909086  0.31090914  1
  Ge  Ge19  1  0.01025551  0.31090914  0.68909086  1
  Ge  Ge20  1  0.37098587  0.61636529  0.11997630  1
  Ge  Ge21  1  0.37098587  0.38363471  0.88002370  1
  Ge  Ge22  1  0.87098587  0.88002370  0.61636529  1
  Ge  Ge23  1  0.87098587  0.11997630  0.38363471  1
  Ge  Ge24  1  0.87098587  0.61636529  0.88002370  1
  Ge  Ge25  1  0.87098587  0.38363471  0.11997630  1
  Ge  Ge26  1  0.37098587  0.88002370  0.38363471  1
  Ge  Ge27  1  0.37098587  0.11997630  0.61636529  1
  Ge  Ge28  1  0.25524953  0.49852534  0.34440776  1
  Ge  Ge29  1  0.25524953  0.50147466  0.65559224  1
  Ge  Ge30  1  0.75524953  0.65559224  0.49852534  1
  Ge  Ge31  1  0.75524953  0.34440776  0.50147466  1
  Ge  Ge32  1  0.75524953  0.49852534  0.65559224  1
  Ge  Ge33  1  0.75524953  0.50147466  0.34440776  1
  Ge  Ge34  1  0.25524953  0.65559224  0.50147466  1
  Ge  Ge35  1  0.25524953  0.34440776  0.49852534  1
  Ge  Ge36  1  0.09031151  0.57439077  0.07506471  1
  Ge  Ge37  1  0.09031151  0.42560923  0.92493529  1
  Ge  Ge38  1  0.59031151  0.92493529  0.57439077  1
  Ge  Ge39  1  0.59031151  0.07506471  0.42560923  1
  Ge  Ge40  1  0.59031151  0.57439077  0.92493529  1
  Ge  Ge41  1  0.59031151  0.42560923  0.07506471  1
  Ge  Ge42  1  0.09031151  0.92493529  0.42560923  1
  Ge  Ge43  1  0.09031151  0.07506471  0.57439077  1
  Ge  Ge44  1  0.75215081  0.17851775  0.04099698  1
  Ge  Ge45  1  0.75215081  0.82148225  0.95900302  1
  Ge  Ge46  1  0.25215081  0.95900302  0.17851775  1
  Ge  Ge47  1  0.25215081  0.04099698  0.82148225  1
  Ge  Ge48  1  0.25215081  0.17851775  0.95900302  1
  Ge  Ge49  1  0.25215081  0.82148225  0.04099698  1
  Ge  Ge50  1  0.75215081  0.95900302  0.82148225  1
  Ge  Ge51  1  0.75215081  0.04099698  0.17851775  1
  Pt  Pt0  1  0.00472072  0.50102081  0.25083548  1
  Pt  Pt1  1  0.00472072  0.49897919  0.74916452  1
  Pt  Pt2  1  0.50472072  0.74916452  0.50102081  1
  Pt  Pt3  1  0.50472072  0.25083548  0.49897919  1
  Pt  Pt4  1  0.50472072  0.50102081  0.74916452  1
  Pt  Pt5  1  0.50472072  0.49897919  0.25083548  1
  Pt  Pt6  1  0.00472072  0.74916452  0.49897919  1
  Pt  Pt7  1  0.00472072  0.25083548  0.50102081  1
  Pt  Pt8  1  0.00426711  0.25117171  0.00179999  1
  Pt  Pt9  1  0.00426711  0.74882829  0.99820001  1
  Pt  Pt10  1  0.50426711  0.99820001  0.25117171  1
  Pt  Pt11  1  0.50426711  0.00179999  0.74882829  1
  Pt  Pt12  1  0.50426711  0.25117171  0.99820001  1
  Pt  Pt13  1  0.50426711  0.74882829  0.00179999  1
  Pt  Pt14  1  0.00426711  0.99820001  0.74882829  1
  Pt  Pt15  1  0.00426711  0.00179999  0.25117171  1
loop_
_geom_bond_atom_site_label_1
_geom_bond_atom_site_label_2
_geom_bond_distance
_geom_bond_site_symmetry_2
Ge0 Pt15 2.585496 1_555
Ge0 Pt8 2.585496 1_555
Ge0 Ge12 2.690627 1_555
Ge0 Ge8 2.795388 1_555
Ge0 Yb4 3.055288 1_555
Ge0 Yb11 3.055288 1_555
Ge0 Yb0 3.268734 1_455
Ge1 Pt14 2.585496 1_555
Ge1 Pt9 2.585496 1_555
Ge1 Ge13 2.690627 1_555
Ge1 Ge9 2.795388 1_555
Ge1 Yb10 3.055288 1_555
Ge1 Yb5 3.055288 1_555
Ge1 Yb0 3.268734 1_466
Ge2 Pt10 2.585496 1_555
Ge2 Pt13 2.585496 1_555
Ge2 Yb6 3.055288 1_555
Ge2 Yb9 3.055288 1_555
Ge2 Yb1 3.268734 1_565
Ge3 Pt12 2.585496 1_555
Ge3 Pt11 2.585496 1_555
Ge3 Yb8 3.055288 1_555
Ge3 Yb7 3.055288 1_555
Ge3 Yb1 3.268734 1_556
Ge4 Ge44 2.803816 1_555
Ge4 Ge51 2.803816 1_555
Ge5 Ge50 2.803816 1_555
Ge8 Pt12 2.605585 1_554
Ge8 Pt10 2.605585 1_545
Ge8 Yb4 3.046683 1_555
Ge8 Yb11 3.046683 1_555
Ge8 Yb1 3.246744 1_555
Ge9 Pt13 2.605585 1_556
Ge9 Pt11 2.605585 1_565
Ge9 Yb5 3.046683 1_555
Ge9 Yb10 3.046683 1_555
Ge9 Yb1 3.246744 1_566
Ge10 Pt9 2.605585 1_654
Ge10 Pt15 2.605585 1_665
Ge10 Ge18 2.678059 1_655
Ge10 Ge2 2.795388 1_555
Ge10 Yb6 3.046683 1_555
Ge10 Yb9 3.046683 1_555
Ge10 Yb0 3.246744 1_565
Ge11 Pt14 2.605585 1_645
Ge11 Pt8 2.605585 1_656
Ge11 Ge19 2.678059 1_655
Ge11 Ge3 2.795388 1_555
Ge11 Yb8 3.046683 1_555
Ge11 Yb7 3.046683 1_555
Ge11 Yb0 3.246744 1_556
Ge12 Pt0 2.559244 1_555
Ge12 Pt7 2.559244 1_555
Ge12 Ge4 2.816719 1_455
Ge12 Yb4 3.246472 1_555
Ge12 Yb11 3.246472 1_555
Ge12 Yb2 3.398854 1_555
Ge13 Pt1 2.559244 1_555
Ge13 Pt6 2.559244 1_555
Ge13 Ge5 2.816719 1_455
Ge13 Yb10 3.246472 1_555
Ge13 Yb5 3.246472 1_555
Ge13 Yb2 3.398854 1_555
Ge14 Pt2 2.559244 1_555
Ge14 Pt5 2.559244 1_555
Ge14 Ge2 2.690627 1_555
Ge14 Ge6 2.816719 1_555
Ge14 Yb9 3.246472 1_555
Ge14 Yb6 3.246472 1_555
Ge14 Yb3 3.398854 1_555
Ge15 Pt4 2.559244 1_555
Ge15 Pt3 2.559244 1_555
Ge15 Ge3 2.690627 1_555
Ge15 Ge7 2.816719 1_555
Ge15 Yb7 3.246472 1_555
Ge15 Yb8 3.246472 1_555
Ge15 Yb3 3.398854 1_555
Ge16 Ge4 2.533856 1_555
Ge16 Pt3 2.548629 1_555
Ge16 Pt5 2.548629 1_555
Ge16 Ge8 2.678059 1_555
Ge16 Yb4 3.400136 1_555
Ge16 Yb11 3.400136 1_555
Ge16 Yb3 3.452200 1_555
Ge17 Ge5 2.533856 1_555
Ge17 Pt2 2.548629 1_555
Ge17 Pt4 2.548629 1_555
Ge17 Ge9 2.678059 1_555
Ge17 Yb5 3.400136 1_555
Ge17 Yb10 3.400136 1_555
Ge17 Yb3 3.452200 1_555
Ge18 Ge6 2.533856 1_555
Ge18 Pt0 2.548629 1_555
Ge18 Pt6 2.548629 1_555
Ge18 Yb9 3.400136 1_455
Ge18 Yb6 3.400136 1_455
Ge18 Yb2 3.452200 1_555
Ge19 Ge7 2.533856 1_555
Ge19 Pt7 2.548629 1_555
Ge19 Pt1 2.548629 1_555
Ge19 Yb7 3.400136 1_455
Ge19 Yb8 3.400136 1_455
Ge19 Yb2 3.452200 1_555
Ge20 Pt5 2.574204 1_555
Ge20 Pt13 2.591885 1_555
Ge20 Ge6 2.618723 1_555
Ge20 Ge36 2.672616 1_555
Ge20 Yb4 3.252193 1_555
Ge20 Yb5 3.359706 1_554
Ge20 Yb9 3.524926 1_555
Ge21 Pt4 2.574204 1_555
Ge21 Pt12 2.591885 1_555
Ge21 Ge7 2.618723 1_555
Ge21 Ge37 2.672616 1_555
Ge21 Yb5 3.252193 1_555
Ge21 Yb4 3.359706 1_556
Ge21 Yb8 3.524926 1_555
Ge22 Pt6 2.574204 1_655
Ge22 Pt14 2.591885 1_655
Ge22 Ge5 2.618723 1_555
Ge22 Ge38 2.672616 1_555
Ge22 Yb6 3.252193 1_555
Ge22 Yb7 3.359706 1_565
Ge22 Yb10 3.524926 1_655
Ge23 Pt7 2.574204 1_655
Ge23 Pt15 2.591885 1_655
Ge23 Ge4 2.618723 1_555
Ge23 Ge39 2.672616 1_555
Ge23 Yb7 3.252193 1_555
Ge23 Yb6 3.359706 1_545
Ge23 Yb11 3.524926 1_655
Ge24 Pt1 2.574204 1_655
Ge24 Pt9 2.591885 1_655
Ge24 Ge5 2.618723 1_555
Ge24 Ge40 2.672616 1_555
Ge24 Yb8 3.252193 1_555
Ge24 Yb9 3.359706 1_556
Ge24 Yb5 3.524926 1_655
Ge25 Pt0 2.574204 1_655
Ge25 Pt8 2.591885 1_655
Ge25 Ge4 2.618723 1_555
Ge25 Ge41 2.672616 1_555
Ge25 Yb9 3.252193 1_555
Ge25 Yb8 3.359706 1_554
Ge25 Yb4 3.524926 1_655
Ge26 Pt2 2.574204 1_555
Ge26 Pt10 2.591885 1_555
Ge26 Ge6 2.618723 1_555
Ge26 Ge42 2.672616 1_555
Ge26 Yb10 3.252193 1_555
Ge26 Yb11 3.359706 1_565
Ge26 Yb6 3.524926 1_555
Ge27 Pt3 2.574204 1_555
Ge27 Pt11 2.591885 1_555
Ge27 Ge7 2.618723 1_555
Ge27 Ge43 2.672616 1_555
Ge27 Yb11 3.252193 1_555
Ge27 Yb10 3.359706 1_545
Ge27 Yb7 3.524926 1_555
Ge28 Pt5 2.569867 1_555
Ge28 Pt0 2.578554 1_555
Ge28 Ge35 2.813019 1_555
Ge28 Ge34 2.866851 1_555
Ge28 Yb3 3.010566 1_555
Ge28 Yb2 3.056033 1_555
Ge28 Yb4 3.202799 1_555
Ge29 Pt4 2.569867 1_555
Ge29 Pt1 2.578554 1_555
Ge29 Ge34 2.813019 1_555
Ge29 Ge35 2.866851 1_555
Ge29 Yb3 3.010566 1_555
Ge29 Yb2 3.056033 1_555
Ge29 Yb5 3.202799 1_555
Ge30 Pt6 2.569867 1_655
Ge30 Pt2 2.578554 1_555
Ge30 Ge33 2.813019 1_555
Ge30 Ge32 2.866851 1_555
Ge30 Yb2 3.010566 1_655
Ge30 Yb3 3.056033 1_555
Ge30 Yb6 3.202799 1_555
Ge31 Pt7 2.569867 1_655
Ge31 Pt3 2.578554 1_555
Ge31 Ge32 2.813019 1_555
Ge31 Ge33 2.866851 1_555
Ge31 Yb2 3.010566 1_655
Ge31 Yb3 3.056033 1_555
Ge31 Yb7 3.202799 1_555
Ge32 Pt1 2.569867 1_655
Ge32 Pt4 2.578554 1_555
Ge32 Yb2 3.010566 1_655
Ge32 Yb3 3.056033 1_555
Ge32 Yb8 3.202799 1_555
Ge33 Pt0 2.569867 1_655
Ge33 Pt5 2.578554 1_555
Ge33 Yb2 3.010566 1_655
Ge33 Yb3 3.056033 1_555
Ge33 Yb9 3.202799 1_555
Ge34 Pt2 2.569867 1_555
Ge34 Pt6 2.578554 1_555
Ge34 Yb3 3.010566 1_555
Ge34 Yb2 3.056033 1_555
Ge34 Yb10 3.202799 1_555
Ge35 Pt3 2.569867 1_555
Ge35 Pt7 2.578554 1_555
Ge35 Yb3 3.010566 1_555
Ge35 Yb2 3.056033 1_555
Ge35 Yb11 3.202799 1_555
Ge36 Pt0 2.578528 1_555
Ge36 Pt9 2.581652 1_554
Ge36 Ge37 2.727952 1_554
Ge36 Yb4 3.044458 1_555
Ge36 Yb5 3.095788 1_554
Ge36 Yb9 3.156345 1_455
Ge37 Pt1 2.578528 1_555
Ge37 Pt8 2.581652 1_556
Ge37 Yb5 3.044458 1_555
Ge37 Yb4 3.095788 1_556
Ge37 Yb8 3.156345 1_455
Ge38 Pt2 2.578528 1_555
Ge38 Pt11 2.581652 1_565
Ge38 Ge39 2.727952 1_565
Ge38 Yb6 3.044458 1_555
Ge38 Yb7 3.095788 1_565
Ge38 Yb10 3.156345 1_555
Ge39 Pt3 2.578528 1_555
Ge39 Pt10 2.581652 1_545
Ge39 Yb7 3.044458 1_555
Ge39 Yb6 3.095788 1_545
Ge39 Yb11 3.156345 1_555
Ge40 Pt4 2.578528 1_555
Ge40 Pt13 2.581652 1_556
Ge40 Ge41 2.727952 1_556
Ge40 Yb8 3.044458 1_555
Ge40 Yb9 3.095788 1_556
Ge40 Yb5 3.156345 1_555
Ge41 Pt5 2.578528 1_555
Ge41 Pt12 2.581652 1_554
Ge41 Yb9 3.044458 1_555
Ge41 Yb8 3.095788 1_554
Ge41 Yb4 3.156345 1_555
Ge42 Pt6 2.578528 1_555
Ge42 Pt15 2.581652 1_565
Ge42 Ge43 2.727952 1_565
Ge42 Yb10 3.044458 1_555
Ge42 Yb11 3.095788 1_565
Ge42 Yb6 3.156345 1_455
Ge43 Pt7 2.578528 1_555
Ge43 Pt14 2.581652 1_545
Ge43 Yb11 3.044458 1_555
Ge43 Yb10 3.095788 1_545
Ge43 Yb7 3.156345 1_455
Ge44 Pt12 2.502956 1_554
Ge44 Pt8 2.527962 1_655
Ge44 Yb0 3.262990 1_555
Ge44 Yb1 3.296376 1_555
Ge44 Yb8 3.367104 1_554
Ge45 Pt13 2.502956 1_556
Ge45 Pt9 2.527962 1_655
Ge45 Ge5 2.803816 1_555
Ge45 Yb0 3.262990 1_566
Ge45 Yb1 3.296376 1_566
Ge45 Yb9 3.367104 1_556
Ge46 Pt15 2.502956 1_565
Ge46 Pt10 2.527962 1_555
Ge46 Ge6 2.803816 1_555
Ge46 Yb1 3.262990 1_565
Ge46 Yb0 3.296376 1_465
Ge46 Yb11 3.367104 1_565
Ge47 Pt14 2.502956 1_545
Ge47 Pt11 2.527962 1_555
Ge47 Ge7 2.803816 1_555
Ge47 Yb1 3.262990 1_556
Ge47 Yb0 3.296376 1_456
Ge47 Yb10 3.367104 1_545
Ge48 Pt8 2.502956 1_556
Ge48 Pt12 2.527962 1_555
Ge48 Ge7 2.803816 1_555
Ge48 Yb1 3.262990 1_556
Ge48 Yb0 3.296376 1_456
Ge48 Yb4 3.367104 1_556
Ge49 Pt9 2.502956 1_554
Ge49 Pt13 2.527962 1_555
Ge49 Ge6 2.803816 1_555
Ge49 Yb1 3.262990 1_565
Ge49 Yb0 3.296376 1_465
Ge49 Yb5 3.367104 1_554
Ge50 Pt11 2.502956 1_565
Ge50 Pt14 2.527962 1_655
Ge50 Yb0 3.262990 1_566
Ge50 Yb1 3.296376 1_566
Ge50 Yb7 3.367104 1_565
Ge51 Pt10 2.502956 1_545
Ge51 Pt15 2.527962 1_655
Ge51 Yb0 3.262990 1_555
Ge51 Yb1 3.296376 1_555
Ge51 Yb6 3.367104 1_545
Pt0 Yb9 3.162465 1_455
Pt0 Yb2 3.215948 1_555
Pt0 Yb4 3.222894 1_555
Pt1 Yb8 3.162465 1_455
Pt1 Yb2 3.215948 1_555
Pt1 Yb5 3.222894 1_555
Pt2 Yb10 3.162465 1_555
Pt2 Yb3 3.215948 1_555
Pt2 Yb6 3.222894 1_555
Pt3 Yb11 3.162465 1_555
Pt3 Yb3 3.215948 1_555
Pt3 Yb7 3.222894 1_555
Pt4 Yb5 3.162465 1_555
Pt4 Yb3 3.215948 1_555
Pt4 Yb8 3.222894 1_555
Pt5 Yb4 3.162465 1_555
Pt5 Yb3 3.215948 1_555
Pt5 Yb9 3.222894 1_555
Pt6 Yb6 3.162465 1_455
Pt6 Yb2 3.215948 1_555
Pt6 Yb10 3.222894 1_555
Pt7 Yb7 3.162465 1_455
Pt7 Yb2 3.215948 1_555
Pt7 Yb11 3.222894 1_555
Pt8 Yb8 3.232804 1_454
Pt8 Yb0 3.242098 1_455
Pt8 Yb4 3.261531 1_555
Pt9 Yb9 3.232804 1_456
Pt9 Yb0 3.242098 1_466
Pt9 Yb5 3.261531 1_555
Pt10 Yb11 3.232804 1_565
Pt10 Yb1 3.242098 1_565
Pt10 Yb6 3.261531 1_555
Pt11 Yb10 3.232804 1_545
Pt11 Yb1 3.242098 1_556
Pt11 Yb7 3.261531 1_555
Pt12 Yb4 3.232804 1_556
Pt12 Yb1 3.242098 1_556
Pt12 Yb8 3.261531 1_555
Pt13 Yb5 3.232804 1_554
Pt13 Yb1 3.242098 1_565
Pt13 Yb9 3.261531 1_555
Pt14 Yb7 3.232804 1_465
Pt14 Yb0 3.242098 1_466
Pt14 Yb10 3.261531 1_555
Pt15 Yb6 3.232804 1_445
Pt15 Yb0 3.242098 1_455
Pt15 Yb11 3.261531 1_555
