# generated using pymatgen
data_Tm5(Co2Ge5)2
_symmetry_space_group_name_H-M   'P 1'
_cell_length_a   4.12023258
_cell_length_b   12.58066743
_cell_length_c   12.58066743
_cell_angle_alpha   90.00000000
_cell_angle_beta   90.00000000
_cell_angle_gamma   90.00000000
_symmetry_Int_Tables_number   1
_chemical_formula_structural   Tm5(Co2Ge5)2
_chemical_formula_sum   'Tm10 Co8 Ge20'
_cell_volume   652.12236627
_cell_formula_units_Z   2
loop_
 _symmetry_equiv_pos_site_id
 _symmetry_equiv_pos_as_xyz
  1  'x, y, z'
loop_
 _atom_site_type_symbol
 _atom_site_label
 _atom_site_symmetry_multiplicity
 _atom_site_fract_x
 _atom_site_fract_y
 _atom_site_fract_z
 _atom_site_occupancy
  Tm  Tm0  1  -0.00000000  0.50000000  0.50000000  1
  Tm  Tm1  1  0.00000000  -0.00000000  -0.00000000  1
  Tm  Tm2  1  0.50000000  0.17640475  0.67640475  1
  Tm  Tm3  1  0.50000000  0.82359525  0.32359525  1
  Tm  Tm4  1  0.50000000  0.32359525  0.17640475  1
  Tm  Tm5  1  0.50000000  0.67640475  0.82359525  1
  Tm  Tm6  1  0.50000000  0.38956199  0.88956199  1
  Tm  Tm7  1  0.50000000  0.61043801  0.11043801  1
  Tm  Tm8  1  0.50000000  0.11043801  0.38956199  1
  Tm  Tm9  1  0.50000000  0.88956199  0.61043801  1
  Co  Co0  1  -0.00000000  0.52496173  0.74465787  1
  Co  Co1  1  0.00000000  0.47503827  0.25534213  1
  Co  Co2  1  0.00000000  0.97503827  0.24465787  1
  Co  Co3  1  -0.00000000  0.02496173  0.75534213  1
  Co  Co4  1  -0.00000000  0.74465787  0.47503827  1
  Co  Co5  1  0.00000000  0.25534213  0.52496173  1
  Co  Co6  1  -0.00000000  0.24465787  0.02496173  1
  Co  Co7  1  0.00000000  0.75534213  0.97503827  1
  Ge  Ge0  1  0.00000000  0.06950674  0.56950674  1
  Ge  Ge1  1  -0.00000000  0.93049326  0.43049326  1
  Ge  Ge2  1  -0.00000000  0.43049326  0.06950674  1
  Ge  Ge3  1  0.00000000  0.56950674  0.93049326  1
  Ge  Ge4  1  -0.00000000  0.69955283  0.65546784  1
  Ge  Ge5  1  0.00000000  0.30044717  0.34453216  1
  Ge  Ge6  1  0.00000000  0.80044717  0.15546784  1
  Ge  Ge7  1  -0.00000000  0.19955283  0.84453216  1
  Ge  Ge8  1  0.00000000  0.65546784  0.30044717  1
  Ge  Ge9  1  -0.00000000  0.34453216  0.69955283  1
  Ge  Ge10  1  0.00000000  0.15546784  0.19955283  1
  Ge  Ge11  1  -0.00000000  0.84453216  0.80044717  1
  Ge  Ge12  1  0.50000000  0.50482188  0.66541395  1
  Ge  Ge13  1  0.50000000  0.49517812  0.33458605  1
  Ge  Ge14  1  0.50000000  0.99517812  0.16541395  1
  Ge  Ge15  1  0.50000000  0.00482188  0.83458605  1
  Ge  Ge16  1  0.50000000  0.66541395  0.49517812  1
  Ge  Ge17  1  0.50000000  0.33458605  0.50482188  1
  Ge  Ge18  1  0.50000000  0.16541395  0.00482188  1
  Ge  Ge19  1  0.50000000  0.83458605  0.99517812  1
loop_
_geom_bond_atom_site_label_1
_geom_bond_atom_site_label_2
_geom_bond_distance
_geom_bond_site_symmetry_2
Co0 Ge12 2.302644 1_455
Co0 Ge12 2.302644 1_555
Co0 Ge9 2.339777 1_555
Co0 Ge3 2.404160 1_555
Co0 Ge4 2.466482 1_555
Co0 Tm5 2.976624 1_455
Co0 Tm5 2.976624 1_555
Co0 Tm0 3.093938 1_555
Co0 Tm6 3.235585 1_555
Co0 Tm6 3.235585 1_455
Co1 Ge13 2.302644 1_455
Co1 Ge13 2.302644 1_555
Co1 Ge8 2.339777 1_555
Co1 Ge2 2.404160 1_555
Co1 Ge5 2.466482 1_555
Co1 Tm4 2.976624 1_555
Co1 Tm4 2.976624 1_455
Co1 Tm0 3.093938 1_555
Co1 Tm7 3.235585 1_455
Co1 Tm7 3.235585 1_555
Co2 Ge14 2.302644 1_555
Co2 Ge14 2.302644 1_455
Co2 Ge10 2.339777 1_565
Co2 Ge1 2.404160 1_555
Co2 Ge6 2.466482 1_555
Co2 Tm3 2.976624 1_555
Co2 Tm3 2.976624 1_455
Co2 Tm1 3.093938 1_565
Co2 Tm8 3.235585 1_465
Co2 Tm8 3.235585 1_565
Co3 Ge15 2.302644 1_555
Co3 Ge15 2.302644 1_455
Co3 Ge11 2.339777 1_545
Co3 Ge0 2.404160 1_555
Co3 Ge7 2.466482 1_555
Co3 Tm2 2.976624 1_455
Co3 Tm2 2.976624 1_555
Co3 Tm1 3.093938 1_556
Co3 Tm9 3.235585 1_545
Co3 Tm9 3.235585 1_445
Co4 Ge16 2.302644 1_555
Co4 Ge16 2.302644 1_455
Co4 Ge4 2.339777 1_555
Co4 Ge1 2.404160 1_555
Co4 Ge8 2.466482 1_555
Co4 Tm3 2.976624 1_555
Co4 Tm3 2.976624 1_455
Co4 Tm0 3.093938 1_555
Co4 Tm9 3.235585 1_455
Co4 Tm9 3.235585 1_555
Co5 Ge17 2.302644 1_555
Co5 Ge17 2.302644 1_455
Co5 Ge5 2.339777 1_555
Co5 Ge0 2.404160 1_555
Co5 Ge9 2.466482 1_555
Co5 Tm2 2.976624 1_455
Co5 Tm2 2.976624 1_555
Co5 Tm0 3.093938 1_555
Co5 Tm8 3.235585 1_555
Co5 Tm8 3.235585 1_455
Co6 Ge18 2.302644 1_455
Co6 Ge18 2.302644 1_555
Co6 Ge7 2.339777 1_554
Co6 Ge2 2.404160 1_555
Co6 Ge10 2.466482 1_555
Co6 Tm4 2.976624 1_555
Co6 Tm4 2.976624 1_455
Co6 Tm1 3.093938 1_555
Co6 Tm6 3.235585 1_554
Co6 Tm6 3.235585 1_454
Co7 Ge19 2.302644 1_555
Co7 Ge19 2.302644 1_455
Co7 Ge6 2.339777 1_556
Co7 Ge3 2.404160 1_555
Co7 Ge11 2.466482 1_555
Co7 Tm5 2.976624 1_455
Co7 Tm5 2.976624 1_555
Co7 Tm1 3.093938 1_566
Co7 Tm7 3.235585 1_556
Co7 Tm7 3.235585 1_456
Ge0 Ge1 2.473293 1_545
Ge0 Tm2 2.803803 1_555
Ge0 Tm2 2.803803 1_455
Ge0 Tm9 3.103893 1_445
Ge0 Tm9 3.103893 1_545
Ge0 Tm8 3.103893 1_455
Ge0 Tm8 3.103893 1_555
Ge1 Tm3 2.803803 1_455
Ge1 Tm3 2.803803 1_555
Ge1 Tm8 3.103893 1_465
Ge1 Tm9 3.103893 1_455
Ge1 Tm8 3.103893 1_565
Ge1 Tm9 3.103893 1_555
Ge2 Ge3 2.473293 1_554
Ge2 Tm4 2.803803 1_455
Ge2 Tm4 2.803803 1_555
Ge2 Tm6 3.103893 1_554
Ge2 Tm6 3.103893 1_454
Ge2 Tm7 3.103893 1_555
Ge2 Tm7 3.103893 1_455
Ge3 Tm5 2.803803 1_455
Ge3 Tm5 2.803803 1_555
Ge3 Tm7 3.103893 1_456
Ge3 Tm6 3.103893 1_555
Ge3 Tm7 3.103893 1_556
Ge3 Tm6 3.103893 1_455
Ge4 Tm5 2.966946 1_455
Ge4 Tm5 2.966946 1_555
Ge4 Tm0 3.182476 1_555
Ge4 Tm9 3.206122 1_455
Ge4 Tm9 3.206122 1_555
Ge5 Tm4 2.966946 1_555
Ge5 Tm4 2.966946 1_455
Ge5 Tm0 3.182476 1_555
Ge5 Tm8 3.206122 1_455
Ge5 Tm8 3.206122 1_555
Ge6 Ge8 2.579436 1_555
Ge6 Tm3 2.966946 1_555
Ge6 Tm3 2.966946 1_455
Ge6 Tm1 3.182476 1_565
Ge6 Tm7 3.206122 1_555
Ge6 Tm7 3.206122 1_455
Ge7 Ge9 2.579436 1_555
Ge7 Tm2 2.966946 1_455
Ge7 Tm2 2.966946 1_555
Ge7 Tm1 3.182476 1_556
Ge7 Tm6 3.206122 1_555
Ge7 Tm6 3.206122 1_455
Ge8 Tm3 2.966946 1_555
Ge8 Tm3 2.966946 1_455
Ge8 Tm0 3.182476 1_555
Ge8 Tm7 3.206122 1_555
Ge8 Tm7 3.206122 1_455
Ge9 Tm2 2.966946 1_455
Ge9 Tm2 2.966946 1_555
Ge9 Tm0 3.182476 1_555
Ge9 Tm6 3.206122 1_455
Ge9 Tm6 3.206122 1_555
Ge10 Ge5 2.579436 1_555
Ge10 Ge14 2.914622 1_445
Ge10 Ge14 2.914622 1_545
Ge10 Tm4 2.966946 1_555
Ge10 Tm4 2.966946 1_455
Ge10 Tm1 3.182476 1_555
Ge10 Tm8 3.206122 1_455
Ge10 Tm8 3.206122 1_555
Ge11 Ge4 2.579436 1_555
Ge11 Ge15 2.914622 1_565
Ge11 Ge15 2.914622 1_465
Ge11 Tm5 2.966946 1_455
Ge11 Tm5 2.966946 1_555
Ge11 Tm1 3.182476 1_566
Ge11 Tm9 3.206122 1_455
Ge11 Tm9 3.206122 1_555
Ge12 Ge9 2.914622 1_655
Ge12 Ge9 2.914622 1_555
Ge12 Tm0 2.928890 1_555
Ge12 Tm0 2.928890 1_655
Ge12 Tm5 2.935962 1_555
Ge12 Ge17 2.944254 1_555
Ge12 Ge16 2.944254 1_555
Ge12 Tm6 3.170907 1_555
Ge13 Ge8 2.914622 1_655
Ge13 Ge8 2.914622 1_555
Ge13 Tm0 2.928890 1_555
Ge13 Tm0 2.928890 1_655
Ge13 Tm4 2.935962 1_555
Ge13 Ge17 2.944254 1_555
Ge13 Ge16 2.944254 1_555
Ge13 Tm7 3.170907 1_555
Ge14 Tm1 2.928890 1_565
Ge14 Tm1 2.928890 1_665
Ge14 Tm3 2.935962 1_555
Ge14 Ge18 2.944254 1_565
Ge14 Ge19 2.944254 1_554
Ge14 Tm8 3.170907 1_565
Ge15 Tm1 2.928890 1_656
Ge15 Tm1 2.928890 1_556
Ge15 Tm2 2.935962 1_555
Ge15 Ge18 2.944254 1_556
Ge15 Ge19 2.944254 1_545
Ge15 Tm9 3.170907 1_545
Ge16 Ge4 2.914622 1_655
Ge16 Ge4 2.914622 1_555
Ge16 Tm0 2.928890 1_555
Ge16 Tm0 2.928890 1_655
Ge16 Tm3 2.935962 1_555
Ge16 Tm9 3.170907 1_555
Ge17 Ge5 2.914622 1_655
Ge17 Ge5 2.914622 1_555
Ge17 Tm0 2.928890 1_555
Ge17 Tm0 2.928890 1_655
Ge17 Tm2 2.935962 1_555
Ge17 Tm8 3.170907 1_555
Ge18 Ge7 2.914622 1_554
Ge18 Ge7 2.914622 1_654
Ge18 Tm1 2.928890 1_655
Ge18 Tm1 2.928890 1_555
Ge18 Tm4 2.935962 1_555
Ge18 Tm6 3.170907 1_554
Ge19 Ge6 2.914622 1_556
Ge19 Ge6 2.914622 1_656
Ge19 Tm1 2.928890 1_566
Ge19 Tm1 2.928890 1_666
Ge19 Tm5 2.935962 1_555
Ge19 Tm7 3.170907 1_556
