# generated using pymatgen
data_MgFe8(O7F)2
_symmetry_space_group_name_H-M   'P 1'
_cell_length_a   5.06410494
_cell_length_b   5.06418525
_cell_length_c   12.03085935
_cell_angle_alpha   91.96478055
_cell_angle_beta   91.85508237
_cell_angle_gamma   78.00717952
_symmetry_Int_Tables_number   1
_chemical_formula_structural   MgFe8(O7F)2
_chemical_formula_sum   'Mg1 Fe8 O14 F2'
_cell_volume   301.52588757
_cell_formula_units_Z   1
loop_
 _symmetry_equiv_pos_site_id
 _symmetry_equiv_pos_as_xyz
  1  'x, y, z'
loop_
 _atom_site_type_symbol
 _atom_site_label
 _atom_site_symmetry_multiplicity
 _atom_site_fract_x
 _atom_site_fract_y
 _atom_site_fract_z
 _atom_site_occupancy
  Mg  Mg0  1  0.24646100  0.24520600  0.37052900  1
  Fe  Fe0  1  0.08727700  0.06969300  0.99884100  1
  Fe  Fe1  1  0.95792800  0.96078200  0.23562500  1
  Fe  Fe2  1  0.00859300  0.00496800  0.51789300  1
  Fe  Fe3  1  0.89447100  0.87074500  0.75113600  1
  Fe  Fe4  1  0.51356600  0.50846700  0.11601300  1
  Fe  Fe5  1  0.43707400  0.42669200  0.64540700  1
  Fe  Fe6  1  0.45513200  0.50127600  0.87810900  1
  Fe  Fe7  1  0.59308900  0.59123000  0.35031000  1
  O  O0  1  0.21925400  0.83129700  0.12180100  1
  O  O1  1  0.16093600  0.75493000  0.63242800  1
  O  O2  1  0.15166600  0.80267200  0.87745100  1
  O  O3  1  0.23334500  0.84266600  0.37178000  1
  O  O4  1  0.32005700  0.32349700  0.99883300  1
  O  O5  1  0.39386100  0.38418400  0.24737800  1
  O  O6  1  0.26804100  0.25719900  0.52993600  1
  O  O7  1  0.29311800  0.31486100  0.77458900  1
  O  O8  1  0.63633300  0.65111600  0.99107600  1
  O  O9  1  0.72692400  0.71918400  0.22494500  1
  O  O10  1  0.63600500  0.63745100  0.75514800  1
  O  O11  1  0.83405100  0.21158400  0.11676800  1
  O  O12  1  0.84623900  0.23183800  0.37251500  1
  O  O13  1  0.76545400  0.15077200  0.63722900  1
  F  F0  1  0.74681600  0.74429400  0.47960800  1
  F  F1  1  0.78264200  0.17173900  0.87687400  1
loop_
_geom_bond_atom_site_label_1
_geom_bond_atom_site_label_2
_geom_bond_distance
_geom_bond_site_symmetry_2
Mg0 O5 1.899775 1_555
Mg0 O6 1.916978 1_555
Mg0 O12 2.042842 1_455
Mg0 O3 2.053950 1_545
Fe0 O4 1.916070 1_555
Fe0 O2 1.944198 1_545
Fe0 O0 1.953386 1_546
Fe0 O11 1.959241 1_456
Fe1 O9 1.859100 1_555
Fe1 O0 1.936933 1_655
Fe1 O11 1.945973 1_565
Fe1 O12 2.121105 1_565
Fe1 O3 2.135159 1_655
Fe2 O1 1.934463 1_545
Fe2 O13 1.945885 1_455
Fe2 O6 2.012783 1_555
Fe2 O3 2.168587 1_545
Fe2 O12 2.169604 1_455
Fe3 O10 1.939588 1_555
Fe3 O2 1.961084 1_655
Fe3 O1 1.985689 1_655
Fe3 O13 2.001535 1_565
Fe4 O8 1.867964 1_554
Fe4 O5 1.884191 1_555
Fe4 O11 1.969891 1_555
Fe4 O0 1.971121 1_555
Fe4 O4 2.006664 1_554
Fe4 O9 2.077316 1_555
Fe5 O6 1.883082 1_555
Fe5 O7 1.890216 1_555
Fe5 O13 1.939862 1_555
Fe5 O1 1.944386 1_555
Fe5 O10 2.039923 1_555
Fe6 O7 1.813994 1_555
Fe6 O8 1.844686 1_555
Fe6 O2 1.927870 1_555
Fe6 O4 1.948813 1_555
Fe6 O10 1.980693 1_555
Fe7 O9 1.862728 1_555
Fe7 O5 1.980033 1_555
Fe7 O3 2.012670 1_555
Fe7 O12 2.017142 1_555
F0 Fe7 1.927790 1_555
F0 Fe2 2.087643 1_665
F1 Fe0 2.091479 1_655
F1 Fe6 2.094194 1_555
F1 Fe3 2.114510 1_545
