# generated using pymatgen
data_La7SmTi3V5O24
_symmetry_space_group_name_H-M   'P 1'
_cell_length_a   7.91835481
_cell_length_b   7.91835481
_cell_length_c   7.91335074
_cell_angle_alpha   89.93964133
_cell_angle_beta   89.93964133
_cell_angle_gamma   89.72278795
_symmetry_Int_Tables_number   1
_chemical_formula_structural   La7SmTi3V5O24
_chemical_formula_sum   'La7 Sm1 Ti3 V5 O24'
_cell_volume   496.16344979
_cell_formula_units_Z   1
loop_
 _symmetry_equiv_pos_site_id
 _symmetry_equiv_pos_as_xyz
  1  'x, y, z'
loop_
 _atom_site_type_symbol
 _atom_site_label
 _atom_site_symmetry_multiplicity
 _atom_site_fract_x
 _atom_site_fract_y
 _atom_site_fract_z
 _atom_site_occupancy
  La  La0  1  0.74785200  0.25236500  0.74604500  1
  La  La1  1  0.74908800  0.74908800  0.74642800  1
  La  La2  1  0.74763900  0.25204300  0.25365600  1
  La  La3  1  0.74843900  0.74843900  0.25369800  1
  La  La4  1  0.25236500  0.74785200  0.74604500  1
  La  La5  1  0.25096900  0.25096900  0.25387100  1
  La  La6  1  0.25204300  0.74763900  0.25365600  1
  Sm  Sm0  1  0.25253000  0.25253000  0.74394800  1
  Ti  Ti0  1  0.00058700  0.00058700  0.99925000  1
  Ti  Ti1  1  0.00078500  0.49931500  0.99934900  1
  Ti  Ti2  1  0.49931500  0.00078500  0.99934900  1
  V  V0  1  0.00000300  0.00000300  0.49998900  1
  V  V1  1  0.00016500  0.49957200  0.50031200  1
  V  V2  1  0.50001900  0.50001900  0.00009200  1
  V  V3  1  0.49957200  0.00016500  0.50031200  1
  V  V4  1  0.49958100  0.49958100  0.50053200  1
  O  O0  1  0.74951100  0.00051800  0.99941600  1
  O  O1  1  0.75516900  0.49974500  0.99966700  1
  O  O2  1  0.74584900  0.00063800  0.50010800  1
  O  O3  1  0.75107800  0.50079700  0.49967000  1
  O  O4  1  0.25041600  0.00151200  0.99898400  1
  O  O5  1  0.24544200  0.49803600  0.99834800  1
  O  O6  1  0.25374500  0.00199200  0.50263200  1
  O  O7  1  0.24877900  0.49634900  0.50312100  1
  O  O8  1  0.00194400  0.00194400  0.75639400  1
  O  O9  1  0.00202100  0.49828600  0.75493500  1
  O  O10  1  0.99982800  0.99982800  0.24308200  1
  O  O11  1  0.00008800  0.49971500  0.24481200  1
  O  O12  1  0.49828600  0.00202100  0.75493500  1
  O  O13  1  0.49743400  0.49743400  0.74612600  1
  O  O14  1  0.49971500  0.00008800  0.24481200  1
  O  O15  1  0.50015600  0.50015600  0.25448000  1
  O  O16  1  0.00151200  0.25041600  0.99898400  1
  O  O17  1  0.00051800  0.74951100  0.99941600  1
  O  O18  1  0.00199200  0.25374500  0.50263200  1
  O  O19  1  0.00063800  0.74584900  0.50010800  1
  O  O20  1  0.49803600  0.24544200  0.99834800  1
  O  O21  1  0.49974500  0.75516900  0.99966700  1
  O  O22  1  0.49634900  0.24877900  0.50312100  1
  O  O23  1  0.50079700  0.75107800  0.49967000  1
loop_
_geom_bond_atom_site_label_1
_geom_bond_atom_site_label_2
_geom_bond_distance
_geom_bond_site_symmetry_2
La0 O13 2.767736 1_555
La0 O3 2.768368 1_555
La0 O22 2.769651 1_555
La0 O18 2.784251 1_655
La0 O2 2.787389 1_555
La0 O12 2.806601 1_555
La0 O1 2.806795 1_555
La0 O9 2.808195 1_655
La0 O20 2.809763 1_555
La0 O8 2.819254 1_655
La0 O0 2.826397 1_555
La0 O16 2.837090 1_655
La1 O23 2.772421 1_555
La1 O3 2.772421 1_555
La1 O2 2.785507 1_565
La1 O19 2.785507 1_655
La1 O1 2.812003 1_555
La1 O21 2.812003 1_555
La1 O9 2.814474 1_655
La1 O12 2.814474 1_565
La1 O13 2.824897 1_555
La1 O17 2.824916 1_655
La1 O0 2.824916 1_565
La1 O8 2.839598 1_665
La2 O15 2.768192 1_555
La2 O3 2.771149 1_555
La2 O2 2.785444 1_555
La2 O22 2.801640 1_555
La2 O14 2.806713 1_555
La2 O1 2.807651 1_554
La2 O11 2.807900 1_655
La2 O10 2.818622 1_545
La2 O18 2.819062 1_655
La2 O20 2.828513 1_554
La2 O0 2.832445 1_554
La2 O16 2.845002 1_654
La3 O23 2.761521 1_555
La3 O3 2.761521 1_555
La3 O15 2.787049 1_555
La3 O2 2.792558 1_565
La3 O19 2.792558 1_655
La3 O11 2.795796 1_655
La3 O14 2.795796 1_565
La3 O1 2.815835 1_554
La3 O21 2.815835 1_554
La3 O10 2.823043 1_555
La3 O0 2.832843 1_564
La3 O17 2.832843 1_654
La4 O13 2.767736 1_555
La4 O23 2.768368 1_555
La4 O7 2.769651 1_555
La4 O6 2.784251 1_565
La4 O19 2.787389 1_555
La4 O9 2.806601 1_555
La4 O21 2.806795 1_555
La4 O12 2.808195 1_565
La4 O5 2.809763 1_555
La4 O8 2.819254 1_565
La4 O17 2.826397 1_555
La4 O4 2.837090 1_565
La5 O7 2.770130 1_555
La5 O22 2.770130 1_555
La5 O6 2.784577 1_555
La5 O18 2.784577 1_555
La5 O14 2.791644 1_555
La5 O11 2.791644 1_555
La5 O15 2.797211 1_555
La5 O20 2.812287 1_554
La5 O5 2.812287 1_554
La5 O10 2.820553 1_445
La5 O4 2.824644 1_554
La5 O16 2.824644 1_554
La6 O15 2.768192 1_555
La6 O23 2.771149 1_555
La6 O19 2.785444 1_555
La6 O7 2.801640 1_555
La6 O11 2.806713 1_555
La6 O21 2.807651 1_554
La6 O14 2.807900 1_565
La6 O10 2.818622 1_455
La6 O6 2.819062 1_565
La6 O5 2.828513 1_554
La6 O17 2.832445 1_554
La6 O4 2.845002 1_564
O0 Ti2 1.981132 1_555
O0 Ti0 1.988111 1_655
O1 Ti1 1.944860 1_655
O1 V2 2.020358 1_556
O2 V3 1.950129 1_555
O2 V0 2.012463 1_655
O3 V1 1.972348 1_655
O3 V4 1.991517 1_555
O4 Ti2 1.970856 1_555
O4 Ti0 1.978283 1_555
O4 Sm0 2.831240 1_555
O5 Ti1 1.937266 1_555
O5 V2 2.016030 1_556
O5 Sm0 2.800366 1_555
O6 V3 1.946597 1_555
O6 V0 2.009488 1_555
O6 Sm0 2.755022 1_555
O7 V1 1.968804 1_555
O7 V4 1.986312 1_555
O7 Sm0 2.711450 1_555
O8 Ti0 1.921842 1_555
O8 V0 2.029172 1_555
O8 Sm0 2.814481 1_555
O9 Ti1 1.934174 1_555
O9 V1 2.015005 1_555
O9 Sm0 2.773409 1_555
O10 Ti0 1.929534 1_664
O10 V0 2.032999 1_665
O11 Ti1 1.942443 1_554
O11 V1 2.021861 1_555
O12 Ti2 1.934174 1_555
O12 V3 2.015005 1_555
O12 Sm0 2.773409 1_555
O13 V4 1.943585 1_555
O13 V2 2.009975 1_556
O13 Sm0 2.749201 1_555
O14 Ti2 1.942443 1_554
O14 V3 2.021861 1_555
O15 V4 1.947097 1_555
O15 V2 2.013064 1_555
O16 Ti1 1.970856 1_555
O16 Ti0 1.978283 1_555
O16 Sm0 2.831240 1_555
O17 Ti1 1.981132 1_555
O17 Ti0 1.988111 1_565
O18 V1 1.946597 1_555
O18 V0 2.009488 1_555
O18 Sm0 2.755022 1_555
O19 V1 1.950129 1_555
O19 V0 2.012463 1_565
O20 Ti2 1.937266 1_555
O20 V2 2.016030 1_556
O20 Sm0 2.800366 1_555
O21 Ti2 1.944860 1_565
O21 V2 2.020358 1_556
O22 V3 1.968804 1_555
O22 V4 1.986312 1_555
O22 Sm0 2.711450 1_555
O23 V3 1.972348 1_565
O23 V4 1.991517 1_555
