# generated using pymatgen
data_MoCl2O3
_symmetry_space_group_name_H-M   'P 1'
_cell_length_a   3.93503300
_cell_length_b   7.48653100
_cell_length_c   9.63743900
_cell_angle_alpha   90.00000000
_cell_angle_beta   90.00000000
_cell_angle_gamma   90.00000000
_symmetry_Int_Tables_number   1
_chemical_formula_structural   MoCl2O3
_chemical_formula_sum   'Mo2 Cl4 O6'
_cell_volume   283.91651024
_cell_formula_units_Z   2
loop_
 _symmetry_equiv_pos_site_id
 _symmetry_equiv_pos_as_xyz
  1  'x, y, z'
loop_
 _atom_site_type_symbol
 _atom_site_label
 _atom_site_symmetry_multiplicity
 _atom_site_fract_x
 _atom_site_fract_y
 _atom_site_fract_z
 _atom_site_occupancy
  Mo  Mo0  1  0.68038700  0.49617000  0.50000000  1
  Mo  Mo1  1  0.31961300  0.99617000  0.00000000  1
  Cl  Cl0  1  0.76447800  0.57567200  0.73280800  1
  Cl  Cl1  1  0.76447800  0.57567200  0.26719200  1
  Cl  Cl2  1  0.23552200  0.07567200  0.76719200  1
  Cl  Cl3  1  0.23552200  0.07567200  0.23280800  1
  O  O0  1  0.76881100  0.78741100  0.50000000  1
  O  O1  1  0.23118900  0.28741100  0.00000000  1
  O  O2  1  0.22921300  0.52872000  0.50000000  1
  O  O3  1  0.77078700  0.02872000  0.00000000  1
  O  O4  1  0.72800300  0.26935600  0.50000000  1
  O  O5  1  0.27199700  0.76935600  0.00000000  1
loop_
_geom_bond_atom_site_label_1
_geom_bond_atom_site_label_2
_geom_bond_distance
_geom_bond_site_symmetry_2
Mo0 O4 1.708356 1_555
Mo0 O2 1.792031 1_555
Mo0 O2 2.173353 1_655
Mo0 O0 2.207974 1_555
Mo1 O5 1.708356 1_555
Mo1 O3 1.792031 1_565
Mo1 O3 2.173353 1_465
Mo1 O1 2.207974 1_565
Cl0 Mo0 2.344743 1_555
Cl1 Mo0 2.344743 1_555
Cl2 Mo1 2.344743 1_546
Cl3 Mo1 2.344743 1_545
