# generated using pymatgen
data_KH5C3N2O5
_symmetry_space_group_name_H-M   'P 1'
_cell_length_a   7.78297900
_cell_length_b   12.85489400
_cell_length_c   7.69959000
_cell_angle_alpha   90.00000000
_cell_angle_beta   90.00000000
_cell_angle_gamma   90.00000000
_symmetry_Int_Tables_number   1
_chemical_formula_structural   KH5C3N2O5
_chemical_formula_sum   'K4 H20 C12 N8 O20'
_cell_volume   770.33912914
_cell_formula_units_Z   4
loop_
 _symmetry_equiv_pos_site_id
 _symmetry_equiv_pos_as_xyz
  1  'x, y, z'
loop_
 _atom_site_type_symbol
 _atom_site_label
 _atom_site_symmetry_multiplicity
 _atom_site_fract_x
 _atom_site_fract_y
 _atom_site_fract_z
 _atom_site_occupancy
  K  K0  1  0.50000000  0.00000000  0.74407900  1
  K  K1  1  0.00000000  0.50000000  0.75592100  1
  K  K2  1  0.50000000  0.00000000  0.25592100  1
  K  K3  1  0.00000000  0.50000000  0.24407900  1
  H  H0  1  0.11864300  0.09129900  0.50000000  1
  H  H1  1  0.88135700  0.90870100  0.50000000  1
  H  H2  1  0.61864300  0.40870100  0.00000000  1
  H  H3  1  0.38135700  0.59129900  0.00000000  1
  H  H4  1  0.63500000  0.21714800  0.50000000  1
  H  H5  1  0.36500000  0.78285200  0.50000000  1
  H  H6  1  0.13500000  0.28285200  0.00000000  1
  H  H7  1  0.86500000  0.71714800  0.00000000  1
  H  H8  1  0.82419100  0.29792000  0.50000000  1
  H  H9  1  0.17580900  0.70208000  0.50000000  1
  H  H10  1  0.32419100  0.20208000  0.00000000  1
  H  H11  1  0.67580900  0.79792000  0.00000000  1
  H  H12  1  0.18758300  0.95804000  0.00000000  1
  H  H13  1  0.81241700  0.04196000  0.00000000  1
  H  H14  1  0.68758300  0.54196000  0.50000000  1
  H  H15  1  0.31241700  0.45804000  0.50000000  1
  H  H16  1  0.12359200  0.07417100  0.00000000  1
  H  H17  1  0.87640800  0.92582900  0.00000000  1
  H  H18  1  0.62359200  0.42582900  0.50000000  1
  H  H19  1  0.37640800  0.57417100  0.50000000  1
  C  C0  1  0.32819100  0.24559200  0.50000000  1
  C  C1  1  0.67180900  0.75440800  0.50000000  1
  C  C2  1  0.82819100  0.25440800  0.00000000  1
  C  C3  1  0.17180900  0.74559200  0.00000000  1
  C  C4  1  0.12800000  0.25182200  0.50000000  1
  C  C5  1  0.87200000  0.74817800  0.50000000  1
  C  C6  1  0.62800000  0.24817800  0.00000000  1
  C  C7  1  0.37200000  0.75182200  0.00000000  1
  C  C8  1  0.86496900  0.14178100  0.50000000  1
  C  C9  1  0.13503100  0.85821900  0.50000000  1
  C  C10  1  0.36496900  0.35821900  0.00000000  1
  C  C11  1  0.63503100  0.64178100  0.00000000  1
  N  N0  1  0.04535200  0.15838700  0.50000000  1
  N  N1  1  0.95464800  0.84161300  0.50000000  1
  N  N2  1  0.54535200  0.34161300  0.00000000  1
  N  N3  1  0.45464800  0.65838700  0.00000000  1
  N  N4  1  0.76607900  0.22661200  0.50000000  1
  N  N5  1  0.23392100  0.77338800  0.50000000  1
  N  N6  1  0.26607900  0.27338800  0.00000000  1
  N  N7  1  0.73392100  0.72661200  0.00000000  1
  O  O0  1  0.39549500  0.15606100  0.50000000  1
  O  O1  1  0.60450500  0.84393900  0.50000000  1
  O  O2  1  0.89549500  0.34393900  0.00000000  1
  O  O3  1  0.10450500  0.65606100  0.00000000  1
  O  O4  1  0.40478300  0.33228700  0.50000000  1
  O  O5  1  0.59521700  0.66771300  0.50000000  1
  O  O6  1  0.90478300  0.16771300  0.00000000  1
  O  O7  1  0.09521700  0.83228700  0.00000000  1
  O  O8  1  0.05501200  0.33786400  0.50000000  1
  O  O9  1  0.94498800  0.66213600  0.50000000  1
  O  O10  1  0.55501200  0.16213600  0.00000000  1
  O  O11  1  0.44498800  0.83786400  0.00000000  1
  O  O12  1  0.80713100  0.05093700  0.50000000  1
  O  O13  1  0.19286900  0.94906300  0.50000000  1
  O  O14  1  0.30713100  0.44906300  0.00000000  1
  O  O15  1  0.69286900  0.55093700  0.00000000  1
  O  O16  1  0.22777900  0.03151900  0.00000000  1
  O  O17  1  0.77222100  0.96848000  0.00000000  1
  O  O18  1  0.72777900  0.46848100  0.50000000  1
  O  O19  1  0.27222100  0.53152000  0.50000000  1
loop_
_geom_bond_atom_site_label_1
_geom_bond_atom_site_label_2
_geom_bond_distance
_geom_bond_site_symmetry_2
K0 O1 2.866702 1_545
K0 O0 2.866702 1_555
K0 O10 2.900034 1_556
K0 O11 2.900034 1_546
K0 O16 2.921615 1_556
K0 O17 2.921616 1_546
K0 O12 3.110391 1_555
K0 O13 3.110391 1_545
K1 O3 2.866702 1_556
K1 O2 2.866702 1_456
K1 O8 2.900034 1_555
K1 O9 2.900034 1_455
K1 O18 2.921615 1_455
K1 O19 2.921616 1_555
K1 O14 3.110391 1_556
K1 O15 3.110391 1_456
K2 O0 2.866702 1_555
K2 O1 2.866702 1_545
K2 O10 2.900034 1_555
K2 O11 2.900034 1_545
K2 O16 2.921615 1_555
K2 O17 2.921616 1_545
K2 O12 3.110391 1_555
K2 O13 3.110391 1_545
K3 O3 2.866702 1_555
K3 O2 2.866702 1_455
K3 O8 2.900034 1_555
K3 O9 2.900034 1_455
K3 O18 2.921615 1_455
K3 O19 2.921616 1_555
K3 O14 3.110391 1_555
K3 O15 3.110391 1_455
H0 N0 1.033988 1_555
H1 N1 1.033988 1_555
H2 N2 1.033988 1_555
H3 N3 1.033988 1_555
H4 N4 1.027413 1_555
H5 N5 1.027413 1_555
H6 N6 1.027413 1_555
H7 N7 1.027413 1_555
H8 N4 1.022165 1_555
H9 N5 1.022165 1_555
H10 N6 1.022165 1_555
H11 N7 1.022165 1_555
H12 O16 0.995025 1_565
H13 O17 0.995037 1_545
H14 O18 0.995025 1_555
H15 O19 0.995037 1_555
H16 O16 0.978853 1_555
H17 O17 0.978846 1_555
H18 O18 0.978853 1_555
H19 O19 0.978846 1_555
C0 O4 1.263868 1_555
C0 O0 1.264512 1_555
C1 O5 1.263868 1_555
C1 O1 1.264512 1_555
C2 O6 1.263868 1_555
C2 O2 1.264512 1_555
C3 O7 1.263868 1_555
C3 O3 1.264512 1_555
C4 O8 1.243410 1_555
C4 N0 1.362498 1_555
C5 O9 1.243410 1_555
C5 N1 1.362498 1_555
C6 O10 1.243410 1_555
C6 N2 1.362498 1_555
C7 O11 1.243410 1_555
C7 N3 1.362498 1_555
C8 O12 1.251547 1_555
C8 N4 1.334747 1_555
C8 N0 1.420054 1_655
C9 O13 1.251547 1_555
C9 N5 1.334747 1_555
C9 N1 1.420054 1_455
C10 O14 1.251547 1_555
C10 N6 1.334747 1_555
C10 N2 1.420054 1_555
C11 O15 1.251547 1_555
C11 N7 1.334747 1_555
C11 N3 1.420054 1_555
