# generated using pymatgen
data_Ca11(CoN5)2
_symmetry_space_group_name_H-M   'P 1'
_cell_length_a   14.89342400
_cell_length_b   14.89342400
_cell_length_c   3.63429500
_cell_angle_alpha   90.00000000
_cell_angle_beta   90.00000000
_cell_angle_gamma   90.00000000
_symmetry_Int_Tables_number   1
_chemical_formula_structural   Ca11(CoN5)2
_chemical_formula_sum   'Ca22 Co4 N20'
_cell_volume   806.13779622
_cell_formula_units_Z   2
loop_
 _symmetry_equiv_pos_site_id
 _symmetry_equiv_pos_as_xyz
  1  'x, y, z'
loop_
 _atom_site_type_symbol
 _atom_site_label
 _atom_site_symmetry_multiplicity
 _atom_site_fract_x
 _atom_site_fract_y
 _atom_site_fract_z
 _atom_site_occupancy
  Ca  Ca0  1  0.50000000  0.50000000  0.50000000  1
  Ca  Ca1  1  0.00000000  0.00000000  0.00000000  1
  Ca  Ca2  1  0.97233000  0.79574600  0.50000000  1
  Ca  Ca3  1  0.02767000  0.20425400  0.50000000  1
  Ca  Ca4  1  0.52767000  0.29574600  0.00000000  1
  Ca  Ca5  1  0.47233000  0.70425400  0.00000000  1
  Ca  Ca6  1  0.79574600  0.97233000  0.50000000  1
  Ca  Ca7  1  0.20425400  0.02767000  0.50000000  1
  Ca  Ca8  1  0.29574600  0.52767000  0.00000000  1
  Ca  Ca9  1  0.70425400  0.47233000  0.00000000  1
  Ca  Ca10  1  0.65975300  0.65975300  0.50000000  1
  Ca  Ca11  1  0.34024700  0.34024700  0.50000000  1
  Ca  Ca12  1  0.84024700  0.15975300  0.00000000  1
  Ca  Ca13  1  0.15975300  0.84024700  0.00000000  1
  Ca  Ca14  1  0.37653300  0.89168400  0.50000000  1
  Ca  Ca15  1  0.62346700  0.10831600  0.50000000  1
  Ca  Ca16  1  0.12346700  0.39168400  0.00000000  1
  Ca  Ca17  1  0.87653300  0.60831600  0.00000000  1
  Ca  Ca18  1  0.89168400  0.37653300  0.50000000  1
  Ca  Ca19  1  0.10831600  0.62346700  0.50000000  1
  Ca  Ca20  1  0.39168400  0.12346700  0.00000000  1
  Ca  Ca21  1  0.60831600  0.87653300  0.00000000  1
  Co  Co0  1  0.30590200  0.69409800  0.50000000  1
  Co  Co1  1  0.69409800  0.30590200  0.50000000  1
  Co  Co2  1  0.19409800  0.19409800  0.00000000  1
  Co  Co3  1  0.80590200  0.80590200  0.00000000  1
  N  N0  1  0.08116200  0.91883800  0.50000000  1
  N  N1  1  0.91883800  0.08116200  0.50000000  1
  N  N2  1  0.41883800  0.41883800  0.00000000  1
  N  N3  1  0.58116200  0.58116200  0.00000000  1
  N  N4  1  0.47548600  0.18935700  0.50000000  1
  N  N5  1  0.52451400  0.81064300  0.50000000  1
  N  N6  1  0.02451400  0.68935700  0.00000000  1
  N  N7  1  0.97548600  0.31064300  0.00000000  1
  N  N8  1  0.18935700  0.47548600  0.50000000  1
  N  N9  1  0.81064300  0.52451400  0.50000000  1
  N  N10  1  0.68935700  0.02451400  0.00000000  1
  N  N11  1  0.31064300  0.97548600  0.00000000  1
  N  N12  1  0.22832800  0.77167200  0.50000000  1
  N  N13  1  0.77167200  0.22832800  0.50000000  1
  N  N14  1  0.27167200  0.27167200  0.00000000  1
  N  N15  1  0.72832800  0.72832800  0.00000000  1
  N  N16  1  0.38463300  0.61536700  0.50000000  1
  N  N17  1  0.61536700  0.38463300  0.50000000  1
  N  N18  1  0.11536700  0.11536700  0.00000000  1
  N  N19  1  0.88463300  0.88463300  0.00000000  1
loop_
_geom_bond_atom_site_label_1
_geom_bond_atom_site_label_2
_geom_bond_distance
_geom_bond_site_symmetry_2
Ca0 N16 2.429915 1_555
Ca0 N17 2.429915 1_555
Ca0 N3 2.494859 1_556
Ca0 N3 2.494859 1_555
Ca0 N2 2.494859 1_556
Ca0 N2 2.494859 1_555
Ca1 N19 2.429915 1_445
Ca1 N18 2.429915 1_555
Ca1 N1 2.494859 1_454
Ca1 N0 2.494859 1_545
Ca1 N1 2.494859 1_455
Ca1 N0 2.494859 1_544
Ca2 N0 2.447060 1_655
Ca2 N6 2.533119 1_655
Ca2 N6 2.533119 1_656
Ca2 N19 2.600091 1_555
Ca2 N19 2.600091 1_556
Ca3 N1 2.447060 1_455
Ca3 N7 2.533119 1_455
Ca3 N7 2.533119 1_456
Ca3 N18 2.600091 1_556
Ca3 N18 2.600091 1_555
Ca4 N2 2.447060 1_555
Ca4 N4 2.533119 1_555
Ca4 N4 2.533119 1_554
Ca4 N17 2.600091 1_555
Ca4 N17 2.600091 1_554
Ca5 N3 2.447060 1_555
Ca5 N5 2.533119 1_554
Ca5 N5 2.533119 1_555
Ca5 N16 2.600091 1_555
Ca5 N16 2.600091 1_554
Ca6 N1 2.447060 1_565
Ca6 N10 2.533119 1_566
Ca6 N10 2.533119 1_565
Ca6 N19 2.600091 1_555
Ca6 N19 2.600091 1_556
Ca7 N0 2.447060 1_545
Ca7 N11 2.533119 1_545
Ca7 N11 2.533119 1_546
Ca7 N18 2.600091 1_556
Ca7 N18 2.600091 1_555
Ca8 N2 2.447060 1_555
Ca8 N8 2.533119 1_555
Ca8 N8 2.533119 1_554
Ca8 N16 2.600091 1_554
Ca8 N16 2.600091 1_555
Ca9 N3 2.447060 1_555
Ca9 N9 2.533119 1_555
Ca9 N9 2.533119 1_554
Ca9 N17 2.600091 1_555
Ca9 N17 2.600091 1_554
Ca10 N15 2.321250 1_555
Ca10 N15 2.321250 1_556
Ca10 N3 2.458071 1_556
Ca10 N3 2.458071 1_555
Ca10 N5 3.017798 1_555
Ca10 N9 3.017798 1_555
Ca11 N14 2.321250 1_556
Ca11 N14 2.321250 1_555
Ca11 N2 2.458071 1_556
Ca11 N2 2.458071 1_555
Ca11 N4 3.017798 1_555
Ca11 N8 3.017798 1_555
Ca12 N13 2.321250 1_555
Ca12 N13 2.321250 1_554
Ca12 N1 2.458071 1_555
Ca12 N1 2.458071 1_554
Ca12 N7 3.017798 1_555
Ca12 N10 3.017798 1_555
Ca13 N12 2.321250 1_555
Ca13 N12 2.321250 1_554
Ca13 N0 2.458071 1_555
Ca13 N0 2.458071 1_554
Ca13 N11 3.017798 1_555
Ca13 N6 3.017798 1_555
Ca14 N11 2.413044 1_556
Ca14 N11 2.413044 1_555
Ca14 N5 2.512800 1_555
Ca14 N12 2.840219 1_555
Ca15 N10 2.413044 1_555
Ca15 N10 2.413044 1_556
Ca15 N4 2.512800 1_555
Ca15 N13 2.840219 1_555
Ca16 N8 2.413044 1_554
Ca16 N8 2.413044 1_555
Ca16 N7 2.512800 1_455
Ca16 N14 2.840219 1_555
Ca17 N9 2.413044 1_555
Ca17 N9 2.413044 1_554
Ca17 N6 2.512800 1_655
Ca17 N15 2.840219 1_555
Ca18 N7 2.413044 1_556
Ca18 N7 2.413044 1_555
Ca18 N9 2.512800 1_555
Ca18 N13 2.840219 1_555
Ca19 N6 2.413044 1_556
Ca19 N6 2.413044 1_555
Ca19 N8 2.512800 1_555
Ca19 N12 2.840219 1_555
Ca20 N4 2.413044 1_555
Ca20 N4 2.413044 1_554
Ca20 N11 2.512800 1_545
Ca20 N14 2.840219 1_555
Ca21 N5 2.413044 1_554
Ca21 N5 2.413044 1_555
Ca21 N10 2.512800 1_565
Ca21 N15 2.840219 1_555
Co0 N12 1.633901 1_555
Co0 N16 1.658270 1_555
Co1 N13 1.633901 1_555
Co1 N17 1.658270 1_555
Co2 N14 1.633901 1_555
Co2 N18 1.658270 1_555
Co3 N15 1.633901 1_555
Co3 N19 1.658270 1_555
