# generated using pymatgen
data_ThCo3
_symmetry_space_group_name_H-M   'P 1'
_cell_length_a   4.97016239
_cell_length_b   4.97016200
_cell_length_c   8.94755234
_cell_angle_alpha   73.87471418
_cell_angle_beta   73.87471568
_cell_angle_gamma   60.00000258
_symmetry_Int_Tables_number   1
_chemical_formula_structural   ThCo3
_chemical_formula_sum   'Th3 Co9'
_cell_volume   181.30431568
_cell_formula_units_Z   3
loop_
 _symmetry_equiv_pos_site_id
 _symmetry_equiv_pos_as_xyz
  1  'x, y, z'
loop_
 _atom_site_type_symbol
 _atom_site_label
 _atom_site_symmetry_multiplicity
 _atom_site_fract_x
 _atom_site_fract_y
 _atom_site_fract_z
 _atom_site_occupancy
  Th  Th0  1  0.86331100  0.86331100  0.41006700  1
  Th  Th1  1  0.13668900  0.13668900  0.58993300  1
  Th  Th2  1  0.00000000  0.00000000  0.00000000  1
  Co  Co0  1  0.42117800  0.42117800  0.23963700  1
  Co  Co1  1  0.91800700  0.42117800  0.23963700  1
  Co  Co2  1  0.42117800  0.91800700  0.23963700  1
  Co  Co3  1  0.57882200  0.57882200  0.76036300  1
  Co  Co4  1  0.08199300  0.57882200  0.76036300  1
  Co  Co5  1  0.57882200  0.08199300  0.76036300  1
  Co  Co6  1  0.66739700  0.66739700  0.99780800  1
  Co  Co7  1  0.33260300  0.33260300  0.00219200  1
  Co  Co8  1  0.50000000  0.50000000  0.50000000  1
loop_
_geom_bond_atom_site_label_1
_geom_bond_atom_site_label_2
_geom_bond_distance
_geom_bond_site_symmetry_2
Co0 Co2 2.469321 1_555
Co0 Co1 2.469321 1_555
Co0 Co7 2.476732 1_555
Co0 Co6 2.496577 1_554
Co0 Co2 2.500841 1_545
Co0 Co1 2.500842 1_455
Co0 Co8 2.627055 1_555
Co0 Th0 2.874361 1_545
Co0 Th0 2.874362 1_455
Co0 Th2 3.209408 1_565
Co0 Th2 3.209408 1_655
Co0 Th1 3.301231 1_555
Co1 Co2 2.469321 1_555
Co1 Co7 2.476735 1_655
Co1 Co6 2.496579 1_554
Co1 Co2 2.500842 1_645
Co1 Co8 2.627055 1_555
Co1 Th0 2.874361 1_555
Co1 Th0 2.874361 1_545
Co1 Th2 3.209408 1_655
Co1 Th2 3.209408 1_665
Co1 Th1 3.301231 1_655
Co2 Co7 2.476735 1_565
Co2 Co6 2.496579 1_554
Co2 Co8 2.627055 1_555
Co2 Th0 2.874361 1_555
Co2 Th0 2.874362 1_455
Co2 Th2 3.209408 1_565
Co2 Th2 3.209408 1_665
Co2 Th1 3.301231 1_565
Co3 Co5 2.469321 1_555
Co3 Co4 2.469321 1_555
Co3 Co6 2.476732 1_555
Co3 Co7 2.496577 1_556
Co3 Co5 2.500841 1_565
Co3 Co4 2.500842 1_655
Co3 Co8 2.627055 1_555
Co3 Th1 2.874361 1_565
Co3 Th1 2.874362 1_655
Co3 Th2 3.209408 1_656
Co3 Th2 3.209408 1_566
Co3 Th0 3.301231 1_555
Co4 Co5 2.469321 1_555
Co4 Co6 2.476735 1_455
Co4 Co7 2.496579 1_556
Co4 Co5 2.500842 1_465
Co4 Co8 2.627055 1_555
Co4 Th1 2.874361 1_565
Co4 Th1 2.874361 1_555
Co4 Th2 3.209408 1_556
Co4 Th2 3.209408 1_566
Co4 Th0 3.301231 1_455
Co5 Co6 2.476735 1_545
Co5 Co7 2.496579 1_556
Co5 Co8 2.627055 1_555
Co5 Th1 2.874361 1_555
Co5 Th1 2.874362 1_655
Co5 Th2 3.209408 1_656
Co5 Th2 3.209408 1_556
Co5 Th0 3.301231 1_545
Co6 Th2 2.869583 1_656
Co6 Th2 2.869583 1_566
Co6 Th2 2.869587 1_666
Co6 Co7 2.869759 1_556
Co6 Co7 2.869768 1_566
Co6 Co7 2.869768 1_656
Co7 Th2 2.869583 1_565
Co7 Th2 2.869583 1_655
Co7 Th2 2.869587 1_555
Co8 Th0 2.969021 1_555
Co8 Th1 2.969021 1_565
Co8 Th1 2.969021 1_555
Co8 Th0 2.969021 1_545
Co8 Th1 2.969021 1_655
Co8 Th0 2.969021 1_455
