# generated using pymatgen
data_Ca6Fe(CoO4)3
_symmetry_space_group_name_H-M   'P 1'
_cell_length_a   6.34215575
_cell_length_b   6.34215575
_cell_length_c   12.68417324
_cell_angle_alpha   92.49021402
_cell_angle_beta   92.49021402
_cell_angle_gamma   92.63190423
_symmetry_Int_Tables_number   1
_chemical_formula_structural   Ca6Fe(CoO4)3
_chemical_formula_sum   'Ca12 Fe2 Co6 O24'
_cell_volume   508.64712489
_cell_formula_units_Z   2
loop_
 _symmetry_equiv_pos_site_id
 _symmetry_equiv_pos_as_xyz
  1  'x, y, z'
loop_
 _atom_site_type_symbol
 _atom_site_label
 _atom_site_symmetry_multiplicity
 _atom_site_fract_x
 _atom_site_fract_y
 _atom_site_fract_z
 _atom_site_occupancy
  Ca  Ca0  1  0.61984900  0.88015100  0.12500000  1
  Ca  Ca1  1  0.61984900  0.88015100  0.62500000  1
  Ca  Ca2  1  0.88281000  0.25035400  0.30932500  1
  Ca  Ca3  1  0.88281000  0.25035400  0.80932500  1
  Ca  Ca4  1  0.24964600  0.61719000  0.44067500  1
  Ca  Ca5  1  0.24964600  0.61719000  0.94067500  1
  Ca  Ca6  1  0.11970100  0.74925500  0.19038900  1
  Ca  Ca7  1  0.11970100  0.74925500  0.69038900  1
  Ca  Ca8  1  0.75074500  0.38029900  0.05961100  1
  Ca  Ca9  1  0.75074500  0.38029900  0.55961100  1
  Ca  Ca10  1  0.37946100  0.12053900  0.37500000  1
  Ca  Ca11  1  0.37946100  0.12053900  0.87500000  1
  Fe  Fe0  1  0.75020900  0.74979100  0.37500000  1
  Fe  Fe1  1  0.75020900  0.74979100  0.87500000  1
  Co  Co0  1  0.49924100  0.50002800  0.24987800  1
  Co  Co1  1  0.49924100  0.50002800  0.74987800  1
  Co  Co2  1  0.99997200  0.00075900  0.00012200  1
  Co  Co3  1  0.99997200  0.00075900  0.50012200  1
  Co  Co4  1  0.25380900  0.24619100  0.12500000  1
  Co  Co5  1  0.25380900  0.24619100  0.62500000  1
  O  O0  1  0.53569400  0.20935900  0.20330700  1
  O  O1  1  0.53569400  0.20935900  0.70330700  1
  O  O2  1  0.20988100  0.41152700  0.26888300  1
  O  O3  1  0.20988100  0.41152700  0.76888300  1
  O  O4  1  0.40699400  0.53784100  0.10576400  1
  O  O5  1  0.40699400  0.53784100  0.60576400  1
  O  O6  1  0.03843000  0.90871100  0.35462600  1
  O  O7  1  0.03843000  0.90871100  0.85462600  1
  O  O8  1  0.90860500  0.70960100  0.01903500  1
  O  O9  1  0.90860500  0.70960100  0.51903500  1
  O  O10  1  0.70945300  0.03746100  0.45415600  1
  O  O11  1  0.70945300  0.03746100  0.95415600  1
  O  O12  1  0.46253900  0.79054700  0.29584400  1
  O  O13  1  0.46253900  0.79054700  0.79584400  1
  O  O14  1  0.79039900  0.59139500  0.23096500  1
  O  O15  1  0.79039900  0.59139500  0.73096500  1
  O  O16  1  0.59128900  0.46157000  0.39537400  1
  O  O17  1  0.59128900  0.46157000  0.89537400  1
  O  O18  1  0.96215900  0.09300600  0.14423600  1
  O  O19  1  0.96215900  0.09300600  0.64423600  1
  O  O20  1  0.08847300  0.29011900  0.48111700  1
  O  O21  1  0.08847300  0.29011900  0.98111700  1
  O  O22  1  0.29064100  0.96430600  0.04669300  1
  O  O23  1  0.29064100  0.96430600  0.54669300  1
loop_
_geom_bond_atom_site_label_1
_geom_bond_atom_site_label_2
_geom_bond_distance
_geom_bond_site_symmetry_2
Ca0 O22 2.366200 1_555
Ca0 O0 2.366200 1_565
Ca0 O4 2.500257 1_555
Ca0 O18 2.500257 1_565
Ca0 O12 2.501417 1_555
Ca0 O11 2.501417 1_564
Ca0 O14 2.569006 1_555
Ca0 O8 2.569006 1_555
Ca1 O23 2.366200 1_555
Ca1 O1 2.366200 1_565
Ca1 O5 2.500257 1_555
Ca1 O19 2.500257 1_565
Ca1 O13 2.501417 1_555
Ca1 O10 2.501417 1_565
Ca1 O15 2.569006 1_555
Ca1 O9 2.569006 1_555
Ca2 O2 2.356729 1_655
Ca2 O18 2.364345 1_555
Ca2 O20 2.487607 1_655
Ca2 O6 2.500880 1_645
Ca2 O14 2.502458 1_555
Ca2 O0 2.526301 1_555
Ca2 O10 2.580962 1_555
Ca2 O16 2.584532 1_555
Ca3 O3 2.356729 1_655
Ca3 O19 2.364345 1_555
Ca3 O21 2.487607 1_655
Ca3 O7 2.500880 1_645
Ca3 O15 2.502458 1_555
Ca3 O1 2.526301 1_555
Ca3 O11 2.580962 1_555
Ca3 O17 2.584532 1_555
Ca4 O20 2.356729 1_555
Ca4 O5 2.364345 1_555
Ca4 O2 2.487607 1_555
Ca4 O16 2.500880 1_555
Ca4 O9 2.502458 1_455
Ca4 O23 2.526301 1_555
Ca4 O12 2.580962 1_555
Ca4 O6 2.584532 1_555
Ca5 O21 2.356729 1_555
Ca5 O4 2.364345 1_556
Ca5 O3 2.487607 1_555
Ca5 O17 2.500880 1_555
Ca5 O8 2.502458 1_456
Ca5 O22 2.526301 1_556
Ca5 O13 2.580962 1_555
Ca5 O7 2.584532 1_555
Ca6 O14 2.361177 1_455
Ca6 O6 2.363528 1_555
Ca6 O2 2.480840 1_555
Ca6 O8 2.499679 1_455
Ca6 O12 2.500007 1_555
Ca6 O18 2.520730 1_465
Ca6 O4 2.557172 1_555
Ca6 O22 2.570907 1_555
Ca7 O15 2.361177 1_455
Ca7 O7 2.363528 1_555
Ca7 O3 2.480840 1_555
Ca7 O9 2.499679 1_455
Ca7 O13 2.500007 1_555
Ca7 O19 2.520730 1_465
Ca7 O5 2.557172 1_555
Ca7 O23 2.570907 1_555
Ca8 O8 2.361177 1_555
Ca8 O17 2.363528 1_554
Ca8 O21 2.480840 1_654
Ca8 O14 2.499679 1_555
Ca8 O11 2.500007 1_554
Ca8 O4 2.520730 1_555
Ca8 O18 2.557172 1_555
Ca8 O0 2.570907 1_555
Ca9 O9 2.361177 1_555
Ca9 O16 2.363528 1_555
Ca9 O20 2.480840 1_655
Ca9 O15 2.499679 1_555
Ca9 O10 2.500007 1_555
Ca9 O5 2.520730 1_555
Ca9 O19 2.557172 1_555
Ca9 O1 2.570907 1_555
Ca10 O10 2.372847 1_555
Ca10 O12 2.372847 1_545
Ca10 O16 2.490793 1_555
Ca10 O6 2.490793 1_545
Ca10 O23 2.506932 1_545
Ca10 O0 2.506932 1_555
Ca10 O20 2.578104 1_555
Ca10 O2 2.578104 1_555
Ca11 O11 2.372847 1_555
Ca11 O13 2.372847 1_545
Ca11 O17 2.490793 1_555
Ca11 O7 2.490793 1_545
Ca11 O1 2.506932 1_555
Ca11 O22 2.506932 1_546
Ca11 O21 2.578104 1_555
Ca11 O3 2.578104 1_555
Fe0 O10 2.076097 1_565
Fe0 O12 2.076097 1_555
Fe0 O9 2.077603 1_555
Fe0 O14 2.077603 1_555
Fe0 O6 2.078099 1_655
Fe0 O16 2.078099 1_555
Fe1 O11 2.076097 1_565
Fe1 O13 2.076097 1_555
Fe1 O8 2.077603 1_556
Fe1 O15 2.077603 1_555
Fe1 O7 2.078099 1_655
Fe1 O17 2.078099 1_555
Co0 O2 1.922652 1_555
Co0 O4 1.923356 1_555
Co0 O12 1.935670 1_555
Co0 O14 1.937899 1_555
Co0 O0 1.938336 1_555
Co0 O16 1.940289 1_555
Co1 O3 1.922652 1_555
Co1 O5 1.923356 1_555
Co1 O13 1.935670 1_555
Co1 O15 1.937899 1_555
Co1 O1 1.938336 1_555
Co1 O17 1.940289 1_555
Co2 O21 1.922652 1_654
Co2 O18 1.923356 1_555
Co2 O11 1.935670 1_554
Co2 O8 1.937899 1_545
Co2 O22 1.938336 1_645
Co2 O7 1.940289 1_644
Co3 O20 1.922652 1_655
Co3 O19 1.923356 1_555
Co3 O10 1.935670 1_555
Co3 O9 1.937899 1_545
Co3 O23 1.938336 1_645
Co3 O6 1.940289 1_645
Co4 O0 2.035048 1_555
Co4 O22 2.035048 1_545
Co4 O4 2.078346 1_555
Co4 O18 2.078346 1_455
Co4 O2 2.100625 1_555
Co4 O21 2.100625 1_554
Co5 O23 2.035048 1_545
Co5 O1 2.035048 1_555
Co5 O5 2.078346 1_555
Co5 O19 2.078346 1_455
Co5 O3 2.100625 1_555
Co5 O20 2.100625 1_555
