# generated using pymatgen
data_MgInNi2
_symmetry_space_group_name_H-M   'P 1'
_cell_length_a   4.32681004
_cell_length_b   4.32680959
_cell_length_c   4.32680990
_cell_angle_alpha   59.99999002
_cell_angle_beta   59.99999340
_cell_angle_gamma   60.00000104
_symmetry_Int_Tables_number   1
_chemical_formula_structural   MgInNi2
_chemical_formula_sum   'Mg1 In1 Ni2'
_cell_volume   57.27807033
_cell_formula_units_Z   1
loop_
 _symmetry_equiv_pos_site_id
 _symmetry_equiv_pos_as_xyz
  1  'x, y, z'
loop_
 _atom_site_type_symbol
 _atom_site_label
 _atom_site_symmetry_multiplicity
 _atom_site_fract_x
 _atom_site_fract_y
 _atom_site_fract_z
 _atom_site_occupancy
  Mg  Mg0  1  0.50000000  0.50000000  0.50000000  1
  In  In0  1  -0.00000000  -0.00000000  0.00000000  1
  Ni  Ni0  1  0.75000000  0.75000000  0.75000000  1
  Ni  Ni1  1  0.25000000  0.25000000  0.25000000  1
loop_
_geom_bond_atom_site_label_1
_geom_bond_atom_site_label_2
_geom_bond_distance
_geom_bond_site_symmetry_2
Mg0 Ni0 2.649619 1_554
Mg0 Ni1 2.649619 1_556
Mg0 Ni0 2.649619 1_545
Mg0 Ni1 2.649619 1_565
Mg0 Ni1 2.649619 1_655
Mg0 Ni0 2.649619 1_455
Mg0 Ni0 2.649619 1_555
Mg0 Ni1 2.649619 1_555
In0 Ni1 2.649619 1_554
In0 Ni0 2.649619 1_445
In0 Ni0 2.649619 1_454
In0 Ni1 2.649619 1_545
In0 Ni0 2.649619 1_544
In0 Ni1 2.649619 1_455
In0 Ni0 2.649619 1_444
In0 Ni1 2.649619 1_555
In0 Mg0 3.059516 1_554
In0 Mg0 3.059516 1_445
In0 Mg0 3.059517 1_454
In0 Mg0 3.059517 1_455
In0 Mg0 3.059517 1_544
In0 Mg0 3.059517 1_545
