# generated using pymatgen
data_Ca4IrN4
_symmetry_space_group_name_H-M   'P 1'
_cell_length_a   11.20569700
_cell_length_b   3.48318200
_cell_length_c   15.83006900
_cell_angle_alpha   90.00000000
_cell_angle_beta   90.00000000
_cell_angle_gamma   90.00000000
_symmetry_Int_Tables_number   1
_chemical_formula_structural   Ca4IrN4
_chemical_formula_sum   'Ca16 Ir4 N16'
_cell_volume   617.87105462
_cell_formula_units_Z   4
loop_
 _symmetry_equiv_pos_site_id
 _symmetry_equiv_pos_as_xyz
  1  'x, y, z'
loop_
 _atom_site_type_symbol
 _atom_site_label
 _atom_site_symmetry_multiplicity
 _atom_site_fract_x
 _atom_site_fract_y
 _atom_site_fract_z
 _atom_site_occupancy
  Ca  Ca0  1  0.08178000  0.25000000  0.15726800  1
  Ca  Ca1  1  0.58178000  0.25000000  0.34273200  1
  Ca  Ca2  1  0.91822000  0.75000000  0.84273200  1
  Ca  Ca3  1  0.41822000  0.75000000  0.65726800  1
  Ca  Ca4  1  0.82943200  0.25000000  0.02604500  1
  Ca  Ca5  1  0.32943200  0.25000000  0.47395500  1
  Ca  Ca6  1  0.17056800  0.75000000  0.97395500  1
  Ca  Ca7  1  0.67056800  0.75000000  0.52604500  1
  Ca  Ca8  1  0.46104500  0.25000000  0.89677100  1
  Ca  Ca9  1  0.96104500  0.25000000  0.60322900  1
  Ca  Ca10  1  0.53895500  0.75000000  0.10322900  1
  Ca  Ca11  1  0.03895500  0.75000000  0.39677100  1
  Ca  Ca12  1  0.20436000  0.25000000  0.76413200  1
  Ca  Ca13  1  0.70436000  0.25000000  0.73586800  1
  Ca  Ca14  1  0.79564000  0.75000000  0.23586800  1
  Ca  Ca15  1  0.29564000  0.75000000  0.26413200  1
  Ir  Ir0  1  0.32112600  0.25000000  0.09818200  1
  Ir  Ir1  1  0.82112600  0.25000000  0.40181800  1
  Ir  Ir2  1  0.67887400  0.75000000  0.90181800  1
  Ir  Ir3  1  0.17887400  0.75000000  0.59818200  1
  N  N0  1  0.69671000  0.25000000  0.13716600  1
  N  N1  1  0.19671000  0.25000000  0.36283400  1
  N  N2  1  0.30329000  0.75000000  0.86283400  1
  N  N3  1  0.80329000  0.75000000  0.63716600  1
  N  N4  1  0.07351600  0.25000000  0.87326900  1
  N  N5  1  0.57351600  0.25000000  0.62673100  1
  N  N6  1  0.92648400  0.75000000  0.12673100  1
  N  N7  1  0.42648400  0.75000000  0.37326900  1
  N  N8  1  0.99691300  0.25000000  0.93271600  1
  N  N9  1  0.49691300  0.25000000  0.56728400  1
  N  N10  1  0.00308700  0.75000000  0.06728400  1
  N  N11  1  0.50308700  0.75000000  0.43271600  1
  N  N12  1  0.63629100  0.25000000  0.20679600  1
  N  N13  1  0.13629100  0.25000000  0.29320400  1
  N  N14  1  0.36370900  0.75000000  0.79320400  1
  N  N15  1  0.86370900  0.75000000  0.70679600  1
loop_
_geom_bond_atom_site_label_1
_geom_bond_atom_site_label_2
_geom_bond_distance
_geom_bond_site_symmetry_2
Ca0 N13 2.236893 1_555
Ca0 N10 2.416567 1_545
Ca0 N10 2.416567 1_555
Ca0 N6 2.509006 1_455
Ca0 N6 2.509006 1_445
Ca0 Ir0 2.840455 1_555
Ca1 N12 2.236893 1_555
Ca1 N11 2.416567 1_545
Ca1 N11 2.416567 1_555
Ca1 N7 2.509006 1_545
Ca1 N7 2.509006 1_555
Ca1 Ir1 2.840455 1_555
Ca2 N15 2.236893 1_555
Ca2 N8 2.416567 1_565
Ca2 N8 2.416567 1_555
Ca2 N4 2.509006 1_655
Ca2 N4 2.509006 1_665
Ca2 Ir2 2.840455 1_555
Ca3 N14 2.236893 1_555
Ca3 N9 2.416567 1_565
Ca3 N9 2.416567 1_555
Ca3 N5 2.509006 1_555
Ca3 N5 2.509006 1_565
Ca3 Ir3 2.840455 1_555
Ca4 N0 2.303510 1_555
Ca4 N8 2.388490 1_554
Ca4 N6 2.599285 1_555
Ca4 N6 2.599285 1_545
Ca4 N10 2.691827 1_655
Ca4 N10 2.691827 1_645
Ca4 Ir2 3.121967 1_544
Ca4 Ir2 3.121967 1_554
Ca5 N1 2.303510 1_555
Ca5 N9 2.388490 1_555
Ca5 N7 2.599285 1_545
Ca5 N7 2.599285 1_555
Ca5 N11 2.691827 1_545
Ca5 N11 2.691827 1_555
Ca5 Ir3 3.121967 1_555
Ca5 Ir3 3.121967 1_545
Ca6 N2 2.303510 1_555
Ca6 N10 2.388490 1_556
Ca6 N4 2.599285 1_555
Ca6 N4 2.599285 1_565
Ca6 N8 2.691827 1_465
Ca6 N8 2.691827 1_455
Ca6 Ir0 3.121967 1_556
Ca6 Ir0 3.121967 1_566
Ca7 N3 2.303510 1_555
Ca7 N11 2.388490 1_555
Ca7 N5 2.599285 1_565
Ca7 N5 2.599285 1_555
Ca7 N9 2.691827 1_555
Ca7 N9 2.691827 1_565
Ca7 Ir1 3.121967 1_555
Ca7 Ir1 3.121967 1_565
Ca8 N2 2.539037 1_545
Ca8 N2 2.539037 1_555
Ca8 N14 2.628816 1_555
Ca8 N14 2.628816 1_545
Ca8 Ir2 2.999607 1_555
Ca8 Ir2 2.999607 1_545
Ca8 Ir0 3.553006 1_556
Ca9 N3 2.539037 1_545
Ca9 N3 2.539037 1_555
Ca9 N15 2.628816 1_545
Ca9 N15 2.628816 1_555
Ca9 Ir3 2.999607 1_655
Ca9 Ir3 2.999607 1_645
Ca9 Ir1 3.553006 1_555
Ca10 N0 2.539037 1_555
Ca10 N0 2.539037 1_565
Ca10 N12 2.628816 1_555
Ca10 N12 2.628816 1_565
Ca10 Ir0 2.999607 1_555
Ca10 Ir0 2.999607 1_565
Ca10 Ir2 3.553006 1_554
Ca11 N1 2.539037 1_555
Ca11 N1 2.539037 1_565
Ca11 N13 2.628816 1_555
Ca11 N13 2.628816 1_565
Ca11 Ir1 2.999607 1_465
Ca11 Ir1 2.999607 1_455
Ca11 Ir3 3.553006 1_555
Ca12 N4 2.265943 1_555
Ca12 N14 2.536407 1_555
Ca12 N14 2.536407 1_545
Ca12 N2 2.589086 1_555
Ca12 N2 2.589086 1_545
Ca12 Ir3 3.164779 1_555
Ca12 Ir3 3.164779 1_545
Ca13 N5 2.265943 1_555
Ca13 N15 2.536407 1_555
Ca13 N15 2.536407 1_545
Ca13 N3 2.589086 1_545
Ca13 N3 2.589086 1_555
Ca13 Ir2 3.164779 1_545
Ca13 Ir2 3.164779 1_555
Ca14 N6 2.265943 1_555
Ca14 N12 2.536407 1_565
Ca14 N12 2.536407 1_555
Ca14 N0 2.589086 1_565
Ca14 N0 2.589086 1_555
Ca14 Ir1 3.164779 1_555
Ca14 Ir1 3.164779 1_565
Ca15 N7 2.265943 1_555
Ca15 N13 2.536407 1_555
Ca15 N13 2.536407 1_565
Ca15 N1 2.589086 1_555
Ca15 N1 2.589086 1_565
Ca15 Ir0 3.164779 1_565
Ca15 Ir0 3.164779 1_555
N0 N12 1.293572 1_555
N1 N13 1.293572 1_555
N4 N8 1.273738 1_455
N5 N9 1.273738 1_555
N10 N6 1.273738 1_455
N11 N7 1.273738 1_555
N14 N2 1.293572 1_555
N15 N3 1.293572 1_555
