# generated using pymatgen
data_CsAlVP2(HO5)2
_symmetry_space_group_name_H-M   'P 1'
_cell_length_a   8.13334800
_cell_length_b   8.24665400
_cell_length_c   14.39562862
_cell_angle_alpha   90.00000000
_cell_angle_beta   106.32435250
_cell_angle_gamma   90.00000000
_symmetry_Int_Tables_number   1
_chemical_formula_structural   CsAlVP2(HO5)2
_chemical_formula_sum   'Cs4 Al4 V4 P8 H8 O40'
_cell_volume   926.63112224
_cell_formula_units_Z   4
loop_
 _symmetry_equiv_pos_site_id
 _symmetry_equiv_pos_as_xyz
  1  'x, y, z'
loop_
 _atom_site_type_symbol
 _atom_site_label
 _atom_site_symmetry_multiplicity
 _atom_site_fract_x
 _atom_site_fract_y
 _atom_site_fract_z
 _atom_site_occupancy
  Cs  Cs0  1  0.82854700  0.96508600  0.70971900  1
  Cs  Cs1  1  0.17145300  0.46508600  0.79028100  1
  Cs  Cs2  1  0.17145300  0.03491400  0.29028100  1
  Cs  Cs3  1  0.82854700  0.53491400  0.20971900  1
  Al  Al0  1  0.78407200  0.96610700  0.03147200  1
  Al  Al1  1  0.21592800  0.46610700  0.46852800  1
  Al  Al2  1  0.21592800  0.03389300  0.96852800  1
  Al  Al3  1  0.78407200  0.53389300  0.53147200  1
  V  V0  1  0.28578900  0.94634700  0.64122100  1
  V  V1  1  0.71421100  0.44634700  0.85877900  1
  V  V2  1  0.71421100  0.05365300  0.35877900  1
  V  V3  1  0.28578900  0.55365300  0.14122100  1
  P  P0  1  0.00548300  0.22508400  0.54068200  1
  P  P1  1  0.99451700  0.72508400  0.95931800  1
  P  P2  1  0.99451700  0.77491600  0.45931800  1
  P  P3  1  0.00548300  0.27491600  0.04068200  1
  P  P4  1  0.49761400  0.10727900  0.85508100  1
  P  P5  1  0.50238600  0.60727900  0.64491900  1
  P  P6  1  0.50238600  0.89272100  0.14491900  1
  P  P7  1  0.49761400  0.39272100  0.35508100  1
  H  H0  1  0.47482600  0.21227600  0.60794800  1
  H  H1  1  0.52517400  0.71227600  0.89205200  1
  H  H2  1  0.52517400  0.78772400  0.39205200  1
  H  H3  1  0.47482600  0.28772400  0.10794800  1
  H  H4  1  0.47374100  0.15079700  0.50332700  1
  H  H5  1  0.52625900  0.65079700  0.99667300  1
  H  H6  1  0.52625900  0.84920300  0.49667300  1
  H  H7  1  0.47374100  0.34920300  0.00332700  1
  O  O0  1  0.10274100  0.28250500  0.46706900  1
  O  O1  1  0.89725900  0.78250500  0.03293100  1
  O  O2  1  0.89725900  0.71749500  0.53293100  1
  O  O3  1  0.10274100  0.21749500  0.96706900  1
  O  O4  1  0.93619300  0.38167100  0.57879000  1
  O  O5  1  0.06380700  0.88167100  0.92121000  1
  O  O6  1  0.06380700  0.61832900  0.42121000  1
  O  O7  1  0.93619300  0.11832900  0.07879000  1
  O  O8  1  0.85406000  0.11474800  0.49284900  1
  O  O9  1  0.14594000  0.61474800  0.00715100  1
  O  O10  1  0.14594000  0.88525200  0.50715100  1
  O  O11  1  0.85406000  0.38525200  0.99284900  1
  O  O12  1  0.13025200  0.14530000  0.62967600  1
  O  O13  1  0.86974800  0.64530000  0.87032400  1
  O  O14  1  0.86974800  0.85470000  0.37032400  1
  O  O15  1  0.13025200  0.35470000  0.12967600  1
  O  O16  1  0.45646100  0.11780900  0.56570700  1
  O  O17  1  0.54353900  0.61780900  0.93429300  1
  O  O18  1  0.54353900  0.88219100  0.43429300  1
  O  O19  1  0.45646100  0.38219100  0.06570700  1
  O  O20  1  0.47323200  0.78994700  0.62222900  1
  O  O21  1  0.52676800  0.28994700  0.87777100  1
  O  O22  1  0.52676800  0.21005300  0.37777100  1
  O  O23  1  0.47323200  0.71005300  0.12222900  1
  O  O24  1  0.20383500  0.82817900  0.70753400  1
  O  O25  1  0.79616500  0.32817900  0.79246600  1
  O  O26  1  0.79616500  0.17182100  0.29246600  1
  O  O27  1  0.20383500  0.67182100  0.20753400  1
  O  O28  1  0.65613400  0.00635800  0.91314400  1
  O  O29  1  0.34386600  0.50635800  0.58685600  1
  O  O30  1  0.34386600  0.99364200  0.08685600  1
  O  O31  1  0.65613400  0.49364200  0.41314400  1
  O  O32  1  0.34138800  0.05568600  0.88967600  1
  O  O33  1  0.65861200  0.55568600  0.61032400  1
  O  O34  1  0.65861200  0.94431400  0.11032400  1
  O  O35  1  0.34138800  0.44431400  0.38967600  1
  O  O36  1  0.46525300  0.06698400  0.74794000  1
  O  O37  1  0.53474700  0.56698400  0.75206000  1
  O  O38  1  0.53474700  0.93301600  0.25206000  1
  O  O39  1  0.46525300  0.43301600  0.24794000  1
loop_
_geom_bond_atom_site_label_1
_geom_bond_atom_site_label_2
_geom_bond_distance
_geom_bond_site_symmetry_2
Cs0 O20 3.158757 1_555
Cs0 O5 3.182594 1_655
Cs0 O25 3.260448 1_565
Cs0 O24 3.262895 1_655
Cs0 O36 3.263988 1_565
Cs0 O12 3.338769 1_665
Cs0 O16 3.393488 1_565
Cs0 O8 3.417202 1_565
Cs0 O2 3.428949 1_555
Cs0 O13 3.460750 1_555
Cs0 O28 3.600897 1_565
Cs1 O21 3.158757 1_555
Cs1 O4 3.182594 1_455
Cs1 O24 3.260448 1_555
Cs1 O25 3.262895 1_455
Cs1 O37 3.263988 1_555
Cs1 O13 3.338769 1_455
Cs1 O17 3.393488 1_555
Cs1 O9 3.417202 1_556
Cs1 O3 3.428949 1_555
Cs1 O12 3.460750 1_555
Cs1 O29 3.600897 1_555
Cs2 O22 3.158757 1_555
Cs2 O7 3.182594 1_455
Cs2 O27 3.260448 1_545
Cs2 O26 3.262895 1_455
Cs2 O38 3.263988 1_545
Cs2 O14 3.338769 1_445
Cs2 O18 3.393488 1_545
Cs2 O10 3.417202 1_545
Cs2 O0 3.428949 1_555
Cs2 O15 3.460750 1_555
Cs2 O30 3.600897 1_545
Cs3 O23 3.158757 1_555
Cs3 O6 3.182594 1_655
Cs3 O26 3.260448 1_555
Cs3 O27 3.262895 1_655
Cs3 O39 3.263988 1_555
Cs3 O15 3.338769 1_655
Cs3 O19 3.393488 1_555
Cs3 O11 3.417202 1_554
Cs3 O1 3.428949 1_555
Cs3 O14 3.460750 1_555
Cs3 O31 3.600897 1_555
Al0 O34 1.735850 1_555
Al0 O7 1.759788 1_565
Al0 O28 1.760152 1_564
Al0 O1 1.769057 1_555
Al1 O35 1.735850 1_555
Al1 O6 1.759788 1_555
Al1 O29 1.760152 1_555
Al1 O0 1.769057 1_555
Al2 O32 1.735850 1_555
Al2 O5 1.759788 1_545
Al2 O30 1.760152 1_546
Al2 O3 1.769057 1_555
Al3 O33 1.735850 1_555
Al3 O4 1.759788 1_555
Al3 O31 1.760152 1_555
Al3 O2 1.769057 1_555
H0 O16 0.973611 1_555
H1 O17 0.973611 1_555
H2 O18 0.973611 1_555
H3 O19 0.973611 1_555
H4 O16 0.985449 1_555
H5 O17 0.985449 1_555
H6 O18 0.985449 1_555
H7 O19 0.985449 1_555
O0 P0 1.563384 1_555
O1 P1 1.563384 1_554
O2 P2 1.563384 1_555
O3 P3 1.563384 1_556
O4 P0 1.568390 1_655
O5 P1 1.568390 1_455
O6 P2 1.568390 1_455
O7 P3 1.568390 1_655
O8 P0 1.530400 1_655
O8 V2 2.009607 1_555
O9 P1 1.530400 1_454
O9 V3 2.009607 1_555
O10 P2 1.530400 1_455
O10 V0 2.009607 1_555
O11 P3 1.530400 1_656
O11 V1 2.009607 1_555
O12 P0 1.540501 1_555
O12 V0 2.049789 1_545
O13 P1 1.540501 1_555
O13 V1 2.049789 1_555
O14 P2 1.540501 1_555
O14 V2 2.049789 1_565
O15 P3 1.540501 1_555
O15 V3 2.049789 1_555
O16 V0 2.440551 1_545
O17 V1 2.440551 1_555
O18 V2 2.440551 1_565
O19 V3 2.440551 1_555
O20 P5 1.545515 1_555
O20 V0 2.072873 1_555
O21 P4 1.545515 1_555
O21 V1 2.072873 1_555
O22 P7 1.545515 1_555
O22 V2 2.072873 1_555
O23 P6 1.545515 1_555
O23 V3 2.072873 1_555
O24 V0 1.631849 1_555
O25 V1 1.631849 1_555
O26 V2 1.631849 1_555
O27 V3 1.631849 1_555
O28 P4 1.564542 1_555
O29 P5 1.564542 1_555
O30 P6 1.564542 1_555
O31 P7 1.564542 1_555
O32 P4 1.548968 1_555
O33 P5 1.548968 1_555
O34 P6 1.548968 1_555
O35 P7 1.548968 1_555
O36 P4 1.526556 1_555
O36 V0 2.054236 1_545
O37 P5 1.526556 1_555
O37 V1 2.054236 1_555
O38 P6 1.526556 1_555
O38 V2 2.054236 1_565
O39 P7 1.526556 1_555
O39 V3 2.054236 1_555
