# generated using pymatgen
data_Co3(Ni3S4)2
_symmetry_space_group_name_H-M   'P 1'
_cell_length_a   7.01961822
_cell_length_b   7.01961822
_cell_length_c   7.01961822
_cell_angle_alpha   90.06138802
_cell_angle_beta   59.92553695
_cell_angle_gamma   119.99644974
_symmetry_Int_Tables_number   1
_chemical_formula_structural   Co3(Ni3S4)2
_chemical_formula_sum   'Co3 Ni6 S8'
_cell_volume   244.45118492
_cell_formula_units_Z   1
loop_
 _symmetry_equiv_pos_site_id
 _symmetry_equiv_pos_as_xyz
  1  'x, y, z'
loop_
 _atom_site_type_symbol
 _atom_site_label
 _atom_site_symmetry_multiplicity
 _atom_site_fract_x
 _atom_site_fract_y
 _atom_site_fract_z
 _atom_site_occupancy
  Co  Co0  1  0.00000000  0.50297600  0.49702400  1
  Co  Co1  1  0.24992000  0.12554900  0.62453000  1
  Co  Co2  1  0.75008000  0.12554900  0.12437100  1
  Ni  Ni0  1  0.74558200  0.61866400  0.12691800  1
  Ni  Ni1  1  0.25441800  0.12750000  0.12691800  1
  Ni  Ni2  1  0.74835900  0.87379900  0.37784200  1
  Ni  Ni3  1  0.25164100  0.87379900  0.87456000  1
  Ni  Ni4  1  0.25148000  0.37699000  0.87449100  1
  Ni  Ni5  1  0.74852000  0.87402900  0.87449100  1
  S  S0  1  0.52451500  0.26180400  0.73310300  1
  S  S1  1  0.00509200  0.74238100  0.73310300  1
  S  S2  1  0.00000000  0.26132500  0.73867500  1
  S  S3  1  0.47548500  0.74238100  0.26271100  1
  S  S4  1  0.99490800  0.26180400  0.26271100  1
  S  S5  1  0.00000000  0.73689900  0.26310100  1
  S  S6  1  0.50000000  0.24496700  0.25503300  1
  S  S7  1  0.50000000  0.74958200  0.75041800  1
loop_
_geom_bond_atom_site_label_1
_geom_bond_atom_site_label_2
_geom_bond_distance
_geom_bond_site_symmetry_2
Co0 S5 2.323453 1_555
Co0 S1 2.359038 1_555
Co0 S4 2.359043 1_455
Co0 S3 2.359043 1_555
Co0 S0 2.359043 1_455
Co0 S2 2.400212 1_555
Co1 S6 2.116978 1_555
Co1 S0 2.199662 1_555
Co1 S1 2.199662 1_545
Co1 S2 2.211226 1_555
Co2 S6 2.116984 1_555
Co2 S4 2.199662 1_555
Co2 S3 2.199662 1_545
Co2 S2 2.211227 1_654
Ni0 S6 2.142756 1_555
Ni0 S5 2.240422 1_655
Ni0 S3 2.256283 1_555
Ni0 S1 2.256289 1_654
Ni1 S6 2.142756 1_555
Ni1 S5 2.240422 1_545
Ni1 S4 2.256283 1_455
Ni1 S0 2.256288 1_554
Ni2 S7 2.134197 1_555
Ni2 S3 2.226269 1_555
Ni2 S4 2.226269 1_565
Ni2 S5 2.227599 1_655
Ni3 S7 2.134197 1_555
Ni3 S0 2.226269 1_565
Ni3 S1 2.226275 1_555
Ni3 S5 2.227599 1_556
Ni4 S7 2.135966 1_555
Ni4 S2 2.221800 1_555
Ni4 S4 2.225637 1_456
Ni4 S0 2.225643 1_555
Ni5 S7 2.135972 1_555
Ni5 S2 2.221800 1_665
Ni5 S3 2.225637 1_556
Ni5 S1 2.225637 1_655
