# generated using pymatgen
data_BaMg6V
_symmetry_space_group_name_H-M   'P 1'
_cell_length_a   5.26146300
_cell_length_b   6.79078800
_cell_length_c   11.85806900
_cell_angle_alpha   90.00000000
_cell_angle_beta   90.00000000
_cell_angle_gamma   90.00000000
_symmetry_Int_Tables_number   1
_chemical_formula_structural   BaMg6V
_chemical_formula_sum   'Ba2 Mg12 V2'
_cell_volume   423.68263684
_cell_formula_units_Z   2
loop_
 _symmetry_equiv_pos_site_id
 _symmetry_equiv_pos_as_xyz
  1  'x, y, z'
loop_
 _atom_site_type_symbol
 _atom_site_label
 _atom_site_symmetry_multiplicity
 _atom_site_fract_x
 _atom_site_fract_y
 _atom_site_fract_z
 _atom_site_occupancy
  Ba  Ba0  1  0.50000000  0.50000000  0.16789400  1
  Ba  Ba1  1  0.50000000  0.00000000  0.66789400  1
  Mg  Mg0  1  0.00000000  0.77378500  0.07374100  1
  Mg  Mg1  1  0.00000000  0.22621500  0.07374100  1
  Mg  Mg2  1  0.00000000  0.00000000  0.33377100  1
  Mg  Mg3  1  0.50000000  0.26872400  0.41591300  1
  Mg  Mg4  1  0.50000000  0.73127600  0.41591300  1
  Mg  Mg5  1  0.50000000  0.00000000  0.16614500  1
  Mg  Mg6  1  0.00000000  0.27378500  0.57374100  1
  Mg  Mg7  1  0.00000000  0.72621500  0.57374100  1
  Mg  Mg8  1  0.00000000  0.50000000  0.83377100  1
  Mg  Mg9  1  0.50000000  0.76872400  0.91591300  1
  Mg  Mg10  1  0.50000000  0.23127600  0.91591300  1
  Mg  Mg11  1  0.50000000  0.50000000  0.66614500  1
  V  V0  1  0.00000000  0.50000000  0.35288500  1
  V  V1  1  0.00000000  0.00000000  0.85288500  1
loop_
_geom_bond_atom_site_label_1
_geom_bond_atom_site_label_2
_geom_bond_distance
_geom_bond_site_symmetry_2
Ba0 Mg3 3.334104 1_555
Ba0 Mg4 3.334104 1_555
Ba0 Mg5 3.395457 1_555
Ba0 Mg5 3.395457 1_565
Ba0 Mg0 3.409390 1_655
Ba0 Mg1 3.409390 1_555
Ba0 Mg1 3.409390 1_655
Ba0 Mg0 3.409390 1_555
Ba0 V0 3.425316 1_555
Ba0 V0 3.425316 1_655
Ba0 Mg9 3.501180 1_554
Ba0 Mg10 3.501180 1_554
Ba1 Mg10 3.334104 1_555
Ba1 Mg9 3.334104 1_545
Ba1 Mg11 3.395457 1_555
Ba1 Mg11 3.395457 1_545
Ba1 Mg7 3.409390 1_645
Ba1 Mg7 3.409390 1_545
Ba1 Mg6 3.409390 1_555
Ba1 Mg6 3.409390 1_655
Ba1 V1 3.425316 1_555
Ba1 V1 3.425316 1_655
Ba1 Mg4 3.501180 1_545
Ba1 Mg3 3.501180 1_555
Mg0 V1 3.036217 1_564
Mg0 Mg9 3.228711 1_454
Mg0 Mg9 3.228711 1_554
Mg0 Mg5 3.237472 1_565
Mg0 Mg5 3.237472 1_465
Mg0 Mg8 3.399120 1_554
Mg0 Mg2 3.444928 1_565
Mg1 V1 3.036217 1_554
Mg1 Mg10 3.228711 1_454
Mg1 Mg10 3.228711 1_554
Mg1 Mg5 3.237472 1_555
Mg1 Mg5 3.237472 1_455
Mg1 Mg8 3.399120 1_554
Mg1 Mg2 3.444928 1_555
Mg2 Mg5 3.297238 1_455
Mg2 Mg5 3.297238 1_555
Mg2 Mg4 3.346578 1_545
Mg2 Mg4 3.346578 1_445
Mg2 Mg3 3.346578 1_455
Mg2 Mg3 3.346578 1_555
Mg2 Mg7 3.399120 1_545
Mg2 Mg6 3.399120 1_555
Mg2 V0 3.402951 1_555
Mg2 V0 3.402951 1_545
Mg3 Mg4 3.141093 1_555
Mg3 V0 3.153721 1_555
Mg3 V0 3.153721 1_655
Mg3 Mg6 3.228711 1_555
Mg3 Mg6 3.228711 1_655
Mg3 Mg5 3.478811 1_555
Mg4 V0 3.153721 1_555
Mg4 V0 3.153721 1_655
Mg4 Mg7 3.228711 1_655
Mg4 Mg7 3.228711 1_555
Mg4 Mg5 3.478811 1_565
Mg5 Mg9 3.357275 1_544
Mg6 V0 3.036217 1_555
Mg6 Mg8 3.444928 1_555
Mg7 V0 3.036217 1_555
Mg7 Mg8 3.444928 1_555
Mg8 Mg9 3.346578 1_455
Mg8 Mg9 3.346578 1_555
Mg8 V1 3.402951 1_555
Mg8 V1 3.402951 1_565
Mg9 V1 3.153721 1_565
Mg9 V1 3.153721 1_665
Mg10 Mg9 3.141093 1_545
Mg10 V1 3.153721 1_555
Mg10 V1 3.153721 1_655
Mg10 Mg8 3.346578 1_555
Mg10 Mg8 3.346578 1_655
Mg10 Mg5 3.357275 1_556
Mg10 Mg11 3.478811 1_555
Mg11 Mg7 3.237472 1_555
Mg11 Mg6 3.237472 1_655
Mg11 Mg7 3.237472 1_655
Mg11 Mg6 3.237472 1_555
Mg11 Mg8 3.297238 1_555
Mg11 Mg8 3.297238 1_655
Mg11 Mg3 3.357275 1_555
Mg11 Mg4 3.357275 1_555
Mg11 Mg9 3.478811 1_555
