# generated using pymatgen
data_Cs4Na2ScGaF12
_symmetry_space_group_name_H-M   'P 1'
_cell_length_a   10.81610122
_cell_length_b   10.81610122
_cell_length_c   10.81610152
_cell_angle_alpha   33.76812505
_cell_angle_beta   33.76812505
_cell_angle_gamma   33.76812561
_symmetry_Int_Tables_number   1
_chemical_formula_structural   Cs4Na2ScGaF12
_chemical_formula_sum   'Cs4 Na2 Sc1 Ga1 F12'
_cell_volume   348.33345805
_cell_formula_units_Z   1
loop_
 _symmetry_equiv_pos_site_id
 _symmetry_equiv_pos_as_xyz
  1  'x, y, z'
loop_
 _atom_site_type_symbol
 _atom_site_label
 _atom_site_symmetry_multiplicity
 _atom_site_fract_x
 _atom_site_fract_y
 _atom_site_fract_z
 _atom_site_occupancy
  Cs  Cs0  1  0.71956545  0.71956545  0.71956545  1
  Cs  Cs1  1  0.28043455  0.28043455  0.28043455  1
  Cs  Cs2  1  0.87126047  0.87126047  0.87126047  1
  Cs  Cs3  1  0.12873953  0.12873953  0.12873953  1
  Na  Na0  1  0.59508406  0.59508406  0.59508406  1
  Na  Na1  1  0.40491594  0.40491594  0.40491594  1
  Sc  Sc0  1  -0.00000000  -0.00000000  0.00000000  1
  Ga  Ga0  1  0.50000000  0.50000000  0.50000000  1
  F  F0  1  0.39647252  0.81907445  0.39647252  1
  F  F1  1  0.39647252  0.39647252  0.81907445  1
  F  F2  1  0.81907445  0.39647252  0.39647252  1
  F  F3  1  0.60352748  0.18092555  0.60352748  1
  F  F4  1  0.60352748  0.60352748  0.18092555  1
  F  F5  1  0.18092555  0.60352748  0.60352748  1
  F  F6  1  0.19110076  0.73171305  0.19110076  1
  F  F7  1  0.19110076  0.19110076  0.73171305  1
  F  F8  1  0.73171305  0.19110076  0.19110076  1
  F  F9  1  0.80889924  0.26828695  0.80889924  1
  F  F10  1  0.80889924  0.80889924  0.26828695  1
  F  F11  1  0.26828695  0.80889924  0.80889924  1
loop_
_geom_bond_atom_site_label_1
_geom_bond_atom_site_label_2
_geom_bond_distance
_geom_bond_site_symmetry_2
Cs0 F3 3.137694 1_565
Cs0 F5 3.137694 1_655
Cs0 F4 3.137694 1_556
Cs0 F8 3.177771 1_556
Cs0 F6 3.177771 1_556
Cs0 F7 3.177771 1_565
Cs0 F7 3.177771 1_655
Cs0 F6 3.177771 1_655
Cs0 F8 3.177771 1_565
Cs0 F11 3.400269 1_555
Cs0 F9 3.400269 1_555
Cs0 F10 3.400269 1_555
Cs1 F2 3.137694 1_455
Cs1 F0 3.137694 1_545
Cs1 F1 3.137694 1_554
Cs1 F9 3.177771 1_554
Cs1 F11 3.177771 1_554
Cs1 F10 3.177771 1_545
Cs1 F10 3.177771 1_455
Cs1 F11 3.177771 1_545
Cs1 F9 3.177771 1_455
Cs1 F6 3.400269 1_555
Cs1 F8 3.400269 1_555
Cs1 F7 3.400269 1_555
Cs2 F4 3.111356 1_556
Cs2 F5 3.111356 1_655
Cs2 F3 3.111356 1_565
Cs2 F2 3.153957 1_556
Cs2 F0 3.153957 1_556
Cs2 F0 3.153957 1_655
Cs2 F2 3.153957 1_565
Cs2 F1 3.153957 1_565
Cs2 F1 3.153957 1_655
Cs2 F11 3.236624 1_655
Cs2 F9 3.236624 1_565
Cs2 F10 3.236624 1_556
Cs3 F1 3.111356 1_554
Cs3 F2 3.111356 1_455
Cs3 F0 3.111356 1_545
Cs3 F5 3.153957 1_554
Cs3 F3 3.153957 1_554
Cs3 F5 3.153957 1_545
Cs3 F3 3.153957 1_455
Cs3 F4 3.153957 1_545
Cs3 F4 3.153957 1_455
Cs3 F8 3.236624 1_455
Cs3 F6 3.236624 1_545
Cs3 F7 3.236624 1_554
F0 Ga0 1.911223 1_555
F0 Na0 2.337900 1_555
F1 Ga0 1.911223 1_555
F1 Na0 2.337899 1_555
F2 Ga0 1.911223 1_555
F2 Na0 2.337900 1_555
F3 Ga0 1.911223 1_555
F3 Na1 2.337900 1_555
F4 Ga0 1.911223 1_555
F4 Na1 2.337899 1_555
F5 Ga0 1.911223 1_555
F5 Na1 2.337900 1_555
F6 Sc0 2.030795 1_565
F6 Na1 2.213861 1_555
F7 Sc0 2.030795 1_556
F7 Na1 2.213861 1_555
F8 Sc0 2.030795 1_655
F8 Na1 2.213861 1_555
F9 Sc0 2.030795 1_656
F9 Na0 2.213861 1_555
F10 Sc0 2.030795 1_665
F10 Na0 2.213861 1_555
F11 Sc0 2.030795 1_566
F11 Na0 2.213861 1_555
