# generated using pymatgen
data_Ce2Mg
_symmetry_space_group_name_H-M   'P 1'
_cell_length_a   6.47829200
_cell_length_b   35.48105000
_cell_length_c   11.32953400
_cell_angle_alpha   90.00000000
_cell_angle_beta   90.00000000
_cell_angle_gamma   90.00000000
_symmetry_Int_Tables_number   1
_chemical_formula_structural   Ce2Mg
_chemical_formula_sum   'Ce64 Mg32'
_cell_volume   2604.16819164
_cell_formula_units_Z   32
loop_
 _symmetry_equiv_pos_site_id
 _symmetry_equiv_pos_as_xyz
  1  'x, y, z'
loop_
 _atom_site_type_symbol
 _atom_site_label
 _atom_site_symmetry_multiplicity
 _atom_site_fract_x
 _atom_site_fract_y
 _atom_site_fract_z
 _atom_site_occupancy
  Ce  Ce0_0  1  0.00000000  0.28272750  0.12500000  1
  Ce  Ce0_1  1  0.00000000  0.28272750  0.62500000  1
  Ce  Ce0_2  1  0.00000000  0.78272750  0.12500000  1
  Ce  Ce0_3  1  0.00000000  0.78272750  0.62500000  1
  Ce  Ce0_4  1  0.50000000  0.28272750  0.12500000  1
  Ce  Ce0_5  1  0.50000000  0.28272750  0.62500000  1
  Ce  Ce0_6  1  0.50000000  0.78272750  0.12500000  1
  Ce  Ce0_7  1  0.50000000  0.78272750  0.62500000  1
  Ce  Ce1_0  1  0.25000000  0.36130750  0.12500000  1
  Ce  Ce1_1  1  0.25000000  0.36130750  0.62500000  1
  Ce  Ce1_2  1  0.25000000  0.86130750  0.12500000  1
  Ce  Ce1_3  1  0.25000000  0.86130750  0.62500000  1
  Ce  Ce1_4  1  0.75000000  0.36130750  0.12500000  1
  Ce  Ce1_5  1  0.75000000  0.36130750  0.62500000  1
  Ce  Ce1_6  1  0.75000000  0.86130750  0.12500000  1
  Ce  Ce1_7  1  0.75000000  0.86130750  0.62500000  1
  Ce  Ce2_0  1  0.00000000  0.38869250  0.37500000  1
  Ce  Ce2_1  1  0.00000000  0.38869250  0.87500000  1
  Ce  Ce2_2  1  0.00000000  0.88869250  0.37500000  1
  Ce  Ce2_3  1  0.00000000  0.88869250  0.87500000  1
  Ce  Ce2_4  1  0.50000000  0.38869250  0.37500000  1
  Ce  Ce2_5  1  0.50000000  0.38869250  0.87500000  1
  Ce  Ce2_6  1  0.50000000  0.88869250  0.37500000  1
  Ce  Ce2_7  1  0.50000000  0.88869250  0.87500000  1
  Ce  Ce3_0  1  0.25000000  0.46727250  0.37500000  1
  Ce  Ce3_1  1  0.25000000  0.46727250  0.87500000  1
  Ce  Ce3_2  1  0.25000000  0.96727250  0.37500000  1
  Ce  Ce3_3  1  0.25000000  0.96727250  0.87500000  1
  Ce  Ce3_4  1  0.75000000  0.46727250  0.37500000  1
  Ce  Ce3_5  1  0.75000000  0.46727250  0.87500000  1
  Ce  Ce3_6  1  0.75000000  0.96727250  0.37500000  1
  Ce  Ce3_7  1  0.75000000  0.96727250  0.87500000  1
  Ce  Ce4_0  1  0.25000000  0.03272750  0.12500000  1
  Ce  Ce4_1  1  0.25000000  0.03272750  0.62500000  1
  Ce  Ce4_2  1  0.25000000  0.53272750  0.12500000  1
  Ce  Ce4_3  1  0.25000000  0.53272750  0.62500000  1
  Ce  Ce4_4  1  0.75000000  0.03272750  0.12500000  1
  Ce  Ce4_5  1  0.75000000  0.03272750  0.62500000  1
  Ce  Ce4_6  1  0.75000000  0.53272750  0.12500000  1
  Ce  Ce4_7  1  0.75000000  0.53272750  0.62500000  1
  Ce  Ce5_0  1  0.00000000  0.11130750  0.12500000  1
  Ce  Ce5_1  1  0.00000000  0.11130750  0.62500000  1
  Ce  Ce5_2  1  0.00000000  0.61130750  0.12500000  1
  Ce  Ce5_3  1  0.00000000  0.61130750  0.62500000  1
  Ce  Ce5_4  1  0.50000000  0.11130750  0.12500000  1
  Ce  Ce5_5  1  0.50000000  0.11130750  0.62500000  1
  Ce  Ce5_6  1  0.50000000  0.61130750  0.12500000  1
  Ce  Ce5_7  1  0.50000000  0.61130750  0.62500000  1
  Ce  Ce6_0  1  0.25000000  0.13869250  0.37500000  1
  Ce  Ce6_1  1  0.25000000  0.13869250  0.87500000  1
  Ce  Ce6_2  1  0.25000000  0.63869250  0.37500000  1
  Ce  Ce6_3  1  0.25000000  0.63869250  0.87500000  1
  Ce  Ce6_4  1  0.75000000  0.13869250  0.37500000  1
  Ce  Ce6_5  1  0.75000000  0.13869250  0.87500000  1
  Ce  Ce6_6  1  0.75000000  0.63869250  0.37500000  1
  Ce  Ce6_7  1  0.75000000  0.63869250  0.87500000  1
  Ce  Ce7_0  1  0.00000000  0.21727250  0.37500000  1
  Ce  Ce7_1  1  0.00000000  0.21727250  0.87500000  1
  Ce  Ce7_2  1  0.00000000  0.71727250  0.37500000  1
  Ce  Ce7_3  1  0.00000000  0.71727250  0.87500000  1
  Ce  Ce7_4  1  0.50000000  0.21727250  0.37500000  1
  Ce  Ce7_5  1  0.50000000  0.21727250  0.87500000  1
  Ce  Ce7_6  1  0.50000000  0.71727250  0.37500000  1
  Ce  Ce7_7  1  0.50000000  0.71727250  0.87500000  1
  Mg  Mg0_0  1  0.00000000  0.44371850  0.12500000  1
  Mg  Mg0_1  1  0.00000000  0.44371850  0.62500000  1
  Mg  Mg0_2  1  0.00000000  0.94371850  0.12500000  1
  Mg  Mg0_3  1  0.00000000  0.94371850  0.62500000  1
  Mg  Mg0_4  1  0.50000000  0.44371850  0.12500000  1
  Mg  Mg0_5  1  0.50000000  0.44371850  0.62500000  1
  Mg  Mg0_6  1  0.50000000  0.94371850  0.12500000  1
  Mg  Mg0_7  1  0.50000000  0.94371850  0.62500000  1
  Mg  Mg1_0  1  0.25000000  0.30628150  0.37500000  1
  Mg  Mg1_1  1  0.25000000  0.30628150  0.87500000  1
  Mg  Mg1_2  1  0.25000000  0.80628150  0.37500000  1
  Mg  Mg1_3  1  0.25000000  0.80628150  0.87500000  1
  Mg  Mg1_4  1  0.75000000  0.30628150  0.37500000  1
  Mg  Mg1_5  1  0.75000000  0.30628150  0.87500000  1
  Mg  Mg1_6  1  0.75000000  0.80628150  0.37500000  1
  Mg  Mg1_7  1  0.75000000  0.80628150  0.87500000  1
  Mg  Mg2_0  1  0.25000000  0.19371850  0.12500000  1
  Mg  Mg2_1  1  0.25000000  0.19371850  0.62500000  1
  Mg  Mg2_2  1  0.25000000  0.69371850  0.12500000  1
  Mg  Mg2_3  1  0.25000000  0.69371850  0.62500000  1
  Mg  Mg2_4  1  0.75000000  0.19371850  0.12500000  1
  Mg  Mg2_5  1  0.75000000  0.19371850  0.62500000  1
  Mg  Mg2_6  1  0.75000000  0.69371850  0.12500000  1
  Mg  Mg2_7  1  0.75000000  0.69371850  0.62500000  1
  Mg  Mg3_0  1  0.00000000  0.05628150  0.37500000  1
  Mg  Mg3_1  1  0.00000000  0.05628150  0.87500000  1
  Mg  Mg3_2  1  0.00000000  0.55628150  0.37500000  1
  Mg  Mg3_3  1  0.00000000  0.55628150  0.87500000  1
  Mg  Mg3_4  1  0.50000000  0.05628150  0.37500000  1
  Mg  Mg3_5  1  0.50000000  0.05628150  0.87500000  1
  Mg  Mg3_6  1  0.50000000  0.55628150  0.37500000  1
  Mg  Mg3_7  1  0.50000000  0.55628150  0.87500000  1
loop_
_geom_bond_atom_site_label_1
_geom_bond_atom_site_label_2
_geom_bond_distance
_geom_bond_site_symmetry_2
Ce0_0 Ce1_0 3.224364 1_555
Ce0_0 Ce1_4 3.224364 1_455
Ce0_0 Ce0_4 3.239146 1_455
Ce0_0 Ce0_4 3.239146 1_555
Ce0_0 Mg1_0 3.368062 1_555
Ce0_0 Mg1_5 3.368062 1_454
Ce0_0 Mg1_4 3.368062 1_455
Ce0_0 Mg1_1 3.368062 1_554
Ce0_0 Mg2_0 3.549200 1_555
Ce0_0 Mg2_4 3.549200 1_455
Ce0_0 Ce7_0 3.662785 1_555
Ce0_0 Ce7_1 3.662785 1_554
Ce0_1 Ce1_1 3.224364 1_555
Ce0_1 Ce1_5 3.224364 1_455
Ce0_1 Ce0_5 3.239146 1_455
Ce0_1 Ce0_5 3.239146 1_555
Ce0_1 Mg1_0 3.368062 1_555
Ce0_1 Mg1_1 3.368062 1_555
Ce0_1 Mg1_4 3.368062 1_455
Ce0_1 Mg1_5 3.368062 1_455
Ce0_1 Mg2_5 3.549200 1_455
Ce0_1 Mg2_1 3.549200 1_555
Ce0_1 Ce7_0 3.662785 1_555
Ce0_1 Ce7_1 3.662785 1_555
Ce0_2 Ce1_2 3.224364 1_555
Ce0_2 Ce1_6 3.224364 1_455
Ce0_2 Ce0_6 3.239146 1_455
Ce0_2 Ce0_6 3.239146 1_555
Ce0_2 Mg1_6 3.368062 1_455
Ce0_2 Mg1_7 3.368062 1_454
Ce0_2 Mg1_3 3.368062 1_554
Ce0_2 Mg1_2 3.368062 1_555
Ce0_2 Mg2_2 3.549200 1_555
Ce0_2 Mg2_6 3.549200 1_455
Ce0_2 Ce7_3 3.662785 1_554
Ce0_2 Ce7_2 3.662785 1_555
Ce0_3 Ce1_7 3.224364 1_455
Ce0_3 Ce1_3 3.224364 1_555
Ce0_3 Ce0_7 3.239146 1_455
Ce0_3 Ce0_7 3.239146 1_555
Ce0_3 Mg1_6 3.368062 1_455
Ce0_3 Mg1_2 3.368062 1_555
Ce0_3 Mg1_7 3.368062 1_455
Ce0_3 Mg1_3 3.368062 1_555
Ce0_3 Mg2_3 3.549200 1_555
Ce0_3 Mg2_7 3.549200 1_455
Ce0_3 Ce7_2 3.662785 1_555
Ce0_3 Ce7_3 3.662785 1_555
Ce0_4 Ce1_0 3.224364 1_555
Ce0_4 Ce1_4 3.224364 1_555
Ce0_4 Mg1_0 3.368062 1_555
Ce0_4 Mg1_4 3.368062 1_555
Ce0_4 Mg1_1 3.368062 1_554
Ce0_4 Mg1_5 3.368062 1_554
Ce0_4 Mg2_0 3.549200 1_555
Ce0_4 Mg2_4 3.549200 1_555
Ce0_4 Ce7_4 3.662785 1_555
Ce0_4 Ce7_5 3.662785 1_554
Ce0_5 Ce1_1 3.224364 1_555
Ce0_5 Ce1_5 3.224364 1_555
Ce0_5 Mg1_0 3.368062 1_555
Ce0_5 Mg1_4 3.368062 1_555
Ce0_5 Mg1_1 3.368062 1_555
Ce0_5 Mg1_5 3.368062 1_555
Ce0_5 Mg2_1 3.549200 1_555
Ce0_5 Mg2_5 3.549200 1_555
Ce0_5 Ce7_4 3.662785 1_555
Ce0_5 Ce7_5 3.662785 1_555
Ce0_6 Ce1_6 3.224364 1_555
Ce0_6 Ce1_2 3.224364 1_555
Ce0_6 Mg1_3 3.368062 1_554
Ce0_6 Mg1_6 3.368062 1_555
Ce0_6 Mg1_2 3.368062 1_555
Ce0_6 Mg1_7 3.368062 1_554
Ce0_6 Mg2_2 3.549200 1_555
Ce0_6 Mg2_6 3.549200 1_555
Ce0_6 Ce7_6 3.662785 1_555
Ce0_6 Ce7_7 3.662785 1_554
Ce0_7 Ce1_7 3.224364 1_555
Ce0_7 Ce1_3 3.224364 1_555
Ce0_7 Mg1_7 3.368062 1_555
Ce0_7 Mg1_6 3.368062 1_555
Ce0_7 Mg1_2 3.368062 1_555
Ce0_7 Mg1_3 3.368062 1_555
Ce0_7 Mg2_7 3.549200 1_555
Ce0_7 Mg2_3 3.549200 1_555
Ce0_7 Ce7_6 3.662785 1_555
Ce0_7 Ce7_7 3.662785 1_555
Ce1_0 Ce1_4 3.239146 1_455
Ce1_0 Ce1_4 3.239146 1_555
Ce1_0 Mg0_0 3.342598 1_555
Ce1_0 Mg0_4 3.342598 1_555
Ce1_0 Ce2_0 3.404338 1_555
Ce1_0 Ce2_1 3.404338 1_554
Ce1_0 Ce2_5 3.404338 1_554
Ce1_0 Ce2_4 3.404338 1_555
Ce1_0 Mg1_0 3.440085 1_555
Ce1_0 Mg1_1 3.440085 1_554
Ce1_1 Ce1_5 3.239146 1_455
Ce1_1 Ce1_5 3.239146 1_555
Ce1_1 Mg0_1 3.342598 1_555
Ce1_1 Mg0_5 3.342598 1_555
Ce1_1 Ce2_1 3.404338 1_555
Ce1_1 Ce2_5 3.404338 1_555
Ce1_1 Ce2_0 3.404338 1_555
Ce1_1 Ce2_4 3.404338 1_555
Ce1_1 Mg1_0 3.440085 1_555
Ce1_1 Mg1_1 3.440085 1_555
Ce1_2 Ce1_6 3.239146 1_555
Ce1_2 Ce1_6 3.239146 1_455
Ce1_2 Mg0_2 3.342598 1_555
Ce1_2 Mg0_6 3.342598 1_555
Ce1_2 Ce2_3 3.404338 1_554
Ce1_2 Ce2_2 3.404338 1_555
Ce1_2 Ce2_6 3.404338 1_555
Ce1_2 Ce2_7 3.404338 1_554
Ce1_2 Mg1_3 3.440085 1_554
Ce1_2 Mg1_2 3.440085 1_555
Ce1_3 Ce1_7 3.239146 1_455
Ce1_3 Ce1_7 3.239146 1_555
Ce1_3 Mg0_3 3.342598 1_555
Ce1_3 Mg0_7 3.342598 1_555
Ce1_3 Ce2_7 3.404338 1_555
Ce1_3 Ce2_2 3.404338 1_555
Ce1_3 Ce2_6 3.404338 1_555
Ce1_3 Ce2_3 3.404338 1_555
Ce1_3 Mg1_3 3.440085 1_555
Ce1_3 Mg1_2 3.440085 1_555
Ce1_4 Mg0_4 3.342598 1_555
Ce1_4 Mg0_0 3.342598 1_655
Ce1_4 Ce2_1 3.404338 1_654
Ce1_4 Ce2_5 3.404338 1_554
Ce1_4 Ce2_0 3.404338 1_655
Ce1_4 Ce2_4 3.404338 1_555
Ce1_4 Mg1_5 3.440085 1_554
Ce1_4 Mg1_4 3.440085 1_555
Ce1_5 Mg0_1 3.342598 1_655
Ce1_5 Mg0_5 3.342598 1_555
Ce1_5 Ce2_5 3.404338 1_555
Ce1_5 Ce2_1 3.404338 1_655
Ce1_5 Ce2_0 3.404338 1_655
Ce1_5 Ce2_4 3.404338 1_555
Ce1_5 Mg1_4 3.440085 1_555
Ce1_5 Mg1_5 3.440085 1_555
Ce1_6 Mg0_2 3.342598 1_655
Ce1_6 Mg0_6 3.342598 1_555
Ce1_6 Ce2_6 3.404338 1_555
Ce1_6 Ce2_7 3.404338 1_554
Ce1_6 Ce2_2 3.404338 1_655
Ce1_6 Ce2_3 3.404338 1_654
Ce1_6 Mg1_6 3.440085 1_555
Ce1_6 Mg1_7 3.440085 1_554
Ce1_7 Mg0_3 3.342598 1_655
Ce1_7 Mg0_7 3.342598 1_555
Ce1_7 Ce2_6 3.404338 1_555
Ce1_7 Ce2_2 3.404338 1_655
Ce1_7 Ce2_3 3.404338 1_655
Ce1_7 Ce2_7 3.404338 1_555
Ce1_7 Mg1_6 3.440085 1_555
Ce1_7 Mg1_7 3.440085 1_555
Ce2_0 Ce3_0 3.224364 1_555
Ce2_0 Ce3_4 3.224364 1_455
Ce2_0 Ce2_4 3.239146 1_555
Ce2_0 Ce2_4 3.239146 1_455
Ce2_0 Mg1_4 3.342598 1_455
Ce2_0 Mg1_0 3.342598 1_555
Ce2_0 Mg0_0 3.440085 1_555
Ce2_0 Mg0_1 3.440085 1_555
Ce2_1 Ce3_5 3.224364 1_455
Ce2_1 Ce3_1 3.224364 1_555
Ce2_1 Ce2_5 3.239146 1_555
Ce2_1 Ce2_5 3.239146 1_455
Ce2_1 Mg1_5 3.342598 1_455
Ce2_1 Mg1_1 3.342598 1_555
Ce2_1 Mg0_0 3.440085 1_556
Ce2_1 Mg0_1 3.440085 1_555
Ce2_2 Ce3_6 3.224364 1_455
Ce2_2 Ce3_2 3.224364 1_555
Ce2_2 Ce2_6 3.239146 1_455
Ce2_2 Ce2_6 3.239146 1_555
Ce2_2 Mg1_2 3.342598 1_555
Ce2_2 Mg1_6 3.342598 1_455
Ce2_2 Mg0_3 3.440085 1_555
Ce2_2 Mg0_2 3.440085 1_555
Ce2_3 Ce3_3 3.224364 1_555
Ce2_3 Ce3_7 3.224364 1_455
Ce2_3 Ce2_7 3.239146 1_555
Ce2_3 Ce2_7 3.239146 1_455
Ce2_3 Mg1_7 3.342598 1_455
Ce2_3 Mg1_3 3.342598 1_555
Ce2_3 Mg0_2 3.440085 1_556
Ce2_3 Mg0_3 3.440085 1_555
Ce2_4 Ce3_0 3.224364 1_555
Ce2_4 Ce3_4 3.224364 1_555
Ce2_4 Mg1_0 3.342598 1_555
Ce2_4 Mg1_4 3.342598 1_555
Ce2_4 Mg0_5 3.440085 1_555
Ce2_4 Mg0_4 3.440085 1_555
Ce2_5 Ce3_5 3.224364 1_555
Ce2_5 Ce3_1 3.224364 1_555
Ce2_5 Mg1_5 3.342598 1_555
Ce2_5 Mg1_1 3.342598 1_555
Ce2_5 Mg0_5 3.440085 1_555
Ce2_5 Mg0_4 3.440085 1_556
Ce2_6 Ce3_6 3.224364 1_555
Ce2_6 Ce3_2 3.224364 1_555
Ce2_6 Mg1_2 3.342598 1_555
Ce2_6 Mg1_6 3.342598 1_555
Ce2_6 Mg0_6 3.440085 1_555
Ce2_6 Mg0_7 3.440085 1_555
Ce2_7 Ce3_3 3.224364 1_555
Ce2_7 Ce3_7 3.224364 1_555
Ce2_7 Mg1_3 3.342598 1_555
Ce2_7 Mg1_7 3.342598 1_555
Ce2_7 Mg0_6 3.440085 1_556
Ce2_7 Mg0_7 3.440085 1_555
Ce3_0 Ce3_4 3.239146 1_455
Ce3_0 Ce3_4 3.239146 1_555
Ce3_0 Mg0_4 3.368062 1_555
Ce3_0 Mg0_1 3.368062 1_555
Ce3_0 Mg0_5 3.368062 1_555
Ce3_0 Mg0_0 3.368062 1_555
Ce3_0 Mg3_2 3.549200 1_555
Ce3_0 Mg3_6 3.549200 1_555
Ce3_0 Ce4_3 3.662785 1_555
Ce3_0 Ce4_2 3.662785 1_555
Ce3_1 Ce3_5 3.239146 1_555
Ce3_1 Ce3_5 3.239146 1_455
Ce3_1 Mg0_1 3.368062 1_555
Ce3_1 Mg0_5 3.368062 1_555
Ce3_1 Mg0_0 3.368062 1_556
Ce3_1 Mg0_4 3.368062 1_556
Ce3_1 Mg3_7 3.549200 1_555
Ce3_1 Mg3_3 3.549200 1_555
Ce3_1 Ce4_3 3.662785 1_555
Ce3_1 Ce4_2 3.662785 1_556
Ce3_2 Ce3_6 3.239146 1_555
Ce3_2 Ce3_6 3.239146 1_455
Ce3_2 Mg0_6 3.368062 1_555
Ce3_2 Mg0_3 3.368062 1_555
Ce3_2 Mg0_7 3.368062 1_555
Ce3_2 Mg0_2 3.368062 1_555
Ce3_2 Mg3_0 3.549200 1_565
Ce3_2 Mg3_4 3.549200 1_565
Ce3_2 Ce4_1 3.662785 1_565
Ce3_2 Ce4_0 3.662785 1_565
Ce3_3 Ce3_7 3.239146 1_455
Ce3_3 Ce3_7 3.239146 1_555
Ce3_3 Mg0_7 3.368062 1_555
Ce3_3 Mg0_3 3.368062 1_555
Ce3_3 Mg0_2 3.368062 1_556
Ce3_3 Mg0_6 3.368062 1_556
Ce3_3 Mg3_1 3.549200 1_565
Ce3_3 Mg3_5 3.549200 1_565
Ce3_3 Ce4_1 3.662785 1_565
Ce3_3 Ce4_0 3.662785 1_566
Ce3_4 Mg0_4 3.368062 1_555
Ce3_4 Mg0_5 3.368062 1_555
Ce3_4 Mg0_1 3.368062 1_655
Ce3_4 Mg0_0 3.368062 1_655
Ce3_4 Mg3_2 3.549200 1_655
Ce3_4 Mg3_6 3.549200 1_555
Ce3_4 Ce4_6 3.662785 1_555
Ce3_4 Ce4_7 3.662785 1_555
Ce3_5 Mg0_5 3.368062 1_555
Ce3_5 Mg0_0 3.368062 1_656
Ce3_5 Mg0_1 3.368062 1_655
Ce3_5 Mg0_4 3.368062 1_556
Ce3_5 Mg3_3 3.549200 1_655
Ce3_5 Mg3_7 3.549200 1_555
Ce3_5 Ce4_7 3.662785 1_555
Ce3_5 Ce4_6 3.662785 1_556
Ce3_6 Mg0_3 3.368062 1_655
Ce3_6 Mg0_6 3.368062 1_555
Ce3_6 Mg0_7 3.368062 1_555
Ce3_6 Mg0_2 3.368062 1_655
Ce3_6 Mg3_0 3.549200 1_665
Ce3_6 Mg3_4 3.549200 1_565
Ce3_6 Ce4_5 3.662785 1_565
Ce3_6 Ce4_4 3.662785 1_565
Ce3_7 Mg0_3 3.368062 1_655
Ce3_7 Mg0_7 3.368062 1_555
Ce3_7 Mg0_6 3.368062 1_556
Ce3_7 Mg0_2 3.368062 1_656
Ce3_7 Mg3_1 3.549200 1_665
Ce3_7 Mg3_5 3.549200 1_565
Ce3_7 Ce4_5 3.662785 1_565
Ce3_7 Ce4_4 3.662785 1_566
Ce4_0 Ce5_0 3.224364 1_555
Ce4_0 Ce5_4 3.224364 1_555
Ce4_0 Ce4_4 3.239146 1_555
Ce4_0 Ce4_4 3.239146 1_455
Ce4_0 Mg3_4 3.368062 1_555
Ce4_0 Mg3_1 3.368062 1_554
Ce4_0 Mg3_5 3.368062 1_554
Ce4_0 Mg3_0 3.368062 1_555
Ce4_0 Mg0_2 3.549200 1_545
Ce4_0 Mg0_6 3.549200 1_545
Ce4_1 Ce5_5 3.224364 1_555
Ce4_1 Ce5_1 3.224364 1_555
Ce4_1 Ce4_5 3.239146 1_455
Ce4_1 Ce4_5 3.239146 1_555
Ce4_1 Mg3_4 3.368062 1_555
Ce4_1 Mg3_1 3.368062 1_555
Ce4_1 Mg3_0 3.368062 1_555
Ce4_1 Mg3_5 3.368062 1_555
Ce4_1 Mg0_3 3.549200 1_545
Ce4_1 Mg0_7 3.549200 1_545
Ce4_2 Ce5_6 3.224364 1_555
Ce4_2 Ce5_2 3.224364 1_555
Ce4_2 Ce4_6 3.239146 1_455
Ce4_2 Ce4_6 3.239146 1_555
Ce4_2 Mg3_3 3.368062 1_554
Ce4_2 Mg3_2 3.368062 1_555
Ce4_2 Mg3_7 3.368062 1_554
Ce4_2 Mg3_6 3.368062 1_555
Ce4_2 Mg0_4 3.549200 1_555
Ce4_2 Mg0_0 3.549200 1_555
Ce4_3 Ce5_3 3.224364 1_555
Ce4_3 Ce5_7 3.224364 1_555
Ce4_3 Ce4_7 3.239146 1_555
Ce4_3 Ce4_7 3.239146 1_455
Ce4_3 Mg3_7 3.368062 1_555
Ce4_3 Mg3_2 3.368062 1_555
Ce4_3 Mg3_3 3.368062 1_555
Ce4_3 Mg3_6 3.368062 1_555
Ce4_3 Mg0_1 3.549200 1_555
Ce4_3 Mg0_5 3.549200 1_555
Ce4_4 Ce5_0 3.224364 1_655
Ce4_4 Ce5_4 3.224364 1_555
Ce4_4 Mg3_4 3.368062 1_555
Ce4_4 Mg3_5 3.368062 1_554
Ce4_4 Mg3_0 3.368062 1_655
Ce4_4 Mg3_1 3.368062 1_654
Ce4_4 Mg0_2 3.549200 1_645
Ce4_4 Mg0_6 3.549200 1_545
Ce4_5 Ce5_5 3.224364 1_555
Ce4_5 Ce5_1 3.224364 1_655
Ce4_5 Mg3_4 3.368062 1_555
Ce4_5 Mg3_0 3.368062 1_655
Ce4_5 Mg3_1 3.368062 1_655
Ce4_5 Mg3_5 3.368062 1_555
Ce4_5 Mg0_3 3.549200 1_645
Ce4_5 Mg0_7 3.549200 1_545
Ce4_6 Ce5_6 3.224364 1_555
Ce4_6 Ce5_2 3.224364 1_655
Ce4_6 Mg3_3 3.368062 1_654
Ce4_6 Mg3_2 3.368062 1_655
Ce4_6 Mg3_7 3.368062 1_554
Ce4_6 Mg3_6 3.368062 1_555
Ce4_6 Mg0_4 3.549200 1_555
Ce4_6 Mg0_0 3.549200 1_655
Ce4_7 Ce5_7 3.224364 1_555
Ce4_7 Ce5_3 3.224364 1_655
Ce4_7 Mg3_3 3.368062 1_655
Ce4_7 Mg3_7 3.368062 1_555
Ce4_7 Mg3_2 3.368062 1_655
Ce4_7 Mg3_6 3.368062 1_555
Ce4_7 Mg0_5 3.549200 1_555
Ce4_7 Mg0_1 3.549200 1_655
Ce5_0 Ce5_4 3.239146 1_455
Ce5_0 Ce5_4 3.239146 1_555
Ce5_0 Mg2_0 3.342598 1_555
Ce5_0 Mg2_4 3.342598 1_455
Ce5_0 Ce6_0 3.404338 1_555
Ce5_0 Ce6_4 3.404338 1_455
Ce5_0 Ce6_5 3.404338 1_454
Ce5_0 Ce6_1 3.404338 1_554
Ce5_0 Mg3_0 3.440085 1_555
Ce5_0 Mg3_1 3.440085 1_554
Ce5_1 Ce5_5 3.239146 1_455
Ce5_1 Ce5_5 3.239146 1_555
Ce5_1 Mg2_5 3.342598 1_455
Ce5_1 Mg2_1 3.342598 1_555
Ce5_1 Ce6_0 3.404338 1_555
Ce5_1 Ce6_1 3.404338 1_555
Ce5_1 Ce6_4 3.404338 1_455
Ce5_1 Ce6_5 3.404338 1_455
Ce5_1 Mg3_1 3.440085 1_555
Ce5_1 Mg3_0 3.440085 1_555
Ce5_2 Ce5_6 3.239146 1_555
Ce5_2 Ce5_6 3.239146 1_455
Ce5_2 Mg2_6 3.342598 1_455
Ce5_2 Mg2_2 3.342598 1_555
Ce5_2 Ce6_6 3.404338 1_455
Ce5_2 Ce6_3 3.404338 1_554
Ce5_2 Ce6_2 3.404338 1_555
Ce5_2 Ce6_7 3.404338 1_454
Ce5_2 Mg3_3 3.440085 1_554
Ce5_2 Mg3_2 3.440085 1_555
Ce5_3 Ce5_7 3.239146 1_455
Ce5_3 Ce5_7 3.239146 1_555
Ce5_3 Mg2_7 3.342598 1_455
Ce5_3 Mg2_3 3.342598 1_555
Ce5_3 Ce6_6 3.404338 1_455
Ce5_3 Ce6_7 3.404338 1_455
Ce5_3 Ce6_2 3.404338 1_555
Ce5_3 Ce6_3 3.404338 1_555
Ce5_3 Mg3_3 3.440085 1_555
Ce5_3 Mg3_2 3.440085 1_555
Ce5_4 Mg2_0 3.342598 1_555
Ce5_4 Mg2_4 3.342598 1_555
Ce5_4 Ce6_0 3.404338 1_555
Ce5_4 Ce6_4 3.404338 1_555
Ce5_4 Ce6_5 3.404338 1_554
Ce5_4 Ce6_1 3.404338 1_554
Ce5_4 Mg3_5 3.440085 1_554
Ce5_4 Mg3_4 3.440085 1_555
Ce5_5 Mg2_1 3.342598 1_555
Ce5_5 Mg2_5 3.342598 1_555
Ce5_5 Ce6_0 3.404338 1_555
Ce5_5 Ce6_4 3.404338 1_555
Ce5_5 Ce6_1 3.404338 1_555
Ce5_5 Ce6_5 3.404338 1_555
Ce5_5 Mg3_5 3.440085 1_555
Ce5_5 Mg3_4 3.440085 1_555
Ce5_6 Mg2_2 3.342598 1_555
Ce5_6 Mg2_6 3.342598 1_555
Ce5_6 Ce6_3 3.404338 1_554
Ce5_6 Ce6_2 3.404338 1_555
Ce5_6 Ce6_6 3.404338 1_555
Ce5_6 Ce6_7 3.404338 1_554
Ce5_6 Mg3_7 3.440085 1_554
Ce5_6 Mg3_6 3.440085 1_555
Ce5_7 Mg2_3 3.342598 1_555
Ce5_7 Mg2_7 3.342598 1_555
Ce5_7 Ce6_7 3.404338 1_555
Ce5_7 Ce6_2 3.404338 1_555
Ce5_7 Ce6_3 3.404338 1_555
Ce5_7 Ce6_6 3.404338 1_555
Ce5_7 Mg3_6 3.440085 1_555
Ce5_7 Mg3_7 3.440085 1_555
Ce6_0 Ce7_0 3.224364 1_555
Ce6_0 Ce7_4 3.224364 1_555
Ce6_0 Ce6_4 3.239146 1_555
Ce6_0 Ce6_4 3.239146 1_455
Ce6_0 Mg3_0 3.342598 1_555
Ce6_0 Mg3_4 3.342598 1_555
Ce6_0 Mg2_1 3.440085 1_555
Ce6_0 Mg2_0 3.440085 1_555
Ce6_1 Ce7_1 3.224364 1_555
Ce6_1 Ce7_5 3.224364 1_555
Ce6_1 Ce6_5 3.239146 1_455
Ce6_1 Ce6_5 3.239146 1_555
Ce6_1 Mg3_1 3.342598 1_555
Ce6_1 Mg3_5 3.342598 1_555
Ce6_1 Mg2_0 3.440085 1_556
Ce6_1 Mg2_1 3.440085 1_555
Ce6_2 Ce7_2 3.224364 1_555
Ce6_2 Ce7_6 3.224364 1_555
Ce6_2 Ce6_6 3.239146 1_455
Ce6_2 Ce6_6 3.239146 1_555
Ce6_2 Mg3_2 3.342598 1_555
Ce6_2 Mg3_6 3.342598 1_555
Ce6_2 Mg2_3 3.440085 1_555
Ce6_2 Mg2_2 3.440085 1_555
Ce6_3 Ce7_3 3.224364 1_555
Ce6_3 Ce7_7 3.224364 1_555
Ce6_3 Ce6_7 3.239146 1_555
Ce6_3 Ce6_7 3.239146 1_455
Ce6_3 Mg3_7 3.342598 1_555
Ce6_3 Mg3_3 3.342598 1_555
Ce6_3 Mg2_2 3.440085 1_556
Ce6_3 Mg2_3 3.440085 1_555
Ce6_4 Ce7_0 3.224364 1_655
Ce6_4 Ce7_4 3.224364 1_555
Ce6_4 Mg3_0 3.342598 1_655
Ce6_4 Mg3_4 3.342598 1_555
Ce6_4 Mg2_4 3.440085 1_555
Ce6_4 Mg2_5 3.440085 1_555
Ce6_5 Ce7_5 3.224364 1_555
Ce6_5 Ce7_1 3.224364 1_655
Ce6_5 Mg3_1 3.342598 1_655
Ce6_5 Mg3_5 3.342598 1_555
Ce6_5 Mg2_4 3.440085 1_556
Ce6_5 Mg2_5 3.440085 1_555
Ce6_6 Ce7_6 3.224364 1_555
Ce6_6 Ce7_2 3.224364 1_655
Ce6_6 Mg3_2 3.342598 1_655
Ce6_6 Mg3_6 3.342598 1_555
Ce6_6 Mg2_7 3.440085 1_555
Ce6_6 Mg2_6 3.440085 1_555
Ce6_7 Ce7_3 3.224364 1_655
Ce6_7 Ce7_7 3.224364 1_555
Ce6_7 Mg3_7 3.342598 1_555
Ce6_7 Mg3_3 3.342598 1_655
Ce6_7 Mg2_7 3.440085 1_555
Ce6_7 Mg2_6 3.440085 1_556
Ce7_0 Ce7_4 3.239146 1_455
Ce7_0 Ce7_4 3.239146 1_555
Ce7_0 Mg2_5 3.368062 1_455
Ce7_0 Mg2_0 3.368062 1_555
Ce7_0 Mg2_1 3.368062 1_555
Ce7_0 Mg2_4 3.368062 1_455
Ce7_0 Mg1_4 3.549200 1_455
Ce7_0 Mg1_0 3.549200 1_555
Ce7_1 Ce7_5 3.239146 1_555
Ce7_1 Ce7_5 3.239146 1_455
Ce7_1 Mg2_4 3.368062 1_456
Ce7_1 Mg2_5 3.368062 1_455
Ce7_1 Mg2_0 3.368062 1_556
Ce7_1 Mg2_1 3.368062 1_555
Ce7_1 Mg1_1 3.549200 1_555
Ce7_1 Mg1_5 3.549200 1_455
Ce7_2 Ce7_6 3.239146 1_455
Ce7_2 Ce7_6 3.239146 1_555
Ce7_2 Mg2_2 3.368062 1_555
Ce7_2 Mg2_3 3.368062 1_555
Ce7_2 Mg2_6 3.368062 1_455
Ce7_2 Mg2_7 3.368062 1_455
Ce7_2 Mg1_2 3.549200 1_555
Ce7_2 Mg1_6 3.549200 1_455
Ce7_3 Ce7_7 3.239146 1_555
Ce7_3 Ce7_7 3.239146 1_455
Ce7_3 Mg2_6 3.368062 1_456
Ce7_3 Mg2_2 3.368062 1_556
Ce7_3 Mg2_3 3.368062 1_555
Ce7_3 Mg2_7 3.368062 1_455
Ce7_3 Mg1_7 3.549200 1_455
Ce7_3 Mg1_3 3.549200 1_555
Ce7_4 Mg2_0 3.368062 1_555
Ce7_4 Mg2_4 3.368062 1_555
Ce7_4 Mg2_1 3.368062 1_555
Ce7_4 Mg2_5 3.368062 1_555
Ce7_4 Mg1_4 3.549200 1_555
Ce7_4 Mg1_0 3.549200 1_555
Ce7_5 Mg2_4 3.368062 1_556
Ce7_5 Mg2_0 3.368062 1_556
Ce7_5 Mg2_1 3.368062 1_555
Ce7_5 Mg2_5 3.368062 1_555
Ce7_5 Mg1_1 3.549200 1_555
Ce7_5 Mg1_5 3.549200 1_555
Ce7_6 Mg2_7 3.368062 1_555
Ce7_6 Mg2_2 3.368062 1_555
Ce7_6 Mg2_6 3.368062 1_555
Ce7_6 Mg2_3 3.368062 1_555
Ce7_6 Mg1_2 3.549200 1_555
Ce7_6 Mg1_6 3.549200 1_555
Ce7_7 Mg2_6 3.368062 1_556
Ce7_7 Mg2_7 3.368062 1_555
Ce7_7 Mg2_2 3.368062 1_556
Ce7_7 Mg2_3 3.368062 1_555
Ce7_7 Mg1_3 3.549200 1_555
Ce7_7 Mg1_7 3.549200 1_555
Mg0_0 Mg0_4 3.239146 1_555
Mg0_0 Mg0_4 3.239146 1_455
Mg0_1 Mg0_5 3.239146 1_555
Mg0_1 Mg0_5 3.239146 1_455
Mg0_2 Mg0_6 3.239146 1_455
Mg0_2 Mg0_6 3.239146 1_555
Mg0_3 Mg0_7 3.239146 1_555
Mg0_3 Mg0_7 3.239146 1_455
Mg1_0 Mg1_4 3.239146 1_555
Mg1_0 Mg1_4 3.239146 1_455
Mg1_1 Mg1_5 3.239146 1_555
Mg1_1 Mg1_5 3.239146 1_455
Mg1_2 Mg1_6 3.239146 1_555
Mg1_2 Mg1_6 3.239146 1_455
Mg1_3 Mg1_7 3.239146 1_455
Mg1_3 Mg1_7 3.239146 1_555
Mg2_0 Mg2_4 3.239146 1_555
Mg2_0 Mg2_4 3.239146 1_455
Mg2_1 Mg2_5 3.239146 1_555
Mg2_1 Mg2_5 3.239146 1_455
Mg2_2 Mg2_6 3.239146 1_555
Mg2_2 Mg2_6 3.239146 1_455
Mg2_3 Mg2_7 3.239146 1_455
Mg2_3 Mg2_7 3.239146 1_555
Mg3_0 Mg3_4 3.239146 1_555
Mg3_0 Mg3_4 3.239146 1_455
Mg3_1 Mg3_5 3.239146 1_455
Mg3_1 Mg3_5 3.239146 1_555
Mg3_2 Mg3_6 3.239146 1_555
Mg3_2 Mg3_6 3.239146 1_455
Mg3_3 Mg3_7 3.239146 1_455
Mg3_3 Mg3_7 3.239146 1_555
