# generated using pymatgen
data_Ca3In2(GeO4)3
_symmetry_space_group_name_H-M   'P 1'
_cell_length_a   11.04701712
_cell_length_b   11.04701712
_cell_length_c   11.04701712
_cell_angle_alpha   109.47122063
_cell_angle_beta   109.47122063
_cell_angle_gamma   109.47122063
_symmetry_Int_Tables_number   1
_chemical_formula_structural   Ca3In2(GeO4)3
_chemical_formula_sum   'Ca12 In8 Ge12 O48'
_cell_volume   1037.79886364
_cell_formula_units_Z   4
loop_
 _symmetry_equiv_pos_site_id
 _symmetry_equiv_pos_as_xyz
  1  'x, y, z'
loop_
 _atom_site_type_symbol
 _atom_site_label
 _atom_site_symmetry_multiplicity
 _atom_site_fract_x
 _atom_site_fract_y
 _atom_site_fract_z
 _atom_site_occupancy
  Ca  Ca0  1  0.87500000  0.62500000  0.75000000  1
  Ca  Ca1  1  0.12500000  0.37500000  0.25000000  1
  Ca  Ca2  1  0.62500000  0.87500000  0.25000000  1
  Ca  Ca3  1  0.62500000  0.75000000  0.87500000  1
  Ca  Ca4  1  0.87500000  0.25000000  0.62500000  1
  Ca  Ca5  1  0.37500000  0.12500000  0.75000000  1
  Ca  Ca6  1  0.37500000  0.25000000  0.12500000  1
  Ca  Ca7  1  0.12500000  0.75000000  0.37500000  1
  Ca  Ca8  1  0.75000000  0.87500000  0.62500000  1
  Ca  Ca9  1  0.25000000  0.12500000  0.37500000  1
  Ca  Ca10  1  0.25000000  0.62500000  0.87500000  1
  Ca  Ca11  1  0.75000000  0.37500000  0.12500000  1
  In  In0  1  0.00000000  -0.00000000  0.00000000  1
  In  In1  1  0.50000000  -0.00000000  0.50000000  1
  In  In2  1  0.50000000  0.50000000  0.00000000  1
  In  In3  1  0.00000000  -0.00000000  0.50000000  1
  In  In4  1  0.00000000  0.50000000  0.50000000  1
  In  In5  1  0.50000000  0.50000000  0.50000000  1
  In  In6  1  0.50000000  -0.00000000  0.00000000  1
  In  In7  1  0.00000000  0.50000000  0.00000000  1
  Ge  Ge0  1  0.62500000  0.37500000  0.75000000  1
  Ge  Ge1  1  0.37500000  0.62500000  0.25000000  1
  Ge  Ge2  1  0.87500000  0.12500000  0.25000000  1
  Ge  Ge3  1  0.37500000  0.75000000  0.62500000  1
  Ge  Ge4  1  0.62500000  0.25000000  0.37500000  1
  Ge  Ge5  1  0.12500000  0.87500000  0.75000000  1
  Ge  Ge6  1  0.12500000  0.25000000  0.87500000  1
  Ge  Ge7  1  0.87500000  0.75000000  0.12500000  1
  Ge  Ge8  1  0.75000000  0.62500000  0.37500000  1
  Ge  Ge9  1  0.25000000  0.37500000  0.62500000  1
  Ge  Ge10  1  0.25000000  0.87500000  0.12500000  1
  Ge  Ge11  1  0.75000000  0.12500000  0.87500000  1
  O  O0  1  0.71247809  0.62412814  0.52041767  1
  O  O1  1  0.28752191  0.37587186  0.47958233  1
  O  O2  1  0.78752191  0.80793957  0.41165005  1
  O  O3  1  0.39628952  0.87587186  0.08834995  1
  O  O4  1  0.62412814  0.52041767  0.71247809  1
  O  O5  1  0.71247809  0.08834995  0.69206043  1
  O  O6  1  0.21247809  0.19206043  0.58834995  1
  O  O7  1  0.60371048  0.12412814  0.91165005  1
  O  O8  1  0.37587186  0.47958233  0.28752191  1
  O  O9  1  0.28752191  0.91165005  0.30793957  1
  O  O10  1  0.10371048  0.69206043  0.97958233  1
  O  O11  1  0.80793957  0.41165005  0.78752191  1
  O  O12  1  0.78752191  0.97958233  0.87587186  1
  O  O13  1  0.89628952  0.30793957  0.02041767  1
  O  O14  1  0.19206043  0.58834995  0.21247809  1
  O  O15  1  0.21247809  0.02041767  0.12412814  1
  O  O16  1  0.87587186  0.08834995  0.39628952  1
  O  O17  1  0.39628952  0.52041767  0.80793957  1
  O  O18  1  0.12412814  0.91165005  0.60371048  1
  O  O19  1  0.60371048  0.47958233  0.19206043  1
  O  O20  1  0.69206043  0.97958233  0.10371048  1
  O  O21  1  0.10371048  0.41165005  0.62412814  1
  O  O22  1  0.30793957  0.02041767  0.89628952  1
  O  O23  1  0.89628952  0.58834995  0.37587186  1
  O  O24  1  0.52041767  0.71247809  0.62412814  1
  O  O25  1  0.62412814  0.10371048  0.41165005  1
  O  O26  1  0.47958233  0.28752191  0.37587186  1
  O  O27  1  0.37587186  0.89628952  0.58834995  1
  O  O28  1  0.08834995  0.39628952  0.87587186  1
  O  O29  1  0.87587186  0.78752191  0.97958233  1
  O  O30  1  0.91165005  0.60371048  0.12412814  1
  O  O31  1  0.12412814  0.21247809  0.02041767  1
  O  O32  1  0.97958233  0.10371048  0.69206043  1
  O  O33  1  0.69206043  0.71247809  0.08834995  1
  O  O34  1  0.02041767  0.89628952  0.30793957  1
  O  O35  1  0.30793957  0.28752191  0.91165005  1
  O  O36  1  0.41165005  0.78752191  0.80793957  1
  O  O37  1  0.80793957  0.39628952  0.52041767  1
  O  O38  1  0.58834995  0.21247809  0.19206043  1
  O  O39  1  0.19206043  0.60371048  0.47958233  1
  O  O40  1  0.08834995  0.69206043  0.71247809  1
  O  O41  1  0.91165005  0.30793957  0.28752191  1
  O  O42  1  0.97958233  0.87587186  0.78752191  1
  O  O43  1  0.02041767  0.12412814  0.21247809  1
  O  O44  1  0.41165005  0.62412814  0.10371048  1
  O  O45  1  0.58834995  0.37587186  0.89628952  1
  O  O46  1  0.52041767  0.80793957  0.39628952  1
  O  O47  1  0.47958233  0.19206043  0.60371048  1
loop_
_geom_bond_atom_site_label_1
_geom_bond_atom_site_label_2
_geom_bond_distance
_geom_bond_site_symmetry_2
Ca0 O4 2.442848 1_555
Ca0 O42 2.442848 1_555
Ca0 O40 2.442848 1_655
Ca0 O11 2.442848 1_555
Ca0 O0 2.567558 1_555
Ca0 O29 2.567558 1_555
Ca0 O37 2.567558 1_555
Ca0 O10 2.567558 1_655
Ca1 O8 2.442848 1_555
Ca1 O43 2.442848 1_555
Ca1 O14 2.442848 1_555
Ca1 O41 2.442848 1_455
Ca1 O31 2.567558 1_555
Ca1 O1 2.567558 1_555
Ca1 O13 2.567558 1_455
Ca1 O39 2.567558 1_555
Ca2 O46 2.442848 1_555
Ca2 O20 2.442848 1_555
Ca2 O44 2.442848 1_555
Ca2 O16 2.442848 1_565
Ca2 O25 2.567558 1_565
Ca2 O2 2.567558 1_555
Ca2 O33 2.567558 1_555
Ca2 O3 2.567558 1_555
Ca3 O24 2.442848 1_555
Ca3 O29 2.442848 1_555
Ca3 O33 2.442848 1_556
Ca3 O36 2.442848 1_555
Ca3 O4 2.567558 1_555
Ca3 O12 2.567558 1_555
Ca3 O20 2.567558 1_556
Ca3 O17 2.567558 1_555
Ca4 O37 2.442848 1_555
Ca4 O32 2.442848 1_555
Ca4 O25 2.442848 1_555
Ca4 O28 2.442848 1_655
Ca4 O21 2.567558 1_655
Ca4 O11 2.567558 1_555
Ca4 O5 2.567558 1_555
Ca4 O16 2.567558 1_555
Ca5 O47 2.442848 1_555
Ca5 O22 2.442848 1_555
Ca5 O45 2.442848 1_555
Ca5 O18 2.442848 1_545
Ca5 O27 2.567558 1_545
Ca5 O6 2.567558 1_555
Ca5 O35 2.567558 1_555
Ca5 O7 2.567558 1_555
Ca6 O31 2.442848 1_555
Ca6 O26 2.442848 1_555
Ca6 O35 2.442848 1_554
Ca6 O38 2.442848 1_555
Ca6 O8 2.567558 1_555
Ca6 O15 2.567558 1_555
Ca6 O22 2.567558 1_554
Ca6 O19 2.567558 1_555
Ca7 O39 2.442848 1_555
Ca7 O34 2.442848 1_555
Ca7 O30 2.442848 1_455
Ca7 O27 2.442848 1_555
Ca7 O14 2.567558 1_555
Ca7 O9 2.567558 1_555
Ca7 O23 2.567558 1_455
Ca7 O18 2.567558 1_555
Ca8 O0 2.442848 1_555
Ca8 O12 2.442848 1_555
Ca8 O5 2.442848 1_565
Ca8 O2 2.442848 1_555
Ca8 O24 2.567558 1_555
Ca8 O42 2.567558 1_555
Ca8 O32 2.567558 1_565
Ca8 O46 2.567558 1_555
Ca9 O15 2.442848 1_555
Ca9 O1 2.442848 1_555
Ca9 O6 2.442848 1_555
Ca9 O9 2.442848 1_545
Ca9 O26 2.567558 1_555
Ca9 O43 2.567558 1_555
Ca9 O34 2.567558 1_545
Ca9 O47 2.567558 1_555
Ca10 O17 2.442848 1_555
Ca10 O10 2.442848 1_555
Ca10 O21 2.442848 1_555
Ca10 O3 2.442848 1_556
Ca10 O44 2.567558 1_556
Ca10 O36 2.567558 1_555
Ca10 O40 2.567558 1_555
Ca10 O28 2.567558 1_555
Ca11 O19 2.442848 1_555
Ca11 O13 2.442848 1_555
Ca11 O23 2.442848 1_555
Ca11 O7 2.442848 1_554
Ca11 O45 2.567558 1_554
Ca11 O41 2.567558 1_555
Ca11 O30 2.567558 1_555
Ca11 O38 2.567558 1_555
In0 O29 2.176201 1_444
In0 O42 2.176201 1_444
In0 O43 2.176201 1_555
In0 O12 2.176201 1_444
In0 O15 2.176201 1_555
In0 O31 2.176201 1_555
In1 O27 2.176201 1_545
In1 O9 2.176201 1_545
In1 O25 2.176201 1_555
In1 O5 2.176201 1_555
In1 O46 2.176201 1_545
In1 O47 2.176201 1_555
In2 O35 2.176201 1_554
In2 O45 2.176201 1_554
In2 O44 2.176201 1_555
In2 O33 2.176201 1_555
In2 O19 2.176201 1_555
In2 O17 2.176201 1_554
In3 O2 2.176201 1_445
In3 O16 2.176201 1_455
In3 O6 2.176201 1_555
In3 O18 2.176201 1_545
In3 O34 2.176201 1_545
In3 O32 2.176201 1_455
In4 O41 2.176201 1_455
In4 O23 2.176201 1_455
In4 O21 2.176201 1_555
In4 O40 2.176201 1_555
In4 O39 2.176201 1_555
In4 O37 2.176201 1_455
In5 O8 2.176201 1_555
In5 O0 2.176201 1_555
In5 O26 2.176201 1_555
In5 O4 2.176201 1_555
In5 O1 2.176201 1_555
In5 O24 2.176201 1_555
In6 O3 2.176201 1_545
In6 O36 2.176201 1_544
In6 O38 2.176201 1_555
In6 O7 2.176201 1_554
In6 O22 2.176201 1_554
In6 O20 2.176201 1_545
In7 O11 2.176201 1_454
In7 O28 2.176201 1_554
In7 O30 2.176201 1_455
In7 O14 2.176201 1_555
In7 O13 2.176201 1_455
In7 O10 2.176201 1_554
Ge0 O11 1.790000 1_555
Ge0 O45 1.790000 1_555
Ge0 O47 1.790000 1_555
Ge0 O4 1.790000 1_555
Ge1 O14 1.790000 1_555
Ge1 O44 1.790000 1_555
Ge1 O46 1.790000 1_555
Ge1 O8 1.790000 1_555
Ge2 O41 1.790000 1_555
Ge2 O16 1.790000 1_555
Ge2 O20 1.790000 1_545
Ge2 O43 1.790000 1_655
Ge3 O36 1.790000 1_555
Ge3 O27 1.790000 1_555
Ge3 O39 1.790000 1_555
Ge3 O24 1.790000 1_555
Ge4 O38 1.790000 1_555
Ge4 O25 1.790000 1_555
Ge4 O37 1.790000 1_555
Ge4 O26 1.790000 1_555
Ge5 O18 1.790000 1_555
Ge5 O40 1.790000 1_555
Ge5 O22 1.790000 1_565
Ge5 O42 1.790000 1_455
Ge6 O28 1.790000 1_555
Ge6 O35 1.790000 1_555
Ge6 O32 1.790000 1_455
Ge6 O31 1.790000 1_556
Ge7 O33 1.790000 1_555
Ge7 O30 1.790000 1_555
Ge7 O34 1.790000 1_655
Ge7 O29 1.790000 1_554
Ge8 O2 1.790000 1_555
Ge8 O23 1.790000 1_555
Ge8 O19 1.790000 1_555
Ge8 O0 1.790000 1_555
Ge9 O6 1.790000 1_555
Ge9 O21 1.790000 1_555
Ge9 O17 1.790000 1_555
Ge9 O1 1.790000 1_555
Ge10 O3 1.790000 1_555
Ge10 O9 1.790000 1_555
Ge10 O10 1.790000 1_554
Ge10 O15 1.790000 1_565
Ge11 O7 1.790000 1_555
Ge11 O5 1.790000 1_555
Ge11 O13 1.790000 1_556
Ge11 O12 1.790000 1_545
