# generated using pymatgen
data_Ni12C8O31
_symmetry_space_group_name_H-M   'P 1'
_cell_length_a   8.39558700
_cell_length_b   8.39558700
_cell_length_c   8.39558700
_cell_angle_alpha   90.00000000
_cell_angle_beta   90.00000000
_cell_angle_gamma   90.00000000
_symmetry_Int_Tables_number   1
_chemical_formula_structural   Ni12C8O31
_chemical_formula_sum   'Ni12 C8 O31'
_cell_volume   591.77034683
_cell_formula_units_Z   1
loop_
 _symmetry_equiv_pos_site_id
 _symmetry_equiv_pos_as_xyz
  1  'x, y, z'
loop_
 _atom_site_type_symbol
 _atom_site_label
 _atom_site_symmetry_multiplicity
 _atom_site_fract_x
 _atom_site_fract_y
 _atom_site_fract_z
 _atom_site_occupancy
  Ni  Ni0  1  0.00000000  0.50000000  0.24977100  1
  Ni  Ni1  1  0.50000000  0.75022900  0.00000000  1
  Ni  Ni2  1  0.75022900  0.00000000  0.50000000  1
  Ni  Ni3  1  0.00000000  0.75022900  0.50000000  1
  Ni  Ni4  1  0.50000000  0.00000000  0.24977100  1
  Ni  Ni5  1  0.75022900  0.50000000  0.00000000  1
  Ni  Ni6  1  0.00000000  0.50000000  0.75022900  1
  Ni  Ni7  1  0.50000000  0.24977100  0.00000000  1
  Ni  Ni8  1  0.00000000  0.24977100  0.50000000  1
  Ni  Ni9  1  0.50000000  0.00000000  0.75022900  1
  Ni  Ni10  1  0.24977100  0.00000000  0.50000000  1
  Ni  Ni11  1  0.24977100  0.50000000  0.00000000  1
  C  C0  1  0.79785700  0.79785700  0.20214300  1
  C  C1  1  0.79785700  0.20214300  0.79785700  1
  C  C2  1  0.20214300  0.79785700  0.79785700  1
  C  C3  1  0.20214300  0.20214300  0.20214300  1
  C  C4  1  0.29444800  0.29444800  0.70555200  1
  C  C5  1  0.29444800  0.70555200  0.29444800  1
  C  C6  1  0.70555200  0.29444800  0.29444800  1
  C  C7  1  0.70555200  0.70555200  0.70555200  1
  O  O0  1  0.50000000  0.50000000  0.50000000  1
  O  O1  1  0.92445200  0.73555100  0.26444900  1
  O  O2  1  0.73555100  0.73555100  0.07554800  1
  O  O3  1  0.73555100  0.92445200  0.26444900  1
  O  O4  1  0.92445200  0.26444900  0.73555100  1
  O  O5  1  0.73555100  0.26444900  0.92445200  1
  O  O6  1  0.73555100  0.07554800  0.73555100  1
  O  O7  1  0.07554800  0.73555100  0.73555100  1
  O  O8  1  0.26444900  0.73555100  0.92445200  1
  O  O9  1  0.26444900  0.92445200  0.73555100  1
  O  O10  1  0.07554800  0.26444900  0.26444900  1
  O  O11  1  0.26444900  0.26444900  0.07554800  1
  O  O12  1  0.26444900  0.07554800  0.26444900  1
  O  O13  1  0.00000000  0.00000000  0.50000000  1
  O  O14  1  0.00000000  0.50000000  0.00000000  1
  O  O15  1  0.50000000  0.00000000  0.00000000  1
  O  O16  1  0.50000000  0.50000000  0.00000000  1
  O  O17  1  0.50000000  0.00000000  0.50000000  1
  O  O18  1  0.00000000  0.50000000  0.50000000  1
  O  O19  1  0.42050800  0.23165300  0.76834700  1
  O  O20  1  0.23165300  0.23165300  0.57949200  1
  O  O21  1  0.23165300  0.42050800  0.76834700  1
  O  O22  1  0.42050800  0.76834700  0.23165300  1
  O  O23  1  0.23165300  0.76834700  0.42050800  1
  O  O24  1  0.23165300  0.57949200  0.23165300  1
  O  O25  1  0.57949200  0.23165300  0.23165300  1
  O  O26  1  0.76834700  0.23165300  0.42050800  1
  O  O27  1  0.76834700  0.42050800  0.23165300  1
  O  O28  1  0.57949200  0.76834700  0.76834700  1
  O  O29  1  0.76834700  0.76834700  0.57949200  1
  O  O30  1  0.76834700  0.57949200  0.76834700  1
loop_
_geom_bond_atom_site_label_1
_geom_bond_atom_site_label_2
_geom_bond_distance
_geom_bond_site_symmetry_2
Ni0 O24 2.061802 1_555
Ni0 O27 2.061802 1_455
Ni0 O10 2.080467 1_555
Ni0 O1 2.080467 1_455
Ni0 O14 2.096974 1_555
Ni0 O18 2.100819 1_555
Ni1 O28 2.061802 1_554
Ni1 O22 2.061802 1_555
Ni1 O2 2.080467 1_555
Ni1 O8 2.080467 1_554
Ni1 O15 2.096974 1_565
Ni1 O16 2.100819 1_555
Ni2 O29 2.061802 1_545
Ni2 O26 2.061802 1_555
Ni2 O6 2.080467 1_555
Ni2 O3 2.080467 1_545
Ni2 O13 2.096974 1_655
Ni2 O17 2.100819 1_555
Ni3 O23 2.061802 1_555
Ni3 O29 2.061802 1_455
Ni3 O7 2.080467 1_555
Ni3 O1 2.080467 1_455
Ni3 O13 2.096974 1_565
Ni3 O18 2.100819 1_555
Ni4 O25 2.061802 1_555
Ni4 O22 2.061802 1_545
Ni4 O12 2.080467 1_555
Ni4 O3 2.080467 1_545
Ni4 O15 2.096974 1_555
Ni4 O17 2.100819 1_555
Ni5 O27 2.061802 1_555
Ni5 O30 2.061802 1_554
Ni5 O2 2.080467 1_555
Ni5 O5 2.080467 1_554
Ni5 O14 2.096974 1_655
Ni5 O16 2.100819 1_555
Ni6 O21 2.061802 1_555
Ni6 O30 2.061802 1_455
Ni6 O7 2.080467 1_555
Ni6 O4 2.080467 1_455
Ni6 O14 2.096974 1_556
Ni6 O18 2.100819 1_555
Ni7 O25 2.061802 1_555
Ni7 O19 2.061802 1_554
Ni7 O11 2.080467 1_555
Ni7 O5 2.080467 1_554
Ni7 O15 2.096974 1_555
Ni7 O16 2.100819 1_555
Ni8 O26 2.061802 1_455
Ni8 O20 2.061802 1_555
Ni8 O10 2.080467 1_555
Ni8 O4 2.080467 1_455
Ni8 O13 2.096974 1_555
Ni8 O18 2.100819 1_555
Ni9 O28 2.061802 1_545
Ni9 O19 2.061802 1_555
Ni9 O6 2.080467 1_555
Ni9 O9 2.080467 1_545
Ni9 O15 2.096974 1_556
Ni9 O17 2.100819 1_555
Ni10 O20 2.061802 1_555
Ni10 O23 2.061802 1_545
Ni10 O12 2.080467 1_555
Ni10 O9 2.080467 1_545
Ni10 O13 2.096974 1_555
Ni10 O17 2.100819 1_555
Ni11 O24 2.061802 1_555
Ni11 O21 2.061802 1_554
Ni11 O11 2.080467 1_555
Ni11 O8 2.080467 1_554
Ni11 O14 2.096974 1_555
Ni11 O16 2.100819 1_555
C0 O3 1.294946 1_555
C0 O1 1.294946 1_555
C0 O2 1.294946 1_555
C1 O5 1.294946 1_555
C1 O4 1.294946 1_555
C1 O6 1.294946 1_555
C2 O9 1.294946 1_555
C2 O8 1.294946 1_555
C2 O7 1.294946 1_555
C3 O10 1.294946 1_555
C3 O12 1.294946 1_555
C3 O11 1.294946 1_555
C4 O20 1.294597 1_555
C4 O21 1.294597 1_555
C4 O19 1.294597 1_555
C5 O24 1.294597 1_555
C5 O22 1.294597 1_555
C5 O23 1.294597 1_555
C6 O25 1.294597 1_555
C6 O26 1.294597 1_555
C6 O27 1.294597 1_555
C7 O28 1.294597 1_555
C7 O29 1.294597 1_555
C7 O30 1.294597 1_555
