# generated using pymatgen
data_LaSmCr2O6
_symmetry_space_group_name_H-M   'P 1'
_cell_length_a   5.50144700
_cell_length_b   5.58657000
_cell_length_c   7.83052000
_cell_angle_alpha   90.00000000
_cell_angle_beta   90.00000000
_cell_angle_gamma   90.00000000
_symmetry_Int_Tables_number   1
_chemical_formula_structural   LaSmCr2O6
_chemical_formula_sum   'La2 Sm2 Cr4 O12'
_cell_volume   240.66491474
_cell_formula_units_Z   2
loop_
 _symmetry_equiv_pos_site_id
 _symmetry_equiv_pos_as_xyz
  1  'x, y, z'
loop_
 _atom_site_type_symbol
 _atom_site_label
 _atom_site_symmetry_multiplicity
 _atom_site_fract_x
 _atom_site_fract_y
 _atom_site_fract_z
 _atom_site_occupancy
  La  La0  1  0.24168400  0.46218800  0.50000000  1
  La  La1  1  0.75831600  0.96218800  0.50000000  1
  Sm  Sm0  1  0.26070300  0.55105900  0.00000000  1
  Sm  Sm1  1  0.73929700  0.05105900  0.00000000  1
  Cr  Cr0  1  0.75105400  0.50080300  0.75405400  1
  Cr  Cr1  1  0.24894600  0.00080300  0.24594600  1
  Cr  Cr2  1  0.75105400  0.50080300  0.24594600  1
  Cr  Cr3  1  0.24894600  0.00080300  0.75405400  1
  O  O0  1  0.54285000  0.79265900  0.80330600  1
  O  O1  1  0.45715000  0.29265900  0.19669400  1
  O  O2  1  0.95458500  0.20547600  0.29018100  1
  O  O3  1  0.04541500  0.70547600  0.70981900  1
  O  O4  1  0.95458500  0.20547600  0.70981900  1
  O  O5  1  0.04541500  0.70547600  0.29018100  1
  O  O6  1  0.54285000  0.79265900  0.19669400  1
  O  O7  1  0.45715000  0.29265900  0.80330600  1
  O  O8  1  0.15504500  0.97115300  0.00000000  1
  O  O9  1  0.84495500  0.47115300  0.00000000  1
  O  O10  1  0.32923000  0.01772600  0.50000000  1
  O  O11  1  0.67077000  0.51772600  0.50000000  1
loop_
_geom_bond_atom_site_label_1
_geom_bond_atom_site_label_2
_geom_bond_distance
_geom_bond_site_symmetry_2
La0 O11 2.380897 1_555
La0 O5 2.390102 1_555
La0 O3 2.390102 1_555
La0 O10 2.529298 1_555
La0 O4 2.692744 1_455
La0 O2 2.692744 1_455
La0 O7 2.818318 1_555
La0 O1 2.818318 1_555
La1 O10 2.380897 1_565
La1 O2 2.390102 1_565
La1 O4 2.390102 1_565
La1 O11 2.529298 1_555
La1 O5 2.692744 1_655
La1 O3 2.692744 1_655
La1 O0 2.818318 1_555
La1 O6 2.818318 1_555
Cr0 O9 2.000834 1_556
Cr0 O3 2.012432 1_655
Cr0 O4 2.023808 1_555
Cr0 O7 2.028602 1_555
Cr0 O0 2.029576 1_555
Cr0 O11 2.040007 1_555
Cr1 O8 2.000834 1_545
Cr1 O2 2.012432 1_455
Cr1 O5 2.023808 1_545
Cr1 O6 2.028602 1_545
Cr1 O1 2.029576 1_555
Cr1 O10 2.040007 1_555
Cr2 O9 2.000834 1_555
Cr2 O5 2.012432 1_655
Cr2 O2 2.023808 1_555
Cr2 O1 2.028602 1_555
Cr2 O6 2.029576 1_555
Cr2 O11 2.040007 1_555
Cr3 O8 2.000834 1_546
Cr3 O4 2.012432 1_455
Cr3 O3 2.023808 1_545
Cr3 O0 2.028602 1_545
Cr3 O7 2.029576 1_555
Cr3 O10 2.040007 1_555
O0 Sm1 2.371532 1_566
O0 Sm0 2.569703 1_556
O1 Sm0 2.371532 1_555
O1 Sm1 2.569703 1_555
O2 Sm1 2.703734 1_555
O3 Sm0 2.703734 1_556
O4 Sm1 2.703734 1_556
O5 Sm0 2.703734 1_555
O6 Sm1 2.371532 1_565
O6 Sm0 2.569703 1_555
O7 Sm0 2.371532 1_556
O7 Sm1 2.569703 1_556
O8 Sm1 2.330371 1_465
O8 Sm0 2.417797 1_555
O9 Sm0 2.330371 1_655
O9 Sm1 2.417797 1_555
