# generated using pymatgen
data_Lu2MgS4
_symmetry_space_group_name_H-M   'P 1'
_cell_length_a   7.08678812
_cell_length_b   7.08678812
_cell_length_c   7.08678812
_cell_angle_alpha   110.32155222
_cell_angle_beta   110.32155222
_cell_angle_gamma   107.78362395
_symmetry_Int_Tables_number   1
_chemical_formula_structural   Lu2MgS4
_chemical_formula_sum   'Lu4 Mg2 S8'
_cell_volume   273.80716549
_cell_formula_units_Z   2
loop_
 _symmetry_equiv_pos_site_id
 _symmetry_equiv_pos_as_xyz
  1  'x, y, z'
loop_
 _atom_site_type_symbol
 _atom_site_label
 _atom_site_symmetry_multiplicity
 _atom_site_fract_x
 _atom_site_fract_y
 _atom_site_fract_z
 _atom_site_occupancy
  Lu  Lu0  1  0.87500000  0.75745000  0.38245100  1
  Lu  Lu1  1  0.50745000  0.12500000  0.88245000  1
  Lu  Lu2  1  0.37500000  0.49254900  0.61754900  1
  Lu  Lu3  1  0.24254900  0.62500000  0.11754900  1
  Mg  Mg0  1  0.00000000  0.00000000  0.00000000  1
  Mg  Mg1  1  0.75000000  0.25000000  0.50000000  1
  S  S0  1  0.50795100  0.37997600  0.25993500  1
  S  S1  1  0.75198400  0.49204900  0.87202500  1
  S  S2  1  0.12004100  0.24801600  0.74006500  1
  S  S3  1  0.62002400  0.87995900  0.12797500  1
  S  S4  1  0.24204900  0.00198400  0.37202500  1
  S  S5  1  0.99801600  0.37004100  0.24006500  1
  S  S6  1  0.62995900  0.87002400  0.62797500  1
  S  S7  1  0.12997600  0.75795100  0.75993500  1
loop_
_geom_bond_atom_site_label_1
_geom_bond_atom_site_label_2
_geom_bond_distance
_geom_bond_site_symmetry_2
Lu0 S7 2.655846 1_655
Lu0 S3 2.655856 1_555
Lu0 S0 2.691409 1_555
Lu0 S4 2.691416 1_665
Lu0 S6 2.942858 1_555
Lu0 S2 2.942861 1_665
Lu0 S5 3.076482 1_555
Lu0 S1 3.076487 1_554
Lu1 S0 2.655852 1_556
Lu1 S6 2.655852 1_545
Lu1 S7 2.691411 1_545
Lu1 S1 2.691411 1_555
Lu1 S5 2.942863 1_556
Lu1 S3 2.942863 1_546
Lu1 S2 3.076481 1_555
Lu1 S4 3.076481 1_555
Lu2 S1 2.655850 1_555
Lu2 S5 2.655850 1_455
Lu2 S2 2.691413 1_555
Lu2 S6 2.691413 1_555
Lu2 S0 2.942856 1_555
Lu2 S4 2.942856 1_555
Lu2 S3 3.076488 1_556
Lu2 S7 3.076488 1_555
Lu3 S2 2.655850 1_554
Lu3 S4 2.655850 1_565
Lu3 S5 2.691413 1_455
Lu3 S3 2.691413 1_555
Lu3 S1 2.942856 1_454
Lu3 S7 2.942856 1_554
Lu3 S6 3.076488 1_555
Lu3 S0 3.076488 1_555
Mg0 S7 2.590730 1_544
Mg0 S6 2.590730 1_444
Mg0 S5 2.590730 1_455
Mg0 S4 2.590730 1_555
Mg0 S3 3.103274 1_445
Mg0 S2 3.103274 1_554
Mg0 S0 3.103274 1_555
Mg0 S1 3.103274 1_444
Mg1 S0 2.590730 1_555
Mg1 S3 2.590730 1_545
Mg1 S2 2.590730 1_655
Mg1 S1 2.590730 1_555
Mg1 S6 3.103274 1_545
Mg1 S5 3.103274 1_555
Mg1 S7 3.103274 1_655
Mg1 S4 3.103274 1_555
