# generated using pymatgen
data_Ce7ZrO16
_symmetry_space_group_name_H-M   'P 1'
_cell_length_a   7.67971400
_cell_length_b   7.67971400
_cell_length_c   5.42610900
_cell_angle_alpha   90.00000000
_cell_angle_beta   90.00000000
_cell_angle_gamma   90.00000000
_symmetry_Int_Tables_number   1
_chemical_formula_structural   Ce7ZrO16
_chemical_formula_sum   'Ce7 Zr1 O16'
_cell_volume   320.02109525
_cell_formula_units_Z   1
loop_
 _symmetry_equiv_pos_site_id
 _symmetry_equiv_pos_as_xyz
  1  'x, y, z'
loop_
 _atom_site_type_symbol
 _atom_site_label
 _atom_site_symmetry_multiplicity
 _atom_site_fract_x
 _atom_site_fract_y
 _atom_site_fract_z
 _atom_site_occupancy
  Ce  Ce0  1  0.24701400  0.24701400  0.50000000  1
  Ce  Ce1  1  0.50000000  0.00000000  0.00000000  1
  Ce  Ce2  1  0.75298600  0.24701400  0.50000000  1
  Ce  Ce3  1  0.00000000  0.50000000  0.00000000  1
  Ce  Ce4  1  0.24701400  0.75298600  0.50000000  1
  Ce  Ce5  1  0.50000000  0.50000000  0.00000000  1
  Ce  Ce6  1  0.75298600  0.75298600  0.50000000  1
  Zr  Zr0  1  0.00000000  0.00000000  0.00000000  1
  O  O0  1  0.00000000  0.24171700  0.24297100  1
  O  O1  1  0.24171700  0.00000000  0.24297100  1
  O  O2  1  0.24171700  0.00000000  0.75702900  1
  O  O3  1  0.00000000  0.24171700  0.75702900  1
  O  O4  1  0.50000000  0.24784200  0.25064800  1
  O  O5  1  0.75828300  0.00000000  0.24297100  1
  O  O6  1  0.75828300  0.00000000  0.75702900  1
  O  O7  1  0.50000000  0.24784200  0.74935200  1
  O  O8  1  0.00000000  0.75828300  0.24297100  1
  O  O9  1  0.24784200  0.50000000  0.25064800  1
  O  O10  1  0.24784200  0.50000000  0.74935200  1
  O  O11  1  0.00000000  0.75828300  0.75702900  1
  O  O12  1  0.50000000  0.75215800  0.25064800  1
  O  O13  1  0.75215800  0.50000000  0.25064800  1
  O  O14  1  0.75215800  0.50000000  0.74935200  1
  O  O15  1  0.50000000  0.75215800  0.74935200  1
loop_
_geom_bond_atom_site_label_1
_geom_bond_atom_site_label_2
_geom_bond_distance
_geom_bond_site_symmetry_2
Ce0 O2 2.354856 1_555
Ce0 O3 2.354856 1_555
Ce0 O1 2.354856 1_555
Ce0 O0 2.354856 1_555
Ce0 O9 2.367569 1_555
Ce0 O7 2.367569 1_555
Ce0 O4 2.367569 1_555
Ce0 O10 2.367569 1_555
Ce1 O12 2.339333 1_545
Ce1 O4 2.339333 1_555
Ce1 O7 2.339333 1_554
Ce1 O15 2.339333 1_544
Ce1 O1 2.381717 1_555
Ce1 O5 2.381717 1_555
Ce1 O6 2.381717 1_554
Ce1 O2 2.381717 1_554
Ce2 O3 2.354856 1_655
Ce2 O5 2.354856 1_555
Ce2 O6 2.354856 1_555
Ce2 O0 2.354856 1_655
Ce2 O13 2.367569 1_555
Ce2 O14 2.367569 1_555
Ce2 O7 2.367569 1_555
Ce2 O4 2.367569 1_555
Ce3 O14 2.339333 1_454
Ce3 O9 2.339333 1_555
Ce3 O13 2.339333 1_455
Ce3 O10 2.339333 1_554
Ce3 O8 2.381717 1_555
Ce3 O0 2.381717 1_555
Ce3 O3 2.381717 1_554
Ce3 O11 2.381717 1_554
Ce4 O2 2.354856 1_565
Ce4 O1 2.354856 1_565
Ce4 O11 2.354856 1_555
Ce4 O8 2.354856 1_555
Ce4 O15 2.367569 1_555
Ce4 O12 2.367569 1_555
Ce4 O10 2.367569 1_555
Ce4 O9 2.367569 1_555
Ce5 O4 2.366380 1_555
Ce5 O7 2.366380 1_554
Ce5 O15 2.366380 1_554
Ce5 O14 2.366380 1_554
Ce5 O12 2.366380 1_555
Ce5 O9 2.366380 1_555
Ce5 O13 2.366380 1_555
Ce5 O10 2.366380 1_554
Ce6 O6 2.354856 1_565
Ce6 O11 2.354856 1_655
Ce6 O8 2.354856 1_655
Ce6 O5 2.354856 1_565
Ce6 O12 2.367569 1_555
Ce6 O13 2.367569 1_555
Ce6 O14 2.367569 1_555
Ce6 O15 2.367569 1_555
O0 Zr0 2.276853 1_555
O1 Zr0 2.276853 1_555
O2 Zr0 2.276853 1_556
O3 Zr0 2.276853 1_556
O5 Zr0 2.276853 1_655
O6 Zr0 2.276853 1_656
O8 Zr0 2.276853 1_565
O11 Zr0 2.276853 1_566
