# generated using pymatgen
data_Ca3V2O7
_symmetry_space_group_name_H-M   'P 1'
_cell_length_a   9.99845183
_cell_length_b   9.99845183
_cell_length_c   5.34689849
_cell_angle_alpha   90.00000000
_cell_angle_beta   90.00000000
_cell_angle_gamma   148.88067758
_symmetry_Int_Tables_number   1
_chemical_formula_structural   Ca3V2O7
_chemical_formula_sum   'Ca6 V4 O14'
_cell_volume   276.25395513
_cell_formula_units_Z   2
loop_
 _symmetry_equiv_pos_site_id
 _symmetry_equiv_pos_as_xyz
  1  'x, y, z'
loop_
 _atom_site_type_symbol
 _atom_site_label
 _atom_site_symmetry_multiplicity
 _atom_site_fract_x
 _atom_site_fract_y
 _atom_site_fract_z
 _atom_site_occupancy
  Ca  Ca0  1  0.24047008  0.24047008  0.27608405  1
  Ca  Ca1  1  0.75952992  0.75952992  0.77608405  1
  Ca  Ca2  1  0.05023552  0.42214425  0.22694528  1
  Ca  Ca3  1  0.94976448  0.57785575  0.72694528  1
  Ca  Ca4  1  0.42214425  0.05023552  0.22694528  1
  Ca  Ca5  1  0.57785575  0.94976448  0.72694528  1
  V  V0  1  0.84282140  0.64674373  0.24682505  1
  V  V1  1  0.15717860  0.35325627  0.74682505  1
  V  V2  1  0.35325627  0.15717860  0.74682505  1
  V  V3  1  0.64674373  0.84282140  0.24682505  1
  O  O0  1  0.60088878  0.99477441  0.25805669  1
  O  O1  1  0.39911122  0.00522559  0.75805669  1
  O  O2  1  0.00522559  0.39911122  0.75805669  1
  O  O3  1  0.99477441  0.60088878  0.25805669  1
  O  O4  1  0.42197174  0.63742541  0.96939180  1
  O  O5  1  0.57802826  0.36257459  0.46939180  1
  O  O6  1  0.36257459  0.57802826  0.46939180  1
  O  O7  1  0.63742541  0.42197174  0.96939180  1
  O  O8  1  0.94305627  0.11591600  0.02982069  1
  O  O9  1  0.05694373  0.88408400  0.52982069  1
  O  O10  1  0.69504314  0.69504314  0.24183494  1
  O  O11  1  0.30495686  0.30495686  0.74183494  1
  O  O12  1  0.11591600  0.94305627  0.02982069  1
  O  O13  1  0.88408400  0.05694373  0.52982069  1
loop_
_geom_bond_atom_site_label_1
_geom_bond_atom_site_label_2
_geom_bond_distance
_geom_bond_site_symmetry_2
Ca0 O8 2.405576 1_455
Ca0 O12 2.405576 1_545
Ca0 O10 2.445198 1_555
Ca0 O11 2.514231 1_555
Ca0 O9 2.590303 1_545
Ca0 O13 2.590303 1_455
Ca0 O6 2.625803 1_555
Ca0 O5 2.625803 1_555
Ca1 O9 2.405576 1_655
Ca1 O13 2.405576 1_565
Ca1 O11 2.445198 1_555
Ca1 O10 2.514231 1_556
Ca1 O8 2.590303 1_566
Ca1 O12 2.590303 1_656
Ca1 O7 2.625803 1_555
Ca1 O4 2.625803 1_555
Ca2 O3 2.286038 1_455
Ca2 O6 2.351265 1_555
Ca2 O0 2.366717 1_445
Ca2 O8 2.452774 1_455
Ca2 O2 2.522630 1_554
Ca2 O4 2.578003 1_554
Ca2 O2 2.853519 1_555
Ca2 O13 2.886053 1_455
Ca2 O0 3.024653 1_555
Ca3 O2 2.286038 1_655
Ca3 O7 2.351265 1_555
Ca3 O1 2.366717 1_665
Ca3 O9 2.452774 1_655
Ca3 O3 2.522630 1_555
Ca3 O5 2.578003 1_555
Ca3 O3 2.853519 1_556
Ca3 O12 2.886053 1_656
Ca3 O1 3.024653 1_555
Ca4 O0 2.286038 1_545
Ca4 O5 2.351265 1_555
Ca4 O3 2.366717 1_445
Ca4 O12 2.452774 1_545
Ca4 O1 2.522630 1_554
Ca4 O7 2.578003 1_554
Ca4 O1 2.853519 1_555
Ca4 O9 2.886053 1_545
Ca4 O3 3.024653 1_555
Ca5 O1 2.286038 1_565
Ca5 O4 2.351265 1_555
Ca5 O2 2.366717 1_665
Ca5 O13 2.452774 1_565
Ca5 O0 2.522630 1_555
Ca5 O6 2.578003 1_555
Ca5 O0 2.853519 1_556
Ca5 O8 2.886053 1_566
Ca5 O2 3.024653 1_555
O0 V3 1.927359 1_555
O1 V2 1.927359 1_555
O2 V1 1.927359 1_555
O3 V0 1.927359 1_555
O4 V3 1.888486 1_556
O4 V1 1.902301 1_555
O5 V2 1.888486 1_555
O5 V0 1.902301 1_555
O6 V1 1.888486 1_555
O6 V3 1.902301 1_555
O7 V0 1.888486 1_556
O7 V2 1.902301 1_555
O8 V3 1.930932 1_545
O8 V1 1.950827 1_654
O9 V2 1.930932 1_565
O9 V0 1.950827 1_455
O10 V3 1.907564 1_555
O10 V0 1.907564 1_555
O11 V2 1.907564 1_555
O11 V1 1.907564 1_555
O12 V0 1.930932 1_455
O12 V2 1.950827 1_564
O13 V1 1.930932 1_655
O13 V3 1.950827 1_545
