# generated using pymatgen
data_CsMg14GaO16
_symmetry_space_group_name_H-M   'P 1'
_cell_length_a   8.81930617
_cell_length_b   8.81930617
_cell_length_c   4.45279382
_cell_angle_alpha   90.00000000
_cell_angle_beta   90.00000000
_cell_angle_gamma   90.00000000
_symmetry_Int_Tables_number   1
_chemical_formula_structural   CsMg14GaO16
_chemical_formula_sum   'Cs1 Mg14 Ga1 O16'
_cell_volume   346.33902165
_cell_formula_units_Z   1
loop_
 _symmetry_equiv_pos_site_id
 _symmetry_equiv_pos_as_xyz
  1  'x, y, z'
loop_
 _atom_site_type_symbol
 _atom_site_label
 _atom_site_symmetry_multiplicity
 _atom_site_fract_x
 _atom_site_fract_y
 _atom_site_fract_z
 _atom_site_occupancy
  Cs  Cs0  1  -0.00000000  -0.00000000  0.00000000  1
  Mg  Mg0  1  -0.00000000  0.50000000  0.00000000  1
  Mg  Mg1  1  0.50000000  -0.00000000  0.00000000  1
  Mg  Mg2  1  -0.00000000  0.26333247  0.50000000  1
  Mg  Mg3  1  -0.00000000  0.73666753  0.50000000  1
  Mg  Mg4  1  0.50000000  0.24994689  0.50000000  1
  Mg  Mg5  1  0.50000000  0.75005311  0.50000000  1
  Mg  Mg6  1  0.26333247  -0.00000000  0.50000000  1
  Mg  Mg7  1  0.24994689  0.50000000  0.50000000  1
  Mg  Mg8  1  0.73666753  -0.00000000  0.50000000  1
  Mg  Mg9  1  0.75005311  0.50000000  0.50000000  1
  Mg  Mg10  1  0.25255602  0.25255602  -0.00000000  1
  Mg  Mg11  1  0.25255602  0.74744398  0.00000000  1
  Mg  Mg12  1  0.74744398  0.25255602  -0.00000000  1
  Mg  Mg13  1  0.74744398  0.74744398  0.00000000  1
  Ga  Ga0  1  0.50000000  0.50000000  0.00000000  1
  O  O0  1  0.28712978  -0.00000000  -0.00000000  1
  O  O1  1  0.26477349  0.50000000  0.00000000  1
  O  O2  1  0.71287022  -0.00000000  0.00000000  1
  O  O3  1  0.73522651  0.50000000  -0.00000000  1
  O  O4  1  0.25107589  0.25107589  0.50000000  1
  O  O5  1  0.25107589  0.74892411  0.50000000  1
  O  O6  1  0.74892411  0.25107589  0.50000000  1
  O  O7  1  0.74892411  0.74892411  0.50000000  1
  O  O8  1  -0.00000000  -0.00000000  0.50000000  1
  O  O9  1  -0.00000000  0.50000000  0.50000000  1
  O  O10  1  0.50000000  -0.00000000  0.50000000  1
  O  O11  1  0.50000000  0.50000000  0.50000000  1
  O  O12  1  -0.00000000  0.28712978  -0.00000000  1
  O  O13  1  -0.00000000  0.71287022  0.00000000  1
  O  O14  1  0.50000000  0.26477349  -0.00000000  1
  O  O15  1  0.50000000  0.73522651  -0.00000000  1
loop_
_geom_bond_atom_site_label_1
_geom_bond_atom_site_label_2
_geom_bond_distance
_geom_bond_site_symmetry_2
Cs0 O8 2.226397 1_554
Cs0 O8 2.226397 1_555
Cs0 O12 2.532285 1_555
Cs0 O0 2.532285 1_555
Cs0 O2 2.532285 1_455
Cs0 O13 2.532285 1_545
Mg0 O12 1.877368 1_555
Mg0 O13 1.877368 1_555
Mg0 O9 2.226397 1_555
Mg0 O9 2.226397 1_554
Mg0 O3 2.335118 1_455
Mg0 O1 2.335118 1_555
Mg1 O2 1.877368 1_555
Mg1 O0 1.877368 1_555
Mg1 O10 2.226397 1_555
Mg1 O10 2.226397 1_554
Mg1 O15 2.335118 1_545
Mg1 O14 2.335118 1_555
Mg2 O9 2.087243 1_555
Mg2 O6 2.216952 1_455
Mg2 O4 2.216952 1_555
Mg2 O12 2.236267 1_556
Mg2 O12 2.236267 1_555
Mg2 O8 2.322410 1_555
Mg3 O9 2.087243 1_555
Mg3 O7 2.216952 1_455
Mg3 O5 2.216952 1_555
Mg3 O13 2.236267 1_555
Mg3 O13 2.236267 1_556
Mg3 O8 2.322410 1_565
Mg4 O4 2.195361 1_555
Mg4 O6 2.195361 1_555
Mg4 O10 2.204358 1_555
Mg4 O11 2.205295 1_555
Mg4 O14 2.230233 1_556
Mg4 O14 2.230233 1_555
Mg5 O5 2.195361 1_555
Mg5 O7 2.195361 1_555
Mg5 O10 2.204358 1_565
Mg5 O11 2.205295 1_555
Mg5 O15 2.230233 1_556
Mg5 O15 2.230233 1_555
Mg6 O10 2.087243 1_555
Mg6 O5 2.216952 1_545
Mg6 O4 2.216952 1_555
Mg6 O0 2.236267 1_555
Mg6 O0 2.236267 1_556
Mg6 O8 2.322410 1_555
Mg7 O4 2.195361 1_555
Mg7 O5 2.195361 1_555
Mg7 O9 2.204358 1_555
Mg7 O11 2.205295 1_555
Mg7 O1 2.230233 1_555
Mg7 O1 2.230233 1_556
Mg8 O10 2.087243 1_555
Mg8 O7 2.216952 1_545
Mg8 O6 2.216952 1_555
Mg8 O2 2.236267 1_556
Mg8 O2 2.236267 1_555
Mg8 O8 2.322410 1_655
Mg9 O6 2.195361 1_555
Mg9 O7 2.195361 1_555
Mg9 O9 2.204358 1_655
Mg9 O11 2.205295 1_555
Mg9 O3 2.230233 1_555
Mg9 O3 2.230233 1_556
Mg10 O1 2.184943 1_555
Mg10 O14 2.184943 1_555
Mg10 O4 2.226473 1_554
Mg10 O4 2.226473 1_555
Mg10 O0 2.248143 1_555
Mg10 O12 2.248143 1_555
Mg11 O1 2.184943 1_555
Mg11 O15 2.184943 1_555
Mg11 O5 2.226473 1_554
Mg11 O5 2.226473 1_555
Mg11 O13 2.248143 1_555
Mg11 O0 2.248143 1_565
Mg12 O3 2.184943 1_555
Mg12 O14 2.184943 1_555
Mg12 O6 2.226473 1_554
Mg12 O6 2.226473 1_555
Mg12 O12 2.248143 1_655
Mg12 O2 2.248143 1_555
Mg13 O3 2.184943 1_555
Mg13 O15 2.184943 1_555
Mg13 O7 2.226473 1_555
Mg13 O7 2.226473 1_554
Mg13 O2 2.248143 1_565
Mg13 O13 2.248143 1_655
Ga0 O1 2.074535 1_555
Ga0 O14 2.074535 1_555
Ga0 O3 2.074535 1_555
Ga0 O15 2.074535 1_555
Ga0 O11 2.226397 1_554
Ga0 O11 2.226397 1_555
