# generated using pymatgen
data_KZr6CI14
_symmetry_space_group_name_H-M   'P 1'
_cell_length_a   11.00741115
_cell_length_b   11.00741115
_cell_length_c   13.05433400
_cell_angle_alpha   90.00000000
_cell_angle_beta   90.00000000
_cell_angle_gamma   94.45679405
_symmetry_Int_Tables_number   1
_chemical_formula_structural   KZr6CI14
_chemical_formula_sum   'K2 Zr12 C2 I28'
_cell_volume   1576.92084805
_cell_formula_units_Z   2
loop_
 _symmetry_equiv_pos_site_id
 _symmetry_equiv_pos_as_xyz
  1  'x, y, z'
loop_
 _atom_site_type_symbol
 _atom_site_label
 _atom_site_symmetry_multiplicity
 _atom_site_fract_x
 _atom_site_fract_y
 _atom_site_fract_z
 _atom_site_occupancy
  K  K0  1  0.50000000  0.50000000  0.00000000  1
  K  K1  1  0.00000000  0.00000000  0.50000000  1
  Zr  Zr0  1  0.37328800  0.37328800  0.40572000  1
  Zr  Zr1  1  0.62671200  0.62671200  0.59428000  1
  Zr  Zr2  1  0.12671200  0.12671200  0.90572000  1
  Zr  Zr3  1  0.87328800  0.87328800  0.09428000  1
  Zr  Zr4  1  0.95807300  0.16503000  0.10639600  1
  Zr  Zr5  1  0.04192700  0.83497000  0.89360400  1
  Zr  Zr6  1  0.54192700  0.33497000  0.60639600  1
  Zr  Zr7  1  0.66503000  0.45807300  0.39360400  1
  Zr  Zr8  1  0.45807300  0.66503000  0.39360400  1
  Zr  Zr9  1  0.33497000  0.54192700  0.60639600  1
  Zr  Zr10  1  0.83497000  0.04192700  0.89360400  1
  Zr  Zr11  1  0.16503000  0.95807300  0.10639600  1
  C  C0  1  0.00000000  0.00000000  0.00000000  1
  C  C1  1  0.50000000  0.50000000  0.50000000  1
  I  I0  1  0.11198900  0.35926500  0.00668000  1
  I  I1  1  0.88801100  0.64073500  0.99332000  1
  I  I2  1  0.38801100  0.14073500  0.50668000  1
  I  I3  1  0.85926500  0.61198900  0.49332000  1
  I  I4  1  0.61198900  0.85926500  0.49332000  1
  I  I5  1  0.14073500  0.38801100  0.50668000  1
  I  I6  1  0.64073500  0.88801100  0.99332000  1
  I  I7  1  0.35926500  0.11198900  0.00668000  1
  I  I8  1  0.75091200  0.24908800  0.00000000  1
  I  I9  1  0.24908800  0.75091200  0.00000000  1
  I  I10  1  0.74908800  0.25091200  0.50000000  1
  I  I11  1  0.25091200  0.74908800  0.50000000  1
  I  I12  1  0.89678700  0.39678700  0.25000000  1
  I  I13  1  0.10321300  0.60321300  0.75000000  1
  I  I14  1  0.60321300  0.10321300  0.75000000  1
  I  I15  1  0.39678700  0.89678700  0.25000000  1
  I  I16  1  0.15046800  0.15046800  0.26181500  1
  I  I17  1  0.84953200  0.84953200  0.73818500  1
  I  I18  1  0.34953200  0.34953200  0.76181500  1
  I  I19  1  0.65046800  0.65046800  0.23818500  1
  I  I20  1  0.29000600  0.53578600  0.25134900  1
  I  I21  1  0.70999400  0.46421400  0.74865100  1
  I  I22  1  0.20999400  0.96421400  0.75134900  1
  I  I23  1  0.03578500  0.79000600  0.24865100  1
  I  I24  1  0.79000600  0.03578600  0.24865100  1
  I  I25  1  0.96421500  0.20999400  0.75134900  1
  I  I26  1  0.46421500  0.70999400  0.74865100  1
  I  I27  1  0.53578600  0.29000600  0.25134900  1
loop_
_geom_bond_atom_site_label_1
_geom_bond_atom_site_label_2
_geom_bond_distance
_geom_bond_site_symmetry_2
C0 Zr2 2.259028 1_554
C0 Zr3 2.259028 1_445
C0 Zr4 2.360566 1_455
C0 Zr11 2.360566 1_545
C0 Zr5 2.360566 1_544
C0 Zr10 2.360566 1_454
C1 Zr1 2.259028 1_555
C1 Zr0 2.259028 1_555
C1 Zr9 2.360566 1_555
C1 Zr6 2.360566 1_555
C1 Zr7 2.360566 1_555
C1 Zr8 2.360566 1_555
I0 Zr2 2.894889 1_554
I0 Zr4 2.927978 1_455
I1 Zr3 2.894889 1_556
I1 Zr5 2.927978 1_655
I2 Zr0 2.894889 1_555
I2 Zr6 2.927978 1_555
I3 Zr1 2.894889 1_555
I3 Zr7 2.927978 1_555
I4 Zr1 2.894889 1_555
I4 Zr8 2.927978 1_555
I5 Zr0 2.894889 1_555
I5 Zr9 2.927978 1_555
I6 Zr3 2.894889 1_556
I6 Zr10 2.927978 1_565
I7 Zr2 2.894889 1_554
I7 Zr11 2.927978 1_545
I8 Zr10 2.883216 1_554
I8 Zr4 2.883216 1_555
I8 K0 4.054824 1_555
I9 Zr5 2.883216 1_554
I9 Zr11 2.883216 1_555
I9 K0 4.054824 1_555
I10 Zr7 2.883216 1_555
I10 Zr6 2.883216 1_555
I10 K1 4.054824 1_655
I11 Zr8 2.883216 1_555
I11 Zr9 2.883216 1_555
I11 K1 4.054824 1_565
I12 Zr7 3.277911 1_555
I12 Zr4 3.277911 1_555
I13 Zr5 3.277911 1_555
I13 Zr9 3.277911 1_555
I14 Zr10 3.277911 1_555
I14 Zr6 3.277911 1_555
I15 Zr8 3.277911 1_555
I15 Zr11 3.277911 1_555
I16 Zr11 2.946151 1_545
I16 Zr4 2.946151 1_455
I16 Zr0 3.824312 1_555
I16 K1 3.837723 1_555
I17 Zr10 2.946151 1_565
I17 Zr5 2.946151 1_655
I17 Zr1 3.824312 1_555
I17 K1 3.837723 1_665
I18 Zr9 2.946151 1_555
I18 Zr6 2.946151 1_555
I18 Zr2 3.824312 1_555
I18 K0 3.837723 1_556
I19 Zr7 2.946151 1_555
I19 Zr8 2.946151 1_555
I19 Zr3 3.824312 1_555
I19 K0 3.837723 1_555
I20 Zr0 2.890617 1_555
I20 Zr8 2.913062 1_555
I20 K0 4.050419 1_555
I21 Zr1 2.890617 1_555
I21 Zr6 2.913062 1_555
I21 K0 4.050419 1_556
I22 Zr2 2.890617 1_565
I22 Zr5 2.913062 1_555
I22 K1 4.050419 1_565
I23 Zr3 2.890610 1_455
I23 Zr11 2.913067 1_555
I23 K1 4.050418 1_565
I24 Zr3 2.890617 1_545
I24 Zr4 2.913062 1_555
I24 K1 4.050419 1_655
I25 Zr2 2.890610 1_655
I25 Zr10 2.913067 1_555
I25 K1 4.050418 1_655
I26 Zr1 2.890610 1_555
I26 Zr9 2.913067 1_555
I26 K0 4.050418 1_556
I27 Zr0 2.890617 1_555
I27 Zr7 2.913062 1_555
I27 K0 4.050419 1_555
