# generated using pymatgen
data_Sr2Y2Ni2O7
_symmetry_space_group_name_H-M   'P 1'
_cell_length_a   12.62709505
_cell_length_b   12.62709505
_cell_length_c   12.62709505
_cell_angle_alpha   154.79970656
_cell_angle_beta   154.69546336
_cell_angle_gamma   36.01397724
_symmetry_Int_Tables_number   1
_chemical_formula_structural   Sr2Y2Ni2O7
_chemical_formula_sum   'Sr4 Y4 Ni4 O14'
_cell_volume   365.94566034
_cell_formula_units_Z   2
loop_
 _symmetry_equiv_pos_site_id
 _symmetry_equiv_pos_as_xyz
  1  'x, y, z'
loop_
 _atom_site_type_symbol
 _atom_site_label
 _atom_site_symmetry_multiplicity
 _atom_site_fract_x
 _atom_site_fract_y
 _atom_site_fract_z
 _atom_site_occupancy
  Sr  Sr0  1  0.85227900  0.83550100  0.96510300  1
  Sr  Sr1  1  0.14772100  0.11282300  0.98322200  1
  Sr  Sr2  1  0.62960200  0.61282300  0.96510300  1
  Sr  Sr3  1  0.37039800  0.33550100  0.98322200  1
  Y  Y0  1  0.50000000  0.47194200  0.97194200  1
  Y  Y1  1  0.00000000  0.97194200  0.97194200  1
  Y  Y2  1  0.20433200  0.76764500  0.47197700  1
  Y  Y3  1  0.79566800  0.26764500  0.56331300  1
  Ni  Ni0  1  0.92288300  0.39276400  0.46990500  1
  Ni  Ni1  1  0.07711700  0.54702200  0.46988100  1
  Ni  Ni2  1  0.57714100  0.04702200  0.46990500  1
  Ni  Ni3  1  0.42285900  0.89276400  0.46988100  1
  O  O0  1  0.81956000  0.66862200  0.98818200  1
  O  O1  1  0.18044000  0.16862200  0.84906200  1
  O  O2  1  0.70217000  0.67117800  0.49240000  1
  O  O3  1  0.29783000  0.79023000  0.96900800  1
  O  O4  1  0.32122200  0.29023000  0.49240000  1
  O  O5  1  0.67877800  0.17117800  0.96900800  1
  O  O6  1  0.17738700  0.14643600  0.44767200  1
  O  O7  1  0.82261300  0.27028500  0.96904900  1
  O  O8  1  0.80123600  0.77028500  0.44767200  1
  O  O9  1  0.19876400  0.64643600  0.96904900  1
  O  O10  1  0.36143500  0.78984000  0.47715000  1
  O  O11  1  0.63856500  0.11571500  0.42840500  1
  O  O12  1  0.18731000  0.61571500  0.47715000  1
  O  O13  1  0.81269000  0.28984000  0.42840500  1
loop_
_geom_bond_atom_site_label_1
_geom_bond_atom_site_label_2
_geom_bond_distance
_geom_bond_site_symmetry_2
Ni0 O9 1.984550 1_655
Ni0 O6 1.990333 1_655
Ni0 O2 1.995245 1_555
Ni0 O5 2.002692 1_554
Ni0 O13 2.067441 1_555
Ni1 O8 1.984550 1_455
Ni1 O7 1.990333 1_454
Ni1 O3 1.995245 1_555
Ni1 O4 2.002692 1_555
Ni1 O12 2.067441 1_555
Ni2 O7 1.984550 1_555
Ni2 O8 1.990333 1_545
Ni2 O4 1.995245 1_555
Ni2 O3 2.002692 1_544
Ni2 O11 2.067441 1_555
Ni3 O6 1.984550 1_565
Ni3 O9 1.990333 1_554
Ni3 O5 1.995245 1_565
Ni3 O2 2.002692 1_555
Ni3 O10 2.067441 1_555
O0 Y2 2.197171 1_656
O0 Y3 2.212970 1_555
O0 Sr0 2.726396 1_555
O0 Sr2 2.726408 1_555
O1 Y3 2.197171 1_455
O1 Y2 2.212970 1_545
O1 Sr3 2.726396 1_555
O1 Sr1 2.726408 1_555
O2 Y1 2.355365 1_655
O2 Y0 2.484259 1_554
O2 Sr0 2.649386 1_555
O2 Sr3 2.750033 1_554
O3 Y1 2.355365 1_555
O3 Y0 2.484259 1_555
O3 Sr1 2.649374 1_565
O3 Sr2 2.750028 1_555
O4 Y0 2.355365 1_555
O4 Y1 2.484259 1_544
O4 Sr2 2.649377 1_555
O4 Sr1 2.750025 1_554
O5 Y0 2.355365 1_555
O5 Y1 2.484259 1_645
O5 Sr3 2.649386 1_555
O5 Sr0 2.750033 1_545
O6 Y1 2.379208 1_544
O6 Y0 2.529797 1_555
O6 Sr0 2.636068 1_444
O6 Sr3 2.786995 1_555
O7 Y1 2.379208 1_645
O7 Y0 2.529797 1_555
O7 Sr1 2.636063 1_655
O7 Sr2 2.786984 1_555
O8 Y0 2.379208 1_554
O8 Y1 2.529797 1_655
O8 Sr2 2.636060 1_554
O8 Sr1 2.786987 1_665
O9 Y0 2.379208 1_555
O9 Y1 2.529797 1_555
O9 Sr3 2.636068 1_555
O9 Sr0 2.786995 1_455
O10 Y2 2.156405 1_555
O10 Sr0 2.648487 1_555
O10 Sr3 2.701756 1_554
O10 Sr3 2.932159 1_565
O10 Sr0 3.010044 1_454
O11 Y3 2.156405 1_555
O11 Sr1 2.648487 1_554
O11 Sr2 2.701761 1_544
O11 Sr2 2.932159 1_555
O11 Sr1 3.010049 1_655
O12 Y2 2.156405 1_555
O12 Sr2 2.648492 1_555
O12 Sr1 2.701761 1_554
O12 Sr1 2.932159 1_565
O12 Sr2 3.010043 1_454
O13 Y3 2.156405 1_555
O13 Sr3 2.648487 1_554
O13 Sr0 2.701756 1_544
O13 Sr0 2.932159 1_555
O13 Sr3 3.010044 1_655
