# generated using pymatgen
data_Sc2SnAu2
_symmetry_space_group_name_H-M   'P 1'
_cell_length_a   7.58665667
_cell_length_b   7.58665667
_cell_length_c   3.54939042
_cell_angle_alpha   90.00000000
_cell_angle_beta   90.00000000
_cell_angle_gamma   90.00000000
_symmetry_Int_Tables_number   1
_chemical_formula_structural   Sc2SnAu2
_chemical_formula_sum   'Sc4 Sn2 Au4'
_cell_volume   204.29354016
_cell_formula_units_Z   2
loop_
 _symmetry_equiv_pos_site_id
 _symmetry_equiv_pos_as_xyz
  1  'x, y, z'
loop_
 _atom_site_type_symbol
 _atom_site_label
 _atom_site_symmetry_multiplicity
 _atom_site_fract_x
 _atom_site_fract_y
 _atom_site_fract_z
 _atom_site_occupancy
  Sc  Sc0  1  0.16720009  0.33279991  0.00000000  1
  Sc  Sc1  1  0.83279991  0.66720009  -0.00000000  1
  Sc  Sc2  1  0.66720009  0.16720009  -0.00000000  1
  Sc  Sc3  1  0.33279991  0.83279991  0.00000000  1
  Sn  Sn0  1  0.00000000  -0.00000000  0.50000000  1
  Sn  Sn1  1  0.50000000  0.50000000  0.50000000  1
  Au  Au0  1  0.36997796  0.13002204  0.50000000  1
  Au  Au1  1  0.63002204  0.86997796  0.50000000  1
  Au  Au2  1  0.86997796  0.36997796  0.50000000  1
  Au  Au3  1  0.13002204  0.63002204  0.50000000  1
loop_
_geom_bond_atom_site_label_1
_geom_bond_atom_site_label_2
_geom_bond_distance
_geom_bond_site_symmetry_2
Sc0 Sn1 3.336678 1_555
Sc0 Sn1 3.336678 1_554
Sc0 Sn0 3.336678 1_555
Sc0 Sn0 3.336678 1_554
Sc1 Sn0 3.336678 1_665
Sc1 Sn1 3.336678 1_555
Sc1 Sn1 3.336678 1_554
Sc1 Sn0 3.336678 1_664
Sc2 Sn0 3.336678 1_655
Sc2 Sn1 3.336678 1_555
Sc2 Sn1 3.336678 1_554
Sc2 Sn0 3.336678 1_654
Sc3 Sn1 3.336678 1_555
Sc3 Sn1 3.336678 1_554
Sc3 Sn0 3.336678 1_564
Sc3 Sn0 3.336678 1_565
Au0 Au1 2.790053 1_545
Au0 Sc0 2.807656 1_556
Au0 Sc0 2.807656 1_555
Au0 Sc3 2.883362 1_545
Au0 Sc2 2.883362 1_556
Au0 Sc3 2.883362 1_546
Au0 Sc2 2.883362 1_555
Au0 Sn1 2.975183 1_555
Au0 Sn0 2.975183 1_555
Au1 Sc1 2.807656 1_556
Au1 Sc1 2.807656 1_555
Au1 Sc2 2.883362 1_566
Au1 Sc2 2.883362 1_565
Au1 Sc3 2.883362 1_555
Au1 Sc3 2.883362 1_556
Au1 Sn0 2.975183 1_665
Au1 Sn1 2.975183 1_555
Au2 Au3 2.790053 1_655
Au2 Sc2 2.807656 1_555
Au2 Sc2 2.807656 1_556
Au2 Sc0 2.883362 1_655
Au2 Sc0 2.883362 1_656
Au2 Sc1 2.883362 1_556
Au2 Sc1 2.883362 1_555
Au2 Sn0 2.975183 1_655
Au2 Sn1 2.975183 1_555
Au3 Sc3 2.807656 1_556
Au3 Sc3 2.807656 1_555
Au3 Sc1 2.883362 1_455
Au3 Sc0 2.883362 1_555
Au3 Sc0 2.883362 1_556
Au3 Sc1 2.883362 1_456
Au3 Sn0 2.975183 1_565
Au3 Sn1 2.975183 1_555
