# generated using pymatgen
data_Pr4CoS7
_symmetry_space_group_name_H-M   'P 1'
_cell_length_a   9.93712862
_cell_length_b   9.93712862
_cell_length_c   6.85826800
_cell_angle_alpha   90.00000000
_cell_angle_beta   90.00000000
_cell_angle_gamma   120.00000410
_symmetry_Int_Tables_number   1
_chemical_formula_structural   Pr4CoS7
_chemical_formula_sum   'Pr8 Co2 S14'
_cell_volume   586.49847551
_cell_formula_units_Z   2
loop_
 _symmetry_equiv_pos_site_id
 _symmetry_equiv_pos_as_xyz
  1  'x, y, z'
loop_
 _atom_site_type_symbol
 _atom_site_label
 _atom_site_symmetry_multiplicity
 _atom_site_fract_x
 _atom_site_fract_y
 _atom_site_fract_z
 _atom_site_occupancy
  Pr  Pr0  1  0.33333300  0.66666700  0.16858000  1
  Pr  Pr1  1  0.66666700  0.33333300  0.66858000  1
  Pr  Pr2  1  0.37307100  0.21942300  0.21126400  1
  Pr  Pr3  1  0.78057700  0.15364800  0.21126400  1
  Pr  Pr4  1  0.62692900  0.78057700  0.71126400  1
  Pr  Pr5  1  0.84635200  0.62692900  0.21126400  1
  Pr  Pr6  1  0.21942300  0.84635200  0.71126400  1
  Pr  Pr7  1  0.15364800  0.37307100  0.71126400  1
  Co  Co0  1  0.00000000  0.00000000  0.02127900  1
  Co  Co1  1  0.00000000  0.00000000  0.52127900  1
  S  S0  1  0.50822500  0.07043200  0.45546600  1
  S  S1  1  0.92956800  0.43779400  0.45546600  1
  S  S2  1  0.49177500  0.92956800  0.95546600  1
  S  S3  1  0.56220600  0.49177500  0.45546600  1
  S  S4  1  0.07043200  0.56220600  0.95546600  1
  S  S5  1  0.43779400  0.50822500  0.95546600  1
  S  S6  1  0.33333300  0.66666700  0.55709000  1
  S  S7  1  0.66666700  0.33333300  0.05709000  1
  S  S8  1  0.09832500  0.22662200  0.31628700  1
  S  S9  1  0.77337800  0.87170400  0.31628700  1
  S  S10  1  0.90167500  0.77337800  0.81628700  1
  S  S11  1  0.12829600  0.90167500  0.31628700  1
  S  S12  1  0.22662200  0.12829600  0.81628700  1
  S  S13  1  0.87170400  0.09832500  0.81628700  1
loop_
_geom_bond_atom_site_label_1
_geom_bond_atom_site_label_2
_geom_bond_distance
_geom_bond_site_symmetry_2
Pr0 S6 2.664506 1_555
Pr0 S4 2.706839 1_554
Pr0 S2 2.706841 1_554
Pr0 S5 2.706854 1_554
Pr1 S7 2.664506 1_556
Pr1 S1 2.706839 1_555
Pr1 S0 2.706841 1_555
Pr1 S3 2.706854 1_555
Pr2 S7 2.758385 1_555
Pr2 S8 2.858871 1_555
Pr2 S3 2.928370 1_555
Pr2 S11 2.953779 1_545
Pr2 S0 2.964653 1_555
Pr2 S12 2.992983 1_554
Pr2 S5 3.143511 1_554
Pr3 S7 2.758377 1_555
Pr3 S9 2.858861 1_545
Pr3 S0 2.928372 1_555
Pr3 S8 2.953777 1_655
Pr3 S1 2.964660 1_555
Pr3 S13 2.992986 1_554
Pr3 S2 3.143514 1_544
Pr4 S6 2.758385 1_555
Pr4 S10 2.858871 1_555
Pr4 S5 2.928370 1_555
Pr4 S13 2.953779 1_565
Pr4 S2 2.964653 1_555
Pr4 S9 2.992983 1_555
Pr4 S3 3.143511 1_555
Pr5 S7 2.758384 1_555
Pr5 S11 2.858866 1_655
Pr5 S1 2.928364 1_555
Pr5 S9 2.953786 1_555
Pr5 S3 2.964660 1_555
Pr5 S10 2.992982 1_554
Pr5 S4 3.143519 1_654
Pr6 S6 2.758377 1_555
Pr6 S12 2.858861 1_565
Pr6 S2 2.928372 1_555
Pr6 S10 2.953777 1_455
Pr6 S4 2.964660 1_555
Pr6 S11 2.992986 1_555
Pr6 S0 3.143514 1_565
Pr7 S6 2.758384 1_555
Pr7 S13 2.858866 1_455
Pr7 S4 2.928364 1_555
Pr7 S12 2.953786 1_555
Pr7 S5 2.964660 1_555
Pr7 S8 2.992982 1_555
Pr7 S1 3.143519 1_455
Co0 S13 2.408776 1_454
Co0 S12 2.408783 1_554
Co0 S10 2.408783 1_444
Co0 S11 2.814106 1_545
Co0 S9 2.814111 1_445
Co0 S8 2.814112 1_555
Co1 S11 2.408776 1_545
Co1 S9 2.408783 1_445
Co1 S8 2.408783 1_555
Co1 S13 2.814106 1_455
Co1 S12 2.814111 1_555
Co1 S10 2.814112 1_445
