# generated using pymatgen
data_MgZn3O4
_symmetry_space_group_name_H-M   'P 1'
_cell_length_a   6.12033387
_cell_length_b   6.12033387
_cell_length_c   5.61554645
_cell_angle_alpha   62.66825634
_cell_angle_beta   62.66825634
_cell_angle_gamma   30.83722332
_symmetry_Int_Tables_number   1
_chemical_formula_structural   MgZn3O4
_chemical_formula_sum   'Mg1 Zn3 O4'
_cell_volume   94.81007502
_cell_formula_units_Z   1
loop_
 _symmetry_equiv_pos_site_id
 _symmetry_equiv_pos_as_xyz
  1  'x, y, z'
loop_
 _atom_site_type_symbol
 _atom_site_label
 _atom_site_symmetry_multiplicity
 _atom_site_fract_x
 _atom_site_fract_y
 _atom_site_fract_z
 _atom_site_occupancy
  Mg  Mg0  1  0.74868381  0.74868381  0.58267823  1
  Zn  Zn0  1  0.24936905  0.24936905  0.08554036  1
  Zn  Zn1  1  0.50073319  0.50073319  0.16834162  1
  Zn  Zn2  1  0.00016392  0.00016392  0.66453707  1
  O  O0  1  0.93863828  0.93863828  0.39384913  1
  O  O1  1  0.44150623  0.44150623  0.89187996  1
  O  O2  1  0.19129210  0.19129210  0.47739899  1
  O  O3  1  0.69165441  0.69165441  0.97377564  1
loop_
_geom_bond_atom_site_label_1
_geom_bond_atom_site_label_2
_geom_bond_distance
_geom_bond_site_symmetry_2
Mg0 O2 1.958916 1_565
Mg0 O2 1.958916 1_655
Mg0 O3 1.966830 1_555
Mg0 O0 1.970932 1_555
O0 Zn2 1.972031 1_665
O0 Zn1 1.975970 1_565
O0 Zn1 1.975970 1_655
O1 Zn2 1.978638 1_565
O1 Zn2 1.978638 1_655
O1 Zn1 1.982974 1_556
O1 Zn0 1.993581 1_556
O2 Zn0 1.968592 1_555
O2 Zn2 1.983234 1_555
O3 Zn0 1.978052 1_566
O3 Zn0 1.978052 1_656
O3 Zn1 1.981046 1_556
