# generated using pymatgen
data_Al2Fe3(BiO4)3
_symmetry_space_group_name_H-M   'P 1'
_cell_length_a   5.36031550
_cell_length_b   5.61647535
_cell_length_c   9.52113912
_cell_angle_alpha   106.97060500
_cell_angle_beta   89.84334171
_cell_angle_gamma   118.96077035
_symmetry_Int_Tables_number   1
_chemical_formula_structural   Al2Fe3(BiO4)3
_chemical_formula_sum   'Al2 Fe3 Bi3 O12'
_cell_volume   236.56583637
_cell_formula_units_Z   1
loop_
 _symmetry_equiv_pos_site_id
 _symmetry_equiv_pos_as_xyz
  1  'x, y, z'
loop_
 _atom_site_type_symbol
 _atom_site_label
 _atom_site_symmetry_multiplicity
 _atom_site_fract_x
 _atom_site_fract_y
 _atom_site_fract_z
 _atom_site_occupancy
  Al  Al0  1  0.52245800  0.06267200  0.50719500  1
  Al  Al1  1  0.05481600  0.13307200  0.36696200  1
  Fe  Fe0  1  0.59010800  0.16144500  0.84600100  1
  Fe  Fe1  1  0.33093500  0.65855800  0.12544100  1
  Fe  Fe2  1  0.84134000  0.68197100  0.59514200  1
  Bi  Bi0  1  0.25390100  0.47878300  0.74293800  1
  Bi  Bi1  1  0.72971000  0.45615500  0.24442100  1
  Bi  Bi2  1  0.99117700  0.96781200  0.99908900  1
  O  O0  1  0.77004500  0.37609000  0.70897200  1
  O  O1  1  0.23334200  0.32461000  0.22489200  1
  O  O2  1  0.38014800  0.32848200  0.51676000  1
  O  O3  1  0.91113700  0.37872000  0.02158100  1
  O  O4  1  0.37711300  0.35104000  0.94127600  1
  O  O5  1  0.85117800  0.33460200  0.43727300  1
  O  O6  1  0.27299900  0.88928400  0.64329400  1
  O  O7  1  0.74806500  0.85028700  0.19889200  1
  O  O8  1  0.72681800  0.87245600  0.76842500  1
  O  O9  1  0.23140300  0.86261600  0.31328200  1
  O  O10  1  0.37040500  0.87263500  0.97861800  1
  O  O11  1  0.77490100  0.88270900  0.47354700  1
loop_
_geom_bond_atom_site_label_1
_geom_bond_atom_site_label_2
_geom_bond_distance
_geom_bond_site_symmetry_2
Al0 O2 1.960132 1_555
Al0 O5 1.965091 1_555
Al0 O6 1.970190 1_545
Al0 O11 2.022000 1_545
Al0 O9 2.052409 1_545
Al0 O0 2.080423 1_555
Al1 O2 1.877810 1_555
Al1 O5 1.915989 1_455
Al1 O1 1.936024 1_555
Al1 O7 1.946425 1_445
Al1 O11 2.009948 1_445
Al1 O9 2.097895 1_545
Fe0 O4 1.966760 1_555
Fe0 O0 1.967497 1_555
Fe0 O3 2.009041 1_556
Fe0 O8 2.041096 1_545
Fe0 O6 2.174928 1_545
Fe0 O10 2.224852 1_545
Fe1 O7 1.971124 1_555
Fe1 O10 2.043975 1_554
Fe1 O9 2.046249 1_555
Fe1 O3 2.047333 1_455
Fe1 O4 2.182365 1_554
Fe1 O1 2.184495 1_555
Fe2 O8 1.960489 1_555
Fe2 O11 1.972646 1_555
Fe2 O6 2.001212 1_655
Fe2 O5 2.110862 1_555
Fe2 O0 2.172769 1_555
Fe2 O2 2.236543 1_555
Bi0 O2 2.300446 1_555
Bi0 O0 2.368782 1_455
Bi0 O8 2.374016 1_555
Bi0 O4 2.402843 1_555
Bi0 O10 2.467935 1_555
Bi0 O6 2.697034 1_555
Bi1 O5 2.330307 1_555
Bi1 O7 2.333833 1_555
Bi1 O3 2.344384 1_555
Bi1 O1 2.382963 1_555
Bi1 O9 2.462508 1_655
Bi1 O11 2.635761 1_555
Bi2 O1 2.303042 1_666
Bi2 O10 2.333513 1_655
Bi2 O4 2.364050 1_665
Bi2 O7 2.374724 1_556
Bi2 O8 2.390297 1_555
Bi2 O3 2.495197 1_566
