# generated using pymatgen
data_CoAu(BrN)6
_symmetry_space_group_name_H-M   'P 1'
_cell_length_a   6.21801600
_cell_length_b   10.91927100
_cell_length_c   17.26452159
_cell_angle_alpha   50.82866353
_cell_angle_beta   90.00000000
_cell_angle_gamma   90.00000000
_symmetry_Int_Tables_number   1
_chemical_formula_structural   CoAu(BrN)6
_chemical_formula_sum   'Co2 Au2 Br12 N12'
_cell_volume   908.75691650
_cell_formula_units_Z   2
loop_
 _symmetry_equiv_pos_site_id
 _symmetry_equiv_pos_as_xyz
  1  'x, y, z'
loop_
 _atom_site_type_symbol
 _atom_site_label
 _atom_site_symmetry_multiplicity
 _atom_site_fract_x
 _atom_site_fract_y
 _atom_site_fract_z
 _atom_site_occupancy
  Co  Co0  1  0.50000000  0.00000000  0.00000000  1
  Co  Co1  1  0.00000000  0.00000000  0.50000000  1
  Au  Au0  1  0.00000000  0.50000000  0.00000000  1
  Au  Au1  1  0.50000000  0.50000000  0.50000000  1
  Br  Br0  1  0.66934900  0.66375400  0.90731000  1
  Br  Br1  1  0.83065100  0.66375400  0.40731000  1
  Br  Br2  1  0.33065100  0.33624600  0.09269000  1
  Br  Br3  1  0.16934900  0.33624600  0.59269000  1
  Br  Br4  1  0.18114200  0.75182800  0.86615200  1
  Br  Br5  1  0.31885800  0.75182800  0.36615200  1
  Br  Br6  1  0.81885800  0.24817200  0.13384800  1
  Br  Br7  1  0.68114200  0.24817200  0.63384800  1
  Br  Br8  1  0.46150900  0.85806000  0.63633300  1
  Br  Br9  1  0.03849100  0.85806000  0.13633300  1
  Br  Br10  1  0.53849100  0.14194000  0.36366700  1
  Br  Br11  1  0.96150900  0.14194000  0.86366700  1
  N  N0  1  0.41254200  0.34120500  0.84361700  1
  N  N1  1  0.08745800  0.34120500  0.34361700  1
  N  N2  1  0.58745800  0.65879500  0.15638300  1
  N  N3  1  0.91254200  0.65879500  0.65638300  1
  N  N4  1  0.73668500  0.04606000  0.94351700  1
  N  N5  1  0.76331500  0.04606000  0.44351700  1
  N  N6  1  0.26331500  0.95394000  0.05648300  1
  N  N7  1  0.23668500  0.95394000  0.55648300  1
  N  N8  1  0.51387900  0.32871600  0.90153500  1
  N  N9  1  0.98612100  0.32871600  0.40153500  1
  N  N10  1  0.48612100  0.67128400  0.09846500  1
  N  N11  1  0.01387900  0.67128400  0.59846500  1
loop_
_geom_bond_atom_site_label_1
_geom_bond_atom_site_label_2
_geom_bond_distance
_geom_bond_site_symmetry_2
Co0 N6 1.658383 1_545
Co0 N4 1.658383 1_554
Co1 N7 1.658383 1_545
Co1 N5 1.658383 1_455
Au0 Br6 2.478430 1_455
Au0 Br4 2.478430 1_554
Au0 Br2 2.523965 1_555
Au0 Br0 2.523965 1_454
Au1 Br7 2.478430 1_555
Au1 Br5 2.478430 1_555
Au1 Br1 2.523965 1_555
Au1 Br3 2.523965 1_555
Br8 N7 1.768491 1_555
Br9 N6 1.768491 1_555
Br10 N5 1.768491 1_555
Br11 N4 1.768491 1_555
N0 N8 1.115004 1_555
N1 N9 1.115004 1_455
N10 N2 1.115004 1_555
N11 N3 1.115004 1_455
