# generated using pymatgen
data_LaCu2Ni3
_symmetry_space_group_name_H-M   'P 1'
_cell_length_a   5.04133016
_cell_length_b   5.04139389
_cell_length_c   3.92775182
_cell_angle_alpha   90.00000000
_cell_angle_beta   90.00000000
_cell_angle_gamma   119.99958850
_symmetry_Int_Tables_number   1
_chemical_formula_structural   LaCu2Ni3
_chemical_formula_sum   'La1 Cu2 Ni3'
_cell_volume   86.45144208
_cell_formula_units_Z   1
loop_
 _symmetry_equiv_pos_site_id
 _symmetry_equiv_pos_as_xyz
  1  'x, y, z'
loop_
 _atom_site_type_symbol
 _atom_site_label
 _atom_site_symmetry_multiplicity
 _atom_site_fract_x
 _atom_site_fract_y
 _atom_site_fract_z
 _atom_site_occupancy
  La  La0  1  -0.00000000  0.00000000  -0.00000000  1
  Cu  Cu0  1  0.66667682  0.33335265  -0.00000000  1
  Cu  Cu1  1  0.33332318  0.66664735  0.00000000  1
  Ni  Ni0  1  0.50000000  0.50000000  0.50000000  1
  Ni  Ni1  1  0.50000000  0.00000000  0.50000000  1
  Ni  Ni2  1  0.00000000  0.50000000  0.50000000  1
loop_
_geom_bond_atom_site_label_1
_geom_bond_atom_site_label_2
_geom_bond_distance
_geom_bond_site_symmetry_2
La0 Ni1 3.195397 1_554
La0 Ni1 3.195397 1_455
La0 Ni1 3.195397 1_454
La0 Ni1 3.195397 1_555
La0 Ni0 3.195422 1_555
La0 Ni0 3.195422 1_554
La0 Ni0 3.195422 1_444
La0 Ni0 3.195422 1_445
La0 Ni2 3.195422 1_544
La0 Ni2 3.195422 1_555
La0 Ni2 3.195422 1_545
La0 Ni2 3.195422 1_554
Cu0 Ni2 2.444302 1_654
Cu0 Ni2 2.444302 1_655
Cu0 Ni0 2.444305 1_554
Cu0 Ni0 2.444305 1_555
Cu0 Ni1 2.444390 1_555
Cu0 Ni1 2.444390 1_554
Cu0 La0 2.910578 1_665
Cu0 La0 2.910666 1_655
Cu0 La0 2.910670 1_555
Cu1 Ni2 2.444302 1_554
Cu1 Ni2 2.444302 1_555
Cu1 Ni0 2.444305 1_554
Cu1 Ni0 2.444305 1_555
Cu1 Ni1 2.444390 1_564
Cu1 Ni1 2.444390 1_565
Cu1 La0 2.910578 1_555
Cu1 La0 2.910666 1_565
Cu1 La0 2.910670 1_665
Ni0 Ni2 2.520665 1_555
Ni0 Ni2 2.520665 1_655
Ni0 Ni1 2.520697 1_555
Ni0 Ni1 2.520697 1_565
Ni1 Ni2 2.520697 1_655
Ni1 Ni2 2.520697 1_545
