# generated using pymatgen
data_LiIn4(Ge2O7)2
_symmetry_space_group_name_H-M   'P 1'
_cell_length_a   7.12356485
_cell_length_b   7.12356485
_cell_length_c   7.12356485
_cell_angle_alpha   59.56648605
_cell_angle_beta   59.56648605
_cell_angle_gamma   59.56648605
_symmetry_Int_Tables_number   1
_chemical_formula_structural   LiIn4(Ge2O7)2
_chemical_formula_sum   'Li1 In4 Ge4 O14'
_cell_volume   253.09048767
_cell_formula_units_Z   1
loop_
 _symmetry_equiv_pos_site_id
 _symmetry_equiv_pos_as_xyz
  1  'x, y, z'
loop_
 _atom_site_type_symbol
 _atom_site_label
 _atom_site_symmetry_multiplicity
 _atom_site_fract_x
 _atom_site_fract_y
 _atom_site_fract_z
 _atom_site_occupancy
  Li  Li0  1  0.74735800  0.74735800  0.74735800  1
  In  In0  1  0.48214500  0.48214500  0.00505400  1
  In  In1  1  0.48214500  0.00505400  0.48214500  1
  In  In2  1  0.00505400  0.48214500  0.48214500  1
  In  In3  1  0.49861200  0.49861200  0.49861200  1
  Ge  Ge0  1  0.00219600  0.00219600  0.49821800  1
  Ge  Ge1  1  0.00219600  0.49821800  0.00219600  1
  Ge  Ge2  1  0.49821800  0.00219600  0.00219600  1
  Ge  Ge3  1  0.00391900  0.00391900  0.00391900  1
  O  O0  1  0.37541600  0.37541600  0.37541600  1
  O  O1  1  0.62908600  0.62908600  0.62908600  1
  O  O2  1  0.33122400  0.92311000  0.92311000  1
  O  O3  1  0.92174200  0.32859500  0.32859500  1
  O  O4  1  0.92311000  0.33122400  0.92311000  1
  O  O5  1  0.32859500  0.92174200  0.32859500  1
  O  O6  1  0.92311000  0.92311000  0.33122400  1
  O  O7  1  0.32859500  0.32859500  0.92174200  1
  O  O8  1  0.67106600  0.07987800  0.07987800  1
  O  O9  1  0.07268800  0.67725400  0.67725400  1
  O  O10  1  0.07987800  0.67106600  0.07987800  1
  O  O11  1  0.67725400  0.07268800  0.67725400  1
  O  O12  1  0.07987800  0.07987800  0.67106600  1
  O  O13  1  0.67725400  0.67725400  0.07268800  1
loop_
_geom_bond_atom_site_label_1
_geom_bond_atom_site_label_2
_geom_bond_distance
_geom_bond_site_symmetry_2
Li0 O11 1.943536 1_565
Li0 O13 1.943536 1_556
Li0 O9 1.943536 1_655
Li0 O1 2.070475 1_555
Li0 O6 2.447566 1_555
Li0 O4 2.447566 1_555
Li0 O2 2.447566 1_555
In0 O0 2.153623 1_555
In0 O1 2.189546 1_554
In0 O7 2.296194 1_554
In0 O8 2.362038 1_555
In0 O10 2.362038 1_555
In0 O4 2.592457 1_554
In0 O2 2.592457 1_554
In0 Li0 2.664106 1_554
In0 O13 2.722021 1_555
In1 O0 2.153623 1_555
In1 O1 2.189546 1_545
In1 O5 2.296194 1_545
In1 O8 2.362038 1_555
In1 O12 2.362038 1_555
In1 O2 2.592457 1_545
In1 O6 2.592457 1_545
In1 Li0 2.664106 1_545
In1 O11 2.722021 1_555
In2 O0 2.153623 1_555
In2 O1 2.189546 1_455
In2 O3 2.296194 1_455
In2 O12 2.362038 1_555
In2 O10 2.362038 1_555
In2 O6 2.592457 1_455
In2 O4 2.592457 1_455
In2 Li0 2.664106 1_455
In2 O9 2.722021 1_555
In3 O0 2.156675 1_555
In3 O1 2.284084 1_555
In3 O5 2.471521 1_555
In3 O3 2.471521 1_555
In3 O7 2.471521 1_555
In3 O13 2.502407 1_555
In3 O9 2.502407 1_555
In3 O11 2.502407 1_555
Ge0 O3 1.923549 1_455
Ge0 O5 1.923549 1_545
Ge0 O9 1.928021 1_545
Ge0 O11 1.928021 1_455
Ge0 O6 1.931153 1_445
Ge0 O12 1.954303 1_555
Ge1 O7 1.923549 1_554
Ge1 O3 1.923549 1_455
Ge1 O13 1.928021 1_455
Ge1 O9 1.928021 1_554
Ge1 O4 1.931153 1_454
Ge1 O10 1.954303 1_555
Ge2 O5 1.923549 1_545
Ge2 O7 1.923549 1_554
Ge2 O11 1.928021 1_554
Ge2 O13 1.928021 1_545
Ge2 O2 1.931153 1_544
Ge2 O8 1.954303 1_555
Ge3 O2 1.927502 1_544
Ge3 O4 1.927502 1_454
Ge3 O6 1.927502 1_445
Ge3 O8 1.976045 1_455
Ge3 O12 1.976045 1_554
Ge3 O10 1.976045 1_545
