# generated using pymatgen
data_Ba5Zr2N6
_symmetry_space_group_name_H-M   'P 1'
_cell_length_a   6.80036535
_cell_length_b   7.53713096
_cell_length_c   14.99863876
_cell_angle_alpha   89.99999949
_cell_angle_beta   95.24229136
_cell_angle_gamma   123.65363435
_symmetry_Int_Tables_number   1
_chemical_formula_structural   Ba5Zr2N6
_chemical_formula_sum   'Ba10 Zr4 N12'
_cell_volume   636.05052620
_cell_formula_units_Z   2
loop_
 _symmetry_equiv_pos_site_id
 _symmetry_equiv_pos_as_xyz
  1  'x, y, z'
loop_
 _atom_site_type_symbol
 _atom_site_label
 _atom_site_symmetry_multiplicity
 _atom_site_fract_x
 _atom_site_fract_y
 _atom_site_fract_z
 _atom_site_occupancy
  Ba  Ba0  1  0.07468700  0.76652300  0.97906900  1
  Ba  Ba1  1  0.92531300  0.69183600  0.52093100  1
  Ba  Ba2  1  0.92531300  0.23347700  0.02093100  1
  Ba  Ba3  1  0.07468700  0.30816400  0.47906900  1
  Ba  Ba4  1  0.30935200  0.10187400  0.70598900  1
  Ba  Ba5  1  0.69064800  0.79252200  0.79401100  1
  Ba  Ba6  1  0.69064800  0.89812600  0.29401100  1
  Ba  Ba7  1  0.30935200  0.20747800  0.20598900  1
  Ba  Ba8  1  0.00000000  0.40782500  0.75000000  1
  Ba  Ba9  1  0.00000000  0.59217500  0.25000000  1
  Zr  Zr0  1  0.55225000  0.90005900  0.57729400  1
  Zr  Zr1  1  0.44775000  0.34780900  0.92270600  1
  Zr  Zr2  1  0.44775000  0.09994100  0.42270600  1
  Zr  Zr3  1  0.55225000  0.65219100  0.07729400  1
  N  N0  1  0.88223500  0.95603800  0.62059500  1
  N  N1  1  0.11776500  0.07380200  0.87940500  1
  N  N2  1  0.11776500  0.04396200  0.37940500  1
  N  N3  1  0.88223500  0.92619800  0.12059500  1
  N  N4  1  0.28847300  0.74279300  0.66277600  1
  N  N5  1  0.71152700  0.45432000  0.83722400  1
  N  N6  1  0.71152700  0.25720700  0.33722400  1
  N  N7  1  0.28847300  0.54568000  0.16277600  1
  N  N8  1  0.60604000  0.20290600  0.55767800  1
  N  N9  1  0.39396000  0.59686600  0.94232200  1
  N  N10  1  0.39396000  0.79709400  0.44232200  1
  N  N11  1  0.60604000  0.40313400  0.05767800  1
loop_
_geom_bond_atom_site_label_1
_geom_bond_atom_site_label_2
_geom_bond_distance
_geom_bond_site_symmetry_2
Ba0 N1 2.648062 1_565
Ba0 N5 2.959956 1_455
Ba0 N3 3.149667 1_456
Ba0 N9 3.154157 1_555
Ba0 N11 3.171849 1_456
Ba1 N0 2.648068 1_555
Ba1 N4 2.959956 1_655
Ba1 N2 3.149663 1_665
Ba1 N8 3.154158 1_555
Ba1 N10 3.171849 1_655
Ba2 N3 2.648062 1_545
Ba2 N7 2.959956 1_655
Ba2 N1 3.149667 1_654
Ba2 N11 3.154157 1_555
Ba2 N9 3.171849 1_654
Ba3 N2 2.648068 1_555
Ba3 N6 2.959956 1_455
Ba3 N0 3.149663 1_445
Ba3 N10 3.154158 1_555
Ba3 N8 3.171849 1_455
Ba4 N0 2.658331 1_445
Ba4 N4 2.705982 1_545
Ba4 N8 2.952297 1_555
Ba4 N1 2.970042 1_555
Ba4 N5 3.061843 1_555
Ba5 N1 2.658330 1_665
Ba5 N5 2.705982 1_555
Ba5 N9 2.952297 1_555
Ba5 N0 2.970044 1_555
Ba5 N4 3.061843 1_555
Ba6 N2 2.658331 1_665
Ba6 N6 2.705982 1_565
Ba6 N10 2.952297 1_555
Ba6 N3 2.970042 1_555
Ba6 N7 3.061843 1_555
Ba7 N3 2.658330 1_445
Ba7 N7 2.705982 1_555
Ba7 N11 2.952297 1_555
Ba7 N2 2.970044 1_555
Ba7 N6 3.061843 1_555
Ba8 N5 2.629367 1_455
Ba8 N4 2.629367 1_555
Ba8 N9 3.447512 1_555
Ba8 N8 3.447512 1_455
Ba9 N7 2.629367 1_555
Ba9 N6 2.629367 1_455
Ba9 N11 3.447512 1_455
Ba9 N10 3.447512 1_555
N0 Zr0 2.078398 1_555
N1 Zr1 2.078401 1_555
N2 Zr2 2.078398 1_555
N3 Zr3 2.078401 1_555
N4 Zr0 2.080901 1_555
N5 Zr1 2.080901 1_555
N6 Zr2 2.080901 1_555
N7 Zr3 2.080901 1_555
N8 Zr0 2.127173 1_545
N8 Zr2 2.129570 1_555
N9 Zr1 2.127173 1_555
N9 Zr3 2.129570 1_556
N10 Zr2 2.127173 1_565
N10 Zr0 2.129570 1_555
N11 Zr3 2.127173 1_555
N11 Zr1 2.129570 1_554
