# generated using pymatgen
data_Yb4Cl2O13
_symmetry_space_group_name_H-M   'P 1'
_cell_length_a   11.38508100
_cell_length_b   7.60159800
_cell_length_c   7.81067982
_cell_angle_alpha   61.68139621
_cell_angle_beta   90.00000000
_cell_angle_gamma   90.00000000
_symmetry_Int_Tables_number   1
_chemical_formula_structural   Yb4Cl2O13
_chemical_formula_sum   'Yb8 Cl4 O26'
_cell_volume   595.07552900
_cell_formula_units_Z   2
loop_
 _symmetry_equiv_pos_site_id
 _symmetry_equiv_pos_as_xyz
  1  'x, y, z'
loop_
 _atom_site_type_symbol
 _atom_site_label
 _atom_site_symmetry_multiplicity
 _atom_site_fract_x
 _atom_site_fract_y
 _atom_site_fract_z
 _atom_site_occupancy
  Yb  Yb0  1  0.31145200  0.68155900  0.19082300  1
  Yb  Yb1  1  0.81145200  0.31844100  0.80917700  1
  Yb  Yb2  1  0.56463600  0.00144600  0.14118000  1
  Yb  Yb3  1  0.06463600  0.99855400  0.85882000  1
  Yb  Yb4  1  0.58223200  0.35605600  0.46190400  1
  Yb  Yb5  1  0.08223200  0.64394400  0.53809600  1
  Yb  Yb6  1  0.81498700  0.66232500  0.16239600  1
  Yb  Yb7  1  0.31498700  0.33767500  0.83760400  1
  Cl  Cl0  1  0.83533100  0.21138300  0.42352700  1
  Cl  Cl1  1  0.33533100  0.78861700  0.57647300  1
  Cl  Cl2  1  0.66742200  0.62981200  0.84218800  1
  Cl  Cl3  1  0.16742200  0.37018800  0.15781200  1
  O  O0  1  0.76428200  0.73574500  0.47358500  1
  O  O1  1  0.26428200  0.26425500  0.52641500  1
  O  O2  1  0.60850100  0.20718600  0.80502000  1
  O  O3  1  0.10850100  0.79281400  0.19498000  1
  O  O4  1  0.78647700  0.38805100  0.48044700  1
  O  O5  1  0.28647700  0.61194900  0.51955300  1
  O  O6  1  0.62167900  0.68002500  0.20829400  1
  O  O7  1  0.12167900  0.31997500  0.79170600  1
  O  O8  1  0.85747900  0.97478700  0.91060700  1
  O  O9  1  0.35747900  0.02521300  0.08939300  1
  O  O10  1  0.76760500  0.07292200  0.12596000  1
  O  O11  1  0.26760500  0.92707800  0.87404000  1
  O  O12  1  0.51087800  0.33329000  0.75099000  1
  O  O13  1  0.01087800  0.66671000  0.24901000  1
  O  O14  1  0.50541200  0.66969300  0.28448200  1
  O  O15  1  0.00541200  0.33030700  0.71551800  1
  O  O16  1  0.37386700  0.99582300  0.91234000  1
  O  O17  1  0.87386700  0.00417700  0.08766000  1
  O  O18  1  0.36768800  0.30161200  0.45633900  1
  O  O19  1  0.86768800  0.69838800  0.54366100  1
  O  O20  1  0.56067100  0.08922000  0.38985300  1
  O  O21  1  0.06067100  0.91078000  0.61014700  1
  O  O22  1  0.30008800  0.45590000  0.06178600  1
  O  O23  1  0.80008800  0.54410000  0.93821400  1
  O  O24  1  0.55685500  0.26311500  0.21885600  1
  O  O25  1  0.05685500  0.73688500  0.78114400  1
loop_
_geom_bond_atom_site_label_1
_geom_bond_atom_site_label_2
_geom_bond_distance
_geom_bond_site_symmetry_2
Cl0 O4 1.696177 1_555
Cl1 O5 1.696177 1_555
Cl2 O23 1.674745 1_555
Cl3 O22 1.674745 1_555
O0 O19 1.272305 1_555
O0 Yb6 2.799921 1_555
O1 O18 1.272305 1_555
O1 Yb7 2.799921 1_555
O2 Yb4 2.382218 1_555
O2 Yb2 2.386088 1_556
O2 Yb1 2.466024 1_555
O3 Yb5 2.382218 1_555
O3 Yb3 2.386088 1_554
O3 Yb0 2.466024 1_555
O4 Yb4 2.349635 1_555
O4 Yb1 2.380007 1_555
O4 Yb6 2.389472 1_555
O5 Yb5 2.349635 1_555
O5 Yb0 2.380007 1_555
O5 Yb7 2.389472 1_555
O6 Yb6 2.244109 1_555
O6 Yb2 2.334778 1_565
O6 Yb4 2.358412 1_555
O7 Yb7 2.244109 1_555
O7 Yb3 2.334778 1_545
O7 Yb5 2.358412 1_555
O8 Yb6 2.304683 1_556
O8 Yb3 2.385255 1_655
O8 Yb1 2.400613 1_565
O9 Yb7 2.304683 1_554
O9 Yb2 2.385255 1_555
O9 Yb0 2.400613 1_545
O10 O17 1.405171 1_555
O10 Yb1 2.339518 1_554
O10 Yb2 2.363883 1_555
O11 O16 1.405171 1_555
O11 Yb0 2.339518 1_556
O11 Yb3 2.363883 1_555
O12 O2 1.395887 1_555
O12 Yb4 2.327561 1_555
O12 Yb7 2.335407 1_555
O13 O3 1.395887 1_555
O13 Yb5 2.327561 1_555
O13 Yb6 2.335407 1_455
O14 O6 1.438107 1_555
O14 Yb4 2.287988 1_555
O14 Yb0 2.314531 1_555
O14 Yb2 2.321460 1_565
O15 O7 1.438107 1_555
O15 Yb5 2.287988 1_555
O15 Yb1 2.314531 1_455
O15 Yb3 2.321460 1_545
O16 O9 1.513364 1_566
O16 Yb0 2.452178 1_556
O16 Yb7 2.470584 1_565
O16 Yb2 2.826010 1_566
O17 O8 1.513364 1_544
O17 Yb1 2.452178 1_554
O17 Yb6 2.470584 1_545
O17 Yb3 2.826010 1_644
O18 Yb4 2.481237 1_555
O18 Yb0 2.714737 1_555
O19 Yb5 2.481237 1_655
O19 Yb1 2.714737 1_555
O20 O24 1.363110 1_555
O20 Yb2 2.334374 1_555
O20 Yb4 2.360994 1_555
O21 O25 1.363110 1_555
O21 Yb3 2.334374 1_555
O21 Yb5 2.360994 1_555
O22 Yb7 2.322814 1_554
O22 Yb0 2.369658 1_555
O23 Yb6 2.322814 1_556
O23 Yb1 2.369658 1_555
O24 Yb4 2.336426 1_555
O24 Yb2 2.340386 1_555
O25 Yb5 2.336426 1_555
O25 Yb3 2.340386 1_555
