# generated using pymatgen
data_Te2Mo3WS6
_symmetry_space_group_name_H-M   'P 1'
_cell_length_a   3.27231842
_cell_length_b   3.27231842
_cell_length_c   39.05056000
_cell_angle_alpha   90.00000000
_cell_angle_beta   90.00000000
_cell_angle_gamma   120.00000845
_symmetry_Int_Tables_number   1
_chemical_formula_structural   Te2Mo3WS6
_chemical_formula_sum   'Te2 Mo3 W1 S6'
_cell_volume   362.13372709
_cell_formula_units_Z   1
loop_
 _symmetry_equiv_pos_site_id
 _symmetry_equiv_pos_as_xyz
  1  'x, y, z'
loop_
 _atom_site_type_symbol
 _atom_site_label
 _atom_site_symmetry_multiplicity
 _atom_site_fract_x
 _atom_site_fract_y
 _atom_site_fract_z
 _atom_site_occupancy
  Te  Te0  1  0.33333300  0.66666700  0.33112700  1
  Te  Te1  1  0.33333300  0.66666700  0.23221100  1
  Mo  Mo0  1  0.33333300  0.66666700  0.09293800  1
  Mo  Mo1  1  0.66666700  0.33333300  0.28168800  1
  Mo  Mo2  1  0.66666700  0.33333300  0.65762600  1
  W  W0  1  0.33333300  0.66666700  0.47066800  1
  S  S0  1  0.33333300  0.66666700  0.69707300  1
  S  S1  1  0.66666700  0.33333300  0.05355100  1
  S  S2  1  0.66666700  0.33333300  0.43107400  1
  S  S3  1  0.66666700  0.33333300  0.13236200  1
  S  S4  1  0.66666700  0.33333300  0.51023900  1
  S  S5  1  0.33333300  0.66666700  0.61819100  1
loop_
_geom_bond_atom_site_label_1
_geom_bond_atom_site_label_2
_geom_bond_distance
_geom_bond_site_symmetry_2
Mo0 S1 2.436196 1_455
Mo0 S1 2.436196 1_565
Mo0 S1 2.436201 1_555
Mo0 S3 2.437109 1_455
Mo0 S3 2.437109 1_565
Mo0 S3 2.437113 1_555
Mo1 Te0 2.701230 1_545
Mo1 Te0 2.701230 1_655
Mo1 Te0 2.701234 1_555
Mo1 Te1 2.702291 1_655
Mo1 Te1 2.702291 1_545
Mo1 Te1 2.702295 1_555
Mo2 S5 2.437380 1_545
Mo2 S5 2.437380 1_655
Mo2 S5 2.437385 1_555
Mo2 S0 2.437676 1_545
Mo2 S0 2.437676 1_655
Mo2 S0 2.437681 1_555
S2 W0 2.441308 1_655
S2 W0 2.441308 1_545
S2 W0 2.441312 1_555
S4 W0 2.440739 1_545
S4 W0 2.440739 1_655
S4 W0 2.440744 1_555
