# generated using pymatgen
data_Li4MnCo2O7
_symmetry_space_group_name_H-M   'P 1'
_cell_length_a   5.03255100
_cell_length_b   6.59568917
_cell_length_c   7.75508597
_cell_angle_alpha   86.19274684
_cell_angle_beta   76.73050554
_cell_angle_gamma   82.70975317
_symmetry_Int_Tables_number   1
_chemical_formula_structural   Li4MnCo2O7
_chemical_formula_sum   'Li8 Mn2 Co4 O14'
_cell_volume   248.33232259
_cell_formula_units_Z   2
loop_
 _symmetry_equiv_pos_site_id
 _symmetry_equiv_pos_as_xyz
  1  'x, y, z'
loop_
 _atom_site_type_symbol
 _atom_site_label
 _atom_site_symmetry_multiplicity
 _atom_site_fract_x
 _atom_site_fract_y
 _atom_site_fract_z
 _atom_site_occupancy
  Li  Li0  1  0.92233500  0.14741100  0.63839300  1
  Li  Li1  1  0.65122900  0.70464800  0.22585300  1
  Li  Li2  1  0.50229100  0.99347300  0.49927600  1
  Li  Li3  1  0.22828200  0.56936000  0.07113400  1
  Li  Li4  1  0.06120000  0.85177300  0.36474500  1
  Li  Li5  1  0.78316500  0.43352800  0.92472100  1
  Li  Li6  1  0.36550400  0.29442500  0.77684000  1
  Li  Li7  1  0.71398700  0.57654400  0.57588000  1
  Mn  Mn0  1  0.99870500  0.99838900  0.00018700  1
  Mn  Mn1  1  0.14516700  0.71170900  0.71068000  1
  Co  Co0  1  0.41913300  0.14521200  0.14972100  1
  Co  Co1  1  0.84320800  0.29188100  0.29802900  1
  Co  Co2  1  0.57084800  0.85579300  0.85543600  1
  Co  Co3  1  0.27539300  0.43999100  0.42696800  1
  O  O0  1  0.25198500  0.98030000  0.76536600  1
  O  O1  1  0.98388000  0.55587500  0.31911000  1
  O  O2  1  0.83143800  0.85170300  0.62961400  1
  O  O3  1  0.54232400  0.41901400  0.17930400  1
  O  O4  1  0.37424100  0.71243300  0.47866500  1
  O  O5  1  0.09972800  0.26119300  0.03964600  1
  O  O6  1  0.68283000  0.12086000  0.90582700  1
  O  O7  1  0.60646200  0.28430000  0.51906100  1
  O  O8  1  0.31032000  0.86985500  0.08708300  1
  O  O9  1  0.18833600  0.14690800  0.38102300  1
  O  O10  1  0.88787700  0.73586500  0.94903000  1
  O  O11  1  0.75981800  0.00181400  0.23151600  1
  O  O12  1  0.44730100  0.59844100  0.81789800  1
  O  O13  1  0.05301500  0.44730200  0.67899300  1
loop_
_geom_bond_atom_site_label_1
_geom_bond_atom_site_label_2
_geom_bond_distance
_geom_bond_site_symmetry_2
Li0 O2 2.067923 1_545
Li0 O7 2.097308 1_555
Li0 O9 2.132826 1_655
Li0 O6 2.154670 1_555
Li0 O13 2.225305 1_655
Li0 O0 2.253532 1_645
Li1 O1 2.081614 1_555
Li1 O3 2.103132 1_555
Li1 O11 2.106303 1_565
Li1 O4 2.128432 1_555
Li1 O10 2.213431 1_554
Li1 O8 2.346555 1_555
Li2 O4 2.065586 1_555
Li2 O7 2.075840 1_565
Li2 O9 2.120768 1_565
Li2 O0 2.159457 1_555
Li2 O11 2.182212 1_565
Li2 O2 2.211303 1_555
Li3 O12 2.029383 1_554
Li3 O1 2.034248 1_455
Li3 O3 2.070074 1_555
Li3 O8 2.092279 1_555
Li3 O5 2.254264 1_555
Li3 O10 2.273013 1_454
Li4 O4 2.066556 1_555
Li4 O1 2.105535 1_455
Li4 O2 2.113277 1_455
Li4 O11 2.133065 1_465
Li4 O9 2.144862 1_565
Li4 O8 2.233212 1_555
Li5 O3 2.069289 1_556
Li5 O13 2.074676 1_655
Li5 O10 2.156844 1_555
Li5 O5 2.163810 1_656
Li5 O12 2.186983 1_555
Li5 O6 2.206292 1_555
Li6 O13 2.027167 1_555
Li6 O7 2.087022 1_555
Li6 O12 2.155480 1_555
Li6 O5 2.180479 1_556
Li6 O0 2.230506 1_545
Li6 O6 2.231299 1_555
Li7 O12 2.043331 1_555
Li7 O2 2.074248 1_555
Li7 O4 2.099564 1_555
Li7 O13 2.108034 1_655
Li7 O1 2.139171 1_555
Li7 O7 2.165501 1_555
Mn0 O11 1.916398 1_565
Mn0 O8 1.924578 1_655
Mn0 O5 1.929304 1_665
Mn0 O6 1.960772 1_564
Mn0 O0 1.969742 1_654
Mn0 O10 1.975997 1_554
Mn1 O4 1.901192 1_555
Mn1 O13 1.905596 1_555
Mn1 O2 1.936282 1_455
Mn1 O12 1.941914 1_555
Mn1 O10 2.001666 1_455
Mn1 O0 2.013286 1_555
Co0 O9 1.899929 1_555
Co0 O3 2.025530 1_555
Co0 O5 2.031948 1_555
Co0 O6 2.048989 1_554
Co0 O11 2.060224 1_555
Co0 O8 2.079902 1_545
Co1 O7 1.851065 1_555
Co1 O1 1.990864 1_555
Co1 O3 2.014683 1_555
Co1 O9 2.086926 1_655
Co1 O5 2.126667 1_655
Co1 O11 2.129949 1_555
Co2 O2 1.931451 1_555
Co2 O12 1.941416 1_555
Co2 O10 1.957831 1_555
Co2 O0 1.959915 1_555
Co2 O8 1.965923 1_556
Co2 O6 1.992170 1_565
Co3 O1 1.905240 1_455
Co3 O4 2.012782 1_555
Co3 O13 2.017289 1_555
Co3 O3 2.077577 1_555
Co3 O7 2.086904 1_555
Co3 O9 2.105657 1_555
