# generated using pymatgen
data_Ba3Bi3N5
_symmetry_space_group_name_H-M   'P 1'
_cell_length_a   6.67195665
_cell_length_b   8.59568257
_cell_length_c   9.89453549
_cell_angle_alpha   107.17420482
_cell_angle_beta   101.27170973
_cell_angle_gamma   99.87806627
_symmetry_Int_Tables_number   1
_chemical_formula_structural   Ba3Bi3N5
_chemical_formula_sum   'Ba6 Bi6 N10'
_cell_volume   515.53022827
_cell_formula_units_Z   2
loop_
 _symmetry_equiv_pos_site_id
 _symmetry_equiv_pos_as_xyz
  1  'x, y, z'
loop_
 _atom_site_type_symbol
 _atom_site_label
 _atom_site_symmetry_multiplicity
 _atom_site_fract_x
 _atom_site_fract_y
 _atom_site_fract_z
 _atom_site_occupancy
  Ba  Ba0  1  0.76925500  0.50524000  0.61868800  1
  Ba  Ba1  1  0.23074500  0.49476000  0.38131200  1
  Ba  Ba2  1  0.69593500  0.85563000  0.94884900  1
  Ba  Ba3  1  0.30406500  0.14437000  0.05115100  1
  Ba  Ba4  1  0.65807100  0.66728600  0.23654700  1
  Ba  Ba5  1  0.34192900  0.33271400  0.76345300  1
  Bi  Bi0  1  0.86669700  0.32457500  0.00189400  1
  Bi  Bi1  1  0.13330300  0.67542500  0.99810600  1
  Bi  Bi2  1  0.71450400  0.97397900  0.63874800  1
  Bi  Bi3  1  0.28549600  0.02602100  0.36125200  1
  Bi  Bi4  1  0.19792600  0.82941800  0.68488900  1
  Bi  Bi5  1  0.80207400  0.17058200  0.31511100  1
  N  N0  1  0.98735900  0.95144900  0.80514200  1
  N  N1  1  0.01264100  0.04855100  0.19485800  1
  N  N2  1  0.59470000  0.71423600  0.50615800  1
  N  N3  1  0.40530000  0.28576400  0.49384200  1
  N  N4  1  0.77178000  0.52972600  0.92372100  1
  N  N5  1  0.22822000  0.47027400  0.07627900  1
  N  N6  1  0.49223900  0.02732400  0.79483700  1
  N  N7  1  0.50776100  0.97267600  0.20516300  1
  N  N8  1  0.22796400  0.62536100  0.78591800  1
  N  N9  1  0.77203600  0.37463900  0.21408200  1
loop_
_geom_bond_atom_site_label_1
_geom_bond_atom_site_label_2
_geom_bond_distance
_geom_bond_site_symmetry_2
Ba0 N3 2.619338 1_555
Ba0 N2 2.686174 1_555
Ba0 N4 2.959330 1_555
Ba0 N8 3.016249 1_655
Ba1 N2 2.619338 1_555
Ba1 N3 2.686174 1_555
Ba1 N5 2.959330 1_555
Ba1 N9 3.016249 1_455
Ba2 N1 2.746491 1_666
Ba2 N6 2.748453 1_565
Ba2 N0 2.775559 1_555
Ba2 N4 2.879199 1_555
Ba2 N7 3.031763 1_556
Ba2 N8 3.208238 1_555
Ba3 N0 2.746491 1_444
Ba3 N7 2.748453 1_545
Ba3 N1 2.775559 1_555
Ba3 N5 2.879199 1_555
Ba3 N6 3.031763 1_554
Ba3 N9 3.208238 1_555
Ba4 N2 2.705885 1_555
Ba4 N9 2.710616 1_555
Ba4 N5 2.928726 1_555
Ba4 N7 3.042345 1_555
Ba4 N4 3.258645 1_554
Ba5 N3 2.705885 1_555
Ba5 N8 2.710616 1_555
Ba5 N4 2.928726 1_555
Ba5 N6 3.042345 1_555
Ba5 N5 3.258645 1_556
Bi0 N9 2.251674 1_555
Bi0 N4 2.259673 1_554
Bi0 N5 2.377691 1_655
Bi1 N8 2.251674 1_555
Bi1 N5 2.259673 1_556
Bi1 N4 2.377691 1_455
Bi2 N2 2.143086 1_555
Bi2 N0 2.280311 1_555
Bi2 N6 2.346285 1_565
Bi3 N3 2.143086 1_555
Bi3 N1 2.280311 1_555
Bi3 N7 2.346285 1_545
Bi4 N6 2.204345 1_565
Bi4 N0 2.216250 1_455
Bi4 N8 2.278977 1_555
Bi5 N7 2.204345 1_545
Bi5 N1 2.216250 1_655
Bi5 N9 2.278977 1_555
