# generated using pymatgen
data_Ce4SiI5
_symmetry_space_group_name_H-M   'P 1'
_cell_length_a   10.11161256
_cell_length_b   10.11161256
_cell_length_c   9.14192540
_cell_angle_alpha   76.92605644
_cell_angle_beta   76.92605644
_cell_angle_gamma   24.85752921
_symmetry_Int_Tables_number   1
_chemical_formula_structural   Ce4SiI5
_chemical_formula_sum   'Ce4 Si1 I5'
_cell_volume   382.23279833
_cell_formula_units_Z   1
loop_
 _symmetry_equiv_pos_site_id
 _symmetry_equiv_pos_as_xyz
  1  'x, y, z'
loop_
 _atom_site_type_symbol
 _atom_site_label
 _atom_site_symmetry_multiplicity
 _atom_site_fract_x
 _atom_site_fract_y
 _atom_site_fract_z
 _atom_site_occupancy
  Ce  Ce0  1  0.85002502  0.85002502  0.07849914  1
  Ce  Ce1  1  0.14997498  0.14997498  0.92150086  1
  Ce  Ce2  1  0.49998334  0.49998334  0.21685055  1
  Ce  Ce3  1  0.50001666  0.50001666  0.78314945  1
  Si  Si0  1  0.00000000  0.00000000  -0.00000000  1
  I  I0  1  0.67159074  0.67159074  0.17639097  1
  I  I1  1  0.32840926  0.32840926  0.82360903  1
  I  I2  1  0.66808817  0.66808817  0.65413991  1
  I  I3  1  0.33191183  0.33191183  0.34586009  1
  I  I4  1  0.00000000  0.00000000  0.50000000  1
loop_
_geom_bond_atom_site_label_1
_geom_bond_atom_site_label_2
_geom_bond_distance
_geom_bond_site_symmetry_2
Ce0 Si0 2.881514 1_665
Ce0 I3 3.230043 1_565
Ce0 I3 3.230043 1_655
Ce0 I1 3.287710 1_564
Ce0 I1 3.287710 1_654
Ce0 I0 3.429007 1_555
Ce1 Si0 2.881514 1_556
Ce1 I2 3.230043 1_545
Ce1 I2 3.230043 1_455
Ce1 I0 3.287710 1_456
Ce1 I0 3.287710 1_546
Ce1 I1 3.429007 1_555
Ce2 Si0 2.943793 1_655
Ce2 Si0 2.943793 1_565
Ce2 I3 3.255006 1_555
Ce2 I0 3.322984 1_555
Ce2 I4 3.381874 1_565
Ce2 I4 3.381874 1_655
Ce3 Si0 2.943793 1_656
Ce3 Si0 2.943793 1_566
Ce3 I2 3.255006 1_555
Ce3 I1 3.322984 1_555
Ce3 I4 3.381874 1_565
Ce3 I4 3.381874 1_655
