# generated using pymatgen
data_NaAlP2O7
_symmetry_space_group_name_H-M   'P 1'
_cell_length_a   7.81459700
_cell_length_b   7.28369700
_cell_length_c   9.41157110
_cell_angle_alpha   68.34277841
_cell_angle_beta   90.00000000
_cell_angle_gamma   90.00000000
_symmetry_Int_Tables_number   1
_chemical_formula_structural   NaAlP2O7
_chemical_formula_sum   'Na4 Al4 P8 O28'
_cell_volume   497.88284927
_cell_formula_units_Z   4
loop_
 _symmetry_equiv_pos_site_id
 _symmetry_equiv_pos_as_xyz
  1  'x, y, z'
loop_
 _atom_site_type_symbol
 _atom_site_label
 _atom_site_symmetry_multiplicity
 _atom_site_fract_x
 _atom_site_fract_y
 _atom_site_fract_z
 _atom_site_occupancy
  Na  Na0  1  0.47410300  0.70956800  0.29701100  1
  Na  Na1  1  0.97410300  0.29043200  0.20298900  1
  Na  Na2  1  0.52589700  0.29043200  0.70298900  1
  Na  Na3  1  0.02589700  0.70956800  0.79701100  1
  Al  Al0  1  0.98964800  0.26005200  0.75270700  1
  Al  Al1  1  0.48964800  0.73994800  0.74729300  1
  Al  Al2  1  0.01035200  0.73994800  0.24729300  1
  Al  Al3  1  0.51035200  0.26005200  0.25270700  1
  P  P0  1  0.75552500  0.07144200  0.04977100  1
  P  P1  1  0.25552500  0.92855800  0.45022900  1
  P  P2  1  0.24447500  0.92855800  0.95022900  1
  P  P3  1  0.74447500  0.07144200  0.54977100  1
  P  P4  1  0.70707200  0.66979000  0.04736700  1
  P  P5  1  0.20707200  0.33021000  0.45263300  1
  P  P6  1  0.29292800  0.33021000  0.95263300  1
  P  P7  1  0.79292800  0.66979000  0.54736700  1
  O  O0  1  0.69086500  0.68544200  0.88184000  1
  O  O1  1  0.19086500  0.31455800  0.61816000  1
  O  O2  1  0.30913500  0.31455800  0.11816000  1
  O  O3  1  0.80913500  0.68544200  0.38184000  1
  O  O4  1  0.79323300  0.19067800  0.88202400  1
  O  O5  1  0.29323300  0.80932200  0.61797600  1
  O  O6  1  0.20676700  0.80932200  0.11797600  1
  O  O7  1  0.70676700  0.19067800  0.38202400  1
  O  O8  1  0.89492900  0.64255200  0.10066600  1
  O  O9  1  0.39492900  0.35744800  0.39933400  1
  O  O10  1  0.10507100  0.35744800  0.89933400  1
  O  O11  1  0.60507100  0.64255200  0.60066600  1
  O  O12  1  0.91734300  0.99809700  0.14668000  1
  O  O13  1  0.41734300  0.00190300  0.35332000  1
  O  O14  1  0.08265700  0.00190300  0.85332000  1
  O  O15  1  0.58265700  0.99809700  0.64668000  1
  O  O16  1  0.85434300  0.87702900  0.56081300  1
  O  O17  1  0.35434300  0.12297100  0.93918700  1
  O  O18  1  0.14565700  0.12297100  0.43918700  1
  O  O19  1  0.64565700  0.87702900  0.06081300  1
  O  O20  1  0.91410000  0.52313700  0.65896000  1
  O  O21  1  0.41410000  0.47686300  0.84104000  1
  O  O22  1  0.08590000  0.47686300  0.34104000  1
  O  O23  1  0.58590000  0.52313700  0.15896000  1
  O  O24  1  0.86188900  0.18550800  0.61462500  1
  O  O25  1  0.36188900  0.81449200  0.88537500  1
  O  O26  1  0.13811100  0.81449200  0.38537500  1
  O  O27  1  0.63811100  0.18550800  0.11462500  1
loop_
_geom_bond_atom_site_label_1
_geom_bond_atom_site_label_2
_geom_bond_distance
_geom_bond_site_symmetry_2
Na0 O23 2.365910 1_555
Na0 O13 2.417504 1_565
Na0 O9 2.462730 1_555
Na0 O19 2.495072 1_555
Na0 O6 2.613030 1_555
Na0 O3 2.723855 1_555
Na0 O11 2.902328 1_555
Na0 O26 2.939184 1_555
Na1 O22 2.365910 1_655
Na1 O12 2.417504 1_545
Na1 O8 2.462730 1_555
Na1 O18 2.495072 1_655
Na1 O7 2.613030 1_555
Na1 O2 2.723855 1_655
Na1 O10 2.902328 1_654
Na1 O27 2.939184 1_555
Na2 O21 2.365910 1_555
Na2 O15 2.417504 1_545
Na2 O11 2.462730 1_555
Na2 O17 2.495072 1_555
Na2 O4 2.613030 1_555
Na2 O1 2.723855 1_555
Na2 O9 2.902328 1_555
Na2 O24 2.939184 1_555
Na3 O20 2.365910 1_455
Na3 O14 2.417504 1_565
Na3 O10 2.462730 1_555
Na3 O16 2.495072 1_455
Na3 O5 2.613030 1_555
Na3 O0 2.723855 1_455
Na3 O8 2.902328 1_456
Na3 O25 2.939184 1_555
Al0 O24 1.871167 1_555
Al0 O20 1.884419 1_555
Al0 O4 1.907513 1_555
Al0 O14 1.909505 1_655
Al0 O1 1.965349 1_655
Al0 O10 1.985896 1_655
Al1 O25 1.871167 1_555
Al1 O21 1.884419 1_555
Al1 O5 1.907513 1_555
Al1 O15 1.909505 1_555
Al1 O0 1.965349 1_555
Al1 O11 1.985896 1_555
Al2 O26 1.871167 1_555
Al2 O22 1.884419 1_555
Al2 O6 1.907513 1_555
Al2 O12 1.909505 1_455
Al2 O3 1.965349 1_455
Al2 O8 1.985896 1_455
Al3 O27 1.871167 1_555
Al3 O23 1.884419 1_555
Al3 O7 1.907513 1_555
Al3 O13 1.909505 1_555
Al3 O2 1.965349 1_555
Al3 O9 1.985896 1_555
O0 P4 1.524763 1_556
O1 P5 1.524763 1_555
O2 P6 1.524763 1_554
O3 P7 1.524763 1_555
O4 P0 1.523662 1_556
O5 P1 1.523662 1_555
O6 P2 1.523662 1_554
O7 P3 1.523662 1_555
O8 P4 1.540336 1_555
O9 P5 1.540336 1_555
O10 P6 1.540336 1_555
O11 P7 1.540336 1_555
O12 P0 1.535150 1_565
O13 P1 1.535150 1_545
O14 P2 1.535150 1_545
O15 P3 1.535150 1_565
O16 P3 1.626196 1_565
O16 P7 1.632737 1_555
O17 P2 1.626196 1_545
O17 P6 1.632737 1_555
O18 P1 1.626196 1_545
O18 P5 1.632737 1_555
O19 P0 1.626196 1_565
O19 P4 1.632737 1_555
O20 P7 1.520736 1_555
O21 P6 1.520736 1_555
O22 P5 1.520736 1_555
O23 P4 1.520736 1_555
O24 P3 1.509641 1_555
O25 P2 1.509641 1_555
O26 P1 1.509641 1_555
O27 P0 1.509641 1_555
