# generated using pymatgen
data_Hf3Th
_symmetry_space_group_name_H-M   'P 1'
_cell_length_a   6.65291440
_cell_length_b   6.65291440
_cell_length_c   5.27354300
_cell_angle_alpha   90.00000000
_cell_angle_beta   90.00000000
_cell_angle_gamma   120.00000402
_symmetry_Int_Tables_number   1
_chemical_formula_structural   Hf3Th
_chemical_formula_sum   'Hf6 Th2'
_cell_volume   202.14219509
_cell_formula_units_Z   2
loop_
 _symmetry_equiv_pos_site_id
 _symmetry_equiv_pos_as_xyz
  1  'x, y, z'
loop_
 _atom_site_type_symbol
 _atom_site_label
 _atom_site_symmetry_multiplicity
 _atom_site_fract_x
 _atom_site_fract_y
 _atom_site_fract_z
 _atom_site_occupancy
  Hf  Hf0  1  0.15528300  0.31056500  0.25000000  1
  Hf  Hf1  1  0.68943500  0.84471700  0.25000000  1
  Hf  Hf2  1  0.15528300  0.84471700  0.25000000  1
  Hf  Hf3  1  0.84471700  0.68943500  0.75000000  1
  Hf  Hf4  1  0.31056500  0.15528300  0.75000000  1
  Hf  Hf5  1  0.84471700  0.15528300  0.75000000  1
  Th  Th0  1  0.33333300  0.66666700  0.75000000  1
  Th  Th1  1  0.66666700  0.33333300  0.25000000  1
loop_
_geom_bond_atom_site_label_1
_geom_bond_atom_site_label_2
_geom_bond_distance
_geom_bond_site_symmetry_2
Hf0 Hf1 3.099247 1_445
Hf0 Hf2 3.099247 1_545
Hf0 Hf4 3.186583 1_555
Hf0 Hf4 3.186583 1_554
Hf0 Hf5 3.186590 1_454
Hf0 Hf5 3.186590 1_455
Hf0 Th1 3.329043 1_555
Hf0 Th1 3.329043 1_455
Hf0 Th0 3.340972 1_555
Hf0 Th0 3.340972 1_554
Hf0 Hf1 3.553667 1_555
Hf0 Hf2 3.553668 1_555
Hf1 Hf2 3.099247 1_655
Hf1 Hf3 3.186583 1_554
Hf1 Hf3 3.186583 1_555
Hf1 Hf5 3.186590 1_565
Hf1 Hf5 3.186590 1_564
Hf1 Th1 3.329043 1_555
Hf1 Th1 3.329043 1_565
Hf1 Th0 3.340972 1_555
Hf1 Th0 3.340972 1_554
Hf1 Hf2 3.553668 1_555
Hf2 Hf3 3.186590 1_455
Hf2 Hf3 3.186590 1_454
Hf2 Hf4 3.186590 1_565
Hf2 Hf4 3.186590 1_564
Hf2 Th1 3.329043 1_455
Hf2 Th1 3.329043 1_565
Hf2 Th0 3.340965 1_555
Hf2 Th0 3.340965 1_554
Hf3 Hf4 3.099247 1_665
Hf3 Hf5 3.099247 1_565
Hf3 Th0 3.329043 1_555
Hf3 Th0 3.329043 1_655
Hf3 Th1 3.340972 1_556
Hf3 Th1 3.340972 1_555
Hf3 Hf4 3.553667 1_555
Hf3 Hf5 3.553668 1_555
Hf4 Hf5 3.099247 1_455
Hf4 Th0 3.329043 1_555
Hf4 Th0 3.329043 1_545
Hf4 Th1 3.340972 1_556
Hf4 Th1 3.340972 1_555
Hf4 Hf5 3.553668 1_555
Hf5 Th0 3.329043 1_545
Hf5 Th0 3.329043 1_655
Hf5 Th1 3.340965 1_556
Hf5 Th1 3.340965 1_555
