# generated using pymatgen
data_K2UH4C4SNO10
_symmetry_space_group_name_H-M   'P 1'
_cell_length_a   15.12084000
_cell_length_b   8.11668200
_cell_length_c   12.96635760
_cell_angle_alpha   59.70274619
_cell_angle_beta   90.00000000
_cell_angle_gamma   90.00000000
_symmetry_Int_Tables_number   1
_chemical_formula_structural   K2UH4C4SNO10
_chemical_formula_sum   'K8 U4 H16 C16 S4 N4 O40'
_cell_volume   1374.02430010
_cell_formula_units_Z   4
loop_
 _symmetry_equiv_pos_site_id
 _symmetry_equiv_pos_as_xyz
  1  'x, y, z'
loop_
 _atom_site_type_symbol
 _atom_site_label
 _atom_site_symmetry_multiplicity
 _atom_site_fract_x
 _atom_site_fract_y
 _atom_site_fract_z
 _atom_site_occupancy
  K  K0  1  0.19156000  0.71079200  0.24313200  1
  K  K1  1  0.30844000  0.71079200  0.74313200  1
  K  K2  1  0.80844000  0.28920800  0.75686800  1
  K  K3  1  0.69156000  0.28920800  0.25686800  1
  K  K4  1  0.12406100  0.31131100  0.11244400  1
  K  K5  1  0.37593900  0.31131100  0.61244400  1
  K  K6  1  0.87593900  0.68868900  0.88755600  1
  K  K7  1  0.62406100  0.68868900  0.38755600  1
  U  U0  1  0.41869800  0.12253500  0.18145500  1
  U  U1  1  0.08130200  0.12253500  0.68145500  1
  U  U2  1  0.58130200  0.87746500  0.81854500  1
  U  U3  1  0.91869800  0.87746500  0.31854500  1
  H  H0  1  0.25623600  0.27688900  0.32500500  1
  H  H1  1  0.24376400  0.27688900  0.82500500  1
  H  H2  1  0.74376400  0.72311100  0.67499500  1
  H  H3  1  0.75623600  0.72311100  0.17499500  1
  H  H4  1  0.15845100  0.28917100  0.36348900  1
  H  H5  1  0.34154900  0.28917100  0.86348900  1
  H  H6  1  0.84154900  0.71082900  0.63651100  1
  H  H7  1  0.65845100  0.71082900  0.13651100  1
  H  H8  1  0.10019700  0.61998200  0.85127600  1
  H  H9  1  0.39980300  0.61998200  0.35127600  1
  H  H10  1  0.89980300  0.38001800  0.14872400  1
  H  H11  1  0.60019700  0.38001800  0.64872400  1
  H  H12  1  0.11040100  0.44268700  0.83450400  1
  H  H13  1  0.38959900  0.44268700  0.33450400  1
  H  H14  1  0.88959900  0.55731300  0.16549600  1
  H  H15  1  0.61040100  0.55731300  0.66549600  1
  C  C0  1  0.33363900  0.59727900  0.03749900  1
  C  C1  1  0.16636100  0.59727900  0.53749900  1
  C  C2  1  0.66636100  0.40272100  0.96250100  1
  C  C3  1  0.83363900  0.40272100  0.46250100  1
  C  C4  1  0.42345200  0.82730100  0.47283100  1
  C  C5  1  0.07654800  0.82730100  0.97283100  1
  C  C6  1  0.57654800  0.17269900  0.52716900  1
  C  C7  1  0.92345200  0.17269900  0.02716900  1
  C  C8  1  0.38876400  0.01918800  0.45862000  1
  C  C9  1  0.11123600  0.01918800  0.95862000  1
  C  C10  1  0.61123600  0.98081200  0.54138000  1
  C  C11  1  0.88876400  0.98081200  0.04138000  1
  C  C12  1  0.51621800  0.90529100  0.05324900  1
  C  C13  1  0.98378200  0.90529100  0.55324900  1
  C  C14  1  0.48378200  0.09470900  0.94675100  1
  C  C15  1  0.01621800  0.09470900  0.44675100  1
  S  S0  1  0.30521500  0.81672700  0.98003300  1
  S  S1  1  0.19478500  0.81672700  0.48003300  1
  S  S2  1  0.69478500  0.18327300  0.01996700  1
  S  S3  1  0.80521500  0.18327300  0.51996700  1
  N  N0  1  0.35379500  0.43365200  0.07919500  1
  N  N1  1  0.14620500  0.43365200  0.57919500  1
  N  N2  1  0.64620500  0.56634800  0.92080500  1
  N  N3  1  0.85379500  0.56634800  0.42080500  1
  O  O0  1  0.31129100  0.02333100  0.17963300  1
  O  O1  1  0.18870900  0.02333100  0.67963300  1
  O  O2  1  0.68870900  0.97666900  0.82036700  1
  O  O3  1  0.81129100  0.97666900  0.32036700  1
  O  O4  1  0.52628200  0.21827100  0.18425500  1
  O  O5  1  0.97371800  0.21827100  0.68425500  1
  O  O6  1  0.47371800  0.78172900  0.81574500  1
  O  O7  1  0.02628200  0.78172900  0.31574500  1
  O  O8  1  0.44578800  0.84013400  0.37213400  1
  O  O9  1  0.05421200  0.84013400  0.87213400  1
  O  O10  1  0.55421200  0.15986600  0.62786600  1
  O  O11  1  0.94578800  0.15986600  0.12786600  1
  O  O12  1  0.37623900  0.15235300  0.34792800  1
  O  O13  1  0.12376100  0.15235300  0.84792800  1
  O  O14  1  0.62376100  0.84764700  0.65207200  1
  O  O15  1  0.87623900  0.84764700  0.15207200  1
  O  O16  1  0.42745800  0.68113300  0.57268500  1
  O  O17  1  0.07254200  0.68113300  0.07268500  1
  O  O18  1  0.57254200  0.31886700  0.42731500  1
  O  O19  1  0.92745800  0.31886700  0.92731500  1
  O  O20  1  0.37520000  0.03534500  0.54724000  1
  O  O21  1  0.12480000  0.03534500  0.04724000  1
  O  O22  1  0.62480000  0.96465500  0.45276000  1
  O  O23  1  0.87520000  0.96465500  0.95276000  1
  O  O24  1  0.49825000  0.87364800  0.15679100  1
  O  O25  1  0.00175000  0.87364800  0.65679100  1
  O  O26  1  0.50175000  0.12635200  0.84320900  1
  O  O27  1  0.99825000  0.12635200  0.34320900  1
  O  O28  1  0.44031100  0.20379400  0.97238400  1
  O  O29  1  0.05968900  0.20379400  0.47238400  1
  O  O30  1  0.55968900  0.79620600  0.02761600  1
  O  O31  1  0.94031100  0.79620600  0.52761600  1
  O  O32  1  0.19831700  0.33594200  0.29445400  1
  O  O33  1  0.30168300  0.33594200  0.79445400  1
  O  O34  1  0.80168300  0.66405800  0.70554600  1
  O  O35  1  0.69831700  0.66405800  0.20554600  1
  O  O36  1  0.14213700  0.52226500  0.85906900  1
  O  O37  1  0.35786300  0.52226500  0.35906900  1
  O  O38  1  0.85786300  0.47773500  0.14093100  1
  O  O39  1  0.64213700  0.47773500  0.64093100  1
loop_
_geom_bond_atom_site_label_1
_geom_bond_atom_site_label_2
_geom_bond_distance
_geom_bond_site_symmetry_2
K0 O21 2.767490 1_565
K0 O32 2.769018 1_555
K0 O7 2.830312 1_555
K0 O0 2.878094 1_565
K0 O37 2.933231 1_555
K0 O17 2.952618 1_555
K1 O20 2.767490 1_565
K1 O33 2.769018 1_555
K1 O6 2.830312 1_555
K1 O1 2.878094 1_565
K1 O36 2.933231 1_555
K1 O16 2.952618 1_555
K2 O23 2.767490 1_545
K2 O34 2.769018 1_555
K2 O5 2.830312 1_555
K2 O2 2.878094 1_545
K2 O39 2.933231 1_555
K2 O19 2.952618 1_555
K3 O22 2.767490 1_545
K3 O35 2.769018 1_555
K3 O4 2.830312 1_555
K3 O3 2.878094 1_545
K3 O38 2.933231 1_555
K3 O18 2.952618 1_555
K4 O32 2.710417 1_555
K4 O21 2.764591 1_555
K4 O36 2.850302 1_554
K4 O17 2.884724 1_555
K4 O11 2.927362 1_455
K4 O27 3.208362 1_455
K5 O33 2.710417 1_555
K5 O20 2.764591 1_555
K5 O37 2.850302 1_555
K5 O16 2.884724 1_555
K5 O10 2.927362 1_555
K5 O26 3.208362 1_555
K6 O34 2.710417 1_555
K6 O23 2.764591 1_555
K6 O38 2.850302 1_556
K6 O19 2.884724 1_555
K6 O9 2.927362 1_655
K6 O25 3.208362 1_655
K7 O35 2.710417 1_555
K7 O22 2.764591 1_555
K7 O39 2.850302 1_555
K7 O18 2.884724 1_555
K7 O8 2.927362 1_555
K7 O24 3.208362 1_555
H0 O32 0.980860 1_555
H1 O33 0.980860 1_555
H2 O34 0.980860 1_555
H3 O35 0.980860 1_555
H4 O32 0.982797 1_555
H5 O33 0.982797 1_555
H6 O34 0.982797 1_555
H7 O35 0.982797 1_555
H8 O36 0.980094 1_555
H9 O37 0.980094 1_555
H10 O38 0.980094 1_555
H11 O39 0.980094 1_555
H12 O36 0.978015 1_555
H13 O37 0.978015 1_555
H14 O38 0.978015 1_555
H15 O39 0.978015 1_555
C0 N0 1.193557 1_555
C0 S0 1.604199 1_554
C1 N1 1.193557 1_555
C1 S1 1.604199 1_555
C2 N2 1.193557 1_555
C2 S2 1.604199 1_556
C3 N3 1.193557 1_555
C3 S3 1.604199 1_555
C4 O16 1.240043 1_555
C4 O8 1.300953 1_555
C5 O17 1.240043 1_556
C5 O9 1.300953 1_555
C6 O18 1.240043 1_555
C6 O10 1.300953 1_555
C7 O19 1.240043 1_554
C7 O11 1.300953 1_555
C8 O20 1.237614 1_555
C8 O12 1.303412 1_555
C9 O21 1.237614 1_556
C9 O13 1.303412 1_555
C10 O22 1.237614 1_555
C10 O14 1.303412 1_555
C11 O23 1.237614 1_554
C11 O15 1.303412 1_555
C12 O24 1.262673 1_555
C12 O30 1.274128 1_555
C13 O25 1.262673 1_655
C13 O31 1.274128 1_555
C14 O26 1.262673 1_555
C14 O28 1.274128 1_555
C15 O27 1.262673 1_455
C15 O29 1.274128 1_555
N0 U0 2.391591 1_555
N1 U1 2.391591 1_555
N2 U2 2.391591 1_555
N3 U3 2.391591 1_555
O0 U0 1.818175 1_555
O1 U1 1.818175 1_555
O2 U2 1.818175 1_555
O3 U3 1.818175 1_555
O4 U0 1.811064 1_555
O5 U1 1.811064 1_655
O6 U2 1.811064 1_555
O7 U3 1.811064 1_455
O8 U0 2.411762 1_565
O9 U1 2.411762 1_565
O10 U2 2.411762 1_545
O11 U3 2.411762 1_545
O12 U0 2.378486 1_555
O13 U1 2.378486 1_555
O14 U2 2.378486 1_555
O15 U3 2.378486 1_555
O24 U0 2.506395 1_565
O25 U1 2.506395 1_565
O26 U2 2.506395 1_545
O27 U3 2.506395 1_545
O28 U0 2.467127 1_556
O29 U1 2.467127 1_555
O30 U2 2.467127 1_554
O31 U3 2.467127 1_555
