# generated using pymatgen
data_Y2InAu2
_symmetry_space_group_name_H-M   'P 1'
_cell_length_a   7.82191593
_cell_length_b   7.82191593
_cell_length_c   3.82670809
_cell_angle_alpha   90.00000000
_cell_angle_beta   90.00000000
_cell_angle_gamma   90.00000000
_symmetry_Int_Tables_number   1
_chemical_formula_structural   Y2InAu2
_chemical_formula_sum   'Y4 In2 Au4'
_cell_volume   234.12706571
_cell_formula_units_Z   2
loop_
 _symmetry_equiv_pos_site_id
 _symmetry_equiv_pos_as_xyz
  1  'x, y, z'
loop_
 _atom_site_type_symbol
 _atom_site_label
 _atom_site_symmetry_multiplicity
 _atom_site_fract_x
 _atom_site_fract_y
 _atom_site_fract_z
 _atom_site_occupancy
  Y  Y0  1  0.66994947  0.16994947  0.50000000  1
  Y  Y1  1  0.33005053  0.83005053  0.50000000  1
  Y  Y2  1  0.16994947  0.33005053  0.50000000  1
  Y  Y3  1  0.83005053  0.66994947  0.50000000  1
  In  In0  1  0.50000000  0.50000000  -0.00000000  1
  In  In1  1  -0.00000000  -0.00000000  -0.00000000  1
  Au  Au0  1  0.12924445  0.62924445  -0.00000000  1
  Au  Au1  1  0.87075555  0.37075555  0.00000000  1
  Au  Au2  1  0.62924445  0.87075555  0.00000000  1
  Au  Au3  1  0.37075555  0.12924445  -0.00000000  1
loop_
_geom_bond_atom_site_label_1
_geom_bond_atom_site_label_2
_geom_bond_distance
_geom_bond_site_symmetry_2
In0 Y1 3.477477 1_554
In0 Y0 3.477477 1_554
In0 Y1 3.477477 1_555
In0 Y2 3.477477 1_555
In0 Y0 3.477477 1_555
In0 Y2 3.477477 1_554
In0 Y3 3.477477 1_555
In0 Y3 3.477477 1_554
In1 Y3 3.477477 1_444
In1 Y0 3.477477 1_454
In1 Y0 3.477477 1_455
In1 Y3 3.477477 1_445
In1 Y1 3.477477 1_544
In1 Y1 3.477477 1_545
In1 Y2 3.477477 1_555
In1 Y2 3.477477 1_554
Au0 Au1 2.859368 1_455
Au0 Y1 2.931731 1_555
Au0 Y1 2.931731 1_554
Au0 Y3 3.039598 1_455
Au0 Y3 3.039598 1_454
Au0 Y2 3.039598 1_554
Au0 Y2 3.039598 1_555
Au0 In1 3.071174 1_565
Au0 In0 3.071174 1_555
Au1 Y0 2.931731 1_554
Au1 Y0 2.931731 1_555
Au1 Y2 3.039598 1_654
Au1 Y2 3.039598 1_655
Au1 Y3 3.039598 1_555
Au1 Y3 3.039598 1_554
Au1 In1 3.071174 1_655
Au1 In0 3.071174 1_555
Au2 Au3 2.859368 1_565
Au2 Y3 2.931731 1_555
Au2 Y3 2.931731 1_554
Au2 Y0 3.039598 1_564
Au2 Y0 3.039598 1_565
Au2 Y1 3.039598 1_555
Au2 Y1 3.039598 1_554
Au2 In1 3.071174 1_665
Au2 In0 3.071174 1_555
Au3 Y2 2.931731 1_554
Au3 Y2 2.931731 1_555
Au3 Y1 3.039598 1_544
Au3 Y1 3.039598 1_545
Au3 Y0 3.039598 1_555
Au3 Y0 3.039598 1_554
Au3 In1 3.071174 1_555
Au3 In0 3.071174 1_555
