# generated using pymatgen
data_CsMg14GaO16
_symmetry_space_group_name_H-M   'P 1'
_cell_length_a   4.55327400
_cell_length_b   8.62238300
_cell_length_c   8.84009600
_cell_angle_alpha   90.00000000
_cell_angle_beta   90.00000000
_cell_angle_gamma   90.00000000
_symmetry_Int_Tables_number   1
_chemical_formula_structural   CsMg14GaO16
_chemical_formula_sum   'Cs1 Mg14 Ga1 O16'
_cell_volume   347.06280838
_cell_formula_units_Z   1
loop_
 _symmetry_equiv_pos_site_id
 _symmetry_equiv_pos_as_xyz
  1  'x, y, z'
loop_
 _atom_site_type_symbol
 _atom_site_label
 _atom_site_symmetry_multiplicity
 _atom_site_fract_x
 _atom_site_fract_y
 _atom_site_fract_z
 _atom_site_occupancy
  Cs  Cs0  1  0.00000000  0.00000000  0.00000000  1
  Mg  Mg0  1  0.00000000  0.00000000  0.50000000  1
  Mg  Mg1  1  0.00000000  0.50000000  0.50000000  1
  Mg  Mg2  1  0.50000000  0.74528400  0.00000000  1
  Mg  Mg3  1  0.50000000  0.25471600  0.00000000  1
  Mg  Mg4  1  0.50000000  0.74910800  0.50000000  1
  Mg  Mg5  1  0.50000000  0.25089200  0.50000000  1
  Mg  Mg6  1  0.50000000  0.00000000  0.73892700  1
  Mg  Mg7  1  0.50000000  0.50000000  0.74649500  1
  Mg  Mg8  1  0.50000000  0.00000000  0.26107300  1
  Mg  Mg9  1  0.50000000  0.50000000  0.25350500  1
  Mg  Mg10  1  0.00000000  0.74872700  0.73813600  1
  Mg  Mg11  1  0.00000000  0.25127300  0.73813600  1
  Mg  Mg12  1  0.00000000  0.74872700  0.26186400  1
  Mg  Mg13  1  0.00000000  0.25127300  0.26186400  1
  Ga  Ga0  1  0.00000000  0.50000000  0.00000000  1
  O  O0  1  0.00000000  0.00000000  0.71329100  1
  O  O1  1  0.00000000  0.50000000  0.74623500  1
  O  O2  1  0.00000000  0.00000000  0.28670900  1
  O  O3  1  0.00000000  0.50000000  0.25376500  1
  O  O4  1  0.50000000  0.74907900  0.75068000  1
  O  O5  1  0.50000000  0.25092100  0.75068000  1
  O  O6  1  0.50000000  0.74907900  0.24932000  1
  O  O7  1  0.50000000  0.25092100  0.24932000  1
  O  O8  1  0.50000000  0.00000000  0.00000000  1
  O  O9  1  0.50000000  0.50000000  0.00000000  1
  O  O10  1  0.50000000  0.00000000  0.50000000  1
  O  O11  1  0.50000000  0.50000000  0.50000000  1
  O  O12  1  0.00000000  0.70771800  0.00000000  1
  O  O13  1  0.00000000  0.29228200  0.00000000  1
  O  O14  1  0.00000000  0.73962900  0.50000000  1
  O  O15  1  0.00000000  0.26037100  0.50000000  1
loop_
_geom_bond_atom_site_label_1
_geom_bond_atom_site_label_2
_geom_bond_distance
_geom_bond_site_symmetry_2
Cs0 O8 2.276637 1_455
Cs0 O8 2.276637 1_555
Cs0 O13 2.520167 1_555
Cs0 O12 2.520167 1_545
Cs0 O2 2.534535 1_555
Cs0 O0 2.534535 1_554
Mg0 O0 1.885513 1_555
Mg0 O2 1.885513 1_555
Mg0 O15 2.245018 1_555
Mg0 O14 2.245018 1_545
Mg0 O10 2.276637 1_555
Mg0 O10 2.276637 1_455
Mg1 O14 2.066173 1_555
Mg1 O15 2.066173 1_555
Mg1 O1 2.176741 1_555
Mg1 O3 2.176741 1_555
Mg1 O11 2.276637 1_455
Mg1 O11 2.276637 1_555
Mg2 O9 2.114933 1_555
Mg2 O8 2.196259 1_565
Mg2 O4 2.204256 1_554
Mg2 O6 2.204256 1_555
Mg2 O12 2.299564 1_655
Mg2 O12 2.299564 1_555
Mg3 O9 2.114933 1_555
Mg3 O8 2.196259 1_555
Mg3 O5 2.204256 1_554
Mg3 O7 2.204256 1_555
Mg3 O13 2.299564 1_555
Mg3 O13 2.299564 1_655
Mg4 O11 2.147905 1_555
Mg4 O10 2.163287 1_565
Mg4 O4 2.216035 1_555
Mg4 O6 2.216035 1_555
Mg4 O14 2.278104 1_555
Mg4 O14 2.278104 1_655
Mg5 O11 2.147905 1_555
Mg5 O10 2.163287 1_555
Mg5 O5 2.216035 1_555
Mg5 O7 2.216035 1_555
Mg5 O15 2.278104 1_555
Mg5 O15 2.278104 1_655
Mg6 O10 2.112138 1_555
Mg6 O5 2.166030 1_555
Mg6 O4 2.166030 1_545
Mg6 O0 2.287889 1_555
Mg6 O0 2.287889 1_655
Mg6 O8 2.307910 1_556
Mg7 O4 2.147973 1_555
Mg7 O5 2.147973 1_555
Mg7 O11 2.179039 1_555
Mg7 O9 2.241009 1_556
Mg7 O1 2.276638 1_655
Mg7 O1 2.276638 1_555
Mg8 O10 2.112138 1_555
Mg8 O7 2.166030 1_555
Mg8 O6 2.166030 1_545
Mg8 O2 2.287889 1_655
Mg8 O2 2.287889 1_555
Mg8 O8 2.307910 1_555
Mg9 O6 2.147973 1_555
Mg9 O7 2.147973 1_555
Mg9 O11 2.179039 1_555
Mg9 O9 2.241009 1_555
Mg9 O3 2.276638 1_655
Mg9 O3 2.276638 1_555
Mg10 O14 2.106606 1_555
Mg10 O1 2.145814 1_555
Mg10 O0 2.177676 1_565
Mg10 O4 2.279338 1_555
Mg10 O4 2.279338 1_455
Mg10 O12 2.341753 1_556
Mg11 O15 2.106606 1_555
Mg11 O1 2.145814 1_555
Mg11 O0 2.177676 1_555
Mg11 O5 2.279338 1_455
Mg11 O5 2.279338 1_555
Mg11 O13 2.341753 1_556
Mg12 O14 2.106606 1_555
Mg12 O3 2.145814 1_555
Mg12 O2 2.177676 1_565
Mg12 O6 2.279338 1_455
Mg12 O6 2.279338 1_555
Mg12 O12 2.341753 1_555
Mg13 O15 2.106606 1_555
Mg13 O3 2.145814 1_555
Mg13 O2 2.177676 1_555
Mg13 O7 2.279338 1_555
Mg13 O7 2.279338 1_455
Mg13 O13 2.341753 1_555
Ga0 O12 1.791024 1_555
Ga0 O13 1.791024 1_555
Ga0 O3 2.243307 1_555
Ga0 O1 2.243307 1_554
Ga0 O9 2.276637 1_555
Ga0 O9 2.276637 1_455
