# generated using pymatgen
data_YbS2
_symmetry_space_group_name_H-M   'P 1'
_cell_length_a   3.75565300
_cell_length_b   3.75565300
_cell_length_c   8.43917900
_cell_angle_alpha   90.00000000
_cell_angle_beta   90.00000000
_cell_angle_gamma   90.00000000
_symmetry_Int_Tables_number   1
_chemical_formula_structural   YbS2
_chemical_formula_sum   'Yb2 S4'
_cell_volume   119.03402447
_cell_formula_units_Z   2
loop_
 _symmetry_equiv_pos_site_id
 _symmetry_equiv_pos_as_xyz
  1  'x, y, z'
loop_
 _atom_site_type_symbol
 _atom_site_label
 _atom_site_symmetry_multiplicity
 _atom_site_fract_x
 _atom_site_fract_y
 _atom_site_fract_z
 _atom_site_occupancy
  Yb  Yb0  1  0.00000000  0.50000000  0.71514600  1
  Yb  Yb1  1  0.50000000  0.00000000  0.28485400  1
  S  S0  1  0.00000000  0.00000000  0.00000000  1
  S  S1  1  0.50000000  0.50000000  0.00000000  1
  S  S2  1  0.00000000  0.50000000  0.37276500  1
  S  S3  1  0.50000000  0.00000000  0.62723500  1
loop_
_geom_bond_atom_site_label_1
_geom_bond_atom_site_label_2
_geom_bond_distance
_geom_bond_site_symmetry_2
S0 S1 2.655648 1_445
S0 S1 2.655648 1_545
S0 S1 2.655648 1_455
S0 S1 2.655648 1_555
S0 Yb1 3.050431 1_455
S0 Yb1 3.050431 1_555
S0 Yb0 3.050431 1_554
S0 Yb0 3.050431 1_544
S1 Yb1 3.050431 1_565
S1 Yb1 3.050431 1_555
S1 Yb0 3.050431 1_554
S1 Yb0 3.050431 1_654
S2 Yb1 2.757331 1_555
S2 Yb1 2.757331 1_565
S2 Yb1 2.757331 1_465
S2 Yb1 2.757331 1_455
S2 Yb0 2.889415 1_555
S3 Yb0 2.757331 1_655
S3 Yb0 2.757331 1_645
S3 Yb0 2.757331 1_545
S3 Yb0 2.757331 1_555
S3 Yb1 2.889415 1_555
