# generated using pymatgen
data_Cd3Pd
_symmetry_space_group_name_H-M   'P 1'
_cell_length_a   5.97962857
_cell_length_b   5.97962857
_cell_length_c   4.83010190
_cell_angle_alpha   90.00000000
_cell_angle_beta   90.00000000
_cell_angle_gamma   119.99999393
_symmetry_Int_Tables_number   1
_chemical_formula_structural   Cd3Pd
_chemical_formula_sum   'Cd6 Pd2'
_cell_volume   149.56685720
_cell_formula_units_Z   2
loop_
 _symmetry_equiv_pos_site_id
 _symmetry_equiv_pos_as_xyz
  1  'x, y, z'
loop_
 _atom_site_type_symbol
 _atom_site_label
 _atom_site_symmetry_multiplicity
 _atom_site_fract_x
 _atom_site_fract_y
 _atom_site_fract_z
 _atom_site_occupancy
  Cd  Cd0  1  0.17088801  0.34177702  0.25000000  1
  Cd  Cd1  1  0.65822298  0.82911199  0.25000000  1
  Cd  Cd2  1  0.17088801  0.82911199  0.25000000  1
  Cd  Cd3  1  0.82911199  0.65822298  0.75000000  1
  Cd  Cd4  1  0.34177702  0.17088801  0.75000000  1
  Cd  Cd5  1  0.82911199  0.17088801  0.75000000  1
  Pd  Pd0  1  0.33333300  0.66666700  0.75000000  1
  Pd  Pd1  1  0.66666700  0.33333300  0.25000000  1
loop_
_geom_bond_atom_site_label_1
_geom_bond_atom_site_label_2
_geom_bond_distance
_geom_bond_site_symmetry_2
Cd0 Cd2 2.914082 1_555
Cd0 Cd1 2.914082 1_555
Cd0 Pd0 2.943314 1_555
Cd0 Pd0 2.943314 1_554
Cd0 Pd1 2.990128 1_455
Cd0 Pd1 2.990140 1_555
Cd0 Cd5 2.994158 1_455
Cd0 Cd5 2.994158 1_454
Cd0 Cd4 2.994164 1_555
Cd0 Cd4 2.994164 1_554
Cd0 Cd2 3.065546 1_545
Cd0 Cd1 3.065547 1_445
Cd1 Cd2 2.914082 1_555
Cd1 Pd0 2.943314 1_555
Cd1 Pd0 2.943314 1_554
Cd1 Pd1 2.990128 1_565
Cd1 Pd1 2.990140 1_555
Cd1 Cd5 2.994158 1_565
Cd1 Cd5 2.994158 1_564
Cd1 Cd3 2.994164 1_555
Cd1 Cd3 2.994164 1_554
Cd1 Cd2 3.065546 1_655
Cd2 Pd0 2.943314 1_555
Cd2 Pd0 2.943314 1_554
Cd2 Pd1 2.990134 1_455
Cd2 Pd1 2.990134 1_565
Cd2 Cd3 2.994158 1_454
Cd2 Cd3 2.994158 1_455
Cd2 Cd4 2.994158 1_565
Cd2 Cd4 2.994158 1_564
Cd3 Cd5 2.914082 1_555
Cd3 Cd4 2.914082 1_555
Cd3 Pd1 2.943314 1_556
Cd3 Pd1 2.943314 1_555
Cd3 Pd0 2.990128 1_655
Cd3 Pd0 2.990140 1_555
Cd3 Cd5 3.065546 1_565
Cd3 Cd4 3.065547 1_665
Cd4 Cd5 2.914082 1_555
Cd4 Pd1 2.943314 1_556
Cd4 Pd1 2.943314 1_555
Cd4 Pd0 2.990128 1_545
Cd4 Pd0 2.990140 1_555
Cd4 Cd5 3.065546 1_455
Cd5 Pd1 2.943314 1_556
Cd5 Pd1 2.943314 1_555
Cd5 Pd0 2.990134 1_545
Cd5 Pd0 2.990134 1_655
