# generated using pymatgen
data_Li4MnCo2O7
_symmetry_space_group_name_H-M   'P 1'
_cell_length_a   16.99969151
_cell_length_b   16.99969151
_cell_length_c   5.19069531
_cell_angle_alpha   86.01398670
_cell_angle_beta   86.01398670
_cell_angle_gamma   9.74044882
_symmetry_Int_Tables_number   1
_chemical_formula_structural   Li4MnCo2O7
_chemical_formula_sum   'Li8 Mn2 Co4 O14'
_cell_volume   253.16901224
_cell_formula_units_Z   2
loop_
 _symmetry_equiv_pos_site_id
 _symmetry_equiv_pos_as_xyz
  1  'x, y, z'
loop_
 _atom_site_type_symbol
 _atom_site_label
 _atom_site_symmetry_multiplicity
 _atom_site_fract_x
 _atom_site_fract_y
 _atom_site_fract_z
 _atom_site_occupancy
  Li  Li0  1  0.49728500  0.49728500  0.50387700  1
  Li  Li1  1  0.07117000  0.07117000  0.63460700  1
  Li  Li2  1  0.64120800  0.64120800  0.78872000  1
  Li  Li3  1  0.21193000  0.21193000  0.93248500  1
  Li  Li4  1  0.78826400  0.78826400  0.06129900  1
  Li  Li5  1  0.92641300  0.92641300  0.35181200  1
  Li  Li6  1  0.36115000  0.36115000  0.23186100  1
  Li  Li7  1  0.43021900  0.43021900  0.85137400  1
  Mn  Mn0  1  0.99829300  0.99829300  0.98917200  1
  Mn  Mn1  1  0.28596100  0.28596100  0.57568000  1
  Co  Co0  1  0.57141700  0.57141700  0.14127100  1
  Co  Co1  1  0.14268500  0.14268500  0.27876600  1
  Co  Co2  1  0.71316200  0.71316200  0.42880500  1
  Co  Co3  1  0.86364800  0.86364800  0.74665000  1
  O  O0  1  0.46895000  0.46895000  0.16125100  1
  O  O1  1  0.03679200  0.03679200  0.28487900  1
  O  O2  1  0.60751200  0.60751200  0.44583300  1
  O  O3  1  0.18121300  0.18121300  0.58124100  1
  O  O4  1  0.75409000  0.75409000  0.74111600  1
  O  O5  1  0.88935700  0.88935700  0.03268000  1
  O  O6  1  0.32031300  0.32031300  0.84972000  1
  O  O7  1  0.53328900  0.53328900  0.84094000  1
  O  O8  1  0.10600900  0.10600900  0.97697500  1
  O  O9  1  0.67823100  0.67823100  0.11324200  1
  O  O10  1  0.24756400  0.24756400  0.29560800  1
  O  O11  1  0.81499400  0.81499400  0.40293600  1
  O  O12  1  0.96841500  0.96841500  0.70926500  1
  O  O13  1  0.39046700  0.39046700  0.54793300  1
loop_
_geom_bond_atom_site_label_1
_geom_bond_atom_site_label_2
_geom_bond_distance
_geom_bond_site_symmetry_2
Li0 O12 2.007639 1_545
Li0 O12 2.007639 1_455
Li0 O0 2.079072 1_555
Li0 O7 2.201471 1_555
Li0 O1 2.225790 1_655
Li0 O1 2.225790 1_565
Li1 O2 2.095360 1_545
Li1 O2 2.095360 1_455
Li1 O7 2.164509 1_545
Li1 O7 2.164509 1_455
Li1 O8 2.200857 1_555
Li1 O1 2.224125 1_555
Li2 O8 2.072959 1_655
Li2 O8 2.072959 1_565
Li2 O9 2.169185 1_556
Li2 O2 2.180432 1_555
Li2 O3 2.208133 1_655
Li2 O3 2.208133 1_565
Li3 O9 2.029073 1_546
Li3 O9 2.029073 1_456
Li3 O3 2.161389 1_555
Li3 O4 2.216220 1_545
Li3 O4 2.216220 1_455
Li3 O10 2.308119 1_556
Li4 O11 2.046641 1_555
Li4 O6 2.074013 1_654
Li4 O6 2.074013 1_564
Li4 O4 2.090666 1_554
Li4 O10 2.286757 1_565
Li4 O10 2.286757 1_655
Li5 O13 2.104573 1_655
Li5 O13 2.104573 1_565
Li5 O5 2.147104 1_555
Li5 O0 2.222393 1_565
Li5 O0 2.222393 1_655
Li5 O12 2.415697 1_555
Li6 O13 1.976208 1_555
Li6 O5 1.981708 1_455
Li6 O5 1.981708 1_545
Li6 O11 2.263333 1_455
Li6 O11 2.263333 1_545
Li6 O6 2.496261 1_554
Li7 O12 2.041629 1_545
Li7 O12 2.041629 1_455
Li7 O13 2.142499 1_555
Li7 O0 2.145509 1_556
Li7 O5 2.168663 1_546
Li7 O5 2.168663 1_456
Mn0 O12 1.827737 1_555
Mn0 O0 1.935214 1_656
Mn0 O0 1.935214 1_566
Mn0 O7 1.988280 1_565
Mn0 O7 1.988280 1_655
Mn0 O1 2.082377 1_666
Mn1 O6 1.899638 1_555
Mn1 O11 1.931657 1_455
Mn1 O11 1.931657 1_545
Mn1 O4 1.963863 1_545
Mn1 O4 1.963863 1_455
Mn1 O10 2.017244 1_555
Co0 O1 1.972950 1_655
Co0 O1 1.972950 1_565
Co0 O8 2.010994 1_654
Co0 O8 2.010994 1_564
Co0 O2 2.064973 1_555
Co0 O7 2.092740 1_554
Co1 O2 2.027466 1_455
Co1 O2 2.027466 1_545
Co1 O9 2.031473 1_455
Co1 O9 2.031473 1_545
Co1 O8 2.066207 1_554
Co1 O3 2.110580 1_555
Co2 O3 1.939331 1_565
Co2 O3 1.939331 1_655
Co2 O10 1.951101 1_655
Co2 O10 1.951101 1_565
Co2 O9 2.086569 1_555
Co2 O4 2.205450 1_555
Co3 O5 1.772926 1_556
Co3 O13 1.960007 1_565
Co3 O13 1.960007 1_655
Co3 O6 2.101140 1_655
Co3 O6 2.101140 1_565
Co3 O11 2.511980 1_555
