# generated using pymatgen
data_V4Bi6PbO20
_symmetry_space_group_name_H-M   'P 1'
_cell_length_a   7.25031158
_cell_length_b   8.08631595
_cell_length_c   9.47600697
_cell_angle_alpha   106.27568740
_cell_angle_beta   94.12151753
_cell_angle_gamma   112.30210691
_symmetry_Int_Tables_number   1
_chemical_formula_structural   V4Bi6PbO20
_chemical_formula_sum   'V4 Bi6 Pb1 O20'
_cell_volume   483.36736624
_cell_formula_units_Z   1
loop_
 _symmetry_equiv_pos_site_id
 _symmetry_equiv_pos_as_xyz
  1  'x, y, z'
loop_
 _atom_site_type_symbol
 _atom_site_label
 _atom_site_symmetry_multiplicity
 _atom_site_fract_x
 _atom_site_fract_y
 _atom_site_fract_z
 _atom_site_occupancy
  V  V0  1  0.04987900  0.27325600  0.75673200  1
  V  V1  1  0.95012100  0.72674400  0.24326800  1
  V  V2  1  0.34594900  0.39619400  0.25766000  1
  V  V3  1  0.65405100  0.60380600  0.74234000  1
  Bi  Bi0  1  0.34428400  0.12529500  0.51924200  1
  Bi  Bi1  1  0.65571600  0.87470500  0.48075800  1
  Bi  Bi2  1  0.43305900  0.80117000  0.08310000  1
  Bi  Bi3  1  0.56694100  0.19883000  0.91690000  1
  Bi  Bi4  1  0.79900800  0.29029200  0.32651800  1
  Bi  Bi5  1  0.20099200  0.70970800  0.67348200  1
  Pb  Pb0  1  0.00000000  0.00000000  0.00000000  1
  O  O0  1  0.10572100  0.24791300  0.27308200  1
  O  O1  1  0.89427900  0.75208700  0.72691800  1
  O  O2  1  0.16141400  0.52147000  0.83177100  1
  O  O3  1  0.83858600  0.47853000  0.16822900  1
  O  O4  1  0.66180800  0.09268000  0.10421300  1
  O  O5  1  0.33819200  0.90732000  0.89578700  1
  O  O6  1  0.54896100  0.03170100  0.36647800  1
  O  O7  1  0.45103900  0.96829900  0.63352200  1
  O  O8  1  0.37664400  0.63295700  0.30798800  1
  O  O9  1  0.62335600  0.36704300  0.69201200  1
  O  O10  1  0.23283900  0.18078200  0.75395100  1
  O  O11  1  0.76716100  0.81921800  0.24604900  1
  O  O12  1  0.53262900  0.37653100  0.36996400  1
  O  O13  1  0.46737100  0.62346900  0.63003600  1
  O  O14  1  0.06259200  0.79915300  0.43056000  1
  O  O15  1  0.93740800  0.20084700  0.56944000  1
  O  O16  1  0.13163500  0.83273500  0.14532600  1
  O  O17  1  0.86836500  0.16726500  0.85467400  1
  O  O18  1  0.35468700  0.30471600  0.07092400  1
  O  O19  1  0.64531300  0.69528400  0.92907600  1
loop_
_geom_bond_atom_site_label_1
_geom_bond_atom_site_label_2
_geom_bond_distance
_geom_bond_site_symmetry_2
Bi0 O7 2.186178 1_545
Bi0 O9 2.307302 1_555
Bi0 O6 2.327575 1_555
Bi0 O10 2.403117 1_555
Bi0 O14 2.501130 1_545
Bi0 O12 2.788531 1_555
Bi1 O6 2.186178 1_565
Bi1 O8 2.307302 1_555
Bi1 O7 2.327575 1_555
Bi1 O11 2.403117 1_555
Bi1 O15 2.501130 1_565
Bi1 O13 2.788531 1_555
Bi2 O4 2.251217 1_565
Bi2 O5 2.342440 1_554
Bi2 O16 2.390217 1_555
Bi2 O19 2.419516 1_554
Bi2 O6 2.659484 1_565
Bi2 O11 2.709433 1_555
Bi2 O2 2.755366 1_554
Bi2 O8 2.808316 1_555
Bi3 O5 2.251217 1_545
Bi3 O4 2.342440 1_556
Bi3 O17 2.390217 1_555
Bi3 O18 2.419516 1_556
Bi3 O7 2.659484 1_545
Bi3 O10 2.709433 1_555
Bi3 O3 2.755366 1_556
Bi3 O9 2.808316 1_555
Bi4 O4 2.141521 1_555
Bi4 O12 2.315474 1_555
Bi4 O6 2.338337 1_555
Bi4 O3 2.378915 1_555
Bi4 O0 2.441711 1_655
Bi5 O5 2.141521 1_555
Bi5 O13 2.315474 1_555
Bi5 O7 2.338337 1_555
Bi5 O2 2.378915 1_555
Bi5 O1 2.441711 1_455
O0 V2 1.744256 1_555
O0 Pb0 2.635062 1_555
O1 V3 1.744256 1_555
O1 Pb0 2.635062 1_666
O2 V0 1.753174 1_555
O3 V1 1.753174 1_555
O8 V2 1.758410 1_555
O9 V3 1.758410 1_555
O10 V0 1.751099 1_555
O11 V1 1.751099 1_555
O12 V2 1.743805 1_555
O13 V3 1.743805 1_555
O14 V1 1.733420 1_455
O15 V0 1.733420 1_655
O16 V1 1.758762 1_455
O16 Pb0 2.543929 1_565
O17 V0 1.758762 1_655
O17 Pb0 2.543929 1_656
O18 V2 1.732157 1_555
O18 Pb0 2.674002 1_555
O19 V3 1.732157 1_555
O19 Pb0 2.674002 1_666
