# generated using pymatgen
data_Bi2Te2SeO10
_symmetry_space_group_name_H-M   'P 1'
_cell_length_a   9.01098862
_cell_length_b   9.01098862
_cell_length_c   8.25637236
_cell_angle_alpha   70.43905562
_cell_angle_beta   70.43905562
_cell_angle_gamma   51.40465622
_symmetry_Int_Tables_number   1
_chemical_formula_structural   Bi2Te2SeO10
_chemical_formula_sum   'Bi4 Te4 Se2 O20'
_cell_volume   486.45152358
_cell_formula_units_Z   2
loop_
 _symmetry_equiv_pos_site_id
 _symmetry_equiv_pos_as_xyz
  1  'x, y, z'
loop_
 _atom_site_type_symbol
 _atom_site_label
 _atom_site_symmetry_multiplicity
 _atom_site_fract_x
 _atom_site_fract_y
 _atom_site_fract_z
 _atom_site_occupancy
  Bi  Bi0  1  0.83796100  0.52601600  0.35165700  1
  Bi  Bi1  1  0.47398400  0.16203900  0.14834300  1
  Bi  Bi2  1  0.16203900  0.47398400  0.64834300  1
  Bi  Bi3  1  0.52601600  0.83796100  0.85165700  1
  Te  Te0  1  0.95322900  0.81120800  0.97271400  1
  Te  Te1  1  0.18879200  0.04677100  0.52728600  1
  Te  Te2  1  0.04677100  0.18879200  0.02728600  1
  Te  Te3  1  0.81120800  0.95322900  0.47271400  1
  Se  Se0  1  0.60876300  0.39123700  0.75000000  1
  Se  Se1  1  0.39123700  0.60876300  0.25000000  1
  O  O0  1  0.74769600  0.28550500  0.57323200  1
  O  O1  1  0.71449500  0.25230400  0.92676800  1
  O  O2  1  0.25230400  0.71449500  0.42676800  1
  O  O3  1  0.28550500  0.74769600  0.07323200  1
  O  O4  1  0.39630600  0.41902300  0.80714200  1
  O  O5  1  0.58097700  0.60369400  0.69285800  1
  O  O6  1  0.60369400  0.58097700  0.19285800  1
  O  O7  1  0.41902300  0.39630600  0.30714200  1
  O  O8  1  0.03686200  0.57089900  0.12306300  1
  O  O9  1  0.42910100  0.96313800  0.37693700  1
  O  O10  1  0.96313800  0.42910100  0.87693700  1
  O  O11  1  0.57089900  0.03686200  0.62306300  1
  O  O12  1  0.99799000  0.74855000  0.75246100  1
  O  O13  1  0.25145000  0.00201000  0.74753900  1
  O  O14  1  0.00201000  0.25145000  0.24753900  1
  O  O15  1  0.74855000  0.99799000  0.25246100  1
  O  O16  1  0.68578100  0.90555700  0.01161000  1
  O  O17  1  0.09444300  0.31421900  0.48839000  1
  O  O18  1  0.31421900  0.09444300  0.98839000  1
  O  O19  1  0.90555700  0.68578100  0.51161000  1
loop_
_geom_bond_atom_site_label_1
_geom_bond_atom_site_label_2
_geom_bond_distance
_geom_bond_site_symmetry_2
Bi0 O14 2.248476 1_655
Bi0 O17 2.249345 1_655
Bi0 O8 2.250807 1_655
Bi0 O6 2.556295 1_555
Bi0 O19 2.663350 1_555
Bi0 O0 2.693192 1_555
Bi1 O15 2.248476 1_545
Bi1 O16 2.249345 1_545
Bi1 O9 2.250807 1_545
Bi1 O7 2.556295 1_555
Bi1 O18 2.663350 1_554
Bi1 O1 2.693192 1_554
Bi2 O12 2.248476 1_455
Bi2 O19 2.249345 1_455
Bi2 O10 2.250807 1_455
Bi2 O4 2.556295 1_555
Bi2 O17 2.663350 1_555
Bi2 O2 2.693192 1_555
Bi3 O13 2.248476 1_565
Bi3 O18 2.249345 1_565
Bi3 O11 2.250807 1_565
Bi3 O5 2.556295 1_555
Bi3 O16 2.663350 1_556
Bi3 O3 2.693192 1_556
O0 Se0 1.680643 1_555
O1 Se0 1.680643 1_555
O2 Se1 1.680643 1_555
O3 Se1 1.680643 1_555
O4 Se0 1.681261 1_555
O5 Se0 1.681261 1_555
O6 Se1 1.681261 1_555
O7 Se1 1.681261 1_555
O8 Te0 1.894301 1_454
O9 Te1 1.894301 1_565
O10 Te2 1.894301 1_656
O11 Te3 1.894301 1_545
O12 Te0 1.923702 1_555
O13 Te1 1.923702 1_555
O14 Te2 1.923702 1_555
O15 Te3 1.923702 1_555
O16 Te0 1.934475 1_554
O17 Te1 1.934475 1_555
O18 Te2 1.934475 1_556
O19 Te3 1.934475 1_555
