# generated using pymatgen
data_LiMg6Mo
_symmetry_space_group_name_H-M   'P 1'
_cell_length_a   4.92168700
_cell_length_b   6.10963300
_cell_length_c   10.66655700
_cell_angle_alpha   90.00000000
_cell_angle_beta   90.00000000
_cell_angle_gamma   90.00000000
_symmetry_Int_Tables_number   1
_chemical_formula_structural   LiMg6Mo
_chemical_formula_sum   'Li2 Mg12 Mo2'
_cell_volume   320.74018301
_cell_formula_units_Z   2
loop_
 _symmetry_equiv_pos_site_id
 _symmetry_equiv_pos_as_xyz
  1  'x, y, z'
loop_
 _atom_site_type_symbol
 _atom_site_label
 _atom_site_symmetry_multiplicity
 _atom_site_fract_x
 _atom_site_fract_y
 _atom_site_fract_z
 _atom_site_occupancy
  Li  Li0  1  0.00000000  0.50000000  0.42126500  1
  Li  Li1  1  0.00000000  0.00000000  0.92126500  1
  Mg  Mg0  1  0.00000000  0.73465700  0.16221300  1
  Mg  Mg1  1  0.00000000  0.26534300  0.16221300  1
  Mg  Mg2  1  0.00000000  0.00000000  0.42795200  1
  Mg  Mg3  1  0.50000000  0.25066100  0.33186200  1
  Mg  Mg4  1  0.50000000  0.74933900  0.33186200  1
  Mg  Mg5  1  0.50000000  0.00000000  0.08163400  1
  Mg  Mg6  1  0.00000000  0.23465700  0.66221300  1
  Mg  Mg7  1  0.00000000  0.76534300  0.66221300  1
  Mg  Mg8  1  0.00000000  0.50000000  0.92795200  1
  Mg  Mg9  1  0.50000000  0.75066100  0.83186200  1
  Mg  Mg10  1  0.50000000  0.24933900  0.83186200  1
  Mg  Mg11  1  0.50000000  0.50000000  0.58163400  1
  Mo  Mo0  1  0.50000000  0.50000000  0.08099800  1
  Mo  Mo1  1  0.50000000  0.00000000  0.58099800  1
loop_
_geom_bond_atom_site_label_1
_geom_bond_atom_site_label_2
_geom_bond_distance
_geom_bond_site_symmetry_2
Li0 Mg11 2.996974 1_455
Li0 Mg11 2.996974 1_555
Li0 Mg6 3.038661 1_555
Li0 Mg7 3.038661 1_555
Li0 Mg3 3.047261 1_455
Li0 Mg4 3.047261 1_455
Li0 Mg4 3.047261 1_555
Li0 Mg3 3.047261 1_555
Li0 Mg2 3.055649 1_565
Li0 Mg2 3.055649 1_555
Li0 Mg1 3.112979 1_555
Li0 Mg0 3.112979 1_555
Li1 Mg5 2.996974 1_456
Li1 Mg5 2.996974 1_556
Li1 Mg0 3.038661 1_546
Li1 Mg1 3.038661 1_556
Li1 Mg9 3.047261 1_445
Li1 Mg9 3.047261 1_545
Li1 Mg10 3.047261 1_455
Li1 Mg10 3.047261 1_555
Li1 Mg8 3.055649 1_545
Li1 Mg8 3.055649 1_555
Li1 Mg6 3.112979 1_555
Li1 Mg7 3.112979 1_545
Mg0 Mg1 2.867336 1_555
Mg0 Mg8 2.880833 1_554
Mg0 Mo0 2.976845 1_455
Mg0 Mo0 2.976845 1_555
Mg0 Mg4 3.055870 1_455
Mg0 Mg4 3.055870 1_555
Mg0 Mg5 3.069628 1_565
Mg0 Mg5 3.069628 1_465
Mg0 Mg1 3.242297 1_565
Mg0 Mg2 3.265368 1_565
Mg1 Mg8 2.880833 1_554
Mg1 Mo0 2.976845 1_455
Mg1 Mo0 2.976845 1_555
Mg1 Mg3 3.055870 1_455
Mg1 Mg3 3.055870 1_555
Mg1 Mg5 3.069628 1_555
Mg1 Mg5 3.069628 1_455
Mg1 Mg2 3.265368 1_555
Mg2 Mg7 2.880833 1_545
Mg2 Mg6 2.880833 1_555
Mg2 Mo1 2.953087 1_555
Mg2 Mo1 2.953087 1_455
Mg2 Mg4 3.074346 1_445
Mg2 Mg3 3.074346 1_555
Mg2 Mg4 3.074346 1_545
Mg2 Mg3 3.074346 1_455
Mg3 Mg4 3.046740 1_555
Mg3 Mg4 3.062893 1_545
Mg3 Mo1 3.067120 1_555
Mg3 Mg5 3.077218 1_555
Mg3 Mo0 3.079100 1_555
Mg4 Mo1 3.067120 1_565
Mg4 Mg5 3.077218 1_565
Mg4 Mo0 3.079100 1_555
Mg5 Mo0 3.054824 1_555
Mg5 Mo0 3.054824 1_545
Mg5 Mg9 3.068983 1_544
Mg6 Mg7 2.867336 1_545
Mg6 Mo1 2.976845 1_555
Mg6 Mo1 2.976845 1_455
Mg6 Mg7 3.242297 1_555
Mg6 Mg8 3.265368 1_555
Mg7 Mo1 2.976845 1_465
Mg7 Mo1 2.976845 1_565
Mg7 Mg9 3.055870 1_455
Mg7 Mg9 3.055870 1_555
Mg7 Mg8 3.265368 1_555
Mg8 Mo0 2.953087 1_556
Mg8 Mo0 2.953087 1_456
Mg8 Mg9 3.074346 1_455
Mg8 Mg9 3.074346 1_555
Mg9 Mo0 3.067120 1_556
Mg9 Mo1 3.079100 1_565
Mg10 Mg9 3.046740 1_545
Mg10 Mg6 3.055870 1_655
Mg10 Mg6 3.055870 1_555
Mg10 Mg9 3.062893 1_555
Mg10 Mo0 3.067120 1_556
Mg10 Mg5 3.068983 1_556
Mg10 Mg8 3.074346 1_555
Mg10 Mg8 3.074346 1_655
Mg10 Mg11 3.077218 1_555
Mg10 Mo1 3.079100 1_555
Mg11 Mo1 3.054824 1_565
Mg11 Mo1 3.054824 1_555
Mg11 Mg3 3.068983 1_555
Mg11 Mg4 3.068983 1_555
Mg11 Mg7 3.069628 1_655
Mg11 Mg6 3.069628 1_555
Mg11 Mg7 3.069628 1_555
Mg11 Mg6 3.069628 1_655
Mg11 Mg9 3.077218 1_555
