# generated using pymatgen
data_Na17(Mo15S19)4
_symmetry_space_group_name_H-M   'P 1'
_cell_length_a   9.64856821
_cell_length_b   9.66819977
_cell_length_c   38.35038586
_cell_angle_alpha   90.00000000
_cell_angle_beta   90.00000000
_cell_angle_gamma   120.04759766
_symmetry_Int_Tables_number   1
_chemical_formula_structural   Na17(Mo15S19)4
_chemical_formula_sum   'Na17 Mo60 S76'
_cell_volume   3096.70872493
_cell_formula_units_Z   1
loop_
 _symmetry_equiv_pos_site_id
 _symmetry_equiv_pos_as_xyz
  1  'x, y, z'
loop_
 _atom_site_type_symbol
 _atom_site_label
 _atom_site_symmetry_multiplicity
 _atom_site_fract_x
 _atom_site_fract_y
 _atom_site_fract_z
 _atom_site_occupancy
  Na  Na0  1  0.66715447  0.33352983  0.19587155  1
  Na  Na1  1  0.66683943  0.33297662  0.69606545  1
  Na  Na2  1  0.33339272  0.66671630  0.44624189  1
  Na  Na3  1  0.33336976  0.66669358  0.94625952  1
  Na  Na4  1  0.33336976  0.66669358  0.30374048  1
  Na  Na5  1  0.33339272  0.66671630  0.80375811  1
  Na  Na6  1  0.66715447  0.33352983  0.05412845  1
  Na  Na7  1  0.66683943  0.33297662  0.55393455  1
  Na  Na8  1  0.93724559  0.77093939  0.62500000  1
  Na  Na9  1  0.22670874  0.16563361  0.12500000  1
  Na  Na10  1  0.22825561  0.16778056  0.62500000  1
  Na  Na11  1  0.16844527  0.93766766  0.37501123  1
  Na  Na12  1  0.16844527  0.93766766  0.87498877  1
  Na  Na13  1  0.06224650  0.23073824  0.37500845  1
  Na  Na14  1  0.06224650  0.23073824  0.87499155  1
  Na  Na15  1  0.76918365  0.83148304  0.37500908  1
  Na  Na16  1  0.76918365  0.83148304  0.87499092  1
  Mo  Mo0  1  0.68394839  0.18464455  0.31590022  1
  Mo  Mo1  1  0.68401719  0.18476552  0.81591944  1
  Mo  Mo2  1  0.81547186  0.49928944  0.31591756  1
  Mo  Mo3  1  0.81540949  0.49925904  0.81590771  1
  Mo  Mo4  1  0.50065249  0.31603431  0.31592472  1
  Mo  Mo5  1  0.50067602  0.31600614  0.81593847  1
  Mo  Mo6  1  0.31558818  0.81645263  0.06561276  1
  Mo  Mo7  1  0.31616971  0.81595700  0.56567704  1
  Mo  Mo8  1  0.18347480  0.49953329  0.06586046  1
  Mo  Mo9  1  0.18407396  0.49971455  0.56598598  1
  Mo  Mo10  1  0.50160934  0.68513326  0.06595321  1
  Mo  Mo11  1  0.50081073  0.68489087  0.56576203  1
  Mo  Mo12  1  0.31558818  0.81645263  0.18438724  1
  Mo  Mo13  1  0.31616971  0.81595700  0.68432296  1
  Mo  Mo14  1  0.18347480  0.49953329  0.18413954  1
  Mo  Mo15  1  0.18407396  0.49971455  0.68401402  1
  Mo  Mo16  1  0.50160934  0.68513326  0.18404679  1
  Mo  Mo17  1  0.50081073  0.68489087  0.68423797  1
  Mo  Mo18  1  0.68401719  0.18476552  0.43408056  1
  Mo  Mo19  1  0.68394839  0.18464455  0.93409978  1
  Mo  Mo20  1  0.81540949  0.49925904  0.43409229  1
  Mo  Mo21  1  0.81547186  0.49928944  0.93408244  1
  Mo  Mo22  1  0.50067602  0.31600614  0.43406153  1
  Mo  Mo23  1  0.50065249  0.31603431  0.93407528  1
  Mo  Mo24  1  0.83132486  0.98607983  0.22066086  1
  Mo  Mo25  1  0.83081325  0.98657512  0.72100331  1
  Mo  Mo26  1  0.01404305  0.84473117  0.22066043  1
  Mo  Mo27  1  0.01362899  0.84462157  0.72108963  1
  Mo  Mo28  1  0.15452261  0.16844015  0.22083561  1
  Mo  Mo29  1  0.15529282  0.16833578  0.72105464  1
  Mo  Mo30  1  0.16781384  0.01236342  0.47139176  1
  Mo  Mo31  1  0.16795091  0.01242121  0.97140525  1
  Mo  Mo32  1  0.98728138  0.15585466  0.47131315  1
  Mo  Mo33  1  0.98707967  0.15540788  0.97131276  1
  Mo  Mo34  1  0.84387705  0.83167069  0.47138011  1
  Mo  Mo35  1  0.84426007  0.83173559  0.97135610  1
  Mo  Mo36  1  0.16795091  0.01242121  0.27859475  1
  Mo  Mo37  1  0.16781384  0.01236342  0.77860824  1
  Mo  Mo38  1  0.98707967  0.15540788  0.27868724  1
  Mo  Mo39  1  0.98728138  0.15585466  0.77868685  1
  Mo  Mo40  1  0.84426007  0.83173559  0.27864390  1
  Mo  Mo41  1  0.84387705  0.83167069  0.77861989  1
  Mo  Mo42  1  0.83132486  0.98607983  0.02933914  1
  Mo  Mo43  1  0.83081325  0.98657512  0.52899669  1
  Mo  Mo44  1  0.01404305  0.84473117  0.02933957  1
  Mo  Mo45  1  0.01362899  0.84462157  0.52891037  1
  Mo  Mo46  1  0.15452261  0.16844015  0.02916439  1
  Mo  Mo47  1  0.15529282  0.16833578  0.52894536  1
  Mo  Mo48  1  0.51392864  0.16574774  0.37501078  1
  Mo  Mo49  1  0.51392864  0.16574774  0.87498922  1
  Mo  Mo50  1  0.83446909  0.34839638  0.37500584  1
  Mo  Mo51  1  0.83446909  0.34839638  0.87499416  1
  Mo  Mo52  1  0.65161789  0.48597079  0.37500821  1
  Mo  Mo53  1  0.65161789  0.48597079  0.87499179  1
  Mo  Mo54  1  0.49128063  0.83809076  0.12500000  1
  Mo  Mo55  1  0.49216420  0.83929022  0.62500000  1
  Mo  Mo56  1  0.16212590  0.65255664  0.12500000  1
  Mo  Mo57  1  0.16655125  0.65130044  0.62500000  1
  Mo  Mo58  1  0.34841833  0.51637709  0.12500000  1
  Mo  Mo59  1  0.34828933  0.51478368  0.62500000  1
  S  S0  1  0.99721484  0.99741327  0.17232439  1
  S  S1  1  0.99785108  0.00020298  0.67261172  1
  S  S2  1  0.99983154  0.00000897  0.42271058  1
  S  S3  1  0.00001895  0.00006846  0.92267241  1
  S  S4  1  0.00001895  0.00006846  0.32732759  1
  S  S5  1  0.99983154  0.00000897  0.82728942  1
  S  S6  1  0.99721484  0.99741327  0.07767561  1
  S  S7  1  0.99785108  0.00020298  0.57738828  1
  S  S8  1  0.66663108  0.33329116  0.26731779  1
  S  S9  1  0.66666593  0.33335579  0.76735287  1
  S  S10  1  0.33344813  0.66672275  0.01734011  1
  S  S11  1  0.33334108  0.66662316  0.51732374  1
  S  S12  1  0.33344813  0.66672275  0.23265989  1
  S  S13  1  0.33334108  0.66662316  0.73267626  1
  S  S14  1  0.66666593  0.33335579  0.48264713  1
  S  S15  1  0.66663108  0.33329116  0.98268221  1
  S  S16  1  0.69142435  0.97329346  0.27593601  1
  S  S17  1  0.69126937  0.97308871  0.77598613  1
  S  S18  1  0.02690079  0.71827554  0.27594982  1
  S  S19  1  0.02698847  0.71826629  0.77595097  1
  S  S20  1  0.28176159  0.30863110  0.27594926  1
  S  S21  1  0.28170743  0.30869384  0.77591446  1
  S  S22  1  0.30830399  0.02628750  0.02570695  1
  S  S23  1  0.30861999  0.02672813  0.52582854  1
  S  S24  1  0.97373407  0.28182185  0.02560803  1
  S  S25  1  0.97355169  0.28173519  0.52572339  1
  S  S26  1  0.71807424  0.69194031  0.02563701  1
  S  S27  1  0.71821967  0.69158588  0.52580123  1
  S  S28  1  0.30830399  0.02628750  0.22429305  1
  S  S29  1  0.30861999  0.02672813  0.72417146  1
  S  S30  1  0.97373407  0.28182185  0.22439197  1
  S  S31  1  0.97355169  0.28173519  0.72427661  1
  S  S32  1  0.71807424  0.69194031  0.22436299  1
  S  S33  1  0.71821967  0.69158588  0.72419877  1
  S  S34  1  0.69126937  0.97308871  0.47401387  1
  S  S35  1  0.69142435  0.97329346  0.97406399  1
  S  S36  1  0.02698847  0.71826629  0.47404903  1
  S  S37  1  0.02690079  0.71827554  0.97405018  1
  S  S38  1  0.28170743  0.30869384  0.47408554  1
  S  S39  1  0.28176159  0.30863110  0.97405074  1
  S  S40  1  0.38741343  0.01772664  0.31968668  1
  S  S41  1  0.38746491  0.01771001  0.81967949  1
  S  S42  1  0.98241333  0.36976531  0.31969654  1
  S  S43  1  0.98247357  0.36989490  0.81968956  1
  S  S44  1  0.63011929  0.61248217  0.31969695  1
  S  S45  1  0.63011340  0.61244025  0.81968369  1
  S  S46  1  0.61244888  0.98016489  0.07031868  1
  S  S47  1  0.61254108  0.98044399  0.57014302  1
  S  S48  1  0.01976764  0.63231195  0.07031954  1
  S  S49  1  0.01815988  0.63048382  0.56989488  1
  S  S50  1  0.36932826  0.38783088  0.07006006  1
  S  S51  1  0.36964282  0.38792493  0.56987487  1
  S  S52  1  0.61244888  0.98016489  0.17968132  1
  S  S53  1  0.61254108  0.98044399  0.67985698  1
  S  S54  1  0.01976764  0.63231195  0.17968046  1
  S  S55  1  0.01815988  0.63048382  0.68010512  1
  S  S56  1  0.36932826  0.38783088  0.17993994  1
  S  S57  1  0.36964282  0.38792493  0.68012513  1
  S  S58  1  0.38746491  0.01771001  0.43032051  1
  S  S59  1  0.38741343  0.01772664  0.93031332  1
  S  S60  1  0.98247357  0.36989490  0.43031044  1
  S  S61  1  0.98241333  0.36976531  0.93030346  1
  S  S62  1  0.63011340  0.61244025  0.43031631  1
  S  S63  1  0.63011929  0.61248217  0.93030305  1
  S  S64  1  0.36303310  0.30795736  0.37501569  1
  S  S65  1  0.36303310  0.30795736  0.87498431  1
  S  S66  1  0.69205578  0.05523460  0.37501105  1
  S  S67  1  0.69205578  0.05523460  0.87498895  1
  S  S68  1  0.94496245  0.63680845  0.37501091  1
  S  S69  1  0.94496245  0.63680845  0.87498909  1
  S  S70  1  0.64043445  0.69380420  0.12500000  1
  S  S71  1  0.63641786  0.69178733  0.62500000  1
  S  S72  1  0.30883983  0.94450721  0.12500000  1
  S  S73  1  0.30838484  0.94468287  0.62500000  1
  S  S74  1  0.05310357  0.36006513  0.12500000  1
  S  S75  1  0.05301152  0.35939629  0.62500000  1
loop_
_geom_bond_atom_site_label_1
_geom_bond_atom_site_label_2
_geom_bond_distance
_geom_bond_site_symmetry_2
Na0 S8 2.739994 1_555
Na0 S56 3.227579 1_555
Na0 S54 3.234664 1_655
Na0 S52 3.245005 1_545
Na0 S30 3.417201 1_555
Na1 S9 2.733904 1_555
Na1 S55 3.220914 1_655
Na1 S57 3.225552 1_555
Na1 S53 3.238756 1_545
Na1 S29 3.409725 1_555
Na1 S31 3.412011 1_555
Na1 S33 3.421898 1_555
Na2 S11 2.726016 1_555
Na2 S60 3.215935 1_455
Na2 S62 3.217023 1_555
Na2 S58 3.222997 1_565
Na2 S34 3.404215 1_555
Na2 S36 3.406064 1_555
Na2 S38 3.412004 1_555
Na3 S10 2.725968 1_556
Na3 S61 3.216709 1_455
Na3 S63 3.217138 1_555
Na3 S59 3.223648 1_565
Na3 S35 3.406395 1_555
Na3 S37 3.406634 1_555
Na3 S39 3.412009 1_555
Na4 S12 2.725968 1_555
Na4 S42 3.216709 1_455
Na4 S44 3.217138 1_555
Na4 S40 3.223648 1_565
Na4 S16 3.406395 1_555
Na4 S18 3.406634 1_555
Na4 S20 3.412009 1_555
Na5 S13 2.726016 1_555
Na5 S43 3.215935 1_455
Na5 S45 3.217023 1_555
Na5 S41 3.222997 1_565
Na5 S17 3.404215 1_555
Na5 S19 3.406064 1_555
Na5 S21 3.412004 1_555
Na6 S15 2.739994 1_554
Na6 S50 3.227579 1_555
Na6 S48 3.234664 1_655
Na6 S46 3.245005 1_545
Na6 S24 3.417201 1_555
Na7 S14 2.733904 1_555
Na7 S49 3.220914 1_655
Na7 S51 3.225552 1_555
Na7 S47 3.238756 1_545
Na7 S23 3.409725 1_555
Na7 S25 3.412011 1_555
Na7 S27 3.421898 1_555
Na8 S71 2.605006 1_555
Na8 S1 2.700204 1_565
Na8 S7 2.700204 1_565
Na8 S49 2.825115 1_655
Na8 S55 2.825115 1_655
Na8 S73 3.101785 1_655
Na9 S72 2.625866 1_545
Na9 S6 2.689912 1_445
Na9 S0 2.689912 1_445
Na9 S56 2.826210 1_555
Na9 S50 2.826210 1_555
Na9 S74 3.081022 1_555
Na10 S73 2.630625 1_545
Na10 S7 2.700756 1_455
Na10 S1 2.700756 1_455
Na10 S57 2.820048 1_555
Na10 S51 2.820048 1_555
Na10 S75 3.070503 1_555
Na11 S68 2.613301 1_455
Na11 S4 2.707536 1_565
Na11 S2 2.708929 1_465
Na11 S58 2.815331 1_565
Na11 S40 2.815452 1_565
Na11 S64 3.100076 1_565
Na12 S69 2.613301 1_455
Na12 S3 2.707536 1_565
Na12 S5 2.708929 1_465
Na12 S41 2.815331 1_565
Na12 S59 2.815452 1_565
Na12 S65 3.100076 1_565
Na13 S64 2.609620 1_555
Na13 S4 2.708668 1_555
Na13 S2 2.709284 1_455
Na13 S42 2.817183 1_455
Na13 S60 2.817368 1_455
Na13 S66 3.093153 1_455
Na14 S65 2.609620 1_555
Na14 S3 2.708668 1_555
Na14 S5 2.709284 1_455
Na14 S61 2.817183 1_455
Na14 S43 2.817368 1_455
Na14 S67 3.093153 1_455
Na15 S66 2.616433 1_565
Na15 S2 2.706043 1_565
Na15 S4 2.706576 1_665
Na15 S44 2.817461 1_555
Na15 S62 2.817533 1_555
Na15 S68 3.100921 1_555
Na16 S67 2.616433 1_565
Na16 S5 2.706043 1_565
Na16 S3 2.706576 1_665
Na16 S63 2.817461 1_555
Na16 S45 2.817533 1_555
Na16 S69 3.100921 1_555
Mo0 S8 2.409383 1_555
Mo0 S40 2.487488 1_555
Mo0 S42 2.521106 1_555
Mo0 S16 2.584032 1_545
Mo0 S66 2.609306 1_555
Mo1 S9 2.408689 1_555
Mo1 S41 2.487665 1_555
Mo1 S43 2.520995 1_555
Mo1 S17 2.584950 1_545
Mo1 S67 2.608329 1_555
Mo2 S8 2.409109 1_555
Mo2 S42 2.490714 1_555
Mo2 S44 2.525263 1_555
Mo2 S18 2.582290 1_655
Mo2 S68 2.607890 1_555
Mo3 S9 2.407192 1_555
Mo3 S43 2.490505 1_555
Mo3 S45 2.524664 1_555
Mo3 S19 2.582676 1_655
Mo3 S69 2.607705 1_555
Mo4 S8 2.408271 1_555
Mo4 S44 2.492100 1_555
Mo4 S40 2.525256 1_555
Mo4 S20 2.581575 1_555
Mo4 S64 2.607850 1_555
Mo5 S9 2.407470 1_555
Mo5 S45 2.491942 1_555
Mo5 S41 2.525144 1_555
Mo5 S21 2.583620 1_555
Mo5 S65 2.606519 1_555
Mo6 S10 2.408802 1_555
Mo6 S46 2.490347 1_555
Mo6 S48 2.502009 1_555
Mo6 S22 2.570134 1_565
Mo6 S72 2.608614 1_555
Mo7 S11 2.406285 1_555
Mo7 S47 2.486235 1_555
Mo7 S49 2.519115 1_555
Mo7 S23 2.577190 1_565
Mo7 S73 2.612288 1_555
Mo8 S10 2.413880 1_555
Mo8 S48 2.490537 1_555
Mo8 S50 2.519382 1_555
Mo8 S24 2.577421 1_455
Mo8 S74 2.616456 1_555
Mo9 S11 2.415284 1_555
Mo9 S49 2.492078 1_555
Mo9 S51 2.516766 1_555
Mo9 S25 2.581593 1_455
Mo9 S75 2.616041 1_555
Mo10 S10 2.418832 1_555
Mo10 S50 2.498389 1_555
Mo10 S46 2.500634 1_555
Mo10 S26 2.572817 1_555
Mo10 S70 2.610852 1_555
Mo10 Mo58 2.749451 1_555
Mo11 S11 2.409798 1_555
Mo11 S51 2.496211 1_555
Mo11 S47 2.504121 1_555
Mo11 S27 2.572370 1_555
Mo11 S71 2.605782 1_555
Mo12 S12 2.408802 1_555
Mo12 S52 2.490347 1_555
Mo12 S54 2.502009 1_555
Mo12 S28 2.570134 1_565
Mo12 S72 2.608614 1_555
Mo13 S13 2.406285 1_555
Mo13 S53 2.486235 1_555
Mo13 S55 2.519115 1_555
Mo13 S29 2.577190 1_565
Mo13 S73 2.612288 1_555
Mo13 Mo57 2.737281 1_555
Mo14 S12 2.413880 1_555
Mo14 S54 2.490537 1_555
Mo14 S56 2.519382 1_555
Mo14 S30 2.577421 1_455
Mo14 S74 2.616456 1_555
Mo14 Mo58 2.728312 1_555
Mo15 S13 2.415284 1_555
Mo15 S55 2.492078 1_555
Mo15 S57 2.516766 1_555
Mo15 S31 2.581593 1_455
Mo15 S75 2.616041 1_555
Mo15 Mo57 2.747129 1_555
Mo16 S12 2.418832 1_555
Mo16 S56 2.498389 1_555
Mo16 S52 2.500634 1_555
Mo16 S32 2.572817 1_555
Mo16 S70 2.610852 1_555
Mo16 Mo58 2.749451 1_555
Mo17 S13 2.409798 1_555
Mo17 S57 2.496211 1_555
Mo17 S53 2.504121 1_555
Mo17 S33 2.572370 1_555
Mo17 S71 2.605782 1_555
Mo18 S14 2.408689 1_555
Mo18 S58 2.487665 1_555
Mo18 S60 2.520995 1_555
Mo18 S34 2.584950 1_545
Mo18 S66 2.608329 1_555
Mo19 S15 2.409383 1_555
Mo19 S59 2.487488 1_555
Mo19 S61 2.521106 1_555
Mo19 S35 2.584032 1_545
Mo19 S67 2.609306 1_555
Mo20 S14 2.407192 1_555
Mo20 S60 2.490505 1_555
Mo20 S62 2.524664 1_555
Mo20 S36 2.582676 1_655
Mo20 S68 2.607705 1_555
Mo21 S15 2.409109 1_555
Mo21 S61 2.490714 1_555
Mo21 S63 2.525263 1_555
Mo21 S37 2.582290 1_655
Mo21 S69 2.607890 1_555
Mo22 S14 2.407470 1_555
Mo22 S62 2.491942 1_555
Mo22 S58 2.525144 1_555
Mo22 S38 2.583620 1_555
Mo22 S64 2.606519 1_555
Mo23 S15 2.408271 1_555
Mo23 S63 2.492100 1_555
Mo23 S59 2.525256 1_555
Mo23 S39 2.581575 1_555
Mo23 S65 2.607850 1_555
Mo24 S0 2.415487 1_555
Mo24 S30 2.479835 1_565
Mo24 S16 2.482719 1_555
Mo24 S32 2.487861 1_555
Mo24 S52 2.609993 1_555
Mo25 S1 2.417919 1_565
Mo25 S17 2.469864 1_555
Mo25 S31 2.473889 1_565
Mo25 S33 2.495277 1_555
Mo25 S53 2.608410 1_555
Mo26 S0 2.425215 1_455
Mo26 S32 2.476427 1_455
Mo26 S18 2.481531 1_555
Mo26 S28 2.484095 1_565
Mo26 S54 2.608505 1_555
Mo27 S1 2.443668 1_465
Mo27 S19 2.468462 1_555
Mo27 S33 2.470663 1_455
Mo27 S29 2.489276 1_565
Mo27 S55 2.617111 1_555
Mo28 S0 2.446568 1_445
Mo28 S20 2.478978 1_555
Mo28 S28 2.479957 1_555
Mo28 S30 2.485540 1_455
Mo28 S56 2.617623 1_555
Mo29 S1 2.434863 1_455
Mo29 S21 2.469416 1_555
Mo29 S29 2.470954 1_555
Mo29 S31 2.493490 1_455
Mo29 S57 2.617504 1_555
Mo30 S2 2.435738 1_455
Mo30 S23 2.456510 1_555
Mo30 S36 2.464232 1_545
Mo30 S38 2.504698 1_555
Mo30 S58 2.620192 1_555
Mo31 S3 2.436951 1_555
Mo31 S22 2.450879 1_556
Mo31 S37 2.464568 1_545
Mo31 S39 2.503652 1_555
Mo31 S59 2.619369 1_555
Mo32 S2 2.437600 1_555
Mo32 S25 2.452409 1_555
Mo32 S38 2.461933 1_655
Mo32 S34 2.497262 1_545
Mo32 S60 2.617880 1_555
Mo33 S3 2.436913 1_655
Mo33 S24 2.450243 1_556
Mo33 S39 2.464067 1_655
Mo33 S35 2.493780 1_545
Mo33 S61 2.619919 1_555
Mo34 S2 2.438106 1_565
Mo34 S27 2.452694 1_555
Mo34 S34 2.462479 1_555
Mo34 S36 2.504786 1_655
Mo34 S62 2.616988 1_555
Mo35 S3 2.437970 1_665
Mo35 S26 2.448388 1_556
Mo35 S35 2.465680 1_555
Mo35 S37 2.501053 1_655
Mo35 S63 2.618227 1_555
Mo36 S4 2.436951 1_555
Mo36 S28 2.450879 1_555
Mo36 S18 2.464568 1_545
Mo36 S20 2.503652 1_555
Mo36 S40 2.619369 1_555
Mo37 S5 2.435738 1_455
Mo37 S29 2.456510 1_555
Mo37 S19 2.464232 1_545
Mo37 S21 2.504698 1_555
Mo37 S41 2.620192 1_555
Mo38 S4 2.436913 1_655
Mo38 S30 2.450243 1_555
Mo38 S20 2.464067 1_655
Mo38 S16 2.493780 1_545
Mo38 S42 2.619919 1_555
Mo39 S5 2.437600 1_555
Mo39 S31 2.452409 1_555
Mo39 S21 2.461933 1_655
Mo39 S17 2.497262 1_545
Mo39 S43 2.617880 1_555
Mo40 S4 2.437970 1_665
Mo40 S32 2.448388 1_555
Mo40 S16 2.465680 1_555
Mo40 S18 2.501053 1_655
Mo40 S44 2.618227 1_555
Mo41 S5 2.438106 1_565
Mo41 S33 2.452694 1_555
Mo41 S17 2.462479 1_555
Mo41 S19 2.504786 1_655
Mo41 S45 2.616988 1_555
Mo42 S6 2.415487 1_555
Mo42 S24 2.479835 1_565
Mo42 S35 2.482719 1_554
Mo42 S26 2.487861 1_555
Mo42 S46 2.609993 1_555
Mo43 S7 2.417919 1_565
Mo43 S34 2.469864 1_555
Mo43 S25 2.473889 1_565
Mo43 S27 2.495277 1_555
Mo43 S47 2.608410 1_555
Mo44 S6 2.425215 1_455
Mo44 S26 2.476427 1_455
Mo44 S37 2.481531 1_554
Mo44 S22 2.484095 1_565
Mo44 S48 2.608505 1_555
Mo45 S7 2.443668 1_465
Mo45 S36 2.468462 1_555
Mo45 S27 2.470663 1_455
Mo45 S23 2.489276 1_565
Mo45 S49 2.617111 1_555
Mo46 S6 2.446568 1_445
Mo46 S39 2.478978 1_554
Mo46 S22 2.479957 1_555
Mo46 S24 2.485540 1_455
Mo46 S50 2.617623 1_555
Mo47 S7 2.434863 1_455
Mo47 S38 2.469416 1_555
Mo47 S23 2.470954 1_555
Mo47 S25 2.493490 1_455
Mo47 S51 2.617504 1_555
Mo48 S66 2.436068 1_555
Mo48 S64 2.452498 1_555
Mo48 S58 2.507533 1_555
Mo48 S40 2.508047 1_555
Mo48 Na11 2.934805 1_545
Mo49 S67 2.436068 1_555
Mo49 S65 2.452498 1_555
Mo49 S41 2.507533 1_555
Mo49 S59 2.508047 1_555
Mo49 Na12 2.934805 1_545
Mo50 S68 2.436158 1_555
Mo50 S66 2.453853 1_555
Mo50 S60 2.506725 1_555
Mo50 S42 2.506824 1_555
Mo50 Na13 2.937278 1_655
Mo51 S69 2.436158 1_555
Mo51 S67 2.453853 1_555
Mo51 S43 2.506725 1_555
Mo51 S61 2.506824 1_555
Mo51 Na14 2.937278 1_655
Mo52 S64 2.432291 1_555
Mo52 S68 2.450328 1_555
Mo52 S62 2.508227 1_555
Mo52 S44 2.508525 1_555
Mo52 Na15 2.941233 1_555
Mo53 S65 2.432291 1_555
Mo53 S69 2.450328 1_555
Mo53 S45 2.508227 1_555
Mo53 S63 2.508525 1_555
Mo53 Na16 2.941233 1_555
Mo54 S72 2.443535 1_555
Mo54 S70 2.455100 1_555
Mo54 S46 2.458252 1_555
Mo54 S52 2.458252 1_555
Mo54 Mo58 2.698330 1_555
Mo55 S71 2.441043 1_555
Mo55 S73 2.447848 1_555
Mo55 S47 2.459674 1_555
Mo55 S53 2.459674 1_555
Mo55 Mo57 2.730446 1_555
Mo56 S72 2.443303 1_555
Mo56 S48 2.460326 1_555
Mo56 S54 2.460326 1_555
Mo56 S74 2.474753 1_555
Mo56 Mo58 2.708185 1_555
Mo57 S73 2.455831 1_555
Mo57 S75 2.463476 1_555
Mo57 S49 2.503584 1_555
Mo57 S55 2.503584 1_555
Mo57 Mo59 2.671068 1_555
Mo57 Mo7 2.737281 1_555
Mo57 Mo9 2.747129 1_555
Mo57 Na8 2.965772 1_455
Mo58 S70 2.457836 1_555
Mo58 S74 2.467886 1_555
Mo58 S50 2.505133 1_555
Mo58 S56 2.505133 1_555
Mo58 Mo8 2.728312 1_555
Mo58 Na9 2.981675 1_555
Mo59 S71 2.427509 1_555
Mo59 S75 2.467293 1_555
Mo59 S57 2.503815 1_555
Mo59 S51 2.503815 1_555
Mo59 Na10 2.950520 1_555
