# generated using pymatgen
data_Ti2Co3Sn2
_symmetry_space_group_name_H-M   'P 1'
_cell_length_a   7.26635801
_cell_length_b   7.26635801
_cell_length_c   7.26635751
_cell_angle_alpha   33.87137628
_cell_angle_beta   33.87137628
_cell_angle_gamma   33.87136941
_symmetry_Int_Tables_number   1
_chemical_formula_structural   Ti2Co3Sn2
_chemical_formula_sum   'Ti2 Co3 Sn2'
_cell_volume   106.20474592
_cell_formula_units_Z   1
loop_
 _symmetry_equiv_pos_site_id
 _symmetry_equiv_pos_as_xyz
  1  'x, y, z'
loop_
 _atom_site_type_symbol
 _atom_site_label
 _atom_site_symmetry_multiplicity
 _atom_site_fract_x
 _atom_site_fract_y
 _atom_site_fract_z
 _atom_site_occupancy
  Ti  Ti0  1  0.75382122  0.75382122  0.75382122  1
  Ti  Ti1  1  0.24746620  0.24746620  0.24746620  1
  Co  Co0  1  0.12144904  0.12144904  0.12144904  1
  Co  Co1  1  0.62741165  0.62741165  0.62741165  1
  Co  Co2  1  0.37647952  0.37647952  0.37647952  1
  Sn  Sn0  1  0.99472454  0.99472454  0.99472454  1
  Sn  Sn1  1  0.50364783  0.50364783  0.50364783  1
loop_
_geom_bond_atom_site_label_1
_geom_bond_atom_site_label_2
_geom_bond_distance
_geom_bond_site_symmetry_2
Co0 Ti0 2.543504 1_454
Co0 Ti0 2.543504 1_544
Co0 Ti0 2.543504 1_445
Co0 Ti1 2.586994 1_555
Co0 Sn0 2.601515 1_444
Co0 Sn1 2.641983 1_545
Co0 Sn1 2.641983 1_455
Co0 Sn1 2.641984 1_554
Co1 Sn1 2.540735 1_555
Co1 Sn0 2.541722 1_455
Co1 Sn0 2.541722 1_545
Co1 Sn0 2.541723 1_554
Co1 Ti0 2.595050 1_555
Co1 Ti1 2.624768 1_565
Co1 Ti1 2.624768 1_655
Co1 Ti1 2.624768 1_556
Co2 Ti0 2.605756 1_545
Co2 Ti0 2.605756 1_455
Co2 Ti0 2.605757 1_554
Co2 Sn1 2.610626 1_555
Co2 Sn0 2.638537 1_454
Co2 Sn0 2.638537 1_544
Co2 Sn0 2.638538 1_445
Co2 Ti1 2.648502 1_555
Sn0 Ti1 2.951439 1_665
Sn0 Ti1 2.951439 1_656
Sn0 Ti1 2.951439 1_566
Sn0 Ti0 3.094222 1_556
Sn0 Ti0 3.094223 1_565
Sn0 Ti0 3.094223 1_655
Sn1 Ti1 2.912440 1_556
Sn1 Ti1 2.912440 1_565
Sn1 Ti1 2.912440 1_655
Sn1 Ti0 2.981313 1_554
Sn1 Ti0 2.981313 1_545
Sn1 Ti0 2.981313 1_455
