# generated using pymatgen
data_RbMg14FeO16
_symmetry_space_group_name_H-M   'P 1'
_cell_length_a   8.74446800
_cell_length_b   8.66095600
_cell_length_c   4.37887100
_cell_angle_alpha   90.00000000
_cell_angle_beta   90.00000000
_cell_angle_gamma   90.00000000
_symmetry_Int_Tables_number   1
_chemical_formula_structural   RbMg14FeO16
_chemical_formula_sum   'Rb1 Mg14 Fe1 O16'
_cell_volume   331.63577702
_cell_formula_units_Z   1
loop_
 _symmetry_equiv_pos_site_id
 _symmetry_equiv_pos_as_xyz
  1  'x, y, z'
loop_
 _atom_site_type_symbol
 _atom_site_label
 _atom_site_symmetry_multiplicity
 _atom_site_fract_x
 _atom_site_fract_y
 _atom_site_fract_z
 _atom_site_occupancy
  Rb  Rb0  1  0.00000000  0.50000000  0.00000000  1
  Mg  Mg0  1  0.50000000  0.00000000  0.00000000  1
  Mg  Mg1  1  0.50000000  0.50000000  0.00000000  1
  Mg  Mg2  1  0.00000000  0.24476400  0.50000000  1
  Mg  Mg3  1  0.00000000  0.75523600  0.50000000  1
  Mg  Mg4  1  0.50000000  0.24956700  0.50000000  1
  Mg  Mg5  1  0.50000000  0.75043300  0.50000000  1
  Mg  Mg6  1  0.25354900  0.00000000  0.50000000  1
  Mg  Mg7  1  0.26017500  0.50000000  0.50000000  1
  Mg  Mg8  1  0.74645100  0.00000000  0.50000000  1
  Mg  Mg9  1  0.73982500  0.50000000  0.50000000  1
  Mg  Mg10  1  0.25726100  0.24945200  0.00000000  1
  Mg  Mg11  1  0.25726100  0.75054800  0.00000000  1
  Mg  Mg12  1  0.74273900  0.24945200  0.00000000  1
  Mg  Mg13  1  0.74273900  0.75054800  0.00000000  1
  Fe  Fe0  1  0.00000000  0.00000000  0.00000000  1
  O  O0  1  0.25489700  0.00000000  0.00000000  1
  O  O1  1  0.27966000  0.50000000  0.00000000  1
  O  O2  1  0.74510300  0.00000000  0.00000000  1
  O  O3  1  0.72034000  0.50000000  0.00000000  1
  O  O4  1  0.24910900  0.24954400  0.50000000  1
  O  O5  1  0.24910900  0.75045600  0.50000000  1
  O  O6  1  0.75089100  0.24954400  0.50000000  1
  O  O7  1  0.75089100  0.75045600  0.50000000  1
  O  O8  1  0.00000000  0.00000000  0.50000000  1
  O  O9  1  0.00000000  0.50000000  0.50000000  1
  O  O10  1  0.50000000  0.00000000  0.50000000  1
  O  O11  1  0.50000000  0.50000000  0.50000000  1
  O  O12  1  0.00000000  0.21899100  0.00000000  1
  O  O13  1  0.00000000  0.78100900  0.00000000  1
  O  O14  1  0.50000000  0.24262200  0.00000000  1
  O  O15  1  0.50000000  0.75737800  0.00000000  1
loop_
_geom_bond_atom_site_label_1
_geom_bond_atom_site_label_2
_geom_bond_distance
_geom_bond_site_symmetry_2
Mg0 O14 2.101338 1_555
Mg0 O15 2.101338 1_545
Mg0 O2 2.143295 1_555
Mg0 O0 2.143295 1_555
Mg0 O10 2.189436 1_555
Mg0 O10 2.189436 1_554
Mg1 O1 1.926756 1_555
Mg1 O3 1.926756 1_555
Mg1 O11 2.189436 1_554
Mg1 O11 2.189436 1_555
Mg1 O15 2.229140 1_555
Mg1 O14 2.229140 1_555
Mg2 O8 2.119890 1_555
Mg2 O6 2.178719 1_455
Mg2 O4 2.178719 1_555
Mg2 O12 2.200785 1_556
Mg2 O12 2.200785 1_555
Mg2 O9 2.210588 1_555
Mg3 O8 2.119890 1_565
Mg3 O5 2.178719 1_555
Mg3 O7 2.178719 1_455
Mg3 O13 2.200785 1_555
Mg3 O13 2.200785 1_556
Mg3 O9 2.210588 1_555
Mg4 O10 2.161489 1_555
Mg4 O11 2.168989 1_555
Mg4 O14 2.190262 1_556
Mg4 O14 2.190262 1_555
Mg4 O4 2.193908 1_555
Mg4 O6 2.193908 1_555
Mg5 O10 2.161489 1_565
Mg5 O11 2.168989 1_555
Mg5 O15 2.190262 1_556
Mg5 O15 2.190262 1_555
Mg5 O5 2.193908 1_555
Mg5 O7 2.193908 1_555
Mg6 O10 2.155083 1_555
Mg6 O5 2.161638 1_545
Mg6 O4 2.161638 1_555
Mg6 O0 2.189467 1_555
Mg6 O0 2.189467 1_556
Mg6 O8 2.217151 1_555
Mg7 O11 2.097142 1_555
Mg7 O5 2.171346 1_555
Mg7 O4 2.171346 1_555
Mg7 O1 2.196055 1_556
Mg7 O1 2.196055 1_555
Mg7 O9 2.275092 1_555
Mg8 O10 2.155083 1_555
Mg8 O6 2.161638 1_555
Mg8 O7 2.161638 1_545
Mg8 O2 2.189467 1_555
Mg8 O2 2.189467 1_556
Mg8 O8 2.217151 1_655
Mg9 O11 2.097142 1_555
Mg9 O7 2.171346 1_555
Mg9 O6 2.171346 1_555
Mg9 O3 2.196055 1_556
Mg9 O3 2.196055 1_555
Mg9 O9 2.275092 1_655
Mg10 O14 2.123448 1_555
Mg10 O0 2.160592 1_555
Mg10 O1 2.178807 1_555
Mg10 O4 2.190596 1_554
Mg10 O4 2.190596 1_555
Mg10 O12 2.265027 1_555
Mg11 O15 2.123448 1_555
Mg11 O0 2.160592 1_565
Mg11 O1 2.178807 1_555
Mg11 O5 2.190596 1_554
Mg11 O5 2.190596 1_555
Mg11 O13 2.265027 1_555
Mg12 O14 2.123448 1_555
Mg12 O2 2.160592 1_555
Mg12 O3 2.178807 1_555
Mg12 O6 2.190596 1_555
Mg12 O6 2.190596 1_554
Mg12 O12 2.265027 1_655
Mg13 O15 2.123448 1_555
Mg13 O2 2.160592 1_565
Mg13 O3 2.178807 1_555
Mg13 O7 2.190596 1_555
Mg13 O7 2.190596 1_554
Mg13 O13 2.265027 1_655
Fe0 O12 1.896671 1_555
Fe0 O13 1.896671 1_545
Fe0 O8 2.189436 1_554
Fe0 O8 2.189436 1_555
Fe0 O0 2.228939 1_555
Fe0 O2 2.228939 1_455
O1 Rb0 2.445478 1_555
O3 Rb0 2.445478 1_655
O9 Rb0 2.189436 1_555
O9 Rb0 2.189436 1_556
O12 Rb0 2.433807 1_555
O13 Rb0 2.433807 1_555
