# generated using pymatgen
data_NpSc3
_symmetry_space_group_name_H-M   'P 1'
_cell_length_a   5.74568126
_cell_length_b   5.74568126
_cell_length_c   5.74568126
_cell_angle_alpha   133.83919934
_cell_angle_beta   133.83919934
_cell_angle_gamma   67.33927208
_symmetry_Int_Tables_number   1
_chemical_formula_structural   NpSc3
_chemical_formula_sum   'Np1 Sc3'
_cell_volume   97.04188527
_cell_formula_units_Z   1
loop_
 _symmetry_equiv_pos_site_id
 _symmetry_equiv_pos_as_xyz
  1  'x, y, z'
loop_
 _atom_site_type_symbol
 _atom_site_label
 _atom_site_symmetry_multiplicity
 _atom_site_fract_x
 _atom_site_fract_y
 _atom_site_fract_z
 _atom_site_occupancy
  Np  Np0  1  0.00000000  0.00000000  0.00000000  1
  Sc  Sc0  1  0.75000000  0.25000000  0.50000000  1
  Sc  Sc1  1  0.25000000  0.75000000  0.50000000  1
  Sc  Sc2  1  0.50000000  0.50000000  0.00000000  1
loop_
_geom_bond_atom_site_label_1
_geom_bond_atom_site_label_2
_geom_bond_distance
_geom_bond_site_symmetry_2
Np0 Sc2 3.185426 1_455
Np0 Sc2 3.185426 1_556
Np0 Sc2 3.185426 1_444
Np0 Sc2 3.185426 1_545
Np0 Sc1 3.284806 1_544
Np0 Sc1 3.284806 1_555
Np0 Sc1 3.284806 1_444
Np0 Sc0 3.284806 1_455
Np0 Sc1 3.284806 1_545
Np0 Sc0 3.284806 1_555
Np0 Sc0 3.284806 1_444
Np0 Sc0 3.284806 1_454
Sc0 Sc1 3.185426 1_656
Sc0 Sc1 3.185426 1_544
Sc0 Sc1 3.185426 1_555
Sc0 Sc1 3.185426 1_645
Sc0 Sc2 3.284806 1_556
Sc0 Sc2 3.284806 1_656
Sc0 Sc2 3.284806 1_555
Sc0 Sc2 3.284806 1_545
Sc1 Sc2 3.284806 1_556
Sc1 Sc2 3.284806 1_555
Sc1 Sc2 3.284806 1_455
Sc1 Sc2 3.284806 1_566
