# generated using pymatgen
data_Li3Co2RuO6
_symmetry_space_group_name_H-M   'P 1'
_cell_length_a   5.20302866
_cell_length_b   5.20288474
_cell_length_c   9.87658779
_cell_angle_alpha   94.84662728
_cell_angle_beta   85.15007156
_cell_angle_gamma   60.36137980
_symmetry_Int_Tables_number   1
_chemical_formula_structural   Li3Co2RuO6
_chemical_formula_sum   'Li6 Co4 Ru2 O12'
_cell_volume   229.07739699
_cell_formula_units_Z   2
loop_
 _symmetry_equiv_pos_site_id
 _symmetry_equiv_pos_as_xyz
  1  'x, y, z'
loop_
 _atom_site_type_symbol
 _atom_site_label
 _atom_site_symmetry_multiplicity
 _atom_site_fract_x
 _atom_site_fract_y
 _atom_site_fract_z
 _atom_site_occupancy
  Li  Li0  1  0.66667800  0.66664400  0.99998100  1
  Li  Li1  1  0.16664300  0.16667900  0.50002100  1
  Li  Li2  1  0.83247000  0.83429800  0.50020000  1
  Li  Li3  1  0.33429900  0.33247100  0.99979800  1
  Li  Li4  1  0.99907200  0.00088500  0.00015700  1
  Li  Li5  1  0.50088800  0.49907000  0.49984300  1
  Co  Co0  1  0.74969200  0.24969200  0.75000000  1
  Co  Co1  1  0.58362500  0.08363300  0.25000000  1
  Co  Co2  1  0.24759500  0.74759400  0.24999900  1
  Co  Co3  1  0.08535100  0.58538000  0.75000000  1
  Ru  Ru0  1  0.41590400  0.91589000  0.74999900  1
  Ru  Ru1  1  0.91765400  0.41764600  0.25000000  1
  O  O0  1  0.27280300  0.06592700  0.13632100  1
  O  O1  1  0.76758800  0.56050200  0.63620800  1
  O  O2  1  0.56591300  0.77281400  0.36367600  1
  O  O3  1  0.06050600  0.26759500  0.86378100  1
  O  O4  1  0.63823700  0.37545900  0.13365100  1
  O  O5  1  0.13658200  0.88126600  0.63143600  1
  O  O6  1  0.95231500  0.69652300  0.13112100  1
  O  O7  1  0.45827500  0.19465600  0.63346100  1
  O  O8  1  0.19651700  0.45230300  0.36887700  1
  O  O9  1  0.69465500  0.95826800  0.86654000  1
  O  O10  1  0.87546600  0.13823100  0.36635700  1
  O  O11  1  0.38127500  0.63657600  0.86857300  1
loop_
_geom_bond_atom_site_label_1
_geom_bond_atom_site_label_2
_geom_bond_distance
_geom_bond_site_symmetry_2
Li0 O6 2.104863 1_556
Li0 O11 2.106032 1_555
Li0 O9 2.141081 1_555
Li0 O4 2.141668 1_556
Li0 O3 2.274458 1_655
Li0 O0 2.275670 1_566
Li1 O8 2.104737 1_555
Li1 O5 2.106017 1_545
Li1 O7 2.141198 1_555
Li1 O10 2.141699 1_455
Li1 O1 2.274405 1_455
Li1 O2 2.275643 1_545
Li2 O2 2.127470 1_555
Li2 O7 2.139505 1_565
Li2 O8 2.155399 1_655
Li2 O1 2.161016 1_555
Li2 O5 2.217915 1_655
Li2 O10 2.225130 1_565
Li3 O0 2.127349 1_556
Li3 O9 2.139504 1_545
Li3 O6 2.155385 1_456
Li3 O3 2.161139 1_555
Li3 O11 2.217740 1_555
Li3 O4 2.225293 1_556
Li4 O3 2.126906 1_654
Li4 O4 2.142339 1_555
Li4 O11 2.157539 1_644
Li4 O0 2.162220 1_655
Li4 O6 2.216725 1_545
Li4 O9 2.225035 1_544
Li5 O1 2.126876 1_555
Li5 O10 2.142320 1_555
Li5 O5 2.157556 1_555
Li5 O2 2.162165 1_555
Li5 O8 2.216891 1_555
Li5 O7 2.224926 1_555
Co0 O1 2.079698 1_555
Co0 O3 2.079754 1_655
Co0 O9 2.091519 1_545
Co0 O7 2.091569 1_555
Co0 O5 2.122148 1_645
Co0 O11 2.122149 1_555
Co1 O2 2.078681 1_545
Co1 O0 2.078790 1_555
Co1 O4 2.091151 1_555
Co1 O10 2.091320 1_555
Co1 O8 2.124380 1_555
Co1 O6 2.124431 1_545
Co2 O8 2.113164 1_555
Co2 O6 2.113190 1_455
Co2 O0 2.127231 1_565
Co2 O2 2.127275 1_555
Co2 O4 2.130084 1_555
Co2 O10 2.130096 1_465
Co3 O5 2.114226 1_555
Co3 O11 2.114455 1_555
Co3 O3 2.124639 1_555
Co3 O1 2.124766 1_455
Co3 O9 2.132474 1_455
Co3 O7 2.132608 1_555
O0 Ru1 1.995346 1_455
O1 Ru0 1.996249 1_555
O2 Ru1 1.995422 1_555
O3 Ru0 1.996281 1_545
O4 Ru1 2.009412 1_555
O5 Ru0 2.006712 1_555
O6 Ru1 2.006801 1_555
O7 Ru0 2.008097 1_545
O8 Ru1 2.006806 1_455
O9 Ru0 2.008152 1_555
O10 Ru1 2.009369 1_555
O11 Ru0 2.006672 1_555
