# generated using pymatgen
data_CeCuPb
_symmetry_space_group_name_H-M   'P 1'
_cell_length_a   4.66151208
_cell_length_b   4.66151208
_cell_length_c   7.76732412
_cell_angle_alpha   90.00000000
_cell_angle_beta   90.00000000
_cell_angle_gamma   119.99999690
_symmetry_Int_Tables_number   1
_chemical_formula_structural   CeCuPb
_chemical_formula_sum   'Ce2 Cu2 Pb2'
_cell_volume   146.16914333
_cell_formula_units_Z   2
loop_
 _symmetry_equiv_pos_site_id
 _symmetry_equiv_pos_as_xyz
  1  'x, y, z'
loop_
 _atom_site_type_symbol
 _atom_site_label
 _atom_site_symmetry_multiplicity
 _atom_site_fract_x
 _atom_site_fract_y
 _atom_site_fract_z
 _atom_site_occupancy
  Ce  Ce0  1  0.00000000  -0.00000000  0.00952932  1
  Ce  Ce1  1  0.00000000  -0.00000000  0.50959265  1
  Cu  Cu0  1  0.66666700  0.33333300  0.32846649  1
  Cu  Cu1  1  0.33333300  0.66666700  0.82748878  1
  Pb  Pb0  1  0.66666700  0.33333300  0.74367170  1
  Pb  Pb1  1  0.33333300  0.66666700  0.24385105  1
loop_
_geom_bond_atom_site_label_1
_geom_bond_atom_site_label_2
_geom_bond_distance
_geom_bond_site_symmetry_2
Ce0 Cu1 3.040152 1_544
Ce0 Cu1 3.040155 1_554
Ce0 Cu1 3.040155 1_444
Ce0 Pb1 3.248970 1_545
Ce0 Pb1 3.248974 1_555
Ce0 Pb1 3.248974 1_445
Ce0 Pb0 3.392263 1_454
Ce0 Pb0 3.392267 1_444
Ce0 Pb0 3.392267 1_554
Ce0 Cu0 3.657892 1_455
Ce0 Cu0 3.657895 1_555
Ce0 Cu0 3.657895 1_445
Ce0 Ce1 3.883170 1_554
Ce0 Ce1 3.884154 1_555
Ce1 Cu0 3.036855 1_455
Ce1 Cu0 3.036859 1_445
Ce1 Cu0 3.036859 1_555
Ce1 Pb0 3.247915 1_455
Ce1 Pb0 3.247918 1_445
Ce1 Pb0 3.247918 1_555
Ce1 Pb1 3.391715 1_545
Ce1 Pb1 3.391718 1_555
Ce1 Pb1 3.391718 1_445
Ce1 Cu1 3.652421 1_545
Ce1 Cu1 3.652424 1_445
Ce1 Cu1 3.652424 1_555
Cu0 Pb1 2.770411 1_545
Cu0 Pb1 2.770411 1_655
Cu0 Pb1 2.770419 1_555
Cu0 Pb0 3.225033 1_555
Cu1 Pb0 2.768946 1_455
Cu1 Pb0 2.768946 1_565
Cu1 Pb0 2.768954 1_555
Cu1 Pb1 3.234021 1_556
