# generated using pymatgen
data_TaTe4Ir
_symmetry_space_group_name_H-M   'P 1'
_cell_length_a   3.80804874
_cell_length_b   12.60487678
_cell_length_c   14.09991610
_cell_angle_alpha   90.00000000
_cell_angle_beta   90.00000000
_cell_angle_gamma   90.00000000
_symmetry_Int_Tables_number   1
_chemical_formula_structural   TaTe4Ir
_chemical_formula_sum   'Ta4 Te16 Ir4'
_cell_volume   676.79576327
_cell_formula_units_Z   4
loop_
 _symmetry_equiv_pos_site_id
 _symmetry_equiv_pos_as_xyz
  1  'x, y, z'
loop_
 _atom_site_type_symbol
 _atom_site_label
 _atom_site_symmetry_multiplicity
 _atom_site_fract_x
 _atom_site_fract_y
 _atom_site_fract_z
 _atom_site_occupancy
  Ta  Ta0  1  -0.00000000  0.05234073  0.00471806  1
  Ta  Ta1  1  0.50000000  0.94765927  0.50471806  1
  Ta  Ta2  1  -0.00000000  0.26910118  0.49037253  1
  Ta  Ta3  1  0.50000000  0.73089882  0.99037253  1
  Te  Te0  1  0.50000000  0.10673348  0.13857116  1
  Te  Te1  1  -0.00000000  0.89326652  0.63857116  1
  Te  Te2  1  0.50000000  0.15177199  0.60164733  1
  Te  Te3  1  -0.00000000  0.84822801  0.10164733  1
  Te  Te4  1  0.50000000  0.32291279  0.35608821  1
  Te  Te5  1  0.00000000  0.67708721  0.85608821  1
  Te  Te6  1  0.50000000  0.43502360  0.90169451  1
  Te  Te7  1  -0.00000000  0.56497640  0.40169451  1
  Te  Te8  1  -0.00000000  0.06567219  0.39469220  1
  Te  Te9  1  0.50000000  0.93432781  0.89469220  1
  Te  Te10  1  0.00000000  0.19239317  0.86460643  1
  Te  Te11  1  0.50000000  0.80760683  0.36460643  1
  Te  Te12  1  0.00000000  0.34666736  0.09011698  1
  Te  Te13  1  0.50000000  0.65333264  0.59011698  1
  Te  Te14  1  -0.00000000  0.41204248  0.62820960  1
  Te  Te15  1  0.50000000  0.58795752  0.12820960  1
  Ir  Ir0  1  0.00000000  0.53452087  -0.00110773  1
  Ir  Ir1  1  0.50000000  0.46547913  0.49889227  1
  Ir  Ir2  1  -0.00000000  0.75313123  0.49345073  1
  Ir  Ir3  1  0.50000000  0.24686877  0.99345073  1
loop_
_geom_bond_atom_site_label_1
_geom_bond_atom_site_label_2
_geom_bond_distance
_geom_bond_site_symmetry_2
Ta0 Te10 2.649393 1_554
Ta0 Te0 2.767190 1_455
Ta0 Te0 2.767190 1_555
Ta0 Te9 2.871373 1_444
Ta0 Te9 2.871373 1_544
Ta0 Te3 2.913286 1_545
Ta1 Te11 2.649393 1_555
Ta1 Te1 2.767190 1_655
Ta1 Te1 2.767190 1_555
Ta1 Te8 2.871373 1_665
Ta1 Te8 2.871373 1_565
Ta1 Te2 2.913286 1_565
Ta2 Te14 2.650186 1_555
Ta2 Te4 2.769538 1_455
Ta2 Te4 2.769538 1_555
Ta2 Te2 2.876485 1_555
Ta2 Te2 2.876485 1_455
Ta2 Te8 2.897436 1_555
Ta3 Te15 2.650186 1_556
Ta3 Te5 2.769538 1_655
Ta3 Te5 2.769538 1_555
Ta3 Te3 2.876485 1_556
Ta3 Te3 2.876485 1_656
Ta3 Te9 2.897436 1_555
Ir0 Te6 2.660154 1_554
Ir0 Te6 2.660154 1_454
Ir0 Te12 2.694676 1_555
Ir0 Te5 2.698815 1_554
Ir0 Te15 2.720965 1_555
Ir0 Te15 2.720965 1_455
Ir0 Ta3 3.125212 1_554
Ir0 Ta3 3.125212 1_454
Ir1 Te7 2.660154 1_655
Ir1 Te7 2.660154 1_555
Ir1 Te13 2.694676 1_555
Ir1 Te4 2.698815 1_555
Ir1 Te14 2.720965 1_555
Ir1 Te14 2.720965 1_655
Ir1 Ta2 3.125212 1_555
Ir1 Ta2 3.125212 1_655
Ir2 Te13 2.658096 1_555
Ir2 Te13 2.658096 1_455
Ir2 Te7 2.701595 1_555
Ir2 Te1 2.703147 1_555
Ir2 Te11 2.719777 1_455
Ir2 Te11 2.719777 1_555
Ir2 Ta1 3.108514 1_455
Ir2 Ta1 3.108514 1_555
Ir3 Te12 2.658096 1_656
Ir3 Te12 2.658096 1_556
Ir3 Te6 2.701595 1_555
Ir3 Te0 2.703147 1_556
Ir3 Te10 2.719777 1_555
Ir3 Te10 2.719777 1_655
Ir3 Ta0 3.108514 1_556
Ir3 Ta0 3.108514 1_656
