# generated using pymatgen
data_TaSbO4
_symmetry_space_group_name_H-M   'P 1'
_cell_length_a   4.97034334
_cell_length_b   5.55312363
_cell_length_c   11.86570837
_cell_angle_alpha   90.00000000
_cell_angle_beta   90.00000000
_cell_angle_gamma   90.00000000
_symmetry_Int_Tables_number   1
_chemical_formula_structural   TaSbO4
_chemical_formula_sum   'Ta4 Sb4 O16'
_cell_volume   327.50459859
_cell_formula_units_Z   4
loop_
 _symmetry_equiv_pos_site_id
 _symmetry_equiv_pos_as_xyz
  1  'x, y, z'
loop_
 _atom_site_type_symbol
 _atom_site_label
 _atom_site_symmetry_multiplicity
 _atom_site_fract_x
 _atom_site_fract_y
 _atom_site_fract_z
 _atom_site_occupancy
  Ta  Ta0  1  0.25000000  0.62323675  0.25000000  1
  Ta  Ta1  1  0.25000000  0.87676325  0.75000000  1
  Ta  Ta2  1  0.75000000  0.37676325  0.75000000  1
  Ta  Ta3  1  0.75000000  0.12323675  0.25000000  1
  Sb  Sb0  1  0.19741526  0.25000000  -0.00000000  1
  Sb  Sb1  1  0.30258474  0.25000000  0.50000000  1
  Sb  Sb2  1  0.69741526  0.75000000  0.50000000  1
  Sb  Sb3  1  0.80258474  0.75000000  -0.00000000  1
  O  O0  1  0.08220976  0.57931244  0.09475088  1
  O  O1  1  0.41779024  0.92068756  0.59475088  1
  O  O2  1  0.58220976  0.42068756  0.59475088  1
  O  O3  1  0.91779024  0.07931244  0.09475088  1
  O  O4  1  0.49227357  0.34936732  0.19821476  1
  O  O5  1  0.00772643  0.15063268  0.69821476  1
  O  O6  1  0.99227357  0.65063268  0.69821476  1
  O  O7  1  0.50772643  0.84936732  0.19821476  1
  O  O8  1  0.00772643  0.34936732  0.30178524  1
  O  O9  1  0.49227357  0.15063268  0.80178524  1
  O  O10  1  0.50772643  0.65063268  0.80178524  1
  O  O11  1  0.99227357  0.84936732  0.30178524  1
  O  O12  1  0.41779024  0.57931244  0.40524912  1
  O  O13  1  0.08220976  0.92068756  0.90524912  1
  O  O14  1  0.91779024  0.42068756  0.90524912  1
  O  O15  1  0.58220976  0.07931244  0.40524912  1
loop_
_geom_bond_atom_site_label_1
_geom_bond_atom_site_label_2
_geom_bond_distance
_geom_bond_site_symmetry_2
O0 Sb3 2.023381 1_455
O0 Ta0 2.036785 1_555
O0 Sb0 2.221732 1_555
O1 Sb2 2.023381 1_555
O1 Ta1 2.036785 1_555
O1 Sb1 2.221732 1_565
O2 Sb1 2.023381 1_555
O2 Ta2 2.036785 1_555
O2 Sb2 2.221732 1_555
O3 Sb0 2.023381 1_655
O3 Ta3 2.036785 1_555
O3 Sb3 2.221732 1_545
O4 Ta3 1.896145 1_555
O4 Ta0 2.034835 1_555
O5 Ta2 1.896145 1_455
O5 Ta1 2.034835 1_545
O6 Ta1 1.896145 1_655
O6 Ta2 2.034835 1_555
O7 Ta0 1.896145 1_555
O7 Ta3 2.034835 1_565
O8 Ta3 1.896145 1_455
O8 Ta0 2.034835 1_555
O9 Ta2 1.896145 1_555
O9 Ta1 2.034835 1_545
O10 Ta1 1.896145 1_555
O10 Ta2 2.034835 1_555
O11 Ta0 1.896145 1_655
O11 Ta3 2.034835 1_565
O12 Sb2 2.023381 1_555
O12 Ta0 2.036785 1_555
O12 Sb1 2.221732 1_555
O13 Sb3 2.023381 1_456
O13 Ta1 2.036785 1_555
O13 Sb0 2.221732 1_566
O14 Sb0 2.023381 1_656
O14 Ta2 2.036785 1_555
O14 Sb3 2.221732 1_556
O15 Sb1 2.023381 1_555
O15 Ta3 2.036785 1_555
O15 Sb2 2.221732 1_545
