# generated using pymatgen
data_Na(GaAu2)2
_symmetry_space_group_name_H-M   'P 1'
_cell_length_a   7.52863200
_cell_length_b   8.47506000
_cell_length_c   9.37814410
_cell_angle_alpha   64.25038140
_cell_angle_beta   90.00000000
_cell_angle_gamma   90.00000000
_symmetry_Int_Tables_number   1
_chemical_formula_structural   Na(GaAu2)2
_chemical_formula_sum   'Na4 Ga8 Au16'
_cell_volume   538.95990855
_cell_formula_units_Z   4
loop_
 _symmetry_equiv_pos_site_id
 _symmetry_equiv_pos_as_xyz
  1  'x, y, z'
loop_
 _atom_site_type_symbol
 _atom_site_label
 _atom_site_symmetry_multiplicity
 _atom_site_fract_x
 _atom_site_fract_y
 _atom_site_fract_z
 _atom_site_occupancy
  Na  Na0  1  0.04489500  0.21122700  0.32452500  1
  Na  Na1  1  0.54489500  0.78877300  0.17547500  1
  Na  Na2  1  0.95510500  0.78877300  0.67547500  1
  Na  Na3  1  0.45510500  0.21122700  0.82452500  1
  Ga  Ga0  1  0.17535300  0.51629300  0.58495000  1
  Ga  Ga1  1  0.67535300  0.48370700  0.91505000  1
  Ga  Ga2  1  0.82464700  0.48370700  0.41505000  1
  Ga  Ga3  1  0.32464700  0.51629300  0.08495000  1
  Ga  Ga4  1  0.86856300  0.99667400  0.88792700  1
  Ga  Ga5  1  0.36856300  0.00332600  0.61207300  1
  Ga  Ga6  1  0.13143700  0.00332600  0.11207300  1
  Ga  Ga7  1  0.63143700  0.99667400  0.38792700  1
  Au  Au0  1  0.10303700  0.17547600  0.65654500  1
  Au  Au1  1  0.60303700  0.82452400  0.84345500  1
  Au  Au2  1  0.89696300  0.82452400  0.34345500  1
  Au  Au3  1  0.39696300  0.17547600  0.15654500  1
  Au  Au4  1  0.21570800  0.85554400  0.92157100  1
  Au  Au5  1  0.71570800  0.14445600  0.57842900  1
  Au  Au6  1  0.78429200  0.14445600  0.07842900  1
  Au  Au7  1  0.28429200  0.85554400  0.42157100  1
  Au  Au8  1  0.39543600  0.36563000  0.45457700  1
  Au  Au9  1  0.89543600  0.63437000  0.04542300  1
  Au  Au10  1  0.60456400  0.63437000  0.54542300  1
  Au  Au11  1  0.10456400  0.36563000  0.95457700  1
  Au  Au12  1  0.84618500  0.37132600  0.73386000  1
  Au  Au13  1  0.34618500  0.62867400  0.76614000  1
  Au  Au14  1  0.15381500  0.62867400  0.26614000  1
  Au  Au15  1  0.65381500  0.37132600  0.23386000  1
loop_
_geom_bond_atom_site_label_1
_geom_bond_atom_site_label_2
_geom_bond_distance
_geom_bond_site_symmetry_2
Ga0 Na2 3.241367 1_455
Ga0 Na3 3.334841 1_555
Ga1 Na3 3.241367 1_555
Ga1 Na2 3.334841 1_555
Ga2 Na0 3.241367 1_655
Ga2 Na1 3.334841 1_555
Ga3 Na1 3.241367 1_555
Ga3 Na0 3.334841 1_555
Ga4 Na2 3.247921 1_555
Ga4 Na1 3.490846 1_556
Ga4 Na3 3.522766 1_565
Ga5 Na3 3.247921 1_555
Ga5 Na0 3.490846 1_555
Ga5 Na2 3.522766 1_445
Ga6 Na0 3.247921 1_555
Ga6 Na3 3.490846 1_554
Ga6 Na1 3.522766 1_545
Ga7 Na1 3.247921 1_555
Ga7 Na2 3.490846 1_555
Ga7 Na0 3.522766 1_665
Au0 Ga5 2.612942 1_555
Au0 Ga4 2.695186 1_445
Au0 Ga0 2.721260 1_555
Au0 Au12 2.840046 1_455
Au0 Au4 2.897141 1_545
Au0 Na0 3.026385 1_555
Au0 Au5 3.045739 1_455
Au0 Na3 3.164468 1_555
Au0 Na2 3.392237 1_445
Au1 Ga4 2.612942 1_555
Au1 Ga5 2.695186 1_565
Au1 Ga1 2.721260 1_555
Au1 Au13 2.840046 1_555
Au1 Au5 2.897141 1_565
Au1 Na1 3.026385 1_556
Au1 Au4 3.045739 1_555
Au1 Na2 3.164468 1_555
Au1 Na3 3.392237 1_565
Au2 Ga7 2.612942 1_555
Au2 Ga6 2.695186 1_665
Au2 Ga2 2.721260 1_555
Au2 Au6 2.897141 1_565
Au2 Na2 3.026385 1_555
Au2 Au7 3.045739 1_655
Au2 Na1 3.164468 1_555
Au2 Na0 3.392237 1_665
Au3 Ga6 2.612942 1_555
Au3 Ga7 2.695186 1_545
Au3 Ga3 2.721260 1_555
Au3 Au7 2.897141 1_545
Au3 Na3 3.026385 1_554
Au3 Au6 3.045739 1_555
Au3 Na0 3.164468 1_555
Au3 Na1 3.392237 1_545
Au4 Ga6 2.665925 1_566
Au4 Ga3 2.731155 1_556
Au4 Ga4 2.834218 1_455
Au4 Ga5 2.856388 1_565
Au4 Au9 2.963936 1_456
Au4 Na2 3.260506 1_455
Au4 Na3 3.283257 1_565
Au4 Na1 3.310804 1_556
Au5 Ga7 2.665925 1_545
Au5 Ga2 2.731155 1_555
Au5 Ga5 2.834218 1_555
Au5 Ga4 2.856388 1_545
Au5 Au8 2.963936 1_555
Au5 Na3 3.260506 1_555
Au5 Na2 3.283257 1_545
Au5 Na0 3.310804 1_655
Au6 Ga4 2.665925 1_544
Au6 Ga1 2.731155 1_554
Au6 Ga6 2.834218 1_655
Au6 Ga7 2.856388 1_545
Au6 Na0 3.260506 1_655
Au6 Na1 3.283257 1_545
Au6 Na3 3.310804 1_554
Au7 Ga5 2.665925 1_565
Au7 Ga0 2.731155 1_555
Au7 Ga7 2.834218 1_555
Au7 Ga6 2.856388 1_565
Au7 Na1 3.260506 1_555
Au7 Na0 3.283257 1_565
Au7 Na2 3.310804 1_455
Au8 Ga0 2.688342 1_555
Au8 Ga5 2.776724 1_555
Au8 Na3 3.163286 1_555
Au8 Ga3 3.175636 1_555
Au8 Na0 3.398743 1_555
Au8 Na1 3.580773 1_555
Au9 Ga1 2.688342 1_554
Au9 Ga4 2.776724 1_554
Au9 Na2 3.163286 1_554
Au9 Ga2 3.175636 1_555
Au9 Na1 3.398743 1_555
Au9 Na0 3.580773 1_655
Au10 Ga2 2.688342 1_555
Au10 Ga7 2.776724 1_555
Au10 Au12 2.824674 1_555
Au10 Au13 2.825601 1_555
Au10 Au7 2.963936 1_555
Au10 Na1 3.163286 1_555
Au10 Ga1 3.175636 1_555
Au10 Na2 3.398743 1_555
Au10 Na3 3.580773 1_555
Au11 Ga3 2.688342 1_556
Au11 Ga6 2.776724 1_556
Au11 Au13 2.824674 1_555
Au11 Au12 2.825601 1_455
Au11 Au6 2.963936 1_456
Au11 Na0 3.163286 1_556
Au11 Ga0 3.175636 1_555
Au11 Na3 3.398743 1_555
Au11 Na2 3.580773 1_455
Au12 Ga1 2.618173 1_555
Au12 Ga2 2.719992 1_555
Au12 Ga0 2.847860 1_655
Au12 Ga4 2.865610 1_545
Au12 Au6 2.992928 1_556
Au12 Au5 3.036743 1_555
Au12 Na3 3.198511 1_555
Au12 Na2 3.435949 1_555
Au13 Ga0 2.618173 1_555
Au13 Ga3 2.719992 1_556
Au13 Ga1 2.847860 1_555
Au13 Ga5 2.865610 1_565
Au13 Au7 2.992928 1_555
Au13 Au4 3.036743 1_555
Au13 Na2 3.198511 1_455
Au13 Na3 3.435949 1_555
Au14 Ga3 2.618173 1_555
Au14 Ga0 2.719992 1_555
Au14 Au8 2.824674 1_555
Au14 Au9 2.825601 1_455
Au14 Au2 2.840046 1_455
Au14 Ga2 2.847860 1_455
Au14 Ga6 2.865610 1_565
Au14 Au4 2.992928 1_554
Au14 Au7 3.036743 1_555
Au14 Na1 3.198511 1_555
Au14 Na0 3.435949 1_555
Au15 Ga2 2.618173 1_555
Au15 Ga1 2.719992 1_554
Au15 Au9 2.824674 1_555
Au15 Au8 2.825601 1_555
Au15 Au3 2.840046 1_555
Au15 Ga3 2.847860 1_555
Au15 Ga7 2.865610 1_545
Au15 Au5 2.992928 1_555
Au15 Au6 3.036743 1_555
Au15 Na0 3.198511 1_655
Au15 Na1 3.435949 1_555
