# generated using pymatgen
data_Li2FeCo3O8
_symmetry_space_group_name_H-M   'P 1'
_cell_length_a   5.74517109
_cell_length_b   5.73946467
_cell_length_c   10.12104407
_cell_angle_alpha   89.86006170
_cell_angle_beta   106.53024508
_cell_angle_gamma   120.08933237
_symmetry_Int_Tables_number   1
_chemical_formula_structural   Li2FeCo3O8
_chemical_formula_sum   'Li4 Fe2 Co6 O16'
_cell_volume   272.84351318
_cell_formula_units_Z   2
loop_
 _symmetry_equiv_pos_site_id
 _symmetry_equiv_pos_as_xyz
  1  'x, y, z'
loop_
 _atom_site_type_symbol
 _atom_site_label
 _atom_site_symmetry_multiplicity
 _atom_site_fract_x
 _atom_site_fract_y
 _atom_site_fract_z
 _atom_site_occupancy
  Li  Li0  1  0.87869900  0.44384900  0.31706700  1
  Li  Li1  1  0.87368600  0.93919500  0.81721400  1
  Li  Li2  1  0.12631500  0.06080600  0.18278600  1
  Li  Li3  1  0.12130200  0.55615200  0.68293300  1
  Fe  Fe0  1  0.49604000  0.74551500  0.25037200  1
  Fe  Fe1  1  0.50394600  0.25447500  0.74962600  1
  Co  Co0  1  0.50000100  0.00000100  0.50000000  1
  Co  Co1  1  0.50000100  0.50000000  0.50000000  1
  Co  Co2  1  0.00000000  0.50000000  0.00000000  1
  Co  Co3  1  0.50000100  0.50000100  0.00000000  1
  Co  Co4  1  0.50000100  0.00000000  0.00000000  1
  Co  Co5  1  0.00000000  0.00000000  0.50000000  1
  O  O0  1  0.26385600  0.13245500  0.39576800  1
  O  O1  1  0.26319600  0.63172500  0.89581300  1
  O  O2  1  0.73680500  0.36827500  0.10418700  1
  O  O3  1  0.73614500  0.86754500  0.60423200  1
  O  O4  1  0.74810800  0.10213600  0.39323600  1
  O  O5  1  0.74042100  0.60094900  0.89053100  1
  O  O6  1  0.74919600  0.65130100  0.38945900  1
  O  O7  1  0.73799700  0.14059800  0.88959900  1
  O  O8  1  0.29023600  0.65141200  0.39048900  1
  O  O9  1  0.29064500  0.14524800  0.89311400  1
  O  O10  1  0.70935500  0.85475300  0.10688600  1
  O  O11  1  0.70976500  0.34858800  0.60951200  1
  O  O12  1  0.26200300  0.85940400  0.11040100  1
  O  O13  1  0.25080400  0.34870000  0.61054100  1
  O  O14  1  0.25958000  0.39905100  0.10947000  1
  O  O15  1  0.25189300  0.89786500  0.60676400  1
loop_
_geom_bond_atom_site_label_1
_geom_bond_atom_site_label_2
_geom_bond_distance
_geom_bond_site_symmetry_2
Li0 O6 1.926342 1_555
Li0 O8 1.934383 1_655
Li0 O4 1.962145 1_555
Li0 O2 2.036026 1_555
Li1 O7 1.926998 1_565
Li1 O5 1.931722 1_555
Li1 O9 1.960561 1_665
Li1 O3 2.036997 1_555
Li2 O12 1.926988 1_545
Li2 O14 1.931712 1_555
Li2 O10 1.960566 1_445
Li2 O0 2.036997 1_555
Li3 O13 1.926337 1_555
Li3 O11 1.934383 1_455
Li3 O15 1.962145 1_555
Li3 O1 2.036026 1_555
Fe0 O6 2.002296 1_555
Fe0 O8 2.002725 1_555
Fe0 O12 2.008710 1_555
Fe0 O14 2.009018 1_555
Fe0 O4 2.056243 1_565
Fe0 O10 2.059574 1_555
Fe1 O13 2.002273 1_555
Fe1 O11 2.002753 1_555
Fe1 O7 2.008726 1_555
Fe1 O5 2.009070 1_555
Fe1 O15 2.056192 1_545
Fe1 O9 2.059540 1_555
Co0 O11 1.875306 1_555
Co0 O8 1.875310 1_545
Co0 O4 1.891719 1_555
Co0 O15 1.891723 1_545
Co0 O0 1.935782 1_555
Co0 O3 1.935786 1_545
Co1 O6 1.927582 1_555
Co1 O13 1.927590 1_555
Co1 O8 1.929081 1_555
Co1 O11 1.929081 1_555
Co1 O0 1.931399 1_555
Co1 O3 1.931399 1_555
Co2 O7 1.926172 1_454
Co2 O12 1.926180 1_555
Co2 O5 1.926217 1_454
Co2 O14 1.926225 1_555
Co2 O2 1.930574 1_455
Co2 O1 1.930578 1_554
Co3 O5 1.880516 1_554
Co3 O14 1.880528 1_555
Co3 O10 1.891397 1_555
Co3 O9 1.891401 1_554
Co3 O1 1.935334 1_554
Co3 O2 1.935338 1_555
Co4 O7 1.878277 1_554
Co4 O12 1.878284 1_545
Co4 O10 1.890099 1_545
Co4 O9 1.890112 1_554
Co4 O2 1.934347 1_555
Co4 O1 1.934347 1_544
Co5 O6 1.880253 1_445
Co5 O13 1.880257 1_555
Co5 O4 1.887650 1_455
Co5 O15 1.887651 1_545
Co5 O3 1.933730 1_445
Co5 O0 1.933734 1_555
