# generated using pymatgen
data_NiTeO3
_symmetry_space_group_name_H-M   'P 1'
_cell_length_a   5.48661500
_cell_length_b   5.61895300
_cell_length_c   8.15485700
_cell_angle_alpha   90.00000000
_cell_angle_beta   90.00000000
_cell_angle_gamma   90.00000000
_symmetry_Int_Tables_number   1
_chemical_formula_structural   NiTeO3
_chemical_formula_sum   'Ni4 Te4 O12'
_cell_volume   251.40634589
_cell_formula_units_Z   4
loop_
 _symmetry_equiv_pos_site_id
 _symmetry_equiv_pos_as_xyz
  1  'x, y, z'
loop_
 _atom_site_type_symbol
 _atom_site_label
 _atom_site_symmetry_multiplicity
 _atom_site_fract_x
 _atom_site_fract_y
 _atom_site_fract_z
 _atom_site_occupancy
  Ni  Ni0  1  0.99418700  0.47031700  0.25000000  1
  Ni  Ni1  1  0.00581300  0.52968300  0.75000000  1
  Ni  Ni2  1  0.49418700  0.02968300  0.75000000  1
  Ni  Ni3  1  0.50581300  0.97031700  0.25000000  1
  Te  Te0  1  0.00000000  0.00000000  0.00000000  1
  Te  Te1  1  0.50000000  0.50000000  0.00000000  1
  Te  Te2  1  0.00000000  0.00000000  0.50000000  1
  Te  Te3  1  0.50000000  0.50000000  0.50000000  1
  O  O0  1  0.33682900  0.16939600  0.07933100  1
  O  O1  1  0.66317100  0.83060400  0.92066900  1
  O  O2  1  0.83682900  0.33060400  0.92066900  1
  O  O3  1  0.66317100  0.83060400  0.57933100  1
  O  O4  1  0.16317100  0.66939600  0.07933100  1
  O  O5  1  0.33682900  0.16939600  0.42066900  1
  O  O6  1  0.16317100  0.66939600  0.42066900  1
  O  O7  1  0.83682900  0.33060400  0.57933100  1
  O  O8  1  0.64889700  0.60962500  0.25000000  1
  O  O9  1  0.35110300  0.39037500  0.75000000  1
  O  O10  1  0.14889700  0.89037500  0.75000000  1
  O  O11  1  0.85110300  0.10962500  0.25000000  1
loop_
_geom_bond_atom_site_label_1
_geom_bond_atom_site_label_2
_geom_bond_distance
_geom_bond_site_symmetry_2
Ni0 O4 2.011955 1_655
Ni0 O6 2.011955 1_655
Ni0 O8 2.049817 1_555
Ni0 O11 2.173444 1_555
Ni1 O2 2.011955 1_455
Ni1 O7 2.011955 1_455
Ni1 O9 2.049817 1_555
Ni1 O10 2.173444 1_555
Ni2 O3 2.011955 1_545
Ni2 O1 2.011955 1_545
Ni2 O10 2.049817 1_545
Ni2 O9 2.173444 1_555
Ni3 O0 2.011955 1_565
Ni3 O5 2.011955 1_565
Ni3 O11 2.049817 1_565
Ni3 O8 2.173444 1_555
O0 Te1 2.161218 1_555
O0 Te0 2.177106 1_555
O1 Te1 2.161218 1_556
O1 Te0 2.177106 1_666
O2 Te0 2.161218 1_656
O2 Te1 2.177106 1_556
O3 Te3 2.161218 1_555
O3 Te2 2.177106 1_665
O4 Te0 2.161218 1_565
O4 Te1 2.177106 1_555
O5 Te3 2.161218 1_555
O5 Te2 2.177106 1_555
O6 Te2 2.161218 1_565
O6 Te3 2.177106 1_555
O7 Te2 2.161218 1_655
O7 Te3 2.177106 1_555
O8 Te1 2.281047 1_555
O8 Te3 2.281047 1_555
O9 Te1 2.281047 1_556
O9 Te3 2.281047 1_555
O10 Te2 2.281047 1_565
O10 Te0 2.281047 1_566
O11 Te0 2.281047 1_655
O11 Te2 2.281047 1_655
