# generated using pymatgen
data_MgMn2(B4O7)2
_symmetry_space_group_name_H-M   'P 1'
_cell_length_a   5.15038384
_cell_length_b   9.08271629
_cell_length_c   6.39177213
_cell_angle_alpha   107.14354721
_cell_angle_beta   90.00000000
_cell_angle_gamma   90.00000000
_symmetry_Int_Tables_number   1
_chemical_formula_structural   MgMn2(B4O7)2
_chemical_formula_sum   'Mg1 Mn2 B8 O14'
_cell_volume   285.71878666
_cell_formula_units_Z   1
loop_
 _symmetry_equiv_pos_site_id
 _symmetry_equiv_pos_as_xyz
  1  'x, y, z'
loop_
 _atom_site_type_symbol
 _atom_site_label
 _atom_site_symmetry_multiplicity
 _atom_site_fract_x
 _atom_site_fract_y
 _atom_site_fract_z
 _atom_site_occupancy
  Mg  Mg0  1  0.25000000  0.94866874  0.13133314  1
  Mn  Mn0  1  0.75000000  0.68607091  0.75916930  1
  Mn  Mn1  1  0.25000000  0.28223247  0.21730040  1
  B  B0  1  0.75000000  0.38989181  0.13328990  1
  B  B1  1  0.25000000  0.74051559  0.60456706  1
  B  B2  1  0.98494767  0.64298910  0.25852506  1
  B  B3  1  0.01065191  0.35831537  0.76861875  1
  B  B4  1  0.48934809  0.35831537  0.76861875  1
  B  B5  1  0.75000000  0.27121241  0.42562542  1
  B  B6  1  0.25000000  0.61355992  0.89547330  1
  B  B7  1  0.51505233  0.64298910  0.25852506  1
  O  O0  1  0.25000000  0.76590452  0.83364378  1
  O  O1  1  0.75000000  0.24774168  0.20033013  1
  O  O2  1  0.75000000  0.33207482  0.88030480  1
  O  O3  1  0.25000000  0.30534832  0.84807674  1
  O  O4  1  0.51785247  0.28694365  0.53188149  1
  O  O5  1  0.47819112  0.53027681  0.81050941  1
  O  O6  1  0.98214753  0.28694365  0.53188149  1
  O  O7  1  0.75000000  0.70303761  0.18373609  1
  O  O8  1  0.51911863  0.47886083  0.22054934  1
  O  O9  1  0.48320013  0.72362516  0.50177427  1
  O  O10  1  0.98088137  0.47886083  0.22054934  1
  O  O11  1  0.25000000  0.68213635  0.15135027  1
  O  O12  1  0.02180888  0.53027681  0.81050941  1
  O  O13  1  0.01679987  0.72362516  0.50177427  1
loop_
_geom_bond_atom_site_label_1
_geom_bond_atom_site_label_2
_geom_bond_distance
_geom_bond_site_symmetry_2
Mg0 O0 2.124619 1_554
Mg0 O11 2.461590 1_555
Mg0 Mn1 2.915369 1_565
Mn0 O5 2.084114 1_555
Mn0 O12 2.084114 1_655
Mn0 O13 2.245463 1_655
Mn0 O9 2.245463 1_555
Mn0 O7 2.672370 1_556
Mn0 O0 2.679646 1_555
Mn0 O0 2.679646 1_655
Mn1 O10 2.255937 1_455
Mn1 O8 2.255937 1_555
Mn1 O4 2.428432 1_555
Mn1 O6 2.428432 1_455
Mn1 O3 2.430177 1_554
Mn1 O1 2.592583 1_455
Mn1 O1 2.592583 1_555
B0 O10 1.453407 1_555
B0 O8 1.453407 1_555
B0 O1 1.475377 1_555
B0 O2 1.545938 1_554
B1 O9 1.355864 1_555
B1 O13 1.355864 1_555
B1 O0 1.413514 1_555
B2 O10 1.438163 1_555
B2 O7 1.464226 1_555
B2 O13 1.519665 1_655
B2 O11 1.613336 1_655
B3 O3 1.467330 1_555
B3 O6 1.467373 1_455
B3 O12 1.505959 1_555
B3 O2 1.571277 1_455
B4 O3 1.467330 1_555
B4 O4 1.467373 1_555
B4 O5 1.505959 1_555
B4 O2 1.571277 1_555
B5 O4 1.361634 1_555
B5 O6 1.361634 1_555
B5 O1 1.392182 1_555
B6 O5 1.416406 1_555
B6 O12 1.416406 1_555
B6 O0 1.546996 1_555
B6 O11 1.569167 1_556
B7 O8 1.438163 1_555
B7 O7 1.464226 1_555
B7 O9 1.519665 1_555
B7 O11 1.613336 1_555
