# generated using pymatgen
data_Li2Ti3CoO8
_symmetry_space_group_name_H-M   'P 1'
_cell_length_a   5.94517806
_cell_length_b   10.29761003
_cell_length_c   9.76952814
_cell_angle_alpha   89.99115990
_cell_angle_beta   90.01620193
_cell_angle_gamma   90.00520680
_symmetry_Int_Tables_number   1
_chemical_formula_structural   Li2Ti3CoO8
_chemical_formula_sum   'Li8 Ti12 Co4 O32'
_cell_volume   598.10147280
_cell_formula_units_Z   4
loop_
 _symmetry_equiv_pos_site_id
 _symmetry_equiv_pos_as_xyz
  1  'x, y, z'
loop_
 _atom_site_type_symbol
 _atom_site_label
 _atom_site_symmetry_multiplicity
 _atom_site_fract_x
 _atom_site_fract_y
 _atom_site_fract_z
 _atom_site_occupancy
  Li  Li0  1  0.00010700  0.33339800  0.89032200  1
  Li  Li1  1  0.49993900  0.83312300  0.88959300  1
  Li  Li2  1  0.50011900  0.16675400  0.39000200  1
  Li  Li3  1  0.99989700  0.66650100  0.39032100  1
  Li  Li4  1  0.00017600  0.00021900  0.99891300  1
  Li  Li5  1  0.50014700  0.50010100  0.99873900  1
  Li  Li6  1  0.99971700  0.99995000  0.49876800  1
  Li  Li7  1  0.49965000  0.49990600  0.49881400  1
  Ti  Ti0  1  0.75298400  0.41532000  0.21580900  1
  Ti  Ti1  1  0.25335900  0.91629400  0.21523000  1
  Ti  Ti2  1  0.00042500  0.16910100  0.21573900  1
  Ti  Ti3  1  0.50012300  0.66879500  0.21537100  1
  Ti  Ti4  1  0.24714000  0.41537200  0.21519300  1
  Ti  Ti5  1  0.74693800  0.91589700  0.21471400  1
  Ti  Ti6  1  0.25316400  0.08426800  0.71476900  1
  Ti  Ti7  1  0.75328000  0.58481800  0.71553400  1
  Ti  Ti8  1  0.49999600  0.33129800  0.71519700  1
  Ti  Ti9  1  0.99977200  0.83153400  0.71554800  1
  Ti  Ti10  1  0.74675100  0.08401400  0.71530400  1
  Ti  Ti11  1  0.24676300  0.58477700  0.71602600  1
  Co  Co0  1  0.49853700  0.83115000  0.49063100  1
  Co  Co1  1  0.50179400  0.16489100  0.99056500  1
  Co  Co2  1  0.00006000  0.33368000  0.49700400  1
  Co  Co3  1  0.99994400  0.66656300  0.99702600  1
  O  O0  1  0.99978100  0.33331700  0.10476600  1
  O  O1  1  0.49986100  0.83355700  0.10444800  1
  O  O2  1  0.49995600  0.16666000  0.60456300  1
  O  O3  1  0.00012700  0.66682000  0.60467300  1
  O  O4  1  0.99982300  0.99966100  0.31497800  1
  O  O5  1  0.49983000  0.50042900  0.31501600  1
  O  O6  1  0.50018400  0.49989100  0.81489900  1
  O  O7  1  0.00003300  0.00043900  0.81525900  1
  O  O8  1  0.73696800  0.42078400  0.60646500  1
  O  O9  1  0.23753500  0.92127500  0.60751600  1
  O  O10  1  0.00006300  0.15822100  0.60660700  1
  O  O11  1  0.50022100  0.65817100  0.60696200  1
  O  O12  1  0.23741800  0.07909800  0.10733200  1
  O  O13  1  0.73684000  0.57940200  0.10654400  1
  O  O14  1  0.26283400  0.42078200  0.60663300  1
  O  O15  1  0.76252600  0.92124100  0.60742400  1
  O  O16  1  0.49956700  0.34197300  0.10720100  1
  O  O17  1  0.99975900  0.84193300  0.10627800  1
  O  O18  1  0.76232800  0.07902400  0.10707200  1
  O  O19  1  0.26301900  0.57934300  0.10645600  1
  O  O20  1  0.77608100  0.25870100  0.32817600  1
  O  O21  1  0.27629000  0.75884500  0.32834300  1
  O  O22  1  0.99989300  0.48272900  0.32790300  1
  O  O23  1  0.49974500  0.98217700  0.32875400  1
  O  O24  1  0.22359200  0.25862200  0.32821800  1
  O  O25  1  0.72370900  0.75901200  0.32833800  1
  O  O26  1  0.27660600  0.24118200  0.82856600  1
  O  O27  1  0.77614800  0.74133600  0.82798400  1
  O  O28  1  0.50023500  0.01783900  0.82873200  1
  O  O29  1  0.00010700  0.51741200  0.82799200  1
  O  O30  1  0.72368200  0.24142500  0.82841000  1
  O  O31  1  0.22415500  0.74127000  0.82802500  1
loop_
_geom_bond_atom_site_label_1
_geom_bond_atom_site_label_2
_geom_bond_distance
_geom_bond_site_symmetry_2
Li0 O29 1.990253 1_555
Li0 O30 1.990711 1_455
Li0 O26 1.992227 1_555
Li0 O0 2.095018 1_456
Li1 O31 1.985958 1_555
Li1 O27 1.988265 1_555
Li1 O28 1.992811 1_565
Li1 O1 2.099038 1_556
Li2 O20 1.988250 1_555
Li2 O24 1.990371 1_555
Li2 O23 1.992752 1_545
Li2 O2 2.096160 1_555
Li3 O22 1.988323 1_555
Li3 O25 1.992455 1_555
Li3 O21 1.992763 1_655
Li3 O3 2.094121 1_655
Li4 O7 1.794214 1_555
Li4 O17 1.938163 1_446
Li4 O12 1.941714 1_556
Li4 O18 1.943174 1_456
Li5 O6 1.796032 1_555
Li5 O13 1.937904 1_556
Li5 O19 1.939600 1_556
Li5 O16 1.942620 1_556
Li6 O4 1.795545 1_555
Li6 O10 1.940815 1_665
Li6 O15 1.942326 1_555
Li6 O9 1.945050 1_655
Li7 O5 1.795628 1_555
Li7 O14 1.938038 1_555
Li7 O8 1.938983 1_555
Li7 O11 1.942405 1_555
Co0 O11 2.112824 1_555
Co0 O9 2.138844 1_555
Co0 O15 2.150543 1_555
Co0 O21 2.193844 1_555
Co0 O25 2.204438 1_555
Co0 O23 2.217886 1_555
Co1 O18 2.115536 1_556
Co1 O12 2.133711 1_556
Co1 O16 2.150458 1_556
Co1 O28 2.189414 1_555
Co1 O30 2.207159 1_555
Co1 O26 2.216514 1_555
Co2 O14 2.095538 1_555
Co2 O8 2.096692 1_455
Co2 O10 2.100121 1_555
Co2 O22 2.254818 1_455
Co2 O24 2.254853 1_555
Co2 O20 2.255809 1_455
Co3 O19 2.096381 1_656
Co3 O13 2.097018 1_556
Co3 O17 2.097870 1_556
Co3 O29 2.255401 1_655
Co3 O27 2.255880 1_555
Co3 O31 2.257280 1_655
O0 Ti2 2.008588 1_655
O0 Ti4 2.009883 1_655
O0 Ti0 2.011015 1_555
O1 Ti5 2.009050 1_555
O1 Ti1 2.011550 1_555
O1 Ti3 2.013058 1_555
O2 Ti6 2.008028 1_555
O2 Ti8 2.010744 1_555
O2 Ti10 2.011620 1_555
O3 Ti7 2.010016 1_455
O3 Ti11 2.011537 1_555
O3 Ti9 2.012672 1_455
O4 Ti1 1.989962 1_655
O4 Ti5 1.990741 1_555
O4 Ti2 1.995966 1_665
O5 Ti3 1.988242 1_555
O5 Ti0 1.993479 1_555
O5 Ti4 1.993564 1_555
O6 Ti8 1.990814 1_555
O6 Ti11 1.991541 1_555
O6 Ti7 1.992896 1_555
O7 Ti10 1.990188 1_455
O7 Ti6 1.993510 1_555
O7 Ti9 1.993660 1_445
O8 Ti8 1.990649 1_555
O8 Ti7 1.999632 1_555
O9 Ti6 1.980948 1_565
O9 Ti9 1.991562 1_455
O10 Ti6 1.989928 1_555
O10 Ti10 1.995003 1_455
O11 Ti7 1.989514 1_555
O11 Ti11 1.994383 1_555
O12 Ti1 1.982470 1_545
O12 Ti2 1.991787 1_555
O13 Ti3 1.989899 1_555
O13 Ti0 2.000760 1_555
O14 Ti8 1.990258 1_555
O14 Ti11 2.000957 1_555
O15 Ti10 1.982363 1_565
O15 Ti9 1.989391 1_555
O16 Ti4 1.984413 1_555
O16 Ti0 1.991308 1_555
O17 Ti5 1.990714 1_555
O17 Ti1 1.997902 1_655
O18 Ti5 1.983817 1_545
O18 Ti2 1.997595 1_655
O19 Ti3 1.991724 1_555
O19 Ti4 1.996986 1_555
O20 Ti0 1.955632 1_555
O20 Ti2 1.959136 1_655
O21 Ti3 1.962194 1_555
O21 Ti1 1.966702 1_555
O22 Ti0 1.958322 1_555
O22 Ti4 1.963568 1_655
O23 Ti1 1.958347 1_555
O23 Ti5 1.966770 1_555
O24 Ti2 1.953688 1_555
O24 Ti4 1.960570 1_555
O25 Ti3 1.961448 1_555
O25 Ti5 1.964880 1_555
O26 Ti8 1.962641 1_555
O26 Ti6 1.966407 1_555
O27 Ti7 1.955394 1_555
O27 Ti9 1.958855 1_555
O28 Ti10 1.959788 1_555
O28 Ti6 1.965745 1_555
O29 Ti11 1.956679 1_555
O29 Ti7 1.959911 1_455
O30 Ti8 1.961482 1_555
O30 Ti10 1.966723 1_555
O31 Ti11 1.952665 1_555
O31 Ti9 1.962160 1_455
