# generated using pymatgen
data_Tb(NO3)3
_symmetry_space_group_name_H-M   'P 1'
_cell_length_a   6.15195253
_cell_length_b   9.67171512
_cell_length_c   10.99673036
_cell_angle_alpha   87.43817783
_cell_angle_beta   90.00002647
_cell_angle_gamma   89.99999487
_symmetry_Int_Tables_number   1
_chemical_formula_structural   Tb(NO3)3
_chemical_formula_sum   'Tb4 N12 O36'
_cell_volume   653.65078341
_cell_formula_units_Z   4
loop_
 _symmetry_equiv_pos_site_id
 _symmetry_equiv_pos_as_xyz
  1  'x, y, z'
loop_
 _atom_site_type_symbol
 _atom_site_label
 _atom_site_symmetry_multiplicity
 _atom_site_fract_x
 _atom_site_fract_y
 _atom_site_fract_z
 _atom_site_occupancy
  Tb  Tb0  1  0.68173076  0.28851601  0.73705611  1
  Tb  Tb1  1  0.18173007  0.21148419  0.26294358  1
  Tb  Tb2  1  0.31827113  0.71148320  0.26295041  1
  Tb  Tb3  1  0.81827048  0.78851628  0.73704973  1
  N  N0  1  0.39033003  0.17414395  0.49182984  1
  N  N1  1  0.89033071  0.32585633  0.50816994  1
  N  N2  1  0.60966922  0.82585700  0.50816740  1
  N  N3  1  0.10966949  0.67414271  0.49183303  1
  N  N4  1  0.73327692  0.19527781  0.21194172  1
  N  N5  1  0.23327739  0.30472179  0.78805860  1
  N  N6  1  0.26672417  0.80472774  0.78805793  1
  N  N7  1  0.76672445  0.69527442  0.21194121  1
  N  N8  1  0.71554063  0.53193349  0.88209861  1
  N  N9  1  0.21553910  0.96806663  0.11790162  1
  N  N10  1  0.28446073  0.46806849  0.11789931  1
  N  N11  1  0.78446177  0.03193081  0.88210021  1
  O  O0  1  0.43034996  0.27977867  0.42303779  1
  O  O1  1  0.93035290  0.22022233  0.57696284  1
  O  O2  1  0.56964408  0.72022096  0.57696215  1
  O  O3  1  0.06964424  0.77977895  0.42303813  1
  O  O4  1  0.26734706  0.08287024  0.45095751  1
  O  O5  1  0.76734652  0.41712956  0.54904232  1
  O  O6  1  0.73265347  0.91713116  0.54904014  1
  O  O7  1  0.23265335  0.58286837  0.45096012  1
  O  O8  1  0.46783288  0.16024804  0.59621641  1
  O  O9  1  0.96783187  0.33975173  0.40378328  1
  O  O10  1  0.53216942  0.83975064  0.40377919  1
  O  O11  1  0.03216923  0.66024902  0.59622123  1
  O  O12  1  0.82594877  0.10210652  0.27761134  1
  O  O13  1  0.32594953  0.39789335  0.72238893  1
  O  O14  1  0.17405650  0.89789452  0.72238916  1
  O  O15  1  0.67405891  0.60210613  0.27761014  1
  O  O16  1  0.53516227  0.18856729  0.18860379  1
  O  O17  1  0.03516243  0.31143226  0.81139671  1
  O  O18  1  0.46483194  0.81143753  0.81139728  1
  O  O19  1  0.96483243  0.68856695  0.18860119  1
  O  O20  1  0.84653532  0.29417467  0.16911769  1
  O  O21  1  0.34653617  0.20582453  0.83088253  1
  O  O22  1  0.15346781  0.70583406  0.83088135  1
  O  O23  1  0.65346529  0.79416701  0.16911870  1
  O  O24  1  0.73332315  0.54353740  0.76410618  1
  O  O25  1  0.23332332  0.95646240  0.23589358  1
  O  O26  1  0.26667732  0.45645724  0.23590070  1
  O  O27  1  0.76667776  0.04354280  0.76410105  1
  O  O28  1  0.65881690  0.41645434  0.92624348  1
  O  O29  1  0.15881370  0.08354390  0.07375651  1
  O  O30  1  0.34118911  0.58354950  0.07376006  1
  O  O31  1  0.84118759  0.91645059  0.92623924  1
  O  O32  1  0.75672023  0.63399524  0.94106108  1
  O  O33  1  0.25671922  0.86600446  0.05893869  1
  O  O34  1  0.24326814  0.36600621  0.05893005  1
  O  O35  1  0.74327216  0.13399256  0.94107019  1
loop_
_geom_bond_atom_site_label_1
_geom_bond_atom_site_label_2
_geom_bond_distance
_geom_bond_site_symmetry_2
N0 O8 1.244710 1_555
N0 O4 1.260633 1_555
N0 O0 1.267913 1_555
N1 O9 1.244707 1_555
N1 O5 1.260635 1_555
N1 O1 1.267916 1_555
N2 O10 1.244718 1_555
N2 O6 1.260643 1_555
N2 O2 1.267946 1_555
N3 O11 1.244719 1_555
N3 O7 1.260643 1_555
N3 O3 1.267949 1_555
N4 O16 1.247806 1_555
N4 O20 1.257726 1_555
N4 O12 1.265063 1_555
N5 O17 1.247808 1_555
N5 O21 1.257729 1_555
N5 O13 1.265067 1_555
N6 O18 1.247767 1_555
N6 O22 1.257694 1_555
N6 O14 1.265017 1_555
N7 O19 1.247769 1_555
N7 O23 1.257692 1_555
N7 O15 1.265022 1_555
N8 O32 1.231341 1_555
N8 O28 1.247554 1_555
N8 O24 1.301972 1_555
N9 O33 1.231348 1_555
N9 O29 1.247542 1_565
N9 O25 1.301968 1_555
N10 O34 1.231403 1_555
N10 O30 1.247556 1_555
N10 O26 1.302074 1_555
N11 O35 1.231400 1_555
N11 O31 1.247544 1_545
N11 O27 1.302050 1_555
O0 Tb1 2.445202 1_555
O1 Tb0 2.445202 1_555
O2 Tb3 2.445176 1_555
O3 Tb2 2.445181 1_555
O4 Tb1 2.422718 1_555
O5 Tb0 2.422713 1_555
O6 Tb3 2.422682 1_555
O7 Tb2 2.422685 1_555
O8 Tb0 2.416826 1_555
O9 Tb1 2.416826 1_655
O10 Tb2 2.416745 1_555
O11 Tb3 2.416744 1_455
O12 Tb1 2.433203 1_655
O13 Tb0 2.433201 1_555
O14 Tb3 2.433228 1_455
O15 Tb2 2.433232 1_555
O16 Tb1 2.336920 1_555
O17 Tb0 2.336919 1_455
O18 Tb3 2.336991 1_555
O19 Tb2 2.336993 1_655
O20 Tb1 2.425423 1_655
O21 Tb0 2.425429 1_555
O22 Tb3 2.425438 1_455
O23 Tb2 2.425427 1_555
O24 Tb3 2.431564 1_555
O24 Tb0 2.517619 1_555
O25 Tb2 2.431568 1_555
O25 Tb1 2.517623 1_565
O26 Tb1 2.431497 1_555
O26 Tb2 2.517663 1_555
O27 Tb0 2.431500 1_555
O27 Tb3 2.517670 1_545
O28 Tb0 2.471712 1_555
O29 Tb1 2.471720 1_555
O30 Tb2 2.471717 1_555
O31 Tb3 2.471712 1_555
O32 Tb3 2.666503 1_555
O33 Tb2 2.666509 1_555
O34 Tb1 2.666517 1_555
O35 Tb0 2.666532 1_555
