# generated using pymatgen
data_Ho2SiSO4
_symmetry_space_group_name_H-M   'P 1'
_cell_length_a   6.11400200
_cell_length_b   6.92184300
_cell_length_c   10.69514900
_cell_angle_alpha   90.00000000
_cell_angle_beta   90.00000000
_cell_angle_gamma   90.00000000
_symmetry_Int_Tables_number   1
_chemical_formula_structural   Ho2SiSO4
_chemical_formula_sum   'Ho8 Si4 S4 O16'
_cell_volume   452.62043771
_cell_formula_units_Z   4
loop_
 _symmetry_equiv_pos_site_id
 _symmetry_equiv_pos_as_xyz
  1  'x, y, z'
loop_
 _atom_site_type_symbol
 _atom_site_label
 _atom_site_symmetry_multiplicity
 _atom_site_fract_x
 _atom_site_fract_y
 _atom_site_fract_z
 _atom_site_occupancy
  Ho  Ho0  1  0.38382600  0.75000000  0.50000000  1
  Ho  Ho1  1  0.38382600  0.75000000  0.00000000  1
  Ho  Ho2  1  0.61617400  0.25000000  0.50000000  1
  Ho  Ho3  1  0.61617400  0.25000000  0.00000000  1
  Ho  Ho4  1  0.84385700  0.52797400  0.75000000  1
  Ho  Ho5  1  0.84385700  0.97202600  0.25000000  1
  Ho  Ho6  1  0.15614300  0.02797400  0.75000000  1
  Ho  Ho7  1  0.15614300  0.47202600  0.25000000  1
  Si  Si0  1  0.12201700  0.25000000  0.00000000  1
  Si  Si1  1  0.87798300  0.75000000  0.00000000  1
  Si  Si2  1  0.87798300  0.75000000  0.50000000  1
  Si  Si3  1  0.12201700  0.25000000  0.50000000  1
  S  S0  1  0.52332900  0.81321500  0.75000000  1
  S  S1  1  0.52332900  0.68678500  0.25000000  1
  S  S2  1  0.47667100  0.31321500  0.75000000  1
  S  S3  1  0.47667100  0.18678500  0.25000000  1
  O  O0  1  0.28502800  0.43348600  0.02886500  1
  O  O1  1  0.28502800  0.06651400  0.97113500  1
  O  O2  1  0.71497200  0.93348600  0.47113500  1
  O  O3  1  0.71497200  0.56651400  0.52886500  1
  O  O4  1  0.71497200  0.56651400  0.97113500  1
  O  O5  1  0.71497200  0.93348600  0.02886500  1
  O  O6  1  0.28502800  0.06651400  0.52886500  1
  O  O7  1  0.28502800  0.43348600  0.47113500  1
  O  O8  1  0.03933400  0.73778000  0.12268400  1
  O  O9  1  0.03933400  0.73778000  0.37731600  1
  O  O10  1  0.96066600  0.23778000  0.37731600  1
  O  O11  1  0.96066600  0.26222000  0.62268400  1
  O  O12  1  0.96066600  0.26222000  0.87731600  1
  O  O13  1  0.96066600  0.23778000  0.12268400  1
  O  O14  1  0.03933400  0.76222000  0.62268400  1
  O  O15  1  0.03933400  0.76222000  0.87731600  1
loop_
_geom_bond_atom_site_label_1
_geom_bond_atom_site_label_2
_geom_bond_distance
_geom_bond_site_symmetry_2
Ho0 O6 2.293480 1_565
Ho0 O7 2.293480 1_555
Ho0 O2 2.409871 1_555
Ho0 O3 2.409871 1_555
Ho0 O14 2.482943 1_555
Ho0 O9 2.482943 1_555
Ho0 S0 2.840436 1_555
Ho0 S1 2.840436 1_555
Ho1 O1 2.293480 1_564
Ho1 O0 2.293480 1_555
Ho1 O5 2.409871 1_555
Ho1 O4 2.409871 1_554
Ho1 O8 2.482943 1_555
Ho1 O15 2.482943 1_554
Ho1 S0 2.840436 1_554
Ho1 S1 2.840436 1_555
Ho2 O3 2.293480 1_555
Ho2 O2 2.293480 1_545
Ho2 O6 2.409871 1_555
Ho2 O7 2.409871 1_555
Ho2 O11 2.482943 1_555
Ho2 O10 2.482943 1_555
Ho2 S2 2.840436 1_555
Ho2 S3 2.840436 1_555
Ho3 O4 2.293480 1_554
Ho3 O5 2.293480 1_545
Ho3 O1 2.409871 1_554
Ho3 O0 2.409871 1_555
Ho3 O12 2.482943 1_554
Ho3 O13 2.482943 1_555
Ho3 S2 2.840436 1_554
Ho3 S3 2.840436 1_555
Ho4 O11 2.397489 1_555
Ho4 O12 2.397489 1_555
Ho4 O14 2.431355 1_655
Ho4 O15 2.431355 1_655
Ho4 O3 2.507126 1_555
Ho4 O4 2.507126 1_555
Ho4 S2 2.692523 1_555
Ho4 S0 2.781850 1_555
Ho5 O13 2.397489 1_565
Ho5 O10 2.397489 1_565
Ho5 O9 2.431355 1_655
Ho5 O8 2.431355 1_655
Ho5 O2 2.507126 1_555
Ho5 O5 2.507126 1_555
Ho5 S3 2.692523 1_565
Ho5 S1 2.781850 1_555
Ho6 O14 2.397489 1_545
Ho6 O15 2.397489 1_545
Ho6 O11 2.431355 1_455
Ho6 O12 2.431355 1_455
Ho6 O1 2.507126 1_555
Ho6 O6 2.507126 1_555
Ho6 S0 2.692523 1_545
Ho6 S2 2.781850 1_555
Ho7 O8 2.397489 1_555
Ho7 O9 2.397489 1_555
Ho7 O13 2.431355 1_455
Ho7 O10 2.431355 1_455
Ho7 O7 2.507126 1_555
Ho7 O0 2.507126 1_555
Ho7 S1 2.692523 1_555
Ho7 S3 2.781850 1_555
O0 Si0 1.643676 1_555
O1 Si0 1.643676 1_556
O2 Si2 1.643676 1_555
O3 Si2 1.643676 1_555
O4 Si1 1.643676 1_556
O5 Si1 1.643676 1_555
O6 Si3 1.643676 1_555
O7 Si3 1.643676 1_555
O8 Si1 1.643778 1_455
O9 Si2 1.643778 1_455
O10 Si3 1.643778 1_655
O11 Si3 1.643778 1_655
O12 Si0 1.643778 1_656
O13 Si0 1.643778 1_655
O14 Si2 1.643778 1_455
O15 Si1 1.643778 1_456
