# generated using pymatgen
data_MnV4Fe(Pb2O9)2
_symmetry_space_group_name_H-M   'P 1'
_cell_length_a   6.07593449
_cell_length_b   7.98810860
_cell_length_c   8.97704884
_cell_angle_alpha   112.70465889
_cell_angle_beta   89.79557036
_cell_angle_gamma   89.07748174
_symmetry_Int_Tables_number   1
_chemical_formula_structural   MnV4Fe(Pb2O9)2
_chemical_formula_sum   'Mn1 V4 Fe1 Pb4 O18'
_cell_volume   401.86431443
_cell_formula_units_Z   1
loop_
 _symmetry_equiv_pos_site_id
 _symmetry_equiv_pos_as_xyz
  1  'x, y, z'
loop_
 _atom_site_type_symbol
 _atom_site_label
 _atom_site_symmetry_multiplicity
 _atom_site_fract_x
 _atom_site_fract_y
 _atom_site_fract_z
 _atom_site_occupancy
  Mn  Mn0  1  0.50000000  0.00000000  0.00000000  1
  V  V0  1  0.24971900  0.03540200  0.33477800  1
  V  V1  1  0.75028100  0.96459800  0.66522200  1
  V  V2  1  0.25622200  0.43276200  0.17481300  1
  V  V3  1  0.74377800  0.56723800  0.82518700  1
  Fe  Fe0  1  0.00000000  0.00000000  0.00000000  1
  Pb  Pb0  1  0.24618300  0.68298900  0.61201300  1
  Pb  Pb1  1  0.75381700  0.31701100  0.38798700  1
  Pb  Pb2  1  0.24857600  0.28335400  0.74535400  1
  Pb  Pb3  1  0.75142400  0.71664600  0.25464600  1
  O  O0  1  0.25055800  0.52512300  0.03619800  1
  O  O1  1  0.74944200  0.47487700  0.96380200  1
  O  O2  1  0.24796500  0.26358000  0.45363600  1
  O  O3  1  0.75203500  0.73642000  0.54636400  1
  O  O4  1  0.50981200  0.02092600  0.79255800  1
  O  O5  1  0.00709400  0.98554400  0.21324900  1
  O  O6  1  0.49018800  0.97907400  0.20744200  1
  O  O7  1  0.99290600  0.01445600  0.78675100  1
  O  O8  1  0.25360500  0.91946200  0.45726400  1
  O  O9  1  0.74639500  0.08053800  0.54273600  1
  O  O10  1  0.25035700  0.84453100  0.92492600  1
  O  O11  1  0.74964300  0.15546900  0.07507400  1
  O  O12  1  0.26346500  0.18548300  0.06825300  1
  O  O13  1  0.73653500  0.81451700  0.93174700  1
  O  O14  1  0.48608500  0.50910100  0.29771500  1
  O  O15  1  0.98155800  0.49824000  0.70437000  1
  O  O16  1  0.51391500  0.49089900  0.70228500  1
  O  O17  1  0.01844200  0.50176000  0.29563000  1
loop_
_geom_bond_atom_site_label_1
_geom_bond_atom_site_label_2
_geom_bond_distance
_geom_bond_site_symmetry_2
Mn0 O10 1.928494 1_544
Mn0 O11 1.928494 1_555
Mn0 O6 1.933696 1_545
Mn0 O4 1.933696 1_554
Mn0 O13 1.964822 1_544
Mn0 O12 1.964822 1_555
Fe0 O10 1.896357 1_544
Fe0 O11 1.896357 1_455
Fe0 O5 1.962395 1_545
Fe0 O7 1.962395 1_454
Fe0 O13 2.125050 1_444
Fe0 O12 2.125050 1_555
O0 V2 1.673959 1_555
O0 Pb2 2.579788 1_554
O1 V3 1.673959 1_555
O1 Pb3 2.579788 1_556
O2 V0 1.720125 1_555
O2 Pb2 2.561966 1_555
O3 V1 1.720125 1_555
O3 Pb3 2.561966 1_555
O4 V1 1.792690 1_545
O4 Pb2 2.770709 1_555
O5 V0 1.793597 1_565
O5 Pb3 2.807961 1_455
O6 V0 1.792690 1_565
O6 Pb3 2.770709 1_555
O7 V1 1.793597 1_545
O7 Pb2 2.807961 1_655
O8 V0 1.689066 1_565
O8 Pb0 2.743743 1_555
O9 V1 1.689066 1_545
O9 Pb1 2.743743 1_555
O10 Pb0 2.599967 1_555
O11 Pb1 2.599967 1_555
O12 V2 1.832218 1_555
O13 V3 1.832218 1_555
O14 V2 1.748930 1_555
O14 Pb3 2.464481 1_555
O14 Pb1 2.558588 1_555
O15 V3 1.751876 1_555
O15 Pb2 2.473072 1_655
O15 Pb0 2.542042 1_655
O16 V3 1.748930 1_555
O16 Pb2 2.464481 1_555
O16 Pb0 2.558588 1_555
O17 V2 1.751876 1_555
O17 Pb3 2.473072 1_455
O17 Pb1 2.542042 1_455
