# generated using pymatgen
data_Al2O3
_symmetry_space_group_name_H-M   'P 1'
_cell_length_a   10.01873102
_cell_length_b   10.12149497
_cell_length_c   10.43627661
_cell_angle_alpha   93.32406139
_cell_angle_beta   91.30725306
_cell_angle_gamma   95.00265522
_symmetry_Int_Tables_number   1
_chemical_formula_structural   Al2O3
_chemical_formula_sum   'Al40 O60'
_cell_volume   1052.06732823
_cell_formula_units_Z   20
loop_
 _symmetry_equiv_pos_site_id
 _symmetry_equiv_pos_as_xyz
  1  'x, y, z'
loop_
 _atom_site_type_symbol
 _atom_site_label
 _atom_site_symmetry_multiplicity
 _atom_site_fract_x
 _atom_site_fract_y
 _atom_site_fract_z
 _atom_site_occupancy
  Al  Al0  1  0.75379100  0.58784700  0.51627400  1
  Al  Al1  1  0.69330400  0.81451200  0.38413400  1
  Al  Al2  1  0.48768900  0.83727800  0.76962200  1
  Al  Al3  1  0.84374800  0.56383300  0.00386700  1
  Al  Al4  1  0.86598600  0.31226100  0.10652700  1
  Al  Al5  1  0.28685900  0.86401600  0.59625200  1
  Al  Al6  1  0.19777800  0.53884900  0.54993600  1
  Al  Al7  1  0.98505800  0.27088400  0.56558800  1
  Al  Al8  1  0.40158700  0.43824900  0.23885200  1
  Al  Al9  1  0.80498300  0.33815600  0.82707200  1
  Al  Al10  1  0.46204200  0.65744100  0.48446100  1
  Al  Al11  1  0.26764000  0.53520400  0.84499000  1
  Al  Al12  1  0.68328200  0.30424400  0.44390400  1
  Al  Al13  1  0.78735800  0.05409000  0.58521200  1
  Al  Al14  1  0.71933700  0.06995500  0.94950900  1
  Al  Al15  1  0.97454700  0.83600300  0.63953400  1
  Al  Al16  1  0.31926700  0.13554200  0.12030600  1
  Al  Al17  1  0.01303200  0.05884700  0.80791800  1
  Al  Al18  1  0.60018800  0.54204700  0.76611600  1
  Al  Al19  1  0.49648600  0.06110300  0.43010800  1
  Al  Al20  1  0.56449600  0.12402100  0.74012900  1
  Al  Al21  1  0.11536900  0.56792300  0.17126400  1
  Al  Al22  1  0.96887600  0.55935000  0.72253400  1
  Al  Al23  1  0.16852100  0.75861000  0.34928900  1
  Al  Al24  1  0.36774300  0.65092200  0.09918700  1
  Al  Al25  1  0.36324500  0.32799500  0.51213500  1
  Al  Al26  1  0.02378300  0.09301900  0.08119000  1
  Al  Al27  1  0.58138800  0.22509300  0.17865100  1
  Al  Al28  1  0.78359200  0.79184000  0.81067300  1
  Al  Al29  1  0.14271400  0.02143900  0.43750500  1
  Al  Al30  1  0.78358600  0.04321000  0.26620500  1
  Al  Al31  1  0.63694300  0.55486400  0.19432900  1
  Al  Al32  1  0.47236900  0.93779100  0.16821200  1
  Al  Al33  1  0.46679000  0.38246100  0.93790800  1
  Al  Al34  1  0.20909200  0.91753300  0.91376100  1
  Al  Al35  1  0.68845300  0.82759100  0.07572000  1
  Al  Al36  1  0.12033500  0.29774600  0.31373900  1
  Al  Al37  1  0.27607600  0.23379700  0.78716600  1
  Al  Al38  1  0.99588900  0.82672300  0.15883900  1
  Al  Al39  1  0.88921900  0.52518700  0.30018200  1
  O  O0  1  0.83131400  0.87998000  0.19396100  1
  O  O1  1  0.16219500  0.18452800  0.16355200  1
  O  O2  1  0.73290600  0.17295900  0.79410200  1
  O  O3  1  0.03759900  0.88016000  0.79976800  1
  O  O4  1  0.51100500  0.24664900  0.49054400  1
  O  O5  1  0.92598600  0.38732500  0.70689200  1
  O  O6  1  0.08189200  0.41007400  0.48386200  1
  O  O7  1  0.32159600  0.99747000  0.47697200  1
  O  O8  1  0.70418800  0.22846400  0.04876700  1
  O  O9  1  0.91829200  0.66285000  0.59504000  1
  O  O10  1  0.43773500  0.26044300  0.07038600  1
  O  O11  1  0.97053000  0.11543200  0.65759000  1
  O  O12  1  0.06681500  0.16827600  0.42080900  1
  O  O13  1  0.78909800  0.46431900  0.15935100  1
  O  O14  1  0.27093200  0.67149400  0.95462000  1
  O  O15  1  0.81587100  0.89592000  0.67511100  1
  O  O16  1  0.67704100  0.17066600  0.31615700  1
  O  O17  1  0.91105000  0.40192800  0.96277400  1
  O  O18  1  0.66162800  0.48577400  0.61966100  1
  O  O19  1  0.11059600  0.89826700  0.55475600  1
  O  O20  1  0.43249700  0.09765100  0.25115700  1
  O  O21  1  0.92739600  0.12437800  0.94208800  1
  O  O22  1  0.50629600  0.78077200  0.09963000  1
  O  O23  1  0.77547600  0.89965100  0.94395900  1
  O  O24  1  0.64053600  0.71277400  0.51077200  1
  O  O25  1  0.33628900  0.97554900  0.04534000  1
  O  O26  1  0.86824300  0.63921100  0.84081700  1
  O  O27  1  0.25522700  0.36979300  0.89585600  1
  O  O28  1  0.24577400  0.72884500  0.20450500  1
  O  O29  1  0.18545100  0.09659500  0.85969100  1
  O  O30  1  0.64132500  0.00349600  0.11673700  1
  O  O31  1  0.37228100  0.50678000  0.54678100  1
  O  O32  1  0.57135600  0.38414300  0.27101400  1
  O  O33  1  0.01104600  0.40035400  0.21944400  1
  O  O34  1  0.80721300  0.22157500  0.52919600  1
  O  O35  1  0.90388800  0.15366900  0.18840200  1
  O  O36  1  0.07305200  0.93104800  0.04563400  1
  O  O37  1  0.24450300  0.70190600  0.48744600  1
  O  O38  1  0.47180400  0.60386900  0.31495200  1
  O  O39  1  0.09040000  0.90207900  0.30613300  1
  O  O40  1  0.54894400  0.90539800  0.33721700  1
  O  O41  1  0.45475100  0.23412300  0.80644700  1
  O  O42  1  0.26001300  0.48922900  0.15266400  1
  O  O43  1  0.66570200  0.43347100  0.87756800  1
  O  O44  1  0.44386700  0.79335400  0.60480300  1
  O  O45  1  0.48877900  0.51144300  0.08084400  1
  O  O46  1  0.15026100  0.57065100  0.71499700  1
  O  O47  1  0.71553700  0.65901200  0.06210800  1
  O  O48  1  0.61371400  0.72120900  0.79317100  1
  O  O49  1  0.76031500  0.65765200  0.31950300  1
  O  O50  1  0.30965100  0.87621500  0.77393900  1
  O  O51  1  0.59693300  0.04585300  0.58594800  1
  O  O52  1  0.80472500  0.44596200  0.42450000  1
  O  O53  1  0.43740500  0.51052500  0.81332300  1
  O  O54  1  0.25084400  0.25792400  0.62367500  1
  O  O55  1  0.03950300  0.62973900  0.32548200  1
  O  O56  1  0.56312200  0.98925200  0.84389400  1
  O  O57  1  0.99155600  0.65610400  0.08795400  1
  O  O58  1  0.29906000  0.33599900  0.34761900  1
  O  O59  1  0.80258100  0.96336700  0.42638300  1
loop_
_geom_bond_atom_site_label_1
_geom_bond_atom_site_label_2
_geom_bond_distance
_geom_bond_site_symmetry_2
Al0 O18 1.758548 1_555
Al0 O24 1.773492 1_555
Al0 O52 1.797412 1_555
Al0 O9 1.901536 1_555
Al0 O49 2.210629 1_555
Al1 O24 1.783625 1_555
Al1 O59 1.810040 1_555
Al1 O40 1.851950 1_555
Al1 O49 1.873158 1_555
Al2 O56 1.780533 1_555
Al2 O44 1.786605 1_555
Al2 O48 1.820093 1_555
Al2 O50 1.860965 1_555
Al3 O47 1.769463 1_555
Al3 O57 1.854639 1_555
Al3 O17 1.856982 1_554
Al3 O26 1.916980 1_554
Al3 O13 2.020213 1_555
Al3 O43 2.437378 1_554
Al4 O8 1.834870 1_555
Al4 O13 1.842213 1_555
Al4 O17 1.842712 1_554
Al4 O35 1.923929 1_555
Al4 O33 1.967194 1_655
Al5 O44 1.786360 1_555
Al5 O50 1.858860 1_555
Al5 O19 1.874973 1_555
Al5 O7 1.904745 1_555
Al5 O37 1.949930 1_555
Al6 O6 1.765688 1_555
Al6 O31 1.806473 1_555
Al6 O46 1.815905 1_555
Al6 O37 1.836360 1_555
Al7 O34 1.833064 1_555
Al7 O11 1.886883 1_555
Al7 O6 1.895295 1_655
Al7 O5 1.968217 1_555
Al7 O12 2.013788 1_655
Al8 O42 1.791761 1_555
Al8 O58 1.848978 1_555
Al8 O32 1.860978 1_555
Al8 O38 1.884184 1_555
Al8 O45 2.031184 1_555
Al9 O2 1.773961 1_555
Al9 O17 1.804787 1_555
Al9 O5 1.823998 1_555
Al9 O43 1.834392 1_555
Al10 O38 1.827292 1_555
Al10 O44 1.832118 1_555
Al10 O24 1.836329 1_555
Al10 O31 1.860008 1_555
Al10 O37 2.264095 1_555
Al11 O14 1.737913 1_555
Al11 O53 1.776121 1_555
Al11 O27 1.780450 1_555
Al11 O46 1.846452 1_555
Al12 O34 1.803119 1_555
Al12 O52 1.821930 1_555
Al12 O16 1.838938 1_555
Al12 O4 1.857842 1_555
Al12 O32 2.324238 1_555
Al13 O34 1.821110 1_555
Al13 O59 1.863728 1_545
Al13 O51 1.902571 1_555
Al13 O15 1.940745 1_545
Al13 O11 2.001868 1_555
Al14 O23 1.857400 1_545
Al14 O8 1.878014 1_556
Al14 O2 1.979215 1_555
Al14 O56 1.981290 1_545
Al14 O30 2.053263 1_556
Al14 O21 2.113426 1_555
Al15 O19 1.734278 1_655
Al15 O15 1.789371 1_555
Al15 O3 1.791953 1_655
Al15 O9 1.823782 1_555
Al16 O1 1.751705 1_555
Al16 O10 1.766697 1_555
Al16 O25 1.780692 1_545
Al16 O20 1.834333 1_555
Al17 O11 1.756963 1_455
Al17 O21 1.784110 1_455
Al17 O29 1.800073 1_555
Al17 O3 1.843780 1_545
Al18 O53 1.722910 1_555
Al18 O18 1.744297 1_555
Al18 O43 1.797391 1_555
Al18 O48 1.811762 1_555
Al19 O7 1.898145 1_545
Al19 O51 1.913957 1_555
Al19 O40 1.920995 1_545
Al19 O4 1.938215 1_555
Al19 O20 2.025474 1_555
Al19 O16 2.411944 1_555
Al20 O41 1.757494 1_555
Al20 O2 1.785492 1_555
Al20 O56 1.789493 1_545
Al20 O51 1.800490 1_555
Al21 O42 1.722887 1_555
Al21 O57 1.823490 1_455
Al21 O55 1.892494 1_555
Al21 O28 2.005700 1_555
Al21 O33 2.008864 1_555
Al22 O5 1.753924 1_555
Al22 O26 1.810221 1_555
Al22 O46 1.814655 1_655
Al22 O9 1.829784 1_555
Al23 O28 1.736139 1_555
Al23 O55 1.757164 1_555
Al23 O37 1.763486 1_555
Al23 O39 1.783832 1_555
Al24 O14 1.807011 1_554
Al24 O22 1.826214 1_555
Al24 O28 1.858006 1_555
Al24 O45 1.943688 1_555
Al24 O42 1.995024 1_555
Al25 O4 1.768172 1_555
Al25 O54 1.772692 1_555
Al25 O31 1.818664 1_555
Al25 O58 1.828328 1_555
Al26 O36 1.774228 1_545
Al26 O1 1.774529 1_555
Al26 O35 1.783789 1_455
Al26 O21 1.784279 1_454
Al27 O32 1.839423 1_555
Al27 O16 1.844511 1_555
Al27 O8 1.851035 1_555
Al27 O10 1.881091 1_555
Al27 O20 2.071404 1_555
Al27 O30 2.427593 1_555
Al28 O23 1.725360 1_555
Al28 O48 1.788737 1_555
Al28 O15 1.830349 1_555
Al28 O26 1.864786 1_555
Al29 O12 1.743127 1_555
Al29 O39 1.810704 1_545
Al29 O19 1.811086 1_545
Al29 O7 1.869256 1_545
Al30 O16 1.806374 1_555
Al30 O35 1.810207 1_555
Al30 O0 1.880537 1_545
Al30 O59 1.911207 1_545
Al30 O30 2.086184 1_555
Al31 O13 1.878078 1_555
Al31 O45 1.882814 1_555
Al31 O47 1.925831 1_555
Al31 O49 1.964977 1_555
Al31 O32 2.011076 1_555
Al31 O38 2.175728 1_555
Al32 O22 1.768330 1_555
Al32 O30 1.866218 1_565
Al32 O20 1.868950 1_565
Al32 O25 1.927969 1_555
Al32 O40 1.963718 1_555
Al33 O10 1.917073 1_556
Al33 O45 1.920176 1_556
Al33 O53 1.924022 1_555
Al33 O41 1.968002 1_555
Al33 O43 2.133089 1_555
Al33 O27 2.146008 1_555
Al34 O50 1.840927 1_555
Al34 O25 1.884301 1_556
Al34 O29 1.961273 1_565
Al34 O36 1.966395 1_556
Al34 O3 2.061941 1_555
Al35 O47 1.749163 1_555
Al35 O23 1.800858 1_554
Al35 O22 1.871109 1_555
Al35 O0 1.887767 1_555
Al35 O30 1.908803 1_565
Al36 O58 1.820849 1_555
Al36 O12 1.824267 1_555
Al36 O33 1.874453 1_555
Al36 O1 1.962470 1_555
Al36 O6 2.113446 1_555
Al37 O54 1.753337 1_555
Al37 O27 1.762074 1_555
Al37 O41 1.796498 1_555
Al37 O29 1.805287 1_555
Al38 O36 1.775499 1_655
Al38 O0 1.817481 1_555
Al38 O57 1.835405 1_555
Al38 O39 1.874292 1_655
Al39 O52 1.759338 1_555
Al39 O55 1.768651 1_655
Al39 O13 1.807165 1_555
Al39 O49 1.946438 1_555
Al39 O33 1.997142 1_655
