# generated using pymatgen
data_Yb4(FeB2)3
_symmetry_space_group_name_H-M   'P 1'
_cell_length_a   5.53192561
_cell_length_b   5.53192500
_cell_length_c   8.02590221
_cell_angle_alpha   69.84081675
_cell_angle_beta   69.84081943
_cell_angle_gamma   59.99999768
_symmetry_Int_Tables_number   1
_chemical_formula_structural   Yb4(FeB2)3
_chemical_formula_sum   'Yb4 Fe3 B6'
_cell_volume   195.13737355
_cell_formula_units_Z   1
loop_
 _symmetry_equiv_pos_site_id
 _symmetry_equiv_pos_as_xyz
  1  'x, y, z'
loop_
 _atom_site_type_symbol
 _atom_site_label
 _atom_site_symmetry_multiplicity
 _atom_site_fract_x
 _atom_site_fract_y
 _atom_site_fract_z
 _atom_site_occupancy
  Yb  Yb0  1  0.76285300  0.76285300  0.71144200  1
  Yb  Yb1  1  0.23714700  0.23714700  0.28855800  1
  Yb  Yb2  1  0.57441300  0.57441300  0.27676100  1
  Yb  Yb3  1  0.42558700  0.42558700  0.72323900  1
  Fe  Fe0  1  0.00000000  0.00000000  0.00000000  1
  Fe  Fe1  1  0.89417700  0.89417700  0.31746900  1
  Fe  Fe2  1  0.10582300  0.10582300  0.68253100  1
  B  B0  1  0.00000000  0.64607200  0.00000000  1
  B  B1  1  0.35392800  0.00000000  0.00000000  1
  B  B2  1  0.64607200  0.35392800  0.00000000  1
  B  B3  1  0.64607200  0.00000000  0.00000000  1
  B  B4  1  0.35392800  0.64607200  0.00000000  1
  B  B5  1  0.00000000  0.35392800  0.00000000  1
loop_
_geom_bond_atom_site_label_1
_geom_bond_atom_site_label_2
_geom_bond_distance
_geom_bond_site_symmetry_2
Yb0 Yb3 3.195038 1_565
Yb0 Yb3 3.195038 1_655
Yb0 Yb3 3.195043 1_555
Yb1 Yb2 3.195038 1_545
Yb1 Yb2 3.195038 1_455
Yb1 Yb2 3.195043 1_555
Yb2 Yb3 3.287436 1_555
Fe0 Fe1 2.337537 1_445
Fe0 Fe2 2.337537 1_554
Fe1 Yb0 2.900839 1_555
Fe1 Yb1 3.200942 1_665
Fe1 Yb1 3.200946 1_655
Fe1 Yb1 3.200946 1_565
Fe1 Yb2 3.207892 1_565
Fe1 Yb2 3.207892 1_555
Fe1 Yb2 3.207892 1_655
Fe2 Yb1 2.900839 1_555
Fe2 Yb0 3.200942 1_445
Fe2 Yb0 3.200946 1_455
Fe2 Yb0 3.200946 1_545
Fe2 Yb3 3.207892 1_545
Fe2 Yb3 3.207892 1_555
Fe2 Yb3 3.207892 1_455
B0 B5 1.616119 1_555
B0 Fe0 1.957903 1_565
B0 B3 1.957903 1_465
B0 B4 1.957903 1_555
B0 Yb3 2.712155 1_554
B0 Yb2 2.712155 1_455
B0 Yb0 2.778009 1_454
B0 Yb1 2.778010 1_555
B1 B3 1.616119 1_555
B1 B4 1.957903 1_545
B1 B5 1.957903 1_555
B1 Fe0 1.957903 1_555
B1 Yb3 2.712154 1_554
B1 Yb2 2.712154 1_545
B1 Yb1 2.778009 1_555
B1 Yb0 2.778010 1_544
B2 B4 1.616119 1_555
B2 B3 1.957903 1_555
B2 Fe0 1.957903 1_655
B2 B5 1.957903 1_655
B2 Yb2 2.712155 1_555
B2 Yb3 2.712155 1_554
B2 Yb0 2.778012 1_554
B2 Yb1 2.778012 1_555
B3 Fe0 1.957903 1_655
B3 Yb2 2.712154 1_545
B3 Yb3 2.712154 1_554
B3 Yb0 2.778009 1_544
B3 Yb1 2.778010 1_555
B4 Fe0 1.957903 1_565
B4 Yb3 2.712155 1_554
B4 Yb2 2.712155 1_555
B4 Yb1 2.778012 1_555
B4 Yb0 2.778012 1_554
B5 Fe0 1.957903 1_555
B5 Yb2 2.712155 1_455
B5 Yb3 2.712155 1_554
B5 Yb1 2.778009 1_555
B5 Yb0 2.778010 1_454
