# generated using pymatgen
data_CsBi(MoO4)2
_symmetry_space_group_name_H-M   'P 1'
_cell_length_a   5.14658600
_cell_length_b   8.49703100
_cell_length_c   9.70677600
_cell_angle_alpha   90.00000000
_cell_angle_beta   90.00000000
_cell_angle_gamma   90.00000000
_symmetry_Int_Tables_number   1
_chemical_formula_structural   CsBi(MoO4)2
_chemical_formula_sum   'Cs2 Bi2 Mo4 O16'
_cell_volume   424.48411685
_cell_formula_units_Z   2
loop_
 _symmetry_equiv_pos_site_id
 _symmetry_equiv_pos_as_xyz
  1  'x, y, z'
loop_
 _atom_site_type_symbol
 _atom_site_label
 _atom_site_symmetry_multiplicity
 _atom_site_fract_x
 _atom_site_fract_y
 _atom_site_fract_z
 _atom_site_occupancy
  Cs  Cs0  1  0.00000000  0.25000000  0.50000000  1
  Cs  Cs1  1  0.00000000  0.75000000  0.50000000  1
  Bi  Bi0  1  0.00000000  0.25000000  0.00000000  1
  Bi  Bi1  1  0.00000000  0.75000000  0.00000000  1
  Mo  Mo0  1  0.52261800  0.00000000  0.19667200  1
  Mo  Mo1  1  0.47738200  0.00000000  0.80332800  1
  Mo  Mo2  1  0.47738200  0.50000000  0.19667200  1
  Mo  Mo3  1  0.52261800  0.50000000  0.80332800  1
  O  O0  1  0.25280000  0.00000000  0.06829300  1
  O  O1  1  0.74720000  0.00000000  0.93170700  1
  O  O2  1  0.74720000  0.50000000  0.06829300  1
  O  O3  1  0.25280000  0.50000000  0.93170700  1
  O  O4  1  0.26504000  0.32992600  0.18964900  1
  O  O5  1  0.73496000  0.67007400  0.81035100  1
  O  O6  1  0.73496000  0.32992600  0.81035100  1
  O  O7  1  0.73496000  0.17007400  0.18964900  1
  O  O8  1  0.26504000  0.67007400  0.18964900  1
  O  O9  1  0.26504000  0.82992600  0.81035100  1
  O  O10  1  0.26504000  0.17007400  0.81035100  1
  O  O11  1  0.73496000  0.82992600  0.18964900  1
  O  O12  1  0.38190900  0.00000000  0.36114900  1
  O  O13  1  0.61809100  0.00000000  0.63885100  1
  O  O14  1  0.61809100  0.50000000  0.36114900  1
  O  O15  1  0.38190900  0.50000000  0.63885100  1
loop_
_geom_bond_atom_site_label_1
_geom_bond_atom_site_label_2
_geom_bond_distance
_geom_bond_site_symmetry_2
Cs0 O15 3.192542 1_555
Cs0 O13 3.192542 1_455
Cs0 O12 3.192542 1_555
Cs0 O14 3.192542 1_455
Cs0 O10 3.375953 1_555
Cs0 O6 3.375953 1_455
Cs0 O7 3.375953 1_455
Cs0 O4 3.375953 1_555
Cs1 O15 3.192542 1_555
Cs1 O13 3.192542 1_465
Cs1 O12 3.192542 1_565
Cs1 O14 3.192542 1_455
Cs1 O9 3.375953 1_555
Cs1 O5 3.375953 1_455
Cs1 O11 3.375953 1_455
Cs1 O8 3.375953 1_555
Bi0 O7 2.389707 1_455
Bi0 O4 2.389707 1_555
Bi0 O10 2.389707 1_554
Bi0 O6 2.389707 1_454
Bi0 O2 2.577724 1_455
Bi0 O0 2.577724 1_555
Bi0 O1 2.577724 1_454
Bi0 O3 2.577724 1_554
Bi1 O11 2.389707 1_455
Bi1 O8 2.389707 1_555
Bi1 O9 2.389707 1_554
Bi1 O5 2.389707 1_454
Bi1 O0 2.577724 1_565
Bi1 O2 2.577724 1_455
Bi1 O1 2.577724 1_464
Bi1 O3 2.577724 1_554
Mo0 O12 1.753102 1_555
Mo0 O7 1.813097 1_555
Mo0 O11 1.813097 1_545
Mo0 O0 1.865799 1_555
Mo1 O13 1.753102 1_555
Mo1 O10 1.813097 1_555
Mo1 O9 1.813097 1_545
Mo1 O1 1.865799 1_555
Mo2 O14 1.753102 1_555
Mo2 O8 1.813097 1_555
Mo2 O4 1.813097 1_555
Mo2 O2 1.865799 1_555
Mo3 O15 1.753102 1_555
Mo3 O5 1.813097 1_555
Mo3 O6 1.813097 1_555
Mo3 O3 1.865799 1_555
