# generated using pymatgen
data_Li9Mn2Co5O16
_symmetry_space_group_name_H-M   'P 1'
_cell_length_a   10.71375691
_cell_length_b   10.71375691
_cell_length_c   10.22894852
_cell_angle_alpha   66.18026981
_cell_angle_beta   66.18026981
_cell_angle_gamma   15.68704260
_symmetry_Int_Tables_number   1
_chemical_formula_structural   Li9Mn2Co5O16
_chemical_formula_sum   'Li9 Mn2 Co5 O16'
_cell_volume   289.88442393
_cell_formula_units_Z   1
loop_
 _symmetry_equiv_pos_site_id
 _symmetry_equiv_pos_as_xyz
  1  'x, y, z'
loop_
 _atom_site_type_symbol
 _atom_site_label
 _atom_site_symmetry_multiplicity
 _atom_site_fract_x
 _atom_site_fract_y
 _atom_site_fract_z
 _atom_site_occupancy
  Li  Li0  1  0.63388700  0.63388700  0.80277500  1
  Li  Li1  1  0.86367100  0.86367100  0.45462000  1
  Li  Li2  1  0.13261400  0.13261400  0.05434900  1
  Li  Li3  1  0.13154900  0.13154900  0.55284900  1
  Li  Li4  1  0.36966800  0.36966800  0.19307600  1
  Li  Li5  1  0.62871800  0.62871800  0.30955500  1
  Li  Li6  1  0.86860200  0.86860200  0.94006300  1
  Li  Li7  1  0.37037700  0.37037700  0.69381700  1
  Li  Li8  1  0.25103600  0.25103600  0.62471000  1
  Mn  Mn0  1  0.00074500  0.00074500  0.99930700  1
  Mn  Mn1  1  0.99942400  0.99942400  0.50000800  1
  Co  Co0  1  0.49893200  0.49893200  0.25089500  1
  Co  Co1  1  0.75300200  0.75300200  0.85738000  1
  Co  Co2  1  0.24847500  0.24847500  0.12597400  1
  Co  Co3  1  0.50128700  0.50128700  0.74918500  1
  Co  Co4  1  0.74847100  0.74847100  0.38855200  1
  O  O0  1  0.55651900  0.55651900  0.02244500  1
  O  O1  1  0.81065900  0.81065900  0.67087900  1
  O  O2  1  0.05330600  0.05330600  0.29490000  1
  O  O3  1  0.05497800  0.05497800  0.79245300  1
  O  O4  1  0.30888200  0.30888200  0.40248400  1
  O  O5  1  0.55583800  0.55583800  0.52179300  1
  O  O6  1  0.80347900  0.80347900  0.16825700  1
  O  O7  1  0.30746100  0.30746100  0.91594000  1
  O  O8  1  0.69050300  0.69050300  0.57342000  1
  O  O9  1  0.94638200  0.94638200  0.20425200  1
  O  O10  1  0.19196900  0.19196900  0.84650100  1
  O  O11  1  0.19283400  0.19283400  0.33776700  1
  O  O12  1  0.44391800  0.44391800  0.97682600  1
  O  O13  1  0.69266800  0.69266800  0.08982000  1
  O  O14  1  0.94712500  0.94712500  0.70674200  1
  O  O15  1  0.44302000  0.44302000  0.47840600  1
loop_
_geom_bond_atom_site_label_1
_geom_bond_atom_site_label_2
_geom_bond_distance
_geom_bond_site_symmetry_2
Li0 O10 2.075435 1_655
Li0 O10 2.075435 1_565
Li0 O8 2.156257 1_555
Li0 O0 2.176531 1_556
Li0 O3 2.258026 1_565
Li0 O3 2.258026 1_655
Li1 O1 2.032255 1_555
Li1 O4 2.068911 1_655
Li1 O4 2.068911 1_565
Li1 O15 2.316905 1_565
Li1 O15 2.316905 1_655
Li1 O9 2.444408 1_555
Li2 O10 1.980786 1_554
Li2 O13 2.066760 1_545
Li2 O13 2.066760 1_455
Li2 O0 2.298499 1_455
Li2 O0 2.298499 1_545
Li2 O2 2.347577 1_555
Li3 O8 1.990659 1_545
Li3 O8 1.990659 1_455
Li3 O11 2.049155 1_555
Li3 O5 2.288605 1_455
Li3 O5 2.288605 1_545
Li3 O3 2.323940 1_555
Li4 O4 1.999910 1_555
Li4 O6 2.113525 1_545
Li4 O6 2.113525 1_455
Li4 O12 2.129437 1_554
Li4 O9 2.225820 1_545
Li4 O9 2.225820 1_455
Li5 O5 2.089981 1_555
Li5 O11 2.096070 1_565
Li5 O11 2.096070 1_655
Li5 O13 2.099275 1_555
Li5 O2 2.217724 1_655
Li5 O2 2.217724 1_565
Li6 O7 2.035704 1_655
Li6 O7 2.035704 1_565
Li6 O6 2.174505 1_556
Li6 O14 2.287083 1_555
Li6 O12 2.307651 1_565
Li6 O12 2.307651 1_655
Li7 O1 2.010512 1_545
Li7 O1 2.010512 1_455
Li7 O15 2.112476 1_555
Li7 O7 2.114681 1_555
Li7 O14 2.232681 1_545
Li7 O14 2.232681 1_455
Li8 O4 2.097405 1_555
Li8 O10 2.097553 1_555
Li8 O1 2.109468 1_455
Li8 O1 2.109468 1_545
Li8 O8 2.147944 1_545
Li8 O8 2.147944 1_455
Mn0 O9 1.937516 1_446
Mn0 O3 1.953522 1_555
Mn0 O0 1.955464 1_456
Mn0 O0 1.955464 1_546
Mn0 O12 1.967697 1_545
Mn0 O12 1.967697 1_455
Mn1 O2 1.937369 1_665
Mn1 O14 1.946832 1_555
Mn1 O15 1.958503 1_565
Mn1 O15 1.958503 1_655
Mn1 O5 1.959321 1_565
Mn1 O5 1.959321 1_655
Co0 O9 2.010861 1_455
Co0 O9 2.010861 1_545
Co0 O2 2.023879 1_565
Co0 O2 2.023879 1_655
Co0 O15 2.138327 1_555
Co0 O0 2.150782 1_555
Co1 O1 1.798211 1_555
Co1 O10 1.986474 1_655
Co1 O10 1.986474 1_565
Co1 O7 2.097008 1_565
Co1 O7 2.097008 1_655
Co1 O13 2.193288 1_556
Co2 O7 1.997540 1_554
Co2 O11 2.000522 1_555
Co2 O13 2.008725 1_545
Co2 O13 2.008725 1_455
Co2 O6 2.024778 1_545
Co2 O6 2.024778 1_455
Co3 O3 2.010913 1_565
Co3 O3 2.010913 1_655
Co3 O14 2.013693 1_545
Co3 O14 2.013693 1_455
Co3 O5 2.134245 1_555
Co3 O12 2.143128 1_555
Co4 O8 1.786841 1_555
Co4 O4 1.987818 1_655
Co4 O4 1.987818 1_565
Co4 O6 2.072641 1_555
Co4 O11 2.074261 1_655
Co4 O11 2.074261 1_565
