# generated using pymatgen
data_Be5Au
_symmetry_space_group_name_H-M   'P 1'
_cell_length_a   4.31178013
_cell_length_b   4.31178019
_cell_length_c   4.31178173
_cell_angle_alpha   60.00001161
_cell_angle_beta   60.00001110
_cell_angle_gamma   60.00000335
_symmetry_Int_Tables_number   1
_chemical_formula_structural   Be5Au
_chemical_formula_sum   'Be5 Au1'
_cell_volume   56.68329338
_cell_formula_units_Z   1
loop_
 _symmetry_equiv_pos_site_id
 _symmetry_equiv_pos_as_xyz
  1  'x, y, z'
loop_
 _atom_site_type_symbol
 _atom_site_label
 _atom_site_symmetry_multiplicity
 _atom_site_fract_x
 _atom_site_fract_y
 _atom_site_fract_z
 _atom_site_occupancy
  Be  Be0  1  0.62475270  0.12574389  0.62475270  1
  Be  Be1  1  0.25000000  0.25000000  0.25000000  1
  Be  Be2  1  0.62475270  0.62475270  0.62475270  1
  Be  Be3  1  0.62475270  0.62475270  0.12574389  1
  Be  Be4  1  0.12574389  0.62475270  0.62475270  1
  Au  Au0  1  -0.00000000  -0.00000000  0.00000000  1
loop_
_geom_bond_atom_site_label_1
_geom_bond_atom_site_label_2
_geom_bond_distance
_geom_bond_site_symmetry_2
Be0 Be2 2.151616 1_555
Be0 Be4 2.151616 1_555
Be0 Be3 2.151617 1_555
Be0 Be2 2.160164 1_545
Be0 Be4 2.160164 1_645
Be0 Be3 2.160165 1_546
Be0 Be1 2.527548 1_655
Be0 Be1 2.527549 1_556
Be0 Be1 2.527556 1_555
Be1 Be3 2.527548 1_455
Be1 Be3 2.527548 1_545
Be1 Be4 2.527549 1_545
Be1 Be4 2.527549 1_554
Be1 Be2 2.527552 1_455
Be1 Be2 2.527552 1_545
Be1 Be2 2.527553 1_554
Be1 Be3 2.527555 1_555
Be1 Be4 2.527556 1_555
Be2 Be4 2.151616 1_555
Be2 Be3 2.151617 1_555
Be2 Be4 2.160164 1_655
Be2 Be3 2.160165 1_556
Be3 Be4 2.151617 1_555
Be3 Be4 2.160165 1_654
Au0 Be3 2.528458 1_445
Au0 Be0 2.528458 1_454
Au0 Be4 2.528458 1_544
Au0 Be2 2.528462 1_544
Au0 Be2 2.528462 1_454
Au0 Be2 2.528462 1_445
Au0 Be3 2.528465 1_545
Au0 Be3 2.528465 1_455
Au0 Be0 2.528465 1_554
Au0 Be4 2.528465 1_554
Au0 Be0 2.528466 1_455
Au0 Be4 2.528466 1_545
Au0 Be1 2.640415 1_555
Au0 Be1 2.640416 1_455
Au0 Be1 2.640416 1_545
Au0 Be1 2.640417 1_554
