# generated using pymatgen
data_Cs2TeH6SeO10
_symmetry_space_group_name_H-M   'P 1'
_cell_length_a   7.45157214
_cell_length_b   12.37498092
_cell_length_c   12.79953630
_cell_angle_alpha   68.82344263
_cell_angle_beta   90.00000000
_cell_angle_gamma   90.00000000
_symmetry_Int_Tables_number   1
_chemical_formula_structural   Cs2TeH6SeO10
_chemical_formula_sum   'Cs8 Te4 H24 Se4 O40'
_cell_volume   1100.58182417
_cell_formula_units_Z   4
loop_
 _symmetry_equiv_pos_site_id
 _symmetry_equiv_pos_as_xyz
  1  'x, y, z'
loop_
 _atom_site_type_symbol
 _atom_site_label
 _atom_site_symmetry_multiplicity
 _atom_site_fract_x
 _atom_site_fract_y
 _atom_site_fract_z
 _atom_site_occupancy
  Cs  Cs0  1  0.46723916  0.38866201  0.36534863  1
  Cs  Cs1  1  0.53276084  0.61133799  0.63465137  1
  Cs  Cs2  1  0.96723916  0.11133799  0.63465137  1
  Cs  Cs3  1  0.03276084  0.88866201  0.36534863  1
  Cs  Cs4  1  0.99217412  0.64333997  0.13812484  1
  Cs  Cs5  1  0.00782588  0.35666003  0.86187516  1
  Cs  Cs6  1  0.49217412  0.85666003  0.86187516  1
  Cs  Cs7  1  0.50782588  0.14333997  0.13812484  1
  Te  Te0  1  0.00000000  0.50000000  0.50000000  1
  Te  Te1  1  0.50000000  0.00000000  0.50000000  1
  Te  Te2  1  0.00000000  0.00000000  0.00000000  1
  Te  Te3  1  0.50000000  0.50000000  0.00000000  1
  H  H0  1  0.28893017  0.89991555  0.07766511  1
  H  H1  1  0.71106983  0.10008445  0.92233489  1
  H  H2  1  0.78893017  0.60008445  0.92233489  1
  H  H3  1  0.21106983  0.39991555  0.07766511  1
  H  H4  1  0.79823724  0.66334754  0.38680983  1
  H  H5  1  0.20176276  0.33665246  0.61319017  1
  H  H6  1  0.29823724  0.83665246  0.61319017  1
  H  H7  1  0.70176276  0.16334754  0.38680983  1
  H  H8  1  0.75405402  0.87660646  0.59222584  1
  H  H9  1  0.24594598  0.12339354  0.40777416  1
  H  H10  1  0.25405402  0.62339354  0.40777416  1
  H  H11  1  0.74594598  0.37660646  0.59222584  1
  H  H12  1  0.52011284  0.87346179  0.38723180  1
  H  H13  1  0.47988716  0.12653821  0.61276820  1
  H  H14  1  0.02011284  0.62653821  0.61276820  1
  H  H15  1  0.97988716  0.37346179  0.38723180  1
  H  H16  1  0.46571791  0.60550984  0.12997076  1
  H  H17  1  0.53428209  0.39449016  0.87002924  1
  H  H18  1  0.96571791  0.89449016  0.87002924  1
  H  H19  1  0.03428209  0.10550984  0.12997076  1
  H  H20  1  0.75086233  0.90116454  0.12627633  1
  H  H21  1  0.24913767  0.09883546  0.87372367  1
  H  H22  1  0.25086233  0.59883546  0.87372367  1
  H  H23  1  0.74913767  0.40116454  0.12627633  1
  Se  Se0  1  0.50052903  0.74965716  0.25109632  1
  Se  Se1  1  0.49947097  0.25034284  0.74890368  1
  Se  Se2  1  0.00052903  0.75034284  0.74890368  1
  Se  Se3  1  -0.00052903  0.24965716  0.25109632  1
  O  O0  1  0.78699546  0.77809406  0.71539267  1
  O  O1  1  0.21300454  0.22190594  0.28460733  1
  O  O2  1  0.28699546  0.72190594  0.28460733  1
  O  O3  1  0.71300454  0.27809406  0.71539267  1
  O  O4  1  0.92367396  0.63921561  0.38249435  1
  O  O5  1  0.07632604  0.36078439  0.61750565  1
  O  O6  1  0.42367396  0.86078439  0.61750565  1
  O  O7  1  0.57632604  0.13921561  0.38249435  1
  O  O8  1  0.37967733  0.57796353  0.08480145  1
  O  O9  1  0.62032267  0.42203647  0.91519855  1
  O  O10  1  0.87967733  0.92203647  0.91519855  1
  O  O11  1  0.12032267  0.07796353  0.08480145  1
  O  O12  1  0.88287436  0.89948492  0.13446350  1
  O  O13  1  0.11712564  0.10051508  0.86553650  1
  O  O14  1  0.38287436  0.60051508  0.86553650  1
  O  O15  1  0.61712564  0.39948492  0.13446350  1
  O  O16  1  0.51450947  0.87657888  0.14589948  1
  O  O17  1  0.48549053  0.12342112  0.85410052  1
  O  O18  1  0.01450947  0.62342112  0.85410052  1
  O  O19  1  0.98549053  0.37657888  0.14589948  1
  O  O20  1  0.69477522  0.60899612  0.97260372  1
  O  O21  1  0.30522478  0.39100388  0.02739628  1
  O  O22  1  0.19477522  0.89100388  0.02739628  1
  O  O23  1  0.80522478  0.10899612  0.97260372  1
  O  O24  1  0.58954079  0.64626940  0.21429792  1
  O  O25  1  0.41045921  0.35373060  0.78570208  1
  O  O26  1  0.08954079  0.85373060  0.78570208  1
  O  O27  1  0.91045921  0.14626940  0.21429792  1
  O  O28  1  0.43990559  0.93746597  0.38637821  1
  O  O29  1  0.56009441  0.06253403  0.61362179  1
  O  O30  1  0.93990559  0.56253403  0.61362179  1
  O  O31  1  0.06009441  0.43746597  0.38637821  1
  O  O32  1  0.61341877  0.75482985  0.36175787  1
  O  O33  1  0.38658123  0.24517015  0.63824213  1
  O  O34  1  0.11341877  0.74517015  0.63824213  1
  O  O35  1  0.88658123  0.25482985  0.36175787  1
  O  O36  1  0.73814350  0.93757803  0.51571978  1
  O  O37  1  0.26185650  0.06242197  0.48428022  1
  O  O38  1  0.23814350  0.56242197  0.48428022  1
  O  O39  1  0.76185650  0.43757803  0.51571978  1
loop_
_geom_bond_atom_site_label_1
_geom_bond_atom_site_label_2
_geom_bond_distance
_geom_bond_site_symmetry_2
Cs0 O15 3.116530 1_555
Cs0 O39 3.119647 1_555
Cs0 O7 3.122242 1_555
Cs0 O31 3.123942 1_555
Cs0 O24 3.205955 1_555
Cs0 H7 3.217219 1_555
Cs0 H16 3.230594 1_555
Cs0 O1 3.233606 1_555
Cs0 O33 3.351665 1_555
Cs0 O38 3.495736 1_555
Cs0 O35 3.544590 1_555
Cs1 O14 3.116530 1_555
Cs1 O38 3.119647 1_555
Cs1 O6 3.122242 1_555
Cs1 O30 3.123942 1_555
Cs1 O25 3.205955 1_555
Cs1 H6 3.217219 1_555
Cs1 H17 3.230594 1_555
Cs1 O0 3.233606 1_555
Cs1 O32 3.351665 1_555
Cs1 O39 3.495736 1_555
Cs1 O34 3.544590 1_555
Cs2 O13 3.116530 1_655
Cs2 O37 3.119647 1_655
Cs2 O5 3.122242 1_655
Cs2 O29 3.123942 1_555
Cs2 O26 3.205955 1_645
Cs2 H5 3.217219 1_655
Cs2 H18 3.230594 1_545
Cs2 O3 3.233606 1_555
Cs2 O35 3.351665 1_555
Cs2 O36 3.495736 1_545
Cs2 O33 3.544590 1_655
Cs3 O12 3.116530 1_455
Cs3 O36 3.119647 1_455
Cs3 O4 3.122242 1_455
Cs3 O28 3.123942 1_555
Cs3 O27 3.205955 1_465
Cs3 H4 3.217219 1_455
Cs3 H19 3.230594 1_565
Cs3 O2 3.233606 1_555
Cs3 O34 3.351665 1_555
Cs3 O37 3.495736 1_565
Cs3 O32 3.544590 1_455
Cs4 O8 3.139586 1_655
Cs4 O4 3.151356 1_555
Cs4 O24 3.158947 1_555
Cs4 O20 3.198539 1_554
Cs4 O22 3.246968 1_655
Cs4 O2 3.256356 1_655
Cs4 O12 3.256650 1_555
Cs4 O19 3.266913 1_555
Cs4 O31 3.315836 1_655
Cs5 O9 3.139586 1_455
Cs5 O5 3.151356 1_555
Cs5 O25 3.158947 1_555
Cs5 O21 3.198539 1_556
Cs5 O23 3.246968 1_455
Cs5 O3 3.256356 1_455
Cs5 O13 3.256650 1_555
Cs5 O18 3.266913 1_555
Cs5 O30 3.315836 1_455
Cs6 O10 3.139586 1_555
Cs6 O6 3.151356 1_555
Cs6 O26 3.158947 1_555
Cs6 O22 3.198539 1_556
Cs6 O20 3.246968 1_555
Cs6 O0 3.256356 1_555
Cs6 O14 3.256650 1_555
Cs6 O17 3.266913 1_565
Cs6 O29 3.315836 1_565
Cs7 O11 3.139586 1_555
Cs7 O7 3.151356 1_555
Cs7 O27 3.158947 1_555
Cs7 O23 3.198539 1_554
Cs7 O21 3.246968 1_555
Cs7 O1 3.256356 1_555
Cs7 O15 3.256650 1_555
Cs7 O16 3.266913 1_545
Cs7 O28 3.315836 1_545
H0 O22 0.984713 1_555
H1 O23 0.984713 1_555
H2 O20 0.984713 1_555
H3 O21 0.984713 1_555
H4 O4 0.988845 1_555
H5 O5 0.988845 1_555
H6 O6 0.988845 1_555
H7 O7 0.988845 1_555
H8 O36 1.004220 1_555
H8 O0 1.625790 1_555
H9 O37 1.004220 1_555
H9 O1 1.625790 1_555
H10 O38 1.004220 1_555
H10 O2 1.625790 1_555
H11 O39 1.004220 1_555
H11 O3 1.625790 1_555
H12 O28 0.989152 1_555
H13 O29 0.989152 1_555
H14 O30 0.989152 1_455
H15 O31 0.989152 1_655
H16 O8 1.001949 1_555
H16 O24 1.632200 1_555
H17 O9 1.001949 1_555
H17 O25 1.632200 1_555
H18 O10 1.001949 1_555
H18 O26 1.632200 1_655
H19 O11 1.001949 1_555
H19 O27 1.632200 1_455
H20 O12 0.988686 1_555
H21 O13 0.988686 1_555
H22 O14 0.988686 1_555
H23 O15 0.988686 1_555
O0 Se2 1.651449 1_655
O1 Se3 1.651449 1_555
O2 Se0 1.651449 1_555
O3 Se1 1.651449 1_555
O4 Te0 1.918727 1_655
O5 Te0 1.918727 1_555
O6 Te1 1.918727 1_565
O7 Te1 1.918727 1_555
O8 Te3 1.915579 1_555
O9 Te3 1.915579 1_556
O10 Te2 1.915579 1_666
O11 Te2 1.915579 1_555
O12 Te2 1.929854 1_665
O13 Te2 1.929854 1_556
O14 Te3 1.929854 1_556
O15 Te3 1.929854 1_555
O16 Se0 1.662182 1_555
O17 Se1 1.662182 1_555
O18 Se2 1.662182 1_555
O19 Se3 1.662182 1_655
O20 Te3 1.925378 1_556
O21 Te3 1.925378 1_555
O22 Te2 1.925378 1_565
O23 Te2 1.925378 1_656
O24 Se0 1.653505 1_555
O25 Se1 1.653505 1_555
O26 Se2 1.653505 1_555
O27 Se3 1.653505 1_655
O28 Te1 1.930671 1_565
O29 Te1 1.930671 1_555
O30 Te0 1.930671 1_655
O31 Te0 1.930671 1_555
O32 Se0 1.668373 1_555
O33 Se1 1.668373 1_555
O34 Se2 1.668373 1_555
O35 Se3 1.668373 1_655
O36 Te1 1.916744 1_565
O37 Te1 1.916744 1_555
O38 Te0 1.916744 1_555
O39 Te0 1.916744 1_655
