# generated using pymatgen
data_NdCrSb3
_symmetry_space_group_name_H-M   'P 1'
_cell_length_a   6.25507165
_cell_length_b   6.19324407
_cell_length_c   13.16302585
_cell_angle_alpha   90.00000000
_cell_angle_beta   90.00000000
_cell_angle_gamma   90.00000000
_symmetry_Int_Tables_number   1
_chemical_formula_structural   NdCrSb3
_chemical_formula_sum   'Nd4 Cr4 Sb12'
_cell_volume   509.92489888
_cell_formula_units_Z   4
loop_
 _symmetry_equiv_pos_site_id
 _symmetry_equiv_pos_as_xyz
  1  'x, y, z'
loop_
 _atom_site_type_symbol
 _atom_site_label
 _atom_site_symmetry_multiplicity
 _atom_site_fract_x
 _atom_site_fract_y
 _atom_site_fract_z
 _atom_site_occupancy
  Nd  Nd0  1  0.25000000  0.50471870  0.31185009  1
  Nd  Nd1  1  0.75000000  0.49528130  0.68814991  1
  Nd  Nd2  1  0.25000000  0.00471870  0.68814991  1
  Nd  Nd3  1  0.75000000  0.99528130  0.31185009  1
  Cr  Cr0  1  0.00000000  0.75000000  0.90717480  1
  Cr  Cr1  1  0.00000000  0.25000000  0.09282520  1
  Cr  Cr2  1  0.50000000  0.25000000  0.09282520  1
  Cr  Cr3  1  0.50000000  0.75000000  0.90717480  1
  Sb  Sb0  1  -0.00000000  0.75000000  0.50158983  1
  Sb  Sb1  1  -0.00000000  0.25000000  0.49841017  1
  Sb  Sb2  1  0.50000000  0.25000000  0.49841017  1
  Sb  Sb3  1  0.50000000  0.75000000  0.50158983  1
  Sb  Sb4  1  0.25000000  0.60741085  0.06448165  1
  Sb  Sb5  1  0.75000000  0.39258915  0.93551835  1
  Sb  Sb6  1  0.25000000  0.10741085  0.93551835  1
  Sb  Sb7  1  0.75000000  0.89258915  0.06448165  1
  Sb  Sb8  1  0.25000000  0.99871891  0.22211019  1
  Sb  Sb9  1  0.75000000  0.00128109  0.77788981  1
  Sb  Sb10  1  0.25000000  0.49871891  0.77788981  1
  Sb  Sb11  1  0.75000000  0.50128109  0.22211019  1
loop_
_geom_bond_atom_site_label_1
_geom_bond_atom_site_label_2
_geom_bond_distance
_geom_bond_site_symmetry_2
Nd0 Sb8 3.279583 1_555
Nd0 Sb2 3.311257 1_555
Nd0 Sb1 3.311257 1_555
Nd0 Sb0 3.315230 1_555
Nd0 Sb3 3.315230 1_555
Nd0 Sb4 3.317649 1_555
Nd0 Sb11 3.343244 1_455
Nd0 Sb11 3.343244 1_555
Nd0 Sb8 3.349019 1_545
Nd1 Sb9 3.279583 1_555
Nd1 Sb3 3.311257 1_555
Nd1 Sb0 3.311257 1_655
Nd1 Sb1 3.315230 1_655
Nd1 Sb2 3.315230 1_555
Nd1 Sb5 3.317649 1_555
Nd1 Sb10 3.343244 1_555
Nd1 Sb10 3.343244 1_655
Nd1 Sb9 3.349019 1_565
Nd2 Sb10 3.279583 1_555
Nd2 Sb3 3.311257 1_545
Nd2 Sb0 3.311257 1_545
Nd2 Sb1 3.315230 1_555
Nd2 Sb2 3.315230 1_555
Nd2 Sb6 3.317649 1_555
Nd2 Sb9 3.343244 1_455
Nd2 Sb9 3.343244 1_555
Nd2 Sb10 3.349019 1_545
Nd3 Sb11 3.279583 1_555
Nd3 Sb1 3.311257 1_665
Nd3 Sb2 3.311257 1_565
Nd3 Sb0 3.315230 1_655
Nd3 Sb3 3.315230 1_555
Nd3 Sb7 3.317649 1_555
Nd3 Sb8 3.343244 1_655
Nd3 Sb8 3.343244 1_555
Nd3 Sb11 3.349019 1_565
Cr0 Sb6 2.735743 1_565
Cr0 Sb5 2.735743 1_455
Cr0 Sb4 2.740938 1_556
Cr0 Sb7 2.740938 1_456
Cr0 Sb9 2.786275 1_465
Cr0 Sb10 2.786275 1_555
Cr1 Sb4 2.735743 1_555
Cr1 Sb7 2.735743 1_445
Cr1 Sb6 2.740938 1_554
Cr1 Sb5 2.740938 1_454
Cr1 Sb8 2.786275 1_545
Cr1 Sb11 2.786275 1_455
Cr2 Sb4 2.735743 1_555
Cr2 Sb7 2.735743 1_545
Cr2 Sb5 2.740938 1_554
Cr2 Sb6 2.740938 1_554
Cr2 Sb8 2.786275 1_545
Cr2 Sb11 2.786275 1_555
Cr3 Sb6 2.735743 1_565
Cr3 Sb5 2.735743 1_555
Cr3 Sb7 2.740938 1_556
Cr3 Sb4 2.740938 1_556
Cr3 Sb9 2.786275 1_565
Cr3 Sb10 2.786275 1_555
Sb0 Sb1 3.096905 1_555
Sb0 Sb1 3.096905 1_565
Sb0 Sb3 3.127536 1_555
Sb0 Sb3 3.127536 1_455
Sb1 Sb2 3.127536 1_455
Sb1 Sb2 3.127536 1_555
Sb2 Sb3 3.096905 1_545
Sb2 Sb3 3.096905 1_555
Sb4 Sb8 3.190340 1_555
Sb5 Sb9 3.190340 1_555
Sb10 Sb6 3.190340 1_555
Sb11 Sb7 3.190340 1_555
