# generated using pymatgen
data_Ta2CrO6
_symmetry_space_group_name_H-M   'P 1'
_cell_length_a   4.82659198
_cell_length_b   10.56965996
_cell_length_c   9.65687151
_cell_angle_alpha   62.26545908
_cell_angle_beta   89.47629687
_cell_angle_gamma   88.87549875
_symmetry_Int_Tables_number   1
_chemical_formula_structural   Ta2CrO6
_chemical_formula_sum   'Ta8 Cr4 O24'
_cell_volume   435.96662236
_cell_formula_units_Z   4
loop_
 _symmetry_equiv_pos_site_id
 _symmetry_equiv_pos_as_xyz
  1  'x, y, z'
loop_
 _atom_site_type_symbol
 _atom_site_label
 _atom_site_symmetry_multiplicity
 _atom_site_fract_x
 _atom_site_fract_y
 _atom_site_fract_z
 _atom_site_occupancy
  Ta  Ta0  1  0.50586200  0.16616500  0.17048200  1
  Ta  Ta1  1  0.49950100  0.17098200  0.66706500  1
  Ta  Ta2  1  0.99769200  0.66810000  0.16194300  1
  Ta  Ta3  1  0.00336700  0.66741100  0.66604300  1
  Ta  Ta4  1  0.49414700  0.83381300  0.82957200  1
  Ta  Ta5  1  0.50053200  0.82897500  0.33286800  1
  Ta  Ta6  1  0.99652300  0.33266100  0.33389400  1
  Ta  Ta7  1  0.00247000  0.33197300  0.83809500  1
  Cr  Cr0  1  0.49990600  0.49993700  0.00010700  1
  Cr  Cr1  1  0.00015700  0.00002000  0.50005400  1
  Cr  Cr2  1  0.49982200  0.49980700  0.50018300  1
  Cr  Cr3  1  0.99938800  0.00019200  0.99979300  1
  O  O0  1  0.31196900  0.99786000  0.34289800  1
  O  O1  1  0.31374700  0.00176600  0.84428200  1
  O  O2  1  0.19456500  0.50225000  0.84616000  1
  O  O3  1  0.17464000  0.49905000  0.33735000  1
  O  O4  1  0.80554700  0.49772900  0.15381000  1
  O  O5  1  0.82550800  0.50093900  0.66264800  1
  O  O6  1  0.68602500  0.99822800  0.15564000  1
  O  O7  1  0.68828800  0.00211400  0.65719700  1
  O  O8  1  0.29082900  0.30923600  0.20524400  1
  O  O9  1  0.30683300  0.32758200  0.69244300  1
  O  O10  1  0.20363700  0.82580800  0.68448800  1
  O  O11  1  0.19298100  0.82041100  0.18685600  1
  O  O12  1  0.77638700  0.81049500  0.98712000  1
  O  O13  1  0.78968300  0.81148900  0.48100200  1
  O  O14  1  0.79658500  0.17414500  0.31551300  1
  O  O15  1  0.80681000  0.17975400  0.81299200  1
  O  O16  1  0.22365500  0.18947200  0.01293300  1
  O  O17  1  0.21044700  0.18855300  0.51889400  1
  O  O18  1  0.71338800  0.32186100  0.99261000  1
  O  O19  1  0.70516200  0.32212300  0.49072000  1
  O  O20  1  0.28672800  0.67806800  0.00747200  1
  O  O21  1  0.29481100  0.67793600  0.50922000  1
  O  O22  1  0.70928000  0.69076400  0.79478000  1
  O  O23  1  0.69312900  0.67232900  0.30762800  1
loop_
_geom_bond_atom_site_label_1
_geom_bond_atom_site_label_2
_geom_bond_distance
_geom_bond_site_symmetry_2
Cr0 O4 2.094355 1_555
Cr0 O2 2.094632 1_554
Cr0 O20 2.157749 1_555
Cr0 O18 2.158467 1_554
Cr0 O8 2.309177 1_555
Cr0 O22 2.311280 1_554
Cr1 O10 2.106147 1_545
Cr1 O14 2.106375 1_455
Cr1 O7 2.134793 1_455
Cr1 O0 2.134919 1_545
Cr1 O17 2.335481 1_555
Cr1 O13 2.336844 1_445
Cr2 O9 2.125484 1_555
Cr2 O23 2.128952 1_555
Cr2 O19 2.145401 1_555
Cr2 O21 2.147035 1_555
Cr2 O3 2.234592 1_555
Cr2 O5 2.235158 1_555
Cr3 O6 2.117443 1_546
Cr3 O1 2.119849 1_655
Cr3 O15 2.120131 1_555
Cr3 O11 2.124478 1_646
Cr3 O12 2.347154 1_545
Cr3 O16 2.348208 1_656
O0 Ta0 2.023032 1_565
O0 Ta5 2.029697 1_555
O1 Ta4 2.025207 1_545
O1 Ta1 2.029161 1_555
O2 Ta3 2.016047 1_555
O2 Ta7 2.074163 1_555
O3 Ta2 1.985149 1_455
O3 Ta6 1.986864 1_455
O4 Ta6 2.014971 1_555
O4 Ta2 2.075456 1_555
O5 Ta7 1.984908 1_655
O5 Ta3 1.986840 1_655
O6 Ta0 2.025189 1_565
O6 Ta5 2.028833 1_555
O7 Ta4 2.023414 1_545
O7 Ta1 2.029295 1_555
O8 Ta6 1.965399 1_455
O8 Ta0 1.970070 1_555
O9 Ta1 1.994372 1_555
O9 Ta7 2.039337 1_555
O10 Ta4 2.021661 1_555
O10 Ta3 2.028118 1_555
O11 Ta2 1.990534 1_455
O11 Ta5 2.088586 1_555
O12 Ta2 1.965003 1_556
O12 Ta4 1.976591 1_555
O13 Ta5 1.951551 1_555
O13 Ta3 2.003782 1_655
O14 Ta0 2.021914 1_555
O14 Ta6 2.028135 1_555
O15 Ta7 1.991484 1_655
O15 Ta1 2.087989 1_555
O16 Ta7 1.965164 1_554
O16 Ta0 1.976516 1_555
O17 Ta1 1.951228 1_555
O17 Ta6 2.004262 1_455
O18 Ta7 2.001012 1_655
O18 Ta0 2.015983 1_556
O19 Ta1 1.984098 1_555
O19 Ta6 2.023314 1_555
O20 Ta2 2.000981 1_455
O20 Ta4 2.016072 1_554
O21 Ta5 1.983830 1_555
O21 Ta3 2.023608 1_555
O22 Ta3 1.964910 1_655
O22 Ta4 1.970273 1_555
O23 Ta5 1.993973 1_555
O23 Ta2 2.039683 1_555
