# generated using pymatgen
data_Ce2CN3Cl
_symmetry_space_group_name_H-M   'P 1'
_cell_length_a   8.14331057
_cell_length_b   8.14331057
_cell_length_c   3.91657530
_cell_angle_alpha   90.00000000
_cell_angle_beta   90.00000000
_cell_angle_gamma   109.54764980
_symmetry_Int_Tables_number   1
_chemical_formula_structural   Ce2CN3Cl
_chemical_formula_sum   'Ce4 C2 N6 Cl2'
_cell_volume   244.75240038
_cell_formula_units_Z   2
loop_
 _symmetry_equiv_pos_site_id
 _symmetry_equiv_pos_as_xyz
  1  'x, y, z'
loop_
 _atom_site_type_symbol
 _atom_site_label
 _atom_site_symmetry_multiplicity
 _atom_site_fract_x
 _atom_site_fract_y
 _atom_site_fract_z
 _atom_site_occupancy
  Ce  Ce0  1  0.29103713  0.29103713  0.50000000  1
  Ce  Ce1  1  0.70896287  0.70896287  0.50000000  1
  Ce  Ce2  1  0.86367452  0.13632548  0.00000000  1
  Ce  Ce3  1  0.13632548  0.86367452  0.00000000  1
  C  C0  1  0.00000000  0.50000000  0.50000000  1
  C  C1  1  0.50000000  -0.00000000  0.50000000  1
  N  N0  1  0.99762027  0.34838469  0.50000000  1
  N  N1  1  0.00237973  0.65161531  0.50000000  1
  N  N2  1  0.65161531  0.00237973  0.50000000  1
  N  N3  1  0.34838469  0.99762027  0.50000000  1
  N  N4  1  0.15900880  0.15900880  -0.00000000  1
  N  N5  1  0.84099120  0.84099120  0.00000000  1
  Cl  Cl0  1  0.62395577  0.37604423  -0.00000000  1
  Cl  Cl1  1  0.37604423  0.62395577  0.00000000  1
loop_
_geom_bond_atom_site_label_1
_geom_bond_atom_site_label_2
_geom_bond_distance
_geom_bond_site_symmetry_2
Ce0 N4 2.318025 1_555
Ce0 N4 2.318025 1_556
Ce0 N0 2.583398 1_455
Ce0 N3 2.583398 1_545
Ce0 Cl0 3.226155 1_556
Ce0 Cl0 3.226155 1_555
Ce0 Cl1 3.226155 1_555
Ce0 Cl1 3.226155 1_556
Ce1 N5 2.318025 1_556
Ce1 N5 2.318025 1_555
Ce1 N1 2.583398 1_655
Ce1 N2 2.583398 1_565
Ce1 Cl0 3.226155 1_556
Ce1 Cl0 3.226155 1_555
Ce1 Cl1 3.226155 1_555
Ce1 Cl1 3.226155 1_556
Ce2 N4 2.349651 1_655
Ce2 N5 2.349651 1_545
Ce2 N2 2.597353 1_555
Ce2 N2 2.597353 1_554
Ce2 N0 2.597353 1_555
Ce2 N0 2.597353 1_554
Ce2 Cl0 3.189276 1_555
Ce3 N4 2.349651 1_565
Ce3 N5 2.349651 1_455
Ce3 N1 2.597353 1_554
Ce3 N3 2.597353 1_555
Ce3 N1 2.597353 1_555
Ce3 N3 2.597353 1_554
Ce3 Cl1 3.189276 1_555
C0 N0 1.228302 1_455
C0 N1 1.228302 1_555
C1 N3 1.228302 1_545
C1 N2 1.228302 1_555
