# generated using pymatgen
data_Rb3TaS4
_symmetry_space_group_name_H-M   'P 1'
_cell_length_a   9.64756284
_cell_length_b   9.74009694
_cell_length_c   11.12781562
_cell_angle_alpha   90.00000000
_cell_angle_beta   90.00000000
_cell_angle_gamma   90.00000000
_symmetry_Int_Tables_number   1
_chemical_formula_structural   Rb3TaS4
_chemical_formula_sum   'Rb12 Ta4 S16'
_cell_volume   1045.66077366
_cell_formula_units_Z   4
loop_
 _symmetry_equiv_pos_site_id
 _symmetry_equiv_pos_as_xyz
  1  'x, y, z'
loop_
 _atom_site_type_symbol
 _atom_site_label
 _atom_site_symmetry_multiplicity
 _atom_site_fract_x
 _atom_site_fract_y
 _atom_site_fract_z
 _atom_site_occupancy
  Rb  Rb0  1  0.05346397  0.28884221  0.54252655  1
  Rb  Rb1  1  0.85890690  0.92023978  0.75000000  1
  Rb  Rb2  1  0.14109310  0.07976022  0.25000000  1
  Rb  Rb3  1  0.64109310  0.42023978  0.25000000  1
  Rb  Rb4  1  0.94653603  0.71115779  0.45747345  1
  Rb  Rb5  1  0.44653603  0.78884221  0.04252655  1
  Rb  Rb6  1  0.55346397  0.21115779  0.54252655  1
  Rb  Rb7  1  0.05346397  0.28884221  0.95747345  1
  Rb  Rb8  1  0.94653603  0.71115779  0.04252655  1
  Rb  Rb9  1  0.55346397  0.21115779  0.95747345  1
  Rb  Rb10  1  0.44653603  0.78884221  0.45747345  1
  Rb  Rb11  1  0.35890690  0.57976022  0.75000000  1
  Ta  Ta0  1  0.28248278  0.01383710  0.75000000  1
  Ta  Ta1  1  0.78248278  0.48616290  0.75000000  1
  Ta  Ta2  1  0.21751722  0.51383710  0.25000000  1
  Ta  Ta3  1  0.71751722  0.98616290  0.25000000  1
  S  S0  1  0.30256765  0.24660115  0.75000000  1
  S  S1  1  0.80256765  0.25339885  0.75000000  1
  S  S2  1  0.19743235  0.74660115  0.25000000  1
  S  S3  1  0.69743235  0.75339885  0.25000000  1
  S  S4  1  -0.00095892  0.58025591  0.75000000  1
  S  S5  1  0.49904108  0.91974409  0.75000000  1
  S  S6  1  0.50095892  0.08025591  0.25000000  1
  S  S7  1  0.00095892  0.41974409  0.25000000  1
  S  S8  1  0.83265565  0.05086770  0.08101203  1
  S  S9  1  0.33265565  0.44913230  0.41898797  1
  S  S10  1  0.66734435  0.55086770  0.91898797  1
  S  S11  1  0.16734435  0.94913230  0.58101203  1
  S  S12  1  0.16734435  0.94913230  0.91898797  1
  S  S13  1  0.83265565  0.05086770  0.41898797  1
  S  S14  1  0.33265565  0.44913230  0.08101203  1
  S  S15  1  0.66734435  0.55086770  0.58101203  1
loop_
_geom_bond_atom_site_label_1
_geom_bond_atom_site_label_2
_geom_bond_distance
_geom_bond_site_symmetry_2
Rb0 S0 3.357837 1_555
Rb0 S1 3.362796 1_455
Rb0 S9 3.403287 1_555
Rb0 S13 3.435185 1_455
Rb0 S11 3.512646 1_545
Rb0 S7 3.532480 1_555
Rb0 S4 3.696268 1_555
Rb1 S1 3.290208 1_565
Rb1 S5 3.471831 1_555
Rb1 S11 3.531283 1_655
Rb1 S12 3.531283 1_655
Rb1 S4 3.576821 1_655
Rb2 S2 3.290208 1_545
Rb2 S6 3.471831 1_555
Rb2 S8 3.531283 1_455
Rb2 S13 3.531283 1_455
Rb2 S7 3.576821 1_555
Rb3 S3 3.290208 1_555
Rb3 S7 3.471831 1_655
Rb3 S9 3.531283 1_555
Rb3 S14 3.531283 1_555
Rb3 S6 3.576821 1_555
Rb4 S3 3.357837 1_555
Rb4 S2 3.362796 1_655
Rb4 S15 3.403287 1_555
Rb4 S11 3.435185 1_655
Rb4 S13 3.512646 1_565
Rb4 S4 3.532480 1_655
Rb4 S7 3.696268 1_655
Rb5 S2 3.357837 1_555
Rb5 S3 3.362796 1_555
Rb5 S12 3.403287 1_554
Rb5 S10 3.435185 1_554
Rb5 S14 3.512646 1_555
Rb5 S5 3.532480 1_554
Rb5 S6 3.696268 1_565
Rb6 S1 3.357837 1_555
Rb6 S0 3.362796 1_555
Rb6 S13 3.403287 1_555
Rb6 S9 3.435185 1_555
Rb6 S15 3.512646 1_555
Rb6 S6 3.532480 1_555
Rb6 S5 3.696268 1_545
Rb7 S0 3.357837 1_555
Rb7 S1 3.362796 1_455
Rb7 S14 3.403287 1_556
Rb7 S8 3.435185 1_456
Rb7 S12 3.512646 1_545
Rb7 S7 3.532480 1_556
Rb7 S4 3.696268 1_555
Rb8 S3 3.357837 1_555
Rb8 S2 3.362796 1_655
Rb8 S10 3.403287 1_554
Rb8 S12 3.435185 1_654
Rb8 S8 3.512646 1_565
Rb8 S4 3.532480 1_654
Rb8 S7 3.696268 1_655
Rb9 S1 3.357837 1_555
Rb9 S0 3.362796 1_555
Rb9 S8 3.403287 1_556
Rb9 S14 3.435185 1_556
Rb9 S10 3.512646 1_555
Rb9 S6 3.532480 1_556
Rb9 S5 3.696268 1_545
Rb10 S2 3.357837 1_555
Rb10 S3 3.362796 1_555
Rb10 S11 3.403287 1_555
Rb10 S15 3.435185 1_555
Rb10 S9 3.512646 1_555
Rb10 S5 3.532480 1_555
Rb10 S6 3.696268 1_565
Rb11 S0 3.290208 1_555
Rb11 S4 3.471831 1_555
Rb11 S10 3.531283 1_555
Rb11 S15 3.531283 1_555
Rb11 S5 3.576821 1_555
S0 Ta0 2.275410 1_555
S1 Ta1 2.275410 1_555
S2 Ta2 2.275410 1_555
S3 Ta3 2.275410 1_555
S4 Ta1 2.281432 1_455
S5 Ta0 2.281432 1_565
S6 Ta3 2.281432 1_545
S7 Ta2 2.281432 1_555
S8 Ta3 2.273155 1_545
S9 Ta2 2.273155 1_555
S10 Ta1 2.273155 1_555
S11 Ta0 2.273155 1_565
S12 Ta0 2.273155 1_565
S13 Ta3 2.273155 1_545
S14 Ta2 2.273155 1_555
S15 Ta1 2.273155 1_555
