# generated using pymatgen
data_Sc2Si2Pt3
_symmetry_space_group_name_H-M   'P 1'
_cell_length_a   4.05318496
_cell_length_b   6.38244946
_cell_length_c   8.68987579
_cell_angle_alpha   90.00000000
_cell_angle_beta   90.00000000
_cell_angle_gamma   90.00000000
_symmetry_Int_Tables_number   1
_chemical_formula_structural   Sc2Si2Pt3
_chemical_formula_sum   'Sc4 Si4 Pt6'
_cell_volume   224.80055328
_cell_formula_units_Z   2
loop_
 _symmetry_equiv_pos_site_id
 _symmetry_equiv_pos_as_xyz
  1  'x, y, z'
loop_
 _atom_site_type_symbol
 _atom_site_label
 _atom_site_symmetry_multiplicity
 _atom_site_fract_x
 _atom_site_fract_y
 _atom_site_fract_z
 _atom_site_occupancy
  Sc  Sc0  1  -0.00000000  0.89105251  0.33047963  1
  Sc  Sc1  1  -0.00000000  0.10894749  0.66952037  1
  Sc  Sc2  1  0.00000000  0.39105251  0.16952037  1
  Sc  Sc3  1  0.00000000  0.60894749  0.83047963  1
  Si  Si0  1  0.50000000  0.57444830  0.35080255  1
  Si  Si1  1  0.50000000  0.42555170  0.64919745  1
  Si  Si2  1  0.50000000  0.07444830  0.14919745  1
  Si  Si3  1  0.50000000  0.92555170  0.85080255  1
  Pt  Pt0  1  0.50000000  0.69150396  0.08807710  1
  Pt  Pt1  1  0.50000000  0.30849604  0.91192290  1
  Pt  Pt2  1  0.50000000  0.19150396  0.41192290  1
  Pt  Pt3  1  0.50000000  0.80849604  0.58807710  1
  Pt  Pt4  1  0.00000000  0.50000000  0.50000000  1
  Pt  Pt5  1  0.00000000  0.00000000  -0.00000000  1
loop_
_geom_bond_atom_site_label_1
_geom_bond_atom_site_label_2
_geom_bond_distance
_geom_bond_site_symmetry_2
Sc0 Si2 2.821137 1_565
Sc0 Si2 2.821137 1_465
Sc0 Si0 2.867322 1_455
Sc0 Si0 2.867322 1_555
Sc1 Si3 2.821137 1_445
Sc1 Si3 2.821137 1_545
Sc1 Si1 2.867322 1_555
Sc1 Si1 2.867322 1_455
Sc2 Si0 2.821137 1_455
Sc2 Si0 2.821137 1_555
Sc2 Si2 2.867322 1_555
Sc2 Si2 2.867322 1_455
Sc3 Si1 2.821137 1_555
Sc3 Si1 2.821137 1_455
Sc3 Si3 2.867322 1_455
Sc3 Si3 2.867322 1_555
Pt0 Si0 2.402183 1_555
Pt0 Si2 2.501167 1_565
Pt0 Si3 2.546136 1_554
Pt0 Sc2 2.878405 1_655
Pt0 Sc2 2.878405 1_555
Pt0 Pt1 2.884257 1_554
Pt0 Pt5 2.927403 1_565
Pt0 Pt5 2.927403 1_665
Pt0 Sc3 3.065216 1_654
Pt0 Sc3 3.065216 1_554
Pt0 Sc0 3.188460 1_655
Pt0 Sc0 3.188460 1_555
Pt1 Si1 2.402183 1_555
Pt1 Si3 2.501167 1_545
Pt1 Si2 2.546136 1_556
Pt1 Sc3 2.878405 1_555
Pt1 Sc3 2.878405 1_655
Pt1 Pt5 2.927403 1_656
Pt1 Pt5 2.927403 1_556
Pt1 Sc2 3.065216 1_556
Pt1 Sc2 3.065216 1_656
Pt1 Sc1 3.188460 1_555
Pt1 Sc1 3.188460 1_655
Pt2 Si2 2.402183 1_555
Pt2 Si0 2.501167 1_555
Pt2 Si1 2.546136 1_555
Pt2 Sc0 2.878405 1_645
Pt2 Sc0 2.878405 1_545
Pt2 Pt3 2.884257 1_545
Pt2 Pt4 2.927403 1_655
Pt2 Pt4 2.927403 1_555
Pt2 Sc1 3.065216 1_655
Pt2 Sc1 3.065216 1_555
Pt2 Sc2 3.188460 1_555
Pt2 Sc2 3.188460 1_655
Pt3 Si3 2.402183 1_555
Pt3 Si1 2.501167 1_555
Pt3 Si0 2.546136 1_555
Pt3 Sc1 2.878405 1_665
Pt3 Sc1 2.878405 1_565
Pt3 Pt4 2.927403 1_655
Pt3 Pt4 2.927403 1_555
Pt3 Sc0 3.065216 1_655
Pt3 Sc0 3.065216 1_555
Pt3 Sc3 3.188460 1_555
Pt3 Sc3 3.188460 1_655
Pt4 Si1 2.452303 1_455
Pt4 Si0 2.452303 1_555
Pt4 Si1 2.452303 1_555
Pt4 Si0 2.452303 1_455
Pt4 Sc1 2.898178 1_555
Pt4 Sc0 2.898178 1_555
Pt4 Sc2 2.954810 1_555
Pt4 Sc3 2.954810 1_555
Pt5 Si3 2.452303 1_444
Pt5 Si3 2.452303 1_544
Pt5 Si2 2.452303 1_455
Pt5 Si2 2.452303 1_555
Pt5 Sc3 2.898178 1_544
Pt5 Sc2 2.898178 1_555
Pt5 Sc1 2.954810 1_554
Pt5 Sc0 2.954810 1_545
