# generated using pymatgen
data_Tm2CdCu2
_symmetry_space_group_name_H-M   'P 1'
_cell_length_a   3.65771139
_cell_length_b   7.38116715
_cell_length_c   7.38116715
_cell_angle_alpha   90.00000000
_cell_angle_beta   90.00000000
_cell_angle_gamma   90.00000000
_symmetry_Int_Tables_number   1
_chemical_formula_structural   Tm2CdCu2
_chemical_formula_sum   'Tm4 Cd2 Cu4'
_cell_volume   199.27807310
_cell_formula_units_Z   2
loop_
 _symmetry_equiv_pos_site_id
 _symmetry_equiv_pos_as_xyz
  1  'x, y, z'
loop_
 _atom_site_type_symbol
 _atom_site_label
 _atom_site_symmetry_multiplicity
 _atom_site_fract_x
 _atom_site_fract_y
 _atom_site_fract_z
 _atom_site_occupancy
  Tm  Tm0  1  0.50000000  0.17383016  0.67383016  1
  Tm  Tm1  1  0.50000000  0.82616984  0.32616984  1
  Tm  Tm2  1  0.50000000  0.32616984  0.17383016  1
  Tm  Tm3  1  0.50000000  0.67383016  0.82616984  1
  Cd  Cd0  1  0.00000000  -0.00000000  -0.00000000  1
  Cd  Cd1  1  0.00000000  0.50000000  0.50000000  1
  Cu  Cu0  1  0.00000000  0.62038000  0.12038000  1
  Cu  Cu1  1  -0.00000000  0.37962000  0.87962000  1
  Cu  Cu2  1  0.00000000  0.87962000  0.62038000  1
  Cu  Cu3  1  -0.00000000  0.12038000  0.37962000  1
loop_
_geom_bond_atom_site_label_1
_geom_bond_atom_site_label_2
_geom_bond_distance
_geom_bond_site_symmetry_2
Cd0 Cu2 2.939546 1_544
Cd0 Cu1 2.939546 1_554
Cd0 Cu3 2.939546 1_555
Cd0 Cu0 2.939546 1_545
Cd0 Tm1 3.284373 1_445
Cd0 Tm1 3.284373 1_545
Cd0 Tm0 3.284373 1_554
Cd0 Tm3 3.284373 1_444
Cd0 Tm2 3.284373 1_555
Cd0 Tm3 3.284373 1_544
Cd0 Tm0 3.284373 1_454
Cd0 Tm2 3.284373 1_455
Cd1 Cu3 2.939546 1_555
Cd1 Cu0 2.939546 1_555
Cd1 Cu2 2.939546 1_555
Cd1 Cu1 2.939546 1_555
Cd1 Tm2 3.284373 1_555
Cd1 Tm2 3.284373 1_455
Cd1 Tm1 3.284373 1_555
Cd1 Tm0 3.284373 1_455
Cd1 Tm0 3.284373 1_555
Cd1 Tm1 3.284373 1_455
Cd1 Tm3 3.284373 1_455
Cd1 Tm3 3.284373 1_555
Cu0 Cu1 2.513185 1_554
Cu0 Tm1 2.821214 1_455
Cu0 Tm1 2.821214 1_555
Cu0 Tm3 2.866404 1_454
Cu0 Tm3 2.866404 1_554
Cu0 Tm2 2.866404 1_455
Cu0 Tm2 2.866404 1_555
Cu1 Tm0 2.821214 1_455
Cu1 Tm0 2.821214 1_555
Cu1 Tm2 2.866404 1_456
Cu1 Tm2 2.866404 1_556
Cu1 Tm3 2.866404 1_455
Cu1 Tm3 2.866404 1_555
Cu2 Cu3 2.513185 1_565
Cu2 Tm3 2.821214 1_455
Cu2 Tm3 2.821214 1_555
Cu2 Tm0 2.866404 1_565
Cu2 Tm0 2.866404 1_465
Cu2 Tm1 2.866404 1_555
Cu2 Tm1 2.866404 1_455
Cu3 Tm2 2.821214 1_555
Cu3 Tm2 2.821214 1_455
Cu3 Tm1 2.866404 1_445
Cu3 Tm1 2.866404 1_545
Cu3 Tm0 2.866404 1_455
Cu3 Tm0 2.866404 1_555
