# generated using pymatgen
data_CaLaMn2O6
_symmetry_space_group_name_H-M   'P 1'
_cell_length_a   5.35888626
_cell_length_b   8.05871367
_cell_length_c   5.39658913
_cell_angle_alpha   90.01883384
_cell_angle_beta   89.98256455
_cell_angle_gamma   90.32152328
_symmetry_Int_Tables_number   1
_chemical_formula_structural   CaLaMn2O6
_chemical_formula_sum   'Ca2 La2 Mn4 O12'
_cell_volume   233.05194843
_cell_formula_units_Z   2
loop_
 _symmetry_equiv_pos_site_id
 _symmetry_equiv_pos_as_xyz
  1  'x, y, z'
loop_
 _atom_site_type_symbol
 _atom_site_label
 _atom_site_symmetry_multiplicity
 _atom_site_fract_x
 _atom_site_fract_y
 _atom_site_fract_z
 _atom_site_occupancy
  Ca  Ca0  1  0.01423400  0.50048600  0.78769700  1
  Ca  Ca1  1  0.51415400  0.00040300  0.21227800  1
  La  La0  1  0.03057900  0.99942600  0.72066300  1
  La  La1  1  0.53040500  0.49933400  0.27933100  1
  Mn  Mn0  1  0.02276700  0.24934000  0.24965800  1
  Mn  Mn1  1  0.02340700  0.75027400  0.25026000  1
  Mn  Mn2  1  0.52367000  0.25022500  0.74950100  1
  Mn  Mn3  1  0.52291100  0.74949200  0.75044900  1
  O  O0  1  0.08702800  0.48772300  0.23508600  1
  O  O1  1  0.58707600  0.98784600  0.76498900  1
  O  O2  1  0.95047300  0.01210300  0.26053200  1
  O  O3  1  0.45063400  0.51208900  0.73934800  1
  O  O4  1  0.23538900  0.21480800  0.96406500  1
  O  O5  1  0.23772400  0.78420900  0.96250300  1
  O  O6  1  0.73765800  0.28422600  0.03744900  1
  O  O7  1  0.73511900  0.71500500  0.03620100  1
  O  O8  1  0.81218800  0.71010300  0.54067000  1
  O  O9  1  0.81414500  0.29141600  0.53810200  1
  O  O10  1  0.31409800  0.79141600  0.46186200  1
  O  O11  1  0.31214200  0.21007900  0.45935700  1
loop_
_geom_bond_atom_site_label_1
_geom_bond_atom_site_label_2
_geom_bond_distance
_geom_bond_site_symmetry_2
Ca0 O3 2.354389 1_555
Ca0 O9 2.404541 1_455
Ca0 O8 2.413695 1_455
Ca0 O0 2.448090 1_556
Ca0 O6 2.649894 1_456
Ca0 O7 2.655292 1_456
Ca0 O5 2.742382 1_555
Ca0 O4 2.764656 1_555
Ca0 O0 3.009302 1_555
Ca0 O3 3.033564 1_455
Ca1 O2 2.354079 1_555
Ca1 O10 2.404217 1_545
Ca1 O11 2.413124 1_555
Ca1 O1 2.447296 1_544
Ca1 O5 2.649050 1_544
Ca1 O4 2.653868 1_554
Ca1 O6 2.743393 1_555
Ca1 O7 2.761021 1_545
Ca1 O1 3.010170 1_545
Ca1 O2 3.033817 1_455
La0 O1 2.389922 1_455
La0 O4 2.433243 1_565
La0 O5 2.442865 1_555
La0 O2 2.522300 1_465
La0 O10 2.663594 1_555
La0 O11 2.668066 1_565
La0 O8 2.778129 1_455
La0 O9 2.808137 1_465
La0 O2 2.946600 1_466
La0 O1 2.993834 1_555
La1 O0 2.389354 1_555
La1 O7 2.434133 1_555
La1 O6 2.441655 1_555
La1 O3 2.521092 1_555
La1 O9 2.664783 1_555
La1 O8 2.669310 1_555
La1 O11 2.777733 1_555
La1 O10 2.807628 1_555
La1 O3 2.947294 1_554
La1 O0 2.994331 1_655
Mn0 O6 1.931581 1_455
Mn0 O4 1.937345 1_554
Mn0 O9 1.946985 1_455
Mn0 O11 1.947389 1_555
Mn0 O2 1.949450 1_455
Mn0 O0 1.951385 1_555
Mn1 O7 1.948823 1_455
Mn1 O5 1.949622 1_554
Mn1 O10 1.958480 1_555
Mn1 O8 1.958909 1_455
Mn1 O0 2.146536 1_555
Mn1 O2 2.148748 1_465
Mn2 O6 1.949893 1_556
Mn2 O4 1.950132 1_555
Mn2 O9 1.956561 1_555
Mn2 O11 1.959065 1_555
Mn2 O1 2.145107 1_545
Mn2 O3 2.149153 1_555
Mn3 O5 1.930552 1_555
Mn3 O7 1.937366 1_556
Mn3 O8 1.946724 1_555
Mn3 O10 1.948696 1_555
Mn3 O3 1.950749 1_555
Mn3 O1 1.951018 1_555
