# generated using pymatgen
data_Rb3Sb2I9
_symmetry_space_group_name_H-M   'P 1'
_cell_length_a   8.42643200
_cell_length_b   15.03050900
_cell_length_c   25.70601908
_cell_angle_alpha   55.30274705
_cell_angle_beta   90.00000000
_cell_angle_gamma   90.00000000
_symmetry_Int_Tables_number   1
_chemical_formula_structural   Rb3Sb2I9
_chemical_formula_sum   'Rb12 Sb8 I36'
_cell_volume   2676.79162308
_cell_formula_units_Z   4
loop_
 _symmetry_equiv_pos_site_id
 _symmetry_equiv_pos_as_xyz
  1  'x, y, z'
loop_
 _atom_site_type_symbol
 _atom_site_label
 _atom_site_symmetry_multiplicity
 _atom_site_fract_x
 _atom_site_fract_y
 _atom_site_fract_z
 _atom_site_occupancy
  Rb  Rb0  1  0.26249800  0.00336300  0.63443000  1
  Rb  Rb1  1  0.73750200  0.00336300  0.13443000  1
  Rb  Rb2  1  0.78678600  0.41837900  0.68053400  1
  Rb  Rb3  1  0.21321400  0.41837900  0.18053400  1
  Rb  Rb4  1  0.72414200  0.68596700  0.79646400  1
  Rb  Rb5  1  0.27585800  0.68596700  0.29646400  1
  Rb  Rb6  1  0.77155900  0.07050100  0.34916300  1
  Rb  Rb7  1  0.22844100  0.07050100  0.84916300  1
  Rb  Rb8  1  0.76002900  0.76101800  0.00709400  1
  Rb  Rb9  1  0.23997100  0.76101800  0.50709400  1
  Rb  Rb10  1  0.72375900  0.33950700  0.46517700  1
  Rb  Rb11  1  0.27624100  0.33950700  0.96517700  1
  Sb  Sb0  1  0.75552900  0.20903300  0.90987500  1
  Sb  Sb1  1  0.24447100  0.20903300  0.40987500  1
  Sb  Sb2  1  0.74307800  0.69857300  0.41362400  1
  Sb  Sb3  1  0.25692200  0.69857300  0.91362400  1
  Sb  Sb4  1  0.26011600  0.55324300  0.72993700  1
  Sb  Sb5  1  0.73988400  0.55324300  0.22993700  1
  Sb  Sb6  1  0.75328500  0.05310000  0.73028000  1
  Sb  Sb7  1  0.24671500  0.05310000  0.23028000  1
  I  I0  1  0.56856000  0.43249500  0.81572400  1
  I  I1  1  0.43144000  0.43249500  0.31572400  1
  I  I2  1  0.94854500  0.85619100  0.85126500  1
  I  I3  1  0.05145500  0.85619100  0.35126500  1
  I  I4  1  0.55112500  0.22379200  0.63240200  1
  I  I5  1  0.44887500  0.22379200  0.13240200  1
  I  I6  1  0.96207300  0.18666600  0.18277700  1
  I  I7  1  0.03792700  0.18666600  0.68277700  1
  I  I8  1  0.82091400  0.28697200  0.98832200  1
  I  I9  1  0.17908600  0.28697200  0.48832200  1
  I  I10  1  0.54373100  0.56671500  0.95813100  1
  I  I11  1  0.45626900  0.56671500  0.45813100  1
  I  I12  1  0.33302300  0.47799700  0.65094300  1
  I  I13  1  0.66697700  0.47799700  0.15094300  1
  I  I14  1  0.94515400  0.01304800  0.99048200  1
  I  I15  1  0.05484600  0.01304800  0.49048200  1
  I  I16  1  0.67098800  0.13562200  0.81760600  1
  I  I17  1  0.32901200  0.13562200  0.31760600  1
  I  I18  1  0.83237400  0.61949100  0.32517300  1
  I  I19  1  0.16762600  0.61949100  0.82517300  1
  I  I20  1  0.45354300  0.74811000  0.65382000  1
  I  I21  1  0.54645700  0.74811000  0.15382000  1
  I  I22  1  0.68758300  0.78290000  0.48992900  1
  I  I23  1  0.31241700  0.78290000  0.98992900  1
  I  I24  1  0.44374800  0.89976300  0.79347800  1
  I  I25  1  0.55625200  0.89976300  0.29347800  1
  I  I26  1  0.46658500  0.09822800  0.98026200  1
  I  I27  1  0.53341500  0.09822800  0.48026200  1
  I  I28  1  0.97643100  0.66730400  0.65649100  1
  I  I29  1  0.02356900  0.66730400  0.15649100  1
  I  I30  1  0.93147300  0.32813100  0.32422300  1
  I  I31  1  0.06852700  0.32813100  0.82422300  1
  I  I32  1  0.80954100  0.96589500  0.65540600  1
  I  I33  1  0.19045900  0.96589500  0.15540600  1
  I  I34  1  0.93754400  0.52309600  0.51258800  1
  I  I35  1  0.06245600  0.52309600  0.01258800  1
loop_
_geom_bond_atom_site_label_1
_geom_bond_atom_site_label_2
_geom_bond_distance
_geom_bond_site_symmetry_2
I0 Sb4 3.218021 1_555
I0 Sb0 3.219661 1_555
I0 Rb4 3.785642 1_555
I0 Rb2 4.042633 1_555
I0 Rb11 4.082575 1_555
I1 Sb5 3.218021 1_555
I1 Sb1 3.219661 1_555
I1 Rb5 3.785642 1_555
I1 Rb3 4.042633 1_555
I1 Rb10 4.082575 1_555
I2 Sb3 3.257439 1_655
I2 Sb6 3.264925 1_565
I2 Rb8 3.753926 1_556
I2 Rb7 3.967802 1_665
I2 Rb4 4.026119 1_555
I3 Sb2 3.257439 1_455
I3 Sb7 3.264925 1_565
I3 Rb9 3.753926 1_555
I3 Rb6 3.967802 1_465
I3 Rb5 4.026119 1_555
I4 Sb6 2.909565 1_555
I4 Rb10 3.886900 1_555
I4 Rb0 4.086343 1_555
I4 Rb2 4.260066 1_555
I5 Sb7 2.909565 1_555
I5 Rb11 3.886900 1_554
I5 Rb1 4.086343 1_555
I5 Rb3 4.260066 1_555
I6 Sb7 2.912623 1_655
I6 Rb6 3.926502 1_555
I6 Rb3 4.047561 1_655
I6 Rb1 4.076096 1_555
I7 Sb6 2.912623 1_455
I7 Rb7 3.926502 1_555
I7 Rb2 4.047561 1_455
I7 Rb0 4.076096 1_555
I8 Sb0 2.903766 1_555
I8 Rb1 3.813697 1_556
I8 Rb11 3.894038 1_655
I9 Sb1 2.903766 1_555
I9 Rb0 3.813697 1_555
I9 Rb10 3.894038 1_455
I10 Sb3 2.914822 1_555
I10 Rb4 3.783403 1_555
I10 Rb11 4.008944 1_555
I10 Rb8 4.197637 1_556
I11 Sb2 2.914822 1_555
I11 Rb5 3.783403 1_555
I11 Rb10 4.008944 1_555
I11 Rb9 4.197637 1_555
I12 Sb4 2.897345 1_555
I12 Rb9 3.804734 1_555
I12 Rb2 3.901988 1_555
I13 Sb5 2.897345 1_555
I13 Rb8 3.804734 1_555
I13 Rb3 3.901988 1_555
I14 Sb0 2.928319 1_555
I14 Rb8 3.888974 1_546
I14 Rb7 4.008659 1_655
I14 Rb1 4.020206 1_556
I15 Sb1 2.928319 1_555
I15 Rb9 3.888974 1_545
I15 Rb6 4.008659 1_455
I15 Rb0 4.020206 1_555
I16 Sb6 3.198190 1_555
I16 Sb0 3.214078 1_555
I16 Rb2 3.792249 1_555
I16 Rb7 3.823385 1_555
I17 Sb7 3.198190 1_555
I17 Sb1 3.214078 1_555
I17 Rb3 3.792249 1_555
I17 Rb6 3.823385 1_555
I18 Sb2 3.197776 1_555
I18 Sb5 3.219871 1_555
I18 Rb10 3.775855 1_555
I18 Rb5 3.829955 1_655
I19 Sb3 3.197776 1_555
I19 Sb4 3.219871 1_555
I19 Rb11 3.775855 1_555
I19 Rb4 3.829955 1_455
I20 Sb4 2.922201 1_555
I20 Rb0 3.922019 1_565
I20 Rb4 3.951952 1_555
I20 Rb9 4.082806 1_555
I21 Sb5 2.922201 1_555
I21 Rb1 3.922019 1_565
I21 Rb5 3.951952 1_555
I21 Rb8 4.082806 1_555
I22 Sb2 2.916005 1_555
I22 Rb9 3.789975 1_555
I22 Rb6 3.804304 1_565
I23 Sb3 2.916005 1_555
I23 Rb8 3.789975 1_556
I23 Rb7 3.804304 1_565
I24 Sb6 3.239061 1_565
I24 Sb3 3.244793 1_555
I24 Rb0 3.771613 1_565
I24 Rb4 3.953969 1_555
I24 Rb7 4.013547 1_565
I25 Sb7 3.239061 1_565
I25 Sb2 3.244793 1_555
I25 Rb1 3.771613 1_565
I25 Rb5 3.953969 1_555
I25 Rb6 4.013547 1_565
I26 Sb0 2.923171 1_555
I26 Rb11 3.778060 1_555
I26 Rb1 4.064110 1_556
I26 Rb7 4.142055 1_555
I27 Sb1 2.923171 1_555
I27 Rb10 3.778060 1_555
I27 Rb0 4.064110 1_555
I27 Rb6 4.142055 1_555
I28 Sb4 2.921123 1_655
I28 Rb2 3.781751 1_555
I28 Rb9 3.937727 1_655
I29 Sb5 2.921123 1_455
I29 Rb3 3.781751 1_555
I29 Rb8 3.937727 1_455
I30 Sb1 3.243646 1_655
I30 Sb5 3.254646 1_555
I30 Rb6 3.794103 1_555
I30 Rb3 3.926225 1_655
I30 Rb10 4.114228 1_555
I31 Sb0 3.243646 1_455
I31 Sb4 3.254646 1_555
I31 Rb7 3.794103 1_555
I31 Rb2 3.926225 1_455
I31 Rb11 4.114228 1_555
I32 Sb6 2.918802 1_565
I32 Rb4 3.741603 1_555
I32 Rb0 3.851004 1_665
I33 Sb7 2.918802 1_565
I33 Rb5 3.741603 1_555
I33 Rb1 3.851004 1_465
I34 Sb2 2.911102 1_555
I34 Rb2 3.872138 1_555
I34 Rb10 4.021668 1_555
I34 Rb9 4.327541 1_655
I35 Sb3 2.911102 1_554
I35 Rb3 3.872138 1_555
I35 Rb11 4.021668 1_554
I35 Rb8 4.327541 1_455
