# generated using pymatgen
data_Nb5Si6Mo5
_symmetry_space_group_name_H-M   'P 1'
_cell_length_a   5.04634900
_cell_length_b   7.40477669
_cell_length_c   7.39822097
_cell_angle_alpha   96.45567345
_cell_angle_beta   109.94094712
_cell_angle_gamma   70.07745541
_symmetry_Int_Tables_number   1
_chemical_formula_structural   Nb5Si6Mo5
_chemical_formula_sum   'Nb5 Si6 Mo5'
_cell_volume   244.32061088
_cell_formula_units_Z   1
loop_
 _symmetry_equiv_pos_site_id
 _symmetry_equiv_pos_as_xyz
  1  'x, y, z'
loop_
 _atom_site_type_symbol
 _atom_site_label
 _atom_site_symmetry_multiplicity
 _atom_site_fract_x
 _atom_site_fract_y
 _atom_site_fract_z
 _atom_site_occupancy
  Nb  Nb0  1  0.27790900  0.29826200  0.85408000  1
  Nb  Nb1  1  0.77708300  0.14638000  0.70054500  1
  Nb  Nb2  1  0.22429200  0.85203700  0.30062100  1
  Nb  Nb3  1  0.25060600  0.49988900  0.50056900  1
  Nb  Nb4  1  0.75007500  0.49988900  0.50056900  1
  Si  Si0  1  0.25418100  0.99668300  0.00116500  1
  Si  Si1  1  0.75030100  0.99668300  0.00116500  1
  Si  Si2  1  0.33007400  0.50177000  0.16191800  1
  Si  Si3  1  0.66870100  0.50385900  0.84126000  1
  Si  Si4  1  0.83057000  0.83564900  0.49678900  1
  Si  Si5  1  0.16776900  0.16359000  0.49912800  1
  Mo  Mo0  1  0.42406400  0.85454000  0.70266700  1
  Mo  Mo1  1  0.57180900  0.14831000  0.29192900  1
  Mo  Mo2  1  0.92497400  0.29634200  0.14628900  1
  Mo  Mo3  1  0.07395000  0.70601700  0.85391700  1
  Mo  Mo4  1  0.72364300  0.70010300  0.14738900  1
loop_
_geom_bond_atom_site_label_1
_geom_bond_atom_site_label_2
_geom_bond_distance
_geom_bond_site_symmetry_2
Nb0 Si2 2.572275 1_556
Nb0 Si5 2.644353 1_555
Nb0 Si0 2.646287 1_546
Nb0 Si1 2.646287 1_546
Nb0 Si3 2.902042 1_455
Nb0 Si3 2.902046 1_555
Nb1 Si4 2.591074 1_545
Nb1 Si0 2.656101 1_646
Nb1 Si1 2.656104 1_546
Nb1 Si3 2.678030 1_555
Nb1 Si5 2.888169 1_655
Nb1 Si5 2.888173 1_555
Nb2 Si5 2.575989 1_565
Nb2 Si2 2.626132 1_555
Nb2 Si0 2.636236 1_555
Nb2 Si1 2.636236 1_455
Nb2 Si4 2.870428 1_455
Nb2 Si4 2.870428 1_555
Nb3 Nb4 2.520495 1_555
Nb3 Nb4 2.525854 1_455
Nb3 Si4 2.656835 1_455
Nb3 Si5 2.660162 1_555
Nb3 Si2 2.671161 1_555
Nb3 Si3 2.683944 1_555
Nb4 Si4 2.656832 1_555
Nb4 Si5 2.660160 1_655
Nb4 Si2 2.671163 1_555
Nb4 Si3 2.683944 1_555
Si0 Si1 2.503595 1_555
Si0 Si1 2.542754 1_455
Mo0 Si5 2.570339 1_565
Mo0 Si3 2.620863 1_555
Mo0 Si1 2.621704 1_556
Mo0 Si0 2.621707 1_556
Mo0 Nb2 2.796221 1_555
Mo0 Si4 2.904373 1_555
Mo0 Si4 2.904378 1_455
Mo0 Nb3 3.112732 1_555
Mo0 Nb4 3.112732 1_555
Mo1 Si4 2.596356 1_545
Mo1 Si0 2.605498 1_545
Mo1 Si1 2.605501 1_545
Mo1 Si2 2.617892 1_555
Mo1 Nb1 2.841759 1_555
Mo1 Mo2 2.906097 1_455
Mo1 Mo2 2.906105 1_555
Mo1 Si5 2.907834 1_555
Mo1 Si5 2.907838 1_655
Mo1 Nb3 3.116826 1_555
Mo1 Nb4 3.116830 1_555
Mo1 Nb0 3.214831 1_554
Mo1 Nb2 3.259305 1_545
Mo1 Nb2 3.259309 1_645
Mo2 Si3 2.561454 1_554
Mo2 Si5 2.618435 1_655
Mo2 Si0 2.646684 1_645
Mo2 Si1 2.646687 1_545
Mo2 Mo4 2.810878 1_555
Mo2 Si2 2.902545 1_655
Mo2 Si2 2.902549 1_555
Mo2 Nb4 3.115055 1_555
Mo2 Nb3 3.115055 1_655
Mo2 Nb0 3.239789 1_654
Mo2 Nb0 3.239793 1_554
Mo2 Nb2 3.269684 1_645
Mo2 Nb1 3.275294 1_554
Mo3 Si2 2.565945 1_556
Mo3 Si0 2.603345 1_556
Mo3 Si1 2.603346 1_456
Mo3 Si4 2.638945 1_455
Mo3 Nb0 2.838635 1_555
Mo3 Si3 2.890646 1_455
Mo3 Si3 2.890651 1_555
Mo3 Nb4 3.118206 1_455
Mo3 Nb3 3.118208 1_555
Mo4 Si3 2.534571 1_554
Mo4 Si4 2.610502 1_555
Mo4 Si1 2.616507 1_555
Mo4 Si0 2.616508 1_555
Mo4 Si2 2.877815 1_555
Mo4 Si2 2.877815 1_655
Mo4 Nb2 2.937765 1_555
Mo4 Nb2 2.937765 1_655
Mo4 Nb4 3.088943 1_555
Mo4 Nb3 3.088946 1_655
