# generated using pymatgen
data_AcEu3
_symmetry_space_group_name_H-M   'P 1'
_cell_length_a   7.99991198
_cell_length_b   7.99991198
_cell_length_c   6.44120000
_cell_angle_alpha   90.00000000
_cell_angle_beta   90.00000000
_cell_angle_gamma   119.99999986
_symmetry_Int_Tables_number   1
_chemical_formula_structural   AcEu3
_chemical_formula_sum   'Ac2 Eu6'
_cell_volume   356.99968602
_cell_formula_units_Z   2
loop_
 _symmetry_equiv_pos_site_id
 _symmetry_equiv_pos_as_xyz
  1  'x, y, z'
loop_
 _atom_site_type_symbol
 _atom_site_label
 _atom_site_symmetry_multiplicity
 _atom_site_fract_x
 _atom_site_fract_y
 _atom_site_fract_z
 _atom_site_occupancy
  Ac  Ac0  1  0.33333300  0.66666700  0.75000000  1
  Ac  Ac1  1  0.66666700  0.33333300  0.25000000  1
  Eu  Eu0  1  0.16741900  0.33483800  0.25000000  1
  Eu  Eu1  1  0.66516200  0.83258100  0.25000000  1
  Eu  Eu2  1  0.16741900  0.83258100  0.25000000  1
  Eu  Eu3  1  0.83258100  0.66516200  0.75000000  1
  Eu  Eu4  1  0.33483800  0.16741900  0.75000000  1
  Eu  Eu5  1  0.83258100  0.16741900  0.75000000  1
loop_
_geom_bond_atom_site_label_1
_geom_bond_atom_site_label_2
_geom_bond_distance
_geom_bond_site_symmetry_2
Ac0 Eu2 3.956946 1_555
Ac0 Eu2 3.956946 1_556
Ac0 Eu1 3.956950 1_555
Ac0 Eu1 3.956950 1_556
Ac0 Eu0 3.956950 1_556
Ac0 Eu0 3.956950 1_555
Ac0 Eu4 3.999966 1_565
Ac0 Eu3 3.999966 1_455
Ac0 Eu5 3.999970 1_565
Ac0 Eu5 3.999970 1_455
Ac0 Eu3 3.999974 1_555
Ac0 Eu4 3.999974 1_555
Ac1 Eu5 3.956946 1_554
Ac1 Eu5 3.956946 1_555
Ac1 Eu4 3.956950 1_554
Ac1 Eu4 3.956950 1_555
Ac1 Eu3 3.956950 1_555
Ac1 Eu3 3.956950 1_554
Ac1 Eu0 3.999966 1_655
Ac1 Eu1 3.999966 1_545
Ac1 Eu2 3.999970 1_545
Ac1 Eu2 3.999970 1_655
Ac1 Eu1 3.999974 1_555
Ac1 Eu0 3.999974 1_555
Eu0 Eu4 3.969098 1_554
Eu0 Eu4 3.969098 1_555
Eu0 Eu5 3.969098 1_454
Eu0 Eu5 3.969098 1_455
Eu0 Eu2 3.981900 1_555
Eu0 Eu1 3.981900 1_555
Eu0 Eu2 4.018012 1_545
Eu0 Eu1 4.018012 1_445
Eu1 Eu3 3.969098 1_554
Eu1 Eu3 3.969098 1_555
Eu1 Eu5 3.969098 1_565
Eu1 Eu5 3.969098 1_564
Eu1 Eu2 3.981900 1_555
Eu1 Eu2 4.018012 1_655
Eu2 Eu4 3.969098 1_564
Eu2 Eu3 3.969098 1_455
Eu2 Eu3 3.969098 1_454
Eu2 Eu4 3.969098 1_565
Eu3 Eu5 3.981900 1_555
Eu3 Eu4 3.981900 1_555
Eu3 Eu5 4.018012 1_565
Eu3 Eu4 4.018012 1_665
Eu4 Eu5 3.981900 1_555
Eu4 Eu5 4.018012 1_455
