# generated using pymatgen
data_Sr2Al3Ge
_symmetry_space_group_name_H-M   'P 1'
_cell_length_a   4.41988192
_cell_length_b   4.41988192
_cell_length_c   9.62848600
_cell_angle_alpha   90.00000000
_cell_angle_beta   90.00000000
_cell_angle_gamma   119.99999878
_symmetry_Int_Tables_number   1
_chemical_formula_structural   Sr2Al3Ge
_chemical_formula_sum   'Sr2 Al3 Ge1'
_cell_volume   162.89583273
_cell_formula_units_Z   1
loop_
 _symmetry_equiv_pos_site_id
 _symmetry_equiv_pos_as_xyz
  1  'x, y, z'
loop_
 _atom_site_type_symbol
 _atom_site_label
 _atom_site_symmetry_multiplicity
 _atom_site_fract_x
 _atom_site_fract_y
 _atom_site_fract_z
 _atom_site_occupancy
  Sr  Sr0  1  0.33333300  0.66666700  0.25167200  1
  Sr  Sr1  1  0.33333300  0.66666700  0.74832800  1
  Al  Al0  1  0.66666700  0.33333300  0.50000000  1
  Al  Al1  1  0.00000000  0.00000000  0.00000000  1
  Al  Al2  1  0.00000000  0.00000000  0.50000000  1
  Ge  Ge0  1  0.66666700  0.33333300  0.00000000  1
loop_
_geom_bond_atom_site_label_1
_geom_bond_atom_site_label_2
_geom_bond_distance
_geom_bond_site_symmetry_2
Al0 Al2 2.551817 1_655
Al0 Al2 2.551821 1_555
Al0 Al2 2.551821 1_665
Al0 Sr0 3.496965 1_545
Al0 Sr1 3.496965 1_545
Al0 Sr0 3.496965 1_655
Al0 Sr1 3.496965 1_655
Al0 Sr1 3.496970 1_555
Al0 Sr0 3.496970 1_555
Al1 Ge0 2.551817 1_455
Al1 Ge0 2.551821 1_445
Al1 Ge0 2.551821 1_555
Al1 Sr0 3.519058 1_545
Al1 Sr1 3.519058 1_544
Al1 Sr0 3.519061 1_555
Al1 Sr0 3.519061 1_445
Al1 Sr1 3.519061 1_554
Al1 Sr1 3.519061 1_444
Al2 Sr1 3.496965 1_545
Al2 Sr0 3.496965 1_545
Al2 Sr0 3.496967 1_445
Al2 Sr1 3.496967 1_555
Al2 Sr1 3.496967 1_445
Al2 Sr0 3.496967 1_555
Ge0 Sr0 3.519058 1_545
Ge0 Sr1 3.519058 1_544
Ge0 Sr0 3.519058 1_655
Ge0 Sr1 3.519058 1_654
Ge0 Sr1 3.519064 1_554
Ge0 Sr0 3.519064 1_555
