# generated using pymatgen
data_Eu3Mg
_symmetry_space_group_name_H-M   'P 1'
_cell_length_a   14.22365310
_cell_length_b   14.23552239
_cell_length_c   14.23552239
_cell_angle_alpha   145.82995023
_cell_angle_beta   131.12271223
_cell_angle_gamma   60.99380812
_symmetry_Int_Tables_number   1
_chemical_formula_structural   Eu3Mg
_chemical_formula_sum   'Eu24 Mg8'
_cell_volume   1207.52158452
_cell_formula_units_Z   8
loop_
 _symmetry_equiv_pos_site_id
 _symmetry_equiv_pos_as_xyz
  1  'x, y, z'
loop_
 _atom_site_type_symbol
 _atom_site_label
 _atom_site_symmetry_multiplicity
 _atom_site_fract_x
 _atom_site_fract_y
 _atom_site_fract_z
 _atom_site_occupancy
  Eu  Eu0_0  1  0.40243938  0.36404969  0.03839019  1
  Eu  Eu0_1  1  0.40243938  0.36404969  0.53839019  1
  Eu  Eu0_2  1  0.40243938  0.86404969  0.03839019  1
  Eu  Eu0_3  1  0.40243938  0.86404969  0.53839019  1
  Eu  Eu0_4  1  0.90243938  0.36404969  0.03839019  1
  Eu  Eu0_5  1  0.90243938  0.36404969  0.53839019  1
  Eu  Eu0_6  1  0.90243938  0.86404969  0.03839019  1
  Eu  Eu0_7  1  0.90243938  0.86404969  0.53839019  1
  Eu  Eu1_0  1  0.04422473  0.25000633  0.29421840  1
  Eu  Eu1_1  1  0.04422473  0.25000633  0.79421840  1
  Eu  Eu1_2  1  0.04422473  0.75000633  0.29421840  1
  Eu  Eu1_3  1  0.04422473  0.75000633  0.79421840  1
  Eu  Eu1_4  1  0.54422472  0.25000633  0.29421840  1
  Eu  Eu1_5  1  0.54422472  0.25000633  0.79421840  1
  Eu  Eu1_6  1  0.54422473  0.75000633  0.29421840  1
  Eu  Eu1_7  1  0.54422473  0.75000633  0.79421840  1
  Eu  Eu2_0  1  0.17434407  0.13594103  0.03840304  1
  Eu  Eu2_1  1  0.17434407  0.13594103  0.53840305  1
  Eu  Eu2_2  1  0.17434407  0.63594103  0.03840304  1
  Eu  Eu2_3  1  0.17434407  0.63594103  0.53840305  1
  Eu  Eu2_4  1  0.67434407  0.13594102  0.03840304  1
  Eu  Eu2_5  1  0.67434407  0.13594103  0.53840305  1
  Eu  Eu2_6  1  0.67434407  0.63594103  0.03840304  1
  Eu  Eu2_7  1  0.67434407  0.63594103  0.53840304  1
  Mg  Mg0_0  1  0.29565482  0.00000295  0.29565187  1
  Mg  Mg0_1  1  0.29565482  0.00000296  0.79565187  1
  Mg  Mg0_2  1  0.29565482  0.50000296  0.29565186  1
  Mg  Mg0_3  1  0.29565482  0.50000296  0.79565186  1
  Mg  Mg0_4  1  0.79565482  0.00000295  0.29565187  1
  Mg  Mg0_5  1  0.79565482  0.00000295  0.79565186  1
  Mg  Mg0_6  1  0.79565482  0.50000296  0.29565187  1
  Mg  Mg0_7  1  0.79565482  0.50000296  0.79565186  1
loop_
_geom_bond_atom_site_label_1
_geom_bond_atom_site_label_2
_geom_bond_distance
_geom_bond_site_symmetry_2
Eu0_0 Mg0_2 3.493129 1_555
Eu0_0 Mg0_1 3.493132 1_554
Eu0_0 Eu2_7 3.650006 1_555
Eu0_0 Eu2_4 3.650008 1_555
Eu0_0 Eu2_2 3.650770 1_555
Eu0_0 Eu2_1 3.650772 1_554
Eu0_0 Eu1_6 3.936006 1_555
Eu0_0 Eu1_5 3.936009 1_554
Eu0_0 Eu1_1 4.008370 1_554
Eu0_0 Eu1_4 4.112608 1_555
Eu0_0 Eu0_3 4.182261 1_544
Eu0_0 Eu0_3 4.182261 1_555
Eu0_1 Mg0_3 3.493129 1_555
Eu0_1 Mg0_0 3.493132 1_555
Eu0_1 Eu2_6 3.650006 1_556
Eu0_1 Eu2_5 3.650008 1_555
Eu0_1 Eu2_3 3.650770 1_555
Eu0_1 Eu2_0 3.650772 1_555
Eu0_1 Eu1_7 3.936006 1_555
Eu0_1 Eu1_4 3.936009 1_555
Eu0_1 Eu1_0 4.008370 1_555
Eu0_1 Eu1_5 4.112608 1_555
Eu0_1 Eu0_2 4.182261 1_556
Eu0_1 Eu0_2 4.182261 1_545
Eu0_2 Mg0_0 3.493129 1_565
Eu0_2 Mg0_3 3.493132 1_554
Eu0_2 Eu2_5 3.650006 1_565
Eu0_2 Eu2_6 3.650008 1_555
Eu0_2 Eu2_0 3.650770 1_565
Eu0_2 Eu2_3 3.650772 1_554
Eu0_2 Eu1_4 3.936006 1_565
Eu0_2 Eu1_7 3.936009 1_554
Eu0_2 Eu1_3 4.008370 1_554
Eu0_2 Eu1_6 4.112608 1_555
Eu0_3 Mg0_1 3.493129 1_565
Eu0_3 Mg0_2 3.493132 1_555
Eu0_3 Eu2_4 3.650006 1_566
Eu0_3 Eu2_7 3.650008 1_555
Eu0_3 Eu2_1 3.650770 1_565
Eu0_3 Eu2_2 3.650772 1_555
Eu0_3 Eu1_5 3.936006 1_565
Eu0_3 Eu1_6 3.936009 1_555
Eu0_3 Eu1_2 4.008370 1_555
Eu0_3 Eu1_7 4.112608 1_555
Eu0_4 Mg0_6 3.493129 1_555
Eu0_4 Mg0_5 3.493132 1_554
Eu0_4 Eu2_3 3.650006 1_655
Eu0_4 Eu2_0 3.650008 1_655
Eu0_4 Eu2_6 3.650770 1_555
Eu0_4 Eu2_5 3.650772 1_554
Eu0_4 Eu1_2 3.936006 1_655
Eu0_4 Eu1_1 3.936009 1_654
Eu0_4 Eu1_5 4.008370 1_554
Eu0_4 Eu1_0 4.112608 1_655
Eu0_4 Eu0_7 4.182261 1_544
Eu0_4 Eu0_7 4.182261 1_555
Eu0_5 Mg0_7 3.493129 1_555
Eu0_5 Mg0_4 3.493132 1_555
Eu0_5 Eu2_2 3.650006 1_656
Eu0_5 Eu2_1 3.650008 1_655
Eu0_5 Eu2_7 3.650770 1_555
Eu0_5 Eu2_4 3.650772 1_555
Eu0_5 Eu1_3 3.936006 1_655
Eu0_5 Eu1_0 3.936009 1_655
Eu0_5 Eu1_4 4.008370 1_555
Eu0_5 Eu1_1 4.112608 1_655
Eu0_5 Eu0_6 4.182261 1_556
Eu0_5 Eu0_6 4.182261 1_545
Eu0_6 Mg0_4 3.493129 1_565
Eu0_6 Mg0_7 3.493132 1_554
Eu0_6 Eu2_1 3.650006 1_665
Eu0_6 Eu2_2 3.650008 1_655
Eu0_6 Eu2_4 3.650770 1_565
Eu0_6 Eu2_7 3.650772 1_554
Eu0_6 Eu1_0 3.936006 1_665
Eu0_6 Eu1_3 3.936009 1_654
Eu0_6 Eu1_7 4.008370 1_554
Eu0_6 Eu1_2 4.112608 1_655
Eu0_7 Mg0_5 3.493129 1_565
Eu0_7 Mg0_6 3.493132 1_555
Eu0_7 Eu2_0 3.650006 1_666
Eu0_7 Eu2_3 3.650008 1_655
Eu0_7 Eu2_5 3.650770 1_565
Eu0_7 Eu2_6 3.650772 1_555
Eu0_7 Eu1_1 3.936006 1_665
Eu0_7 Eu1_2 3.936009 1_655
Eu0_7 Eu1_6 4.008370 1_555
Eu0_7 Eu1_3 4.112608 1_655
Eu1_0 Mg0_6 3.596955 1_455
Eu1_0 Mg0_5 3.596955 1_454
Eu1_0 Mg0_3 3.624473 1_555
Eu1_0 Mg0_0 3.624473 1_555
Eu1_0 Eu2_0 3.935680 1_555
Eu1_0 Eu2_3 3.935680 1_555
Eu1_0 Eu2_1 4.013551 1_555
Eu1_0 Eu2_4 4.108070 1_455
Eu1_0 Eu1_3 4.182261 1_544
Eu1_0 Eu1_3 4.182261 1_555
Eu1_1 Mg0_7 3.596955 1_455
Eu1_1 Mg0_4 3.596955 1_455
Eu1_1 Mg0_2 3.624473 1_556
Eu1_1 Mg0_1 3.624473 1_555
Eu1_1 Eu2_1 3.935680 1_555
Eu1_1 Eu2_2 3.935680 1_556
Eu1_1 Eu2_0 4.013551 1_556
Eu1_1 Eu2_5 4.108070 1_455
Eu1_1 Eu1_2 4.182261 1_545
Eu1_1 Eu1_2 4.182261 1_556
Eu1_2 Mg0_4 3.596955 1_465
Eu1_2 Mg0_7 3.596955 1_454
Eu1_2 Mg0_2 3.624473 1_555
Eu1_2 Mg0_1 3.624473 1_565
Eu1_2 Eu2_2 3.935680 1_555
Eu1_2 Eu2_1 3.935680 1_565
Eu1_2 Eu2_3 4.013551 1_555
Eu1_2 Eu2_6 4.108070 1_455
Eu1_3 Mg0_6 3.596955 1_455
Eu1_3 Mg0_5 3.596955 1_465
Eu1_3 Mg0_0 3.624473 1_566
Eu1_3 Mg0_3 3.624473 1_555
Eu1_3 Eu2_0 3.935680 1_566
Eu1_3 Eu2_3 3.935680 1_555
Eu1_3 Eu2_2 4.013551 1_556
Eu1_3 Eu2_7 4.108070 1_455
Eu1_4 Mg0_1 3.596955 1_554
Eu1_4 Mg0_2 3.596955 1_555
Eu1_4 Mg0_7 3.624473 1_555
Eu1_4 Mg0_4 3.624473 1_555
Eu1_4 Eu2_4 3.935680 1_555
Eu1_4 Eu2_7 3.935680 1_555
Eu1_4 Eu2_5 4.013551 1_555
Eu1_4 Eu2_0 4.108070 1_555
Eu1_4 Eu1_7 4.182261 1_555
Eu1_4 Eu1_7 4.182261 1_544
Eu1_5 Mg0_0 3.596955 1_555
Eu1_5 Mg0_3 3.596955 1_555
Eu1_5 Mg0_5 3.624473 1_555
Eu1_5 Mg0_6 3.624473 1_556
Eu1_5 Eu2_6 3.935680 1_556
Eu1_5 Eu2_5 3.935680 1_555
Eu1_5 Eu2_4 4.013551 1_556
Eu1_5 Eu2_1 4.108070 1_555
Eu1_5 Eu1_6 4.182261 1_556
Eu1_5 Eu1_6 4.182261 1_545
Eu1_6 Mg0_0 3.596955 1_565
Eu1_6 Mg0_3 3.596955 1_554
Eu1_6 Mg0_5 3.624473 1_565
Eu1_6 Mg0_6 3.624473 1_555
Eu1_6 Eu2_6 3.935680 1_555
Eu1_6 Eu2_5 3.935680 1_565
Eu1_6 Eu2_7 4.013551 1_555
Eu1_6 Eu2_2 4.108070 1_555
Eu1_7 Mg0_1 3.596955 1_565
Eu1_7 Mg0_2 3.596955 1_555
Eu1_7 Mg0_7 3.624473 1_555
Eu1_7 Mg0_4 3.624473 1_566
Eu1_7 Eu2_4 3.935680 1_566
Eu1_7 Eu2_7 3.935680 1_555
Eu1_7 Eu2_6 4.013551 1_556
Eu1_7 Eu2_3 4.108070 1_555
Eu2_0 Mg0_1 3.493270 1_554
Eu2_0 Mg0_2 3.493270 1_555
Eu2_0 Eu2_3 4.182261 1_555
Eu2_0 Eu2_3 4.182261 1_544
Eu2_1 Mg0_0 3.493270 1_555
Eu2_1 Mg0_3 3.493270 1_555
Eu2_1 Eu2_2 4.182261 1_556
Eu2_1 Eu2_2 4.182261 1_545
Eu2_2 Mg0_0 3.493270 1_565
Eu2_2 Mg0_3 3.493270 1_554
Eu2_3 Mg0_1 3.493270 1_565
Eu2_3 Mg0_2 3.493270 1_555
Eu2_4 Mg0_5 3.493270 1_554
Eu2_4 Mg0_6 3.493270 1_555
Eu2_4 Eu2_7 4.182261 1_555
Eu2_4 Eu2_7 4.182261 1_544
Eu2_5 Mg0_4 3.493270 1_555
Eu2_5 Mg0_7 3.493270 1_555
Eu2_5 Eu2_6 4.182261 1_545
Eu2_5 Eu2_6 4.182261 1_556
Eu2_6 Mg0_4 3.493270 1_565
Eu2_6 Mg0_7 3.493270 1_554
Eu2_7 Mg0_6 3.493270 1_555
Eu2_7 Mg0_5 3.493270 1_565
