# generated using pymatgen
data_Mg2AsO5
_symmetry_space_group_name_H-M   'P 1'
_cell_length_a   6.17021500
_cell_length_b   8.42098400
_cell_length_c   8.46168000
_cell_angle_alpha   90.00000000
_cell_angle_beta   90.00000000
_cell_angle_gamma   90.00000000
_symmetry_Int_Tables_number   1
_chemical_formula_structural   Mg2AsO5
_chemical_formula_sum   'Mg8 As4 O20'
_cell_volume   439.66281555
_cell_formula_units_Z   4
loop_
 _symmetry_equiv_pos_site_id
 _symmetry_equiv_pos_as_xyz
  1  'x, y, z'
loop_
 _atom_site_type_symbol
 _atom_site_label
 _atom_site_symmetry_multiplicity
 _atom_site_fract_x
 _atom_site_fract_y
 _atom_site_fract_z
 _atom_site_occupancy
  Mg  Mg0  1  0.25296800  0.50000000  0.50000000  1
  Mg  Mg1  1  0.24703200  0.00000000  0.00000000  1
  Mg  Mg2  1  0.74703200  0.50000000  0.50000000  1
  Mg  Mg3  1  0.75296800  0.00000000  0.00000000  1
  Mg  Mg4  1  0.50000000  0.87087600  0.35612100  1
  Mg  Mg5  1  0.50000000  0.12912400  0.64387900  1
  Mg  Mg6  1  0.00000000  0.62912400  0.85612100  1
  Mg  Mg7  1  0.00000000  0.37087600  0.14387900  1
  As  As0  1  0.00000000  0.75152600  0.24418600  1
  As  As1  1  0.00000000  0.24847400  0.75581400  1
  As  As2  1  0.50000000  0.74847400  0.74418600  1
  As  As3  1  0.50000000  0.25152600  0.25581400  1
  O  O0  1  0.00000000  0.64268900  0.41666500  1
  O  O1  1  0.00000000  0.35731100  0.58333500  1
  O  O2  1  0.50000000  0.85731100  0.91666500  1
  O  O3  1  0.50000000  0.14268900  0.08333500  1
  O  O4  1  0.50000000  0.64149100  0.41596200  1
  O  O5  1  0.50000000  0.35850900  0.58403800  1
  O  O6  1  0.00000000  0.85850900  0.91596200  1
  O  O7  1  0.00000000  0.14149100  0.08403800  1
  O  O8  1  0.00000000  0.61064600  0.09756100  1
  O  O9  1  0.00000000  0.38935400  0.90243900  1
  O  O10  1  0.50000000  0.88935400  0.59756100  1
  O  O11  1  0.50000000  0.11064600  0.40243900  1
  O  O12  1  0.22502200  0.87029100  0.22324900  1
  O  O13  1  0.22502200  0.12970900  0.77675100  1
  O  O14  1  0.27497800  0.62970900  0.72324900  1
  O  O15  1  0.27497800  0.37029100  0.27675100  1
  O  O16  1  0.77497800  0.12970900  0.77675100  1
  O  O17  1  0.77497800  0.87029100  0.22324900  1
  O  O18  1  0.72502200  0.37029100  0.27675100  1
  O  O19  1  0.72502200  0.62970900  0.72324900  1
loop_
_geom_bond_atom_site_label_1
_geom_bond_atom_site_label_2
_geom_bond_distance
_geom_bond_site_symmetry_2
Mg0 O4 2.061221 1_555
Mg0 O5 2.061221 1_555
Mg0 O1 2.092211 1_555
Mg0 O0 2.092211 1_555
Mg0 O14 2.186336 1_555
Mg0 O15 2.186336 1_555
Mg1 O7 2.061221 1_555
Mg1 O6 2.061221 1_544
Mg1 O3 2.092211 1_555
Mg1 O2 2.092211 1_544
Mg1 O13 2.186336 1_554
Mg1 O12 2.186336 1_545
Mg2 O4 2.061221 1_555
Mg2 O5 2.061221 1_555
Mg2 O1 2.092211 1_655
Mg2 O0 2.092211 1_655
Mg2 O19 2.186336 1_555
Mg2 O18 2.186336 1_555
Mg3 O7 2.061221 1_655
Mg3 O6 2.061221 1_644
Mg3 O3 2.092211 1_555
Mg3 O2 2.092211 1_544
Mg3 O16 2.186336 1_554
Mg3 O17 2.186336 1_545
Mg4 O4 1.996912 1_555
Mg4 O12 2.035392 1_555
Mg4 O17 2.035392 1_555
Mg4 O10 2.048905 1_555
Mg4 O11 2.056786 1_565
Mg5 O5 1.996912 1_555
Mg5 O16 2.035392 1_555
Mg5 O13 2.035392 1_555
Mg5 O11 2.048905 1_555
Mg5 O10 2.056786 1_545
Mg6 O6 1.996912 1_555
Mg6 O14 2.035392 1_555
Mg6 O19 2.035392 1_455
Mg6 O8 2.048905 1_556
Mg6 O9 2.056786 1_555
Mg7 O7 1.996912 1_555
Mg7 O15 2.035392 1_555
Mg7 O18 2.035392 1_455
Mg7 O9 2.048905 1_554
Mg7 O8 2.056786 1_555
As0 O8 1.716608 1_555
As0 O12 1.720283 1_555
As0 O17 1.720283 1_455
As0 O0 1.723377 1_555
As1 O9 1.716608 1_555
As1 O13 1.720283 1_555
As1 O16 1.720283 1_455
As1 O1 1.723377 1_555
As2 O10 1.716608 1_555
As2 O19 1.720283 1_555
As2 O14 1.720283 1_555
As2 O2 1.723377 1_555
As3 O11 1.716608 1_555
As3 O18 1.720283 1_555
As3 O15 1.720283 1_555
As3 O3 1.723377 1_555
