# generated using pymatgen
data_NaEuDyFeO6
_symmetry_space_group_name_H-M   'P 1'
_cell_length_a   5.68950567
_cell_length_b   5.68950567
_cell_length_c   5.68950567
_cell_angle_alpha   60.00000000
_cell_angle_beta   60.00000000
_cell_angle_gamma   60.00000000
_symmetry_Int_Tables_number   1
_chemical_formula_structural   NaEuDyFeO6
_chemical_formula_sum   'Na1 Eu1 Dy1 Fe1 O6'
_cell_volume   130.22926984
_cell_formula_units_Z   1
loop_
 _symmetry_equiv_pos_site_id
 _symmetry_equiv_pos_as_xyz
  1  'x, y, z'
loop_
 _atom_site_type_symbol
 _atom_site_label
 _atom_site_symmetry_multiplicity
 _atom_site_fract_x
 _atom_site_fract_y
 _atom_site_fract_z
 _atom_site_occupancy
  Na  Na0  1  0.25000000  0.25000000  0.25000000  1
  Eu  Eu0  1  0.75000000  0.75000000  0.75000000  1
  Dy  Dy0  1  -0.00000000  -0.00000000  -0.00000000  1
  Fe  Fe0  1  0.50000000  0.50000000  0.50000000  1
  O  O0  1  0.73010329  0.26989671  0.26989671  1
  O  O1  1  0.26989671  0.73010329  0.73010329  1
  O  O2  1  0.73010329  0.26989671  0.73010329  1
  O  O3  1  0.26989671  0.73010329  0.26989671  1
  O  O4  1  0.73010329  0.73010329  0.26989671  1
  O  O5  1  0.26989671  0.26989671  0.73010329  1
loop_
_geom_bond_atom_site_label_1
_geom_bond_atom_site_label_2
_geom_bond_distance
_geom_bond_site_symmetry_2
Na0 O0 2.849254 1_555
Na0 O2 2.849254 1_554
Na0 O3 2.849254 1_555
Na0 O4 2.849254 1_545
Na0 O4 2.849254 1_455
Na0 O1 2.849254 1_554
Na0 O3 2.849254 1_545
Na0 O2 2.849254 1_455
Na0 O5 2.849254 1_555
Na0 O5 2.849254 1_554
Na0 O1 2.849254 1_545
Na0 O0 2.849254 1_455
Eu0 O5 2.849254 1_565
Eu0 O2 2.849254 1_555
Eu0 O2 2.849254 1_565
Eu0 O3 2.849254 1_556
Eu0 O0 2.849254 1_556
Eu0 O1 2.849254 1_555
Eu0 O4 2.849254 1_556
Eu0 O3 2.849254 1_655
Eu0 O0 2.849254 1_565
Eu0 O1 2.849254 1_655
Eu0 O5 2.849254 1_655
Eu0 O4 2.849254 1_555
Dy0 O0 2.171636 1_455
Dy0 O3 2.171636 1_545
Dy0 O5 2.171636 1_554
Dy0 O2 2.171636 1_454
Dy0 O4 2.171636 1_445
Dy0 O1 2.171636 1_544
Fe0 O2 1.851452 1_555
Fe0 O4 1.851452 1_555
Fe0 O1 1.851452 1_555
Fe0 O5 1.851452 1_555
Fe0 O3 1.851452 1_555
Fe0 O0 1.851452 1_555
