# generated using pymatgen
data_NaPO6
_symmetry_space_group_name_H-M   'P 1'
_cell_length_a   7.52041698
_cell_length_b   7.52041698
_cell_length_c   12.28513948
_cell_angle_alpha   66.20822483
_cell_angle_beta   66.20822483
_cell_angle_gamma   62.75620253
_symmetry_Int_Tables_number   1
_chemical_formula_structural   NaPO6
_chemical_formula_sum   'Na4 P4 O24'
_cell_volume   544.41722877
_cell_formula_units_Z   4
loop_
 _symmetry_equiv_pos_site_id
 _symmetry_equiv_pos_as_xyz
  1  'x, y, z'
loop_
 _atom_site_type_symbol
 _atom_site_label
 _atom_site_symmetry_multiplicity
 _atom_site_fract_x
 _atom_site_fract_y
 _atom_site_fract_z
 _atom_site_occupancy
  Na  Na0  1  0.36083900  0.16012700  0.25562800  1
  Na  Na1  1  0.63916100  0.83987300  0.74437200  1
  Na  Na2  1  0.83987300  0.63916100  0.24437200  1
  Na  Na3  1  0.16012700  0.36083900  0.75562800  1
  P  P0  1  0.87312800  0.14438300  0.10657500  1
  P  P1  1  0.12687200  0.85561700  0.89342500  1
  P  P2  1  0.85561700  0.12687200  0.39342500  1
  P  P3  1  0.14438300  0.87312800  0.60657500  1
  O  O0  1  0.73605000  0.98115500  0.46893000  1
  O  O1  1  0.26395000  0.01884500  0.53107000  1
  O  O2  1  0.01884500  0.26395000  0.03107000  1
  O  O3  1  0.98115500  0.73605000  0.96893000  1
  O  O4  1  0.46151100  0.72242900  0.10020700  1
  O  O5  1  0.53848900  0.27757100  0.89979300  1
  O  O6  1  0.27757100  0.53848900  0.39979300  1
  O  O7  1  0.72242900  0.46151100  0.60020700  1
  O  O8  1  0.64440600  0.25230800  0.14056300  1
  O  O9  1  0.35559400  0.74769200  0.85943700  1
  O  O10  1  0.74769200  0.35559400  0.35943700  1
  O  O11  1  0.25230800  0.64440600  0.64056300  1
  O  O12  1  0.54032700  0.81498600  0.11991400  1
  O  O13  1  0.45967300  0.18501400  0.88008600  1
  O  O14  1  0.18501400  0.45967300  0.38008600  1
  O  O15  1  0.81498600  0.54032700  0.61991400  1
  O  O16  1  0.91341800  0.96690900  0.65211300  1
  O  O17  1  0.08658200  0.03309100  0.34788700  1
  O  O18  1  0.03309100  0.08658200  0.84788700  1
  O  O19  1  0.96690900  0.91341800  0.15211300  1
  O  O20  1  0.53801600  0.86490900  0.38995400  1
  O  O21  1  0.46198400  0.13509100  0.61004600  1
  O  O22  1  0.13509100  0.46198400  0.11004600  1
  O  O23  1  0.86490900  0.53801600  0.88995400  1
loop_
_geom_bond_atom_site_label_1
_geom_bond_atom_site_label_2
_geom_bond_distance
_geom_bond_site_symmetry_2
Na0 O8 2.270948 1_555
Na0 O17 2.344283 1_555
Na0 O20 2.353159 1_545
Na0 O22 2.622939 1_555
Na0 O14 2.753462 1_555
Na1 O9 2.270948 1_555
Na1 O16 2.344283 1_555
Na1 O21 2.353159 1_565
Na1 O23 2.622939 1_555
Na1 O15 2.753462 1_555
Na2 O10 2.270948 1_555
Na2 O19 2.344283 1_555
Na2 O22 2.353159 1_655
Na2 O20 2.622939 1_555
Na2 O12 2.753462 1_555
Na3 O11 2.270948 1_555
Na3 O18 2.344283 1_555
Na3 O23 2.353159 1_455
Na3 O21 2.622939 1_555
Na3 O13 2.753462 1_555
O0 P2 1.509614 1_565
O1 P3 1.509614 1_545
O2 P0 1.509614 1_455
O3 P1 1.509614 1_655
O8 P0 1.485784 1_555
O9 P1 1.485784 1_555
O10 P2 1.485784 1_555
O11 P3 1.485784 1_555
O12 O4 1.234479 1_555
O13 O5 1.234479 1_555
O14 O6 1.234479 1_555
O15 O7 1.234479 1_555
O16 P3 1.496709 1_655
O17 P2 1.496709 1_455
O18 P1 1.496709 1_545
O19 P0 1.496709 1_565
