# generated using pymatgen
data_LuMg149
_symmetry_space_group_name_H-M   'P 1'
_cell_length_a   16.00946021
_cell_length_b   16.00946461
_cell_length_c   15.64416651
_cell_angle_alpha   90.00000000
_cell_angle_beta   90.00000000
_cell_angle_gamma   120.00001138
_symmetry_Int_Tables_number   1
_chemical_formula_structural   LuMg149
_chemical_formula_sum   'Lu1 Mg149'
_cell_volume   3472.45406230
_cell_formula_units_Z   1
loop_
 _symmetry_equiv_pos_site_id
 _symmetry_equiv_pos_as_xyz
  1  'x, y, z'
loop_
 _atom_site_type_symbol
 _atom_site_label
 _atom_site_symmetry_multiplicity
 _atom_site_fract_x
 _atom_site_fract_y
 _atom_site_fract_z
 _atom_site_occupancy
  Lu  Lu0  1  0.00000000  0.00000000  0.00000000  1
  Mg  Mg0  1  0.59994833  0.19989567  0.00000000  1
  Mg  Mg1  1  0.40094992  0.20047496  0.00000000  1
  Mg  Mg2  1  0.79952504  0.20047496  0.00000000  1
  Mg  Mg3  1  0.20126107  0.20362609  0.00000000  1
  Mg  Mg4  1  0.00236401  0.20362609  0.00000000  1
  Mg  Mg5  1  0.00012857  0.39997281  0.00000000  1
  Mg  Mg6  1  0.39984523  0.39997281  0.00000000  1
  Mg  Mg7  1  0.80010433  0.40005167  0.00000000  1
  Mg  Mg8  1  0.59994833  0.40005167  0.00000000  1
  Mg  Mg9  1  0.20128340  0.40256579  0.00000000  1
  Mg  Mg10  1  0.79952504  0.59905008  0.00000000  1
  Mg  Mg11  1  0.20034325  0.60017163  0.00000000  1
  Mg  Mg12  1  0.39982837  0.60017163  0.00000000  1
  Mg  Mg13  1  0.00012857  0.60015577  0.00000000  1
  Mg  Mg14  1  0.60002719  0.60015577  0.00000000  1
  Mg  Mg15  1  0.20128340  0.79871660  0.00000000  1
  Mg  Mg16  1  0.59743421  0.79871660  0.00000000  1
  Mg  Mg17  1  0.00236401  0.79873793  0.00000000  1
  Mg  Mg18  1  0.79637391  0.79873793  0.00000000  1
  Mg  Mg19  1  0.39982837  0.79965675  0.00000000  1
  Mg  Mg20  1  0.20126107  0.99763499  0.00000000  1
  Mg  Mg21  1  0.79637391  0.99763599  0.00000000  1
  Mg  Mg22  1  0.60002719  0.99987143  0.00000000  1
  Mg  Mg23  1  0.39984523  0.99987243  0.00000000  1
  Mg  Mg24  1  0.86784586  0.13215414  0.16501377  1
  Mg  Mg25  1  0.26430928  0.13215414  0.16501377  1
  Mg  Mg26  1  0.86784586  0.73569172  0.16501377  1
  Mg  Mg27  1  0.66666700  0.33333300  0.16619146  1
  Mg  Mg28  1  0.66721614  0.13294979  0.16651005  1
  Mg  Mg29  1  0.46573365  0.13294979  0.16651005  1
  Mg  Mg30  1  0.46573365  0.33278386  0.16651005  1
  Mg  Mg31  1  0.86705021  0.33278386  0.16651005  1
  Mg  Mg32  1  0.66721614  0.53426635  0.16651005  1
  Mg  Mg33  1  0.86705021  0.53426635  0.16651005  1
  Mg  Mg34  1  0.06665954  0.53332977  0.16713158  1
  Mg  Mg35  1  0.46667023  0.53333077  0.16713158  1
  Mg  Mg36  1  0.46667023  0.93333946  0.16713158  1
  Mg  Mg37  1  0.26705422  0.53410943  0.16729532  1
  Mg  Mg38  1  0.46589057  0.73294578  0.16729532  1
  Mg  Mg39  1  0.26705422  0.73294578  0.16729532  1
  Mg  Mg40  1  0.06777124  0.33521323  0.16748573  1
  Mg  Mg41  1  0.26744199  0.33521323  0.16748573  1
  Mg  Mg42  1  0.06777124  0.73255801  0.16748573  1
  Mg  Mg43  1  0.66478677  0.73255801  0.16748573  1
  Mg  Mg44  1  0.66478677  0.93222876  0.16748573  1
  Mg  Mg45  1  0.26744199  0.93222876  0.16748573  1
  Mg  Mg46  1  0.06753648  0.13507296  0.16867632  1
  Mg  Mg47  1  0.86492704  0.93246352  0.16867632  1
  Mg  Mg48  1  0.06753648  0.93246352  0.16867632  1
  Mg  Mg49  1  0.60001137  0.20002273  0.33285738  1
  Mg  Mg50  1  0.60001137  0.39998863  0.33285738  1
  Mg  Mg51  1  0.79997727  0.39998863  0.33285738  1
  Mg  Mg52  1  0.80010751  0.19989249  0.33292156  1
  Mg  Mg53  1  0.39978499  0.19989249  0.33292156  1
  Mg  Mg54  1  0.80010751  0.60021501  0.33292156  1
  Mg  Mg55  1  0.00001122  0.20036216  0.33332950  1
  Mg  Mg56  1  0.20035094  0.20036216  0.33332950  1
  Mg  Mg57  1  0.00001122  0.79964906  0.33332950  1
  Mg  Mg58  1  0.79963784  0.79964906  0.33332950  1
  Mg  Mg59  1  0.20035094  0.99998878  0.33332950  1
  Mg  Mg60  1  0.79963784  0.99998878  0.33332950  1
  Mg  Mg61  1  0.59983695  0.00017891  0.33364934  1
  Mg  Mg62  1  0.40034096  0.00017891  0.33364934  1
  Mg  Mg63  1  0.99982109  0.40016205  0.33364934  1
  Mg  Mg64  1  0.40034096  0.40016305  0.33364934  1
  Mg  Mg65  1  0.99982109  0.59965904  0.33364934  1
  Mg  Mg66  1  0.59983695  0.59965904  0.33364934  1
  Mg  Mg67  1  0.19988053  0.59994027  0.33370786  1
  Mg  Mg68  1  0.40005973  0.59994127  0.33370786  1
  Mg  Mg69  1  0.40005973  0.80011947  0.33370786  1
  Mg  Mg70  1  0.20020993  0.40041985  0.33403517  1
  Mg  Mg71  1  0.20020993  0.79979007  0.33403517  1
  Mg  Mg72  1  0.59958015  0.79979007  0.33403517  1
  Mg  Mg73  1  0.00000000  0.00000000  0.33457339  1
  Mg  Mg74  1  0.86652805  0.13347195  0.50000000  1
  Mg  Mg75  1  0.26694290  0.13347195  0.50000000  1
  Mg  Mg76  1  0.06677409  0.13354818  0.50000000  1
  Mg  Mg77  1  0.46700526  0.13403215  0.50000000  1
  Mg  Mg78  1  0.66702689  0.13403215  0.50000000  1
  Mg  Mg79  1  0.46700526  0.33297311  0.50000000  1
  Mg  Mg80  1  0.86596785  0.33297311  0.50000000  1
  Mg  Mg81  1  0.66666700  0.33333300  0.50000000  1
  Mg  Mg82  1  0.26677107  0.33349287  0.50000000  1
  Mg  Mg83  1  0.06672180  0.33349287  0.50000000  1
  Mg  Mg84  1  0.66702689  0.53299474  0.50000000  1
  Mg  Mg85  1  0.86596785  0.53299474  0.50000000  1
  Mg  Mg86  1  0.06619323  0.53309612  0.50000000  1
  Mg  Mg87  1  0.46690388  0.53309612  0.50000000  1
  Mg  Mg88  1  0.26672863  0.53345727  0.50000000  1
  Mg  Mg89  1  0.86652805  0.73305710  0.50000000  1
  Mg  Mg90  1  0.66650713  0.73322793  0.50000000  1
  Mg  Mg91  1  0.06672180  0.73322893  0.50000000  1
  Mg  Mg92  1  0.46654273  0.73327137  0.50000000  1
  Mg  Mg93  1  0.26672863  0.73327137  0.50000000  1
  Mg  Mg94  1  0.86645082  0.93322591  0.50000000  1
  Mg  Mg95  1  0.06677409  0.93322591  0.50000000  1
  Mg  Mg96  1  0.26677107  0.93327820  0.50000000  1
  Mg  Mg97  1  0.66650713  0.93327820  0.50000000  1
  Mg  Mg98  1  0.46690388  0.93380777  0.50000000  1
  Mg  Mg99  1  0.00000000  0.00000000  0.66542561  1
  Mg  Mg100  1  0.20020993  0.40041985  0.66596483  1
  Mg  Mg101  1  0.20020993  0.79979007  0.66596483  1
  Mg  Mg102  1  0.59958015  0.79979007  0.66596483  1
  Mg  Mg103  1  0.19988053  0.59994027  0.66629314  1
  Mg  Mg104  1  0.40005973  0.59994127  0.66629314  1
  Mg  Mg105  1  0.40005973  0.80011947  0.66629314  1
  Mg  Mg106  1  0.59983695  0.00017891  0.66635166  1
  Mg  Mg107  1  0.40034096  0.00017891  0.66635166  1
  Mg  Mg108  1  0.99982109  0.40016205  0.66635166  1
  Mg  Mg109  1  0.40034096  0.40016305  0.66635166  1
  Mg  Mg110  1  0.99982109  0.59965904  0.66635166  1
  Mg  Mg111  1  0.59983695  0.59965904  0.66635166  1
  Mg  Mg112  1  0.00001122  0.20036216  0.66667050  1
  Mg  Mg113  1  0.20035094  0.20036216  0.66667050  1
  Mg  Mg114  1  0.00001122  0.79964906  0.66667050  1
  Mg  Mg115  1  0.79963784  0.79964906  0.66667050  1
  Mg  Mg116  1  0.20035094  0.99998878  0.66667050  1
  Mg  Mg117  1  0.79963784  0.99998878  0.66667050  1
  Mg  Mg118  1  0.80010751  0.19989249  0.66707844  1
  Mg  Mg119  1  0.39978499  0.19989249  0.66707844  1
  Mg  Mg120  1  0.80010751  0.60021501  0.66707844  1
  Mg  Mg121  1  0.60001137  0.20002273  0.66714162  1
  Mg  Mg122  1  0.60001137  0.39998863  0.66714162  1
  Mg  Mg123  1  0.79997727  0.39998863  0.66714162  1
  Mg  Mg124  1  0.06753648  0.13507296  0.83132368  1
  Mg  Mg125  1  0.86492704  0.93246352  0.83132368  1
  Mg  Mg126  1  0.06753648  0.93246352  0.83132368  1
  Mg  Mg127  1  0.06777124  0.33521323  0.83251427  1
  Mg  Mg128  1  0.26744199  0.33521323  0.83251427  1
  Mg  Mg129  1  0.06777124  0.73255801  0.83251427  1
  Mg  Mg130  1  0.66478677  0.73255801  0.83251427  1
  Mg  Mg131  1  0.66478677  0.93222876  0.83251427  1
  Mg  Mg132  1  0.26744199  0.93222876  0.83251427  1
  Mg  Mg133  1  0.26705422  0.53410943  0.83270468  1
  Mg  Mg134  1  0.46589057  0.73294578  0.83270468  1
  Mg  Mg135  1  0.26705422  0.73294578  0.83270468  1
  Mg  Mg136  1  0.06665954  0.53332977  0.83286842  1
  Mg  Mg137  1  0.46667023  0.53333077  0.83286842  1
  Mg  Mg138  1  0.46667023  0.93333946  0.83286842  1
  Mg  Mg139  1  0.66721614  0.13294979  0.83348995  1
  Mg  Mg140  1  0.46573365  0.13294979  0.83348995  1
  Mg  Mg141  1  0.46573365  0.33278386  0.83348995  1
  Mg  Mg142  1  0.86705021  0.33278386  0.83348995  1
  Mg  Mg143  1  0.66721614  0.53426635  0.83348995  1
  Mg  Mg144  1  0.86705021  0.53426635  0.83348995  1
  Mg  Mg145  1  0.66666700  0.33333300  0.83380854  1
  Mg  Mg146  1  0.86784586  0.13215414  0.83498523  1
  Mg  Mg147  1  0.26430928  0.13215414  0.83498523  1
  Mg  Mg148  1  0.86784586  0.73569172  0.83498523  1
loop_
_geom_bond_atom_site_label_1
_geom_bond_atom_site_label_2
_geom_bond_distance
_geom_bond_site_symmetry_2
Lu0 Mg125 3.235799 1_444
Lu0 Mg47 3.235799 1_445
Lu0 Mg46 3.235799 1_555
Lu0 Mg124 3.235799 1_554
Lu0 Mg126 3.235799 1_544
Lu0 Mg48 3.235799 1_545
Lu0 Mg3 3.241178 1_555
Lu0 Mg20 3.241178 1_545
Lu0 Mg18 3.241186 1_445
Lu0 Mg21 3.241186 1_445
Lu0 Mg17 3.241187 1_545
Lu0 Mg4 3.241187 1_555
Mg0 Mg2 3.190488 1_555
Mg0 Mg1 3.190504 1_555
Mg0 Mg145 3.190976 1_554
Mg0 Mg27 3.190976 1_555
Mg0 Mg139 3.201284 1_554
Mg0 Mg28 3.201284 1_555
Mg0 Mg140 3.201291 1_554
Mg0 Mg29 3.201291 1_555
Mg0 Mg23 3.202903 1_545
Mg0 Mg22 3.202912 1_545
Mg0 Mg7 3.204389 1_555
Mg0 Mg8 3.204390 1_555
Mg1 Mg141 3.186080 1_554
Mg1 Mg30 3.186080 1_555
Mg1 Mg140 3.186080 1_554
Mg1 Mg29 3.186080 1_555
Mg1 Mg8 3.190496 1_555
Mg1 Mg25 3.202056 1_555
Mg1 Mg147 3.202069 1_554
Mg1 Mg23 3.202733 1_545
Mg1 Mg6 3.202733 1_555
Mg1 Mg20 3.222431 1_545
Mg1 Mg3 3.222431 1_555
Mg2 Mg28 3.186079 1_555
Mg2 Mg31 3.186080 1_555
Mg2 Mg7 3.190489 1_555
Mg2 Mg24 3.202065 1_555
Mg2 Mg5 3.202740 1_655
Mg2 Mg22 3.202740 1_545
Mg2 Mg4 3.222415 1_655
Mg2 Mg21 3.222416 1_545
Mg3 Mg6 3.161467 1_555
Mg3 Mg4 3.184235 1_555
Mg3 Mg9 3.184739 1_555
Mg3 Mg41 3.192773 1_555
Mg3 Mg46 3.225129 1_555
Mg4 Mg5 3.161452 1_555
Mg4 Mg9 3.184755 1_555
Mg4 Mg40 3.192773 1_555
Mg4 Mg46 3.225137 1_555
Mg5 Mg9 3.199826 1_555
Mg5 Mg7 3.202912 1_455
Mg6 Mg9 3.199826 1_555
Mg6 Mg8 3.202912 1_555
Mg7 Mg8 3.204390 1_555
Mg10 Mg143 3.186079 1_554
Mg10 Mg32 3.186079 1_555
Mg10 Mg144 3.186080 1_554
Mg10 Mg33 3.186080 1_555
Mg10 Mg8 3.190496 1_555
Mg10 Mg7 3.190505 1_555
Mg10 Mg26 3.202065 1_555
Mg10 Mg148 3.202077 1_554
Mg10 Mg13 3.202740 1_655
Mg10 Mg14 3.202740 1_555
Mg10 Mg17 3.222415 1_655
Mg10 Mg18 3.222416 1_555
Mg11 Mg15 3.171100 1_555
Mg11 Mg9 3.171116 1_555
Mg11 Mg19 3.193649 1_555
Mg11 Mg12 3.193649 1_555
Mg11 Mg37 3.199759 1_555
Mg11 Mg133 3.199759 1_554
Mg11 Mg39 3.199767 1_555
Mg11 Mg135 3.199767 1_554
Mg11 Mg136 3.204944 1_554
Mg11 Mg34 3.204944 1_555
Mg11 Mg5 3.205202 1_555
Mg11 Mg13 3.205202 1_555
Mg12 Mg9 3.171107 1_555
Mg12 Mg16 3.171107 1_555
Mg12 Mg19 3.193650 1_555
Mg12 Mg37 3.199767 1_555
Mg12 Mg133 3.199767 1_554
Mg12 Mg38 3.199767 1_555
Mg12 Mg134 3.199767 1_554
Mg12 Mg137 3.204936 1_554
Mg12 Mg35 3.204936 1_555
Mg12 Mg14 3.205202 1_555
Mg12 Mg6 3.205211 1_555
Mg13 Mg17 3.161452 1_555
Mg13 Mg144 3.192175 1_454
Mg13 Mg33 3.192175 1_455
Mg13 Mg42 3.199321 1_555
Mg13 Mg15 3.199818 1_555
Mg13 Mg136 3.202328 1_554
Mg13 Mg34 3.202328 1_555
Mg13 Mg7 3.202919 1_455
Mg13 Mg5 3.204822 1_555
Mg14 Mg18 3.161451 1_555
Mg14 Mg143 3.192175 1_554
Mg14 Mg32 3.192175 1_555
Mg14 Mg43 3.199322 1_555
Mg14 Mg16 3.199811 1_555
Mg14 Mg35 3.202327 1_555
Mg14 Mg8 3.202928 1_555
Mg14 Mg6 3.204813 1_555
Mg15 Mg19 3.171099 1_555
Mg15 Mg20 3.184756 1_555
Mg15 Mg17 3.184763 1_555
Mg15 Mg39 3.189962 1_555
Mg15 Mg23 3.199834 1_555
Mg15 Mg42 3.208107 1_555
Mg15 Mg45 3.208107 1_555
Mg16 Mg19 3.171115 1_555
Mg16 Mg18 3.184746 1_555
Mg16 Mg21 3.184755 1_555
Mg16 Mg38 3.189978 1_555
Mg16 Mg22 3.199827 1_555
Mg16 Mg43 3.208099 1_555
Mg16 Mg44 3.208107 1_555
Mg17 Mg20 3.184234 1_555
Mg17 Mg26 3.185448 1_455
Mg17 Mg42 3.192773 1_555
Mg17 Mg48 3.225137 1_555
Mg17 Mg18 3.297790 1_455
Mg18 Mg21 3.184251 1_555
Mg18 Mg26 3.185449 1_555
Mg18 Mg43 3.192773 1_555
Mg18 Mg47 3.225137 1_555
Mg19 Mg38 3.199759 1_555
Mg19 Mg39 3.199767 1_555
Mg19 Mg36 3.204936 1_555
Mg19 Mg22 3.205202 1_555
Mg19 Mg23 3.205211 1_555
Mg20 Mg23 3.161467 1_555
Mg20 Mg25 3.185456 1_565
Mg20 Mg45 3.192773 1_555
Mg20 Mg48 3.225129 1_555
Mg20 Mg3 3.297807 1_565
Mg21 Mg22 3.161451 1_555
Mg21 Mg24 3.185449 1_565
Mg21 Mg44 3.192773 1_555
Mg21 Mg47 3.225137 1_555
Mg21 Mg4 3.297790 1_665
Mg22 Mg28 3.192175 1_565
Mg22 Mg44 3.199322 1_555
Mg22 Mg36 3.202327 1_555
Mg22 Mg23 3.204813 1_555
Mg23 Mg29 3.192167 1_565
Mg23 Mg45 3.199329 1_555
Mg23 Mg36 3.202336 1_555
Mg24 Mg46 3.174350 1_655
Mg24 Mg47 3.174351 1_545
Mg24 Mg4 3.185448 1_655
Mg24 Mg55 3.208184 1_655
Mg24 Mg60 3.208185 1_545
Mg24 Mg28 3.218447 1_555
Mg24 Mg31 3.218447 1_555
Mg24 Mg44 3.226306 1_545
Mg24 Mg40 3.226306 1_655
Mg24 Mg52 3.229255 1_555
Mg25 Mg48 3.174358 1_545
Mg25 Mg46 3.174366 1_555
Mg25 Mg3 3.185465 1_555
Mg25 Mg59 3.208185 1_545
Mg25 Mg56 3.208193 1_555
Mg25 Mg29 3.218431 1_555
Mg25 Mg30 3.218438 1_555
Mg25 Mg45 3.226299 1_545
Mg25 Mg41 3.226315 1_555
Mg25 Mg53 3.229246 1_555
Mg26 Mg48 3.174350 1_655
Mg26 Mg47 3.174351 1_555
Mg26 Mg57 3.208184 1_655
Mg26 Mg58 3.208185 1_555
Mg26 Mg32 3.218446 1_555
Mg26 Mg33 3.218447 1_555
Mg26 Mg43 3.226306 1_555
Mg26 Mg42 3.226306 1_655
Mg26 Mg54 3.229255 1_555
Mg27 Mg7 3.190975 1_555
Mg27 Mg8 3.190976 1_555
Mg27 Mg51 3.196007 1_555
Mg27 Mg49 3.196007 1_555
Mg27 Mg50 3.196015 1_555
Mg27 Mg31 3.212436 1_555
Mg27 Mg28 3.212437 1_555
Mg27 Mg29 3.212444 1_555
Mg27 Mg33 3.212444 1_555
Mg27 Mg30 3.212452 1_555
Mg27 Mg32 3.212453 1_555
Mg28 Mg52 3.189412 1_555
Mg28 Mg44 3.194204 1_545
Mg28 Mg61 3.197780 1_555
Mg28 Mg31 3.199235 1_555
Mg28 Mg49 3.199728 1_555
Mg28 Mg36 3.203184 1_545
Mg28 Mg29 3.225626 1_555
Mg29 Mg53 3.189412 1_555
Mg29 Mg45 3.194203 1_545
Mg29 Mg62 3.197780 1_555
Mg29 Mg30 3.199236 1_555
Mg29 Mg49 3.199728 1_555
Mg29 Mg36 3.203193 1_545
Mg30 Mg53 3.189412 1_555
Mg30 Mg6 3.192168 1_555
Mg30 Mg41 3.194203 1_555
Mg30 Mg64 3.197788 1_555
Mg30 Mg50 3.199728 1_555
Mg30 Mg8 3.201291 1_555
Mg30 Mg35 3.203193 1_555
Mg30 Mg32 3.225626 1_555
Mg31 Mg52 3.189412 1_555
Mg31 Mg5 3.192175 1_655
Mg31 Mg40 3.194203 1_655
Mg31 Mg63 3.197780 1_555
Mg31 Mg51 3.199728 1_555
Mg31 Mg7 3.201284 1_555
Mg31 Mg34 3.203176 1_655
Mg31 Mg33 3.225627 1_555
Mg32 Mg54 3.189412 1_555
Mg32 Mg43 3.194204 1_555
Mg32 Mg66 3.197788 1_555
Mg32 Mg33 3.199236 1_555
Mg32 Mg50 3.199728 1_555
Mg32 Mg8 3.201292 1_555
Mg32 Mg35 3.203184 1_555
Mg33 Mg54 3.189412 1_555
Mg33 Mg42 3.194203 1_655
Mg33 Mg65 3.197780 1_555
Mg33 Mg51 3.199728 1_555
Mg33 Mg7 3.201292 1_555
Mg33 Mg34 3.203176 1_655
Mg34 Mg42 3.180681 1_555
Mg34 Mg40 3.180681 1_555
Mg34 Mg63 3.192976 1_455
Mg34 Mg65 3.192976 1_455
Mg34 Mg67 3.194147 1_555
Mg34 Mg37 3.201989 1_555
Mg34 Mg39 3.201997 1_555
Mg34 Mg5 3.202327 1_555
Mg35 Mg43 3.180672 1_555
Mg35 Mg41 3.180688 1_555
Mg35 Mg66 3.192967 1_555
Mg35 Mg64 3.192976 1_555
Mg35 Mg68 3.194147 1_555
Mg35 Mg38 3.201990 1_555
Mg35 Mg37 3.201997 1_555
Mg35 Mg6 3.202335 1_555
Mg36 Mg44 3.180672 1_555
Mg36 Mg45 3.180688 1_555
Mg36 Mg61 3.192967 1_565
Mg36 Mg62 3.192984 1_565
Mg36 Mg69 3.194139 1_555
Mg36 Mg38 3.201974 1_555
Mg36 Mg39 3.201989 1_555
Mg37 Mg38 3.183263 1_555
Mg37 Mg39 3.183264 1_555
Mg37 Mg40 3.187323 1_555
Mg37 Mg41 3.187332 1_555
Mg37 Mg9 3.189978 1_555
Mg37 Mg67 3.190340 1_555
Mg37 Mg68 3.190348 1_555
Mg37 Mg70 3.199994 1_555
Mg38 Mg39 3.183263 1_555
Mg38 Mg44 3.187323 1_555
Mg38 Mg43 3.187331 1_555
Mg38 Mg68 3.190340 1_555
Mg38 Mg69 3.190340 1_555
Mg38 Mg72 3.199994 1_555
Mg39 Mg42 3.187315 1_555
Mg39 Mg45 3.187316 1_555
Mg39 Mg69 3.190348 1_555
Mg39 Mg67 3.190348 1_555
Mg39 Mg71 3.199986 1_555
Mg40 Mg63 3.186389 1_455
Mg40 Mg70 3.187585 1_555
Mg40 Mg41 3.196621 1_555
Mg40 Mg55 3.197970 1_555
Mg40 Mg5 3.199322 1_555
Mg40 Mg46 3.202315 1_555
Mg40 Mg9 3.208107 1_555
Mg41 Mg64 3.186388 1_555
Mg41 Mg70 3.187585 1_555
Mg41 Mg56 3.197970 1_555
Mg41 Mg6 3.199329 1_555
Mg41 Mg46 3.202314 1_555
Mg41 Mg9 3.208099 1_555
Mg42 Mg65 3.186389 1_455
Mg42 Mg71 3.187585 1_555
Mg42 Mg45 3.196621 1_555
Mg42 Mg57 3.197970 1_555
Mg42 Mg48 3.202315 1_555
Mg43 Mg66 3.186389 1_555
Mg43 Mg72 3.187585 1_555
Mg43 Mg44 3.196622 1_555
Mg43 Mg58 3.197969 1_555
Mg43 Mg47 3.202314 1_555
Mg44 Mg61 3.186397 1_565
Mg44 Mg72 3.187585 1_555
Mg44 Mg60 3.197969 1_555
Mg44 Mg47 3.202314 1_555
Mg45 Mg62 3.186389 1_565
Mg45 Mg71 3.187585 1_555
Mg45 Mg59 3.197970 1_555
Mg45 Mg48 3.202314 1_555
Mg46 Mg56 3.166419 1_555
Mg46 Mg55 3.166419 1_555
Mg46 Mg73 3.200441 1_555
Mg46 Mg47 3.243668 1_445
Mg46 Mg48 3.243669 1_545
Mg47 Mg58 3.166419 1_555
Mg47 Mg60 3.166419 1_555
Mg47 Mg73 3.200440 1_665
Mg47 Mg48 3.243668 1_655
Mg48 Mg59 3.166419 1_555
Mg48 Mg57 3.166419 1_555
Mg48 Mg73 3.200441 1_565
Mg49 Mg61 3.198021 1_555
Mg49 Mg62 3.198028 1_555
Mg49 Mg77 3.199672 1_555
Mg49 Mg78 3.199672 1_555
Mg49 Mg51 3.201346 1_555
Mg49 Mg50 3.201347 1_555
Mg49 Mg81 3.202094 1_555
Mg49 Mg53 3.204474 1_555
Mg49 Mg52 3.204474 1_555
Mg50 Mg64 3.198037 1_555
Mg50 Mg66 3.198037 1_555
Mg50 Mg79 3.199672 1_555
Mg50 Mg84 3.199672 1_555
Mg50 Mg51 3.201346 1_555
Mg50 Mg81 3.202102 1_555
Mg50 Mg53 3.204474 1_555
Mg50 Mg54 3.204474 1_555
Mg51 Mg65 3.198028 1_555
Mg51 Mg63 3.198028 1_555
Mg51 Mg80 3.199672 1_555
Mg51 Mg85 3.199672 1_555
Mg51 Mg81 3.202094 1_555
Mg51 Mg54 3.204475 1_555
Mg51 Mg52 3.204475 1_555
Mg52 Mg55 3.196604 1_655
Mg52 Mg60 3.196605 1_545
Mg52 Mg74 3.197523 1_555
Mg52 Mg78 3.199455 1_555
Mg52 Mg80 3.199455 1_555
Mg52 Mg63 3.201786 1_555
Mg52 Mg61 3.201795 1_555
Mg53 Mg59 3.196604 1_545
Mg53 Mg56 3.196604 1_555
Mg53 Mg75 3.197530 1_555
Mg53 Mg77 3.199455 1_555
Mg53 Mg79 3.199455 1_555
Mg53 Mg62 3.201787 1_555
Mg53 Mg64 3.201804 1_555
Mg54 Mg57 3.196604 1_655
Mg54 Mg58 3.196605 1_555
Mg54 Mg89 3.197531 1_555
Mg54 Mg84 3.199455 1_555
Mg54 Mg85 3.199455 1_555
Mg54 Mg65 3.201787 1_555
Mg54 Mg66 3.201803 1_555
Mg55 Mg83 3.194627 1_555
Mg55 Mg74 3.197453 1_455
Mg55 Mg76 3.198204 1_555
Mg55 Mg63 3.200216 1_455
Mg55 Mg70 3.203964 1_555
Mg55 Mg56 3.207331 1_555
Mg55 Mg73 3.207660 1_555
Mg55 Mg60 3.207870 1_445
Mg56 Mg82 3.194627 1_555
Mg56 Mg75 3.197445 1_555
Mg56 Mg76 3.198204 1_555
Mg56 Mg64 3.200223 1_555
Mg56 Mg70 3.203965 1_555
Mg56 Mg73 3.207659 1_555
Mg56 Mg59 3.207871 1_545
Mg57 Mg91 3.194627 1_555
Mg57 Mg89 3.197453 1_455
Mg57 Mg95 3.198204 1_555
Mg57 Mg65 3.200216 1_455
Mg57 Mg71 3.203964 1_555
Mg57 Mg59 3.207331 1_555
Mg57 Mg73 3.207660 1_565
Mg57 Mg58 3.207870 1_455
Mg58 Mg90 3.194627 1_555
Mg58 Mg89 3.197445 1_555
Mg58 Mg94 3.198204 1_555
Mg58 Mg66 3.200223 1_555
Mg58 Mg72 3.203964 1_555
Mg58 Mg60 3.207332 1_555
Mg58 Mg73 3.207659 1_665
Mg59 Mg96 3.194627 1_555
Mg59 Mg75 3.197453 1_565
Mg59 Mg95 3.198204 1_555
Mg59 Mg62 3.200215 1_565
Mg59 Mg71 3.203965 1_555
Mg59 Mg73 3.207659 1_565
Mg60 Mg97 3.194627 1_555
Mg60 Mg74 3.197453 1_565
Mg60 Mg94 3.198196 1_555
Mg60 Mg61 3.200231 1_565
Mg60 Mg72 3.203964 1_555
Mg60 Mg73 3.207659 1_665
Mg61 Mg98 3.188959 1_545
Mg61 Mg62 3.193823 1_555
Mg61 Mg97 3.194079 1_545
Mg61 Mg78 3.196352 1_555
Mg61 Mg69 3.200587 1_545
Mg61 Mg72 3.206070 1_545
Mg62 Mg98 3.188968 1_545
Mg62 Mg96 3.194071 1_545
Mg62 Mg77 3.196352 1_555
Mg62 Mg69 3.200596 1_545
Mg62 Mg71 3.206061 1_545
Mg63 Mg86 3.188968 1_655
Mg63 Mg65 3.193840 1_555
Mg63 Mg83 3.194071 1_655
Mg63 Mg80 3.196352 1_555
Mg63 Mg67 3.200595 1_655
Mg63 Mg70 3.206061 1_655
Mg64 Mg87 3.188960 1_555
Mg64 Mg66 3.193823 1_555
Mg64 Mg82 3.194071 1_555
Mg64 Mg79 3.196361 1_555
Mg64 Mg68 3.200596 1_555
Mg64 Mg70 3.206053 1_555
Mg65 Mg86 3.188976 1_655
Mg65 Mg91 3.194071 1_655
Mg65 Mg85 3.196352 1_555
Mg65 Mg67 3.200595 1_655
Mg65 Mg71 3.206061 1_655
Mg66 Mg87 3.188959 1_555
Mg66 Mg90 3.194063 1_555
Mg66 Mg84 3.196361 1_555
Mg66 Mg68 3.200587 1_555
Mg66 Mg72 3.206054 1_555
Mg67 Mg93 3.191407 1_555
Mg67 Mg88 3.191407 1_555
Mg67 Mg86 3.194268 1_555
Mg67 Mg71 3.196859 1_555
Mg67 Mg70 3.196859 1_555
Mg67 Mg68 3.204753 1_555
Mg67 Mg69 3.204761 1_555
Mg68 Mg92 3.191399 1_555
Mg68 Mg88 3.191407 1_555
Mg68 Mg87 3.194285 1_555
Mg68 Mg72 3.196850 1_555
Mg68 Mg70 3.196866 1_555
Mg68 Mg69 3.204746 1_555
Mg69 Mg93 3.191407 1_555
Mg69 Mg92 3.191407 1_555
Mg69 Mg98 3.194277 1_555
Mg69 Mg71 3.196858 1_555
Mg69 Mg72 3.196858 1_555
Mg70 Mg88 3.184873 1_555
Mg70 Mg83 3.188497 1_555
Mg70 Mg82 3.188498 1_555
Mg71 Mg93 3.184873 1_555
Mg71 Mg91 3.188497 1_555
Mg71 Mg96 3.188498 1_555
Mg72 Mg92 3.184873 1_555
Mg72 Mg97 3.188498 1_555
Mg72 Mg90 3.188506 1_555
Mg73 Mg76 3.182128 1_555
Mg73 Mg95 3.182128 1_545
Mg73 Mg94 3.182136 1_445
Mg74 Mg78 3.198400 1_555
Mg74 Mg80 3.198400 1_555
Mg74 Mg83 3.203611 1_655
Mg74 Mg97 3.203611 1_545
Mg74 Mg94 3.205214 1_545
Mg74 Mg76 3.205221 1_655
Mg75 Mg79 3.198407 1_555
Mg75 Mg77 3.198416 1_555
Mg75 Mg82 3.203604 1_555
Mg75 Mg96 3.203620 1_545
Mg75 Mg76 3.205205 1_555
Mg75 Mg95 3.205213 1_545
Mg76 Mg99 3.182115 1_555
Mg76 Mg82 3.201425 1_555
Mg76 Mg83 3.201426 1_555
Mg76 Mg95 3.207052 1_545
Mg76 Mg94 3.207059 1_445
Mg77 Mg79 3.184938 1_555
Mg77 Mg81 3.193592 1_555
Mg77 Mg78 3.202238 1_555
Mg77 Mg98 3.204674 1_545
Mg77 Mg96 3.209810 1_545
Mg78 Mg80 3.184937 1_555
Mg78 Mg81 3.193585 1_555
Mg78 Mg98 3.204673 1_545
Mg78 Mg97 3.209811 1_545
Mg79 Mg81 3.193600 1_555
Mg79 Mg84 3.202238 1_555
Mg79 Mg87 3.204674 1_555
Mg79 Mg82 3.209810 1_555
Mg80 Mg81 3.193584 1_555
Mg80 Mg85 3.202239 1_555
Mg80 Mg86 3.204681 1_655
Mg80 Mg83 3.209810 1_655
Mg81 Mg85 3.193592 1_555
Mg81 Mg84 3.193601 1_555
Mg82 Mg87 3.199788 1_555
Mg82 Mg88 3.201663 1_555
Mg82 Mg83 3.202681 1_555
Mg83 Mg86 3.199781 1_555
Mg83 Mg88 3.201662 1_555
Mg84 Mg85 3.184937 1_555
Mg84 Mg89 3.198407 1_555
Mg84 Mg87 3.204673 1_555
Mg84 Mg90 3.209795 1_555
Mg85 Mg89 3.198416 1_555
Mg85 Mg86 3.204689 1_655
Mg85 Mg91 3.209810 1_655
Mg86 Mg91 3.199796 1_555
Mg86 Mg88 3.207577 1_555
Mg86 Mg93 3.207584 1_555
Mg87 Mg90 3.199780 1_555
Mg87 Mg88 3.207593 1_555
Mg87 Mg92 3.207593 1_555
Mg88 Mg92 3.198916 1_555
Mg88 Mg93 3.198917 1_555
Mg89 Mg90 3.203595 1_555
Mg89 Mg91 3.203619 1_655
Mg89 Mg95 3.205213 1_655
Mg89 Mg94 3.205214 1_555
Mg90 Mg94 3.201425 1_555
Mg90 Mg92 3.201670 1_555
Mg90 Mg97 3.202698 1_555
Mg91 Mg95 3.201426 1_555
Mg91 Mg93 3.201662 1_555
Mg91 Mg96 3.202681 1_555
Mg92 Mg93 3.198916 1_555
Mg92 Mg97 3.201662 1_555
Mg92 Mg98 3.207593 1_555
Mg93 Mg96 3.201663 1_555
Mg93 Mg98 3.207592 1_555
Mg94 Mg99 3.182123 1_665
Mg94 Mg97 3.201409 1_555
Mg94 Mg95 3.207067 1_655
Mg95 Mg99 3.182115 1_565
Mg95 Mg96 3.201425 1_555
Mg96 Mg98 3.199788 1_555
Mg97 Mg98 3.199788 1_555
Mg100 Mg88 3.184873 1_555
Mg100 Mg127 3.187585 1_555
Mg100 Mg128 3.187585 1_555
Mg100 Mg83 3.188497 1_555
Mg100 Mg82 3.188498 1_555
Mg100 Mg103 3.196859 1_555
Mg100 Mg104 3.196866 1_555
Mg100 Mg133 3.199994 1_555
Mg100 Mg112 3.203964 1_555
Mg100 Mg113 3.203965 1_555
Mg100 Mg109 3.206053 1_555
Mg100 Mg108 3.206061 1_455
Mg101 Mg93 3.184873 1_555
Mg101 Mg129 3.187585 1_555
Mg101 Mg132 3.187585 1_555
Mg101 Mg91 3.188497 1_555
Mg101 Mg96 3.188498 1_555
Mg101 Mg105 3.196858 1_555
Mg101 Mg103 3.196859 1_555
Mg101 Mg135 3.199986 1_555
Mg101 Mg114 3.203964 1_555
Mg101 Mg116 3.203965 1_555
Mg101 Mg110 3.206061 1_455
Mg101 Mg107 3.206061 1_565
Mg102 Mg92 3.184873 1_555
Mg102 Mg130 3.187585 1_555
Mg102 Mg131 3.187585 1_555
Mg102 Mg97 3.188498 1_555
Mg102 Mg90 3.188506 1_555
Mg102 Mg104 3.196850 1_555
Mg102 Mg105 3.196858 1_555
Mg102 Mg134 3.199994 1_555
Mg102 Mg117 3.203964 1_555
Mg102 Mg115 3.203964 1_555
Mg102 Mg111 3.206054 1_555
Mg102 Mg106 3.206070 1_565
Mg103 Mg133 3.190327 1_555
Mg103 Mg135 3.190335 1_555
Mg103 Mg93 3.191420 1_555
Mg103 Mg88 3.191420 1_555
Mg103 Mg136 3.194134 1_555
Mg103 Mg86 3.194281 1_555
Mg103 Mg108 3.200595 1_455
Mg103 Mg110 3.200595 1_455
Mg103 Mg104 3.204753 1_555
Mg103 Mg105 3.204761 1_555
Mg104 Mg134 3.190327 1_555
Mg104 Mg133 3.190335 1_555
Mg104 Mg92 3.191412 1_555
Mg104 Mg88 3.191419 1_555
Mg104 Mg137 3.194134 1_555
Mg104 Mg87 3.194298 1_555
Mg104 Mg111 3.200587 1_555
Mg104 Mg109 3.200596 1_555
Mg104 Mg105 3.204746 1_555
Mg105 Mg134 3.190327 1_555
Mg105 Mg135 3.190335 1_555
Mg105 Mg93 3.191419 1_555
Mg105 Mg92 3.191420 1_555
Mg105 Mg138 3.194126 1_555
Mg105 Mg98 3.194290 1_555
Mg105 Mg106 3.200587 1_565
Mg105 Mg107 3.200596 1_565
Mg106 Mg131 3.186384 1_545
Mg106 Mg98 3.188972 1_545
Mg106 Mg138 3.192955 1_545
Mg106 Mg107 3.193823 1_555
Mg106 Mg97 3.194092 1_545
Mg106 Mg78 3.196365 1_555
Mg106 Mg139 3.197767 1_555
Mg106 Mg121 3.198021 1_555
Mg106 Mg117 3.200231 1_545
Mg106 Mg118 3.201794 1_555
Mg107 Mg132 3.186376 1_545
Mg107 Mg98 3.188980 1_545
Mg107 Mg138 3.192971 1_545
Mg107 Mg96 3.194083 1_545
Mg107 Mg77 3.196365 1_555
Mg107 Mg140 3.197767 1_555
Mg107 Mg121 3.198028 1_555
Mg107 Mg116 3.200215 1_545
Mg107 Mg119 3.201787 1_555
Mg108 Mg127 3.186376 1_655
Mg108 Mg86 3.188980 1_655
Mg108 Mg136 3.192963 1_655
Mg108 Mg110 3.193840 1_555
Mg108 Mg83 3.194084 1_655
Mg108 Mg80 3.196365 1_555
Mg108 Mg142 3.197767 1_555
Mg108 Mg123 3.198028 1_555
Mg108 Mg112 3.200216 1_655
Mg108 Mg118 3.201786 1_555
Mg109 Mg128 3.186376 1_555
Mg109 Mg87 3.188972 1_555
Mg109 Mg137 3.192963 1_555
Mg109 Mg111 3.193823 1_555
Mg109 Mg82 3.194083 1_555
Mg109 Mg79 3.196373 1_555
Mg109 Mg141 3.197775 1_555
Mg109 Mg122 3.198036 1_555
Mg109 Mg113 3.200223 1_555
Mg109 Mg119 3.201804 1_555
Mg110 Mg129 3.186376 1_655
Mg110 Mg86 3.188988 1_655
Mg110 Mg136 3.192963 1_655
Mg110 Mg91 3.194084 1_655
Mg110 Mg85 3.196365 1_555
Mg110 Mg144 3.197767 1_555
Mg110 Mg123 3.198028 1_555
Mg110 Mg114 3.200216 1_655
Mg110 Mg120 3.201786 1_555
Mg111 Mg130 3.186376 1_555
Mg111 Mg87 3.188972 1_555
Mg111 Mg137 3.192955 1_555
Mg111 Mg90 3.194076 1_555
Mg111 Mg84 3.196373 1_555
Mg111 Mg143 3.197775 1_555
Mg111 Mg122 3.198037 1_555
Mg111 Mg115 3.200223 1_555
Mg111 Mg120 3.201803 1_555
Mg112 Mg124 3.166419 1_555
Mg112 Mg83 3.194627 1_555
Mg112 Mg118 3.196604 1_455
Mg112 Mg74 3.197453 1_455
Mg112 Mg127 3.197970 1_555
Mg112 Mg76 3.198204 1_555
Mg112 Mg113 3.207331 1_555
Mg112 Mg99 3.207660 1_555
Mg112 Mg117 3.207870 1_445
Mg112 Mg146 3.208172 1_455
Mg113 Mg124 3.166419 1_555
Mg113 Mg82 3.194627 1_555
Mg113 Mg119 3.196604 1_555
Mg113 Mg75 3.197445 1_555
Mg113 Mg128 3.197970 1_555
Mg113 Mg76 3.198204 1_555
Mg113 Mg99 3.207659 1_555
Mg113 Mg116 3.207871 1_545
Mg113 Mg147 3.208180 1_555
Mg114 Mg126 3.166419 1_555
Mg114 Mg91 3.194627 1_555
Mg114 Mg120 3.196604 1_455
Mg114 Mg89 3.197453 1_455
Mg114 Mg129 3.197970 1_555
Mg114 Mg95 3.198204 1_555
Mg114 Mg116 3.207331 1_555
Mg114 Mg99 3.207660 1_565
Mg114 Mg115 3.207870 1_455
Mg114 Mg148 3.208172 1_455
Mg115 Mg125 3.166419 1_555
Mg115 Mg90 3.194627 1_555
Mg115 Mg120 3.196605 1_555
Mg115 Mg89 3.197445 1_555
Mg115 Mg130 3.197969 1_555
Mg115 Mg94 3.198204 1_555
Mg115 Mg117 3.207332 1_555
Mg115 Mg99 3.207659 1_665
Mg115 Mg148 3.208172 1_555
Mg116 Mg126 3.166419 1_555
Mg116 Mg96 3.194627 1_555
Mg116 Mg119 3.196604 1_565
Mg116 Mg75 3.197453 1_565
Mg116 Mg132 3.197970 1_555
Mg116 Mg95 3.198204 1_555
Mg116 Mg99 3.207659 1_565
Mg116 Mg147 3.208172 1_565
Mg117 Mg125 3.166419 1_555
Mg117 Mg97 3.194627 1_555
Mg117 Mg118 3.196605 1_565
Mg117 Mg74 3.197453 1_565
Mg117 Mg131 3.197969 1_555
Mg117 Mg94 3.198196 1_555
Mg117 Mg99 3.207659 1_665
Mg117 Mg146 3.208172 1_565
Mg118 Mg139 3.189412 1_555
Mg118 Mg142 3.189412 1_555
Mg118 Mg74 3.197523 1_555
Mg118 Mg78 3.199455 1_555
Mg118 Mg80 3.199455 1_555
Mg118 Mg121 3.204474 1_555
Mg118 Mg123 3.204475 1_555
Mg118 Mg146 3.229242 1_555
Mg119 Mg140 3.189412 1_555
Mg119 Mg141 3.189412 1_555
Mg119 Mg75 3.197530 1_555
Mg119 Mg77 3.199455 1_555
Mg119 Mg79 3.199455 1_555
Mg119 Mg122 3.204474 1_555
Mg119 Mg121 3.204474 1_555
Mg119 Mg147 3.229234 1_555
Mg120 Mg143 3.189412 1_555
Mg120 Mg144 3.189412 1_555
Mg120 Mg89 3.197531 1_555
Mg120 Mg84 3.199455 1_555
Mg120 Mg85 3.199455 1_555
Mg120 Mg122 3.204474 1_555
Mg120 Mg123 3.204475 1_555
Mg120 Mg148 3.229242 1_555
Mg121 Mg145 3.196020 1_555
Mg121 Mg77 3.199659 1_555
Mg121 Mg78 3.199659 1_555
Mg121 Mg140 3.199740 1_555
Mg121 Mg139 3.199741 1_555
Mg121 Mg123 3.201346 1_555
Mg121 Mg122 3.201347 1_555
Mg121 Mg81 3.202081 1_555
Mg122 Mg145 3.196028 1_555
Mg122 Mg79 3.199659 1_555
Mg122 Mg84 3.199659 1_555
Mg122 Mg141 3.199740 1_555
Mg122 Mg143 3.199741 1_555
Mg122 Mg123 3.201346 1_555
Mg122 Mg81 3.202089 1_555
Mg123 Mg145 3.196019 1_555
Mg123 Mg80 3.199659 1_555
Mg123 Mg85 3.199659 1_555
Mg123 Mg142 3.199741 1_555
Mg123 Mg144 3.199741 1_555
Mg123 Mg81 3.202081 1_555
Mg124 Mg146 3.174350 1_455
Mg124 Mg147 3.174366 1_555
Mg124 Mg99 3.200453 1_555
Mg124 Mg128 3.202314 1_555
Mg124 Mg127 3.202315 1_555
Mg124 Mg3 3.225129 1_556
Mg124 Mg4 3.225137 1_556
Mg124 Mg125 3.243668 1_445
Mg124 Mg126 3.243669 1_545
Mg125 Mg146 3.174350 1_565
Mg125 Mg148 3.174350 1_555
Mg125 Mg99 3.200453 1_665
Mg125 Mg130 3.202314 1_555
Mg125 Mg131 3.202314 1_555
Mg125 Mg18 3.225137 1_556
Mg125 Mg21 3.225137 1_556
Mg125 Mg126 3.243668 1_655
Mg126 Mg148 3.174349 1_455
Mg126 Mg147 3.174357 1_565
Mg126 Mg99 3.200453 1_565
Mg126 Mg132 3.202314 1_555
Mg126 Mg129 3.202315 1_555
Mg126 Mg20 3.225129 1_556
Mg126 Mg17 3.225137 1_556
Mg127 Mg136 3.180681 1_555
Mg127 Mg133 3.187323 1_555
Mg127 Mg4 3.192773 1_556
Mg127 Mg142 3.194203 1_455
Mg127 Mg128 3.196621 1_555
Mg127 Mg5 3.199322 1_556
Mg127 Mg9 3.208107 1_556
Mg127 Mg146 3.226306 1_455
Mg128 Mg137 3.180688 1_555
Mg128 Mg133 3.187332 1_555
Mg128 Mg3 3.192773 1_556
Mg128 Mg141 3.194203 1_555
Mg128 Mg6 3.199329 1_556
Mg128 Mg9 3.208099 1_556
Mg128 Mg147 3.226315 1_555
Mg129 Mg136 3.180681 1_555
Mg129 Mg135 3.187315 1_555
Mg129 Mg17 3.192773 1_556
Mg129 Mg144 3.194203 1_455
Mg129 Mg132 3.196621 1_555
Mg129 Mg13 3.199321 1_556
Mg129 Mg15 3.208107 1_556
Mg129 Mg148 3.226306 1_455
Mg130 Mg137 3.180672 1_555
Mg130 Mg134 3.187331 1_555
Mg130 Mg18 3.192773 1_556
Mg130 Mg143 3.194204 1_555
Mg130 Mg131 3.196622 1_555
Mg130 Mg14 3.199322 1_556
Mg130 Mg16 3.208099 1_556
Mg130 Mg148 3.226306 1_555
Mg131 Mg138 3.180672 1_555
Mg131 Mg134 3.187323 1_555
Mg131 Mg21 3.192773 1_556
Mg131 Mg139 3.194204 1_565
Mg131 Mg22 3.199322 1_556
Mg131 Mg16 3.208107 1_556
Mg131 Mg146 3.226306 1_565
Mg132 Mg138 3.180688 1_555
Mg132 Mg135 3.187316 1_555
Mg132 Mg20 3.192773 1_556
Mg132 Mg140 3.194203 1_565
Mg132 Mg23 3.199329 1_556
Mg132 Mg15 3.208107 1_556
Mg132 Mg147 3.226299 1_565
Mg133 Mg134 3.183263 1_555
Mg133 Mg135 3.183264 1_555
Mg133 Mg9 3.189978 1_556
Mg133 Mg136 3.201989 1_555
Mg133 Mg137 3.201997 1_555
Mg134 Mg135 3.183263 1_555
Mg134 Mg16 3.189978 1_556
Mg134 Mg19 3.199759 1_556
Mg134 Mg138 3.201974 1_555
Mg134 Mg137 3.201990 1_555
Mg135 Mg15 3.189962 1_556
Mg135 Mg19 3.199767 1_556
Mg135 Mg138 3.201989 1_555
Mg135 Mg136 3.201997 1_555
Mg136 Mg5 3.202327 1_556
Mg136 Mg142 3.203176 1_455
Mg136 Mg144 3.203176 1_455
Mg137 Mg14 3.202327 1_556
Mg137 Mg6 3.202335 1_556
Mg137 Mg143 3.203184 1_555
Mg137 Mg141 3.203193 1_555
Mg138 Mg22 3.202327 1_556
Mg138 Mg23 3.202336 1_556
Mg138 Mg139 3.203184 1_565
Mg138 Mg140 3.203193 1_565
Mg138 Mg19 3.204936 1_556
Mg139 Mg2 3.186079 1_556
Mg139 Mg22 3.192175 1_546
Mg139 Mg142 3.199235 1_555
Mg139 Mg145 3.212437 1_555
Mg139 Mg146 3.218446 1_555
Mg139 Mg140 3.225626 1_555
Mg140 Mg23 3.192167 1_546
Mg140 Mg141 3.199236 1_555
Mg140 Mg145 3.212444 1_555
Mg140 Mg147 3.218430 1_555
Mg141 Mg6 3.192168 1_556
Mg141 Mg8 3.201291 1_556
Mg141 Mg145 3.212452 1_555
Mg141 Mg147 3.218438 1_555
Mg141 Mg143 3.225626 1_555
Mg142 Mg2 3.186080 1_556
Mg142 Mg5 3.192175 1_656
Mg142 Mg7 3.201284 1_556
Mg142 Mg145 3.212436 1_555
Mg142 Mg146 3.218447 1_555
Mg142 Mg144 3.225627 1_555
Mg143 Mg144 3.199236 1_555
Mg143 Mg8 3.201292 1_556
Mg143 Mg145 3.212453 1_555
Mg143 Mg148 3.218446 1_555
Mg144 Mg7 3.201292 1_556
Mg144 Mg145 3.212444 1_555
Mg144 Mg148 3.218447 1_555
Mg145 Mg7 3.190975 1_556
Mg145 Mg8 3.190976 1_556
Mg146 Mg4 3.185461 1_656
Mg146 Mg21 3.185461 1_546
Mg146 Mg2 3.202077 1_556
Mg147 Mg20 3.185469 1_546
Mg147 Mg3 3.185477 1_556
Mg148 Mg17 3.185461 1_656
Mg148 Mg18 3.185461 1_556
