# generated using pymatgen
data_YbZnPd
_symmetry_space_group_name_H-M   'P 1'
_cell_length_a   3.95472060
_cell_length_b   6.91286008
_cell_length_c   8.14862162
_cell_angle_alpha   90.00000000
_cell_angle_beta   90.00000000
_cell_angle_gamma   90.00000000
_symmetry_Int_Tables_number   1
_chemical_formula_structural   YbZnPd
_chemical_formula_sum   'Yb4 Zn4 Pd4'
_cell_volume   222.77052295
_cell_formula_units_Z   4
loop_
 _symmetry_equiv_pos_site_id
 _symmetry_equiv_pos_as_xyz
  1  'x, y, z'
loop_
 _atom_site_type_symbol
 _atom_site_label
 _atom_site_symmetry_multiplicity
 _atom_site_fract_x
 _atom_site_fract_y
 _atom_site_fract_z
 _atom_site_occupancy
  Yb  Yb0  1  0.25000000  0.55636736  0.18802488  1
  Yb  Yb1  1  0.75000000  0.44363264  0.81197512  1
  Yb  Yb2  1  0.25000000  0.05636736  0.31197512  1
  Yb  Yb3  1  0.75000000  0.94363264  0.68802488  1
  Zn  Zn0  1  0.25000000  0.62555510  0.56328665  1
  Zn  Zn1  1  0.75000000  0.37444490  0.43671335  1
  Zn  Zn2  1  0.25000000  0.12555510  0.93671335  1
  Zn  Zn3  1  0.75000000  0.87444490  0.06328665  1
  Pd  Pd0  1  0.75000000  0.75899952  0.37750429  1
  Pd  Pd1  1  0.25000000  0.24100048  0.62249571  1
  Pd  Pd2  1  0.75000000  0.25899952  0.12249571  1
  Pd  Pd3  1  0.25000000  0.74100048  0.87750429  1
loop_
_geom_bond_atom_site_label_1
_geom_bond_atom_site_label_2
_geom_bond_distance
_geom_bond_site_symmetry_2
Yb0 Zn0 3.095045 1_555
Yb0 Zn1 3.098079 1_555
Yb0 Zn1 3.098079 1_455
Yb0 Zn3 3.126971 1_455
Yb0 Zn3 3.126971 1_555
Yb1 Zn1 3.095045 1_555
Yb1 Zn0 3.098079 1_655
Yb1 Zn0 3.098079 1_555
Yb1 Zn2 3.126971 1_555
Yb1 Zn2 3.126971 1_655
Yb2 Zn2 3.095045 1_554
Yb2 Zn3 3.098079 1_445
Yb2 Zn3 3.098079 1_545
Yb2 Zn1 3.126971 1_555
Yb2 Zn1 3.126971 1_455
Yb3 Zn3 3.095045 1_556
Yb3 Zn2 3.098079 1_665
Yb3 Zn2 3.098079 1_565
Yb3 Zn0 3.126971 1_655
Yb3 Zn0 3.126971 1_555
Zn0 Zn1 2.826137 1_455
Zn0 Zn1 2.826137 1_555
Zn2 Zn3 2.826137 1_546
Zn2 Zn3 2.826137 1_446
Pd0 Zn0 2.655698 1_655
Pd0 Zn0 2.655698 1_555
Pd0 Zn3 2.681931 1_555
Pd0 Zn1 2.701800 1_555
Pd0 Yb3 2.833998 1_555
Pd0 Yb0 2.873330 1_555
Pd0 Yb0 2.873330 1_655
Pd0 Yb2 2.901866 1_565
Pd0 Yb2 2.901866 1_665
Pd1 Zn1 2.655698 1_455
Pd1 Zn1 2.655698 1_555
Pd1 Zn2 2.681931 1_555
Pd1 Zn0 2.701800 1_555
Pd1 Yb2 2.833998 1_555
Pd1 Yb1 2.873330 1_455
Pd1 Yb1 2.873330 1_555
Pd1 Yb3 2.901866 1_545
Pd1 Yb3 2.901866 1_445
Pd2 Zn2 2.655698 1_654
Pd2 Zn2 2.655698 1_554
Pd2 Zn1 2.681931 1_555
Pd2 Zn3 2.701800 1_545
Pd2 Yb1 2.833998 1_554
Pd2 Yb2 2.873330 1_655
Pd2 Yb2 2.873330 1_555
Pd2 Yb0 2.901866 1_555
Pd2 Yb0 2.901866 1_655
Pd3 Zn3 2.655698 1_456
Pd3 Zn3 2.655698 1_556
Pd3 Zn0 2.681931 1_555
Pd3 Zn2 2.701800 1_565
Pd3 Yb0 2.833998 1_556
Pd3 Yb3 2.873330 1_555
Pd3 Yb3 2.873330 1_455
Pd3 Yb1 2.901866 1_455
Pd3 Yb1 2.901866 1_555
