# generated using pymatgen
data_Na3CoN2
_symmetry_space_group_name_H-M   'P 1'
_cell_length_a   8.38306420
_cell_length_b   7.94183736
_cell_length_c   12.44819265
_cell_angle_alpha   89.99999998
_cell_angle_beta   137.94145144
_cell_angle_gamma   118.27366823
_symmetry_Int_Tables_number   1
_chemical_formula_structural   Na3CoN2
_chemical_formula_sum   'Na12 Co4 N8'
_cell_volume   392.57112707
_cell_formula_units_Z   4
loop_
 _symmetry_equiv_pos_site_id
 _symmetry_equiv_pos_as_xyz
  1  'x, y, z'
loop_
 _atom_site_type_symbol
 _atom_site_label
 _atom_site_symmetry_multiplicity
 _atom_site_fract_x
 _atom_site_fract_y
 _atom_site_fract_z
 _atom_site_occupancy
  Na  Na0  1  0.00000000  0.50000000  0.35906900  1
  Na  Na1  1  0.00000000  0.00000000  0.89093100  1
  Na  Na2  1  0.00000000  0.50000000  0.14093100  1
  Na  Na3  1  0.00000000  0.00000000  0.10906900  1
  Na  Na4  1  0.60120900  0.50000000  0.55060500  1
  Na  Na5  1  0.39879100  0.50000000  0.94939500  1
  Na  Na6  1  0.60120900  0.00000000  0.30060400  1
  Na  Na7  1  0.39879100  0.00000000  0.69939500  1
  Na  Na8  1  0.39879100  0.89879100  0.94939500  1
  Na  Na9  1  0.60120900  0.10120900  0.55060500  1
  Na  Na10  1  0.39879100  0.39879100  0.69939500  1
  Na  Na11  1  0.60120900  0.60120900  0.30060400  1
  Co  Co0  1  0.00000000  0.50000000  0.58464200  1
  Co  Co1  1  0.00000000  0.00000000  0.66535800  1
  Co  Co2  1  0.00000000  0.50000000  0.91535800  1
  Co  Co3  1  0.00000000  0.00000000  0.33464200  1
  N  N0  1  0.40564000  0.70282000  0.75821100  1
  N  N1  1  0.59436000  0.29718000  0.35257000  1
  N  N2  1  0.40564000  0.20282000  0.89743000  1
  N  N3  1  0.59436000  0.79718000  0.49178900  1
  N  N4  1  0.00000000  0.29718000  0.94461000  1
  N  N5  1  0.00000000  0.70282000  0.94461000  1
  N  N6  1  0.00000000  0.79718000  0.30539000  1
  N  N7  1  0.00000000  0.20282000  0.30539000  1
loop_
_geom_bond_atom_site_label_1
_geom_bond_atom_site_label_2
_geom_bond_distance
_geom_bond_site_symmetry_2
Co0 N0 1.651407 1_555
Co0 N1 1.651410 1_455
Co1 N3 1.651407 1_445
Co1 N2 1.651410 1_555
Co2 N4 1.651409 1_555
Co2 N5 1.651409 1_555
Co3 N7 1.651409 1_555
Co3 N6 1.651409 1_545
N0 Na3 2.452920 1_666
N0 Na10 2.485082 1_555
N0 Na7 2.485082 1_565
N1 Na3 2.452924 1_555
N1 Na11 2.485079 1_555
N1 Na6 2.485079 1_555
N2 Na2 2.452924 1_656
N2 Na8 2.485075 1_545
N2 Na5 2.485075 1_555
N3 Na2 2.452920 1_555
N3 Na9 2.485082 1_565
N3 Na4 2.485082 1_555
N4 Na1 2.452923 1_555
N4 Na7 2.485075 1_455
N4 Na11 2.485076 1_556
N5 Na1 2.452923 1_565
N5 Na10 2.485075 1_455
N5 Na6 2.485076 1_566
N6 Na0 2.452923 1_555
N6 Na9 2.485075 1_565
N6 Na5 2.485079 1_454
N7 Na0 2.452923 1_555
N7 Na4 2.485075 1_555
N7 Na8 2.485079 1_444
