# generated using pymatgen
data_Mg3Ni
_symmetry_space_group_name_H-M   'P 1'
_cell_length_a   3.10058600
_cell_length_b   4.65579400
_cell_length_c   5.00237200
_cell_angle_alpha   90.00000000
_cell_angle_beta   90.00000000
_cell_angle_gamma   90.00000000
_symmetry_Int_Tables_number   1
_chemical_formula_structural   Mg3Ni
_chemical_formula_sum   'Mg3 Ni1'
_cell_volume   72.21268993
_cell_formula_units_Z   1
loop_
 _symmetry_equiv_pos_site_id
 _symmetry_equiv_pos_as_xyz
  1  'x, y, z'
loop_
 _atom_site_type_symbol
 _atom_site_label
 _atom_site_symmetry_multiplicity
 _atom_site_fract_x
 _atom_site_fract_y
 _atom_site_fract_z
 _atom_site_occupancy
  Mg  Mg0  1  0.00000000  0.00000000  0.67341200  1
  Mg  Mg1  1  0.00000000  0.50000000  0.31480500  1
  Mg  Mg2  1  0.50000000  0.50000000  0.84398300  1
  Ni  Ni0  1  0.50000000  0.00000000  0.16780000  1
loop_
_geom_bond_atom_site_label_1
_geom_bond_atom_site_label_2
_geom_bond_distance
_geom_bond_site_symmetry_2
Mg0 Ni0 2.918852 1_556
Mg0 Ni0 2.918852 1_456
Mg0 Ni0 2.966574 1_455
Mg0 Ni0 2.966574 1_555
Mg1 Ni0 2.891935 1_455
Mg1 Ni0 2.891935 1_465
Mg1 Ni0 2.891935 1_555
Mg1 Ni0 2.891935 1_565
Mg2 Ni0 2.836023 1_556
Mg2 Ni0 2.836023 1_566
