# generated using pymatgen
data_AlPO5
_symmetry_space_group_name_H-M   'P 1'
_cell_length_a   5.06527035
_cell_length_b   5.06527035
_cell_length_c   15.16901869
_cell_angle_alpha   83.84284781
_cell_angle_beta   83.84284781
_cell_angle_gamma   90.00927818
_symmetry_Int_Tables_number   1
_chemical_formula_structural   AlPO5
_chemical_formula_sum   'Al4 P4 O20'
_cell_volume   384.68698746
_cell_formula_units_Z   4
loop_
 _symmetry_equiv_pos_site_id
 _symmetry_equiv_pos_as_xyz
  1  'x, y, z'
loop_
 _atom_site_type_symbol
 _atom_site_label
 _atom_site_symmetry_multiplicity
 _atom_site_fract_x
 _atom_site_fract_y
 _atom_site_fract_z
 _atom_site_occupancy
  Al  Al0  1  0.37828300  0.62171700  0.75000000  1
  Al  Al1  1  0.62171700  0.37828300  0.25000000  1
  Al  Al2  1  0.00000000  0.00000000  0.50000000  1
  Al  Al3  1  0.00000000  0.00000000  0.00000000  1
  P  P0  1  0.45266500  0.16169000  0.62635200  1
  P  P1  1  0.83831000  0.54733500  0.87364800  1
  P  P2  1  0.54733500  0.83831000  0.37364800  1
  P  P3  1  0.16169000  0.45266500  0.12635200  1
  O  O0  1  0.44352100  0.95328700  0.70827400  1
  O  O1  1  0.04671300  0.55647900  0.79172600  1
  O  O2  1  0.55647900  0.04671300  0.29172600  1
  O  O3  1  0.95328700  0.44352100  0.20827400  1
  O  O4  1  0.46506000  0.43948100  0.65885600  1
  O  O5  1  0.56051900  0.53494000  0.84114400  1
  O  O6  1  0.53494000  0.56052000  0.34114400  1
  O  O7  1  0.43948000  0.46506000  0.15885600  1
  O  O8  1  0.19069700  0.14613800  0.58247200  1
  O  O9  1  0.85386200  0.80930300  0.91752800  1
  O  O10  1  0.80930300  0.85386200  0.41752800  1
  O  O11  1  0.14613800  0.19069700  0.08247200  1
  O  O12  1  0.69234400  0.12527700  0.55928900  1
  O  O13  1  0.87472300  0.30765600  0.94071100  1
  O  O14  1  0.30765600  0.87472300  0.44071100  1
  O  O15  1  0.12527700  0.69234400  0.05928900  1
  O  O16  1  0.98903700  0.71492900  0.59128500  1
  O  O17  1  0.28507100  0.01096300  0.90871500  1
  O  O18  1  0.01096300  0.28507100  0.40871500  1
  O  O19  1  0.71492900  0.98903700  0.09128500  1
loop_
_geom_bond_atom_site_label_1
_geom_bond_atom_site_label_2
_geom_bond_distance
_geom_bond_site_symmetry_2
Al0 O1 1.748550 1_555
Al0 O0 1.748550 1_555
Al0 O5 1.760764 1_555
Al0 O4 1.760764 1_555
Al1 O2 1.748550 1_555
Al1 O3 1.748550 1_555
Al1 O7 1.760767 1_555
Al1 O6 1.760767 1_555
Al2 O12 1.860671 1_455
Al2 O14 1.860671 1_545
Al2 O8 1.871802 1_555
Al2 O10 1.871802 1_445
Al2 O18 1.886819 1_555
Al2 O16 1.886819 1_445
Al3 O15 1.860671 1_545
Al3 O13 1.860671 1_454
Al3 O11 1.871802 1_555
Al3 O9 1.871802 1_444
Al3 O19 1.886819 1_445
Al3 O17 1.886819 1_554
O0 P0 1.538493 1_565
O1 P1 1.538493 1_455
O2 P2 1.538493 1_545
O3 P3 1.538493 1_655
O4 P0 1.543493 1_555
O5 P1 1.543493 1_555
O6 P2 1.543488 1_555
O7 P3 1.543488 1_555
O8 P0 1.552641 1_555
O9 P1 1.552641 1_555
O10 P2 1.552641 1_555
O11 P3 1.552641 1_555
O12 P0 1.522551 1_555
O13 P1 1.522551 1_555
O14 P2 1.522551 1_555
O15 P3 1.522551 1_555
