# generated using pymatgen
data_MgV5(MoO5)5
_symmetry_space_group_name_H-M   'P 1'
_cell_length_a   18.93213187
_cell_length_b   5.56204069
_cell_length_c   6.39194390
_cell_angle_alpha   100.62053768
_cell_angle_beta   105.77242450
_cell_angle_gamma   48.21272000
_symmetry_Int_Tables_number   1
_chemical_formula_structural   MgV5(MoO5)5
_chemical_formula_sum   'Mg1 V5 Mo5 O25'
_cell_volume   482.96405352
_cell_formula_units_Z   1
loop_
 _symmetry_equiv_pos_site_id
 _symmetry_equiv_pos_as_xyz
  1  'x, y, z'
loop_
 _atom_site_type_symbol
 _atom_site_label
 _atom_site_symmetry_multiplicity
 _atom_site_fract_x
 _atom_site_fract_y
 _atom_site_fract_z
 _atom_site_occupancy
  Mg  Mg0  1  0.44304900  0.50483200  0.25233100  1
  V  V0  1  0.02553800  0.20204800  0.62183600  1
  V  V1  1  0.20407900  0.28626100  0.61581000  1
  V  V2  1  0.39497100  0.96021000  0.96659800  1
  V  V3  1  0.60914000  0.89792600  0.99344000  1
  V  V4  1  0.79383300  0.99335100  0.98731900  1
  Mo  Mo0  1  0.98527900  0.05900200  0.02088800  1
  Mo  Mo1  1  0.19129300  0.06648400  0.02096300  1
  Mo  Mo2  1  0.43822100  0.08323600  0.57646000  1
  Mo  Mo3  1  0.63361300  0.09926800  0.60347500  1
  Mo  Mo4  1  0.83269400  0.14191000  0.58581600  1
  O  O0  1  0.99982600  0.14420300  0.30411200  1
  O  O1  1  0.07441500  0.10550300  0.94707600  1
  O  O2  1  0.14353100  0.14207600  0.68371700  1
  O  O3  1  0.07031100  0.63721400  0.02070100  1
  O  O4  1  0.19724900  0.15224100  0.30922600  1
  O  O5  1  0.12782600  0.68506200  0.59737900  1
  O  O6  1  0.25485900  0.19007500  0.94157500  1
  O  O7  1  0.33683200  0.11252200  0.65753900  1
  O  O8  1  0.29039100  0.65226700  0.03711400  1
  O  O9  1  0.40994200  0.94084100  0.28410400  1
  O  O10  1  0.39198800  0.44882100  0.47670000  1
  O  O11  1  0.47748700  0.02596500  0.91713700  1
  O  O12  1  0.57268000  0.94512400  0.66623300  1
  O  O13  1  0.45313400  0.56487500  0.94854900  1
  O  O14  1  0.58406400  0.09283000  0.28119700  1
  O  O15  1  0.54042400  0.52536300  0.60324100  1
  O  O16  1  0.68313000  0.00929800  0.92972500  1
  O  O17  1  0.75089200  0.08293000  0.66332000  1
  O  O18  1  0.69010700  0.49792300  0.02902500  1
  O  O19  1  0.82286900  0.03764500  0.30777300  1
  O  O20  1  0.74840700  0.56767600  0.56695400  1
  O  O21  1  0.87104000  0.11088900  0.94261400  1
  O  O22  1  0.94645800  0.10045700  0.67067700  1
  O  O23  1  0.88295300  0.58789500  0.98846100  1
  O  O24  1  0.94266900  0.60720700  0.62300600  1
loop_
_geom_bond_atom_site_label_1
_geom_bond_atom_site_label_2
_geom_bond_distance
_geom_bond_site_symmetry_2
Mg0 O14 2.036500 1_555
Mg0 O9 2.043793 1_555
Mg0 O10 2.099546 1_555
Mg0 O13 2.108072 1_554
Mg0 O8 2.452266 1_555
Mg0 O15 2.526035 1_555
Mo0 O3 1.749858 1_645
Mo0 O0 1.778892 1_555
Mo0 O21 1.909022 1_554
Mo0 O1 2.048602 1_654
Mo0 O22 2.162024 1_554
Mo0 O23 2.204778 1_554
Mo1 O8 1.749346 1_545
Mo1 O4 1.808323 1_555
Mo1 O6 1.934270 1_554
Mo1 O1 1.999016 1_554
Mo1 O2 2.099765 1_554
Mo1 O3 2.373369 1_555
Mo2 O10 1.763507 1_555
Mo2 O9 1.970203 1_545
Mo2 O7 2.018073 1_555
Mo2 O12 2.040019 1_545
Mo2 O11 2.110935 1_555
Mo2 O15 2.327107 1_545
Mo3 O15 1.776720 1_555
Mo3 O12 1.980711 1_545
Mo3 O14 2.022830 1_555
Mo3 O16 2.043207 1_555
Mo3 O17 2.089660 1_555
Mo3 O20 2.231013 1_545
Mo4 O19 1.764544 1_555
Mo4 O20 1.770117 1_555
Mo4 O22 1.932715 1_555
Mo4 O17 1.976246 1_555
Mo4 O21 2.199118 1_555
Mo4 O24 2.230575 1_545
O0 V0 1.973668 1_655
O1 V0 2.042052 1_555
O2 V1 1.941529 1_555
O2 V0 1.957820 1_555
O4 V1 1.965941 1_555
O5 V1 1.659618 1_555
O5 V0 2.149567 1_565
O6 V2 2.005354 1_545
O6 V1 2.045289 1_555
O7 V1 1.953299 1_555
O7 V2 2.005951 1_545
O9 V2 1.984419 1_554
O11 V2 1.935656 1_545
O11 V3 2.014691 1_545
O12 V3 2.023797 1_555
O13 V2 1.676154 1_555
O14 V3 1.958960 1_544
O16 V4 1.969973 1_545
O16 V3 2.017765 1_545
O17 V4 2.030607 1_545
O18 V3 1.674267 1_554
O18 V4 2.113633 1_544
O19 V4 1.985161 1_544
O21 V4 2.053060 1_545
O22 V0 2.026027 1_655
O23 V4 1.691422 1_555
O24 V0 1.681682 1_655
