# generated using pymatgen
data_U(PO3)4
_symmetry_space_group_name_H-M   'P 1'
_cell_length_a   16.66299581
_cell_length_b   16.66299581
_cell_length_c   9.11730685
_cell_angle_alpha   89.95959822
_cell_angle_beta   89.95959822
_cell_angle_gamma   130.32674239
_symmetry_Int_Tables_number   1
_chemical_formula_structural   U(PO3)4
_chemical_formula_sum   'U8 P32 O96'
_cell_volume   1929.90466282
_cell_formula_units_Z   8
loop_
 _symmetry_equiv_pos_site_id
 _symmetry_equiv_pos_as_xyz
  1  'x, y, z'
loop_
 _atom_site_type_symbol
 _atom_site_label
 _atom_site_symmetry_multiplicity
 _atom_site_fract_x
 _atom_site_fract_y
 _atom_site_fract_z
 _atom_site_occupancy
  U  U0  1  0.06988800  0.93011200  0.25000000  1
  U  U1  1  0.93011200  0.06988800  0.75000000  1
  U  U2  1  0.06083200  0.42152400  0.25138500  1
  U  U3  1  0.57847600  0.93916800  0.24861500  1
  U  U4  1  0.93916800  0.57847600  0.74861500  1
  U  U5  1  0.42152400  0.06083200  0.75138500  1
  U  U6  1  0.56817300  0.43182700  0.25000000  1
  U  U7  1  0.43182700  0.56817300  0.75000000  1
  P  P0  1  0.84748400  0.36512500  0.01325300  1
  P  P1  1  0.63487500  0.15251600  0.48674700  1
  P  P2  1  0.15251600  0.63487500  0.98674700  1
  P  P3  1  0.36512500  0.84748400  0.51325300  1
  P  P4  1  0.34768100  0.86476800  0.02725100  1
  P  P5  1  0.13523200  0.65231900  0.47274900  1
  P  P6  1  0.65231900  0.13523200  0.97274900  1
  P  P7  1  0.86476800  0.34768100  0.52725100  1
  P  P8  1  0.13646800  0.14887100  0.01878300  1
  P  P9  1  0.85112900  0.86353200  0.48121700  1
  P  P10  1  0.86353200  0.85112900  0.98121700  1
  P  P11  1  0.14887100  0.13646800  0.51878300  1
  P  P12  1  0.63407500  0.65668300  0.02145000  1
  P  P13  1  0.34331700  0.36592500  0.47855000  1
  P  P14  1  0.36592500  0.34331700  0.97855000  1
  P  P15  1  0.65668300  0.63407500  0.52145000  1
  P  P16  1  0.01562700  0.33061800  0.63997700  1
  P  P17  1  0.66938200  0.98437300  0.86002300  1
  P  P18  1  0.98437300  0.66938200  0.36002300  1
  P  P19  1  0.33061800  0.01562700  0.13997700  1
  P  P20  1  0.51516600  0.82894500  0.63415400  1
  P  P21  1  0.17105500  0.48483400  0.86584600  1
  P  P22  1  0.48483400  0.17105500  0.36584600  1
  P  P23  1  0.82894500  0.51516600  0.13415400  1
  P  P24  1  0.32730300  0.51656100  0.36277400  1
  P  P25  1  0.48343900  0.67269700  0.13722600  1
  P  P26  1  0.67269700  0.48343900  0.63722600  1
  P  P27  1  0.51656100  0.32730300  0.86277400  1
  P  P28  1  0.83270600  0.01400200  0.36443500  1
  P  P29  1  0.98599800  0.16729400  0.13556500  1
  P  P30  1  0.16729400  0.98599800  0.63556500  1
  P  P31  1  0.01400200  0.83270600  0.86443500  1
  O  O0  1  0.25909500  0.74113500  0.04844000  1
  O  O1  1  0.25886500  0.74090500  0.45156000  1
  O  O2  1  0.74090500  0.25886500  0.95156000  1
  O  O3  1  0.74113500  0.25909500  0.54844000  1
  O  O4  1  0.43275500  0.08066900  0.24325200  1
  O  O5  1  0.91933100  0.56724500  0.25674800  1
  O  O6  1  0.56724500  0.91933100  0.75674800  1
  O  O7  1  0.08066900  0.43275500  0.74325200  1
  O  O8  1  0.92804200  0.07195800  0.25000000  1
  O  O9  1  0.07195800  0.92804200  0.75000000  1
  O  O10  1  0.42491400  0.57508600  0.25000000  1
  O  O11  1  0.57508600  0.42491400  0.75000000  1
  O  O12  1  0.70373700  0.59744300  0.63150800  1
  O  O13  1  0.40255700  0.29626300  0.86849200  1
  O  O14  1  0.29626300  0.40255700  0.36849200  1
  O  O15  1  0.59744300  0.70373700  0.13150800  1
  O  O16  1  0.19501800  0.09782200  0.62672200  1
  O  O17  1  0.90217800  0.80498200  0.87327800  1
  O  O18  1  0.80498200  0.90217800  0.37327800  1
  O  O19  1  0.09782200  0.19501800  0.12672200  1
  O  O20  1  0.19967400  0.59763500  0.87777500  1
  O  O21  1  0.40236500  0.80032600  0.62222500  1
  O  O22  1  0.80032600  0.40236500  0.12222500  1
  O  O23  1  0.59763500  0.19967400  0.37777500  1
  O  O24  1  0.69597200  0.09613900  0.86133600  1
  O  O25  1  0.90386100  0.30402800  0.63866400  1
  O  O26  1  0.30402800  0.90386100  0.13866400  1
  O  O27  1  0.09613900  0.69597200  0.36133600  1
  O  O28  1  0.24166500  0.25727900  0.95722500  1
  O  O29  1  0.74272100  0.75833500  0.54277500  1
  O  O30  1  0.75833500  0.74272100  0.04277500  1
  O  O31  1  0.25727900  0.24166500  0.45722500  1
  O  O32  1  0.89925600  0.43889700  0.88375100  1
  O  O33  1  0.56110300  0.10074400  0.61624900  1
  O  O34  1  0.10074400  0.56110300  0.11624900  1
  O  O35  1  0.43889700  0.89925600  0.38375100  1
  O  O36  1  0.08949300  0.65532100  0.90610400  1
  O  O37  1  0.34467900  0.91050700  0.59389600  1
  O  O38  1  0.91050700  0.34467900  0.09389600  1
  O  O39  1  0.65532100  0.08949300  0.40610400  1
  O  O40  1  0.35022800  0.90086500  0.87527200  1
  O  O41  1  0.09913500  0.64977200  0.62472800  1
  O  O42  1  0.64977200  0.09913500  0.12472800  1
  O  O43  1  0.90086500  0.35022800  0.37527200  1
  O  O44  1  0.44745100  0.89229200  0.08350700  1
  O  O45  1  0.10770800  0.55254900  0.41649300  1
  O  O46  1  0.55254900  0.10770800  0.91649300  1
  O  O47  1  0.89229200  0.44745100  0.58350700  1
  O  O48  1  0.90566400  0.93880700  0.60841900  1
  O  O49  1  0.06119300  0.09433600  0.89158100  1
  O  O50  1  0.09433600  0.06119300  0.39158100  1
  O  O51  1  0.93880700  0.90566400  0.10841900  1
  O  O52  1  0.91108700  0.84090300  0.39607700  1
  O  O53  1  0.15909700  0.08891300  0.10392300  1
  O  O54  1  0.08891300  0.15909700  0.60392300  1
  O  O55  1  0.84090300  0.91108700  0.89607700  1
  O  O56  1  0.34529800  0.39948000  0.63232000  1
  O  O57  1  0.60052000  0.65470200  0.86768000  1
  O  O58  1  0.65470200  0.60052000  0.36768000  1
  O  O59  1  0.39948000  0.34529800  0.13232000  1
  O  O60  1  0.44465100  0.39813200  0.41842600  1
  O  O61  1  0.60186800  0.55534900  0.08157400  1
  O  O62  1  0.55534900  0.60186800  0.58157400  1
  O  O63  1  0.39813200  0.44465100  0.91842600  1
  O  O64  1  0.06423600  0.35988500  0.49021000  1
  O  O65  1  0.64011500  0.93576400  0.00979000  1
  O  O66  1  0.93576400  0.64011500  0.50979000  1
  O  O67  1  0.35988500  0.06423500  0.99021000  1
  O  O68  1  0.75904900  0.00279900  0.78008700  1
  O  O69  1  0.99720100  0.24095100  0.71991300  1
  O  O70  1  0.24095100  0.99720100  0.21991300  1
  O  O71  1  0.00279900  0.75904900  0.28008700  1
  O  O72  1  0.57399700  0.87146200  0.49206700  1
  O  O73  1  0.12853800  0.42600300  0.00793300  1
  O  O74  1  0.42600300  0.12853800  0.50793300  1
  O  O75  1  0.87146200  0.57399700  0.99206700  1
  O  O76  1  0.26370100  0.50218400  0.79800000  1
  O  O77  1  0.49781600  0.73629900  0.70200000  1
  O  O78  1  0.73629900  0.49781600  0.20200000  1
  O  O79  1  0.50218400  0.26370100  0.29800000  1
  O  O80  1  0.56834800  0.36438700  0.01006200  1
  O  O81  1  0.63561300  0.43165200  0.48993800  1
  O  O82  1  0.43165200  0.63561300  0.98993800  1
  O  O83  1  0.36438700  0.56834800  0.51006200  1
  O  O84  1  0.76277300  0.49835200  0.71016700  1
  O  O85  1  0.50164800  0.23722700  0.78983300  1
  O  O86  1  0.23722700  0.50164800  0.28983300  1
  O  O87  1  0.49835200  0.76277300  0.21016700  1
  O  O88  1  0.06931700  0.86884300  0.00910600  1
  O  O89  1  0.13115700  0.93068300  0.49089400  1
  O  O90  1  0.93068300  0.13115700  0.99089400  1
  O  O91  1  0.86884300  0.06931700  0.50910600  1
  O  O92  1  0.25877700  0.00506400  0.71021300  1
  O  O93  1  0.99493600  0.74122300  0.78978700  1
  O  O94  1  0.74122300  0.99493600  0.28978700  1
  O  O95  1  0.00506400  0.25877700  0.21021300  1
loop_
_geom_bond_atom_site_label_1
_geom_bond_atom_site_label_2
_geom_bond_distance
_geom_bond_site_symmetry_2
O0 P4 1.588523 1_555
O0 P2 1.593204 1_554
O1 P5 1.588523 1_555
O1 P3 1.593204 1_555
O2 P6 1.588523 1_555
O2 P0 1.593204 1_556
O3 P7 1.588523 1_555
O3 P1 1.593204 1_555
O4 P19 1.604384 1_555
O4 P22 1.607123 1_555
O5 P18 1.604384 1_555
O5 P23 1.607123 1_555
O6 P17 1.604384 1_555
O6 P20 1.607123 1_555
O7 P16 1.604384 1_555
O7 P21 1.607123 1_555
O8 P28 1.598563 1_555
O8 P29 1.598563 1_555
O9 P31 1.598563 1_555
O9 P30 1.598563 1_555
O10 P24 1.611507 1_555
O10 P25 1.611507 1_555
O11 P27 1.611507 1_555
O11 P26 1.611507 1_555
O12 P26 1.614631 1_555
O12 P15 1.616754 1_555
O13 P27 1.614631 1_555
O13 P14 1.616754 1_555
O14 P24 1.614631 1_555
O14 P13 1.616754 1_555
O15 P25 1.614631 1_555
O15 P12 1.616754 1_555
O16 P30 1.605462 1_545
O16 P11 1.617253 1_555
O17 P31 1.605462 1_655
O17 P10 1.617253 1_555
O18 P28 1.605462 1_565
O18 P9 1.617253 1_555
O19 P29 1.605462 1_455
O19 P8 1.617253 1_555
O20 P21 1.616286 1_555
O20 P2 1.618799 1_555
O21 P20 1.616286 1_555
O21 P3 1.618799 1_555
O22 P23 1.616286 1_555
O22 P0 1.618799 1_555
O23 P22 1.616286 1_555
O23 P1 1.618799 1_555
O24 P17 1.611483 1_545
O24 P6 1.611958 1_555
O25 P16 1.611483 1_655
O25 P7 1.611958 1_555
O26 P19 1.611483 1_565
O26 P4 1.611958 1_555
O27 P18 1.611483 1_455
O27 P5 1.611958 1_555
O28 P14 1.593501 1_555
O28 P8 1.596753 1_556
O29 P15 1.593501 1_555
O29 P9 1.596753 1_555
O30 P12 1.593501 1_555
O30 P10 1.596753 1_554
O31 P13 1.593501 1_555
O31 P11 1.596753 1_555
O32 P0 1.507763 1_556
O32 U4 2.315705 1_555
O33 P1 1.507763 1_555
O33 U5 2.315705 1_555
O34 P2 1.507763 1_554
O34 U2 2.315705 1_555
O35 P3 1.507763 1_555
O35 U3 2.315705 1_555
O36 P2 1.491068 1_555
O36 U4 2.414962 1_455
O37 P3 1.491068 1_555
O37 U5 2.414962 1_565
O38 P0 1.491068 1_555
O38 U2 2.414962 1_655
O39 P1 1.491068 1_555
O39 U3 2.414962 1_545
O40 P4 1.499761 1_556
O40 U5 2.384845 1_565
O41 P5 1.499761 1_555
O41 U4 2.384845 1_455
O42 P6 1.499761 1_554
O42 U3 2.384845 1_545
O43 P7 1.499761 1_555
O43 U2 2.384845 1_655
O44 P4 1.500632 1_555
O44 U3 2.332790 1_555
O45 P5 1.500632 1_555
O45 U2 2.332790 1_555
O46 P6 1.500632 1_555
O46 U5 2.332790 1_555
O47 P7 1.500632 1_555
O47 U4 2.332790 1_555
O48 P9 1.507428 1_555
O48 U1 2.335813 1_565
O49 P8 1.507428 1_556
O49 U1 2.335813 1_455
O50 P11 1.507428 1_555
O50 U0 2.335813 1_545
O51 P10 1.507428 1_554
O51 U0 2.335813 1_655
O52 P9 1.493253 1_555
O52 U0 2.426219 1_655
O53 P8 1.493253 1_555
O53 U0 2.426219 1_545
O54 P11 1.493253 1_555
O54 U1 2.426219 1_455
O55 P10 1.493253 1_555
O55 U1 2.426219 1_565
O56 P13 1.502169 1_555
O56 U7 2.427384 1_555
O57 P12 1.502169 1_556
O57 U7 2.427384 1_555
O58 P15 1.502169 1_555
O58 U6 2.427384 1_555
O59 P14 1.502169 1_554
O59 U6 2.427384 1_555
O60 P13 1.505009 1_555
O60 U6 2.325569 1_555
O61 P12 1.505009 1_555
O61 U6 2.325569 1_555
O62 P15 1.505009 1_555
O62 U7 2.325569 1_555
O63 P14 1.505009 1_555
O63 U7 2.325569 1_555
O64 P16 1.498214 1_555
O64 U2 2.423180 1_555
O65 P17 1.498214 1_554
O65 U3 2.423180 1_555
O66 P18 1.498214 1_555
O66 U4 2.423180 1_555
O67 P19 1.498209 1_556
O67 U5 2.423175 1_555
O68 P17 1.504067 1_545
O68 U1 2.307395 1_555
O69 P16 1.504067 1_655
O69 U1 2.307395 1_555
O70 P19 1.504067 1_565
O70 U0 2.307395 1_555
O71 P18 1.504067 1_455
O71 U0 2.307395 1_555
O72 P20 1.496370 1_555
O72 U3 2.468272 1_555
O73 P21 1.496370 1_554
O73 U2 2.468272 1_555
O74 P22 1.496370 1_555
O74 U5 2.468272 1_555
O75 P23 1.496370 1_556
O75 U4 2.468272 1_555
O76 P21 1.506705 1_555
O76 U7 2.293359 1_555
O77 P20 1.506705 1_555
O77 U7 2.293359 1_555
O78 P23 1.506705 1_555
O78 U6 2.293359 1_555
O79 P22 1.506705 1_555
O79 U6 2.293359 1_555
O80 P27 1.497475 1_554
O80 U6 2.460908 1_555
O81 P26 1.497475 1_555
O81 U6 2.460908 1_555
O82 P25 1.497475 1_556
O82 U7 2.460908 1_555
O83 P24 1.497475 1_555
O83 U7 2.460908 1_555
O84 P26 1.508549 1_555
O84 U4 2.338311 1_555
O85 P27 1.508549 1_555
O85 U5 2.338311 1_555
O86 P24 1.508549 1_555
O86 U2 2.338311 1_555
O87 P25 1.508549 1_555
O87 U3 2.338311 1_555
O88 P31 1.495466 1_554
O88 U0 2.420073 1_555
O89 P30 1.495466 1_555
O89 U0 2.420073 1_555
O90 P29 1.495466 1_556
O90 U1 2.420073 1_555
O91 P28 1.495466 1_555
O91 U1 2.420073 1_555
O92 P30 1.504269 1_545
O92 U5 2.258067 1_555
O93 P31 1.504269 1_655
O93 U4 2.258067 1_555
O94 P28 1.504269 1_565
O94 U3 2.258067 1_555
O95 P29 1.504269 1_455
O95 U2 2.258067 1_555
