# generated using pymatgen
data_NaPr2Ti2MnO9
_symmetry_space_group_name_H-M   'P 1'
_cell_length_a   5.55617000
_cell_length_b   5.60544677
_cell_length_c   23.15798794
_cell_angle_alpha   89.59427758
_cell_angle_beta   89.71207733
_cell_angle_gamma   87.82434295
_symmetry_Int_Tables_number   1
_chemical_formula_structural   NaPr2Ti2MnO9
_chemical_formula_sum   'Na4 Pr8 Ti8 Mn4 O36'
_cell_volume   720.70509531
_cell_formula_units_Z   4
loop_
 _symmetry_equiv_pos_site_id
 _symmetry_equiv_pos_as_xyz
  1  'x, y, z'
loop_
 _atom_site_type_symbol
 _atom_site_label
 _atom_site_symmetry_multiplicity
 _atom_site_fract_x
 _atom_site_fract_y
 _atom_site_fract_z
 _atom_site_occupancy
  Na  Na0  1  0.49468900  0.48314900  0.08277400  1
  Na  Na1  1  0.99157900  0.01933500  0.58314000  1
  Na  Na2  1  0.98935400  0.01593500  0.91606800  1
  Na  Na3  1  0.99518000  0.01970500  0.24991100  1
  Pr  Pr0  1  0.01629500  0.96093300  0.75058200  1
  Pr  Pr1  1  0.01477300  0.96103200  0.41718600  1
  Pr  Pr2  1  0.01109700  0.96568800  0.08280200  1
  Pr  Pr3  1  0.50702600  0.54111100  0.91721600  1
  Pr  Pr4  1  0.50919800  0.54048200  0.58284300  1
  Pr  Pr5  1  0.50982300  0.53985300  0.24872300  1
  Pr  Pr6  1  0.49645800  0.46252200  0.41621700  1
  Pr  Pr7  1  0.49737800  0.46270600  0.74995300  1
  Ti  Ti0  1  0.48399600  0.99836600  0.99912900  1
  Ti  Ti1  1  0.50451100  0.00191000  0.66243400  1
  Ti  Ti2  1  0.50334300  0.00126400  0.32911300  1
  Ti  Ti3  1  0.51723400  0.01871900  0.16577600  1
  Ti  Ti4  1  0.00152000  0.49295200  0.83722000  1
  Ti  Ti5  1  0.00085700  0.49265800  0.50357000  1
  Ti  Ti6  1  0.01873400  0.50040400  0.16695700  1
  Ti  Ti7  1  0.97979700  0.48882700  0.00141700  1
  Mn  Mn0  1  0.50592400  0.00156900  0.83451300  1
  Mn  Mn1  1  0.50421700  0.00072800  0.50064700  1
  Mn  Mn2  1  0.00074300  0.49451400  0.66624000  1
  Mn  Mn3  1  0.99985300  0.49444400  0.33223100  1
  O  O0  1  0.43081400  0.98843700  0.91745900  1
  O  O1  1  0.42325200  0.98191400  0.58311400  1
  O  O2  1  0.42403800  0.98225900  0.24932600  1
  O  O3  1  0.77368100  0.77519100  0.65373800  1
  O  O4  1  0.77240400  0.76842600  0.98704800  1
  O  O5  1  0.77798200  0.77735200  0.84615700  1
  O  O6  1  0.77668200  0.77728800  0.51263000  1
  O  O7  1  0.77180700  0.77479500  0.32002800  1
  O  O8  1  0.76321400  0.76682600  0.17873600  1
  O  O9  1  0.26605200  0.70530300  0.48482000  1
  O  O10  1  0.26824200  0.70551200  0.81867600  1
  O  O11  1  0.29311800  0.73623100  0.68295200  1
  O  O12  1  0.29168200  0.73587700  0.34935400  1
  O  O13  1  0.26053900  0.71909000  0.15442100  1
  O  O14  1  0.27448200  0.73970200  0.01247900  1
  O  O15  1  0.92448800  0.51515400  0.41512900  1
  O  O16  1  0.92586200  0.51503200  0.74872800  1
  O  O17  1  0.93043000  0.51553900  0.08318700  1
  O  O18  1  0.08252400  0.48482900  0.91722900  1
  O  O19  1  0.08099000  0.48125800  0.58358000  1
  O  O20  1  0.07723700  0.48218600  0.24931400  1
  O  O21  1  0.72991200  0.28067000  0.98692300  1
  O  O22  1  0.72197600  0.30885700  0.84504500  1
  O  O23  1  0.72157000  0.30685900  0.51106600  1
  O  O24  1  0.68859000  0.28267600  0.65507000  1
  O  O25  1  0.68652100  0.28242600  0.32164100  1
  O  O26  1  0.71611900  0.27082500  0.17969800  1
  O  O27  1  0.22287600  0.22492000  0.68415900  1
  O  O28  1  0.22563800  0.22129300  0.81736300  1
  O  O29  1  0.22100700  0.22426800  0.35044400  1
  O  O30  1  0.21838400  0.21612200  0.15240100  1
  O  O31  1  0.22795500  0.22724900  0.01494400  1
  O  O32  1  0.22547400  0.22179200  0.48369900  1
  O  O33  1  0.58644200  0.01862800  0.75149700  1
  O  O34  1  0.58482200  0.01781000  0.41786500  1
  O  O35  1  0.57961500  0.00860000  0.08341300  1
loop_
_geom_bond_atom_site_label_1
_geom_bond_atom_site_label_2
_geom_bond_distance
_geom_bond_site_symmetry_2
Na0 O17 2.434785 1_555
Na0 O14 2.463409 1_555
Na0 O13 2.464423 1_555
Na0 O31 2.634033 1_555
Na0 O35 2.683840 1_555
Na0 O30 2.704177 1_555
Na0 O21 2.795947 1_554
Na0 O26 2.801244 1_555
Na1 O1 2.399655 1_645
Na1 O3 2.466936 1_545
Na1 O6 2.471181 1_545
Na1 O19 2.655067 1_655
Na1 O23 2.727191 1_555
Na1 O24 2.757849 1_555
Na1 O32 2.885271 1_655
Na1 O27 2.938228 1_655
Na1 O19 3.038088 1_645
Na2 O5 2.440898 1_545
Na2 O0 2.452177 1_645
Na2 O4 2.480844 1_545
Na2 O21 2.611662 1_555
Na2 O18 2.698412 1_655
Na2 O22 2.722009 1_555
Na2 O28 2.884590 1_655
Na2 O31 2.931170 1_656
Na2 O18 3.002289 1_645
Na3 O2 2.384063 1_645
Na3 O7 2.477731 1_545
Na3 O8 2.565222 1_545
Na3 O26 2.618509 1_555
Na3 O20 2.649119 1_655
Na3 O25 2.771900 1_555
Na3 O30 2.808861 1_655
Na3 O29 2.913049 1_655
Mn0 O5 1.947392 1_545
Mn0 O0 1.965086 1_545
Mn0 O33 1.974140 1_555
Mn0 O28 1.988364 1_555
Mn0 O22 2.152521 1_555
Mn0 O10 2.193725 1_545
Mn1 O6 1.947519 1_545
Mn1 O1 1.962862 1_545
Mn1 O34 1.968986 1_555
Mn1 O32 1.985366 1_555
Mn1 O23 2.151147 1_555
Mn1 O9 2.192618 1_545
Mn2 O16 1.956245 1_455
Mn2 O27 1.958018 1_555
Mn2 O19 1.964574 1_555
Mn2 O3 1.999323 1_455
Mn2 O24 2.156439 1_455
Mn2 O11 2.192131 1_555
Mn3 O29 1.958627 1_655
Mn3 O15 1.966126 1_555
Mn3 O20 1.966735 1_655
Mn3 O7 2.000256 1_555
Mn3 O25 2.160765 1_555
Mn3 O12 2.190558 1_655
O0 Ti0 1.917246 1_555
O0 Pr3 2.527106 1_555
O1 Ti1 1.898860 1_565
O1 Pr4 2.502263 1_555
O2 Ti2 1.906321 1_565
O2 Ti3 2.011444 1_565
O2 Pr5 2.507564 1_555
O3 Ti1 1.936134 1_565
O3 Pr4 2.605281 1_555
O3 Pr0 2.846211 1_655
O4 Ti7 1.937589 1_556
O4 Ti0 2.037446 1_555
O4 Pr3 2.570745 1_555
O4 Pr2 2.841535 1_656
O5 Ti4 1.994650 1_655
O5 Pr3 2.612205 1_555
O5 Pr0 2.784378 1_655
O6 Ti5 1.998051 1_655
O6 Pr4 2.590276 1_555
O6 Pr1 2.781733 1_655
O7 Ti2 1.933291 1_565
O7 Pr5 2.603931 1_555
O7 Pr1 2.854020 1_655
O8 Ti3 1.950188 1_565
O8 Ti6 2.039896 1_655
O8 Pr5 2.512283 1_555
O8 Pr2 2.850596 1_655
O9 Ti5 1.974851 1_555
O9 Pr6 2.427504 1_555
O9 Pr1 2.509084 1_555
O9 Pr4 2.781726 1_555
O10 Ti4 1.980072 1_555
O10 Pr7 2.425867 1_555
O10 Pr0 2.516789 1_555
O10 Pr3 2.779338 1_555
O11 Ti1 1.985031 1_565
O11 Pr7 2.428616 1_555
O11 Pr0 2.502338 1_555
O11 Pr4 2.815674 1_555
O12 Ti2 1.983219 1_565
O12 Pr6 2.427285 1_555
O12 Pr1 2.506783 1_555
O12 Pr5 2.830893 1_555
O13 Ti6 1.872978 1_555
O13 Ti3 2.261883 1_565
O13 Pr2 2.535259 1_555
O13 Pr5 2.755118 1_555
O14 Ti0 1.916031 1_554
O14 Ti7 2.215438 1_455
O14 Pr2 2.502576 1_555
O14 Pr3 2.769910 1_554
O15 Ti5 2.095648 1_655
O15 Pr6 2.407511 1_555
O15 Pr1 2.568610 1_655
O16 Ti4 2.095891 1_655
O16 Pr7 2.409758 1_555
O16 Pr0 2.568808 1_655
O17 Ti7 1.918114 1_555
O17 Ti6 2.003841 1_655
O17 Pr2 2.579427 1_655
O18 Ti4 1.908746 1_555
O18 Ti7 2.028738 1_456
O18 Pr3 2.391451 1_555
O19 Ti5 1.907852 1_555
O19 Pr4 2.414655 1_555
O20 Ti6 1.937663 1_555
O20 Pr5 2.437250 1_555
O21 Ti7 1.880162 1_556
O21 Ti0 2.145899 1_545
O21 Pr3 2.473907 1_555
O22 Ti4 1.904299 1_655
O22 Pr3 2.409839 1_555
O22 Pr7 2.658838 1_555
O23 Ti5 1.907943 1_655
O23 Pr4 2.400839 1_555
O23 Pr6 2.658577 1_555
O24 Ti1 1.915390 1_555
O24 Pr4 2.398478 1_555
O24 Pr7 2.627118 1_555
O25 Ti2 1.914641 1_555
O25 Pr5 2.402533 1_555
O25 Pr6 2.618848 1_555
O26 Ti3 1.857605 1_555
O26 Ti6 2.173503 1_655
O26 Pr5 2.455110 1_555
O27 Ti1 2.029015 1_555
O27 Pr0 2.439725 1_545
O27 Pr7 2.575031 1_555
O28 Ti4 1.985219 1_555
O28 Pr0 2.460384 1_545
O28 Pr7 2.578627 1_555
O29 Ti2 2.029661 1_555
O29 Pr1 2.440794 1_545
O29 Pr6 2.579414 1_555
O30 Ti6 1.937296 1_555
O30 Ti3 1.984514 1_555
O30 Pr2 2.463406 1_545
O31 Ti0 1.914902 1_544
O31 Ti7 1.998375 1_455
O31 Pr2 2.480598 1_545
O32 Ti5 1.983646 1_555
O32 Pr1 2.461604 1_545
O32 Pr6 2.575022 1_555
O33 Ti1 2.117879 1_555
O33 Pr0 2.397944 1_645
O33 Pr7 2.519512 1_555
O34 Ti2 2.110242 1_555
O34 Pr1 2.397970 1_645
O34 Pr6 2.522403 1_555
O35 Ti3 1.937723 1_555
O35 Ti0 2.027209 1_544
O35 Pr2 2.400302 1_645
