# generated using pymatgen
data_TbCu(WO4)2
_symmetry_space_group_name_H-M   'P 1'
_cell_length_a   7.11871100
_cell_length_b   7.36020866
_cell_length_c   7.42404711
_cell_angle_alpha   113.84885763
_cell_angle_beta   116.01768937
_cell_angle_gamma   90.95979205
_symmetry_Int_Tables_number   1
_chemical_formula_structural   TbCu(WO4)2
_chemical_formula_sum   'Tb2 Cu2 W4 O16'
_cell_volume   310.67318768
_cell_formula_units_Z   2
loop_
 _symmetry_equiv_pos_site_id
 _symmetry_equiv_pos_as_xyz
  1  'x, y, z'
loop_
 _atom_site_type_symbol
 _atom_site_label
 _atom_site_symmetry_multiplicity
 _atom_site_fract_x
 _atom_site_fract_y
 _atom_site_fract_z
 _atom_site_occupancy
  Tb  Tb0  1  0.18027100  0.28550400  0.45450500  1
  Tb  Tb1  1  0.81972900  0.71449600  0.54549500  1
  Cu  Cu0  1  0.72903000  0.31721000  0.93745300  1
  Cu  Cu1  1  0.27097000  0.68279000  0.06254700  1
  W  W0  1  0.25281300  0.29309700  0.01985800  1
  W  W1  1  0.74718700  0.70690300  0.98014200  1
  W  W2  1  0.65044600  0.11141500  0.29373900  1
  W  W3  1  0.34955400  0.88858500  0.70626100  1
  O  O0  1  0.54962700  0.45438400  0.75743700  1
  O  O1  1  0.45037300  0.54561600  0.24256300  1
  O  O2  1  0.02872900  0.30603000  0.08378500  1
  O  O3  1  0.97127100  0.69397000  0.91621500  1
  O  O4  1  0.17178900  0.32979600  0.76929800  1
  O  O5  1  0.82821100  0.67020400  0.23070200  1
  O  O6  1  0.82041800  0.37232700  0.44765500  1
  O  O7  1  0.17958200  0.62767300  0.55234500  1
  O  O8  1  0.61756100  0.81489600  0.73503900  1
  O  O9  1  0.38243900  0.18510400  0.26496100  1
  O  O10  1  0.48254500  0.82886700  0.01327400  1
  O  O11  1  0.51745500  0.17113300  0.98672600  1
  O  O12  1  0.71260000  0.01439400  0.49447300  1
  O  O13  1  0.86832000  0.01960900  0.20235500  1
  O  O14  1  0.28740000  0.98560600  0.50552700  1
  O  O15  1  0.13168000  0.98039100  0.79764500  1
loop_
_geom_bond_atom_site_label_1
_geom_bond_atom_site_label_2
_geom_bond_distance
_geom_bond_site_symmetry_2
Cu0 O2 1.945121 1_656
Cu0 O0 2.018273 1_555
Cu0 O11 2.074941 1_555
Cu0 O5 2.450398 1_556
Cu1 O3 1.945121 1_454
Cu1 O1 2.018273 1_555
Cu1 O10 2.074941 1_555
Cu1 O4 2.450398 1_554
O0 W1 1.885057 1_555
O0 Tb0 2.441018 1_555
O1 W0 1.885057 1_555
O1 Tb1 2.441018 1_555
O2 W0 1.847069 1_555
O2 Tb0 2.549190 1_555
O3 W1 1.847069 1_555
O3 Tb1 2.549190 1_555
O4 W0 1.826508 1_556
O4 Tb0 2.253894 1_555
O5 W1 1.826508 1_554
O5 Tb1 2.253894 1_555
O6 W2 1.841818 1_555
O6 Tb1 2.322588 1_555
O6 Tb0 2.634395 1_655
O7 W3 1.841818 1_555
O7 Tb0 2.322588 1_555
O7 Tb1 2.634395 1_455
O8 W3 1.936627 1_555
O8 W1 2.124975 1_555
O8 Tb1 2.359851 1_555
O9 W2 1.936627 1_555
O9 W0 2.124975 1_555
O9 Tb0 2.359851 1_555
O10 W2 2.078629 1_565
O10 W1 2.167968 1_554
O10 W3 2.283766 1_554
O11 W3 2.078629 1_545
O11 W0 2.167968 1_556
O11 W2 2.283766 1_556
O12 W2 1.794225 1_555
O12 Tb1 2.465032 1_545
O13 W2 1.977358 1_555
O13 W1 2.092249 1_544
O13 Tb0 2.347479 1_655
O14 W3 1.794225 1_555
O14 Tb0 2.465032 1_565
O15 W3 1.977358 1_555
O15 W0 2.092249 1_566
O15 Tb1 2.347479 1_455
