# generated using pymatgen
data_Be4SiNi
_symmetry_space_group_name_H-M   'P 1'
_cell_length_a   4.20000498
_cell_length_b   4.20000498
_cell_length_c   4.20000498
_cell_angle_alpha   60.00000000
_cell_angle_beta   60.00000000
_cell_angle_gamma   60.00000000
_symmetry_Int_Tables_number   1
_chemical_formula_structural   Be4SiNi
_chemical_formula_sum   'Be4 Si1 Ni1'
_cell_volume   52.38831343
_cell_formula_units_Z   1
loop_
 _symmetry_equiv_pos_site_id
 _symmetry_equiv_pos_as_xyz
  1  'x, y, z'
loop_
 _atom_site_type_symbol
 _atom_site_label
 _atom_site_symmetry_multiplicity
 _atom_site_fract_x
 _atom_site_fract_y
 _atom_site_fract_z
 _atom_site_occupancy
  Be  Be0  1  0.62441600  0.62441600  0.12675100  1
  Be  Be1  1  0.62441600  0.12675100  0.62441600  1
  Be  Be2  1  0.12675100  0.62441600  0.62441600  1
  Be  Be3  1  0.62441600  0.62441600  0.62441600  1
  Si  Si0  1  0.00000000  0.00000000  0.00000000  1
  Ni  Ni0  1  0.25000000  0.25000000  0.25000000  1
loop_
_geom_bond_atom_site_label_1
_geom_bond_atom_site_label_2
_geom_bond_distance
_geom_bond_site_symmetry_2
Be0 Be2 2.090195 1_555
Be0 Be3 2.090195 1_555
Be0 Be1 2.090195 1_555
Be0 Be3 2.109809 1_554
Be0 Be1 2.109809 1_564
Be0 Be2 2.109809 1_654
Be0 Ni0 2.461431 1_555
Be0 Ni0 2.461434 1_655
Be0 Ni0 2.461434 1_565
Be0 Si0 2.463522 1_655
Be0 Si0 2.463522 1_565
Be0 Si0 2.463526 1_665
Be1 Be2 2.090195 1_555
Be1 Be3 2.090195 1_555
Be1 Be2 2.109809 1_645
Be1 Be3 2.109809 1_545
Be1 Ni0 2.461431 1_555
Be1 Ni0 2.461434 1_655
Be1 Ni0 2.461434 1_556
Be1 Si0 2.463522 1_556
Be1 Si0 2.463522 1_655
Be1 Si0 2.463526 1_656
Be2 Be3 2.090195 1_555
Be2 Be3 2.109809 1_455
Be2 Ni0 2.461431 1_555
Be2 Ni0 2.461434 1_565
Be2 Ni0 2.461434 1_556
Be2 Si0 2.463522 1_556
Be2 Si0 2.463522 1_565
Be2 Si0 2.463526 1_566
Be3 Ni0 2.461432 1_655
Be3 Ni0 2.461432 1_556
Be3 Ni0 2.461432 1_565
Be3 Si0 2.463524 1_566
Be3 Si0 2.463524 1_656
Be3 Si0 2.463524 1_665
Ni0 Si0 2.571967 1_556
Ni0 Si0 2.571967 1_555
Ni0 Si0 2.571967 1_565
Ni0 Si0 2.571967 1_655
