# generated using pymatgen
data_Mg3Pd5
_symmetry_space_group_name_H-M   'P 1'
_cell_length_a   4.21355893
_cell_length_b   5.46888319
_cell_length_c   10.66486415
_cell_angle_alpha   90.00033907
_cell_angle_beta   90.00000000
_cell_angle_gamma   90.00000000
_symmetry_Int_Tables_number   1
_chemical_formula_structural   Mg3Pd5
_chemical_formula_sum   'Mg6 Pd10'
_cell_volume   245.75538753
_cell_formula_units_Z   2
loop_
 _symmetry_equiv_pos_site_id
 _symmetry_equiv_pos_as_xyz
  1  'x, y, z'
loop_
 _atom_site_type_symbol
 _atom_site_label
 _atom_site_symmetry_multiplicity
 _atom_site_fract_x
 _atom_site_fract_y
 _atom_site_fract_z
 _atom_site_occupancy
  Mg  Mg0  1  0.00000000  -0.00002577  0.49998335  1
  Mg  Mg1  1  0.00000000  0.50021815  1.00001875  1
  Mg  Mg2  1  0.50000000  0.16708232  0.13668072  1
  Mg  Mg3  1  0.50000000  0.83291847  0.86331179  1
  Mg  Mg4  1  0.50000000  0.33291010  0.63669725  1
  Mg  Mg5  1  0.50000000  0.66706794  0.36330574  1
  Pd  Pd0  1  0.50000000  0.17988332  0.38772149  1
  Pd  Pd1  1  0.50000000  0.82003175  0.61211327  1
  Pd  Pd2  1  0.50000000  0.32004678  0.88795858  1
  Pd  Pd3  1  0.50000000  0.67990776  0.11221898  1
  Pd  Pd4  1  0.00000000  0.40012694  0.24396709  1
  Pd  Pd5  1  0.00000000  0.59981963  0.75600725  1
  Pd  Pd6  1  -0.00000000  0.09982627  0.74409888  1
  Pd  Pd7  1  0.00000000  0.90014033  0.25591717  1
  Pd  Pd8  1  -0.00000000  0.00005944  1.00010419  1
  Pd  Pd9  1  0.00000000  0.49998457  0.49989351  1
loop_
_geom_bond_atom_site_label_1
_geom_bond_atom_site_label_2
_geom_bond_distance
_geom_bond_site_symmetry_2
Mg0 Pd1 2.614768 1_545
Mg0 Pd1 2.614768 1_445
Mg0 Pd0 2.615344 1_455
Mg0 Pd0 2.615344 1_555
Mg0 Pd7 2.659574 1_545
Mg0 Pd6 2.660110 1_555
Mg0 Pd9 2.734385 1_545
Mg0 Pd9 2.734498 1_555
Mg1 Pd3 2.614586 1_556
Mg1 Pd3 2.614586 1_456
Mg1 Pd2 2.614894 1_455
Mg1 Pd2 2.614894 1_555
Mg1 Pd4 2.658640 1_556
Mg1 Pd5 2.658749 1_555
Mg1 Pd8 2.733574 1_565
Mg1 Pd8 2.735310 1_555
Mg2 Pd3 2.677041 1_545
Mg2 Pd0 2.678230 1_555
Mg2 Pd4 2.715146 1_555
Mg2 Pd4 2.715146 1_655
Mg2 Pd8 2.719274 1_654
Mg2 Pd8 2.719274 1_554
Mg2 Pd2 2.781377 1_554
Mg2 Pd3 2.816691 1_555
Mg2 Pd7 2.861266 1_645
Mg2 Pd7 2.861266 1_545
Mg3 Pd2 2.676982 1_565
Mg3 Pd1 2.679925 1_555
Mg3 Pd5 2.715367 1_555
Mg3 Pd5 2.715367 1_655
Mg3 Pd8 2.720725 1_565
Mg3 Pd8 2.720725 1_665
Mg3 Pd3 2.783335 1_556
Mg3 Pd2 2.817127 1_555
Mg3 Pd6 2.861059 1_565
Mg3 Pd6 2.861059 1_665
Mg4 Pd1 2.676884 1_555
Mg4 Pd2 2.680592 1_555
Mg4 Pd6 2.715771 1_655
Mg4 Pd6 2.715771 1_555
Mg4 Pd9 2.720674 1_555
Mg4 Pd9 2.720674 1_655
Mg4 Pd0 2.784049 1_555
Mg4 Pd1 2.817097 1_545
Mg4 Pd5 2.861517 1_655
Mg4 Pd5 2.861517 1_555
Mg5 Pd0 2.677051 1_555
Mg5 Pd3 2.678727 1_555
Mg5 Pd7 2.715683 1_655
Mg5 Pd7 2.715683 1_555
Mg5 Pd9 2.719455 1_555
Mg5 Pd9 2.719455 1_655
Mg5 Pd1 2.782235 1_555
Mg5 Pd0 2.816588 1_565
Mg5 Pd4 2.861740 1_655
Mg5 Pd4 2.861740 1_555
