# generated using pymatgen
data_DyCdCu
_symmetry_space_group_name_H-M   'P 1'
_cell_length_a   7.40362889
_cell_length_b   7.40362889
_cell_length_c   3.88063046
_cell_angle_alpha   90.00000000
_cell_angle_beta   90.00000000
_cell_angle_gamma   119.99999952
_symmetry_Int_Tables_number   1
_chemical_formula_structural   DyCdCu
_chemical_formula_sum   'Dy3 Cd3 Cu3'
_cell_volume   184.21381828
_cell_formula_units_Z   3
loop_
 _symmetry_equiv_pos_site_id
 _symmetry_equiv_pos_as_xyz
  1  'x, y, z'
loop_
 _atom_site_type_symbol
 _atom_site_label
 _atom_site_symmetry_multiplicity
 _atom_site_fract_x
 _atom_site_fract_y
 _atom_site_fract_z
 _atom_site_occupancy
  Dy  Dy0  1  -0.00000000  0.41238169  0.50000000  1
  Dy  Dy1  1  0.58761831  0.58761831  0.50000000  1
  Dy  Dy2  1  0.41238169  -0.00000000  0.50000000  1
  Cd  Cd0  1  0.00000000  0.74990819  0.00000000  1
  Cd  Cd1  1  0.25009181  0.25009181  -0.00000000  1
  Cd  Cd2  1  0.74990819  0.00000000  0.00000000  1
  Cu  Cu0  1  0.33333300  0.66666700  0.00000000  1
  Cu  Cu1  1  0.66666700  0.33333300  0.00000000  1
  Cu  Cu2  1  0.00000000  0.00000000  0.50000000  1
loop_
_geom_bond_atom_site_label_1
_geom_bond_atom_site_label_2
_geom_bond_distance
_geom_bond_site_symmetry_2
Cd0 Cu2 2.682014 1_565
Cd0 Cu2 2.682014 1_564
Cd0 Cu0 2.826859 1_555
Cd0 Cu1 2.826863 1_455
Cd0 Dy0 3.163768 1_554
Cd0 Dy0 3.163768 1_555
Cd0 Dy1 3.295698 1_455
Cd0 Dy1 3.295698 1_454
Cd0 Dy2 3.295698 1_564
Cd0 Dy2 3.295698 1_565
Cd1 Cu2 2.682014 1_555
Cd1 Cu2 2.682014 1_554
Cd1 Cu1 2.826866 1_555
Cd1 Cu0 2.826866 1_555
Cd1 Dy1 3.163768 1_555
Cd1 Dy1 3.163768 1_554
Cd1 Dy0 3.295698 1_555
Cd1 Dy2 3.295698 1_554
Cd1 Dy0 3.295698 1_554
Cd1 Dy2 3.295698 1_555
Cd2 Cu2 2.682014 1_655
Cd2 Cu2 2.682014 1_654
Cd2 Cu1 2.826859 1_555
Cd2 Cu0 2.826863 1_545
Cd2 Dy2 3.163768 1_554
Cd2 Dy2 3.163768 1_555
Cd2 Dy1 3.295698 1_544
Cd2 Dy1 3.295698 1_545
Cd2 Dy0 3.295698 1_655
Cd2 Dy0 3.295698 1_654
Cu0 Dy2 2.958618 1_565
Cu0 Dy2 2.958618 1_564
Cu0 Dy0 2.958620 1_555
Cu0 Dy0 2.958620 1_554
Cu0 Dy1 2.958624 1_555
Cu0 Dy1 2.958624 1_554
Cu1 Dy0 2.958618 1_654
Cu1 Dy0 2.958618 1_655
Cu1 Dy2 2.958620 1_554
Cu1 Dy2 2.958620 1_555
Cu1 Dy1 2.958624 1_555
Cu1 Dy1 2.958624 1_554
Cu2 Dy2 3.053121 1_555
Cu2 Dy0 3.053121 1_555
Cu2 Dy1 3.053121 1_445
