# generated using pymatgen
data_U4SiN3
_symmetry_space_group_name_H-M   'P 1'
_cell_length_a   6.14827867
_cell_length_b   6.14827867
_cell_length_c   6.14827867
_cell_angle_alpha   130.73975408
_cell_angle_beta   130.73975408
_cell_angle_gamma   72.22688265
_symmetry_Int_Tables_number   1
_chemical_formula_structural   U4SiN3
_chemical_formula_sum   'U4 Si1 N3'
_cell_volume   130.44327944
_cell_formula_units_Z   1
loop_
 _symmetry_equiv_pos_site_id
 _symmetry_equiv_pos_as_xyz
  1  'x, y, z'
loop_
 _atom_site_type_symbol
 _atom_site_label
 _atom_site_symmetry_multiplicity
 _atom_site_fract_x
 _atom_site_fract_y
 _atom_site_fract_z
 _atom_site_occupancy
  U  U0  1  0.00000000  0.50000000  0.50000000  1
  U  U1  1  0.23068400  0.23068400  0.00000000  1
  U  U2  1  0.50000000  0.00000000  0.50000000  1
  U  U3  1  0.76931600  0.76931600  0.00000000  1
  Si  Si0  1  0.50000000  0.50000000  0.00000000  1
  N  N0  1  0.75000000  0.25000000  0.50000000  1
  N  N1  1  0.00000000  0.00000000  0.00000000  1
  N  N2  1  0.25000000  0.75000000  0.50000000  1
loop_
_geom_bond_atom_site_label_1
_geom_bond_atom_site_label_2
_geom_bond_distance
_geom_bond_site_symmetry_2
Si0 U2 2.562349 1_554
Si0 U2 2.562349 1_565
Si0 U0 2.562349 1_655
Si0 U0 2.562349 1_554
Si0 U3 2.675330 1_555
Si0 U1 2.675330 1_555
N0 U0 2.483449 1_655
N0 U2 2.483449 1_555
N0 U1 2.569523 1_555
N0 U3 2.569523 1_556
N0 U3 2.569523 1_545
N0 U1 2.569523 1_656
N1 U1 2.291567 1_555
N1 U3 2.291567 1_445
N1 U2 2.562349 1_555
N1 U0 2.562349 1_544
N1 U0 2.562349 1_555
N1 U2 2.562349 1_454
N2 U0 2.483449 1_555
N2 U2 2.483449 1_565
N2 U1 2.569523 1_555
N2 U1 2.569523 1_566
N2 U3 2.569523 1_455
N2 U3 2.569523 1_556
