# generated using pymatgen
data_RbNa2C
_symmetry_space_group_name_H-M   'P 1'
_cell_length_a   7.94893000
_cell_length_b   7.94893000
_cell_length_c   7.94893000
_cell_angle_alpha   90.00000000
_cell_angle_beta   90.00000000
_cell_angle_gamma   90.00000000
_symmetry_Int_Tables_number   1
_chemical_formula_structural   RbNa2C
_chemical_formula_sum   'Rb4 Na8 C4'
_cell_volume   502.25702228
_cell_formula_units_Z   4
loop_
 _symmetry_equiv_pos_site_id
 _symmetry_equiv_pos_as_xyz
  1  'x, y, z'
loop_
 _atom_site_type_symbol
 _atom_site_label
 _atom_site_symmetry_multiplicity
 _atom_site_fract_x
 _atom_site_fract_y
 _atom_site_fract_z
 _atom_site_occupancy
  Rb  Rb0  1  0.50000000  0.50000000  0.50000000  1
  Rb  Rb1  1  0.00000000  0.50000000  0.00000000  1
  Rb  Rb2  1  0.50000000  0.00000000  0.00000000  1
  Rb  Rb3  1  0.00000000  0.00000000  0.50000000  1
  Na  Na0  1  0.23869000  0.23869000  0.23869000  1
  Na  Na1  1  0.76131000  0.76131000  0.76131000  1
  Na  Na2  1  0.26131000  0.76131000  0.73869000  1
  Na  Na3  1  0.76131000  0.73869000  0.26131000  1
  Na  Na4  1  0.73869000  0.23869000  0.26131000  1
  Na  Na5  1  0.23869000  0.26131000  0.73869000  1
  Na  Na6  1  0.73869000  0.26131000  0.76131000  1
  Na  Na7  1  0.26131000  0.73869000  0.23869000  1
  C  C0  1  0.00000000  0.00000000  0.00000000  1
  C  C1  1  0.50000000  0.00000000  0.50000000  1
  C  C2  1  0.00000000  0.50000000  0.50000000  1
  C  C3  1  0.50000000  0.50000000  0.00000000  1
loop_
_geom_bond_atom_site_label_1
_geom_bond_atom_site_label_2
_geom_bond_distance
_geom_bond_site_symmetry_2
Na0 Rb2 3.393260 1_555
Na0 Rb1 3.393260 1_555
Na0 Rb3 3.393260 1_555
Na0 Rb0 3.597703 1_555
Na1 Rb1 3.393260 1_656
Na1 Rb3 3.393260 1_665
Na1 Rb2 3.393260 1_566
Na1 Rb0 3.597703 1_555
Na2 Rb3 3.393260 1_565
Na2 Rb0 3.393260 1_555
Na2 Rb2 3.393260 1_566
Na2 Rb1 3.597703 1_556
Na3 Rb1 3.393260 1_655
Na3 Rb0 3.393260 1_555
Na3 Rb3 3.393260 1_665
Na3 Rb2 3.597703 1_565
Na4 Rb2 3.393260 1_555
Na4 Rb0 3.393260 1_555
Na4 Rb3 3.393260 1_655
Na4 Rb1 3.597703 1_655
Na5 Rb0 3.393260 1_555
Na5 Rb3 3.393260 1_555
Na5 Rb1 3.393260 1_556
Na5 Rb2 3.597703 1_556
Na6 Rb2 3.393260 1_556
Na6 Rb0 3.393260 1_555
Na6 Rb1 3.393260 1_656
Na6 Rb3 3.597703 1_655
Na7 Rb0 3.393260 1_555
Na7 Rb1 3.393260 1_555
Na7 Rb2 3.393260 1_565
Na7 Rb3 3.597703 1_565
