# generated using pymatgen
data_ZnS
_symmetry_space_group_name_H-M   'P 1'
_cell_length_a   14.21805387
_cell_length_b   12.73689718
_cell_length_c   13.68943918
_cell_angle_alpha   95.49149319
_cell_angle_beta   99.01940948
_cell_angle_gamma   91.07128786
_symmetry_Int_Tables_number   1
_chemical_formula_structural   ZnS
_chemical_formula_sum   'Zn50 S50'
_cell_volume   2435.75128700
_cell_formula_units_Z   50
loop_
 _symmetry_equiv_pos_site_id
 _symmetry_equiv_pos_as_xyz
  1  'x, y, z'
loop_
 _atom_site_type_symbol
 _atom_site_label
 _atom_site_symmetry_multiplicity
 _atom_site_fract_x
 _atom_site_fract_y
 _atom_site_fract_z
 _atom_site_occupancy
  Zn  Zn0  1  0.76480681  0.88417386  0.14573289  1
  Zn  Zn1  1  0.50024310  0.36276044  0.47152686  1
  Zn  Zn2  1  0.38991275  0.04549402  0.53539458  1
  Zn  Zn3  1  0.99362760  0.49344513  0.98921875  1
  Zn  Zn4  1  0.21843033  0.18884674  0.55854537  1
  Zn  Zn5  1  0.85765180  0.67450990  0.92236697  1
  Zn  Zn6  1  0.74951442  0.50155878  0.06007711  1
  Zn  Zn7  1  0.12369132  0.66945520  0.44656512  1
  Zn  Zn8  1  0.91563897  0.58009583  0.50170843  1
  Zn  Zn9  1  0.18640155  0.32455896  0.00927323  1
  Zn  Zn10  1  0.34132791  0.05137778  0.27673648  1
  Zn  Zn11  1  0.25003469  0.57945186  0.10123139  1
  Zn  Zn12  1  0.57083077  0.91501887  0.27725990  1
  Zn  Zn13  1  0.89656013  0.06474664  0.21130880  1
  Zn  Zn14  1  0.99072817  0.10085251  0.77260186  1
  Zn  Zn15  1  0.38123798  0.73914520  0.54579515  1
  Zn  Zn16  1  0.17532899  0.95060864  0.72210647  1
  Zn  Zn17  1  0.51108881  0.55041597  0.70975028  1
  Zn  Zn18  1  0.87539303  0.23580835  0.01747903  1
  Zn  Zn19  1  0.77327001  0.98919654  0.94679592  1
  Zn  Zn20  1  0.99199464  0.08340793  0.47871204  1
  Zn  Zn21  1  0.89710723  0.74271615  0.34491581  1
  Zn  Zn22  1  0.30898792  0.64825750  0.90515579  1
  Zn  Zn23  1  0.55000964  0.17021454  0.96004207  1
  Zn  Zn24  1  0.55774537  0.88002987  0.96560339  1
  Zn  Zn25  1  0.90225481  0.26584724  0.53788995  1
  Zn  Zn26  1  0.70112002  0.14880499  0.16945709  1
  Zn  Zn27  1  0.02518579  0.64246242  0.19424759  1
  Zn  Zn28  1  0.24695347  0.63447476  0.71582404  1
  Zn  Zn29  1  0.80046481  0.01479892  0.62460825  1
  Zn  Zn30  1  0.08959921  0.01333454  0.00742704  1
  Zn  Zn31  1  0.78481488  0.86499298  0.71771985  1
  Zn  Zn32  1  0.79328459  0.56716827  0.69553795  1
  Zn  Zn33  1  0.40803070  0.29911113  0.16080672  1
  Zn  Zn34  1  0.27165037  0.46174268  0.54337694  1
  Zn  Zn35  1  0.45252601  0.44138332  0.95667909  1
  Zn  Zn36  1  0.53336750  0.48314907  0.31854885  1
  Zn  Zn37  1  0.18653659  0.51134804  0.82714718  1
  Zn  Zn38  1  0.34245098  0.97498799  0.72932294  1
  Zn  Zn39  1  0.73358540  0.17920888  0.77188492  1
  Zn  Zn40  1  0.03150038  0.42214353  0.61329794  1
  Zn  Zn41  1  0.18578859  0.87868096  0.07747143  1
  Zn  Zn42  1  0.03341665  0.31478919  0.43533472  1
  Zn  Zn43  1  0.98563946  0.78530315  0.65016963  1
  Zn  Zn44  1  0.14744138  0.95194504  0.32706761  1
  Zn  Zn45  1  0.67634024  0.62343237  0.17040340  1
  Zn  Zn46  1  0.48835680  0.25477042  0.71718921  1
  Zn  Zn47  1  0.56535931  0.99108386  0.75180356  1
  Zn  Zn48  1  0.23916331  0.45577319  0.31518722  1
  Zn  Zn49  1  0.56974507  0.20613811  0.30215683  1
  S  S0  1  0.28705723  0.73254967  0.04972638  1
  S  S1  1  0.86781606  0.45279522  0.59543825  1
  S  S2  1  0.99857618  0.67372050  0.02607654  1
  S  S3  1  0.66981526  0.51800931  0.77270233  1
  S  S4  1  0.47546965  0.61549099  0.92070778  1
  S  S5  1  0.84687826  0.22974233  0.17963671  1
  S  S6  1  0.47024843  0.01031337  0.88353366  1
  S  S7  1  0.82060385  0.09656669  0.46966001  1
  S  S8  1  0.85217222  0.40525154  0.97401233  1
  S  S9  1  0.70132428  0.61227284  0.91020767  1
  S  S10  1  0.19278691  0.33292686  0.42154217  1
  S  S11  1  0.40280788  0.67998413  0.70228827  1
  S  S12  1  0.53793120  0.32427518  0.88025498  1
  S  S13  1  0.72299312  0.15664897  0.93331047  1
  S  S14  1  0.75180096  0.77853679  0.25985229  1
  S  S15  1  0.32602961  0.13954889  0.12960068  1
  S  S16  1  0.14108788  0.50586385  0.17941659  1
  S  S17  1  0.56603151  0.25621765  0.13362537  1
  S  S18  1  0.99013573  0.14131169  0.94136971  1
  S  S19  1  0.43794185  0.40104639  0.61012847  1
  S  S20  1  0.28041478  0.60917531  0.44844835  1
  S  S21  1  0.08979709  0.40280122  0.89134161  1
  S  S22  1  0.44954650  0.90248873  0.60349328  1
  S  S23  1  0.09292678  0.11426469  0.62308434  1
  S  S24  1  0.18421611  0.18344005  0.09746777  1
  S  S25  1  0.86642147  0.19200982  0.69202939  1
  S  S26  1  0.33686710  0.42110946  0.05238738  1
  S  S27  1  0.59525316  0.64466407  0.32212570  1
  S  S28  1  0.18797697  0.41384315  0.67009736  1
  S  S29  1  0.39410122  0.38907244  0.31746042  1
  S  S30  1  0.10818535  0.67512684  0.61545611  1
  S  S31  1  0.90528330  0.55685095  0.26861281  1
  S  S32  1  0.26425038  0.08163799  0.42496439  1
  S  S33  1  0.50217779  0.06308266  0.35368123  1
  S  S34  1  0.05770308  0.77936725  0.33086371  1
  S  S35  1  0.35008699  0.15546234  0.67661473  1
  S  S36  1  0.26218955  0.88813320  0.24290219  1
  S  S37  1  0.53787572  0.72381661  0.03910807  1
  S  S38  1  0.86772676  0.74679650  0.51031702  1
  S  S39  1  0.59884360  0.13287145  0.66322911  1
  S  S40  1  0.62312276  0.97470033  0.12652776  1
  S  S41  1  0.87589570  0.71585807  0.76222824  1
  S  S42  1  0.88330758  0.93562401  0.06983329  1
  S  S43  1  0.03199179  0.07992359  0.32610913  1
  S  S44  1  0.00678763  0.50971229  0.38527974  1
  S  S45  1  0.75662396  0.04654449  0.32336086  1
  S  S46  1  0.67178330  0.87526877  0.83210965  1
  S  S47  1  0.03038857  0.92368692  0.77059736  1
  S  S48  1  0.49498756  0.76225408  0.31223795  1
  S  S49  1  0.63243414  0.35872462  0.40020579  1
loop_
_geom_bond_atom_site_label_1
_geom_bond_atom_site_label_2
_geom_bond_distance
_geom_bond_site_symmetry_2
Zn16 Zn38 2.375964 1_555
Zn30 Zn41 2.392193 1_545
Zn45 Zn6 2.424333 1_555
S0 Zn11 2.217615 1_555
S0 Zn22 2.228455 1_554
S0 Zn41 2.412066 1_555
S1 Zn32 2.292114 1_555
S1 Zn8 2.316937 1_555
S1 Zn40 2.345684 1_655
S1 Zn25 2.517085 1_555
S2 Zn5 2.267596 1_554
S2 Zn3 2.300635 1_554
S2 Zn27 2.347252 1_655
S3 S9 2.113870 1_555
S3 Zn32 2.292719 1_555
S3 Zn17 2.345042 1_555
S4 Zn35 2.344980 1_555
S4 Zn22 2.391307 1_555
S5 Zn26 2.275755 1_555
S5 Zn13 2.288509 1_555
S5 Zn18 2.326348 1_555
S6 Zn24 2.357813 1_545
S6 Zn23 2.379897 1_555
S6 Zn47 2.415172 1_545
S6 Zn38 2.558429 1_545
S7 Zn20 2.430272 1_555
S7 Zn25 2.459659 1_555
S7 Zn29 2.503605 1_555
S8 Zn3 2.256029 1_555
S8 Zn18 2.309036 1_556
S8 Zn6 2.313595 1_556
S9 Zn5 2.321471 1_555
S9 Zn6 2.610801 1_556
S10 Zn42 2.312228 1_555
S10 Zn34 2.356278 1_555
S10 Zn48 2.387721 1_555
S10 Zn4 2.736330 1_555
S11 Zn17 2.276416 1_555
S11 Zn15 2.315801 1_555
S11 Zn28 2.319917 1_555
S12 Zn35 2.227393 1_555
S12 Zn46 2.317046 1_555
S12 Zn23 2.331721 1_555
S13 Zn19 2.277062 1_545
S13 Zn39 2.283163 1_555
S13 Zn18 2.439771 1_556
S13 Zn23 2.549281 1_555
S14 Zn0 2.183730 1_555
S14 Zn21 2.283643 1_555
S14 Zn45 2.366253 1_555
S15 S24 2.093480 1_555
S15 Zn33 2.293737 1_555
S15 Zn10 2.381226 1_555
S16 Zn11 2.254117 1_555
S16 Zn48 2.292075 1_555
S16 Zn27 2.434821 1_555
S17 Zn26 2.394304 1_555
S17 Zn33 2.398459 1_555
S17 Zn49 2.444809 1_555
S17 Zn23 2.494228 1_554
S18 Zn14 2.319845 1_555
S18 Zn30 2.332808 1_656
S18 Zn18 2.358401 1_556
S19 Zn1 2.233498 1_555
S19 Zn17 2.354936 1_555
S19 Zn46 2.525097 1_555
S19 Zn34 2.559088 1_555
S20 Zn15 2.336943 1_555
S20 Zn7 2.367537 1_555
S20 Zn34 2.395751 1_555
S20 Zn48 2.535552 1_555
S21 Zn37 2.261853 1_555
S21 Zn9 2.269344 1_556
S21 Zn3 2.309809 1_455
S22 Zn2 2.245111 1_565
S22 Zn15 2.294552 1_555
S22 Zn47 2.559420 1_555
S22 Zn38 2.590161 1_555
S23 Zn20 2.249644 1_455
S23 Zn4 2.336379 1_555
S23 Zn14 2.705581 1_455
S23 Zn16 2.772972 1_545
S24 Zn9 2.261492 1_555
S24 Zn30 2.623597 1_555
S25 Zn14 2.323570 1_555
S25 Zn39 2.336374 1_555
S25 Zn29 2.465077 1_555
S25 Zn25 2.509073 1_555
S26 Zn35 2.282956 1_554
S26 Zn33 2.381281 1_555
S26 Zn9 2.409187 1_555
S26 Zn11 2.476403 1_555
S27 S48 2.086132 1_555
S27 Zn36 2.215448 1_555
S27 Zn45 2.524115 1_555
S28 Zn40 2.246688 1_555
S28 Zn34 2.370510 1_555
S28 Zn37 2.380895 1_555
S29 Zn36 2.292466 1_555
S29 Zn33 2.371156 1_555
S29 Zn48 2.372574 1_555
S29 Zn1 2.448318 1_555
S30 Zn28 2.317994 1_555
S30 Zn43 2.335448 1_455
S30 Zn7 2.351110 1_555
S31 S44 2.118320 1_655
S31 Zn27 2.412210 1_655
S31 Zn21 2.506789 1_555
S32 Zn2 2.237534 1_555
S32 Zn4 2.358356 1_555
S32 Zn10 2.455675 1_555
S32 Zn44 2.461471 1_545
S33 Zn49 2.265693 1_555
S33 Zn10 2.358787 1_555
S33 Zn12 2.369636 1_545
S34 Zn7 2.314382 1_555
S34 Zn21 2.362987 1_455
S34 Zn27 2.413838 1_555
S34 Zn44 2.529838 1_555
S35 Zn46 2.281113 1_555
S35 Zn4 2.347325 1_555
S35 Zn2 2.423726 1_555
S35 Zn38 2.479726 1_545
S36 Zn44 2.260444 1_555
S36 Zn10 2.317019 1_565
S36 Zn41 2.344089 1_555
S37 S4 2.096029 1_554
S37 Zn24 2.345724 1_554
S37 Zn45 2.857545 1_555
S38 Zn8 2.239977 1_555
S38 Zn43 2.345139 1_555
S38 Zn21 2.361965 1_555
S39 Zn39 2.264333 1_555
S39 Zn47 2.350797 1_545
S39 Zn46 2.378978 1_555
S40 Zn0 2.331416 1_555
S40 Zn26 2.438647 1_565
S40 Zn24 2.445137 1_554
S40 Zn12 2.479614 1_555
S41 Zn32 2.247095 1_555
S41 Zn5 2.354693 1_555
S41 Zn31 2.392177 1_555
S41 Zn43 2.555157 1_555
S42 Zn0 2.232855 1_555
S42 Zn19 2.276818 1_554
S42 Zn13 2.399070 1_565
S43 Zn20 2.246147 1_455
S43 Zn13 2.279059 1_455
S43 Zn44 2.334319 1_545
S44 Zn8 2.332615 1_455
S44 Zn7 2.591507 1_555
S44 Zn42 2.656345 1_555
S45 S7 2.099366 1_555
S45 Zn26 2.607762 1_555
S45 Zn13 2.715326 1_555
S46 Zn19 2.329804 1_555
S46 Zn47 2.355088 1_555
S46 Zn31 2.410331 1_555
S46 Zn24 2.623678 1_555
S47 Zn16 2.291518 1_555
S47 Zn43 2.302690 1_455
S47 Zn14 2.334798 1_465
S48 Zn12 2.332338 1_555
S49 Zn1 2.248949 1_555
S49 Zn49 2.331093 1_555
S49 Zn36 2.382000 1_555
