# generated using pymatgen
data_Na2Ca5TiSi4(O8F)2
_symmetry_space_group_name_H-M   'P 1'
_cell_length_a   5.77571700
_cell_length_b   7.45322690
_cell_length_c   9.80296424
_cell_angle_alpha   101.18531537
_cell_angle_beta   101.78044304
_cell_angle_gamma   90.08340040
_symmetry_Int_Tables_number   1
_chemical_formula_structural   Na2Ca5TiSi4(O8F)2
_chemical_formula_sum   'Na2 Ca5 Ti1 Si4 O16 F2'
_cell_volume   404.88933670
_cell_formula_units_Z   1
loop_
 _symmetry_equiv_pos_site_id
 _symmetry_equiv_pos_as_xyz
  1  'x, y, z'
loop_
 _atom_site_type_symbol
 _atom_site_label
 _atom_site_symmetry_multiplicity
 _atom_site_fract_x
 _atom_site_fract_y
 _atom_site_fract_z
 _atom_site_occupancy
  Na  Na0  1  0.56028800  0.58864000  0.38063400  1
  Na  Na1  1  0.06232000  0.83033100  0.38424500  1
  Ca  Ca0  1  0.84593900  0.42273100  0.74792300  1
  Ca  Ca1  1  0.56344000  0.09120600  0.39068000  1
  Ca  Ca2  1  0.27594200  0.24161100  0.01752800  1
  Ca  Ca3  1  0.28118000  0.73999700  0.02203900  1
  Ca  Ca4  1  0.84745500  0.92362600  0.74713100  1
  Ti  Ti0  1  0.04476700  0.34242500  0.39861900  1
  Si  Si0  1  0.31882700  0.68409500  0.67074100  1
  Si  Si1  1  0.81576500  0.54805900  0.10837800  1
  Si  Si2  1  0.81489600  0.97951100  0.09915100  1
  Si  Si3  1  0.31105600  0.11546900  0.66370900  1
  O  O0  1  0.99211200  0.47733400  0.00132900  1
  O  O1  1  0.12887300  0.18664800  0.76714400  1
  O  O2  1  0.58906000  0.17163000  0.72432300  1
  O  O3  1  0.53620400  0.00022800  0.03338400  1
  O  O4  1  0.84736300  0.77575800  0.14451800  1
  O  O5  1  0.88807400  0.11828200  0.25726500  1
  O  O6  1  0.53619300  0.49187200  0.04921800  1
  O  O7  1  0.23620300  0.16410300  0.50377500  1
  O  O8  1  0.59487800  0.67070100  0.74447700  1
  O  O9  1  0.99714700  0.99337500  0.99543800  1
  O  O10  1  0.29891600  0.27901200  0.26859800  1
  O  O11  1  0.81082200  0.35239800  0.49521900  1
  O  O12  1  0.89794700  0.50128700  0.26877700  1
  O  O13  1  0.13157300  0.66734700  0.77183100  1
  O  O14  1  0.25244400  0.54545200  0.51277700  1
  O  O15  1  0.27814100  0.88765500  0.62604400  1
  F  F0  1  0.36632800  0.82218100  0.26707100  1
  F  F1  1  0.75664900  0.87423600  0.50193500  1
loop_
_geom_bond_atom_site_label_1
_geom_bond_atom_site_label_2
_geom_bond_distance
_geom_bond_site_symmetry_2
Na0 O12 2.455513 1_555
Na0 O14 2.458370 1_555
Na0 O11 2.562604 1_555
Na0 O10 2.672136 1_555
Na1 O4 2.380305 1_455
Na1 O15 2.398745 1_555
Na1 O12 2.583500 1_455
Na1 O7 2.636565 1_565
Na1 O5 2.774806 1_465
Na1 O14 2.789523 1_555
Ca0 O2 2.332619 1_555
Ca0 O8 2.351933 1_555
Ca0 O11 2.396541 1_555
Ca0 O13 2.401696 1_655
Ca0 O0 2.408261 1_556
Ca0 O1 2.411085 1_655
Ca1 F1 2.289629 1_545
Ca1 F0 2.296146 1_545
Ca1 O11 2.345519 1_555
Ca1 O10 2.373888 1_555
Ca1 O7 2.391954 1_555
Ca1 O5 2.523773 1_555
Ca2 O6 2.326252 1_555
Ca2 O3 2.354023 1_555
Ca2 O1 2.381492 1_554
Ca2 O10 2.398610 1_555
Ca2 O9 2.399243 1_444
Ca2 O0 2.410313 1_455
Ca3 F0 2.309285 1_555
Ca3 O13 2.382003 1_554
Ca3 O6 2.387311 1_555
Ca3 O3 2.405191 1_565
Ca3 O9 2.520117 1_454
Ca3 O0 2.521730 1_455
Ca4 F1 2.308573 1_555
Ca4 O9 2.364581 1_555
Ca4 O8 2.374850 1_555
Ca4 O2 2.392929 1_565
Ca4 O1 2.496941 1_665
Ca4 O13 2.535011 1_655
O0 Si1 1.624774 1_555
O1 Si3 1.626458 1_555
O2 Si3 1.618158 1_555
O3 Si2 1.626671 1_545
O4 Si2 1.663715 1_555
O4 Si1 1.666847 1_555
O5 Si2 1.661361 1_545
O5 Ti0 2.028663 1_655
O6 Si1 1.624958 1_555
O7 Si3 1.649410 1_555
O7 Ti0 2.030275 1_555
O8 Si0 1.622471 1_555
O9 Si2 1.621668 1_556
O10 Ti0 2.129539 1_555
O11 Ti0 1.795401 1_655
O12 Si1 1.651548 1_555
O12 Ti0 1.971809 1_655
O13 Si0 1.628666 1_555
O14 Si0 1.657802 1_555
O14 Ti0 1.941787 1_555
O15 Si0 1.663113 1_555
O15 Si3 1.668135 1_565
F0 Na1 2.280994 1_555
F0 Na0 2.402572 1_555
F1 Na1 2.289523 1_655
F1 Na0 2.385690 1_555
