# generated using pymatgen
data_K5TbH8(CO2)8
_symmetry_space_group_name_H-M   'P 1'
_cell_length_a   8.49130067
_cell_length_b   8.49130067
_cell_length_c   15.58807336
_cell_angle_alpha   103.00992378
_cell_angle_beta   103.00992378
_cell_angle_gamma   90.07504244
_symmetry_Int_Tables_number   1
_chemical_formula_structural   K5TbH8(CO2)8
_chemical_formula_sum   'K10 Tb2 H16 C16 O32'
_cell_volume   1065.37321624
_cell_formula_units_Z   2
loop_
 _symmetry_equiv_pos_site_id
 _symmetry_equiv_pos_as_xyz
  1  'x, y, z'
loop_
 _atom_site_type_symbol
 _atom_site_label
 _atom_site_symmetry_multiplicity
 _atom_site_fract_x
 _atom_site_fract_y
 _atom_site_fract_z
 _atom_site_occupancy
  K  K0  1  0.00000000  0.00000000  0.50000000  1
  K  K1  1  0.00000000  0.00000000  0.00000000  1
  K  K2  1  0.59891800  0.20240900  0.51216000  1
  K  K3  1  0.79759100  0.40108200  0.98784000  1
  K  K4  1  0.40108200  0.79759100  0.48784000  1
  K  K5  1  0.20240900  0.59891800  0.01216000  1
  K  K6  1  0.79035100  0.59682600  0.49763800  1
  K  K7  1  0.40317400  0.20964900  0.00236200  1
  K  K8  1  0.20964900  0.40317400  0.50236200  1
  K  K9  1  0.59682600  0.79035100  0.99763800  1
  Tb  Tb0  1  0.19761400  0.80238600  0.75000000  1
  Tb  Tb1  1  0.80238600  0.19761400  0.25000000  1
  H  H0  1  0.99350200  0.39694900  0.71491500  1
  H  H1  1  0.60305100  0.00649800  0.78508500  1
  H  H2  1  0.00649800  0.60305100  0.28508500  1
  H  H3  1  0.39694900  0.99350200  0.21491500  1
  H  H4  1  0.33230100  0.40407300  0.77423400  1
  H  H5  1  0.59592700  0.66769900  0.72576600  1
  H  H6  1  0.66769900  0.59592700  0.22576600  1
  H  H7  1  0.40407300  0.33230100  0.27423400  1
  H  H8  1  0.81088200  0.96564800  0.73956500  1
  H  H9  1  0.03435200  0.18911800  0.76043500  1
  H  H10  1  0.18911800  0.03435200  0.26043500  1
  H  H11  1  0.96564800  0.81088200  0.23956500  1
  H  H12  1  0.83400200  0.60155800  0.76979600  1
  H  H13  1  0.39844200  0.16599800  0.73020400  1
  H  H14  1  0.16599800  0.39844200  0.23020400  1
  H  H15  1  0.60155800  0.83400200  0.26979600  1
  C  C0  1  0.99489600  0.42419300  0.64854100  1
  C  C1  1  0.57580700  0.00510400  0.85145900  1
  C  C2  1  0.00510400  0.57580700  0.35145900  1
  C  C3  1  0.42419300  0.99489600  0.14854100  1
  C  C4  1  0.37826400  0.48982600  0.84071800  1
  C  C5  1  0.51017400  0.62173600  0.65928200  1
  C  C6  1  0.62173600  0.51017400  0.15928200  1
  C  C7  1  0.48982600  0.37826400  0.34071800  1
  C  C8  1  0.81794300  0.92651300  0.66731900  1
  C  C9  1  0.07348700  0.18205700  0.83268100  1
  C  C10  1  0.18205700  0.07348700  0.33268100  1
  C  C11  1  0.92651300  0.81794300  0.16731900  1
  C  C12  1  0.89723100  0.67035700  0.83874600  1
  C  C13  1  0.32964300  0.10276900  0.66125400  1
  C  C14  1  0.10276900  0.32964300  0.16125400  1
  C  C15  1  0.67035700  0.89723100  0.33874600  1
  O  O0  1  0.06288300  0.55920000  0.65075800  1
  O  O1  1  0.44080000  0.93711700  0.84924200  1
  O  O2  1  0.93711700  0.44080000  0.34924200  1
  O  O3  1  0.55920000  0.06288300  0.15075800  1
  O  O4  1  0.93025600  0.32100500  0.57693600  1
  O  O5  1  0.67899500  0.06974400  0.92306400  1
  O  O6  1  0.06974400  0.67899500  0.42306400  1
  O  O7  1  0.32100500  0.93025600  0.07693600  1
  O  O8  1  0.33344700  0.63478500  0.84768400  1
  O  O9  1  0.36521500  0.66655300  0.65231600  1
  O  O10  1  0.66655300  0.36521500  0.15231600  1
  O  O11  1  0.63478500  0.33344700  0.34768400  1
  O  O12  1  0.70078500  0.95040300  0.60716800  1
  O  O13  1  0.04959700  0.29921500  0.89283200  1
  O  O14  1  0.29921500  0.04959700  0.39283200  1
  O  O15  1  0.95040300  0.70078500  0.10716800  1
  O  O16  1  0.94772400  0.85948900  0.65346000  1
  O  O17  1  0.14051100  0.05227600  0.84654000  1
  O  O18  1  0.05227600  0.14051100  0.34654000  1
  O  O19  1  0.85948900  0.94772300  0.15346000  1
  O  O20  1  0.02968700  0.74838500  0.84478900  1
  O  O21  1  0.25161500  0.97031300  0.65521100  1
  O  O22  1  0.97031300  0.25161500  0.15521100  1
  O  O23  1  0.74838500  0.02968700  0.34478900  1
  O  O24  1  0.83496100  0.66727200  0.90426500  1
  O  O25  1  0.33272800  0.16503900  0.59573500  1
  O  O26  1  0.16503900  0.33272800  0.09573500  1
  O  O27  1  0.66727200  0.83496100  0.40426500  1
  O  O28  1  0.46790300  0.43689300  0.90277200  1
  O  O29  1  0.56310700  0.53209700  0.59722800  1
  O  O30  1  0.53209700  0.56310700  0.09722800  1
  O  O31  1  0.43689300  0.46790300  0.40277200  1
loop_
_geom_bond_atom_site_label_1
_geom_bond_atom_site_label_2
_geom_bond_distance
_geom_bond_site_symmetry_2
K0 O4 2.840935 1_455
K0 O6 2.840935 1_545
K0 O21 2.903559 1_545
K0 O23 2.903559 1_455
K0 O18 3.017396 1_555
K0 O16 3.017396 1_445
K0 O27 3.053347 1_445
K0 O25 3.053347 1_555
K1 O7 2.840935 1_545
K1 O5 2.840935 1_454
K1 O22 2.903559 1_455
K1 O20 2.903559 1_544
K1 O17 3.017396 1_554
K1 O19 3.017399 1_445
K1 O26 3.053347 1_555
K1 O24 3.053347 1_444
K2 O29 2.863622 1_555
K2 O4 2.864453 1_555
K2 O12 2.894040 1_545
K2 O14 2.897128 1_555
K2 O25 2.901192 1_555
K2 O11 3.088580 1_555
K2 O23 3.215830 1_555
K2 O31 3.250427 1_555
K2 O27 3.313947 1_545
K3 O28 2.863622 1_555
K3 O5 2.864453 1_555
K3 O13 2.894040 1_655
K3 O15 2.897128 1_556
K3 O24 2.901192 1_555
K3 O10 3.088580 1_556
K3 O22 3.215830 1_556
K3 O30 3.250427 1_556
K3 O26 3.313947 1_656
K4 O31 2.863622 1_555
K4 O6 2.864453 1_555
K4 O14 2.894040 1_565
K4 O12 2.897128 1_555
K4 O27 2.901192 1_555
K4 O9 3.088580 1_555
K4 O21 3.215830 1_555
K4 O29 3.250427 1_555
K4 O25 3.313947 1_565
K5 O30 2.863622 1_555
K5 O7 2.864453 1_555
K5 O15 2.894040 1_455
K5 O13 2.897128 1_554
K5 O26 2.901192 1_555
K5 O8 3.088580 1_554
K5 O20 3.215830 1_554
K5 O28 3.250427 1_554
K5 O24 3.313947 1_454
K6 O27 2.818740 1_555
K6 O29 2.857541 1_555
K6 O11 2.908398 1_555
K6 O2 2.929458 1_555
K6 O16 2.958324 1_555
K6 O0 3.002129 1_655
K6 O6 3.011479 1_655
K6 O4 3.012336 1_555
K6 O31 3.107627 1_555
K6 O12 3.284834 1_555
K7 O26 2.818740 1_555
K7 O28 2.857541 1_554
K7 O10 2.908398 1_555
K7 O3 2.929458 1_555
K7 O17 2.958324 1_554
K7 O1 3.002129 1_544
K7 O7 3.011479 1_545
K7 O5 3.012336 1_554
K7 O30 3.107627 1_555
K7 O13 3.284834 1_554
K8 O25 2.818740 1_555
K8 O31 2.857541 1_555
K8 O9 2.908398 1_555
K8 O0 2.929458 1_555
K8 O18 2.958324 1_555
K8 O2 3.002129 1_455
K8 O4 3.011479 1_455
K8 O6 3.012336 1_555
K8 O29 3.107627 1_555
K8 O14 3.284834 1_555
K9 O24 2.818740 1_555
K9 O30 2.857541 1_556
K9 O8 2.908398 1_555
K9 O1 2.929458 1_555
K9 O19 2.958321 1_556
K9 O3 3.002129 1_566
K9 O5 3.011479 1_565
K9 O7 3.012336 1_556
K9 O28 3.107627 1_555
K9 O15 3.284834 1_556
C0 H0 1.112392 1_555
C0 O4 1.263894 1_555
C0 O0 1.272836 1_655
C1 H1 1.112392 1_555
C1 O5 1.263894 1_555
C1 O1 1.272836 1_545
C2 H2 1.112392 1_555
C2 O6 1.263894 1_555
C2 O2 1.272836 1_455
C3 H3 1.112392 1_555
C3 O7 1.263894 1_555
C3 O3 1.272836 1_565
C4 H4 1.110833 1_555
C4 O28 1.257856 1_555
C4 O8 1.277246 1_555
C5 H5 1.110833 1_555
C5 O29 1.257856 1_555
C5 O9 1.277246 1_555
C6 H6 1.110833 1_555
C6 O30 1.257856 1_555
C6 O10 1.277246 1_555
C7 H7 1.110833 1_555
C7 O31 1.257856 1_555
C7 O11 1.277246 1_555
C8 H8 1.115461 1_555
C8 O12 1.255461 1_555
C8 O16 1.280027 1_555
C9 H9 1.115461 1_555
C9 O13 1.255461 1_555
C9 O17 1.280027 1_555
C10 H10 1.115461 1_555
C10 O14 1.255461 1_555
C10 O18 1.280027 1_555
C11 H11 1.115461 1_555
C11 O15 1.255461 1_555
C11 O19 1.280020 1_555
C12 H12 1.114179 1_555
C12 O24 1.256384 1_555
C12 O20 1.278713 1_655
C13 H13 1.114179 1_555
C13 O25 1.256384 1_555
C13 O21 1.278713 1_545
C14 H14 1.114179 1_555
C14 O26 1.256384 1_555
C14 O22 1.278713 1_455
C15 H15 1.114179 1_555
C15 O27 1.256384 1_555
C15 O23 1.278713 1_565
O0 Tb0 2.392651 1_555
O1 Tb0 2.392651 1_555
O2 Tb1 2.392651 1_555
O3 Tb1 2.392651 1_555
O8 Tb0 2.421478 1_555
O9 Tb0 2.421478 1_555
O10 Tb1 2.421478 1_555
O11 Tb1 2.421478 1_555
O16 Tb0 2.428107 1_655
O17 Tb0 2.428107 1_545
O18 Tb1 2.428107 1_455
O19 Tb1 2.428113 1_565
O20 Tb0 2.383000 1_555
O21 Tb0 2.383000 1_555
O22 Tb1 2.383000 1_555
O23 Tb1 2.383000 1_555
