# generated using pymatgen
data_CsSO4
_symmetry_space_group_name_H-M   'P 1'
_cell_length_a   4.96335400
_cell_length_b   15.29250400
_cell_length_c   15.79847148
_cell_angle_alpha   58.91297676
_cell_angle_beta   90.00000000
_cell_angle_gamma   90.00000000
_symmetry_Int_Tables_number   1
_chemical_formula_structural   CsSO4
_chemical_formula_sum   'Cs8 S8 O32'
_cell_volume   1026.92208762
_cell_formula_units_Z   8
loop_
 _symmetry_equiv_pos_site_id
 _symmetry_equiv_pos_as_xyz
  1  'x, y, z'
loop_
 _atom_site_type_symbol
 _atom_site_label
 _atom_site_symmetry_multiplicity
 _atom_site_fract_x
 _atom_site_fract_y
 _atom_site_fract_z
 _atom_site_occupancy
  Cs  Cs0  1  0.14146000  0.87598200  0.70559000  1
  Cs  Cs1  1  0.85854000  0.12401800  0.29441000  1
  Cs  Cs2  1  0.64146000  0.12401800  0.79441000  1
  Cs  Cs3  1  0.35854000  0.87598200  0.20559000  1
  Cs  Cs4  1  0.20355900  0.37551400  0.45718500  1
  Cs  Cs5  1  0.79644100  0.62448600  0.54281500  1
  Cs  Cs6  1  0.70355900  0.62448600  0.04281500  1
  Cs  Cs7  1  0.29644100  0.37551400  0.95718500  1
  S  S0  1  0.27116100  0.37461000  0.20818900  1
  S  S1  1  0.72883900  0.62539000  0.79181100  1
  S  S2  1  0.77116100  0.62539000  0.29181100  1
  S  S3  1  0.22883900  0.37461000  0.70818900  1
  S  S4  1  0.20200600  0.87461900  0.95180800  1
  S  S5  1  0.79799400  0.12538100  0.04819200  1
  S  S6  1  0.70200600  0.12538100  0.54819200  1
  S  S7  1  0.29799400  0.87461900  0.45180800  1
  O  O0  1  0.53238400  0.66022600  0.22451100  1
  O  O1  1  0.46761600  0.33977400  0.77548900  1
  O  O2  1  0.03238400  0.33977400  0.27548900  1
  O  O3  1  0.96761600  0.66022600  0.72451100  1
  O  O4  1  0.19468100  0.46239100  0.11008000  1
  O  O5  1  0.80531900  0.53760900  0.88992000  1
  O  O6  1  0.69468100  0.53760900  0.38992000  1
  O  O7  1  0.30531900  0.46239100  0.61008000  1
  O  O8  1  0.47169400  0.89309700  0.98371600  1
  O  O9  1  0.52830600  0.10690300  0.01628400  1
  O  O10  1  0.97169400  0.10690300  0.51628400  1
  O  O11  1  0.02830600  0.89309700  0.48371600  1
  O  O12  1  0.03181900  0.86171700  0.03636300  1
  O  O13  1  0.96818100  0.13828300  0.96363700  1
  O  O14  1  0.53181900  0.13828300  0.46363700  1
  O  O15  1  0.46818100  0.86171700  0.53636300  1
  O  O16  1  0.12517600  0.28919300  0.69839800  1
  O  O17  1  0.87482400  0.71080700  0.30160200  1
  O  O18  1  0.62517600  0.71080700  0.80160200  1
  O  O19  1  0.37482400  0.28919300  0.19839800  1
  O  O20  1  0.11928800  0.96462000  0.85697400  1
  O  O21  1  0.88071200  0.03538000  0.14302600  1
  O  O22  1  0.61928800  0.03538000  0.64302600  1
  O  O23  1  0.38071200  0.96462000  0.35697400  1
  O  O24  1  0.48460200  0.40532300  0.25459800  1
  O  O25  1  0.51539800  0.59467700  0.74540200  1
  O  O26  1  0.98460200  0.59467700  0.24540200  1
  O  O27  1  0.01539800  0.40532300  0.75459800  1
  O  O28  1  0.20293000  0.78129900  0.94689200  1
  O  O29  1  0.79707000  0.21870100  0.05310800  1
  O  O30  1  0.70293000  0.21870100  0.55310800  1
  O  O31  1  0.29707000  0.78129900  0.44689200  1
loop_
_geom_bond_atom_site_label_1
_geom_bond_atom_site_label_2
_geom_bond_distance
_geom_bond_site_symmetry_2
Cs0 O22 3.171020 1_565
Cs0 O15 3.229135 1_555
Cs0 O18 3.238614 1_555
Cs0 O3 3.271348 1_455
Cs0 O20 3.304119 1_555
Cs0 O28 3.319982 1_555
Cs0 O22 3.338829 1_465
Cs0 O10 3.349406 1_465
Cs0 O18 3.360198 1_455
Cs0 O11 3.423948 1_555
Cs1 O23 3.171020 1_545
Cs1 O14 3.229135 1_555
Cs1 O19 3.238614 1_555
Cs1 O2 3.271348 1_655
Cs1 O21 3.304119 1_555
Cs1 O29 3.319982 1_555
Cs1 O23 3.338829 1_645
Cs1 O11 3.349406 1_645
Cs1 O19 3.360198 1_655
Cs1 O10 3.423948 1_555
Cs2 O20 3.171020 1_645
Cs2 O13 3.229135 1_555
Cs2 O16 3.238614 1_655
Cs2 O1 3.271348 1_555
Cs2 O22 3.304119 1_555
Cs2 O30 3.319982 1_555
Cs2 O20 3.338829 1_545
Cs2 O8 3.349406 1_545
Cs2 O16 3.360198 1_555
Cs2 O9 3.423948 1_556
Cs3 O21 3.171020 1_465
Cs3 O12 3.229135 1_555
Cs3 O17 3.238614 1_455
Cs3 O0 3.271348 1_555
Cs3 O23 3.304119 1_555
Cs3 O31 3.319982 1_555
Cs3 O21 3.338829 1_565
Cs3 O9 3.349406 1_565
Cs3 O17 3.360198 1_555
Cs3 O8 3.423948 1_554
Cs4 O30 3.230731 1_555
Cs4 O30 3.235523 1_455
Cs4 O6 3.239689 1_555
Cs4 O2 3.298574 1_555
Cs4 O24 3.300082 1_555
Cs4 O6 3.306509 1_455
Cs4 O7 3.341990 1_555
Cs4 O16 3.349807 1_555
Cs4 O26 3.468200 1_455
Cs5 O31 3.230731 1_555
Cs5 O31 3.235523 1_655
Cs5 O7 3.239689 1_555
Cs5 O3 3.298574 1_555
Cs5 O25 3.300082 1_555
Cs5 O7 3.306509 1_655
Cs5 O6 3.341990 1_555
Cs5 O17 3.349807 1_555
Cs5 O27 3.468200 1_655
Cs6 O28 3.230731 1_654
Cs6 O28 3.235523 1_554
Cs6 O4 3.239689 1_655
Cs6 O0 3.298574 1_555
Cs6 O26 3.300082 1_555
Cs6 O4 3.306509 1_555
Cs6 O5 3.341990 1_554
Cs6 O18 3.349807 1_554
Cs6 O24 3.468200 1_555
Cs7 O29 3.230731 1_456
Cs7 O29 3.235523 1_556
Cs7 O5 3.239689 1_455
Cs7 O1 3.298574 1_555
Cs7 O27 3.300082 1_555
Cs7 O5 3.306509 1_555
Cs7 O4 3.341990 1_556
Cs7 O19 3.349807 1_556
Cs7 O25 3.468200 1_555
O0 S2 1.494621 1_555
O1 S3 1.494621 1_555
O2 S0 1.494621 1_555
O3 S1 1.494621 1_555
O4 S0 1.483192 1_555
O5 S1 1.483192 1_555
O6 S2 1.483192 1_555
O7 S3 1.483192 1_555
O8 S4 1.507580 1_555
O9 S5 1.507580 1_555
O10 S6 1.507580 1_555
O11 S7 1.507580 1_555
O12 S4 1.504903 1_554
O13 S5 1.504903 1_556
O14 S6 1.504903 1_555
O15 S7 1.504903 1_555
O16 S3 1.484443 1_555
O17 S2 1.484443 1_555
O18 S1 1.484443 1_555
O19 S0 1.484443 1_555
O20 S4 1.475841 1_555
O21 S5 1.475841 1_555
O22 S6 1.475841 1_555
O23 S7 1.475841 1_555
O24 S0 1.495352 1_555
O25 S1 1.495352 1_555
O26 S2 1.495352 1_555
O27 S3 1.495352 1_555
O28 S4 1.468712 1_555
O29 S5 1.468712 1_555
O30 S6 1.468712 1_555
O31 S7 1.468712 1_555
