# generated using pymatgen
data_LaCuPb
_symmetry_space_group_name_H-M   'P 1'
_cell_length_a   4.68398388
_cell_length_b   4.68398388
_cell_length_c   8.12688900
_cell_angle_alpha   90.00000000
_cell_angle_beta   90.00000000
_cell_angle_gamma   119.99999835
_symmetry_Int_Tables_number   1
_chemical_formula_structural   LaCuPb
_chemical_formula_sum   'La2 Cu2 Pb2'
_cell_volume   154.41367213
_cell_formula_units_Z   2
loop_
 _symmetry_equiv_pos_site_id
 _symmetry_equiv_pos_as_xyz
  1  'x, y, z'
loop_
 _atom_site_type_symbol
 _atom_site_label
 _atom_site_symmetry_multiplicity
 _atom_site_fract_x
 _atom_site_fract_y
 _atom_site_fract_z
 _atom_site_occupancy
  La  La0  1  0.00000000  0.00000000  0.50000000  1
  La  La1  1  0.00000000  0.00000000  0.00000000  1
  Cu  Cu0  1  0.33333300  0.66666700  0.25000000  1
  Cu  Cu1  1  0.66666700  0.33333300  0.75000000  1
  Pb  Pb0  1  0.33333300  0.66666700  0.75000000  1
  Pb  Pb1  1  0.66666700  0.33333300  0.25000000  1
loop_
_geom_bond_atom_site_label_1
_geom_bond_atom_site_label_2
_geom_bond_distance
_geom_bond_site_symmetry_2
La0 Pb1 3.382472 1_455
La0 Pb0 3.382472 1_545
La0 Pb0 3.382475 1_445
La0 Pb1 3.382475 1_555
La0 Pb0 3.382475 1_555
La0 Pb1 3.382475 1_445
La1 Pb1 3.382472 1_455
La1 Pb0 3.382472 1_544
La1 Pb1 3.382475 1_555
La1 Pb0 3.382475 1_444
La1 Pb1 3.382475 1_445
La1 Pb0 3.382475 1_554
Cu0 Pb1 2.704297 1_455
Cu0 Pb1 2.704297 1_565
Cu0 Pb1 2.704305 1_555
Cu0 La1 3.382472 1_565
Cu0 La0 3.382472 1_565
Cu0 La0 3.382475 1_665
Cu0 La1 3.382475 1_665
Cu0 La0 3.382475 1_555
Cu0 La1 3.382475 1_555
Cu1 Pb0 2.704297 1_545
Cu1 Pb0 2.704297 1_655
Cu1 Pb0 2.704305 1_555
Cu1 La0 3.382472 1_655
Cu1 La1 3.382472 1_656
Cu1 La0 3.382475 1_665
Cu1 La1 3.382475 1_666
Cu1 La0 3.382475 1_555
Cu1 La1 3.382475 1_556
