# generated using pymatgen
data_CdSnTe2
_symmetry_space_group_name_H-M   'P 1'
_cell_length_a   7.56440601
_cell_length_b   7.56440601
_cell_length_c   7.56440608
_cell_angle_alpha   34.48138016
_cell_angle_beta   34.48138016
_cell_angle_gamma   34.48138019
_symmetry_Int_Tables_number   1
_chemical_formula_structural   CdSnTe2
_chemical_formula_sum   'Cd1 Sn1 Te2'
_cell_volume   123.76016302
_cell_formula_units_Z   1
loop_
 _symmetry_equiv_pos_site_id
 _symmetry_equiv_pos_as_xyz
  1  'x, y, z'
loop_
 _atom_site_type_symbol
 _atom_site_label
 _atom_site_symmetry_multiplicity
 _atom_site_fract_x
 _atom_site_fract_y
 _atom_site_fract_z
 _atom_site_occupancy
  Cd  Cd0  1  0.00000000  0.00000000  0.00000000  1
  Sn  Sn0  1  0.50000000  0.50000000  0.50000000  1
  Te  Te0  1  0.25440200  0.25440200  0.25440200  1
  Te  Te1  1  0.74559800  0.74559800  0.74559800  1
loop_
_geom_bond_atom_site_label_1
_geom_bond_atom_site_label_2
_geom_bond_distance
_geom_bond_site_symmetry_2
Cd0 Te0 3.087820 1_545
Cd0 Te1 3.087820 1_454
Cd0 Te1 3.087820 1_544
Cd0 Te0 3.087820 1_455
Cd0 Te1 3.087821 1_445
Cd0 Te0 3.087821 1_554
Sn0 Te1 3.194022 1_545
Sn0 Te0 3.194022 1_565
Sn0 Te0 3.194022 1_655
Sn0 Te1 3.194022 1_455
Sn0 Te1 3.194022 1_554
Sn0 Te0 3.194022 1_556
