# generated using pymatgen
data_ZrTiCr4
_symmetry_space_group_name_H-M   'P 1'
_cell_length_a   5.00078042
_cell_length_b   5.00078042
_cell_length_c   7.95203200
_cell_angle_alpha   90.00000000
_cell_angle_beta   90.00000000
_cell_angle_gamma   120.00000551
_symmetry_Int_Tables_number   1
_chemical_formula_structural   ZrTiCr4
_chemical_formula_sum   'Zr2 Ti2 Cr8'
_cell_volume   172.22028238
_cell_formula_units_Z   2
loop_
 _symmetry_equiv_pos_site_id
 _symmetry_equiv_pos_as_xyz
  1  'x, y, z'
loop_
 _atom_site_type_symbol
 _atom_site_label
 _atom_site_symmetry_multiplicity
 _atom_site_fract_x
 _atom_site_fract_y
 _atom_site_fract_z
 _atom_site_occupancy
  Zr  Zr0  1  0.66666700  0.33333300  0.93511500  1
  Zr  Zr1  1  0.33333300  0.66666700  0.06488500  1
  Ti  Ti0  1  0.33333300  0.66666700  0.44401700  1
  Ti  Ti1  1  0.66666700  0.33333300  0.55598300  1
  Cr  Cr0  1  0.00000000  0.00000000  0.50000000  1
  Cr  Cr1  1  0.00000000  0.00000000  0.00000000  1
  Cr  Cr2  1  0.83088400  0.16911600  0.25938400  1
  Cr  Cr3  1  0.83088400  0.66176700  0.25938400  1
  Cr  Cr4  1  0.33823300  0.16911600  0.25938400  1
  Cr  Cr5  1  0.16911600  0.83088400  0.74061600  1
  Cr  Cr6  1  0.16911600  0.33823300  0.74061600  1
  Cr  Cr7  1  0.66176700  0.83088400  0.74061600  1
loop_
_geom_bond_atom_site_label_1
_geom_bond_atom_site_label_2
_geom_bond_distance
_geom_bond_site_symmetry_2
Zr0 Zr1 3.066074 1_546
Zr0 Zr1 3.066074 1_656
Zr0 Zr1 3.066082 1_556
Ti0 Zr1 3.014870 1_555
Ti0 Ti1 3.021366 1_455
Ti0 Ti1 3.021366 1_565
Ti0 Ti1 3.021375 1_555
Ti1 Zr0 3.014870 1_555
Cr0 Cr5 2.409716 1_545
Cr0 Cr2 2.409716 1_455
Cr0 Cr6 2.409719 1_555
Cr0 Cr7 2.409719 1_445
Cr0 Cr4 2.409719 1_555
Cr0 Cr3 2.409719 1_445
Cr0 Ti1 2.921319 1_455
Cr0 Ti0 2.921319 1_545
Cr0 Ti1 2.921323 1_555
Cr0 Ti0 2.921323 1_555
Cr0 Ti1 2.921323 1_445
Cr0 Ti0 2.921323 1_445
Cr1 Cr2 2.529847 1_455
Cr1 Cr5 2.529847 1_544
Cr1 Cr3 2.529850 1_445
Cr1 Cr4 2.529850 1_555
Cr1 Cr7 2.529850 1_444
Cr1 Cr6 2.529850 1_554
Cr1 Zr1 2.932941 1_545
Cr1 Zr0 2.932941 1_454
Cr1 Zr1 2.932945 1_445
Cr1 Zr1 2.932945 1_555
Cr1 Zr0 2.932945 1_554
Cr1 Zr0 2.932945 1_444
Cr2 Cr4 2.463639 1_555
Cr2 Cr3 2.463639 1_555
Cr2 Cr4 2.537141 1_655
Cr2 Cr3 2.537141 1_545
Cr2 Ti1 2.754270 1_555
Cr2 Ti0 2.899661 1_545
Cr2 Ti0 2.899661 1_655
Cr2 Zr1 2.940164 1_545
Cr2 Zr1 2.940164 1_655
Cr2 Zr0 2.944883 1_554
Cr3 Cr4 2.463639 1_555
Cr3 Cr4 2.537141 1_665
Cr3 Ti1 2.754270 1_555
Cr3 Ti0 2.899657 1_655
Cr3 Ti0 2.899665 1_555
Cr3 Zr1 2.940160 1_655
Cr3 Zr1 2.940168 1_555
Cr3 Zr0 2.944883 1_554
Cr4 Ti1 2.754270 1_555
Cr4 Ti0 2.899657 1_545
Cr4 Ti0 2.899665 1_555
Cr4 Zr1 2.940160 1_545
Cr4 Zr1 2.940168 1_555
Cr4 Zr0 2.944883 1_554
Cr5 Cr7 2.463639 1_555
Cr5 Cr6 2.463639 1_555
Cr5 Cr7 2.537141 1_455
Cr5 Cr6 2.537141 1_565
Cr5 Ti0 2.754270 1_555
Cr5 Ti1 2.899661 1_455
Cr5 Ti1 2.899661 1_565
Cr5 Zr0 2.940164 1_455
Cr5 Zr0 2.940164 1_565
Cr5 Zr1 2.944883 1_556
Cr6 Cr7 2.463639 1_555
Cr6 Cr7 2.537141 1_445
Cr6 Ti0 2.754270 1_555
Cr6 Ti1 2.899657 1_455
Cr6 Ti1 2.899665 1_555
Cr6 Zr0 2.940160 1_455
Cr6 Zr0 2.940168 1_555
Cr6 Zr1 2.944883 1_556
Cr7 Ti0 2.754270 1_555
Cr7 Ti1 2.899657 1_565
Cr7 Ti1 2.899665 1_555
Cr7 Zr0 2.940160 1_565
Cr7 Zr0 2.940168 1_555
Cr7 Zr1 2.944883 1_556
