# generated using pymatgen
data_Eu2Mn5Al12
_symmetry_space_group_name_H-M   'P 1'
_cell_length_a   6.83310833
_cell_length_b   6.83310833
_cell_length_c   6.83310900
_cell_angle_alpha   83.49176295
_cell_angle_beta   83.49176295
_cell_angle_gamma   83.49176074
_symmetry_Int_Tables_number   1
_chemical_formula_structural   Eu2Mn5Al12
_chemical_formula_sum   'Eu2 Mn5 Al12'
_cell_volume   313.31190332
_cell_formula_units_Z   1
loop_
 _symmetry_equiv_pos_site_id
 _symmetry_equiv_pos_as_xyz
  1  'x, y, z'
loop_
 _atom_site_type_symbol
 _atom_site_label
 _atom_site_symmetry_multiplicity
 _atom_site_fract_x
 _atom_site_fract_y
 _atom_site_fract_z
 _atom_site_occupancy
  Eu  Eu0  1  0.65713400  0.65713400  0.65713400  1
  Eu  Eu1  1  0.34286600  0.34286600  0.34286600  1
  Mn  Mn0  1  0.00000000  0.00000000  0.50000000  1
  Mn  Mn1  1  0.00000000  0.50000000  0.00000000  1
  Mn  Mn2  1  0.50000000  0.00000000  0.00000000  1
  Mn  Mn3  1  0.90242100  0.90242100  0.90242100  1
  Mn  Mn4  1  0.09757900  0.09757900  0.09757900  1
  Al  Al0  1  0.28242400  0.71757600  0.00000000  1
  Al  Al1  1  0.71757600  0.00000000  0.28242400  1
  Al  Al2  1  0.00000000  0.28242400  0.71757600  1
  Al  Al3  1  0.28242400  0.00000000  0.71757600  1
  Al  Al4  1  0.00000000  0.71757600  0.28242400  1
  Al  Al5  1  0.71757600  0.28242400  0.00000000  1
  Al  Al6  1  0.33581500  0.33581500  0.87903700  1
  Al  Al7  1  0.33581500  0.87903700  0.33581500  1
  Al  Al8  1  0.87903700  0.33581500  0.33581500  1
  Al  Al9  1  0.66418500  0.66418500  0.12096300  1
  Al  Al10  1  0.66418500  0.12096300  0.66418500  1
  Al  Al11  1  0.12096300  0.66418500  0.66418500  1
loop_
_geom_bond_atom_site_label_1
_geom_bond_atom_site_label_2
_geom_bond_distance
_geom_bond_site_symmetry_2
Eu0 Mn3 3.215298 1_555
Eu1 Mn4 3.215298 1_555
Mn0 Mn4 2.778489 1_555
Mn0 Mn3 2.778489 1_445
Mn1 Mn3 2.778489 1_454
Mn1 Mn4 2.778489 1_555
Mn2 Mn4 2.778489 1_555
Mn2 Mn3 2.778489 1_544
Mn3 Mn4 2.558192 1_666
Al0 Mn1 2.566126 1_555
Al0 Mn2 2.566126 1_565
Al0 Al3 2.569875 1_564
Al0 Al4 2.569875 1_555
Al0 Al7 2.733262 1_555
Al0 Al11 2.733262 1_554
Al0 Al9 2.797471 1_555
Al0 Al6 2.797471 1_554
Al0 Mn3 2.870600 1_454
Al0 Mn4 2.870600 1_565
Al0 Eu0 3.291667 1_554
Al0 Eu1 3.291667 1_555
Al1 Mn0 2.566126 1_655
Al1 Mn2 2.566126 1_555
Al1 Al4 2.569875 1_645
Al1 Al5 2.569875 1_555
Al1 Al8 2.733262 1_555
Al1 Al9 2.733262 1_545
Al1 Al7 2.797471 1_545
Al1 Al10 2.797471 1_555
Al1 Mn4 2.870600 1_655
Al1 Mn3 2.870600 1_544
Al1 Eu1 3.291667 1_555
Al1 Eu0 3.291667 1_545
Al2 Mn0 2.566126 1_555
Al2 Mn1 2.566126 1_556
Al2 Al3 2.569875 1_555
Al2 Al5 2.569875 1_456
Al2 Al6 2.733262 1_555
Al2 Al8 2.797471 1_455
Al2 Mn3 2.870600 1_445
Al2 Mn4 2.870600 1_556
Al2 Eu0 3.291667 1_455
Al2 Eu1 3.291667 1_555
Al3 Mn0 2.566126 1_555
Al3 Mn2 2.566126 1_556
Al3 Al6 2.733262 1_555
Al3 Al7 2.797471 1_545
Al3 Mn3 2.870600 1_445
Al3 Mn4 2.870600 1_556
Al3 Eu0 3.291667 1_545
Al3 Eu1 3.291667 1_555
Al4 Mn0 2.566126 1_565
Al4 Mn1 2.566126 1_555
Al4 Al7 2.733262 1_555
Al4 Al9 2.733262 1_455
Al4 Al8 2.797471 1_455
Al4 Mn4 2.870600 1_565
Al4 Mn3 2.870600 1_454
Al4 Eu1 3.291667 1_555
Al4 Eu0 3.291667 1_455
Al5 Mn2 2.566126 1_555
Al5 Mn1 2.566126 1_655
Al5 Al8 2.733262 1_555
Al5 Al9 2.797471 1_555
Al5 Al6 2.797471 1_554
Al5 Mn3 2.870600 1_544
Al5 Mn4 2.870600 1_655
Al5 Eu0 3.291667 1_554
Al5 Eu1 3.291667 1_555
Al6 Mn1 2.530606 1_556
Al6 Mn2 2.530606 1_556
Al6 Mn4 2.651161 1_556
Al6 Eu1 3.181110 1_556
Al6 Eu0 3.394692 1_555
Al6 Eu1 3.653484 1_555
Al7 Mn0 2.530606 1_565
Al7 Mn2 2.530607 1_565
Al7 Mn4 2.651161 1_565
Al7 Al9 2.887967 1_555
Al7 Eu1 3.181110 1_565
Al7 Eu0 3.394692 1_555
Al7 Eu1 3.653484 1_555
Al8 Mn0 2.530606 1_655
Al8 Mn1 2.530607 1_655
Al8 Mn4 2.651161 1_655
Al8 Al9 2.887967 1_555
Al8 Eu1 3.181110 1_655
Al8 Eu0 3.394692 1_555
Al8 Eu1 3.653484 1_555
Al9 Mn2 2.530606 1_565
Al9 Mn1 2.530606 1_655
Al9 Mn3 2.651161 1_554
Al9 Eu0 3.181110 1_554
Al9 Eu1 3.394692 1_555
Al9 Eu0 3.653484 1_555
Al10 Mn0 2.530606 1_655
Al10 Mn2 2.530607 1_556
Al10 Mn3 2.651161 1_545
Al10 Al2 2.733262 1_655
Al10 Al5 2.733262 1_556
Al10 Al3 2.797471 1_555
Al10 Al6 2.887967 1_555
Al10 Al8 2.887968 1_555
Al10 Eu0 3.181110 1_545
Al10 Eu1 3.394692 1_555
Al10 Eu0 3.653484 1_555
Al11 Mn0 2.530606 1_565
Al11 Mn1 2.530607 1_556
Al11 Mn3 2.651161 1_455
Al11 Al3 2.733262 1_565
Al11 Al2 2.797471 1_555
Al11 Al4 2.797471 1_555
Al11 Al6 2.887967 1_555
Al11 Al7 2.887968 1_555
Al11 Eu0 3.181110 1_455
Al11 Eu1 3.394692 1_555
Al11 Eu0 3.653484 1_555
