# generated using pymatgen
data_Ni4As3S5
_symmetry_space_group_name_H-M   'P 1'
_cell_length_a   5.68053493
_cell_length_b   5.68053493
_cell_length_c   5.68053486
_cell_angle_alpha   90.68503215
_cell_angle_beta   90.68503215
_cell_angle_gamma   90.68502956
_symmetry_Int_Tables_number   1
_chemical_formula_structural   Ni4As3S5
_chemical_formula_sum   'Ni4 As3 S5'
_cell_volume   183.26258990
_cell_formula_units_Z   1
loop_
 _symmetry_equiv_pos_site_id
 _symmetry_equiv_pos_as_xyz
  1  'x, y, z'
loop_
 _atom_site_type_symbol
 _atom_site_label
 _atom_site_symmetry_multiplicity
 _atom_site_fract_x
 _atom_site_fract_y
 _atom_site_fract_z
 _atom_site_occupancy
  Ni  Ni0  1  0.99350300  0.99350300  0.99350300  1
  Ni  Ni1  1  0.49620100  0.00098100  0.50897400  1
  Ni  Ni2  1  0.00098100  0.50897400  0.49620100  1
  Ni  Ni3  1  0.50897400  0.49620100  0.00098100  1
  As  As0  1  0.11837400  0.37990000  0.88262400  1
  As  As1  1  0.37990000  0.88262400  0.11837400  1
  As  As2  1  0.88262400  0.11837400  0.37990000  1
  S  S0  1  0.39496200  0.39496200  0.39496200  1
  S  S1  1  0.88424400  0.61678700  0.11449800  1
  S  S2  1  0.61678700  0.11449800  0.88424400  1
  S  S3  1  0.11449800  0.88424400  0.61678700  1
  S  S4  1  0.60895200  0.60895200  0.60895200  1
loop_
_geom_bond_atom_site_label_1
_geom_bond_atom_site_label_2
_geom_bond_distance
_geom_bond_site_symmetry_2
Ni0 S3 2.334652 1_655
Ni0 S2 2.334652 1_565
Ni0 S1 2.334652 1_556
Ni1 S2 2.313217 1_555
Ni1 S3 2.350176 1_545
Ni1 S4 2.397426 1_545
Ni1 S0 2.411525 1_555
Ni2 S3 2.313217 1_555
Ni2 S1 2.350176 1_455
Ni2 S4 2.397426 1_455
Ni2 S0 2.411525 1_555
Ni3 S1 2.313217 1_555
Ni3 S2 2.350176 1_554
Ni3 S4 2.397426 1_554
Ni3 S0 2.411525 1_555
As0 S1 2.314487 1_456
As0 Ni0 2.392519 1_445
As0 Ni3 2.393804 1_556
As0 Ni2 2.411614 1_555
As1 S2 2.314487 1_564
As1 Ni0 2.392519 1_454
As1 Ni1 2.393804 1_565
As1 Ni3 2.411614 1_555
As2 S3 2.314487 1_645
As2 Ni0 2.392519 1_544
As2 Ni2 2.393804 1_655
As2 Ni1 2.411614 1_555
S0 S4 2.080118 1_555
