# generated using pymatgen
data_RbCrO3F
_symmetry_space_group_name_H-M   'P 1'
_cell_length_a   7.13498000
_cell_length_b   7.82887500
_cell_length_c   8.11564900
_cell_angle_alpha   90.00000000
_cell_angle_beta   90.00000000
_cell_angle_gamma   90.00000000
_symmetry_Int_Tables_number   1
_chemical_formula_structural   RbCrO3F
_chemical_formula_sum   'Rb4 Cr4 O12 F4'
_cell_volume   453.33095444
_cell_formula_units_Z   4
loop_
 _symmetry_equiv_pos_site_id
 _symmetry_equiv_pos_as_xyz
  1  'x, y, z'
loop_
 _atom_site_type_symbol
 _atom_site_label
 _atom_site_symmetry_multiplicity
 _atom_site_fract_x
 _atom_site_fract_y
 _atom_site_fract_z
 _atom_site_occupancy
  Rb  Rb0  1  0.24968600  0.14833300  0.62881800  1
  Rb  Rb1  1  0.25031400  0.35166700  0.12881800  1
  Rb  Rb2  1  0.74968600  0.85166700  0.37118200  1
  Rb  Rb3  1  0.75031400  0.64833300  0.87118200  1
  Cr  Cr0  1  0.24450600  0.64830900  0.62030500  1
  Cr  Cr1  1  0.25549400  0.85169100  0.12030500  1
  Cr  Cr2  1  0.74450600  0.35169100  0.37969500  1
  Cr  Cr3  1  0.75549400  0.14830900  0.87969500  1
  O  O0  1  0.24413400  0.51672100  0.46555700  1
  O  O1  1  0.25586600  0.98327900  0.96555700  1
  O  O2  1  0.74413400  0.48327900  0.53444300  1
  O  O3  1  0.75586600  0.01672100  0.03444300  1
  O  O4  1  0.24603900  0.54064100  0.79169500  1
  O  O5  1  0.25396100  0.95935900  0.29169500  1
  O  O6  1  0.74603900  0.45935900  0.20830500  1
  O  O7  1  0.75396100  0.04064100  0.70830500  1
  O  O8  1  0.05955200  0.76954800  0.61407500  1
  O  O9  1  0.44044800  0.73045200  0.11407500  1
  O  O10  1  0.55955200  0.23045200  0.38592500  1
  O  O11  1  0.94044800  0.26954800  0.88592500  1
  F  F0  1  0.95108100  0.21819600  0.38595400  1
  F  F1  1  0.54891900  0.28180400  0.88595400  1
  F  F2  1  0.45108100  0.78180400  0.61404600  1
  F  F3  1  0.04891900  0.71819600  0.11404600  1
loop_
_geom_bond_atom_site_label_1
_geom_bond_atom_site_label_2
_geom_bond_distance
_geom_bond_site_symmetry_2
Cr0 O0 1.624354 1_555
Cr0 O8 1.626324 1_555
Cr0 O4 1.626453 1_555
Cr0 F2 1.807554 1_555
Cr1 O1 1.624354 1_554
Cr1 O9 1.626324 1_555
Cr1 O5 1.626453 1_555
Cr1 F3 1.807554 1_555
Cr2 O2 1.624354 1_555
Cr2 O10 1.626324 1_555
Cr2 O6 1.626453 1_555
Cr2 F0 1.807554 1_555
Cr3 O3 1.624354 1_556
Cr3 O11 1.626324 1_555
Cr3 O7 1.626453 1_555
Cr3 F1 1.807554 1_555
O0 Rb1 3.023275 1_555
O0 Rb0 3.174104 1_555
O1 Rb0 3.023275 1_565
O1 Rb1 3.174104 1_566
O2 Rb3 3.023275 1_555
O2 Rb2 3.174104 1_555
O3 Rb2 3.023275 1_545
O3 Rb3 3.174104 1_544
O4 Rb1 3.110507 1_556
O4 Rb0 3.343806 1_555
O5 Rb0 3.110507 1_565
O5 Rb1 3.343806 1_565
O6 Rb3 3.110507 1_554
O6 Rb2 3.343806 1_555
O7 Rb2 3.110507 1_545
O7 Rb3 3.343806 1_545
O8 Rb2 3.031024 1_455
O8 Rb3 3.181611 1_455
O8 Rb0 3.263226 1_565
O9 Rb3 3.031024 1_554
O9 Rb2 3.181611 1_555
O9 Rb1 3.263226 1_555
O10 Rb0 3.031024 1_555
O10 Rb1 3.181611 1_555
O10 Rb2 3.263226 1_545
O11 Rb1 3.031024 1_656
O11 Rb0 3.181611 1_655
O11 Rb3 3.263226 1_555
F0 Rb0 2.953505 1_655
F0 Rb1 3.163073 1_655
F0 Rb2 3.211430 1_545
F1 Rb1 2.953505 1_556
F1 Rb0 3.163073 1_555
F1 Rb3 3.211430 1_555
F2 Rb2 2.953505 1_555
F2 Rb3 3.163073 1_555
F2 Rb0 3.211430 1_565
F3 Rb3 2.953505 1_454
F3 Rb2 3.163073 1_455
F3 Rb1 3.211430 1_555
