# generated using pymatgen
data_LaCe(MnSi)4
_symmetry_space_group_name_H-M   'P 1'
_cell_length_a   3.97629800
_cell_length_b   3.97629800
_cell_length_c   10.52127500
_cell_angle_alpha   90.00000000
_cell_angle_beta   90.00000000
_cell_angle_gamma   90.00000000
_symmetry_Int_Tables_number   1
_chemical_formula_structural   LaCe(MnSi)4
_chemical_formula_sum   'La1 Ce1 Mn4 Si4'
_cell_volume   166.35130861
_cell_formula_units_Z   1
loop_
 _symmetry_equiv_pos_site_id
 _symmetry_equiv_pos_as_xyz
  1  'x, y, z'
loop_
 _atom_site_type_symbol
 _atom_site_label
 _atom_site_symmetry_multiplicity
 _atom_site_fract_x
 _atom_site_fract_y
 _atom_site_fract_z
 _atom_site_occupancy
  La  La0  1  0.50000000  0.50000000  0.50000000  1
  Ce  Ce0  1  0.00000000  0.00000000  0.00000000  1
  Mn  Mn0  1  0.00000000  0.50000000  0.24453700  1
  Mn  Mn1  1  0.50000000  0.00000000  0.75546300  1
  Mn  Mn2  1  0.50000000  0.00000000  0.24453700  1
  Mn  Mn3  1  0.00000000  0.50000000  0.75546300  1
  Si  Si0  1  0.50000000  0.50000000  0.12103100  1
  Si  Si1  1  0.00000000  0.00000000  0.62921300  1
  Si  Si2  1  0.00000000  0.00000000  0.37078700  1
  Si  Si3  1  0.50000000  0.50000000  0.87896900  1
loop_
_geom_bond_atom_site_label_1
_geom_bond_atom_site_label_2
_geom_bond_distance
_geom_bond_site_symmetry_2
La0 Si2 3.123087 1_555
La0 Si1 3.123087 1_655
La0 Si1 3.123087 1_665
La0 Si2 3.123087 1_655
La0 Si2 3.123087 1_565
La0 Si2 3.123087 1_665
La0 Si1 3.123087 1_565
La0 Si1 3.123087 1_555
La0 Mn3 3.343200 1_655
La0 Mn3 3.343200 1_555
La0 Mn1 3.343200 1_565
La0 Mn1 3.343200 1_555
La0 Mn0 3.343200 1_555
La0 Mn2 3.343200 1_565
La0 Mn0 3.343200 1_655
La0 Mn2 3.343200 1_555
Ce0 Si0 3.086587 1_455
Ce0 Si3 3.086587 1_554
Ce0 Si3 3.086587 1_544
Ce0 Si3 3.086587 1_444
Ce0 Si3 3.086587 1_454
Ce0 Si0 3.086587 1_445
Ce0 Si0 3.086587 1_555
Ce0 Si0 3.086587 1_545
Ce0 Mn0 3.251499 1_545
Ce0 Mn2 3.251499 1_455
Ce0 Mn2 3.251499 1_555
Ce0 Mn0 3.251499 1_555
Ce0 Mn1 3.251499 1_554
Ce0 Mn3 3.251499 1_544
Ce0 Mn1 3.251499 1_454
Ce0 Mn3 3.251499 1_554
Mn0 Si0 2.375138 1_555
Mn0 Si0 2.375138 1_455
Mn0 Si2 2.391056 1_565
Mn0 Si2 2.391056 1_555
Mn1 Si3 2.375138 1_555
Mn1 Si3 2.375138 1_545
Mn1 Si1 2.391056 1_655
Mn1 Si1 2.391056 1_555
Mn2 Si0 2.375138 1_555
Mn2 Si0 2.375138 1_545
Mn2 Si2 2.391056 1_655
Mn2 Si2 2.391056 1_555
Mn3 Si3 2.375138 1_555
Mn3 Si3 2.375138 1_455
Mn3 Si1 2.391056 1_565
Mn3 Si1 2.391056 1_555
Si0 Si3 2.546801 1_554
Si1 Si2 2.718971 1_555
