# generated using pymatgen
data_Li3SbS3
_symmetry_space_group_name_H-M   'P 1'
_cell_length_a   6.78736344
_cell_length_b   7.96189372
_cell_length_c   10.10470383
_cell_angle_alpha   90.00000000
_cell_angle_beta   90.00000000
_cell_angle_gamma   90.00000000
_symmetry_Int_Tables_number   1
_chemical_formula_structural   Li3SbS3
_chemical_formula_sum   'Li12 Sb4 S12'
_cell_volume   546.06088634
_cell_formula_units_Z   4
loop_
 _symmetry_equiv_pos_site_id
 _symmetry_equiv_pos_as_xyz
  1  'x, y, z'
loop_
 _atom_site_type_symbol
 _atom_site_label
 _atom_site_symmetry_multiplicity
 _atom_site_fract_x
 _atom_site_fract_y
 _atom_site_fract_z
 _atom_site_occupancy
  Li  Li0  1  0.54186479  0.55801173  0.27460228  1
  Li  Li1  1  0.45813521  0.44198827  0.77460228  1
  Li  Li2  1  0.04186479  0.94198827  0.77460228  1
  Li  Li3  1  0.95813521  0.05801173  0.27460228  1
  Li  Li4  1  0.15458494  0.41096497  0.31778894  1
  Li  Li5  1  0.84541506  0.58903503  0.81778894  1
  Li  Li6  1  0.65458494  0.08903503  0.81778894  1
  Li  Li7  1  0.34541506  0.91096497  0.31778894  1
  Li  Li8  1  0.12604476  0.25787821  0.61528524  1
  Li  Li9  1  0.87395524  0.74212179  0.11528524  1
  Li  Li10  1  0.62604476  0.24212179  0.11528524  1
  Li  Li11  1  0.37395524  0.75787821  0.61528524  1
  Sb  Sb0  1  0.60601564  0.23475470  0.50006214  1
  Sb  Sb1  1  0.39398436  0.76524530  0.00006214  1
  Sb  Sb2  1  0.10601564  0.26524530  0.00006214  1
  Sb  Sb3  1  0.89398436  0.73475470  0.50006214  1
  S  S0  1  0.80486419  0.33799229  0.31618426  1
  S  S1  1  0.19513581  0.66200771  0.81618426  1
  S  S2  1  0.30486419  0.16200771  0.81618426  1
  S  S3  1  0.69513581  0.83799229  0.31618426  1
  S  S4  1  0.36362721  0.46431884  0.50834158  1
  S  S5  1  0.63637279  0.53568116  0.00834158  1
  S  S6  1  0.86362721  0.03568116  0.00834158  1
  S  S7  1  0.13637279  0.96431884  0.50834158  1
  S  S8  1  0.79740058  0.32186605  0.69343555  1
  S  S9  1  0.20259942  0.67813395  0.19343555  1
  S  S10  1  0.29740058  0.17813395  0.19343555  1
  S  S11  1  0.70259942  0.82186605  0.69343555  1
loop_
_geom_bond_atom_site_label_1
_geom_bond_atom_site_label_2
_geom_bond_distance
_geom_bond_site_symmetry_2
Li0 S3 2.495597 1_555
Li0 S0 2.536086 1_555
Li0 S9 2.624858 1_555
Li0 S4 2.756522 1_555
Li0 S5 2.771605 1_555
Li1 S2 2.495597 1_555
Li1 S1 2.536086 1_555
Li1 S8 2.624858 1_555
Li1 S5 2.756522 1_556
Li1 S4 2.771605 1_555
Li2 S1 2.495597 1_555
Li2 S2 2.536086 1_565
Li2 S11 2.624858 1_455
Li2 S6 2.756522 1_466
Li2 S7 2.771605 1_555
Li3 S0 2.495597 1_555
Li3 S3 2.536086 1_545
Li3 S10 2.624858 1_655
Li3 S7 2.756522 1_645
Li3 S6 2.771605 1_555
Li4 S4 2.429206 1_555
Li4 S10 2.440294 1_555
Li4 S0 2.443806 1_455
Li4 S9 2.491985 1_555
Li5 S5 2.429206 1_556
Li5 S11 2.440294 1_555
Li5 S1 2.443806 1_655
Li5 S8 2.491985 1_555
Li6 S6 2.429206 1_556
Li6 S8 2.440294 1_555
Li6 S2 2.443806 1_555
Li6 S11 2.491985 1_545
Li7 S7 2.429206 1_555
Li7 S9 2.440294 1_555
Li7 S3 2.443806 1_555
Li7 S10 2.491985 1_565
Li8 S8 2.420507 1_455
Li8 S2 2.485305 1_555
Li8 S4 2.543566 1_555
Li8 S7 2.575966 1_545
Li9 S9 2.420507 1_655
Li9 S3 2.485305 1_555
Li9 S5 2.543566 1_555
Li9 S6 2.575966 1_565
Li10 S10 2.420507 1_555
Li10 S0 2.485305 1_555
Li10 S6 2.543566 1_555
Li10 S5 2.575966 1_555
Li11 S11 2.420507 1_555
Li11 S1 2.485305 1_555
Li11 S7 2.543566 1_555
Li11 S4 2.575966 1_555
S0 Sb0 2.439157 1_555
S1 Sb1 2.439157 1_556
S2 Sb2 2.439157 1_556
S3 Sb3 2.439157 1_555
S4 Sb0 2.460556 1_555
S5 Sb1 2.460556 1_555
S6 Sb2 2.460556 1_655
S7 Sb3 2.460556 1_455
S8 Sb0 2.446729 1_555
S9 Sb1 2.446729 1_555
S10 Sb2 2.446729 1_555
S11 Sb3 2.446729 1_555
