# generated using pymatgen
data_Ca2YNbO6
_symmetry_space_group_name_H-M   'P 1'
_cell_length_a   5.65497016
_cell_length_b   5.87017500
_cell_length_c   8.15756363
_cell_angle_alpha   90.00000000
_cell_angle_beta   89.60377554
_cell_angle_gamma   90.00000000
_symmetry_Int_Tables_number   1
_chemical_formula_structural   Ca2YNbO6
_chemical_formula_sum   'Ca4 Y2 Nb2 O12'
_cell_volume   270.78926986
_cell_formula_units_Z   2
loop_
 _symmetry_equiv_pos_site_id
 _symmetry_equiv_pos_as_xyz
  1  'x, y, z'
loop_
 _atom_site_type_symbol
 _atom_site_label
 _atom_site_symmetry_multiplicity
 _atom_site_fract_x
 _atom_site_fract_y
 _atom_site_fract_z
 _atom_site_occupancy
  Ca  Ca0  1  0.01444700  0.44566700  0.25071400  1
  Ca  Ca1  1  0.98555300  0.55433300  0.74928600  1
  Ca  Ca2  1  0.48555300  0.94566700  0.24928600  1
  Ca  Ca3  1  0.51444700  0.05433300  0.75071400  1
  Y  Y0  1  0.00000000  0.00000000  0.00000000  1
  Y  Y1  1  0.50000000  0.50000000  0.50000000  1
  Nb  Nb0  1  0.00000000  0.00000000  0.50000000  1
  Nb  Nb1  1  0.50000000  0.50000000  0.00000000  1
  O  O0  1  0.88554900  0.04607000  0.26578300  1
  O  O1  1  0.11445100  0.95393000  0.73421700  1
  O  O2  1  0.61445100  0.54607000  0.23421700  1
  O  O3  1  0.38554900  0.45393000  0.76578300  1
  O  O4  1  0.21017800  0.68384900  0.05934600  1
  O  O5  1  0.78982200  0.31615100  0.94065400  1
  O  O6  1  0.28982200  0.18384900  0.44065400  1
  O  O7  1  0.71017800  0.81615100  0.55934600  1
  O  O8  1  0.32284800  0.21044500  0.06290700  1
  O  O9  1  0.67715200  0.78955500  0.93709300  1
  O  O10  1  0.17715200  0.71044500  0.43709300  1
  O  O11  1  0.82284800  0.28955500  0.56290700  1
loop_
_geom_bond_atom_site_label_1
_geom_bond_atom_site_label_2
_geom_bond_distance
_geom_bond_site_symmetry_2
Ca0 O2 2.342260 1_455
Ca0 O4 2.364979 1_555
Ca0 O10 2.365028 1_555
Ca0 O0 2.459170 1_455
Ca0 O6 2.687241 1_555
Ca0 O8 2.694130 1_555
Ca0 O11 2.908854 1_455
Ca0 O5 2.938286 1_454
Ca1 O3 2.342260 1_655
Ca1 O5 2.364979 1_555
Ca1 O11 2.365028 1_555
Ca1 O1 2.459170 1_655
Ca1 O7 2.687241 1_555
Ca1 O9 2.694130 1_555
Ca1 O10 2.908854 1_655
Ca1 O4 2.938286 1_656
Ca2 O0 2.342260 1_565
Ca2 O6 2.364979 1_565
Ca2 O8 2.365028 1_565
Ca2 O2 2.459170 1_555
Ca2 O4 2.687241 1_555
Ca2 O10 2.694130 1_555
Ca2 O9 2.908854 1_554
Ca2 O7 2.938286 1_555
Ca3 O1 2.342260 1_545
Ca3 O7 2.364979 1_545
Ca3 O9 2.365028 1_545
Ca3 O3 2.459170 1_555
Ca3 O5 2.687241 1_555
Ca3 O11 2.694130 1_555
Ca3 O8 2.908854 1_556
Ca3 O6 2.938286 1_555
Nb0 O6 2.018473 1_555
Nb0 O7 2.018473 1_445
Nb0 O11 2.036891 1_455
Nb0 O10 2.036891 1_545
Nb0 O1 2.039528 1_545
Nb0 O0 2.039528 1_455
Nb1 O5 2.018473 1_554
Nb1 O4 2.018473 1_555
Nb1 O8 2.036891 1_555
Nb1 O9 2.036891 1_554
Nb1 O2 2.039528 1_555
Nb1 O3 2.039528 1_554
O0 Y0 2.274524 1_655
O1 Y0 2.274524 1_566
O2 Y1 2.274524 1_555
O3 Y1 2.274524 1_555
O4 Y0 2.258142 1_565
O5 Y0 2.258142 1_656
O6 Y1 2.258142 1_555
O7 Y1 2.258142 1_555
O8 Y0 2.266175 1_555
O9 Y0 2.266175 1_666
O10 Y1 2.266175 1_555
O11 Y1 2.266175 1_555
