# generated using pymatgen
data_InGaCu2(TeSe)2
_symmetry_space_group_name_H-M   'P 1'
_cell_length_a   6.00956969
_cell_length_b   6.00376097
_cell_length_c   7.34443144
_cell_angle_alpha   66.00224721
_cell_angle_beta   65.99056232
_cell_angle_gamma   90.31571262
_symmetry_Int_Tables_number   1
_chemical_formula_structural   InGaCu2(TeSe)2
_chemical_formula_sum   'In1 Ga1 Cu2 Te2 Se2'
_cell_volume   216.44498660
_cell_formula_units_Z   1
loop_
 _symmetry_equiv_pos_site_id
 _symmetry_equiv_pos_as_xyz
  1  'x, y, z'
loop_
 _atom_site_type_symbol
 _atom_site_label
 _atom_site_symmetry_multiplicity
 _atom_site_fract_x
 _atom_site_fract_y
 _atom_site_fract_z
 _atom_site_occupancy
  In  In0  1  0.50894700  0.50897600  0.98226000  1
  Ga  Ga0  1  0.24166400  0.74167700  0.51668800  1
  Cu  Cu0  1  0.74195200  0.24192300  0.51621500  1
  Cu  Cu1  1  0.00944700  0.00943100  0.98099400  1
  Te  Te0  1  0.09532700  0.10705900  0.26120700  1
  Te  Te1  1  0.64333600  0.63168600  0.26132200  1
  Se  Se0  1  0.36545900  0.89636300  0.74063500  1
  Se  Se1  1  0.89386900  0.36288500  0.74067900  1
loop_
_geom_bond_atom_site_label_1
_geom_bond_atom_site_label_2
_geom_bond_distance
_geom_bond_site_symmetry_2
In0 Se0 2.685556 1_555
In0 Se1 2.686362 1_555
In0 Te1 2.822112 1_556
In0 Te0 2.822614 1_556
Ga0 Se0 2.520278 1_555
Ga0 Se1 2.520542 1_455
Ga0 Te1 2.668566 1_555
Ga0 Te0 2.668768 1_565
Cu0 Se1 2.503986 1_555
Cu0 Se0 2.504424 1_545
Cu0 Te1 2.585819 1_555
Cu0 Te0 2.586295 1_655
Cu1 Se1 2.463341 1_455
Cu1 Se0 2.464088 1_545
Cu1 Te1 2.585290 1_446
Cu1 Te0 2.586018 1_556
