# generated using pymatgen
data_Zr2H(NCl)2
_symmetry_space_group_name_H-M   'P 1'
_cell_length_a   9.48329352
_cell_length_b   9.48329352
_cell_length_c   9.48329451
_cell_angle_alpha   23.15420504
_cell_angle_beta   23.15420504
_cell_angle_gamma   23.15420095
_symmetry_Int_Tables_number   1
_chemical_formula_structural   Zr2H(NCl)2
_chemical_formula_sum   'Zr2 H1 N2 Cl2'
_cell_volume   115.74936672
_cell_formula_units_Z   1
loop_
 _symmetry_equiv_pos_site_id
 _symmetry_equiv_pos_as_xyz
  1  'x, y, z'
loop_
 _atom_site_type_symbol
 _atom_site_label
 _atom_site_symmetry_multiplicity
 _atom_site_fract_x
 _atom_site_fract_y
 _atom_site_fract_z
 _atom_site_occupancy
  Zr  Zr0  1  0.87959600  0.87959600  0.87959600  1
  Zr  Zr1  1  0.12552700  0.12552700  0.12552700  1
  H  H0  1  0.76084400  0.76084400  0.76084400  1
  N  N0  1  0.79852900  0.79852900  0.79852900  1
  N  N1  1  0.20074200  0.20074200  0.20074200  1
  Cl  Cl0  1  0.60954900  0.60954900  0.60954900  1
  Cl  Cl1  1  0.39031300  0.39031300  0.39031300  1
loop_
_geom_bond_atom_site_label_1
_geom_bond_atom_site_label_2
_geom_bond_distance
_geom_bond_site_symmetry_2
H0 N0 1.042950 1_555
N0 Zr1 2.204573 1_656
N0 Zr1 2.204573 1_566
N0 Zr1 2.204573 1_665
N0 Zr0 2.243567 1_555
N1 Zr1 2.081610 1_555
N1 Zr0 2.223323 1_544
N1 Zr0 2.223323 1_454
N1 Zr0 2.223323 1_445
Cl0 Zr0 2.810173 1_545
Cl0 Zr0 2.810173 1_455
Cl0 Zr0 2.810174 1_554
Cl1 Zr1 2.903155 1_655
Cl1 Zr1 2.903155 1_565
Cl1 Zr1 2.903156 1_556
