# generated using pymatgen
data_Sr2V3Se5O18
_symmetry_space_group_name_H-M   'P 1'
_cell_length_a   9.20445900
_cell_length_b   10.81885900
_cell_length_c   17.25973800
_cell_angle_alpha   90.00000000
_cell_angle_beta   90.00000000
_cell_angle_gamma   90.00000000
_symmetry_Int_Tables_number   1
_chemical_formula_structural   Sr2V3Se5O18
_chemical_formula_sum   'Sr8 V12 Se20 O72'
_cell_volume   1718.75481262
_cell_formula_units_Z   4
loop_
 _symmetry_equiv_pos_site_id
 _symmetry_equiv_pos_as_xyz
  1  'x, y, z'
loop_
 _atom_site_type_symbol
 _atom_site_label
 _atom_site_symmetry_multiplicity
 _atom_site_fract_x
 _atom_site_fract_y
 _atom_site_fract_z
 _atom_site_occupancy
  Sr  Sr0  1  0.35657600  0.25000000  0.21605500  1
  Sr  Sr1  1  0.14342400  0.25000000  0.71605500  1
  Sr  Sr2  1  0.64342400  0.75000000  0.78394500  1
  Sr  Sr3  1  0.85657600  0.75000000  0.28394500  1
  Sr  Sr4  1  0.38401700  0.75000000  0.19030100  1
  Sr  Sr5  1  0.11598300  0.75000000  0.69030100  1
  Sr  Sr6  1  0.61598300  0.25000000  0.80969900  1
  Sr  Sr7  1  0.88401700  0.25000000  0.30969900  1
  V  V0  1  0.03058500  0.49273800  0.16017600  1
  V  V1  1  0.46941500  0.00726200  0.66017600  1
  V  V2  1  0.96941500  0.99273800  0.83982400  1
  V  V3  1  0.53058500  0.50726200  0.33982400  1
  V  V4  1  0.96941500  0.50726200  0.83982400  1
  V  V5  1  0.53058500  0.99273800  0.33982400  1
  V  V6  1  0.03058500  0.00726200  0.16017600  1
  V  V7  1  0.46941500  0.49273800  0.66017600  1
  V  V8  1  0.47768500  0.25000000  0.01925600  1
  V  V9  1  0.02231500  0.25000000  0.51925600  1
  V  V10  1  0.52231500  0.75000000  0.98074400  1
  V  V11  1  0.97768500  0.75000000  0.48074400  1
  Se  Se0  1  0.31649900  0.51911800  0.04797500  1
  Se  Se1  1  0.18350100  0.98088200  0.54797500  1
  Se  Se2  1  0.68350100  0.01911800  0.95202500  1
  Se  Se3  1  0.81649900  0.48088200  0.45202500  1
  Se  Se4  1  0.68350100  0.48088200  0.95202500  1
  Se  Se5  1  0.81649900  0.01911800  0.45202500  1
  Se  Se6  1  0.31649900  0.98088200  0.04797500  1
  Se  Se7  1  0.18350100  0.51911800  0.54797500  1
  Se  Se8  1  0.17911900  0.51900200  0.31370400  1
  Se  Se9  1  0.32088100  0.98099800  0.81370400  1
  Se  Se10  1  0.82088100  0.01900200  0.68629600  1
  Se  Se11  1  0.67911900  0.48099800  0.18629600  1
  Se  Se12  1  0.82088100  0.48099800  0.68629600  1
  Se  Se13  1  0.67911900  0.01900200  0.18629600  1
  Se  Se14  1  0.17911900  0.98099800  0.31370400  1
  Se  Se15  1  0.32088100  0.51900200  0.81370400  1
  Se  Se16  1  0.89753400  0.75000000  0.06286200  1
  Se  Se17  1  0.60246600  0.75000000  0.56286200  1
  Se  Se18  1  0.10246600  0.25000000  0.93713800  1
  Se  Se19  1  0.39753400  0.25000000  0.43713800  1
  O  O0  1  0.21796200  0.58354500  0.12333200  1
  O  O1  1  0.28203800  0.91645500  0.62333200  1
  O  O2  1  0.78203800  0.08354500  0.87666800  1
  O  O3  1  0.71796200  0.41645500  0.37666800  1
  O  O4  1  0.78203800  0.41645500  0.87666800  1
  O  O5  1  0.71796200  0.08354500  0.37666800  1
  O  O6  1  0.21796200  0.91645500  0.12333200  1
  O  O7  1  0.28203800  0.58354500  0.62333200  1
  O  O8  1  0.46751800  0.61614900  0.06156100  1
  O  O9  1  0.03248200  0.88385100  0.56156100  1
  O  O10  1  0.53248200  0.11614900  0.93843900  1
  O  O11  1  0.96751800  0.38385100  0.43843900  1
  O  O12  1  0.53248200  0.38385100  0.93843900  1
  O  O13  1  0.96751800  0.11614900  0.43843900  1
  O  O14  1  0.46751800  0.88385100  0.06156100  1
  O  O15  1  0.03248200  0.61614900  0.56156100  1
  O  O16  1  0.38124000  0.38345700  0.08962700  1
  O  O17  1  0.11876000  0.11654300  0.58962700  1
  O  O18  1  0.61876000  0.88345700  0.91037300  1
  O  O19  1  0.88124000  0.61654300  0.41037300  1
  O  O20  1  0.61876000  0.61654300  0.91037300  1
  O  O21  1  0.88124000  0.88345700  0.41037300  1
  O  O22  1  0.38124000  0.11654300  0.08962700  1
  O  O23  1  0.11876000  0.38345700  0.58962700  1
  O  O24  1  0.07780900  0.61934500  0.25939600  1
  O  O25  1  0.42219100  0.88065500  0.75939600  1
  O  O26  1  0.92219100  0.11934500  0.74060400  1
  O  O27  1  0.57780900  0.38065500  0.24060400  1
  O  O28  1  0.92219100  0.38065500  0.74060400  1
  O  O29  1  0.57780900  0.11934500  0.24060400  1
  O  O30  1  0.07780900  0.88065500  0.25939600  1
  O  O31  1  0.42219100  0.61934500  0.75939600  1
  O  O32  1  0.14088900  0.39364500  0.25041500  1
  O  O33  1  0.35911100  0.10635500  0.75041500  1
  O  O34  1  0.85911100  0.89364500  0.74958500  1
  O  O35  1  0.64088900  0.60635500  0.24958500  1
  O  O36  1  0.85911100  0.60635500  0.74958500  1
  O  O37  1  0.64088900  0.89364500  0.24958500  1
  O  O38  1  0.14088900  0.10635500  0.25041500  1
  O  O39  1  0.35911100  0.39364500  0.75041500  1
  O  O40  1  0.35143800  0.56680000  0.28193000  1
  O  O41  1  0.14856200  0.93320000  0.78193000  1
  O  O42  1  0.64856200  0.06680000  0.71807000  1
  O  O43  1  0.85143800  0.43320000  0.21807000  1
  O  O44  1  0.64856200  0.43320000  0.71807000  1
  O  O45  1  0.85143800  0.06680000  0.21807000  1
  O  O46  1  0.35143800  0.93320000  0.28193000  1
  O  O47  1  0.14856200  0.56680000  0.78193000  1
  O  O48  1  0.89763800  0.63006400  0.13166500  1
  O  O49  1  0.60236200  0.86993600  0.63166500  1
  O  O50  1  0.10236200  0.13006400  0.86833500  1
  O  O51  1  0.39763800  0.36993600  0.36833500  1
  O  O52  1  0.10236200  0.36993600  0.86833500  1
  O  O53  1  0.39763800  0.13006400  0.36833500  1
  O  O54  1  0.89763800  0.86993600  0.13166500  1
  O  O55  1  0.60236200  0.63006400  0.63166500  1
  O  O56  1  0.71737300  0.75000000  0.04401300  1
  O  O57  1  0.78262700  0.75000000  0.54401300  1
  O  O58  1  0.28262700  0.25000000  0.95598700  1
  O  O59  1  0.21737300  0.25000000  0.45598700  1
  O  O60  1  0.03751900  0.39357700  0.08804700  1
  O  O61  1  0.46248100  0.10642300  0.58804700  1
  O  O62  1  0.96248100  0.89357700  0.91195300  1
  O  O63  1  0.53751900  0.60642300  0.41195300  1
  O  O64  1  0.96248100  0.60642300  0.91195300  1
  O  O65  1  0.53751900  0.89357700  0.41195300  1
  O  O66  1  0.03751900  0.10642300  0.08804700  1
  O  O67  1  0.46248100  0.39357700  0.58804700  1
  O  O68  1  0.63329600  0.25000000  0.06789100  1
  O  O69  1  0.86670400  0.25000000  0.56789100  1
  O  O70  1  0.36670400  0.75000000  0.93210900  1
  O  O71  1  0.13329600  0.75000000  0.43210900  1
loop_
_geom_bond_atom_site_label_1
_geom_bond_atom_site_label_2
_geom_bond_distance
_geom_bond_site_symmetry_2
O0 Se0 1.732088 1_555
O0 V0 2.084265 1_555
O0 Sr4 2.629686 1_555
O1 Se1 1.732088 1_555
O1 V1 2.084265 1_565
O1 Sr5 2.629686 1_555
O2 Se2 1.732088 1_555
O2 V2 2.084265 1_545
O2 Sr6 2.629686 1_555
O3 Se3 1.732088 1_555
O3 V3 2.084265 1_555
O3 Sr7 2.629686 1_555
O4 Se4 1.732088 1_555
O4 V4 2.084265 1_555
O4 Sr6 2.629686 1_555
O5 Se5 1.732088 1_555
O5 V5 2.084265 1_545
O5 Sr7 2.629686 1_555
O6 Se6 1.732088 1_555
O6 V6 2.084265 1_565
O6 Sr4 2.629686 1_555
O7 Se7 1.732088 1_555
O7 V7 2.084265 1_555
O7 Sr5 2.629686 1_555
O8 Se0 1.757619 1_555
O8 V10 2.072951 1_554
O8 Sr4 2.761362 1_555
O9 Se1 1.757619 1_555
O9 V11 2.072951 1_455
O9 Sr5 2.761362 1_555
O10 Se2 1.757619 1_555
O10 V8 2.072951 1_556
O10 Sr6 2.761362 1_555
O11 Se3 1.757619 1_555
O11 V9 2.072951 1_655
O11 Sr7 2.761362 1_555
O12 Se4 1.757619 1_555
O12 V8 2.072951 1_556
O12 Sr6 2.761362 1_555
O13 Se5 1.757619 1_555
O13 V9 2.072951 1_655
O13 Sr7 2.761362 1_555
O14 Se6 1.757619 1_555
O14 V10 2.072951 1_554
O14 Sr4 2.761362 1_555
O15 Se7 1.757619 1_555
O15 V11 2.072951 1_455
O15 Sr5 2.761362 1_555
O16 Se0 1.739557 1_555
O16 V8 2.085181 1_555
O16 Sr0 2.626380 1_555
O17 Se1 1.739557 1_545
O17 V9 2.085181 1_555
O17 Sr1 2.626380 1_555
O18 Se2 1.739557 1_565
O18 V10 2.085181 1_555
O18 Sr2 2.626380 1_555
O19 Se3 1.739557 1_555
O19 V11 2.085181 1_555
O19 Sr3 2.626380 1_555
O20 Se4 1.739557 1_555
O20 V10 2.085181 1_555
O20 Sr2 2.626380 1_555
O21 Se5 1.739557 1_565
O21 V11 2.085181 1_555
O21 Sr3 2.626380 1_555
O22 Se6 1.739557 1_545
O22 V8 2.085181 1_555
O22 Sr0 2.626380 1_555
O23 Se7 1.739557 1_555
O23 V9 2.085181 1_555
O23 Sr1 2.626380 1_555
O24 Se8 1.710758 1_555
O24 V0 2.235583 1_555
O24 Sr3 2.514808 1_455
O25 Se9 1.710758 1_555
O25 V1 2.235583 1_565
O25 Sr2 2.514808 1_555
O26 Se10 1.710758 1_555
O26 V2 2.235583 1_545
O26 Sr1 2.514808 1_655
O27 Se11 1.710758 1_555
O27 V3 2.235583 1_555
O27 Sr0 2.514808 1_555
O28 Se12 1.710758 1_555
O28 V4 2.235583 1_555
O28 Sr1 2.514808 1_655
O29 Se13 1.710758 1_555
O29 V5 2.235583 1_545
O29 Sr0 2.514808 1_555
O30 Se14 1.710758 1_555
O30 V6 2.235583 1_565
O30 Sr3 2.514808 1_455
O31 Se15 1.710758 1_555
O31 V7 2.235583 1_555
O31 Sr2 2.514808 1_555
O32 Se8 1.776623 1_555
O32 V0 2.146151 1_555
O32 Sr0 2.590019 1_555
O32 Sr7 3.008717 1_455
O33 Se9 1.776623 1_545
O33 V1 2.146151 1_555
O33 Sr1 2.590019 1_555
O33 Sr6 3.008717 1_555
O34 Se10 1.776623 1_565
O34 V2 2.146151 1_555
O34 Sr2 2.590019 1_555
O34 Sr5 3.008717 1_655
O35 Se11 1.776623 1_555
O35 V3 2.146151 1_555
O35 Sr3 2.590019 1_555
O35 Sr4 3.008717 1_555
O36 Se12 1.776623 1_555
O36 V4 2.146151 1_555
O36 Sr2 2.590019 1_555
O36 Sr5 3.008717 1_655
O37 Se13 1.776623 1_565
O37 V5 2.146151 1_555
O37 Sr3 2.590019 1_555
O37 Sr4 3.008717 1_555
O38 Se14 1.776623 1_545
O38 V6 2.146151 1_555
O38 Sr0 2.590019 1_555
O38 Sr7 3.008717 1_455
O39 Se15 1.776623 1_555
O39 V7 2.146151 1_555
O39 Sr1 2.590019 1_555
O39 Sr6 3.008717 1_555
O40 Se8 1.756101 1_555
O40 V3 2.032835 1_555
O40 Sr4 2.553317 1_555
O41 Se9 1.756101 1_555
O41 V2 2.032835 1_455
O41 Sr5 2.553317 1_555
O42 Se10 1.756101 1_555
O42 V1 2.032835 1_555
O42 Sr6 2.553317 1_555
O43 Se11 1.756101 1_555
O43 V0 2.032835 1_655
O43 Sr7 2.553317 1_555
O44 Se12 1.756101 1_555
O44 V7 2.032835 1_555
O44 Sr6 2.553317 1_555
O45 Se13 1.756101 1_555
O45 V6 2.032835 1_655
O45 Sr7 2.553317 1_555
O46 Se14 1.756101 1_555
O46 V5 2.032835 1_555
O46 Sr4 2.553317 1_555
O47 Se15 1.756101 1_555
O47 V4 2.032835 1_455
O47 Sr5 2.553317 1_555
O48 Se16 1.758948 1_555
O48 V0 1.986692 1_655
O48 Sr3 2.955430 1_555
O49 Se17 1.758948 1_555
O49 V1 1.986692 1_565
O49 Sr2 2.955430 1_555
O50 Se18 1.758948 1_555
O50 V2 1.986692 1_445
O50 Sr1 2.955430 1_555
O51 Se19 1.758948 1_555
O51 V3 1.986692 1_555
O51 Sr0 2.955430 1_555
O52 Se18 1.758948 1_555
O52 V4 1.986692 1_455
O52 Sr1 2.955430 1_555
O53 Se19 1.758948 1_555
O53 V5 1.986692 1_545
O53 Sr0 2.955430 1_555
O54 Se16 1.758948 1_555
O54 V6 1.986692 1_665
O54 Sr3 2.955430 1_555
O55 Se17 1.758948 1_555
O55 V7 1.986692 1_555
O55 Sr2 2.955430 1_555
O56 Se16 1.689895 1_555
O56 V10 2.101416 1_554
O57 Se17 1.689895 1_555
O57 V11 2.101416 1_555
O58 Se18 1.689895 1_555
O58 V8 2.101416 1_556
O59 Se19 1.689895 1_555
O59 V9 2.101416 1_555
O60 V0 1.644639 1_555
O61 V1 1.644639 1_555
O62 V2 1.644639 1_555
O63 V3 1.644639 1_555
O64 V4 1.644639 1_555
O65 V5 1.644639 1_555
O66 V6 1.644639 1_555
O67 V7 1.644639 1_555
O68 V8 1.660170 1_555
O69 V9 1.660170 1_655
O70 V10 1.660170 1_555
O71 V11 1.660170 1_455
