# generated using pymatgen
data_FeSO4F
_symmetry_space_group_name_H-M   'P 1'
_cell_length_a   7.24037600
_cell_length_b   7.39300770
_cell_length_c   7.43338110
_cell_angle_alpha   119.47433183
_cell_angle_beta   90.00006245
_cell_angle_gamma   89.99995419
_symmetry_Int_Tables_number   1
_chemical_formula_structural   FeSO4F
_chemical_formula_sum   'Fe4 S4 O16 F4'
_cell_volume   346.39807787
_cell_formula_units_Z   4
loop_
 _symmetry_equiv_pos_site_id
 _symmetry_equiv_pos_as_xyz
  1  'x, y, z'
loop_
 _atom_site_type_symbol
 _atom_site_label
 _atom_site_symmetry_multiplicity
 _atom_site_fract_x
 _atom_site_fract_y
 _atom_site_fract_z
 _atom_site_occupancy
  Fe  Fe0  1  0.75000500  0.75000000  0.00000400  1
  Fe  Fe1  1  0.25000100  0.75000100  0.49999600  1
  Fe  Fe2  1  0.24999700  0.25000100  0.00000100  1
  Fe  Fe3  1  0.74999900  0.25000500  0.50000500  1
  S  S0  1  0.87021100  0.50000000  0.25000000  1
  S  S1  1  0.37021100  0.00000100  0.24999900  1
  S  S2  1  0.62978900  0.99999800  0.74999800  1
  S  S3  1  0.12978900  0.50000100  0.75000100  1
  O  O0  1  0.98615100  0.33790900  0.08341200  1
  O  O1  1  0.48615300  0.83791200  0.08341300  1
  O  O2  1  0.51384800  0.16208700  0.91658600  1
  O  O3  1  0.01384900  0.66209300  0.91659200  1
  O  O4  1  0.98615200  0.66208900  0.41658900  1
  O  O5  1  0.48615200  0.16209000  0.41658800  1
  O  O6  1  0.51384700  0.83790700  0.58340900  1
  O  O7  1  0.01384700  0.33791200  0.58341300  1
  O  O8  1  0.24763600  0.90354700  0.33836200  1
  O  O9  1  0.74763600  0.40354900  0.33836700  1
  O  O10  1  0.25236300  0.59645200  0.66163400  1
  O  O11  1  0.75236400  0.09645000  0.66163300  1
  O  O12  1  0.74763500  0.59645300  0.16163600  1
  O  O13  1  0.24763600  0.09645000  0.16163100  1
  O  O14  1  0.75236300  0.90354600  0.83836400  1
  O  O15  1  0.25236500  0.40354700  0.83836400  1
  F  F0  1  0.33187100  0.50000000  0.24999900  1
  F  F1  1  0.83187400  0.00000000  0.25000000  1
  F  F2  1  0.16812800  0.00000100  0.74999800  1
  F  F3  1  0.66812800  0.50000200  0.75000300  1
loop_
_geom_bond_atom_site_label_1
_geom_bond_atom_site_label_2
_geom_bond_distance
_geom_bond_site_symmetry_2
Fe0 O3 2.014852 1_654
Fe0 O1 2.014910 1_555
Fe0 O12 2.018564 1_555
Fe0 O14 2.018609 1_554
Fe1 O6 2.014866 1_555
Fe1 O4 2.014887 1_455
Fe1 O8 2.018570 1_555
Fe1 O10 2.018615 1_555
Fe2 O0 2.014866 1_455
Fe2 O2 2.014913 1_554
Fe2 O13 2.018576 1_555
Fe2 O15 2.018590 1_554
Fe3 O7 2.014875 1_655
Fe3 O5 2.014888 1_555
Fe3 O9 2.018583 1_555
Fe3 O11 2.018588 1_555
O0 S0 1.487896 1_555
O1 S1 1.487892 1_565
O2 S2 1.487894 1_545
O3 S3 1.487909 1_555
O4 S0 1.487897 1_555
O5 S1 1.487897 1_555
O6 S2 1.487907 1_555
O7 S3 1.487898 1_555
O8 S1 1.479351 1_565
O9 S0 1.479356 1_555
O10 S3 1.479352 1_555
O11 S2 1.479351 1_545
O12 S0 1.479354 1_555
O13 S1 1.479349 1_555
O14 S2 1.479350 1_555
O15 S3 1.479354 1_555
F0 Fe1 1.959812 1_555
F0 Fe2 1.959817 1_555
F1 Fe0 1.959803 1_545
F1 Fe3 1.959866 1_555
F2 Fe2 1.959828 1_556
F2 Fe1 1.959833 1_545
F3 Fe3 1.959804 1_555
F3 Fe0 1.959831 1_556
