# generated using pymatgen
data_CoAs2S6(NF3)6
_symmetry_space_group_name_H-M   'P 1'
_cell_length_a   9.55481400
_cell_length_b   9.68766100
_cell_length_c   16.66842216
_cell_angle_alpha   54.99083139
_cell_angle_beta   90.00000000
_cell_angle_gamma   90.00000000
_symmetry_Int_Tables_number   1
_chemical_formula_structural   CoAs2S6(NF3)6
_chemical_formula_sum   'Co2 As4 S12 N12 F36'
_cell_volume   1263.72189647
_cell_formula_units_Z   2
loop_
 _symmetry_equiv_pos_site_id
 _symmetry_equiv_pos_as_xyz
  1  'x, y, z'
loop_
 _atom_site_type_symbol
 _atom_site_label
 _atom_site_symmetry_multiplicity
 _atom_site_fract_x
 _atom_site_fract_y
 _atom_site_fract_z
 _atom_site_occupancy
  Co  Co0  1  0.50000000  0.00000000  0.50000000  1
  Co  Co1  1  0.00000000  0.00000000  0.00000000  1
  As  As0  1  0.55113300  0.25682600  0.74647800  1
  As  As1  1  0.94886700  0.25682600  0.24647800  1
  As  As2  1  0.44886700  0.74317400  0.25352200  1
  As  As3  1  0.05113300  0.74317400  0.75352200  1
  S  S0  1  0.30506500  0.66221400  0.53620200  1
  S  S1  1  0.19493500  0.66221400  0.03620200  1
  S  S2  1  0.69493500  0.33778600  0.46379800  1
  S  S3  1  0.80506500  0.33778600  0.96379800  1
  S  S4  1  0.80404600  0.76874900  0.53714300  1
  S  S5  1  0.69595400  0.76874900  0.03714300  1
  S  S6  1  0.19595400  0.23125100  0.46285700  1
  S  S7  1  0.30404600  0.23125100  0.96285700  1
  S  S8  1  0.46599200  0.81991300  0.75096700  1
  S  S9  1  0.03400800  0.81991300  0.25096700  1
  S  S10  1  0.53400800  0.18008700  0.24903300  1
  S  S11  1  0.96599200  0.18008700  0.74903300  1
  N  N0  1  0.38808700  0.79429400  0.52671200  1
  N  N1  1  0.11191300  0.79429400  0.02671200  1
  N  N2  1  0.61191300  0.20570600  0.47328800  1
  N  N3  1  0.88808700  0.20570600  0.97328800  1
  N  N4  1  0.47908800  0.90355700  0.64699500  1
  N  N5  1  0.02091200  0.90355700  0.14699500  1
  N  N6  1  0.52091200  0.09644300  0.35300500  1
  N  N7  1  0.97908800  0.09644300  0.85300500  1
  N  N8  1  0.68375300  0.86566900  0.52839700  1
  N  N9  1  0.81624700  0.86566900  0.02839700  1
  N  N10  1  0.31624700  0.13433100  0.47160300  1
  N  N11  1  0.18375300  0.13433100  0.97160300  1
  F  F0  1  0.40549700  0.13036500  0.76337800  1
  F  F1  1  0.09450300  0.13036500  0.26337800  1
  F  F2  1  0.59450300  0.86963500  0.23662200  1
  F  F3  1  0.90549700  0.86963500  0.73662200  1
  F  F4  1  0.57265900  0.14348300  0.87558300  1
  F  F5  1  0.92734100  0.14348300  0.37558300  1
  F  F6  1  0.42734100  0.85651700  0.12441700  1
  F  F7  1  0.07265900  0.85651700  0.62441700  1
  F  F8  1  0.70076300  0.38074400  0.72981200  1
  F  F9  1  0.79923700  0.38074400  0.22981200  1
  F  F10  1  0.29923700  0.61925600  0.27018800  1
  F  F11  1  0.20076300  0.61925600  0.77018800  1
  F  F12  1  0.53252800  0.37223800  0.61701000  1
  F  F13  1  0.96747200  0.37223800  0.11701000  1
  F  F14  1  0.46747200  0.62776200  0.38299000  1
  F  F15  1  0.03252800  0.62776200  0.88299000  1
  F  F16  1  0.66346900  0.11096000  0.74527300  1
  F  F17  1  0.83653100  0.11096000  0.24527300  1
  F  F18  1  0.33653100  0.88904000  0.25472700  1
  F  F19  1  0.16346900  0.88904000  0.75472700  1
  F  F20  1  0.43990500  0.40230300  0.74764800  1
  F  F21  1  0.06009500  0.40230300  0.24764800  1
  F  F22  1  0.56009500  0.59769700  0.25235200  1
  F  F23  1  0.93990500  0.59769700  0.75235200  1
  F  F24  1  0.15389000  0.72535000  0.47390800  1
  F  F25  1  0.34611000  0.72535000  0.97390800  1
  F  F26  1  0.84611000  0.27465000  0.52609200  1
  F  F27  1  0.65389000  0.27465000  0.02609200  1
  F  F28  1  0.79909800  0.69460400  0.46837300  1
  F  F29  1  0.70090200  0.69460400  0.96837300  1
  F  F30  1  0.20090200  0.30539600  0.53162700  1
  F  F31  1  0.29909800  0.30539600  0.03162700  1
  F  F32  1  0.54545600  0.63256100  0.81825400  1
  F  F33  1  0.95454400  0.63256100  0.31825400  1
  F  F34  1  0.45454400  0.36743900  0.18174600  1
  F  F35  1  0.04545600  0.36743900  0.68174600  1
loop_
_geom_bond_atom_site_label_1
_geom_bond_atom_site_label_2
_geom_bond_distance
_geom_bond_site_symmetry_2
Co0 N4 2.071118 1_545
Co0 N6 2.071118 1_555
Co0 N8 2.072042 1_545
Co0 N10 2.072042 1_555
Co0 N2 2.072405 1_555
Co0 N0 2.072405 1_545
Co1 N5 2.071118 1_545
Co1 N7 2.071118 1_454
Co1 N11 2.072042 1_554
Co1 N9 2.072042 1_445
Co1 N3 2.072405 1_454
Co1 N1 2.072405 1_545
As0 F0 1.766524 1_555
As0 F20 1.774147 1_555
As0 F4 1.779806 1_555
As0 F12 1.780520 1_555
As0 F8 1.783162 1_555
As0 F16 1.783789 1_555
As1 F1 1.766524 1_655
As1 F21 1.774147 1_655
As1 F5 1.779806 1_555
As1 F13 1.780520 1_555
As1 F9 1.783162 1_555
As1 F17 1.783789 1_555
As2 F2 1.766524 1_555
As2 F22 1.774147 1_555
As2 F6 1.779806 1_555
As2 F14 1.780520 1_555
As2 F10 1.783162 1_555
As2 F18 1.783789 1_555
As3 F3 1.766524 1_455
As3 F23 1.774147 1_455
As3 F7 1.779806 1_555
As3 F15 1.780520 1_555
As3 F11 1.783162 1_555
As3 F19 1.783789 1_555
N0 S0 1.435020 1_555
N1 S1 1.435020 1_555
N2 S2 1.435020 1_555
N3 S3 1.435020 1_555
N4 S8 1.436800 1_555
N5 S9 1.436800 1_555
N6 S10 1.436800 1_555
N7 S11 1.436800 1_555
N8 S4 1.437654 1_555
N9 S5 1.437654 1_555
N10 S6 1.437654 1_555
N11 S7 1.437654 1_555
F24 S0 1.676299 1_555
F25 S1 1.676299 1_556
F26 S2 1.676299 1_555
F27 S3 1.676299 1_554
F28 S4 1.666403 1_555
F29 S5 1.666403 1_556
F30 S6 1.666403 1_555
F31 S7 1.666403 1_554
F32 S8 1.671196 1_555
F33 S9 1.671196 1_655
F34 S10 1.671196 1_555
F35 S11 1.671196 1_455
