# generated using pymatgen
data_Pt2Rh2O5
_symmetry_space_group_name_H-M   'P 1'
_cell_length_a   3.51390800
_cell_length_b   3.51390800
_cell_length_c   9.06620300
_cell_angle_alpha   90.00000000
_cell_angle_beta   90.00000000
_cell_angle_gamma   90.00000000
_symmetry_Int_Tables_number   1
_chemical_formula_structural   Pt2Rh2O5
_chemical_formula_sum   'Pt2 Rh2 O5'
_cell_volume   111.94538971
_cell_formula_units_Z   1
loop_
 _symmetry_equiv_pos_site_id
 _symmetry_equiv_pos_as_xyz
  1  'x, y, z'
loop_
 _atom_site_type_symbol
 _atom_site_label
 _atom_site_symmetry_multiplicity
 _atom_site_fract_x
 _atom_site_fract_y
 _atom_site_fract_z
 _atom_site_occupancy
  Pt  Pt0  1  0.00000000  0.00000000  0.00000000  1
  Pt  Pt1  1  0.00000000  0.00000000  0.50000000  1
  Rh  Rh0  1  0.50000000  0.50000000  0.26671300  1
  Rh  Rh1  1  0.50000000  0.50000000  0.73328700  1
  O  O0  1  0.50000000  0.00000000  0.14589700  1
  O  O1  1  0.50000000  0.00000000  0.85410300  1
  O  O2  1  0.50000000  0.50000000  0.50000000  1
  O  O3  1  0.00000000  0.50000000  0.14589700  1
  O  O4  1  0.00000000  0.50000000  0.85410300  1
loop_
_geom_bond_atom_site_label_1
_geom_bond_atom_site_label_2
_geom_bond_distance
_geom_bond_site_symmetry_2
O0 Rh0 2.070426 1_545
O0 Rh0 2.070426 1_555
O0 Pt0 2.199206 1_555
O0 Pt0 2.199206 1_655
O1 Rh1 2.070426 1_555
O1 Rh1 2.070426 1_545
O1 Pt0 2.199206 1_656
O1 Pt0 2.199206 1_556
O2 Rh0 2.115027 1_555
O2 Rh1 2.115027 1_555
O2 Pt1 2.484708 1_555
O2 Pt1 2.484708 1_655
O2 Pt1 2.484708 1_565
O2 Pt1 2.484708 1_665
O3 Rh0 2.070426 1_455
O3 Rh0 2.070426 1_555
O3 Pt0 2.199206 1_555
O3 Pt0 2.199206 1_565
O4 Rh1 2.070426 1_455
O4 Rh1 2.070426 1_555
O4 Pt0 2.199206 1_566
O4 Pt0 2.199206 1_556
