# generated using pymatgen
data_Zn2FeS3
_symmetry_space_group_name_H-M   'P 1'
_cell_length_a   7.37866184
_cell_length_b   7.37866184
_cell_length_c   7.37866215
_cell_angle_alpha   53.43511275
_cell_angle_beta   53.43511275
_cell_angle_gamma   53.43511876
_symmetry_Int_Tables_number   1
_chemical_formula_structural   Zn2FeS3
_chemical_formula_sum   'Zn4 Fe2 S6'
_cell_volume   240.41896676
_cell_formula_units_Z   2
loop_
 _symmetry_equiv_pos_site_id
 _symmetry_equiv_pos_as_xyz
  1  'x, y, z'
loop_
 _atom_site_type_symbol
 _atom_site_label
 _atom_site_symmetry_multiplicity
 _atom_site_fract_x
 _atom_site_fract_y
 _atom_site_fract_z
 _atom_site_occupancy
  Zn  Zn0  1  0.50002900  0.50002900  0.50002900  1
  Zn  Zn1  1  0.00074900  0.66643700  0.33391400  1
  Zn  Zn2  1  0.66643700  0.33391400  0.00074900  1
  Zn  Zn3  1  0.33391400  0.00074900  0.66643700  1
  Fe  Fe0  1  0.16718000  0.16718000  0.16718000  1
  Fe  Fe1  1  0.83378100  0.83378100  0.83378100  1
  S  S0  1  0.29017500  0.29017500  0.29017500  1
  S  S1  1  0.95699600  0.95699600  0.95699600  1
  S  S2  1  0.62487200  0.62487200  0.62487200  1
  S  S3  1  0.12255200  0.79506800  0.45881900  1
  S  S4  1  0.79506800  0.45881900  0.12255200  1
  S  S5  1  0.45881900  0.12255200  0.79506800  1
loop_
_geom_bond_atom_site_label_1
_geom_bond_atom_site_label_2
_geom_bond_distance
_geom_bond_site_symmetry_2
Fe0 S0 2.326982 1_555
Fe0 S3 2.339054 1_545
Fe0 S5 2.339055 1_554
Fe0 S4 2.339055 1_455
Fe1 S1 2.331144 1_555
Fe1 S4 2.338579 1_556
Fe1 S3 2.338579 1_655
Fe1 S5 2.338580 1_565
S0 Zn2 2.356883 1_555
S0 Zn3 2.356883 1_555
S0 Zn1 2.356883 1_555
S1 Zn3 2.361429 1_665
S1 Zn1 2.361429 1_656
S1 Zn2 2.361429 1_566
S2 Zn1 2.351574 1_655
S2 Zn2 2.351575 1_556
S2 Zn3 2.351575 1_565
S2 Zn0 2.361945 1_555
S3 Zn0 2.363348 1_555
S3 Zn1 2.367162 1_555
S4 Zn0 2.363348 1_555
S4 Zn2 2.367162 1_555
S5 Zn0 2.363348 1_555
S5 Zn3 2.367162 1_555
