# generated using pymatgen
data_CaB2H2O7
_symmetry_space_group_name_H-M   'P 1'
_cell_length_a   6.03710264
_cell_length_b   7.52788408
_cell_length_c   8.23800629
_cell_angle_alpha   65.24482188
_cell_angle_beta   54.64871561
_cell_angle_gamma   62.19979971
_symmetry_Int_Tables_number   1
_chemical_formula_structural   CaB2H2O7
_chemical_formula_sum   'Ca2 B4 H4 O14'
_cell_volume   264.30006674
_cell_formula_units_Z   2
loop_
 _symmetry_equiv_pos_site_id
 _symmetry_equiv_pos_as_xyz
  1  'x, y, z'
loop_
 _atom_site_type_symbol
 _atom_site_label
 _atom_site_symmetry_multiplicity
 _atom_site_fract_x
 _atom_site_fract_y
 _atom_site_fract_z
 _atom_site_occupancy
  Ca  Ca0  1  0.33575100  0.03038800  0.79471800  1
  Ca  Ca1  1  0.66424900  0.96961200  0.20528200  1
  B  B0  1  0.45096000  0.58597900  0.31813600  1
  B  B1  1  0.54904000  0.41402100  0.68186400  1
  B  B2  1  0.09724300  0.97457000  0.29988400  1
  B  B3  1  0.90275700  0.02543000  0.70011600  1
  H  H0  1  0.09877000  0.51540900  0.53776600  1
  H  H1  1  0.90123000  0.48459100  0.46223400  1
  H  H2  1  0.81491200  0.35256300  0.26081400  1
  H  H3  1  0.18508800  0.64743700  0.73918600  1
  O  O0  1  0.04843900  0.04404800  0.13359200  1
  O  O1  1  0.95156100  0.95595200  0.86640800  1
  O  O2  1  0.35736300  0.79538200  0.28524600  1
  O  O3  1  0.64263700  0.20461800  0.71475400  1
  O  O4  1  0.15774700  0.13975700  0.32074400  1
  O  O5  1  0.84225300  0.86024300  0.67925600  1
  O  O6  1  0.28191800  0.45607100  0.42899500  1
  O  O7  1  0.71808200  0.54392900  0.57100500  1
  O  O8  1  0.17446600  0.06318700  0.51660900  1
  O  O9  1  0.82553400  0.93681300  0.48339100  1
  O  O10  1  0.74085000  0.50253900  0.23228300  1
  O  O11  1  0.25915000  0.49746100  0.76771700  1
  O  O12  1  0.57277600  0.41024400  0.99304800  1
  O  O13  1  0.42722400  0.58975600  0.00695200  1
loop_
_geom_bond_atom_site_label_1
_geom_bond_atom_site_label_2
_geom_bond_distance
_geom_bond_site_symmetry_2
Ca0 O0 2.298527 1_556
Ca0 O1 2.322159 1_445
Ca0 O3 2.391122 1_555
Ca0 O5 2.428336 1_545
Ca0 O9 2.571330 1_545
Ca0 O8 2.853321 1_555
Ca0 O13 2.985996 1_546
Ca1 O1 2.298527 1_554
Ca1 O0 2.322159 1_665
Ca1 O2 2.391122 1_555
Ca1 O4 2.428336 1_565
Ca1 O8 2.571330 1_565
Ca1 O9 2.853321 1_555
Ca1 O12 2.985996 1_564
B0 O2 1.366098 1_555
B0 O10 1.368188 1_555
B0 O6 1.391520 1_555
B1 O3 1.366098 1_555
B1 O11 1.368188 1_555
B1 O7 1.391520 1_555
B2 O0 1.400106 1_565
B2 O2 1.497117 1_555
B2 O9 1.504114 1_455
B2 O4 1.544197 1_565
B3 O1 1.400106 1_545
B3 O3 1.497117 1_555
B3 O8 1.504114 1_655
B3 O5 1.544197 1_545
H0 O6 0.976227 1_555
H1 O7 0.976227 1_555
H2 O10 0.978934 1_555
H3 O11 0.978934 1_555
O12 O13 1.231636 1_556
