# generated using pymatgen
data_Cr2O3
_symmetry_space_group_name_H-M   'P 1'
_cell_length_a   5.35137545
_cell_length_b   5.35137518
_cell_length_c   5.35136264
_cell_angle_alpha   55.74690512
_cell_angle_beta   55.74691520
_cell_angle_gamma   55.74667374
_symmetry_Int_Tables_number   1
_chemical_formula_structural   Cr2O3
_chemical_formula_sum   'Cr4 O6'
_cell_volume   97.67336914
_cell_formula_units_Z   2
loop_
 _symmetry_equiv_pos_site_id
 _symmetry_equiv_pos_as_xyz
  1  'x, y, z'
loop_
 _atom_site_type_symbol
 _atom_site_label
 _atom_site_symmetry_multiplicity
 _atom_site_fract_x
 _atom_site_fract_y
 _atom_site_fract_z
 _atom_site_occupancy
  Cr  Cr0  1  0.84985642  0.84985610  0.84985664  1
  Cr  Cr1  1  0.65014390  0.65014323  0.65014446  1
  Cr  Cr2  1  0.15014310  0.15014369  0.15014429  1
  Cr  Cr3  1  0.34985583  0.34985636  0.34985649  1
  O  O0  1  0.05169148  0.74999902  0.44830795  1
  O  O1  1  0.74999800  0.44830991  0.05169236  1
  O  O2  1  0.44830717  0.05169318  0.74999885  1
  O  O3  1  0.94830967  0.25000027  0.55169171  1
  O  O4  1  0.55169308  0.94830703  0.25000095  1
  O  O5  1  0.25000135  0.55169121  0.94830731  1
loop_
_geom_bond_atom_site_label_1
_geom_bond_atom_site_label_2
_geom_bond_distance
_geom_bond_site_symmetry_2
Cr0 O4 1.971352 1_556
Cr0 O5 1.971353 1_655
Cr0 O3 1.971364 1_565
Cr0 O1 2.024806 1_556
Cr0 O0 2.024807 1_655
Cr0 O2 2.024811 1_565
Cr1 O4 1.971348 1_555
Cr1 O3 1.971350 1_555
Cr1 O5 1.971354 1_555
Cr1 O1 2.024796 1_556
Cr1 O2 2.024805 1_565
Cr1 O0 2.024805 1_655
Cr2 O2 1.971356 1_554
Cr2 O1 1.971357 1_455
Cr2 O0 1.971362 1_545
Cr2 O3 2.024802 1_455
Cr2 O5 2.024811 1_554
Cr2 O4 2.024812 1_545
Cr3 O2 1.971345 1_555
Cr3 O0 1.971346 1_555
Cr3 O1 1.971357 1_555
Cr3 O3 2.024800 1_455
Cr3 O5 2.024802 1_554
Cr3 O4 2.024804 1_545
