# generated using pymatgen
data_Li7Mn2(CoO4)3
_symmetry_space_group_name_H-M   'P 1'
_cell_length_a   7.76919737
_cell_length_b   7.76919737
_cell_length_c   9.80007390
_cell_angle_alpha   80.19142526
_cell_angle_beta   80.19142526
_cell_angle_gamma   21.63504080
_symmetry_Int_Tables_number   1
_chemical_formula_structural   Li7Mn2(CoO4)3
_chemical_formula_sum   'Li7 Mn2 Co3 O12'
_cell_volume   214.79016928
_cell_formula_units_Z   1
loop_
 _symmetry_equiv_pos_site_id
 _symmetry_equiv_pos_as_xyz
  1  'x, y, z'
loop_
 _atom_site_type_symbol
 _atom_site_label
 _atom_site_symmetry_multiplicity
 _atom_site_fract_x
 _atom_site_fract_y
 _atom_site_fract_z
 _atom_site_occupancy
  Li  Li0  1  0.91842700  0.91842700  0.75497300  1
  Li  Li1  1  0.08157300  0.08157300  0.24502700  1
  Li  Li2  1  0.24892500  0.24892500  0.74591400  1
  Li  Li3  1  0.57701100  0.57701100  0.75606900  1
  Li  Li4  1  0.75107500  0.75107500  0.25408600  1
  Li  Li5  1  0.42298900  0.42298900  0.24393100  1
  Li  Li6  1  0.00000000  0.00000000  0.00000000  1
  Mn  Mn0  1  0.33852400  0.33852400  0.99671900  1
  Mn  Mn1  1  0.66147600  0.66147600  0.00328100  1
  Co  Co0  1  0.50000000  0.50000000  0.50000000  1
  Co  Co1  1  0.83349800  0.83349800  0.49884900  1
  Co  Co2  1  0.16650200  0.16650200  0.50115100  1
  O  O0  1  0.79007500  0.79007500  0.89344800  1
  O  O1  1  0.95981500  0.95981500  0.38355900  1
  O  O2  1  0.13181000  0.13181000  0.88895600  1
  O  O3  1  0.44597200  0.44597200  0.88329400  1
  O  O4  1  0.62702900  0.62702900  0.38691100  1
  O  O5  1  0.29288400  0.29288400  0.38292400  1
  O  O6  1  0.04018500  0.04018500  0.61644100  1
  O  O7  1  0.20992500  0.20992500  0.10655200  1
  O  O8  1  0.37297100  0.37297100  0.61308900  1
  O  O9  1  0.70711600  0.70711600  0.61707600  1
  O  O10  1  0.86819000  0.86819000  0.11104400  1
  O  O11  1  0.55402800  0.55402800  0.11670600  1
loop_
_geom_bond_atom_site_label_1
_geom_bond_atom_site_label_2
_geom_bond_distance
_geom_bond_site_symmetry_2
Li0 O3 2.016861 1_655
Li0 O3 2.016861 1_565
Li0 O6 2.102690 1_665
Li0 O0 2.181041 1_555
Li0 O8 2.208054 1_655
Li0 O8 2.208054 1_565
Li1 O11 2.016861 1_545
Li1 O11 2.016861 1_455
Li1 O1 2.102690 1_445
Li1 O7 2.181041 1_555
Li1 O4 2.208054 1_545
Li1 O4 2.208054 1_455
Li2 O2 2.071446 1_555
Li2 O9 2.099290 1_545
Li2 O9 2.099290 1_455
Li2 O8 2.103298 1_555
Li2 O0 2.219470 1_455
Li2 O0 2.219470 1_545
Li3 O6 2.140388 1_655
Li3 O6 2.140388 1_565
Li3 O3 2.165501 1_555
Li3 O9 2.204584 1_555
Li3 O2 2.213473 1_565
Li3 O2 2.213473 1_655
Li4 O10 2.071446 1_555
Li4 O5 2.099290 1_565
Li4 O5 2.099290 1_655
Li4 O4 2.103298 1_555
Li4 O7 2.219470 1_655
Li4 O7 2.219470 1_565
Li5 O1 2.140388 1_455
Li5 O1 2.140388 1_545
Li5 O11 2.165501 1_555
Li5 O5 2.204584 1_555
Li5 O10 2.213473 1_455
Li5 O10 2.213473 1_545
Li6 O3 2.107455 1_454
Li6 O11 2.107455 1_545
Li6 O3 2.107455 1_544
Li6 O11 2.107455 1_455
Li6 O10 2.114684 1_445
Li6 O2 2.114684 1_554
Mn0 O3 1.814540 1_555
Mn0 O10 1.939693 1_456
Mn0 O10 1.939693 1_546
Mn0 O0 1.989170 1_545
Mn0 O0 1.989170 1_455
Mn0 O7 2.068333 1_556
Mn1 O11 1.814540 1_555
Mn1 O2 1.939693 1_654
Mn1 O2 1.939693 1_564
Mn1 O7 1.989170 1_565
Mn1 O7 1.989170 1_655
Mn1 O0 2.068333 1_554
Co0 O6 2.011781 1_565
Co0 O6 2.011781 1_655
Co0 O1 2.011781 1_545
Co0 O1 2.011781 1_455
Co0 O4 2.059542 1_555
Co0 O8 2.059542 1_555
Co1 O8 1.994112 1_655
Co1 O8 1.994112 1_565
Co1 O5 2.011300 1_655
Co1 O5 2.011300 1_565
Co1 O1 2.058574 1_555
Co1 O9 2.070694 1_555
Co2 O4 1.994112 1_455
Co2 O4 1.994112 1_545
Co2 O9 2.011300 1_455
Co2 O9 2.011300 1_545
Co2 O6 2.058574 1_555
Co2 O5 2.070694 1_555
