# generated using pymatgen
data_TiCdO3
_symmetry_space_group_name_H-M   'P 1'
_cell_length_a   5.36967800
_cell_length_b   5.48663900
_cell_length_c   7.71809500
_cell_angle_alpha   90.00000000
_cell_angle_beta   90.00000000
_cell_angle_gamma   90.00000000
_symmetry_Int_Tables_number   1
_chemical_formula_structural   TiCdO3
_chemical_formula_sum   'Ti4 Cd4 O12'
_cell_volume   227.38653800
_cell_formula_units_Z   4
loop_
 _symmetry_equiv_pos_site_id
 _symmetry_equiv_pos_as_xyz
  1  'x, y, z'
loop_
 _atom_site_type_symbol
 _atom_site_label
 _atom_site_symmetry_multiplicity
 _atom_site_fract_x
 _atom_site_fract_y
 _atom_site_fract_z
 _atom_site_occupancy
  Ti  Ti0  1  0.00000000  0.50000000  0.50000000  1
  Ti  Ti1  1  0.50000000  0.00000000  0.50000000  1
  Ti  Ti2  1  0.50000000  0.00000000  0.00000000  1
  Ti  Ti3  1  0.00000000  0.50000000  0.00000000  1
  Cd  Cd0  1  0.00862700  0.96105000  0.75000000  1
  Cd  Cd1  1  0.50862700  0.53895000  0.25000000  1
  Cd  Cd2  1  0.49137300  0.46105000  0.75000000  1
  Cd  Cd3  1  0.99137300  0.03895000  0.25000000  1
  O  O0  1  0.70111900  0.29623600  0.45330000  1
  O  O1  1  0.20111900  0.20376400  0.54670000  1
  O  O2  1  0.79888100  0.79623600  0.04670000  1
  O  O3  1  0.29888100  0.70376400  0.95330000  1
  O  O4  1  0.29888100  0.70376400  0.54670000  1
  O  O5  1  0.79888100  0.79623600  0.45330000  1
  O  O6  1  0.20111900  0.20376400  0.95330000  1
  O  O7  1  0.70111900  0.29623600  0.04670000  1
  O  O8  1  0.08944000  0.47196000  0.25000000  1
  O  O9  1  0.58944000  0.02804000  0.75000000  1
  O  O10  1  0.41056000  0.97196000  0.25000000  1
  O  O11  1  0.91056000  0.52804000  0.75000000  1
loop_
_geom_bond_atom_site_label_1
_geom_bond_atom_site_label_2
_geom_bond_distance
_geom_bond_site_symmetry_2
Cd0 O9 2.280710 1_465
Cd0 O1 2.302996 1_565
Cd0 O6 2.302996 1_565
Cd0 O11 2.433429 1_455
Cd0 O4 2.623718 1_555
Cd0 O3 2.623718 1_555
Cd0 O2 2.707417 1_456
Cd0 O5 2.707417 1_455
Cd1 O8 2.280710 1_555
Cd1 O7 2.302996 1_555
Cd1 O0 2.302996 1_555
Cd1 O10 2.433429 1_555
Cd1 O2 2.623718 1_555
Cd1 O5 2.623718 1_555
Cd1 O3 2.707417 1_554
Cd1 O4 2.707417 1_555
Cd2 O11 2.280710 1_555
Cd2 O4 2.302996 1_555
Cd2 O3 2.302996 1_555
Cd2 O9 2.433429 1_555
Cd2 O1 2.623718 1_555
Cd2 O6 2.623718 1_555
Cd2 O0 2.707417 1_555
Cd2 O7 2.707417 1_556
Cd3 O10 2.280710 1_645
Cd3 O2 2.302996 1_545
Cd3 O5 2.302996 1_545
Cd3 O8 2.433429 1_655
Cd3 O7 2.623718 1_555
Cd3 O0 2.623718 1_555
Cd3 O6 2.707417 1_654
Cd3 O1 2.707417 1_655
O0 Ti1 1.984420 1_555
O0 Ti0 1.988839 1_655
O1 Ti0 1.984420 1_555
O1 Ti1 1.988839 1_555
O2 Ti3 1.984420 1_655
O2 Ti2 1.988839 1_565
O3 Ti2 1.984420 1_566
O3 Ti3 1.988839 1_556
O4 Ti1 1.984420 1_565
O4 Ti0 1.988839 1_555
O5 Ti0 1.984420 1_655
O5 Ti1 1.988839 1_565
O6 Ti3 1.984420 1_556
O6 Ti2 1.988839 1_556
O7 Ti2 1.984420 1_555
O7 Ti3 1.988839 1_655
O8 Ti0 1.994338 1_555
O8 Ti3 1.994338 1_555
O9 Ti2 1.994338 1_556
O9 Ti1 1.994338 1_555
O10 Ti2 1.994338 1_565
O10 Ti1 1.994338 1_565
O11 Ti3 1.994338 1_656
O11 Ti0 1.994338 1_655
