# generated using pymatgen
data_Li2MnP2O7
_symmetry_space_group_name_H-M   'P 1'
_cell_length_a   7.26821489
_cell_length_b   9.74065878
_cell_length_c   9.33203133
_cell_angle_alpha   118.47280977
_cell_angle_beta   96.99460015
_cell_angle_gamma   78.61849157
_symmetry_Int_Tables_number   1
_chemical_formula_structural   Li2MnP2O7
_chemical_formula_sum   'Li8 Mn4 P8 O28'
_cell_volume   569.05297163
_cell_formula_units_Z   4
loop_
 _symmetry_equiv_pos_site_id
 _symmetry_equiv_pos_as_xyz
  1  'x, y, z'
loop_
 _atom_site_type_symbol
 _atom_site_label
 _atom_site_symmetry_multiplicity
 _atom_site_fract_x
 _atom_site_fract_y
 _atom_site_fract_z
 _atom_site_occupancy
  Li  Li0  1  0.48992900  0.67853400  0.95399500  1
  Li  Li1  1  0.98980600  0.17865500  0.95420800  1
  Li  Li2  1  0.01013100  0.82135400  0.04597400  1
  Li  Li3  1  0.51023100  0.32132100  0.04591100  1
  Li  Li4  1  0.62620100  0.92917500  0.77025300  1
  Li  Li5  1  0.12622200  0.42935100  0.77024900  1
  Li  Li6  1  0.87374500  0.57079300  0.22972300  1
  Li  Li7  1  0.37377400  0.07073900  0.22974300  1
  Mn  Mn0  1  0.31544400  0.43529100  0.36881600  1
  Mn  Mn1  1  0.68459400  0.56476800  0.63101000  1
  Mn  Mn2  1  0.81525800  0.93510400  0.36895600  1
  Mn  Mn3  1  0.18436700  0.06550700  0.63171600  1
  P  P0  1  0.50287300  0.74495600  0.40693500  1
  P  P1  1  0.00298100  0.24488400  0.40688300  1
  P  P2  1  0.99703000  0.75512300  0.59312000  1
  P  P3  1  0.49703400  0.25512000  0.59308200  1
  P  P4  1  0.27980900  0.89207900  0.87082200  1
  P  P5  1  0.77985400  0.39204500  0.87068200  1
  P  P6  1  0.22023200  0.60785400  0.12915200  1
  P  P7  1  0.72021500  0.10783600  0.12921600  1
  O  O0  1  0.18033600  0.24766800  0.33581900  1
  O  O1  1  0.68025600  0.74769400  0.33583400  1
  O  O2  1  0.31971800  0.25242000  0.66425300  1
  O  O3  1  0.81971500  0.75232500  0.66415200  1
  O  O4  1  0.51907600  0.59452300  0.42759700  1
  O  O5  1  0.01911800  0.09451000  0.42764600  1
  O  O6  1  0.98085000  0.90558000  0.57243200  1
  O  O7  1  0.48090200  0.40551100  0.57233300  1
  O  O8  1  0.48455300  0.81040100  0.83591800  1
  O  O9  1  0.98467700  0.31032600  0.83579800  1
  O  O10  1  0.01543900  0.68946100  0.16399600  1
  O  O11  1  0.51545300  0.18954600  0.16409400  1
  O  O12  1  0.27166900  0.45431900  0.14382800  1
  O  O13  1  0.77158200  0.95435400  0.14394000  1
  O  O14  1  0.22838800  0.04565000  0.85620800  1
  O  O15  1  0.72849400  0.54553000  0.85600000  1
  O  O16  1  0.77499600  0.08485100  0.96479100  1
  O  O17  1  0.27504700  0.58490600  0.96478600  1
  O  O18  1  0.72511900  0.41497900  0.03511100  1
  O  O19  1  0.22502400  0.91500400  0.03521800  1
  O  O20  1  0.05774500  0.60358500  0.43817800  1
  O  O21  1  0.55767100  0.10353700  0.43815700  1
  O  O22  1  0.44212000  0.89649400  0.56182800  1
  O  O23  1  0.94224600  0.39646100  0.56179200  1
  O  O24  1  0.16012900  0.76165000  0.73002700  1
  O  O25  1  0.66023900  0.26160200  0.72992600  1
  O  O26  1  0.33981900  0.73832900  0.26995700  1
  O  O27  1  0.83988800  0.23829800  0.26993800  1
loop_
_geom_bond_atom_site_label_1
_geom_bond_atom_site_label_2
_geom_bond_distance
_geom_bond_site_symmetry_2
Li0 O15 1.972616 1_555
Li0 O17 1.992278 1_555
Li0 O8 2.045678 1_555
Li1 O14 1.972730 1_655
Li1 O16 1.992203 1_555
Li1 O9 2.046901 1_555
Li2 O13 1.972443 1_455
Li2 O19 1.992366 1_555
Li2 O10 2.045556 1_555
Li3 O12 1.972396 1_555
Li3 O18 1.992533 1_555
Li3 O11 2.045906 1_555
Li4 O3 1.919034 1_555
Li4 O8 2.018335 1_555
Li4 O16 2.075825 1_565
Li4 O22 2.149067 1_555
Li5 O2 1.919181 1_555
Li5 O9 2.019152 1_455
Li5 O17 2.075452 1_555
Li5 O23 2.148554 1_455
Li6 O1 1.919191 1_555
Li6 O10 2.018081 1_655
Li6 O18 2.076019 1_555
Li6 O20 2.148787 1_655
Li7 O0 1.919042 1_555
Li7 O11 2.018652 1_555
Li7 O19 2.075825 1_545
Li7 O21 2.148082 1_555
Mn0 O0 2.120670 1_555
Mn0 O20 2.164750 1_555
Mn0 O12 2.174617 1_555
Mn0 O4 2.189557 1_555
Mn0 O7 2.229072 1_555
Mn0 O11 2.536860 1_555
Mn1 O3 2.119725 1_555
Mn1 O23 2.164491 1_555
Mn1 O15 2.175704 1_555
Mn1 O7 2.190241 1_555
Mn1 O4 2.228323 1_555
Mn1 O8 2.537106 1_555
Mn2 O1 2.117987 1_555
Mn2 O21 2.164675 1_565
Mn2 O13 2.175985 1_555
Mn2 O5 2.192227 1_665
Mn2 O6 2.228077 1_555
Mn2 O10 2.537821 1_655
Mn3 O2 2.117032 1_555
Mn3 O22 2.168374 1_545
Mn3 O14 2.174247 1_555
Mn3 O6 2.193001 1_445
Mn3 O5 2.229584 1_555
Mn3 O9 2.529272 1_455
O0 P1 1.530144 1_555
O1 P0 1.530340 1_555
O2 P3 1.530113 1_555
O3 P2 1.529773 1_555
O4 P0 1.547242 1_555
O5 P1 1.547267 1_555
O6 P2 1.547633 1_555
O7 P3 1.547362 1_555
O8 P4 1.535338 1_555
O9 P5 1.535926 1_555
O10 P6 1.535454 1_555
O11 P7 1.535505 1_555
O12 P6 1.535348 1_555
O13 P7 1.535063 1_565
O14 P4 1.535380 1_545
O15 P5 1.534884 1_555
O16 P7 1.532695 1_556
O17 P6 1.532390 1_556
O18 P5 1.532803 1_554
O19 P4 1.532668 1_554
O20 P2 1.525628 1_455
O21 P3 1.525625 1_555
O22 P0 1.525449 1_555
O23 P1 1.525673 1_655
O24 P2 1.620200 1_455
O24 P4 1.631954 1_555
O25 P3 1.620380 1_555
O25 P5 1.631610 1_555
O26 P0 1.620254 1_555
O26 P6 1.631815 1_555
O27 P1 1.620303 1_655
O27 P7 1.631834 1_555
