# generated using pymatgen
data_TbTiClO3
_symmetry_space_group_name_H-M   'P 1'
_cell_length_a   5.30458073
_cell_length_b   5.30458073
_cell_length_c   9.98277302
_cell_angle_alpha   74.46684544
_cell_angle_beta   74.46684544
_cell_angle_gamma   43.54657027
_symmetry_Int_Tables_number   1
_chemical_formula_structural   TbTiClO3
_chemical_formula_sum   'Tb2 Ti2 Cl2 O6'
_cell_volume   185.30401918
_cell_formula_units_Z   2
loop_
 _symmetry_equiv_pos_site_id
 _symmetry_equiv_pos_as_xyz
  1  'x, y, z'
loop_
 _atom_site_type_symbol
 _atom_site_label
 _atom_site_symmetry_multiplicity
 _atom_site_fract_x
 _atom_site_fract_y
 _atom_site_fract_z
 _atom_site_occupancy
  Tb  Tb0  1  0.27843500  0.27843500  0.20556500  1
  Tb  Tb1  1  0.72156500  0.72156500  0.79443500  1
  Ti  Ti0  1  0.88086600  0.88086600  0.43068500  1
  Ti  Ti1  1  0.11913400  0.11913400  0.56931500  1
  Cl  Cl0  1  0.61498100  0.61498100  0.09429700  1
  Cl  Cl1  1  0.38501900  0.38501900  0.90570300  1
  O  O0  1  0.84924300  0.84924300  0.25404600  1
  O  O1  1  0.15075700  0.15075700  0.74595400  1
  O  O2  1  0.66759400  0.66759400  0.56451800  1
  O  O3  1  0.33240600  0.33240600  0.43548200  1
  O  O4  1  0.92259600  0.92259600  0.62374600  1
  O  O5  1  0.07740400  0.07740400  0.37625400  1
loop_
_geom_bond_atom_site_label_1
_geom_bond_atom_site_label_2
_geom_bond_distance
_geom_bond_site_symmetry_2
Cl0 Tb1 2.872377 1_554
Cl0 Tb0 2.954739 1_655
Cl0 Tb0 2.954739 1_565
Cl0 Tb0 3.178657 1_555
Cl1 Tb0 2.872377 1_556
Cl1 Tb1 2.954739 1_545
Cl1 Tb1 2.954739 1_455
Cl1 Tb1 3.178657 1_555
O0 Ti0 1.877049 1_555
O0 Tb0 2.187988 1_655
O0 Tb0 2.187988 1_565
O1 Ti1 1.877049 1_555
O1 Tb1 2.187988 1_545
O1 Tb1 2.187988 1_455
O2 Ti1 2.022058 1_655
O2 Ti1 2.022058 1_565
O2 Ti0 2.140331 1_555
O2 Tb1 2.500922 1_555
O3 Ti0 2.022058 1_455
O3 Ti0 2.022058 1_545
O3 Ti1 2.140331 1_555
O3 Tb0 2.500922 1_555
O4 Ti1 1.854153 1_665
O4 Ti0 2.083375 1_555
O4 Tb1 2.209043 1_555
O5 Ti0 1.854153 1_445
O5 Ti1 2.083375 1_555
O5 Tb0 2.209043 1_555
