# generated using pymatgen
data_GaSb
_symmetry_space_group_name_H-M   'P 1'
_cell_length_a   12.99998730
_cell_length_b   14.47284957
_cell_length_c   15.11793480
_cell_angle_alpha   91.75432827
_cell_angle_beta   92.28913927
_cell_angle_gamma   89.40457328
_symmetry_Int_Tables_number   1
_chemical_formula_structural   GaSb
_chemical_formula_sum   'Ga50 Sb50'
_cell_volume   2840.67022202
_cell_formula_units_Z   50
loop_
 _symmetry_equiv_pos_site_id
 _symmetry_equiv_pos_as_xyz
  1  'x, y, z'
loop_
 _atom_site_type_symbol
 _atom_site_label
 _atom_site_symmetry_multiplicity
 _atom_site_fract_x
 _atom_site_fract_y
 _atom_site_fract_z
 _atom_site_occupancy
  Ga  Ga0  1  0.80062709  0.25008130  0.14171615  1
  Ga  Ga1  1  0.40818149  0.60042894  0.14527185  1
  Ga  Ga2  1  0.56125419  0.49554383  0.98874189  1
  Ga  Ga3  1  0.68769680  0.33833204  0.89619909  1
  Ga  Ga4  1  0.23887385  0.36413744  0.01251050  1
  Ga  Ga5  1  0.06751113  0.61655952  0.98272515  1
  Ga  Ga6  1  0.26232052  0.91783228  0.90950093  1
  Ga  Ga7  1  0.58508890  0.30030929  0.51681289  1
  Ga  Ga8  1  0.85296510  0.22551254  0.77075588  1
  Ga  Ga9  1  0.11953682  0.70587468  0.55820058  1
  Ga  Ga10  1  0.08653043  0.64094587  0.19300032  1
  Ga  Ga11  1  0.63939532  0.19752355  0.79522491  1
  Ga  Ga12  1  0.11744006  0.28752097  0.71123733  1
  Ga  Ga13  1  0.38312157  0.71202760  0.29437762  1
  Ga  Ga14  1  0.83127373  0.13692403  0.28093156  1
  Ga  Ga15  1  0.44767563  0.76525586  0.02224525  1
  Ga  Ga16  1  0.82916376  0.94951301  0.38623475  1
  Ga  Ga17  1  0.55719106  0.96064404  0.64157881  1
  Ga  Ga18  1  0.82794575  0.75789904  0.80111323  1
  Ga  Ga19  1  0.67952870  0.83558014  0.70676475  1
  Ga  Ga20  1  0.20532490  0.83560535  0.29117222  1
  Ga  Ga21  1  0.48802096  0.04061960  0.77945123  1
  Ga  Ga22  1  0.42251341  0.27752073  0.39356345  1
  Ga  Ga23  1  0.93657851  0.40312393  0.17948680  1
  Ga  Ga24  1  0.23084232  0.49928676  0.14935414  1
  Ga  Ga25  1  0.55028402  0.04059496  0.48888760  1
  Ga  Ga26  1  0.08958048  0.48323194  0.29923891  1
  Ga  Ga27  1  0.16056686  0.98664437  0.52089268  1
  Ga  Ga28  1  0.67779428  0.18162690  0.63040090  1
  Ga  Ga29  1  0.96993368  0.40979800  0.62689913  1
  Ga  Ga30  1  0.91467298  0.65476132  0.62635635  1
  Ga  Ga31  1  0.24232463  0.51993974  0.66570632  1
  Ga  Ga32  1  0.08436434  0.04639101  0.90846730  1
  Ga  Ga33  1  0.31759574  0.81459496  0.14473834  1
  Ga  Ga34  1  0.79151193  0.97964677  0.63035016  1
  Ga  Ga35  1  0.74002661  0.44203248  0.07798076  1
  Ga  Ga36  1  0.12767494  0.07258077  0.23269133  1
  Ga  Ga37  1  0.11481677  0.87489734  0.14037712  1
  Ga  Ga38  1  0.04566026  0.43412345  0.01813307  1
  Ga  Ga39  1  0.35404379  0.98389818  0.57074726  1
  Ga  Ga40  1  0.78509596  0.06094720  0.08928856  1
  Ga  Ga41  1  0.76050397  0.32825357  0.29697118  1
  Ga  Ga42  1  0.41744195  0.17083092  0.53385186  1
  Ga  Ga43  1  0.24546182  0.84987047  0.67558693  1
  Ga  Ga44  1  0.15371167  0.39585403  0.55747848  1
  Ga  Ga45  1  0.55063201  0.66591415  0.39811576  1
  Ga  Ga46  1  0.55550793  0.30763147  0.25559849  1
  Ga  Ga47  1  0.60890628  0.29627619  0.05271665  1
  Ga  Ga48  1  0.87052508  0.90796522  0.89672300  1
  Ga  Ga49  1  0.17070464  0.68023566  0.73148683  1
  Sb  Sb0  1  0.03990482  0.91848908  0.37892609  1
  Sb  Sb1  1  0.60972977  0.65861180  0.10167443  1
  Sb  Sb2  1  0.35230520  0.50527459  0.49777939  1
  Sb  Sb3  1  0.62675677  0.06648663  0.92440129  1
  Sb  Sb4  1  0.18872361  0.66916611  0.38535946  1
  Sb  Sb5  1  0.68722086  0.67000159  0.90606653  1
  Sb  Sb6  1  0.05411099  0.26333510  0.25791192  1
  Sb  Sb7  1  0.25007879  0.00392730  0.07598868  1
  Sb  Sb8  1  0.98459677  0.62340433  0.80262941  1
  Sb  Sb9  1  0.27817198  0.58480509  0.97003179  1
  Sb  Sb10  1  0.57604741  0.11289785  0.11997372  1
  Sb  Sb11  1  0.55831186  0.83587412  0.86810163  1
  Sb  Sb12  1  0.76804640  0.36951126  0.64244456  1
  Sb  Sb13  1  0.67689099  0.48570919  0.78336728  1
  Sb  Sb14  1  0.60780039  0.13363642  0.33157147  1
  Sb  Sb15  1  0.34419599  0.98423499  0.26511590  1
  Sb  Sb16  1  0.70715462  0.43693968  0.44524667  1
  Sb  Sb17  1  0.00167035  0.54123577  0.49352908  1
  Sb  Sb18  1  0.44460023  0.24282841  0.71522684  1
  Sb  Sb19  1  0.20404409  0.17155624  0.56910327  1
  Sb  Sb20  1  0.22177686  0.43040796  0.83227410  1
  Sb  Sb21  1  0.72600545  0.64191537  0.51838015  1
  Sb  Sb22  1  0.77590874  0.10876484  0.47893752  1
  Sb  Sb23  1  0.33538898  0.74992926  0.84578225  1
  Sb  Sb24  1  0.37271105  0.21277095  0.99952804  1
  Sb  Sb25  1  0.71441678  0.87145519  0.01434468  1
  Sb  Sb26  1  0.52797790  0.91302368  0.14581685  1
  Sb  Sb27  1  0.06592917  0.84099195  0.86717186  1
  Sb  Sb28  1  0.88058201  0.30471460  0.98416189  1
  Sb  Sb29  1  0.96148808  0.15766740  0.62459758  1
  Sb  Sb30  1  0.49440398  0.42873453  0.64506889  1
  Sb  Sb31  1  0.71498700  0.67762012  0.27908000  1
  Sb  Sb32  1  0.65693162  0.86762234  0.30360340  1
  Sb  Sb33  1  0.89320620  0.57418849  0.10117986  1
  Sb  Sb34  1  0.12663020  0.03606293  0.70417093  1
  Sb  Sb35  1  0.92420526  0.25950938  0.40859806  1
  Sb  Sb36  1  0.46791047  0.87337694  0.41208554  1
  Sb  Sb37  1  0.43439578  0.39622549  0.12485581  1
  Sb  Sb38  1  0.97345056  0.41889840  0.81876714  1
  Sb  Sb39  1  0.44202252  0.79409570  0.59196106  1
  Sb  Sb40  1  0.95582668  0.72608031  0.35786309  1
  Sb  Sb41  1  0.59777805  0.66194149  0.66787843  1
  Sb  Sb42  1  0.93123460  0.98005101  0.20541883  1
  Sb  Sb43  1  0.22207317  0.36344735  0.39065265  1
  Sb  Sb44  1  0.97559260  0.78420990  0.03428437  1
  Sb  Sb45  1  0.86325213  0.09535248  0.91845727  1
  Sb  Sb46  1  0.86515870  0.81171050  0.52396926  1
  Sb  Sb47  1  0.43520628  0.35687017  0.88116632  1
  Sb  Sb48  1  0.29896711  0.08845543  0.84131418  1
  Sb  Sb49  1  0.50637951  0.47354990  0.36025630  1
loop_
_geom_bond_atom_site_label_1
_geom_bond_atom_site_label_2
_geom_bond_distance
_geom_bond_site_symmetry_2
Ga0 Ga41 2.642738 1_555
Ga0 Ga14 2.720452 1_555
Ga0 Sb28 2.776541 1_554
Ga0 Ga40 2.833320 1_555
Ga0 Ga47 2.867365 1_555
Ga0 Ga23 2.877326 1_555
Ga0 Ga35 3.053615 1_555
Ga1 Ga24 2.747454 1_555
Ga1 Ga13 2.760605 1_555
Ga1 Sb1 2.868162 1_555
Ga1 Sb37 2.979503 1_555
Ga1 Sb9 3.088663 1_554
Ga2 Ga35 2.756290 1_556
Ga2 Sb1 2.929190 1_556
Ga2 Sb47 3.002278 1_555
Ga2 Sb37 3.085733 1_556
Ga3 Ga47 2.704326 1_556
Ga3 Sb13 2.770629 1_555
Ga3 Sb28 2.835594 1_555
Ga3 Sb47 3.289901 1_555
Ga4 Sb24 2.790453 1_554
Ga4 Sb20 2.915659 1_554
Ga4 Sb37 3.031892 1_555
Ga4 Sb47 3.294648 1_554
Ga4 Sb9 3.325470 1_554
Ga5 Sb9 2.785377 1_555
Ga5 Sb44 2.796625 1_456
Ga5 Sb8 2.892139 1_455
Ga5 Sb33 3.022887 1_456
Ga6 Sb48 2.758096 1_565
Ga6 Sb23 2.759908 1_555
Ga6 Sb7 2.783673 1_566
Ga6 Sb27 2.837153 1_555
Ga7 Sb16 2.816430 1_555
Ga7 Sb30 2.918988 1_555
Ga7 Sb12 3.136811 1_555
Ga8 Sb29 2.815009 1_555
Ga8 Sb45 2.963278 1_555
Ga8 Sb12 3.058352 1_555
Ga8 Sb38 3.269495 1_555
Ga9 Sb4 2.830515 1_555
Ga9 Sb17 2.965637 1_555
Ga10 Ga26 2.829978 1_555
Ga10 Ga24 2.845074 1_555
Ga10 Sb33 2.977633 1_455
Ga10 Sb4 3.165212 1_555
Ga10 Sb40 3.274753 1_455
Ga11 Ga28 2.563797 1_555
Ga11 Ga3 2.576264 1_555
Ga11 Sb3 2.774209 1_555
Ga11 Sb18 2.841600 1_555
Ga11 Ga8 2.850254 1_555
Ga11 Ga21 3.018002 1_555
Ga12 Ga29 2.882174 1_455
Ga12 Ga44 2.900011 1_555
Ga12 Sb19 2.938497 1_555
Ga12 Sb29 3.012334 1_455
Ga12 Sb20 3.015445 1_555
Ga12 Sb38 3.121175 1_455
Ga13 Ga45 2.721791 1_555
Ga13 Ga33 2.841179 1_555
Ga13 Ga20 2.907569 1_555
Ga13 Sb4 3.004295 1_555
Ga13 Sb36 3.078482 1_555
Ga14 Sb35 2.825048 1_555
Ga14 Sb42 2.836393 1_545
Ga14 Ga41 2.914926 1_555
Ga14 Sb14 3.034969 1_555
Ga14 Sb22 3.146064 1_555
Ga15 Ga33 2.634944 1_555
Ga15 Sb1 2.847131 1_555
Ga15 Sb26 2.966387 1_555
Ga15 Sb23 2.992714 1_554
Ga15 Sb11 2.997962 1_554
Ga16 Sb22 2.757214 1_565
Ga16 Sb0 2.777583 1_655
Ga16 Sb32 2.778394 1_555
Ga16 Sb46 2.947783 1_555
Ga16 Sb42 3.131189 1_555
Ga17 Ga21 2.544249 1_565
Ga17 Ga19 2.588608 1_555
Ga17 Ga25 2.611591 1_565
Ga17 Ga39 2.830554 1_555
Ga17 Sb39 2.913590 1_555
Ga17 Ga34 3.073300 1_555
Ga18 Ga19 2.618087 1_555
Ga18 Ga48 2.623278 1_555
Ga18 Sb8 2.802367 1_555
Ga18 Sb5 2.808286 1_555
Ga19 Sb41 2.775896 1_555
Ga19 Ga34 2.854159 1_555
Ga19 Sb11 2.956112 1_555
Ga20 Ga37 2.599241 1_555
Ga20 Ga33 2.707609 1_555
Ga20 Sb0 2.810747 1_555
Ga20 Sb4 2.849919 1_555
Ga20 Sb15 2.868967 1_555
Ga21 Sb48 2.739137 1_555
Ga21 Sb3 2.800548 1_555
Ga21 Sb18 3.149895 1_555
Ga22 Ga42 2.664677 1_555
Ga22 Ga7 2.776625 1_555
Ga22 Ga46 2.808704 1_555
Ga22 Sb43 2.874910 1_555
Ga22 Sb49 3.112389 1_555
Ga22 Sb14 3.312604 1_555
Ga23 Sb6 2.787698 1_655
Ga23 Sb33 2.818875 1_555
Ga23 Ga26 2.865261 1_655
Ga23 Ga38 2.918751 1_655
Ga24 Ga4 2.807485 1_555
Ga24 Ga26 2.989048 1_555
Ga24 Sb37 3.053977 1_555
Ga24 Sb9 3.100712 1_554
Ga25 Ga42 2.635316 1_555
Ga25 Sb36 2.852075 1_545
Ga25 Sb14 2.896152 1_555
Ga25 Ga39 3.011803 1_545
Ga25 Sb22 3.115075 1_555
Ga26 Sb43 2.788637 1_555
Ga26 Sb4 3.212671 1_555
Ga26 Sb6 3.258409 1_555
Ga26 Sb17 3.276517 1_555
Ga27 Ga39 2.596956 1_555
Ga27 Sb0 2.770101 1_555
Ga27 Sb19 2.809240 1_565
Ga27 Sb34 2.890192 1_565
Ga28 Ga7 2.706273 1_555
Ga28 Sb22 2.835426 1_555
Ga28 Sb12 2.970324 1_555
Ga29 Ga44 2.650912 1_655
Ga29 Sb12 2.715296 1_555
Ga29 Sb17 2.858649 1_655
Ga29 Sb38 2.898161 1_555
Ga30 Sb17 2.819895 1_655
Ga30 Sb8 2.829457 1_555
Ga30 Sb46 2.841705 1_555
Ga30 Sb21 2.895842 1_555
Ga30 Ga9 3.001420 1_655
Ga31 Ga44 2.634729 1_555
Ga31 Ga49 2.669412 1_555
Ga31 Sb20 2.890026 1_555
Ga31 Sb2 2.963937 1_555
Ga32 Ga6 2.953557 1_545
Ga32 Sb45 2.961964 1_455
Ga32 Sb27 3.028765 1_545
Ga32 Sb48 3.079588 1_555
Ga32 Sb34 3.157358 1_555
Ga32 Sb7 3.326339 1_556
Ga33 Ga37 2.767130 1_555
Ga33 Sb15 3.025418 1_555
Ga33 Sb7 3.067693 1_565
Ga33 Sb26 3.096065 1_555
Ga34 Sb22 2.998313 1_565
Ga34 Sb46 3.040698 1_555
Ga35 Ga47 2.734014 1_555
Ga35 Sb33 2.780113 1_555
Ga35 Sb28 3.042875 1_554
Ga36 Sb42 2.904828 1_445
Ga36 Sb6 2.931133 1_555
Ga36 Sb7 3.042326 1_555
Ga36 Sb15 3.106675 1_545
Ga37 Sb44 2.694353 1_455
Ga37 Sb7 2.800557 1_565
Ga37 Sb42 2.999837 1_455
Ga38 Ga4 2.702055 1_555
Ga38 Ga5 2.730029 1_554
Ga38 Sb28 2.883322 1_454
Ga38 Sb33 3.094017 1_455
Ga38 Sb38 3.122752 1_454
Ga39 Ga42 2.912955 1_565
Ga39 Ga43 2.948078 1_555
Ga39 Sb39 2.986002 1_555
Ga39 Sb36 3.240794 1_555
Ga39 Sb19 3.327108 1_565
Ga40 Sb42 2.806331 1_545
Ga40 Sb10 2.864071 1_555
Ga40 Sb45 2.872115 1_554
Ga40 Sb25 3.070527 1_545
Ga40 Sb3 3.171152 1_554
Ga41 Ga46 2.730233 1_555
Ga41 Sb16 2.804604 1_555
Ga41 Sb35 2.852812 1_555
Ga42 Sb19 2.845575 1_555
Ga42 Sb18 2.912808 1_555
Ga42 Ga7 2.913252 1_555
Ga43 Ga49 2.815742 1_555
Ga43 Sb39 2.988668 1_555
Ga43 Sb34 3.119340 1_565
Ga43 Ga9 3.128059 1_555
Ga43 Sb23 3.167274 1_555
Ga44 Sb43 2.732859 1_555
Ga44 Sb17 3.025560 1_555
Ga44 Sb2 3.216566 1_555
Ga44 Sb19 3.313400 1_555
Ga45 Sb31 2.857557 1_555
Ga45 Sb21 2.883593 1_555
Ga45 Sb49 2.884258 1_555
Ga45 Sb36 3.182566 1_555
Ga46 Sb37 2.809692 1_555
Ga46 Sb14 2.863878 1_555
Ga46 Sb49 2.914414 1_555
Ga47 Sb37 2.908858 1_555
Ga47 Sb10 2.912657 1_555
Ga48 Sb45 2.722974 1_565
Ga48 Sb27 2.757709 1_655
Ga48 Sb25 2.815631 1_556
Ga48 Sb44 3.057589 1_556
Ga49 Ga9 2.712624 1_555
Ga49 Sb8 2.826690 1_455
Ga49 Sb23 2.868652 1_555
Ga49 Sb27 3.367670 1_555
Sb0 Sb40 3.005298 1_455
Sb0 Sb42 3.080748 1_455
Sb1 Sb31 2.968279 1_555
Sb1 Sb5 3.171471 1_554
Sb2 Sb49 2.966529 1_555
Sb2 Sb43 3.058135 1_555
Sb2 Sb30 3.062306 1_555
Sb3 Sb45 3.112207 1_555
Sb4 Sb40 3.144296 1_455
Sb10 Sb26 3.006229 1_545
Sb11 Sb23 3.167103 1_555
Sb12 Sb13 2.951642 1_555
Sb12 Sb16 3.231133 1_555
Sb13 Sb30 3.196582 1_555
Sb13 Sb41 3.268986 1_555
Sb14 Sb22 3.084281 1_555
Sb15 Sb7 3.084885 1_565
Sb15 Sb36 3.158592 1_555
Sb15 Sb26 3.194111 1_555
Sb16 Sb49 2.913620 1_555
Sb16 Sb21 3.142566 1_555
Sb17 Sb40 3.453077 1_455
Sb18 Sb47 2.966352 1_555
Sb18 Sb30 3.008194 1_555
Sb19 Sb34 3.078653 1_555
Sb20 Sb47 3.033205 1_555
Sb20 Sb9 3.081426 1_555
Sb20 Sb38 3.232244 1_455
Sb21 Sb41 2.867339 1_555
Sb21 Sb46 3.063652 1_555
Sb22 Sb35 3.162352 1_555
Sb22 Sb29 3.268951 1_555
Sb23 Sb9 3.196292 1_555
Sb24 Sb47 2.931077 1_555
Sb24 Sb48 3.076748 1_555
Sb25 Sb26 3.235443 1_555
Sb26 Sb32 2.947178 1_555
Sb27 Sb44 2.970080 1_456
Sb28 Sb45 3.167138 1_555
Sb28 Sb38 3.313046 1_555
Sb29 Sb34 2.999730 1_655
Sb31 Sb32 2.861058 1_555
Sb31 Sb40 3.377823 1_555
Sb32 Sb36 3.007346 1_555
Sb34 Sb48 3.075860 1_555
Sb35 Sb6 2.891641 1_655
Sb36 Sb39 3.016102 1_555
Sb38 Sb8 2.982748 1_555
Sb39 Sb41 2.990591 1_555
Sb40 Sb46 3.040849 1_555
Sb43 Sb6 3.229835 1_555
