# generated using pymatgen
data_BaMg(CO3)2
_symmetry_space_group_name_H-M   'P 1'
_cell_length_a   5.06448500
_cell_length_b   5.07723617
_cell_length_c   11.78840450
_cell_angle_alpha   102.09160934
_cell_angle_beta   90.00000000
_cell_angle_gamma   119.91696351
_symmetry_Int_Tables_number   1
_chemical_formula_structural   BaMg(CO3)2
_chemical_formula_sum   'Ba2 Mg2 C4 O12'
_cell_volume   254.94251468
_cell_formula_units_Z   2
loop_
 _symmetry_equiv_pos_site_id
 _symmetry_equiv_pos_as_xyz
  1  'x, y, z'
loop_
 _atom_site_type_symbol
 _atom_site_label
 _atom_site_symmetry_multiplicity
 _atom_site_fract_x
 _atom_site_fract_y
 _atom_site_fract_z
 _atom_site_occupancy
  Ba  Ba0  1  0.22708300  0.00000000  0.75000000  1
  Ba  Ba1  1  0.77291700  0.00000000  0.25000000  1
  Mg  Mg0  1  0.00000000  0.50000000  0.00000000  1
  Mg  Mg1  1  0.50000000  0.50000000  0.50000000  1
  C  C0  1  0.83837900  0.22908200  0.60830800  1
  C  C1  1  0.60929700  0.77091800  0.89169200  1
  C  C2  1  0.16162100  0.77091800  0.39169200  1
  C  C3  1  0.39070300  0.22908200  0.10830800  1
  O  O0  1  0.87243100  0.63667000  0.40212000  1
  O  O1  1  0.23576100  0.36333000  0.09788000  1
  O  O2  1  0.12756900  0.36333000  0.59788000  1
  O  O3  1  0.76423900  0.63667000  0.90212000  1
  O  O4  1  0.74724600  0.06262600  0.88602700  1
  O  O5  1  0.68462000  0.93737400  0.61397300  1
  O  O6  1  0.25275400  0.93737400  0.11397300  1
  O  O7  1  0.31538000  0.06262600  0.38602700  1
  O  O8  1  0.70075200  0.39109100  0.62313100  1
  O  O9  1  0.30966100  0.60890900  0.87686900  1
  O  O10  1  0.29924800  0.60890900  0.37686900  1
  O  O11  1  0.69033900  0.39109100  0.12313100  1
loop_
_geom_bond_atom_site_label_1
_geom_bond_atom_site_label_2
_geom_bond_distance
_geom_bond_site_symmetry_2
Ba0 O8 2.902936 1_555
Ba0 O9 2.902936 1_545
Ba0 O4 2.926285 1_555
Ba0 O5 2.926285 1_545
Ba0 O8 2.956806 1_445
Ba0 O9 2.956807 1_555
Ba0 O5 3.022435 1_445
Ba0 O4 3.022435 1_455
Ba0 O3 3.030841 1_445
Ba0 O2 3.030841 1_555
Ba0 O3 3.140917 1_555
Ba0 O2 3.140918 1_545
Ba1 O10 2.902936 1_545
Ba1 O11 2.902936 1_555
Ba1 O6 2.926285 1_545
Ba1 O7 2.926285 1_555
Ba1 O10 2.956806 1_655
Ba1 O11 2.956807 1_545
Ba1 O7 3.022435 1_655
Ba1 O6 3.022435 1_645
Ba1 O1 3.030841 1_655
Ba1 O0 3.030841 1_545
Ba1 O1 3.140917 1_545
Ba1 O0 3.140918 1_555
Mg0 O6 2.071135 1_555
Mg0 O4 2.071135 1_454
Mg0 O11 2.084082 1_455
Mg0 O9 2.084082 1_554
Mg0 O3 2.097717 1_454
Mg0 O1 2.097717 1_555
Mg1 O7 2.071135 1_555
Mg1 O5 2.071135 1_555
Mg1 O8 2.084082 1_555
Mg1 O10 2.084082 1_555
Mg1 O2 2.097716 1_555
Mg1 O0 2.097716 1_555
C0 O2 1.289992 1_655
C0 O5 1.302086 1_545
C0 O8 1.305616 1_555
C1 O3 1.289992 1_555
C1 O4 1.302086 1_565
C1 O9 1.305616 1_555
C2 O0 1.289992 1_455
C2 O7 1.302086 1_565
C2 O10 1.305616 1_555
C3 O1 1.289992 1_555
C3 O6 1.302086 1_545
C3 O11 1.305616 1_555
