# generated using pymatgen
data_TmCdAu
_symmetry_space_group_name_H-M   'P 1'
_cell_length_a   3.90754534
_cell_length_b   7.63107111
_cell_length_c   7.63106783
_cell_angle_alpha   119.99992630
_cell_angle_beta   89.99999796
_cell_angle_gamma   90.00000471
_symmetry_Int_Tables_number   1
_chemical_formula_structural   TmCdAu
_chemical_formula_sum   'Tm3 Cd3 Au3'
_cell_volume   197.06331967
_cell_formula_units_Z   3
loop_
 _symmetry_equiv_pos_site_id
 _symmetry_equiv_pos_as_xyz
  1  'x, y, z'
loop_
 _atom_site_type_symbol
 _atom_site_label
 _atom_site_symmetry_multiplicity
 _atom_site_fract_x
 _atom_site_fract_y
 _atom_site_fract_z
 _atom_site_occupancy
  Tm  Tm0  1  0.00000041  0.40539312  0.40539176  1
  Tm  Tm1  1  0.00000017  -0.00000043  0.59460910  1
  Tm  Tm2  1  -0.00000051  0.59460732  0.99999702  1
  Cd  Cd0  1  0.50000014  0.73938913  0.73939030  1
  Cd  Cd1  1  0.50000011  -0.00000090  0.26061111  1
  Cd  Cd2  1  0.50000014  0.26061022  0.00000075  1
  Au  Au0  1  0.49999990  0.66666728  0.33333353  1
  Au  Au1  1  0.49999977  0.33333302  0.66666606  1
  Au  Au2  1  -0.00000013  0.00000023  0.00000138  1
loop_
_geom_bond_atom_site_label_1
_geom_bond_atom_site_label_2
_geom_bond_distance
_geom_bond_site_symmetry_2
Cd0 Tm0 3.211448 1_555
Cd0 Tm0 3.211449 1_655
Cd0 Tm2 3.345153 1_655
Cd0 Tm2 3.345156 1_555
Cd0 Tm1 3.345173 1_665
Cd0 Tm1 3.345173 1_565
Cd0 Cd1 3.444594 1_566
Cd0 Cd2 3.444597 1_566
Cd1 Tm1 3.211449 1_555
Cd1 Tm1 3.211449 1_655
Cd1 Tm2 3.345179 1_644
Cd1 Tm2 3.345182 1_544
Cd1 Tm0 3.345189 1_555
Cd1 Tm0 3.345190 1_655
Cd1 Cd2 3.444595 1_555
Cd2 Tm2 3.211455 1_654
Cd2 Tm2 3.211459 1_554
Cd2 Tm0 3.345168 1_555
Cd2 Tm0 3.345170 1_655
Cd2 Tm1 3.345176 1_554
Cd2 Tm1 3.345176 1_654
Au0 Cd1 2.861797 1_565
Au0 Cd2 2.861817 1_555
Au0 Cd0 2.861818 1_555
Au0 Tm0 3.031697 1_555
Au0 Tm0 3.031700 1_655
Au0 Tm1 3.031702 1_565
Au0 Tm1 3.031703 1_665
Au0 Tm2 3.031718 1_654
Au0 Tm2 3.031720 1_554
Au1 Cd0 2.861808 1_555
Au1 Cd1 2.861809 1_555
Au1 Cd2 2.861819 1_556
Au1 Tm2 3.031694 1_655
Au1 Tm2 3.031695 1_555
Au1 Tm0 3.031704 1_555
Au1 Tm1 3.031707 1_555
Au1 Tm0 3.031707 1_655
Au1 Tm1 3.031709 1_655
Au2 Cd1 2.787883 1_455
Au2 Cd2 2.787883 1_455
Au2 Cd1 2.787884 1_555
Au2 Cd2 2.787885 1_555
Au2 Cd0 2.787889 1_444
Au2 Cd0 2.787890 1_544
Au2 Tm2 3.093565 1_544
Au2 Tm1 3.093573 1_554
Au2 Tm0 3.093575 1_555
