# generated using pymatgen
data_Sc2(CN2)3
_symmetry_space_group_name_H-M   'P 1'
_cell_length_a   10.30548197
_cell_length_b   10.30548197
_cell_length_c   10.30548091
_cell_angle_alpha   33.99514794
_cell_angle_beta   33.99514794
_cell_angle_gamma   33.99514750
_symmetry_Int_Tables_number   1
_chemical_formula_structural   Sc2(CN2)3
_chemical_formula_sum   'Sc4 C6 N12'
_cell_volume   304.98368685
_cell_formula_units_Z   2
loop_
 _symmetry_equiv_pos_site_id
 _symmetry_equiv_pos_as_xyz
  1  'x, y, z'
loop_
 _atom_site_type_symbol
 _atom_site_label
 _atom_site_symmetry_multiplicity
 _atom_site_fract_x
 _atom_site_fract_y
 _atom_site_fract_z
 _atom_site_occupancy
  Sc  Sc0  1  0.83524200  0.83524200  0.83524200  1
  Sc  Sc1  1  0.33524200  0.33524200  0.33524200  1
  Sc  Sc2  1  0.16475800  0.16475800  0.16475800  1
  Sc  Sc3  1  0.66475800  0.66475800  0.66475800  1
  C  C0  1  0.25000000  0.55101300  0.94898700  1
  C  C1  1  0.55101300  0.94898700  0.25000000  1
  C  C2  1  0.94898700  0.25000000  0.55101300  1
  C  C3  1  0.05101300  0.75000000  0.44898700  1
  C  C4  1  0.75000000  0.44898700  0.05101300  1
  C  C5  1  0.44898700  0.05101300  0.75000000  1
  N  N0  1  0.13915300  0.54188200  0.94801500  1
  N  N1  1  0.54188200  0.94801500  0.13915300  1
  N  N2  1  0.94801500  0.13915300  0.54188200  1
  N  N3  1  0.04188200  0.63915300  0.44801500  1
  N  N4  1  0.63915300  0.44801500  0.04188200  1
  N  N5  1  0.44801500  0.04188200  0.63915300  1
  N  N6  1  0.86084700  0.45811800  0.05198500  1
  N  N7  1  0.45811800  0.05198500  0.86084700  1
  N  N8  1  0.05198500  0.86084700  0.45811800  1
  N  N9  1  0.95811800  0.36084700  0.55198500  1
  N  N10  1  0.36084700  0.55198500  0.95811800  1
  N  N11  1  0.55198500  0.95811800  0.36084700  1
loop_
_geom_bond_atom_site_label_1
_geom_bond_atom_site_label_2
_geom_bond_distance
_geom_bond_site_symmetry_2
C0 N10 1.229900 1_555
C0 N0 1.229900 1_555
C1 N11 1.229900 1_555
C1 N1 1.229900 1_555
C2 N2 1.229900 1_555
C2 N9 1.229900 1_555
C3 N8 1.229900 1_555
C3 N3 1.229900 1_555
C4 N4 1.229900 1_555
C4 N6 1.229900 1_555
C5 N7 1.229900 1_555
C5 N5 1.229900 1_555
N0 Sc0 2.192866 1_455
N0 Sc2 2.246244 1_556
N1 Sc0 2.192866 1_554
N1 Sc2 2.246244 1_565
N2 Sc0 2.192867 1_545
N2 Sc2 2.246244 1_655
N3 Sc1 2.192866 1_555
N3 Sc3 2.246244 1_455
N4 Sc1 2.192867 1_555
N4 Sc3 2.246244 1_554
N5 Sc1 2.192866 1_555
N5 Sc3 2.246244 1_545
N6 Sc2 2.192866 1_655
N6 Sc0 2.246244 1_554
N7 Sc2 2.192866 1_556
N7 Sc0 2.246244 1_545
N8 Sc2 2.192867 1_565
N8 Sc0 2.246244 1_455
N9 Sc3 2.192866 1_555
N9 Sc1 2.246244 1_655
N10 Sc3 2.192867 1_555
N10 Sc1 2.246244 1_556
N11 Sc3 2.192866 1_555
N11 Sc1 2.246244 1_565
