# generated using pymatgen
data_Cu7Hg6
_symmetry_space_group_name_H-M   'P 1'
_cell_length_a   8.16885300
_cell_length_b   8.28860674
_cell_length_c   8.28860656
_cell_angle_alpha   109.76204372
_cell_angle_beta   109.17880891
_cell_angle_gamma   109.17880847
_symmetry_Int_Tables_number   1
_chemical_formula_structural   Cu7Hg6
_chemical_formula_sum   'Cu14 Hg12'
_cell_volume   433.56757801
_cell_formula_units_Z   2
loop_
 _symmetry_equiv_pos_site_id
 _symmetry_equiv_pos_as_xyz
  1  'x, y, z'
loop_
 _atom_site_type_symbol
 _atom_site_label
 _atom_site_symmetry_multiplicity
 _atom_site_fract_x
 _atom_site_fract_y
 _atom_site_fract_z
 _atom_site_occupancy
  Cu  Cu0  1  0.00167300  0.00000000  0.00000000  1
  Cu  Cu1  1  0.50517700  0.00000000  0.00000000  1
  Cu  Cu2  1  0.15635300  0.32334500  0.32334500  1
  Cu  Cu3  1  0.83300800  0.67665500  0.00000000  1
  Cu  Cu4  1  0.83300800  0.00000000  0.67665500  1
  Cu  Cu5  1  0.85554400  0.67822200  0.67822200  1
  Cu  Cu6  1  0.17732200  0.32177800  0.00000000  1
  Cu  Cu7  1  0.17732200  0.00000000  0.32177800  1
  Cu  Cu8  1  0.62945300  0.80064200  0.80064200  1
  Cu  Cu9  1  0.82881100  0.19935800  0.00000000  1
  Cu  Cu10  1  0.82881100  0.00000000  0.19935800  1
  Cu  Cu11  1  0.37707300  0.19403900  0.19403900  1
  Cu  Cu12  1  0.18303400  0.80596100  0.00000000  1
  Cu  Cu13  1  0.18303400  0.00000000  0.80596100  1
  Hg  Hg0  1  0.21432200  0.65116800  0.65116800  1
  Hg  Hg1  1  0.56315400  0.34883200  0.00000000  1
  Hg  Hg2  1  0.56315400  0.00000000  0.34883200  1
  Hg  Hg3  1  0.81790100  0.35368200  0.35368200  1
  Hg  Hg4  1  0.46421900  0.64631800  0.00000000  1
  Hg  Hg5  1  0.46421900  0.00000000  0.64631800  1
  Hg  Hg6  1  0.13036200  0.22677400  0.62070900  1
  Hg  Hg7  1  0.50965300  0.37929100  0.60606400  1
  Hg  Hg8  1  0.90358900  0.39393600  0.77322600  1
  Hg  Hg9  1  0.13036200  0.62070900  0.22677400  1
  Hg  Hg10  1  0.90358900  0.77322600  0.39393600  1
  Hg  Hg11  1  0.50965300  0.60606400  0.37929100  1
loop_
_geom_bond_atom_site_label_1
_geom_bond_atom_site_label_2
_geom_bond_distance
_geom_bond_site_symmetry_2
Cu0 Cu10 2.501497 1_455
Cu0 Cu8 2.501497 1_444
Cu0 Cu9 2.501497 1_455
Cu0 Cu11 2.519342 1_555
Cu0 Cu13 2.519342 1_554
Cu0 Cu12 2.519342 1_545
Cu0 Cu4 2.579725 1_454
Cu0 Cu2 2.579725 1_555
Cu0 Cu3 2.579725 1_445
Cu0 Cu7 2.580268 1_555
Cu0 Cu5 2.580268 1_444
Cu0 Cu6 2.580268 1_555
Cu1 Cu11 2.594393 1_555
Cu1 Cu13 2.594393 1_554
Cu1 Cu12 2.594393 1_545
Cu1 Cu8 2.617142 1_544
Cu1 Cu10 2.617142 1_555
Cu1 Cu9 2.617142 1_555
Cu1 Hg2 2.772073 1_555
Cu1 Hg0 2.772073 1_544
Cu1 Hg1 2.772073 1_555
Cu1 Hg5 2.839256 1_554
Cu1 Hg3 2.839256 1_555
Cu1 Hg4 2.839257 1_545
Cu2 Cu9 2.649018 1_455
Cu2 Cu6 2.737131 1_555
Cu2 Cu7 2.737132 1_555
Cu2 Hg7 2.824526 1_555
Cu2 Hg11 2.824526 1_555
Cu2 Hg0 2.882192 1_555
Cu2 Hg6 2.885649 1_555
Cu2 Hg9 2.885649 1_555
Cu2 Hg3 2.939587 1_455
Cu3 Cu8 2.649018 1_554
Cu3 Cu7 2.737131 1_665
Cu3 Cu5 2.737131 1_554
Cu3 Hg9 2.824529 1_655
Cu3 Hg8 2.824529 1_554
Cu3 Hg1 2.882192 1_555
Cu3 Hg7 2.885653 1_554
Cu3 Hg10 2.885655 1_555
Cu3 Hg4 2.939587 1_555
Cu4 Cu9 2.649018 1_556
Cu4 Cu8 2.649018 1_545
Cu4 Cu6 2.737131 1_656
Cu4 Cu5 2.737132 1_545
Cu4 Hg6 2.824529 1_655
Cu4 Hg10 2.824529 1_545
Cu4 Hg2 2.882192 1_555
Cu4 Hg11 2.885653 1_545
Cu4 Hg8 2.885655 1_555
Cu4 Hg5 2.939587 1_555
Cu5 Cu8 2.690097 1_555
Cu5 Hg11 2.787147 1_555
Cu5 Hg7 2.787147 1_555
Cu5 Hg10 2.825904 1_555
Cu5 Hg8 2.825904 1_555
Cu5 Hg3 2.930260 1_555
Cu5 Hg0 3.085416 1_655
Cu6 Cu9 2.690097 1_455
Cu6 Hg9 2.787150 1_555
Cu6 Hg8 2.787151 1_454
Cu6 Hg11 2.825908 1_555
Cu6 Hg6 2.825909 1_554
Cu6 Hg4 2.930260 1_555
Cu6 Hg1 3.085416 1_555
Cu7 Hg6 2.787150 1_555
Cu7 Hg10 2.787151 1_445
Cu7 Hg7 2.825908 1_555
Cu7 Hg9 2.825910 1_545
Cu7 Hg5 2.930260 1_555
Cu7 Hg2 3.085416 1_555
Cu8 Cu9 2.703192 1_566
Cu8 Hg4 2.819365 1_556
Cu8 Hg5 2.819366 1_565
Cu8 Hg0 2.830346 1_555
Cu8 Hg11 2.943512 1_555
Cu8 Hg7 2.943512 1_555
Cu9 Hg3 2.819365 1_555
Cu9 Hg5 2.819365 1_554
Cu9 Hg1 2.830346 1_555
Cu9 Hg9 2.943511 1_655
Cu9 Hg8 2.943519 1_554
Cu10 Cu3 2.649018 1_545
Cu10 Cu2 2.649018 1_655
Cu10 Cu7 2.690097 1_655
Cu10 Cu8 2.703192 1_544
Cu10 Cu9 2.703192 1_555
Cu10 Hg4 2.819365 1_545
Cu10 Hg3 2.819366 1_555
Cu10 Hg2 2.830346 1_555
Cu10 Hg6 2.943511 1_655
Cu10 Hg10 2.943519 1_545
Cu11 Cu13 2.631069 1_554
Cu11 Cu12 2.631069 1_545
Cu11 Cu6 2.632983 1_555
Cu11 Cu7 2.632983 1_555
Cu11 Cu2 2.703858 1_555
Cu11 Hg7 2.850410 1_555
Cu11 Hg11 2.850410 1_555
Cu11 Hg1 2.874664 1_555
Cu11 Hg2 2.874664 1_555
Cu11 Hg3 3.003981 1_555
Cu12 Cu13 2.631069 1_564
Cu12 Cu5 2.632983 1_454
Cu12 Cu7 2.632983 1_565
Cu12 Cu3 2.703858 1_455
Cu12 Hg8 2.850410 1_454
Cu12 Hg9 2.850417 1_555
Cu12 Hg2 2.874664 1_565
Cu12 Hg0 2.874664 1_554
Cu12 Hg4 3.003981 1_555
Cu13 Cu6 2.632983 1_556
Cu13 Cu5 2.632983 1_445
Cu13 Cu4 2.703858 1_455
Cu13 Hg10 2.850409 1_445
Cu13 Hg6 2.850417 1_555
Cu13 Hg1 2.874664 1_556
Cu13 Hg0 2.874664 1_545
Cu13 Hg5 3.003981 1_555
Hg0 Hg3 2.835910 1_455
Hg0 Hg4 2.963634 1_556
Hg0 Hg5 2.963634 1_565
Hg0 Hg9 3.257058 1_555
Hg0 Hg6 3.257058 1_555
Hg1 Hg4 2.835910 1_555
Hg1 Hg3 2.963634 1_555
Hg1 Hg5 2.963634 1_554
Hg1 Hg10 3.257062 1_555
Hg1 Hg7 3.257066 1_554
Hg2 Hg5 2.835910 1_555
Hg2 Hg4 2.963634 1_545
Hg2 Hg3 2.963634 1_555
Hg2 Hg8 3.257062 1_555
Hg3 Hg8 3.186927 1_555
Hg4 Hg6 3.186932 1_554
Hg5 Hg9 3.186932 1_545
Hg5 Hg7 3.186936 1_555
Hg6 Hg8 2.998346 1_455
Hg6 Hg7 2.998354 1_555
Hg7 Hg8 2.998354 1_555
Hg8 Hg9 3.074938 1_656
Hg10 Hg9 2.998346 1_655
Hg10 Hg11 2.998354 1_555
Hg10 Hg6 3.074939 1_665
Hg10 Hg3 3.186927 1_555
Hg11 Hg9 2.998354 1_555
Hg11 Hg7 3.074925 1_555
Hg11 Hg4 3.186935 1_555
Hg11 Hg2 3.257066 1_565
