# generated using pymatgen
data_Al2CoRu
_symmetry_space_group_name_H-M   'P 1'
_cell_length_a   2.91353762
_cell_length_b   2.91353762
_cell_length_c   5.81212423
_cell_angle_alpha   90.00000000
_cell_angle_beta   90.00000000
_cell_angle_gamma   90.00000000
_symmetry_Int_Tables_number   1
_chemical_formula_structural   Al2CoRu
_chemical_formula_sum   'Al2 Co1 Ru1'
_cell_volume   49.33738746
_cell_formula_units_Z   1
loop_
 _symmetry_equiv_pos_site_id
 _symmetry_equiv_pos_as_xyz
  1  'x, y, z'
loop_
 _atom_site_type_symbol
 _atom_site_label
 _atom_site_symmetry_multiplicity
 _atom_site_fract_x
 _atom_site_fract_y
 _atom_site_fract_z
 _atom_site_occupancy
  Al  Al0  1  0.00000000  -0.00000000  0.75794686  1
  Al  Al1  1  0.00000000  -0.00000000  0.24205314  1
  Co  Co0  1  0.50000000  0.50000000  -0.00000000  1
  Ru  Ru0  1  0.50000000  0.50000000  0.50000000  1
loop_
_geom_bond_atom_site_label_1
_geom_bond_atom_site_label_2
_geom_bond_distance
_geom_bond_site_symmetry_2
Al0 Co0 2.494706 1_546
Al0 Co0 2.494706 1_456
Al0 Co0 2.494706 1_446
Al0 Co0 2.494706 1_556
Al0 Ru0 2.547942 1_445
Al0 Ru0 2.547942 1_455
Al0 Ru0 2.547942 1_555
Al0 Ru0 2.547942 1_545
Al1 Co0 2.494706 1_455
Al1 Co0 2.494706 1_445
Al1 Co0 2.494706 1_555
Al1 Co0 2.494706 1_545
Al1 Ru0 2.547942 1_545
Al1 Ru0 2.547942 1_455
Al1 Ru0 2.547942 1_555
Al1 Ru0 2.547942 1_445
