# generated using pymatgen
data_NaCr(WO4)2
_symmetry_space_group_name_H-M   'P 1'
_cell_length_a   5.80622700
_cell_length_b   5.08423100
_cell_length_c   9.97987513
_cell_angle_alpha   89.15041339
_cell_angle_beta   90.00000000
_cell_angle_gamma   90.00000000
_symmetry_Int_Tables_number   1
_chemical_formula_structural   NaCr(WO4)2
_chemical_formula_sum   'Na2 Cr2 W4 O16'
_cell_volume   294.57551539
_cell_formula_units_Z   2
loop_
 _symmetry_equiv_pos_site_id
 _symmetry_equiv_pos_as_xyz
  1  'x, y, z'
loop_
 _atom_site_type_symbol
 _atom_site_label
 _atom_site_symmetry_multiplicity
 _atom_site_fract_x
 _atom_site_fract_y
 _atom_site_fract_z
 _atom_site_occupancy
  Na  Na0  1  0.68682900  0.75000000  0.50000000  1
  Na  Na1  1  0.31317100  0.25000000  0.50000000  1
  Cr  Cr0  1  0.64782900  0.75000000  0.00000000  1
  Cr  Cr1  1  0.35217100  0.25000000  0.00000000  1
  W  W0  1  0.17466700  0.76324000  0.76615200  1
  W  W1  1  0.17466700  0.73676000  0.23384800  1
  W  W2  1  0.82533300  0.23676000  0.23384800  1
  W  W3  1  0.82533300  0.26324000  0.76615200  1
  O  O0  1  0.12408500  0.07960000  0.87652400  1
  O  O1  1  0.12408500  0.42040000  0.12347600  1
  O  O2  1  0.87591500  0.92040000  0.12347600  1
  O  O3  1  0.87591500  0.57960000  0.87652400  1
  O  O4  1  0.09147900  0.44988000  0.67196100  1
  O  O5  1  0.09147900  0.05012000  0.32803900  1
  O  O6  1  0.90852100  0.55012000  0.32803900  1
  O  O7  1  0.90852100  0.94988000  0.67196100  1
  O  O8  1  0.37891600  0.59111500  0.89314500  1
  O  O9  1  0.37891600  0.90888500  0.10685500  1
  O  O10  1  0.62108400  0.40888500  0.10685500  1
  O  O11  1  0.62108400  0.09111500  0.89314500  1
  O  O12  1  0.62393500  0.38044200  0.64692000  1
  O  O13  1  0.62393500  0.11955800  0.35308000  1
  O  O14  1  0.37606500  0.61955800  0.35308000  1
  O  O15  1  0.37606500  0.88044200  0.64692000  1
loop_
_geom_bond_atom_site_label_1
_geom_bond_atom_site_label_2
_geom_bond_distance
_geom_bond_site_symmetry_2
Na0 O7 2.384637 1_555
Na0 O6 2.384637 1_555
Na0 O13 2.394130 1_565
Na0 O12 2.394130 1_555
Na0 O15 2.423690 1_555
Na0 O14 2.423690 1_555
Na1 O4 2.384637 1_555
Na1 O5 2.384637 1_555
Na1 O14 2.394130 1_555
Na1 O15 2.394130 1_545
Na1 O12 2.423690 1_555
Na1 O13 2.423690 1_555
Cr0 O2 2.013591 1_555
Cr0 O3 2.013591 1_554
Cr0 O10 2.028373 1_555
Cr0 O11 2.028373 1_564
Cr0 O9 2.062325 1_555
Cr0 O8 2.062325 1_554
Cr1 O1 2.013591 1_555
Cr1 O0 2.013591 1_554
Cr1 O9 2.028373 1_545
Cr1 O8 2.028373 1_554
Cr1 O10 2.062325 1_555
Cr1 O11 2.062325 1_554
O0 W0 1.984741 1_545
O0 W3 2.250211 1_455
O1 W1 1.984741 1_555
O1 W2 2.250211 1_455
O2 W2 1.984741 1_565
O2 W1 2.250211 1_655
O3 W3 1.984741 1_555
O3 W0 2.250211 1_655
O4 W0 1.923436 1_555
O4 W3 2.036072 1_455
O5 W1 1.923436 1_545
O5 W2 2.036072 1_455
O6 W2 1.923436 1_555
O6 W1 2.036072 1_655
O7 W3 1.923436 1_565
O7 W0 2.036072 1_655
O8 W0 1.935351 1_555
O9 W1 1.935351 1_555
O10 W2 1.935351 1_555
O11 W3 1.935351 1_555
O12 W3 1.765607 1_555
O13 W2 1.765607 1_555
O14 W1 1.765607 1_555
O15 W0 1.765607 1_555
