# generated using pymatgen
data_V6H2Pb4Se3O26
_symmetry_space_group_name_H-M   'P 1'
_cell_length_a   21.74142100
_cell_length_b   7.25533000
_cell_length_c   7.38695790
_cell_angle_alpha   85.24593522
_cell_angle_beta   90.00000000
_cell_angle_gamma   90.00000000
_symmetry_Int_Tables_number   1
_chemical_formula_structural   V6H2Pb4Se3O26
_chemical_formula_sum   'V12 H4 Pb8 Se6 O52'
_cell_volume   1161.21866680
_cell_formula_units_Z   2
loop_
 _symmetry_equiv_pos_site_id
 _symmetry_equiv_pos_as_xyz
  1  'x, y, z'
loop_
 _atom_site_type_symbol
 _atom_site_label
 _atom_site_symmetry_multiplicity
 _atom_site_fract_x
 _atom_site_fract_y
 _atom_site_fract_z
 _atom_site_occupancy
  V  V0  1  0.20147400  0.18319800  0.31692500  1
  V  V1  1  0.70147400  0.81680200  0.68307500  1
  V  V2  1  0.62013300  0.39828100  0.36495700  1
  V  V3  1  0.12013300  0.60171900  0.63504300  1
  V  V4  1  0.41527100  0.02156700  0.66409900  1
  V  V5  1  0.91527100  0.97843300  0.33590100  1
  V  V6  1  0.49812500  0.64627200  0.35430400  1
  V  V7  1  0.99812500  0.35372800  0.64569600  1
  V  V8  1  0.11608900  0.10184900  0.69748400  1
  V  V9  1  0.61608900  0.89815100  0.30251600  1
  V  V10  1  0.00140700  0.84501300  0.70066700  1
  V  V11  1  0.50140700  0.15498700  0.29933300  1
  H  H0  1  0.07145600  0.36672200  0.19570200  1
  H  H1  1  0.57145600  0.63327800  0.80429800  1
  H  H2  1  0.06077200  0.58114500  0.14487800  1
  H  H3  1  0.56077200  0.41885500  0.85512200  1
  Pb  Pb0  1  0.42909000  0.52382100  0.87538800  1
  Pb  Pb1  1  0.92909000  0.47617900  0.12461200  1
  Pb  Pb2  1  0.35976800  0.93100700  0.16071000  1
  Pb  Pb3  1  0.85976800  0.06899300  0.83929000  1
  Pb  Pb4  1  0.25964800  0.28698200  0.81693500  1
  Pb  Pb5  1  0.75964800  0.71301800  0.18306500  1
  Pb  Pb6  1  0.19791300  0.70146500  0.10831700  1
  Pb  Pb7  1  0.69791300  0.29853500  0.89168300  1
  Se  Se0  1  0.33418100  0.42116900  0.30972000  1
  Se  Se1  1  0.83418100  0.57883100  0.69028000  1
  Se  Se2  1  0.28469800  0.78655000  0.66984300  1
  Se  Se3  1  0.78469800  0.21345000  0.33015700  1
  Se  Se4  1  0.55843200  0.99746000  0.81890200  1
  Se  Se5  1  0.05843200  0.00254000  0.18109800  1
  O  O0  1  0.34713500  0.90370300  0.55152000  1
  O  O1  1  0.84713500  0.09629700  0.44848000  1
  O  O2  1  0.38278200  0.21031900  0.73881000  1
  O  O3  1  0.88278200  0.78968100  0.26119000  1
  O  O4  1  0.27939800  0.90174100  0.86403800  1
  O  O5  1  0.77939800  0.09825900  0.13596200  1
  O  O6  1  0.50380200  0.06843600  0.64737900  1
  O  O7  1  0.00380200  0.93156400  0.35262100  1
  O  O8  1  0.41915800  0.86593000  0.85387300  1
  O  O9  1  0.91915800  0.13407000  0.14612700  1
  O  O10  1  0.18711900  0.13190500  0.57916100  1
  O  O11  1  0.68711900  0.86809500  0.42083900  1
  O  O12  1  0.42836700  0.10169600  0.39686500  1
  O  O13  1  0.92836700  0.89830400  0.60313500  1
  O  O14  1  0.52268000  0.39079000  0.37037700  1
  O  O15  1  0.02268000  0.60921000  0.62962300  1
  O  O16  1  0.46429600  0.66313000  0.55414800  1
  O  O17  1  0.96429600  0.33687000  0.44585200  1
  O  O18  1  0.33759700  0.31592500  0.10956000  1
  O  O19  1  0.83759700  0.68407500  0.89044000  1
  O  O20  1  0.27194500  0.30303100  0.42752200  1
  O  O21  1  0.77194500  0.69696900  0.57247800  1
  O  O22  1  0.23791300  0.00548000  0.23005500  1
  O  O23  1  0.73791300  0.99452000  0.76994500  1
  O  O24  1  0.31929600  0.57925600  0.74338500  1
  O  O25  1  0.81929600  0.42074400  0.25661500  1
  O  O26  1  0.19496500  0.35550700  0.14879300  1
  O  O27  1  0.69496500  0.64449300  0.85120700  1
  O  O28  1  0.44084500  0.64447500  0.19361600  1
  O  O29  1  0.94084500  0.35552500  0.80638400  1
  O  O30  1  0.09065100  0.79592300  0.15358000  1
  O  O31  1  0.59065100  0.20407700  0.84642000  1
  O  O32  1  0.98191900  0.79612500  0.91496000  1
  O  O33  1  0.48191900  0.20387500  0.08504000  1
  O  O34  1  0.59638000  0.15083200  0.31867500  1
  O  O35  1  0.09638000  0.84916800  0.68132500  1
  O  O36  1  0.61142600  0.88937600  0.67835700  1
  O  O37  1  0.11142600  0.11062400  0.32164300  1
  O  O38  1  0.14060400  0.10472900  0.90808900  1
  O  O39  1  0.64060400  0.89527100  0.09191100  1
  O  O40  1  0.17746500  0.56410800  0.79334400  1
  O  O41  1  0.67746500  0.43589200  0.20665600  1
  O  O42  1  0.30132800  0.63511300  0.24599200  1
  O  O43  1  0.80132800  0.36488700  0.75400800  1
  O  O44  1  0.02489700  0.10055100  0.70718900  1
  O  O45  1  0.52489700  0.89944900  0.29281100  1
  O  O46  1  0.09046400  0.35323300  0.63968500  1
  O  O47  1  0.59046400  0.64676700  0.36031500  1
  O  O48  1  0.65625600  0.37655100  0.56246200  1
  O  O49  1  0.15625600  0.62344900  0.43753800  1
  O  O50  1  0.04778800  0.45512900  0.11540900  1
  O  O51  1  0.54778800  0.54487100  0.88459100  1
loop_
_geom_bond_atom_site_label_1
_geom_bond_atom_site_label_2
_geom_bond_distance
_geom_bond_site_symmetry_2
H0 O50 0.982315 1_555
H1 O51 0.982315 1_555
H2 O50 0.997992 1_555
H2 O30 1.694398 1_555
H3 O51 0.997992 1_555
H3 O31 1.694398 1_555
O0 Se2 1.790533 1_555
O0 V4 1.932667 1_565
O0 Pb2 2.890339 1_555
O1 Se3 1.790533 1_555
O1 V5 1.932667 1_545
O1 Pb3 2.890339 1_555
O2 V4 1.674578 1_555
O2 Pb0 2.754183 1_555
O2 Pb4 2.804023 1_555
O3 V5 1.674578 1_555
O3 Pb1 2.754183 1_555
O3 Pb5 2.804023 1_555
O4 Se2 1.722875 1_555
O4 Pb4 2.820736 1_565
O4 Pb2 2.824565 1_556
O4 Pb6 2.841038 1_556
O5 Se3 1.722875 1_555
O5 Pb5 2.820736 1_545
O5 Pb3 2.824565 1_554
O5 Pb7 2.841038 1_554
O6 Se4 1.781323 1_545
O6 V4 1.956717 1_555
O7 Se5 1.781323 1_565
O7 V5 1.956717 1_455
O8 V4 1.727724 1_565
O8 Pb0 2.483422 1_555
O8 Pb2 2.684216 1_556
O9 V5 1.727724 1_545
O9 Pb1 2.483422 1_555
O9 Pb3 2.684216 1_554
O10 V8 1.778977 1_555
O10 V0 1.966943 1_555
O10 Pb4 2.676770 1_555
O11 V9 1.778977 1_555
O11 V1 1.966943 1_555
O11 Pb5 2.676770 1_555
O12 V11 1.773164 1_555
O12 V4 2.031177 1_555
O12 Pb2 2.675687 1_545
O13 V10 1.773164 1_655
O13 V5 2.031177 1_555
O13 Pb3 2.675687 1_565
O14 V11 1.888143 1_555
O14 V6 1.923143 1_555
O14 V2 2.119757 1_555
O15 V10 1.888143 1_555
O15 V7 1.923143 1_455
O15 V3 2.119757 1_555
O16 V6 1.662864 1_555
O16 Pb0 2.615523 1_555
O17 V7 1.662864 1_555
O17 Pb1 2.615523 1_555
O18 Se0 1.721015 1_555
O18 Pb4 2.768388 1_554
O18 Pb2 2.828325 1_545
O19 Se1 1.721015 1_555
O19 Pb5 2.768388 1_556
O19 Pb3 2.828325 1_565
O20 Se0 1.788620 1_555
O20 V0 1.971939 1_555
O21 Se1 1.788620 1_555
O21 V1 1.971939 1_555
O22 V0 1.684973 1_555
O22 Pb6 2.599813 1_545
O22 Pb2 2.760258 1_545
O23 V1 1.684973 1_555
O23 Pb7 2.599813 1_565
O23 Pb3 2.760258 1_565
O24 Se2 1.728434 1_555
O24 Pb4 2.506531 1_555
O24 Pb0 2.597252 1_555
O25 Se3 1.728434 1_555
O25 Pb5 2.506531 1_555
O25 Pb1 2.597252 1_555
O26 V0 1.693540 1_555
O26 Pb6 2.503878 1_555
O27 V1 1.693540 1_555
O27 Pb7 2.503878 1_555
O28 V6 1.721217 1_555
O28 Pb0 2.588180 1_554
O28 Pb2 2.721084 1_555
O29 V7 1.721217 1_555
O29 Pb1 2.588180 1_556
O29 Pb3 2.721084 1_555
O30 Se5 1.682182 1_565
O30 Pb6 2.461260 1_555
O31 Se4 1.682182 1_545
O31 Pb7 2.461260 1_555
O32 V10 1.648656 1_655
O33 V11 1.648656 1_555
O34 V9 1.896066 1_545
O34 V2 1.925749 1_555
O34 V11 2.069832 1_555
O35 V8 1.896066 1_565
O35 V3 1.925749 1_555
O35 V10 2.069832 1_555
O36 Se4 1.776299 1_555
O36 V1 2.026893 1_555
O37 Se5 1.776299 1_555
O37 V0 2.026893 1_555
O38 V8 1.646269 1_555
O39 V9 1.646269 1_555
O40 V3 1.715427 1_555
O40 Pb6 2.643603 1_556
O40 Pb4 2.684684 1_555
O41 V2 1.715427 1_555
O41 Pb7 2.643603 1_554
O41 Pb5 2.684684 1_555
O42 Se0 1.737844 1_555
O42 Pb6 2.498027 1_555
O42 Pb2 2.528996 1_555
O43 Se1 1.737844 1_555
O43 Pb7 2.498027 1_555
O43 Pb3 2.528996 1_555
O44 V10 1.927514 1_545
O44 V7 1.944470 1_455
O44 V8 1.983934 1_555
O45 V11 1.927514 1_565
O45 V6 1.944470 1_555
O45 V9 1.983934 1_555
O46 V3 1.912400 1_555
O46 V8 1.920968 1_555
O46 V7 2.008082 1_455
O47 V2 1.912400 1_555
O47 V9 1.920968 1_555
O47 V6 2.008082 1_555
O48 V2 1.652905 1_555
O48 Pb7 2.612818 1_555
O49 V3 1.652905 1_555
O49 Pb6 2.612818 1_555
O50 Pb1 2.586405 1_455
O51 Pb0 2.586405 1_555
