# generated using pymatgen
data_Mg4SiGe
_symmetry_space_group_name_H-M   'P 1'
_cell_length_a   7.77100502
_cell_length_b   7.77100502
_cell_length_c   7.77100477
_cell_angle_alpha   33.57508130
_cell_angle_beta   33.57508130
_cell_angle_gamma   33.57507917
_symmetry_Int_Tables_number   1
_chemical_formula_structural   Mg4SiGe
_chemical_formula_sum   'Mg4 Si1 Ge1'
_cell_volume   127.84488759
_cell_formula_units_Z   1
loop_
 _symmetry_equiv_pos_site_id
 _symmetry_equiv_pos_as_xyz
  1  'x, y, z'
loop_
 _atom_site_type_symbol
 _atom_site_label
 _atom_site_symmetry_multiplicity
 _atom_site_fract_x
 _atom_site_fract_y
 _atom_site_fract_z
 _atom_site_occupancy
  Mg  Mg0  1  0.62513322  0.62513322  0.62513322  1
  Mg  Mg1  1  0.12470800  0.12470800  0.12470800  1
  Mg  Mg2  1  0.87529200  0.87529200  0.87529200  1
  Mg  Mg3  1  0.37486678  0.37486678  0.37486678  1
  Si  Si0  1  -0.00000000  -0.00000000  -0.00000000  1
  Ge  Ge0  1  0.50000000  0.50000000  0.50000000  1
loop_
_geom_bond_atom_site_label_1
_geom_bond_atom_site_label_2
_geom_bond_distance
_geom_bond_site_symmetry_2
Mg0 Si0 2.747727 1_566
Mg0 Si0 2.747727 1_656
Mg0 Si0 2.747728 1_665
Mg1 Si0 2.740871 1_555
Mg2 Si0 2.740871 1_666
Mg3 Si0 2.747727 1_655
Mg3 Si0 2.747727 1_565
Mg3 Si0 2.747728 1_556
Ge0 Mg3 2.750216 1_555
Ge0 Mg0 2.750216 1_555
Ge0 Mg2 2.750846 1_545
Ge0 Mg2 2.750846 1_455
Ge0 Mg1 2.750846 1_565
Ge0 Mg1 2.750846 1_655
Ge0 Mg2 2.750847 1_554
Ge0 Mg1 2.750847 1_556
