# generated using pymatgen
data_NdCO4
_symmetry_space_group_name_H-M   'P 1'
_cell_length_a   4.98974700
_cell_length_b   7.35724800
_cell_length_c   8.45412100
_cell_angle_alpha   90.00000000
_cell_angle_beta   90.00000000
_cell_angle_gamma   90.00000000
_symmetry_Int_Tables_number   1
_chemical_formula_structural   NdCO4
_chemical_formula_sum   'Nd4 C4 O16'
_cell_volume   310.35759708
_cell_formula_units_Z   4
loop_
 _symmetry_equiv_pos_site_id
 _symmetry_equiv_pos_as_xyz
  1  'x, y, z'
loop_
 _atom_site_type_symbol
 _atom_site_label
 _atom_site_symmetry_multiplicity
 _atom_site_fract_x
 _atom_site_fract_y
 _atom_site_fract_z
 _atom_site_occupancy
  Nd  Nd0  1  0.25000000  0.35454900  0.33351100  1
  Nd  Nd1  1  0.25000000  0.85454900  0.16648900  1
  Nd  Nd2  1  0.75000000  0.64545100  0.66648900  1
  Nd  Nd3  1  0.75000000  0.14545100  0.83351100  1
  C  C0  1  0.25000000  0.30324600  0.67969600  1
  C  C1  1  0.25000000  0.80324600  0.82030400  1
  C  C2  1  0.75000000  0.69675400  0.32030400  1
  C  C3  1  0.75000000  0.19675400  0.17969600  1
  O  O0  1  0.25000000  0.03690600  0.39990800  1
  O  O1  1  0.25000000  0.53690600  0.10009200  1
  O  O2  1  0.75000000  0.96309400  0.60009200  1
  O  O3  1  0.75000000  0.46309400  0.89990800  1
  O  O4  1  0.75000000  0.29477600  0.30557400  1
  O  O5  1  0.75000000  0.79477600  0.19442600  1
  O  O6  1  0.25000000  0.70522400  0.69442600  1
  O  O7  1  0.25000000  0.20522400  0.80557400  1
  O  O8  1  0.97523100  0.65108200  0.38613500  1
  O  O9  1  0.52476900  0.15108200  0.11386500  1
  O  O10  1  0.47523100  0.34891800  0.61386500  1
  O  O11  1  0.02476900  0.84891800  0.88613500  1
  O  O12  1  0.02476900  0.34891800  0.61386500  1
  O  O13  1  0.47523100  0.84891800  0.88613500  1
  O  O14  1  0.52476900  0.65108200  0.38613500  1
  O  O15  1  0.97523100  0.15108200  0.11386500  1
loop_
_geom_bond_atom_site_label_1
_geom_bond_atom_site_label_2
_geom_bond_distance
_geom_bond_site_symmetry_2
Nd0 O1 2.386238 1_555
Nd0 O0 2.403447 1_555
Nd0 O4 2.544321 1_455
Nd0 O4 2.544321 1_555
Nd0 O14 2.614826 1_555
Nd0 O8 2.614826 1_455
Nd0 O10 2.623422 1_555
Nd0 O12 2.623422 1_555
Nd0 O9 2.751132 1_555
Nd0 O15 2.751132 1_455
Nd1 O0 2.386238 1_565
Nd1 O1 2.403447 1_555
Nd1 O5 2.544321 1_455
Nd1 O5 2.544321 1_555
Nd1 O9 2.614826 1_565
Nd1 O15 2.614826 1_465
Nd1 O13 2.623422 1_554
Nd1 O11 2.623422 1_554
Nd1 O14 2.751132 1_555
Nd1 O8 2.751132 1_455
Nd2 O3 2.386238 1_555
Nd2 O2 2.403447 1_555
Nd2 O6 2.544321 1_655
Nd2 O6 2.544321 1_555
Nd2 O12 2.614826 1_655
Nd2 O10 2.614826 1_555
Nd2 O8 2.623422 1_555
Nd2 O14 2.623422 1_555
Nd2 O11 2.751132 1_655
Nd2 O13 2.751132 1_555
Nd3 O2 2.386238 1_545
Nd3 O3 2.403447 1_555
Nd3 O7 2.544321 1_655
Nd3 O7 2.544321 1_555
Nd3 O11 2.614826 1_645
Nd3 O13 2.614826 1_545
Nd3 O15 2.623422 1_556
Nd3 O9 2.623422 1_556
Nd3 O12 2.751132 1_655
Nd3 O10 2.751132 1_555
C0 O7 1.285529 1_555
C0 O10 1.298337 1_555
C0 O12 1.298337 1_555
C1 O6 1.285529 1_555
C1 O13 1.298337 1_555
C1 O11 1.298337 1_555
C2 O5 1.285529 1_555
C2 O8 1.298337 1_555
C2 O14 1.298337 1_555
C3 O4 1.285529 1_555
C3 O15 1.298337 1_555
C3 O9 1.298337 1_555
