# generated using pymatgen
data_SrLaTaNiO6
_symmetry_space_group_name_H-M   'P 1'
_cell_length_a   5.66175096
_cell_length_b   5.66175379
_cell_length_c   9.80646932
_cell_angle_alpha   73.22116748
_cell_angle_beta   90.00003718
_cell_angle_gamma   60.00000826
_symmetry_Int_Tables_number   1
_chemical_formula_structural   SrLaTaNiO6
_chemical_formula_sum   'Sr2 La2 Ta2 Ni2 O12'
_cell_volume   256.66592057
_cell_formula_units_Z   2
loop_
 _symmetry_equiv_pos_site_id
 _symmetry_equiv_pos_as_xyz
  1  'x, y, z'
loop_
 _atom_site_type_symbol
 _atom_site_label
 _atom_site_symmetry_multiplicity
 _atom_site_fract_x
 _atom_site_fract_y
 _atom_site_fract_z
 _atom_site_occupancy
  Sr  Sr0  1  0.37500100  0.24999700  0.12500300  1
  Sr  Sr1  1  0.87499900  0.25000200  0.62499700  1
  La  La0  1  0.12499900  0.75000200  0.37499700  1
  La  La1  1  0.62500100  0.74999900  0.87500200  1
  Ta  Ta0  1  0.75000000  0.49999900  0.25000100  1
  Ta  Ta1  1  0.25000000  0.50000100  0.74999900  1
  Ni  Ni0  1  0.50000000  0.00000000  0.50000000  1
  Ni  Ni1  1  0.00000000  0.00000000  0.00000000  1
  O  O0  1  0.12051500  0.25299000  0.37350500  1
  O  O1  1  0.62051500  0.25298800  0.87350700  1
  O  O2  1  0.62649500  0.25299000  0.37350400  1
  O  O3  1  0.12649700  0.25298800  0.87350700  1
  O  O4  1  0.62649500  0.74701000  0.37350500  1
  O  O5  1  0.12649600  0.74700800  0.87350800  1
  O  O6  1  0.87350400  0.74701100  0.12649400  1
  O  O7  1  0.37350500  0.74701100  0.62649500  1
  O  O8  1  0.87350400  0.25299100  0.12649400  1
  O  O9  1  0.37350500  0.25299000  0.62649400  1
  O  O10  1  0.37948500  0.74701100  0.12649400  1
  O  O11  1  0.87948400  0.74701100  0.62649400  1
loop_
_geom_bond_atom_site_label_1
_geom_bond_atom_site_label_2
_geom_bond_distance
_geom_bond_site_symmetry_2
La0 O8 2.830960 1_465
La0 O6 2.830968 1_455
La0 O10 2.830970 1_555
La0 O2 2.830975 1_465
La0 O4 2.830977 1_455
La0 O4 2.830977 1_555
La0 O0 2.830978 1_565
La0 O0 2.830978 1_555
La0 O2 2.830981 1_555
La0 O9 2.830991 1_555
La0 O11 2.831001 1_455
La0 O7 2.831008 1_555
La1 O8 2.830951 1_556
La1 O6 2.830957 1_556
La1 O10 2.830961 1_556
La1 O1 2.830970 1_565
La1 O3 2.830972 1_565
La1 O5 2.830974 1_655
La1 O5 2.830980 1_555
La1 O3 2.830983 1_655
La1 O1 2.830987 1_555
La1 O9 2.830993 1_565
La1 O7 2.830996 1_555
La1 O11 2.831003 1_555
Ni0 O11 2.025662 1_545
Ni0 O7 2.025668 1_545
Ni0 O0 2.025670 1_555
Ni0 O9 2.025670 1_555
Ni0 O2 2.025676 1_555
Ni0 O4 2.025678 1_545
Ni1 O1 2.025662 1_454
Ni1 O5 2.025662 1_544
Ni1 O3 2.025664 1_554
Ni1 O10 2.025666 1_545
Ni1 O6 2.025668 1_445
Ni1 O8 2.025674 1_455
O0 Ta0 1.977785 1_455
O0 Sr1 2.830961 1_455
O0 Sr0 2.830961 1_555
O1 Ta1 1.977801 1_555
O1 Sr0 2.830990 1_556
O1 Sr1 2.831023 1_555
O2 Ta0 1.977778 1_555
O2 Sr0 2.830954 1_555
O2 Sr1 2.830968 1_555
O3 Ta1 1.977806 1_555
O3 Sr0 2.830985 1_556
O3 Sr1 2.831022 1_455
O4 Ta0 1.977793 1_555
O4 Sr0 2.830948 1_565
O4 Sr1 2.830951 1_555
O5 Ta1 1.977817 1_555
O5 Sr0 2.830977 1_556
O5 Sr1 2.831019 1_465
O6 Ta0 1.977802 1_555
O6 Sr0 2.830972 1_565
O6 Sr0 2.830983 1_655
O7 Ta1 1.977786 1_555
O7 Sr1 2.830975 1_465
O7 Sr1 2.830981 1_555
O8 Ta0 1.977805 1_555
O8 Sr0 2.830977 1_555
O8 Sr0 2.830977 1_655
O9 Ta1 1.977801 1_555
O9 Sr1 2.830977 1_455
O9 Sr1 2.830977 1_555
O10 Ta0 1.977797 1_555
O10 Sr0 2.830969 1_565
O10 Sr0 2.830986 1_555
O11 Ta1 1.977793 1_655
O11 Sr1 2.830978 1_565
O11 Sr1 2.830978 1_555
