# generated using pymatgen
data_Fe3Ag7(P2O7)4
_symmetry_space_group_name_H-M   'P 1'
_cell_length_a   8.56448303
_cell_length_b   9.68480577
_cell_length_c   28.47829095
_cell_angle_alpha   93.22115075
_cell_angle_beta   90.00000000
_cell_angle_gamma   90.00000000
_symmetry_Int_Tables_number   1
_chemical_formula_structural   Fe3Ag7(P2O7)4
_chemical_formula_sum   'Fe12 Ag28 P32 O112'
_cell_volume   2358.40997038
_cell_formula_units_Z   4
loop_
 _symmetry_equiv_pos_site_id
 _symmetry_equiv_pos_as_xyz
  1  'x, y, z'
loop_
 _atom_site_type_symbol
 _atom_site_label
 _atom_site_symmetry_multiplicity
 _atom_site_fract_x
 _atom_site_fract_y
 _atom_site_fract_z
 _atom_site_occupancy
  Fe  Fe0  1  0.82603981  0.75162613  0.24859420  1
  Fe  Fe1  1  0.32603981  0.24837387  0.25140580  1
  Fe  Fe2  1  0.17396019  0.24837387  0.75140580  1
  Fe  Fe3  1  0.67396019  0.75162613  0.74859420  1
  Fe  Fe4  1  0.22143931  0.56734160  0.43575334  1
  Fe  Fe5  1  0.72143931  0.43265840  0.06424666  1
  Fe  Fe6  1  0.77856069  0.43265840  0.56424666  1
  Fe  Fe7  1  0.27856069  0.56734160  0.93575334  1
  Fe  Fe8  1  0.72120753  0.06738240  0.43662335  1
  Fe  Fe9  1  0.22120753  0.93261760  0.06337665  1
  Fe  Fe10  1  0.27879247  0.93261760  0.56337665  1
  Fe  Fe11  1  0.77879247  0.06738240  0.93662335  1
  Ag  Ag0  1  0.63641437  0.50674325  0.44555474  1
  Ag  Ag1  1  0.13641437  0.49325675  0.05444526  1
  Ag  Ag2  1  0.36358563  0.49325675  0.55444526  1
  Ag  Ag3  1  0.86358563  0.50674325  0.94555474  1
  Ag  Ag4  1  0.85383725  0.00051838  0.56135975  1
  Ag  Ag5  1  0.35383725  0.99948162  0.93864025  1
  Ag  Ag6  1  0.14616275  0.99948162  0.43864025  1
  Ag  Ag7  1  0.64616275  0.00051838  0.06135975  1
  Ag  Ag8  1  0.57029394  0.77109836  0.35750308  1
  Ag  Ag9  1  0.07029394  0.22890164  0.14249692  1
  Ag  Ag10  1  0.42970606  0.22890164  0.64249692  1
  Ag  Ag11  1  0.92970606  0.77109836  0.85750308  1
  Ag  Ag12  1  0.59613618  0.75968471  0.14597973  1
  Ag  Ag13  1  0.09613618  0.24031529  0.35402027  1
  Ag  Ag14  1  0.40386382  0.24031529  0.85402027  1
  Ag  Ag15  1  0.90386382  0.75968471  0.64597973  1
  Ag  Ag16  1  0.68785173  0.21464317  0.18871700  1
  Ag  Ag17  1  0.18785173  0.78535683  0.31128300  1
  Ag  Ag18  1  0.31214827  0.78535683  0.81128300  1
  Ag  Ag19  1  0.81214827  0.21464317  0.68871700  1
  Ag  Ag20  1  0.65418802  0.25151846  0.32830828  1
  Ag  Ag21  1  0.15418802  0.74848154  0.17169172  1
  Ag  Ag22  1  0.34581198  0.74848154  0.67169172  1
  Ag  Ag23  1  0.84581198  0.25151846  0.82830828  1
  Ag  Ag24  1  0.85764569  0.54063490  0.35285010  1
  Ag  Ag25  1  0.35764569  0.45936510  0.14714990  1
  Ag  Ag26  1  0.14235431  0.45936510  0.64714990  1
  Ag  Ag27  1  0.64235431  0.54063490  0.85285010  1
  P  P0  1  0.00951207  0.45395040  0.25550030  1
  P  P1  1  0.50951207  0.54604960  0.24449970  1
  P  P2  1  0.99048793  0.54604960  0.74449970  1
  P  P3  1  0.49048793  0.45395040  0.75550030  1
  P  P4  1  0.00484632  0.04930661  0.24541125  1
  P  P5  1  0.50484632  0.95069339  0.25458875  1
  P  P6  1  0.99515368  0.95069339  0.75458875  1
  P  P7  1  0.49515368  0.04930661  0.74541125  1
  P  P8  1  0.88864810  0.52092170  0.16489197  1
  P  P9  1  0.38864810  0.47907830  0.33510803  1
  P  P10  1  0.11135190  0.47907830  0.83510803  1
  P  P11  1  0.61135190  0.52092170  0.66489197  1
  P  P12  1  0.88233952  0.97096784  0.33445582  1
  P  P13  1  0.38233952  0.02903216  0.16554418  1
  P  P14  1  0.11766048  0.02903216  0.66554418  1
  P  P15  1  0.61766048  0.97096784  0.83445582  1
  P  P16  1  0.40853661  0.25705933  0.44200179  1
  P  P17  1  0.90853661  0.74294067  0.05799821  1
  P  P18  1  0.59146339  0.74294067  0.55799821  1
  P  P19  1  0.09146339  0.25705933  0.94200179  1
  P  P20  1  0.08810447  0.23968734  0.55540685  1
  P  P21  1  0.58810447  0.76031266  0.94459315  1
  P  P22  1  0.91189553  0.76031266  0.44459315  1
  P  P23  1  0.41189553  0.23968734  0.05540685  1
  P  P24  1  0.46097072  0.83191658  0.46711949  1
  P  P25  1  0.96097072  0.16808342  0.03288051  1
  P  P26  1  0.53902928  0.16808342  0.53288051  1
  P  P27  1  0.03902928  0.83191658  0.96711949  1
  P  P28  1  0.95921457  0.33306076  0.46544918  1
  P  P29  1  0.45921457  0.66693924  0.03455082  1
  P  P30  1  0.04078543  0.66693924  0.53455082  1
  P  P31  1  0.54078543  0.33306076  0.96544918  1
  O  O0  1  0.94082607  0.38028392  0.29709122  1
  O  O1  1  0.44082607  0.61971608  0.20290878  1
  O  O2  1  0.05917393  0.61971608  0.70290878  1
  O  O3  1  0.55917393  0.38028392  0.79709122  1
  O  O4  1  0.93859024  0.12563487  0.20494834  1
  O  O5  1  0.43859024  0.87436513  0.29505166  1
  O  O6  1  0.06140976  0.87436513  0.79505166  1
  O  O7  1  0.56140976  0.12563487  0.70494834  1
  O  O8  1  0.16591882  0.39393500  0.23800038  1
  O  O9  1  0.66591882  0.60606500  0.26199962  1
  O  O10  1  0.83408118  0.60606500  0.76199962  1
  O  O11  1  0.33408118  0.39393500  0.73800038  1
  O  O12  1  0.00958541  0.88922208  0.23636306  1
  O  O13  1  0.50958541  0.11077792  0.26363694  1
  O  O14  1  0.99041459  0.11077792  0.76363694  1
  O  O15  1  0.49041459  0.88922208  0.73636306  1
  O  O16  1  0.01097208  0.61363118  0.26396895  1
  O  O17  1  0.51097208  0.38636882  0.23603105  1
  O  O18  1  0.98902792  0.38636882  0.73603105  1
  O  O19  1  0.48902792  0.61363118  0.76396895  1
  O  O20  1  0.16053444  0.10782532  0.26500347  1
  O  O21  1  0.66053444  0.89217468  0.23499653  1
  O  O22  1  0.83946556  0.89217468  0.73499653  1
  O  O23  1  0.33946556  0.10782532  0.76500347  1
  O  O24  1  0.88823027  0.42745040  0.21101293  1
  O  O25  1  0.38823027  0.57254960  0.28898707  1
  O  O26  1  0.11176973  0.57254960  0.78898707  1
  O  O27  1  0.61176973  0.42745040  0.71101293  1
  O  O28  1  0.88028480  0.06943351  0.28959122  1
  O  O29  1  0.38028480  0.93056649  0.21040878  1
  O  O30  1  0.11971520  0.93056649  0.71040878  1
  O  O31  1  0.61971520  0.06943351  0.78959122  1
  O  O32  1  0.84502923  0.67087103  0.18213053  1
  O  O33  1  0.34502923  0.32912897  0.31786947  1
  O  O34  1  0.15497077  0.32912897  0.81786947  1
  O  O35  1  0.65497077  0.67087103  0.68213053  1
  O  O36  1  0.83069885  0.82384828  0.31636092  1
  O  O37  1  0.33069885  0.17615172  0.18363908  1
  O  O38  1  0.16930115  0.17615172  0.68363908  1
  O  O39  1  0.66930115  0.82384828  0.81636092  1
  O  O40  1  0.05208310  0.51440677  0.14350594  1
  O  O41  1  0.55208310  0.48559323  0.35649406  1
  O  O42  1  0.94791690  0.48559323  0.85649406  1
  O  O43  1  0.44791690  0.51440677  0.64350594  1
  O  O44  1  0.04662700  0.97309823  0.35475391  1
  O  O45  1  0.54662700  0.02690177  0.14524609  1
  O  O46  1  0.95337300  0.02690177  0.64524609  1
  O  O47  1  0.45337300  0.97309823  0.85475391  1
  O  O48  1  0.75792036  0.45366217  0.13447159  1
  O  O49  1  0.25792036  0.54633783  0.36552841  1
  O  O50  1  0.24207964  0.54633783  0.86552841  1
  O  O51  1  0.74207964  0.45366217  0.63447159  1
  O  O52  1  0.75415186  0.03917989  0.36608403  1
  O  O53  1  0.25415186  0.96082011  0.13391597  1
  O  O54  1  0.24584814  0.96082011  0.63391597  1
  O  O55  1  0.74584814  0.03917989  0.86608403  1
  O  O56  1  0.57644568  0.22877820  0.42381676  1
  O  O57  1  0.07644568  0.77122180  0.07618324  1
  O  O58  1  0.42355432  0.77122180  0.57618324  1
  O  O59  1  0.92355432  0.22877820  0.92381676  1
  O  O60  1  0.92283709  0.27126215  0.57447068  1
  O  O61  1  0.42283709  0.72873785  0.92552932  1
  O  O62  1  0.07716291  0.72873785  0.42552932  1
  O  O63  1  0.57716291  0.27126215  0.07447068  1
  O  O64  1  0.37734021  0.41428939  0.44954529  1
  O  O65  1  0.87734021  0.58571061  0.05045471  1
  O  O66  1  0.62265979  0.58571061  0.55045471  1
  O  O67  1  0.12265979  0.41428939  0.94954529  1
  O  O68  1  0.11977898  0.08353859  0.54890977  1
  O  O69  1  0.61977898  0.91646141  0.95109023  1
  O  O70  1  0.88022102  0.91646141  0.45109023  1
  O  O71  1  0.38022102  0.08353859  0.04890977  1
  O  O72  1  0.28215154  0.18267297  0.41373380  1
  O  O73  1  0.78215154  0.81732703  0.08626620  1
  O  O74  1  0.71784846  0.81732703  0.58626620  1
  O  O75  1  0.21784846  0.18267297  0.91373380  1
  O  O76  1  0.21540368  0.31467476  0.58464031  1
  O  O77  1  0.71540368  0.68532524  0.91535969  1
  O  O78  1  0.78459632  0.68532524  0.41535969  1
  O  O79  1  0.28459632  0.31467476  0.08464031  1
  O  O80  1  0.59371100  0.79962864  0.50499883  1
  O  O81  1  0.09371100  0.20037136  0.99500117  1
  O  O82  1  0.40628900  0.20037136  0.49500117  1
  O  O83  1  0.90628900  0.79962864  0.00499883  1
  O  O84  1  0.09357403  0.29677216  0.50280772  1
  O  O85  1  0.59357403  0.70322784  0.99719228  1
  O  O86  1  0.90642597  0.70322784  0.49719228  1
  O  O87  1  0.40642597  0.29677216  0.00280772  1
  O  O88  1  0.32335956  0.90122970  0.49409618  1
  O  O89  1  0.82335956  0.09877030  0.00590382  1
  O  O90  1  0.67664044  0.09877030  0.50590382  1
  O  O91  1  0.17664044  0.90122970  0.99409618  1
  O  O92  1  0.82485941  0.40309169  0.49389589  1
  O  O93  1  0.32485941  0.59690831  0.00610411  1
  O  O94  1  0.17514059  0.59690831  0.50610411  1
  O  O95  1  0.67514059  0.40309169  0.99389589  1
  O  O96  1  0.41201105  0.69556936  0.44113483  1
  O  O97  1  0.91201105  0.30443064  0.05886517  1
  O  O98  1  0.58798895  0.30443064  0.55886517  1
  O  O99  1  0.08798895  0.69556936  0.94113483  1
  O  O100  1  0.90759596  0.19850780  0.43927225  1
  O  O101  1  0.40759596  0.80149220  0.06072775  1
  O  O102  1  0.09240404  0.80149220  0.56072775  1
  O  O103  1  0.59240404  0.19850780  0.93927225  1
  O  O104  1  0.54017528  0.92677218  0.43280649  1
  O  O105  1  0.04017528  0.07322782  0.06719351  1
  O  O106  1  0.45982472  0.07322782  0.56719351  1
  O  O107  1  0.95982472  0.92677218  0.93280649  1
  O  O108  1  0.03799749  0.42899052  0.43128513  1
  O  O109  1  0.53799749  0.57100948  0.06871487  1
  O  O110  1  0.96200251  0.57100948  0.56871487  1
  O  O111  1  0.46200251  0.42899052  0.93128513  1
loop_
_geom_bond_atom_site_label_1
_geom_bond_atom_site_label_2
_geom_bond_distance
_geom_bond_site_symmetry_2
Fe0 O32 2.013542 1_555
Fe0 O36 2.015831 1_555
Fe0 O21 2.017729 1_555
Fe0 O9 2.018459 1_555
Fe0 O12 2.102472 1_655
Fe0 O16 2.133579 1_655
Fe1 O33 2.013542 1_555
Fe1 O37 2.015831 1_555
Fe1 O20 2.017729 1_555
Fe1 O8 2.018459 1_555
Fe1 O13 2.102472 1_555
Fe1 O17 2.133579 1_555
Fe2 O34 2.013542 1_555
Fe2 O38 2.015831 1_555
Fe2 O23 2.017729 1_555
Fe2 O11 2.018459 1_555
Fe2 O14 2.102472 1_455
Fe2 O18 2.133579 1_455
Fe3 O35 2.013542 1_555
Fe3 O39 2.015831 1_555
Fe3 O22 2.017729 1_555
Fe3 O10 2.018459 1_555
Fe3 O15 2.102472 1_555
Fe3 O19 2.133579 1_555
Fe4 O49 2.023073 1_555
Fe4 O62 2.026330 1_555
Fe4 O94 2.046618 1_555
Fe4 O64 2.049302 1_555
Fe4 O96 2.051396 1_555
Fe4 O108 2.064141 1_555
Fe5 O48 2.023073 1_555
Fe5 O63 2.026330 1_555
Fe5 O95 2.046618 1_554
Fe5 O65 2.049302 1_555
Fe5 O97 2.051396 1_555
Fe5 O109 2.064141 1_555
Fe6 O51 2.023073 1_555
Fe6 O60 2.026330 1_555
Fe6 O92 2.046618 1_555
Fe6 O66 2.049302 1_555
Fe6 O98 2.051396 1_555
Fe6 O110 2.064141 1_555
Fe7 O50 2.023073 1_555
Fe7 O61 2.026330 1_555
Fe7 O93 2.046618 1_556
Fe7 O67 2.049302 1_555
Fe7 O99 2.051396 1_555
Fe7 O111 2.064141 1_555
Fe8 O90 2.015784 1_555
Fe8 O52 2.031745 1_555
Fe8 O100 2.038595 1_555
Fe8 O56 2.043881 1_555
Fe8 O70 2.056329 1_545
Fe8 O104 2.062406 1_545
Fe9 O91 2.015784 1_554
Fe9 O53 2.031745 1_555
Fe9 O101 2.038595 1_555
Fe9 O57 2.043881 1_555
Fe9 O71 2.056329 1_565
Fe9 O105 2.062406 1_565
Fe10 O88 2.015784 1_555
Fe10 O54 2.031745 1_555
Fe10 O102 2.038595 1_555
Fe10 O58 2.043881 1_555
Fe10 O68 2.056329 1_565
Fe10 O106 2.062406 1_565
Fe11 O89 2.015784 1_556
Fe11 O55 2.031745 1_555
Fe11 O103 2.038595 1_555
Fe11 O59 2.043881 1_555
Fe11 O69 2.056329 1_545
Fe11 O107 2.062406 1_545
Ag0 O78 2.347013 1_555
Ag0 O92 2.379711 1_555
Ag0 O64 2.397774 1_555
Ag0 O41 2.634012 1_555
Ag0 O96 2.660773 1_555
Ag0 O56 2.776113 1_555
Ag1 O79 2.347013 1_555
Ag1 O93 2.379711 1_555
Ag1 O65 2.397774 1_455
Ag1 O40 2.634012 1_555
Ag1 O97 2.660773 1_455
Ag1 O57 2.776113 1_555
Ag2 O76 2.347013 1_555
Ag2 O94 2.379711 1_555
Ag2 O66 2.397774 1_555
Ag2 O43 2.634012 1_555
Ag2 O98 2.660773 1_555
Ag2 O58 2.776113 1_555
Ag3 O77 2.347013 1_555
Ag3 O95 2.379711 1_555
Ag3 O67 2.397774 1_655
Ag3 O42 2.634012 1_555
Ag3 O99 2.660773 1_655
Ag3 O59 2.776113 1_555
Ag4 O74 2.269068 1_545
Ag4 O90 2.423137 1_555
Ag4 O68 2.447840 1_655
Ag4 O46 2.535830 1_555
Ag4 O60 2.693329 1_555
Ag4 O102 2.808286 1_645
Ag5 O75 2.269068 1_565
Ag5 O91 2.423137 1_555
Ag5 O69 2.447840 1_555
Ag5 O47 2.535830 1_555
Ag5 O61 2.693329 1_555
Ag5 O103 2.808286 1_565
Ag6 O72 2.269068 1_565
Ag6 O88 2.423137 1_555
Ag6 O70 2.447840 1_455
Ag6 O44 2.535830 1_555
Ag6 O62 2.693329 1_555
Ag6 O100 2.808286 1_465
Ag7 O73 2.269068 1_545
Ag7 O89 2.423137 1_555
Ag7 O71 2.447840 1_555
Ag7 O45 2.535830 1_555
Ag7 O63 2.693329 1_555
Ag7 O101 2.808286 1_545
Ag8 O5 2.373932 1_555
Ag8 O104 2.564214 1_555
Ag8 O36 2.583599 1_555
Ag8 O78 2.631976 1_555
Ag8 O41 2.767994 1_555
Ag9 O4 2.373932 1_455
Ag9 O105 2.564214 1_555
Ag9 O37 2.583599 1_555
Ag9 O79 2.631976 1_555
Ag9 O40 2.767994 1_555
Ag10 O7 2.373932 1_555
Ag10 O106 2.564214 1_555
Ag10 O38 2.583599 1_555
Ag10 O76 2.631976 1_555
Ag10 O43 2.767994 1_555
Ag11 O6 2.373932 1_655
Ag11 O107 2.564214 1_555
Ag11 O39 2.583599 1_555
Ag11 O77 2.631976 1_555
Ag11 O42 2.767994 1_555
Ag12 O73 2.418309 1_555
Ag12 O32 2.538336 1_555
Ag12 O1 2.546031 1_555
Ag12 O45 2.623693 1_565
Ag13 O72 2.418309 1_555
Ag13 O33 2.538336 1_555
Ag13 O0 2.546031 1_455
Ag13 O44 2.623693 1_545
Ag14 O75 2.418309 1_555
Ag14 O34 2.538336 1_555
Ag14 O3 2.546031 1_555
Ag14 O47 2.623693 1_545
Ag15 O74 2.418309 1_555
Ag15 O35 2.538336 1_555
Ag15 O2 2.546031 1_655
Ag15 O46 2.623693 1_565
Ag16 O4 2.369190 1_555
Ag16 O45 2.459380 1_555
Ag16 O17 2.573826 1_555
Ag16 O24 2.729274 1_555
Ag17 O5 2.369190 1_555
Ag17 O44 2.459380 1_555
Ag17 O16 2.573826 1_555
Ag17 O25 2.729274 1_555
Ag18 O6 2.369190 1_555
Ag18 O47 2.459380 1_555
Ag18 O19 2.573826 1_555
Ag18 O26 2.729274 1_555
Ag19 O7 2.369190 1_555
Ag19 O46 2.459380 1_555
Ag19 O18 2.573826 1_555
Ag19 O27 2.729274 1_555
Ag20 O41 2.518663 1_555
Ag20 O52 2.523477 1_555
Ag20 O13 2.549803 1_555
Ag21 O40 2.518663 1_555
Ag21 O53 2.523477 1_555
Ag21 O12 2.549803 1_555
Ag22 O43 2.518663 1_555
Ag22 O54 2.523477 1_555
Ag22 O15 2.549803 1_555
Ag23 O42 2.518663 1_555
Ag23 O55 2.523477 1_555
Ag23 O14 2.549803 1_555
Ag24 O0 2.272350 1_555
Ag24 O78 2.289913 1_555
Ag24 O41 2.673904 1_555
Ag25 O1 2.272350 1_555
Ag25 O79 2.289913 1_555
Ag25 O40 2.673904 1_555
Ag26 O2 2.272350 1_555
Ag26 O76 2.289913 1_555
Ag26 O43 2.673904 1_555
Ag27 O3 2.272350 1_555
Ag27 O77 2.289913 1_555
Ag27 O42 2.673904 1_555
O0 P0 1.533921 1_655
O1 P1 1.533921 1_555
O2 P2 1.533921 1_455
O3 P3 1.533921 1_555
O4 P4 1.513938 1_655
O5 P5 1.513938 1_555
O6 P6 1.513938 1_455
O7 P7 1.513938 1_555
O8 P0 1.532328 1_555
O9 P1 1.532328 1_555
O10 P2 1.532328 1_555
O11 P3 1.532328 1_555
O12 P4 1.557835 1_565
O13 P5 1.557835 1_545
O14 P6 1.557835 1_545
O15 P7 1.557835 1_565
O16 P0 1.551773 1_555
O17 P1 1.551773 1_555
O18 P2 1.551773 1_555
O19 P3 1.551773 1_555
O20 P4 1.541070 1_555
O21 P5 1.541070 1_555
O22 P6 1.541070 1_555
O23 P7 1.541070 1_555
O24 P8 1.636537 1_555
O24 P0 1.647226 1_655
O25 P9 1.636537 1_555
O25 P1 1.647226 1_555
O26 P10 1.636537 1_555
O26 P2 1.647226 1_455
O27 P11 1.636537 1_555
O27 P3 1.647226 1_555
O28 P12 1.636784 1_545
O28 P4 1.652725 1_655
O29 P13 1.636784 1_565
O29 P5 1.652725 1_555
O30 P14 1.636784 1_565
O30 P6 1.652725 1_455
O31 P15 1.636784 1_545
O31 P7 1.652725 1_555
O32 P8 1.552230 1_555
O33 P9 1.552230 1_555
O34 P10 1.552230 1_555
O35 P11 1.552230 1_555
O36 P12 1.552020 1_555
O37 P13 1.552020 1_555
O38 P14 1.552020 1_555
O39 P15 1.552020 1_555
O40 P8 1.526385 1_455
O41 P9 1.526385 1_555
O42 P10 1.526385 1_655
O43 P11 1.526385 1_555
O44 P12 1.520851 1_455
O45 P13 1.520851 1_555
O46 P14 1.520851 1_655
O47 P15 1.520851 1_555
O48 P8 1.537839 1_555
O49 P9 1.537839 1_555
O50 P10 1.537839 1_555
O51 P11 1.537839 1_555
O52 P12 1.544714 1_545
O53 P13 1.544714 1_565
O54 P14 1.544714 1_565
O55 P15 1.544714 1_545
O56 P16 1.547668 1_555
O57 P17 1.547668 1_455
O58 P18 1.547668 1_555
O59 P19 1.547668 1_655
O60 P20 1.540468 1_655
O61 P21 1.540468 1_555
O62 P22 1.540468 1_455
O63 P23 1.540468 1_555
O64 P16 1.549038 1_555
O65 P17 1.549038 1_555
O66 P18 1.549038 1_555
O67 P19 1.549038 1_555
O68 P20 1.537316 1_555
O69 P21 1.537316 1_555
O70 P22 1.537316 1_555
O71 P23 1.537316 1_555
O72 P16 1.507823 1_555
O73 P17 1.507823 1_555
O74 P18 1.507823 1_555
O75 P19 1.507823 1_555
O76 P20 1.530103 1_555
O77 P21 1.530103 1_555
O78 P22 1.530103 1_555
O79 P23 1.530103 1_555
O80 P24 1.609907 1_555
O80 P18 1.634928 1_555
O81 P25 1.609907 1_456
O81 P19 1.634928 1_555
O82 P26 1.609907 1_555
O82 P16 1.634928 1_555
O83 P27 1.609907 1_654
O83 P17 1.634928 1_555
O84 P28 1.619132 1_455
O84 P20 1.626258 1_555
O85 P29 1.619132 1_556
O85 P21 1.626258 1_555
O86 P30 1.619132 1_655
O86 P22 1.626258 1_555
O87 P31 1.619132 1_554
O87 P23 1.626258 1_555
O88 P24 1.540097 1_555
O89 P25 1.540097 1_555
O90 P26 1.540097 1_555
O91 P27 1.540097 1_555
O92 P28 1.542275 1_555
O93 P29 1.542275 1_555
O94 P30 1.542275 1_555
O95 P31 1.542275 1_555
O96 P24 1.535356 1_555
O97 P25 1.535356 1_555
O98 P26 1.535356 1_555
O99 P27 1.535356 1_555
O100 P28 1.529746 1_555
O101 P29 1.529746 1_555
O102 P30 1.529746 1_555
O103 P31 1.529746 1_555
O104 P24 1.536177 1_555
O105 P25 1.536177 1_455
O106 P26 1.536177 1_555
O107 P27 1.536177 1_655
O108 P28 1.538377 1_455
O109 P29 1.538377 1_555
O110 P30 1.538377 1_655
O111 P31 1.538377 1_555
