# generated using pymatgen
data_Er11Sn10
_symmetry_space_group_name_H-M   'P 1'
_cell_length_a   11.38856043
_cell_length_b   11.38867477
_cell_length_c   11.60881849
_cell_angle_alpha   119.37464794
_cell_angle_beta   119.36367164
_cell_angle_gamma   90.00000000
_symmetry_Int_Tables_number   1
_chemical_formula_structural   Er11Sn10
_chemical_formula_sum   'Er22 Sn20'
_cell_volume   1084.65535171
_cell_formula_units_Z   2
loop_
 _symmetry_equiv_pos_site_id
 _symmetry_equiv_pos_as_xyz
  1  'x, y, z'
loop_
 _atom_site_type_symbol
 _atom_site_label
 _atom_site_symmetry_multiplicity
 _atom_site_fract_x
 _atom_site_fract_y
 _atom_site_fract_z
 _atom_site_occupancy
  Er  Er0  1  0.93727406  0.18861264  0.37722528  1
  Er  Er1  1  0.43998515  0.18862602  0.37725103  1
  Er  Er2  1  0.18861095  0.43996793  0.37723785  1
  Er  Er3  1  0.18861095  0.93726992  0.37723785  1
  Er  Er4  1  0.06272594  0.81138736  0.62277472  1
  Er  Er5  1  0.56001485  0.81137398  0.62274897  1
  Er  Er6  1  0.81138905  0.56003207  0.62276215  1
  Er  Er7  1  0.81138905  0.06273008  0.62276215  1
  Er  Er8  1  0.82646576  0.17346769  0.99993255  1
  Er  Er9  1  0.17353424  0.82653231  0.00006745  1
  Er  Er10  1  0.17353424  0.17353514  0.00006745  1
  Er  Er11  1  0.82646576  0.82646486  0.99993255  1
  Er  Er12  1  0.33384690  0.33389734  0.66779667  1
  Er  Er13  1  0.66615310  0.66610266  0.33220333  1
  Er  Er14  1  0.06634421  0.39775984  0.79552168  1
  Er  Er15  1  0.72926582  0.39779543  0.79559186  1
  Er  Er16  1  0.39776511  0.72922219  0.79555815  1
  Er  Er17  1  0.39776511  0.06633596  0.79555815  1
  Er  Er18  1  0.93365579  0.60224016  0.20447832  1
  Er  Er19  1  0.27073418  0.60220457  0.20440814  1
  Er  Er20  1  0.60223489  0.27077781  0.20444185  1
  Er  Er21  1  0.60223489  0.93366404  0.20444185  1
  Sn  Sn0  1  0.00000000  0.35499960  0.00000000  1
  Sn  Sn1  1  -0.00000000  0.64500040  -0.00000000  1
  Sn  Sn2  1  0.35500267  0.00000452  0.00000805  1
  Sn  Sn3  1  0.64499733  -0.00000452  -0.00000805  1
  Sn  Sn4  1  0.11305799  0.11309072  0.22618143  1
  Sn  Sn5  1  0.88694201  0.88690928  0.77381857  1
  Sn  Sn6  1  0.63012853  0.37011759  0.00024228  1
  Sn  Sn7  1  0.36987147  0.62988241  0.99975772  1
  Sn  Sn8  1  0.36987147  0.36987431  0.99975772  1
  Sn  Sn9  1  0.63012853  0.63012569  0.00024228  1
  Sn  Sn10  1  0.74997406  0.25000059  0.50000018  1
  Sn  Sn11  1  0.25002594  0.74999941  0.49999982  1
  Sn  Sn12  1  0.11849016  0.53029630  0.64878319  1
  Sn  Sn13  1  0.53040145  0.11843617  0.64883426  1
  Sn  Sn14  1  0.53040145  0.53039709  0.64883426  1
  Sn  Sn15  1  0.11849016  0.11848588  0.64878319  1
  Sn  Sn16  1  0.88150984  0.46970370  0.35121681  1
  Sn  Sn17  1  0.46959855  0.88156383  0.35116574  1
  Sn  Sn18  1  0.46959855  0.46960291  0.35116574  1
  Sn  Sn19  1  0.88150984  0.88151412  0.35121681  1
loop_
_geom_bond_atom_site_label_1
_geom_bond_atom_site_label_2
_geom_bond_distance
_geom_bond_site_symmetry_2
Er0 Sn10 3.012340 1_555
Er0 Sn4 3.128101 1_655
Er0 Sn12 3.305232 1_655
Er0 Sn15 3.305240 1_655
Er0 Sn3 3.368614 1_555
Er0 Sn19 3.391549 1_545
Er0 Sn16 3.391561 1_555
Er0 Er12 3.754707 1_655
Er1 Sn10 3.011918 1_555
Er1 Sn4 3.129610 1_555
Er1 Sn14 3.305712 1_555
Er1 Sn13 3.305728 1_555
Er1 Sn2 3.368108 1_555
Er1 Sn18 3.390566 1_555
Er1 Sn17 3.390566 1_545
Er1 Er12 3.754810 1_555
Er2 Sn11 3.012152 1_555
Er2 Sn4 3.128880 1_555
Er2 Sn12 3.304624 1_555
Er2 Sn14 3.306307 1_555
Er2 Sn0 3.368367 1_555
Er2 Sn18 3.390556 1_555
Er2 Sn16 3.391501 1_455
Er3 Sn11 3.012162 1_555
Er3 Sn4 3.128880 1_565
Er3 Sn15 3.304622 1_565
Er3 Sn13 3.306305 1_565
Er3 Sn1 3.368367 1_555
Er3 Sn17 3.390554 1_555
Er3 Sn19 3.391499 1_455
Er4 Sn11 3.012340 1_555
Er4 Sn5 3.128101 1_455
Er4 Sn16 3.305232 1_455
Er4 Sn19 3.305240 1_455
Er4 Sn2 3.368614 1_566
Er4 Sn15 3.391549 1_565
Er4 Sn12 3.391561 1_555
Er5 Sn11 3.011918 1_555
Er5 Sn5 3.129610 1_555
Er5 Sn18 3.305712 1_555
Er5 Sn17 3.305728 1_555
Er5 Sn3 3.368108 1_566
Er5 Sn14 3.390566 1_555
Er5 Sn13 3.390566 1_565
Er6 Sn10 3.012152 1_555
Er6 Sn5 3.128880 1_555
Er6 Sn16 3.304624 1_555
Er6 Sn18 3.306307 1_555
Er6 Sn1 3.368367 1_656
Er6 Sn14 3.390556 1_555
Er6 Sn12 3.391501 1_655
Er7 Sn10 3.012162 1_555
Er7 Sn5 3.128880 1_545
Er7 Sn19 3.304622 1_545
Er7 Sn17 3.306305 1_545
Er7 Sn0 3.368367 1_656
Er7 Sn13 3.390554 1_555
Er7 Sn15 3.391499 1_655
Er8 Sn0 2.859520 1_656
Er8 Sn3 2.859529 1_556
Er8 Sn6 3.164714 1_556
Er8 Sn5 3.374031 1_545
Er8 Sn4 3.374725 1_656
Er8 Sn13 3.519999 1_555
Er8 Sn16 3.521488 1_556
Er9 Sn1 2.859520 1_555
Er9 Sn2 2.859529 1_565
Er9 Sn7 3.164714 1_554
Er9 Sn4 3.374031 1_565
Er9 Sn5 3.374725 1_454
Er9 Sn17 3.519999 1_555
Er9 Sn12 3.521488 1_554
Er10 Sn0 2.859520 1_555
Er10 Sn2 2.859521 1_555
Er10 Sn8 3.164706 1_554
Er10 Sn4 3.374031 1_555
Er10 Sn5 3.374725 1_444
Er10 Sn18 3.520004 1_555
Er10 Sn15 3.521483 1_554
Er11 Sn1 2.859520 1_656
Er11 Sn3 2.859521 1_566
Er11 Sn9 3.164706 1_556
Er11 Sn5 3.374031 1_555
Er11 Sn4 3.374725 1_666
Er11 Sn14 3.520004 1_555
Er11 Sn19 3.521483 1_556
Er12 Sn15 3.319683 1_555
Er12 Sn12 3.319691 1_555
Er12 Sn13 3.321712 1_555
Er12 Sn14 3.321720 1_555
Er12 Sn8 3.476703 1_555
Er12 Sn7 3.476707 1_555
Er12 Sn6 3.480964 1_556
Er12 Sn9 3.480979 1_556
Er12 Sn4 3.693123 1_555
Er12 Er3 3.754772 1_545
Er12 Er2 3.754789 1_555
Er13 Sn19 3.319683 1_555
Er13 Sn16 3.319691 1_555
Er13 Sn17 3.321712 1_555
Er13 Sn18 3.321720 1_555
Er13 Sn9 3.476703 1_555
Er13 Sn6 3.476707 1_555
Er13 Sn7 3.480964 1_554
Er13 Sn8 3.480979 1_554
Er13 Sn5 3.693123 1_555
Er13 Er4 3.754707 1_655
Er13 Er7 3.754772 1_565
Er13 Er6 3.754789 1_555
Er13 Er5 3.754810 1_555
Er14 Sn15 3.007875 1_555
Er14 Sn12 3.007884 1_555
Er14 Sn0 3.055437 1_556
Er14 Sn1 3.055449 1_556
Er14 Sn10 3.130028 1_455
Er14 Sn8 3.220617 1_555
Er14 Sn7 3.220622 1_555
Er15 Sn14 3.008715 1_555
Er15 Sn13 3.008715 1_555
Er15 Sn0 3.055214 1_656
Er15 Sn1 3.055220 1_656
Er15 Sn10 3.129073 1_555
Er15 Sn6 3.222337 1_556
Er15 Sn9 3.222348 1_556
Er16 Sn14 3.008279 1_555
Er16 Sn12 3.008307 1_555
Er16 Sn2 3.055081 1_566
Er16 Sn3 3.055586 1_566
Er16 Sn11 3.129571 1_555
Er16 Sn7 3.220207 1_555
Er16 Sn9 3.222849 1_556
Er17 Sn13 3.008273 1_555
Er17 Sn15 3.008301 1_555
Er17 Sn2 3.055074 1_556
Er17 Sn3 3.055593 1_556
Er17 Sn11 3.129578 1_545
Er17 Sn8 3.220199 1_555
Er17 Sn6 3.222858 1_556
Er18 Sn19 3.007875 1_555
Er18 Sn16 3.007884 1_555
Er18 Sn1 3.055437 1_655
Er18 Sn0 3.055449 1_655
Er18 Sn11 3.130028 1_655
Er18 Sn9 3.220617 1_555
Er18 Sn6 3.220622 1_555
Er19 Sn18 3.008715 1_555
Er19 Sn17 3.008715 1_555
Er19 Sn1 3.055214 1_555
Er19 Sn0 3.055220 1_555
Er19 Sn11 3.129073 1_555
Er19 Sn7 3.222337 1_554
Er19 Sn8 3.222348 1_554
Er20 Sn18 3.008279 1_555
Er20 Sn16 3.008307 1_555
Er20 Sn3 3.055081 1_555
Er20 Sn2 3.055586 1_555
Er20 Sn10 3.129571 1_555
Er20 Sn6 3.220207 1_555
Er20 Sn8 3.222849 1_554
Er21 Sn17 3.008273 1_555
Er21 Sn19 3.008301 1_555
Er21 Sn3 3.055074 1_565
Er21 Sn2 3.055593 1_565
Er21 Sn10 3.129578 1_565
Er21 Sn9 3.220199 1_555
Er21 Sn7 3.222858 1_554
Sn0 Sn1 3.302725 1_555
Sn2 Sn3 3.302713 1_555
Sn6 Sn9 2.961148 1_555
Sn6 Sn8 2.961198 1_554
Sn7 Sn8 2.961148 1_555
Sn7 Sn9 2.961198 1_556
Sn12 Sn16 2.865537 1_455
Sn12 Sn7 3.179672 1_555
Sn13 Sn17 2.864618 1_545
Sn13 Sn6 3.183153 1_556
Sn14 Sn18 2.864626 1_555
Sn14 Sn9 3.183146 1_556
Sn15 Sn19 2.865530 1_445
Sn15 Sn8 3.179673 1_555
Sn16 Sn6 3.179672 1_555
Sn17 Sn7 3.183153 1_554
Sn18 Sn8 3.183146 1_554
Sn19 Sn9 3.179673 1_555
