# generated using pymatgen
data_Sr2MgZn2Sn2(PO4)4
_symmetry_space_group_name_H-M   'P 1'
_cell_length_a   5.81896086
_cell_length_b   7.35736327
_cell_length_c   10.78103588
_cell_angle_alpha   112.57686227
_cell_angle_beta   107.91232143
_cell_angle_gamma   94.88035669
_symmetry_Int_Tables_number   1
_chemical_formula_structural   Sr2MgZn2Sn2(PO4)4
_chemical_formula_sum   'Sr2 Mg1 Zn2 Sn2 P4 O16'
_cell_volume   394.54075921
_cell_formula_units_Z   1
loop_
 _symmetry_equiv_pos_site_id
 _symmetry_equiv_pos_as_xyz
  1  'x, y, z'
loop_
 _atom_site_type_symbol
 _atom_site_label
 _atom_site_symmetry_multiplicity
 _atom_site_fract_x
 _atom_site_fract_y
 _atom_site_fract_z
 _atom_site_occupancy
  Sr  Sr0  1  0.37510073  0.65664301  0.97736761  1
  Sr  Sr1  1  0.78772539  0.10989637  0.93489982  1
  Mg  Mg0  1  0.09785191  0.96944262  0.19010618  1
  Zn  Zn0  1  0.05855947  0.42623245  0.57101235  1
  Zn  Zn1  1  0.89717874  0.65180263  0.34641117  1
  Sn  Sn0  1  0.59893483  0.85221070  0.53904220  1
  Sn  Sn1  1  0.42329486  0.24146761  0.58239033  1
  P  P0  1  0.27432068  0.43527764  0.19026715  1
  P  P1  1  0.81146236  0.62180935  0.82168909  1
  P  P2  1  0.70323272  0.04020983  0.28062445  1
  P  P3  1  0.17359298  0.92012140  0.71328459  1
  O  O0  1  0.96430802  0.77087480  0.98165723  1
  O  O1  1  0.55547419  0.50422641  0.21923704  1
  O  O2  1  0.68037482  0.73879758  0.74079748  1
  O  O3  1  0.97064331  0.04339264  0.72039378  1
  O  O4  1  0.61032924  0.46078775  0.81924542  1
  O  O5  1  0.05829103  0.71277380  0.56993010  1
  O  O6  1  0.75597046  0.25780699  0.39513780  1
  O  O7  1  0.29873398  0.89890137  0.85120318  1
  O  O8  1  0.20320949  0.22047847  0.17751008  1
  O  O9  1  0.72631964  0.02328691  0.13692318  1
  O  O10  1  0.12411621  0.43182475  0.04318526  1
  O  O11  1  0.20115987  0.58742899  0.31367456  1
  O  O12  1  0.98370137  0.50475454  0.75397878  1
  O  O13  1  0.44326164  0.91605738  0.24495310  1
  O  O14  1  0.91701339  0.92827512  0.33097533  1
  O  O15  1  0.38917168  0.03818091  0.69160275  1
loop_
_geom_bond_atom_site_label_1
_geom_bond_atom_site_label_2
_geom_bond_distance
_geom_bond_site_symmetry_2
Mg0 O8 1.963848 1_565
Mg0 O0 2.000050 1_454
Mg0 O13 2.031086 1_555
Mg0 O9 2.171929 1_465
Mg0 O14 2.188053 1_455
Sn1 Zn0 2.612713 1_555
O0 P1 1.551239 1_555
O0 Sr0 2.608145 1_655
O0 Sr1 2.935032 1_565
O1 P0 1.566611 1_555
O1 Zn1 1.955756 1_555
O1 Sr0 3.149720 1_554
O2 P1 1.536925 1_555
O2 Sn0 2.545363 1_555
O2 Sr1 2.596632 1_565
O3 P3 1.551656 1_645
O3 Sn0 2.291048 1_545
O3 Sr1 2.730265 1_555
O4 P1 1.579602 1_555
O4 Sn1 2.266419 1_555
O4 Sr0 2.596307 1_555
O5 P3 1.594878 1_555
O5 Zn0 2.112826 1_555
O5 Zn1 2.143796 1_455
O6 P2 1.532020 1_555
O6 Zn0 2.000503 1_655
O7 P3 1.515616 1_555
O7 Sr0 2.617052 1_555
O7 Sr1 2.813182 1_565
O8 P0 1.540940 1_555
O8 Sr1 2.736774 1_454
O9 P2 1.554503 1_555
O9 Sr1 2.604447 1_554
O9 Sr0 2.783700 1_544
O10 P0 1.546535 1_555
O10 Sr1 2.546915 1_454
O10 Sr0 2.549524 1_554
O11 P0 1.578096 1_555
O11 Zn1 1.968739 1_455
O11 Sn0 2.682354 1_555
O12 P1 1.547018 1_555
O12 Zn0 2.027525 1_655
O12 Sr0 2.522413 1_655
O13 P2 1.551774 1_565
O13 Sr0 2.657447 1_554
O14 P2 1.619440 1_565
O14 Zn1 2.100095 1_555
O15 P3 1.591736 1_545
O15 Sn1 2.260133 1_555
O15 Sn0 2.420396 1_545
O15 Sr1 2.743037 1_555
