# generated using pymatgen
data_CsInTe2
_symmetry_space_group_name_H-M   'P 1'
_cell_length_a   8.89209290
_cell_length_b   8.89209290
_cell_length_c   18.31159199
_cell_angle_alpha   83.05628673
_cell_angle_beta   83.05628673
_cell_angle_gamma   89.95088478
_symmetry_Int_Tables_number   1
_chemical_formula_structural   CsInTe2
_chemical_formula_sum   'Cs8 In8 Te16'
_cell_volume   1426.58454616
_cell_formula_units_Z   8
loop_
 _symmetry_equiv_pos_site_id
 _symmetry_equiv_pos_as_xyz
  1  'x, y, z'
loop_
 _atom_site_type_symbol
 _atom_site_label
 _atom_site_symmetry_multiplicity
 _atom_site_fract_x
 _atom_site_fract_y
 _atom_site_fract_z
 _atom_site_occupancy
  Cs  Cs0  1  0.77892087  0.65279613  0.38738795  1
  Cs  Cs1  1  0.34720387  0.22107913  0.11261205  1
  Cs  Cs2  1  0.22107913  0.34720387  0.61261205  1
  Cs  Cs3  1  0.65279613  0.77892087  0.88738795  1
  Cs  Cs4  1  0.84851092  0.22300946  0.10371781  1
  Cs  Cs5  1  0.77699054  0.15148908  0.39628219  1
  Cs  Cs6  1  0.15148908  0.77699054  0.89628219  1
  Cs  Cs7  1  0.22300946  0.84851092  0.60371781  1
  In  In0  1  0.08487596  0.70901374  0.16544653  1
  In  In1  1  0.29098626  0.91512404  0.33455347  1
  In  In2  1  0.91512404  0.29098626  0.83455347  1
  In  In3  1  0.70901374  0.08487596  0.66544653  1
  In  In4  1  0.29098253  0.41791183  0.33333277  1
  In  In5  1  0.58208817  0.70901747  0.16666723  1
  In  In6  1  0.70901747  0.58208817  0.66666723  1
  In  In7  1  0.41791183  0.29098253  0.83333277  1
  Te  Te0  1  0.26602429  0.64125542  0.42980226  1
  Te  Te1  1  0.35874458  0.73397571  0.07019774  1
  Te  Te2  1  0.73397571  0.35874458  0.57019774  1
  Te  Te3  1  0.64125542  0.26602429  0.92980226  1
  Te  Te4  1  0.85612286  0.73374142  0.07037768  1
  Te  Te5  1  0.26625858  0.14387714  0.42962232  1
  Te  Te6  1  0.14387714  0.26625858  0.92962232  1
  Te  Te7  1  0.73374142  0.85612286  0.57037768  1
  Te  Te8  1  0.04859242  0.42370498  0.24906909  1
  Te  Te9  1  0.57629502  0.95140758  0.25093091  1
  Te  Te10  1  0.95140758  0.57629502  0.75093091  1
  Te  Te11  1  0.42370498  0.04859242  0.74906909  1
  Te  Te12  1  0.04864593  0.95135407  0.25000000  1
  Te  Te13  1  0.95135407  0.04864593  0.75000000  1
  Te  Te14  1  0.57645857  0.42354143  0.25000000  1
  Te  Te15  1  0.42354143  0.57645857  0.75000000  1
loop_
_geom_bond_atom_site_label_1
_geom_bond_atom_site_label_2
_geom_bond_distance
_geom_bond_site_symmetry_2
Cs0 Te2 3.970457 1_555
Cs0 Te7 3.974474 1_555
Cs0 Te9 4.002093 1_555
Cs0 Te12 4.008330 1_655
Cs0 Te14 4.008426 1_555
Cs0 Te8 4.010714 1_655
Cs1 Te3 3.970457 1_554
Cs1 Te6 3.974474 1_554
Cs1 Te8 4.002093 1_555
Cs1 Te12 4.008330 1_545
Cs1 Te14 4.008426 1_555
Cs1 Te9 4.010714 1_545
Cs2 Te0 3.970457 1_555
Cs2 Te5 3.974474 1_555
Cs2 Te11 4.002093 1_555
Cs2 Te13 4.008330 1_455
Cs2 Te15 4.008426 1_555
Cs2 Te10 4.010714 1_455
Cs3 Te1 3.970457 1_556
Cs3 Te4 3.974474 1_556
Cs3 Te10 4.002093 1_555
Cs3 Te13 4.008330 1_565
Cs3 Te15 4.008426 1_555
Cs3 Te11 4.010714 1_565
Cs4 Te3 3.848142 1_554
Cs4 Te6 3.858748 1_654
Cs4 Te8 3.966513 1_655
Cs4 Te12 3.969641 1_645
Cs4 Te14 3.973369 1_555
Cs4 Te9 3.977048 1_545
Cs4 Te4 4.465074 1_545
Cs4 Te4 4.508044 1_555
Cs5 Te2 3.848142 1_555
Cs5 Te7 3.858748 1_545
Cs5 Te9 3.966513 1_545
Cs5 Te12 3.969641 1_645
Cs5 Te14 3.973369 1_555
Cs5 Te8 3.977048 1_655
Cs5 Te5 4.465074 1_655
Cs5 Te5 4.508044 1_555
Cs6 Te1 3.848142 1_556
Cs6 Te4 3.858748 1_456
Cs6 Te10 3.966513 1_455
Cs6 Te13 3.969641 1_465
Cs6 Te15 3.973369 1_555
Cs6 Te11 3.977048 1_565
Cs6 Te6 4.465074 1_565
Cs6 Te6 4.508044 1_555
Cs7 Te0 3.848142 1_555
Cs7 Te5 3.858748 1_565
Cs7 Te11 3.966513 1_565
Cs7 Te13 3.969641 1_465
Cs7 Te15 3.973369 1_555
Cs7 Te10 3.977048 1_455
Cs7 Te7 4.465074 1_455
Cs7 Te7 4.508044 1_555
In0 Te8 2.797827 1_555
In0 Te12 2.798146 1_555
In0 Te1 2.811085 1_555
In0 Te4 2.824776 1_455
In1 Te9 2.797827 1_555
In1 Te12 2.798146 1_555
In1 Te0 2.811085 1_555
In1 Te5 2.824776 1_565
In2 Te10 2.797827 1_555
In2 Te13 2.798146 1_555
In2 Te3 2.811085 1_555
In2 Te6 2.824776 1_655
In3 Te11 2.797827 1_555
In3 Te13 2.798146 1_555
In3 Te2 2.811085 1_555
In3 Te7 2.824776 1_545
In4 Te8 2.795313 1_555
In4 Te14 2.796440 1_555
In4 Te0 2.804762 1_555
In4 Te5 2.821935 1_555
In5 Te9 2.795313 1_555
In5 Te14 2.796440 1_555
In5 Te1 2.804762 1_555
In5 Te4 2.821935 1_555
In6 Te10 2.795313 1_555
In6 Te15 2.796440 1_555
In6 Te2 2.804762 1_555
In6 Te7 2.821935 1_555
In7 Te11 2.795313 1_555
In7 Te15 2.796440 1_555
In7 Te3 2.804762 1_555
In7 Te6 2.821935 1_555
