# generated using pymatgen
data_KCuH3
_symmetry_space_group_name_H-M   'P 1'
_cell_length_a   5.37148094
_cell_length_b   5.37148094
_cell_length_c   5.37148094
_cell_angle_alpha   114.42237784
_cell_angle_beta   114.42237784
_cell_angle_gamma   99.96693585
_symmetry_Int_Tables_number   1
_chemical_formula_structural   KCuH3
_chemical_formula_sum   'K2 Cu2 H6'
_cell_volume   116.90322189
_cell_formula_units_Z   2
loop_
 _symmetry_equiv_pos_site_id
 _symmetry_equiv_pos_as_xyz
  1  'x, y, z'
loop_
 _atom_site_type_symbol
 _atom_site_label
 _atom_site_symmetry_multiplicity
 _atom_site_fract_x
 _atom_site_fract_y
 _atom_site_fract_z
 _atom_site_occupancy
  K  K0  1  0.75000000  0.75000000  0.00000000  1
  K  K1  1  0.25000000  0.25000000  -0.00000000  1
  Cu  Cu0  1  0.50000000  0.00000000  0.50000000  1
  Cu  Cu1  1  -0.00000000  0.50000000  0.50000000  1
  H  H0  1  0.81060760  0.31060760  0.12121519  1
  H  H1  1  0.75000000  0.25000000  0.50000000  1
  H  H2  1  0.68939240  0.81060760  0.50000000  1
  H  H3  1  0.25000000  0.75000000  0.50000000  1
  H  H4  1  0.31060760  0.18939240  0.50000000  1
  H  H5  1  0.18939240  0.68939240  0.87878481  1
loop_
_geom_bond_atom_site_label_1
_geom_bond_atom_site_label_2
_geom_bond_distance
_geom_bond_site_symmetry_2
Cu0 H4 1.558244 1_555
Cu0 H2 1.558244 1_545
Cu0 H1 1.726954 1_555
Cu0 H3 1.726954 1_545
Cu1 H0 1.558244 1_455
Cu1 H5 1.558244 1_555
Cu1 H1 1.726954 1_455
Cu1 H3 1.726954 1_555
H0 K0 2.731640 1_555
H0 K1 2.731640 1_655
H0 K0 2.731640 1_545
H0 K1 2.731640 1_555
H1 K1 2.908894 1_656
H1 K0 2.908894 1_556
H1 K1 2.908894 1_555
H1 K0 2.908894 1_545
H2 K0 2.731640 1_555
H2 K1 2.731640 1_555
H2 K0 2.731640 1_556
H2 K1 2.731640 1_666
H3 K1 2.908894 1_566
H3 K0 2.908894 1_455
H3 K0 2.908894 1_556
H3 K1 2.908894 1_555
H4 K1 2.731640 1_555
H4 K0 2.731640 1_556
H4 K0 2.731640 1_445
H4 K1 2.731640 1_556
H5 K1 2.731640 1_556
H5 K0 2.731640 1_456
H5 K0 2.731640 1_556
H5 K1 2.731640 1_566
