# generated using pymatgen
data_Li7Mn4CoO12
_symmetry_space_group_name_H-M   'P 1'
_cell_length_a   5.85792380
_cell_length_b   14.48068656
_cell_length_c   5.90144545
_cell_angle_alpha   88.27683256
_cell_angle_beta   119.29017053
_cell_angle_gamma   89.67957745
_symmetry_Int_Tables_number   1
_chemical_formula_structural   Li7Mn4CoO12
_chemical_formula_sum   'Li14 Mn8 Co2 O24'
_cell_volume   436.28450720
_cell_formula_units_Z   2
loop_
 _symmetry_equiv_pos_site_id
 _symmetry_equiv_pos_as_xyz
  1  'x, y, z'
loop_
 _atom_site_type_symbol
 _atom_site_label
 _atom_site_symmetry_multiplicity
 _atom_site_fract_x
 _atom_site_fract_y
 _atom_site_fract_z
 _atom_site_occupancy
  Li  Li0  1  0.16819500  0.33512400  0.32767000  1
  Li  Li1  1  0.16984400  0.34088000  0.83696900  1
  Li  Li2  1  0.67352200  0.82785700  0.33358700  1
  Li  Li3  1  0.67131100  0.82969900  0.83639100  1
  Li  Li4  1  0.16572700  0.83254600  0.83347300  1
  Li  Li5  1  0.16442800  0.83222200  0.33318200  1
  Li  Li6  1  0.34792600  0.17198400  0.18294300  1
  Li  Li7  1  0.34493100  0.16936900  0.67860500  1
  Li  Li8  1  0.98744000  0.49697000  0.48403800  1
  Li  Li9  1  0.98805700  0.49828800  0.98275300  1
  Li  Li10  1  0.84133700  0.67357700  0.17933100  1
  Li  Li11  1  0.83909100  0.67276300  0.67764200  1
  Li  Li12  1  0.49290500  0.99323400  0.99214400  1
  Li  Li13  1  0.48673700  0.98861200  0.48180700  1
  Mn  Mn0  1  0.00939300  0.99348900  0.00119200  1
  Mn  Mn1  1  0.00628600  0.99377900  0.49843500  1
  Mn  Mn2  1  0.32218400  0.67391800  0.17148800  1
  Mn  Mn3  1  0.32180000  0.67411400  0.67018400  1
  Mn  Mn4  1  0.83531100  0.16596500  0.66634100  1
  Mn  Mn5  1  0.83566900  0.16520800  0.16531200  1
  Mn  Mn6  1  0.49591900  0.49984000  0.49775900  1
  Mn  Mn7  1  0.49557100  0.50132800  0.99775400  1
  Co  Co0  1  0.66760600  0.33459000  0.32982100  1
  Co  Co1  1  0.67437700  0.33477300  0.83373400  1
  O  O0  1  0.13763800  0.07649100  0.30943500  1
  O  O1  1  0.13275800  0.07536700  0.80548300  1
  O  O2  1  0.19172700  0.59366600  0.86194600  1
  O  O3  1  0.18843500  0.59436900  0.36132700  1
  O  O4  1  0.98293500  0.23632300  0.47955300  1
  O  O5  1  0.99881400  0.24533700  0.01907600  1
  O  O6  1  0.34071400  0.42129000  0.15224800  1
  O  O7  1  0.34007900  0.41729100  0.64854900  1
  O  O8  1  0.82264600  0.41491300  0.66208800  1
  O  O9  1  0.81189900  0.41561500  0.13755900  1
  O  O10  1  0.53000400  0.24780200  0.52616300  1
  O  O11  1  0.52909400  0.24409500  0.00666600  1
  O  O12  1  0.63827200  0.58299600  0.34312600  1
  O  O13  1  0.63442300  0.58356500  0.83597300  1
  O  O14  1  0.68915100  0.08290000  0.32014300  1
  O  O15  1  0.70235600  0.08964900  0.85745700  1
  O  O16  1  0.48132700  0.74129000  0.99500400  1
  O  O17  1  0.47959300  0.74174300  0.49346400  1
  O  O18  1  0.85405800  0.92622900  0.17770900  1
  O  O19  1  0.84861300  0.92860800  0.67789900  1
  O  O20  1  0.30799600  0.92462200  0.15062300  1
  O  O21  1  0.31001400  0.92632300  0.65354300  1
  O  O22  1  0.02114700  0.74435400  0.01563900  1
  O  O23  1  0.02074100  0.74503400  0.51677300  1
loop_
_geom_bond_atom_site_label_1
_geom_bond_atom_site_label_2
_geom_bond_distance
_geom_bond_site_symmetry_2
Li0 O7 2.073333 1_555
Li0 O5 2.092920 1_455
Li0 O9 2.139255 1_455
Li0 O6 2.147096 1_555
Li0 O10 2.216945 1_555
Li0 O4 2.218129 1_455
Li1 O6 2.034849 1_556
Li1 O8 2.050909 1_455
Li1 O7 2.116253 1_555
Li1 O5 2.247776 1_456
Li1 O11 2.283936 1_556
Li1 O4 2.427158 1_455
Li2 O23 2.118351 1_655
Li2 O17 2.174759 1_555
Li2 O16 2.190142 1_554
Li2 O18 2.209934 1_555
Li2 O20 2.308111 1_555
Li2 O19 2.337754 1_555
Li3 O22 2.148937 1_656
Li3 O16 2.171841 1_555
Li3 O19 2.211693 1_555
Li3 O17 2.219518 1_555
Li3 O18 2.287659 1_556
Li3 O21 2.289743 1_555
Li4 O16 2.060429 1_555
Li4 O22 2.079513 1_556
Li4 O23 2.102768 1_555
Li4 O19 2.110504 1_455
Li4 O21 2.119021 1_555
Li4 O20 2.147470 1_556
Li5 O17 2.051714 1_555
Li5 O18 2.065303 1_455
Li5 O23 2.073230 1_555
Li5 O22 2.109864 1_555
Li5 O20 2.114414 1_555
Li5 O21 2.179167 1_555
Li6 O5 2.055384 1_455
Li6 O11 2.079951 1_555
Li6 O10 2.116272 1_555
Li6 O14 2.154045 1_555
Li6 O0 2.200812 1_555
Li6 O1 2.442963 1_554
Li7 O11 2.044108 1_556
Li7 O10 2.044823 1_555
Li7 O4 2.070697 1_455
Li7 O15 2.137262 1_555
Li7 O1 2.196941 1_555
Li7 O0 2.373979 1_555
Li8 O8 2.092401 1_555
Li8 O7 2.117714 1_655
Li8 O12 2.161459 1_555
Li8 O3 2.165965 1_655
Li8 O9 2.174230 1_555
Li8 O2 2.441652 1_655
Li9 O9 2.050162 1_556
Li9 O8 2.081822 1_555
Li9 O6 2.096827 1_656
Li9 O2 2.151919 1_655
Li9 O13 2.172068 1_555
Li9 O3 2.438069 1_656
Li10 O22 2.010279 1_655
Li10 O23 2.056490 1_655
Li10 O16 2.064051 1_554
Li10 O3 2.089588 1_655
Li10 O13 2.246634 1_554
Li10 O12 2.266306 1_555
Li11 O23 2.017415 1_655
Li11 O22 2.060599 1_656
Li11 O17 2.070152 1_555
Li11 O2 2.112410 1_655
Li11 O12 2.206780 1_555
Li11 O13 2.240475 1_555
Li12 O20 1.995624 1_556
Li12 O21 2.028024 1_555
Li12 O18 2.064632 1_556
Li12 O1 2.167504 1_565
Li12 O14 2.178261 1_566
Li12 O15 2.234522 1_565
Li13 O20 1.972887 1_555
Li13 O21 1.973452 1_555
Li13 O19 2.026451 1_555
Li13 O0 2.166506 1_565
Li13 O14 2.286264 1_565
Li13 O15 2.475172 1_565
Mn0 O20 1.802809 1_555
Mn0 O18 1.933425 1_455
Mn0 O19 1.941467 1_454
Mn0 O1 2.001464 1_564
Mn0 O0 2.030391 1_565
Mn0 O15 2.074026 1_464
Mn1 O21 1.814079 1_555
Mn1 O19 1.942214 1_455
Mn1 O18 1.950415 1_455
Mn1 O0 2.010066 1_565
Mn1 O1 2.013239 1_565
Mn1 O14 2.050056 1_465
Mn2 O22 1.825508 1_555
Mn2 O16 1.950567 1_554
Mn2 O17 1.957895 1_555
Mn2 O3 1.996812 1_555
Mn2 O2 2.010759 1_554
Mn2 O12 2.060423 1_555
Mn3 O23 1.829233 1_555
Mn3 O17 1.947574 1_555
Mn3 O16 1.965607 1_555
Mn3 O2 1.998178 1_555
Mn3 O3 2.002355 1_555
Mn3 O13 2.042814 1_555
Mn4 O10 1.938297 1_555
Mn4 O4 1.968754 1_555
Mn4 O15 1.973347 1_555
Mn4 O1 1.985227 1_655
Mn4 O5 2.185635 1_556
Mn4 O14 2.191287 1_555
Mn5 O11 1.916838 1_555
Mn5 O14 1.924950 1_555
Mn5 O5 1.940014 1_555
Mn5 O4 1.950178 1_555
Mn5 O15 1.961786 1_554
Mn5 O0 1.984846 1_655
Mn6 O12 1.915167 1_555
Mn6 O7 1.948660 1_555
Mn6 O8 2.049847 1_555
Mn6 O3 2.062404 1_555
Mn6 O6 2.148288 1_555
Mn6 O13 2.164257 1_555
Mn7 O13 1.921861 1_555
Mn7 O6 1.937765 1_556
Mn7 O9 2.017850 1_556
Mn7 O2 2.027655 1_555
Mn7 O12 2.177269 1_556
Mn7 O7 2.209984 1_555
Co0 O9 2.061040 1_555
Co0 O6 2.066824 1_555
Co0 O10 2.099850 1_555
Co0 O8 2.104552 1_555
Co0 O4 2.124998 1_555
Co0 O11 2.158857 1_555
Co1 O8 1.982074 1_555
Co1 O9 1.989403 1_556
Co1 O10 2.059936 1_555
Co1 O7 2.063569 1_555
Co1 O11 2.066820 1_556
Co1 O5 2.083006 1_556
