# generated using pymatgen
data_Sr2NdBeO5
_symmetry_space_group_name_H-M   'P 1'
_cell_length_a   6.61751700
_cell_length_b   7.45618000
_cell_length_c   9.69899500
_cell_angle_alpha   90.00000000
_cell_angle_beta   90.00000000
_cell_angle_gamma   90.00000000
_symmetry_Int_Tables_number   1
_chemical_formula_structural   Sr2NdBeO5
_chemical_formula_sum   'Sr8 Nd4 Be4 O20'
_cell_volume   478.56197157
_cell_formula_units_Z   4
loop_
 _symmetry_equiv_pos_site_id
 _symmetry_equiv_pos_as_xyz
  1  'x, y, z'
loop_
 _atom_site_type_symbol
 _atom_site_label
 _atom_site_symmetry_multiplicity
 _atom_site_fract_x
 _atom_site_fract_y
 _atom_site_fract_z
 _atom_site_occupancy
  Sr  Sr0  1  0.58573500  0.52494200  0.82686200  1
  Sr  Sr1  1  0.41426500  0.47505800  0.17313800  1
  Sr  Sr2  1  0.08573500  0.47505800  0.67313800  1
  Sr  Sr3  1  0.41426500  0.02494200  0.17313800  1
  Sr  Sr4  1  0.91426500  0.52494200  0.32686200  1
  Sr  Sr5  1  0.58573500  0.97505800  0.82686200  1
  Sr  Sr6  1  0.91426500  0.97505800  0.32686200  1
  Sr  Sr7  1  0.08573500  0.02494200  0.67313800  1
  Nd  Nd0  1  0.09368700  0.75000000  0.97077800  1
  Nd  Nd1  1  0.90631300  0.25000000  0.02922200  1
  Nd  Nd2  1  0.59368700  0.25000000  0.52922200  1
  Nd  Nd3  1  0.40631300  0.75000000  0.47077800  1
  Be  Be0  1  0.81082400  0.75000000  0.60276900  1
  Be  Be1  1  0.18917600  0.25000000  0.39723100  1
  Be  Be2  1  0.31082400  0.25000000  0.89723100  1
  Be  Be3  1  0.68917600  0.75000000  0.10276900  1
  O  O0  1  0.32579000  0.75000000  0.71953000  1
  O  O1  1  0.67421000  0.25000000  0.28047000  1
  O  O2  1  0.82579000  0.25000000  0.78047000  1
  O  O3  1  0.17421000  0.75000000  0.21953000  1
  O  O4  1  0.68819900  0.56449800  0.56473400  1
  O  O5  1  0.31180100  0.43550200  0.43526600  1
  O  O6  1  0.18819900  0.43550200  0.93526600  1
  O  O7  1  0.31180100  0.06449800  0.43526600  1
  O  O8  1  0.81180100  0.56449800  0.06473400  1
  O  O9  1  0.68819900  0.93550200  0.56473400  1
  O  O10  1  0.81180100  0.93550200  0.06473400  1
  O  O11  1  0.18819900  0.06449800  0.93526600  1
  O  O12  1  0.02937400  0.75000000  0.51388900  1
  O  O13  1  0.97062600  0.25000000  0.48611100  1
  O  O14  1  0.52937400  0.25000000  0.98611100  1
  O  O15  1  0.47062600  0.75000000  0.01388900  1
  O  O16  1  0.87216500  0.75000000  0.76991600  1
  O  O17  1  0.12783500  0.25000000  0.23008400  1
  O  O18  1  0.37216500  0.25000000  0.73008400  1
  O  O19  1  0.62783500  0.75000000  0.26991600  1
loop_
_geom_bond_atom_site_label_1
_geom_bond_atom_site_label_2
_geom_bond_distance
_geom_bond_site_symmetry_2
Nd0 O16 2.438086 1_455
Nd0 O11 2.451246 1_565
Nd0 O6 2.451246 1_555
Nd0 O3 2.470788 1_556
Nd0 O10 2.494626 1_456
Nd0 O8 2.494626 1_456
Nd0 O15 2.529203 1_556
Nd0 O0 2.880518 1_555
Nd1 O17 2.438086 1_655
Nd1 O8 2.451246 1_555
Nd1 O10 2.451246 1_545
Nd1 O2 2.470788 1_554
Nd1 O11 2.494626 1_654
Nd1 O6 2.494626 1_654
Nd1 O14 2.529203 1_554
Nd1 O1 2.880518 1_555
Nd2 O18 2.438086 1_555
Nd2 O4 2.451246 1_555
Nd2 O9 2.451246 1_545
Nd2 O1 2.470788 1_555
Nd2 O7 2.494626 1_555
Nd2 O5 2.494626 1_555
Nd2 O13 2.529203 1_555
Nd2 O2 2.880518 1_555
Nd3 O19 2.438086 1_555
Nd3 O7 2.451246 1_565
Nd3 O5 2.451246 1_555
Nd3 O0 2.470788 1_555
Nd3 O9 2.494626 1_555
Nd3 O4 2.494626 1_555
Nd3 O12 2.529203 1_555
Nd3 O3 2.880518 1_555
Be0 O9 1.645492 1_555
Be0 O4 1.645492 1_555
Be0 O16 1.671206 1_555
Be0 O12 1.683683 1_655
Be1 O7 1.645492 1_555
Be1 O5 1.645492 1_555
Be1 O17 1.671206 1_555
Be1 O13 1.683683 1_455
Be2 O11 1.645492 1_555
Be2 O6 1.645492 1_555
Be2 O18 1.671206 1_555
Be2 O14 1.683683 1_555
Be3 O10 1.645492 1_555
Be3 O8 1.645492 1_555
Be3 O19 1.671206 1_555
Be3 O15 1.683683 1_555
O0 Sr0 2.618910 1_555
O0 Sr5 2.618910 1_555
O0 Sr7 2.632219 1_565
O0 Sr2 2.632219 1_555
O1 Sr1 2.618910 1_555
O1 Sr3 2.618910 1_555
O1 Sr4 2.632219 1_555
O1 Sr6 2.632219 1_545
O2 Sr2 2.618910 1_655
O2 Sr7 2.618910 1_655
O2 Sr0 2.632219 1_555
O2 Sr5 2.632219 1_545
O3 Sr4 2.618910 1_455
O3 Sr6 2.618910 1_455
O3 Sr3 2.632219 1_565
O3 Sr1 2.632219 1_555
O4 Sr0 2.647723 1_555
O4 Sr4 2.765464 1_555
O4 Sr2 2.910461 1_655
O5 Sr1 2.647723 1_555
O5 Sr2 2.765464 1_555
O5 Sr4 2.910461 1_455
O6 Sr2 2.647723 1_555
O6 Sr1 2.765464 1_556
O6 Sr0 2.910461 1_555
O7 Sr3 2.647723 1_555
O7 Sr7 2.765464 1_555
O7 Sr6 2.910461 1_445
O8 Sr4 2.647723 1_555
O8 Sr0 2.765464 1_554
O8 Sr1 2.910461 1_555
O9 Sr5 2.647723 1_555
O9 Sr6 2.765464 1_555
O9 Sr7 2.910461 1_665
O10 Sr6 2.647723 1_555
O10 Sr5 2.765464 1_554
O10 Sr3 2.910461 1_565
O11 Sr7 2.647723 1_555
O11 Sr3 2.765464 1_556
O11 Sr5 2.910461 1_545
O12 Sr4 2.585860 1_455
O12 Sr6 2.585860 1_455
O12 Sr7 2.593709 1_565
O12 Sr2 2.593709 1_555
O13 Sr7 2.585860 1_655
O13 Sr2 2.585860 1_655
O13 Sr6 2.593709 1_545
O13 Sr4 2.593709 1_555
O14 Sr1 2.585860 1_556
O14 Sr3 2.585860 1_556
O14 Sr0 2.593709 1_555
O14 Sr5 2.593709 1_545
O15 Sr5 2.585860 1_554
O15 Sr0 2.585860 1_554
O15 Sr1 2.593709 1_555
O15 Sr3 2.593709 1_565
O16 Sr0 2.591088 1_555
O16 Sr5 2.591088 1_555
O16 Sr7 2.661026 1_665
O16 Sr2 2.661026 1_655
O17 Sr3 2.591088 1_555
O17 Sr1 2.591088 1_555
O17 Sr4 2.661026 1_455
O17 Sr6 2.661026 1_445
O18 Sr2 2.591088 1_555
O18 Sr7 2.591088 1_555
O18 Sr5 2.661026 1_545
O18 Sr0 2.661026 1_555
O19 Sr6 2.591088 1_555
O19 Sr4 2.591088 1_555
O19 Sr3 2.661026 1_565
O19 Sr1 2.661026 1_555
