# generated using pymatgen
data_Rb3Li2Al(MoO4)4
_symmetry_space_group_name_H-M   'P 1'
_cell_length_a   10.65993017
_cell_length_b   10.65993017
_cell_length_c   10.65993017
_cell_angle_alpha   109.15178931
_cell_angle_beta   109.15178931
_cell_angle_gamma   110.11198973
_symmetry_Int_Tables_number   1
_chemical_formula_structural   Rb3Li2Al(MoO4)4
_chemical_formula_sum   'Rb6 Li4 Al2 Mo8 O32'
_cell_volume   932.39598621
_cell_formula_units_Z   2
loop_
 _symmetry_equiv_pos_site_id
 _symmetry_equiv_pos_as_xyz
  1  'x, y, z'
loop_
 _atom_site_type_symbol
 _atom_site_label
 _atom_site_symmetry_multiplicity
 _atom_site_fract_x
 _atom_site_fract_y
 _atom_site_fract_z
 _atom_site_occupancy
  Rb  Rb0  1  0.76139200  0.37500000  0.88639200  1
  Rb  Rb1  1  0.48860800  0.87500000  0.11360800  1
  Rb  Rb2  1  0.12500000  0.23860800  0.61360800  1
  Rb  Rb3  1  0.62500000  0.51139200  0.38639200  1
  Rb  Rb4  1  0.00000000  0.00000000  0.00000000  1
  Rb  Rb5  1  0.25000000  0.75000000  0.50000000  1
  Li  Li0  1  0.24916900  0.37500000  0.37416900  1
  Li  Li1  1  0.00083100  0.87500000  0.62583100  1
  Li  Li2  1  0.12500000  0.75083100  0.12583100  1
  Li  Li3  1  0.62500000  0.99916900  0.87416900  1
  Al  Al0  1  0.50000000  0.50000000  0.00000000  1
  Al  Al1  1  0.75000000  0.25000000  0.50000000  1
  Mo  Mo0  1  0.38039100  0.12694100  0.44689600  1
  Mo  Mo1  1  0.68004500  0.93349600  0.55310400  1
  Mo  Mo2  1  0.06650400  0.61960900  0.74654900  1
  Mo  Mo3  1  0.86960900  0.81650400  0.24654900  1
  Mo  Mo4  1  0.87305900  0.31995500  0.25345100  1
  Mo  Mo5  1  0.56995500  0.62305900  0.75345100  1
  Mo  Mo6  1  0.18349600  0.43004500  0.05310400  1
  Mo  Mo7  1  0.37694100  0.13039100  0.94689600  1
  O  O0  1  0.24767900  0.37573200  0.19145200  1
  O  O1  1  0.18428000  0.05622700  0.80854800  1
  O  O2  1  0.94377300  0.75232100  0.12805300  1
  O  O3  1  0.00232100  0.69377300  0.62805300  1
  O  O4  1  0.62426800  0.81572000  0.87194700  1
  O  O5  1  0.06572000  0.37426800  0.37194700  1
  O  O6  1  0.30622700  0.93428000  0.30854800  1
  O  O7  1  0.62573200  0.99767900  0.69145200  1
  O  O8  1  0.25912500  0.19709800  0.37797200  1
  O  O9  1  0.81912500  0.88115300  0.62202800  1
  O  O10  1  0.11884700  0.74087500  0.93797200  1
  O  O11  1  0.99087500  0.86884700  0.43797200  1
  O  O12  1  0.80290200  0.18087500  0.06202800  1
  O  O13  1  0.43087500  0.55290200  0.56202800  1
  O  O14  1  0.13115300  0.56912500  0.12202800  1
  O  O15  1  0.44709800  0.00912500  0.87797200  1
  O  O16  1  0.51688900  0.76539400  0.39109900  1
  O  O17  1  0.37429500  0.12579000  0.60890100  1
  O  O18  1  0.87421000  0.48311100  0.24850500  1
  O  O19  1  0.73311100  0.62421000  0.74850500  1
  O  O20  1  0.23460600  0.62570500  0.75149500  1
  O  O21  1  0.87570500  0.98460600  0.25149500  1
  O  O22  1  0.37579000  0.12429500  0.10890100  1
  O  O23  1  0.01539400  0.26688900  0.89109900  1
  O  O24  1  0.58656900  0.25179700  0.50422300  1
  O  O25  1  0.74757500  0.08234600  0.49577700  1
  O  O26  1  0.91765400  0.41343100  0.66522900  1
  O  O27  1  0.66343100  0.66765400  0.16522900  1
  O  O28  1  0.74820300  0.25242500  0.33477100  1
  O  O29  1  0.50242500  0.49820300  0.83477100  1
  O  O30  1  0.33234600  0.49757500  0.99577800  1
  O  O31  1  0.50179700  0.33656900  0.00422200  1
loop_
_geom_bond_atom_site_label_1
_geom_bond_atom_site_label_2
_geom_bond_distance
_geom_bond_site_symmetry_2
Li0 O0 1.945200 1_555
Li0 O5 1.945200 1_555
Li0 O8 1.948169 1_555
Li0 O13 1.948177 1_555
Li1 O1 1.945200 1_565
Li1 O3 1.945200 1_555
Li1 O9 1.948180 1_455
Li1 O11 1.948180 1_455
Li2 O6 1.945200 1_555
Li2 O2 1.945200 1_455
Li2 O10 1.948180 1_554
Li2 O14 1.948180 1_555
Li3 O7 1.945200 1_555
Li3 O4 1.945200 1_555
Li3 O15 1.948169 1_565
Li3 O12 1.948177 1_566
Al0 O31 1.763904 1_555
Al0 O27 1.763911 1_555
Al0 O29 1.763914 1_554
Al0 O30 1.763914 1_554
Al1 O24 1.763908 1_555
Al1 O25 1.763911 1_555
Al1 O26 1.763911 1_555
Al1 O28 1.763914 1_555
Mo0 O17 1.753214 1_555
Mo0 O6 1.774518 1_545
Mo0 O8 1.781116 1_555
Mo0 O24 1.883810 1_555
Mo1 O16 1.753218 1_555
Mo1 O7 1.774515 1_555
Mo1 O9 1.781115 1_555
Mo1 O25 1.883803 1_565
Mo2 O20 1.753222 1_555
Mo2 O3 1.774507 1_555
Mo2 O10 1.781112 1_555
Mo2 O26 1.883811 1_455
Mo3 O21 1.753222 1_555
Mo3 O2 1.774507 1_555
Mo3 O11 1.781112 1_555
Mo3 O27 1.883811 1_555
Mo4 O18 1.753218 1_555
Mo4 O5 1.774515 1_655
Mo4 O12 1.781112 1_555
Mo4 O28 1.883796 1_555
Mo5 O19 1.753218 1_555
Mo5 O4 1.774515 1_555
Mo5 O13 1.781112 1_555
Mo5 O29 1.883796 1_555
Mo6 O23 1.753218 1_554
Mo6 O0 1.774515 1_555
Mo6 O14 1.781115 1_555
Mo6 O30 1.883796 1_554
Mo7 O22 1.753214 1_556
Mo7 O1 1.774518 1_555
Mo7 O15 1.781116 1_555
Mo7 O31 1.883813 1_556
O0 Rb4 3.317641 1_555
O0 Rb3 3.336396 1_555
O1 Rb4 3.317641 1_556
O1 Rb2 3.336396 1_555
O2 Rb4 3.317641 1_665
O2 Rb0 3.336396 1_554
O3 Rb5 3.317641 1_555
O3 Rb3 3.336396 1_455
O4 Rb4 3.317641 1_666
O4 Rb1 3.336396 1_556
O5 Rb5 3.317641 1_555
O5 Rb2 3.336396 1_555
O6 Rb5 3.317641 1_555
O6 Rb1 3.336396 1_555
O7 Rb5 3.317641 1_555
O7 Rb0 3.336396 1_565
O8 Rb2 3.257565 1_555
O8 Rb4 3.380854 1_555
O9 Rb3 3.257566 1_555
O9 Rb4 3.380855 1_666
O10 Rb1 3.257566 1_556
O10 Rb4 3.380855 1_566
O11 Rb2 3.257566 1_665
O11 Rb5 3.380855 1_655
O12 Rb0 3.257564 1_554
O12 Rb4 3.380864 1_655
O13 Rb3 3.257564 1_555
O13 Rb5 3.380864 1_555
O14 Rb0 3.257566 1_454
O14 Rb5 3.380855 1_555
O15 Rb1 3.257565 1_546
O15 Rb5 3.380854 1_545
O16 Rb3 3.279751 1_555
O16 Rb5 3.382259 1_555
O16 Rb1 3.482935 1_555
O17 Rb2 3.279751 1_555
O17 Rb5 3.382259 1_545
O17 Rb0 3.482935 1_555
O18 Rb0 3.279751 1_554
O18 Rb5 3.382259 1_655
O18 Rb3 3.482935 1_555
O19 Rb3 3.279751 1_555
O19 Rb4 3.382259 1_666
O19 Rb0 3.482935 1_555
O20 Rb1 3.279751 1_556
O20 Rb5 3.382259 1_555
O20 Rb2 3.482935 1_555
O21 Rb2 3.279751 1_665
O21 Rb4 3.382259 1_665
O21 Rb1 3.482935 1_555
O22 Rb1 3.279751 1_545
O22 Rb4 3.382259 1_555
O22 Rb3 3.482935 1_555
O23 Rb0 3.279751 1_455
O23 Rb4 3.382259 1_556
O23 Rb2 3.482935 1_555
O24 Rb3 3.352905 1_555
O24 Rb0 3.408685 1_555
O25 Rb2 3.352895 1_655
O25 Rb1 3.408687 1_545
O26 Rb0 3.352895 1_555
O26 Rb2 3.408687 1_655
O27 Rb3 3.352895 1_555
O27 Rb1 3.408687 1_555
O28 Rb1 3.352897 1_545
O28 Rb3 3.408695 1_555
O29 Rb2 3.352897 1_555
O29 Rb0 3.408695 1_555
O30 Rb1 3.352897 1_556
O30 Rb2 3.408695 1_555
O31 Rb0 3.352897 1_554
O31 Rb3 3.408695 1_555
