# generated using pymatgen
data_Rb2W(OF2)2
_symmetry_space_group_name_H-M   'P 1'
_cell_length_a   6.15499693
_cell_length_b   6.15499693
_cell_length_c   4.97973497
_cell_angle_alpha   88.28195603
_cell_angle_beta   88.28195603
_cell_angle_gamma   59.83385989
_symmetry_Int_Tables_number   1
_chemical_formula_structural   Rb2W(OF2)2
_chemical_formula_sum   'Rb2 W1 O2 F4'
_cell_volume   163.00580431
_cell_formula_units_Z   1
loop_
 _symmetry_equiv_pos_site_id
 _symmetry_equiv_pos_as_xyz
  1  'x, y, z'
loop_
 _atom_site_type_symbol
 _atom_site_label
 _atom_site_symmetry_multiplicity
 _atom_site_fract_x
 _atom_site_fract_y
 _atom_site_fract_z
 _atom_site_occupancy
  Rb  Rb0  1  0.32897200  0.32897200  0.31390700  1
  Rb  Rb1  1  0.67102800  0.67102800  0.68609300  1
  W  W0  1  0.00000000  0.00000000  0.00000000  1
  O  O0  1  0.14502200  0.14502200  0.78684000  1
  O  O1  1  0.85497800  0.85497800  0.21316000  1
  F  F0  1  0.69600300  0.15753900  0.77900600  1
  F  F1  1  0.15753900  0.69600300  0.77900600  1
  F  F2  1  0.30399700  0.84246100  0.22099400  1
  F  F3  1  0.84246100  0.30399700  0.22099400  1
loop_
_geom_bond_atom_site_label_1
_geom_bond_atom_site_label_2
_geom_bond_distance
_geom_bond_site_symmetry_2
O0 W0 1.845906 1_556
O0 Rb0 3.013101 1_555
O0 Rb1 3.121302 1_545
O0 Rb1 3.121302 1_455
O0 Rb0 3.331265 1_556
O1 W0 1.845906 1_665
O1 Rb1 3.013101 1_555
O1 Rb0 3.121302 1_565
O1 Rb0 3.121302 1_655
O1 Rb1 3.331265 1_554
F0 W0 1.971899 1_656
F0 Rb0 3.058187 1_555
F0 Rb1 3.107236 1_555
F0 Rb1 3.123226 1_545
F0 Rb0 3.274746 1_556
F1 W0 1.971899 1_566
F1 Rb0 3.058187 1_555
F1 Rb1 3.107236 1_555
F1 Rb1 3.123226 1_455
F1 Rb0 3.274746 1_556
F2 W0 1.971899 1_565
F2 Rb1 3.058187 1_555
F2 Rb0 3.107236 1_555
F2 Rb0 3.123226 1_565
F2 Rb1 3.274746 1_554
F3 W0 1.971899 1_655
F3 Rb1 3.058187 1_555
F3 Rb0 3.107236 1_555
F3 Rb0 3.123226 1_655
F3 Rb1 3.274746 1_554
