# generated using pymatgen
data_Y2Mg3(SiO4)3
_symmetry_space_group_name_H-M   'P 1'
_cell_length_a   10.65661727
_cell_length_b   10.65661727
_cell_length_c   10.65661727
_cell_angle_alpha   109.47122063
_cell_angle_beta   109.47122063
_cell_angle_gamma   109.47122063
_symmetry_Int_Tables_number   1
_chemical_formula_structural   Y2Mg3(SiO4)3
_chemical_formula_sum   'Y8 Mg12 Si12 O48'
_cell_volume   931.61444707
_cell_formula_units_Z   4
loop_
 _symmetry_equiv_pos_site_id
 _symmetry_equiv_pos_as_xyz
  1  'x, y, z'
loop_
 _atom_site_type_symbol
 _atom_site_label
 _atom_site_symmetry_multiplicity
 _atom_site_fract_x
 _atom_site_fract_y
 _atom_site_fract_z
 _atom_site_occupancy
  Y  Y0  1  0.00000000  0.00000000  0.00000000  1
  Y  Y1  1  0.50000000  0.00000000  0.50000000  1
  Y  Y2  1  0.50000000  0.50000000  0.00000000  1
  Y  Y3  1  0.00000000  0.00000000  0.50000000  1
  Y  Y4  1  0.00000000  0.50000000  0.50000000  1
  Y  Y5  1  0.50000000  0.50000000  0.50000000  1
  Y  Y6  1  0.50000000  0.00000000  0.00000000  1
  Y  Y7  1  0.00000000  0.50000000  0.00000000  1
  Mg  Mg0  1  0.87500000  0.62500000  0.75000000  1
  Mg  Mg1  1  0.12500000  0.37500000  0.25000000  1
  Mg  Mg2  1  0.62500000  0.87500000  0.25000000  1
  Mg  Mg3  1  0.62500000  0.75000000  0.87500000  1
  Mg  Mg4  1  0.87500000  0.25000000  0.62500000  1
  Mg  Mg5  1  0.37500000  0.12500000  0.75000000  1
  Mg  Mg6  1  0.37500000  0.25000000  0.12500000  1
  Mg  Mg7  1  0.12500000  0.75000000  0.37500000  1
  Mg  Mg8  1  0.75000000  0.87500000  0.62500000  1
  Mg  Mg9  1  0.25000000  0.12500000  0.37500000  1
  Mg  Mg10  1  0.25000000  0.62500000  0.87500000  1
  Mg  Mg11  1  0.75000000  0.37500000  0.12500000  1
  Si  Si0  1  0.62500000  0.37500000  0.75000000  1
  Si  Si1  1  0.37500000  0.62500000  0.25000000  1
  Si  Si2  1  0.87500000  0.12500000  0.25000000  1
  Si  Si3  1  0.37500000  0.75000000  0.62500000  1
  Si  Si4  1  0.62500000  0.25000000  0.37500000  1
  Si  Si5  1  0.12500000  0.87500000  0.75000000  1
  Si  Si6  1  0.12500000  0.25000000  0.87500000  1
  Si  Si7  1  0.87500000  0.75000000  0.12500000  1
  Si  Si8  1  0.75000000  0.62500000  0.37500000  1
  Si  Si9  1  0.25000000  0.37500000  0.62500000  1
  Si  Si10  1  0.25000000  0.87500000  0.12500000  1
  Si  Si11  1  0.75000000  0.12500000  0.87500000  1
  O  O0  1  0.72629039  0.62936237  0.52251807  1
  O  O1  1  0.27370961  0.37063763  0.47748193  1
  O  O2  1  0.77370961  0.79622769  0.40307198  1
  O  O3  1  0.39315571  0.87063763  0.09692802  1
  O  O4  1  0.62936237  0.52251807  0.72629039  1
  O  O5  1  0.72629039  0.09692802  0.70377231  1
  O  O6  1  0.22629039  0.20377231  0.59692802  1
  O  O7  1  0.60684429  0.12936237  0.90307198  1
  O  O8  1  0.37063763  0.47748193  0.27370961  1
  O  O9  1  0.27370961  0.90307198  0.29622769  1
  O  O10  1  0.10684429  0.70377231  0.97748193  1
  O  O11  1  0.79622769  0.40307198  0.77370961  1
  O  O12  1  0.77370961  0.97748193  0.87063763  1
  O  O13  1  0.89315571  0.29622769  0.02251807  1
  O  O14  1  0.20377231  0.59692802  0.22629039  1
  O  O15  1  0.22629039  0.02251807  0.12936237  1
  O  O16  1  0.87063763  0.09692802  0.39315571  1
  O  O17  1  0.39315571  0.52251807  0.79622769  1
  O  O18  1  0.12936237  0.90307198  0.60684429  1
  O  O19  1  0.60684429  0.47748193  0.20377231  1
  O  O20  1  0.70377231  0.97748193  0.10684429  1
  O  O21  1  0.10684429  0.40307198  0.62936237  1
  O  O22  1  0.29622769  0.02251807  0.89315571  1
  O  O23  1  0.89315571  0.59692802  0.37063763  1
  O  O24  1  0.52251807  0.72629039  0.62936237  1
  O  O25  1  0.62936237  0.10684429  0.40307198  1
  O  O26  1  0.47748193  0.27370961  0.37063763  1
  O  O27  1  0.37063763  0.89315571  0.59692802  1
  O  O28  1  0.09692802  0.39315571  0.87063763  1
  O  O29  1  0.87063763  0.77370961  0.97748193  1
  O  O30  1  0.90307198  0.60684429  0.12936237  1
  O  O31  1  0.12936237  0.22629039  0.02251807  1
  O  O32  1  0.97748193  0.10684429  0.70377231  1
  O  O33  1  0.70377231  0.72629039  0.09692802  1
  O  O34  1  0.02251807  0.89315571  0.29622769  1
  O  O35  1  0.29622769  0.27370961  0.90307198  1
  O  O36  1  0.40307198  0.77370961  0.79622769  1
  O  O37  1  0.79622769  0.39315571  0.52251807  1
  O  O38  1  0.59692802  0.22629039  0.20377231  1
  O  O39  1  0.20377231  0.60684429  0.47748193  1
  O  O40  1  0.09692802  0.70377231  0.72629039  1
  O  O41  1  0.90307198  0.29622769  0.27370961  1
  O  O42  1  0.97748193  0.87063763  0.77370961  1
  O  O43  1  0.02251807  0.12936237  0.22629039  1
  O  O44  1  0.40307198  0.62936237  0.10684429  1
  O  O45  1  0.59692802  0.37063763  0.89315571  1
  O  O46  1  0.52251807  0.79622769  0.39315571  1
  O  O47  1  0.47748193  0.20377231  0.60684429  1
loop_
_geom_bond_atom_site_label_1
_geom_bond_atom_site_label_2
_geom_bond_distance
_geom_bond_site_symmetry_2
Mg0 O40 2.361775 1_655
Mg0 O11 2.361775 1_555
Mg0 O4 2.361775 1_555
Mg0 O42 2.361775 1_555
Mg0 O10 2.439950 1_655
Mg0 O37 2.439950 1_555
Mg0 O0 2.439950 1_555
Mg0 O29 2.439950 1_555
Mg1 O14 2.361775 1_555
Mg1 O41 2.361775 1_455
Mg1 O8 2.361775 1_555
Mg1 O43 2.361775 1_555
Mg1 O13 2.439950 1_455
Mg1 O39 2.439950 1_555
Mg1 O1 2.439950 1_555
Mg1 O31 2.439950 1_555
Mg2 O44 2.361775 1_555
Mg2 O16 2.361775 1_565
Mg2 O46 2.361775 1_555
Mg2 O20 2.361775 1_555
Mg2 O25 2.439950 1_565
Mg2 O33 2.439950 1_555
Mg2 O2 2.439950 1_555
Mg2 O3 2.439950 1_555
Mg3 O33 2.361775 1_556
Mg3 O36 2.361775 1_555
Mg3 O24 2.361775 1_555
Mg3 O29 2.361775 1_555
Mg3 O17 2.439950 1_555
Mg3 O20 2.439950 1_556
Mg3 O4 2.439950 1_555
Mg3 O12 2.439950 1_555
Mg4 O25 2.361775 1_555
Mg4 O28 2.361775 1_655
Mg4 O37 2.361775 1_555
Mg4 O32 2.361775 1_555
Mg4 O21 2.439950 1_655
Mg4 O11 2.439950 1_555
Mg4 O16 2.439950 1_555
Mg4 O5 2.439950 1_555
Mg5 O18 2.361775 1_545
Mg5 O45 2.361775 1_555
Mg5 O47 2.361775 1_555
Mg5 O22 2.361775 1_555
Mg5 O27 2.439950 1_545
Mg5 O35 2.439950 1_555
Mg5 O7 2.439950 1_555
Mg5 O6 2.439950 1_555
Mg6 O35 2.361775 1_554
Mg6 O38 2.361775 1_555
Mg6 O31 2.361775 1_555
Mg6 O26 2.361775 1_555
Mg6 O22 2.439950 1_554
Mg6 O19 2.439950 1_555
Mg6 O8 2.439950 1_555
Mg6 O15 2.439950 1_555
Mg7 O27 2.361775 1_555
Mg7 O30 2.361775 1_455
Mg7 O39 2.361775 1_555
Mg7 O34 2.361775 1_555
Mg7 O23 2.439950 1_455
Mg7 O14 2.439950 1_555
Mg7 O9 2.439950 1_555
Mg7 O18 2.439950 1_555
Mg8 O5 2.361775 1_565
Mg8 O2 2.361775 1_555
Mg8 O0 2.361775 1_555
Mg8 O12 2.361775 1_555
Mg8 O32 2.439950 1_565
Mg8 O46 2.439950 1_555
Mg8 O24 2.439950 1_555
Mg8 O42 2.439950 1_555
Mg9 O9 2.361775 1_545
Mg9 O6 2.361775 1_555
Mg9 O15 2.361775 1_555
Mg9 O1 2.361775 1_555
Mg9 O34 2.439950 1_545
Mg9 O47 2.439950 1_555
Mg9 O26 2.439950 1_555
Mg9 O43 2.439950 1_555
Mg10 O21 2.361775 1_555
Mg10 O3 2.361775 1_556
Mg10 O17 2.361775 1_555
Mg10 O10 2.361775 1_555
Mg10 O44 2.439950 1_556
Mg10 O28 2.439950 1_555
Mg10 O36 2.439950 1_555
Mg10 O40 2.439950 1_555
Mg11 O23 2.361775 1_555
Mg11 O7 2.361775 1_554
Mg11 O19 2.361775 1_555
Mg11 O13 2.361775 1_555
Mg11 O45 2.439950 1_554
Mg11 O38 2.439950 1_555
Mg11 O41 2.439950 1_555
Mg11 O30 2.439950 1_555
O0 Si8 1.661695 1_555
O0 Y5 2.225022 1_555
O1 Si9 1.661695 1_555
O1 Y5 2.225022 1_555
O2 Si8 1.661695 1_555
O2 Y3 2.225022 1_665
O3 Si10 1.661695 1_555
O3 Y6 2.225022 1_565
O4 Si0 1.661695 1_555
O4 Y5 2.225022 1_555
O5 Si11 1.661695 1_555
O5 Y1 2.225022 1_555
O6 Si9 1.661695 1_555
O6 Y3 2.225022 1_555
O7 Si11 1.661695 1_555
O7 Y6 2.225022 1_556
O8 Si1 1.661695 1_555
O8 Y5 2.225022 1_555
O9 Si10 1.661695 1_555
O9 Y1 2.225022 1_565
O10 Si10 1.661695 1_556
O10 Y7 2.225022 1_556
O11 Si0 1.661695 1_555
O11 Y7 2.225022 1_656
O12 Si11 1.661695 1_565
O12 Y0 2.225022 1_666
O13 Si11 1.661695 1_554
O13 Y7 2.225022 1_655
O14 Si1 1.661695 1_555
O14 Y7 2.225022 1_555
O15 Si10 1.661695 1_545
O15 Y0 2.225022 1_555
O16 Si2 1.661695 1_555
O16 Y3 2.225022 1_655
O17 Si9 1.661695 1_555
O17 Y2 2.225022 1_556
O18 Si5 1.661695 1_555
O18 Y3 2.225022 1_565
O19 Si8 1.661695 1_555
O19 Y2 2.225022 1_555
O20 Si2 1.661695 1_565
O20 Y6 2.225022 1_565
O21 Si9 1.661695 1_555
O21 Y4 2.225022 1_555
O22 Si5 1.661695 1_545
O22 Y6 2.225022 1_556
O23 Si8 1.661695 1_555
O23 Y4 2.225022 1_655
O24 Si3 1.661695 1_555
O24 Y5 2.225022 1_555
O25 Si4 1.661695 1_555
O25 Y1 2.225022 1_555
O26 Si4 1.661695 1_555
O26 Y5 2.225022 1_555
O27 Si3 1.661695 1_555
O27 Y1 2.225022 1_565
O28 Si6 1.661695 1_555
O28 Y7 2.225022 1_556
O29 Si7 1.661695 1_556
O29 Y0 2.225022 1_666
O30 Si7 1.661695 1_555
O30 Y7 2.225022 1_655
O31 Si6 1.661695 1_554
O31 Y0 2.225022 1_555
O32 Si6 1.661695 1_655
O32 Y3 2.225022 1_655
O33 Si7 1.661695 1_555
O33 Y2 2.225022 1_555
O34 Si7 1.661695 1_455
O34 Y3 2.225022 1_565
O35 Si6 1.661695 1_555
O35 Y2 2.225022 1_556
O36 Si3 1.661695 1_555
O36 Y6 2.225022 1_566
O37 Si4 1.661695 1_555
O37 Y4 2.225022 1_655
O38 Si4 1.661695 1_555
O38 Y6 2.225022 1_555
O39 Si3 1.661695 1_555
O39 Y4 2.225022 1_555
O40 Si5 1.661695 1_555
O40 Y4 2.225022 1_555
O41 Si2 1.661695 1_555
O41 Y4 2.225022 1_655
O42 Si5 1.661695 1_655
O42 Y0 2.225022 1_666
O43 Si2 1.661695 1_455
O43 Y0 2.225022 1_555
O44 Si1 1.661695 1_555
O44 Y2 2.225022 1_555
O45 Si0 1.661695 1_555
O45 Y2 2.225022 1_556
O46 Si1 1.661695 1_555
O46 Y1 2.225022 1_565
O47 Si0 1.661695 1_555
O47 Y1 2.225022 1_555
