# generated using pymatgen
data_Mg14ZnCrO16
_symmetry_space_group_name_H-M   'P 1'
_cell_length_a   8.50773085
_cell_length_b   8.63146202
_cell_length_c   4.26932326
_cell_angle_alpha   90.00000000
_cell_angle_beta   90.00000000
_cell_angle_gamma   90.00000000
_symmetry_Int_Tables_number   1
_chemical_formula_structural   Mg14ZnCrO16
_chemical_formula_sum   'Mg14 Zn1 Cr1 O16'
_cell_volume   313.51414904
_cell_formula_units_Z   1
loop_
 _symmetry_equiv_pos_site_id
 _symmetry_equiv_pos_as_xyz
  1  'x, y, z'
loop_
 _atom_site_type_symbol
 _atom_site_label
 _atom_site_symmetry_multiplicity
 _atom_site_fract_x
 _atom_site_fract_y
 _atom_site_fract_z
 _atom_site_occupancy
  Mg  Mg0  1  0.50000000  0.00000000  0.00000000  1
  Mg  Mg1  1  0.50000000  0.50000000  0.00000000  1
  Mg  Mg2  1  0.00000000  0.24624864  0.50000000  1
  Mg  Mg3  1  0.00000000  0.75375136  0.50000000  1
  Mg  Mg4  1  0.50000000  0.24935518  0.50000000  1
  Mg  Mg5  1  0.50000000  0.75064482  0.50000000  1
  Mg  Mg6  1  0.24968189  0.00000000  0.50000000  1
  Mg  Mg7  1  0.25103221  0.50000000  0.50000000  1
  Mg  Mg8  1  0.75031811  0.00000000  0.50000000  1
  Mg  Mg9  1  0.74896779  0.50000000  0.50000000  1
  Mg  Mg10  1  0.24950072  0.24725701  0.00000000  1
  Mg  Mg11  1  0.24950072  0.75274299  0.00000000  1
  Mg  Mg12  1  0.75049928  0.24725701  0.00000000  1
  Mg  Mg13  1  0.75049928  0.75274299  0.00000000  1
  Zn  Zn0  1  0.00000000  0.00000000  0.00000000  1
  Cr  Cr0  1  0.00000000  0.50000000  0.00000000  1
  O  O0  1  0.25758241  0.00000000  0.00000000  1
  O  O1  1  0.24979075  0.50000000  0.00000000  1
  O  O2  1  0.74241759  0.00000000  0.00000000  1
  O  O3  1  0.75020925  0.50000000  0.00000000  1
  O  O4  1  0.24953286  0.25072730  0.50000000  1
  O  O5  1  0.24953286  0.74927270  0.50000000  1
  O  O6  1  0.75046714  0.25072730  0.50000000  1
  O  O7  1  0.75046714  0.74927270  0.50000000  1
  O  O8  1  0.00000000  0.00000000  0.50000000  1
  O  O9  1  0.00000000  0.50000000  0.50000000  1
  O  O10  1  0.50000000  0.00000000  0.50000000  1
  O  O11  1  0.50000000  0.50000000  0.50000000  1
  O  O12  1  0.00000000  0.23916780  0.00000000  1
  O  O13  1  0.00000000  0.76083220  0.00000000  1
  O  O14  1  0.50000000  0.25180246  0.00000000  1
  O  O15  1  0.50000000  0.74819754  0.00000000  1
loop_
_geom_bond_atom_site_label_1
_geom_bond_atom_site_label_2
_geom_bond_distance
_geom_bond_site_symmetry_2
Mg0 O2 2.062424 1_555
Mg0 O0 2.062424 1_555
Mg0 O10 2.134662 1_555
Mg0 O10 2.134662 1_554
Mg0 O15 2.173423 1_545
Mg0 O14 2.173423 1_555
Mg1 O1 2.128713 1_555
Mg1 O3 2.128713 1_555
Mg1 O11 2.134662 1_554
Mg1 O11 2.134662 1_555
Mg1 O14 2.142308 1_555
Mg1 O15 2.142308 1_555
Mg2 O6 2.123310 1_455
Mg2 O4 2.123310 1_555
Mg2 O8 2.125486 1_555
Mg2 O12 2.135536 1_556
Mg2 O12 2.135536 1_555
Mg2 O9 2.190245 1_555
Mg3 O7 2.123310 1_455
Mg3 O5 2.123310 1_555
Mg3 O8 2.125486 1_565
Mg3 O13 2.135536 1_555
Mg3 O13 2.135536 1_556
Mg3 O9 2.190245 1_555
Mg4 O6 2.130940 1_555
Mg4 O4 2.130940 1_555
Mg4 O14 2.134766 1_556
Mg4 O14 2.134766 1_555
Mg4 O10 2.152300 1_555
Mg4 O11 2.163431 1_555
Mg5 O5 2.130940 1_555
Mg5 O7 2.130940 1_555
Mg5 O15 2.134766 1_556
Mg5 O15 2.134766 1_555
Mg5 O10 2.152300 1_565
Mg5 O11 2.163431 1_555
Mg6 O8 2.124226 1_555
Mg6 O10 2.129639 1_555
Mg6 O0 2.135720 1_555
Mg6 O0 2.135720 1_556
Mg6 O4 2.164144 1_555
Mg6 O5 2.164144 1_545
Mg7 O11 2.118151 1_555
Mg7 O1 2.134688 1_556
Mg7 O1 2.134688 1_555
Mg7 O9 2.135714 1_555
Mg7 O4 2.151626 1_555
Mg7 O5 2.151626 1_555
Mg8 O8 2.124226 1_655
Mg8 O10 2.129639 1_555
Mg8 O2 2.135720 1_556
Mg8 O2 2.135720 1_555
Mg8 O6 2.164144 1_555
Mg8 O7 2.164144 1_545
Mg9 O11 2.118151 1_555
Mg9 O3 2.134688 1_556
Mg9 O3 2.134688 1_555
Mg9 O9 2.135714 1_655
Mg9 O6 2.151626 1_555
Mg9 O7 2.151626 1_555
Mg10 O12 2.123833 1_555
Mg10 O14 2.131542 1_555
Mg10 O4 2.134872 1_554
Mg10 O4 2.134872 1_555
Mg10 O0 2.135297 1_555
Mg10 O1 2.181543 1_555
Mg11 O13 2.123833 1_555
Mg11 O15 2.131542 1_555
Mg11 O5 2.134872 1_555
Mg11 O5 2.134872 1_554
Mg11 O0 2.135297 1_565
Mg11 O1 2.181543 1_555
Mg12 O12 2.123833 1_655
Mg12 O14 2.131542 1_555
Mg12 O6 2.134872 1_555
Mg12 O6 2.134872 1_554
Mg12 O2 2.135297 1_555
Mg12 O3 2.181543 1_555
Mg13 O13 2.123833 1_655
Mg13 O15 2.131542 1_555
Mg13 O7 2.134872 1_555
Mg13 O7 2.134872 1_554
Mg13 O2 2.135297 1_565
Mg13 O3 2.181543 1_555
Cr0 O3 2.125152 1_455
Cr0 O1 2.125152 1_555
Cr0 O9 2.134662 1_554
Cr0 O9 2.134662 1_555
Cr0 O13 2.251363 1_555
Cr0 O12 2.251363 1_555
O0 Zn0 2.191442 1_555
O2 Zn0 2.191442 1_655
O8 Zn0 2.134662 1_556
O8 Zn0 2.134662 1_555
O12 Zn0 2.064368 1_555
O13 Zn0 2.064368 1_565
