# generated using pymatgen
data_TbB12
_symmetry_space_group_name_H-M   'P 1'
_cell_length_a   5.30180090
_cell_length_b   5.30180090
_cell_length_c   5.30180090
_cell_angle_alpha   60.00000000
_cell_angle_beta   60.00000000
_cell_angle_gamma   60.00000000
_symmetry_Int_Tables_number   1
_chemical_formula_structural   TbB12
_chemical_formula_sum   'Tb1 B12'
_cell_volume   105.37928465
_cell_formula_units_Z   1
loop_
 _symmetry_equiv_pos_site_id
 _symmetry_equiv_pos_as_xyz
  1  'x, y, z'
loop_
 _atom_site_type_symbol
 _atom_site_label
 _atom_site_symmetry_multiplicity
 _atom_site_fract_x
 _atom_site_fract_y
 _atom_site_fract_z
 _atom_site_occupancy
  Tb  Tb0  1  0.00000000  0.00000000  -0.00000000  1
  B  B0  1  0.16221284  0.50000000  0.50000000  1
  B  B1  1  0.16221284  0.50000000  0.83778716  1
  B  B2  1  0.16221284  0.83778716  0.50000000  1
  B  B3  1  0.50000000  0.16221284  0.83778716  1
  B  B4  1  0.50000000  0.16221284  0.50000000  1
  B  B5  1  0.83778716  0.16221284  0.50000000  1
  B  B6  1  0.50000000  0.83778716  0.16221284  1
  B  B7  1  0.83778716  0.50000000  0.16221284  1
  B  B8  1  0.50000000  0.50000000  0.16221284  1
  B  B9  1  0.83778716  0.50000000  0.50000000  1
  B  B10  1  0.50000000  0.83778716  0.50000000  1
  B  B11  1  0.50000000  0.50000000  0.83778716  1
loop_
_geom_bond_atom_site_label_1
_geom_bond_atom_site_label_2
_geom_bond_distance
_geom_bond_site_symmetry_2
B0 B9 1.720040 1_455
B0 B4 1.790880 1_555
B0 B2 1.790880 1_555
B0 B8 1.790880 1_555
B0 B1 1.790880 1_555
B0 Tb0 2.786917 1_556
B0 Tb0 2.786917 1_565
B1 B7 1.720040 1_456
B1 B11 1.790880 1_555
B1 B2 1.790880 1_555
B1 B3 1.790880 1_555
B1 Tb0 2.786917 1_556
B1 Tb0 2.786917 1_566
B2 B5 1.720040 1_465
B2 B6 1.790880 1_555
B2 Tb0 2.786917 1_565
B2 Tb0 2.786917 1_566
B3 B6 1.720040 1_546
B3 B4 1.790880 1_555
B3 B5 1.790880 1_555
B3 Tb0 2.786917 1_556
B3 Tb0 2.786917 1_656
B4 B5 1.790880 1_555
B4 B8 1.790880 1_555
B4 Tb0 2.786917 1_556
B4 Tb0 2.786917 1_655
B5 B9 1.790880 1_555
B5 B7 1.790880 1_555
B5 Tb0 2.786917 1_656
B5 Tb0 2.786917 1_655
B6 B8 1.790880 1_555
B6 B7 1.790880 1_555
B6 Tb0 2.786917 1_565
B6 Tb0 2.786917 1_665
B7 B8 1.790880 1_555
B7 B9 1.790880 1_555
B7 Tb0 2.786917 1_665
B7 Tb0 2.786917 1_655
B8 Tb0 2.786917 1_565
B8 Tb0 2.786917 1_655
B9 Tb0 2.786917 1_665
B9 Tb0 2.786917 1_656
B10 B4 1.720040 1_565
B10 B11 1.790880 1_555
B10 B2 1.790880 1_555
B10 B6 1.790880 1_555
B10 B9 1.790880 1_555
B10 Tb0 2.786917 1_665
B10 Tb0 2.786917 1_566
B11 B8 1.720040 1_556
B11 B3 1.790880 1_555
B11 B9 1.790880 1_555
B11 Tb0 2.786917 1_566
B11 Tb0 2.786917 1_656
