# generated using pymatgen
data_Mg6FeNi
_symmetry_space_group_name_H-M   'P 1'
_cell_length_a   5.99529185
_cell_length_b   5.99529185
_cell_length_c   4.74468700
_cell_angle_alpha   90.00000000
_cell_angle_beta   90.00000000
_cell_angle_gamma   119.99999833
_symmetry_Int_Tables_number   1
_chemical_formula_structural   Mg6FeNi
_chemical_formula_sum   'Mg6 Fe1 Ni1'
_cell_volume   147.69264403
_cell_formula_units_Z   1
loop_
 _symmetry_equiv_pos_site_id
 _symmetry_equiv_pos_as_xyz
  1  'x, y, z'
loop_
 _atom_site_type_symbol
 _atom_site_label
 _atom_site_symmetry_multiplicity
 _atom_site_fract_x
 _atom_site_fract_y
 _atom_site_fract_z
 _atom_site_occupancy
  Mg  Mg0  1  0.82663900  0.65327800  0.00000000  1
  Mg  Mg1  1  0.34672200  0.17336100  0.00000000  1
  Mg  Mg2  1  0.82663900  0.17336100  0.00000000  1
  Mg  Mg3  1  0.17432800  0.34865500  0.50000000  1
  Mg  Mg4  1  0.65134500  0.82567200  0.50000000  1
  Mg  Mg5  1  0.17432800  0.82567200  0.50000000  1
  Fe  Fe0  1  0.33333300  0.66666700  0.00000000  1
  Ni  Ni0  1  0.66666700  0.33333300  0.50000000  1
loop_
_geom_bond_atom_site_label_1
_geom_bond_atom_site_label_2
_geom_bond_distance
_geom_bond_site_symmetry_2
Mg0 Mg2 2.877242 1_555
Mg0 Mg1 2.877243 1_555
Mg0 Ni0 2.896123 1_554
Mg0 Ni0 2.896123 1_555
Mg0 Mg4 2.981093 1_554
Mg0 Mg4 2.981093 1_555
Mg0 Mg5 2.981096 1_654
Mg0 Mg5 2.981096 1_655
Mg0 Mg2 3.118049 1_565
Mg0 Mg1 3.118049 1_665
Mg1 Mg2 2.877242 1_555
Mg1 Ni0 2.896123 1_554
Mg1 Ni0 2.896123 1_555
Mg1 Mg3 2.981093 1_555
Mg1 Mg3 2.981093 1_554
Mg1 Mg5 2.981096 1_544
Mg1 Mg5 2.981096 1_545
Mg1 Mg2 3.118049 1_455
Mg2 Ni0 2.896120 1_555
Mg2 Ni0 2.896120 1_554
Mg2 Mg3 2.981096 1_654
Mg2 Mg3 2.981096 1_655
Mg2 Mg4 2.981096 1_544
Mg2 Mg4 2.981096 1_545
Mg3 Mg5 2.859856 1_555
Mg3 Mg4 2.859856 1_555
Mg3 Ni0 2.998701 1_555
Mg3 Ni0 2.998701 1_455
Mg3 Mg5 3.135436 1_545
Mg3 Mg4 3.135436 1_445
Mg4 Mg5 2.859856 1_555
Mg4 Ni0 2.998701 1_555
Mg4 Ni0 2.998701 1_565
Mg4 Mg5 3.135436 1_655
Mg5 Ni0 2.998701 1_455
Mg5 Ni0 2.998701 1_565
Fe0 Mg5 2.890372 1_555
Fe0 Mg5 2.890372 1_554
Fe0 Mg3 2.890378 1_554
Fe0 Mg4 2.890378 1_554
Fe0 Mg3 2.890378 1_555
Fe0 Mg4 2.890378 1_555
Fe0 Mg1 2.998449 1_565
Fe0 Mg0 2.998449 1_455
Fe0 Mg2 2.998452 1_565
Fe0 Mg2 2.998452 1_455
Fe0 Mg1 2.998455 1_555
Fe0 Mg0 2.998455 1_555
