# generated using pymatgen
data_PrBiRu2O7
_symmetry_space_group_name_H-M   'P 1'
_cell_length_a   7.37612741
_cell_length_b   7.37612741
_cell_length_c   7.37612741
_cell_angle_alpha   120.34621725
_cell_angle_beta   119.56617178
_cell_angle_gamma   90.07721581
_symmetry_Int_Tables_number   1
_chemical_formula_structural   PrBiRu2O7
_chemical_formula_sum   'Pr2 Bi2 Ru4 O14'
_cell_volume   283.94364295
_cell_formula_units_Z   2
loop_
 _symmetry_equiv_pos_site_id
 _symmetry_equiv_pos_as_xyz
  1  'x, y, z'
loop_
 _atom_site_type_symbol
 _atom_site_label
 _atom_site_symmetry_multiplicity
 _atom_site_fract_x
 _atom_site_fract_y
 _atom_site_fract_z
 _atom_site_occupancy
  Pr  Pr0  1  0.50000000  0.50000000  0.00000000  1
  Pr  Pr1  1  0.00000000  0.50000000  0.50000000  1
  Bi  Bi0  1  0.50000000  0.50000000  0.50000000  1
  Bi  Bi1  1  0.50000000  0.00000000  0.00000000  1
  Ru  Ru0  1  0.00000000  0.00000000  0.50000000  1
  Ru  Ru1  1  0.00000000  0.50000000  0.00000000  1
  Ru  Ru2  1  0.00000000  0.00000000  0.00000000  1
  Ru  Ru3  1  0.50000000  0.00000000  0.50000000  1
  O  O0  1  0.62444500  0.37444500  0.25000000  1
  O  O1  1  0.37555500  0.62555500  0.75000000  1
  O  O2  1  0.32709200  0.07187300  0.65320100  1
  O  O3  1  0.91867200  0.07187300  0.24478100  1
  O  O4  1  0.92142200  0.67142200  0.25000000  1
  O  O5  1  0.91867200  0.67389100  0.84679900  1
  O  O6  1  0.32709200  0.67389100  0.25521900  1
  O  O7  1  0.32664700  0.07664700  0.25000000  1
  O  O8  1  0.67290800  0.92812700  0.34679900  1
  O  O9  1  0.08132800  0.92812700  0.75521900  1
  O  O10  1  0.07857800  0.32857800  0.75000000  1
  O  O11  1  0.08132800  0.32610900  0.15320100  1
  O  O12  1  0.67290800  0.32610900  0.74478100  1
  O  O13  1  0.67335300  0.92335300  0.75000000  1
loop_
_geom_bond_atom_site_label_1
_geom_bond_atom_site_label_2
_geom_bond_distance
_geom_bond_site_symmetry_2
Bi0 O0 2.246735 1_555
Bi0 O1 2.246735 1_555
Bi0 O5 2.569770 1_555
Bi0 O12 2.569770 1_555
Bi0 O11 2.569770 1_555
Bi0 O6 2.569770 1_555
Bi0 O13 2.574982 1_555
Bi0 O7 2.574982 1_555
Bi1 O1 2.246735 1_544
Bi1 O0 2.246735 1_555
Bi1 O3 2.569770 1_555
Bi1 O8 2.569770 1_545
Bi1 O9 2.569770 1_544
Bi1 O2 2.569770 1_554
Bi1 O13 2.574982 1_544
Bi1 O7 2.574982 1_555
O0 Pr0 2.271165 1_555
O0 Pr1 2.271165 1_655
O1 Pr1 2.271165 1_555
O1 Pr0 2.271165 1_556
O2 Ru3 2.000854 1_555
O2 Ru0 2.019818 1_555
O2 Pr0 2.598015 1_556
O3 Ru2 2.000854 1_655
O3 Ru0 2.019818 1_655
O3 Pr1 2.598015 1_655
O4 Ru0 2.008954 1_665
O4 Ru1 2.008954 1_655
O4 Pr1 2.576510 1_655
O4 Pr0 2.576510 1_555
O5 Ru2 2.000854 1_666
O5 Ru1 2.019818 1_656
O5 Pr1 2.598015 1_655
O6 Ru3 2.000854 1_565
O6 Ru1 2.019818 1_555
O6 Pr0 2.598015 1_555
O7 Ru3 2.020778 1_555
O7 Ru2 2.020778 1_555
O8 Ru3 2.000854 1_565
O8 Ru0 2.019818 1_665
O8 Pr0 2.598015 1_555
O9 Ru2 2.000854 1_566
O9 Ru0 2.019818 1_565
O9 Pr1 2.598015 1_555
O10 Ru1 2.008954 1_556
O10 Ru0 2.008954 1_555
O10 Pr1 2.576510 1_555
O10 Pr0 2.576510 1_556
O11 Ru2 2.000854 1_555
O11 Ru1 2.019818 1_555
O11 Pr1 2.598015 1_555
O12 Ru3 2.000854 1_555
O12 Ru1 2.019818 1_656
O12 Pr0 2.598015 1_556
O13 Ru3 2.020778 1_565
O13 Ru2 2.020778 1_666
