# generated using pymatgen
data_Mg4Si7
_symmetry_space_group_name_H-M   'P 1'
_cell_length_a   4.08922800
_cell_length_b   6.70465400
_cell_length_c   14.37682851
_cell_angle_alpha   78.90817235
_cell_angle_beta   90.00000000
_cell_angle_gamma   90.00000000
_symmetry_Int_Tables_number   1
_chemical_formula_structural   Mg4Si7
_chemical_formula_sum   'Mg8 Si14'
_cell_volume   386.80447487
_cell_formula_units_Z   2
loop_
 _symmetry_equiv_pos_site_id
 _symmetry_equiv_pos_as_xyz
  1  'x, y, z'
loop_
 _atom_site_type_symbol
 _atom_site_label
 _atom_site_symmetry_multiplicity
 _atom_site_fract_x
 _atom_site_fract_y
 _atom_site_fract_z
 _atom_site_occupancy
  Mg  Mg0  1  0.00000000  0.87336600  0.00968200  1
  Mg  Mg1  1  0.50000000  0.52158400  0.50228200  1
  Mg  Mg2  1  0.00000000  0.27196000  0.66251400  1
  Mg  Mg3  1  0.00000000  0.75824300  0.34330700  1
  Mg  Mg4  1  0.50000000  0.82949800  0.17544300  1
  Mg  Mg5  1  0.50000000  0.20562100  0.84645500  1
  Mg  Mg6  1  0.00000000  0.80268400  0.58267600  1
  Mg  Mg7  1  0.00000000  0.24395800  0.41776200  1
  Si  Si0  1  0.50000000  0.17794100  0.04067200  1
  Si  Si1  1  0.50000000  0.68708800  0.89913100  1
  Si  Si2  1  0.00000000  0.38267600  0.97177800  1
  Si  Si3  1  0.50000000  0.52443400  0.06632800  1
  Si  Si4  1  0.50000000  0.92204900  0.43964300  1
  Si  Si5  1  0.50000000  0.12445200  0.55852500  1
  Si  Si6  1  0.00000000  0.89162300  0.81594100  1
  Si  Si7  1  0.00000000  0.13436800  0.18344500  1
  Si  Si8  1  0.50000000  0.48423100  0.31174000  1
  Si  Si9  1  0.50000000  0.56069800  0.69358600  1
  Si  Si10  1  0.00000000  0.53732100  0.80301000  1
  Si  Si11  1  0.00000000  0.51409000  0.17438700  1
  Si  Si12  1  0.50000000  0.13724300  0.28622400  1
  Si  Si13  1  0.50000000  0.91851300  0.71186700  1
loop_
_geom_bond_atom_site_label_1
_geom_bond_atom_site_label_2
_geom_bond_distance
_geom_bond_site_symmetry_2
Mg0 Si6 2.764443 1_554
Mg0 Si0 2.983130 1_465
Mg0 Si0 2.983130 1_565
Mg0 Si1 3.005019 1_554
Mg0 Si1 3.005019 1_454
Mg0 Si11 3.035600 1_555
Mg0 Si3 3.095759 1_555
Mg0 Si3 3.095759 1_455
Mg1 Si5 2.629647 1_555
Mg1 Si4 2.662660 1_555
Mg1 Si8 2.798382 1_555
Mg1 Si9 2.812594 1_555
Mg2 Si5 2.821803 1_555
Mg2 Si5 2.821803 1_455
Mg2 Si9 2.908678 1_555
Mg2 Si9 2.908678 1_455
Mg2 Si10 2.937355 1_555
Mg2 Si6 3.033799 1_545
Mg2 Si13 3.106865 1_445
Mg2 Si13 3.106865 1_545
Mg3 Si4 2.808938 1_555
Mg3 Si4 2.808938 1_455
Mg3 Si8 2.842948 1_455
Mg3 Si8 2.842948 1_555
Mg3 Si7 3.067834 1_565
Mg3 Si11 3.179153 1_555
Mg4 Si8 2.730043 1_555
Mg4 Si0 2.733193 1_565
Mg4 Si3 2.806939 1_555
Mg4 Si12 2.838723 1_565
Mg4 Si7 2.909002 1_665
Mg4 Si7 2.909002 1_565
Mg4 Si11 2.943636 1_655
Mg4 Si11 2.943636 1_555
Mg5 Si0 2.762531 1_556
Mg5 Si9 2.912839 1_555
Mg5 Si13 2.980373 1_545
Mg5 Si10 2.996997 1_555
Mg5 Si10 2.996997 1_655
Mg5 Si6 3.026602 1_645
Mg5 Si6 3.026602 1_545
Mg5 Si2 3.107873 1_655
Mg5 Si2 3.107873 1_555
Mg6 Si9 2.891345 1_455
Mg6 Si9 2.891345 1_555
Mg6 Si4 2.901093 1_455
Mg6 Si4 2.901093 1_555
Mg6 Si5 2.943964 1_565
Mg6 Si5 2.943964 1_465
Mg6 Si13 2.964508 1_555
Mg6 Si13 2.964508 1_455
Mg7 Si8 2.855552 1_555
Mg7 Si8 2.855552 1_455
Mg7 Si5 2.879933 1_555
Mg7 Si5 2.879933 1_455
Mg7 Si4 2.945569 1_545
Mg7 Si4 2.945569 1_445
Mg7 Si12 2.964664 1_555
Mg7 Si12 2.964664 1_455
Si0 Si3 2.421284 1_555
Si0 Si2 2.553940 1_654
Si0 Si2 2.553940 1_554
Si0 Si7 2.871990 1_555
Si0 Si7 2.871990 1_655
Si1 Si3 2.441051 1_556
Si1 Si6 2.619233 1_655
Si1 Si6 2.619233 1_555
Si1 Si10 2.762668 1_555
Si1 Si10 2.762668 1_655
Si1 Si13 2.836990 1_555
Si1 Si2 2.935419 1_555
Si1 Si2 2.935419 1_655
Si2 Si3 2.725556 1_456
Si2 Si3 2.725556 1_556
Si4 Si5 2.378058 1_565
Si10 Si6 2.418129 1_555
Si10 Si2 2.448314 1_555
Si10 Si9 2.566126 1_455
Si10 Si9 2.566126 1_555
Si11 Si7 2.524089 1_555
Si11 Si3 2.560724 1_455
Si11 Si3 2.560724 1_555
Si11 Si8 2.822740 1_455
Si11 Si8 2.822740 1_555
Si12 Si4 2.392120 1_545
Si12 Si8 2.423889 1_555
Si12 Si7 2.524913 1_655
Si12 Si7 2.524913 1_555
Si13 Si5 2.365460 1_565
Si13 Si9 2.463128 1_555
Si13 Si6 2.519511 1_555
Si13 Si6 2.519511 1_655
