# generated using pymatgen
data_Ca2LaSbO6
_symmetry_space_group_name_H-M   'P 1'
_cell_length_a   5.94735100
_cell_length_b   5.77583300
_cell_length_c   10.10790006
_cell_angle_alpha   55.63990443
_cell_angle_beta   90.00000000
_cell_angle_gamma   90.00000000
_symmetry_Int_Tables_number   1
_chemical_formula_structural   Ca2LaSbO6
_chemical_formula_sum   'Ca4 La2 Sb2 O12'
_cell_volume   286.62877020
_cell_formula_units_Z   2
loop_
 _symmetry_equiv_pos_site_id
 _symmetry_equiv_pos_as_xyz
  1  'x, y, z'
loop_
 _atom_site_type_symbol
 _atom_site_label
 _atom_site_symmetry_multiplicity
 _atom_site_fract_x
 _atom_site_fract_y
 _atom_site_fract_z
 _atom_site_occupancy
  Ca  Ca0  1  0.55170900  0.76408300  0.74720500  1
  Ca  Ca1  1  0.94829100  0.76408300  0.24720500  1
  Ca  Ca2  1  0.44829100  0.23591700  0.25279500  1
  Ca  Ca3  1  0.05170900  0.23591700  0.75279500  1
  La  La0  1  0.50000000  0.50000000  0.50000000  1
  La  La1  1  0.00000000  0.50000000  0.00000000  1
  Sb  Sb0  1  0.00000000  0.00000000  0.50000000  1
  Sb  Sb1  1  0.50000000  0.00000000  0.00000000  1
  O  O0  1  0.82783400  0.22382400  0.56212700  1
  O  O1  1  0.67216600  0.22382400  0.06212700  1
  O  O2  1  0.17216600  0.77617600  0.43787300  1
  O  O3  1  0.32783400  0.77617600  0.93787300  1
  O  O4  1  0.78962000  0.90482000  0.93535100  1
  O  O5  1  0.71038000  0.90482000  0.43535100  1
  O  O6  1  0.21038000  0.09518000  0.06464900  1
  O  O7  1  0.28962000  0.09518000  0.56464900  1
  O  O8  1  0.94664500  0.65401700  0.72546400  1
  O  O9  1  0.55335500  0.65401700  0.22546400  1
  O  O10  1  0.05335500  0.34598300  0.27453600  1
  O  O11  1  0.44664500  0.34598300  0.77453600  1
loop_
_geom_bond_atom_site_label_1
_geom_bond_atom_site_label_2
_geom_bond_distance
_geom_bond_site_symmetry_2
Ca0 O7 2.347020 1_565
Ca0 O11 2.354854 1_555
Ca0 O3 2.375695 1_555
Ca0 O8 2.475298 1_555
Ca0 O0 2.764116 1_565
Ca0 O4 2.832753 1_555
Ca0 O5 2.931767 1_555
Ca0 O1 3.028358 1_556
Ca1 O6 2.347020 1_665
Ca1 O10 2.354854 1_655
Ca1 O2 2.375695 1_655
Ca1 O9 2.475298 1_555
Ca1 O1 2.764116 1_565
Ca1 O5 2.832753 1_555
Ca1 O4 2.931767 1_554
Ca1 O0 3.028358 1_555
Ca2 O5 2.347020 1_545
Ca2 O9 2.354854 1_555
Ca2 O1 2.375695 1_555
Ca2 O10 2.475298 1_555
Ca2 O2 2.764116 1_545
Ca2 O6 2.832753 1_555
Ca2 O7 2.931767 1_555
Ca2 O3 3.028358 1_554
Ca3 O4 2.347020 1_445
Ca3 O8 2.354854 1_455
Ca3 O0 2.375695 1_455
Ca3 O11 2.475298 1_555
Ca3 O3 2.764116 1_545
Ca3 O7 2.832753 1_555
Ca3 O6 2.931767 1_556
Ca3 O2 3.028358 1_555
La0 O0 2.368466 1_555
La0 O2 2.368466 1_555
La0 O7 2.394764 1_555
La0 O5 2.394764 1_555
La0 O9 2.409584 1_555
La0 O11 2.409584 1_555
La1 O3 2.368466 1_554
La1 O1 2.368466 1_455
La1 O4 2.394764 1_454
La1 O6 2.394764 1_555
La1 O10 2.409584 1_555
La1 O8 2.409584 1_454
O0 Sb0 2.007590 1_655
O1 Sb1 2.007590 1_555
O2 Sb0 2.007590 1_565
O3 Sb1 2.007590 1_566
O4 Sb1 2.025252 1_566
O5 Sb0 2.025252 1_665
O6 Sb1 2.025252 1_555
O7 Sb0 2.025252 1_555
O8 Sb0 2.036441 1_665
O9 Sb1 2.036441 1_565
O10 Sb0 2.036441 1_555
O11 Sb1 2.036441 1_556
