# generated using pymatgen
data_NaFe2P2H5O11
_symmetry_space_group_name_H-M   'P 1'
_cell_length_a   9.75868600
_cell_length_b   9.77374300
_cell_length_c   12.27782455
_cell_angle_alpha   51.22979355
_cell_angle_beta   90.00000000
_cell_angle_gamma   90.00000000
_symmetry_Int_Tables_number   1
_chemical_formula_structural   NaFe2P2H5O11
_chemical_formula_sum   'Na4 Fe8 P8 H20 O44'
_cell_volume   913.02147282
_cell_formula_units_Z   4
loop_
 _symmetry_equiv_pos_site_id
 _symmetry_equiv_pos_as_xyz
  1  'x, y, z'
loop_
 _atom_site_type_symbol
 _atom_site_label
 _atom_site_symmetry_multiplicity
 _atom_site_fract_x
 _atom_site_fract_y
 _atom_site_fract_z
 _atom_site_occupancy
  Na  Na0  1  0.29535900  0.39176700  0.51818200  1
  Na  Na1  1  0.20464100  0.39176700  0.01818200  1
  Na  Na2  1  0.70464100  0.60823300  0.48181800  1
  Na  Na3  1  0.79535900  0.60823300  0.98181800  1
  Fe  Fe0  1  0.45103300  0.02225900  0.10953300  1
  Fe  Fe1  1  0.04896700  0.02225900  0.60953300  1
  Fe  Fe2  1  0.54896700  0.97774100  0.89046700  1
  Fe  Fe3  1  0.95103300  0.97774100  0.39046700  1
  Fe  Fe4  1  0.23153400  0.71207600  0.09734200  1
  Fe  Fe5  1  0.26846600  0.71207600  0.59734200  1
  Fe  Fe6  1  0.76846600  0.28792400  0.90265800  1
  Fe  Fe7  1  0.73153400  0.28792400  0.40265800  1
  P  P0  1  0.17930600  0.83704700  0.29006100  1
  P  P1  1  0.32069400  0.83704700  0.79006100  1
  P  P2  1  0.82069400  0.16295300  0.70993900  1
  P  P3  1  0.67930600  0.16295300  0.20993900  1
  P  P4  1  0.03402000  0.35586700  0.29015200  1
  P  P5  1  0.46598000  0.35586700  0.79015200  1
  P  P6  1  0.96598000  0.64413300  0.70984800  1
  P  P7  1  0.53402000  0.64413300  0.20984800  1
  H  H0  1  0.29703300  0.04555800  0.92881100  1
  H  H1  1  0.20296700  0.04555800  0.42881100  1
  H  H2  1  0.70296700  0.95444200  0.07118900  1
  H  H3  1  0.79703300  0.95444200  0.57118900  1
  H  H4  1  0.02254200  0.92798100  0.89187100  1
  H  H5  1  0.47745800  0.92798100  0.39187100  1
  H  H6  1  0.97745800  0.07201900  0.10812900  1
  H  H7  1  0.52254200  0.07201900  0.60812900  1
  H  H8  1  0.97421400  0.84675500  0.04910000  1
  H  H9  1  0.52578600  0.84675500  0.54910000  1
  H  H10  1  0.02578600  0.15324500  0.95090000  1
  H  H11  1  0.47421400  0.15324500  0.45090000  1
  H  H12  1  0.08598300  0.19424400  0.76844300  1
  H  H13  1  0.41401700  0.19424400  0.26844300  1
  H  H14  1  0.91401700  0.80575600  0.23155700  1
  H  H15  1  0.58598300  0.80575600  0.73155700  1
  H  H16  1  0.14181100  0.34287900  0.77297100  1
  H  H17  1  0.35818900  0.34287900  0.27297100  1
  H  H18  1  0.85818900  0.65712100  0.22702900  1
  H  H19  1  0.64181100  0.65712100  0.72702900  1
  O  O0  1  0.27556900  0.99770500  0.19982000  1
  O  O1  1  0.22443100  0.99770500  0.69982000  1
  O  O2  1  0.72443100  0.00229500  0.80018000  1
  O  O3  1  0.77556900  0.00229500  0.30018000  1
  O  O4  1  0.16570700  0.73196400  0.23639100  1
  O  O5  1  0.33429300  0.73196400  0.73639100  1
  O  O6  1  0.83429300  0.26803600  0.76360900  1
  O  O7  1  0.66570700  0.26803600  0.26360900  1
  O  O8  1  0.22691800  0.70657100  0.44319500  1
  O  O9  1  0.27308200  0.70657100  0.94319500  1
  O  O10  1  0.77308200  0.29342900  0.55680500  1
  O  O11  1  0.72691800  0.29342900  0.05680500  1
  O  O12  1  0.03294800  0.91071500  0.28062300  1
  O  O13  1  0.46705200  0.91071500  0.78062300  1
  O  O14  1  0.96705200  0.08928500  0.71937700  1
  O  O15  1  0.53294800  0.08928500  0.21937700  1
  O  O16  1  0.13226500  0.49331000  0.17479500  1
  O  O17  1  0.36773500  0.49331000  0.67479500  1
  O  O18  1  0.86773500  0.50669000  0.82520500  1
  O  O19  1  0.63226500  0.50669000  0.32520500  1
  O  O20  1  0.09388400  0.26689800  0.43853300  1
  O  O21  1  0.40611600  0.26689800  0.93853300  1
  O  O22  1  0.90611600  0.73310200  0.56146700  1
  O  O23  1  0.59388400  0.73310200  0.06146700  1
  O  O24  1  0.01436900  0.22246800  0.26110700  1
  O  O25  1  0.48563100  0.22246800  0.76110700  1
  O  O26  1  0.98563100  0.77753200  0.73889300  1
  O  O27  1  0.51436900  0.77753200  0.23889300  1
  O  O28  1  0.89247600  0.43876300  0.27739800  1
  O  O29  1  0.60752400  0.43876300  0.77739800  1
  O  O30  1  0.10752400  0.56123700  0.72260200  1
  O  O31  1  0.39247600  0.56123700  0.22260200  1
  O  O32  1  0.35705300  0.94381900  0.99691100  1
  O  O33  1  0.14294700  0.94381900  0.49691100  1
  O  O34  1  0.64294700  0.05618100  0.00308900  1
  O  O35  1  0.85705300  0.05618100  0.50308900  1
  O  O36  1  0.04833100  0.84904800  0.99194400  1
  O  O37  1  0.45166900  0.84904800  0.49194400  1
  O  O38  1  0.95166900  0.15095200  0.00805600  1
  O  O39  1  0.54833100  0.15095200  0.50805600  1
  O  O40  1  0.14462000  0.21515800  0.82190000  1
  O  O41  1  0.35538000  0.21515800  0.32190000  1
  O  O42  1  0.85538000  0.78484200  0.17810000  1
  O  O43  1  0.64462000  0.78484200  0.67810000  1
loop_
_geom_bond_atom_site_label_1
_geom_bond_atom_site_label_2
_geom_bond_distance
_geom_bond_site_symmetry_2
Na0 O8 2.685662 1_555
Na0 O17 2.751592 1_555
Na0 O20 2.793954 1_555
Na1 O9 2.685662 1_554
Na1 O16 2.751592 1_555
Na1 O21 2.793954 1_554
Na2 O10 2.685662 1_555
Na2 O19 2.751592 1_555
Na2 O22 2.793954 1_555
Na3 O11 2.685662 1_556
Na3 O18 2.751592 1_555
Na3 O23 2.793954 1_556
Fe0 O27 1.966714 1_545
Fe0 O0 1.971095 1_545
Fe0 O15 1.998371 1_555
Fe0 O21 2.007510 1_554
Fe0 O32 2.160678 1_544
Fe0 O34 2.186947 1_555
Fe1 O26 1.966714 1_445
Fe1 O1 1.971095 1_545
Fe1 O14 1.998371 1_455
Fe1 O20 2.007510 1_555
Fe1 O33 2.160678 1_545
Fe1 O35 2.186947 1_455
Fe2 O25 1.966714 1_565
Fe2 O2 1.971095 1_565
Fe2 O13 1.998371 1_555
Fe2 O23 2.007510 1_556
Fe2 O34 2.160678 1_566
Fe2 O32 2.186947 1_555
Fe3 O24 1.966714 1_665
Fe3 O3 1.971095 1_565
Fe3 O12 1.998371 1_655
Fe3 O22 2.007510 1_555
Fe3 O35 2.160678 1_565
Fe3 O33 2.186947 1_655
Fe4 O4 1.944389 1_555
Fe4 O16 1.966725 1_555
Fe4 O9 1.968938 1_554
Fe4 O31 2.041034 1_555
Fe4 O36 2.119774 1_554
Fe4 O32 2.157135 1_554
Fe5 O5 1.944389 1_555
Fe5 O17 1.966725 1_555
Fe5 O8 1.968938 1_555
Fe5 O30 2.041034 1_555
Fe5 O37 2.119774 1_555
Fe5 O33 2.157135 1_555
Fe6 O6 1.944389 1_555
Fe6 O18 1.966725 1_555
Fe6 O11 1.968938 1_556
Fe6 O29 2.041034 1_555
Fe6 O38 2.119774 1_556
Fe6 O34 2.157135 1_556
Fe7 O7 1.944389 1_555
Fe7 O19 1.966725 1_555
Fe7 O10 1.968938 1_555
Fe7 O28 2.041034 1_555
Fe7 O39 2.119774 1_555
Fe7 O35 2.157135 1_555
H0 O32 0.994824 1_545
H1 O33 0.994824 1_545
H2 O34 0.994824 1_565
H3 O35 0.994824 1_565
H4 O36 0.990465 1_555
H5 O37 0.990465 1_555
H6 O38 0.990465 1_555
H7 O39 0.990465 1_555
H8 O36 0.998199 1_654
H9 O37 0.998199 1_555
H10 O38 0.998199 1_456
H11 O39 0.998199 1_555
H12 O40 0.983879 1_555
H13 O41 0.983879 1_555
H14 O42 0.983879 1_555
H15 O43 0.983879 1_555
H16 O40 0.990321 1_555
H17 O41 0.990321 1_555
H18 O42 0.990321 1_555
H19 O43 0.990321 1_555
O0 P0 1.548164 1_555
O1 P1 1.548164 1_555
O2 P2 1.548164 1_555
O3 P3 1.548164 1_555
O4 P0 1.534361 1_555
O5 P1 1.534361 1_555
O6 P2 1.534361 1_555
O7 P3 1.534361 1_555
O8 P0 1.540872 1_555
O9 P1 1.540872 1_555
O10 P2 1.540872 1_555
O11 P3 1.540872 1_555
O12 P0 1.570759 1_555
O13 P1 1.570759 1_555
O14 P2 1.570759 1_555
O15 P3 1.570759 1_555
O16 P4 1.531963 1_555
O17 P5 1.531963 1_555
O18 P6 1.531963 1_555
O19 P7 1.531963 1_555
O20 P4 1.559602 1_555
O21 P5 1.559602 1_555
O22 P6 1.559602 1_555
O23 P7 1.559602 1_555
O24 P4 1.564021 1_555
O25 P5 1.564021 1_555
O26 P6 1.564021 1_555
O27 P7 1.564021 1_555
O28 P4 1.558847 1_655
O29 P5 1.558847 1_555
O30 P6 1.558847 1_455
O31 P7 1.558847 1_555
