# generated using pymatgen
data_KLaCeHfO6
_symmetry_space_group_name_H-M   'P 1'
_cell_length_a   8.43264924
_cell_length_b   8.55523410
_cell_length_c   8.51000332
_cell_angle_alpha   90.00000000
_cell_angle_beta   90.00000000
_cell_angle_gamma   90.00000000
_symmetry_Int_Tables_number   1
_chemical_formula_structural   KLaCeHfO6
_chemical_formula_sum   'K4 La4 Ce4 Hf4 O24'
_cell_volume   613.93962322
_cell_formula_units_Z   4
loop_
 _symmetry_equiv_pos_site_id
 _symmetry_equiv_pos_as_xyz
  1  'x, y, z'
loop_
 _atom_site_type_symbol
 _atom_site_label
 _atom_site_symmetry_multiplicity
 _atom_site_fract_x
 _atom_site_fract_y
 _atom_site_fract_z
 _atom_site_occupancy
  K  K0  1  0.50000000  0.00000000  0.50000000  1
  K  K1  1  0.50000000  0.50000000  -0.00000000  1
  K  K2  1  -0.00000000  0.50000000  0.00000000  1
  K  K3  1  -0.00000000  0.00000000  0.50000000  1
  La  La0  1  -0.00000000  0.50000000  0.50000000  1
  La  La1  1  0.50000000  0.00000000  0.00000000  1
  La  La2  1  -0.00000000  0.00000000  0.00000000  1
  La  La3  1  0.50000000  0.50000000  0.50000000  1
  Ce  Ce0  1  0.75000000  0.75000000  0.75000000  1
  Ce  Ce1  1  0.25000000  0.25000000  0.75000000  1
  Ce  Ce2  1  0.25000000  0.75000000  0.25000000  1
  Ce  Ce3  1  0.75000000  0.25000000  0.25000000  1
  Hf  Hf0  1  0.25000000  0.25000000  0.25000000  1
  Hf  Hf1  1  0.75000000  0.75000000  0.25000000  1
  Hf  Hf2  1  0.75000000  0.25000000  0.75000000  1
  Hf  Hf3  1  0.25000000  0.75000000  0.75000000  1
  O  O0  1  0.00850874  0.21450531  0.27500614  1
  O  O1  1  0.99149126  0.78549469  0.27500614  1
  O  O2  1  0.99149126  0.21450531  0.72499386  1
  O  O3  1  0.00850874  0.78549469  0.72499386  1
  O  O4  1  0.28185650  0.01113790  0.19242034  1
  O  O5  1  0.28185650  0.98886210  0.80757966  1
  O  O6  1  0.71814350  0.98886210  0.19242034  1
  O  O7  1  0.71814350  0.01113790  0.80757966  1
  O  O8  1  0.21097100  0.26251091  0.00767860  1
  O  O9  1  0.78902900  0.26251091  0.99232140  1
  O  O10  1  0.21097100  0.73748909  0.99232140  1
  O  O11  1  0.78902900  0.73748909  0.00767860  1
  O  O12  1  0.49149126  0.28549469  0.22499386  1
  O  O13  1  0.50850874  0.71450531  0.22499386  1
  O  O14  1  0.50850874  0.28549469  0.77500614  1
  O  O15  1  0.49149126  0.71450531  0.77500614  1
  O  O16  1  0.21814350  0.48886210  0.30757966  1
  O  O17  1  0.21814350  0.51113790  0.69242034  1
  O  O18  1  0.78185650  0.51113790  0.30757966  1
  O  O19  1  0.78185650  0.48886210  0.69242034  1
  O  O20  1  0.28902900  0.23748909  0.49232140  1
  O  O21  1  0.71097100  0.23748909  0.50767860  1
  O  O22  1  0.28902900  0.76251091  0.50767860  1
  O  O23  1  0.71097100  0.76251091  0.49232140  1
loop_
_geom_bond_atom_site_label_1
_geom_bond_atom_site_label_2
_geom_bond_distance
_geom_bond_site_symmetry_2
K0 O23 2.701366 1_545
K0 O22 2.701366 1_545
K0 O21 2.701366 1_555
K0 O20 2.701366 1_555
K1 O15 2.653106 1_554
K1 O13 2.653106 1_555
K1 O12 2.653106 1_555
K1 O14 2.653106 1_554
K1 O10 3.173754 1_554
K1 O11 3.173754 1_555
K1 O8 3.173754 1_555
K1 O9 3.173754 1_554
K2 O11 2.701366 1_455
K2 O8 2.701366 1_555
K2 O10 2.701366 1_554
K2 O9 2.701366 1_454
K3 O3 2.653106 1_545
K3 O1 2.653106 1_445
K3 O0 2.653106 1_555
K3 O2 2.653106 1_455
K3 O22 3.173754 1_545
K3 O23 3.173754 1_445
K3 O20 3.173754 1_555
K3 O21 3.173754 1_455
La0 O17 2.464618 1_555
La0 O16 2.464618 1_555
La0 O19 2.464618 1_455
La0 O18 2.464618 1_455
La1 O5 2.464618 1_544
La1 O4 2.464618 1_555
La1 O6 2.464618 1_545
La1 O7 2.464618 1_554
La2 O9 2.865847 1_454
La2 O8 2.865847 1_555
La2 O10 2.865847 1_544
La2 O11 2.865847 1_445
La2 O7 2.887844 1_454
La2 O6 2.887844 1_445
La2 O4 2.887844 1_555
La2 O5 2.887844 1_544
La2 O3 2.974881 1_544
La2 O1 2.974881 1_445
La2 O0 2.974881 1_555
La2 O2 2.974881 1_454
La3 O20 2.865847 1_555
La3 O21 2.865847 1_555
La3 O22 2.865847 1_555
La3 O23 2.865847 1_555
La3 O17 2.887844 1_555
La3 O18 2.887844 1_555
La3 O19 2.887844 1_555
La3 O16 2.887844 1_555
La3 O13 2.974881 1_555
La3 O15 2.974881 1_555
La3 O14 2.974881 1_555
La3 O12 2.974881 1_555
Ce0 O3 2.211226 1_655
Ce0 O15 2.211226 1_555
Ce0 O11 2.219988 1_556
Ce0 O23 2.219988 1_555
Ce0 O19 2.302922 1_555
Ce0 O7 2.302922 1_565
Ce1 O14 2.211226 1_555
Ce1 O2 2.211226 1_455
Ce1 O20 2.219988 1_555
Ce1 O8 2.219988 1_556
Ce1 O5 2.302922 1_545
Ce1 O17 2.302922 1_555
Ce2 O1 2.211226 1_455
Ce2 O13 2.211226 1_555
Ce2 O22 2.219988 1_555
Ce2 O10 2.219988 1_554
Ce2 O16 2.302922 1_555
Ce2 O4 2.302922 1_565
Ce3 O0 2.211226 1_655
Ce3 O12 2.211226 1_555
Ce3 O21 2.219988 1_555
Ce3 O9 2.219988 1_554
Ce3 O6 2.302922 1_545
Ce3 O18 2.302922 1_555
Hf0 O12 2.069896 1_555
Hf0 O0 2.069896 1_555
Hf0 O8 2.090995 1_555
Hf0 O20 2.090995 1_555
Hf0 O4 2.118548 1_555
Hf0 O16 2.118548 1_555
Hf1 O1 2.069896 1_555
Hf1 O13 2.069896 1_555
Hf1 O11 2.090995 1_555
Hf1 O23 2.090995 1_555
Hf1 O6 2.118548 1_555
Hf1 O18 2.118548 1_555
Hf2 O2 2.069896 1_555
Hf2 O14 2.069896 1_555
Hf2 O21 2.090995 1_555
Hf2 O9 2.090995 1_555
Hf2 O7 2.118548 1_555
Hf2 O19 2.118548 1_555
Hf3 O15 2.069896 1_555
Hf3 O3 2.069896 1_555
Hf3 O10 2.090995 1_555
Hf3 O22 2.090995 1_555
Hf3 O5 2.118548 1_555
Hf3 O17 2.118548 1_555
