# generated using pymatgen
data_Ba6Yb6Al13Si11N29O13
_symmetry_space_group_name_H-M   'P 1'
_cell_length_a   6.35208220
_cell_length_b   6.21638744
_cell_length_c   30.63991575
_cell_angle_alpha   90.05551852
_cell_angle_beta   89.84924979
_cell_angle_gamma   119.93784250
_symmetry_Int_Tables_number   1
_chemical_formula_structural   Ba6Yb6Al13Si11N29O13
_chemical_formula_sum   'Ba6 Yb6 Al13 Si11 N29 O13'
_cell_volume   1048.43743831
_cell_formula_units_Z   1
loop_
 _symmetry_equiv_pos_site_id
 _symmetry_equiv_pos_as_xyz
  1  'x, y, z'
loop_
 _atom_site_type_symbol
 _atom_site_label
 _atom_site_symmetry_multiplicity
 _atom_site_fract_x
 _atom_site_fract_y
 _atom_site_fract_z
 _atom_site_occupancy
  Ba  Ba0  1  0.34304500  0.64455200  0.03919600  1
  Ba  Ba1  1  0.31028800  0.65928600  0.70879900  1
  Ba  Ba2  1  0.32769900  0.65290700  0.39378500  1
  Ba  Ba3  1  0.67321000  0.34788000  0.55363400  1
  Ba  Ba4  1  0.67408400  0.37291500  0.87773000  1
  Ba  Ba5  1  0.69064300  0.32210100  0.21752800  1
  Yb  Yb0  1  0.38837100  0.63815700  0.27237700  1
  Yb  Yb1  1  0.39500700  0.76142000  0.92282700  1
  Yb  Yb2  1  0.33681500  0.67267600  0.56855100  1
  Yb  Yb3  1  0.68813700  0.32624400  0.10482100  1
  Yb  Yb4  1  0.66775000  0.33141000  0.44524700  1
  Yb  Yb5  1  0.66104400  0.33464600  0.76658100  1
  Al  Al0  1  0.13815400  0.81405600  0.80938100  1
  Al  Al1  1  0.12978200  0.80277900  0.48487900  1
  Al  Al2  1  0.00356200  0.99323000  0.06764200  1
  Al  Al3  1  0.18532300  0.32559700  0.48338300  1
  Al  Al4  1  0.31429000  0.20069400  0.64213500  1
  Al  Al5  1  0.33494400  0.17083700  0.31763700  1
  Al  Al6  1  0.33981100  0.18412300  0.97581200  1
  Al  Al7  1  0.84855100  0.66854200  0.31807700  1
  Al  Al8  1  0.87788000  0.69466100  0.64234200  1
  Al  Al9  1  0.85488100  0.68601000  0.97495700  1
  Al  Al10  1  0.82496500  0.13511500  0.31573900  1
  Al  Al11  1  0.78392400  0.12586700  0.64510700  1
  Al  Al12  1  0.82905500  0.15953200  0.97851800  1
  Si  Si0  1  0.16042100  0.79720100  0.14745900  1
  Si  Si1  1  0.03797700  0.02272700  0.23178000  1
  Si  Si2  1  0.98603400  0.98628400  0.40486700  1
  Si  Si3  1  0.98024100  0.00232700  0.56574500  1
  Si  Si4  1  0.97553600  0.99681400  0.73171100  1
  Si  Si5  1  0.99192000  0.01303800  0.89249900  1
  Si  Si6  1  0.18307400  0.34763100  0.80854500  1
  Si  Si7  1  0.21912500  0.33738700  0.14770500  1
  Si  Si8  1  0.63209700  0.86780100  0.80564200  1
  Si  Si9  1  0.65752200  0.86545900  0.48037500  1
  Si  Si10  1  0.62547800  0.83251700  0.14084400  1
  N  N0  1  0.05305900  0.01240200  0.17402500  1
  N  N1  1  0.25267500  0.05611300  0.91888700  1
  N  N2  1  0.28450100  0.21996400  0.25988500  1
  N  N3  1  0.23718100  0.25723900  0.58477700  1
  N  N4  1  0.55075700  0.52489400  0.65396500  1
  N  N5  1  0.52101000  0.52333200  0.97114100  1
  N  N6  1  0.52842500  0.53509000  0.15771000  1
  N  N7  1  0.49539900  0.54989800  0.81624700  1
  N  N8  1  0.51622100  0.55062900  0.48796600  1
  N  N9  1  0.74138800  0.98810500  0.42502400  1
  N  N10  1  0.72902400  0.96064800  0.09193800  1
  N  N11  1  0.72316300  0.97933800  0.75302200  1
  N  N12  1  0.46285800  0.96974600  0.15828600  1
  N  N13  1  0.46263400  0.97747200  0.49374600  1
  N  N14  1  0.46329000  0.99784400  0.82096000  1
  N  N15  1  0.02515100  0.77602800  0.91879000  1
  N  N16  1  0.82304300  0.75395200  0.25956400  1
  N  N17  1  0.04025500  0.78163300  0.58701700  1
  N  N18  1  0.04775900  0.47979600  0.15790400  1
  N  N19  1  0.00670400  0.47506900  0.81452900  1
  N  N20  1  0.00668700  0.47366500  0.49167700  1
  N  N21  1  0.80801200  0.08558800  0.91964800  1
  N  N22  1  0.77272700  0.98481700  0.25824200  1
  N  N23  1  0.72517300  0.97638300  0.58972000  1
  N  N24  1  0.99426600  0.01727400  0.83421700  1
  N  N25  1  0.01777100  0.01494400  0.00638400  1
  N  N26  1  0.00649100  0.99714900  0.34508000  1
  N  N27  1  0.96985100  0.98689600  0.50579400  1
  N  N28  1  0.00219100  0.01802100  0.67449700  1
  O  O0  1  0.05247000  0.76323300  0.09593600  1
  O  O1  1  0.99492000  0.73818600  0.42123400  1
  O  O2  1  0.00932700  0.76919700  0.75248500  1
  O  O3  1  0.98177400  0.47156400  0.31352800  1
  O  O4  1  0.94808900  0.45329600  0.65471400  1
  O  O5  1  0.95023200  0.47504600  0.99534900  1
  O  O6  1  0.24723800  0.26001500  0.09574000  1
  O  O7  1  0.24030900  0.22249100  0.42445000  1
  O  O8  1  0.21627100  0.24594900  0.75657300  1
  O  O9  1  0.50347600  0.01207700  0.32524300  1
  O  O10  1  0.47754000  0.04720200  0.65888700  1
  O  O11  1  0.50717600  0.02882200  0.99063300  1
  O  O12  1  0.53287100  0.49457400  0.33192400  1
loop_
_geom_bond_atom_site_label_1
_geom_bond_atom_site_label_2
_geom_bond_distance
_geom_bond_site_symmetry_2
Ba0 O11 2.553462 1_564
Ba0 O5 2.555734 1_454
Ba0 N5 2.651152 1_554
Ba0 O6 2.763431 1_555
Ba0 N10 2.773063 1_555
Ba0 O0 2.883286 1_555
Ba1 O10 2.593063 1_565
Ba1 O4 2.598958 1_455
Ba1 N4 2.666719 1_555
Ba1 O2 2.683600 1_555
Ba1 N11 2.734575 1_555
Ba1 O8 2.751828 1_555
Ba2 O1 2.562220 1_455
Ba2 N9 2.589865 1_555
Ba2 O7 2.620993 1_555
Ba2 O12 2.742920 1_555
Ba2 O9 2.854958 1_565
Ba2 O3 3.113967 1_455
Ba3 N20 2.651555 1_655
Ba3 N3 2.707152 1_555
Ba3 N13 2.718232 1_545
Ba3 N23 2.726232 1_545
Ba3 N17 2.735870 1_655
Ba3 N8 2.810924 1_555
Ba4 N21 2.662789 1_555
Ba4 N14 2.672656 1_545
Ba4 N19 2.694236 1_655
Ba4 N15 2.695592 1_655
Ba4 N7 2.703553 1_555
Ba4 N1 2.712810 1_555
Ba5 N12 2.651213 1_545
Ba5 N2 2.663103 1_555
Ba5 N18 2.684462 1_655
Ba5 N16 2.705276 1_555
Ba5 N22 2.706254 1_545
Ba5 N6 2.747800 1_555
Al0 N14 1.828800 1_555
Al0 N19 1.845644 1_555
Al0 O2 1.888190 1_555
Al0 N24 2.038938 1_465
Al1 N20 1.801039 1_555
Al1 N13 1.853137 1_555
Al1 N27 1.976965 1_455
Al1 O1 2.088500 1_455
Al2 N10 1.810319 1_455
Al2 O6 1.824691 1_565
Al2 O0 1.827409 1_555
Al2 N25 1.880614 1_565
Al3 N20 1.799967 1_555
Al3 N8 1.860360 1_555
Al3 N27 1.974703 1_445
Al3 O7 2.002811 1_555
Al4 O10 1.800153 1_555
Al4 N4 1.851802 1_555
Al4 N3 1.905163 1_555
Al4 N28 1.986901 1_555
Al5 O9 1.797397 1_555
Al5 O12 1.816072 1_555
Al5 N2 1.851708 1_555
Al5 N26 1.992436 1_545
Al6 O11 1.815560 1_555
Al6 N5 1.835463 1_555
Al6 N1 1.882688 1_555
Al6 N25 2.003145 1_556
Al7 O12 1.789527 1_555
Al7 O3 1.807831 1_555
Al7 N16 1.900432 1_555
Al7 N26 1.954336 1_655
Al8 O4 1.806579 1_555
Al8 N4 1.834759 1_555
Al8 N17 1.914591 1_655
Al8 N28 2.012658 1_665
Al9 O5 1.809277 1_555
Al9 N5 1.842406 1_555
Al9 N15 1.957698 1_655
Al9 N25 2.017082 1_666
Al10 O9 1.810631 1_555
Al10 O3 1.814294 1_555
Al10 N22 1.943472 1_545
Al10 N26 1.966561 1_645
Al11 O4 1.788557 1_555
Al11 O10 1.803099 1_555
Al11 N23 1.880667 1_545
Al11 N28 2.029309 1_655
Al12 O5 1.788465 1_555
Al12 O11 1.821208 1_555
Al12 N21 1.849618 1_555
Al12 N25 2.013984 1_656
N0 Si1 1.774778 1_555
N0 Si7 1.927704 1_555
N0 Si0 1.955214 1_545
N1 N15 1.615128 1_545
N1 Si5 1.741497 1_455
N1 Yb1 2.417038 1_545
N2 Si1 1.669043 1_555
N2 Yb0 2.372215 1_555
N3 Si3 1.713671 1_455
N3 Yb2 2.384655 1_555
N5 Yb1 2.493071 1_555
N6 Si10 1.711170 1_555
N6 Si7 1.748376 1_555
N6 Yb3 2.577339 1_555
N7 Si8 1.746988 1_555
N7 Si6 1.756317 1_555
N7 Yb5 2.570264 1_555
N8 Si9 1.713604 1_555
N8 Yb4 2.407469 1_555
N9 Si2 1.676012 1_555
N9 Si9 1.825836 1_555
N9 Yb4 2.479813 1_565
N10 Si10 1.669339 1_555
N10 Yb3 2.444431 1_565
N11 Si4 1.681927 1_555
N11 Si8 1.735429 1_555
N11 Yb5 2.464558 1_565
N12 Si0 1.702095 1_555
N12 Si10 1.719339 1_555
N12 Yb3 2.544001 1_565
N13 Si9 1.744238 1_555
N13 Yb4 2.425199 1_565
N13 Yb2 2.823017 1_555
N14 Si8 1.698640 1_555
N14 Yb5 2.471492 1_565
N15 Si5 1.782649 1_465
N15 Yb1 2.399481 1_555
N16 N22 1.619088 1_555
N16 Si1 1.760712 1_665
N16 Yb0 2.511351 1_555
N17 Si3 1.725499 1_465
N17 Yb2 2.365302 1_555
N18 Si7 1.739472 1_555
N18 Si0 1.760219 1_555
N18 Yb3 2.571945 1_455
N19 Si6 1.673560 1_555
N19 Yb5 2.417166 1_455
N20 Yb4 2.356782 1_455
N21 Si5 1.667356 1_555
N21 Yb1 2.382250 1_545
N22 Si1 1.774440 1_665
N22 Yb0 2.353096 1_555
N23 Si3 1.709935 1_565
N23 Yb2 2.329813 1_555
N24 Si5 1.785889 1_555
N24 Si6 1.953027 1_655
N24 Si8 2.190388 1_545
N26 Si2 1.835052 1_455
N27 Si3 1.838943 1_565
N27 Si9 1.903840 1_555
N28 Si4 1.759482 1_445
O0 Si0 1.693366 1_555
O0 Yb3 2.555882 1_455
O1 Si2 1.649793 1_555
O1 Yb4 2.450473 1_555
O2 Si4 1.661001 1_455
O2 Yb5 2.531871 1_455
O3 Yb0 2.578471 1_655
O6 Si7 1.697376 1_555
O6 Yb3 2.635041 1_555
O7 Si2 1.661651 1_445
O7 Yb4 2.531763 1_555
O8 Si4 1.719658 1_445
O8 Si6 1.763271 1_555
O8 Yb5 2.613310 1_555
O9 Yb0 2.619917 1_545
O11 Yb1 2.531020 1_545
O12 Yb0 2.407846 1_555
