# generated using pymatgen
data_Li4MnCo2O7
_symmetry_space_group_name_H-M   'P 1'
_cell_length_a   5.93275300
_cell_length_b   6.49674182
_cell_length_c   7.66962048
_cell_angle_alpha   104.02682185
_cell_angle_beta   110.96179414
_cell_angle_gamma   103.49714071
_symmetry_Int_Tables_number   1
_chemical_formula_structural   Li4MnCo2O7
_chemical_formula_sum   'Li8 Mn2 Co4 O14'
_cell_volume   250.54491217
_cell_formula_units_Z   2
loop_
 _symmetry_equiv_pos_site_id
 _symmetry_equiv_pos_as_xyz
  1  'x, y, z'
loop_
 _atom_site_type_symbol
 _atom_site_label
 _atom_site_symmetry_multiplicity
 _atom_site_fract_x
 _atom_site_fract_y
 _atom_site_fract_z
 _atom_site_occupancy
  Li  Li0  1  0.63218300  0.14081500  0.70613900  1
  Li  Li1  1  0.79766300  0.29496000  0.43321200  1
  Li  Li2  1  0.35684400  0.86187200  0.28652100  1
  Li  Li3  1  0.50147300  0.00170000  0.00166700  1
  Li  Li4  1  0.07015600  0.56997600  0.85766500  1
  Li  Li5  1  0.21030500  0.70462300  0.56493200  1
  Li  Li6  1  0.94654700  0.43286000  0.15534700  1
  Li  Li7  1  0.28365400  0.28472900  0.42820200  1
  Mn  Mn0  1  0.99757500  0.00283300  0.00042500  1
  Mn  Mn1  1  0.14010400  0.14561300  0.71176200  1
  Co  Co0  1  0.42523300  0.42660800  0.14445100  1
  Co  Co1  1  0.56640300  0.56776800  0.85057400  1
  Co  Co2  1  0.70457900  0.70354300  0.56482600  1
  Co  Co3  1  0.86976500  0.85771500  0.29102000  1
  O  O0  1  0.02133900  0.26073800  0.91630500  1
  O  O1  1  0.18428400  0.41823700  0.65505900  1
  O  O2  1  0.77864600  0.00192700  0.51261600  1
  O  O3  1  0.89126800  0.11823800  0.20203900  1
  O  O4  1  0.48319700  0.69355200  0.07405500  1
  O  O5  1  0.63226700  0.85948600  0.79807300  1
  O  O6  1  0.34932600  0.57252600  0.35075600  1
  O  O7  1  0.23809400  0.00661500  0.51519300  1
  O  O8  1  0.35925100  0.14726000  0.19039300  1
  O  O9  1  0.96558800  0.73147200  0.06788500  1
  O  O10  1  0.09268600  0.87648600  0.78926900  1
  O  O11  1  0.67503800  0.44850300  0.65104700  1
  O  O12  1  0.83200100  0.58555300  0.35960000  1
  O  O13  1  0.49453300  0.28379500  0.92096700  1
loop_
_geom_bond_atom_site_label_1
_geom_bond_atom_site_label_2
_geom_bond_distance
_geom_bond_site_symmetry_2
Li0 O7 2.085888 1_555
Li0 O2 2.100419 1_555
Li0 O0 2.103448 1_655
Li0 O5 2.112491 1_545
Li0 O11 2.118518 1_555
Li0 O13 2.195319 1_555
Li1 O12 2.084199 1_555
Li1 O1 2.118300 1_655
Li1 O2 2.125753 1_555
Li1 O11 2.171663 1_555
Li1 O3 2.187571 1_555
Li1 O8 2.378470 1_555
Li2 O6 2.050338 1_555
Li2 O9 2.127466 1_455
Li2 O8 2.153887 1_565
Li2 O4 2.192251 1_555
Li2 O7 2.202355 1_565
Li2 O2 2.272576 1_565
Li3 O8 2.069815 1_555
Li3 O13 2.076155 1_554
Li3 O3 2.087760 1_555
Li3 O5 2.096726 1_544
Li3 O10 2.192524 1_544
Li3 O4 2.192797 1_545
Li4 O1 2.041254 1_555
Li4 O9 2.069950 1_456
Li4 O11 2.121647 1_455
Li4 O0 2.140557 1_555
Li4 O10 2.165795 1_555
Li4 O4 2.220289 1_556
Li5 O12 2.045933 1_455
Li5 O7 2.068534 1_565
Li5 O1 2.128169 1_555
Li5 O6 2.175192 1_555
Li5 O10 2.232818 1_555
Li5 O5 2.286044 1_555
Li6 O12 2.054999 1_555
Li6 O3 2.130670 1_555
Li6 O6 2.132105 1_655
Li6 O0 2.151375 1_654
Li6 O9 2.192968 1_555
Li6 O13 2.419798 1_554
Li7 O7 2.065981 1_555
Li7 O8 2.075582 1_555
Li7 O6 2.089126 1_555
Li7 O1 2.090024 1_555
Li7 O11 2.137891 1_555
Li7 O3 2.150342 1_455
Mn0 O3 1.925480 1_555
Mn0 O0 1.929350 1_654
Mn0 O9 1.941131 1_545
Mn0 O8 1.941142 1_655
Mn0 O10 1.959735 1_644
Mn0 O5 1.980816 1_544
Mn1 O1 1.906071 1_555
Mn1 O7 1.907491 1_555
Mn1 O13 1.951544 1_555
Mn1 O2 1.958015 1_455
Mn1 O10 1.970651 1_545
Mn1 O0 1.996247 1_555
Co0 O6 1.893963 1_555
Co0 O8 1.910008 1_555
Co0 O4 1.930231 1_555
Co0 O13 1.969563 1_554
Co0 O12 2.185076 1_555
Co0 O0 2.201243 1_554
Co1 O11 1.929135 1_555
Co1 O4 1.990986 1_556
Co1 O5 2.010843 1_555
Co1 O13 2.038940 1_555
Co1 O1 2.040888 1_555
Co1 O9 2.158356 1_556
Co2 O11 1.921441 1_555
Co2 O6 1.967614 1_555
Co2 O12 2.042926 1_555
Co2 O2 2.053257 1_565
Co2 O5 2.069812 1_555
Co2 O10 2.132185 1_655
Co3 O12 1.950255 1_555
Co3 O3 1.966766 1_565
Co3 O9 2.039109 1_555
Co3 O2 2.044609 1_565
Co3 O7 2.045932 1_665
Co3 O4 2.105616 1_555
