# generated using pymatgen
data_Mg6CrCu
_symmetry_space_group_name_H-M   'P 1'
_cell_length_a   4.90897900
_cell_length_b   6.10429900
_cell_length_c   10.56555200
_cell_angle_alpha   90.00000000
_cell_angle_beta   90.00000000
_cell_angle_gamma   90.00000000
_symmetry_Int_Tables_number   1
_chemical_formula_structural   Mg6CrCu
_chemical_formula_sum   'Mg12 Cr2 Cu2'
_cell_volume   316.60601688
_cell_formula_units_Z   2
loop_
 _symmetry_equiv_pos_site_id
 _symmetry_equiv_pos_as_xyz
  1  'x, y, z'
loop_
 _atom_site_type_symbol
 _atom_site_label
 _atom_site_symmetry_multiplicity
 _atom_site_fract_x
 _atom_site_fract_y
 _atom_site_fract_z
 _atom_site_occupancy
  Mg  Mg0  1  0.00000000  0.25742000  0.08821800  1
  Mg  Mg1  1  0.00000000  0.74258000  0.08821800  1
  Mg  Mg2  1  0.00000000  0.50000000  0.83308800  1
  Mg  Mg3  1  0.50000000  0.24026500  0.91313300  1
  Mg  Mg4  1  0.50000000  0.75973500  0.91313300  1
  Mg  Mg5  1  0.50000000  0.50000000  0.66538100  1
  Mg  Mg6  1  0.00000000  0.75742000  0.58821800  1
  Mg  Mg7  1  0.00000000  0.24258000  0.58821800  1
  Mg  Mg8  1  0.00000000  0.00000000  0.33308800  1
  Mg  Mg9  1  0.50000000  0.74026500  0.41313300  1
  Mg  Mg10  1  0.50000000  0.25973500  0.41313300  1
  Mg  Mg11  1  0.50000000  0.00000000  0.16538100  1
  Cr  Cr0  1  0.50000000  0.50000000  0.16975000  1
  Cr  Cr1  1  0.50000000  0.00000000  0.66975000  1
  Cu  Cu0  1  0.00000000  0.50000000  0.32907900  1
  Cu  Cu1  1  0.00000000  0.00000000  0.82907900  1
loop_
_geom_bond_atom_site_label_1
_geom_bond_atom_site_label_2
_geom_bond_distance
_geom_bond_site_symmetry_2
Mg0 Mg1 2.961562 1_555
Mg0 Mg11 3.026282 1_555
Mg0 Mg11 3.026282 1_455
Mg0 Mg8 3.027001 1_555
Mg0 Mg3 3.075305 1_554
Mg0 Mg3 3.075305 1_454
Mg0 Mg2 3.075535 1_554
Mg0 Mg1 3.142737 1_545
Mg1 Mg11 3.026282 1_565
Mg1 Mg11 3.026282 1_465
Mg1 Mg8 3.027001 1_565
Mg1 Mg4 3.075305 1_554
Mg1 Mg4 3.075305 1_454
Mg1 Mg2 3.075535 1_554
Mg2 Mg7 3.027001 1_555
Mg2 Mg6 3.027001 1_555
Mg2 Mg5 3.027244 1_555
Mg2 Mg5 3.027244 1_455
Mg2 Mg4 3.041968 1_455
Mg2 Mg4 3.041968 1_555
Mg2 Mg3 3.041968 1_455
Mg2 Mg3 3.041968 1_555
Mg3 Mg4 2.933299 1_545
Mg3 Mg5 3.060365 1_555
Mg3 Mg4 3.171000 1_555
Mg4 Mg5 3.060365 1_555
Mg5 Mg7 3.026282 1_555
Mg5 Mg6 3.026282 1_655
Mg5 Mg7 3.026282 1_655
Mg5 Mg6 3.026282 1_555
Mg5 Mg9 3.042043 1_555
Mg6 Mg7 2.961562 1_565
Mg6 Mg9 3.075305 1_555
Mg6 Mg9 3.075305 1_455
Mg6 Mg8 3.075535 1_565
Mg6 Mg7 3.142737 1_555
Mg7 Mg8 3.075535 1_555
Mg8 Mg9 3.041968 1_445
Mg8 Mg9 3.041968 1_545
Mg10 Mg9 2.933299 1_555
Mg10 Mg8 3.041968 1_655
Mg10 Mg8 3.041968 1_555
Mg10 Mg5 3.042043 1_555
Mg10 Mg11 3.060365 1_555
Mg10 Mg7 3.075305 1_555
Mg10 Mg7 3.075305 1_655
Mg10 Mg9 3.171000 1_545
Mg11 Mg8 3.027244 1_655
Mg11 Mg8 3.027244 1_555
Mg11 Mg3 3.042043 1_554
Mg11 Mg4 3.042043 1_544
Mg11 Mg9 3.060365 1_545
Cr0 Mg9 2.960329 1_555
Cr0 Mg10 2.960329 1_555
Cr0 Cu0 2.976298 1_555
Cr0 Cu0 2.976298 1_655
Cr0 Mg0 2.993208 1_555
Cr0 Mg0 2.993208 1_655
Cr0 Mg1 2.993208 1_655
Cr0 Mg1 2.993208 1_555
Cr0 Mg11 3.052499 1_555
Cr0 Mg11 3.052499 1_565
Cr0 Mg4 3.140853 1_554
Cr0 Mg3 3.140853 1_554
Cr1 Mg3 2.960329 1_555
Cr1 Mg4 2.960329 1_545
Cr1 Cu1 2.976298 1_655
Cr1 Cu1 2.976298 1_555
Cr1 Mg6 2.993208 1_645
Cr1 Mg6 2.993208 1_545
Cr1 Mg7 2.993208 1_655
Cr1 Mg7 2.993208 1_555
Cr1 Mg5 3.052499 1_545
Cr1 Mg5 3.052499 1_555
Cr1 Mg9 3.140853 1_545
Cr1 Mg10 3.140853 1_555
Cu0 Mg0 2.944294 1_555
Cu0 Mg1 2.944294 1_555
Cu0 Mg9 2.994037 1_555
Cu0 Mg9 2.994037 1_455
Cu0 Mg10 2.994037 1_455
Cu0 Mg10 2.994037 1_555
Cu0 Mg8 3.052443 1_555
Cu0 Mg8 3.052443 1_565
Cu0 Mg7 3.156826 1_555
Cu0 Mg6 3.156826 1_555
Cu1 Mg6 2.944294 1_545
Cu1 Mg7 2.944294 1_555
Cu1 Mg3 2.994037 1_455
Cu1 Mg3 2.994037 1_555
Cu1 Mg4 2.994037 1_445
Cu1 Mg4 2.994037 1_545
Cu1 Mg2 3.052443 1_555
Cu1 Mg2 3.052443 1_545
Cu1 Mg0 3.156826 1_556
Cu1 Mg1 3.156826 1_546
