# generated using pymatgen
data_CeIn4Ni
_symmetry_space_group_name_H-M   'P 1'
_cell_length_a   8.72361759
_cell_length_b   8.72361759
_cell_length_c   7.19254000
_cell_angle_alpha   90.00000000
_cell_angle_beta   90.00000000
_cell_angle_gamma   150.03160839
_symmetry_Int_Tables_number   1
_chemical_formula_structural   CeIn4Ni
_chemical_formula_sum   'Ce2 In8 Ni2'
_cell_volume   273.42000516
_cell_formula_units_Z   2
loop_
 _symmetry_equiv_pos_site_id
 _symmetry_equiv_pos_as_xyz
  1  'x, y, z'
loop_
 _atom_site_type_symbol
 _atom_site_label
 _atom_site_symmetry_multiplicity
 _atom_site_fract_x
 _atom_site_fract_y
 _atom_site_fract_z
 _atom_site_occupancy
  Ce  Ce0  1  0.88281400  0.11718600  0.75000000  1
  Ce  Ce1  1  0.11718600  0.88281400  0.25000000  1
  In  In0  1  0.50000000  0.50000000  0.00000000  1
  In  In1  1  0.50000000  0.50000000  0.50000000  1
  In  In2  1  0.07386700  0.92613300  0.75000000  1
  In  In3  1  0.92613300  0.07386700  0.25000000  1
  In  In4  1  0.68800400  0.31199600  0.95396500  1
  In  In5  1  0.31199600  0.68800400  0.04603500  1
  In  In6  1  0.68800400  0.31199600  0.54603500  1
  In  In7  1  0.31199600  0.68800400  0.45396500  1
  Ni  Ni0  1  0.22536500  0.77463500  0.75000000  1
  Ni  Ni1  1  0.77463500  0.22536500  0.25000000  1
loop_
_geom_bond_atom_site_label_1
_geom_bond_atom_site_label_2
_geom_bond_distance
_geom_bond_site_symmetry_2
Ce0 In2 3.220003 1_645
Ce0 In5 3.323495 1_656
Ce0 In7 3.323495 1_655
Ce0 In7 3.323495 1_545
Ce0 In5 3.323495 1_546
Ce0 Ni0 3.482694 1_545
Ce0 Ni0 3.482694 1_655
Ce0 In1 3.495920 1_655
Ce0 In0 3.495920 1_656
Ce0 In0 3.495920 1_546
Ce0 In1 3.495920 1_545
Ce0 In6 3.596162 1_555
Ce0 In4 3.596162 1_555
Ce0 In3 3.669632 1_555
Ce0 In3 3.669632 1_556
Ce1 In3 3.220003 1_465
Ce1 In6 3.323495 1_565
Ce1 In4 3.323495 1_564
Ce1 In4 3.323495 1_454
Ce1 In6 3.323495 1_455
Ce1 Ni1 3.482694 1_455
Ce1 Ni1 3.482694 1_565
Ce1 In0 3.495920 1_455
Ce1 In1 3.495920 1_455
Ce1 In1 3.495920 1_565
Ce1 In0 3.495920 1_565
Ce1 In7 3.596162 1_555
Ce1 In5 3.596162 1_555
Ce1 In2 3.669632 1_555
Ce1 In2 3.669632 1_554
In0 In2 3.141742 1_654
In0 In3 3.141742 1_565
In0 In2 3.141742 1_544
In0 In3 3.141742 1_455
In0 In5 3.185868 1_555
In0 In4 3.185868 1_554
In1 In2 3.141742 1_655
In1 In3 3.141742 1_565
In1 In2 3.141742 1_545
In1 In3 3.141742 1_455
In1 In7 3.185868 1_555
In1 In6 3.185868 1_555
In2 Ni0 2.553344 1_555
In3 Ni1 2.553344 1_555
In4 Ni1 2.581764 1_556
In4 Ni0 2.763333 1_545
In4 Ni0 2.763333 1_655
In5 Ni0 2.581764 1_554
In5 Ni1 2.763333 1_455
In5 Ni1 2.763333 1_565
In6 Ni1 2.581764 1_555
In6 Ni0 2.763333 1_545
In6 Ni0 2.763333 1_655
In7 Ni0 2.581764 1_555
In7 Ni1 2.763333 1_455
In7 Ni1 2.763333 1_565
