# generated using pymatgen
data_Mg(SnO2)4
_symmetry_space_group_name_H-M   'P 1'
_cell_length_a   6.34082095
_cell_length_b   6.34082095
_cell_length_c   6.34082067
_cell_angle_alpha   62.99023085
_cell_angle_beta   62.99023085
_cell_angle_gamma   62.99023242
_symmetry_Int_Tables_number   1
_chemical_formula_structural   Mg(SnO2)4
_chemical_formula_sum   'Mg1 Sn4 O8'
_cell_volume   192.23718805
_cell_formula_units_Z   1
loop_
 _symmetry_equiv_pos_site_id
 _symmetry_equiv_pos_as_xyz
  1  'x, y, z'
loop_
 _atom_site_type_symbol
 _atom_site_label
 _atom_site_symmetry_multiplicity
 _atom_site_fract_x
 _atom_site_fract_y
 _atom_site_fract_z
 _atom_site_occupancy
  Mg  Mg0  1  0.50000000  0.50000000  0.50000000  1
  Sn  Sn0  1  0.00000000  0.50000000  0.50000000  1
  Sn  Sn1  1  0.50000000  0.00000000  0.50000000  1
  Sn  Sn2  1  0.50000000  0.50000000  0.00000000  1
  Sn  Sn3  1  0.00000000  0.00000000  0.00000000  1
  O  O0  1  0.30275200  0.73552800  0.73552800  1
  O  O1  1  0.26447200  0.26447200  0.69724800  1
  O  O2  1  0.69724800  0.26447200  0.26447200  1
  O  O3  1  0.26447200  0.69724800  0.26447200  1
  O  O4  1  0.26352400  0.26352400  0.26352400  1
  O  O5  1  0.73647600  0.73647600  0.73647600  1
  O  O6  1  0.73552800  0.30275200  0.73552800  1
  O  O7  1  0.73552800  0.73552800  0.30275200  1
loop_
_geom_bond_atom_site_label_1
_geom_bond_atom_site_label_2
_geom_bond_distance
_geom_bond_site_symmetry_2
Mg0 O0 2.158173 1_555
Mg0 O6 2.158173 1_555
Mg0 O2 2.158173 1_555
Mg0 O3 2.158173 1_555
Mg0 O7 2.158173 1_555
Mg0 O1 2.158173 1_555
O0 Sn2 2.130871 1_556
O0 Sn1 2.130871 1_565
O0 Sn3 2.452745 1_566
O1 Sn1 2.130871 1_555
O1 Sn0 2.130871 1_555
O1 Sn3 2.452745 1_556
O2 Sn2 2.130871 1_555
O2 Sn1 2.130871 1_555
O2 Sn3 2.452745 1_655
O3 Sn2 2.130871 1_555
O3 Sn0 2.130871 1_555
O3 Sn3 2.452745 1_565
O4 Sn2 2.186208 1_555
O4 Sn0 2.186208 1_555
O4 Sn1 2.186208 1_555
O5 Sn2 2.186208 1_556
O5 Sn1 2.186208 1_565
O5 Sn0 2.186208 1_655
O6 Sn2 2.130871 1_556
O6 Sn0 2.130871 1_655
O6 Sn3 2.452745 1_656
O7 Sn1 2.130871 1_565
O7 Sn0 2.130871 1_655
O7 Sn3 2.452745 1_665
