# generated using pymatgen
data_Rb3La(Cl3O)2
_symmetry_space_group_name_H-M   'P 1'
_cell_length_a   12.44648235
_cell_length_b   12.44648235
_cell_length_c   16.87581200
_cell_angle_alpha   90.00000000
_cell_angle_beta   90.00000000
_cell_angle_gamma   120.00000184
_symmetry_Int_Tables_number   1
_chemical_formula_structural   Rb3La(Cl3O)2
_chemical_formula_sum   'Rb18 La6 Cl36 O12'
_cell_volume   2264.06325954
_cell_formula_units_Z   6
loop_
 _symmetry_equiv_pos_site_id
 _symmetry_equiv_pos_as_xyz
  1  'x, y, z'
loop_
 _atom_site_type_symbol
 _atom_site_label
 _atom_site_symmetry_multiplicity
 _atom_site_fract_x
 _atom_site_fract_y
 _atom_site_fract_z
 _atom_site_occupancy
  Rb  Rb0  1  0.37789800  0.93421500  0.11463000  1
  Rb  Rb1  1  0.06578500  0.44368300  0.11463000  1
  Rb  Rb2  1  0.55631700  0.62210200  0.11463000  1
  Rb  Rb3  1  0.62210200  0.06578500  0.61463000  1
  Rb  Rb4  1  0.93421500  0.55631700  0.61463000  1
  Rb  Rb5  1  0.44368300  0.37789800  0.61463000  1
  Rb  Rb6  1  0.62210200  0.06578500  0.88537000  1
  Rb  Rb7  1  0.93421500  0.55631700  0.88537000  1
  Rb  Rb8  1  0.44368300  0.37789800  0.88537000  1
  Rb  Rb9  1  0.37789800  0.93421500  0.38537000  1
  Rb  Rb10  1  0.06578500  0.44368300  0.38537000  1
  Rb  Rb11  1  0.55631700  0.62210200  0.38537000  1
  Rb  Rb12  1  0.33333300  0.66666700  0.60924400  1
  Rb  Rb13  1  0.66666700  0.33333300  0.10924400  1
  Rb  Rb14  1  0.66666700  0.33333300  0.39075600  1
  Rb  Rb15  1  0.33333300  0.66666700  0.89075600  1
  Rb  Rb16  1  0.00000000  0.00000000  0.50000000  1
  Rb  Rb17  1  0.00000000  0.00000000  0.00000000  1
  La  La0  1  0.19454700  0.96207600  0.75000000  1
  La  La1  1  0.03792400  0.23247100  0.75000000  1
  La  La2  1  0.76752900  0.80545300  0.75000000  1
  La  La3  1  0.80545300  0.03792400  0.25000000  1
  La  La4  1  0.96207600  0.76752900  0.25000000  1
  La  La5  1  0.23247100  0.19454700  0.25000000  1
  Cl  Cl0  1  0.46297500  0.12753000  0.75000000  1
  Cl  Cl1  1  0.87247000  0.33544500  0.75000000  1
  Cl  Cl2  1  0.66455500  0.53702500  0.75000000  1
  Cl  Cl3  1  0.53702500  0.87247000  0.25000000  1
  Cl  Cl4  1  0.12753000  0.66455500  0.25000000  1
  Cl  Cl5  1  0.33544500  0.46297500  0.25000000  1
  Cl  Cl6  1  0.17337600  0.72015700  0.75000000  1
  Cl  Cl7  1  0.27984300  0.45322000  0.75000000  1
  Cl  Cl8  1  0.54678000  0.82662400  0.75000000  1
  Cl  Cl9  1  0.82662400  0.27984300  0.25000000  1
  Cl  Cl10  1  0.72015700  0.54678000  0.25000000  1
  Cl  Cl11  1  0.45322000  0.17337600  0.25000000  1
  Cl  Cl12  1  0.17626500  0.14708900  0.65093500  1
  Cl  Cl13  1  0.85291100  0.02917600  0.65093500  1
  Cl  Cl14  1  0.97082400  0.82373500  0.65093500  1
  Cl  Cl15  1  0.82373500  0.85291100  0.15093500  1
  Cl  Cl16  1  0.14708900  0.97082400  0.15093500  1
  Cl  Cl17  1  0.02917600  0.17626500  0.15093500  1
  Cl  Cl18  1  0.82373500  0.85291100  0.34906500  1
  Cl  Cl19  1  0.14708900  0.97082400  0.34906500  1
  Cl  Cl20  1  0.02917600  0.17626500  0.34906500  1
  Cl  Cl21  1  0.17626500  0.14708900  0.84906500  1
  Cl  Cl22  1  0.85291100  0.02917600  0.84906500  1
  Cl  Cl23  1  0.97082400  0.82373500  0.84906500  1
  Cl  Cl24  1  0.12581600  0.70410600  0.03157200  1
  Cl  Cl25  1  0.29589400  0.42171000  0.03157200  1
  Cl  Cl26  1  0.57829000  0.87418400  0.03157200  1
  Cl  Cl27  1  0.87418400  0.29589400  0.53157200  1
  Cl  Cl28  1  0.70410600  0.57829000  0.53157200  1
  Cl  Cl29  1  0.42171000  0.12581600  0.53157200  1
  Cl  Cl30  1  0.87418400  0.29589400  0.96842800  1
  Cl  Cl31  1  0.70410600  0.57829000  0.96842800  1
  Cl  Cl32  1  0.42171000  0.12581600  0.96842800  1
  Cl  Cl33  1  0.12581600  0.70410600  0.46842800  1
  Cl  Cl34  1  0.29589400  0.42171000  0.46842800  1
  Cl  Cl35  1  0.57829000  0.87418400  0.46842800  1
  O  O0  1  0.33747000  0.97297400  0.64023000  1
  O  O1  1  0.02702600  0.36449600  0.64023000  1
  O  O2  1  0.63550400  0.66253000  0.64023000  1
  O  O3  1  0.66253000  0.02702600  0.14023000  1
  O  O4  1  0.97297400  0.63550400  0.14023000  1
  O  O5  1  0.36449600  0.33747000  0.14023000  1
  O  O6  1  0.66253000  0.02702600  0.35977000  1
  O  O7  1  0.97297400  0.63550400  0.35977000  1
  O  O8  1  0.36449600  0.33747000  0.35977000  1
  O  O9  1  0.33747000  0.97297400  0.85977000  1
  O  O10  1  0.02702600  0.36449600  0.85977000  1
  O  O11  1  0.63550400  0.66253000  0.85977000  1
loop_
_geom_bond_atom_site_label_1
_geom_bond_atom_site_label_2
_geom_bond_distance
_geom_bond_site_symmetry_2
La0 O0 2.524510 1_555
La0 O9 2.524510 1_555
La1 O1 2.524510 1_555
La1 O10 2.524510 1_555
La2 O2 2.524510 1_555
La2 O11 2.524510 1_555
La3 O6 2.524510 1_555
La3 O3 2.524510 1_555
La4 O7 2.524510 1_555
La4 O4 2.524510 1_555
La5 O8 2.524510 1_555
La5 O5 2.524510 1_555
Cl0 La0 2.919387 1_545
Cl0 Rb3 3.354727 1_555
Cl0 Rb6 3.354727 1_555
Cl1 La1 2.919387 1_655
Cl1 Rb4 3.354727 1_555
Cl1 Rb7 3.354727 1_555
Cl2 La2 2.919387 1_555
Cl2 Rb5 3.354727 1_555
Cl2 Rb8 3.354727 1_555
Cl3 La3 2.919387 1_565
Cl3 Rb0 3.354727 1_555
Cl3 Rb9 3.354727 1_555
Cl4 La4 2.919387 1_455
Cl4 Rb1 3.354727 1_555
Cl4 Rb10 3.354727 1_555
Cl5 La5 2.919387 1_555
Cl5 Rb2 3.354727 1_555
Cl5 Rb11 3.354727 1_555
Cl6 La0 2.888317 1_555
Cl6 Rb15 3.372653 1_555
Cl6 Rb12 3.372653 1_555
Cl6 Rb7 3.488255 1_455
Cl6 Rb4 3.488255 1_455
Cl7 La1 2.888323 1_555
Cl7 Rb15 3.372653 1_555
Cl7 Rb12 3.372653 1_555
Cl7 Rb8 3.488262 1_555
Cl7 Rb5 3.488262 1_555
Cl8 La2 2.888330 1_555
Cl8 Rb12 3.372653 1_555
Cl8 Rb15 3.372653 1_555
Cl8 Rb3 3.488253 1_565
Cl8 Rb6 3.488253 1_565
Cl9 La3 2.888317 1_555
Cl9 Rb13 3.372653 1_555
Cl9 Rb14 3.372653 1_555
Cl9 Rb10 3.488255 1_655
Cl9 Rb1 3.488255 1_655
Cl10 La4 2.888323 1_555
Cl10 Rb13 3.372653 1_555
Cl10 Rb14 3.372653 1_555
Cl10 Rb11 3.488262 1_555
Cl10 Rb2 3.488262 1_555
Cl11 La5 2.888330 1_555
Cl11 Rb14 3.372653 1_555
Cl11 Rb13 3.372653 1_555
Cl11 Rb0 3.488253 1_545
Cl11 Rb9 3.488253 1_545
Cl12 La0 2.945063 1_545
Cl12 La1 2.952777 1_555
Cl12 Rb5 3.185079 1_555
Cl12 Rb16 3.261329 1_555
Cl13 La1 2.945063 1_655
Cl13 La2 2.952777 1_545
Cl13 Rb3 3.185079 1_555
Cl13 Rb16 3.261329 1_655
Cl14 La2 2.945063 1_555
Cl14 La0 2.952777 1_655
Cl14 Rb4 3.185079 1_555
Cl14 Rb16 3.261329 1_665
Cl15 La3 2.945063 1_565
Cl15 La4 2.952777 1_555
Cl15 Rb2 3.185079 1_555
Cl15 Rb17 3.261329 1_665
Cl16 La4 2.945063 1_455
Cl16 La5 2.952777 1_565
Cl16 Rb0 3.185079 1_555
Cl16 Rb17 3.261329 1_565
Cl17 La5 2.945063 1_555
Cl17 La3 2.952777 1_455
Cl17 Rb1 3.185079 1_555
Cl17 Rb17 3.261329 1_555
Cl18 La3 2.945063 1_565
Cl18 La4 2.952777 1_555
Cl18 Rb11 3.185079 1_555
Cl18 Rb16 3.261329 1_665
Cl19 La4 2.945063 1_455
Cl19 La5 2.952777 1_565
Cl19 Rb9 3.185079 1_555
Cl19 Rb16 3.261329 1_565
Cl20 La5 2.945063 1_555
Cl20 La3 2.952777 1_455
Cl20 Rb10 3.185079 1_555
Cl20 Rb16 3.261329 1_555
Cl21 La0 2.945063 1_545
Cl21 La1 2.952777 1_555
Cl21 Rb8 3.185079 1_555
Cl21 Rb17 3.261329 1_556
Cl22 La1 2.945063 1_655
Cl22 La2 2.952777 1_545
Cl22 Rb6 3.185079 1_555
Cl22 Rb17 3.261329 1_656
Cl23 La2 2.945063 1_555
Cl23 La0 2.952777 1_655
Cl23 Rb7 3.185079 1_555
Cl23 Rb17 3.261329 1_666
Cl24 O4 2.466999 1_455
Cl24 Rb1 3.256908 1_555
Cl24 Rb7 3.281991 1_454
Cl24 Rb0 3.320470 1_555
Cl24 Rb15 3.706624 1_554
Cl25 O5 2.466999 1_555
Cl25 Rb2 3.256908 1_555
Cl25 Rb8 3.281991 1_554
Cl25 Rb1 3.320470 1_555
Cl25 Rb15 3.706633 1_554
Cl26 O3 2.466999 1_565
Cl26 Rb0 3.256908 1_555
Cl26 Rb6 3.281991 1_564
Cl26 Rb2 3.320470 1_555
Cl26 Rb15 3.706630 1_554
Cl27 O1 2.466999 1_655
Cl27 Rb4 3.256908 1_555
Cl27 Rb10 3.281991 1_655
Cl27 Rb3 3.320470 1_555
Cl27 Rb14 3.706624 1_555
Cl28 O2 2.466999 1_555
Cl28 Rb5 3.256908 1_555
Cl28 Rb11 3.281991 1_555
Cl28 Rb4 3.320470 1_555
Cl28 Rb14 3.706633 1_555
Cl29 O0 2.466999 1_545
Cl29 Rb3 3.256908 1_555
Cl29 Rb9 3.281991 1_545
Cl29 Rb5 3.320470 1_555
Cl29 Rb14 3.706630 1_555
Cl30 O10 2.466999 1_655
Cl30 Rb7 3.256908 1_555
Cl30 Rb1 3.281991 1_656
Cl30 Rb6 3.320470 1_555
Cl30 Rb13 3.706624 1_556
Cl31 O11 2.466999 1_555
Cl31 Rb8 3.256908 1_555
Cl31 Rb2 3.281991 1_556
Cl31 Rb7 3.320470 1_555
Cl31 Rb13 3.706633 1_556
Cl32 O9 2.466999 1_545
Cl32 Rb6 3.256908 1_555
Cl32 Rb0 3.281991 1_546
Cl32 Rb8 3.320470 1_555
Cl32 Rb13 3.706630 1_556
Cl33 O7 2.466999 1_455
Cl33 Rb10 3.256908 1_555
Cl33 Rb4 3.281991 1_455
Cl33 Rb9 3.320470 1_555
Cl33 Rb12 3.706624 1_555
Cl34 O8 2.466999 1_555
Cl34 Rb11 3.256908 1_555
Cl34 Rb5 3.281991 1_555
Cl34 Rb10 3.320470 1_555
Cl34 Rb12 3.706633 1_555
Cl35 O6 2.466999 1_565
Cl35 Rb9 3.256908 1_555
Cl35 Rb3 3.281991 1_565
Cl35 Rb11 3.320470 1_555
Cl35 Rb12 3.706630 1_555
O0 Rb3 3.158982 1_565
O1 Rb4 3.158982 1_455
O2 Rb5 3.158982 1_555
O3 Rb0 3.158982 1_545
O4 Rb1 3.158982 1_655
O5 Rb2 3.158982 1_555
O6 Rb9 3.158982 1_545
O7 Rb10 3.158982 1_655
O8 Rb11 3.158982 1_555
O9 Rb6 3.158982 1_565
O10 Rb7 3.158982 1_455
O11 Rb8 3.158982 1_555
