# generated using pymatgen
data_V2ZnP3NO15
_symmetry_space_group_name_H-M   'P 1'
_cell_length_a   9.12699200
_cell_length_b   11.01143900
_cell_length_c   14.91417639
_cell_angle_alpha   60.05004423
_cell_angle_beta   90.00000000
_cell_angle_gamma   90.00000000
_symmetry_Int_Tables_number   1
_chemical_formula_structural   V2ZnP3NO15
_chemical_formula_sum   'V8 Zn4 P12 N4 O60'
_cell_volume   1298.73468372
_cell_formula_units_Z   4
loop_
 _symmetry_equiv_pos_site_id
 _symmetry_equiv_pos_as_xyz
  1  'x, y, z'
loop_
 _atom_site_type_symbol
 _atom_site_label
 _atom_site_symmetry_multiplicity
 _atom_site_fract_x
 _atom_site_fract_y
 _atom_site_fract_z
 _atom_site_occupancy
  V  V0  1  0.74537200  0.45582800  0.03808000  1
  V  V1  1  0.75462800  0.45582800  0.53808000  1
  V  V2  1  0.25462800  0.54417200  0.96192000  1
  V  V3  1  0.24537200  0.54417200  0.46192000  1
  V  V4  1  0.74708400  0.45626100  0.24500900  1
  V  V5  1  0.75291600  0.45626100  0.74500900  1
  V  V6  1  0.25291600  0.54373900  0.75499100  1
  V  V7  1  0.24708400  0.54373900  0.25499100  1
  Zn  Zn0  1  0.75027600  0.90225400  0.98082700  1
  Zn  Zn1  1  0.74972400  0.90225400  0.48082700  1
  Zn  Zn2  1  0.24972400  0.09774600  0.01917300  1
  Zn  Zn3  1  0.25027600  0.09774600  0.51917300  1
  P  P0  1  0.99696200  0.34818300  0.42780000  1
  P  P1  1  0.50303800  0.34818300  0.92780000  1
  P  P2  1  0.00303800  0.65181700  0.57220000  1
  P  P3  1  0.49696200  0.65181700  0.07220000  1
  P  P4  1  0.99913800  0.64408800  0.06942500  1
  P  P5  1  0.50086200  0.64408800  0.56942500  1
  P  P6  1  0.00086200  0.35591200  0.93057500  1
  P  P7  1  0.49913800  0.35591200  0.43057500  1
  P  P8  1  0.83819700  0.14454500  0.75674200  1
  P  P9  1  0.66180300  0.14454500  0.25674200  1
  P  P10  1  0.16180300  0.85545500  0.24325800  1
  P  P11  1  0.33819700  0.85545500  0.74325800  1
  N  N0  1  0.05843600  0.20637700  0.23073300  1
  N  N1  1  0.44156400  0.20637700  0.73073300  1
  N  N2  1  0.94156400  0.79362300  0.76926700  1
  N  N3  1  0.55843600  0.79362300  0.26926700  1
  O  O0  1  0.88930200  0.51440700  0.11931000  1
  O  O1  1  0.61069800  0.51440700  0.61931000  1
  O  O2  1  0.11069800  0.48559300  0.88069000  1
  O  O3  1  0.38930200  0.48559300  0.38069000  1
  O  O4  1  0.10443000  0.47865700  0.37972000  1
  O  O5  1  0.39557000  0.47865700  0.87972000  1
  O  O6  1  0.89557000  0.52134300  0.62028000  1
  O  O7  1  0.60443000  0.52134300  0.12028000  1
  O  O8  1  0.89720700  0.36293100  0.33803700  1
  O  O9  1  0.60279300  0.36293100  0.83803700  1
  O  O10  1  0.10279300  0.63706900  0.66196300  1
  O  O11  1  0.39720700  0.63706900  0.16196300  1
  O  O12  1  0.09693700  0.62878800  0.16010200  1
  O  O13  1  0.40306300  0.62878800  0.66010200  1
  O  O14  1  0.90306300  0.37121200  0.83989800  1
  O  O15  1  0.59693700  0.37121200  0.33989800  1
  O  O16  1  0.75339000  0.60920700  0.23329400  1
  O  O17  1  0.74661000  0.60920700  0.73329400  1
  O  O18  1  0.24661000  0.39079300  0.76670600  1
  O  O19  1  0.25339000  0.39079300  0.26670600  1
  O  O20  1  0.76605300  0.29562900  0.69893600  1
  O  O21  1  0.73394700  0.29562900  0.19893600  1
  O  O22  1  0.23394700  0.70437100  0.30106400  1
  O  O23  1  0.26605300  0.70437100  0.80106400  1
  O  O24  1  0.09816700  0.62446000  0.99263000  1
  O  O25  1  0.40183300  0.62446000  0.49263000  1
  O  O26  1  0.90183300  0.37554000  0.00737000  1
  O  O27  1  0.59816700  0.37554000  0.50737000  1
  O  O28  1  0.90043500  0.36798400  0.50568600  1
  O  O29  1  0.59956500  0.36798400  0.00568600  1
  O  O30  1  0.09956500  0.63201600  0.49431400  1
  O  O31  1  0.40043500  0.63201600  0.99431400  1
  O  O32  1  0.92407800  0.78311700  0.01491200  1
  O  O33  1  0.57592200  0.78311700  0.51491200  1
  O  O34  1  0.07592200  0.21688300  0.98508800  1
  O  O35  1  0.42407800  0.21688300  0.48508800  1
  O  O36  1  0.07243500  0.20933200  0.47788400  1
  O  O37  1  0.42756500  0.20933200  0.97788400  1
  O  O38  1  0.92756500  0.79066800  0.52211600  1
  O  O39  1  0.57243500  0.79066800  0.02211600  1
  O  O40  1  0.74017800  0.61152400  0.93955100  1
  O  O41  1  0.75982200  0.61152400  0.43955100  1
  O  O42  1  0.25982200  0.38847600  0.06044900  1
  O  O43  1  0.24017800  0.38847600  0.56044900  1
  O  O44  1  0.88101300  0.09522400  0.68040200  1
  O  O45  1  0.61898700  0.09522400  0.18040200  1
  O  O46  1  0.11898700  0.90477600  0.31959800  1
  O  O47  1  0.38101300  0.90477600  0.81959800  1
  O  O48  1  0.72614300  0.04559900  0.83747000  1
  O  O49  1  0.77385700  0.04559900  0.33747000  1
  O  O50  1  0.27385700  0.95440100  0.16253000  1
  O  O51  1  0.22614300  0.95440100  0.66253000  1
  O  O52  1  0.98854700  0.14559700  0.80311600  1
  O  O53  1  0.51145300  0.14559700  0.30311600  1
  O  O54  1  0.01145300  0.85440300  0.19688400  1
  O  O55  1  0.48854700  0.85440300  0.69688400  1
  O  O56  1  0.77416700  0.02451700  0.03992400  1
  O  O57  1  0.72583300  0.02451700  0.53992400  1
  O  O58  1  0.22583300  0.97548300  0.96007600  1
  O  O59  1  0.27416700  0.97548300  0.46007600  1
loop_
_geom_bond_atom_site_label_1
_geom_bond_atom_site_label_2
_geom_bond_distance
_geom_bond_site_symmetry_2
O0 P4 1.592731 1_555
O0 V0 2.095160 1_555
O0 V4 2.100191 1_555
O1 P5 1.592731 1_555
O1 V1 2.095160 1_555
O1 V5 2.100191 1_555
O2 P6 1.592731 1_555
O2 V2 2.095160 1_555
O2 V6 2.100191 1_555
O3 P7 1.592731 1_555
O3 V3 2.095160 1_555
O3 V7 2.100191 1_555
O4 P0 1.584847 1_455
O4 V7 2.082820 1_555
O4 V3 2.135702 1_555
O5 P1 1.584847 1_555
O5 V6 2.082820 1_555
O5 V2 2.135702 1_555
O6 P2 1.584847 1_655
O6 V5 2.082820 1_555
O6 V1 2.135702 1_555
O7 P3 1.584847 1_555
O7 V4 2.082820 1_555
O7 V0 2.135702 1_555
O8 P0 1.558995 1_555
O8 V4 1.853322 1_555
O9 P1 1.558995 1_555
O9 V5 1.853322 1_555
O10 P2 1.558995 1_555
O10 V6 1.853322 1_555
O11 P3 1.558995 1_555
O11 V7 1.853322 1_555
O12 P4 1.557740 1_455
O12 V7 1.853228 1_555
O13 P5 1.557740 1_555
O13 V6 1.853228 1_555
O14 P6 1.557740 1_655
O14 V5 1.853228 1_555
O15 P7 1.557740 1_555
O15 V4 1.853228 1_555
O16 V4 1.605120 1_555
O17 V5 1.605120 1_555
O18 V6 1.605120 1_555
O19 V7 1.605120 1_555
O20 P8 1.585074 1_555
O20 V1 2.156958 1_555
O20 V5 2.197436 1_555
O21 P9 1.585074 1_555
O21 V0 2.156958 1_555
O21 V4 2.197436 1_555
O22 P10 1.585074 1_555
O22 V3 2.156958 1_555
O22 V7 2.197436 1_555
O23 P11 1.585074 1_555
O23 V2 2.156958 1_555
O23 V6 2.197436 1_555
O24 P4 1.556468 1_456
O24 V2 1.853357 1_555
O25 P5 1.556468 1_555
O25 V3 1.853357 1_555
O26 P6 1.556468 1_654
O26 V0 1.853357 1_555
O27 P7 1.556468 1_555
O27 V1 1.853357 1_555
O28 P0 1.557537 1_555
O28 V1 1.845713 1_555
O29 P1 1.557537 1_554
O29 V0 1.845713 1_555
O30 P2 1.557537 1_555
O30 V3 1.845713 1_555
O31 P3 1.557537 1_556
O31 V2 1.845713 1_555
O32 P4 1.493731 1_555
O32 Zn0 1.957002 1_554
O33 P5 1.493731 1_555
O33 Zn1 1.957002 1_555
O34 P6 1.493731 1_555
O34 Zn2 1.957002 1_556
O35 P7 1.493731 1_555
O35 Zn3 1.957002 1_555
O36 P0 1.493252 1_455
O36 Zn3 1.941158 1_555
O37 P1 1.493252 1_555
O37 Zn2 1.941158 1_556
O38 P2 1.493252 1_655
O38 Zn1 1.941158 1_555
O39 P3 1.493252 1_555
O39 Zn0 1.941158 1_554
O40 V0 1.607916 1_556
O41 V1 1.607916 1_555
O42 V2 1.607916 1_554
O43 V3 1.607916 1_555
O44 P8 1.536671 1_555
O45 P9 1.536671 1_555
O46 P10 1.536671 1_555
O47 P11 1.536671 1_555
O48 P8 1.540398 1_555
O48 Zn0 1.934313 1_545
O49 P9 1.540398 1_555
O49 Zn1 1.934313 1_545
O50 P10 1.540398 1_555
O50 Zn2 1.934313 1_565
O51 P11 1.540398 1_555
O51 Zn3 1.934313 1_565
O52 P8 1.539330 1_555
O53 P9 1.539330 1_555
O54 P10 1.539330 1_555
O55 P11 1.539330 1_555
O56 Zn0 1.954914 1_544
O57 Zn1 1.954914 1_545
O58 Zn2 1.954914 1_566
O59 Zn3 1.954914 1_565
