# generated using pymatgen
data_BaSrNdCu3O7
_symmetry_space_group_name_H-M   'P 1'
_cell_length_a   3.82211700
_cell_length_b   3.93045900
_cell_length_c   11.70549700
_cell_angle_alpha   90.00000000
_cell_angle_beta   90.00000000
_cell_angle_gamma   90.00000000
_symmetry_Int_Tables_number   1
_chemical_formula_structural   BaSrNdCu3O7
_chemical_formula_sum   'Ba1 Sr1 Nd1 Cu3 O7'
_cell_volume   175.84786733
_cell_formula_units_Z   1
loop_
 _symmetry_equiv_pos_site_id
 _symmetry_equiv_pos_as_xyz
  1  'x, y, z'
loop_
 _atom_site_type_symbol
 _atom_site_label
 _atom_site_symmetry_multiplicity
 _atom_site_fract_x
 _atom_site_fract_y
 _atom_site_fract_z
 _atom_site_occupancy
  Ba  Ba0  1  0.50000000  0.50000000  0.17747400  1
  Sr  Sr0  1  0.50000000  0.50000000  0.81980800  1
  Nd  Nd0  1  0.50000000  0.50000000  0.50274900  1
  Cu  Cu0  1  0.00000000  0.00000000  0.34783800  1
  Cu  Cu1  1  0.00000000  0.00000000  0.65802400  1
  Cu  Cu2  1  0.00000000  0.00000000  0.99634500  1
  O  O0  1  0.00000000  0.00000000  0.15654700  1
  O  O1  1  0.00000000  0.00000000  0.83765300  1
  O  O2  1  0.50000000  0.00000000  0.37406900  1
  O  O3  1  0.00000000  0.50000000  0.37210200  1
  O  O4  1  0.50000000  0.00000000  0.63207200  1
  O  O5  1  0.00000000  0.50000000  0.63576000  1
  O  O6  1  0.00000000  0.50000000  0.98956000  1
loop_
_geom_bond_atom_site_label_1
_geom_bond_atom_site_label_2
_geom_bond_distance
_geom_bond_site_symmetry_2
Ba0 O0 2.752141 1_555
Ba0 O0 2.752141 1_565
Ba0 O0 2.752141 1_665
Ba0 O0 2.752141 1_655
Ba0 O6 2.913847 1_554
Ba0 O6 2.913847 1_654
Ba0 O3 2.973621 1_555
Ba0 O3 2.973621 1_655
Ba0 O2 3.026193 1_565
Ba0 O2 3.026193 1_555
Nd0 O3 2.447625 1_555
Nd0 O3 2.447625 1_655
Nd0 O5 2.465009 1_655
Nd0 O5 2.465009 1_555
Nd0 O2 2.476077 1_555
Nd0 O2 2.476077 1_565
Nd0 O4 2.480663 1_565
Nd0 O4 2.480663 1_555
Cu0 O2 1.935568 1_455
Cu0 O2 1.935568 1_555
Cu0 O3 1.985647 1_545
Cu0 O3 1.985647 1_555
Cu0 O0 2.239156 1_555
Cu1 O4 1.935052 1_455
Cu1 O4 1.935052 1_555
Cu1 O5 1.982434 1_545
Cu1 O5 1.982434 1_555
Cu1 O1 2.102647 1_555
Cu2 O1 1.857569 1_555
Cu2 O0 1.875244 1_556
Cu2 O6 1.966834 1_545
Cu2 O6 1.966834 1_555
O1 Sr0 2.749164 1_555
O1 Sr0 2.749164 1_445
O1 Sr0 2.749164 1_545
O1 Sr0 2.749164 1_455
O4 Sr0 2.948105 1_545
O4 Sr0 2.948105 1_555
O5 Sr0 2.879838 1_455
O5 Sr0 2.879838 1_555
O6 Sr0 2.756889 1_455
O6 Sr0 2.756889 1_555
