# generated using pymatgen
data_YSeO3F
_symmetry_space_group_name_H-M   'P 1'
_cell_length_a   7.00453225
_cell_length_b   4.38371734
_cell_length_c   6.55154748
_cell_angle_alpha   83.76120410
_cell_angle_beta   90.00000000
_cell_angle_gamma   90.00000000
_symmetry_Int_Tables_number   1
_chemical_formula_structural   YSeO3F
_chemical_formula_sum   'Y2 Se2 O6 F2'
_cell_volume   199.97967912
_cell_formula_units_Z   2
loop_
 _symmetry_equiv_pos_site_id
 _symmetry_equiv_pos_as_xyz
  1  'x, y, z'
loop_
 _atom_site_type_symbol
 _atom_site_label
 _atom_site_symmetry_multiplicity
 _atom_site_fract_x
 _atom_site_fract_y
 _atom_site_fract_z
 _atom_site_occupancy
  Y  Y0  1  0.25000000  0.54200895  0.36721525  1
  Y  Y1  1  0.75000000  0.45799105  0.63278475  1
  Se  Se0  1  0.75000000  0.68266932  0.14542470  1
  Se  Se1  1  0.25000000  0.31733068  0.85457530  1
  O  O0  1  0.25000000  0.58417194  0.01899891  1
  O  O1  1  0.75000000  0.41582806  0.98100109  1
  O  O2  1  0.57379739  0.55868061  0.31892888  1
  O  O3  1  0.07379739  0.44131939  0.68107112  1
  O  O4  1  0.42620261  0.44131939  0.68107112  1
  O  O5  1  0.92620261  0.55868061  0.31892888  1
  F  F0  1  0.25000000  0.04196227  0.35713545  1
  F  F1  1  0.75000000  0.95803773  0.64286455  1
loop_
_geom_bond_atom_site_label_1
_geom_bond_atom_site_label_2
_geom_bond_distance
_geom_bond_site_symmetry_2
O0 Se1 1.674105 1_554
O0 Y0 2.268722 1_555
O1 Se0 1.674105 1_556
O1 Y1 2.268722 1_555
O2 Se0 1.725273 1_555
O2 Y0 2.290075 1_555
O2 Y1 2.397704 1_555
O3 Se1 1.725273 1_555
O3 Y1 2.290075 1_455
O3 Y0 2.397704 1_555
O4 Se1 1.725273 1_555
O4 Y1 2.290075 1_555
O4 Y0 2.397704 1_555
O5 Se0 1.725273 1_555
O5 Y0 2.290075 1_655
O5 Y1 2.397704 1_555
F0 Y0 2.185464 1_545
F0 Y0 2.200219 1_555
F1 Y1 2.185464 1_565
F1 Y1 2.200219 1_555
