# generated using pymatgen
data_Ba2FeSbS5
_symmetry_space_group_name_H-M   'P 1'
_cell_length_a   8.91328800
_cell_length_b   9.04885700
_cell_length_c   12.21481000
_cell_angle_alpha   90.00000000
_cell_angle_beta   90.00000000
_cell_angle_gamma   90.00000000
_symmetry_Int_Tables_number   1
_chemical_formula_structural   Ba2FeSbS5
_chemical_formula_sum   'Ba8 Fe4 Sb4 S20'
_cell_volume   985.18633741
_cell_formula_units_Z   4
loop_
 _symmetry_equiv_pos_site_id
 _symmetry_equiv_pos_as_xyz
  1  'x, y, z'
loop_
 _atom_site_type_symbol
 _atom_site_label
 _atom_site_symmetry_multiplicity
 _atom_site_fract_x
 _atom_site_fract_y
 _atom_site_fract_z
 _atom_site_occupancy
  Ba  Ba0  1  0.00733600  0.12231900  0.82357600  1
  Ba  Ba1  1  0.49266400  0.37768100  0.32357600  1
  Ba  Ba2  1  0.50733600  0.87768100  0.17642400  1
  Ba  Ba3  1  0.99266400  0.62231900  0.67642400  1
  Ba  Ba4  1  0.99266400  0.87768100  0.17642400  1
  Ba  Ba5  1  0.50733600  0.62231900  0.67642400  1
  Ba  Ba6  1  0.49266400  0.12231900  0.82357600  1
  Ba  Ba7  1  0.00733600  0.37768100  0.32357600  1
  Fe  Fe0  1  0.25000000  0.32729300  0.59491500  1
  Fe  Fe1  1  0.25000000  0.17270700  0.09491500  1
  Fe  Fe2  1  0.75000000  0.67270700  0.40508500  1
  Fe  Fe3  1  0.75000000  0.82729300  0.90508500  1
  Sb  Sb0  1  0.25000000  0.98348100  0.52232100  1
  Sb  Sb1  1  0.25000000  0.51651900  0.02232100  1
  Sb  Sb2  1  0.75000000  0.01651900  0.47767900  1
  Sb  Sb3  1  0.75000000  0.48348100  0.97767900  1
  S  S0  1  0.04990300  0.17923400  0.55447500  1
  S  S1  1  0.45009700  0.32076600  0.05447500  1
  S  S2  1  0.54990300  0.82076600  0.44552500  1
  S  S3  1  0.95009700  0.67923400  0.94552500  1
  S  S4  1  0.95009700  0.82076600  0.44552500  1
  S  S5  1  0.54990300  0.67923400  0.94552500  1
  S  S6  1  0.45009700  0.17923400  0.55447500  1
  S  S7  1  0.04990300  0.32076600  0.05447500  1
  S  S8  1  0.25000000  0.88402600  0.70975700  1
  S  S9  1  0.25000000  0.61597400  0.20975700  1
  S  S10  1  0.75000000  0.11597400  0.29024300  1
  S  S11  1  0.75000000  0.38402600  0.79024300  1
  S  S12  1  0.25000000  0.38527700  0.77238200  1
  S  S13  1  0.25000000  0.11472300  0.27238200  1
  S  S14  1  0.75000000  0.61472300  0.22761800  1
  S  S15  1  0.75000000  0.88527700  0.72761800  1
  S  S16  1  0.25000000  0.96999000  0.99425900  1
  S  S17  1  0.25000000  0.53001000  0.49425900  1
  S  S18  1  0.75000000  0.03001000  0.00574100  1
  S  S19  1  0.75000000  0.46999000  0.50574100  1
loop_
_geom_bond_atom_site_label_1
_geom_bond_atom_site_label_2
_geom_bond_distance
_geom_bond_site_symmetry_2
Ba0 S12 3.275849 1_555
Ba0 S18 3.303019 1_456
Ba0 S16 3.305287 1_545
Ba0 S11 3.321899 1_455
Ba0 S0 3.348683 1_555
Ba0 S15 3.351984 1_445
Ba0 S8 3.355696 1_545
Ba0 S7 3.364988 1_556
Ba1 S13 3.275849 1_555
Ba1 S19 3.303019 1_555
Ba1 S17 3.305287 1_555
Ba1 S10 3.321899 1_555
Ba1 S1 3.348683 1_555
Ba1 S14 3.351984 1_555
Ba1 S9 3.355696 1_555
Ba1 S6 3.364988 1_555
Ba2 S14 3.275849 1_555
Ba2 S16 3.303019 1_554
Ba2 S18 3.305287 1_565
Ba2 S9 3.321899 1_555
Ba2 S2 3.348683 1_555
Ba2 S13 3.351984 1_565
Ba2 S10 3.355696 1_565
Ba2 S5 3.364988 1_554
Ba3 S15 3.275849 1_555
Ba3 S17 3.303019 1_655
Ba3 S19 3.305287 1_555
Ba3 S8 3.321899 1_655
Ba3 S3 3.348683 1_555
Ba3 S12 3.351984 1_655
Ba3 S11 3.355696 1_555
Ba3 S4 3.364988 1_555
Ba4 S14 3.275849 1_555
Ba4 S16 3.303019 1_654
Ba4 S18 3.305287 1_565
Ba4 S9 3.321899 1_655
Ba4 S4 3.348683 1_555
Ba4 S13 3.351984 1_665
Ba4 S10 3.355696 1_565
Ba4 S3 3.364988 1_554
Ba5 S15 3.275849 1_555
Ba5 S17 3.303019 1_555
Ba5 S19 3.305287 1_555
Ba5 S8 3.321899 1_555
Ba5 S5 3.348683 1_555
Ba5 S12 3.351984 1_555
Ba5 S11 3.355696 1_555
Ba5 S2 3.364988 1_555
Ba6 S12 3.275849 1_555
Ba6 S18 3.303019 1_556
Ba6 S16 3.305287 1_545
Ba6 S11 3.321899 1_555
Ba6 S6 3.348683 1_555
Ba6 S15 3.351984 1_545
Ba6 S8 3.355696 1_545
Ba6 S1 3.364988 1_556
Ba7 S13 3.275849 1_555
Ba7 S19 3.303019 1_455
Ba7 S17 3.305287 1_555
Ba7 S10 3.321899 1_455
Ba7 S7 3.348683 1_555
Ba7 S14 3.351984 1_455
Ba7 S9 3.355696 1_555
Ba7 S0 3.364988 1_555
Fe0 S17 2.208285 1_555
Fe0 S12 2.230321 1_555
Fe0 S0 2.284715 1_555
Fe0 S6 2.284715 1_555
Fe1 S16 2.208285 1_544
Fe1 S13 2.230321 1_555
Fe1 S7 2.284715 1_555
Fe1 S1 2.284715 1_555
Fe2 S19 2.208285 1_555
Fe2 S14 2.230321 1_555
Fe2 S4 2.284715 1_555
Fe2 S2 2.284715 1_555
Fe3 S18 2.208285 1_566
Fe3 S15 2.230321 1_555
Fe3 S5 2.284715 1_555
Fe3 S3 2.284715 1_555
S0 Sb0 2.544181 1_545
S1 Sb1 2.544181 1_555
S2 Sb2 2.544181 1_565
S3 Sb3 2.544181 1_555
S4 Sb2 2.544181 1_565
S5 Sb3 2.544181 1_555
S6 Sb0 2.544181 1_545
S7 Sb1 2.544181 1_555
S8 Sb0 2.460021 1_555
S9 Sb1 2.460021 1_555
S10 Sb2 2.460021 1_555
S11 Sb3 2.460021 1_555
