# generated using pymatgen
data_LuZnPd
_symmetry_space_group_name_H-M   'P 1'
_cell_length_a   7.10636330
_cell_length_b   7.10620201
_cell_length_c   3.80689338
_cell_angle_alpha   90.00000000
_cell_angle_beta   90.00000000
_cell_angle_gamma   119.99924541
_symmetry_Int_Tables_number   1
_chemical_formula_structural   LuZnPd
_chemical_formula_sum   'Lu3 Zn3 Pd3'
_cell_volume   166.49055587
_cell_formula_units_Z   3
loop_
 _symmetry_equiv_pos_site_id
 _symmetry_equiv_pos_as_xyz
  1  'x, y, z'
loop_
 _atom_site_type_symbol
 _atom_site_label
 _atom_site_symmetry_multiplicity
 _atom_site_fract_x
 _atom_site_fract_y
 _atom_site_fract_z
 _atom_site_occupancy
  Lu  Lu0  1  0.59687826  0.59692260  0.00000000  1
  Lu  Lu1  1  0.40312174  0.00004434  0.00000000  1
  Lu  Lu2  1  0.00000000  0.40305759  0.00000000  1
  Zn  Zn0  1  0.25342201  0.25341812  0.50000000  1
  Zn  Zn1  1  0.74657799  -0.00000289  0.50000000  1
  Zn  Zn2  1  0.00000000  0.74658110  0.50000000  1
  Pd  Pd0  1  -0.00000000  0.00000116  -0.00000000  1
  Pd  Pd1  1  0.66666260  0.33332030  0.50000000  1
  Pd  Pd2  1  0.33333740  0.66665869  0.50000000  1
loop_
_geom_bond_atom_site_label_1
_geom_bond_atom_site_label_2
_geom_bond_distance
_geom_bond_site_symmetry_2
Lu0 Pd0 2.864576 1_665
Lu0 Pd2 2.881701 1_554
Lu0 Pd2 2.881701 1_555
Lu0 Pd1 2.882167 1_554
Lu0 Pd1 2.882167 1_555
Lu0 Zn0 3.095333 1_554
Lu0 Zn0 3.095333 1_555
Lu0 Zn1 3.148355 1_565
Lu0 Zn1 3.148355 1_564
Lu0 Zn2 3.148689 1_654
Lu0 Zn2 3.148689 1_655
Lu1 Pd0 2.864576 1_555
Lu1 Pd1 2.881698 1_554
Lu1 Pd1 2.881698 1_555
Lu1 Pd2 2.882162 1_545
Lu1 Pd2 2.882162 1_544
Lu1 Zn1 3.095330 1_555
Lu1 Zn1 3.095330 1_554
Lu1 Zn0 3.148350 1_554
Lu1 Zn0 3.148350 1_555
Lu1 Zn2 3.148689 1_545
Lu1 Zn2 3.148689 1_544
Lu2 Pd0 2.864200 1_555
Lu2 Pd1 2.882032 1_454
Lu2 Pd1 2.882032 1_455
Lu2 Pd2 2.882034 1_554
Lu2 Pd2 2.882034 1_555
Lu2 Zn2 3.095531 1_554
Lu2 Zn2 3.095531 1_555
Lu2 Zn1 3.148348 1_454
Lu2 Zn1 3.148348 1_455
Lu2 Zn0 3.148352 1_554
Lu2 Zn0 3.148352 1_555
Pd0 Zn2 2.620341 1_544
Pd0 Zn2 2.620341 1_545
Pd0 Zn0 2.620366 1_554
Pd0 Zn0 2.620366 1_555
Pd0 Zn1 2.620368 1_454
Pd0 Zn1 2.620368 1_455
Pd1 Zn1 2.697819 1_555
Pd1 Zn0 2.697935 1_555
Pd1 Zn2 2.698000 1_655
Pd2 Zn0 2.697833 1_555
Pd2 Zn1 2.697935 1_565
Pd2 Zn2 2.697996 1_555
