# generated using pymatgen
data_KAsO3
_symmetry_space_group_name_H-M   'P 1'
_cell_length_a   8.94064430
_cell_length_b   19.12823845
_cell_length_c   12.23769435
_cell_angle_alpha   90.00000000
_cell_angle_beta   90.27242595
_cell_angle_gamma   90.00000000
_symmetry_Int_Tables_number   1
_chemical_formula_structural   KAsO3
_chemical_formula_sum   'K24 As24 O72'
_cell_volume   2092.85185186
_cell_formula_units_Z   24
loop_
 _symmetry_equiv_pos_site_id
 _symmetry_equiv_pos_as_xyz
  1  'x, y, z'
loop_
 _atom_site_type_symbol
 _atom_site_label
 _atom_site_symmetry_multiplicity
 _atom_site_fract_x
 _atom_site_fract_y
 _atom_site_fract_z
 _atom_site_occupancy
  K  K0  1  0.60565527  0.57592507  0.19991120  1
  K  K1  1  0.39434473  0.07592507  0.30008880  1
  K  K2  1  0.39434473  0.42407493  0.80008880  1
  K  K3  1  0.60565527  0.92407493  0.69991120  1
  K  K4  1  0.36101486  0.42606010  0.45395801  1
  K  K5  1  0.63898514  0.92606010  0.04604199  1
  K  K6  1  0.63898514  0.57393990  0.54604199  1
  K  K7  1  0.36101486  0.07393990  0.95395801  1
  K  K8  1  0.88094478  0.42592295  0.29154357  1
  K  K9  1  0.11905522  0.92592295  0.20845643  1
  K  K10  1  0.11905522  0.57407705  0.70845643  1
  K  K11  1  0.88094478  0.07407705  0.79154357  1
  K  K12  1  0.11889509  0.57814549  0.04879502  1
  K  K13  1  0.88110491  0.07814549  0.45120498  1
  K  K14  1  0.88110491  0.42185451  0.95120498  1
  K  K15  1  0.11889509  0.92185451  0.54879502  1
  K  K16  1  0.87128503  0.74865646  0.63477440  1
  K  K17  1  0.12871497  0.24865646  0.86522560  1
  K  K18  1  0.12871497  0.25134354  0.36522560  1
  K  K19  1  0.87128503  0.75134354  0.13477440  1
  K  K20  1  0.37308202  0.74791542  0.61471693  1
  K  K21  1  0.62691798  0.24791542  0.88528307  1
  K  K22  1  0.62691798  0.25208458  0.38528307  1
  K  K23  1  0.37308202  0.75208458  0.11471693  1
  As  As0  1  0.29065423  0.60528984  0.33654105  1
  As  As1  1  0.70934577  0.10528984  0.16345895  1
  As  As2  1  0.70934577  0.39471016  0.66345895  1
  As  As3  1  0.29065423  0.89471016  0.83654105  1
  As  As4  1  0.04463403  0.39585458  0.58967630  1
  As  As5  1  0.95536597  0.89585458  0.91032370  1
  As  As6  1  0.95536597  0.60414542  0.41032370  1
  As  As7  1  0.04463403  0.10414542  0.08967630  1
  As  As8  1  0.54524048  0.39435492  0.16514435  1
  As  As9  1  0.45475952  0.89435492  0.33485565  1
  As  As10  1  0.45475952  0.60564508  0.83485565  1
  As  As11  1  0.54524048  0.10564508  0.66514435  1
  As  As12  1  0.78679571  0.60494762  0.91865705  1
  As  As13  1  0.21320429  0.10494762  0.58134295  1
  As  As14  1  0.21320429  0.39505238  0.08134295  1
  As  As15  1  0.78679571  0.89505238  0.41865705  1
  As  As16  1  0.12151331  0.74589584  0.37508715  1
  As  As17  1  0.87848669  0.24589584  0.12491285  1
  As  As18  1  0.87848669  0.25410416  0.62491285  1
  As  As19  1  0.12151331  0.75410416  0.87508715  1
  As  As20  1  0.62343641  0.74598806  0.87413703  1
  As  As21  1  0.37656359  0.24598806  0.62586297  1
  As  As22  1  0.37656359  0.25401194  0.12586297  1
  As  As23  1  0.62343641  0.75401194  0.37413703  1
  O  O0  1  0.29613404  0.62134608  0.20421219  1
  O  O1  1  0.70386596  0.12134608  0.29578781  1
  O  O2  1  0.70386596  0.37865392  0.79578781  1
  O  O3  1  0.29613404  0.87865392  0.70421219  1
  O  O4  1  0.04731098  0.38241486  0.45651084  1
  O  O5  1  0.95268902  0.88241486  0.04348916  1
  O  O6  1  0.95268902  0.61758514  0.54348916  1
  O  O7  1  0.04731098  0.11758514  0.95651084  1
  O  O8  1  0.54194794  0.38110158  0.29831083  1
  O  O9  1  0.45805206  0.88110158  0.20168917  1
  O  O10  1  0.45805206  0.61889842  0.70168917  1
  O  O11  1  0.54194794  0.11889842  0.79831083  1
  O  O12  1  0.78735052  0.62188625  0.05076648  1
  O  O13  1  0.21264948  0.12188625  0.44923352  1
  O  O14  1  0.21264948  0.37811375  0.94923352  1
  O  O15  1  0.78735052  0.87811375  0.55076648  1
  O  O16  1  0.42782609  0.56056604  0.39330182  1
  O  O17  1  0.57217391  0.06056604  0.10669818  1
  O  O18  1  0.57217391  0.43943396  0.60669818  1
  O  O19  1  0.42782609  0.93943396  0.89330182  1
  O  O20  1  0.18254392  0.43984705  0.64706341  1
  O  O21  1  0.81745608  0.93984705  0.85293659  1
  O  O22  1  0.81745608  0.56015295  0.35293659  1
  O  O23  1  0.18254392  0.06015295  0.14706341  1
  O  O24  1  0.68486479  0.43972868  0.11377098  1
  O  O25  1  0.31513521  0.93972868  0.38622902  1
  O  O26  1  0.31513521  0.56027132  0.88622902  1
  O  O27  1  0.68486479  0.06027132  0.61377098  1
  O  O28  1  0.92548893  0.55795698  0.86948711  1
  O  O29  1  0.07451107  0.05795698  0.63051289  1
  O  O30  1  0.07451107  0.44204302  0.13051289  1
  O  O31  1  0.92548893  0.94204302  0.36948711  1
  O  O32  1  0.12293434  0.56056632  0.37168608  1
  O  O33  1  0.87706566  0.06056632  0.12831392  1
  O  O34  1  0.87706566  0.43943368  0.62831392  1
  O  O35  1  0.12293434  0.93943368  0.87168608  1
  O  O36  1  0.62003726  0.56130030  0.87800507  1
  O  O37  1  0.37996274  0.06130030  0.62199493  1
  O  O38  1  0.37996274  0.43869970  0.12199493  1
  O  O39  1  0.62003726  0.93869970  0.37800507  1
  O  O40  1  0.26729583  0.68503179  0.40927879  1
  O  O41  1  0.73270417  0.18503179  0.09072121  1
  O  O42  1  0.73270417  0.31496821  0.59072121  1
  O  O43  1  0.26729583  0.81496821  0.90927879  1
  O  O44  1  0.02384160  0.31497438  0.65997641  1
  O  O45  1  0.97615840  0.81497438  0.84002359  1
  O  O46  1  0.97615840  0.68502562  0.34002359  1
  O  O47  1  0.02384160  0.18502562  0.15997641  1
  O  O48  1  0.52491641  0.31401256  0.09329832  1
  O  O49  1  0.47508359  0.81401256  0.40670168  1
  O  O50  1  0.47508359  0.68598744  0.90670168  1
  O  O51  1  0.52491641  0.18598744  0.59329832  1
  O  O52  1  0.76896430  0.68418915  0.84329549  1
  O  O53  1  0.23103570  0.18418915  0.65670451  1
  O  O54  1  0.23103570  0.31581085  0.15670451  1
  O  O55  1  0.76896430  0.81581085  0.34329549  1
  O  O56  1  0.15083275  0.78786713  0.25976839  1
  O  O57  1  0.84916725  0.28786713  0.24023161  1
  O  O58  1  0.84916725  0.21213287  0.74023161  1
  O  O59  1  0.15083275  0.71213287  0.75976839  1
  O  O60  1  0.09179300  0.78647130  0.49151107  1
  O  O61  1  0.90820700  0.28647130  0.00848893  1
  O  O62  1  0.90820700  0.21352870  0.50848893  1
  O  O63  1  0.09179300  0.71352870  0.99151107  1
  O  O64  1  0.59649649  0.78634009  0.75704958  1
  O  O65  1  0.40350351  0.28634009  0.74295042  1
  O  O66  1  0.40350351  0.21365991  0.24295042  1
  O  O67  1  0.59649649  0.71365991  0.25704958  1
  O  O68  1  0.65134982  0.78782913  0.98982641  1
  O  O69  1  0.34865018  0.28782913  0.51017359  1
  O  O70  1  0.34865018  0.21217087  0.01017359  1
  O  O71  1  0.65134982  0.71217087  0.48982641  1
loop_
_geom_bond_atom_site_label_1
_geom_bond_atom_site_label_2
_geom_bond_distance
_geom_bond_site_symmetry_2
K0 O12 2.602178 1_555
K0 O22 2.673962 1_555
K0 O67 2.727167 1_555
K0 O16 2.872448 1_555
K0 O24 2.899470 1_555
K0 O0 2.901218 1_555
K1 O13 2.602178 1_555
K1 O23 2.673962 1_555
K1 O66 2.727167 1_555
K1 O17 2.872448 1_555
K1 O25 2.899470 1_545
K1 O1 2.901218 1_555
K2 O14 2.602178 1_555
K2 O20 2.673962 1_555
K2 O65 2.727167 1_555
K2 O18 2.872448 1_555
K2 O26 2.899470 1_555
K2 O2 2.901218 1_555
K3 O15 2.602178 1_555
K3 O21 2.673962 1_555
K3 O64 2.727167 1_555
K3 O19 2.872448 1_555
K3 O27 2.899470 1_565
K3 O3 2.901218 1_555
K4 O8 2.648358 1_555
K4 O18 2.662688 1_555
K4 O69 2.734513 1_555
K4 O16 2.744383 1_555
K4 O20 2.869850 1_555
K4 O4 2.926640 1_555
K5 O9 2.648358 1_555
K5 O19 2.662688 1_554
K5 O68 2.734513 1_554
K5 O17 2.744383 1_565
K5 O21 2.869850 1_554
K5 O5 2.926640 1_555
K6 O10 2.648358 1_555
K6 O16 2.662688 1_555
K6 O71 2.734513 1_555
K6 O18 2.744383 1_555
K6 O22 2.869850 1_555
K6 O6 2.926640 1_555
K7 O11 2.648358 1_555
K7 O17 2.662688 1_556
K7 O70 2.734513 1_556
K7 O19 2.744383 1_545
K7 O23 2.869850 1_556
K7 O7 2.926640 1_555
K8 O4 2.636685 1_655
K8 O30 2.646876 1_655
K8 O57 2.728914 1_555
K8 O22 2.735545 1_555
K8 O24 2.799943 1_555
K8 O8 3.151246 1_555
K9 O5 2.636685 1_455
K9 O31 2.646876 1_455
K9 O56 2.728914 1_555
K9 O23 2.735545 1_565
K9 O25 2.799943 1_555
K9 O9 3.151246 1_555
K10 O6 2.636685 1_455
K10 O28 2.646876 1_455
K10 O59 2.728914 1_555
K10 O20 2.735545 1_555
K10 O26 2.799943 1_555
K10 O10 3.151246 1_555
K11 O7 2.636685 1_655
K11 O29 2.646876 1_655
K11 O58 2.728914 1_555
K11 O21 2.735545 1_545
K11 O27 2.799943 1_555
K11 O11 3.151246 1_555
K12 O0 2.604353 1_555
K12 O26 2.680718 1_554
K12 O63 2.693470 1_554
K12 O28 2.813914 1_454
K12 O30 2.817625 1_555
K12 O12 3.080246 1_455
K13 O1 2.604353 1_555
K13 O27 2.680718 1_555
K13 O62 2.693470 1_555
K13 O29 2.813914 1_655
K13 O31 2.817625 1_545
K13 O13 3.080246 1_655
K14 O2 2.604353 1_555
K14 O24 2.680718 1_556
K14 O61 2.693470 1_556
K14 O30 2.813914 1_656
K14 O28 2.817625 1_555
K14 O14 3.080246 1_655
K15 O3 2.604353 1_555
K15 O25 2.680718 1_555
K15 O60 2.693470 1_555
K15 O31 2.813914 1_455
K15 O29 2.817625 1_565
K15 O15 3.080246 1_455
K16 O71 2.732573 1_555
K16 O60 2.741638 1_655
K16 O15 2.782936 1_555
K16 O6 2.840996 1_555
K16 O45 2.962262 1_555
K16 O64 2.971440 1_555
K16 O52 2.981862 1_555
K16 O59 3.006361 1_655
K17 O70 2.732573 1_556
K17 O61 2.741638 1_456
K17 O14 2.782936 1_555
K17 O7 2.840996 1_555
K17 O44 2.962262 1_555
K17 O65 2.971440 1_555
K17 O53 2.981862 1_555
K17 O58 3.006361 1_455
K18 O69 2.732573 1_555
K18 O62 2.741638 1_455
K18 O13 2.782936 1_555
K18 O4 2.840996 1_555
K18 O47 2.962262 1_555
K18 O66 2.971440 1_555
K18 O54 2.981862 1_555
K18 O57 3.006361 1_455
K19 O68 2.732573 1_554
K19 O63 2.741638 1_654
K19 O12 2.782936 1_555
K19 O5 2.840996 1_555
K19 O46 2.962262 1_555
K19 O67 2.971440 1_555
K19 O55 2.981862 1_555
K19 O56 3.006361 1_655
K20 O64 2.744261 1_555
K20 O59 2.757057 1_555
K20 O10 2.791528 1_555
K20 O3 2.816726 1_555
K20 O40 2.939289 1_555
K20 O49 2.988724 1_555
K20 O71 3.004860 1_555
K20 O60 3.017604 1_555
K21 O65 2.744261 1_555
K21 O58 2.757057 1_555
K21 O11 2.791528 1_555
K21 O2 2.816726 1_555
K21 O41 2.939289 1_556
K21 O48 2.988724 1_556
K21 O70 3.004860 1_556
K21 O61 3.017604 1_556
K22 O66 2.744261 1_555
K22 O57 2.757057 1_555
K22 O8 2.791528 1_555
K22 O1 2.816726 1_555
K22 O42 2.939289 1_555
K22 O51 2.988724 1_555
K22 O69 3.004860 1_555
K22 O62 3.017604 1_555
K23 O67 2.744261 1_555
K23 O56 2.757057 1_555
K23 O9 2.791528 1_555
K23 O0 2.816726 1_555
K23 O43 2.939289 1_554
K23 O50 2.988724 1_554
K23 O68 3.004860 1_554
K23 O63 3.017604 1_554
As0 O16 1.646306 1_555
As0 O0 1.649224 1_555
As0 O40 1.778861 1_555
As0 O32 1.780881 1_555
As1 O17 1.646306 1_555
As1 O1 1.649224 1_555
As1 O41 1.778861 1_555
As1 O33 1.780881 1_555
As2 O18 1.646306 1_555
As2 O2 1.649224 1_555
As2 O42 1.778861 1_555
As2 O34 1.780881 1_555
As3 O19 1.646306 1_555
As3 O3 1.649224 1_555
As3 O43 1.778861 1_555
As3 O35 1.780881 1_555
As4 O20 1.647236 1_555
As4 O4 1.650077 1_555
As4 O34 1.780364 1_455
As4 O44 1.780371 1_555
As5 O21 1.647236 1_555
As5 O5 1.650077 1_556
As5 O35 1.780364 1_655
As5 O45 1.780371 1_555
As6 O22 1.647236 1_555
As6 O6 1.650077 1_555
As6 O32 1.780364 1_655
As6 O46 1.780371 1_555
As7 O23 1.647236 1_555
As7 O7 1.650077 1_554
As7 O33 1.780364 1_455
As7 O47 1.780371 1_555
As8 O24 1.647523 1_555
As8 O8 1.649652 1_555
As8 O48 1.779416 1_555
As8 O38 1.781710 1_555
As9 O25 1.647523 1_555
As9 O9 1.649652 1_555
As9 O49 1.779416 1_555
As9 O39 1.781710 1_555
As10 O26 1.647523 1_555
As10 O10 1.649652 1_555
As10 O50 1.779416 1_555
As10 O36 1.781710 1_555
As11 O27 1.647523 1_555
As11 O11 1.649652 1_555
As11 O51 1.779416 1_555
As11 O37 1.781710 1_555
As12 O28 1.647639 1_555
As12 O12 1.648847 1_556
As12 O36 1.777739 1_555
As12 O52 1.781030 1_555
As13 O29 1.647639 1_555
As13 O13 1.648847 1_555
As13 O37 1.777739 1_555
As13 O53 1.781030 1_555
As14 O30 1.647639 1_555
As14 O14 1.648847 1_554
As14 O38 1.777739 1_555
As14 O54 1.781030 1_555
As15 O31 1.647639 1_555
As15 O15 1.648847 1_555
As15 O39 1.777739 1_555
As15 O55 1.781030 1_555
As16 O60 1.645156 1_555
As16 O56 1.645711 1_555
As16 O46 1.795378 1_455
As16 O40 1.795587 1_555
As17 O61 1.645156 1_555
As17 O57 1.645711 1_555
As17 O47 1.795378 1_655
As17 O41 1.795587 1_555
As18 O62 1.645156 1_555
As18 O58 1.645711 1_555
As18 O44 1.795378 1_655
As18 O42 1.795587 1_555
As19 O63 1.645156 1_555
As19 O59 1.645711 1_555
As19 O45 1.795378 1_455
As19 O43 1.795587 1_555
As20 O64 1.644278 1_555
As20 O68 1.644349 1_555
As20 O52 1.799274 1_555
As20 O50 1.800091 1_555
As21 O65 1.644278 1_555
As21 O69 1.644349 1_555
As21 O53 1.799274 1_555
As21 O51 1.800091 1_555
As22 O66 1.644278 1_555
As22 O70 1.644349 1_555
As22 O54 1.799274 1_555
As22 O48 1.800091 1_555
As23 O67 1.644278 1_555
As23 O71 1.644349 1_555
As23 O55 1.799274 1_555
As23 O49 1.800091 1_555
