# generated using pymatgen
data_Ta2GaC
_symmetry_space_group_name_H-M   'P 1'
_cell_length_a   3.11135022
_cell_length_b   3.11135022
_cell_length_c   13.56342451
_cell_angle_alpha   90.00000000
_cell_angle_beta   90.00000000
_cell_angle_gamma   120.00003284
_symmetry_Int_Tables_number   1
_chemical_formula_structural   Ta2GaC
_chemical_formula_sum   'Ta4 Ga2 C2'
_cell_volume   113.70973349
_cell_formula_units_Z   2
loop_
 _symmetry_equiv_pos_site_id
 _symmetry_equiv_pos_as_xyz
  1  'x, y, z'
loop_
 _atom_site_type_symbol
 _atom_site_label
 _atom_site_symmetry_multiplicity
 _atom_site_fract_x
 _atom_site_fract_y
 _atom_site_fract_z
 _atom_site_occupancy
  Ta  Ta0  1  0.66666700  0.33333300  0.40939728  1
  Ta  Ta1  1  0.33333300  0.66666700  0.59060272  1
  Ta  Ta2  1  0.33333300  0.66666700  0.90939728  1
  Ta  Ta3  1  0.66666700  0.33333300  0.09060272  1
  Ga  Ga0  1  0.66666700  0.33333300  0.75000000  1
  Ga  Ga1  1  0.33333300  0.66666700  0.25000000  1
  C  C0  1  -0.00000000  0.00000000  0.00000000  1
  C  C1  1  -0.00000000  0.00000000  0.50000000  1
loop_
_geom_bond_atom_site_label_1
_geom_bond_atom_site_label_2
_geom_bond_distance
_geom_bond_site_symmetry_2
Ga0 Ta2 2.810863 1_545
Ga0 Ta1 2.810863 1_655
Ga0 Ta2 2.810863 1_655
Ga0 Ta1 2.810863 1_545
Ga0 Ta1 2.810867 1_555
Ga0 Ta2 2.810867 1_555
Ga1 Ta0 2.810863 1_565
Ga1 Ta0 2.810863 1_455
Ga1 Ta3 2.810863 1_455
Ga1 Ta3 2.810863 1_565
Ga1 Ta3 2.810867 1_555
Ga1 Ta0 2.810867 1_555
C0 Ta3 2.176461 1_455
C0 Ta2 2.176461 1_544
C0 Ta3 2.176462 1_445
C0 Ta3 2.176462 1_555
C0 Ta2 2.176462 1_554
C0 Ta2 2.176462 1_444
C1 Ta1 2.176461 1_545
C1 Ta0 2.176461 1_455
C1 Ta0 2.176462 1_445
C1 Ta0 2.176462 1_555
C1 Ta1 2.176462 1_445
C1 Ta1 2.176462 1_555
