# generated using pymatgen
data_GdO2
_symmetry_space_group_name_H-M   'P 1'
_cell_length_a   3.72870900
_cell_length_b   4.18441800
_cell_length_c   6.08306047
_cell_angle_alpha   104.47781260
_cell_angle_beta   90.00000000
_cell_angle_gamma   90.00000000
_symmetry_Int_Tables_number   1
_chemical_formula_structural   GdO2
_chemical_formula_sum   'Gd2 O4'
_cell_volume   91.89687359
_cell_formula_units_Z   2
loop_
 _symmetry_equiv_pos_site_id
 _symmetry_equiv_pos_as_xyz
  1  'x, y, z'
loop_
 _atom_site_type_symbol
 _atom_site_label
 _atom_site_symmetry_multiplicity
 _atom_site_fract_x
 _atom_site_fract_y
 _atom_site_fract_z
 _atom_site_occupancy
  Gd  Gd0  1  0.25000000  0.68094300  0.79787900  1
  Gd  Gd1  1  0.75000000  0.31905700  0.20212100  1
  O  O0  1  0.25000000  0.23944800  0.95678800  1
  O  O1  1  0.75000000  0.76055200  0.04321200  1
  O  O2  1  0.25000000  0.30052400  0.44098500  1
  O  O3  1  0.75000000  0.69947600  0.55901500  1
loop_
_geom_bond_atom_site_label_1
_geom_bond_atom_site_label_2
_geom_bond_distance
_geom_bond_site_symmetry_2
Gd0 O0 2.289152 1_555
Gd0 O0 2.294887 1_565
Gd0 O2 2.349304 1_555
Gd0 O1 2.359109 1_556
Gd0 O1 2.359109 1_456
Gd0 O3 2.376858 1_455
Gd0 O3 2.376858 1_555
Gd1 O1 2.289152 1_555
Gd1 O1 2.294887 1_545
Gd1 O3 2.349304 1_555
Gd1 O0 2.359109 1_654
Gd1 O0 2.359109 1_554
Gd1 O2 2.376858 1_555
Gd1 O2 2.376858 1_655
