# generated using pymatgen
data_CeSe2
_symmetry_space_group_name_H-M   'P 1'
_cell_length_a   9.60840172
_cell_length_b   9.60840172
_cell_length_c   7.93539900
_cell_angle_alpha   90.00000000
_cell_angle_beta   90.00000000
_cell_angle_gamma   97.15291494
_symmetry_Int_Tables_number   1
_chemical_formula_structural   CeSe2
_chemical_formula_sum   'Ce4 Se8'
_cell_volume   726.90540198
_cell_formula_units_Z   4
loop_
 _symmetry_equiv_pos_site_id
 _symmetry_equiv_pos_as_xyz
  1  'x, y, z'
loop_
 _atom_site_type_symbol
 _atom_site_label
 _atom_site_symmetry_multiplicity
 _atom_site_fract_x
 _atom_site_fract_y
 _atom_site_fract_z
 _atom_site_occupancy
  Ce  Ce0  1  0.04467500  0.34927700  0.14416700  1
  Ce  Ce1  1  0.34927700  0.04467500  0.85583300  1
  Ce  Ce2  1  0.95532500  0.65072300  0.64416700  1
  Ce  Ce3  1  0.65072300  0.95532500  0.35583300  1
  Se  Se0  1  0.10625600  0.52411300  0.41197300  1
  Se  Se1  1  0.52411300  0.10625600  0.58802700  1
  Se  Se2  1  0.89374400  0.47588700  0.91197300  1
  Se  Se3  1  0.47588700  0.89374400  0.08802700  1
  Se  Se4  1  0.89469300  0.10530700  0.25000000  1
  Se  Se5  1  0.10530700  0.89469300  0.75000000  1
  Se  Se6  1  0.71313100  0.71313100  0.50000000  1
  Se  Se7  1  0.28686900  0.28686900  0.00000000  1
loop_
_geom_bond_atom_site_label_1
_geom_bond_atom_site_label_2
_geom_bond_distance
_geom_bond_site_symmetry_2
Ce0 Se2 2.723484 1_454
Ce0 Se7 2.726032 1_555
Ce0 Se4 2.726877 1_455
Ce0 Se0 2.727794 1_555
Ce1 Se3 2.723484 1_546
Ce1 Se7 2.726032 1_556
Ce1 Se5 2.726877 1_545
Ce1 Se1 2.727794 1_555
Ce2 Se0 2.723484 1_655
Ce2 Se6 2.726032 1_555
Ce2 Se5 2.726877 1_655
Ce2 Se2 2.727794 1_555
Ce3 Se1 2.723484 1_565
Ce3 Se6 2.726032 1_555
Ce3 Se4 2.726877 1_565
Ce3 Se3 2.727794 1_555
