# generated using pymatgen
data_ErSe2NO11
_symmetry_space_group_name_H-M   'P 1'
_cell_length_a   5.81545300
_cell_length_b   7.23063093
_cell_length_c   13.97523035
_cell_angle_alpha   101.52778659
_cell_angle_beta   98.64422480
_cell_angle_gamma   94.38991492
_symmetry_Int_Tables_number   1
_chemical_formula_structural   ErSe2NO11
_chemical_formula_sum   'Er2 Se4 N2 O22'
_cell_volume   565.79921649
_cell_formula_units_Z   2
loop_
 _symmetry_equiv_pos_site_id
 _symmetry_equiv_pos_as_xyz
  1  'x, y, z'
loop_
 _atom_site_type_symbol
 _atom_site_label
 _atom_site_symmetry_multiplicity
 _atom_site_fract_x
 _atom_site_fract_y
 _atom_site_fract_z
 _atom_site_occupancy
  Er  Er0  1  0.12480100  0.81755400  0.66352300  1
  Er  Er1  1  0.87519900  0.18244600  0.33647700  1
  Se  Se0  1  0.97266400  0.71604000  0.40586600  1
  Se  Se1  1  0.02733600  0.28396000  0.59413400  1
  Se  Se2  1  0.70436000  0.92270000  0.84433300  1
  Se  Se3  1  0.29564000  0.07730000  0.15566700  1
  N  N0  1  0.61565100  0.32655900  0.09127400  1
  N  N1  1  0.38434900  0.67344100  0.90872600  1
  O  O0  1  0.43653000  0.91222200  0.77674100  1
  O  O1  1  0.56347000  0.08777800  0.22325900  1
  O  O2  1  0.65796100  0.38232600  0.02214500  1
  O  O3  1  0.34203900  0.61767400  0.97785500  1
  O  O4  1  0.69276800  0.30833700  0.54205400  1
  O  O5  1  0.30723200  0.69166300  0.45794600  1
  O  O6  1  0.36531400  0.79434800  0.55208400  1
  O  O7  1  0.63468600  0.20565200  0.44791600  1
  O  O8  1  0.71326700  0.31420000  0.77242100  1
  O  O9  1  0.28673300  0.68580000  0.22757900  1
  O  O10  1  0.86618900  0.80217900  0.76778800  1
  O  O11  1  0.13381100  0.19782100  0.23221200  1
  O  O12  1  0.88558800  0.35705900  0.83924200  1
  O  O13  1  0.11441200  0.64294100  0.16075800  1
  O  O14  1  0.88597500  0.78002800  0.51628600  1
  O  O15  1  0.11402500  0.21997200  0.48371400  1
  O  O16  1  0.85509100  0.49733300  0.34605500  1
  O  O17  1  0.14490900  0.50266700  0.65394500  1
  O  O18  1  0.64511500  0.75824000  0.92806500  1
  O  O19  1  0.35488500  0.24176000  0.07193500  1
  O  O20  1  0.88322300  0.86442300  0.33253900  1
  O  O21  1  0.11677700  0.13557700  0.66746100  1
loop_
_geom_bond_atom_site_label_1
_geom_bond_atom_site_label_2
_geom_bond_distance
_geom_bond_site_symmetry_2
Er0 O0 2.184810 1_555
Er0 O6 2.235222 1_555
Er0 O10 2.257282 1_455
Er0 O14 2.257591 1_455
Er0 O17 2.266982 1_555
Er0 O21 2.293372 1_565
Er1 O1 2.184810 1_555
Er1 O7 2.235222 1_555
Er1 O11 2.257282 1_655
Er1 O15 2.257591 1_655
Er1 O16 2.266982 1_555
Er1 O20 2.293372 1_545
N0 O2 1.169804 1_555
N0 O19 1.554641 1_555
N1 O3 1.169804 1_555
N1 O18 1.554641 1_555
O0 Se2 1.683767 1_555
O1 Se3 1.683767 1_555
O4 O7 1.354172 1_555
O4 Se1 2.006118 1_655
O5 O6 1.354172 1_555
O5 Se0 2.006118 1_455
O10 Se2 1.686716 1_555
O11 Se3 1.686716 1_555
O12 O8 1.236055 1_555
O13 O9 1.236055 1_555
O14 Se0 1.683363 1_555
O15 Se1 1.683363 1_555
O16 Se0 1.673718 1_555
O17 Se1 1.673718 1_555
O18 Se2 1.875294 1_555
O19 Se3 1.875294 1_555
O20 Se0 1.684177 1_555
O21 Se1 1.684177 1_555
