# generated using pymatgen
data_Ho3Ga15Ru4
_symmetry_space_group_name_H-M   'P 1'
_cell_length_a   8.80794800
_cell_length_b   9.63859400
_cell_length_c   17.84738600
_cell_angle_alpha   90.00000000
_cell_angle_beta   90.00000000
_cell_angle_gamma   90.00000000
_symmetry_Int_Tables_number   1
_chemical_formula_structural   Ho3Ga15Ru4
_chemical_formula_sum   'Ho12 Ga60 Ru16'
_cell_volume   1515.17587144
_cell_formula_units_Z   4
loop_
 _symmetry_equiv_pos_site_id
 _symmetry_equiv_pos_as_xyz
  1  'x, y, z'
loop_
 _atom_site_type_symbol
 _atom_site_label
 _atom_site_symmetry_multiplicity
 _atom_site_fract_x
 _atom_site_fract_y
 _atom_site_fract_z
 _atom_site_occupancy
  Ho  Ho0  1  0.37562800  0.25000000  0.16775100  1
  Ho  Ho1  1  0.62437200  0.75000000  0.83224900  1
  Ho  Ho2  1  0.12437200  0.75000000  0.66775100  1
  Ho  Ho3  1  0.87562800  0.25000000  0.33224900  1
  Ho  Ho4  1  0.37538400  0.25000000  0.74838700  1
  Ho  Ho5  1  0.62461600  0.75000000  0.25161300  1
  Ho  Ho6  1  0.12461600  0.75000000  0.24838700  1
  Ho  Ho7  1  0.87538400  0.25000000  0.75161300  1
  Ho  Ho8  1  0.12545600  0.25000000  0.52400400  1
  Ho  Ho9  1  0.87454400  0.75000000  0.47599600  1
  Ho  Ho10  1  0.37454400  0.75000000  0.02400400  1
  Ho  Ho11  1  0.62545600  0.25000000  0.97599600  1
  Ga  Ga0  1  0.12676100  0.06082400  0.25282300  1
  Ga  Ga1  1  0.87323900  0.93917600  0.74717700  1
  Ga  Ga2  1  0.37323900  0.93917600  0.75282300  1
  Ga  Ga3  1  0.87323900  0.56082400  0.74717700  1
  Ga  Ga4  1  0.62676100  0.06082400  0.24717700  1
  Ga  Ga5  1  0.12676100  0.43917600  0.25282300  1
  Ga  Ga6  1  0.62676100  0.43917600  0.24717700  1
  Ga  Ga7  1  0.37323900  0.56082400  0.75282300  1
  Ga  Ga8  1  0.00710900  0.25000000  0.16897500  1
  Ga  Ga9  1  0.99289100  0.75000000  0.83102500  1
  Ga  Ga10  1  0.49289100  0.75000000  0.66897500  1
  Ga  Ga11  1  0.50710900  0.25000000  0.33102500  1
  Ga  Ga12  1  0.13360200  0.25000000  0.04162100  1
  Ga  Ga13  1  0.86639800  0.75000000  0.95837900  1
  Ga  Ga14  1  0.36639800  0.75000000  0.54162100  1
  Ga  Ga15  1  0.63360200  0.25000000  0.45837900  1
  Ga  Ga16  1  0.37443400  0.57785300  0.33107900  1
  Ga  Ga17  1  0.62556600  0.42214700  0.66892100  1
  Ga  Ga18  1  0.12556600  0.42214700  0.83107900  1
  Ga  Ga19  1  0.62556600  0.07785300  0.66892100  1
  Ga  Ga20  1  0.87443400  0.57785300  0.16892100  1
  Ga  Ga21  1  0.37443400  0.92214700  0.33107900  1
  Ga  Ga22  1  0.87443400  0.92214700  0.16892100  1
  Ga  Ga23  1  0.12556600  0.07785300  0.83107900  1
  Ga  Ga24  1  0.22068600  0.25000000  0.35947400  1
  Ga  Ga25  1  0.77931400  0.75000000  0.64052600  1
  Ga  Ga26  1  0.27931400  0.75000000  0.85947400  1
  Ga  Ga27  1  0.72068600  0.25000000  0.14052600  1
  Ga  Ga28  1  0.12392100  0.08772400  0.67223500  1
  Ga  Ga29  1  0.87608000  0.91227600  0.32776500  1
  Ga  Ga30  1  0.37608000  0.91227600  0.17223500  1
  Ga  Ga31  1  0.87608000  0.58772400  0.32776500  1
  Ga  Ga32  1  0.62392000  0.08772400  0.82776500  1
  Ga  Ga33  1  0.12392100  0.41227600  0.67223500  1
  Ga  Ga34  1  0.62392000  0.41227600  0.82776500  1
  Ga  Ga35  1  0.37608000  0.58772400  0.17223500  1
  Ga  Ga36  1  0.37724900  0.06138900  0.46544100  1
  Ga  Ga37  1  0.62275100  0.93861100  0.53455900  1
  Ga  Ga38  1  0.12275100  0.93861100  0.96544100  1
  Ga  Ga39  1  0.62275100  0.56138900  0.53455900  1
  Ga  Ga40  1  0.87724900  0.06138900  0.03455900  1
  Ga  Ga41  1  0.37724900  0.43861100  0.46544100  1
  Ga  Ga42  1  0.87724900  0.43861100  0.03455900  1
  Ga  Ga43  1  0.12275100  0.56138900  0.96544100  1
  Ga  Ga44  1  0.45096400  0.25000000  0.57773800  1
  Ga  Ga45  1  0.54903600  0.75000000  0.42226200  1
  Ga  Ga46  1  0.04903600  0.75000000  0.07773800  1
  Ga  Ga47  1  0.95096400  0.25000000  0.92226200  1
  Ga  Ga48  1  0.30453200  0.25000000  0.91783700  1
  Ga  Ga49  1  0.69546800  0.75000000  0.08216300  1
  Ga  Ga50  1  0.19546800  0.75000000  0.41783700  1
  Ga  Ga51  1  0.80453200  0.25000000  0.58216300  1
  Ga  Ga52  1  0.37392300  0.06977200  0.03282300  1
  Ga  Ga53  1  0.62607700  0.93022800  0.96717700  1
  Ga  Ga54  1  0.12607700  0.93022800  0.53282300  1
  Ga  Ga55  1  0.62607700  0.56977200  0.96717700  1
  Ga  Ga56  1  0.87392300  0.06977200  0.46717700  1
  Ga  Ga57  1  0.37392300  0.43022800  0.03282300  1
  Ga  Ga58  1  0.87392300  0.43022800  0.46717700  1
  Ga  Ga59  1  0.12607700  0.56977200  0.53282300  1
  Ru  Ru0  1  0.11689300  0.00389200  0.39060400  1
  Ru  Ru1  1  0.88310700  0.99610800  0.60939600  1
  Ru  Ru2  1  0.38310700  0.99610800  0.89060400  1
  Ru  Ru3  1  0.88310700  0.50389200  0.60939600  1
  Ru  Ru4  1  0.61689300  0.00389200  0.10939600  1
  Ru  Ru5  1  0.11689300  0.49610800  0.39060400  1
  Ru  Ru6  1  0.61689300  0.49610800  0.10939600  1
  Ru  Ru7  1  0.38310700  0.50389200  0.89060400  1
  Ru  Ru8  1  0.13034700  0.00472900  0.11346000  1
  Ru  Ru9  1  0.86965300  0.99527100  0.88654000  1
  Ru  Ru10  1  0.36965300  0.99527100  0.61346000  1
  Ru  Ru11  1  0.86965300  0.50472900  0.88654000  1
  Ru  Ru12  1  0.63034700  0.00472900  0.38654000  1
  Ru  Ru13  1  0.13034700  0.49527100  0.11346000  1
  Ru  Ru14  1  0.63034700  0.49527100  0.38654000  1
  Ru  Ru15  1  0.36965300  0.50472900  0.61346000  1
loop_
_geom_bond_atom_site_label_1
_geom_bond_atom_site_label_2
_geom_bond_distance
_geom_bond_site_symmetry_2
Ho0 Ru13 3.345909 1_555
Ho0 Ru8 3.345909 1_555
Ho0 Ru6 3.350754 1_555
Ho0 Ru4 3.350754 1_555
Ho1 Ru9 3.345909 1_555
Ho1 Ru11 3.345909 1_555
Ho1 Ru7 3.350754 1_555
Ho1 Ru2 3.350754 1_555
Ho2 Ru10 3.345909 1_555
Ho2 Ru15 3.345909 1_555
Ho2 Ru3 3.350754 1_455
Ho2 Ru1 3.350754 1_455
Ho3 Ru14 3.345909 1_555
Ho3 Ru12 3.345909 1_555
Ho3 Ru5 3.350754 1_655
Ho3 Ru0 3.350754 1_655
Ga0 Ru0 2.521013 1_555
Ga0 Ru8 2.545549 1_555
Ga0 Ga8 2.583573 1_555
Ga0 Ga24 2.762652 1_555
Ga0 Ga21 2.914826 1_545
Ga0 Ga29 2.951981 1_445
Ga0 Ga30 2.990161 1_545
Ga0 Ga22 2.994723 1_445
Ga0 Ho6 2.997012 1_545
Ga0 Ho3 3.197966 1_455
Ga0 Ho0 3.230313 1_555
Ga1 Ru1 2.521013 1_555
Ga1 Ru9 2.545549 1_555
Ga1 Ga9 2.583573 1_555
Ga1 Ga25 2.762652 1_555
Ga1 Ga19 2.914826 1_565
Ga1 Ga28 2.951987 1_665
Ga1 Ga32 2.990161 1_565
Ga1 Ga23 2.994723 1_665
Ga1 Ho7 2.997012 1_565
Ga1 Ho2 3.197966 1_655
Ga1 Ho1 3.230313 1_555
Ga2 Ru2 2.521013 1_555
Ga2 Ru10 2.545549 1_555
Ga2 Ga26 2.762652 1_555
Ga2 Ga23 2.914826 1_565
Ga2 Ga32 2.951981 1_565
Ga2 Ga28 2.990155 1_565
Ga2 Ho4 2.997012 1_565
Ga2 Ho1 3.197966 1_555
Ga2 Ho2 3.230313 1_555
Ga3 Ru3 2.521013 1_555
Ga3 Ru11 2.545549 1_555
Ga3 Ga9 2.583573 1_555
Ga3 Ga33 2.951987 1_655
Ga3 Ga34 2.990161 1_555
Ga3 Ho7 2.997012 1_555
Ga3 Ho2 3.197966 1_655
Ga3 Ho1 3.230313 1_555
Ga4 Ru4 2.521013 1_555
Ga4 Ru12 2.545549 1_555
Ga4 Ho5 2.997012 1_545
Ga4 Ho0 3.197966 1_555
Ga4 Ho3 3.230313 1_555
Ga5 Ru5 2.521013 1_555
Ga5 Ru13 2.545549 1_555
Ga5 Ga8 2.583573 1_555
Ga5 Ho6 2.997012 1_555
Ga5 Ho3 3.197966 1_455
Ga5 Ho0 3.230313 1_555
Ga6 Ru6 2.521013 1_555
Ga6 Ru14 2.545549 1_555
Ga6 Ho5 2.997012 1_555
Ga6 Ho0 3.197966 1_555
Ga6 Ho3 3.230313 1_555
Ga7 Ru7 2.521013 1_555
Ga7 Ru15 2.545549 1_555
Ga7 Ho4 2.997012 1_555
Ga7 Ho1 3.197966 1_555
Ga7 Ho2 3.230313 1_555
Ga8 Ru13 2.783658 1_555
Ga8 Ru8 2.783658 1_555
Ga8 Ho3 3.135701 1_455
Ga8 Ho0 3.245970 1_555
Ga9 Ru9 2.783658 1_555
Ga9 Ru11 2.783658 1_555
Ga9 Ho2 3.135701 1_655
Ga9 Ho1 3.245970 1_555
Ga10 Ga14 2.531315 1_555
Ga10 Ga25 2.573386 1_555
Ga10 Ga2 2.583573 1_555
Ga10 Ga7 2.583573 1_555
Ga10 Ru10 2.783658 1_555
Ga10 Ru15 2.783658 1_555
Ga10 Ho1 3.135701 1_555
Ga10 Ho2 3.245970 1_555
Ga11 Ga15 2.531315 1_555
Ga11 Ga24 2.573386 1_555
Ga11 Ga6 2.583573 1_555
Ga11 Ga4 2.583573 1_555
Ga11 Ru14 2.783658 1_555
Ga11 Ru12 2.783658 1_555
Ga11 Ho0 3.135701 1_555
Ga11 Ho3 3.245970 1_555
Ga12 Ga8 2.531315 1_555
Ga12 Ga47 2.669411 1_454
Ga12 Ga48 2.673446 1_554
Ga12 Ru13 2.689520 1_555
Ga12 Ru8 2.689520 1_555
Ga12 Ga57 2.742789 1_555
Ga12 Ga52 2.742789 1_555
Ga12 Ga42 2.901572 1_455
Ga12 Ga40 2.901572 1_455
Ga12 Ho0 3.100287 1_555
Ga13 Ga9 2.531315 1_555
Ga13 Ga46 2.669411 1_656
Ga13 Ga49 2.673446 1_556
Ga13 Ru9 2.689520 1_555
Ga13 Ru11 2.689520 1_555
Ga13 Ga53 2.742789 1_555
Ga13 Ga55 2.742789 1_555
Ga13 Ga43 2.901572 1_655
Ga13 Ga38 2.901572 1_655
Ga13 Ho1 3.100287 1_555
Ga14 Ga45 2.669411 1_555
Ga14 Ga50 2.673446 1_555
Ga14 Ru10 2.689520 1_555
Ga14 Ru15 2.689520 1_555
Ga14 Ga54 2.742789 1_555
Ga14 Ga59 2.742789 1_555
Ga14 Ga37 2.901572 1_555
Ga14 Ga39 2.901572 1_555
Ga14 Ho2 3.100287 1_555
Ga15 Ga44 2.669411 1_555
Ga15 Ga51 2.673446 1_555
Ga15 Ru14 2.689520 1_555
Ga15 Ru12 2.689520 1_555
Ga15 Ga58 2.742789 1_555
Ga15 Ga56 2.742789 1_555
Ga15 Ga41 2.901572 1_555
Ga15 Ga36 2.901572 1_555
Ga15 Ho3 3.100287 1_555
Ga16 Ru14 2.587310 1_555
Ga16 Ru5 2.625851 1_555
Ga16 Ga41 2.748144 1_555
Ga16 Ga50 2.763236 1_555
Ga16 Ga45 2.786858 1_555
Ga16 Ga35 2.836583 1_555
Ga16 Ga5 2.914826 1_555
Ga16 Ga6 2.994723 1_555
Ga16 Ho5 3.101677 1_555
Ga16 Ho6 3.126165 1_555
Ga17 Ru15 2.587310 1_555
Ga17 Ru3 2.625851 1_555
Ga17 Ga39 2.748144 1_555
Ga17 Ga51 2.763236 1_555
Ga17 Ga44 2.786858 1_555
Ga17 Ga34 2.836583 1_555
Ga17 Ga3 2.914826 1_555
Ga17 Ga7 2.994723 1_555
Ga17 Ho4 3.101677 1_555
Ga17 Ho7 3.126165 1_555
Ga18 Ru11 2.587310 1_455
Ga18 Ru7 2.625851 1_555
Ga18 Ga43 2.748144 1_555
Ga18 Ga48 2.763236 1_555
Ga18 Ga47 2.786858 1_455
Ga18 Ga33 2.836583 1_555
Ga18 Ga7 2.914826 1_555
Ga18 Ga3 2.994723 1_455
Ga18 Ho7 3.101677 1_455
Ga18 Ho4 3.126165 1_555
Ga19 Ru10 2.587310 1_545
Ga19 Ru1 2.625851 1_545
Ga19 Ga37 2.748144 1_545
Ga19 Ga51 2.763236 1_555
Ga19 Ga44 2.786858 1_555
Ga19 Ga32 2.836583 1_555
Ga19 Ga2 2.994723 1_545
Ga19 Ho4 3.101677 1_555
Ga19 Ho7 3.126165 1_555
Ga20 Ru13 2.587310 1_655
Ga20 Ru6 2.625851 1_555
Ga20 Ga42 2.748144 1_555
Ga20 Ga49 2.763236 1_555
Ga20 Ga46 2.786858 1_655
Ga20 Ga31 2.836583 1_555
Ga20 Ga6 2.914826 1_555
Ga20 Ga5 2.994723 1_655
Ga20 Ho6 3.101677 1_655
Ga20 Ho5 3.126165 1_555
Ga21 Ru12 2.587310 1_565
Ga21 Ru0 2.625851 1_565
Ga21 Ga36 2.748144 1_565
Ga21 Ga50 2.763236 1_555
Ga21 Ga45 2.786858 1_555
Ga21 Ga30 2.836583 1_555
Ga21 Ga4 2.994723 1_565
Ga21 Ho5 3.101677 1_555
Ga21 Ho6 3.126165 1_555
Ga22 Ru8 2.587310 1_665
Ga22 Ru4 2.625851 1_565
Ga22 Ga40 2.748144 1_565
Ga22 Ga49 2.763236 1_555
Ga22 Ga46 2.786858 1_655
Ga22 Ga29 2.836583 1_555
Ga22 Ga4 2.914826 1_565
Ga22 Ho6 3.101677 1_655
Ga22 Ho5 3.126165 1_555
Ga23 Ru9 2.587310 1_445
Ga23 Ru2 2.625851 1_545
Ga23 Ga38 2.748144 1_545
Ga23 Ga48 2.763236 1_555
Ga23 Ga47 2.786858 1_455
Ga23 Ga28 2.836583 1_555
Ga23 Ho7 3.101677 1_455
Ga23 Ho4 3.126165 1_555
Ga24 Ru5 2.602205 1_555
Ga24 Ru0 2.602205 1_555
Ga24 Ga5 2.762652 1_555
Ga24 Ga41 2.963668 1_555
Ga24 Ga36 2.963668 1_555
Ga24 Ho8 3.053879 1_555
Ga24 Ho3 3.077849 1_455
Ga25 Ru1 2.602205 1_555
Ga25 Ru3 2.602205 1_555
Ga25 Ga3 2.762652 1_555
Ga25 Ga37 2.963668 1_555
Ga25 Ga39 2.963668 1_555
Ga25 Ho9 3.053879 1_555
Ga25 Ho2 3.077849 1_655
Ga26 Ga9 2.573386 1_455
Ga26 Ru7 2.602205 1_555
Ga26 Ru2 2.602205 1_555
Ga26 Ga7 2.762652 1_555
Ga26 Ga43 2.963668 1_555
Ga26 Ga38 2.963668 1_555
Ga26 Ho10 3.053879 1_556
Ga26 Ho1 3.077849 1_555
Ga27 Ga8 2.573386 1_655
Ga27 Ru6 2.602205 1_555
Ga27 Ru4 2.602205 1_555
Ga27 Ga6 2.762652 1_555
Ga27 Ga4 2.762652 1_555
Ga27 Ga42 2.963668 1_555
Ga27 Ga40 2.963668 1_555
Ga27 Ho11 3.053879 1_554
Ga27 Ho0 3.077849 1_555
Ga28 Ru1 2.556665 1_445
Ga28 Ru10 2.564966 1_545
Ga28 Ga54 2.914729 1_545
Ga28 Ho4 3.033035 1_555
Ga28 Ho7 3.040661 1_455
Ga28 Ho8 3.073352 1_555
Ga28 Ga33 3.128225 1_555
Ga28 Ho2 3.256171 1_545
Ga29 Ru0 2.556657 1_665
Ga29 Ru12 2.564974 1_565
Ga29 Ga56 2.914729 1_565
Ga29 Ga4 2.990161 1_565
Ga29 Ho5 3.033041 1_555
Ga29 Ho6 3.040655 1_655
Ga29 Ho9 3.073352 1_555
Ga29 Ga31 3.128225 1_555
Ga29 Ho3 3.256171 1_565
Ga30 Ru4 2.556657 1_565
Ga30 Ru8 2.564974 1_565
Ga30 Ga52 2.914729 1_565
Ga30 Ga4 2.951981 1_565
Ga30 Ho6 3.033041 1_555
Ga30 Ho5 3.040655 1_555
Ga30 Ho10 3.073352 1_555
Ga30 Ga35 3.128225 1_555
Ga30 Ho0 3.256171 1_565
Ga31 Ru5 2.556657 1_655
Ga31 Ru14 2.564974 1_555
Ga31 Ga58 2.914729 1_555
Ga31 Ga5 2.951981 1_655
Ga31 Ga6 2.990161 1_555
Ga31 Ho5 3.033041 1_555
Ga31 Ho6 3.040655 1_655
Ga31 Ho9 3.073352 1_555
Ga31 Ho3 3.256171 1_555
Ga32 Ru2 2.556657 1_545
Ga32 Ru9 2.564974 1_545
Ga32 Ga53 2.914729 1_545
Ga32 Ho7 3.033041 1_555
Ga32 Ho4 3.040655 1_555
Ga32 Ho11 3.073352 1_555
Ga32 Ga34 3.128225 1_555
Ga32 Ho1 3.256171 1_545
Ga33 Ru3 2.556665 1_455
Ga33 Ru15 2.564966 1_555
Ga33 Ga59 2.914729 1_555
Ga33 Ga7 2.990155 1_555
Ga33 Ho4 3.033035 1_555
Ga33 Ho7 3.040661 1_455
Ga33 Ho8 3.073352 1_555
Ga33 Ho2 3.256171 1_555
Ga34 Ru7 2.556657 1_555
Ga34 Ru11 2.564974 1_555
Ga34 Ga55 2.914729 1_555
Ga34 Ga7 2.951981 1_555
Ga34 Ho7 3.033041 1_555
Ga34 Ho4 3.040655 1_555
Ga34 Ho11 3.073352 1_555
Ga34 Ho1 3.256171 1_555
Ga35 Ru6 2.556657 1_555
Ga35 Ru13 2.564974 1_555
Ga35 Ga57 2.914729 1_555
Ga35 Ga6 2.951981 1_555
Ga35 Ga5 2.990161 1_555
Ga35 Ho6 3.033041 1_555
Ga35 Ho5 3.040655 1_555
Ga35 Ho10 3.073352 1_555
Ga35 Ho0 3.256171 1_555
Ga36 Ru12 2.692745 1_555
Ga36 Ru0 2.711061 1_555
Ga36 Ru10 2.718357 1_545
Ga36 Ga37 2.756447 1_545
Ga36 Ga44 2.782685 1_555
Ga36 Ga54 2.817581 1_545
Ga36 Ho8 3.052197 1_555
Ga37 Ru10 2.692745 1_555
Ga37 Ru1 2.711061 1_555
Ga37 Ru12 2.718357 1_565
Ga37 Ga45 2.782685 1_555
Ga37 Ga56 2.817581 1_565
Ga37 Ho9 3.052197 1_555
Ga38 Ru9 2.692745 1_455
Ga38 Ru2 2.711061 1_555
Ga38 Ru8 2.718357 1_566
Ga38 Ga40 2.756447 1_466
Ga38 Ga46 2.782685 1_556
Ga38 Ga52 2.817581 1_566
Ga38 Ho10 3.052197 1_556
Ga39 Ru15 2.692745 1_555
Ga39 Ru3 2.711061 1_555
Ga39 Ru14 2.718357 1_555
Ga39 Ga41 2.756447 1_555
Ga39 Ga45 2.782685 1_555
Ga39 Ga58 2.817581 1_555
Ga39 Ho9 3.052197 1_555
Ga40 Ru8 2.692745 1_655
Ga40 Ru4 2.711061 1_555
Ga40 Ru9 2.718357 1_544
Ga40 Ga47 2.782685 1_554
Ga40 Ga53 2.817581 1_544
Ga40 Ho11 3.052197 1_554
Ga41 Ru14 2.692745 1_555
Ga41 Ru5 2.711061 1_555
Ga41 Ru15 2.718357 1_555
Ga41 Ga44 2.782685 1_555
Ga41 Ga59 2.817581 1_555
Ga41 Ho8 3.052197 1_555
Ga42 Ru13 2.692745 1_655
Ga42 Ru6 2.711061 1_555
Ga42 Ru11 2.718357 1_554
Ga42 Ga43 2.756447 1_654
Ga42 Ga47 2.782685 1_554
Ga42 Ga55 2.817581 1_554
Ga42 Ho11 3.052197 1_554
Ga43 Ru11 2.692745 1_455
Ga43 Ru7 2.711061 1_555
Ga43 Ru13 2.718357 1_556
Ga43 Ga46 2.782685 1_556
Ga43 Ga57 2.817581 1_556
Ga43 Ho10 3.052197 1_556
Ga44 Ru15 2.635817 1_555
Ga44 Ru10 2.635817 1_545
Ga44 Ho8 3.023197 1_555
Ga44 Ga51 3.115210 1_555
Ga44 Ho4 3.117543 1_555
Ga45 Ru12 2.635817 1_565
Ga45 Ru14 2.635817 1_555
Ga45 Ho9 3.023197 1_555
Ga45 Ga50 3.115210 1_555
Ga45 Ho5 3.117543 1_555
Ga46 Ru8 2.635817 1_565
Ga46 Ru13 2.635817 1_555
Ga46 Ho10 3.023197 1_555
Ga46 Ga49 3.115210 1_455
Ga46 Ho6 3.117543 1_555
Ga47 Ru11 2.635817 1_555
Ga47 Ru9 2.635817 1_545
Ga47 Ho11 3.023197 1_555
Ga47 Ga48 3.115210 1_655
Ga47 Ho7 3.117543 1_555
Ga48 Ru2 2.589173 1_545
Ga48 Ru7 2.589173 1_555
Ga48 Ga52 2.757308 1_556
Ga48 Ga57 2.757308 1_556
Ga48 Ho11 3.011237 1_555
Ga48 Ho4 3.087957 1_555
Ga49 Ru4 2.589173 1_565
Ga49 Ru6 2.589173 1_555
Ga49 Ga53 2.757308 1_554
Ga49 Ga55 2.757308 1_554
Ga49 Ho10 3.011237 1_555
Ga49 Ho5 3.087957 1_555
Ga50 Ru0 2.589173 1_565
Ga50 Ru5 2.589173 1_555
Ga50 Ga54 2.757308 1_555
Ga50 Ga59 2.757308 1_555
Ga50 Ho9 3.011237 1_455
Ga50 Ho6 3.087957 1_555
Ga51 Ru1 2.589173 1_545
Ga51 Ru3 2.589173 1_555
Ga51 Ga58 2.757308 1_555
Ga51 Ga56 2.757308 1_555
Ga51 Ho8 3.011237 1_655
Ga51 Ho7 3.087957 1_555
Ga52 Ru4 2.617398 1_555
Ga52 Ru2 2.636914 1_544
Ga52 Ru8 2.658378 1_555
Ga52 Ga53 2.848574 1_544
Ga52 Ho0 2.969327 1_555
Ga52 Ho11 2.992439 1_554
Ga52 Ho10 3.086174 1_545
Ga53 Ru2 2.617398 1_555
Ga53 Ru4 2.636914 1_566
Ga53 Ru9 2.658378 1_555
Ga53 Ho1 2.969327 1_555
Ga53 Ho10 2.992439 1_556
Ga53 Ho11 3.086174 1_565
Ga54 Ru1 2.617398 1_455
Ga54 Ru0 2.636914 1_565
Ga54 Ru10 2.658378 1_555
Ga54 Ga56 2.848574 1_465
Ga54 Ho2 2.969327 1_555
Ga54 Ho9 2.992439 1_455
Ga54 Ho8 3.086174 1_565
Ga55 Ru7 2.617398 1_555
Ga55 Ru6 2.636914 1_556
Ga55 Ru11 2.658378 1_555
Ga55 Ga57 2.848574 1_556
Ga55 Ho1 2.969327 1_555
Ga55 Ho10 2.992439 1_556
Ga55 Ho11 3.086174 1_555
Ga56 Ru0 2.617398 1_655
Ga56 Ru1 2.636914 1_545
Ga56 Ru12 2.658378 1_555
Ga56 Ho3 2.969327 1_555
Ga56 Ho8 2.992439 1_655
Ga56 Ho9 3.086174 1_545
Ga57 Ru6 2.617398 1_555
Ga57 Ru7 2.636914 1_554
Ga57 Ru13 2.658378 1_555
Ga57 Ho0 2.969327 1_555
Ga57 Ho11 2.992439 1_554
Ga57 Ho10 3.086174 1_555
Ga58 Ru5 2.617398 1_655
Ga58 Ru3 2.636914 1_555
Ga58 Ru14 2.658378 1_555
Ga58 Ga59 2.848574 1_655
Ga58 Ho3 2.969327 1_555
Ga58 Ho8 2.992439 1_655
Ga58 Ho9 3.086174 1_555
Ga59 Ru3 2.617398 1_455
Ga59 Ru5 2.636914 1_555
Ga59 Ru15 2.658378 1_555
Ga59 Ho2 2.969327 1_555
Ga59 Ho9 2.992439 1_455
Ga59 Ho8 3.086174 1_555
