# generated using pymatgen
data_Sm(GePt)2
_symmetry_space_group_name_H-M   'P 1'
_cell_length_a   4.33992761
_cell_length_b   4.33992761
_cell_length_c   9.95238086
_cell_angle_alpha   90.00000000
_cell_angle_beta   90.00000000
_cell_angle_gamma   90.00000000
_symmetry_Int_Tables_number   1
_chemical_formula_structural   Sm(GePt)2
_chemical_formula_sum   'Sm2 Ge4 Pt4'
_cell_volume   187.45281145
_cell_formula_units_Z   2
loop_
 _symmetry_equiv_pos_site_id
 _symmetry_equiv_pos_as_xyz
  1  'x, y, z'
loop_
 _atom_site_type_symbol
 _atom_site_label
 _atom_site_symmetry_multiplicity
 _atom_site_fract_x
 _atom_site_fract_y
 _atom_site_fract_z
 _atom_site_occupancy
  Sm  Sm0  1  -0.00000000  0.50000000  0.25307454  1
  Sm  Sm1  1  0.50000000  0.00000000  0.74692546  1
  Ge  Ge0  1  0.50000000  0.50000000  0.50000000  1
  Ge  Ge1  1  -0.00000000  0.00000000  0.50000000  1
  Ge  Ge2  1  -0.00000000  0.50000000  0.86953802  1
  Ge  Ge3  1  0.50000000  -0.00000000  0.13046198  1
  Pt  Pt0  1  0.50000000  0.50000000  0.00000000  1
  Pt  Pt1  1  0.00000000  -0.00000000  0.00000000  1
  Pt  Pt2  1  0.00000000  0.50000000  0.62404368  1
  Pt  Pt3  1  0.50000000  -0.00000000  0.37595632  1
loop_
_geom_bond_atom_site_label_1
_geom_bond_atom_site_label_2
_geom_bond_distance
_geom_bond_site_symmetry_2
Ge0 Pt3 2.496559 1_555
Ge0 Pt3 2.496559 1_565
Ge0 Pt2 2.496559 1_555
Ge0 Pt2 2.496559 1_655
Ge0 Sm0 3.278419 1_555
Ge0 Sm0 3.278419 1_655
Ge0 Sm1 3.278419 1_555
Ge0 Sm1 3.278419 1_565
Ge1 Pt3 2.496559 1_555
Ge1 Pt2 2.496559 1_545
Ge1 Pt2 2.496559 1_555
Ge1 Pt3 2.496559 1_455
Ge1 Sm0 3.278419 1_545
Ge1 Sm0 3.278419 1_555
Ge1 Sm1 3.278419 1_555
Ge1 Sm1 3.278419 1_455
Ge2 Pt2 2.443253 1_555
Ge2 Pt1 2.528756 1_566
Ge2 Pt1 2.528756 1_556
Ge2 Pt0 2.528756 1_456
Ge2 Pt0 2.528756 1_556
Ge2 Sm1 3.302512 1_455
Ge2 Sm1 3.302512 1_465
Ge2 Sm1 3.302512 1_565
Ge2 Sm1 3.302512 1_555
Ge3 Pt3 2.443253 1_555
Ge3 Pt1 2.528756 1_555
Ge3 Pt1 2.528756 1_655
Ge3 Pt0 2.528756 1_545
Ge3 Pt0 2.528756 1_555
Ge3 Sm0 3.302512 1_645
Ge3 Sm0 3.302512 1_555
Ge3 Sm0 3.302512 1_655
Ge3 Sm0 3.302512 1_545
Pt0 Sm1 3.324540 1_554
Pt0 Sm1 3.324540 1_564
Pt0 Sm0 3.324540 1_555
Pt0 Sm0 3.324540 1_655
Pt1 Sm1 3.324540 1_554
Pt1 Sm1 3.324540 1_454
Pt1 Sm0 3.324540 1_555
Pt1 Sm0 3.324540 1_545
Pt2 Sm1 3.303503 1_465
Pt2 Sm1 3.303503 1_555
Pt2 Sm1 3.303503 1_455
Pt2 Sm1 3.303503 1_565
Pt3 Sm0 3.303503 1_645
Pt3 Sm0 3.303503 1_555
Pt3 Sm0 3.303503 1_545
Pt3 Sm0 3.303503 1_655
