# generated using pymatgen
data_Nd4Sc3Fe25B2
_symmetry_space_group_name_H-M   'P 1'
_cell_length_a   8.90199319
_cell_length_b   8.90199319
_cell_length_c   12.24742100
_cell_angle_alpha   90.00000000
_cell_angle_beta   90.00000000
_cell_angle_gamma   89.79540321
_symmetry_Int_Tables_number   1
_chemical_formula_structural   Nd4Sc3Fe25B2
_chemical_formula_sum   'Nd8 Sc6 Fe50 B4'
_cell_volume   970.54660154
_cell_formula_units_Z   2
loop_
 _symmetry_equiv_pos_site_id
 _symmetry_equiv_pos_as_xyz
  1  'x, y, z'
loop_
 _atom_site_type_symbol
 _atom_site_label
 _atom_site_symmetry_multiplicity
 _atom_site_fract_x
 _atom_site_fract_y
 _atom_site_fract_z
 _atom_site_occupancy
  Nd  Nd0  1  0.23717100  0.76282900  0.49915700  1
  Nd  Nd1  1  0.76282900  0.23717100  0.49915700  1
  Nd  Nd2  1  0.26484500  0.26484500  0.00603300  1
  Nd  Nd3  1  0.73515500  0.73515500  0.00603300  1
  Nd  Nd4  1  0.64333800  0.64333800  0.49263200  1
  Nd  Nd5  1  0.35666200  0.35666200  0.49263200  1
  Nd  Nd6  1  0.85658200  0.14341800  0.00120200  1
  Nd  Nd7  1  0.14341800  0.85658200  0.00120200  1
  Sc  Sc0  1  0.18314600  0.81685400  0.25430800  1
  Sc  Sc1  1  0.81685400  0.18314600  0.25430800  1
  Sc  Sc2  1  0.31784000  0.31784000  0.75377200  1
  Sc  Sc3  1  0.68216000  0.68216000  0.75377200  1
  Sc  Sc4  1  0.81762300  0.18237600  0.74594100  1
  Sc  Sc5  1  0.18237600  0.81762300  0.74594100  1
  Fe  Fe0  1  0.40331300  0.59668700  0.29275000  1
  Fe  Fe1  1  0.59668700  0.40331300  0.29275000  1
  Fe  Fe2  1  0.10168900  0.10168900  0.79382700  1
  Fe  Fe3  1  0.89831100  0.89831100  0.79382700  1
  Fe  Fe4  1  0.60188200  0.39811800  0.70706300  1
  Fe  Fe5  1  0.39811800  0.60188200  0.70706300  1
  Fe  Fe6  1  0.89561500  0.89561500  0.20719600  1
  Fe  Fe7  1  0.10438500  0.10438500  0.20719600  1
  Fe  Fe8  1  0.14061100  0.53020100  0.32393000  1
  Fe  Fe9  1  0.85938900  0.46979900  0.32393000  1
  Fe  Fe10  1  0.36515900  0.03475800  0.82519600  1
  Fe  Fe11  1  0.63484100  0.96524200  0.82519600  1
  Fe  Fe12  1  0.86542600  0.46528800  0.67382600  1
  Fe  Fe13  1  0.13457400  0.53471200  0.67382600  1
  Fe  Fe14  1  0.63532400  0.96146700  0.17710400  1
  Fe  Fe15  1  0.36467600  0.03853300  0.17710400  1
  Fe  Fe16  1  0.53020100  0.14061100  0.32393000  1
  Fe  Fe17  1  0.46979900  0.85938900  0.32393000  1
  Fe  Fe18  1  0.03475800  0.36515900  0.82519600  1
  Fe  Fe19  1  0.96524200  0.63484100  0.82519600  1
  Fe  Fe20  1  0.46528800  0.86542600  0.67382600  1
  Fe  Fe21  1  0.53471200  0.13457400  0.67382600  1
  Fe  Fe22  1  0.96146700  0.63532400  0.17710400  1
  Fe  Fe23  1  0.03853300  0.36467600  0.17710400  1
  Fe  Fe24  1  0.93134500  0.72422300  0.37369700  1
  Fe  Fe25  1  0.06865500  0.27577700  0.37369700  1
  Fe  Fe26  1  0.56543600  0.22491400  0.87639700  1
  Fe  Fe27  1  0.43456400  0.77508600  0.87639700  1
  Fe  Fe28  1  0.06598500  0.27518100  0.62377700  1
  Fe  Fe29  1  0.93401500  0.72481900  0.62377700  1
  Fe  Fe30  1  0.43796900  0.77405700  0.12642300  1
  Fe  Fe31  1  0.56203100  0.22594300  0.12642300  1
  Fe  Fe32  1  0.72422300  0.93134500  0.37369700  1
  Fe  Fe33  1  0.27577700  0.06865500  0.37369700  1
  Fe  Fe34  1  0.22491400  0.56543600  0.87639700  1
  Fe  Fe35  1  0.77508600  0.43456400  0.87639700  1
  Fe  Fe36  1  0.27518100  0.06598500  0.62377700  1
  Fe  Fe37  1  0.72481900  0.93401500  0.62377700  1
  Fe  Fe38  1  0.77405700  0.43796900  0.12642300  1
  Fe  Fe39  1  0.22594300  0.56203100  0.12642300  1
  Fe  Fe40  1  0.00000000  0.50000000  0.49769400  1
  Fe  Fe41  1  0.50000000  0.00000000  0.00130100  1
  Fe  Fe42  1  0.50000000  0.00000000  0.49769400  1
  Fe  Fe43  1  0.00000000  0.50000000  0.00130100  1
  Fe  Fe44  1  0.68399100  0.68399100  0.24549100  1
  Fe  Fe45  1  0.31600900  0.31600900  0.24549100  1
  Fe  Fe46  1  0.50000000  0.50000000  0.11220100  1
  Fe  Fe47  1  0.00000000  0.00000000  0.61200800  1
  Fe  Fe48  1  0.50000000  0.50000000  0.88916700  1
  Fe  Fe49  1  0.00000000  0.00000000  0.38735700  1
  B  B0  1  0.87580400  0.87580400  0.49951400  1
  B  B1  1  0.12419600  0.12419600  0.49951400  1
  B  B2  1  0.62536900  0.37463100  0.00104900  1
  B  B3  1  0.37463100  0.62536900  0.00104900  1
loop_
_geom_bond_atom_site_label_1
_geom_bond_atom_site_label_2
_geom_bond_distance
_geom_bond_site_symmetry_2
Nd0 Sc0 3.074663 1_555
Nd0 Sc5 3.099915 1_555
Nd0 Nd4 3.766119 1_555
Nd0 Nd5 3.766119 1_555
Nd1 Sc1 3.074663 1_555
Nd1 Sc4 3.099915 1_555
Nd1 Nd4 3.766119 1_555
Nd1 Nd5 3.766119 1_555
Nd2 Sc2 3.161013 1_554
Nd3 Sc3 3.161013 1_554
Nd4 Sc3 3.235551 1_555
Nd4 Nd5 3.615494 1_555
Nd5 Sc2 3.235551 1_555
Nd6 Sc1 3.139842 1_555
Nd6 Sc4 3.164392 1_554
Nd7 Sc0 3.139842 1_555
Nd7 Sc5 3.164392 1_554
Fe0 Fe1 2.430097 1_555
Fe0 Fe17 2.444366 1_555
Fe0 Fe8 2.444366 1_555
Fe0 Fe46 2.523096 1_555
Fe0 Fe39 2.596422 1_555
Fe0 Fe30 2.596422 1_555
Fe0 Fe45 2.682509 1_555
Fe0 Fe44 2.682509 1_555
Fe0 Sc0 2.806572 1_555
Fe0 Nd4 3.276765 1_555
Fe0 Nd5 3.276765 1_555
Fe0 Nd0 3.278685 1_555
Fe1 Fe9 2.444366 1_555
Fe1 Fe16 2.444366 1_555
Fe1 Fe46 2.523096 1_555
Fe1 Fe31 2.596422 1_555
Fe1 Fe38 2.596422 1_555
Fe1 Fe45 2.682509 1_555
Fe1 Fe44 2.682509 1_555
Fe1 Sc1 2.806572 1_555
Fe1 Nd4 3.276765 1_555
Fe1 Nd5 3.276765 1_555
Fe1 Nd1 3.278685 1_555
Fe2 Fe3 2.564958 1_445
Fe2 Fe47 2.569718 1_555
Fe2 Fe36 2.611569 1_555
Fe2 Fe28 2.611569 1_555
Fe2 Sc4 2.691004 1_455
Fe2 Sc5 2.691004 1_545
Fe2 Sc2 2.769837 1_555
Fe2 Nd2 3.314929 1_556
Fe2 Nd6 3.368041 1_456
Fe2 Nd7 3.368041 1_546
Fe3 Fe47 2.569718 1_665
Fe3 Fe37 2.611569 1_555
Fe3 Sc5 2.690998 1_655
Fe3 Sc4 2.690998 1_565
Fe3 Sc3 2.769837 1_555
Fe3 Nd3 3.314929 1_556
Fe3 Nd7 3.368041 1_656
Fe3 Nd6 3.368041 1_566
Fe4 Fe5 2.560666 1_555
Fe4 Fe48 2.571675 1_555
Fe4 Sc3 2.691538 1_555
Fe4 Sc2 2.691538 1_555
Fe4 Sc4 2.752680 1_555
Fe4 Nd1 3.251859 1_555
Fe4 Nd4 3.435734 1_555
Fe4 Nd5 3.435734 1_555
Fe5 Sc3 2.691538 1_555
Fe5 Sc2 2.691538 1_555
Fe5 Sc5 2.752680 1_555
Fe5 Nd0 3.251859 1_555
Fe5 Nd4 3.435734 1_555
Fe5 Nd5 3.435734 1_555
Fe6 Fe7 2.632961 1_665
Fe6 Sc0 2.713530 1_655
Fe6 Sc1 2.713530 1_565
Fe6 Nd3 3.188300 1_555
Fe6 Nd6 3.368447 1_565
Fe6 Nd7 3.368447 1_655
Fe7 Sc0 2.713530 1_545
Fe7 Sc1 2.713530 1_455
Fe7 Nd2 3.188300 1_555
Fe7 Nd6 3.368447 1_455
Fe7 Nd7 3.368447 1_545
Fe8 Fe9 2.562406 1_455
Fe8 Sc0 2.718262 1_555
Fe8 Nd0 3.105748 1_555
Fe8 Nd5 3.214557 1_555
Fe9 Sc1 2.718262 1_555
Fe9 Nd1 3.105748 1_555
Fe9 Nd4 3.214557 1_555
Fe10 Fe2 2.448175 1_555
Fe10 Fe27 2.471487 1_545
Fe10 Fe11 2.477042 1_545
Fe10 Fe41 2.487139 1_556
Fe10 Fe26 2.541427 1_555
Fe10 Fe20 2.548343 1_545
Fe10 Fe21 2.552293 1_555
Fe10 Fe36 2.608193 1_555
Fe10 Sc2 2.699154 1_555
Fe10 Sc5 2.710804 1_545
Fe10 Nd2 3.144029 1_556
Fe10 Nd7 3.328853 1_546
Fe11 Fe3 2.448175 1_555
Fe11 Fe26 2.471487 1_565
Fe11 Fe41 2.487139 1_566
Fe11 Fe27 2.541427 1_555
Fe11 Fe21 2.548343 1_565
Fe11 Fe20 2.552293 1_555
Fe11 Fe37 2.608193 1_555
Fe11 Sc3 2.699154 1_555
Fe11 Sc4 2.710792 1_565
Fe11 Nd3 3.144029 1_556
Fe11 Nd6 3.328853 1_566
Fe12 Fe4 2.457090 1_555
Fe12 Fe29 2.469069 1_555
Fe12 Fe13 2.476511 1_655
Fe12 Fe40 2.487293 1_655
Fe12 Fe28 2.530949 1_655
Fe12 Fe18 2.548343 1_655
Fe12 Fe19 2.552293 1_555
Fe12 Fe35 2.622660 1_555
Fe12 Sc4 2.703991 1_555
Fe12 Sc3 2.706468 1_555
Fe12 Nd1 3.089901 1_555
Fe12 Nd4 3.364988 1_555
Fe13 Fe5 2.457090 1_555
Fe13 Fe28 2.469069 1_555
Fe13 Fe40 2.487293 1_555
Fe13 Fe29 2.530949 1_455
Fe13 Fe19 2.548343 1_455
Fe13 Fe18 2.552293 1_555
Fe13 Fe34 2.622660 1_555
Fe13 Sc5 2.703981 1_555
Fe13 Sc2 2.706468 1_555
Fe13 Nd0 3.089901 1_555
Fe13 Nd5 3.364988 1_555
Fe14 Fe6 2.416354 1_555
Fe14 Fe41 2.490358 1_565
Fe14 Fe17 2.498033 1_555
Fe14 Fe15 2.502720 1_565
Fe14 Fe30 2.505204 1_555
Fe14 Fe31 2.518538 1_565
Fe14 Fe32 2.548325 1_555
Fe14 Fe16 2.577194 1_565
Fe14 Fe44 2.642519 1_555
Fe14 Sc1 2.724422 1_565
Fe14 Nd3 3.037349 1_555
Fe14 Nd6 3.341702 1_565
Fe15 Fe7 2.416354 1_555
Fe15 Fe41 2.490358 1_555
Fe15 Fe16 2.498033 1_555
Fe15 Fe31 2.505204 1_555
Fe15 Fe30 2.518538 1_545
Fe15 Fe33 2.548325 1_555
Fe15 Fe17 2.577194 1_545
Fe15 Fe45 2.642519 1_555
Fe15 Sc0 2.724422 1_545
Fe15 Nd2 3.037349 1_555
Fe15 Nd7 3.341702 1_545
Fe16 Fe33 2.433488 1_555
Fe16 Fe42 2.484059 1_555
Fe16 Fe31 2.551506 1_555
Fe16 Fe17 2.562406 1_545
Fe16 Fe32 2.608070 1_545
Fe16 Fe45 2.641064 1_555
Fe16 Sc1 2.718262 1_555
Fe16 Nd1 3.105748 1_555
Fe16 Nd5 3.214557 1_555
Fe17 Fe32 2.433488 1_555
Fe17 Fe42 2.484059 1_565
Fe17 Fe30 2.551506 1_555
Fe17 Fe33 2.608070 1_565
Fe17 Fe44 2.641064 1_555
Fe17 Sc0 2.718262 1_555
Fe17 Nd0 3.105748 1_555
Fe17 Nd4 3.214557 1_555
Fe18 Fe2 2.448175 1_555
Fe18 Fe35 2.471487 1_455
Fe18 Fe19 2.477042 1_455
Fe18 Fe43 2.487139 1_556
Fe18 Fe34 2.541427 1_555
Fe18 Fe28 2.608193 1_555
Fe18 Sc2 2.699154 1_555
Fe18 Sc4 2.710804 1_455
Fe18 Nd2 3.144029 1_556
Fe18 Nd6 3.328853 1_456
Fe19 Fe3 2.448175 1_555
Fe19 Fe34 2.471487 1_655
Fe19 Fe43 2.487139 1_656
Fe19 Fe35 2.541427 1_555
Fe19 Fe29 2.608193 1_555
Fe19 Sc3 2.699154 1_555
Fe19 Sc5 2.710792 1_655
Fe19 Nd3 3.144029 1_556
Fe19 Nd7 3.328853 1_656
Fe20 Fe5 2.457090 1_555
Fe20 Fe37 2.469069 1_555
Fe20 Fe21 2.476511 1_565
Fe20 Fe42 2.487293 1_565
Fe20 Fe36 2.530949 1_565
Fe20 Fe27 2.622660 1_555
Fe20 Sc5 2.703991 1_555
Fe20 Sc3 2.706468 1_555
Fe20 Nd0 3.089901 1_555
Fe20 Nd4 3.364988 1_555
Fe21 Fe4 2.457090 1_555
Fe21 Fe36 2.469069 1_555
Fe21 Fe42 2.487293 1_555
Fe21 Fe37 2.530949 1_545
Fe21 Fe26 2.622660 1_555
Fe21 Sc4 2.703981 1_555
Fe21 Sc2 2.706468 1_555
Fe21 Nd1 3.089901 1_555
Fe21 Nd5 3.364988 1_555
Fe22 Fe6 2.416354 1_555
Fe22 Fe43 2.490358 1_655
Fe22 Fe9 2.498033 1_555
Fe22 Fe23 2.502720 1_655
Fe22 Fe38 2.505204 1_555
Fe22 Fe39 2.518538 1_655
Fe22 Fe24 2.548325 1_555
Fe22 Fe8 2.577194 1_655
Fe22 Fe44 2.642519 1_555
Fe22 Sc0 2.724422 1_655
Fe22 Nd3 3.037349 1_555
Fe22 Nd7 3.341702 1_655
Fe23 Fe7 2.416354 1_555
Fe23 Fe43 2.490358 1_555
Fe23 Fe8 2.498033 1_555
Fe23 Fe39 2.505204 1_555
Fe23 Fe38 2.518538 1_455
Fe23 Fe25 2.548325 1_555
Fe23 Fe9 2.577194 1_455
Fe23 Fe45 2.642519 1_555
Fe23 Sc1 2.724422 1_455
Fe23 Nd2 3.037349 1_555
Fe23 Nd6 3.341702 1_455
Fe24 Fe9 2.433488 1_555
Fe24 Fe6 2.565916 1_555
Fe24 Fe40 2.579774 1_655
Fe24 Fe8 2.608070 1_655
Fe24 Fe44 2.729095 1_555
Fe24 Sc0 2.802798 1_655
Fe24 Nd4 3.037551 1_555
Fe24 Nd0 3.146046 1_655
Fe25 Fe8 2.433488 1_555
Fe25 Fe7 2.565916 1_555
Fe25 Fe40 2.579774 1_555
Fe25 Fe9 2.608070 1_455
Fe25 Fe45 2.729095 1_555
Fe25 Sc1 2.802798 1_455
Fe25 Nd5 3.037551 1_555
Fe25 Nd1 3.146046 1_455
Fe26 Fe41 2.587765 1_556
Fe26 Fe4 2.605235 1_555
Fe26 Sc4 2.780288 1_555
Fe26 Sc2 2.790135 1_555
Fe26 Nd6 3.092999 1_556
Fe26 Nd2 3.130590 1_556
Fe27 Fe41 2.587765 1_566
Fe27 Fe5 2.605235 1_555
Fe27 Sc5 2.780294 1_555
Fe27 Sc3 2.790135 1_555
Fe27 Nd7 3.092999 1_556
Fe27 Nd3 3.130590 1_556
Fe28 Fe40 2.593553 1_555
Fe28 Sc2 2.776995 1_555
Fe28 Sc4 2.796841 1_455
Fe28 Nd1 3.119850 1_455
Fe28 Nd5 3.132900 1_555
Fe29 Fe40 2.593553 1_655
Fe29 Fe3 2.611569 1_555
Fe29 Sc3 2.776995 1_555
Fe29 Sc5 2.796831 1_655
Fe29 Nd0 3.119850 1_655
Fe29 Nd4 3.132900 1_555
Fe30 Fe41 2.589725 1_565
Fe30 Fe44 2.748333 1_555
Fe30 Sc0 2.781714 1_555
Fe30 Nd3 3.047353 1_555
Fe30 Nd7 3.123032 1_555
Fe31 Fe41 2.589725 1_555
Fe31 Fe45 2.748333 1_555
Fe31 Sc1 2.781714 1_555
Fe31 Nd2 3.047353 1_555
Fe31 Nd6 3.123032 1_555
Fe32 Fe6 2.565916 1_555
Fe32 Fe42 2.579774 1_565
Fe32 Fe44 2.729095 1_555
Fe32 Sc1 2.802798 1_565
Fe32 Nd4 3.037551 1_555
Fe32 Nd1 3.146046 1_565
Fe33 Fe7 2.565916 1_555
Fe33 Fe42 2.579774 1_555
Fe33 Fe45 2.729095 1_555
Fe33 Sc0 2.802798 1_545
Fe33 Nd5 3.037551 1_555
Fe33 Nd0 3.146046 1_545
Fe34 Fe43 2.587765 1_556
Fe34 Fe5 2.605235 1_555
Fe34 Sc5 2.780288 1_555
Fe34 Sc2 2.790135 1_555
Fe34 Nd7 3.092999 1_556
Fe34 Nd2 3.130590 1_556
Fe35 Fe43 2.587765 1_656
Fe35 Fe4 2.605235 1_555
Fe35 Sc4 2.780294 1_555
Fe35 Sc3 2.790135 1_555
Fe35 Nd6 3.092999 1_556
Fe35 Nd3 3.130590 1_556
Fe36 Fe42 2.593553 1_555
Fe36 Sc2 2.776995 1_555
Fe36 Sc5 2.796841 1_545
Fe36 Nd0 3.119850 1_545
Fe36 Nd5 3.132900 1_555
Fe37 Fe42 2.593553 1_565
Fe37 Sc3 2.776995 1_555
Fe37 Sc4 2.796831 1_565
Fe37 Nd1 3.119850 1_565
Fe37 Nd4 3.132900 1_555
Fe38 Fe9 2.551506 1_555
Fe38 Fe43 2.589725 1_655
Fe38 Fe44 2.748333 1_555
Fe38 Sc1 2.781714 1_555
Fe38 Nd3 3.047353 1_555
Fe38 Nd6 3.123032 1_555
Fe39 Fe8 2.551506 1_555
Fe39 Fe43 2.589725 1_555
Fe39 Fe45 2.748333 1_555
Fe39 Sc0 2.781714 1_555
Fe39 Nd2 3.047353 1_555
Fe39 Nd7 3.123032 1_555
Fe40 Fe9 2.484059 1_455
Fe40 Fe8 2.484059 1_555
Fe40 Nd1 3.157114 1_455
Fe40 Nd0 3.157114 1_555
Fe40 Nd5 3.418145 1_555
Fe40 Nd4 3.418145 1_455
Fe41 Nd2 3.147813 1_555
Fe41 Nd3 3.147813 1_545
Fe41 Nd6 3.425645 1_555
Fe41 Nd7 3.425645 1_545
Fe42 Nd0 3.157114 1_545
Fe42 Nd1 3.157114 1_555
Fe42 Nd5 3.418145 1_555
Fe42 Nd4 3.418145 1_545
Fe43 Nd3 3.147813 1_455
Fe43 Nd2 3.147813 1_555
Fe43 Nd7 3.425645 1_555
Fe43 Nd6 3.425645 1_455
Fe44 Fe9 2.641064 1_555
Fe44 Fe6 2.709851 1_555
Fe44 Fe46 2.837151 1_555
Fe44 Nd3 3.002891 1_555
Fe44 Nd4 3.069956 1_555
Fe45 Fe8 2.641064 1_555
Fe45 Fe7 2.709851 1_555
Fe45 Fe46 2.837151 1_555
Fe45 Nd2 3.002891 1_555
Fe45 Nd5 3.069956 1_555
Fe46 Nd2 3.238248 1_555
Fe46 Nd3 3.238248 1_555
Fe47 Sc5 2.818416 1_545
Fe47 Sc4 2.818416 1_455
Fe47 Nd1 3.285360 1_455
Fe47 Nd0 3.285360 1_545
Fe48 Fe5 2.571675 1_555
Fe48 Sc2 2.833307 1_555
Fe48 Sc3 2.833307 1_555
Fe48 Nd3 3.293046 1_556
Fe48 Nd2 3.293046 1_556
Fe49 Fe6 2.569396 1_445
Fe49 Fe7 2.569396 1_555
Fe49 Sc1 2.820015 1_455
Fe49 Sc0 2.820015 1_545
Fe49 Nd1 3.279965 1_455
Fe49 Nd0 3.279965 1_545
B0 Fe49 2.083331 1_665
B0 Fe47 2.086054 1_665
B0 Fe37 2.094338 1_555
B0 Fe29 2.094338 1_555
B0 Fe32 2.105938 1_555
B0 Fe24 2.105938 1_555
B0 Nd4 2.933021 1_555
B1 Fe49 2.083331 1_555
B1 Fe47 2.086054 1_555
B1 Fe28 2.094338 1_555
B1 Fe36 2.094338 1_555
B1 Fe25 2.105938 1_555
B1 Fe33 2.105938 1_555
B1 Nd5 2.933021 1_555
B2 Fe46 2.082156 1_555
B2 Fe48 2.088013 1_554
B2 Fe26 2.096839 1_554
B2 Fe35 2.096839 1_554
B2 Fe31 2.105467 1_555
B2 Fe38 2.105467 1_555
B2 Nd6 2.905613 1_555
B3 Fe46 2.082156 1_555
B3 Fe48 2.088013 1_554
B3 Fe34 2.096839 1_554
B3 Fe27 2.096839 1_554
B3 Fe39 2.105467 1_555
B3 Fe30 2.105467 1_555
B3 Nd7 2.905613 1_555
