# generated using pymatgen
data_Yb(BRh)4
_symmetry_space_group_name_H-M   'P 1'
_cell_length_a   7.47657600
_cell_length_b   7.52369300
_cell_length_c   11.83961084
_cell_angle_alpha   90.00000000
_cell_angle_beta   108.40574400
_cell_angle_gamma   90.00000000
_symmetry_Int_Tables_number   1
_chemical_formula_structural   Yb(BRh)4
_chemical_formula_sum   'Yb6 B24 Rh24'
_cell_volume   631.92600482
_cell_formula_units_Z   6
loop_
 _symmetry_equiv_pos_site_id
 _symmetry_equiv_pos_as_xyz
  1  'x, y, z'
loop_
 _atom_site_type_symbol
 _atom_site_label
 _atom_site_symmetry_multiplicity
 _atom_site_fract_x
 _atom_site_fract_y
 _atom_site_fract_z
 _atom_site_occupancy
  Yb  Yb0  1  0.91723200  0.25000000  0.83446400  1
  Yb  Yb1  1  0.41723200  0.75000000  0.83446400  1
  Yb  Yb2  1  0.08276800  0.75000000  0.16553600  1
  Yb  Yb3  1  0.58276800  0.25000000  0.16553600  1
  Yb  Yb4  1  0.25000000  0.25000000  0.50000000  1
  Yb  Yb5  1  0.75000000  0.75000000  0.50000000  1
  B  B0  1  0.22369300  0.07965000  0.72076300  1
  B  B1  1  0.99707000  0.57965000  0.72076300  1
  B  B2  1  0.50293000  0.57965000  0.27923700  1
  B  B3  1  0.27630700  0.07965000  0.27923700  1
  B  B4  1  0.77630700  0.92035000  0.27923700  1
  B  B5  1  0.00293000  0.42035000  0.27923700  1
  B  B6  1  0.49707000  0.42035000  0.72076300  1
  B  B7  1  0.72369300  0.92035000  0.72076300  1
  B  B8  1  0.30430900  0.38776900  0.94296900  1
  B  B9  1  0.13866000  0.88776900  0.94296900  1
  B  B10  1  0.36134000  0.88776900  0.05703100  1
  B  B11  1  0.19569100  0.38776900  0.05703100  1
  B  B12  1  0.69569100  0.61223100  0.05703100  1
  B  B13  1  0.86134000  0.11223100  0.05703100  1
  B  B14  1  0.63866000  0.11223100  0.94296900  1
  B  B15  1  0.80430900  0.61223100  0.94296900  1
  B  B16  1  0.84432100  0.08631600  0.39354900  1
  B  B17  1  0.04922800  0.58631600  0.39354900  1
  B  B18  1  0.45077200  0.58631600  0.60645100  1
  B  B19  1  0.65567900  0.08631600  0.60645100  1
  B  B20  1  0.15567800  0.91368400  0.60645100  1
  B  B21  1  0.95077200  0.41368400  0.60645100  1
  B  B22  1  0.54922800  0.41368400  0.39354900  1
  B  B23  1  0.34432200  0.91368400  0.39354900  1
  Rh  Rh0  1  0.33970000  0.09752100  0.91555000  1
  Rh  Rh1  1  0.07585000  0.59752100  0.91555000  1
  Rh  Rh2  1  0.42415000  0.59752100  0.08445000  1
  Rh  Rh3  1  0.16030000  0.09752100  0.08445000  1
  Rh  Rh4  1  0.66030000  0.90247900  0.08445000  1
  Rh  Rh5  1  0.92415000  0.40247900  0.08445000  1
  Rh  Rh6  1  0.57585000  0.40247900  0.91555000  1
  Rh  Rh7  1  0.83970000  0.90247900  0.91555000  1
  Rh  Rh8  1  0.22403000  0.36559100  0.75168100  1
  Rh  Rh9  1  0.02765100  0.86559100  0.75168100  1
  Rh  Rh10  1  0.47234900  0.86559100  0.24831900  1
  Rh  Rh11  1  0.27597000  0.36559100  0.24831900  1
  Rh  Rh12  1  0.77597000  0.63440900  0.24831900  1
  Rh  Rh13  1  0.97234900  0.13440900  0.24831900  1
  Rh  Rh14  1  0.52765100  0.13440900  0.75168100  1
  Rh  Rh15  1  0.72403000  0.63440900  0.75168100  1
  Rh  Rh16  1  0.93837000  0.12611500  0.58428800  1
  Rh  Rh17  1  0.14591800  0.62611500  0.58428800  1
  Rh  Rh18  1  0.35408200  0.62611500  0.41571200  1
  Rh  Rh19  1  0.56163000  0.12611500  0.41571200  1
  Rh  Rh20  1  0.06163000  0.87388500  0.41571200  1
  Rh  Rh21  1  0.85408200  0.37388500  0.41571200  1
  Rh  Rh22  1  0.64591800  0.37388500  0.58428800  1
  Rh  Rh23  1  0.43837000  0.87388500  0.58428800  1
loop_
_geom_bond_atom_site_label_1
_geom_bond_atom_site_label_2
_geom_bond_distance
_geom_bond_site_symmetry_2
B0 B20 1.793012 1_545
B0 Rh8 2.182121 1_555
B0 Rh0 2.196766 1_555
B0 Rh14 2.223276 1_555
B0 Rh16 2.259885 1_455
B0 Rh9 2.283619 1_545
B0 Yb1 2.971069 1_545
B0 Yb4 2.972820 1_555
B0 Yb0 3.263833 1_455
B1 B21 1.793012 1_555
B1 Rh9 2.182121 1_655
B1 Rh1 2.196766 1_655
B1 Rh15 2.223276 1_555
B1 Rh17 2.259885 1_655
B1 Rh8 2.283619 1_655
B1 Yb0 2.971069 1_555
B1 Yb5 2.972820 1_555
B1 Yb1 3.263833 1_655
B2 B22 1.793012 1_555
B2 Rh10 2.182121 1_555
B2 Rh2 2.196766 1_555
B2 Rh12 2.223276 1_555
B2 Rh18 2.259885 1_555
B2 Rh11 2.283619 1_555
B2 Yb3 2.971069 1_555
B2 Yb5 2.972820 1_555
B2 Yb2 3.263833 1_555
B3 Rh11 2.182121 1_555
B3 Rh3 2.196766 1_555
B3 Rh13 2.223276 1_455
B3 Rh19 2.259885 1_555
B3 Rh10 2.283619 1_545
B3 Yb2 2.971069 1_545
B3 Yb4 2.972820 1_555
B3 Yb3 3.263833 1_555
B4 Rh12 2.182121 1_555
B4 Rh4 2.196766 1_555
B4 Rh10 2.223276 1_555
B4 Rh20 2.259885 1_655
B4 Rh13 2.283619 1_565
B4 Yb3 2.971069 1_565
B4 Yb5 2.972820 1_555
B4 Yb2 3.263833 1_655
B5 Rh13 2.182121 1_455
B5 Rh5 2.196766 1_455
B5 Rh11 2.223276 1_555
B5 Rh21 2.259885 1_455
B5 Rh12 2.283619 1_455
B5 Yb2 2.971069 1_555
B5 Yb4 2.972820 1_555
B5 Yb3 3.263833 1_455
B6 Rh14 2.182121 1_555
B6 Rh6 2.196766 1_555
B6 Rh8 2.223276 1_555
B6 Rh22 2.259885 1_555
B6 Rh15 2.283619 1_555
B6 Yb1 2.971069 1_555
B6 Yb4 2.972820 1_555
B6 Yb0 3.263833 1_555
B7 Rh15 2.182121 1_555
B7 Rh7 2.196766 1_555
B7 Rh9 2.223276 1_655
B7 Rh23 2.259885 1_555
B7 Rh14 2.283619 1_565
B7 Yb0 2.971069 1_565
B7 Yb5 2.972820 1_555
B7 Yb1 3.263833 1_555
B8 Rh6 2.157666 1_555
B8 Rh8 2.158447 1_555
B8 Rh0 2.235699 1_555
B8 Rh2 2.269660 1_556
B8 Rh1 2.272274 1_555
B8 Yb0 2.958426 1_455
B8 Yb3 2.981305 1_556
B8 Yb1 3.236573 1_555
B9 Rh7 2.157666 1_455
B9 Rh9 2.158447 1_555
B9 Rh1 2.235699 1_555
B9 Rh3 2.269660 1_566
B9 Rh0 2.272274 1_565
B9 Yb1 2.958426 1_555
B9 Yb2 2.981305 1_556
B9 Yb0 3.236573 1_465
B10 B9 1.782064 1_554
B10 Rh4 2.157666 1_555
B10 Rh10 2.158447 1_555
B10 Rh2 2.235699 1_555
B10 Rh0 2.269660 1_564
B10 Rh3 2.272274 1_565
B10 Yb2 2.958426 1_555
B10 Yb1 2.981305 1_554
B10 Yb3 3.236573 1_565
B11 B8 1.782064 1_554
B11 Rh5 2.157666 1_455
B11 Rh11 2.158447 1_555
B11 Rh3 2.235699 1_555
B11 Rh1 2.269660 1_554
B11 Rh2 2.272274 1_555
B11 Yb3 2.958426 1_555
B11 Yb0 2.981305 1_454
B11 Yb2 3.236573 1_555
B12 B15 1.782064 1_554
B12 Rh2 2.157666 1_555
B12 Rh12 2.158447 1_555
B12 Rh4 2.235699 1_555
B12 Rh6 2.269660 1_554
B12 Rh5 2.272274 1_555
B12 Yb2 2.958426 1_655
B12 Yb1 2.981305 1_554
B12 Yb3 3.236573 1_555
B13 B14 1.782064 1_554
B13 Rh3 2.157666 1_655
B13 Rh13 2.158447 1_555
B13 Rh5 2.235699 1_555
B13 Rh7 2.269660 1_544
B13 Rh4 2.272274 1_545
B13 Yb3 2.958426 1_555
B13 Yb0 2.981305 1_554
B13 Yb2 3.236573 1_645
B14 Rh0 2.157666 1_555
B14 Rh14 2.158447 1_555
B14 Rh6 2.235699 1_555
B14 Rh4 2.269660 1_546
B14 Rh7 2.272274 1_545
B14 Yb0 2.958426 1_555
B14 Yb3 2.981305 1_556
B14 Yb1 3.236573 1_545
B15 Rh1 2.157666 1_655
B15 Rh15 2.158447 1_555
B15 Rh7 2.235699 1_555
B15 Rh5 2.269660 1_556
B15 Rh6 2.272274 1_555
B15 Yb1 2.958426 1_555
B15 Yb2 2.981305 1_656
B15 Yb0 3.236573 1_555
B16 B4 1.793012 1_545
B16 Rh16 2.163595 1_555
B16 Rh21 2.177882 1_555
B16 Rh19 2.230668 1_555
B16 Rh20 2.234686 1_645
B16 Rh13 2.245686 1_555
B16 Yb5 3.008260 1_545
B16 Yb3 3.048729 1_555
B16 Yb4 3.144948 1_655
B17 B5 1.793012 1_555
B17 Rh17 2.163595 1_555
B17 Rh20 2.177882 1_555
B17 Rh18 2.230668 1_555
B17 Rh21 2.234686 1_455
B17 Rh12 2.245686 1_455
B17 Yb4 3.008260 1_555
B17 Yb2 3.048729 1_555
B17 Yb5 3.144948 1_455
B18 B6 1.793012 1_555
B18 Rh18 2.163595 1_555
B18 Rh23 2.177882 1_555
B18 Rh17 2.230668 1_555
B18 Rh22 2.234686 1_555
B18 Rh15 2.245686 1_555
B18 Yb4 3.008260 1_555
B18 Yb1 3.048729 1_555
B18 Yb5 3.144948 1_555
B19 B7 1.793012 1_545
B19 Rh19 2.163595 1_555
B19 Rh22 2.177882 1_555
B19 Rh16 2.230668 1_555
B19 Rh23 2.234686 1_545
B19 Rh14 2.245686 1_555
B19 Yb5 3.008260 1_545
B19 Yb0 3.048729 1_555
B19 Yb4 3.144948 1_555
B20 Rh20 2.163595 1_555
B20 Rh17 2.177882 1_555
B20 Rh23 2.230675 1_555
B20 Rh16 2.234681 1_465
B20 Rh9 2.245681 1_555
B20 Yb4 3.008263 1_565
B20 Yb1 3.048732 1_555
B20 Yb5 3.144942 1_455
B21 Rh21 2.163595 1_555
B21 Rh16 2.177882 1_555
B21 Rh22 2.230668 1_555
B21 Rh17 2.234686 1_655
B21 Rh8 2.245686 1_655
B21 Yb5 3.008260 1_555
B21 Yb0 3.048729 1_555
B21 Yb4 3.144948 1_655
B22 Rh22 2.163595 1_555
B22 Rh19 2.177882 1_555
B22 Rh21 2.230668 1_555
B22 Rh18 2.234686 1_555
B22 Rh11 2.245686 1_555
B22 Yb5 3.008260 1_555
B22 Yb3 3.048729 1_555
B22 Yb4 3.144948 1_555
B23 B3 1.793012 1_565
B23 Rh23 2.163595 1_555
B23 Rh18 2.177882 1_555
B23 Rh20 2.230675 1_555
B23 Rh19 2.234681 1_565
B23 Rh10 2.245681 1_555
B23 Yb4 3.008263 1_565
B23 Yb2 3.048732 1_555
B23 Yb5 3.144942 1_555
Rh0 Yb1 2.906105 1_545
Rh0 Yb3 3.159450 1_556
Rh0 Yb0 3.209311 1_455
Rh1 Yb0 2.906105 1_455
Rh1 Yb2 3.159450 1_556
Rh1 Yb1 3.209311 1_555
Rh2 Yb3 2.906105 1_555
Rh2 Yb1 3.159450 1_554
Rh2 Yb2 3.209311 1_555
Rh3 Yb2 2.906105 1_545
Rh3 Yb0 3.159450 1_454
Rh3 Yb3 3.209311 1_555
Rh4 Yb3 2.906105 1_565
Rh4 Yb1 3.159450 1_554
Rh4 Yb2 3.209311 1_655
Rh5 Yb2 2.906105 1_655
Rh5 Yb0 3.159450 1_554
Rh5 Yb3 3.209311 1_555
Rh6 Yb1 2.906105 1_555
Rh6 Yb3 3.159450 1_556
Rh6 Yb0 3.209311 1_555
Rh7 Yb0 2.906105 1_565
Rh7 Yb2 3.159450 1_656
Rh7 Yb1 3.209311 1_555
Rh8 Yb0 2.897961 1_455
Rh8 Yb4 3.168380 1_555
Rh8 Yb1 3.243118 1_555
Rh9 Yb1 2.897961 1_555
Rh9 Yb5 3.168380 1_455
Rh9 Yb0 3.243118 1_465
Rh10 Yb2 2.897961 1_555
Rh10 Yb5 3.168380 1_555
Rh10 Yb3 3.243118 1_565
Rh11 Yb3 2.897961 1_555
Rh11 Yb4 3.168380 1_555
Rh11 Yb2 3.243118 1_555
Rh12 Yb2 2.897961 1_655
Rh12 Yb5 3.168380 1_555
Rh12 Yb3 3.243118 1_555
Rh13 Yb3 2.897961 1_555
Rh13 Yb4 3.168380 1_655
Rh13 Yb2 3.243118 1_645
Rh14 Yb0 2.897961 1_555
Rh14 Yb4 3.168380 1_555
Rh14 Yb1 3.243118 1_545
Rh15 Yb1 2.897961 1_555
Rh15 Yb5 3.168380 1_555
Rh15 Yb0 3.243118 1_555
Rh16 Yb4 2.959979 1_655
Rh16 Yb0 3.156376 1_555
Rh16 Yb5 3.177964 1_545
Rh17 Yb5 2.959979 1_455
Rh17 Yb1 3.156376 1_555
Rh17 Yb4 3.177964 1_555
Rh18 Yb5 2.959979 1_555
Rh18 Yb2 3.156376 1_555
Rh18 Yb4 3.177964 1_555
Rh19 Yb4 2.959979 1_555
Rh19 Yb3 3.156376 1_555
Rh19 Yb5 3.177964 1_545
Rh20 Yb5 2.959979 1_455
Rh20 Yb2 3.156376 1_555
Rh20 Yb4 3.177964 1_565
Rh21 Yb4 2.959979 1_655
Rh21 Yb3 3.156376 1_555
Rh21 Yb5 3.177964 1_555
Rh22 Yb4 2.959979 1_555
Rh22 Yb0 3.156376 1_555
Rh22 Yb5 3.177964 1_555
Rh23 Yb5 2.959979 1_555
Rh23 Yb1 3.156376 1_555
Rh23 Yb4 3.177964 1_565
