# generated using pymatgen
data_MgVCoS4
_symmetry_space_group_name_H-M   'P 1'
_cell_length_a   7.17659191
_cell_length_b   7.12565412
_cell_length_c   7.12525928
_cell_angle_alpha   58.86257263
_cell_angle_beta   59.76175836
_cell_angle_gamma   59.76486936
_symmetry_Int_Tables_number   1
_chemical_formula_structural   MgVCoS4
_chemical_formula_sum   'Mg2 V2 Co2 S8'
_cell_volume   254.45981970
_cell_formula_units_Z   2
loop_
 _symmetry_equiv_pos_site_id
 _symmetry_equiv_pos_as_xyz
  1  'x, y, z'
loop_
 _atom_site_type_symbol
 _atom_site_label
 _atom_site_symmetry_multiplicity
 _atom_site_fract_x
 _atom_site_fract_y
 _atom_site_fract_z
 _atom_site_occupancy
  Mg  Mg0  1  0.87533600  0.87463200  0.87465900  1
  Mg  Mg1  1  0.12465800  0.12537100  0.12534800  1
  V  V0  1  0.50000000  0.50000500  0.99999300  1
  V  V1  1  0.49999900  0.99999100  0.50001400  1
  Co  Co0  1  0.50000200  0.50000300  0.49999300  1
  Co  Co1  1  0.00000100  0.49999700  0.50000400  1
  S  S0  1  0.75230100  0.72876200  0.72876800  1
  S  S1  1  0.25989000  0.27950700  0.70070700  1
  S  S2  1  0.25989900  0.70068700  0.27950200  1
  S  S3  1  0.70982400  0.27123600  0.27121900  1
  S  S4  1  0.74009200  0.29931800  0.72048600  1
  S  S5  1  0.29017300  0.72875800  0.72877600  1
  S  S6  1  0.24770500  0.27123200  0.27124000  1
  S  S7  1  0.74012300  0.72049600  0.29929100  1
loop_
_geom_bond_atom_site_label_1
_geom_bond_atom_site_label_2
_geom_bond_distance
_geom_bond_site_symmetry_2
Mg0 S0 2.430390 1_555
Mg0 S5 2.430672 1_655
Mg0 S7 2.445777 1_556
Mg0 S4 2.446301 1_565
Mg1 S6 2.430411 1_555
Mg1 S3 2.430650 1_455
Mg1 S1 2.445829 1_554
Mg1 S2 2.446288 1_545
Co0 S5 2.320674 1_555
Co0 S3 2.320693 1_555
Co0 S4 2.324563 1_555
Co0 S2 2.324626 1_555
Co0 S1 2.324647 1_555
Co0 S7 2.324690 1_555
Co1 S0 2.320633 1_455
Co1 S6 2.320634 1_555
Co1 S2 2.324544 1_555
Co1 S4 2.324559 1_455
Co1 S7 2.324599 1_455
Co1 S1 2.324616 1_555
S0 V0 2.420847 1_555
S0 V1 2.420916 1_555
S1 V1 2.447123 1_545
S2 V0 2.446983 1_554
S3 V0 2.420844 1_554
S3 V1 2.420925 1_545
S4 V0 2.446995 1_555
S5 V0 2.420816 1_555
S5 V1 2.420877 1_555
S6 V0 2.420902 1_554
S6 V1 2.420974 1_545
S7 V1 2.447148 1_555
