# generated using pymatgen
data_Al10Si2O19
_symmetry_space_group_name_H-M   'P 1'
_cell_length_a   2.95036000
_cell_length_b   7.48509288
_cell_length_c   16.04982759
_cell_angle_alpha   89.80598796
_cell_angle_beta   90.00000000
_cell_angle_gamma   90.00000000
_symmetry_Int_Tables_number   1
_chemical_formula_structural   Al10Si2O19
_chemical_formula_sum   'Al10 Si2 O19'
_cell_volume   354.43784459
_cell_formula_units_Z   1
loop_
 _symmetry_equiv_pos_site_id
 _symmetry_equiv_pos_as_xyz
  1  'x, y, z'
loop_
 _atom_site_type_symbol
 _atom_site_label
 _atom_site_symmetry_multiplicity
 _atom_site_fract_x
 _atom_site_fract_y
 _atom_site_fract_z
 _atom_site_occupancy
  Al  Al0  1  0.00000000  0.01067700  0.00551900  1
  Al  Al1  1  0.00000000  0.98629400  0.49769000  1
  Al  Al2  1  0.50000000  0.34875800  0.91413400  1
  Al  Al3  1  0.50000000  0.25367300  0.36068200  1
  Al  Al4  1  0.50000000  0.64860200  0.07064400  1
  Al  Al5  1  0.50000000  0.76922100  0.65047300  1
  Al  Al6  1  0.50000000  0.74714500  0.88913900  1
  Al  Al7  1  0.50000000  0.83938700  0.33878500  1
  Al  Al8  1  0.00000000  0.51929400  0.23657200  1
  Al  Al9  1  0.00000000  0.48157400  0.75432400  1
  Si  Si0  1  0.50000000  0.14613100  0.18572100  1
  Si  Si1  1  0.50000000  0.15465700  0.65654800  1
  O  O0  1  0.00000000  0.59701500  0.12524300  1
  O  O1  1  0.00000000  0.87256000  0.90673700  1
  O  O2  1  0.50000000  0.35840500  0.20254100  1
  O  O3  1  0.50000000  0.66057400  0.26831700  1
  O  O4  1  0.50000000  0.12430200  0.45031200  1
  O  O5  1  0.50000000  0.34037100  0.70972900  1
  O  O6  1  0.50000000  0.87850600  0.04930100  1
  O  O7  1  0.50000000  0.05693200  0.28078800  1
  O  O8  1  0.50000000  0.97199900  0.70903000  1
  O  O9  1  0.50000000  0.16834500  0.98590800  1
  O  O10  1  0.50000000  0.56245800  0.96715400  1
  O  O11  1  0.50000000  0.61526900  0.79900200  1
  O  O12  1  0.50000000  0.87099200  0.54800700  1
  O  O13  1  0.00000000  0.09720500  0.14133800  1
  O  O14  1  0.00000000  0.16349800  0.59990800  1
  O  O15  1  0.00000000  0.37370200  0.33962700  1
  O  O16  1  0.00000000  0.84317400  0.39662400  1
  O  O17  1  0.00000000  0.34008400  0.85490200  1
  O  O18  1  0.00000000  0.64119700  0.66190200  1
loop_
_geom_bond_atom_site_label_1
_geom_bond_atom_site_label_2
_geom_bond_distance
_geom_bond_site_symmetry_2
Al0 O1 1.895648 1_544
Al0 O6 1.908917 1_445
Al0 O6 1.908917 1_545
Al0 O9 1.914546 1_554
Al0 O9 1.914546 1_454
Al0 O13 2.276154 1_555
Al1 O12 1.889039 1_455
Al1 O12 1.889039 1_555
Al1 O16 1.946937 1_555
Al1 O4 1.953497 1_465
Al1 O4 1.953497 1_565
Al1 O14 2.113185 1_565
Al2 O17 1.756289 1_555
Al2 O17 1.756289 1_655
Al2 O9 1.772027 1_555
Al2 O10 1.814376 1_555
Al3 O4 1.731384 1_555
Al3 O15 1.759395 1_655
Al3 O15 1.759395 1_555
Al3 O7 1.955931 1_555
Al4 O6 1.753478 1_555
Al4 O0 1.758088 1_655
Al4 O0 1.758088 1_555
Al4 O10 1.783795 1_554
Al5 O18 1.768304 1_655
Al5 O18 1.768304 1_555
Al5 O8 1.787930 1_555
Al5 O12 1.810079 1_555
Al6 O11 1.754120 1_555
Al6 O1 1.771712 1_655
Al6 O1 1.771712 1_555
Al6 O10 1.862023 1_555
Al7 O16 1.743241 1_655
Al7 O16 1.743241 1_555
Al7 O3 1.755224 1_555
Al7 O7 1.872887 1_565
Al8 O0 1.877255 1_555
Al8 O3 1.886184 1_555
Al8 O3 1.886184 1_455
Al8 O15 1.977664 1_555
Al8 O2 1.982221 1_455
Al8 O2 1.982221 1_555
Al9 O18 1.901546 1_555
Al9 O11 1.922668 1_455
Al9 O11 1.922668 1_555
Al9 O17 1.927661 1_555
Al9 O5 1.952086 1_455
Al9 O5 1.952086 1_555
O2 Si0 1.612562 1_555
O5 Si1 1.633682 1_555
O7 Si0 1.663420 1_555
O8 Si1 1.603429 1_565
O13 Si0 1.679126 1_455
O13 Si0 1.679126 1_555
O14 Si1 1.733933 1_555
O14 Si1 1.733933 1_455
