# generated using pymatgen
data_Ba4Sr2Sm2Co4O15
_symmetry_space_group_name_H-M   'P 1'
_cell_length_a   6.88461900
_cell_length_b   11.74823871
_cell_length_c   11.75829194
_cell_angle_alpha   119.81247735
_cell_angle_beta   90.29583862
_cell_angle_gamma   89.98004345
_symmetry_Int_Tables_number   1
_chemical_formula_structural   Ba4Sr2Sm2Co4O15
_chemical_formula_sum   'Ba8 Sr4 Sm4 Co8 O30'
_cell_volume   825.15945654
_cell_formula_units_Z   2
loop_
 _symmetry_equiv_pos_site_id
 _symmetry_equiv_pos_as_xyz
  1  'x, y, z'
loop_
 _atom_site_type_symbol
 _atom_site_label
 _atom_site_symmetry_multiplicity
 _atom_site_fract_x
 _atom_site_fract_y
 _atom_site_fract_z
 _atom_site_occupancy
  Ba  Ba0  1  0.67131900  0.82173500  0.17509900  1
  Ba  Ba1  1  0.67232300  0.82565900  0.65213100  1
  Ba  Ba2  1  0.66535900  0.34858800  0.17451700  1
  Ba  Ba3  1  0.17401000  0.17419600  0.82595600  1
  Ba  Ba4  1  0.16574800  0.17329200  0.34353900  1
  Ba  Ba5  1  0.17134300  0.65443100  0.82713600  1
  Ba  Ba6  1  0.97784600  0.66545400  0.33441200  1
  Ba  Ba7  1  0.49207400  0.33586100  0.66577800  1
  Sr  Sr0  1  0.48556800  0.99948600  0.00031900  1
  Sr  Sr1  1  0.98419200  0.99973400  0.99964100  1
  Sr  Sr2  1  0.33313600  0.52508800  0.05120300  1
  Sr  Sr3  1  0.82939400  0.04811700  0.52348100  1
  Sm  Sm0  1  0.33582100  0.52364100  0.47514600  1
  Sm  Sm1  1  0.33478500  0.94883500  0.47507000  1
  Sm  Sm2  1  0.83485200  0.47551300  0.52225300  1
  Sm  Sm3  1  0.83233800  0.47560300  0.95138800  1
  Co  Co0  1  0.51039500  0.66509100  0.33384000  1
  Co  Co1  1  0.03552500  0.33042300  0.66377900  1
  Co  Co2  1  0.16391300  0.82176400  0.17596500  1
  Co  Co3  1  0.16743900  0.82385000  0.64839000  1
  Co  Co4  1  0.15785500  0.35276300  0.17374300  1
  Co  Co5  1  0.66295100  0.17382000  0.82302600  1
  Co  Co6  1  0.65548100  0.17202500  0.34972700  1
  Co  Co7  1  0.66604300  0.65058800  0.82457300  1
  O  O0  1  0.33868200  0.75324900  0.25735600  1
  O  O1  1  0.34169800  0.74653500  0.49859400  1
  O  O2  1  0.33564200  0.50027600  0.25881500  1
  O  O3  1  0.83592000  0.25392400  0.75760300  1
  O  O4  1  0.83509000  0.25718900  0.49484200  1
  O  O5  1  0.83841900  0.50220400  0.74666600  1
  O  O6  1  0.66306700  0.58451800  0.41602700  1
  O  O7  1  0.66850900  0.58727000  0.17494900  1
  O  O8  1  0.65469600  0.82659300  0.41420400  1
  O  O9  1  0.17069300  0.41936300  0.58147800  1
  O  O10  1  0.15717600  0.41801500  0.83220900  1
  O  O11  1  0.17135800  0.16990800  0.58376600  1
  O  O12  1  0.74326000  0.08565400  0.90568800  1
  O  O13  1  0.74779300  0.09506600  0.18360100  1
  O  O14  1  0.74558300  0.81989900  0.90365000  1
  O  O15  1  0.24533900  0.90371200  0.08741300  1
  O  O16  1  0.24488500  0.90348200  0.81849900  1
  O  O17  1  0.24645700  0.18485300  0.09567600  1
  O  O18  1  0.51650100  0.06160600  0.67080500  1
  O  O19  1  0.53086600  0.33631100  0.39691400  1
  O  O20  1  0.54629100  0.60312000  0.93399300  1
  O  O21  1  0.51542400  0.06651700  0.39364800  1
  O  O22  1  0.54382900  0.33186800  0.93817800  1
  O  O23  1  0.53783800  0.60412100  0.66297300  1
  O  O24  1  0.04738700  0.93705300  0.33271800  1
  O  O25  1  0.03741400  0.66388300  0.60195200  1
  O  O26  1  0.01689200  0.39422300  0.06644800  1
  O  O27  1  0.04805600  0.93457900  0.60286500  1
  O  O28  1  0.01785600  0.67086000  0.06272100  1
  O  O29  1  0.03167000  0.39859200  0.33564000  1
loop_
_geom_bond_atom_site_label_1
_geom_bond_atom_site_label_2
_geom_bond_distance
_geom_bond_site_symmetry_2
Ba0 O7 2.753749 1_555
Ba0 O0 2.761385 1_555
Ba0 O8 2.786479 1_555
Ba0 O20 2.847967 1_554
Ba0 O28 2.877587 1_655
Ba0 O21 2.950226 1_565
Ba0 O24 3.070816 1_655
Ba0 O13 3.206270 1_565
Ba0 O14 3.224546 1_554
Ba0 O15 3.397868 1_555
Ba1 O1 2.755887 1_555
Ba1 O8 2.805087 1_555
Ba1 O6 2.813375 1_555
Ba1 O23 2.824936 1_555
Ba1 O18 2.877150 1_565
Ba1 O25 3.029035 1_655
Ba1 O14 3.031328 1_555
Ba1 O12 3.064010 1_565
Ba1 O27 3.069080 1_655
Ba2 O2 2.752287 1_555
Ba2 O7 2.801662 1_555
Ba2 O22 2.809713 1_554
Ba2 O6 2.814438 1_555
Ba2 O19 2.848957 1_555
Ba2 O26 2.910227 1_655
Ba2 O29 3.023151 1_655
Ba2 O13 3.085305 1_555
Ba2 O12 3.182585 1_554
Ba2 O17 3.328678 1_555
Ba3 O3 2.769263 1_455
Ba3 O11 2.822998 1_555
Ba3 O10 2.830958 1_555
Ba3 O27 2.862395 1_545
Ba3 O18 2.877566 1_555
Ba3 O26 2.934239 1_556
Ba3 O22 3.032009 1_555
Ba3 O17 3.148240 1_556
Ba3 O16 3.175356 1_545
Ba3 O12 3.428701 1_455
Ba4 O4 2.759619 1_455
Ba4 O24 2.834146 1_545
Ba4 O11 2.844698 1_555
Ba4 O29 2.847546 1_555
Ba4 O9 2.853568 1_555
Ba4 O21 2.904200 1_555
Ba4 O19 3.028599 1_555
Ba4 O17 3.038348 1_555
Ba4 O15 3.151572 1_545
Ba4 O13 3.299771 1_455
Ba5 O5 2.764970 1_455
Ba5 O10 2.809342 1_555
Ba5 O9 2.835188 1_555
Ba5 O25 2.853123 1_555
Ba5 O28 2.885421 1_556
Ba5 O16 3.020701 1_555
Ba5 O15 3.045563 1_556
Ba5 O20 3.053538 1_555
Ba5 O23 3.058852 1_555
Ba5 O14 3.385934 1_455
Ba6 O7 2.672545 1_555
Ba6 O6 2.729790 1_555
Ba6 O8 2.768793 1_555
Ba6 O2 2.987940 1_655
Ba6 O0 3.001729 1_655
Ba6 O1 3.005392 1_655
Ba6 O29 3.163999 1_655
Ba6 O25 3.179476 1_655
Ba6 O26 3.190397 1_655
Ba6 O27 3.202470 1_655
Ba6 O24 3.236547 1_655
Ba6 O28 3.239809 1_655
Ba7 O11 2.778121 1_555
Ba7 O9 2.789828 1_555
Ba7 O10 2.871265 1_555
Ba7 O5 2.922490 1_555
Ba7 O4 2.944692 1_555
Ba7 O3 2.949868 1_555
Ba7 O20 3.175938 1_555
Ba7 O19 3.176637 1_555
Ba7 O23 3.183863 1_555
Ba7 O21 3.196035 1_555
Ba7 O22 3.244335 1_555
Ba7 O18 3.256076 1_555
Co0 O8 1.920614 1_555
Co0 O6 1.957831 1_555
Co0 O7 1.957861 1_555
Co0 O0 2.047758 1_555
Co0 O1 2.048568 1_555
Co0 O2 2.065700 1_555
Co1 O11 1.886675 1_555
Co1 O10 1.907778 1_555
Co1 O9 1.977283 1_555
Co1 O4 2.205314 1_455
Co1 O3 2.217115 1_455
Co1 O5 2.218144 1_455
Co2 O15 1.824396 1_555
Co2 O24 1.845950 1_555
Co2 O28 1.888740 1_555
Co2 O0 1.940343 1_555
Co3 O16 1.813555 1_555
Co3 O27 1.827963 1_555
Co3 O25 1.899247 1_555
Co3 O1 1.948577 1_555
Co4 O17 1.819474 1_555
Co4 O26 1.835421 1_555
Co4 O29 1.914689 1_555
Co4 O2 1.940940 1_555
Co5 O12 1.821641 1_555
Co5 O22 1.861216 1_555
Co5 O18 1.895839 1_555
Co5 O3 1.904084 1_555
Co6 O13 1.814748 1_555
Co6 O21 1.837223 1_555
Co6 O19 1.925622 1_555
Co6 O4 1.929538 1_555
Co7 O14 1.810376 1_555
Co7 O20 1.835950 1_555
Co7 O23 1.907671 1_555
Co7 O5 1.925713 1_555
O0 Sm1 2.446570 1_555
O0 Sr2 2.569193 1_555
O1 Sm0 2.493364 1_555
O1 Sm1 2.526019 1_555
O2 Sm0 2.418960 1_555
O2 Sr2 2.598395 1_555
O3 Sm3 2.464777 1_555
O3 Sr3 2.609005 1_555
O4 Sm2 2.420891 1_555
O4 Sr3 2.640194 1_555
O5 Sm2 2.497668 1_555
O5 Sm3 2.577402 1_555
O6 Sm2 2.484540 1_555
O6 Sm0 2.565581 1_555
O7 Sm3 2.550265 1_554
O7 Sr2 2.625161 1_555
O8 Sm1 2.533301 1_555
O8 Sr3 2.555747 1_565
O9 Sm0 2.427984 1_555
O9 Sm2 2.589434 1_455
O10 Sr2 2.535466 1_556
O10 Sm3 2.551766 1_455
O11 Sm1 2.521339 1_545
O11 Sr3 2.658770 1_455
O12 Sr1 2.465644 1_545
O12 Sr0 2.559692 1_546
O13 Sr1 2.491631 1_544
O13 Sr0 2.592198 1_545
O14 Sr1 2.459343 1_555
O14 Sr0 2.565479 1_556
O15 Sr0 2.492911 1_555
O15 Sr1 2.589828 1_454
O16 Sr0 2.481028 1_556
O16 Sr1 2.584510 1_455
O17 Sr0 2.509642 1_545
O17 Sr1 2.608625 1_444
O18 Sm1 2.357299 1_545
O18 Sr3 2.726096 1_555
O19 Sm0 2.343191 1_555
O19 Sm2 2.607763 1_555
O20 Sr2 2.484238 1_556
O20 Sm3 2.542212 1_555
O21 Sm1 2.388364 1_545
O21 Sr3 2.709865 1_555
O22 Sr2 2.457862 1_556
O22 Sm3 2.561102 1_555
O23 Sm0 2.366176 1_555
O23 Sm2 2.597875 1_555
O24 Sr3 2.471728 1_465
O24 Sm1 2.543895 1_555
O25 Sm2 2.376341 1_455
O25 Sm0 2.597107 1_555
O26 Sm3 2.371995 1_454
O26 Sr2 2.723327 1_555
O27 Sr3 2.477664 1_465
O27 Sm1 2.542414 1_555
O28 Sm3 2.367691 1_454
O28 Sr2 2.726256 1_555
O29 Sm2 2.350668 1_455
O29 Sm0 2.608487 1_555
