# generated using pymatgen
data_NaAl(SO4)2
_symmetry_space_group_name_H-M   'P 1'
_cell_length_a   5.03543300
_cell_length_b   13.99417800
_cell_length_c   8.18551300
_cell_angle_alpha   90.00000000
_cell_angle_beta   90.00000000
_cell_angle_gamma   90.00000000
_symmetry_Int_Tables_number   1
_chemical_formula_structural   NaAl(SO4)2
_chemical_formula_sum   'Na4 Al4 S8 O32'
_cell_volume   576.80646307
_cell_formula_units_Z   4
loop_
 _symmetry_equiv_pos_site_id
 _symmetry_equiv_pos_as_xyz
  1  'x, y, z'
loop_
 _atom_site_type_symbol
 _atom_site_label
 _atom_site_symmetry_multiplicity
 _atom_site_fract_x
 _atom_site_fract_y
 _atom_site_fract_z
 _atom_site_occupancy
  Na  Na0  1  0.75000000  0.58180000  0.92019400  1
  Na  Na1  1  0.25000000  0.41820000  0.07980600  1
  Na  Na2  1  0.25000000  0.91820000  0.42019400  1
  Na  Na3  1  0.75000000  0.08180000  0.57980600  1
  Al  Al0  1  0.75000000  0.65337400  0.49589100  1
  Al  Al1  1  0.25000000  0.34662600  0.50410900  1
  Al  Al2  1  0.25000000  0.84662600  0.99589100  1
  Al  Al3  1  0.75000000  0.15337400  0.00410900  1
  S  S0  1  0.75000000  0.83174300  0.75165000  1
  S  S1  1  0.25000000  0.16825700  0.24835000  1
  S  S2  1  0.25000000  0.66825700  0.25165000  1
  S  S3  1  0.75000000  0.33174300  0.74835000  1
  S  S4  1  0.75000000  0.94286700  0.19194900  1
  S  S5  1  0.25000000  0.05713300  0.80805100  1
  S  S6  1  0.25000000  0.55713300  0.69194900  1
  S  S7  1  0.75000000  0.44286700  0.30805100  1
  O  O0  1  0.75000000  0.93275800  0.71682400  1
  O  O1  1  0.25000000  0.06724200  0.28317600  1
  O  O2  1  0.25000000  0.56724200  0.21682400  1
  O  O3  1  0.75000000  0.43275800  0.78317600  1
  O  O4  1  0.75000000  0.96584300  0.36613900  1
  O  O5  1  0.25000000  0.03415700  0.63386100  1
  O  O6  1  0.25000000  0.53415700  0.86613900  1
  O  O7  1  0.75000000  0.46584300  0.13386100  1
  O  O8  1  0.75000000  0.52809300  0.41372900  1
  O  O9  1  0.25000000  0.47190700  0.58627100  1
  O  O10  1  0.25000000  0.97190700  0.91372900  1
  O  O11  1  0.75000000  0.02809300  0.08627100  1
  O  O12  1  0.00885100  0.61577800  0.65646600  1
  O  O13  1  0.99114900  0.38422200  0.34353400  1
  O  O14  1  0.99114900  0.88422200  0.15646600  1
  O  O15  1  0.50885100  0.38422200  0.34353400  1
  O  O16  1  0.00885100  0.11577800  0.84353400  1
  O  O17  1  0.49114900  0.61577800  0.65646600  1
  O  O18  1  0.49114900  0.11577800  0.84353400  1
  O  O19  1  0.50885100  0.88422200  0.15646600  1
  O  O20  1  0.75000000  0.77740200  0.59421300  1
  O  O21  1  0.25000000  0.22259800  0.40578700  1
  O  O22  1  0.25000000  0.72259800  0.09421300  1
  O  O23  1  0.75000000  0.27740200  0.90578700  1
  O  O24  1  0.98858400  0.80118600  0.84777900  1
  O  O25  1  0.01141600  0.19881400  0.15222100  1
  O  O26  1  0.01141600  0.69881400  0.34777900  1
  O  O27  1  0.48858400  0.19881400  0.15222100  1
  O  O28  1  0.98858400  0.30118600  0.65222100  1
  O  O29  1  0.51141600  0.80118600  0.84777900  1
  O  O30  1  0.51141600  0.30118600  0.65222100  1
  O  O31  1  0.48858400  0.69881400  0.34777900  1
loop_
_geom_bond_atom_site_label_1
_geom_bond_atom_site_label_2
_geom_bond_distance
_geom_bond_site_symmetry_2
Na0 O3 2.368149 1_555
Na0 O7 2.385821 1_556
Na0 O17 2.566167 1_555
Na0 O12 2.566167 1_655
Na0 O6 2.641817 1_655
Na0 O6 2.641817 1_555
Na1 O2 2.368149 1_555
Na1 O6 2.385821 1_554
Na1 O15 2.566167 1_555
Na1 O13 2.566167 1_455
Na1 O7 2.641817 1_455
Na1 O7 2.641817 1_555
Na2 O1 2.368149 1_565
Na2 O5 2.385821 1_565
Na2 O19 2.566167 1_555
Na2 O14 2.566167 1_455
Na2 O4 2.641817 1_555
Na2 O4 2.641817 1_455
Na3 O0 2.368149 1_545
Na3 O4 2.385821 1_545
Na3 O16 2.566167 1_655
Na3 O18 2.566167 1_555
Na3 O5 2.641817 1_555
Na3 O5 2.641817 1_655
Al0 O8 1.877774 1_555
Al0 O26 1.899202 1_655
Al0 O31 1.899202 1_555
Al0 O20 1.913186 1_555
Al0 O12 1.924408 1_655
Al0 O17 1.924408 1_555
Al1 O9 1.877774 1_555
Al1 O30 1.899202 1_555
Al1 O28 1.899202 1_455
Al1 O21 1.913186 1_555
Al1 O15 1.924408 1_555
Al1 O13 1.924408 1_455
Al2 O10 1.877774 1_555
Al2 O29 1.899202 1_555
Al2 O24 1.899202 1_455
Al2 O22 1.913186 1_556
Al2 O19 1.924408 1_556
Al2 O14 1.924408 1_456
Al3 O11 1.877774 1_555
Al3 O25 1.899202 1_655
Al3 O27 1.899202 1_555
Al3 O23 1.913186 1_554
Al3 O18 1.924408 1_554
Al3 O16 1.924408 1_654
O0 S0 1.442079 1_555
O1 S1 1.442079 1_555
O2 S2 1.442079 1_555
O3 S3 1.442079 1_555
O4 S4 1.461638 1_555
O5 S5 1.461638 1_555
O6 S6 1.461638 1_555
O7 S7 1.461638 1_555
O8 S7 1.473340 1_555
O9 S6 1.473340 1_555
O10 S5 1.473340 1_565
O11 S4 1.473340 1_545
O12 S6 1.494118 1_555
O13 S7 1.494118 1_555
O14 S4 1.494118 1_555
O15 S7 1.494118 1_555
O16 S5 1.494118 1_555
O17 S6 1.494118 1_555
O18 S5 1.494118 1_555
O19 S4 1.494118 1_555
O20 S0 1.496346 1_555
O21 S1 1.496346 1_555
O22 S2 1.496346 1_555
O23 S3 1.496346 1_555
O24 S0 1.498437 1_555
O25 S1 1.498437 1_555
O26 S2 1.498437 1_555
O27 S1 1.498437 1_555
O28 S3 1.498437 1_555
O29 S0 1.498437 1_555
O30 S3 1.498437 1_555
O31 S2 1.498437 1_555
