# generated using pymatgen
data_AgB3O5
_symmetry_space_group_name_H-M   'P 1'
_cell_length_a   3.87359355
_cell_length_b   8.32524391
_cell_length_c   10.33487180
_cell_angle_alpha   90.00000000
_cell_angle_beta   90.00000000
_cell_angle_gamma   90.00000000
_symmetry_Int_Tables_number   1
_chemical_formula_structural   AgB3O5
_chemical_formula_sum   'Ag4 B12 O20'
_cell_volume   333.28526157
_cell_formula_units_Z   4
loop_
 _symmetry_equiv_pos_site_id
 _symmetry_equiv_pos_as_xyz
  1  'x, y, z'
loop_
 _atom_site_type_symbol
 _atom_site_label
 _atom_site_symmetry_multiplicity
 _atom_site_fract_x
 _atom_site_fract_y
 _atom_site_fract_z
 _atom_site_occupancy
  Ag  Ag0  1  0.74601153  0.41133982  0.57751949  1
  Ag  Ag1  1  0.24601153  0.58866018  0.42248051  1
  Ag  Ag2  1  0.24601153  0.91133982  0.92248051  1
  Ag  Ag3  1  0.74601153  0.08866018  0.07751949  1
  B  B0  1  0.08932962  0.24612785  0.33688298  1
  B  B1  1  0.58932962  0.75387215  0.66311702  1
  B  B2  1  0.58932962  0.74612785  0.16311702  1
  B  B3  1  0.08932962  0.25387215  0.83688298  1
  B  B4  1  0.27991374  0.95989611  0.31304383  1
  B  B5  1  0.77991374  0.04010389  0.68695617  1
  B  B6  1  0.77991374  0.45989611  0.18695617  1
  B  B7  1  0.27991374  0.54010389  0.81304383  1
  B  B8  1  0.82135471  0.89831022  0.47120962  1
  B  B9  1  0.32135471  0.10168978  0.52879038  1
  B  B10  1  0.32135471  0.39831022  0.02879038  1
  B  B11  1  0.82135471  0.60168978  0.97120962  1
  O  O0  1  0.18288147  0.24495151  0.46591743  1
  O  O1  1  0.68288147  0.75504849  0.53408257  1
  O  O2  1  0.68288147  0.74495151  0.03408257  1
  O  O3  1  0.18288147  0.25504849  0.96591743  1
  O  O4  1  0.95961155  0.38985117  0.29538291  1
  O  O5  1  0.45961155  0.61014883  0.70461709  1
  O  O6  1  0.45961155  0.88985117  0.20461709  1
  O  O7  1  0.95961155  0.11014883  0.79538291  1
  O  O8  1  0.12820587  0.11132347  0.26469650  1
  O  O9  1  0.62820587  0.88867653  0.73530350  1
  O  O10  1  0.62820587  0.61132347  0.23530350  1
  O  O11  1  0.12820587  0.38867653  0.76469650  1
  O  O12  1  0.03049435  0.85295275  0.36644088  1
  O  O13  1  0.53049435  0.14704725  0.63355912  1
  O  O14  1  0.53049435  0.35295275  0.13355912  1
  O  O15  1  0.03049435  0.64704725  0.86644088  1
  O  O16  1  0.52289616  0.00770900  0.42721131  1
  O  O17  1  0.02289616  0.99229100  0.57278869  1
  O  O18  1  0.02289616  0.50770900  0.07278869  1
  O  O19  1  0.52289616  0.49229100  0.92721131  1
loop_
_geom_bond_atom_site_label_1
_geom_bond_atom_site_label_2
_geom_bond_distance
_geom_bond_site_symmetry_2
Ag0 O5 2.386548 1_555
Ag0 O13 2.423568 1_555
Ag0 O11 2.443251 1_655
Ag0 O0 2.472426 1_655
Ag1 O4 2.386548 1_455
Ag1 O12 2.423568 1_555
Ag1 O10 2.443251 1_555
Ag1 O1 2.472426 1_555
Ag2 O7 2.386548 1_465
Ag2 O15 2.423568 1_555
Ag2 O9 2.443251 1_555
Ag2 O2 2.472426 1_556
Ag3 O6 2.386548 1_545
Ag3 O14 2.423568 1_555
Ag3 O8 2.443251 1_655
Ag3 O3 2.472426 1_654
B0 O8 1.356009 1_555
B0 O4 1.366793 1_455
B0 O0 1.381949 1_555
B1 O9 1.356009 1_555
B1 O5 1.366793 1_555
B1 O1 1.381949 1_555
B2 O10 1.356009 1_555
B2 O6 1.366793 1_555
B2 O2 1.381949 1_555
B3 O11 1.356009 1_555
B3 O7 1.366793 1_455
B3 O3 1.381949 1_555
B4 O12 1.425016 1_555
B4 O6 1.442313 1_555
B4 O8 1.477934 1_565
B4 O16 1.560933 1_565
B5 O13 1.425016 1_555
B5 O7 1.442313 1_555
B5 O9 1.477934 1_545
B5 O17 1.560933 1_645
B6 O14 1.425016 1_555
B6 O4 1.442313 1_555
B6 O10 1.477934 1_555
B6 O18 1.560933 1_655
B7 O15 1.425016 1_555
B7 O5 1.442313 1_555
B7 O11 1.477934 1_555
B7 O19 1.560933 1_555
B8 O12 1.404024 1_655
B8 O1 1.460287 1_555
B8 O17 1.524382 1_655
B8 O16 1.540408 1_565
B9 O13 1.404024 1_555
B9 O0 1.460287 1_555
B9 O16 1.524382 1_555
B9 O17 1.540408 1_545
B10 O14 1.404024 1_555
B10 O3 1.460287 1_554
B10 O19 1.524382 1_554
B10 O18 1.540408 1_555
B11 O15 1.404024 1_655
B11 O2 1.460287 1_556
B11 O18 1.524382 1_656
B11 O19 1.540408 1_555
