# generated using pymatgen
data_SrCaMgSi2O7
_symmetry_space_group_name_H-M   'P 1'
_cell_length_a   8.02805100
_cell_length_b   5.12752200
_cell_length_c   8.01469354
_cell_angle_alpha   88.77139876
_cell_angle_beta   90.00000000
_cell_angle_gamma   90.00000000
_symmetry_Int_Tables_number   1
_chemical_formula_structural   SrCaMgSi2O7
_chemical_formula_sum   'Sr2 Ca2 Mg2 Si4 O14'
_cell_volume   329.84106363
_cell_formula_units_Z   2
loop_
 _symmetry_equiv_pos_site_id
 _symmetry_equiv_pos_as_xyz
  1  'x, y, z'
loop_
 _atom_site_type_symbol
 _atom_site_label
 _atom_site_symmetry_multiplicity
 _atom_site_fract_x
 _atom_site_fract_y
 _atom_site_fract_z
 _atom_site_occupancy
  Sr  Sr0  1  0.16309100  0.48973700  0.08560300  1
  Sr  Sr1  1  0.66309100  0.51026300  0.91439700  1
  Ca  Ca0  1  0.82562300  0.49866500  0.42027600  1
  Ca  Ca1  1  0.32562300  0.50133500  0.57972400  1
  Mg  Mg0  1  0.50116400  0.99962500  0.25236300  1
  Mg  Mg1  1  0.00116400  0.00037500  0.74763700  1
  Si  Si0  1  0.36056600  0.05885100  0.88194400  1
  Si  Si1  1  0.86056600  0.94114900  0.11805600  1
  Si  Si2  1  0.64011800  0.06593300  0.60274300  1
  Si  Si3  1  0.14011800  0.93406700  0.39725700  1
  O  O0  1  0.99783600  0.82500100  0.26061500  1
  O  O1  1  0.49783600  0.17499900  0.73938500  1
  O  O2  1  0.42063000  0.19408900  0.05561600  1
  O  O3  1  0.92063000  0.80591100  0.94438400  1
  O  O4  1  0.58380100  0.22094300  0.43005900  1
  O  O5  1  0.08380100  0.77905700  0.56994100  1
  O  O6  1  0.31369400  0.79227900  0.33907700  1
  O  O7  1  0.81369400  0.20772100  0.66092300  1
  O  O8  1  0.68892600  0.79081800  0.17654600  1
  O  O9  1  0.18892600  0.20918200  0.82345400  1
  O  O10  1  0.36077300  0.74360300  0.88240700  1
  O  O11  1  0.86077300  0.25639700  0.11759300  1
  O  O12  1  0.64377900  0.75095600  0.60062800  1
  O  O13  1  0.14377900  0.24904400  0.39937200  1
loop_
_geom_bond_atom_site_label_1
_geom_bond_atom_site_label_2
_geom_bond_distance
_geom_bond_site_symmetry_2
Ca0 O4 2.407921 1_555
Ca0 O7 2.414797 1_555
Ca0 O12 2.444218 1_555
Ca0 O0 2.501392 1_555
Ca0 O8 2.671843 1_555
Ca0 O11 2.763522 1_555
Ca0 O5 2.806381 1_655
Ca0 O13 2.863442 1_655
Ca1 O5 2.407921 1_555
Ca1 O6 2.414797 1_555
Ca1 O13 2.444218 1_555
Ca1 O1 2.501392 1_555
Ca1 O9 2.671843 1_555
Ca1 O10 2.763522 1_555
Ca1 O4 2.806381 1_555
Ca1 O12 2.863442 1_555
Mg0 O8 1.953356 1_555
Mg0 O4 1.955891 1_565
Mg0 O2 1.957379 1_565
Mg0 O6 1.961309 1_555
Mg1 O9 1.953356 1_555
Mg1 O5 1.955891 1_545
Mg1 O3 1.957379 1_445
Mg1 O7 1.961309 1_455
O0 Si3 1.686143 1_655
O0 Si1 1.686828 1_555
O0 Sr0 2.605026 1_655
O1 Si2 1.686143 1_555
O1 Si0 1.686828 1_555
O1 Sr1 2.605026 1_555
O2 Si0 1.640799 1_554
O2 Sr0 2.578017 1_555
O2 Sr1 2.760330 1_554
O3 Si1 1.640799 1_556
O3 Sr1 2.578017 1_555
O3 Sr0 2.760330 1_656
O4 Si2 1.644522 1_555
O5 Si3 1.644522 1_555
O6 Si3 1.643869 1_555
O6 Sr0 2.851404 1_555
O7 Si2 1.643869 1_555
O7 Sr1 2.851404 1_555
O8 Si1 1.642295 1_555
O8 Sr1 2.580009 1_554
O9 Si0 1.642295 1_555
O9 Sr0 2.580009 1_556
O10 Si0 1.616367 1_565
O10 Sr0 2.602746 1_556
O10 Sr1 2.715610 1_555
O11 Si1 1.616367 1_545
O11 Sr1 2.602746 1_554
O11 Sr0 2.715610 1_655
O12 Si2 1.615771 1_565
O12 Sr1 2.781748 1_555
O13 Si3 1.615771 1_545
O13 Sr0 2.781748 1_555
