# generated using pymatgen
data_Sr12Ti4Si16O61
_symmetry_space_group_name_H-M   'P 1'
_cell_length_a   10.96707168
_cell_length_b   10.96707168
_cell_length_c   12.13619646
_cell_angle_alpha   72.29738959
_cell_angle_beta   72.29738959
_cell_angle_gamma   89.23622456
_symmetry_Int_Tables_number   1
_chemical_formula_structural   Sr12Ti4Si16O61
_chemical_formula_sum   'Sr12 Ti4 Si16 O61'
_cell_volume   1319.68804286
_cell_formula_units_Z   1
loop_
 _symmetry_equiv_pos_site_id
 _symmetry_equiv_pos_as_xyz
  1  'x, y, z'
loop_
 _atom_site_type_symbol
 _atom_site_label
 _atom_site_symmetry_multiplicity
 _atom_site_fract_x
 _atom_site_fract_y
 _atom_site_fract_z
 _atom_site_occupancy
  Sr  Sr0  1  0.24800300  0.24800300  0.89340400  1
  Sr  Sr1  1  0.74666900  0.74666900  0.89779700  1
  Sr  Sr2  1  0.25241100  0.74923900  0.10624100  1
  Sr  Sr3  1  0.74923900  0.25241100  0.10624100  1
  Sr  Sr4  1  0.22753100  0.22753100  0.58970200  1
  Sr  Sr5  1  0.72896500  0.72896500  0.58996400  1
  Sr  Sr6  1  0.26631300  0.77083600  0.41421800  1
  Sr  Sr7  1  0.77083600  0.26631300  0.41421800  1
  Sr  Sr8  1  0.05385300  0.55583600  0.73981400  1
  Sr  Sr9  1  0.55583600  0.05385300  0.73981400  1
  Sr  Sr10  1  0.44260000  0.44260000  0.26013100  1
  Sr  Sr11  1  0.94692300  0.94692300  0.25490900  1
  Ti  Ti0  1  0.24963600  0.49940200  0.99868000  1
  Ti  Ti1  1  0.74839500  0.99877700  0.00190800  1
  Ti  Ti2  1  0.49940200  0.24963600  0.99868000  1
  Ti  Ti3  1  0.99877700  0.74839500  0.00190800  1
  Si  Si0  1  0.56435400  0.35945600  0.69675300  1
  Si  Si1  1  0.06246700  0.85950100  0.70164900  1
  Si  Si2  1  0.13874400  0.43294200  0.29982600  1
  Si  Si3  1  0.63812100  0.93839900  0.30175500  1
  Si  Si4  1  0.93839900  0.63812100  0.30175500  1
  Si  Si5  1  0.43294200  0.13874400  0.29982600  1
  Si  Si6  1  0.35945600  0.56435400  0.69675300  1
  Si  Si7  1  0.85950100  0.06246700  0.70164900  1
  Si  Si8  1  0.74424700  0.45767200  0.80046300  1
  Si  Si9  1  0.24578000  0.95553400  0.80300600  1
  Si  Si10  1  0.54138300  0.75289400  0.20351000  1
  Si  Si11  1  0.04121900  0.25401900  0.19606100  1
  Si  Si12  1  0.75289400  0.54138300  0.20351000  1
  Si  Si13  1  0.25401900  0.04121900  0.19606100  1
  Si  Si14  1  0.95553400  0.24578000  0.80300600  1
  Si  Si15  1  0.45767200  0.74424700  0.80046300  1
  O  O0  1  0.37025800  0.37025800  0.98284600  1
  O  O1  1  0.87175800  0.87175800  0.98540200  1
  O  O2  1  0.12751800  0.62748700  0.01698100  1
  O  O3  1  0.62748700  0.12751800  0.01698100  1
  O  O4  1  0.43385000  0.43385000  0.69015200  1
  O  O5  1  0.93200900  0.93200900  0.69263900  1
  O  O6  1  0.06769400  0.56471500  0.30899400  1
  O  O7  1  0.56471500  0.06769400  0.30899400  1
  O  O8  1  0.64370200  0.39147800  0.93837500  1
  O  O9  1  0.14592900  0.88929400  0.94099700  1
  O  O10  1  0.60741400  0.85320400  0.06560400  1
  O  O11  1  0.10660000  0.35511900  0.05793000  1
  O  O12  1  0.85320400  0.60741400  0.06560400  1
  O  O13  1  0.35511900  0.10660000  0.05793000  1
  O  O14  1  0.88929400  0.14592900  0.94099700  1
  O  O15  1  0.39147800  0.64370200  0.93837500  1
  O  O16  1  0.93722000  0.43391500  0.97882200  1
  O  O17  1  0.43391500  0.93722000  0.97882200  1
  O  O18  1  0.56228900  0.56228900  0.02332000  1
  O  O19  1  0.06387000  0.06387000  0.01983300  1
  O  O20  1  0.11049400  0.79785600  0.59332700  1
  O  O21  1  0.60660100  0.29530100  0.59033300  1
  O  O22  1  0.20076700  0.39125600  0.40852100  1
  O  O23  1  0.70307000  0.89247300  0.40960300  1
  O  O24  1  0.39125600  0.20076700  0.40852100  1
  O  O25  1  0.89247300  0.70307000  0.40960300  1
  O  O26  1  0.29530100  0.60660100  0.59033300  1
  O  O27  1  0.79785600  0.11049400  0.59332700  1
  O  O28  1  0.86348400  0.36521800  0.77999800  1
  O  O29  1  0.36521800  0.86348400  0.77999800  1
  O  O30  1  0.63328700  0.63328700  0.22447700  1
  O  O31  1  0.13530800  0.13530800  0.21179800  1
  O  O32  1  0.41397900  0.41397900  0.50344000  1
  O  O33  1  0.91336700  0.91336700  0.50107600  1
  O  O34  1  0.04060200  0.64148000  0.50790500  1
  O  O35  1  0.64148000  0.04060200  0.50790500  1
  O  O36  1  0.31081200  0.09795600  0.77043800  1
  O  O37  1  0.80701300  0.60017800  0.77096900  1
  O  O38  1  0.39852200  0.68923300  0.23477300  1
  O  O39  1  0.89900000  0.18825800  0.22891700  1
  O  O40  1  0.18825800  0.89900000  0.22891700  1
  O  O41  1  0.68923300  0.39852200  0.23477300  1
  O  O42  1  0.09795600  0.31081200  0.77043800  1
  O  O43  1  0.60017800  0.80701300  0.77096900  1
  O  O44  1  0.17164800  0.96357700  0.69995300  1
  O  O45  1  0.67331000  0.46558200  0.69464200  1
  O  O46  1  0.53457200  0.82550800  0.30793700  1
  O  O47  1  0.02971700  0.32974500  0.29873100  1
  O  O48  1  0.32974500  0.02971700  0.29873100  1
  O  O49  1  0.82550800  0.53457200  0.30793700  1
  O  O50  1  0.96357700  0.17164800  0.69995300  1
  O  O51  1  0.46558200  0.67331000  0.69464200  1
  O  O52  1  0.01937100  0.74551600  0.83373400  1
  O  O53  1  0.52344900  0.24742200  0.83020300  1
  O  O54  1  0.25257000  0.47543900  0.16758100  1
  O  O55  1  0.75224100  0.97727100  0.17046400  1
  O  O56  1  0.47543900  0.25257000  0.16758100  1
  O  O57  1  0.97727100  0.75224100  0.17046400  1
  O  O58  1  0.24742200  0.52344900  0.83020300  1
  O  O59  1  0.74551600  0.01937100  0.83373400  1
  O  O60  1  0.18110500  0.18110500  0.41887700  1
loop_
_geom_bond_atom_site_label_1
_geom_bond_atom_site_label_2
_geom_bond_distance
_geom_bond_site_symmetry_2
O0 Ti2 1.937493 1_555
O0 Ti0 1.937493 1_555
O0 Sr0 2.567448 1_555
O1 Ti3 1.940544 1_556
O1 Ti1 1.940544 1_556
O1 Sr1 2.592025 1_555
O2 Ti3 1.935173 1_455
O2 Ti0 1.942912 1_554
O2 Sr2 2.581339 1_555
O3 Ti1 1.935173 1_545
O3 Ti2 1.942912 1_554
O3 Sr3 2.581339 1_555
O4 Si6 1.649061 1_555
O4 Si0 1.649061 1_555
O4 Sr0 2.896334 1_555
O5 Si7 1.644158 1_565
O5 Si1 1.644158 1_655
O5 Sr1 2.901210 1_555
O6 Si4 1.633654 1_455
O6 Si2 1.650178 1_555
O6 Sr2 2.881566 1_555
O7 Si3 1.633654 1_545
O7 Si5 1.650178 1_555
O7 Sr3 2.881566 1_555
O8 Si8 1.644472 1_555
O8 Ti2 2.031954 1_555
O8 Sr3 2.704349 1_556
O9 Si9 1.642420 1_555
O9 Ti3 2.045719 1_456
O9 Sr2 2.692194 1_556
O10 Si10 1.643227 1_555
O10 Ti1 2.031102 1_555
O10 Sr1 2.711639 1_554
O11 Si11 1.647291 1_555
O11 Ti0 2.042037 1_554
O11 Sr0 2.695673 1_554
O12 Si12 1.643227 1_555
O12 Ti3 2.031102 1_555
O12 Sr1 2.711639 1_554
O13 Si13 1.647291 1_555
O13 Ti2 2.042037 1_554
O13 Sr0 2.695673 1_554
O14 Si14 1.642420 1_555
O14 Ti1 2.045719 1_546
O14 Sr3 2.692194 1_556
O15 Si15 1.644472 1_555
O15 Ti0 2.031954 1_555
O15 Sr2 2.704349 1_556
O16 Sr3 2.627252 1_556
O16 Sr8 2.695969 1_655
O17 Sr2 2.627252 1_556
O17 Sr9 2.695969 1_565
O18 Sr1 2.619310 1_554
O18 Sr10 2.676424 1_555
O19 Sr0 2.617294 1_554
O19 Sr11 2.649993 1_445
O20 Si1 1.603939 1_555
O20 Sr6 2.419142 1_555
O20 Sr8 2.663479 1_555
O21 Si0 1.599312 1_555
O21 Sr7 2.443433 1_555
O21 Sr9 2.667668 1_555
O22 Si2 1.607008 1_555
O22 Sr4 2.474379 1_555
O22 Sr10 2.666986 1_555
O23 Si3 1.621939 1_555
O23 Sr5 2.462699 1_555
O23 Sr11 2.709378 1_555
O24 Si5 1.607008 1_555
O24 Sr4 2.474379 1_555
O24 Sr10 2.666986 1_555
O25 Si4 1.621939 1_555
O25 Sr5 2.462699 1_555
O25 Sr11 2.709378 1_555
O26 Si6 1.599312 1_555
O26 Sr6 2.443433 1_555
O26 Sr8 2.667668 1_555
O27 Si7 1.603939 1_555
O27 Sr7 2.419142 1_555
O27 Sr9 2.663479 1_555
O28 Si8 1.649271 1_555
O28 Si14 1.651253 1_555
O28 Sr8 2.800735 1_655
O29 Si15 1.649271 1_555
O29 Si9 1.651253 1_555
O29 Sr9 2.800735 1_565
O30 Si10 1.648952 1_555
O30 Si12 1.648952 1_555
O30 Sr10 2.819588 1_555
O31 Si11 1.651984 1_555
O31 Si13 1.651984 1_555
O31 Sr11 2.758576 1_445
O32 Sr4 2.639329 1_555
O32 Sr10 2.791349 1_555
O33 Sr5 2.607495 1_555
O33 Sr11 2.804025 1_555
O34 Sr6 2.614175 1_555
O34 Sr8 2.731690 1_555
O35 Sr7 2.614175 1_555
O35 Sr9 2.731690 1_555
O36 Si9 1.608539 1_545
O36 Sr0 2.499516 1_555
O36 Sr4 2.636847 1_555
O36 Sr9 2.657141 1_555
O37 Si8 1.607220 1_555
O37 Sr1 2.498854 1_555
O37 Sr5 2.603364 1_555
O37 Sr8 2.676219 1_655
O38 Si10 1.610189 1_555
O38 Sr2 2.510333 1_555
O38 Sr6 2.622279 1_555
O38 Sr10 2.682152 1_555
O39 Si11 1.608958 1_655
O39 Sr3 2.495692 1_555
O39 Sr11 2.633809 1_545
O39 Sr7 2.642370 1_555
O40 Si13 1.608958 1_565
O40 Sr2 2.495692 1_555
O40 Sr11 2.633809 1_455
O40 Sr6 2.642370 1_555
O41 Si12 1.610189 1_555
O41 Sr3 2.510333 1_555
O41 Sr7 2.622279 1_555
O41 Sr10 2.682152 1_555
O42 Si14 1.608539 1_455
O42 Sr0 2.499516 1_555
O42 Sr4 2.636847 1_555
O42 Sr8 2.657141 1_555
O43 Si15 1.607220 1_555
O43 Sr1 2.498854 1_555
O43 Sr5 2.603364 1_555
O43 Sr9 2.676219 1_565
O44 Si1 1.656549 1_555
O44 Si9 1.668029 1_555
O44 Sr4 2.781875 1_565
O45 Si0 1.668376 1_555
O45 Si8 1.673369 1_555
O45 Sr5 2.770178 1_555
O46 Si3 1.660516 1_555
O46 Si10 1.673491 1_555
O46 Sr6 2.819145 1_555
O47 Si2 1.663034 1_555
O47 Si11 1.670074 1_555
O47 Sr7 2.747525 1_455
O48 Si5 1.663034 1_555
O48 Si13 1.670074 1_555
O48 Sr6 2.747525 1_545
O49 Si4 1.660516 1_555
O49 Si12 1.673491 1_555
O49 Sr7 2.819145 1_555
O50 Si7 1.656549 1_555
O50 Si14 1.668029 1_555
O50 Sr4 2.781875 1_655
O51 Si6 1.668376 1_555
O51 Si15 1.673369 1_555
O51 Sr5 2.770178 1_555
O52 Si1 1.640746 1_555
O52 Ti3 1.994071 1_456
O52 Sr8 2.632202 1_555
O52 Sr1 2.853076 1_455
O53 Si0 1.642129 1_555
O53 Ti2 1.988191 1_555
O53 Sr9 2.644871 1_555
O53 Sr0 2.882213 1_555
O54 Si2 1.641216 1_555
O54 Ti0 1.996026 1_554
O54 Sr10 2.625304 1_555
O54 Sr2 2.865676 1_555
O55 Si3 1.635643 1_555
O55 Ti1 2.000198 1_555
O55 Sr11 2.612283 1_555
O55 Sr3 2.880350 1_565
O56 Si5 1.641216 1_555
O56 Ti2 1.996026 1_554
O56 Sr10 2.625304 1_555
O56 Sr3 2.865676 1_555
O57 Si4 1.635643 1_555
O57 Ti3 2.000198 1_555
O57 Sr11 2.612283 1_555
O57 Sr2 2.880350 1_655
O58 Si6 1.642129 1_555
O58 Ti0 1.988191 1_555
O58 Sr8 2.644871 1_555
O58 Sr0 2.882213 1_555
O59 Si7 1.640746 1_555
O59 Ti1 1.994071 1_546
O59 Sr9 2.632202 1_555
O59 Sr1 2.853076 1_545
O60 Sr4 2.471296 1_555
