# generated using pymatgen
data_Cr5(Bi3Se8)2
_symmetry_space_group_name_H-M   'P 1'
_cell_length_a   9.62152462
_cell_length_b   9.62152462
_cell_length_c   11.56887052
_cell_angle_alpha   88.38868242
_cell_angle_beta   88.38868242
_cell_angle_gamma   142.21490981
_symmetry_Int_Tables_number   1
_chemical_formula_structural   Cr5(Bi3Se8)2
_chemical_formula_sum   'Cr5 Bi6 Se16'
_cell_volume   653.70798194
_cell_formula_units_Z   1
loop_
 _symmetry_equiv_pos_site_id
 _symmetry_equiv_pos_as_xyz
  1  'x, y, z'
loop_
 _atom_site_type_symbol
 _atom_site_label
 _atom_site_symmetry_multiplicity
 _atom_site_fract_x
 _atom_site_fract_y
 _atom_site_fract_z
 _atom_site_occupancy
  Cr  Cr0  1  0.61357900  0.81418100  0.48668400  1
  Cr  Cr1  1  0.81418100  0.61357900  0.48668400  1
  Cr  Cr2  1  0.00701900  0.40375700  0.48381600  1
  Cr  Cr3  1  0.40375700  0.00701900  0.48381600  1
  Cr  Cr4  1  0.21692500  0.21692500  0.49135900  1
  Bi  Bi0  1  0.11039100  0.44405100  0.83711300  1
  Bi  Bi1  1  0.44405100  0.11039100  0.83711300  1
  Bi  Bi2  1  0.80000100  0.80000100  0.83349000  1
  Bi  Bi3  1  0.81686000  0.48579700  0.13567700  1
  Bi  Bi4  1  0.48579700  0.81686000  0.13567700  1
  Bi  Bi5  1  0.19335400  0.19335400  0.14142900  1
  Se  Se0  1  0.93037900  0.12600500  0.61283700  1
  Se  Se1  1  0.12600500  0.93037900  0.61283700  1
  Se  Se2  1  0.53675900  0.53675900  0.60929700  1
  Se  Se3  1  0.31953600  0.71933400  0.60436400  1
  Se  Se4  1  0.71933400  0.31953600  0.60436400  1
  Se  Se5  1  0.23537500  0.23537500  0.88917700  1
  Se  Se6  1  0.03818100  0.37096900  0.08893900  1
  Se  Se7  1  0.37096900  0.03818100  0.08893900  1
  Se  Se8  1  0.68553700  0.08908100  0.36305900  1
  Se  Se9  1  0.08908100  0.68553700  0.36305900  1
  Se  Se10  1  0.90574500  0.90574500  0.36832100  1
  Se  Se11  1  0.29886400  0.49947700  0.36293100  1
  Se  Se12  1  0.49947700  0.29886400  0.36293100  1
  Se  Se13  1  0.89616100  0.56117400  0.88342900  1
  Se  Se14  1  0.56117400  0.89616100  0.88342900  1
  Se  Se15  1  0.70410800  0.70410800  0.08723100  1
loop_
_geom_bond_atom_site_label_1
_geom_bond_atom_site_label_2
_geom_bond_distance
_geom_bond_site_symmetry_2
Cr0 Se2 2.508561 1_555
Cr0 Se3 2.514551 1_555
Cr0 Se10 2.520831 1_555
Cr0 Se8 2.521449 1_565
Cr0 Se11 2.526341 1_555
Cr0 Se0 2.542409 1_565
Cr1 Se2 2.508561 1_555
Cr1 Se4 2.514551 1_555
Cr1 Se10 2.520831 1_555
Cr1 Se9 2.521449 1_655
Cr1 Se12 2.526341 1_555
Cr1 Se1 2.542409 1_655
Cr2 Se3 2.499716 1_555
Cr2 Se9 2.503370 1_555
Cr2 Se11 2.511555 1_555
Cr2 Se8 2.522748 1_455
Cr2 Se4 2.537173 1_455
Cr2 Se0 2.551934 1_455
Cr3 Se4 2.499716 1_555
Cr3 Se8 2.503370 1_555
Cr3 Se12 2.511555 1_555
Cr3 Se9 2.522748 1_545
Cr3 Se3 2.537173 1_545
Cr3 Se1 2.551934 1_545
Cr4 Se1 2.498439 1_545
Cr4 Se0 2.498439 1_455
Cr4 Se10 2.502951 1_445
Cr4 Se2 2.511014 1_555
Cr4 Se12 2.557143 1_555
Cr4 Se11 2.557143 1_555
Bi0 Se14 2.908824 1_555
Bi0 Se6 2.909205 1_556
Bi0 Se3 3.030618 1_555
Bi0 Se13 3.073916 1_455
Bi0 Se5 3.103081 1_555
Bi1 Se13 2.908824 1_555
Bi1 Se7 2.909205 1_556
Bi1 Se4 3.030618 1_555
Bi1 Se14 3.073916 1_545
Bi1 Se5 3.103081 1_555
Bi2 Se5 2.842085 1_665
Bi2 Se15 2.944402 1_556
Bi2 Se14 3.128238 1_555
Bi2 Se13 3.128238 1_555
Bi2 Se2 3.186883 1_555
Bi2 Se1 3.328482 1_655
Bi2 Se0 3.328482 1_565
Bi3 Se7 2.881425 1_555
Bi3 Se13 2.916381 1_554
Bi3 Se15 3.077795 1_555
Bi3 Se6 3.120104 1_655
Bi3 Se12 3.173840 1_555
Bi3 Se9 3.191998 1_655
Bi4 Se6 2.881425 1_555
Bi4 Se14 2.916381 1_554
Bi4 Se15 3.077795 1_555
Bi4 Se7 3.120104 1_565
Bi4 Se11 3.173840 1_555
Bi4 Se8 3.191998 1_565
Bi5 Se5 2.907258 1_554
Bi5 Se10 3.047032 1_445
Bi5 Se6 3.089292 1_555
Bi5 Se7 3.089292 1_555
Bi5 Se15 3.165090 1_445
Bi5 Se15 3.189709 1_555
