# generated using pymatgen
data_Mg5MnSb4
_symmetry_space_group_name_H-M   'P 1'
_cell_length_a   4.56806496
_cell_length_b   4.56806496
_cell_length_c   14.50391300
_cell_angle_alpha   90.00000000
_cell_angle_beta   90.00000000
_cell_angle_gamma   119.99998492
_symmetry_Int_Tables_number   1
_chemical_formula_structural   Mg5MnSb4
_chemical_formula_sum   'Mg5 Mn1 Sb4'
_cell_volume   262.10809006
_cell_formula_units_Z   1
loop_
 _symmetry_equiv_pos_site_id
 _symmetry_equiv_pos_as_xyz
  1  'x, y, z'
loop_
 _atom_site_type_symbol
 _atom_site_label
 _atom_site_symmetry_multiplicity
 _atom_site_fract_x
 _atom_site_fract_y
 _atom_site_fract_z
 _atom_site_occupancy
  Mg  Mg0  1  0.66666700  0.33333300  0.99981700  1
  Mg  Mg1  1  0.66666700  0.33333300  0.50072700  1
  Mg  Mg2  1  0.00000000  0.00000000  0.18432200  1
  Mg  Mg3  1  0.33333300  0.66666700  0.81333800  1
  Mg  Mg4  1  0.33333300  0.66666700  0.31566200  1
  Mn  Mn0  1  0.00000000  0.00000000  0.68612000  1
  Sb  Sb0  1  0.00000000  0.00000000  0.88441300  1
  Sb  Sb1  1  0.00000000  0.00000000  0.38788500  1
  Sb  Sb2  1  0.33333300  0.66666700  0.61523400  1
  Sb  Sb3  1  0.33333300  0.66666700  0.11248300  1
loop_
_geom_bond_atom_site_label_1
_geom_bond_atom_site_label_2
_geom_bond_distance
_geom_bond_site_symmetry_2
Mg0 Sb3 3.102580 1_546
Mg0 Sb3 3.102580 1_656
Mg0 Sb3 3.102586 1_556
Mg0 Sb0 3.123678 1_655
Mg0 Sb0 3.123682 1_665
Mg0 Sb0 3.123682 1_555
Mg1 Sb1 3.103925 1_655
Mg1 Sb1 3.103929 1_555
Mg1 Sb1 3.103929 1_665
Mg1 Sb2 3.116726 1_545
Mg1 Sb2 3.116726 1_655
Mg1 Sb2 3.116732 1_555
Mg2 Sb3 2.835732 1_545
Mg2 Sb3 2.835736 1_445
Mg2 Sb3 2.835736 1_555
Mg2 Sb1 2.952460 1_555
Mg3 Sb0 2.831679 1_565
Mg3 Sb0 2.831684 1_665
Mg3 Sb0 2.831684 1_555
Mg3 Sb2 2.873283 1_555
Mg3 Mn0 3.218747 1_565
Mg3 Mn0 3.218751 1_665
Mg3 Mn0 3.218751 1_555
Mg4 Sb1 2.837783 1_565
Mg4 Sb1 2.837788 1_665
Mg4 Sb1 2.837788 1_555
Mg4 Sb3 2.946891 1_555
Mn0 Sb2 2.830683 1_545
Mn0 Sb2 2.830687 1_555
Mn0 Sb2 2.830687 1_445
Mn0 Sb0 2.876024 1_555
