# generated using pymatgen
data_La4(DyS2)11
_symmetry_space_group_name_H-M   'P 1'
_cell_length_a   19.82978394
_cell_length_b   19.82978394
_cell_length_c   11.42776155
_cell_angle_alpha   88.33357135
_cell_angle_beta   88.33357135
_cell_angle_gamma   11.54649609
_symmetry_Int_Tables_number   1
_chemical_formula_structural   La4(DyS2)11
_chemical_formula_sum   'La4 Dy11 S22'
_cell_volume   899.07419245
_cell_formula_units_Z   1
loop_
 _symmetry_equiv_pos_site_id
 _symmetry_equiv_pos_as_xyz
  1  'x, y, z'
loop_
 _atom_site_type_symbol
 _atom_site_label
 _atom_site_symmetry_multiplicity
 _atom_site_fract_x
 _atom_site_fract_y
 _atom_site_fract_z
 _atom_site_occupancy
  La  La0  1  0.10429100  0.10429100  0.98848000  1
  La  La1  1  0.89570900  0.89570900  0.01152000  1
  La  La2  1  0.36716200  0.36716200  0.65307400  1
  La  La3  1  0.63283800  0.63283800  0.34692600  1
  Dy  Dy0  1  0.79769500  0.79769500  0.94235700  1
  Dy  Dy1  1  0.20230500  0.20230500  0.05764300  1
  Dy  Dy2  1  0.46214700  0.46214700  0.72893900  1
  Dy  Dy3  1  0.53785300  0.53785300  0.27106100  1
  Dy  Dy4  1  0.65776500  0.65776500  0.69895100  1
  Dy  Dy5  1  0.34223500  0.34223500  0.30104900  1
  Dy  Dy6  1  0.26374000  0.26374000  0.64834400  1
  Dy  Dy7  1  0.73626000  0.73626000  0.35165600  1
  Dy  Dy8  1  0.06936400  0.06936400  0.63952200  1
  Dy  Dy9  1  0.93063600  0.93063600  0.36047800  1
  Dy  Dy10  1  0.00000000  0.00000000  0.00000000  1
  S  S0  1  0.08727300  0.08727300  0.24828700  1
  S  S1  1  0.91272700  0.91272700  0.75171300  1
  S  S2  1  0.18899500  0.18899500  0.30852100  1
  S  S3  1  0.81100500  0.81100500  0.69147900  1
  S  S4  1  0.27992400  0.27992400  0.40979900  1
  S  S5  1  0.72007600  0.72007600  0.59020100  1
  S  S6  1  0.44535900  0.44535900  0.50481900  1
  S  S7  1  0.55464100  0.55464100  0.49518100  1
  S  S8  1  0.13463200  0.13463200  0.54696100  1
  S  S9  1  0.86536800  0.86536800  0.45303900  1
  S  S10  1  0.59277100  0.59277100  0.78753800  1
  S  S11  1  0.40722900  0.40722900  0.21246200  1
  S  S12  1  0.45330000  0.45330000  0.96919100  1
  S  S13  1  0.54670000  0.54670000  0.03080900  1
  S  S14  1  0.35034200  0.35034200  0.90877800  1
  S  S15  1  0.64965800  0.64965800  0.09122200  1
  S  S16  1  0.16838100  0.16838100  0.84825300  1
  S  S17  1  0.83161900  0.83161900  0.15174700  1
  S  S18  1  0.00772200  0.00772200  0.76110300  1
  S  S19  1  0.99227800  0.99227800  0.23889700  1
  S  S20  1  0.25539200  0.25539200  0.88146200  1
  S  S21  1  0.74460800  0.74460800  0.11853800  1
loop_
_geom_bond_atom_site_label_1
_geom_bond_atom_site_label_2
_geom_bond_distance
_geom_bond_site_symmetry_2
La0 S15 2.946994 1_456
La0 S15 2.946994 1_546
La0 S16 2.954036 1_555
La0 S0 3.024798 1_556
La0 S13 3.051661 1_546
La0 S13 3.051661 1_456
La0 S10 3.085384 1_545
La0 S10 3.085384 1_455
La1 S14 2.946994 1_564
La1 S14 2.946994 1_654
La1 S17 2.954036 1_555
La1 S1 3.024798 1_554
La1 S12 3.051661 1_564
La1 S12 3.051661 1_654
La1 S11 3.085384 1_655
La1 S11 3.085384 1_565
La2 S1 2.932663 1_545
La2 S1 2.932663 1_455
La2 S14 2.977570 1_555
La2 S3 3.004115 1_545
La2 S3 3.004115 1_455
La2 S9 3.036269 1_545
La2 S9 3.036269 1_455
La2 S6 3.476390 1_555
La3 S0 2.932663 1_565
La3 S0 2.932663 1_655
La3 S15 2.977570 1_555
La3 S2 3.004115 1_565
La3 S2 3.004115 1_655
La3 S8 3.036269 1_565
La3 S8 3.036269 1_655
La3 S7 3.476390 1_555
Dy0 S20 2.705053 1_565
Dy0 S20 2.705053 1_655
Dy0 S17 2.775758 1_556
Dy0 S21 2.862681 1_556
Dy0 S14 2.897410 1_655
Dy0 S14 2.897410 1_565
Dy0 S3 2.899542 1_555
Dy1 S21 2.705053 1_455
Dy1 S21 2.705053 1_545
Dy1 S16 2.775758 1_554
Dy1 S20 2.862681 1_554
Dy1 S15 2.897410 1_455
Dy1 S15 2.897410 1_545
Dy1 S2 2.899542 1_555
Dy2 S6 2.664148 1_555
Dy2 S18 2.717824 1_655
Dy2 S18 2.717824 1_565
Dy2 S12 2.757506 1_555
Dy2 S1 2.796351 1_545
Dy2 S1 2.796351 1_455
Dy3 S7 2.664148 1_555
Dy3 S19 2.717824 1_545
Dy3 S19 2.717824 1_455
Dy3 S13 2.757506 1_555
Dy3 S0 2.796351 1_565
Dy3 S0 2.796351 1_655
Dy4 S16 2.665934 1_655
Dy4 S16 2.665934 1_565
Dy4 S5 2.722319 1_555
Dy4 S10 2.729478 1_555
Dy4 S8 2.814532 1_655
Dy4 S8 2.814532 1_565
Dy5 S17 2.665934 1_545
Dy5 S17 2.665934 1_455
Dy5 S4 2.722319 1_555
Dy5 S11 2.729478 1_555
Dy5 S9 2.814532 1_455
Dy5 S9 2.814532 1_545
Dy6 S20 2.674732 1_555
Dy6 S5 2.730515 1_455
Dy6 S5 2.730515 1_545
Dy6 S4 2.781602 1_555
Dy6 S3 2.784572 1_545
Dy6 S3 2.784572 1_455
Dy7 S21 2.674732 1_555
Dy7 S4 2.730515 1_655
Dy7 S4 2.730515 1_565
Dy7 S5 2.781602 1_555
Dy7 S2 2.784572 1_565
Dy7 S2 2.784572 1_655
Dy8 S7 2.663312 1_545
Dy8 S7 2.663312 1_455
Dy8 S8 2.755387 1_555
Dy8 S18 2.765671 1_555
Dy8 S10 2.790052 1_545
Dy8 S10 2.790052 1_455
Dy9 S6 2.663312 1_655
Dy9 S6 2.663312 1_565
Dy9 S9 2.755387 1_555
Dy9 S19 2.765671 1_555
Dy9 S11 2.790052 1_655
Dy9 S11 2.790052 1_565
Dy10 S18 2.738143 1_554
Dy10 S19 2.738143 1_445
Dy10 S12 2.745239 1_454
Dy10 S12 2.745239 1_544
Dy10 S13 2.745239 1_455
Dy10 S13 2.745239 1_545
