# generated using pymatgen
data_K2GaAs2
_symmetry_space_group_name_H-M   'P 1'
_cell_length_a   14.40327223
_cell_length_b   8.93796744
_cell_length_c   11.15347543
_cell_angle_alpha   61.91620468
_cell_angle_beta   90.00000000
_cell_angle_gamma   90.00000000
_symmetry_Int_Tables_number   1
_chemical_formula_structural   K2GaAs2
_chemical_formula_sum   'K16 Ga8 As16'
_cell_volume   1266.79623474
_cell_formula_units_Z   8
loop_
 _symmetry_equiv_pos_site_id
 _symmetry_equiv_pos_as_xyz
  1  'x, y, z'
loop_
 _atom_site_type_symbol
 _atom_site_label
 _atom_site_symmetry_multiplicity
 _atom_site_fract_x
 _atom_site_fract_y
 _atom_site_fract_z
 _atom_site_occupancy
  K  K0  1  0.62792903  0.99419833  0.46733651  1
  K  K1  1  0.12792903  0.00580167  0.03266349  1
  K  K2  1  0.37207097  0.00580167  0.53266349  1
  K  K3  1  0.87207097  0.99419833  0.96733651  1
  K  K4  1  0.63110595  0.58649389  0.09005522  1
  K  K5  1  0.13110595  0.41350611  0.40994478  1
  K  K6  1  0.36889405  0.41350611  0.90994478  1
  K  K7  1  0.86889405  0.58649389  0.59005522  1
  K  K8  1  0.88513667  0.20405409  0.47561356  1
  K  K9  1  0.38513667  0.79594591  0.02438644  1
  K  K10  1  0.11486333  0.79594591  0.52438644  1
  K  K11  1  0.61486333  0.20405409  0.97561356  1
  K  K12  1  0.87917517  0.47611825  0.05804706  1
  K  K13  1  0.37917517  0.52388175  0.44195294  1
  K  K14  1  0.12082483  0.52388175  0.94195294  1
  K  K15  1  0.62082483  0.47611825  0.55804706  1
  Ga  Ga0  1  0.71698377  0.84682588  0.25402476  1
  Ga  Ga1  1  0.21698377  0.15317412  0.24597524  1
  Ga  Ga2  1  0.28301623  0.15317412  0.74597524  1
  Ga  Ga3  1  0.78301623  0.84682588  0.75402476  1
  Ga  Ga4  1  0.94288991  0.00251370  0.25796408  1
  Ga  Ga5  1  0.44288991  0.99748630  0.24203592  1
  Ga  Ga6  1  0.05711009  0.99748630  0.74203592  1
  Ga  Ga7  1  0.55711009  0.00251370  0.75796408  1
  As  As0  1  0.78562850  0.10233779  0.22821628  1
  As  As1  1  0.28562850  0.89766221  0.27178372  1
  As  As2  1  0.21437150  0.89766221  0.77178372  1
  As  As3  1  0.71437150  0.10233779  0.72821628  1
  As  As4  1  0.81565129  0.62008883  0.28031101  1
  As  As5  1  0.31565129  0.37991117  0.21968899  1
  As  As6  1  0.18434871  0.37991117  0.71968899  1
  As  As7  1  0.68434871  0.62008883  0.78031101  1
  As  As8  1  0.55330035  0.78795916  0.25634583  1
  As  As9  1  0.05330035  0.21204084  0.24365417  1
  As  As10  1  0.44669965  0.21204084  0.74365417  1
  As  As11  1  0.94669965  0.78795916  0.75634583  1
  As  As12  1  0.97284220  0.73087591  0.27629803  1
  As  As13  1  0.47284220  0.26912409  0.22370197  1
  As  As14  1  0.02715780  0.26912409  0.72370197  1
  As  As15  1  0.52715780  0.73087591  0.77629803  1
loop_
_geom_bond_atom_site_label_1
_geom_bond_atom_site_label_2
_geom_bond_distance
_geom_bond_site_symmetry_2
Ga0 K0 3.462854 1_555
Ga0 K11 3.558882 1_564
Ga0 K3 3.603278 1_554
Ga1 K1 3.462854 1_555
Ga1 K10 3.558882 1_545
Ga1 K2 3.603278 1_555
Ga2 K2 3.462854 1_555
Ga2 K9 3.558882 1_546
Ga2 K1 3.603278 1_556
Ga3 K3 3.462854 1_555
Ga3 K8 3.558882 1_565
Ga3 K0 3.603278 1_555
Ga4 K3 3.432226 1_544
Ga4 K10 3.634383 1_645
Ga4 K1 3.653635 1_655
Ga4 K8 3.734572 1_555
Ga5 K2 3.432226 1_565
Ga5 K11 3.634383 1_564
Ga5 K0 3.653635 1_555
Ga5 K9 3.734572 1_555
Ga6 K1 3.432226 1_566
Ga6 K8 3.634383 1_465
Ga6 K3 3.653635 1_455
Ga6 K10 3.734572 1_555
Ga7 K0 3.432226 1_545
Ga7 K9 3.634383 1_546
Ga7 K2 3.653635 1_555
Ga7 K11 3.734572 1_555
As0 Ga0 2.378446 1_545
As0 Ga4 2.399586 1_555
As0 K12 3.257129 1_555
As0 K0 3.283193 1_545
As0 K11 3.521670 1_554
As0 K8 3.585610 1_555
As0 K3 3.687648 1_544
As1 Ga1 2.378446 1_565
As1 Ga5 2.399586 1_555
As1 K13 3.257129 1_555
As1 K1 3.283193 1_565
As1 K10 3.521670 1_555
As1 K9 3.585610 1_555
As1 K2 3.687648 1_565
As2 Ga2 2.378446 1_565
As2 Ga6 2.399586 1_555
As2 K14 3.257129 1_555
As2 K2 3.283193 1_565
As2 K9 3.521670 1_556
As2 K10 3.585610 1_555
As2 K1 3.687648 1_566
As3 Ga3 2.378446 1_545
As3 Ga7 2.399586 1_555
As3 K15 3.257129 1_555
As3 K3 3.283193 1_545
As3 K8 3.521670 1_555
As3 K11 3.585610 1_555
As3 K0 3.687648 1_545
As4 Ga0 2.377635 1_555
As4 K7 3.411258 1_555
As4 K12 3.412036 1_555
As4 K8 3.456521 1_555
As4 K4 3.501184 1_555
As4 K3 3.610653 1_554
As5 Ga1 2.377635 1_555
As5 K6 3.411258 1_554
As5 K13 3.412036 1_555
As5 K9 3.456521 1_555
As5 K5 3.501184 1_555
As5 K2 3.610653 1_555
As6 Ga2 2.377635 1_555
As6 K5 3.411258 1_555
As6 K14 3.412036 1_555
As6 K10 3.456521 1_555
As6 K6 3.501184 1_555
As6 K1 3.610653 1_556
As7 Ga3 2.377635 1_555
As7 K4 3.411258 1_556
As7 K15 3.412036 1_555
As7 K11 3.456521 1_555
As7 K7 3.501184 1_555
As7 K0 3.610653 1_555
As8 Ga5 2.404204 1_555
As8 Ga0 2.413058 1_555
As8 K4 3.329086 1_555
As8 K15 3.347722 1_555
As8 K13 3.397952 1_555
As8 K9 3.520110 1_555
As8 K11 3.668469 1_564
As8 K0 3.765047 1_555
As9 Ga4 2.404204 1_455
As9 Ga1 2.413058 1_555
As9 K5 3.329086 1_555
As9 K14 3.347722 1_554
As9 K12 3.397952 1_455
As9 K8 3.520110 1_455
As9 K10 3.668469 1_545
As9 K1 3.765047 1_555
As10 Ga7 2.404204 1_555
As10 Ga2 2.413058 1_555
As10 K6 3.329086 1_555
As10 K13 3.347722 1_555
As10 K15 3.397952 1_555
As10 K11 3.520110 1_555
As10 K9 3.668469 1_546
As10 K2 3.765047 1_555
As11 Ga6 2.404204 1_655
As11 Ga3 2.413058 1_555
As11 K7 3.329086 1_555
As11 K12 3.347722 1_556
As11 K14 3.397952 1_655
As11 K10 3.520110 1_655
As11 K8 3.668469 1_565
As11 K3 3.765047 1_555
As12 Ga4 2.378053 1_565
As12 As4 2.463083 1_555
As12 K5 3.388742 1_655
As12 K3 3.447419 1_554
As12 K7 3.449836 1_555
As12 K1 3.482114 1_665
As12 K10 3.700588 1_655
As13 Ga5 2.378053 1_545
As13 As5 2.463083 1_555
As13 K4 3.388742 1_555
As13 K2 3.447419 1_555
As13 K6 3.449836 1_554
As13 K0 3.482114 1_545
As13 K11 3.700588 1_554
As14 Ga6 2.378053 1_545
As14 As6 2.463083 1_555
As14 K7 3.388742 1_455
As14 K1 3.447419 1_556
As14 K5 3.449836 1_555
As14 K3 3.482114 1_445
As14 K8 3.700588 1_455
As15 Ga7 2.378053 1_565
As15 As7 2.463083 1_555
As15 K6 3.388742 1_555
As15 K0 3.447419 1_555
As15 K4 3.449836 1_556
As15 K2 3.482114 1_565
As15 K9 3.700588 1_556
