# generated using pymatgen
data_ZnGeN2
_symmetry_space_group_name_H-M   'P 1'
_cell_length_a   3.21350615
_cell_length_b   3.21350615
_cell_length_c   5.35101200
_cell_angle_alpha   90.00000000
_cell_angle_beta   90.00000000
_cell_angle_gamma   120.00000301
_symmetry_Int_Tables_number   1
_chemical_formula_structural   ZnGeN2
_chemical_formula_sum   'Zn1 Ge1 N2'
_cell_volume   47.85472371
_cell_formula_units_Z   1
loop_
 _symmetry_equiv_pos_site_id
 _symmetry_equiv_pos_as_xyz
  1  'x, y, z'
loop_
 _atom_site_type_symbol
 _atom_site_label
 _atom_site_symmetry_multiplicity
 _atom_site_fract_x
 _atom_site_fract_y
 _atom_site_fract_z
 _atom_site_occupancy
  Zn  Zn0  1  0.66666700  0.33333300  0.50880000  1
  Ge  Ge0  1  0.00000000  0.00000000  0.97675200  1
  N  N0  1  0.66666700  0.33333300  0.11351600  1
  N  N1  1  0.00000000  0.00000000  0.64093100  1
loop_
_geom_bond_atom_site_label_1
_geom_bond_atom_site_label_2
_geom_bond_distance
_geom_bond_site_symmetry_2
Ge0 N1 1.796982 1_555
Ge0 N0 1.994435 1_456
Ge0 N0 1.994437 1_556
Ge0 N0 1.994437 1_446
N0 Zn0 2.115169 1_555
N1 Zn0 1.985472 1_455
N1 Zn0 1.985474 1_555
N1 Zn0 1.985474 1_445
