# generated using pymatgen
data_Mg2Ga
_symmetry_space_group_name_H-M   'P 1'
_cell_length_a   11.95745012
_cell_length_b   11.95745012
_cell_length_c   13.76951289
_cell_angle_alpha   75.39609114
_cell_angle_beta   75.39609114
_cell_angle_gamma   31.62123962
_symmetry_Int_Tables_number   1
_chemical_formula_structural   Mg2Ga
_chemical_formula_sum   'Mg32 Ga16'
_cell_volume   996.15919611
_cell_formula_units_Z   16
loop_
 _symmetry_equiv_pos_site_id
 _symmetry_equiv_pos_as_xyz
  1  'x, y, z'
loop_
 _atom_site_type_symbol
 _atom_site_label
 _atom_site_symmetry_multiplicity
 _atom_site_fract_x
 _atom_site_fract_y
 _atom_site_fract_z
 _atom_site_occupancy
  Mg  Mg0_0  1  0.15075500  0.15075500  0.07617150  1
  Mg  Mg0_1  1  0.15075500  0.15075500  0.57617150  1
  Mg  Mg0_2  1  0.15075500  0.65075500  0.07617150  1
  Mg  Mg0_3  1  0.15075500  0.65075500  0.57617150  1
  Mg  Mg0_4  1  0.65075500  0.15075500  0.07617150  1
  Mg  Mg0_5  1  0.65075500  0.15075500  0.57617150  1
  Mg  Mg0_6  1  0.65075500  0.65075500  0.07617150  1
  Mg  Mg0_7  1  0.65075500  0.65075500  0.57617150  1
  Mg  Mg1_0  1  0.01261400  0.01261400  0.10605950  1
  Mg  Mg1_1  1  0.01261400  0.01261400  0.60605950  1
  Mg  Mg1_2  1  0.01261400  0.51261400  0.10605950  1
  Mg  Mg1_3  1  0.01261400  0.51261400  0.60605950  1
  Mg  Mg1_4  1  0.51261400  0.01261400  0.10605950  1
  Mg  Mg1_5  1  0.51261400  0.01261400  0.60605950  1
  Mg  Mg1_6  1  0.51261400  0.51261400  0.10605950  1
  Mg  Mg1_7  1  0.51261400  0.51261400  0.60605950  1
  Mg  Mg2_0  1  0.48738600  0.48738600  0.39394050  1
  Mg  Mg2_1  1  0.48738600  0.48738600  0.89394050  1
  Mg  Mg2_2  1  0.48738600  0.98738600  0.39394050  1
  Mg  Mg2_3  1  0.48738600  0.98738600  0.89394050  1
  Mg  Mg2_4  1  0.98738600  0.48738600  0.39394050  1
  Mg  Mg2_5  1  0.98738600  0.48738600  0.89394050  1
  Mg  Mg2_6  1  0.98738600  0.98738600  0.39394050  1
  Mg  Mg2_7  1  0.98738600  0.98738600  0.89394050  1
  Mg  Mg3_0  1  0.34924500  0.34924500  0.42382850  1
  Mg  Mg3_1  1  0.34924500  0.34924500  0.92382850  1
  Mg  Mg3_2  1  0.34924500  0.84924500  0.42382850  1
  Mg  Mg3_3  1  0.34924500  0.84924500  0.92382850  1
  Mg  Mg3_4  1  0.84924500  0.34924500  0.42382850  1
  Mg  Mg3_5  1  0.84924500  0.34924500  0.92382850  1
  Mg  Mg3_6  1  0.84924500  0.84924500  0.42382850  1
  Mg  Mg3_7  1  0.84924500  0.84924500  0.92382850  1
  Ga  Ga0_0  1  0.32012300  0.32012300  0.23614250  1
  Ga  Ga0_1  1  0.32012300  0.32012300  0.73614250  1
  Ga  Ga0_2  1  0.32012300  0.82012300  0.23614250  1
  Ga  Ga0_3  1  0.32012300  0.82012300  0.73614250  1
  Ga  Ga0_4  1  0.82012300  0.32012300  0.23614250  1
  Ga  Ga0_5  1  0.82012300  0.32012300  0.73614250  1
  Ga  Ga0_6  1  0.82012300  0.82012300  0.23614250  1
  Ga  Ga0_7  1  0.82012300  0.82012300  0.73614250  1
  Ga  Ga1_0  1  0.17987700  0.17987700  0.26385750  1
  Ga  Ga1_1  1  0.17987700  0.17987700  0.76385750  1
  Ga  Ga1_2  1  0.17987700  0.67987700  0.26385750  1
  Ga  Ga1_3  1  0.17987700  0.67987700  0.76385750  1
  Ga  Ga1_4  1  0.67987700  0.17987700  0.26385750  1
  Ga  Ga1_5  1  0.67987700  0.17987700  0.76385750  1
  Ga  Ga1_6  1  0.67987700  0.67987700  0.26385750  1
  Ga  Ga1_7  1  0.67987700  0.67987700  0.76385750  1
loop_
_geom_bond_atom_site_label_1
_geom_bond_atom_site_label_2
_geom_bond_distance
_geom_bond_site_symmetry_2
Mg0_0 Mg1_0 3.096376 1_555
Mg0_0 Mg3_5 3.124368 1_454
Mg0_0 Mg3_3 3.124368 1_544
Mg0_0 Mg1_4 3.162742 1_555
Mg0_0 Mg1_2 3.162742 1_555
Mg0_0 Mg2_3 3.209653 1_544
Mg0_0 Mg2_5 3.209653 1_454
Mg0_0 Mg0_6 3.257910 1_545
Mg0_0 Mg0_6 3.257910 1_455
Mg0_1 Mg1_1 3.096376 1_555
Mg0_1 Mg3_4 3.124368 1_455
Mg0_1 Mg3_2 3.124368 1_545
Mg0_1 Mg1_3 3.162742 1_555
Mg0_1 Mg1_5 3.162742 1_555
Mg0_1 Mg2_4 3.209653 1_455
Mg0_1 Mg2_2 3.209653 1_545
Mg0_1 Mg0_7 3.257910 1_455
Mg0_1 Mg0_7 3.257910 1_545
Mg0_2 Mg1_2 3.096376 1_555
Mg0_2 Mg3_1 3.124368 1_554
Mg0_2 Mg3_7 3.124368 1_454
Mg0_2 Mg1_6 3.162742 1_555
Mg0_2 Mg1_0 3.162742 1_565
Mg0_2 Mg2_7 3.209653 1_454
Mg0_2 Mg2_1 3.209653 1_554
Mg0_2 Mg0_4 3.257910 1_555
Mg0_2 Mg0_4 3.257910 1_465
Mg0_3 Mg1_3 3.096376 1_555
Mg0_3 Mg3_6 3.124368 1_455
Mg0_3 Mg3_0 3.124368 1_555
Mg0_3 Mg1_1 3.162742 1_565
Mg0_3 Mg1_7 3.162742 1_555
Mg0_3 Mg2_6 3.209653 1_455
Mg0_3 Mg2_0 3.209653 1_555
Mg0_3 Mg0_5 3.257910 1_465
Mg0_3 Mg0_5 3.257910 1_555
Mg0_4 Mg1_4 3.096376 1_555
Mg0_4 Mg3_1 3.124368 1_554
Mg0_4 Mg3_7 3.124368 1_544
Mg0_4 Mg1_6 3.162742 1_555
Mg0_4 Mg1_0 3.162742 1_655
Mg0_4 Mg2_7 3.209653 1_544
Mg0_4 Mg2_1 3.209653 1_554
Mg0_5 Mg1_5 3.096376 1_555
Mg0_5 Mg3_6 3.124368 1_545
Mg0_5 Mg3_0 3.124368 1_555
Mg0_5 Mg1_1 3.162742 1_655
Mg0_5 Mg1_7 3.162742 1_555
Mg0_5 Mg2_0 3.209653 1_555
Mg0_5 Mg2_6 3.209653 1_545
Mg0_6 Mg1_6 3.096376 1_555
Mg0_6 Mg3_5 3.124368 1_554
Mg0_6 Mg3_3 3.124368 1_554
Mg0_6 Mg1_4 3.162742 1_565
Mg0_6 Mg1_2 3.162742 1_655
Mg0_6 Mg2_5 3.209653 1_554
Mg0_6 Mg2_3 3.209653 1_554
Mg0_7 Mg1_7 3.096376 1_555
Mg0_7 Mg3_2 3.124368 1_555
Mg0_7 Mg3_4 3.124368 1_555
Mg0_7 Mg1_3 3.162742 1_655
Mg0_7 Mg1_5 3.162742 1_565
Mg0_7 Mg2_2 3.209653 1_555
Mg0_7 Mg2_4 3.209653 1_555
Mg1_0 Mg2_7 3.123543 1_444
Mg1_0 Mg3_3 3.209653 1_544
Mg1_0 Mg3_5 3.209653 1_454
Mg1_0 Mg1_6 3.257910 1_455
Mg1_0 Mg1_6 3.257910 1_545
Mg1_1 Mg2_6 3.123543 1_445
Mg1_1 Mg3_4 3.209653 1_455
Mg1_1 Mg3_2 3.209653 1_545
Mg1_1 Mg1_7 3.257910 1_545
Mg1_1 Mg1_7 3.257910 1_455
Mg1_2 Mg2_5 3.123543 1_454
Mg1_2 Mg3_7 3.209653 1_454
Mg1_2 Mg3_1 3.209653 1_554
Mg1_2 Mg1_4 3.257910 1_465
Mg1_2 Mg1_4 3.257910 1_555
Mg1_3 Mg2_4 3.123543 1_455
Mg1_3 Mg3_0 3.209653 1_555
Mg1_3 Mg3_6 3.209653 1_455
Mg1_3 Mg1_5 3.257910 1_465
Mg1_3 Mg1_5 3.257910 1_555
Mg1_4 Mg2_3 3.123543 1_544
Mg1_4 Mg3_7 3.209653 1_544
Mg1_4 Mg3_1 3.209653 1_554
Mg1_5 Mg2_2 3.123543 1_545
Mg1_5 Mg3_0 3.209653 1_555
Mg1_5 Mg3_6 3.209653 1_545
Mg1_6 Mg2_1 3.123543 1_554
Mg1_6 Mg3_3 3.209653 1_554
Mg1_6 Mg3_5 3.209653 1_554
Mg1_7 Mg2_0 3.123543 1_555
Mg1_7 Mg3_4 3.209653 1_555
Mg1_7 Mg3_2 3.209653 1_555
Mg2_0 Mg3_0 3.096376 1_555
Mg2_0 Mg3_2 3.162742 1_555
Mg2_0 Mg3_4 3.162742 1_555
Mg2_0 Mg2_6 3.257910 1_545
Mg2_0 Mg2_6 3.257910 1_455
Mg2_1 Mg3_1 3.096376 1_555
Mg2_1 Mg3_5 3.162742 1_555
Mg2_1 Mg3_3 3.162742 1_555
Mg2_1 Mg2_7 3.257910 1_545
Mg2_1 Mg2_7 3.257910 1_455
Mg2_2 Mg3_2 3.096376 1_555
Mg2_2 Mg3_0 3.162742 1_565
Mg2_2 Mg3_6 3.162742 1_555
Mg2_2 Mg2_4 3.257910 1_555
Mg2_2 Mg2_4 3.257910 1_465
Mg2_3 Mg3_3 3.096376 1_555
Mg2_3 Mg3_7 3.162742 1_555
Mg2_3 Mg3_1 3.162742 1_565
Mg2_3 Mg2_5 3.257910 1_555
Mg2_3 Mg2_5 3.257910 1_465
Mg2_4 Mg3_4 3.096376 1_555
Mg2_4 Mg3_0 3.162742 1_655
Mg2_4 Mg3_6 3.162742 1_555
Mg2_5 Mg3_5 3.096376 1_555
Mg2_5 Mg3_7 3.162742 1_555
Mg2_5 Mg3_1 3.162742 1_655
Mg2_6 Mg3_6 3.096376 1_555
Mg2_6 Mg3_4 3.162742 1_565
Mg2_6 Mg3_2 3.162742 1_655
Mg2_7 Mg3_7 3.096376 1_555
Mg2_7 Mg3_3 3.162742 1_655
Mg2_7 Mg3_5 3.162742 1_565
Mg3_0 Mg3_6 3.257910 1_545
Mg3_0 Mg3_6 3.257910 1_455
Mg3_1 Mg3_7 3.257910 1_455
Mg3_1 Mg3_7 3.257910 1_545
Mg3_2 Mg3_4 3.257910 1_465
Mg3_2 Mg3_4 3.257910 1_555
Mg3_3 Mg3_5 3.257910 1_555
Mg3_3 Mg3_5 3.257910 1_465
Ga0_0 Mg3_0 2.834695 1_555
Ga0_0 Mg0_2 2.967476 1_555
Ga0_0 Mg0_4 2.967476 1_555
Ga0_0 Mg2_4 2.971702 1_455
Ga0_0 Mg2_2 2.971702 1_545
Ga0_0 Mg1_2 2.975762 1_555
Ga0_0 Mg1_4 2.975762 1_555
Ga0_1 Mg3_1 2.834695 1_555
Ga0_1 Mg0_5 2.967476 1_555
Ga0_1 Mg0_3 2.967476 1_555
Ga0_1 Mg2_3 2.971702 1_545
Ga0_1 Mg2_5 2.971702 1_455
Ga0_1 Mg1_5 2.975762 1_555
Ga0_1 Mg1_3 2.975762 1_555
Ga0_2 Mg3_2 2.834695 1_555
Ga0_2 Mg0_0 2.967476 1_565
Ga0_2 Mg0_6 2.967476 1_555
Ga0_2 Mg2_6 2.971702 1_455
Ga0_2 Mg2_0 2.971702 1_555
Ga0_2 Mg1_0 2.975762 1_565
Ga0_2 Mg1_6 2.975762 1_555
Ga0_3 Mg3_3 2.834695 1_555
Ga0_3 Mg0_7 2.967476 1_555
Ga0_3 Mg0_1 2.967476 1_565
Ga0_3 Mg2_1 2.971702 1_555
Ga0_3 Mg2_7 2.971702 1_455
Ga0_3 Mg1_7 2.975762 1_555
Ga0_3 Mg1_1 2.975762 1_565
Ga0_4 Mg3_4 2.834695 1_555
Ga0_4 Mg0_0 2.967476 1_655
Ga0_4 Mg0_6 2.967476 1_555
Ga0_4 Mg2_6 2.971702 1_545
Ga0_4 Mg2_0 2.971702 1_555
Ga0_4 Mg1_0 2.975762 1_655
Ga0_4 Mg1_6 2.975762 1_555
Ga0_5 Mg3_5 2.834695 1_555
Ga0_5 Mg0_7 2.967476 1_555
Ga0_5 Mg0_1 2.967476 1_655
Ga0_5 Mg2_1 2.971702 1_555
Ga0_5 Mg2_7 2.971702 1_545
Ga0_5 Mg1_7 2.975762 1_555
Ga0_5 Mg1_1 2.975762 1_655
Ga0_6 Mg3_6 2.834695 1_555
Ga0_6 Mg0_2 2.967476 1_655
Ga0_6 Mg0_4 2.967476 1_565
Ga0_6 Mg2_4 2.971702 1_555
Ga0_6 Mg2_2 2.971702 1_555
Ga0_6 Mg1_2 2.975762 1_655
Ga0_6 Mg1_4 2.975762 1_565
Ga0_7 Mg3_7 2.834695 1_555
Ga0_7 Mg0_3 2.967476 1_655
Ga0_7 Mg0_5 2.967476 1_565
Ga0_7 Mg2_5 2.971702 1_555
Ga0_7 Mg2_3 2.971702 1_555
Ga0_7 Mg1_5 2.975762 1_565
Ga0_7 Mg1_3 2.975762 1_655
Ga1_0 Mg0_0 2.834695 1_555
Ga1_0 Mg3_4 2.967476 1_455
Ga1_0 Mg3_2 2.967476 1_545
Ga1_0 Mg1_4 2.971702 1_555
Ga1_0 Mg1_2 2.971702 1_555
Ga1_0 Mg2_2 2.975762 1_545
Ga1_0 Mg2_4 2.975762 1_455
Ga1_1 Mg0_1 2.834695 1_555
Ga1_1 Mg3_3 2.967476 1_545
Ga1_1 Mg3_5 2.967476 1_455
Ga1_1 Mg1_5 2.971702 1_555
Ga1_1 Mg1_3 2.971702 1_555
Ga1_1 Mg2_3 2.975762 1_545
Ga1_1 Mg2_5 2.975762 1_455
Ga1_2 Mg0_2 2.834695 1_555
Ga1_2 Mg3_6 2.967476 1_455
Ga1_2 Mg3_0 2.967476 1_555
Ga1_2 Mg1_6 2.971702 1_555
Ga1_2 Mg1_0 2.971702 1_565
Ga1_2 Mg2_0 2.975762 1_555
Ga1_2 Mg2_6 2.975762 1_455
Ga1_3 Mg0_3 2.834695 1_555
Ga1_3 Mg3_1 2.967476 1_555
Ga1_3 Mg3_7 2.967476 1_455
Ga1_3 Mg1_1 2.971702 1_565
Ga1_3 Mg1_7 2.971702 1_555
Ga1_3 Mg2_7 2.975762 1_455
Ga1_3 Mg2_1 2.975762 1_555
Ga1_4 Mg0_4 2.834695 1_555
Ga1_4 Mg3_6 2.967476 1_545
Ga1_4 Mg3_0 2.967476 1_555
Ga1_4 Mg1_6 2.971702 1_555
Ga1_4 Mg1_0 2.971702 1_655
Ga1_4 Mg2_0 2.975762 1_555
Ga1_4 Mg2_6 2.975762 1_545
Ga1_5 Mg0_5 2.834695 1_555
Ga1_5 Mg3_1 2.967476 1_555
Ga1_5 Mg3_7 2.967476 1_545
Ga1_5 Mg1_1 2.971702 1_655
Ga1_5 Mg1_7 2.971702 1_555
Ga1_5 Mg2_7 2.975762 1_545
Ga1_5 Mg2_1 2.975762 1_555
Ga1_6 Mg0_6 2.834695 1_555
Ga1_6 Mg3_4 2.967476 1_555
Ga1_6 Mg3_2 2.967476 1_555
Ga1_6 Mg1_4 2.971702 1_565
Ga1_6 Mg1_2 2.971702 1_655
Ga1_6 Mg2_2 2.975762 1_555
Ga1_6 Mg2_4 2.975762 1_555
Ga1_7 Mg0_7 2.834695 1_555
Ga1_7 Mg3_5 2.967476 1_555
Ga1_7 Mg3_3 2.967476 1_555
Ga1_7 Mg1_5 2.971702 1_565
Ga1_7 Mg1_3 2.971702 1_655
Ga1_7 Mg2_5 2.975762 1_555
Ga1_7 Mg2_3 2.975762 1_555
