# generated using pymatgen
data_K3YF6
_symmetry_space_group_name_H-M   'P 1'
_cell_length_a   6.28233632
_cell_length_b   6.56705088
_cell_length_c   8.92143049
_cell_angle_alpha   90.00000000
_cell_angle_beta   91.46343653
_cell_angle_gamma   90.00000000
_symmetry_Int_Tables_number   1
_chemical_formula_structural   K3YF6
_chemical_formula_sum   'K6 Y2 F12'
_cell_volume   367.94624980
_cell_formula_units_Z   2
loop_
 _symmetry_equiv_pos_site_id
 _symmetry_equiv_pos_as_xyz
  1  'x, y, z'
loop_
 _atom_site_type_symbol
 _atom_site_label
 _atom_site_symmetry_multiplicity
 _atom_site_fract_x
 _atom_site_fract_y
 _atom_site_fract_z
 _atom_site_occupancy
  K  K0  1  0.51944626  0.94368248  0.24314991  1
  K  K1  1  0.98055374  0.44368248  0.25685009  1
  K  K2  1  0.48055374  0.05631752  0.75685009  1
  K  K3  1  0.01944626  0.55631752  0.74314991  1
  K  K4  1  0.00000000  0.00000000  0.50000000  1
  K  K5  1  0.50000000  0.50000000  -0.00000000  1
  Y  Y0  1  0.50000000  0.50000000  0.50000000  1
  Y  Y1  1  0.00000000  0.00000000  -0.00000000  1
  F  F0  1  0.87969115  0.93663672  0.77412446  1
  F  F1  1  0.62030885  0.43663672  0.72587554  1
  F  F2  1  0.12030885  0.06336328  0.22587554  1
  F  F3  1  0.37969115  0.56336328  0.27412446  1
  F  F4  1  0.82852728  0.73181329  0.07649972  1
  F  F5  1  0.67147272  0.23181329  0.42350028  1
  F  F6  1  0.17147272  0.26818671  0.92350028  1
  F  F7  1  0.32852728  0.76818671  0.57649972  1
  F  F8  1  0.21943209  0.32244714  0.54988323  1
  F  F9  1  0.28056791  0.82244714  0.95011677  1
  F  F10  1  0.78056791  0.67755286  0.45011677  1
  F  F11  1  0.71943209  0.17755286  0.04988323  1
loop_
_geom_bond_atom_site_label_1
_geom_bond_atom_site_label_2
_geom_bond_distance
_geom_bond_site_symmetry_2
F0 Y1 2.174253 1_666
F0 K4 2.611455 1_665
F0 K2 2.628567 1_565
F0 K3 2.664114 1_655
F1 Y0 2.174253 1_555
F1 K5 2.611455 1_556
F1 K3 2.628567 1_655
F1 K2 2.664114 1_555
F2 Y1 2.174253 1_555
F2 K4 2.611455 1_555
F2 K0 2.628567 1_545
F2 K1 2.664114 1_455
F3 Y0 2.174253 1_555
F3 K5 2.611455 1_555
F3 K1 2.628567 1_455
F3 K0 2.664114 1_555
F4 Y1 2.183030 1_665
F4 K5 2.640282 1_555
F4 K1 2.646284 1_555
F4 K0 2.839749 1_555
F5 Y0 2.183030 1_555
F5 K4 2.640282 1_655
F5 K0 2.646284 1_545
F5 K1 2.839749 1_555
F6 Y1 2.183030 1_556
F6 K5 2.640282 1_556
F6 K3 2.646284 1_555
F6 K2 2.839749 1_555
F7 Y0 2.183030 1_555
F7 K4 2.640282 1_565
F7 K2 2.646284 1_565
F7 K3 2.839749 1_555
F8 Y0 2.168988 1_555
F8 K4 2.559497 1_555
F8 K3 2.649689 1_555
F8 K2 3.000021 1_555
F8 K1 3.085458 1_455
F9 Y1 2.168988 1_566
F9 K5 2.559497 1_556
F9 K2 2.649689 1_565
F9 K3 3.000021 1_555
F9 K0 3.085458 1_556
F10 Y0 2.168988 1_555
F10 K4 2.559497 1_665
F10 K1 2.649689 1_555
F10 K0 3.000021 1_555
F10 K3 3.085458 1_655
F11 Y1 2.168988 1_655
F11 K5 2.559497 1_555
F11 K0 2.649689 1_545
F11 K1 3.000021 1_555
F11 K2 3.085458 1_554
