# generated using pymatgen
data_Mn3V17Si12
_symmetry_space_group_name_H-M   'P 1'
_cell_length_a   6.98216110
_cell_length_b   6.98216110
_cell_length_c   13.19255000
_cell_angle_alpha   90.00000000
_cell_angle_beta   90.00000000
_cell_angle_gamma   140.50754987
_symmetry_Int_Tables_number   1
_chemical_formula_structural   Mn3V17Si12
_chemical_formula_sum   'Mn3 V17 Si12'
_cell_volume   409.02473659
_cell_formula_units_Z   1
loop_
 _symmetry_equiv_pos_site_id
 _symmetry_equiv_pos_as_xyz
  1  'x, y, z'
loop_
 _atom_site_type_symbol
 _atom_site_label
 _atom_site_symmetry_multiplicity
 _atom_site_fract_x
 _atom_site_fract_y
 _atom_site_fract_z
 _atom_site_occupancy
  Mn  Mn0  1  0.50303700  0.50303700  0.00000000  1
  Mn  Mn1  1  0.49906500  0.49906500  0.50000000  1
  Mn  Mn2  1  0.99834100  0.99834100  0.00000000  1
  V  V0  1  0.07013200  0.42242200  0.40124300  1
  V  V1  1  0.57412300  0.92921100  0.90345600  1
  V  V2  1  0.42242200  0.07013200  0.59875700  1
  V  V3  1  0.92921100  0.57412300  0.09654400  1
  V  V4  1  0.85147800  0.65381500  0.67764300  1
  V  V5  1  0.34709600  0.15228300  0.17619600  1
  V  V6  1  0.65381500  0.85147800  0.32235700  1
  V  V7  1  0.15228300  0.34709600  0.82380400  1
  V  V8  1  0.65381500  0.85147800  0.67764300  1
  V  V9  1  0.15228300  0.34709600  0.17619600  1
  V  V10  1  0.85147800  0.65381500  0.32235700  1
  V  V11  1  0.34709600  0.15228300  0.82380400  1
  V  V12  1  0.42242200  0.07013200  0.40124300  1
  V  V13  1  0.92921100  0.57412300  0.90345600  1
  V  V14  1  0.07013200  0.42242200  0.59875700  1
  V  V15  1  0.57412300  0.92921100  0.09654400  1
  V  V16  1  0.99886300  0.99886300  0.50000000  1
  Si  Si0  1  0.25061800  0.74948100  0.75107600  1
  Si  Si1  1  0.74948100  0.25061800  0.24892400  1
  Si  Si2  1  0.74948100  0.25061800  0.75107600  1
  Si  Si3  1  0.25061800  0.74948100  0.24892400  1
  Si  Si4  1  0.25646900  0.25646900  0.66356200  1
  Si  Si5  1  0.75091600  0.75091600  0.16064600  1
  Si  Si6  1  0.25646900  0.25646900  0.33643800  1
  Si  Si7  1  0.75091600  0.75091600  0.83935400  1
  Si  Si8  1  0.57904100  0.90432100  0.50000000  1
  Si  Si9  1  0.09185300  0.40939100  0.00000000  1
  Si  Si10  1  0.90432100  0.57904100  0.50000000  1
  Si  Si11  1  0.40939100  0.09185300  0.00000000  1
loop_
_geom_bond_atom_site_label_1
_geom_bond_atom_site_label_2
_geom_bond_distance
_geom_bond_site_symmetry_2
Mn0 Si11 2.402629 1_555
Mn0 Si9 2.402629 1_555
Mn0 Si5 2.420583 1_555
Mn0 Si7 2.420583 1_554
Mn1 V16 2.358003 1_555
Mn1 V16 2.359909 1_445
Mn1 Si8 2.424784 1_555
Mn1 Si10 2.424784 1_555
Mn1 Si4 2.442557 1_555
Mn1 Si6 2.442557 1_555
Mn2 Si11 2.402316 1_665
Mn2 Si9 2.402316 1_665
Mn2 Si5 2.419549 1_555
Mn2 Si7 2.419549 1_554
Si0 Si2 2.359003 1_455
Si0 Si2 2.359003 1_565
Si0 V8 2.505319 1_555
Si0 V4 2.505633 1_455
Si0 V7 2.511601 1_555
Si0 V13 2.517066 1_455
Si0 V1 2.518564 1_555
Si0 V2 2.518789 1_565
Si0 V11 2.521917 1_565
Si0 V14 2.529675 1_555
Si1 Si3 2.359003 1_655
Si1 Si3 2.359003 1_545
Si1 V10 2.505319 1_555
Si1 V6 2.505633 1_545
Si1 V5 2.511601 1_555
Si1 V15 2.517066 1_545
Si1 V3 2.518564 1_555
Si1 V0 2.518789 1_655
Si1 V9 2.521917 1_655
Si1 V12 2.529675 1_555
Si2 V4 2.505319 1_555
Si2 V8 2.505633 1_545
Si2 V11 2.511601 1_555
Si2 V1 2.517066 1_545
Si2 V13 2.518564 1_555
Si2 V14 2.518789 1_655
Si2 V7 2.521917 1_655
Si2 V2 2.529675 1_555
Si3 V6 2.505319 1_555
Si3 V10 2.505633 1_455
Si3 V9 2.511601 1_555
Si3 V3 2.517066 1_455
Si3 V15 2.518564 1_555
Si3 V12 2.518789 1_565
Si3 V5 2.521917 1_565
Si3 V0 2.529675 1_555
Si4 V14 2.468393 1_555
Si4 V2 2.468393 1_555
Si4 V11 2.471643 1_555
Si4 V7 2.471643 1_555
Si4 V16 2.476531 1_445
Si4 V8 2.683603 1_555
Si4 V4 2.683603 1_555
Si4 V8 2.715123 1_445
Si4 V4 2.715123 1_445
Si5 V3 2.482009 1_555
Si5 V15 2.482009 1_555
Si5 V10 2.497735 1_555
Si5 V6 2.497735 1_555
Si5 V5 2.686724 1_665
Si5 V9 2.686724 1_665
Si5 V5 2.696866 1_555
Si5 V9 2.696866 1_555
Si6 V12 2.468393 1_555
Si6 V0 2.468393 1_555
Si6 V5 2.471643 1_555
Si6 V9 2.471643 1_555
Si6 V16 2.476531 1_445
Si6 V6 2.683603 1_555
Si6 V10 2.683603 1_555
Si6 V6 2.715123 1_445
Si6 V10 2.715123 1_445
Si7 V1 2.482009 1_555
Si7 V13 2.482009 1_555
Si7 V8 2.497735 1_555
Si7 V4 2.497735 1_555
Si7 V7 2.686724 1_665
Si7 V11 2.686724 1_665
Si7 V11 2.696866 1_555
Si7 V7 2.696866 1_555
Si8 V16 2.457971 1_555
Si8 V2 2.487481 1_565
Si8 V12 2.487481 1_565
Si8 V6 2.489638 1_555
Si8 V8 2.489638 1_555
Si8 V14 2.681750 1_555
Si8 V0 2.681750 1_555
Si8 V14 2.719630 1_665
Si8 V0 2.719630 1_665
Si9 V9 2.460415 1_555
Si9 V7 2.460415 1_554
Si9 V3 2.500126 1_455
Si9 V13 2.500126 1_454
Si9 V15 2.687851 1_445
Si9 V1 2.687851 1_444
Si9 V15 2.696491 1_555
Si9 V1 2.696491 1_554
Si10 V16 2.457971 1_555
Si10 V14 2.487481 1_655
Si10 V0 2.487481 1_655
Si10 V10 2.489638 1_555
Si10 V4 2.489638 1_555
Si10 V2 2.681750 1_555
Si10 V12 2.681750 1_555
Si10 V2 2.719630 1_665
Si10 V12 2.719630 1_665
Si11 V5 2.460415 1_555
Si11 V11 2.460415 1_554
Si11 V15 2.500126 1_545
Si11 V1 2.500126 1_544
Si11 V3 2.687851 1_445
Si11 V13 2.687851 1_444
Si11 V3 2.696491 1_555
Si11 V13 2.696491 1_554
