# generated using pymatgen
data_TbB2Ir3
_symmetry_space_group_name_H-M   'P 1'
_cell_length_a   6.30289085
_cell_length_b   10.87776064
_cell_length_c   10.87776918
_cell_angle_alpha   60.00006607
_cell_angle_beta   89.99977252
_cell_angle_gamma   89.99957715
_symmetry_Int_Tables_number   1
_chemical_formula_structural   TbB2Ir3
_chemical_formula_sum   'Tb8 B16 Ir24'
_cell_volume   645.87733508
_cell_formula_units_Z   8
loop_
 _symmetry_equiv_pos_site_id
 _symmetry_equiv_pos_as_xyz
  1  'x, y, z'
loop_
 _atom_site_type_symbol
 _atom_site_label
 _atom_site_symmetry_multiplicity
 _atom_site_fract_x
 _atom_site_fract_y
 _atom_site_fract_z
 _atom_site_occupancy
  Tb  Tb0_0  1  0.25000000  0.25000000  0.00000000  1
  Tb  Tb0_1  1  0.25000000  0.25000000  0.50000000  1
  Tb  Tb0_2  1  0.25000000  0.75000000  0.00000000  1
  Tb  Tb0_3  1  0.25000000  0.75000000  0.50000000  1
  Tb  Tb0_4  1  0.75000000  0.25000000  0.00000000  1
  Tb  Tb0_5  1  0.75000000  0.25000000  0.50000000  1
  Tb  Tb0_6  1  0.75000000  0.75000000  0.00000000  1
  Tb  Tb0_7  1  0.75000000  0.75000000  0.50000000  1
  B  B0_0  1  0.25000000  0.08333396  0.33333157  1
  B  B0_1  1  0.25000000  0.08333396  0.83333157  1
  B  B0_2  1  0.25000000  0.58333396  0.33333157  1
  B  B0_3  1  0.25000000  0.58333396  0.83333157  1
  B  B0_4  1  0.75000000  0.08333396  0.33333157  1
  B  B0_5  1  0.75000000  0.08333396  0.83333157  1
  B  B0_6  1  0.75000000  0.58333396  0.33333157  1
  B  B0_7  1  0.75000000  0.58333396  0.83333157  1
  B  B1_0  1  0.25000000  0.41666603  0.16666843  1
  B  B1_1  1  0.25000000  0.41666603  0.66666843  1
  B  B1_2  1  0.25000000  0.91666603  0.16666842  1
  B  B1_3  1  0.25000000  0.91666603  0.66666842  1
  B  B1_4  1  0.75000000  0.41666603  0.16666843  1
  B  B1_5  1  0.75000000  0.41666603  0.66666842  1
  B  B1_6  1  0.75000000  0.91666603  0.16666843  1
  B  B1_7  1  0.75000000  0.91666603  0.66666843  1
  Ir  Ir0_0  1  0.00000000  0.00000000  0.25000000  1
  Ir  Ir0_1  1  0.00000000  1.00000000  0.75000000  1
  Ir  Ir0_2  1  0.00000000  0.50000000  0.25000000  1
  Ir  Ir0_3  1  0.00000000  0.50000000  0.75000000  1
  Ir  Ir0_4  1  0.50000000  0.00000000  0.25000000  1
  Ir  Ir0_5  1  0.50000000  1.00000000  0.75000000  1
  Ir  Ir0_6  1  0.50000000  0.50000000  0.25000000  1
  Ir  Ir0_7  1  0.50000000  0.50000000  0.75000000  1
  Ir  Ir1_0  1  0.00000000  0.25000000  0.25000000  1
  Ir  Ir1_1  1  0.00000000  0.25000000  0.75000000  1
  Ir  Ir1_2  1  0.00000000  0.75000000  0.25000000  1
  Ir  Ir1_3  1  0.00000000  0.75000000  0.75000000  1
  Ir  Ir1_4  1  0.50000000  0.25000000  0.25000000  1
  Ir  Ir1_5  1  0.50000000  0.25000000  0.75000000  1
  Ir  Ir1_6  1  0.50000000  0.75000000  0.25000000  1
  Ir  Ir1_7  1  0.50000000  0.75000000  0.75000000  1
  Ir  Ir2_0  1  0.00000000  0.00000000  0.00000000  1
  Ir  Ir2_1  1  0.00000000  1.00000000  0.50000000  1
  Ir  Ir2_2  1  0.00000000  0.50000000  0.00000000  1
  Ir  Ir2_3  1  0.00000000  0.50000000  0.50000000  1
  Ir  Ir2_4  1  0.50000000  0.00000000  0.00000000  1
  Ir  Ir2_5  1  0.50000000  1.00000000  0.50000000  1
  Ir  Ir2_6  1  0.50000000  0.50000000  0.00000000  1
  Ir  Ir2_7  1  0.50000000  0.50000000  0.50000000  1
loop_
_geom_bond_atom_site_label_1
_geom_bond_atom_site_label_2
_geom_bond_distance
_geom_bond_site_symmetry_2
Tb0_0 Tb0_4 3.151445 1_555
Tb0_0 Tb0_4 3.151445 1_455
Tb0_1 Tb0_5 3.151445 1_455
Tb0_1 Tb0_5 3.151445 1_555
Tb0_2 Tb0_6 3.151445 1_555
Tb0_2 Tb0_6 3.151445 1_455
Tb0_3 Tb0_7 3.151445 1_555
Tb0_3 Tb0_7 3.151445 1_455
B0_0 Ir0_4 2.224400 1_555
B0_0 Ir1_0 2.224404 1_555
B0_0 Ir0_0 2.224414 1_555
B0_0 Ir1_4 2.224418 1_555
B0_0 Ir2_1 2.224428 1_545
B0_0 Ir2_5 2.224428 1_545
B0_0 Tb0_0 3.140127 1_555
B0_0 Tb0_3 3.140147 1_545
B0_0 Tb0_1 3.140150 1_555
B0_1 Ir0_5 2.224400 1_545
B0_1 Ir1_1 2.224404 1_555
B0_1 Ir0_1 2.224414 1_545
B0_1 Ir1_5 2.224418 1_555
B0_1 Ir2_0 2.224428 1_556
B0_1 Ir2_4 2.224428 1_556
B0_1 Tb0_1 3.140127 1_555
B0_1 Tb0_2 3.140147 1_546
B0_1 Tb0_0 3.140150 1_556
B0_2 Ir0_6 2.224400 1_555
B0_2 Ir1_2 2.224404 1_555
B0_2 Ir0_2 2.224414 1_555
B0_2 Ir1_6 2.224418 1_555
B0_2 Ir2_3 2.224428 1_555
B0_2 Ir2_7 2.224428 1_555
B0_2 Tb0_2 3.140127 1_555
B0_2 Tb0_1 3.140147 1_555
B0_2 Tb0_3 3.140150 1_555
B0_3 Ir0_7 2.224400 1_555
B0_3 Ir1_3 2.224404 1_555
B0_3 Ir0_3 2.224414 1_555
B0_3 Ir1_7 2.224418 1_555
B0_3 Ir2_2 2.224428 1_556
B0_3 Ir2_6 2.224428 1_556
B0_3 Tb0_3 3.140127 1_555
B0_3 Tb0_0 3.140147 1_556
B0_3 Tb0_2 3.140150 1_556
B0_4 Ir0_0 2.224400 1_655
B0_4 Ir1_4 2.224404 1_555
B0_4 Ir0_4 2.224414 1_555
B0_4 Ir1_0 2.224418 1_655
B0_4 Ir2_5 2.224428 1_545
B0_4 Ir2_1 2.224428 1_645
B0_4 Tb0_4 3.140127 1_555
B0_4 Tb0_7 3.140147 1_545
B0_4 Tb0_5 3.140150 1_555
B0_5 Ir0_1 2.224400 1_645
B0_5 Ir1_5 2.224404 1_555
B0_5 Ir0_5 2.224414 1_545
B0_5 Ir1_1 2.224418 1_655
B0_5 Ir2_4 2.224428 1_556
B0_5 Ir2_0 2.224428 1_656
B0_5 Tb0_5 3.140127 1_555
B0_5 Tb0_6 3.140147 1_546
B0_5 Tb0_4 3.140150 1_556
B0_6 Ir0_2 2.224400 1_655
B0_6 Ir1_6 2.224404 1_555
B0_6 Ir0_6 2.224414 1_555
B0_6 Ir1_2 2.224418 1_655
B0_6 Ir2_7 2.224428 1_555
B0_6 Ir2_3 2.224428 1_655
B0_6 Tb0_6 3.140127 1_555
B0_6 Tb0_5 3.140147 1_555
B0_6 Tb0_7 3.140150 1_555
B0_7 Ir0_3 2.224400 1_655
B0_7 Ir1_7 2.224404 1_555
B0_7 Ir0_7 2.224414 1_555
B0_7 Ir1_3 2.224418 1_655
B0_7 Ir2_6 2.224428 1_556
B0_7 Ir2_2 2.224428 1_656
B0_7 Tb0_7 3.140127 1_555
B0_7 Tb0_4 3.140147 1_556
B0_7 Tb0_6 3.140150 1_556
B1_0 Ir0_2 2.224400 1_555
B1_0 Ir1_4 2.224404 1_555
B1_0 Ir0_6 2.224414 1_555
B1_0 Ir1_0 2.224418 1_555
B1_0 Ir2_6 2.224428 1_555
B1_0 Ir2_2 2.224428 1_555
B1_0 Tb0_1 3.140127 1_555
B1_0 Tb0_2 3.140147 1_555
B1_0 Tb0_0 3.140150 1_555
B1_1 Ir0_3 2.224400 1_555
B1_1 Ir1_5 2.224404 1_555
B1_1 Ir0_7 2.224414 1_555
B1_1 Ir1_1 2.224418 1_555
B1_1 Ir2_7 2.224428 1_555
B1_1 Ir2_3 2.224428 1_555
B1_1 Tb0_0 3.140127 1_556
B1_1 Tb0_3 3.140147 1_555
B1_1 Tb0_1 3.140150 1_555
B1_2 Ir0_0 2.224400 1_565
B1_2 Ir1_6 2.224404 1_555
B1_2 Ir0_4 2.224414 1_565
B1_2 Ir1_2 2.224418 1_555
B1_2 Ir2_4 2.224428 1_565
B1_2 Ir2_0 2.224428 1_565
B1_2 Tb0_3 3.140127 1_555
B1_2 Tb0_0 3.140147 1_565
B1_2 Tb0_2 3.140150 1_555
B1_3 Ir0_1 2.224400 1_555
B1_3 Ir1_7 2.224404 1_555
B1_3 Ir0_5 2.224414 1_555
B1_3 Ir1_3 2.224418 1_555
B1_3 Ir2_5 2.224428 1_555
B1_3 Ir2_1 2.224428 1_555
B1_3 Tb0_2 3.140127 1_556
B1_3 Tb0_1 3.140147 1_565
B1_3 Tb0_3 3.140150 1_555
B1_4 Ir0_6 2.224400 1_555
B1_4 Ir1_0 2.224404 1_655
B1_4 Ir0_2 2.224414 1_655
B1_4 Ir1_4 2.224418 1_555
B1_4 Ir2_2 2.224428 1_655
B1_4 Ir2_6 2.224428 1_555
B1_4 Tb0_5 3.140127 1_555
B1_4 Tb0_6 3.140147 1_555
B1_4 Tb0_4 3.140150 1_555
B1_5 Ir0_7 2.224400 1_555
B1_5 Ir1_1 2.224404 1_655
B1_5 Ir0_3 2.224414 1_655
B1_5 Ir1_5 2.224418 1_555
B1_5 Ir2_3 2.224428 1_655
B1_5 Ir2_7 2.224428 1_555
B1_5 Tb0_4 3.140127 1_556
B1_5 Tb0_7 3.140147 1_555
B1_5 Tb0_5 3.140150 1_555
B1_6 Ir0_4 2.224400 1_565
B1_6 Ir1_2 2.224404 1_655
B1_6 Ir0_0 2.224414 1_665
B1_6 Ir1_6 2.224418 1_555
B1_6 Ir2_0 2.224428 1_665
B1_6 Ir2_4 2.224428 1_565
B1_6 Tb0_7 3.140127 1_555
B1_6 Tb0_4 3.140147 1_565
B1_6 Tb0_6 3.140150 1_555
B1_7 Ir0_5 2.224400 1_555
B1_7 Ir1_3 2.224404 1_655
B1_7 Ir0_1 2.224414 1_655
B1_7 Ir1_7 2.224418 1_555
B1_7 Ir2_1 2.224428 1_655
B1_7 Ir2_5 2.224428 1_555
B1_7 Tb0_6 3.140127 1_556
B1_7 Tb0_5 3.140147 1_565
B1_7 Tb0_7 3.140150 1_555
Ir0_0 Tb0_4 3.142968 1_455
Ir0_0 Tb0_3 3.142968 1_545
Ir0_0 Tb0_0 3.142977 1_555
Ir0_0 Tb0_7 3.142977 1_445
Ir0_1 Tb0_5 3.142968 1_465
Ir0_1 Tb0_2 3.142968 1_556
Ir0_1 Tb0_1 3.142977 1_565
Ir0_1 Tb0_6 3.142977 1_456
Ir0_2 Tb0_1 3.142968 1_555
Ir0_2 Tb0_6 3.142968 1_455
Ir0_2 Tb0_5 3.142977 1_455
Ir0_2 Tb0_2 3.142977 1_555
Ir0_3 Tb0_0 3.142968 1_556
Ir0_3 Tb0_7 3.142968 1_455
Ir0_3 Tb0_4 3.142977 1_456
Ir0_3 Tb0_3 3.142977 1_555
Ir0_4 Tb0_0 3.142968 1_555
Ir0_4 Tb0_7 3.142968 1_545
Ir0_4 Tb0_4 3.142977 1_555
Ir0_4 Tb0_3 3.142977 1_545
Ir0_5 Tb0_6 3.142968 1_556
Ir0_5 Tb0_1 3.142968 1_565
Ir0_5 Tb0_2 3.142977 1_556
Ir0_5 Tb0_5 3.142977 1_565
Ir0_6 Tb0_2 3.142968 1_555
Ir0_6 Tb0_5 3.142968 1_555
Ir0_6 Tb0_6 3.142977 1_555
Ir0_6 Tb0_1 3.142977 1_555
Ir0_7 Tb0_3 3.142968 1_555
Ir0_7 Tb0_4 3.142968 1_556
Ir0_7 Tb0_0 3.142977 1_556
Ir0_7 Tb0_7 3.142977 1_555
Ir1_0 Tb0_0 3.142966 1_555
Ir1_0 Tb0_5 3.142966 1_455
Ir1_0 Tb0_4 3.142977 1_455
Ir1_0 Tb0_1 3.142977 1_555
Ir1_1 Tb0_1 3.142966 1_555
Ir1_1 Tb0_4 3.142966 1_456
Ir1_1 Tb0_5 3.142977 1_455
Ir1_1 Tb0_0 3.142977 1_556
Ir1_2 Tb0_7 3.142966 1_455
Ir1_2 Tb0_2 3.142966 1_555
Ir1_2 Tb0_3 3.142977 1_555
Ir1_2 Tb0_6 3.142977 1_455
Ir1_3 Tb0_3 3.142966 1_555
Ir1_3 Tb0_6 3.142966 1_456
Ir1_3 Tb0_7 3.142977 1_455
Ir1_3 Tb0_2 3.142977 1_556
Ir1_4 Tb0_4 3.142966 1_555
Ir1_4 Tb0_1 3.142966 1_555
Ir1_4 Tb0_0 3.142977 1_555
Ir1_4 Tb0_5 3.142977 1_555
Ir1_5 Tb0_5 3.142966 1_555
Ir1_5 Tb0_0 3.142966 1_556
Ir1_5 Tb0_1 3.142977 1_555
Ir1_5 Tb0_4 3.142977 1_556
Ir1_6 Tb0_3 3.142966 1_555
Ir1_6 Tb0_6 3.142966 1_555
Ir1_6 Tb0_7 3.142977 1_555
Ir1_6 Tb0_2 3.142977 1_555
Ir1_7 Tb0_2 3.142966 1_556
Ir1_7 Tb0_7 3.142966 1_555
Ir1_7 Tb0_6 3.142977 1_556
Ir1_7 Tb0_3 3.142977 1_555
Ir2_0 Tb0_4 3.142959 1_455
Ir2_0 Tb0_2 3.142959 1_545
Ir2_0 Tb0_0 3.142979 1_555
Ir2_0 Tb0_6 3.142979 1_445
Ir2_1 Tb0_3 3.142959 1_555
Ir2_1 Tb0_5 3.142959 1_465
Ir2_1 Tb0_7 3.142979 1_455
Ir2_1 Tb0_1 3.142979 1_565
Ir2_2 Tb0_0 3.142959 1_555
Ir2_2 Tb0_6 3.142959 1_455
Ir2_2 Tb0_2 3.142979 1_555
Ir2_2 Tb0_4 3.142979 1_455
Ir2_3 Tb0_1 3.142959 1_555
Ir2_3 Tb0_7 3.142959 1_455
Ir2_3 Tb0_3 3.142979 1_555
Ir2_3 Tb0_5 3.142979 1_455
Ir2_4 Tb0_0 3.142959 1_555
Ir2_4 Tb0_6 3.142959 1_545
Ir2_4 Tb0_4 3.142979 1_555
Ir2_4 Tb0_2 3.142979 1_545
Ir2_5 Tb0_1 3.142959 1_565
Ir2_5 Tb0_7 3.142959 1_555
Ir2_5 Tb0_3 3.142979 1_555
Ir2_5 Tb0_5 3.142979 1_565
Ir2_6 Tb0_2 3.142959 1_555
Ir2_6 Tb0_4 3.142959 1_555
Ir2_6 Tb0_6 3.142979 1_555
Ir2_6 Tb0_0 3.142979 1_555
Ir2_7 Tb0_3 3.142959 1_555
Ir2_7 Tb0_5 3.142959 1_555
Ir2_7 Tb0_1 3.142979 1_555
Ir2_7 Tb0_7 3.142979 1_555
