# generated using pymatgen
data_SrPIr
_symmetry_space_group_name_H-M   'P 1'
_cell_length_a   6.34851992
_cell_length_b   6.34851992
_cell_length_c   6.34851992
_cell_angle_alpha   90.00000000
_cell_angle_beta   90.00000000
_cell_angle_gamma   90.00000000
_symmetry_Int_Tables_number   1
_chemical_formula_structural   SrPIr
_chemical_formula_sum   'Sr4 P4 Ir4'
_cell_volume   255.86887515
_cell_formula_units_Z   4
loop_
 _symmetry_equiv_pos_site_id
 _symmetry_equiv_pos_as_xyz
  1  'x, y, z'
loop_
 _atom_site_type_symbol
 _atom_site_label
 _atom_site_symmetry_multiplicity
 _atom_site_fract_x
 _atom_site_fract_y
 _atom_site_fract_z
 _atom_site_occupancy
  Sr  Sr0  1  0.62100960  0.37899040  0.87899040  1
  Sr  Sr1  1  0.37899040  0.87899040  0.62100960  1
  Sr  Sr2  1  0.12100960  0.12100960  0.12100960  1
  Sr  Sr3  1  0.87899040  0.62100960  0.37899040  1
  P  P0  1  0.16008386  0.33991614  0.66008386  1
  P  P1  1  0.66008386  0.16008386  0.33991614  1
  P  P2  1  0.33991614  0.66008386  0.16008386  1
  P  P3  1  0.83991614  0.83991614  0.83991614  1
  Ir  Ir0  1  0.59168287  0.90831713  0.09168287  1
  Ir  Ir1  1  0.09168287  0.59168287  0.90831713  1
  Ir  Ir2  1  0.40831713  0.40831713  0.40831713  1
  Ir  Ir3  1  0.90831713  0.09168287  0.59168287  1
loop_
_geom_bond_atom_site_label_1
_geom_bond_atom_site_label_2
_geom_bond_distance
_geom_bond_site_symmetry_2
P0 Sr3 3.090892 1_455
P0 Sr0 3.248925 1_555
P0 Sr2 3.248925 1_556
P0 Sr1 3.248925 1_545
P1 Sr1 3.090892 1_545
P1 Sr3 3.248925 1_555
P1 Sr2 3.248925 1_655
P1 Sr0 3.248925 1_554
P2 Sr0 3.090892 1_554
P2 Sr1 3.248925 1_555
P2 Sr2 3.248925 1_565
P2 Sr3 3.248925 1_455
P3 Sr2 3.090892 1_666
P3 Sr3 3.248925 1_555
P3 Sr0 3.248925 1_555
P3 Sr1 3.248925 1_555
Ir0 P2 2.286216 1_555
Ir0 P3 2.286216 1_554
Ir0 P1 2.286216 1_565
Ir0 Sr3 3.159222 1_555
Ir0 Sr0 3.284287 1_564
Ir0 Sr2 3.284287 1_565
Ir0 Sr1 3.284287 1_554
Ir1 P3 2.286216 1_455
Ir1 P0 2.286216 1_555
Ir1 P2 2.286216 1_556
Ir1 Sr1 3.159222 1_555
Ir1 Sr3 3.284287 1_456
Ir1 Sr2 3.284287 1_556
Ir1 Sr0 3.284287 1_455
Ir2 P2 2.286216 1_555
Ir2 P1 2.286216 1_555
Ir2 P0 2.286216 1_555
Ir2 Sr2 3.159222 1_555
Ir2 Sr3 3.284287 1_555
Ir2 Sr0 3.284287 1_555
Ir2 Sr1 3.284287 1_555
Ir3 P3 2.286216 1_545
Ir3 P1 2.286216 1_555
Ir3 P0 2.286216 1_655
Ir3 Sr0 3.159222 1_555
Ir3 Sr1 3.284287 1_645
Ir3 Sr2 3.284287 1_655
Ir3 Sr3 3.284287 1_545
