# generated using pymatgen
data_BaEuDyMnO6
_symmetry_space_group_name_H-M   'P 1'
_cell_length_a   5.82378153
_cell_length_b   5.82378153
_cell_length_c   5.82378153
_cell_angle_alpha   60.00000000
_cell_angle_beta   60.00000000
_cell_angle_gamma   60.00000000
_symmetry_Int_Tables_number   1
_chemical_formula_structural   BaEuDyMnO6
_chemical_formula_sum   'Ba1 Eu1 Dy1 Mn1 O6'
_cell_volume   139.66906498
_cell_formula_units_Z   1
loop_
 _symmetry_equiv_pos_site_id
 _symmetry_equiv_pos_as_xyz
  1  'x, y, z'
loop_
 _atom_site_type_symbol
 _atom_site_label
 _atom_site_symmetry_multiplicity
 _atom_site_fract_x
 _atom_site_fract_y
 _atom_site_fract_z
 _atom_site_occupancy
  Ba  Ba0  1  0.75000000  0.75000000  0.75000000  1
  Eu  Eu0  1  0.25000000  0.25000000  0.25000000  1
  Dy  Dy0  1  -0.00000000  0.00000000  0.00000000  1
  Mn  Mn0  1  0.50000000  0.50000000  0.50000000  1
  O  O0  1  0.73292118  0.26707882  0.26707882  1
  O  O1  1  0.26707882  0.73292118  0.73292118  1
  O  O2  1  0.73292118  0.26707882  0.73292118  1
  O  O3  1  0.26707882  0.73292118  0.26707882  1
  O  O4  1  0.73292118  0.73292118  0.26707882  1
  O  O5  1  0.26707882  0.26707882  0.73292118  1
loop_
_geom_bond_atom_site_label_1
_geom_bond_atom_site_label_2
_geom_bond_distance
_geom_bond_site_symmetry_2
Ba0 O3 2.915286 1_655
Ba0 O1 2.915286 1_655
Ba0 O5 2.915286 1_655
Ba0 O5 2.915286 1_565
Ba0 O0 2.915286 1_556
Ba0 O2 2.915286 1_555
Ba0 O3 2.915286 1_556
Ba0 O2 2.915286 1_565
Ba0 O1 2.915286 1_555
Ba0 O4 2.915286 1_556
Ba0 O0 2.915286 1_565
Ba0 O4 2.915286 1_555
Eu0 O5 2.915286 1_555
Eu0 O3 2.915286 1_555
Eu0 O0 2.915286 1_555
Eu0 O4 2.915286 1_455
Eu0 O2 2.915286 1_455
Eu0 O4 2.915286 1_545
Eu0 O3 2.915286 1_545
Eu0 O2 2.915286 1_554
Eu0 O1 2.915286 1_545
Eu0 O0 2.915286 1_455
Eu0 O1 2.915286 1_554
Eu0 O5 2.915286 1_554
Dy0 O3 2.199680 1_545
Dy0 O5 2.199680 1_554
Dy0 O0 2.199680 1_455
Dy0 O4 2.199680 1_445
Dy0 O2 2.199680 1_454
Dy0 O1 2.199680 1_544
Mn0 O2 1.918355 1_555
Mn0 O4 1.918355 1_555
Mn0 O1 1.918355 1_555
Mn0 O5 1.918355 1_555
Mn0 O3 1.918355 1_555
Mn0 O0 1.918355 1_555
