# generated using pymatgen
data_Cd3H16C8(N10F)2
_symmetry_space_group_name_H-M   'P 1'
_cell_length_a   8.18876900
_cell_length_b   9.37416132
_cell_length_c   13.31053477
_cell_angle_alpha   105.76339500
_cell_angle_beta   90.00000000
_cell_angle_gamma   90.00000000
_symmetry_Int_Tables_number   1
_chemical_formula_structural   Cd3H16C8(N10F)2
_chemical_formula_sum   'Cd6 H32 C16 N40 F4'
_cell_volume   983.32807613
_cell_formula_units_Z   2
loop_
 _symmetry_equiv_pos_site_id
 _symmetry_equiv_pos_as_xyz
  1  'x, y, z'
loop_
 _atom_site_type_symbol
 _atom_site_label
 _atom_site_symmetry_multiplicity
 _atom_site_fract_x
 _atom_site_fract_y
 _atom_site_fract_z
 _atom_site_occupancy
  Cd  Cd0  1  0.80815100  0.65602900  0.51351500  1
  Cd  Cd1  1  0.19184900  0.34397100  0.48648500  1
  Cd  Cd2  1  0.30815100  0.34397100  0.98648500  1
  Cd  Cd3  1  0.69184900  0.65602900  0.01351500  1
  Cd  Cd4  1  0.00000000  0.00000000  0.00000000  1
  Cd  Cd5  1  0.50000000  0.00000000  0.50000000  1
  H  H0  1  0.40387400  0.97180800  0.27646300  1
  H  H1  1  0.59612600  0.02819200  0.72353700  1
  H  H2  1  0.90387400  0.02819200  0.22353700  1
  H  H3  1  0.09612600  0.97180800  0.77646300  1
  H  H4  1  0.34920000  0.96196100  0.89798800  1
  H  H5  1  0.65080000  0.03803900  0.10201200  1
  H  H6  1  0.84920000  0.03803900  0.60201200  1
  H  H7  1  0.15080000  0.96196100  0.39798800  1
  H  H8  1  0.97744700  0.40322400  0.86477700  1
  H  H9  1  0.02255300  0.59677700  0.13522300  1
  H  H10  1  0.47744700  0.59677700  0.63522300  1
  H  H11  1  0.52255300  0.40322400  0.36477700  1
  H  H12  1  0.69244400  0.43559300  0.66778000  1
  H  H13  1  0.30755600  0.56440700  0.33222000  1
  H  H14  1  0.19244400  0.56440700  0.83222000  1
  H  H15  1  0.80755600  0.43559300  0.16778000  1
  H  H16  1  0.52159300  0.84337800  0.87456300  1
  H  H17  1  0.47840700  0.15662200  0.12543700  1
  H  H18  1  0.02159300  0.15662200  0.62543700  1
  H  H19  1  0.97840700  0.84337800  0.37456300  1
  H  H20  1  0.54595200  0.75988300  0.61465800  1
  H  H21  1  0.45404800  0.24011700  0.38534200  1
  H  H22  1  0.04595200  0.24011700  0.88534200  1
  H  H23  1  0.95404800  0.75988300  0.11465800  1
  H  H24  1  0.62175900  0.47159200  0.79109600  1
  H  H25  1  0.37824100  0.52840800  0.20890400  1
  H  H26  1  0.12175900  0.52840800  0.70890400  1
  H  H27  1  0.87824100  0.47159200  0.29109600  1
  H  H28  1  0.56547400  0.13407900  0.84977600  1
  H  H29  1  0.43452600  0.86592100  0.15022400  1
  H  H30  1  0.06547400  0.86592100  0.65022400  1
  H  H31  1  0.93452600  0.13407900  0.34977600  1
  C  C0  1  0.34182200  0.78397600  0.96114200  1
  C  C1  1  0.65817800  0.21602400  0.03885800  1
  C  C2  1  0.84182200  0.21602400  0.53885800  1
  C  C3  1  0.15817800  0.78397600  0.46114200  1
  C  C4  1  0.76234300  0.63340000  0.76279600  1
  C  C5  1  0.23765700  0.36660000  0.23720400  1
  C  C6  1  0.26234300  0.36660000  0.73720400  1
  C  C7  1  0.73765700  0.63340000  0.26279600  1
  C  C8  1  0.92323900  0.81031600  0.75801700  1
  C  C9  1  0.07676100  0.18968400  0.24198300  1
  C  C10  1  0.42323900  0.18968400  0.74198300  1
  C  C11  1  0.57676100  0.81031600  0.25801700  1
  C  C12  1  0.83364100  0.31200000  0.95766500  1
  C  C13  1  0.16635900  0.68800000  0.04233500  1
  C  C14  1  0.33364100  0.68800000  0.54233500  1
  C  C15  1  0.66635900  0.31200000  0.45766500  1
  N  N0  1  0.41439300  0.66282500  0.97716400  1
  N  N1  1  0.58560700  0.33717500  0.02283600  1
  N  N2  1  0.91439300  0.33717500  0.52283600  1
  N  N3  1  0.08560700  0.66282500  0.47716400  1
  N  N4  1  0.84646200  0.68956100  0.69405600  1
  N  N5  1  0.15353800  0.31043900  0.30594400  1
  N  N6  1  0.34646200  0.31043900  0.80594400  1
  N  N7  1  0.65353800  0.68956100  0.19405600  1
  N  N8  1  0.97869400  0.33534800  0.91319400  1
  N  N9  1  0.02130600  0.66465200  0.08680600  1
  N  N10  1  0.47869400  0.66465200  0.58680600  1
  N  N11  1  0.52130600  0.33534800  0.41319400  1
  N  N12  1  0.81172300  0.19413700  0.99754100  1
  N  N13  1  0.18827700  0.80586300  0.00245900  1
  N  N14  1  0.31172300  0.80586300  0.50245900  1
  N  N15  1  0.68827700  0.19413700  0.49754100  1
  N  N16  1  0.88955400  0.82732500  0.85855100  1
  N  N17  1  0.11044600  0.17267500  0.14144900  1
  N  N18  1  0.38955400  0.17267500  0.64144900  1
  N  N19  1  0.61044600  0.82732500  0.35855100  1
  N  N20  1  0.41137300  0.87190600  0.90834500  1
  N  N21  1  0.58862700  0.12809400  0.09165500  1
  N  N22  1  0.91137300  0.12809400  0.59165500  1
  N  N23  1  0.08862700  0.87190600  0.40834500  1
  N  N24  1  0.70296700  0.40115200  0.96983600  1
  N  N25  1  0.29703300  0.59884800  0.03016400  1
  N  N26  1  0.20296700  0.59884800  0.53016400  1
  N  N27  1  0.79703300  0.40115200  0.46983600  1
  N  N28  1  0.48211900  0.90694600  0.22267200  1
  N  N29  1  0.51788100  0.09305400  0.77732800  1
  N  N30  1  0.98211900  0.09305400  0.27732800  1
  N  N31  1  0.01788100  0.90694600  0.72267200  1
  N  N32  1  0.65506600  0.51546200  0.73196600  1
  N  N33  1  0.34493400  0.48453800  0.26803400  1
  N  N34  1  0.15506600  0.48453800  0.76803400  1
  N  N35  1  0.84493400  0.51546200  0.23196600  1
  N  N36  1  0.78442100  0.71083100  0.86224400  1
  N  N37  1  0.21557900  0.28916900  0.13775600  1
  N  N38  1  0.28442100  0.28916900  0.63775600  1
  N  N39  1  0.71557900  0.71083100  0.36224400  1
  F  F0  1  0.69013000  0.90157600  0.59907400  1
  F  F1  1  0.30987000  0.09842400  0.40092600  1
  F  F2  1  0.19013000  0.09842400  0.90092600  1
  F  F3  1  0.80987000  0.90157600  0.09907400  1
loop_
_geom_bond_atom_site_label_1
_geom_bond_atom_site_label_2
_geom_bond_distance
_geom_bond_site_symmetry_2
Cd0 N27 2.302199 1_555
Cd0 N3 2.327447 1_655
Cd0 N39 2.335538 1_555
Cd0 N4 2.358322 1_555
Cd0 F0 2.470823 1_555
Cd1 N26 2.302199 1_555
Cd1 N2 2.327447 1_455
Cd1 N38 2.335538 1_555
Cd1 N5 2.358322 1_555
Cd1 F1 2.470823 1_555
Cd2 N25 2.302199 1_556
Cd2 N1 2.327447 1_556
Cd2 N37 2.335538 1_556
Cd2 N6 2.358322 1_555
Cd2 F2 2.470823 1_555
Cd3 N24 2.302199 1_554
Cd3 N0 2.327447 1_554
Cd3 N36 2.335538 1_554
Cd3 N7 2.358322 1_555
Cd3 F3 2.470823 1_555
Cd4 N17 2.308039 1_555
Cd4 N16 2.308039 1_444
Cd4 F3 2.382315 1_445
Cd4 F2 2.382315 1_554
Cd4 N13 2.392150 1_545
Cd4 N12 2.392150 1_454
Cd5 N19 2.308039 1_545
Cd5 N18 2.308039 1_555
Cd5 F1 2.382315 1_555
Cd5 F0 2.382315 1_545
Cd5 N15 2.392150 1_555
Cd5 N14 2.392150 1_545
H0 N28 1.027782 1_555
H1 N29 1.027782 1_555
H2 N30 1.027782 1_555
H3 N31 1.027782 1_555
H4 N20 1.026692 1_555
H5 N21 1.026692 1_555
H6 N22 1.026692 1_555
H7 N23 1.026692 1_555
H8 N8 1.021311 1_555
H9 N9 1.021304 1_555
H10 N10 1.021304 1_555
H11 N11 1.021311 1_555
H12 N32 1.018142 1_555
H13 N33 1.018142 1_555
H14 N34 1.018142 1_555
H15 N35 1.018142 1_555
H16 N20 1.011434 1_555
H17 N21 1.011434 1_555
H18 N22 1.011434 1_455
H19 N23 1.011434 1_655
H20 N10 1.028538 1_555
H21 N11 1.028538 1_555
H22 N8 1.028538 1_455
H23 N9 1.028538 1_655
H24 N32 1.019226 1_555
H25 N33 1.019226 1_555
H26 N34 1.019226 1_555
H27 N35 1.019226 1_555
H28 N29 1.014005 1_555
H29 N28 1.014005 1_555
H30 N31 1.014005 1_555
H31 N30 1.014005 1_555
C0 N20 1.346250 1_555
C0 N0 1.349080 1_555
C0 N13 1.365339 1_556
C1 N21 1.346250 1_555
C1 N1 1.349080 1_555
C1 N12 1.365339 1_554
C2 N22 1.346250 1_555
C2 N2 1.349080 1_555
C2 N15 1.365339 1_555
C3 N23 1.346250 1_555
C3 N3 1.349080 1_555
C3 N14 1.365339 1_555
C4 N36 1.337798 1_555
C4 N4 1.360343 1_555
C4 N32 1.384155 1_555
C5 N37 1.337798 1_555
C5 N5 1.360343 1_555
C5 N33 1.384155 1_555
C6 N38 1.337798 1_555
C6 N6 1.360343 1_555
C6 N34 1.384155 1_555
C7 N39 1.337798 1_555
C7 N7 1.360343 1_555
C7 N35 1.384155 1_555
C8 N16 1.332763 1_555
C8 N31 1.368950 1_655
C8 N4 1.370342 1_555
C9 N17 1.332763 1_555
C9 N30 1.368950 1_455
C9 N5 1.370342 1_555
C10 N18 1.332763 1_555
C10 N29 1.368950 1_555
C10 N6 1.370342 1_555
C11 N19 1.332763 1_555
C11 N28 1.368950 1_555
C11 N7 1.370342 1_555
C12 N24 1.340204 1_555
C12 N12 1.361355 1_555
C12 N8 1.370971 1_555
C13 N25 1.340204 1_555
C13 N13 1.361355 1_555
C13 N9 1.370971 1_555
C14 N26 1.340204 1_555
C14 N14 1.361355 1_555
C14 N10 1.370971 1_555
C15 N27 1.340204 1_555
C15 N15 1.361355 1_555
C15 N11 1.370971 1_555
N0 N25 1.418030 1_556
N1 N24 1.418030 1_554
N2 N27 1.418030 1_555
N16 N36 1.401886 1_555
N17 N37 1.401886 1_555
N18 N38 1.401886 1_555
N19 N39 1.401886 1_555
N26 N3 1.418030 1_555
