# generated using pymatgen
data_YbV8O16
_symmetry_space_group_name_H-M   'P 1'
_cell_length_a   3.72973200
_cell_length_b   9.44851259
_cell_length_c   8.54943195
_cell_angle_alpha   84.53412502
_cell_angle_beta   90.00000000
_cell_angle_gamma   90.00000000
_symmetry_Int_Tables_number   1
_chemical_formula_structural   YbV8O16
_chemical_formula_sum   'Yb1 V8 O16'
_cell_volume   299.91565749
_cell_formula_units_Z   1
loop_
 _symmetry_equiv_pos_site_id
 _symmetry_equiv_pos_as_xyz
  1  'x, y, z'
loop_
 _atom_site_type_symbol
 _atom_site_label
 _atom_site_symmetry_multiplicity
 _atom_site_fract_x
 _atom_site_fract_y
 _atom_site_fract_z
 _atom_site_occupancy
  Yb  Yb0  1  0.75000000  0.72886900  0.74165600  1
  V  V0  1  0.25000000  0.21155200  0.09367100  1
  V  V1  1  0.25000000  0.04417300  0.69829000  1
  V  V2  1  0.25000000  0.65724200  0.44869700  1
  V  V3  1  0.25000000  0.42502200  0.73887600  1
  V  V4  1  0.75000000  0.48623200  0.06710400  1
  V  V5  1  0.75000000  0.33906200  0.47868000  1
  V  V6  1  0.75000000  0.96078300  0.42230300  1
  V  V7  1  0.75000000  0.99458600  0.01309200  1
  O  O0  1  0.25000000  0.03932700  0.97421300  1
  O  O1  1  0.25000000  0.23780200  0.73370800  1
  O  O2  1  0.25000000  0.67212400  0.25795300  1
  O  O3  1  0.25000000  0.90452000  0.52359600  1
  O  O4  1  0.25000000  0.15542400  0.28641900  1
  O  O5  1  0.25000000  0.45704300  0.48674700  1
  O  O6  1  0.25000000  0.62520100  0.70718300  1
  O  O7  1  0.25000000  0.41718100  0.99146800  1
  O  O8  1  0.75000000  0.95473300  0.79419400  1
  O  O9  1  0.75000000  0.12888800  0.54010600  1
  O  O10  1  0.75000000  0.19800000  0.03238300  1
  O  O11  1  0.75000000  0.40541700  0.26287800  1
  O  O12  1  0.75000000  0.42898600  0.68936200  1
  O  O13  1  0.75000000  0.71013600  0.47285400  1
  O  O14  1  0.75000000  0.65803900  0.99656700  1
  O  O15  1  0.75000000  0.91888900  0.20559100  1
loop_
_geom_bond_atom_site_label_1
_geom_bond_atom_site_label_2
_geom_bond_distance
_geom_bond_site_symmetry_2
O0 V7 1.933946 1_546
O0 V7 1.933946 1_446
O0 V0 2.001915 1_556
O0 V1 2.355065 1_555
O1 V3 1.773705 1_555
O1 V1 1.882636 1_555
O2 V2 1.623405 1_555
O3 V1 2.084993 1_565
O3 V6 2.102992 1_555
O3 V6 2.102992 1_455
O3 V2 2.480699 1_555
O4 V0 1.682346 1_555
O5 V2 1.888566 1_555
O5 V3 2.147960 1_555
O5 V5 2.177105 1_455
O5 V5 2.177105 1_555
O6 V3 1.884982 1_555
O6 Yb0 2.139865 1_555
O6 Yb0 2.139865 1_455
O6 V2 2.201793 1_555
O7 V0 2.053020 1_556
O7 V4 2.098073 1_456
O7 V4 2.098073 1_556
O7 V3 2.153724 1_555
O8 V7 1.943805 1_556
O8 V1 2.175351 1_665
O8 V1 2.175351 1_565
O8 Yb0 2.222309 1_555
O9 V6 1.960084 1_545
O9 V5 2.005154 1_555
O9 V1 2.396067 1_655
O9 V1 2.396067 1_555
O10 V0 1.944596 1_555
O10 V0 1.944596 1_655
O10 V7 1.944612 1_545
O11 V4 1.772298 1_555
O11 V5 1.891211 1_555
O12 V3 1.911885 1_555
O12 V3 1.911885 1_655
O12 V5 2.063447 1_555
O13 V2 1.946744 1_555
O13 V2 1.946744 1_655
O13 Yb0 2.321660 1_555
O13 V6 2.366509 1_555
O14 V4 1.677005 1_556
O14 Yb0 2.218010 1_555
O15 V7 1.730844 1_555
O15 V6 1.931098 1_555
