# generated using pymatgen
data_CaPtPb
_symmetry_space_group_name_H-M   'P 1'
_cell_length_a   4.77254400
_cell_length_b   7.36206400
_cell_length_c   8.33334500
_cell_angle_alpha   90.00000000
_cell_angle_beta   90.00000000
_cell_angle_gamma   90.00000000
_symmetry_Int_Tables_number   1
_chemical_formula_structural   CaPtPb
_chemical_formula_sum   'Ca4 Pt4 Pb4'
_cell_volume   292.79852967
_cell_formula_units_Z   4
loop_
 _symmetry_equiv_pos_site_id
 _symmetry_equiv_pos_as_xyz
  1  'x, y, z'
loop_
 _atom_site_type_symbol
 _atom_site_label
 _atom_site_symmetry_multiplicity
 _atom_site_fract_x
 _atom_site_fract_y
 _atom_site_fract_z
 _atom_site_occupancy
  Ca  Ca0  1  0.75000000  0.51973900  0.19246800  1
  Ca  Ca1  1  0.75000000  0.01973900  0.30753200  1
  Ca  Ca2  1  0.25000000  0.48026100  0.80753200  1
  Ca  Ca3  1  0.25000000  0.98026100  0.69246800  1
  Pt  Pt0  1  0.75000000  0.27322000  0.59864500  1
  Pt  Pt1  1  0.75000000  0.77322000  0.90135500  1
  Pt  Pt2  1  0.25000000  0.72678000  0.40135500  1
  Pt  Pt3  1  0.25000000  0.22678000  0.09864500  1
  Pb  Pb0  1  0.75000000  0.17119400  0.92337900  1
  Pb  Pb1  1  0.75000000  0.67119400  0.57662100  1
  Pb  Pb2  1  0.25000000  0.82880600  0.07662100  1
  Pb  Pb3  1  0.25000000  0.32880600  0.42337900  1
loop_
_geom_bond_atom_site_label_1
_geom_bond_atom_site_label_2
_geom_bond_distance
_geom_bond_site_symmetry_2
Ca0 Pt1 3.060670 1_554
Ca0 Pt3 3.310183 1_655
Ca0 Pt3 3.310183 1_555
Ca0 Pt2 3.323817 1_655
Ca0 Pt2 3.323817 1_555
Ca0 Pb3 3.372382 1_555
Ca0 Pb3 3.372382 1_655
Ca0 Pb1 3.389906 1_555
Ca0 Pb0 3.407759 1_554
Ca0 Pb2 3.435635 1_655
Ca0 Pb2 3.435635 1_555
Ca1 Pt0 3.060670 1_555
Ca1 Pt2 3.310183 1_645
Ca1 Pt2 3.310183 1_545
Ca1 Pt3 3.323817 1_555
Ca1 Pt3 3.323817 1_655
Ca1 Pb2 3.372382 1_545
Ca1 Pb2 3.372382 1_645
Ca1 Pb0 3.389906 1_554
Ca1 Pb1 3.407759 1_545
Ca1 Pb3 3.435635 1_655
Ca1 Pb3 3.435635 1_555
Ca2 Pt3 3.060670 1_556
Ca2 Pt1 3.310183 1_455
Ca2 Pt1 3.310183 1_555
Ca2 Pt0 3.323817 1_455
Ca2 Pt0 3.323817 1_555
Ca2 Pb1 3.372382 1_555
Ca2 Pb1 3.372382 1_455
Ca2 Pb3 3.389906 1_555
Ca2 Pb2 3.407759 1_556
Ca2 Pb0 3.435635 1_555
Ca2 Pb0 3.435635 1_455
Ca3 Pt2 3.060670 1_555
Ca3 Pt0 3.310183 1_565
Ca3 Pt0 3.310183 1_465
Ca3 Pt1 3.323817 1_555
Ca3 Pt1 3.323817 1_455
Ca3 Pb0 3.372382 1_565
Ca3 Pb0 3.372382 1_465
Ca3 Pb2 3.389906 1_556
Ca3 Pb3 3.407759 1_565
Ca3 Pb1 3.435635 1_555
Ca3 Pb1 3.435635 1_455
Pb0 Pt0 2.808429 1_555
Pb0 Pt3 2.827538 1_556
Pb0 Pt3 2.827538 1_656
Pb0 Pt1 2.935653 1_545
Pb1 Pt1 2.808429 1_555
Pb1 Pt2 2.827538 1_655
Pb1 Pt2 2.827538 1_555
Pb1 Pt0 2.935653 1_555
Pb2 Pt2 2.808429 1_555
Pb2 Pt1 2.827538 1_554
Pb2 Pt1 2.827538 1_454
Pb2 Pt3 2.935653 1_565
Pb3 Pt3 2.808429 1_555
Pb3 Pt0 2.827538 1_455
Pb3 Pt0 2.827538 1_555
Pb3 Pt2 2.935653 1_555
