# generated using pymatgen
data_CsLuS2
_symmetry_space_group_name_H-M   'P 1'
_cell_length_a   3.98919881
_cell_length_b   3.98919881
_cell_length_c   16.05657571
_cell_angle_alpha   90.00000000
_cell_angle_beta   90.00000000
_cell_angle_gamma   119.99956693
_symmetry_Int_Tables_number   1
_chemical_formula_structural   CsLuS2
_chemical_formula_sum   'Cs2 Lu2 S4'
_cell_volume   221.28746792
_cell_formula_units_Z   2
loop_
 _symmetry_equiv_pos_site_id
 _symmetry_equiv_pos_as_xyz
  1  'x, y, z'
loop_
 _atom_site_type_symbol
 _atom_site_label
 _atom_site_symmetry_multiplicity
 _atom_site_fract_x
 _atom_site_fract_y
 _atom_site_fract_z
 _atom_site_occupancy
  Cs  Cs0  1  0.66667819  0.33332181  0.75000000  1
  Cs  Cs1  1  0.33332181  0.66667819  0.25000000  1
  Lu  Lu0  1  0.00000000  0.00000000  0.50000000  1
  Lu  Lu1  1  0.00000000  0.00000000  0.00000000  1
  S  S0  1  0.66666500  0.33333500  0.08911804  1
  S  S1  1  0.33333500  0.66666500  0.91088196  1
  S  S2  1  0.33333500  0.66666500  0.58911804  1
  S  S3  1  0.66666500  0.33333500  0.41088196  1
loop_
_geom_bond_atom_site_label_1
_geom_bond_atom_site_label_2
_geom_bond_distance
_geom_bond_site_symmetry_2
Cs0 S2 3.460845 1_655
Cs0 S1 3.460845 1_655
Cs0 S1 3.460845 1_545
Cs0 S2 3.460845 1_545
Cs0 S1 3.460903 1_555
Cs0 S2 3.460903 1_555
Cs1 S0 3.460845 1_565
Cs1 S3 3.460845 1_455
Cs1 S0 3.460845 1_455
Cs1 S3 3.460845 1_565
Cs1 S3 3.460903 1_555
Cs1 S0 3.460903 1_555
Lu0 S2 2.711485 1_555
Lu0 S3 2.711485 1_555
Lu0 S2 2.711485 1_445
Lu0 S3 2.711485 1_445
Lu0 S3 2.711487 1_455
Lu0 S2 2.711487 1_545
Lu1 S0 2.711485 1_445
Lu1 S1 2.711485 1_554
Lu1 S0 2.711485 1_555
Lu1 S1 2.711485 1_444
Lu1 S1 2.711487 1_544
Lu1 S0 2.711487 1_455
