# generated using pymatgen
data_Dy2GaCu3
_symmetry_space_group_name_H-M   'P 1'
_cell_length_a   5.34295347
_cell_length_b   5.34295347
_cell_length_c   6.88717401
_cell_angle_alpha   52.56446598
_cell_angle_beta   52.56446598
_cell_angle_gamma   47.21263971
_symmetry_Int_Tables_number   1
_chemical_formula_structural   Dy2GaCu3
_chemical_formula_sum   'Dy2 Ga1 Cu3'
_cell_volume   107.96770519
_cell_formula_units_Z   1
loop_
 _symmetry_equiv_pos_site_id
 _symmetry_equiv_pos_as_xyz
  1  'x, y, z'
loop_
 _atom_site_type_symbol
 _atom_site_label
 _atom_site_symmetry_multiplicity
 _atom_site_fract_x
 _atom_site_fract_y
 _atom_site_fract_z
 _atom_site_occupancy
  Dy  Dy0  1  0.45603044  0.45603044  0.79599188  1
  Dy  Dy1  1  0.54394287  0.54394287  0.20522491  1
  Ga  Ga0  1  0.83106854  0.83106854  0.61061726  1
  Cu  Cu0  1  0.16494548  0.16494548  0.38690566  1
  Cu  Cu1  1  0.16509631  0.16509631  0.78581953  1
  Cu  Cu2  1  0.83891835  0.83891835  0.21543978  1
loop_
_geom_bond_atom_site_label_1
_geom_bond_atom_site_label_2
_geom_bond_distance
_geom_bond_site_symmetry_2
Dy0 Ga0 2.982461 1_555
Dy0 Ga0 3.126916 1_455
Dy0 Ga0 3.126916 1_545
Dy1 Ga0 2.999426 1_455
Dy1 Ga0 2.999426 1_545
Dy1 Ga0 3.065804 1_554
Cu0 Cu2 2.491034 1_545
Cu0 Cu2 2.491034 1_455
Cu0 Ga0 2.525620 1_445
Cu0 Cu1 2.748369 1_555
Cu0 Dy0 3.008938 1_545
Cu0 Dy0 3.008938 1_455
Cu0 Dy1 3.029288 1_555
Cu0 Dy0 3.049015 1_554
Cu0 Dy1 3.084519 1_455
Cu0 Dy1 3.084519 1_545
Cu1 Ga0 2.464383 1_455
Cu1 Ga0 2.464383 1_545
Cu1 Cu2 2.533259 1_446
Cu1 Dy0 2.895688 1_555
Cu1 Dy0 2.929695 1_545
Cu1 Dy0 2.929695 1_455
Cu1 Dy1 3.127671 1_456
Cu1 Dy1 3.127671 1_546
Cu1 Dy1 3.173305 1_555
Cu2 Ga0 2.671286 1_555
Cu2 Dy1 2.902689 1_565
Cu2 Dy1 2.902689 1_655
Cu2 Dy1 2.935452 1_555
Cu2 Dy0 3.137341 1_564
Cu2 Dy0 3.137341 1_654
Cu2 Dy0 3.186564 1_555
