# generated using pymatgen
data_MgV8(OF)8
_symmetry_space_group_name_H-M   'P 1'
_cell_length_a   4.89197986
_cell_length_b   10.43710669
_cell_length_c   5.71995701
_cell_angle_alpha   84.79877974
_cell_angle_beta   89.40803983
_cell_angle_gamma   89.75571120
_symmetry_Int_Tables_number   1
_chemical_formula_structural   MgV8(OF)8
_chemical_formula_sum   'Mg1 V8 O8 F8'
_cell_volume   290.83055467
_cell_formula_units_Z   1
loop_
 _symmetry_equiv_pos_site_id
 _symmetry_equiv_pos_as_xyz
  1  'x, y, z'
loop_
 _atom_site_type_symbol
 _atom_site_label
 _atom_site_symmetry_multiplicity
 _atom_site_fract_x
 _atom_site_fract_y
 _atom_site_fract_z
 _atom_site_occupancy
  Mg  Mg0  1  0.00007458  0.73790651  0.24393388  1
  V  V0  1  0.47415284  0.26611629  0.74884252  1
  V  V1  1  0.52428162  0.99279120  0.49269659  1
  V  V2  1  0.51091068  0.73745516  0.25138051  1
  V  V3  1  0.48521936  0.51499950  0.01292360  1
  V  V4  1  0.98135838  0.23614706  0.24912931  1
  V  V5  1  0.02696320  0.76988282  0.73936713  1
  V  V6  1  0.97993511  0.47507267  0.53204046  1
  V  V7  1  0.01063958  0.02647012  0.98182144  1
  O  O0  1  0.79449898  0.31911603  0.52521516  1
  O  O1  1  0.77993836  0.07468665  0.26536986  1
  O  O2  1  0.75057135  0.82133900  0.48907808  1
  O  O3  1  0.75298700  0.58131163  0.26951377  1
  O  O4  1  0.29749373  0.43508331  0.74122736  1
  O  O5  1  0.25473647  0.67925940  0.00185645  1
  O  O6  1  0.21771820  0.92726506  0.72393660  1
  O  O7  1  0.21744527  0.18846259  0.97997436  1
  F  F0  1  0.79406374  0.58942634  0.77523880  1
  F  F1  1  0.78316854  0.83886282  0.00144895  1
  F  F2  1  0.69365292  0.08524297  0.75771926  1
  F  F3  1  0.70003035  0.33998072  0.01702005  1
  F  F4  1  0.27022704  0.90522847  0.24018163  1
  F  F5  1  0.29385019  0.16668371  0.48219142  1
  F  F6  1  0.22626292  0.66426381  0.50074120  1
  F  F7  1  0.20759761  0.41444618  0.25096161  1
loop_
_geom_bond_atom_site_label_1
_geom_bond_atom_site_label_2
_geom_bond_distance
_geom_bond_site_symmetry_2
Mg0 O5 1.988853 1_555
Mg0 O3 2.030657 1_455
Mg0 O2 2.095524 1_455
O0 V6 1.870512 1_555
O0 V0 2.058095 1_555
O0 V4 2.071404 1_555
O1 V1 1.938956 1_545
O1 V4 1.950191 1_555
O1 V7 2.064651 1_654
O2 V5 2.015097 1_655
O2 V2 2.060860 1_555
O2 V1 2.101767 1_555
O3 V2 2.006110 1_555
O3 V6 2.106914 1_555
O3 V3 2.140236 1_555
O4 V0 1.957714 1_555
O4 V6 1.990371 1_455
O4 V3 2.055558 1_556
O5 V5 2.039263 1_554
O5 V2 2.043809 1_555
O5 V3 2.044451 1_555
O6 V5 1.887290 1_555
O6 V1 2.066415 1_555
O6 V7 2.123979 1_565
O7 V0 1.939558 1_555
O7 V7 1.973152 1_555
O7 V4 2.012230 1_456
F0 V6 2.109983 1_555
F0 V3 2.123811 1_556
F0 V5 2.197944 1_655
F1 Mg0 1.978858 1_655
F1 V5 2.083129 1_654
F1 V2 2.153187 1_555
F1 V7 2.249689 1_664
F2 V1 2.052703 1_545
F2 V7 2.077132 1_655
F2 V0 2.164678 1_555
F3 V3 2.101907 1_555
F3 V0 2.103587 1_554
F3 V4 2.143679 1_555
F4 V2 2.102451 1_555
F4 V1 2.179947 1_555
F4 Mg0 2.192965 1_555
F4 V7 2.254739 1_564
F5 V4 2.120648 1_455
F5 V0 2.122244 1_555
F5 V1 2.128969 1_545
F6 Mg0 1.947950 1_555
F6 V5 2.065171 1_555
F6 V2 2.080262 1_555
F6 V6 2.309754 1_455
F7 V6 2.089760 1_455
F7 V3 2.124769 1_555
F7 V4 2.170118 1_455
