# generated using pymatgen
data_HoMn2O4
_symmetry_space_group_name_H-M   'P 1'
_cell_length_a   6.46878885
_cell_length_b   6.46878885
_cell_length_c   6.25299522
_cell_angle_alpha   61.51218904
_cell_angle_beta   61.51218904
_cell_angle_gamma   57.25661146
_symmetry_Int_Tables_number   1
_chemical_formula_structural   HoMn2O4
_chemical_formula_sum   'Ho2 Mn4 O8'
_cell_volume   184.75148548
_cell_formula_units_Z   2
loop_
 _symmetry_equiv_pos_site_id
 _symmetry_equiv_pos_as_xyz
  1  'x, y, z'
loop_
 _atom_site_type_symbol
 _atom_site_label
 _atom_site_symmetry_multiplicity
 _atom_site_fract_x
 _atom_site_fract_y
 _atom_site_fract_z
 _atom_site_occupancy
  Ho  Ho0  1  0.12524800  0.12524800  0.61179000  1
  Ho  Ho1  1  0.87475200  0.87475200  0.38821000  1
  Mn  Mn0  1  0.50000000  0.50000000  0.50000000  1
  Mn  Mn1  1  0.50000000  0.50000000  0.00000000  1
  Mn  Mn2  1  0.50000000  0.00000000  0.00000000  1
  Mn  Mn3  1  0.00000000  0.50000000  0.00000000  1
  O  O0  1  0.73349400  0.73349400  0.79496200  1
  O  O1  1  0.75186400  0.75186400  0.22049200  1
  O  O2  1  0.72982600  0.28601600  0.26653600  1
  O  O3  1  0.28601600  0.72982600  0.26653600  1
  O  O4  1  0.26650600  0.26650600  0.20503800  1
  O  O5  1  0.24813600  0.24813600  0.77950800  1
  O  O6  1  0.27017400  0.71398400  0.73346400  1
  O  O7  1  0.71398400  0.27017400  0.73346400  1
loop_
_geom_bond_atom_site_label_1
_geom_bond_atom_site_label_2
_geom_bond_distance
_geom_bond_site_symmetry_2
Ho0 O6 2.141713 1_545
Ho0 O7 2.141713 1_455
Ho0 O4 2.146636 1_555
Ho0 O5 2.153569 1_555
Ho1 O3 2.141713 1_655
Ho1 O2 2.141713 1_565
Ho1 O0 2.146636 1_555
Ho1 O1 2.153569 1_555
Mn0 O7 1.971957 1_555
Mn0 O6 1.971957 1_555
Mn0 O2 1.971957 1_555
Mn0 O3 1.971957 1_555
Mn0 O5 2.408796 1_555
Mn0 O1 2.408796 1_555
Mn1 O6 2.200185 1_554
Mn1 O3 2.200185 1_555
Mn1 O7 2.200185 1_554
Mn1 O2 2.200185 1_555
Mn1 O4 2.231542 1_555
Mn1 O0 2.231542 1_554
Mn2 O1 2.081967 1_545
Mn2 O5 2.081967 1_554
Mn2 O0 2.083653 1_544
Mn2 O4 2.083653 1_555
Mn2 O7 2.320733 1_554
Mn2 O3 2.320733 1_545
Mn3 O1 2.081967 1_455
Mn3 O5 2.081967 1_554
Mn3 O0 2.083653 1_454
Mn3 O4 2.083653 1_555
Mn3 O6 2.320733 1_554
Mn3 O2 2.320733 1_455
