# generated using pymatgen
data_Cs4SnO4
_symmetry_space_group_name_H-M   'P 1'
_cell_length_a   7.35093645
_cell_length_b   11.74458703
_cell_length_c   11.78919169
_cell_angle_alpha   68.46324111
_cell_angle_beta   90.00000000
_cell_angle_gamma   90.00000000
_symmetry_Int_Tables_number   1
_chemical_formula_structural   Cs4SnO4
_chemical_formula_sum   'Cs16 Sn4 O16'
_cell_volume   946.74385023
_cell_formula_units_Z   4
loop_
 _symmetry_equiv_pos_site_id
 _symmetry_equiv_pos_as_xyz
  1  'x, y, z'
loop_
 _atom_site_type_symbol
 _atom_site_label
 _atom_site_symmetry_multiplicity
 _atom_site_fract_x
 _atom_site_fract_y
 _atom_site_fract_z
 _atom_site_occupancy
  Cs  Cs0  1  0.65998887  0.89067108  0.63262872  1
  Cs  Cs1  1  0.34001113  0.10932892  0.36737128  1
  Cs  Cs2  1  0.84001113  0.39067108  0.63262872  1
  Cs  Cs3  1  0.59171819  0.29936074  0.06008500  1
  Cs  Cs4  1  0.09171819  0.20063926  0.93991500  1
  Cs  Cs5  1  0.40828181  0.70063926  0.93991500  1
  Cs  Cs6  1  0.90828181  0.79936074  0.06008500  1
  Cs  Cs7  1  0.61319052  0.08656544  0.84218914  1
  Cs  Cs8  1  0.11319052  0.41343456  0.15781086  1
  Cs  Cs9  1  0.38680948  0.91343456  0.15781086  1
  Cs  Cs10  1  0.88680948  0.58656544  0.84218914  1
  Cs  Cs11  1  0.67510888  0.70402693  0.42832181  1
  Cs  Cs12  1  0.17510888  0.79597307  0.57167819  1
  Cs  Cs13  1  0.32489112  0.29597307  0.57167819  1
  Cs  Cs14  1  0.82489112  0.20402693  0.42832181  1
  Cs  Cs15  1  0.15998887  0.60932892  0.36737128  1
  Sn  Sn0  1  0.37141265  0.49349671  0.75845179  1
  Sn  Sn1  1  0.87141265  0.00650329  0.24154821  1
  Sn  Sn2  1  0.12858735  0.99349671  0.75845179  1
  Sn  Sn3  1  0.62858735  0.50650329  0.24154821  1
  O  O0  1  0.23673329  0.97268948  0.91866432  1
  O  O1  1  0.00793462  0.15892004  0.21847798  1
  O  O2  1  0.50793462  0.34107996  0.78152202  1
  O  O3  1  0.99206538  0.84107996  0.78152202  1
  O  O4  1  0.73673329  0.52731052  0.08133568  1
  O  O5  1  0.76326671  0.02731052  0.08133568  1
  O  O6  1  0.26326671  0.47268948  0.91866432  1
  O  O7  1  0.32604316  0.01665872  0.63718982  1
  O  O8  1  0.82604316  0.48334128  0.36281018  1
  O  O9  1  0.67395684  0.98334128  0.36281018  1
  O  O10  1  0.17395684  0.51665872  0.63718982  1
  O  O11  1  0.02680882  0.85790400  0.30259463  1
  O  O12  1  0.52680882  0.64209600  0.69740537  1
  O  O13  1  0.97319118  0.14209600  0.69740537  1
  O  O14  1  0.47319118  0.35790400  0.30259463  1
  O  O15  1  0.49206538  0.65892004  0.21847798  1
loop_
_geom_bond_atom_site_label_1
_geom_bond_atom_site_label_2
_geom_bond_distance
_geom_bond_site_symmetry_2
Cs0 O7 2.876951 1_565
Cs0 O12 2.903055 1_555
Cs0 O3 2.937455 1_555
Cs0 O9 2.961700 1_555
Cs1 O9 2.876951 1_545
Cs1 O14 2.903055 1_555
Cs1 O1 2.937455 1_555
Cs1 O7 2.961700 1_555
Cs2 O10 2.876951 1_655
Cs2 O13 2.903055 1_555
Cs2 O2 2.937455 1_555
Cs2 O8 2.961700 1_555
Cs3 O4 2.976376 1_555
Cs3 O2 3.197323 1_554
Cs3 O6 3.203322 1_554
Cs3 O14 3.293777 1_555
Cs3 O5 3.357688 1_555
Cs3 O1 3.647902 1_655
Cs4 O0 2.976376 1_545
Cs4 O1 3.197323 1_556
Cs4 O5 3.203322 1_456
Cs4 O13 3.293777 1_455
Cs4 O6 3.357688 1_555
Cs4 O2 3.647902 1_555
Cs5 O6 2.976376 1_555
Cs5 O15 3.197323 1_556
Cs5 O4 3.203322 1_556
Cs5 O12 3.293777 1_555
Cs5 O0 3.357688 1_555
Cs5 O3 3.647902 1_455
Cs6 O5 2.976376 1_565
Cs6 O3 3.197323 1_554
Cs6 O0 3.203322 1_654
Cs6 O11 3.293777 1_655
Cs6 O4 3.357688 1_555
Cs6 O15 3.647902 1_555
Cs7 O5 2.865229 1_556
Cs7 O2 2.911302 1_555
Cs7 O0 3.061746 1_545
Cs7 O13 3.086197 1_555
Cs7 O7 3.525222 1_555
Cs8 O6 2.865229 1_554
Cs8 O1 2.911302 1_555
Cs8 O4 3.061746 1_455
Cs8 O14 3.086197 1_555
Cs8 O8 3.525222 1_455
Cs9 O0 2.865229 1_554
Cs9 O15 2.911302 1_555
Cs9 O5 3.061746 1_565
Cs9 O11 3.086197 1_555
Cs9 O9 3.525222 1_555
Cs10 O4 2.865229 1_556
Cs10 O3 2.911302 1_555
Cs10 O6 3.061746 1_655
Cs10 O12 3.086197 1_555
Cs10 O10 3.525222 1_655
Cs11 O15 3.028774 1_555
Cs11 O9 3.081827 1_555
Cs11 O8 3.164639 1_555
Cs11 O12 3.175963 1_555
Cs11 O11 3.190649 1_655
Cs12 O3 3.028774 1_455
Cs12 O10 3.081827 1_555
Cs12 O7 3.164639 1_565
Cs12 O11 3.175963 1_555
Cs12 O12 3.190649 1_555
Cs13 O2 3.028774 1_555
Cs13 O7 3.081827 1_555
Cs13 O10 3.164639 1_555
Cs13 O14 3.175963 1_555
Cs13 O13 3.190649 1_455
Cs14 O1 3.028774 1_655
Cs14 O8 3.081827 1_555
Cs14 O9 3.164639 1_545
Cs14 O13 3.175963 1_555
Cs14 O14 3.190649 1_555
Cs15 O8 2.876951 1_455
Cs15 O11 2.903055 1_555
Cs15 O15 2.937455 1_555
Cs15 O10 2.961700 1_555
O0 Sn2 1.979974 1_555
O1 Sn1 1.981923 1_455
O2 Sn0 1.981923 1_555
O3 Sn2 1.981923 1_655
O4 Sn3 1.979974 1_555
O5 Sn1 1.979974 1_555
O6 Sn0 1.979974 1_555
O7 Sn2 1.984689 1_545
O8 Sn3 1.984689 1_555
O9 Sn1 1.984689 1_565
O10 Sn0 1.984689 1_555
O11 Sn1 1.986580 1_465
O12 Sn0 1.986580 1_555
O13 Sn2 1.986580 1_645
O14 Sn3 1.986580 1_555
O15 Sn3 1.981923 1_555
