# generated using pymatgen
data_Tm3(AgPb2)2
_symmetry_space_group_name_H-M   'P 1'
_cell_length_a   4.94679277
_cell_length_b   4.94028300
_cell_length_c   23.45185446
_cell_angle_alpha   90.00000000
_cell_angle_beta   90.01805662
_cell_angle_gamma   60.04352870
_symmetry_Int_Tables_number   1
_chemical_formula_structural   Tm3(AgPb2)2
_chemical_formula_sum   'Tm6 Ag4 Pb8'
_cell_volume   496.56220823
_cell_formula_units_Z   2
loop_
 _symmetry_equiv_pos_site_id
 _symmetry_equiv_pos_as_xyz
  1  'x, y, z'
loop_
 _atom_site_type_symbol
 _atom_site_label
 _atom_site_symmetry_multiplicity
 _atom_site_fract_x
 _atom_site_fract_y
 _atom_site_fract_z
 _atom_site_occupancy
  Tm  Tm0  1  0.99962900  0.00018500  0.23286400  1
  Tm  Tm1  1  0.99975000  0.00012500  0.57458400  1
  Tm  Tm2  1  0.99998800  0.00000600  0.91203500  1
  Tm  Tm3  1  0.99999000  0.00000500  0.09762000  1
  Tm  Tm4  1  0.00035200  0.99982400  0.42091600  1
  Tm  Tm5  1  0.00080600  0.99959700  0.75769600  1
  Ag  Ag0  1  0.33298400  0.33350800  0.16520400  1
  Ag  Ag1  1  0.33291100  0.33354500  0.50507500  1
  Ag  Ag2  1  0.33399500  0.33300300  0.84605500  1
  Ag  Ag3  1  0.66660700  0.66669700  0.16469600  1
  Pb  Pb0  1  0.66658500  0.66670800  0.50134000  1
  Pb  Pb1  1  0.66751900  0.66624100  0.83264800  1
  Pb  Pb2  1  0.66611800  0.66694100  0.03028400  1
  Pb  Pb3  1  0.66686900  0.66656500  0.35365900  1
  Pb  Pb4  1  0.66662300  0.66668900  0.68803900  1
  Pb  Pb5  1  0.33334300  0.33332800  0.29949200  1
  Pb  Pb6  1  0.33310200  0.33344900  0.63964600  1
  Pb  Pb7  1  0.33282800  0.33358600  0.97814800  1
loop_
_geom_bond_atom_site_label_1
_geom_bond_atom_site_label_2
_geom_bond_distance
_geom_bond_site_symmetry_2
Tm0 Tm3 3.171724 1_555
Tm1 Tm4 3.603801 1_645
Tm2 Tm5 3.619539 1_645
Ag0 Ag3 2.854174 1_545
Ag0 Ag3 2.854178 1_555
Ag0 Ag3 2.856063 1_455
Ag0 Pb5 3.149302 1_555
Ag0 Tm3 3.263273 1_455
Ag0 Tm3 3.263273 1_465
Ag0 Tm0 3.265318 1_465
Ag0 Tm0 3.265322 1_455
Ag0 Tm0 3.267725 1_555
Ag0 Tm3 3.269222 1_555
Ag1 Pb0 2.855618 1_555
Ag1 Pb0 2.855618 1_545
Ag1 Pb0 2.857135 1_455
Ag1 Pb6 3.155939 1_555
Ag1 Tm1 3.286254 1_465
Ag1 Tm1 3.286257 1_455
Ag1 Tm1 3.289708 1_555
Ag1 Tm4 3.467927 1_555
Ag1 Tm4 3.467930 1_545
Ag1 Tm4 3.476002 1_645
Ag2 Pb1 2.871261 1_555
Ag2 Pb1 2.871261 1_545
Ag2 Pb1 2.873606 1_455
Ag2 Pb7 3.097832 1_555
Ag2 Tm2 3.246332 1_555
Ag2 Tm2 3.247580 1_465
Ag2 Tm2 3.247584 1_455
Ag2 Tm5 3.525993 1_555
Ag2 Tm5 3.525996 1_545
Ag2 Tm5 3.530702 1_645
Ag3 Pb2 3.152211 1_555
Ag3 Tm3 3.258735 1_565
Ag3 Tm3 3.258739 1_555
Ag3 Tm3 3.260996 1_465
Ag3 Tm0 3.269993 1_565
Ag3 Tm0 3.270001 1_555
Ag3 Tm0 3.275783 1_465
Pb0 Tm1 3.330057 1_565
Pb0 Tm1 3.330061 1_555
Pb0 Tm1 3.335009 1_465
Pb0 Tm4 3.421532 1_555
Pb0 Tm4 3.421582 1_655
Pb0 Tm4 3.421586 1_645
Pb0 Pb3 3.463394 1_555
Pb1 Tm5 3.351656 1_655
Pb1 Tm5 3.351660 1_645
Pb1 Tm5 3.354294 1_555
Pb1 Pb4 3.391350 1_555
Pb1 Tm2 3.405334 1_565
Pb1 Tm2 3.405338 1_555
Pb1 Tm2 3.413990 1_465
Pb2 Pb7 3.104155 1_554
Pb2 Pb7 3.104155 1_564
Pb2 Pb7 3.108478 1_654
Pb2 Tm3 3.262101 1_565
Pb2 Tm3 3.262101 1_555
Pb2 Tm3 3.263111 1_465
Pb3 Pb5 3.123677 1_555
Pb3 Pb5 3.123678 1_565
Pb3 Pb5 3.126611 1_655
Pb3 Tm4 3.260472 1_645
Pb3 Tm4 3.260476 1_655
Pb3 Tm4 3.263673 1_555
Pb4 Pb6 3.071113 1_565
Pb4 Pb6 3.071117 1_555
Pb4 Pb6 3.074060 1_655
Pb4 Tm5 3.288658 1_555
Pb4 Tm5 3.289365 1_655
Pb4 Tm5 3.289369 1_645
Pb5 Tm0 3.253801 1_455
Pb5 Tm0 3.253801 1_465
Pb5 Tm0 3.255697 1_555
Pb6 Tm1 3.235645 1_455
Pb6 Tm1 3.235645 1_465
Pb6 Tm1 3.239587 1_555
Pb7 Tm2 3.246373 1_455
Pb7 Tm2 3.246373 1_465
Pb7 Tm2 3.253206 1_555
