# generated using pymatgen
data_Mg2Pd
_symmetry_space_group_name_H-M   'P 1'
_cell_length_a   8.49997623
_cell_length_b   8.49997683
_cell_length_c   8.49997709
_cell_angle_alpha   59.99999902
_cell_angle_beta   59.99999669
_cell_angle_gamma   60.00000241
_symmetry_Int_Tables_number   1
_chemical_formula_structural   Mg2Pd
_chemical_formula_sum   'Mg16 Pd8'
_cell_volume   434.24837708
_cell_formula_units_Z   8
loop_
 _symmetry_equiv_pos_site_id
 _symmetry_equiv_pos_as_xyz
  1  'x, y, z'
loop_
 _atom_site_type_symbol
 _atom_site_label
 _atom_site_symmetry_multiplicity
 _atom_site_fract_x
 _atom_site_fract_y
 _atom_site_fract_z
 _atom_site_occupancy
  Mg  Mg0  1  0.81967599  0.43032401  0.43032401  1
  Mg  Mg1  1  0.56967599  0.56967599  0.18032401  1
  Mg  Mg2  1  0.18032401  0.18032401  0.56967599  1
  Mg  Mg3  1  0.56967599  0.18032401  0.18032401  1
  Mg  Mg4  1  0.56967599  0.18032401  0.56967599  1
  Mg  Mg5  1  0.18032401  0.56967599  0.18032401  1
  Mg  Mg6  1  0.43032401  0.81967599  0.43032401  1
  Mg  Mg7  1  0.43032401  0.43032401  0.81967599  1
  Mg  Mg8  1  0.81967599  0.81967599  0.43032401  1
  Mg  Mg9  1  0.81967599  0.43032401  0.81967599  1
  Mg  Mg10  1  0.18032401  0.56967599  0.56967599  1
  Mg  Mg11  1  0.43032401  0.81967599  0.81967599  1
  Mg  Mg12  1  -0.00000000  0.50000000  -0.00000000  1
  Mg  Mg13  1  0.50000000  0.00000000  -0.00000000  1
  Mg  Mg14  1  -0.00000000  0.00000000  0.50000000  1
  Mg  Mg15  1  -0.00000000  0.00000000  -0.00000000  1
  Pd  Pd0  1  0.85223940  0.21592020  0.21592020  1
  Pd  Pd1  1  0.21592020  0.85223940  0.21592020  1
  Pd  Pd2  1  0.21592020  0.21592020  0.85223940  1
  Pd  Pd3  1  0.78407980  0.78407980  0.78407980  1
  Pd  Pd4  1  0.78407980  0.14776060  0.78407980  1
  Pd  Pd5  1  0.14776060  0.78407980  0.78407980  1
  Pd  Pd6  1  0.78407980  0.78407980  0.14776060  1
  Pd  Pd7  1  0.21592020  0.21592020  0.21592020  1
loop_
_geom_bond_atom_site_label_1
_geom_bond_atom_site_label_2
_geom_bond_distance
_geom_bond_site_symmetry_2
Mg0 Pd4 2.737992 1_555
Mg0 Pd6 2.737992 1_555
Mg0 Pd7 3.005243 1_655
Mg0 Pd0 3.005243 1_555
Mg1 Pd1 2.737992 1_555
Mg1 Pd0 2.737992 1_555
Mg1 Pd6 3.005243 1_555
Mg1 Pd3 3.005243 1_554
Mg2 Pd2 2.737992 1_555
Mg2 Pd7 2.737992 1_555
Mg2 Pd4 3.005242 1_455
Mg2 Pd5 3.005243 1_545
Mg3 Pd7 2.737991 1_555
Mg3 Pd0 2.737991 1_555
Mg3 Pd4 3.005243 1_554
Mg3 Pd6 3.005243 1_545
Mg4 Pd2 2.737991 1_555
Mg4 Pd0 2.737991 1_555
Mg4 Pd4 3.005243 1_555
Mg4 Pd3 3.005243 1_545
Mg5 Pd1 2.737992 1_555
Mg5 Pd7 2.737992 1_555
Mg5 Pd6 3.005243 1_455
Mg5 Pd5 3.005243 1_554
Mg6 Pd6 2.737991 1_555
Mg6 Pd5 2.737991 1_555
Mg6 Pd1 3.005243 1_555
Mg6 Pd7 3.005243 1_565
Mg7 Pd4 2.737992 1_555
Mg7 Pd5 2.737992 1_555
Mg7 Pd2 3.005243 1_555
Mg7 Pd7 3.005243 1_556
Mg8 Pd6 2.737992 1_555
Mg8 Pd3 2.737992 1_555
Mg8 Pd1 3.005242 1_655
Mg8 Pd0 3.005243 1_565
Mg9 Pd4 2.737992 1_555
Mg9 Pd3 2.737992 1_555
Mg9 Pd2 3.005243 1_655
Mg9 Pd0 3.005243 1_556
Mg10 Pd1 2.737992 1_555
Mg10 Pd2 2.737992 1_555
Mg10 Pd3 3.005243 1_455
Mg10 Pd5 3.005243 1_555
Mg11 Pd3 2.737991 1_555
Mg11 Pd5 2.737991 1_555
Mg11 Pd1 3.005243 1_556
Mg11 Pd2 3.005243 1_565
Mg12 Pd5 2.659403 1_554
Mg12 Pd0 2.659403 1_455
Mg12 Pd6 2.659404 1_455
Mg12 Pd2 2.659404 1_554
Mg12 Pd7 2.659404 1_555
Mg12 Pd3 2.659404 1_454
Mg13 Pd4 2.659403 1_554
Mg13 Pd1 2.659403 1_545
Mg13 Pd6 2.659403 1_545
Mg13 Pd2 2.659403 1_554
Mg13 Pd7 2.659403 1_555
Mg13 Pd3 2.659403 1_544
Mg14 Pd7 2.659403 1_555
Mg14 Pd3 2.659403 1_445
Mg14 Pd4 2.659404 1_455
Mg14 Pd1 2.659404 1_545
Mg14 Pd5 2.659404 1_545
Mg14 Pd0 2.659404 1_455
Mg15 Pd2 2.659403 1_554
Mg15 Pd6 2.659403 1_445
Mg15 Pd1 2.659404 1_545
Mg15 Pd4 2.659404 1_454
Mg15 Pd0 2.659404 1_455
Mg15 Pd5 2.659404 1_544
