# generated using pymatgen
data_Ni2P2(SeS)3
_symmetry_space_group_name_H-M   'P 1'
_cell_length_a   5.97154900
_cell_length_b   6.00990883
_cell_length_c   6.99547722
_cell_angle_alpha   82.04836425
_cell_angle_beta   106.61426082
_cell_angle_gamma   119.46965531
_symmetry_Int_Tables_number   1
_chemical_formula_structural   Ni2P2(SeS)3
_chemical_formula_sum   'Ni2 P2 Se3 S3'
_cell_volume   209.44830360
_cell_formula_units_Z   1
loop_
 _symmetry_equiv_pos_site_id
 _symmetry_equiv_pos_as_xyz
  1  'x, y, z'
loop_
 _atom_site_type_symbol
 _atom_site_label
 _atom_site_symmetry_multiplicity
 _atom_site_fract_x
 _atom_site_fract_y
 _atom_site_fract_z
 _atom_site_occupancy
  Ni  Ni0  1  0.33177400  0.67132000  0.99555300  1
  Ni  Ni1  1  0.66529300  0.32291000  0.99479600  1
  P  P0  1  0.95571900  0.01057100  0.83761600  1
  P  P1  1  0.04393700  0.00044300  0.16438500  1
  Se  Se0  1  0.57059900  0.64948400  0.75792400  1
  Se  Se1  1  0.07600300  0.64250300  0.23841200  1
  Se  Se2  1  0.43514600  0.35641000  0.23945500  1
  S  S0  1  0.27021000  0.00285100  0.77762200  1
  S  S1  1  0.72211700  0.99972100  0.21836700  1
  S  S2  1  0.92920200  0.34378600  0.77586900  1
loop_
_geom_bond_atom_site_label_1
_geom_bond_atom_site_label_2
_geom_bond_distance
_geom_bond_site_symmetry_2
Ni0 S0 2.447261 1_565
Ni0 S1 2.450530 1_556
Ni0 S2 2.466556 1_455
Ni0 Se1 2.528101 1_556
Ni0 Se0 2.532725 1_555
Ni0 Se2 2.554965 1_556
Ni1 S1 2.416277 1_546
Ni1 S0 2.422360 1_555
Ni1 S2 2.444858 1_555
Ni1 Se1 2.547373 1_656
Ni1 Se2 2.563449 1_556
Ni1 Se0 2.563979 1_555
P0 S0 2.060826 1_655
P0 S2 2.062909 1_555
P0 P1 2.193400 1_656
P0 Se0 2.236090 1_545
P1 S1 2.059647 1_445
P1 Se1 2.229982 1_545
P1 Se2 2.236484 1_555
