# generated using pymatgen
data_Pu3I
_symmetry_space_group_name_H-M   'P 1'
_cell_length_a   6.70208020
_cell_length_b   6.70200396
_cell_length_c   5.74446399
_cell_angle_alpha   90.00000000
_cell_angle_beta   90.00000000
_cell_angle_gamma   120.00400079
_symmetry_Int_Tables_number   1
_chemical_formula_structural   Pu3I
_chemical_formula_sum   'Pu6 I2'
_cell_volume   223.44823766
_cell_formula_units_Z   2
loop_
 _symmetry_equiv_pos_site_id
 _symmetry_equiv_pos_as_xyz
  1  'x, y, z'
loop_
 _atom_site_type_symbol
 _atom_site_label
 _atom_site_symmetry_multiplicity
 _atom_site_fract_x
 _atom_site_fract_y
 _atom_site_fract_z
 _atom_site_occupancy
  Pu  Pu0  1  0.16356508  0.32715183  0.25000000  1
  Pu  Pu1  1  0.67287373  0.83640943  0.25000000  1
  Pu  Pu2  1  0.16353932  0.83637253  0.25000000  1
  Pu  Pu3  1  0.83641199  0.67286314  0.75000000  1
  Pu  Pu4  1  0.32716023  0.16358561  0.75000000  1
  Pu  Pu5  1  0.83638763  0.16356484  0.75000000  1
  I  I0  1  0.33342057  0.66672680  0.75000000  1
  I  I1  1  0.66664146  0.33332582  0.25000000  1
loop_
_geom_bond_atom_site_label_1
_geom_bond_atom_site_label_2
_geom_bond_distance
_geom_bond_site_symmetry_2
I0 Pu5 3.350355 1_565
I0 Pu3 3.350713 1_555
I0 Pu4 3.351128 1_565
I0 Pu4 3.351270 1_555
I0 Pu5 3.351660 1_455
I0 Pu3 3.351746 1_455
I0 Pu1 3.482997 1_556
I0 Pu1 3.482997 1_555
I0 Pu2 3.483300 1_556
I0 Pu2 3.483300 1_555
I0 Pu0 3.483384 1_556
I0 Pu0 3.483384 1_555
I1 Pu2 3.350822 1_655
I1 Pu1 3.350976 1_555
I1 Pu0 3.351158 1_555
I1 Pu2 3.351195 1_545
I1 Pu0 3.351305 1_655
I1 Pu1 3.351418 1_545
I1 Pu4 3.483089 1_554
I1 Pu4 3.483089 1_555
I1 Pu5 3.483235 1_554
I1 Pu5 3.483235 1_555
I1 Pu3 3.483260 1_554
I1 Pu3 3.483260 1_555
