# generated using pymatgen
data_Cr5NiSn12
_symmetry_space_group_name_H-M   'P 1'
_cell_length_a   5.51515591
_cell_length_b   5.51515591
_cell_length_c   13.65167800
_cell_angle_alpha   90.00000000
_cell_angle_beta   90.00000000
_cell_angle_gamma   119.76019902
_symmetry_Int_Tables_number   1
_chemical_formula_structural   Cr5NiSn12
_chemical_formula_sum   'Cr5 Ni1 Sn12'
_cell_volume   360.47621876
_cell_formula_units_Z   1
loop_
 _symmetry_equiv_pos_site_id
 _symmetry_equiv_pos_as_xyz
  1  'x, y, z'
loop_
 _atom_site_type_symbol
 _atom_site_label
 _atom_site_symmetry_multiplicity
 _atom_site_fract_x
 _atom_site_fract_y
 _atom_site_fract_z
 _atom_site_occupancy
  Cr  Cr0  1  0.00000000  0.00000000  0.16897400  1
  Cr  Cr1  1  0.00000000  0.00000000  0.83102600  1
  Cr  Cr2  1  0.50000000  0.00000000  0.16696500  1
  Cr  Cr3  1  0.00000000  0.50000000  0.83303500  1
  Cr  Cr4  1  0.50000000  0.50000000  0.50000000  1
  Ni  Ni0  1  0.00000000  0.00000000  0.50000000  1
  Sn  Sn0  1  0.16818000  0.33053700  0.66469700  1
  Sn  Sn1  1  0.66946300  0.83182000  0.33530300  1
  Sn  Sn2  1  0.16569400  0.83430600  0.00000000  1
  Sn  Sn3  1  0.83182000  0.66946300  0.66469700  1
  Sn  Sn4  1  0.33053700  0.16818000  0.33530300  1
  Sn  Sn5  1  0.83430600  0.16569400  0.00000000  1
  Sn  Sn6  1  0.50000000  0.00000000  0.55423700  1
  Sn  Sn7  1  0.00000000  0.50000000  0.22291500  1
  Sn  Sn8  1  0.50000000  0.50000000  0.88941600  1
  Sn  Sn9  1  0.50000000  0.00000000  0.77708500  1
  Sn  Sn10  1  0.50000000  0.50000000  0.11058400  1
  Sn  Sn11  1  0.00000000  0.50000000  0.44576300  1
loop_
_geom_bond_atom_site_label_1
_geom_bond_atom_site_label_2
_geom_bond_distance
_geom_bond_site_symmetry_2
Cr0 Cr2 2.757714 1_455
Cr0 Cr2 2.757714 1_555
Cr0 Sn4 2.767827 1_555
Cr0 Sn1 2.767827 1_445
Cr0 Sn2 2.796500 1_545
Cr0 Sn5 2.796500 1_455
Cr0 Sn7 2.854207 1_545
Cr0 Sn7 2.854207 1_555
Cr0 Sn10 2.880075 1_555
Cr0 Sn10 2.880075 1_445
Cr1 Cr3 2.757714 1_555
Cr1 Cr3 2.757714 1_545
Cr1 Sn0 2.767827 1_555
Cr1 Sn3 2.767827 1_445
Cr1 Sn2 2.796500 1_546
Cr1 Sn5 2.796500 1_456
Cr1 Sn9 2.854207 1_555
Cr1 Sn9 2.854207 1_455
Cr1 Sn8 2.880075 1_555
Cr1 Sn8 2.880075 1_445
Cr2 Sn5 2.785193 1_555
Cr2 Sn2 2.785193 1_545
Cr2 Sn1 2.806364 1_545
Cr2 Sn4 2.806364 1_555
Cr2 Sn10 2.862982 1_555
Cr2 Sn10 2.862982 1_545
Cr2 Sn7 2.871034 1_545
Cr2 Sn7 2.871034 1_655
Cr3 Sn2 2.785193 1_556
Cr3 Sn5 2.785193 1_456
Cr3 Sn3 2.806364 1_455
Cr3 Sn0 2.806364 1_555
Cr3 Sn8 2.862982 1_455
Cr3 Sn8 2.862982 1_555
Cr3 Sn9 2.871034 1_455
Cr3 Sn9 2.871034 1_565
Cr4 Sn0 2.753151 1_555
Cr4 Sn3 2.753151 1_555
Cr4 Sn4 2.753151 1_555
Cr4 Sn1 2.753151 1_555
Cr4 Ni0 2.767567 1_665
Cr4 Ni0 2.767567 1_555
Cr4 Sn6 2.855253 1_555
Cr4 Sn6 2.855253 1_565
Cr4 Sn11 2.855253 1_555
Cr4 Sn11 2.855253 1_655
Ni0 Sn0 2.749579 1_555
Ni0 Sn3 2.749579 1_445
Ni0 Sn4 2.749579 1_555
Ni0 Sn1 2.749579 1_445
Ni0 Sn6 2.855253 1_555
Ni0 Sn6 2.855253 1_455
Ni0 Sn11 2.855253 1_555
Ni0 Sn11 2.855253 1_545
Sn6 Sn9 3.042249 1_555
Sn11 Sn7 3.042249 1_555
Sn11 Sn6 3.138845 1_565
Sn11 Sn6 3.138845 1_455
