# generated using pymatgen
data_SrCa3TiMn3O10
_symmetry_space_group_name_H-M   'P 1'
_cell_length_a   11.00674141
_cell_length_b   11.27526392
_cell_length_c   17.24497848
_cell_angle_alpha   108.91948948
_cell_angle_beta   108.53626478
_cell_angle_gamma   89.97779408
_symmetry_Int_Tables_number   1
_chemical_formula_structural   SrCa3TiMn3O10
_chemical_formula_sum   'Sr8 Ca24 Ti8 Mn24 O80'
_cell_volume   1906.89591965
_cell_formula_units_Z   8
loop_
 _symmetry_equiv_pos_site_id
 _symmetry_equiv_pos_as_xyz
  1  'x, y, z'
loop_
 _atom_site_type_symbol
 _atom_site_label
 _atom_site_symmetry_multiplicity
 _atom_site_fract_x
 _atom_site_fract_y
 _atom_site_fract_z
 _atom_site_occupancy
  Sr  Sr0  1  0.30977400  0.56101900  0.60939000  1
  Sr  Sr1  1  0.80885600  0.06250300  0.60986400  1
  Sr  Sr2  1  0.19358400  0.43738500  0.88905400  1
  Sr  Sr3  1  0.05856300  0.29729900  0.60843100  1
  Sr  Sr4  1  0.05928900  0.79859800  0.60982900  1
  Sr  Sr5  1  0.55845700  0.29989500  0.61003500  1
  Sr  Sr6  1  0.44106200  0.19814000  0.88622500  1
  Sr  Sr7  1  0.94412000  0.20153800  0.38719600  1
  Ca  Ca0  1  0.29933000  0.07051700  0.11232300  1
  Ca  Ca1  1  0.30393100  0.06147000  0.60480400  1
  Ca  Ca2  1  0.30345500  0.56478200  0.11370100  1
  Ca  Ca3  1  0.80473800  0.06728000  0.10882700  1
  Ca  Ca4  1  0.80329600  0.56834600  0.11353500  1
  Ca  Ca5  1  0.80621200  0.56387200  0.60546500  1
  Ca  Ca6  1  0.20004300  0.43477600  0.39321200  1
  Ca  Ca7  1  0.19157200  0.93269700  0.38982200  1
  Ca  Ca8  1  0.19566600  0.93566600  0.89252200  1
  Ca  Ca9  1  0.69918900  0.43597600  0.39238600  1
  Ca  Ca10  1  0.69742400  0.43638200  0.89191600  1
  Ca  Ca11  1  0.69918500  0.93188800  0.39032500  1
  Ca  Ca12  1  0.68938300  0.93258100  0.88753500  1
  Ca  Ca13  1  0.05600500  0.29031500  0.11150200  1
  Ca  Ca14  1  0.05095700  0.79976300  0.11403700  1
  Ca  Ca15  1  0.55287000  0.29362000  0.11234200  1
  Ca  Ca16  1  0.55634100  0.79463200  0.11390000  1
  Ca  Ca17  1  0.55810500  0.79079000  0.60666900  1
  Ca  Ca18  1  0.45129000  0.20940900  0.39076300  1
  Ca  Ca19  1  0.44853900  0.70474700  0.39037800  1
  Ca  Ca20  1  0.44292300  0.70729500  0.89067800  1
  Ca  Ca21  1  0.95074700  0.21107700  0.89242900  1
  Ca  Ca22  1  0.94571200  0.70717000  0.39155800  1
  Ca  Ca23  1  0.94171500  0.70086300  0.88937000  1
  Ti  Ti0  1  0.00106100  0.99731300  0.99550700  1
  Ti  Ti1  1  0.00518100  0.50279000  0.00649400  1
  Ti  Ti2  1  0.50432900  0.00000800  0.00396700  1
  Ti  Ti3  1  0.50413900  0.99694400  0.49668900  1
  Ti  Ti4  1  0.50386500  0.50240400  0.00171500  1
  Ti  Ti5  1  0.25391700  0.75274400  0.00551400  1
  Ti  Ti6  1  0.75157600  0.25074300  0.99894000  1
  Ti  Ti7  1  0.75431200  0.75049000  0.00092700  1
  Mn  Mn0  1  0.00541400  0.99674800  0.49762400  1
  Mn  Mn1  1  0.00426900  0.50062000  0.49691200  1
  Mn  Mn2  1  0.50588800  0.50150000  0.49749700  1
  Mn  Mn3  1  0.25557400  0.25175400  0.00273700  1
  Mn  Mn4  1  0.25512500  0.24527300  0.49645300  1
  Mn  Mn5  1  0.25727700  0.74977800  0.49733100  1
  Mn  Mn6  1  0.75318500  0.25085800  0.49680600  1
  Mn  Mn7  1  0.75446300  0.74753500  0.49700800  1
  Mn  Mn8  1  0.11022000  0.09591700  0.24829300  1
  Mn  Mn9  1  0.10938100  0.09192800  0.75336500  1
  Mn  Mn10  1  0.10958300  0.59166800  0.25208500  1
  Mn  Mn11  1  0.10953100  0.60249100  0.75131200  1
  Mn  Mn12  1  0.60303800  0.09327400  0.24977700  1
  Mn  Mn13  1  0.60845300  0.09215000  0.74767500  1
  Mn  Mn14  1  0.61037900  0.59165700  0.25001100  1
  Mn  Mn15  1  0.61468600  0.60127100  0.75269200  1
  Mn  Mn16  1  0.35565200  0.40286600  0.25018200  1
  Mn  Mn17  1  0.36678700  0.40733700  0.75099000  1
  Mn  Mn18  1  0.35947600  0.90811300  0.25139900  1
  Mn  Mn19  1  0.36546600  0.90331400  0.74924300  1
  Mn  Mn20  1  0.85625400  0.40421300  0.24808400  1
  Mn  Mn21  1  0.85861700  0.40781700  0.75160300  1
  Mn  Mn22  1  0.85711300  0.90431100  0.24778600  1
  Mn  Mn23  1  0.85505700  0.90280500  0.75032600  1
  O  O0  1  0.12709300  0.11557800  0.48858800  1
  O  O1  1  0.12033500  0.11467300  0.99023100  1
  O  O2  1  0.12478500  0.62229800  0.48274300  1
  O  O3  1  0.12401600  0.62584800  0.98833600  1
  O  O4  1  0.62000600  0.11804300  0.48184800  1
  O  O5  1  0.62956500  0.12051200  0.98850000  1
  O  O6  1  0.62221400  0.61934400  0.48302600  1
  O  O7  1  0.62784900  0.62115300  0.98554300  1
  O  O8  1  0.13315500  0.38774100  0.01677000  1
  O  O9  1  0.13582400  0.37300100  0.50378400  1
  O  O10  1  0.14314100  0.88222600  0.01864800  1
  O  O11  1  0.13986800  0.87951100  0.50888800  1
  O  O12  1  0.64241600  0.38069600  0.01793500  1
  O  O13  1  0.63439200  0.38220400  0.50709200  1
  O  O14  1  0.64190600  0.87912700  0.01749000  1
  O  O15  1  0.63423800  0.87613300  0.51079200  1
  O  O16  1  0.37084700  0.11060200  0.48080400  1
  O  O17  1  0.37708500  0.11036400  0.99085800  1
  O  O18  1  0.37396400  0.61821000  0.48337700  1
  O  O19  1  0.37956400  0.62047100  0.98803000  1
  O  O20  1  0.87119100  0.11617500  0.48810500  1
  O  O21  1  0.87504600  0.11560500  0.98728900  1
  O  O22  1  0.86827200  0.61866600  0.48378700  1
  O  O23  1  0.87485900  0.61600700  0.98567700  1
  O  O24  1  0.39361600  0.39316100  0.01909200  1
  O  O25  1  0.38222700  0.37643200  0.50179100  1
  O  O26  1  0.39184400  0.88303300  0.01647500  1
  O  O27  1  0.38853500  0.88361300  0.51280100  1
  O  O28  1  0.88908400  0.38740200  0.01733300  1
  O  O29  1  0.87900600  0.38258000  0.50888300  1
  O  O30  1  0.89228800  0.88615000  0.01850800  1
  O  O31  1  0.88307400  0.87686000  0.50636900  1
  O  O32  1  0.08311200  0.09302100  0.13260900  1
  O  O33  1  0.07521100  0.08063400  0.63296000  1
  O  O34  1  0.08101200  0.60114300  0.12972000  1
  O  O35  1  0.07323900  0.58517900  0.63121500  1
  O  O36  1  0.58685000  0.09589200  0.12772900  1
  O  O37  1  0.57806000  0.08840200  0.62486300  1
  O  O38  1  0.58856000  0.59815200  0.12872700  1
  O  O39  1  0.57669400  0.58939700  0.62716600  1
  O  O40  1  0.44418900  0.40857100  0.36477700  1
  O  O41  1  0.45902100  0.41047700  0.87609000  1
  O  O42  1  0.45388300  0.90002800  0.37002700  1
  O  O43  1  0.46128200  0.90779300  0.87528300  1
  O  O44  1  0.94287900  0.41396300  0.36330200  1
  O  O45  1  0.94824500  0.40939000  0.87179400  1
  O  O46  1  0.95122300  0.90592500  0.36828400  1
  O  O47  1  0.95509000  0.89936100  0.87460600  1
  O  O48  1  0.32770300  0.28973400  0.13299000  1
  O  O49  1  0.32640700  0.28564500  0.62678600  1
  O  O50  1  0.33356500  0.77843900  0.12815000  1
  O  O51  1  0.32722000  0.78779200  0.62656100  1
  O  O52  1  0.83484400  0.28654200  0.13065800  1
  O  O53  1  0.82026300  0.29695500  0.63156900  1
  O  O54  1  0.83474500  0.77815300  0.12719000  1
  O  O55  1  0.82307200  0.78327100  0.62740900  1
  O  O56  1  0.19107100  0.20592900  0.36378600  1
  O  O57  1  0.19441600  0.20896300  0.87315700  1
  O  O58  1  0.20599500  0.71842800  0.36901500  1
  O  O59  1  0.20225700  0.71764700  0.87328200  1
  O  O60  1  0.69356800  0.21742900  0.36906700  1
  O  O61  1  0.70518400  0.21909700  0.87521700  1
  O  O62  1  0.69775300  0.71540500  0.36882400  1
  O  O63  1  0.71272000  0.72376900  0.87581000  1
  O  O64  1  0.41352400  0.08156900  0.24801900  1
  O  O65  1  0.41905100  0.07266800  0.74281000  1
  O  O66  1  0.42131100  0.56429900  0.24815700  1
  O  O67  1  0.43341500  0.58189300  0.75878600  1
  O  O68  1  0.92602600  0.07090300  0.24052200  1
  O  O69  1  0.92942600  0.07798400  0.75982000  1
  O  O70  1  0.92015100  0.56947500  0.24913600  1
  O  O71  1  0.92609200  0.57616700  0.75147200  1
  O  O72  1  0.17262300  0.41591500  0.24904300  1
  O  O73  1  0.18287800  0.44092000  0.75113100  1
  O  O74  1  0.17015400  0.92990400  0.24898600  1
  O  O75  1  0.18377900  0.93280600  0.76029500  1
  O  O76  1  0.67327900  0.41682200  0.24783300  1
  O  O77  1  0.68033500  0.43260500  0.75913700  1
  O  O78  1  0.66993500  0.92233300  0.24902300  1
  O  O79  1  0.66778400  0.91886700  0.75084800  1
loop_
_geom_bond_atom_site_label_1
_geom_bond_atom_site_label_2
_geom_bond_distance
_geom_bond_site_symmetry_2
Ca0 O64 2.238801 1_555
Ca0 O48 2.385910 1_555
Ca0 O10 2.466851 1_545
Ca0 O32 2.514317 1_555
Ca0 O1 2.569825 1_554
Ca0 O26 2.653352 1_545
Ca0 O17 2.659377 1_554
Ca1 O65 2.274507 1_555
Ca1 O49 2.431734 1_555
Ca1 O11 2.471676 1_545
Ca1 O27 2.506122 1_545
Ca1 O0 2.547361 1_555
Ca1 O16 2.681774 1_555
Ca1 O33 2.707174 1_555
Ca1 O37 2.929975 1_555
Ca2 O66 2.270438 1_555
Ca2 O50 2.352498 1_555
Ca2 O8 2.477776 1_555
Ca2 O24 2.524248 1_555
Ca2 O34 2.568022 1_555
Ca2 O3 2.701511 1_554
Ca2 O19 2.798199 1_554
Ca3 O68 2.225724 1_555
Ca3 O52 2.383537 1_555
Ca3 O14 2.496982 1_545
Ca3 O36 2.527867 1_555
Ca3 O30 2.532882 1_545
Ca3 O5 2.578081 1_554
Ca3 O21 2.657215 1_554
Ca3 O32 2.960576 1_655
Ca4 O70 2.278406 1_555
Ca4 O54 2.314960 1_555
Ca4 O38 2.470609 1_555
Ca4 O12 2.492982 1_555
Ca4 O28 2.570191 1_555
Ca4 O7 2.663977 1_554
Ca4 O23 2.764741 1_554
Ca4 O34 2.991630 1_655
Ca5 O55 2.376106 1_555
Ca5 O71 2.400302 1_555
Ca5 O29 2.496767 1_555
Ca5 O13 2.521898 1_555
Ca5 O22 2.646437 1_555
Ca5 O6 2.662248 1_555
Ca5 O39 2.671233 1_555
Ca5 O35 2.827499 1_655
Ca6 O72 2.344689 1_555
Ca6 O56 2.458555 1_555
Ca6 O2 2.497066 1_555
Ca6 O9 2.517801 1_555
Ca6 O25 2.523947 1_555
Ca6 O18 2.526870 1_555
Ca6 O44 2.706808 1_455
Ca6 O40 2.879640 1_555
Ca7 O58 2.337623 1_555
Ca7 O74 2.354058 1_555
Ca7 O0 2.479215 1_565
Ca7 O16 2.524437 1_565
Ca7 O11 2.537952 1_555
Ca7 O46 2.555525 1_455
Ca7 O27 2.709390 1_555
Ca7 O42 3.021978 1_555
Ca8 O75 2.231667 1_555
Ca8 O59 2.375807 1_555
Ca8 O1 2.506393 1_565
Ca8 O17 2.535148 1_565
Ca8 O47 2.583285 1_455
Ca8 O10 2.660404 1_556
Ca8 O26 2.733285 1_556
Ca8 O43 3.037383 1_555
Ca9 O76 2.353936 1_555
Ca9 O60 2.362076 1_555
Ca9 O6 2.486094 1_555
Ca9 O22 2.494685 1_555
Ca9 O13 2.542479 1_555
Ca9 O29 2.563407 1_555
Ca9 O40 2.693596 1_555
Ca9 O44 2.877783 1_555
Ca10 O77 2.223326 1_555
Ca10 O61 2.377061 1_555
Ca10 O7 2.477349 1_555
Ca10 O23 2.530247 1_555
Ca10 O41 2.557137 1_555
Ca10 O12 2.684270 1_556
Ca10 O28 2.702907 1_556
Ca10 O45 2.893886 1_555
Ca11 O78 2.320344 1_555
Ca11 O62 2.346305 1_555
Ca11 O4 2.526070 1_565
Ca11 O20 2.538979 1_565
Ca11 O31 2.591376 1_555
Ca11 O42 2.619112 1_555
Ca11 O15 2.648302 1_555
Ca11 O46 2.919508 1_555
Ca12 O79 2.245891 1_555
Ca12 O63 2.318179 1_555
Ca12 O43 2.459896 1_555
Ca12 O5 2.508062 1_565
Ca12 O21 2.619163 1_565
Ca12 O14 2.698053 1_556
Ca12 O30 2.814587 1_556
Ca12 O47 3.017067 1_555
Ca13 O72 2.272979 1_555
Ca13 O32 2.371837 1_555
Ca13 O28 2.542689 1_455
Ca13 O52 2.560673 1_455
Ca13 O8 2.577423 1_555
Ca13 O21 2.643875 1_454
Ca13 O1 2.655487 1_554
Ca13 O48 2.894388 1_555
Ca14 O74 2.266285 1_555
Ca14 O34 2.352279 1_555
Ca14 O30 2.433651 1_455
Ca14 O54 2.480667 1_455
Ca14 O10 2.579490 1_555
Ca14 O23 2.692691 1_454
Ca14 O3 2.746172 1_554
Ca14 O50 3.057590 1_555
Ca15 O76 2.252399 1_555
Ca15 O36 2.345326 1_555
Ca15 O24 2.508955 1_555
Ca15 O12 2.577485 1_555
Ca15 O48 2.615768 1_555
Ca15 O17 2.649660 1_554
Ca15 O5 2.743197 1_554
Ca15 O52 3.021825 1_555
Ca16 O78 2.244885 1_555
Ca16 O38 2.325520 1_555
Ca16 O26 2.498972 1_555
Ca16 O50 2.553189 1_555
Ca16 O14 2.565586 1_555
Ca16 O19 2.628153 1_554
Ca16 O7 2.764769 1_554
Ca16 O54 3.009611 1_555
Ca17 O79 2.342929 1_555
Ca17 O39 2.407760 1_555
Ca17 O15 2.505026 1_555
Ca17 O27 2.524960 1_555
Ca17 O18 2.644839 1_555
Ca17 O6 2.657784 1_555
Ca17 O51 2.671860 1_555
Ca17 O55 2.827879 1_555
Ca18 O64 2.314947 1_555
Ca18 O40 2.424837 1_555
Ca18 O4 2.484008 1_555
Ca18 O25 2.525152 1_555
Ca18 O16 2.536309 1_555
Ca18 O13 2.603819 1_555
Ca18 O56 2.749992 1_555
Ca18 O60 2.813521 1_555
Ca19 O42 2.342879 1_555
Ca19 O66 2.372174 1_555
Ca19 O18 2.459724 1_555
Ca19 O6 2.487674 1_555
Ca19 O58 2.587972 1_555
Ca19 O15 2.631779 1_555
Ca19 O27 2.661774 1_555
Ca19 O62 2.890384 1_555
Ca20 O67 2.224118 1_555
Ca20 O43 2.376047 1_555
Ca20 O19 2.464526 1_555
Ca20 O59 2.576385 1_555
Ca20 O7 2.583484 1_555
Ca20 O26 2.633554 1_556
Ca20 O14 2.746515 1_556
Ca21 O69 2.229420 1_555
Ca21 O45 2.374223 1_555
Ca21 O21 2.557020 1_555
Ca21 O1 2.587658 1_655
Ca21 O61 2.628460 1_555
Ca21 O8 2.663208 1_656
Ca21 O28 2.684076 1_556
Ca21 O57 2.804585 1_655
Ca22 O70 2.368556 1_555
Ca22 O46 2.405364 1_555
Ca22 O22 2.478675 1_555
Ca22 O2 2.505413 1_655
Ca22 O31 2.542918 1_555
Ca22 O62 2.637057 1_555
Ca22 O11 2.672296 1_655
Ca22 O58 3.019124 1_655
Ca23 O71 2.287678 1_555
Ca23 O47 2.342921 1_555
Ca23 O23 2.454231 1_555
Ca23 O63 2.477532 1_555
Ca23 O3 2.532146 1_655
Ca23 O30 2.715212 1_556
Ca23 O10 2.823424 1_656
Ca23 O59 2.979416 1_655
Mn0 O0 1.970436 1_565
Mn0 O31 1.981409 1_455
Mn0 O11 1.989326 1_555
Mn0 O20 2.002597 1_465
Mn0 O46 2.013164 1_455
Mn0 O33 2.088258 1_565
Mn1 O22 2.010436 1_455
Mn1 O29 2.018782 1_455
Mn1 O2 2.031355 1_555
Mn1 O9 2.044781 1_555
Mn1 O44 2.066605 1_455
Mn1 O35 2.073675 1_555
Mn2 O13 1.957362 1_555
Mn2 O18 1.970011 1_555
Mn2 O6 1.971452 1_555
Mn2 O25 1.994986 1_555
Mn2 O39 2.011301 1_555
Mn2 O40 2.062673 1_555
Mn3 O57 2.006008 1_554
Mn3 O48 2.025289 1_555
Mn3 O8 2.047003 1_555
Mn3 O1 2.057360 1_554
Mn3 O17 2.081581 1_554
Mn3 O24 2.089980 1_555
Mn4 O9 1.949449 1_555
Mn4 O0 1.973370 1_555
Mn4 O16 1.988016 1_555
Mn4 O25 1.996012 1_555
Mn4 O49 2.022388 1_555
Mn4 O56 2.060243 1_555
Mn5 O2 1.946755 1_555
Mn5 O11 1.955168 1_555
Mn5 O18 1.967650 1_555
Mn5 O27 1.982706 1_555
Mn5 O51 2.008206 1_555
Mn5 O58 2.009690 1_555
Mn6 O29 1.945433 1_555
Mn6 O13 1.977356 1_555
Mn6 O60 1.991967 1_555
Mn6 O4 1.992153 1_555
Mn6 O20 1.997569 1_555
Mn6 O53 2.083798 1_555
Mn7 O22 1.922967 1_555
Mn7 O6 1.954128 1_555
Mn7 O31 1.964657 1_555
Mn7 O15 1.971045 1_555
Mn7 O62 2.002717 1_555
Mn7 O55 2.030391 1_555
Mn8 O56 1.889234 1_555
Mn8 O32 1.910313 1_555
Mn8 O74 1.986867 1_545
Mn8 O68 2.002735 1_455
Mn9 O33 1.949635 1_555
Mn9 O57 1.971996 1_555
Mn9 O75 1.994862 1_545
Mn9 O69 2.027839 1_455
Mn10 O58 2.001671 1_555
Mn10 O34 2.070608 1_555
Mn10 O70 2.082614 1_455
Mn10 O72 2.089461 1_555
Mn11 O35 1.923251 1_555
Mn11 O73 1.991816 1_555
Mn11 O59 2.004193 1_555
Mn11 O71 2.041878 1_455
Mn12 O60 2.003684 1_555
Mn12 O78 2.060572 1_545
Mn12 O36 2.065016 1_555
Mn12 O64 2.080110 1_555
Mn13 O37 2.022538 1_555
Mn13 O65 2.068444 1_555
Mn13 O79 2.071824 1_545
Mn13 O61 2.119129 1_555
Mn14 O62 1.991008 1_555
Mn14 O38 2.053662 1_555
Mn14 O76 2.081886 1_555
Mn14 O66 2.092517 1_555
Mn15 O39 2.028608 1_555
Mn15 O67 2.046500 1_555
Mn15 O63 2.054927 1_555
Mn15 O77 2.058175 1_555
Mn16 O40 1.884751 1_555
Mn16 O48 1.933749 1_555
Mn16 O66 1.973554 1_555
Mn16 O72 2.014185 1_555
Mn17 O49 2.038950 1_555
Mn17 O67 2.048512 1_555
Mn17 O73 2.059822 1_555
Mn17 O41 2.060100 1_555
Mn18 O42 2.010571 1_555
Mn18 O64 2.068616 1_565
Mn18 O50 2.082364 1_555
Mn18 O74 2.086983 1_555
Mn19 O51 1.999233 1_555
Mn19 O65 2.046031 1_565
Mn19 O43 2.076182 1_555
Mn19 O75 2.084886 1_555
Mn20 O44 1.876962 1_555
Mn20 O52 1.967503 1_555
Mn20 O70 1.984464 1_555
Mn20 O76 2.017646 1_555
Mn21 O53 1.947415 1_555
Mn21 O45 1.986374 1_555
Mn21 O77 2.020831 1_555
Mn21 O71 2.039521 1_555
Mn22 O46 1.999565 1_555
Mn22 O54 2.040938 1_555
Mn22 O78 2.076309 1_555
Mn22 O68 2.081681 1_565
Mn23 O55 2.026536 1_555
Mn23 O79 2.071749 1_555
Mn23 O69 2.074742 1_565
Mn23 O47 2.088231 1_555
O0 Sr7 2.628902 1_455
O0 Sr3 2.698576 1_555
O1 Ti0 1.907398 1_545
O2 Sr4 2.729937 1_555
O2 Sr0 2.746495 1_555
O3 Ti5 1.906994 1_556
O3 Ti1 2.068245 1_556
O3 Sr2 2.550716 1_555
O4 Ti3 1.997951 1_545
O4 Sr5 2.749845 1_555
O4 Sr1 2.750337 1_555
O5 Ti6 1.915318 1_555
O5 Ti2 2.070647 1_556
O5 Sr6 2.618142 1_555
O7 Ti7 1.910617 1_556
O7 Ti4 2.053860 1_556
O8 Ti1 1.920205 1_555
O8 Sr2 2.708818 1_554
O9 Sr3 2.585273 1_555
O9 Sr0 2.599841 1_555
O9 Sr7 2.649040 1_455
O10 Ti5 1.905036 1_555
O10 Ti0 2.055759 1_554
O11 Sr4 2.580917 1_555
O12 Ti6 1.906695 1_554
O12 Ti4 2.064730 1_555
O12 Sr6 2.842320 1_554
O13 Sr5 2.593015 1_555
O14 Ti7 1.915896 1_555
O14 Ti2 2.045746 1_565
O15 Ti3 1.989244 1_555
O15 Sr1 2.572135 1_565
O16 Ti3 1.959700 1_545
O16 Sr5 2.789086 1_555
O17 Ti2 1.881659 1_556
O17 Sr6 2.587986 1_555
O18 Sr0 2.742731 1_555
O19 Ti4 1.922693 1_556
O19 Ti5 2.049323 1_556
O19 Sr2 2.619547 1_555
O20 Sr7 2.563943 1_555
O20 Sr1 2.643131 1_555
O20 Sr3 2.695185 1_655
O21 Ti0 1.928473 1_645
O21 Ti6 2.045102 1_555
O22 Sr4 2.738419 1_655
O23 Ti1 1.945346 1_656
O23 Ti7 2.022524 1_556
O24 Ti4 1.884478 1_555
O24 Sr2 2.776693 1_554
O24 Sr6 2.801890 1_554
O25 Sr5 2.594775 1_555
O25 Sr0 2.616462 1_555
O26 Ti2 1.916902 1_565
O26 Ti5 2.034142 1_555
O27 Ti3 1.945615 1_555
O28 Ti1 1.916083 1_655
O28 Ti6 2.035987 1_554
O29 Sr3 2.586389 1_655
O29 Sr7 2.694709 1_555
O30 Ti0 1.946072 1_654
O30 Ti7 2.036239 1_555
O31 Sr4 2.557970 1_655
O31 Sr1 2.595605 1_565
O32 Ti0 2.135125 1_544
O33 Sr3 2.607878 1_555
O33 Sr1 2.828523 1_455
O33 Sr4 3.071777 1_545
O34 Ti1 1.946023 1_555
O35 Sr4 2.547420 1_555
O35 Sr0 2.747717 1_555
O35 Sr3 3.138391 1_555
O36 Ti2 1.954698 1_555
O37 Ti3 1.997541 1_545
O37 Sr5 2.481611 1_555
O37 Sr1 2.640753 1_555
O38 Ti4 2.000291 1_555
O39 Sr0 2.862207 1_555
O39 Sr5 3.181211 1_555
O41 Ti4 1.968662 1_556
O41 Sr6 2.468864 1_555
O41 Sr2 3.008051 1_555
O42 Ti3 1.988868 1_555
O43 Ti2 2.016382 1_566
O44 Sr7 2.557949 1_555
O45 Ti1 2.094333 1_656
O45 Sr2 2.628496 1_655
O47 Ti0 1.912904 1_655
O49 Sr5 2.670634 1_555
O49 Sr3 2.870897 1_555
O50 Ti5 1.936273 1_555
O51 Sr0 2.477027 1_555
O51 Sr4 2.876886 1_555
O52 Ti6 2.060239 1_554
O53 Sr1 2.544156 1_555
O53 Sr3 2.775842 1_655
O53 Sr5 2.787530 1_555
O54 Ti7 1.989047 1_555
O55 Sr4 2.723445 1_655
O56 Sr7 2.874785 1_455
O57 Sr2 2.500449 1_555
O57 Sr6 2.657864 1_555
O59 Ti5 2.066506 1_556
O60 Sr7 2.687537 1_555
O61 Ti6 1.937541 1_555
O61 Sr6 2.987262 1_555
O63 Ti7 1.976433 1_556
O65 Sr6 2.350992 1_555
O67 Sr0 2.433662 1_555
O68 Sr7 2.423011 1_555
O69 Sr1 2.450394 1_555
O73 Sr2 2.357098 1_555
O73 Sr3 2.413925 1_555
O75 Sr4 2.468817 1_555
O77 Sr5 2.442015 1_555
