# generated using pymatgen
data_Li8VO6
_symmetry_space_group_name_H-M   'P 1'
_cell_length_a   5.92643693
_cell_length_b   5.92643693
_cell_length_c   5.92643701
_cell_angle_alpha   54.77234904
_cell_angle_beta   54.77234904
_cell_angle_gamma   54.77234248
_symmetry_Int_Tables_number   1
_chemical_formula_structural   Li8VO6
_chemical_formula_sum   'Li8 V1 O6'
_cell_volume   129.26686747
_cell_formula_units_Z   1
loop_
 _symmetry_equiv_pos_site_id
 _symmetry_equiv_pos_as_xyz
  1  'x, y, z'
loop_
 _atom_site_type_symbol
 _atom_site_label
 _atom_site_symmetry_multiplicity
 _atom_site_fract_x
 _atom_site_fract_y
 _atom_site_fract_z
 _atom_site_occupancy
  Li  Li0  1  0.49180800  0.76454700  0.09890500  1
  Li  Li1  1  0.23545300  0.90109500  0.50819200  1
  Li  Li2  1  0.90109500  0.50819200  0.23545300  1
  Li  Li3  1  0.65836500  0.65836500  0.65836500  1
  Li  Li4  1  0.34163500  0.34163500  0.34163500  1
  Li  Li5  1  0.09890500  0.49180800  0.76454700  1
  Li  Li6  1  0.76454700  0.09890500  0.49180800  1
  Li  Li7  1  0.50819200  0.23545300  0.90109500  1
  V  V0  1  0.00000000  0.00000000  0.00000000  1
  O  O0  1  0.62467300  0.90514700  0.23375900  1
  O  O1  1  0.09485300  0.76624100  0.37532700  1
  O  O2  1  0.76624100  0.37532700  0.09485300  1
  O  O3  1  0.23375900  0.62467300  0.90514700  1
  O  O4  1  0.90514700  0.23375900  0.62467300  1
  O  O5  1  0.37532700  0.09485300  0.76624100  1
loop_
_geom_bond_atom_site_label_1
_geom_bond_atom_site_label_2
_geom_bond_distance
_geom_bond_site_symmetry_2
Li0 O2 1.912426 1_555
Li0 O5 1.937570 1_564
Li0 O1 1.940061 1_555
Li0 O0 2.050432 1_555
Li1 O0 1.912426 1_555
Li1 O4 1.937570 1_465
Li1 O3 1.940061 1_555
Li1 O1 2.050432 1_555
Li2 O4 1.912426 1_555
Li2 O3 1.937570 1_654
Li2 O0 1.940061 1_555
Li2 O2 2.050432 1_555
Li3 O4 2.123227 1_555
Li3 O0 2.123227 1_555
Li3 O3 2.123227 1_555
Li3 O5 2.361974 1_565
Li3 O2 2.361975 1_556
Li3 O1 2.361975 1_655
Li4 O1 2.123227 1_555
Li4 O5 2.123227 1_555
Li4 O2 2.123227 1_555
Li4 O0 2.361974 1_545
Li4 O3 2.361975 1_554
Li4 O4 2.361975 1_455
Li5 O1 1.912426 1_555
Li5 O2 1.937570 1_456
Li5 O5 1.940061 1_555
Li5 O3 2.050432 1_555
Li6 O5 1.912426 1_555
Li6 O1 1.937570 1_645
Li6 O2 1.940061 1_555
Li6 O4 2.050432 1_555
Li7 O3 1.912426 1_555
Li7 O0 1.937570 1_546
Li7 O4 1.940061 1_555
Li7 O5 2.050432 1_555
O0 V0 2.042560 1_665
O1 V0 2.042560 1_565
O2 V0 2.042560 1_655
O3 V0 2.042560 1_566
O4 V0 2.042560 1_656
O5 V0 2.042560 1_556
