# generated using pymatgen
data_Ca2TaMoO6
_symmetry_space_group_name_H-M   'P 1'
_cell_length_a   7.95891700
_cell_length_b   5.57451800
_cell_length_c   5.75188744
_cell_angle_alpha   89.62921116
_cell_angle_beta   90.00000000
_cell_angle_gamma   90.00000000
_symmetry_Int_Tables_number   1
_chemical_formula_structural   Ca2TaMoO6
_chemical_formula_sum   'Ca4 Ta2 Mo2 O12'
_cell_volume   255.18937165
_cell_formula_units_Z   2
loop_
 _symmetry_equiv_pos_site_id
 _symmetry_equiv_pos_as_xyz
  1  'x, y, z'
loop_
 _atom_site_type_symbol
 _atom_site_label
 _atom_site_symmetry_multiplicity
 _atom_site_fract_x
 _atom_site_fract_y
 _atom_site_fract_z
 _atom_site_occupancy
  Ca  Ca0  1  0.75000000  0.99019900  0.04381500  1
  Ca  Ca1  1  0.75000000  0.50958700  0.56209200  1
  Ca  Ca2  1  0.25000000  0.49041300  0.43790800  1
  Ca  Ca3  1  0.25000000  0.00980100  0.95618500  1
  Ta  Ta0  1  0.00000000  0.00000000  0.50000000  1
  Ta  Ta1  1  0.50000000  0.00000000  0.50000000  1
  Mo  Mo0  1  0.00000000  0.50000000  0.00000000  1
  Mo  Mo1  1  0.50000000  0.50000000  0.00000000  1
  O  O0  1  0.44764000  0.18683000  0.21418500  1
  O  O1  1  0.54969600  0.71034600  0.31172300  1
  O  O2  1  0.55236000  0.81317000  0.78581500  1
  O  O3  1  0.04969600  0.28965400  0.68827700  1
  O  O4  1  0.25000000  0.90694800  0.53313500  1
  O  O5  1  0.45030400  0.28965400  0.68827700  1
  O  O6  1  0.95030400  0.71034600  0.31172300  1
  O  O7  1  0.05236000  0.18683000  0.21418500  1
  O  O8  1  0.75000000  0.38203600  0.95165900  1
  O  O9  1  0.94764000  0.81317000  0.78581500  1
  O  O10  1  0.25000000  0.61796400  0.04834100  1
  O  O11  1  0.75000000  0.09305200  0.46686500  1
loop_
_geom_bond_atom_site_label_1
_geom_bond_atom_site_label_2
_geom_bond_distance
_geom_bond_site_symmetry_2
Ca0 O8 2.244363 1_564
Ca0 O2 2.381045 1_554
Ca0 O9 2.381045 1_554
Ca0 O11 2.503581 1_565
Ca0 O1 2.705313 1_555
Ca0 O6 2.705313 1_555
Ca0 O7 2.822540 1_665
Ca0 O0 2.822540 1_565
Ca1 O8 2.346463 1_555
Ca1 O11 2.389158 1_555
Ca1 O6 2.418048 1_555
Ca1 O1 2.418048 1_555
Ca1 O2 2.649986 1_555
Ca1 O9 2.649986 1_555
Ca1 O3 2.776300 1_655
Ca1 O5 2.776300 1_555
Ca2 O10 2.346463 1_555
Ca2 O4 2.389158 1_555
Ca2 O5 2.418048 1_555
Ca2 O3 2.418048 1_555
Ca2 O0 2.649986 1_555
Ca2 O7 2.649986 1_555
Ca2 O1 2.776300 1_555
Ca2 O6 2.776300 1_455
Ca3 O10 2.244363 1_546
Ca3 O0 2.381045 1_556
Ca3 O7 2.381045 1_556
Ca3 O4 2.503581 1_545
Ca3 O5 2.705313 1_555
Ca3 O3 2.705313 1_555
Ca3 O2 2.822540 1_545
Ca3 O9 2.822540 1_445
Mo0 O10 2.114505 1_555
Mo0 O8 2.114505 1_454
Mo0 O9 2.170551 1_454
Mo0 O7 2.170551 1_555
Mo0 O3 2.184817 1_554
Mo0 O6 2.184817 1_455
Mo1 O8 2.114505 1_554
Mo1 O10 2.114505 1_555
Mo1 O2 2.170551 1_554
Mo1 O0 2.170551 1_555
Mo1 O1 2.184817 1_555
Mo1 O5 2.184817 1_554
O0 Ta1 1.984655 1_555
O1 Ta1 1.989735 1_565
O2 Ta1 1.984655 1_565
O3 Ta0 1.989735 1_555
O4 Ta0 2.064737 1_565
O4 Ta1 2.064737 1_565
O5 Ta1 1.989735 1_555
O6 Ta0 1.989735 1_665
O7 Ta0 1.984655 1_555
O9 Ta0 1.984655 1_665
O11 Ta1 2.064737 1_555
O11 Ta0 2.064737 1_655
