# generated using pymatgen
data_Mg14ZnNi
_symmetry_space_group_name_H-M   'P 1'
_cell_length_a   6.25921198
_cell_length_b   6.25921148
_cell_length_c   9.79587569
_cell_angle_alpha   90.00000000
_cell_angle_beta   90.00000000
_cell_angle_gamma   120.00000262
_symmetry_Int_Tables_number   1
_chemical_formula_structural   Mg14ZnNi
_chemical_formula_sum   'Mg14 Zn1 Ni1'
_cell_volume   332.36338322
_cell_formula_units_Z   1
loop_
 _symmetry_equiv_pos_site_id
 _symmetry_equiv_pos_as_xyz
  1  'x, y, z'
loop_
 _atom_site_type_symbol
 _atom_site_label
 _atom_site_symmetry_multiplicity
 _atom_site_fract_x
 _atom_site_fract_y
 _atom_site_fract_z
 _atom_site_occupancy
  Mg  Mg0  1  0.16646326  0.83323113  0.12500000  1
  Mg  Mg1  1  0.16425678  0.83212789  0.62500000  1
  Mg  Mg2  1  0.66676887  0.33353674  0.12500000  1
  Mg  Mg3  1  0.66787211  0.33574322  0.62500000  1
  Mg  Mg4  1  0.66676887  0.83323113  0.12500000  1
  Mg  Mg5  1  0.66787211  0.83212789  0.62500000  1
  Mg  Mg6  1  0.32606895  0.17393105  0.37971437  1
  Mg  Mg7  1  0.32606895  0.17393105  0.87028563  1
  Mg  Mg8  1  0.32606895  0.65213891  0.37971437  1
  Mg  Mg9  1  0.32606895  0.65213891  0.87028563  1
  Mg  Mg10  1  0.84786109  0.17393105  0.37971437  1
  Mg  Mg11  1  0.84786109  0.17393105  0.87028563  1
  Mg  Mg12  1  0.83333300  0.66666700  0.37343234  1
  Mg  Mg13  1  0.83333300  0.66666700  0.87656766  1
  Zn  Zn0  1  0.16666700  0.33333300  0.12500000  1
  Ni  Ni0  1  0.16666700  0.33333300  0.62500000  1
loop_
_geom_bond_atom_site_label_1
_geom_bond_atom_site_label_2
_geom_bond_distance
_geom_bond_site_symmetry_2
Mg0 Mg13 3.030397 1_454
Mg0 Mg12 3.030397 1_455
Mg0 Mg9 3.104990 1_554
Mg0 Mg8 3.104990 1_555
Mg0 Mg7 3.104997 1_564
Mg0 Mg6 3.104997 1_565
Mg0 Mg2 3.127693 1_455
Mg0 Mg4 3.127693 1_455
Mg0 Zn0 3.129606 1_565
Mg0 Zn0 3.129606 1_555
Mg0 Mg2 3.131519 1_565
Mg0 Mg4 3.131519 1_555
Mg1 Mg8 3.034702 1_555
Mg1 Mg9 3.034702 1_555
Mg1 Mg6 3.034709 1_565
Mg1 Mg7 3.034709 1_565
Mg1 Mg12 3.048062 1_455
Mg1 Mg13 3.048062 1_455
Mg1 Mg3 3.106977 1_455
Mg1 Mg5 3.106977 1_455
Mg1 Ni0 3.129633 1_565
Mg1 Ni0 3.129633 1_555
Mg1 Mg3 3.152235 1_565
Mg1 Mg5 3.152235 1_555
Mg2 Mg7 3.104997 1_554
Mg2 Mg6 3.104997 1_555
Mg2 Mg4 3.127693 1_555
Mg2 Zn0 3.129606 1_655
Mg2 Zn0 3.129606 1_555
Mg2 Mg4 3.131519 1_545
Mg3 Mg6 3.034709 1_555
Mg3 Mg7 3.034709 1_555
Mg3 Mg5 3.106977 1_555
Mg3 Ni0 3.129633 1_655
Mg3 Ni0 3.129633 1_555
Mg3 Mg5 3.152235 1_545
Mg4 Mg9 3.104997 1_554
Mg4 Mg8 3.104997 1_555
Mg4 Zn0 3.129606 1_665
Mg4 Zn0 3.129606 1_555
Mg5 Mg8 3.034709 1_555
Mg5 Mg9 3.034709 1_555
Mg5 Ni0 3.129633 1_665
Mg5 Ni0 3.129633 1_555
Mg6 Ni0 2.959694 1_555
Mg6 Mg8 2.993204 1_555
Mg6 Zn0 3.035156 1_555
Mg6 Mg8 3.266007 1_545
Mg7 Ni0 2.959694 1_555
Mg7 Mg9 2.993204 1_555
Mg7 Zn0 3.035156 1_556
Mg7 Mg9 3.266007 1_545
Mg8 Ni0 2.959700 1_555
Mg8 Zn0 3.035162 1_555
Mg9 Ni0 2.959700 1_555
Mg9 Zn0 3.035162 1_556
Mg10 Ni0 2.959700 1_655
Mg10 Mg8 2.993204 1_655
Mg10 Mg6 2.993204 1_655
Mg10 Mg3 3.034702 1_555
Mg10 Mg5 3.034709 1_545
Mg10 Zn0 3.035163 1_655
Mg10 Mg2 3.104990 1_555
Mg10 Mg4 3.104997 1_545
Mg10 Mg12 3.131201 1_555
Mg10 Mg12 3.131201 1_545
Mg10 Mg8 3.266007 1_545
Mg10 Mg6 3.266008 1_555
Mg11 Ni0 2.959700 1_655
Mg11 Mg9 2.993204 1_655
Mg11 Mg7 2.993204 1_655
Mg11 Mg3 3.034702 1_555
Mg11 Mg5 3.034709 1_545
Mg11 Zn0 3.035163 1_656
Mg11 Mg2 3.104990 1_556
Mg11 Mg4 3.104997 1_546
Mg11 Mg13 3.131201 1_555
Mg11 Mg13 3.131201 1_545
Mg11 Mg9 3.266007 1_545
Mg11 Mg7 3.266008 1_555
Mg12 Mg4 3.030390 1_555
Mg12 Mg2 3.030396 1_555
Mg12 Mg5 3.048056 1_555
Mg12 Mg3 3.048062 1_555
Mg12 Mg6 3.131201 1_665
Mg12 Mg6 3.131201 1_555
Mg12 Mg8 3.131201 1_655
Mg12 Mg8 3.131201 1_555
Mg13 Mg4 3.030390 1_556
Mg13 Mg2 3.030396 1_556
Mg13 Mg5 3.048056 1_555
Mg13 Mg3 3.048062 1_555
Mg13 Mg7 3.131201 1_665
Mg13 Mg7 3.131201 1_555
Mg13 Mg9 3.131201 1_655
Mg13 Mg9 3.131201 1_555
