# generated using pymatgen
data_Nd9Ga5Se21
_symmetry_space_group_name_H-M   'P 1'
_cell_length_a   12.30169198
_cell_length_b   12.30169198
_cell_length_c   12.30169151
_cell_angle_alpha   96.05092442
_cell_angle_beta   96.05092442
_cell_angle_gamma   96.05092604
_symmetry_Int_Tables_number   1
_chemical_formula_structural   Nd9Ga5Se21
_chemical_formula_sum   'Nd18 Ga10 Se42'
_cell_volume   1828.12371255
_cell_formula_units_Z   2
loop_
 _symmetry_equiv_pos_site_id
 _symmetry_equiv_pos_as_xyz
  1  'x, y, z'
loop_
 _atom_site_type_symbol
 _atom_site_label
 _atom_site_symmetry_multiplicity
 _atom_site_fract_x
 _atom_site_fract_y
 _atom_site_fract_z
 _atom_site_occupancy
  Nd  Nd0  1  0.11554900  0.88194900  0.74499200  1
  Nd  Nd1  1  0.45478800  0.22129700  0.08131200  1
  Nd  Nd2  1  0.78195500  0.55156800  0.40991100  1
  Nd  Nd3  1  0.40991100  0.78195500  0.55156800  1
  Nd  Nd4  1  0.74499200  0.11554900  0.88194900  1
  Nd  Nd5  1  0.08131200  0.45478800  0.22129700  1
  Nd  Nd6  1  0.22129700  0.08131200  0.45478800  1
  Nd  Nd7  1  0.55156800  0.40991100  0.78195500  1
  Nd  Nd8  1  0.88194900  0.74499200  0.11554900  1
  Nd  Nd9  1  0.21293000  0.44529200  0.58353000  1
  Nd  Nd10  1  0.55010300  0.78310100  0.92405600  1
  Nd  Nd11  1  0.88033500  0.11221900  0.25182400  1
  Nd  Nd12  1  0.92405600  0.55010300  0.78310100  1
  Nd  Nd13  1  0.25182400  0.88033500  0.11221900  1
  Nd  Nd14  1  0.58353000  0.21293000  0.44529200  1
  Nd  Nd15  1  0.11221900  0.25182400  0.88033500  1
  Nd  Nd16  1  0.44529200  0.58353000  0.21293000  1
  Nd  Nd17  1  0.78310100  0.92405600  0.55010300  1
  Ga  Ga0  1  0.72216900  0.38891900  0.05535300  1
  Ga  Ga1  1  0.05535300  0.72216900  0.38891900  1
  Ga  Ga2  1  0.38891900  0.05535300  0.72216900  1
  Ga  Ga3  1  0.88833000  0.22286800  0.55532400  1
  Ga  Ga4  1  0.22286800  0.55532400  0.88833000  1
  Ga  Ga5  1  0.55532400  0.88833000  0.22286800  1
  Ga  Ga6  1  0.85294600  0.85294600  0.85294600  1
  Ga  Ga7  1  0.15524800  0.15524800  0.15524800  1
  Ga  Ga8  1  0.65504000  0.65504000  0.65504000  1
  Ga  Ga9  1  0.35294900  0.35294900  0.35294900  1
  Se  Se0  1  0.55169500  0.39448900  0.30322500  1
  Se  Se1  1  0.88593800  0.74242300  0.65313200  1
  Se  Se2  1  0.23026000  0.08121300  0.98522000  1
  Se  Se3  1  0.98522000  0.23026000  0.08121300  1
  Se  Se4  1  0.30322500  0.55169500  0.39448900  1
  Se  Se5  1  0.65313200  0.88593800  0.74242300  1
  Se  Se6  1  0.74242300  0.65313200  0.88593800  1
  Se  Se7  1  0.08121300  0.98522000  0.23026000  1
  Se  Se8  1  0.39448900  0.30322500  0.55169500  1
  Se  Se9  1  0.13496400  0.27924800  0.36753900  1
  Se  Se10  1  0.46733700  0.61638300  0.71275100  1
  Se  Se11  1  0.78123400  0.93837100  0.02976200  1
  Se  Se12  1  0.71275100  0.46733700  0.61638300  1
  Se  Se13  1  0.02976200  0.78123400  0.93837100  1
  Se  Se14  1  0.36753900  0.13496400  0.27924800  1
  Se  Se15  1  0.93837100  0.02976200  0.78123400  1
  Se  Se16  1  0.27924800  0.36753900  0.13496400  1
  Se  Se17  1  0.61638300  0.71275100  0.46733700  1
  Se  Se18  1  0.53971700  0.44822100  0.02117800  1
  Se  Se19  1  0.87346500  0.78124400  0.35826100  1
  Se  Se20  1  0.20393400  0.11015300  0.69555700  1
  Se  Se21  1  0.69555700  0.20393400  0.11015300  1
  Se  Se22  1  0.02117800  0.53971700  0.44822100  1
  Se  Se23  1  0.35826100  0.87346500  0.78124400  1
  Se  Se24  1  0.78124400  0.35826100  0.87346500  1
  Se  Se25  1  0.11015300  0.69555700  0.20393400  1
  Se  Se26  1  0.44822100  0.02117800  0.53971700  1
  Se  Se27  1  0.96805200  0.06327600  0.47849200  1
  Se  Se28  1  0.30166700  0.39356800  0.81405000  1
  Se  Se29  1  0.63458500  0.72490400  0.15366500  1
  Se  Se30  1  0.81405000  0.30166700  0.39356800  1
  Se  Se31  1  0.15366500  0.63458500  0.72490400  1
  Se  Se32  1  0.47849200  0.96805200  0.06327600  1
  Se  Se33  1  0.72490400  0.15366500  0.63458500  1
  Se  Se34  1  0.06327600  0.47849200  0.96805200  1
  Se  Se35  1  0.39356800  0.81405000  0.30166700  1
  Se  Se36  1  0.84662900  0.51612600  0.18177500  1
  Se  Se37  1  0.18177500  0.84662900  0.51612600  1
  Se  Se38  1  0.51612600  0.18177500  0.84662900  1
  Se  Se39  1  0.68112700  0.01667500  0.34679700  1
  Se  Se40  1  0.01667500  0.34679700  0.68112700  1
  Se  Se41  1  0.34679700  0.68112700  0.01667500  1
loop_
_geom_bond_atom_site_label_1
_geom_bond_atom_site_label_2
_geom_bond_distance
_geom_bond_site_symmetry_2
Nd0 Se23 2.986532 1_555
Nd0 Se37 3.013222 1_555
Nd0 Se15 3.020808 1_465
Nd0 Se13 3.030322 1_555
Nd0 Se20 3.047743 1_565
Nd0 Se31 3.115679 1_555
Nd0 Se1 3.177649 1_455
Nd0 Se2 3.687506 1_565
Nd1 Se21 2.978583 1_555
Nd1 Se14 3.010773 1_555
Nd1 Se16 3.033885 1_555
Nd1 Se38 3.062872 1_554
Nd1 Se18 3.068379 1_555
Nd1 Se2 3.142414 1_554
Nd1 Se32 3.146275 1_545
Nd1 Se0 3.311348 1_555
Nd2 Se22 2.952330 1_655
Nd2 Se36 2.997529 1_555
Nd2 Se12 3.012402 1_555
Nd2 Se17 3.072255 1_555
Nd2 Se19 3.084249 1_555
Nd2 Se30 3.128796 1_555
Nd2 Se0 3.317765 1_555
Nd2 Se1 3.630400 1_555
Nd3 Se26 2.952330 1_565
Nd3 Se37 2.997529 1_555
Nd3 Se17 3.012402 1_555
Nd3 Se10 3.072255 1_555
Nd3 Se23 3.084249 1_555
Nd3 Se35 3.128796 1_555
Nd3 Se4 3.317765 1_555
Nd3 Se5 3.630400 1_555
Nd4 Se24 2.986532 1_555
Nd4 Se38 3.013222 1_555
Nd4 Se11 3.020808 1_546
Nd4 Se15 3.030322 1_555
Nd4 Se21 3.047743 1_556
Nd4 Se33 3.115679 1_555
Nd4 Se5 3.177649 1_545
Nd4 Se3 3.687506 1_556
Nd5 Se25 2.978583 1_555
Nd5 Se16 3.010773 1_555
Nd5 Se9 3.033885 1_555
Nd5 Se36 3.062872 1_455
Nd5 Se22 3.068379 1_555
Nd5 Se3 3.142414 1_455
Nd5 Se34 3.146275 1_554
Nd5 Se4 3.311348 1_555
Nd6 Se20 2.978583 1_555
Nd6 Se9 3.010773 1_555
Nd6 Se14 3.033885 1_555
Nd6 Se37 3.062872 1_545
Nd6 Se26 3.068379 1_555
Nd6 Se7 3.142414 1_545
Nd6 Se27 3.146275 1_455
Nd6 Se8 3.311348 1_555
Nd7 Se18 2.952330 1_556
Nd7 Se38 2.997529 1_555
Nd7 Se10 3.012402 1_555
Nd7 Se12 3.072255 1_555
Nd7 Se24 3.084249 1_555
Nd7 Se28 3.128796 1_555
Nd7 Se8 3.317765 1_555
Nd7 Se6 3.630400 1_555
Nd8 Se19 2.986532 1_555
Nd8 Se36 3.013222 1_555
Nd8 Se13 3.020808 1_654
Nd8 Se11 3.030322 1_555
Nd8 Se25 3.047743 1_655
Nd8 Se29 3.115679 1_555
Nd8 Se6 3.177649 1_554
Nd8 Se7 3.687506 1_655
Nd9 Se31 2.958050 1_555
Nd9 Se40 3.006548 1_555
Nd9 Se8 3.009848 1_555
Nd9 Se4 3.038918 1_555
Nd9 Se28 3.084217 1_555
Nd9 Se22 3.137155 1_555
Nd9 Se9 3.171376 1_555
Nd9 Se10 3.688965 1_555
Nd10 Se32 2.967306 1_556
Nd10 Se5 3.009025 1_555
Nd10 Se6 3.040850 1_555
Nd10 Se41 3.060638 1_556
Nd10 Se29 3.087910 1_556
Nd10 Se10 3.142877 1_555
Nd10 Se23 3.159493 1_555
Nd10 Se11 3.312947 1_556
Nd11 Se30 2.996732 1_555
Nd11 Se3 2.999467 1_555
Nd11 Se39 3.006283 1_555
Nd11 Se27 3.026323 1_555
Nd11 Se7 3.079357 1_645
Nd11 Se21 3.097938 1_555
Nd11 Se11 3.322483 1_545
Nd11 Se9 3.625798 1_655
Nd12 Se34 2.967306 1_655
Nd12 Se6 3.009025 1_555
Nd12 Se1 3.040850 1_555
Nd12 Se40 3.060638 1_655
Nd12 Se31 3.087910 1_655
Nd12 Se12 3.142877 1_555
Nd12 Se24 3.159493 1_555
Nd12 Se13 3.312947 1_655
Nd13 Se35 2.996732 1_555
Nd13 Se7 2.999467 1_555
Nd13 Se41 3.006283 1_555
Nd13 Se32 3.026323 1_555
Nd13 Se2 3.079357 1_564
Nd13 Se25 3.097938 1_555
Nd13 Se13 3.322483 1_554
Nd13 Se14 3.625798 1_565
Nd14 Se33 2.958049 1_555
Nd14 Se39 3.006548 1_555
Nd14 Se0 3.009848 1_555
Nd14 Se8 3.038918 1_555
Nd14 Se30 3.084217 1_555
Nd14 Se26 3.137155 1_555
Nd14 Se14 3.171376 1_555
Nd14 Se12 3.688965 1_555
Nd15 Se28 2.996732 1_555
Nd15 Se2 2.999467 1_555
Nd15 Se40 3.006283 1_555
Nd15 Se34 3.026323 1_555
Nd15 Se3 3.079357 1_456
Nd15 Se20 3.097938 1_555
Nd15 Se15 3.322483 1_455
Nd15 Se16 3.625797 1_556
Nd16 Se29 2.958049 1_555
Nd16 Se41 3.006548 1_555
Nd16 Se4 3.009848 1_555
Nd16 Se0 3.038918 1_555
Nd16 Se35 3.084217 1_555
Nd16 Se18 3.137155 1_555
Nd16 Se16 3.171376 1_555
Nd16 Se17 3.688965 1_555
Nd17 Se27 2.967306 1_565
Nd17 Se1 3.009025 1_555
Nd17 Se5 3.040850 1_555
Nd17 Se39 3.060638 1_565
Nd17 Se33 3.087910 1_565
Nd17 Se17 3.142877 1_555
Nd17 Se19 3.159493 1_555
Nd17 Se15 3.312947 1_565
Ga0 Se36 2.385671 1_555
Ga0 Se24 2.428908 1_554
Ga0 Se21 2.439877 1_555
Ga0 Se18 2.440799 1_555
Ga1 Se37 2.385671 1_555
Ga1 Se19 2.428908 1_455
Ga1 Se25 2.439877 1_555
Ga1 Se22 2.440799 1_555
Ga2 Se38 2.385671 1_555
Ga2 Se23 2.428908 1_545
Ga2 Se20 2.439877 1_555
Ga2 Se26 2.440799 1_555
Ga3 Se40 2.385799 1_655
Ga3 Se27 2.433029 1_555
Ga3 Se30 2.438092 1_555
Ga3 Se33 2.438168 1_555
Ga4 Se41 2.385799 1_556
Ga4 Se34 2.433029 1_555
Ga4 Se28 2.438092 1_555
Ga4 Se31 2.438168 1_555
Ga5 Se39 2.385799 1_565
Ga5 Se32 2.433029 1_555
Ga5 Se35 2.438092 1_555
Ga5 Se29 2.438168 1_555
Ga6 Se11 2.594586 1_556
Ga6 Se15 2.594586 1_565
Ga6 Se13 2.594586 1_655
Ga6 Se1 2.770808 1_555
Ga6 Se6 2.770808 1_555
Ga6 Se5 2.770808 1_555
Ga7 Se2 2.497678 1_554
Ga7 Se7 2.497678 1_545
Ga7 Se3 2.497678 1_455
Ga7 Se9 2.930366 1_555
Ga7 Se16 2.930366 1_555
Ga7 Se14 2.930366 1_555
Ga8 Se17 2.499445 1_555
Ga8 Se10 2.499445 1_555
Ga8 Se12 2.499445 1_555
Ga8 Se6 2.932544 1_555
Ga8 Se1 2.932544 1_555
Ga8 Se5 2.932545 1_555
Ga9 Se8 2.594356 1_555
Ga9 Se0 2.594357 1_555
Ga9 Se4 2.594357 1_555
Ga9 Se16 2.769174 1_555
Ga9 Se9 2.769174 1_555
Ga9 Se14 2.769174 1_555
