# generated using pymatgen
data_MgAs4(PO4)4
_symmetry_space_group_name_H-M   'P 1'
_cell_length_a   5.08061963
_cell_length_b   8.40415866
_cell_length_c   9.00342295
_cell_angle_alpha   96.56790114
_cell_angle_beta   90.00000000
_cell_angle_gamma   90.00000000
_symmetry_Int_Tables_number   1
_chemical_formula_structural   MgAs4(PO4)4
_chemical_formula_sum   'Mg1 As4 P4 O16'
_cell_volume   381.90813440
_cell_formula_units_Z   1
loop_
 _symmetry_equiv_pos_site_id
 _symmetry_equiv_pos_as_xyz
  1  'x, y, z'
loop_
 _atom_site_type_symbol
 _atom_site_label
 _atom_site_symmetry_multiplicity
 _atom_site_fract_x
 _atom_site_fract_y
 _atom_site_fract_z
 _atom_site_occupancy
  Mg  Mg0  1  0.25000000  0.89078894  0.06127792  1
  As  As0  1  0.25000000  0.65688460  0.68738763  1
  As  As1  1  0.75000000  0.32454772  0.26077889  1
  As  As2  1  0.75000000  0.17842384  0.78030712  1
  As  As3  1  0.25000000  0.67467764  0.25688924  1
  P  P0  1  0.25000000  0.30489082  0.61150195  1
  P  P1  1  0.75000000  0.68333490  0.41482845  1
  P  P2  1  0.75000000  0.83632336  0.86275396  1
  P  P3  1  0.25000000  0.20192065  0.09943649  1
  O  O0  1  0.25000000  0.36381614  0.46213495  1
  O  O1  1  0.75000000  0.61943656  0.56550161  1
  O  O2  1  0.75000000  0.91484779  0.02183389  1
  O  O3  1  0.25000000  0.10543881  0.94309885  1
  O  O4  1  0.25000000  0.45269411  0.74384365  1
  O  O5  1  0.75000000  0.54385759  0.27620886  1
  O  O6  1  0.75000000  0.95550785  0.73897188  1
  O  O7  1  0.25000000  0.08652065  0.21693018  1
  O  O8  1  0.00364215  0.31941287  0.11262865  1
  O  O9  1  0.49298372  0.73103375  0.84350023  1
  O  O10  1  0.99370982  0.78760485  0.38594281  1
  O  O11  1  0.49619235  0.19832606  0.63822856  1
  O  O12  1  0.00701628  0.73103375  0.84350023  1
  O  O13  1  0.49635785  0.31941287  0.11262865  1
  O  O14  1  0.00380765  0.19832606  0.63822856  1
  O  O15  1  0.50629018  0.78760485  0.38594281  1
loop_
_geom_bond_atom_site_label_1
_geom_bond_atom_site_label_2
_geom_bond_distance
_geom_bond_site_symmetry_2
Mg0 O7 2.035307 1_565
Mg0 O3 2.196694 1_564
Mg0 O12 2.562988 1_554
Mg0 O9 2.562988 1_554
Mg0 O2 2.576160 1_455
Mg0 O2 2.576160 1_555
As0 O4 1.844649 1_555
As0 O12 1.920296 1_555
As0 O9 1.920296 1_555
As1 O5 1.832429 1_555
As1 O8 1.851626 1_655
As1 O13 1.851626 1_555
As2 O14 1.837408 1_655
As2 O11 1.837408 1_555
As2 O6 1.867810 1_545
As3 O15 1.921982 1_555
As3 O10 1.921982 1_455
As3 Mg0 2.670612 1_555
O0 P0 1.485300 1_555
O1 P1 1.515034 1_555
O2 P2 1.506873 1_554
O3 P3 1.541962 1_556
O4 P0 1.619915 1_555
O5 P1 1.611519 1_555
O6 P2 1.581355 1_555
O7 P3 1.514702 1_555
O8 P3 1.590255 1_555
O9 P2 1.575777 1_555
O10 P1 1.555894 1_555
O11 P0 1.572833 1_555
O12 P2 1.575777 1_455
O13 P3 1.590255 1_555
O14 P0 1.572833 1_555
O15 P1 1.555894 1_555
