# generated using pymatgen
data_AlAgO3
_symmetry_space_group_name_H-M   'P 1'
_cell_length_a   3.75102800
_cell_length_b   3.75102800
_cell_length_c   3.75102800
_cell_angle_alpha   90.00000000
_cell_angle_beta   90.00000000
_cell_angle_gamma   90.00000000
_symmetry_Int_Tables_number   1
_chemical_formula_structural   AlAgO3
_chemical_formula_sum   'Al1 Ag1 O3'
_cell_volume   52.77775564
_cell_formula_units_Z   1
loop_
 _symmetry_equiv_pos_site_id
 _symmetry_equiv_pos_as_xyz
  1  'x, y, z'
loop_
 _atom_site_type_symbol
 _atom_site_label
 _atom_site_symmetry_multiplicity
 _atom_site_fract_x
 _atom_site_fract_y
 _atom_site_fract_z
 _atom_site_occupancy
  Al  Al0  1  0.00000000  0.00000000  0.00000000  1
  Ag  Ag0  1  0.50000000  0.50000000  0.50000000  1
  O  O0  1  0.00000000  0.00000000  0.50000000  1
  O  O1  1  0.00000000  0.50000000  0.00000000  1
  O  O2  1  0.50000000  0.00000000  0.00000000  1
loop_
_geom_bond_atom_site_label_1
_geom_bond_atom_site_label_2
_geom_bond_distance
_geom_bond_site_symmetry_2
Al0 O1 1.875514 1_555
Al0 O2 1.875514 1_455
Al0 O0 1.875514 1_555
Al0 O2 1.875514 1_555
Al0 O1 1.875514 1_545
Al0 O0 1.875514 1_554
Ag0 O2 2.652377 1_556
Ag0 O0 2.652377 1_665
Ag0 O1 2.652377 1_656
Ag0 O1 2.652377 1_655
Ag0 O2 2.652377 1_565
Ag0 O0 2.652377 1_565
Ag0 O2 2.652377 1_566
Ag0 O0 2.652377 1_655
Ag0 O1 2.652377 1_555
Ag0 O0 2.652377 1_555
Ag0 O1 2.652377 1_556
Ag0 O2 2.652377 1_555
