# generated using pymatgen
data_KY2F7
_symmetry_space_group_name_H-M   'P 1'
_cell_length_a   8.18551123
_cell_length_b   8.18551123
_cell_length_c   11.94422935
_cell_angle_alpha   59.65888822
_cell_angle_beta   59.65888822
_cell_angle_gamma   58.51160962
_symmetry_Int_Tables_number   1
_chemical_formula_structural   KY2F7
_chemical_formula_sum   'K4 Y8 F28'
_cell_volume   556.41823356
_cell_formula_units_Z   4
loop_
 _symmetry_equiv_pos_site_id
 _symmetry_equiv_pos_as_xyz
  1  'x, y, z'
loop_
 _atom_site_type_symbol
 _atom_site_label
 _atom_site_symmetry_multiplicity
 _atom_site_fract_x
 _atom_site_fract_y
 _atom_site_fract_z
 _atom_site_occupancy
  K  K0  1  0.26308017  0.26308017  0.97891012  1
  K  K1  1  0.76739139  0.76739139  0.65274004  1
  K  K2  1  0.23260861  0.23260861  0.34725996  1
  K  K3  1  0.73691983  0.73691983  0.02108988  1
  Y  Y0  1  0.74068567  0.25931433  -0.00000000  1
  Y  Y1  1  0.25931433  0.74068567  -0.00000000  1
  Y  Y2  1  0.24038043  0.24038043  0.67881303  1
  Y  Y3  1  0.75961957  0.75961957  0.32118697  1
  Y  Y4  1  0.76537417  0.23907725  0.31797229  1
  Y  Y5  1  0.23907725  0.76537417  0.31797229  1
  Y  Y6  1  0.76092275  0.23462583  0.68202771  1
  Y  Y7  1  0.23462583  0.76092275  0.68202771  1
  F  F0  1  0.88076993  0.35449917  0.76255264  1
  F  F1  1  0.35449917  0.88076993  0.76255264  1
  F  F2  1  0.86857149  0.33697547  0.08303279  1
  F  F3  1  0.33697547  0.86857149  0.08303279  1
  F  F4  1  0.49545822  0.49545822  0.73606294  1
  F  F5  1  0.10542262  0.10542262  0.24834099  1
  F  F6  1  0.39409347  0.39409347  0.07434921  1
  F  F7  1  0.50464560  0.16853970  0.50069780  1
  F  F8  1  0.16853970  0.50464560  0.50069780  1
  F  F9  1  0.89457738  0.89457738  0.75165901  1
  F  F10  1  0.49535440  0.83146030  0.49930220  1
  F  F11  1  0.83146030  0.49535440  0.49930220  1
  F  F12  1  0.64550083  0.11923007  0.23744736  1
  F  F13  1  0.11923007  0.64550083  0.23744736  1
  F  F14  1  0.82430420  0.17569580  0.50000000  1
  F  F15  1  0.17569580  0.82430420  0.50000000  1
  F  F16  1  0.50454178  0.50454178  0.26393706  1
  F  F17  1  0.10525085  0.10525085  0.91275162  1
  F  F18  1  0.49707501  0.15425282  0.74079498  1
  F  F19  1  0.15425282  0.49707501  0.74079498  1
  F  F20  1  0.50292499  0.84574718  0.25920502  1
  F  F21  1  0.84574718  0.50292499  0.25920502  1
  F  F22  1  0.88675417  0.88675417  0.38195215  1
  F  F23  1  0.60590653  0.60590653  0.92565079  1
  F  F24  1  0.89474915  0.89474915  0.08724838  1
  F  F25  1  0.66302453  0.13142851  0.91696721  1
  F  F26  1  0.13142851  0.66302453  0.91696721  1
  F  F27  1  0.11324583  0.11324583  0.61804785  1
loop_
_geom_bond_atom_site_label_1
_geom_bond_atom_site_label_2
_geom_bond_distance
_geom_bond_site_symmetry_2
F0 Y0 2.319647 1_556
F0 Y2 2.373756 1_655
F0 Y6 2.400532 1_555
F0 K1 2.734745 1_555
F1 Y1 2.319647 1_556
F1 Y2 2.373756 1_565
F1 Y7 2.400532 1_555
F1 K1 2.734745 1_555
F2 Y0 2.205563 1_555
F2 Y4 2.295811 1_555
F2 K0 2.646263 1_654
F2 K3 2.664422 1_555
F3 Y1 2.205563 1_555
F3 Y5 2.295811 1_555
F3 K0 2.646263 1_564
F3 K3 2.664422 1_555
F4 Y7 2.196699 1_555
F4 Y6 2.196699 1_555
F4 K0 2.877701 1_555
F5 Y5 2.244012 1_545
F5 Y4 2.244012 1_455
F5 K0 2.652445 1_554
F5 K2 2.679803 1_555
F6 Y1 2.286767 1_555
F6 Y0 2.286767 1_555
F6 K2 2.690569 1_555
F6 K0 2.696512 1_554
F7 Y2 2.199268 1_555
F7 Y4 2.227067 1_555
F8 Y2 2.199268 1_555
F8 Y5 2.227067 1_555
F9 Y6 2.244012 1_565
F9 Y7 2.244012 1_655
F9 K3 2.652445 1_556
F9 K1 2.679803 1_555
F10 Y3 2.199268 1_555
F10 Y7 2.227067 1_555
F11 Y3 2.199268 1_555
F11 Y6 2.227067 1_555
F12 Y0 2.319647 1_555
F12 Y3 2.373756 1_545
F12 Y4 2.400532 1_555
F12 K2 2.734745 1_555
F13 Y1 2.319647 1_555
F13 Y3 2.373756 1_455
F13 Y5 2.400532 1_555
F13 K2 2.734745 1_555
F14 Y6 2.210755 1_555
F14 Y4 2.210755 1_555
F15 Y7 2.210755 1_555
F15 Y5 2.210755 1_555
F16 Y5 2.196699 1_555
F16 Y4 2.196699 1_555
F16 K3 2.877701 1_555
F17 Y2 2.299490 1_555
F17 Y0 2.415798 1_456
F17 Y1 2.415798 1_546
F17 K0 2.787270 1_555
F18 Y2 2.226398 1_555
F18 Y6 2.253030 1_555
F18 K0 2.797271 1_555
F18 K1 3.118311 1_545
F19 Y2 2.226398 1_555
F19 Y7 2.253030 1_555
F19 K0 2.797271 1_555
F19 K1 3.118311 1_455
F20 Y3 2.226398 1_555
F20 Y5 2.253030 1_555
F20 K3 2.797271 1_555
F20 K2 3.118311 1_565
F21 Y3 2.226398 1_555
F21 Y4 2.253030 1_555
F21 K3 2.797271 1_555
F21 K2 3.118311 1_655
F22 Y3 2.313055 1_555
F22 Y4 2.331413 1_565
F22 Y5 2.331413 1_655
F22 K1 2.642392 1_555
F23 Y1 2.286767 1_556
F23 Y0 2.286767 1_556
F23 K1 2.690569 1_555
F23 K3 2.696512 1_556
F24 Y3 2.299490 1_555
F24 Y0 2.415798 1_565
F24 Y1 2.415798 1_655
F24 K3 2.787270 1_555
F25 Y0 2.205563 1_556
F25 Y6 2.295811 1_555
F25 K3 2.646263 1_546
F25 K0 2.664422 1_555
F26 Y1 2.205563 1_556
F26 Y7 2.295811 1_555
F26 K3 2.646263 1_456
F26 K0 2.664422 1_555
F27 Y2 2.313055 1_555
F27 Y7 2.331413 1_545
F27 Y6 2.331413 1_455
F27 K2 2.642392 1_555
