# generated using pymatgen
data_UNiSe3
_symmetry_space_group_name_H-M   'P 1'
_cell_length_a   6.25507400
_cell_length_b   7.38731000
_cell_length_c   8.84020000
_cell_angle_alpha   90.00000000
_cell_angle_beta   90.00000000
_cell_angle_gamma   90.00000000
_symmetry_Int_Tables_number   1
_chemical_formula_structural   UNiSe3
_chemical_formula_sum   'U4 Ni4 Se12'
_cell_volume   408.48947072
_cell_formula_units_Z   4
loop_
 _symmetry_equiv_pos_site_id
 _symmetry_equiv_pos_as_xyz
  1  'x, y, z'
loop_
 _atom_site_type_symbol
 _atom_site_label
 _atom_site_symmetry_multiplicity
 _atom_site_fract_x
 _atom_site_fract_y
 _atom_site_fract_z
 _atom_site_occupancy
  U  U0  1  0.43350600  0.86911900  0.25000000  1
  U  U1  1  0.06649400  0.36911900  0.25000000  1
  U  U2  1  0.56649400  0.13088100  0.75000000  1
  U  U3  1  0.93350600  0.63088100  0.75000000  1
  Ni  Ni0  1  0.50000000  0.50000000  0.00000000  1
  Ni  Ni1  1  0.00000000  0.00000000  0.50000000  1
  Ni  Ni2  1  0.50000000  0.50000000  0.50000000  1
  Ni  Ni3  1  0.00000000  0.00000000  0.00000000  1
  Se  Se0  1  0.64930100  0.53845200  0.25000000  1
  Se  Se1  1  0.85069900  0.03845200  0.25000000  1
  Se  Se2  1  0.35069900  0.46154800  0.75000000  1
  Se  Se3  1  0.14930100  0.96154800  0.75000000  1
  Se  Se4  1  0.66592600  0.82793700  0.55127200  1
  Se  Se5  1  0.83407400  0.32793700  0.94872800  1
  Se  Se6  1  0.33407400  0.17206300  0.05127200  1
  Se  Se7  1  0.16592600  0.67206300  0.44872800  1
  Se  Se8  1  0.33407400  0.17206300  0.44872800  1
  Se  Se9  1  0.16592600  0.67206300  0.05127200  1
  Se  Se10  1  0.66592600  0.82793700  0.94872800  1
  Se  Se11  1  0.83407400  0.32793700  0.55127200  1
loop_
_geom_bond_atom_site_label_1
_geom_bond_atom_site_label_2
_geom_bond_distance
_geom_bond_site_symmetry_2
Ni0 Se0 2.416021 1_555
Ni0 Se2 2.416021 1_554
Ni0 Se9 2.487521 1_555
Ni0 Se5 2.487521 1_554
Ni0 Se10 2.674227 1_554
Ni0 Se6 2.674227 1_555
Ni1 Se1 2.416021 1_455
Ni1 Se3 2.416021 1_545
Ni1 Se8 2.487521 1_555
Ni1 Se4 2.487521 1_445
Ni1 Se11 2.674227 1_455
Ni1 Se7 2.674227 1_545
Ni2 Se0 2.416021 1_555
Ni2 Se2 2.416021 1_555
Ni2 Se11 2.487521 1_555
Ni2 Se7 2.487521 1_555
Ni2 Se4 2.674227 1_555
Ni2 Se8 2.674227 1_555
Ni3 Se1 2.416021 1_455
Ni3 Se3 2.416021 1_544
Ni3 Se6 2.487521 1_555
Ni3 Se10 2.487521 1_444
Ni3 Se9 2.674227 1_545
Ni3 Se5 2.674227 1_454
Se0 U0 2.790873 1_555
Se0 U1 2.893901 1_655
Se1 U1 2.790873 1_655
Se1 U0 2.893901 1_545
Se2 U2 2.790873 1_555
Se2 U3 2.893901 1_455
Se3 U3 2.790873 1_455
Se3 U2 2.893901 1_565
Se4 U3 2.829631 1_555
Se4 U2 2.912308 1_565
Se4 U0 3.049474 1_555
Se5 U2 2.829631 1_555
Se5 U3 2.912308 1_555
Se5 U1 3.049474 1_656
Se6 U1 2.829631 1_555
Se6 U0 2.912308 1_545
Se6 U2 3.049474 1_554
Se7 U0 2.829631 1_555
Se7 U1 2.912308 1_555
Se7 U3 3.049474 1_455
Se8 U1 2.829631 1_555
Se8 U0 2.912308 1_545
Se8 U2 3.049474 1_555
Se9 U0 2.829631 1_555
Se9 U1 2.912308 1_555
Se9 U3 3.049474 1_454
Se10 U3 2.829631 1_555
Se10 U2 2.912308 1_565
Se10 U0 3.049474 1_556
Se11 U2 2.829631 1_555
Se11 U3 2.912308 1_555
Se11 U1 3.049474 1_655
