# generated using pymatgen
data_Sr2LaMn2O7
_symmetry_space_group_name_H-M   'P 1'
_cell_length_a   5.56700573
_cell_length_b   5.56733807
_cell_length_c   10.39767545
_cell_angle_alpha   89.99989073
_cell_angle_beta   74.47119514
_cell_angle_gamma   89.99966524
_symmetry_Int_Tables_number   1
_chemical_formula_structural   Sr2LaMn2O7
_chemical_formula_sum   'Sr4 La2 Mn4 O14'
_cell_volume   310.49558291
_cell_formula_units_Z   2
loop_
 _symmetry_equiv_pos_site_id
 _symmetry_equiv_pos_as_xyz
  1  'x, y, z'
loop_
 _atom_site_type_symbol
 _atom_site_label
 _atom_site_symmetry_multiplicity
 _atom_site_fract_x
 _atom_site_fract_y
 _atom_site_fract_z
 _atom_site_occupancy
  Sr  Sr0  1  0.31699600  0.99999900  0.36601100  1
  Sr  Sr1  1  0.81716100  0.50000000  0.36569100  1
  Sr  Sr2  1  0.18300200  0.50000200  0.63399000  1
  Sr  Sr3  1  0.68283900  0.00000000  0.63430900  1
  La  La0  1  0.49998500  0.99999600  0.00002200  1
  La  La1  1  0.00001700  0.50000000  0.99997800  1
  Mn  Mn0  1  0.09730200  0.99999200  0.80541200  1
  Mn  Mn1  1  0.40269600  0.49999800  0.19458600  1
  Mn  Mn2  1  0.59900000  0.50000500  0.80202500  1
  Mn  Mn3  1  0.90100100  0.00000100  0.19797400  1
  O  O0  1  0.50181200  0.49999900  0.99638300  1
  O  O1  1  0.99818700  0.00000200  0.00361900  1
  O  O2  1  0.19314300  0.00000000  0.61378700  1
  O  O3  1  0.69422300  0.50000000  0.61163900  1
  O  O4  1  0.30685700  0.50000000  0.38621300  1
  O  O5  1  0.80577600  0.99999900  0.38836300  1
  O  O6  1  0.85061100  0.75901500  0.81709400  1
  O  O7  1  0.33228400  0.24100100  0.81709700  1
  O  O8  1  0.33228000  0.75899900  0.81709800  1
  O  O9  1  0.85060900  0.24099300  0.81709300  1
  O  O10  1  0.64939000  0.74099000  0.18290600  1
  O  O11  1  0.16772000  0.25899900  0.18290200  1
  O  O12  1  0.16771600  0.74100100  0.18290200  1
  O  O13  1  0.64939300  0.25901000  0.18290700  1
loop_
_geom_bond_atom_site_label_1
_geom_bond_atom_site_label_2
_geom_bond_distance
_geom_bond_site_symmetry_2
La0 O12 2.689451 1_555
La0 O11 2.689456 1_565
La0 O10 2.689587 1_555
La0 O13 2.689637 1_565
La0 O6 2.690683 1_554
La0 O9 2.690735 1_564
La0 O8 2.690762 1_554
La0 O7 2.690771 1_564
La0 O1 2.783733 1_465
La0 O1 2.783740 1_565
La0 O0 2.783891 1_554
La0 O0 2.783924 1_564
La1 O8 2.689446 1_555
La1 O7 2.689455 1_555
La1 O9 2.689616 1_455
La1 O6 2.689617 1_455
La1 O10 2.690711 1_456
La1 O13 2.690716 1_456
La1 O12 2.690755 1_556
La1 O11 2.690758 1_556
La1 O0 2.783721 1_555
La1 O0 2.783750 1_455
La1 O1 2.783897 1_456
La1 O1 2.783919 1_466
Mn0 O8 1.900308 1_555
Mn0 O6 1.900364 1_455
Mn0 O7 1.900395 1_565
Mn0 O9 1.900457 1_465
Mn0 O2 1.919722 1_565
Mn0 O1 1.985661 1_466
Mn1 O11 1.900329 1_555
Mn1 O12 1.900350 1_555
Mn1 O13 1.900424 1_555
Mn1 O10 1.900437 1_555
Mn1 O4 1.919742 1_555
Mn1 O0 1.985621 1_554
Mn2 O3 1.907310 1_555
Mn2 O0 1.947101 1_555
Mn2 O9 2.045335 1_555
Mn2 O6 2.045350 1_555
Mn2 O8 2.045423 1_555
Mn2 O7 2.045460 1_555
Mn3 O5 1.907340 1_545
Mn3 O1 1.947071 1_555
Mn3 O13 2.045317 1_555
Mn3 O10 2.045351 1_545
Mn3 O12 2.045429 1_645
Mn3 O11 2.045448 1_655
O2 Sr0 2.482249 1_545
O2 Sr3 2.790850 1_555
O2 Sr2 2.791006 1_545
O2 Sr2 2.791028 1_555
O2 Sr3 2.791320 1_455
O3 Sr1 2.463936 1_555
O3 Sr2 2.792246 1_655
O3 Sr2 2.792743 1_555
O3 Sr3 2.792918 1_555
O3 Sr3 2.792918 1_565
O4 Sr2 2.482259 1_555
O4 Sr1 2.790850 1_455
O4 Sr0 2.791011 1_555
O4 Sr0 2.791022 1_545
O4 Sr1 2.791320 1_555
O5 Sr3 2.463916 1_565
O5 Sr0 2.792256 1_555
O5 Sr0 2.792735 1_655
O5 Sr1 2.792914 1_555
O5 Sr1 2.792925 1_565
O6 Sr3 2.689763 1_565
O6 Sr2 2.691054 1_655
O7 Sr3 2.689781 1_555
O7 Sr2 2.691063 1_555
O8 Sr3 2.689806 1_565
O8 Sr2 2.691057 1_555
O9 Sr3 2.689780 1_555
O9 Sr2 2.691050 1_655
O10 Sr1 2.689774 1_555
O10 Sr0 2.691056 1_555
O11 Sr1 2.689798 1_455
O11 Sr0 2.691060 1_545
O12 Sr1 2.689794 1_455
O12 Sr0 2.691074 1_555
O13 Sr1 2.689766 1_555
O13 Sr0 2.691072 1_545
