# generated using pymatgen
data_Ba3YIr2O9
_symmetry_space_group_name_H-M   'P 1'
_cell_length_a   5.95641191
_cell_length_b   5.95641191
_cell_length_c   14.72769200
_cell_angle_alpha   90.00000000
_cell_angle_beta   90.00000000
_cell_angle_gamma   119.99999897
_symmetry_Int_Tables_number   1
_chemical_formula_structural   Ba3YIr2O9
_chemical_formula_sum   'Ba6 Y2 Ir4 O18'
_cell_volume   452.51687120
_cell_formula_units_Z   2
loop_
 _symmetry_equiv_pos_site_id
 _symmetry_equiv_pos_as_xyz
  1  'x, y, z'
loop_
 _atom_site_type_symbol
 _atom_site_label
 _atom_site_symmetry_multiplicity
 _atom_site_fract_x
 _atom_site_fract_y
 _atom_site_fract_z
 _atom_site_occupancy
  Ba  Ba0  1  0.00000000  0.00000000  0.25000000  1
  Ba  Ba1  1  0.00000000  0.00000000  0.75000000  1
  Ba  Ba2  1  0.33333300  0.66666700  0.59318100  1
  Ba  Ba3  1  0.66666700  0.33333300  0.40681900  1
  Ba  Ba4  1  0.66666700  0.33333300  0.09318100  1
  Ba  Ba5  1  0.33333300  0.66666700  0.90681900  1
  Y  Y0  1  0.00000000  0.00000000  0.50000000  1
  Y  Y1  1  0.00000000  0.00000000  0.00000000  1
  Ir  Ir0  1  0.33333300  0.66666700  0.33582600  1
  Ir  Ir1  1  0.66666700  0.33333300  0.66417400  1
  Ir  Ir2  1  0.66666700  0.33333300  0.83582600  1
  Ir  Ir3  1  0.33333300  0.66666700  0.16417400  1
  O  O0  1  0.49054700  0.50945300  0.25000000  1
  O  O1  1  0.49054700  0.98109500  0.25000000  1
  O  O2  1  0.01890500  0.50945300  0.25000000  1
  O  O3  1  0.50945300  0.49054700  0.75000000  1
  O  O4  1  0.50945300  0.01890500  0.75000000  1
  O  O5  1  0.98109500  0.49054700  0.75000000  1
  O  O6  1  0.17631600  0.82368400  0.08698700  1
  O  O7  1  0.17631600  0.35263300  0.08698700  1
  O  O8  1  0.64736700  0.82368400  0.08698700  1
  O  O9  1  0.82368400  0.17631600  0.91301300  1
  O  O10  1  0.82368400  0.64736700  0.91301300  1
  O  O11  1  0.35263300  0.17631600  0.91301300  1
  O  O12  1  0.82368400  0.17631600  0.58698700  1
  O  O13  1  0.82368400  0.64736700  0.58698700  1
  O  O14  1  0.35263300  0.17631600  0.58698700  1
  O  O15  1  0.17631600  0.82368400  0.41301300  1
  O  O16  1  0.17631600  0.35263300  0.41301300  1
  O  O17  1  0.64736700  0.82368400  0.41301300  1
loop_
_geom_bond_atom_site_label_1
_geom_bond_atom_site_label_2
_geom_bond_distance
_geom_bond_site_symmetry_2
Ba0 O2 2.979799 1_545
Ba0 O1 2.979799 1_545
Ba0 O0 2.979802 1_555
Ba0 O0 2.979802 1_445
Ba0 O1 2.979805 1_445
Ba0 O2 2.979805 1_555
Ba0 O15 3.012091 1_545
Ba0 O6 3.012091 1_545
Ba0 O7 3.012094 1_555
Ba0 O8 3.012094 1_445
Ba0 O17 3.012094 1_445
Ba0 O16 3.012094 1_555
Ba1 O4 2.979799 1_455
Ba1 O5 2.979799 1_455
Ba1 O3 2.979802 1_555
Ba1 O3 2.979802 1_445
Ba1 O5 2.979805 1_445
Ba1 O4 2.979805 1_555
Ba1 O9 3.012091 1_455
Ba1 O12 3.012091 1_455
Ba1 O11 3.012094 1_555
Ba1 O14 3.012094 1_555
Ba1 O10 3.012094 1_445
Ba1 O13 3.012094 1_445
Ba2 O5 2.938640 1_455
Ba2 O4 2.938640 1_565
Ba2 O3 2.938647 1_555
Ba2 O14 2.981260 1_565
Ba2 O13 2.981260 1_455
Ba2 O12 2.981265 1_565
Ba2 O12 2.981265 1_455
Ba2 O14 2.981271 1_555
Ba2 O13 2.981271 1_555
Ba2 O15 3.108853 1_555
Ba2 O16 3.108853 1_555
Ba2 O17 3.108853 1_555
Ba3 O2 2.938640 1_655
Ba3 O1 2.938640 1_545
Ba3 O0 2.938647 1_555
Ba3 O16 2.981260 1_655
Ba3 O17 2.981260 1_545
Ba3 O15 2.981265 1_655
Ba3 O15 2.981265 1_545
Ba3 O16 2.981271 1_555
Ba3 O17 2.981271 1_555
Ba3 O12 3.108853 1_555
Ba3 O13 3.108853 1_555
Ba3 O14 3.108853 1_555
Ba4 O2 2.938640 1_655
Ba4 O1 2.938640 1_545
Ba4 O0 2.938647 1_555
Ba4 O7 2.981260 1_655
Ba4 O8 2.981260 1_545
Ba4 O6 2.981265 1_655
Ba4 O6 2.981265 1_545
Ba4 O7 2.981271 1_555
Ba4 O8 2.981271 1_555
Ba4 O9 3.108853 1_554
Ba4 O10 3.108853 1_554
Ba4 O11 3.108853 1_554
Ba5 O5 2.938640 1_455
Ba5 O4 2.938640 1_565
Ba5 O3 2.938647 1_555
Ba5 O11 2.981260 1_565
Ba5 O10 2.981260 1_455
Ba5 O9 2.981265 1_455
Ba5 O9 2.981265 1_565
Ba5 O11 2.981271 1_555
Ba5 O10 2.981271 1_555
Ba5 O6 3.108853 1_556
Ba5 O7 3.108853 1_556
Ba5 O8 3.108853 1_556
Ir0 O15 1.978991 1_555
Ir0 O16 1.978991 1_555
Ir0 O17 1.978991 1_555
Ir0 O0 2.056321 1_555
Ir0 O2 2.056321 1_555
Ir0 O1 2.056321 1_555
Ir1 O12 1.978991 1_555
Ir1 O14 1.978991 1_555
Ir1 O13 1.978991 1_555
Ir1 O3 2.056321 1_555
Ir1 O4 2.056321 1_555
Ir1 O5 2.056321 1_555
Ir2 O9 1.978991 1_555
Ir2 O11 1.978991 1_555
Ir2 O10 1.978991 1_555
Ir2 O3 2.056321 1_555
Ir2 O4 2.056321 1_555
Ir2 O5 2.056321 1_555
Ir3 O6 1.978991 1_555
Ir3 O7 1.978991 1_555
Ir3 O8 1.978991 1_555
Ir3 O0 2.056321 1_555
Ir3 O2 2.056321 1_555
Ir3 O1 2.056321 1_555
O6 Y1 2.224880 1_565
O7 Y1 2.224884 1_555
O8 Y1 2.224884 1_665
O9 Y1 2.224880 1_656
O10 Y1 2.224884 1_666
O11 Y1 2.224884 1_556
O12 Y0 2.224880 1_655
O13 Y0 2.224884 1_665
O14 Y0 2.224884 1_555
O15 Y0 2.224880 1_565
O16 Y0 2.224884 1_555
O17 Y0 2.224884 1_665
