# generated using pymatgen
data_Sr3CaIr2O9
_symmetry_space_group_name_H-M   'P 1'
_cell_length_a   5.79231100
_cell_length_b   9.99462400
_cell_length_c   14.12190690
_cell_angle_alpha   89.96325369
_cell_angle_beta   90.00000000
_cell_angle_gamma   90.00000000
_symmetry_Int_Tables_number   1
_chemical_formula_structural   Sr3CaIr2O9
_chemical_formula_sum   'Sr12 Ca4 Ir8 O36'
_cell_volume   817.54485028
_cell_formula_units_Z   4
loop_
 _symmetry_equiv_pos_site_id
 _symmetry_equiv_pos_as_xyz
  1  'x, y, z'
loop_
 _atom_site_type_symbol
 _atom_site_label
 _atom_site_symmetry_multiplicity
 _atom_site_fract_x
 _atom_site_fract_y
 _atom_site_fract_z
 _atom_site_occupancy
  Sr  Sr0  1  0.96006100  0.00447400  0.25303000  1
  Sr  Sr1  1  0.46006100  0.49552600  0.74697000  1
  Sr  Sr2  1  0.03993900  0.99552600  0.74697000  1
  Sr  Sr3  1  0.53993900  0.50447400  0.25303000  1
  Sr  Sr4  1  0.46753500  0.16608500  0.41769300  1
  Sr  Sr5  1  0.96753500  0.33391500  0.58230700  1
  Sr  Sr6  1  0.53246500  0.83391500  0.58230700  1
  Sr  Sr7  1  0.03246500  0.66608500  0.41769300  1
  Sr  Sr8  1  0.96673800  0.67022600  0.92019100  1
  Sr  Sr9  1  0.46673800  0.82977400  0.07980900  1
  Sr  Sr10  1  0.03326200  0.32977400  0.07980900  1
  Sr  Sr11  1  0.53326200  0.17022600  0.92019100  1
  Ca  Ca0  1  0.00000000  0.00000000  0.00000000  1
  Ca  Ca1  1  0.50000000  0.50000000  0.00000000  1
  Ca  Ca2  1  0.50000000  0.50000000  0.50000000  1
  Ca  Ca3  1  0.00000000  0.00000000  0.50000000  1
  Ir  Ir0  1  0.50057400  0.16822400  0.17199600  1
  Ir  Ir1  1  0.00057400  0.33177600  0.82800400  1
  Ir  Ir2  1  0.49942600  0.83177600  0.82800400  1
  Ir  Ir3  1  0.99942600  0.66822400  0.17199600  1
  Ir  Ir4  1  0.00474200  0.33410100  0.32748400  1
  Ir  Ir5  1  0.50474200  0.16589900  0.67251600  1
  Ir  Ir6  1  0.99525800  0.66589900  0.67251600  1
  Ir  Ir7  1  0.49525800  0.83410100  0.32748400  1
  O  O0  1  0.48493800  0.70005900  0.42799500  1
  O  O1  1  0.98493800  0.79994100  0.57200500  1
  O  O2  1  0.51506200  0.29994100  0.57200500  1
  O  O3  1  0.01506200  0.20005900  0.42799500  1
  O  O4  1  0.51411200  0.65446500  0.88324100  1
  O  O5  1  0.01411200  0.84553500  0.11675900  1
  O  O6  1  0.48588800  0.34553500  0.11675900  1
  O  O7  1  0.98588800  0.15446500  0.88324100  1
  O  O8  1  0.76889700  0.12610700  0.09390800  1
  O  O9  1  0.26889700  0.37389300  0.90609200  1
  O  O10  1  0.23110300  0.87389300  0.90609200  1
  O  O11  1  0.73110300  0.62610700  0.09390800  1
  O  O12  1  0.19851800  0.60338000  0.07017300  1
  O  O13  1  0.69851800  0.89662000  0.92982700  1
  O  O14  1  0.80148200  0.39662000  0.92982700  1
  O  O15  1  0.30148200  0.10338000  0.07017300  1
  O  O16  1  0.69371200  0.94618700  0.40661600  1
  O  O17  1  0.19371200  0.55381300  0.59338400  1
  O  O18  1  0.30628800  0.05381300  0.59338400  1
  O  O19  1  0.80628800  0.44618700  0.40661600  1
  O  O20  1  0.71299700  0.28907500  0.75030200  1
  O  O21  1  0.21299700  0.21092500  0.24969800  1
  O  O22  1  0.28700300  0.71092500  0.24969800  1
  O  O23  1  0.78700300  0.78907500  0.75030200  1
  O  O24  1  0.28509600  0.76351200  0.72332400  1
  O  O25  1  0.78509600  0.73648800  0.27667600  1
  O  O26  1  0.71490400  0.23648800  0.27667600  1
  O  O27  1  0.21490400  0.26351200  0.72332400  1
  O  O28  1  0.27375800  0.41973900  0.38222500  1
  O  O29  1  0.77375800  0.08026100  0.61777500  1
  O  O30  1  0.72624200  0.58026100  0.61777500  1
  O  O31  1  0.22624200  0.91973900  0.38222500  1
  O  O32  1  0.98659600  0.47598100  0.22417800  1
  O  O33  1  0.48659600  0.02401900  0.77582200  1
  O  O34  1  0.01340400  0.52401900  0.77582200  1
  O  O35  1  0.51340400  0.97598100  0.22417800  1
loop_
_geom_bond_atom_site_label_1
_geom_bond_atom_site_label_2
_geom_bond_distance
_geom_bond_site_symmetry_2
Ca0 O15 2.258412 1_555
Ca0 O13 2.258412 1_444
Ca0 O7 2.259543 1_454
Ca0 O5 2.259543 1_545
Ca0 O10 2.267452 1_544
Ca0 O8 2.267452 1_455
Ca1 O12 2.258412 1_555
Ca1 O14 2.258412 1_554
Ca1 O4 2.259543 1_554
Ca1 O6 2.259543 1_555
Ca1 O11 2.267452 1_555
Ca1 O9 2.267452 1_554
Ca2 O0 2.244335 1_555
Ca2 O2 2.244335 1_555
Ca2 O30 2.264680 1_555
Ca2 O28 2.264680 1_555
Ca2 O19 2.275257 1_555
Ca2 O17 2.275257 1_555
Ca3 O1 2.244335 1_445
Ca3 O3 2.244335 1_555
Ca3 O29 2.264680 1_455
Ca3 O31 2.264680 1_545
Ca3 O16 2.275257 1_445
Ca3 O18 2.275257 1_555
Ir0 O6 1.937649 1_555
Ir0 O8 1.951773 1_555
Ir0 O15 1.954163 1_555
Ir0 O21 2.039972 1_555
Ir0 O26 2.047765 1_555
Ir0 O35 2.058763 1_545
Ir1 O7 1.937649 1_455
Ir1 O9 1.951773 1_555
Ir1 O14 1.954163 1_455
Ir1 O20 2.039972 1_455
Ir1 O27 2.047765 1_555
Ir1 O34 2.058763 1_555
Ir2 O4 1.937649 1_555
Ir2 O10 1.951773 1_555
Ir2 O13 1.954163 1_555
Ir2 O23 2.039972 1_555
Ir2 O24 2.047765 1_555
Ir2 O33 2.058763 1_565
Ir3 O5 1.937649 1_655
Ir3 O11 1.951773 1_555
Ir3 O12 1.954163 1_655
Ir3 O22 2.039972 1_655
Ir3 O25 2.047765 1_555
Ir3 O32 2.058763 1_555
Ir4 O28 1.938843 1_555
Ir4 O3 1.952087 1_555
Ir4 O19 1.956207 1_455
Ir4 O32 2.036553 1_455
Ir4 O21 2.044288 1_555
Ir4 O26 2.070264 1_455
Ir5 O29 1.938843 1_555
Ir5 O2 1.952087 1_555
Ir5 O18 1.956207 1_555
Ir5 O33 2.036553 1_555
Ir5 O20 2.044288 1_555
Ir5 O27 2.070264 1_555
Ir6 O30 1.938843 1_555
Ir6 O1 1.952087 1_555
Ir6 O17 1.956207 1_655
Ir6 O34 2.036553 1_655
Ir6 O23 2.044288 1_555
Ir6 O24 2.070264 1_655
Ir7 O31 1.938843 1_555
Ir7 O0 1.952087 1_555
Ir7 O16 1.956207 1_555
Ir7 O35 2.036553 1_555
Ir7 O22 2.044288 1_555
Ir7 O25 2.070264 1_555
O0 Sr6 2.572580 1_555
O0 Sr7 2.646783 1_555
O1 Sr7 2.572580 1_655
O1 Sr6 2.646783 1_555
O2 Sr4 2.572580 1_555
O2 Sr5 2.646783 1_555
O3 Sr5 2.572580 1_455
O3 Sr4 2.646783 1_555
O4 Sr1 2.515696 1_555
O4 Sr8 2.677830 1_555
O5 Sr0 2.515696 1_465
O5 Sr9 2.677830 1_555
O6 Sr3 2.515696 1_555
O6 Sr10 2.677830 1_555
O7 Sr2 2.515696 1_645
O7 Sr11 2.677830 1_555
O8 Sr10 2.554901 1_655
O8 Sr0 2.783868 1_555
O8 Sr11 2.841512 1_554
O9 Sr11 2.554901 1_555
O9 Sr1 2.783868 1_555
O9 Sr10 2.841512 1_556
O10 Sr8 2.554901 1_455
O10 Sr2 2.783868 1_555
O10 Sr9 2.841512 1_556
O11 Sr9 2.554901 1_555
O11 Sr3 2.783868 1_555
O11 Sr8 2.841512 1_554
O12 Sr8 2.594807 1_454
O12 Sr9 2.748189 1_555
O12 Sr10 2.900392 1_555
O13 Sr9 2.594807 1_556
O13 Sr8 2.748189 1_555
O13 Sr11 2.900392 1_565
O14 Sr10 2.594807 1_656
O14 Sr11 2.748189 1_555
O14 Sr8 2.900392 1_555
O15 Sr11 2.594807 1_554
O15 Sr10 2.748189 1_555
O15 Sr9 2.900392 1_545
O16 Sr4 2.563505 1_565
O16 Sr0 2.724363 1_565
O16 Sr6 2.878148 1_555
O17 Sr5 2.563505 1_455
O17 Sr1 2.724363 1_555
O17 Sr7 2.878148 1_555
O18 Sr6 2.563505 1_545
O18 Sr2 2.724363 1_545
O18 Sr4 2.878148 1_555
O19 Sr7 2.563505 1_655
O19 Sr3 2.724363 1_555
O19 Sr5 2.878148 1_555
O20 Sr1 2.531043 1_555
O20 Sr5 2.828702 1_555
O20 Sr11 2.871783 1_555
O21 Sr0 2.531043 1_455
O21 Sr4 2.828702 1_555
O21 Sr10 2.871783 1_555
O22 Sr3 2.531043 1_555
O22 Sr7 2.828702 1_555
O22 Sr9 2.871783 1_555
O23 Sr2 2.531043 1_655
O23 Sr6 2.828702 1_555
O23 Sr8 2.871783 1_555
O24 Sr6 2.551890 1_555
O24 Sr2 2.739751 1_555
O24 Sr1 2.882945 1_555
O25 Sr7 2.551890 1_655
O25 Sr3 2.739751 1_555
O25 Sr0 2.882945 1_565
O26 Sr4 2.551890 1_555
O26 Sr0 2.739751 1_555
O26 Sr3 2.882945 1_555
O27 Sr5 2.551890 1_455
O27 Sr1 2.739751 1_555
O27 Sr2 2.882945 1_545
O28 Sr3 2.533995 1_555
O28 Sr4 2.817124 1_555
O28 Sr7 2.875409 1_555
O29 Sr2 2.533995 1_645
O29 Sr5 2.817124 1_555
O29 Sr6 2.875409 1_545
O30 Sr1 2.533995 1_555
O30 Sr6 2.817124 1_555
O30 Sr5 2.875409 1_555
O31 Sr0 2.533995 1_465
O31 Sr7 2.817124 1_555
O31 Sr4 2.875409 1_565
O32 Sr10 2.523648 1_655
O32 Sr3 2.634528 1_555
O33 Sr11 2.523648 1_555
O33 Sr2 2.634528 1_545
O34 Sr8 2.523648 1_455
O34 Sr1 2.634528 1_555
O35 Sr9 2.523648 1_555
O35 Sr0 2.634528 1_565
