# generated using pymatgen
data_Y6N8O49
_symmetry_space_group_name_H-M   'P 1'
_cell_length_a   10.15997300
_cell_length_b   10.19764366
_cell_length_c   11.60182986
_cell_angle_alpha   97.86877615
_cell_angle_beta   107.81152070
_cell_angle_gamma   108.08347634
_symmetry_Int_Tables_number   1
_chemical_formula_structural   Y6N8O49
_chemical_formula_sum   'Y6 N8 O49'
_cell_volume   1051.59128971
_cell_formula_units_Z   1
loop_
 _symmetry_equiv_pos_site_id
 _symmetry_equiv_pos_as_xyz
  1  'x, y, z'
loop_
 _atom_site_type_symbol
 _atom_site_label
 _atom_site_symmetry_multiplicity
 _atom_site_fract_x
 _atom_site_fract_y
 _atom_site_fract_z
 _atom_site_occupancy
  Y  Y0  1  0.26919000  0.05833900  0.37592800  1
  Y  Y1  1  0.73081000  0.94166100  0.62407200  1
  Y  Y2  1  0.64390900  0.28663000  0.49216400  1
  Y  Y3  1  0.35609100  0.71337000  0.50783600  1
  Y  Y4  1  0.46412800  0.06511500  0.69727900  1
  Y  Y5  1  0.53587200  0.93488500  0.30272100  1
  N  N0  1  0.30333000  0.28478300  0.05064800  1
  N  N1  1  0.69667000  0.71521700  0.94935200  1
  N  N2  1  0.74721300  0.99780800  0.18554700  1
  N  N3  1  0.25278700  0.00219200  0.81445300  1
  N  N4  1  0.33525700  0.51564500  0.65523100  1
  N  N5  1  0.66474300  0.48435500  0.34476900  1
  N  N6  1  0.10962400  0.23786300  0.39618400  1
  N  N7  1  0.89037600  0.76213700  0.60381600  1
  O  O0  1  0.08381300  0.12103000  0.43259500  1
  O  O1  1  0.91618700  0.87897000  0.56740500  1
  O  O2  1  0.04711100  0.32028400  0.41224800  1
  O  O3  1  0.95288900  0.67971600  0.58775200  1
  O  O4  1  0.25284600  0.59160700  0.64047800  1
  O  O5  1  0.74715400  0.40839300  0.35952200  1
  O  O6  1  0.69773500  0.34923600  0.02891700  1
  O  O7  1  0.30226500  0.65076400  0.97108300  1
  O  O8  1  0.25991500  0.09226500  0.74595200  1
  O  O9  1  0.74008500  0.90773500  0.25404800  1
  O  O10  1  0.13458000  0.95409500  0.14097100  1
  O  O11  1  0.86542000  0.04590500  0.85902900  1
  O  O12  1  0.84528500  0.03151200  0.14242600  1
  O  O13  1  0.15471500  0.96848800  0.85757400  1
  O  O14  1  0.58184900  0.47189500  0.41139700  1
  O  O15  1  0.41815100  0.52810500  0.58860300  1
  O  O16  1  0.46766300  0.12612500  0.32446000  1
  O  O17  1  0.53233700  0.87387500  0.67554000  1
  O  O18  1  0.03035300  0.63064100  0.33528700  1
  O  O19  1  0.96964700  0.36935900  0.66471300  1
  O  O20  1  0.40555400  0.69675600  0.07395000  1
  O  O21  1  0.59444600  0.30324400  0.92605000  1
  O  O22  1  0.64355900  0.04988300  0.16625200  1
  O  O23  1  0.35644100  0.95011700  0.83374800  1
  O  O24  1  0.19196600  0.26322500  0.08044600  1
  O  O25  1  0.80803400  0.73677500  0.91955400  1
  O  O26  1  0.27120200  0.84306900  0.25063300  1
  O  O27  1  0.72879800  0.15693100  0.74936700  1
  O  O28  1  0.68194600  0.64847900  0.03025400  1
  O  O29  1  0.31805400  0.35152100  0.96974600  1
  O  O30  1  0.70067500  0.08441800  0.49168200  1
  O  O31  1  0.29932500  0.91558200  0.50831800  1
  O  O32  1  0.33453500  0.43797700  0.72648300  1
  O  O33  1  0.66546500  0.56202300  0.27351700  1
  O  O34  1  0.00117100  0.55305100  0.03310100  1
  O  O35  1  0.99882900  0.44694900  0.96689900  1
  O  O36  1  0.50000000  0.00000000  0.50000000  1
  O  O37  1  0.40254900  0.23907800  0.10158600  1
  O  O38  1  0.59745100  0.76092200  0.89841400  1
  O  O39  1  0.44962400  0.21050500  0.56096500  1
  O  O40  1  0.55037600  0.78949500  0.43903500  1
  O  O41  1  0.33526800  0.64896600  0.29937400  1
  O  O42  1  0.66473200  0.35103400  0.70062600  1
  O  O43  1  0.18582000  0.85357400  0.12622400  1
  O  O44  1  0.81418000  0.14642600  0.87377600  1
  O  O45  1  0.02310700  0.28437300  0.70579900  1
  O  O46  1  0.97689300  0.71562700  0.29420100  1
  O  O47  1  0.20589400  0.26207400  0.34283400  1
  O  O48  1  0.79410600  0.73792600  0.65716600  1
loop_
_geom_bond_atom_site_label_1
_geom_bond_atom_site_label_2
_geom_bond_distance
_geom_bond_site_symmetry_2
N0 O24 1.246486 1_555
N0 O29 1.250659 1_554
N0 O37 1.259093 1_555
N1 O25 1.246486 1_555
N1 O28 1.250659 1_556
N1 O38 1.259093 1_555
N2 O12 1.225022 1_565
N2 O9 1.293965 1_555
N2 O22 1.294873 1_565
N3 O13 1.225022 1_545
N3 O8 1.293965 1_555
N3 O23 1.294873 1_545
N4 O32 1.220696 1_555
N4 O4 1.296801 1_555
N4 O15 1.296814 1_555
N5 O33 1.220696 1_555
N5 O5 1.296801 1_555
N5 O14 1.296814 1_555
N6 O2 1.226985 1_555
N6 O47 1.289590 1_555
N6 O0 1.295500 1_555
N7 O3 1.226985 1_555
N7 O48 1.289590 1_555
N7 O1 1.295500 1_555
O0 Y0 2.403780 1_555
O1 Y1 2.403780 1_555
O4 Y3 2.390080 1_555
O5 Y2 2.390080 1_555
O8 Y4 2.393931 1_555
O9 Y5 2.393931 1_555
O10 O43 1.299554 1_555
O10 Y0 2.540560 1_565
O11 O44 1.299554 1_555
O11 Y1 2.540560 1_545
O14 Y2 2.389089 1_555
O15 Y3 2.389089 1_555
O16 Y2 2.201859 1_555
O16 Y0 2.210179 1_555
O16 Y5 2.271210 1_545
O17 Y3 2.201859 1_555
O17 Y1 2.210179 1_555
O17 Y4 2.271210 1_565
O18 O46 1.232995 1_455
O18 Y3 3.069712 1_555
O19 O45 1.232995 1_655
O19 Y2 3.069712 1_555
O20 O7 1.233103 1_554
O20 Y5 2.963758 1_555
O21 O6 1.233103 1_556
O21 Y4 2.963758 1_555
O22 Y5 2.418827 1_545
O23 Y4 2.418827 1_565
O26 O43 1.476939 1_555
O26 Y5 2.400143 1_555
O26 Y0 2.470811 1_565
O27 O44 1.476939 1_555
O27 Y4 2.400143 1_555
O27 Y1 2.470811 1_545
O30 O36 1.990180 1_555
O30 Y1 2.274532 1_545
O30 Y5 2.277921 1_545
O30 Y2 2.306944 1_555
O31 O36 1.990180 1_565
O31 Y0 2.274532 1_565
O31 Y4 2.277921 1_565
O31 Y3 2.306944 1_555
O34 O35 1.227388 1_454
O36 Y4 2.461051 1_555
O36 Y5 2.461051 1_545
O36 Y1 2.638294 1_545
O36 Y0 2.638294 1_555
O36 Y2 2.861928 1_555
O36 Y3 2.861928 1_545
O39 Y0 2.300311 1_555
O39 Y2 2.306185 1_555
O39 Y4 2.314330 1_555
O40 Y1 2.300311 1_555
O40 Y3 2.306185 1_555
O40 Y5 2.314330 1_555
O41 Y3 2.343338 1_555
O42 Y2 2.343338 1_555
O47 Y0 2.402973 1_555
O48 Y1 2.402973 1_555
