# generated using pymatgen
data_ZnFe3C
_symmetry_space_group_name_H-M   'P 1'
_cell_length_a   3.77289000
_cell_length_b   3.77289000
_cell_length_c   3.77289000
_cell_angle_alpha   90.00000000
_cell_angle_beta   90.00000000
_cell_angle_gamma   90.00000000
_symmetry_Int_Tables_number   1
_chemical_formula_structural   ZnFe3C
_chemical_formula_sum   'Zn1 Fe3 C1'
_cell_volume   53.70595333
_cell_formula_units_Z   1
loop_
 _symmetry_equiv_pos_site_id
 _symmetry_equiv_pos_as_xyz
  1  'x, y, z'
loop_
 _atom_site_type_symbol
 _atom_site_label
 _atom_site_symmetry_multiplicity
 _atom_site_fract_x
 _atom_site_fract_y
 _atom_site_fract_z
 _atom_site_occupancy
  Zn  Zn0  1  0.00000000  0.00000000  0.00000000  1
  Fe  Fe0  1  0.50000000  0.00000000  0.50000000  1
  Fe  Fe1  1  0.00000000  0.50000000  0.50000000  1
  Fe  Fe2  1  0.50000000  0.50000000  0.00000000  1
  C  C0  1  0.50000000  0.50000000  0.50000000  1
loop_
_geom_bond_atom_site_label_1
_geom_bond_atom_site_label_2
_geom_bond_distance
_geom_bond_site_symmetry_2
Fe0 Zn0 2.667836 1_555
Fe0 Zn0 2.667836 1_655
Fe0 Zn0 2.667836 1_556
Fe0 Zn0 2.667836 1_656
Fe1 Zn0 2.667836 1_555
Fe1 Zn0 2.667836 1_566
Fe1 Zn0 2.667836 1_565
Fe1 Zn0 2.667836 1_556
Fe2 Zn0 2.667836 1_555
Fe2 Zn0 2.667836 1_565
Fe2 Zn0 2.667836 1_665
Fe2 Zn0 2.667836 1_655
C0 Fe2 1.886445 1_555
C0 Fe0 1.886445 1_555
C0 Fe0 1.886445 1_565
C0 Fe1 1.886445 1_555
C0 Fe2 1.886445 1_556
C0 Fe1 1.886445 1_655
