# generated using pymatgen
data_Li2PtO6
_symmetry_space_group_name_H-M   'P 1'
_cell_length_a   5.37315858
_cell_length_b   5.37315858
_cell_length_c   3.85071400
_cell_angle_alpha   90.00000000
_cell_angle_beta   90.00000000
_cell_angle_gamma   120.00000718
_symmetry_Int_Tables_number   1
_chemical_formula_structural   Li2PtO6
_chemical_formula_sum   'Li2 Pt1 O6'
_cell_volume   96.27891363
_cell_formula_units_Z   1
loop_
 _symmetry_equiv_pos_site_id
 _symmetry_equiv_pos_as_xyz
  1  'x, y, z'
loop_
 _atom_site_type_symbol
 _atom_site_label
 _atom_site_symmetry_multiplicity
 _atom_site_fract_x
 _atom_site_fract_y
 _atom_site_fract_z
 _atom_site_occupancy
  Li  Li0  1  0.33333300  0.66666700  0.00000000  1
  Li  Li1  1  0.66666700  0.33333300  0.00000000  1
  Pt  Pt0  1  0.00000000  0.00000000  0.00000000  1
  O  O0  1  0.70088100  0.00000000  0.72362400  1
  O  O1  1  0.29911900  0.29911900  0.72362400  1
  O  O2  1  0.00000000  0.70088100  0.72362400  1
  O  O3  1  0.29911900  0.00000000  0.27637600  1
  O  O4  1  0.70088100  0.70088100  0.27637600  1
  O  O5  1  0.00000000  0.29911900  0.27637600  1
loop_
_geom_bond_atom_site_label_1
_geom_bond_atom_site_label_2
_geom_bond_distance
_geom_bond_site_symmetry_2
Li0 O2 2.168764 1_554
Li0 O3 2.168764 1_565
Li0 O0 2.168767 1_564
Li0 O5 2.168767 1_555
Li0 O4 2.168769 1_555
Li0 O1 2.168769 1_554
Li1 O0 2.168764 1_554
Li1 O5 2.168764 1_655
Li1 O2 2.168767 1_654
Li1 O3 2.168767 1_555
Li1 O4 2.168769 1_555
Li1 O1 2.168769 1_554
O0 Pt0 1.927629 1_656
O1 Pt0 1.927629 1_556
O2 Pt0 1.927629 1_566
O3 Pt0 1.927629 1_555
O4 Pt0 1.927629 1_665
O5 Pt0 1.927629 1_555
