# generated using pymatgen
data_PuZr
_symmetry_space_group_name_H-M   'P 1'
_cell_length_a   11.18498765
_cell_length_b   11.18498765
_cell_length_c   11.18498708
_cell_angle_alpha   34.06296804
_cell_angle_beta   34.06296804
_cell_angle_gamma   34.06297873
_symmetry_Int_Tables_number   1
_chemical_formula_structural   PuZr
_chemical_formula_sum   'Pu8 Zr8'
_cell_volume   391.33616613
_cell_formula_units_Z   8
loop_
 _symmetry_equiv_pos_site_id
 _symmetry_equiv_pos_as_xyz
  1  'x, y, z'
loop_
 _atom_site_type_symbol
 _atom_site_label
 _atom_site_symmetry_multiplicity
 _atom_site_fract_x
 _atom_site_fract_y
 _atom_site_fract_z
 _atom_site_occupancy
  Pu  Pu0_0  1  0.00000000  0.00000000  0.00000000  1
  Pu  Pu0_1  1  0.00000000  0.00000000  0.50000000  1
  Pu  Pu0_2  1  0.00000000  0.50000000  0.00000000  1
  Pu  Pu0_3  1  0.00000000  0.50000000  0.50000000  1
  Pu  Pu0_4  1  0.50000000  0.00000000  0.00000000  1
  Pu  Pu0_5  1  0.50000000  0.00000000  0.50000000  1
  Pu  Pu0_6  1  0.50000000  0.50000000  0.00000000  1
  Pu  Pu0_7  1  0.50000000  0.50000000  0.50000000  1
  Zr  Zr0_0  1  0.25000000  0.25000000  0.25000000  1
  Zr  Zr0_1  1  0.25000000  0.25000000  0.75000000  1
  Zr  Zr0_2  1  0.25000000  0.75000000  0.25000000  1
  Zr  Zr0_3  1  0.25000000  0.75000000  0.75000000  1
  Zr  Zr0_4  1  0.75000000  0.25000000  0.25000000  1
  Zr  Zr0_5  1  0.75000000  0.25000000  0.75000000  1
  Zr  Zr0_6  1  0.75000000  0.75000000  0.25000000  1
  Zr  Zr0_7  1  0.75000000  0.75000000  0.75000000  1
loop_
_geom_bond_atom_site_label_1
_geom_bond_atom_site_label_2
_geom_bond_distance
_geom_bond_site_symmetry_2
Pu0_0 Zr0_1 3.240698 1_554
Pu0_0 Zr0_6 3.240698 1_445
Pu0_0 Zr0_2 3.240698 1_545
Pu0_0 Zr0_4 3.240698 1_455
Pu0_0 Zr0_5 3.240698 1_454
Pu0_0 Zr0_3 3.240698 1_544
Pu0_0 Pu0_3 3.276051 1_554
Pu0_0 Pu0_5 3.276051 1_554
Pu0_0 Pu0_3 3.276051 1_545
Pu0_0 Pu0_5 3.276051 1_455
Pu0_0 Pu0_6 3.276052 1_545
Pu0_0 Pu0_6 3.276052 1_455
Pu0_1 Zr0_0 3.240698 1_555
Pu0_1 Zr0_7 3.240698 1_445
Pu0_1 Zr0_5 3.240698 1_455
Pu0_1 Zr0_3 3.240698 1_545
Pu0_1 Zr0_4 3.240698 1_455
Pu0_1 Zr0_2 3.240698 1_545
Pu0_1 Pu0_2 3.276051 1_546
Pu0_1 Pu0_4 3.276051 1_555
Pu0_1 Pu0_4 3.276051 1_456
Pu0_1 Pu0_2 3.276051 1_555
Pu0_1 Pu0_7 3.276052 1_545
Pu0_1 Pu0_7 3.276052 1_455
Pu0_2 Zr0_3 3.240698 1_554
Pu0_2 Zr0_4 3.240698 1_455
Pu0_2 Zr0_6 3.240698 1_455
Pu0_2 Zr0_0 3.240698 1_555
Pu0_2 Zr0_7 3.240698 1_454
Pu0_2 Zr0_1 3.240698 1_554
Pu0_2 Pu0_7 3.276051 1_554
Pu0_2 Pu0_7 3.276051 1_455
Pu0_2 Pu0_4 3.276052 1_465
Pu0_2 Pu0_4 3.276052 1_555
Pu0_3 Zr0_5 3.240698 1_455
Pu0_3 Zr0_2 3.240698 1_555
Pu0_3 Zr0_0 3.240698 1_555
Pu0_3 Zr0_6 3.240698 1_455
Pu0_3 Zr0_1 3.240698 1_555
Pu0_3 Zr0_7 3.240698 1_455
Pu0_3 Pu0_6 3.276051 1_555
Pu0_3 Pu0_6 3.276051 1_456
Pu0_3 Pu0_5 3.276052 1_555
Pu0_3 Pu0_5 3.276052 1_465
Pu0_4 Zr0_5 3.240698 1_554
Pu0_4 Zr0_2 3.240698 1_545
Pu0_4 Zr0_0 3.240698 1_555
Pu0_4 Zr0_6 3.240698 1_545
Pu0_4 Zr0_7 3.240698 1_544
Pu0_4 Zr0_1 3.240698 1_554
Pu0_4 Pu0_7 3.276051 1_545
Pu0_4 Pu0_7 3.276051 1_554
Pu0_5 Zr0_3 3.240698 1_545
Pu0_5 Zr0_4 3.240698 1_555
Pu0_5 Zr0_0 3.240698 1_555
Pu0_5 Zr0_6 3.240698 1_545
Pu0_5 Zr0_1 3.240698 1_555
Pu0_5 Zr0_7 3.240698 1_545
Pu0_5 Pu0_6 3.276051 1_555
Pu0_5 Pu0_6 3.276051 1_546
Pu0_6 Zr0_7 3.240698 1_554
Pu0_6 Zr0_0 3.240698 1_555
Pu0_6 Zr0_2 3.240698 1_555
Pu0_6 Zr0_4 3.240698 1_555
Pu0_6 Zr0_5 3.240698 1_554
Pu0_6 Zr0_3 3.240698 1_554
Pu0_7 Zr0_6 3.240698 1_555
Pu0_7 Zr0_1 3.240698 1_555
Pu0_7 Zr0_5 3.240698 1_555
Pu0_7 Zr0_3 3.240698 1_555
Pu0_7 Zr0_2 3.240698 1_555
Pu0_7 Zr0_4 3.240698 1_555
Zr0_0 Zr0_3 3.276051 1_554
Zr0_0 Zr0_5 3.276051 1_554
Zr0_0 Zr0_5 3.276051 1_455
Zr0_0 Zr0_3 3.276051 1_545
Zr0_0 Zr0_6 3.276052 1_545
Zr0_0 Zr0_6 3.276052 1_455
Zr0_1 Zr0_4 3.276051 1_456
Zr0_1 Zr0_2 3.276051 1_546
Zr0_1 Zr0_4 3.276051 1_555
Zr0_1 Zr0_2 3.276051 1_555
Zr0_1 Zr0_7 3.276052 1_455
Zr0_1 Zr0_7 3.276052 1_545
Zr0_2 Zr0_7 3.276051 1_554
Zr0_2 Zr0_7 3.276051 1_455
Zr0_2 Zr0_4 3.276052 1_465
Zr0_2 Zr0_4 3.276052 1_555
Zr0_3 Zr0_6 3.276051 1_456
Zr0_3 Zr0_6 3.276051 1_555
Zr0_3 Zr0_5 3.276052 1_555
Zr0_3 Zr0_5 3.276052 1_465
Zr0_4 Zr0_7 3.276051 1_554
Zr0_4 Zr0_7 3.276051 1_545
Zr0_5 Zr0_6 3.276051 1_546
Zr0_5 Zr0_6 3.276051 1_555
