# generated using pymatgen
data_Mg14CdSi
_symmetry_space_group_name_H-M   'P 1'
_cell_length_a   6.27594731
_cell_length_b   6.31307084
_cell_length_c   10.36960640
_cell_angle_alpha   90.00000000
_cell_angle_beta   90.00000000
_cell_angle_gamma   120.19587240
_symmetry_Int_Tables_number   1
_chemical_formula_structural   Mg14CdSi
_chemical_formula_sum   'Mg14 Cd1 Si1'
_cell_volume   355.10131686
_cell_formula_units_Z   1
loop_
 _symmetry_equiv_pos_site_id
 _symmetry_equiv_pos_as_xyz
  1  'x, y, z'
loop_
 _atom_site_type_symbol
 _atom_site_label
 _atom_site_symmetry_multiplicity
 _atom_site_fract_x
 _atom_site_fract_y
 _atom_site_fract_z
 _atom_site_occupancy
  Mg  Mg0  1  0.16721017  0.33360459  0.62500000  1
  Mg  Mg1  1  0.16824133  0.83412017  0.62500000  1
  Mg  Mg2  1  0.66810283  0.33453219  0.12500000  1
  Mg  Mg3  1  0.66604301  0.33222152  0.62500000  1
  Mg  Mg4  1  0.66810283  0.83356964  0.12500000  1
  Mg  Mg5  1  0.66604301  0.83382049  0.62500000  1
  Mg  Mg6  1  0.33133156  0.16778315  0.37158211  1
  Mg  Mg7  1  0.33133156  0.16778315  0.87841789  1
  Mg  Mg8  1  0.33133156  0.66354941  0.37158211  1
  Mg  Mg9  1  0.33133156  0.66354941  0.87841789  1
  Mg  Mg10  1  0.83659458  0.16829779  0.37366043  1
  Mg  Mg11  1  0.83659458  0.16829779  0.87633957  1
  Mg  Mg12  1  0.83377951  0.66689026  0.37650533  1
  Mg  Mg13  1  0.83377951  0.66689026  0.87349467  1
  Cd  Cd0  1  0.16526244  0.83263072  0.12500000  1
  Si  Si0  1  0.16491994  0.33245947  0.12500000  1
loop_
_geom_bond_atom_site_label_1
_geom_bond_atom_site_label_2
_geom_bond_distance
_geom_bond_site_symmetry_2
Mg0 Mg5 3.135049 1_555
Mg0 Mg3 3.135049 1_555
Mg0 Mg5 3.140916 1_445
Mg0 Mg3 3.140916 1_455
Mg0 Mg1 3.156540 1_555
Mg0 Mg1 3.156540 1_545
Mg0 Mg10 3.163697 1_455
Mg0 Mg11 3.163697 1_455
Mg0 Mg6 3.185439 1_555
Mg0 Mg7 3.185439 1_555
Mg0 Mg9 3.185445 1_555
Mg0 Mg8 3.185445 1_555
Mg1 Mg3 3.125129 1_565
Mg1 Mg5 3.125129 1_555
Mg1 Mg3 3.150819 1_455
Mg1 Mg5 3.150819 1_455
Mg1 Mg12 3.151403 1_455
Mg1 Mg13 3.151403 1_455
Mg1 Mg8 3.197102 1_555
Mg1 Mg9 3.197102 1_555
Mg1 Mg6 3.197108 1_565
Mg1 Mg7 3.197108 1_565
Mg2 Si0 3.124600 1_655
Mg2 Mg7 3.142490 1_554
Mg2 Mg6 3.142490 1_555
Mg2 Mg4 3.150459 1_555
Mg2 Si0 3.151388 1_555
Mg2 Mg4 3.162612 1_545
Mg3 Mg5 3.146441 1_545
Mg3 Mg5 3.166630 1_555
Mg3 Mg6 3.194104 1_555
Mg3 Mg7 3.194104 1_555
Mg4 Si0 3.124600 1_665
Mg4 Mg9 3.142490 1_554
Mg4 Mg8 3.142490 1_555
Mg4 Si0 3.151388 1_555
Mg5 Mg8 3.194104 1_555
Mg5 Mg9 3.194104 1_555
Mg6 Mg8 3.129808 1_555
Mg6 Si0 3.130778 1_555
Mg6 Mg8 3.183263 1_545
Mg7 Mg9 3.129808 1_555
Mg7 Si0 3.130778 1_556
Mg7 Mg9 3.183263 1_545
Mg8 Si0 3.130785 1_555
Mg9 Si0 3.130785 1_556
Mg10 Mg8 3.106653 1_655
Mg10 Mg6 3.106653 1_655
Mg10 Si0 3.133773 1_655
Mg10 Mg12 3.156710 1_545
Mg10 Mg12 3.156710 1_555
Mg10 Mg2 3.159834 1_555
Mg10 Mg4 3.159841 1_545
Mg10 Mg8 3.169444 1_545
Mg10 Mg6 3.169445 1_555
Mg10 Mg3 3.181766 1_555
Mg10 Mg5 3.181773 1_545
Mg11 Mg9 3.106653 1_655
Mg11 Mg7 3.106653 1_655
Mg11 Si0 3.133773 1_656
Mg11 Mg13 3.156710 1_545
Mg11 Mg13 3.156710 1_555
Mg11 Mg2 3.159834 1_556
Mg11 Mg4 3.159841 1_546
Mg11 Mg9 3.169444 1_545
Mg11 Mg7 3.169445 1_555
Mg11 Mg3 3.181766 1_555
Mg11 Mg5 3.181773 1_545
Mg12 Mg6 3.133687 1_665
Mg12 Mg8 3.133687 1_655
Mg12 Mg6 3.143196 1_555
Mg12 Mg8 3.143196 1_555
Mg12 Mg5 3.158255 1_555
Mg12 Mg3 3.158262 1_555
Mg12 Mg4 3.176586 1_555
Mg12 Mg2 3.176592 1_555
Mg13 Mg7 3.133687 1_665
Mg13 Mg9 3.133687 1_655
Mg13 Mg7 3.143196 1_555
Mg13 Mg9 3.143196 1_555
Mg13 Mg5 3.158255 1_555
Mg13 Mg3 3.158262 1_555
Mg13 Mg4 3.176586 1_556
Mg13 Mg2 3.176592 1_556
Cd0 Mg2 3.123133 1_455
Cd0 Mg4 3.123133 1_455
Cd0 Mg9 3.143691 1_554
Cd0 Mg8 3.143691 1_555
Cd0 Mg7 3.143697 1_564
Cd0 Mg6 3.143697 1_565
Cd0 Mg2 3.152822 1_565
Cd0 Mg4 3.152823 1_555
Cd0 Si0 3.156536 1_555
Cd0 Si0 3.156536 1_565
Cd0 Mg13 3.167781 1_454
Cd0 Mg12 3.167781 1_455
