# generated using pymatgen
data_KFeI3
_symmetry_space_group_name_H-M   'P 1'
_cell_length_a   4.06113500
_cell_length_b   9.79062800
_cell_length_c   16.30112500
_cell_angle_alpha   90.00000000
_cell_angle_beta   90.00000000
_cell_angle_gamma   90.00000000
_symmetry_Int_Tables_number   1
_chemical_formula_structural   KFeI3
_chemical_formula_sum   'K4 Fe4 I12'
_cell_volume   648.15004249
_cell_formula_units_Z   4
loop_
 _symmetry_equiv_pos_site_id
 _symmetry_equiv_pos_as_xyz
  1  'x, y, z'
loop_
 _atom_site_type_symbol
 _atom_site_label
 _atom_site_symmetry_multiplicity
 _atom_site_fract_x
 _atom_site_fract_y
 _atom_site_fract_z
 _atom_site_occupancy
  K  K0  1  0.75000000  0.55969000  0.17220900  1
  K  K1  1  0.25000000  0.44031000  0.82779100  1
  K  K2  1  0.75000000  0.05969000  0.32779100  1
  K  K3  1  0.25000000  0.94031000  0.67220900  1
  Fe  Fe0  1  0.75000000  0.85164400  0.95158800  1
  Fe  Fe1  1  0.25000000  0.14835600  0.04841200  1
  Fe  Fe2  1  0.75000000  0.35164400  0.54841200  1
  Fe  Fe3  1  0.25000000  0.64835600  0.45158800  1
  I  I0  1  0.25000000  0.51450500  0.58871100  1
  I  I1  1  0.75000000  0.48549500  0.41128900  1
  I  I2  1  0.25000000  0.01450500  0.91128900  1
  I  I3  1  0.75000000  0.98549500  0.08871100  1
  I  I4  1  0.25000000  0.68759100  0.00055200  1
  I  I5  1  0.75000000  0.31240900  0.99944800  1
  I  I6  1  0.25000000  0.18759100  0.49944800  1
  I  I7  1  0.75000000  0.81240900  0.50055200  1
  I  I8  1  0.75000000  0.73549600  0.80118100  1
  I  I9  1  0.25000000  0.26450400  0.19881900  1
  I  I10  1  0.75000000  0.23549600  0.69881900  1
  I  I11  1  0.25000000  0.76450400  0.30118100  1
loop_
_geom_bond_atom_site_label_1
_geom_bond_atom_site_label_2
_geom_bond_distance
_geom_bond_site_symmetry_2
Fe0 I3 2.591092 1_556
Fe0 I2 2.664060 1_565
Fe0 I2 2.664060 1_665
Fe0 I8 2.702680 1_555
Fe0 I4 2.709261 1_556
Fe0 I4 2.709261 1_656
Fe1 I2 2.591092 1_554
Fe1 I3 2.664060 1_545
Fe1 I3 2.664060 1_445
Fe1 I9 2.702680 1_555
Fe1 I5 2.709261 1_454
Fe1 I5 2.709261 1_554
Fe2 I1 2.591092 1_555
Fe2 I0 2.664060 1_555
Fe2 I0 2.664060 1_655
Fe2 I10 2.702680 1_555
Fe2 I6 2.709261 1_655
Fe2 I6 2.709261 1_555
Fe3 I0 2.591092 1_555
Fe3 I1 2.664060 1_555
Fe3 I1 2.664060 1_455
Fe3 I11 2.702680 1_555
Fe3 I7 2.709261 1_455
Fe3 I7 2.709261 1_555
I0 K1 3.964394 1_555
I1 K0 3.964394 1_555
I2 K3 3.964394 1_545
I3 K2 3.964394 1_565
I4 K0 3.677122 1_455
I4 K0 3.677122 1_555
I4 K1 3.713811 1_554
I5 K1 3.677122 1_655
I5 K1 3.677122 1_555
I5 K0 3.713811 1_556
I6 K2 3.677122 1_455
I6 K2 3.677122 1_555
I6 K3 3.713811 1_545
I7 K3 3.677122 1_655
I7 K3 3.677122 1_555
I7 K2 3.713811 1_565
I8 K3 3.544616 1_555
I8 K3 3.544616 1_655
I8 K1 3.558622 1_655
I8 K1 3.558622 1_555
I9 K2 3.544616 1_455
I9 K2 3.544616 1_555
I9 K0 3.558622 1_455
I9 K0 3.558622 1_555
I10 K1 3.544616 1_555
I10 K1 3.544616 1_655
I10 K3 3.558622 1_545
I10 K3 3.558622 1_645
I11 K0 3.544616 1_455
I11 K0 3.544616 1_555
I11 K2 3.558622 1_465
I11 K2 3.558622 1_565
