# generated using pymatgen
data_Cd4Si4O9
_symmetry_space_group_name_H-M   'P 1'
_cell_length_a   6.14279596
_cell_length_b   8.19677800
_cell_length_c   11.18343625
_cell_angle_alpha   90.00000000
_cell_angle_beta   97.22926555
_cell_angle_gamma   90.00000000
_symmetry_Int_Tables_number   1
_chemical_formula_structural   Cd4Si4O9
_chemical_formula_sum   'Cd8 Si8 O18'
_cell_volume   558.62238293
_cell_formula_units_Z   2
loop_
 _symmetry_equiv_pos_site_id
 _symmetry_equiv_pos_as_xyz
  1  'x, y, z'
loop_
 _atom_site_type_symbol
 _atom_site_label
 _atom_site_symmetry_multiplicity
 _atom_site_fract_x
 _atom_site_fract_y
 _atom_site_fract_z
 _atom_site_occupancy
  Cd  Cd0  1  0.78788900  0.82869900  0.85205400  1
  Cd  Cd1  1  0.21211100  0.32869900  0.64794600  1
  Cd  Cd2  1  0.21211100  0.17130100  0.14794600  1
  Cd  Cd3  1  0.78788900  0.67130100  0.35205400  1
  Cd  Cd4  1  0.73338400  0.38810000  0.91524300  1
  Cd  Cd5  1  0.26661600  0.88810000  0.58475700  1
  Cd  Cd6  1  0.26661600  0.61190000  0.08475700  1
  Cd  Cd7  1  0.73338400  0.11190000  0.41524300  1
  Si  Si0  1  0.69343100  0.05450900  0.10887400  1
  Si  Si1  1  0.30656900  0.55450900  0.39112600  1
  Si  Si2  1  0.30656900  0.94549100  0.89112600  1
  Si  Si3  1  0.69343100  0.44549100  0.60887400  1
  Si  Si4  1  0.85594500  0.68567300  0.12323900  1
  Si  Si5  1  0.14405500  0.18567300  0.37676100  1
  Si  Si6  1  0.14405500  0.31432700  0.87676100  1
  Si  Si7  1  0.85594500  0.81432700  0.62323900  1
  O  O0  1  0.50000000  0.00000000  0.00000000  1
  O  O1  1  0.50000000  0.50000000  0.50000000  1
  O  O2  1  0.85816100  0.18374300  0.05551600  1
  O  O3  1  0.14183900  0.68374300  0.44448400  1
  O  O4  1  0.14183900  0.81625700  0.94448400  1
  O  O5  1  0.85816100  0.31625700  0.55551600  1
  O  O6  1  0.83687700  0.88617400  0.14689200  1
  O  O7  1  0.16312300  0.38617400  0.35310800  1
  O  O8  1  0.16312300  0.11382600  0.85310800  1
  O  O9  1  0.83687700  0.61382600  0.64689200  1
  O  O10  1  0.57052300  0.11641300  0.22151600  1
  O  O11  1  0.42947700  0.61641300  0.27848400  1
  O  O12  1  0.42947700  0.88358700  0.77848400  1
  O  O13  1  0.57052300  0.38358700  0.72151600  1
  O  O14  1  0.31440800  0.36196300  0.99782200  1
  O  O15  1  0.68559200  0.86196300  0.50217800  1
  O  O16  1  0.68559200  0.63803700  0.00217800  1
  O  O17  1  0.31440800  0.13803700  0.49782200  1
loop_
_geom_bond_atom_site_label_1
_geom_bond_atom_site_label_2
_geom_bond_distance
_geom_bond_site_symmetry_2
Cd0 O4 2.289234 1_655
Cd0 O12 2.295806 1_555
Cd0 O16 2.433413 1_556
Cd1 O5 2.289234 1_455
Cd1 O13 2.295806 1_555
Cd1 O17 2.433413 1_555
Cd2 O2 2.289234 1_455
Cd2 O10 2.295806 1_555
Cd2 O14 2.433413 1_554
Cd3 O3 2.289234 1_655
Cd3 O11 2.295806 1_555
Cd3 O15 2.433413 1_555
Cd4 O13 2.269488 1_555
Cd4 O16 2.302247 1_556
Cd4 O2 2.356195 1_556
Cd5 O12 2.269488 1_555
Cd5 O17 2.302247 1_565
Cd5 O3 2.356195 1_555
Cd6 O11 2.269488 1_555
Cd6 O14 2.302247 1_554
Cd6 O4 2.356195 1_554
Cd7 O10 2.269488 1_555
Cd7 O15 2.302247 1_545
Cd7 O5 2.356195 1_555
O0 Si0 1.652230 1_555
O0 Si2 1.652230 1_544
O1 Si3 1.652230 1_555
O1 Si1 1.652230 1_555
O2 Si0 1.629148 1_555
O3 Si1 1.629148 1_555
O4 Si2 1.629148 1_555
O5 Si3 1.629148 1_555
O6 Si0 1.663365 1_565
O6 Si4 1.671065 1_555
O7 Si1 1.663365 1_555
O7 Si5 1.671065 1_555
O8 Si2 1.663365 1_545
O8 Si6 1.671065 1_555
O9 Si3 1.663365 1_555
O9 Si7 1.671065 1_555
O10 Si0 1.629039 1_555
O11 Si1 1.629039 1_555
O12 Si2 1.629039 1_555
O13 Si3 1.629039 1_555
O14 Si6 1.650431 1_555
O15 Si7 1.650431 1_555
O16 Si4 1.650431 1_555
O17 Si5 1.650431 1_555
