# generated using pymatgen
data_Si7PdN10
_symmetry_space_group_name_H-M   'P 1'
_cell_length_a   6.76013899
_cell_length_b   6.92741200
_cell_length_c   9.74329971
_cell_angle_alpha   90.00000000
_cell_angle_beta   104.01987601
_cell_angle_gamma   90.00000000
_symmetry_Int_Tables_number   1
_chemical_formula_structural   Si7PdN10
_chemical_formula_sum   'Si14 Pd2 N20'
_cell_volume   442.68951136
_cell_formula_units_Z   2
loop_
 _symmetry_equiv_pos_site_id
 _symmetry_equiv_pos_as_xyz
  1  'x, y, z'
loop_
 _atom_site_type_symbol
 _atom_site_label
 _atom_site_symmetry_multiplicity
 _atom_site_fract_x
 _atom_site_fract_y
 _atom_site_fract_z
 _atom_site_occupancy
  Si  Si0  1  0.54218600  0.98173300  0.82393400  1
  Si  Si1  1  0.54218600  0.01826700  0.32393400  1
  Si  Si2  1  0.35541300  0.02001300  0.02183100  1
  Si  Si3  1  0.35541300  0.97998700  0.52183100  1
  Si  Si4  1  0.11444700  0.40340500  0.07404600  1
  Si  Si5  1  0.11444700  0.59659500  0.57404600  1
  Si  Si6  1  0.65451000  0.36353700  0.98722100  1
  Si  Si7  1  0.65451000  0.63646300  0.48722100  1
  Si  Si8  1  0.84592300  0.61881500  0.81009500  1
  Si  Si9  1  0.84592300  0.38118500  0.31009500  1
  Si  Si10  1  0.29742100  0.62100900  0.88145600  1
  Si  Si11  1  0.29742100  0.37899100  0.38145600  1
  Si  Si12  1  0.48367900  0.36782900  0.68563000  1
  Si  Si13  1  0.48367900  0.63217100  0.18563000  1
  Pd  Pd0  1  0.97922900  0.90386200  0.68901200  1
  Pd  Pd1  1  0.97922900  0.09613800  0.18901200  1
  N  N0  1  0.74801300  0.84497600  0.81348500  1
  N  N1  1  0.74801300  0.15502400  0.31348500  1
  N  N2  1  0.55075300  0.14002400  0.96649300  1
  N  N3  1  0.55075300  0.85997600  0.46649300  1
  N  N4  1  0.32798400  0.86780100  0.87096700  1
  N  N5  1  0.32798400  0.13219900  0.37096700  1
  N  N6  1  0.16153600  0.16395800  0.04558800  1
  N  N7  1  0.16153600  0.83604200  0.54558800  1
  N  N8  1  0.28595000  0.50261600  0.72348100  1
  N  N9  1  0.28595000  0.49738400  0.22348100  1
  N  N10  1  0.45082800  0.12036400  0.67163100  1
  N  N11  1  0.45082800  0.87963600  0.17163100  1
  N  N12  1  0.87808300  0.38136400  0.12673900  1
  N  N13  1  0.87808300  0.61863600  0.62673900  1
  N  N14  1  0.07527700  0.56852500  0.93441400  1
  N  N15  1  0.07527700  0.43147500  0.43441400  1
  N  N16  1  0.69706500  0.41939000  0.82194700  1
  N  N17  1  0.69706500  0.58061000  0.32194700  1
  N  N18  1  0.49400200  0.53991600  0.02132900  1
  N  N19  1  0.49400200  0.46008400  0.52132900  1
loop_
_geom_bond_atom_site_label_1
_geom_bond_atom_site_label_2
_geom_bond_distance
_geom_bond_site_symmetry_2
N0 Si8 1.704217 1_555
N0 Si0 1.706623 1_555
N0 Pd0 2.235807 1_555
N1 Si9 1.704217 1_555
N1 Si1 1.706623 1_555
N1 Pd1 2.235807 1_555
N2 Si6 1.691618 1_555
N2 Si2 1.752324 1_556
N2 Si0 1.759574 1_545
N3 Si7 1.691618 1_555
N3 Si3 1.752324 1_555
N3 Si1 1.759574 1_565
N4 Si10 1.728062 1_555
N4 Si2 1.781797 1_566
N4 Si0 1.803119 1_555
N4 Pd0 2.595894 1_455
N5 Si11 1.728062 1_555
N5 Si3 1.781797 1_545
N5 Si1 1.803119 1_555
N5 Pd1 2.595894 1_455
N6 Si2 1.706656 1_555
N6 Si4 1.724072 1_555
N6 Pd1 2.127633 1_455
N7 Si3 1.706656 1_555
N7 Si5 1.724072 1_555
N7 Pd0 2.127633 1_455
N8 Si10 1.729153 1_555
N8 Si12 1.741666 1_555
N8 Si5 1.752150 1_555
N9 Si11 1.729153 1_555
N9 Si13 1.741666 1_555
N9 Si4 1.752150 1_555
N10 Si12 1.729752 1_555
N10 Si3 1.742367 1_545
N10 Si0 1.749776 1_545
N11 Si13 1.729752 1_555
N11 Si2 1.742367 1_565
N11 Si1 1.749776 1_565
N12 Si6 1.775375 1_554
N12 Si4 1.799306 1_655
N12 Si9 1.851217 1_555
N12 Pd1 2.130435 1_555
N13 Si7 1.775375 1_555
N13 Si5 1.799306 1_655
N13 Si8 1.851217 1_555
N13 Pd0 2.130435 1_555
N14 Si10 1.740415 1_555
N14 Si4 1.747818 1_556
N14 Si8 1.755722 1_455
N15 Si11 1.740415 1_555
N15 Si5 1.747818 1_555
N15 Si9 1.755722 1_455
N16 Si8 1.729399 1_555
N16 Si12 1.744764 1_555
N16 Si6 1.746433 1_555
N17 Si9 1.729399 1_555
N17 Si13 1.744764 1_555
N17 Si7 1.746433 1_555
N18 Si6 1.719133 1_554
N18 Si13 1.740718 1_555
N18 Si10 1.749682 1_554
N19 Si7 1.719133 1_555
N19 Si12 1.740718 1_555
N19 Si11 1.749682 1_555
