# generated using pymatgen
data_Sr3Ti5O13
_symmetry_space_group_name_H-M   'P 1'
_cell_length_a   5.66606487
_cell_length_b   11.83678716
_cell_length_c   31.87110988
_cell_angle_alpha   90.00000000
_cell_angle_beta   90.80673971
_cell_angle_gamma   90.00000000
_symmetry_Int_Tables_number   1
_chemical_formula_structural   Sr3Ti5O13
_chemical_formula_sum   'Sr15 Ti25 O65'
_cell_volume   2137.31983777
_cell_formula_units_Z   5
loop_
 _symmetry_equiv_pos_site_id
 _symmetry_equiv_pos_as_xyz
  1  'x, y, z'
loop_
 _atom_site_type_symbol
 _atom_site_label
 _atom_site_symmetry_multiplicity
 _atom_site_fract_x
 _atom_site_fract_y
 _atom_site_fract_z
 _atom_site_occupancy
  Sr  Sr0  1  0.48507770  0.00000000  0.82096933  1
  Sr  Sr1  1  0.51492230  0.00000000  0.17903067  1
  Sr  Sr2  1  0.49149231  0.66256226  0.82202298  1
  Sr  Sr3  1  0.49149231  0.33743774  0.82202298  1
  Sr  Sr4  1  0.50850769  0.33743774  0.17797702  1
  Sr  Sr5  1  0.50850769  0.66256226  0.17797702  1
  Sr  Sr6  1  0.99561047  0.00000000  0.91166850  1
  Sr  Sr7  1  0.00438953  0.00000000  0.08833150  1
  Sr  Sr8  1  0.99753888  0.67319279  0.91493668  1
  Sr  Sr9  1  0.99753888  0.32680721  0.91493668  1
  Sr  Sr10  1  0.00246112  0.32680721  0.08506332  1
  Sr  Sr11  1  0.00246112  0.67319279  0.08506332  1
  Sr  Sr12  1  0.50000000  0.00000000  -0.00000000  1
  Sr  Sr13  1  0.50000000  0.67275107  -0.00000000  1
  Sr  Sr14  1  0.50000000  0.32724893  -0.00000000  1
  Ti  Ti0  1  0.66275003  0.86094830  0.72897234  1
  Ti  Ti1  1  0.66275003  0.13905170  0.72897234  1
  Ti  Ti2  1  0.33724997  0.13905170  0.27102766  1
  Ti  Ti3  1  0.33724997  0.86094830  0.27102766  1
  Ti  Ti4  1  0.15822814  0.76904056  0.72436406  1
  Ti  Ti5  1  0.15822814  0.23095944  0.72436406  1
  Ti  Ti6  1  0.84177186  0.23095944  0.27563594  1
  Ti  Ti7  1  0.84177186  0.76904056  0.27563594  1
  Ti  Ti8  1  0.99748314  0.50000000  0.74653571  1
  Ti  Ti9  1  0.00251686  0.50000000  0.25346429  1
  Ti  Ti10  1  0.99128097  0.83090824  0.82571886  1
  Ti  Ti11  1  0.99128097  0.16909176  0.82571886  1
  Ti  Ti12  1  0.00871903  0.16909176  0.17428114  1
  Ti  Ti13  1  0.00871903  0.83090824  0.17428114  1
  Ti  Ti14  1  0.97791096  0.50000000  0.83444153  1
  Ti  Ti15  1  0.02208904  0.50000000  0.16555847  1
  Ti  Ti16  1  0.49747205  0.83531124  0.91165513  1
  Ti  Ti17  1  0.49747205  0.16468876  0.91165513  1
  Ti  Ti18  1  0.50252795  0.16468876  0.08834487  1
  Ti  Ti19  1  0.50252795  0.83531124  0.08834487  1
  Ti  Ti20  1  0.49696161  0.50000000  0.91517391  1
  Ti  Ti21  1  0.50303839  0.50000000  0.08482609  1
  Ti  Ti22  1  0.00000000  0.83549077  -0.00000000  1
  Ti  Ti23  1  0.00000000  0.16450923  -0.00000000  1
  Ti  Ti24  1  0.00000000  0.50000000  -0.00000000  1
  O  O0  1  0.94505251  0.87071761  0.70287851  1
  O  O1  1  0.94505251  0.12928239  0.70287851  1
  O  O2  1  0.05494749  0.12928239  0.29712149  1
  O  O3  1  0.05494749  0.87071761  0.29712149  1
  O  O4  1  0.45137168  0.77024479  0.70121814  1
  O  O5  1  0.45137168  0.22975521  0.70121814  1
  O  O6  1  0.54862832  0.22975521  0.29878186  1
  O  O7  1  0.54862832  0.77024479  0.29878186  1
  O  O8  1  0.52472284  0.00000000  0.73709414  1
  O  O9  1  0.47527716  0.00000000  0.26290586  1
  O  O10  1  0.01673256  0.63309695  0.71736868  1
  O  O11  1  0.01673256  0.36690305  0.71736868  1
  O  O12  1  0.98326744  0.36690305  0.28263132  1
  O  O13  1  0.98326744  0.63309695  0.28263132  1
  O  O14  1  0.72476707  0.81713075  0.78252065  1
  O  O15  1  0.72476707  0.18286925  0.78252065  1
  O  O16  1  0.27523293  0.18286925  0.21747935  1
  O  O17  1  0.27523293  0.81713075  0.21747935  1
  O  O18  1  0.21988148  0.80414087  0.77958990  1
  O  O19  1  0.21988148  0.19585913  0.77958990  1
  O  O20  1  0.78011852  0.19585913  0.22041010  1
  O  O21  1  0.78011852  0.80414087  0.22041010  1
  O  O22  1  0.22254203  0.50000000  0.78840259  1
  O  O23  1  0.77745797  0.50000000  0.21159741  1
  O  O24  1  0.75319453  0.50000000  0.78202721  1
  O  O25  1  0.24680547  0.50000000  0.21797279  1
  O  O26  1  0.99845722  0.00000000  0.82184976  1
  O  O27  1  0.00154278  0.00000000  0.17815024  1
  O  O28  1  0.97522506  0.66717769  0.83460049  1
  O  O29  1  0.97522506  0.33282231  0.83460049  1
  O  O30  1  0.02477494  0.33282231  0.16539951  1
  O  O31  1  0.02477494  0.66717769  0.16539951  1
  O  O32  1  0.24613570  0.83872741  0.86701673  1
  O  O33  1  0.24613570  0.16127259  0.86701673  1
  O  O34  1  0.75386430  0.16127259  0.13298327  1
  O  O35  1  0.75386430  0.83872741  0.13298327  1
  O  O36  1  0.73927718  0.84431317  0.86865324  1
  O  O37  1  0.73927718  0.15568683  0.86865324  1
  O  O38  1  0.26072282  0.15568683  0.13134676  1
  O  O39  1  0.26072282  0.84431317  0.13134676  1
  O  O40  1  0.20261220  0.50000000  0.87807223  1
  O  O41  1  0.79738780  0.50000000  0.12192777  1
  O  O42  1  0.68801813  0.50000000  0.86512423  1
  O  O43  1  0.31198187  0.50000000  0.13487577  1
  O  O44  1  0.48721379  0.00000000  0.91493687  1
  O  O45  1  0.51278621  0.00000000  0.08506313  1
  O  O46  1  0.49432300  0.66863220  0.91280445  1
  O  O47  1  0.49432300  0.33136780  0.91280445  1
  O  O48  1  0.50567700  0.33136780  0.08719555  1
  O  O49  1  0.50567700  0.66863220  0.08719555  1
  O  O50  1  0.24211072  0.83318138  0.95579997  1
  O  O51  1  0.24211072  0.16681862  0.95579997  1
  O  O52  1  0.75788928  0.16681862  0.04420003  1
  O  O53  1  0.75788928  0.83318138  0.04420003  1
  O  O54  1  0.74537745  0.83412642  0.95650633  1
  O  O55  1  0.74537745  0.16587358  0.95650633  1
  O  O56  1  0.25462255  0.16587358  0.04349367  1
  O  O57  1  0.25462255  0.83412642  0.04349367  1
  O  O58  1  0.28014777  0.50000000  0.96275126  1
  O  O59  1  0.71985223  0.50000000  0.03724874  1
  O  O60  1  0.77742244  0.50000000  0.95098555  1
  O  O61  1  0.22257756  0.50000000  0.04901445  1
  O  O62  1  0.00000000  0.00000000  -0.00000000  1
  O  O63  1  0.00000000  0.66578860  -0.00000000  1
  O  O64  1  0.00000000  0.33421140  -0.00000000  1
loop_
_geom_bond_atom_site_label_1
_geom_bond_atom_site_label_2
_geom_bond_distance
_geom_bond_site_symmetry_2
O0 Ti0 1.816864 1_555
O0 Ti4 1.831132 1_655
O1 Ti1 1.816864 1_555
O1 Ti5 1.831132 1_655
O2 Ti2 1.816864 1_555
O2 Ti6 1.831132 1_455
O3 Ti3 1.816864 1_555
O3 Ti7 1.831132 1_455
O4 Ti4 1.826940 1_555
O4 Ti0 1.827499 1_555
O5 Ti5 1.826940 1_555
O5 Ti1 1.827499 1_555
O6 Ti6 1.826940 1_555
O6 Ti2 1.827499 1_555
O7 Ti7 1.826940 1_555
O7 Ti3 1.827499 1_555
O8 Ti0 1.842121 1_545
O8 Ti1 1.842121 1_555
O8 Sr0 2.685767 1_555
O9 Ti3 1.842121 1_545
O9 Ti2 1.842121 1_555
O9 Sr1 2.685767 1_555
O10 Ti4 1.810180 1_555
O10 Ti8 1.833274 1_455
O11 Ti5 1.810180 1_555
O11 Ti8 1.833274 1_455
O12 Ti6 1.810180 1_555
O12 Ti9 1.833274 1_655
O13 Ti7 1.810180 1_555
O13 Ti9 1.833274 1_655
O14 Ti0 1.813348 1_555
O14 Ti10 2.035661 1_555
O14 Sr2 2.593518 1_555
O14 Sr0 2.842239 1_565
O15 Ti1 1.813348 1_555
O15 Ti11 2.035661 1_555
O15 Sr3 2.593518 1_555
O15 Sr0 2.842239 1_555
O16 Ti2 1.813348 1_555
O16 Ti12 2.035661 1_555
O16 Sr4 2.593518 1_555
O16 Sr1 2.842239 1_555
O17 Ti3 1.813348 1_555
O17 Ti13 2.035661 1_555
O17 Sr5 2.593518 1_555
O17 Sr1 2.842239 1_565
O18 Ti4 1.837205 1_555
O18 Ti10 1.998288 1_455
O18 Sr2 2.635752 1_555
O18 Sr0 3.052217 1_565
O19 Ti5 1.837205 1_555
O19 Ti11 1.998288 1_455
O19 Sr3 2.635752 1_555
O19 Sr0 3.052217 1_555
O20 Ti6 1.837205 1_555
O20 Ti12 1.998288 1_655
O20 Sr4 2.635752 1_555
O20 Sr1 3.052217 1_555
O21 Ti7 1.837205 1_555
O21 Ti13 1.998288 1_655
O21 Sr5 2.635752 1_555
O21 Sr1 3.052217 1_565
O22 Ti8 1.832673 1_455
O22 Ti14 2.032618 1_455
O22 Sr2 2.669647 1_555
O22 Sr3 2.669647 1_555
O23 Ti9 1.832673 1_655
O23 Ti15 2.032618 1_655
O23 Sr5 2.669647 1_555
O23 Sr4 2.669647 1_555
O24 Ti8 1.799856 1_555
O24 Ti14 2.086113 1_555
O24 Sr3 2.753084 1_555
O24 Sr2 2.753084 1_555
O25 Ti9 1.799856 1_555
O25 Ti15 2.086113 1_555
O25 Sr4 2.753084 1_555
O25 Sr5 2.753084 1_555
O26 Ti11 2.005746 1_555
O26 Ti10 2.005746 1_545
O26 Sr0 2.757761 1_655
O26 Sr6 2.862895 1_555
O26 Sr0 2.908582 1_555
O27 Ti12 2.005746 1_555
O27 Ti13 2.005746 1_545
O27 Sr1 2.757761 1_455
O27 Sr7 2.862895 1_555
O27 Sr1 2.908582 1_555
O28 Ti10 1.960903 1_555
O28 Ti14 1.978912 1_555
O28 Sr8 2.562734 1_555
O28 Sr2 2.764969 1_555
O28 Sr2 2.958633 1_655
O29 Ti11 1.960903 1_555
O29 Ti14 1.978912 1_555
O29 Sr9 2.562734 1_555
O29 Sr3 2.764969 1_555
O29 Sr3 2.958633 1_655
O30 Ti12 1.960903 1_555
O30 Ti15 1.978912 1_555
O30 Sr10 2.562734 1_555
O30 Sr4 2.764969 1_555
O30 Sr4 2.958633 1_455
O31 Ti13 1.960903 1_555
O31 Ti15 1.978912 1_555
O31 Sr11 2.562734 1_555
O31 Sr5 2.764969 1_555
O31 Sr5 2.958633 1_455
O32 Ti10 1.942332 1_455
O32 Ti16 1.999154 1_555
O32 Sr0 2.772503 1_565
O32 Sr6 2.782292 1_465
O32 Sr8 2.866427 1_455
O32 Sr2 2.897128 1_555
O33 Ti11 1.942332 1_455
O33 Ti17 1.999154 1_555
O33 Sr0 2.772503 1_555
O33 Sr6 2.782292 1_455
O33 Sr9 2.866427 1_455
O33 Sr3 2.897128 1_555
O34 Ti12 1.942332 1_655
O34 Ti18 1.999154 1_555
O34 Sr1 2.772503 1_555
O34 Sr7 2.782292 1_655
O34 Sr10 2.866427 1_655
O34 Sr4 2.897128 1_555
O35 Ti13 1.942332 1_655
O35 Ti19 1.999154 1_555
O35 Sr1 2.772503 1_565
O35 Sr7 2.782292 1_665
O35 Sr11 2.866427 1_655
O35 Sr5 2.897128 1_555
O36 Ti16 1.954400 1_555
O36 Ti10 1.997858 1_555
O36 Sr6 2.707197 1_565
O36 Sr0 2.778218 1_565
O36 Sr8 2.891226 1_555
O36 Sr2 2.957925 1_555
O37 Ti17 1.954400 1_555
O37 Ti11 1.997858 1_555
O37 Sr6 2.707197 1_555
O37 Sr0 2.778218 1_555
O37 Sr9 2.891226 1_555
O37 Sr3 2.957925 1_555
O38 Ti18 1.954400 1_555
O38 Ti12 1.997858 1_555
O38 Sr7 2.707197 1_555
O38 Sr1 2.778218 1_555
O38 Sr10 2.891226 1_555
O38 Sr4 2.957925 1_555
O39 Ti19 1.954400 1_555
O39 Ti13 1.997858 1_555
O39 Sr7 2.707197 1_565
O39 Sr1 2.778218 1_565
O39 Sr11 2.891226 1_555
O39 Sr5 2.957925 1_555
O40 Ti14 1.872102 1_455
O40 Ti20 2.030830 1_555
O40 Sr9 2.640397 1_455
O40 Sr8 2.640397 1_455
O40 Sr2 3.107274 1_555
O40 Sr3 3.107274 1_555
O41 Ti15 1.872102 1_655
O41 Ti21 2.030830 1_555
O41 Sr10 2.640397 1_655
O41 Sr11 2.640397 1_655
O41 Sr4 3.107274 1_555
O41 Sr5 3.107274 1_555
O42 Ti14 1.923403 1_555
O42 Ti20 1.940357 1_555
O42 Sr2 2.605088 1_555
O42 Sr3 2.605088 1_555
O42 Sr9 3.117753 1_555
O42 Sr8 3.117753 1_555
O43 Ti15 1.923403 1_555
O43 Ti21 1.940357 1_555
O43 Sr5 2.605088 1_555
O43 Sr4 2.605088 1_555
O43 Sr10 3.117753 1_555
O43 Sr11 3.117753 1_555
O44 Ti16 1.953099 1_545
O44 Ti17 1.953099 1_555
O44 Sr12 2.711004 1_556
O44 Sr6 2.785937 1_455
O44 Sr6 2.883957 1_555
O44 Sr0 2.994704 1_555
O45 Ti19 1.953099 1_545
O45 Ti18 1.953099 1_555
O45 Sr12 2.711004 1_555
O45 Sr7 2.785937 1_655
O45 Sr7 2.883957 1_555
O45 Sr1 2.994704 1_555
O46 Ti16 1.973370 1_555
O46 Ti20 1.997539 1_555
O46 Sr13 2.779180 1_556
O46 Sr8 2.817105 1_455
O46 Sr8 2.851618 1_555
O46 Sr2 2.894017 1_555
O47 Ti17 1.973370 1_555
O47 Ti20 1.997539 1_555
O47 Sr14 2.779180 1_556
O47 Sr9 2.817105 1_455
O47 Sr9 2.851618 1_555
O47 Sr3 2.894017 1_555
O48 Ti18 1.973370 1_555
O48 Ti21 1.997539 1_555
O48 Sr14 2.779180 1_555
O48 Sr10 2.817105 1_655
O48 Sr10 2.851618 1_555
O48 Sr4 2.894017 1_555
O49 Ti19 1.973370 1_555
O49 Ti21 1.997539 1_555
O49 Sr13 2.779180 1_555
O49 Sr11 2.817105 1_655
O49 Sr11 2.851618 1_555
O49 Sr5 2.894017 1_555
O50 Ti22 1.980275 1_556
O50 Ti16 2.032475 1_555
O50 Sr8 2.674311 1_455
O50 Sr13 2.769072 1_556
O50 Sr6 2.787964 1_465
O50 Sr12 2.821466 1_566
O51 Ti23 1.980275 1_556
O51 Ti17 2.032475 1_555
O51 Sr9 2.674311 1_455
O51 Sr14 2.769072 1_556
O51 Sr6 2.787964 1_455
O51 Sr12 2.821466 1_556
O52 Ti23 1.980275 1_655
O52 Ti18 2.032475 1_555
O52 Sr10 2.674311 1_655
O52 Sr14 2.769072 1_555
O52 Sr7 2.787964 1_655
O52 Sr12 2.821466 1_555
O53 Ti22 1.980275 1_655
O53 Ti19 2.032475 1_555
O53 Sr11 2.674311 1_655
O53 Sr13 2.769072 1_555
O53 Sr7 2.787964 1_665
O53 Sr12 2.821466 1_565
O54 Ti22 1.986675 1_656
O54 Ti16 1.989985 1_555
O54 Sr8 2.734728 1_555
O54 Sr13 2.749097 1_556
O54 Sr12 2.786356 1_566
O54 Sr6 2.822131 1_565
O55 Ti23 1.986675 1_656
O55 Ti17 1.989985 1_555
O55 Sr9 2.734728 1_555
O55 Sr14 2.749097 1_556
O55 Sr12 2.786356 1_556
O55 Sr6 2.822131 1_555
O56 Ti23 1.986675 1_555
O56 Ti18 1.989985 1_555
O56 Sr10 2.734728 1_555
O56 Sr14 2.749097 1_555
O56 Sr12 2.786356 1_555
O56 Sr7 2.822131 1_555
O57 Ti22 1.986675 1_555
O57 Ti19 1.989985 1_555
O57 Sr11 2.734728 1_555
O57 Sr13 2.749097 1_555
O57 Sr12 2.786356 1_565
O57 Sr7 2.822131 1_565
O58 Ti20 1.964922 1_555
O58 Ti24 1.995506 1_556
O58 Sr13 2.664722 1_556
O58 Sr14 2.664722 1_556
O58 Sr9 3.003391 1_455
O58 Sr8 3.003391 1_455
O59 Ti21 1.964922 1_555
O59 Ti24 1.995506 1_655
O59 Sr13 2.664722 1_555
O59 Sr14 2.664722 1_555
O59 Sr10 3.003391 1_655
O59 Sr11 3.003391 1_655
O60 Ti20 1.943422 1_555
O60 Ti24 1.993813 1_656
O60 Sr9 2.668060 1_555
O60 Sr8 2.668060 1_555
O60 Sr13 3.026809 1_556
O60 Sr14 3.026809 1_556
O61 Ti21 1.943422 1_555
O61 Ti24 1.993813 1_555
O61 Sr10 2.668060 1_555
O61 Sr11 2.668060 1_555
O61 Sr13 3.026809 1_555
O61 Sr14 3.026809 1_555
O62 Ti22 1.947261 1_545
O62 Ti23 1.947261 1_555
O62 Sr7 2.814983 1_555
O62 Sr6 2.814983 1_454
O62 Sr12 2.833032 1_555
O62 Sr12 2.833032 1_455
O63 Ti24 1.962404 1_555
O63 Ti22 2.008728 1_555
O63 Sr8 2.712318 1_454
O63 Sr11 2.712318 1_555
O63 Sr13 2.834231 1_455
O63 Sr13 2.834231 1_555
O64 Ti24 1.962404 1_555
O64 Ti23 2.008728 1_555
O64 Sr9 2.712318 1_454
O64 Sr10 2.712318 1_555
O64 Sr14 2.834231 1_555
O64 Sr14 2.834231 1_455
