# generated using pymatgen
data_Rb2Be3Cd2F12
_symmetry_space_group_name_H-M   'P 1'
_cell_length_a   10.39307475
_cell_length_b   10.39307475
_cell_length_c   10.39307475
_cell_angle_alpha   90.00000000
_cell_angle_beta   90.00000000
_cell_angle_gamma   90.00000000
_symmetry_Int_Tables_number   1
_chemical_formula_structural   Rb2Be3Cd2F12
_chemical_formula_sum   'Rb8 Be12 Cd8 F48'
_cell_volume   1122.61839087
_cell_formula_units_Z   4
loop_
 _symmetry_equiv_pos_site_id
 _symmetry_equiv_pos_as_xyz
  1  'x, y, z'
loop_
 _atom_site_type_symbol
 _atom_site_label
 _atom_site_symmetry_multiplicity
 _atom_site_fract_x
 _atom_site_fract_y
 _atom_site_fract_z
 _atom_site_occupancy
  Rb  Rb0  1  0.05429280  0.05429280  0.05429280  1
  Rb  Rb1  1  0.44570720  0.94570720  0.55429280  1
  Rb  Rb2  1  0.55429280  0.44570720  0.94570720  1
  Rb  Rb3  1  0.94570720  0.55429280  0.44570720  1
  Rb  Rb4  1  0.29328929  0.29328929  0.29328929  1
  Rb  Rb5  1  0.20671071  0.70671071  0.79328929  1
  Rb  Rb6  1  0.79328929  0.20671071  0.70671071  1
  Rb  Rb7  1  0.70671071  0.79328929  0.20671071  1
  Be  Be0  1  0.62538439  0.47503150  0.26015864  1
  Be  Be1  1  0.87461561  0.52496850  0.76015864  1
  Be  Be2  1  0.37461561  0.97503150  0.23984136  1
  Be  Be3  1  0.12538439  0.02496850  0.73984136  1
  Be  Be4  1  0.97503150  0.23984136  0.37461561  1
  Be  Be5  1  0.73984136  0.12538439  0.02496850  1
  Be  Be6  1  0.23984136  0.37461561  0.97503150  1
  Be  Be7  1  0.52496850  0.76015864  0.87461561  1
  Be  Be8  1  0.76015864  0.87461561  0.52496850  1
  Be  Be9  1  0.02496850  0.73984136  0.12538439  1
  Be  Be10  1  0.47503150  0.26015864  0.62538439  1
  Be  Be11  1  0.26015864  0.62538439  0.47503150  1
  Cd  Cd0  1  0.57660156  0.57660156  0.57660156  1
  Cd  Cd1  1  0.92339844  0.42339844  0.07660156  1
  Cd  Cd2  1  0.07660156  0.92339844  0.42339844  1
  Cd  Cd3  1  0.42339844  0.07660156  0.92339844  1
  Cd  Cd4  1  0.83449391  0.83449391  0.83449391  1
  Cd  Cd5  1  0.66550609  0.16550609  0.33449391  1
  Cd  Cd6  1  0.33449391  0.66550609  0.16550609  1
  Cd  Cd7  1  0.16550609  0.33449391  0.66550609  1
  F  F0  1  0.39833793  0.67027274  0.50540706  1
  F  F1  1  0.43047708  0.83712251  0.24971231  1
  F  F2  1  0.06952292  0.16287749  0.74971231  1
  F  F3  1  0.83712251  0.24971231  0.43047708  1
  F  F4  1  0.97728432  0.42715122  0.71409328  1
  F  F5  1  0.52271568  0.57284878  0.21409328  1
  F  F6  1  0.21409328  0.52271568  0.57284878  1
  F  F7  1  0.57284878  0.21409328  0.52271568  1
  F  F8  1  0.92715122  0.78590672  0.02271568  1
  F  F9  1  0.71409328  0.97728432  0.42715122  1
  F  F10  1  0.42715122  0.71409328  0.97728432  1
  F  F11  1  0.28590672  0.47728432  0.07284878  1
  F  F12  1  0.78590672  0.02271568  0.92715122  1
  F  F13  1  0.07284878  0.28590672  0.47728432  1
  F  F14  1  0.02271568  0.92715122  0.78590672  1
  F  F15  1  0.47728432  0.07284878  0.28590672  1
  F  F16  1  0.67027274  0.50540706  0.39833793  1
  F  F17  1  0.93047708  0.66287749  0.75028769  1
  F  F18  1  0.50540706  0.39833793  0.67027274  1
  F  F19  1  0.99459294  0.60166207  0.17027274  1
  F  F20  1  0.89833793  0.82972726  0.49459294  1
  F  F21  1  0.49459294  0.89833793  0.82972726  1
  F  F22  1  0.10166207  0.32972726  0.00540706  1
  F  F23  1  0.60166207  0.17027274  0.99459294  1
  F  F24  1  0.00540706  0.10166207  0.32972726  1
  F  F25  1  0.17027274  0.99459294  0.60166207  1
  F  F26  1  0.32972726  0.00540706  0.10166207  1
  F  F27  1  0.82972726  0.49459294  0.89833793  1
  F  F28  1  0.74051621  0.49050491  0.16684291  1
  F  F29  1  0.16684291  0.74051621  0.49050491  1
  F  F30  1  0.49050491  0.16684291  0.74051621  1
  F  F31  1  0.00949509  0.83315709  0.24051621  1
  F  F32  1  0.66684291  0.75948379  0.50949509  1
  F  F33  1  0.50949509  0.66684291  0.75948379  1
  F  F34  1  0.33315709  0.25948379  0.99050491  1
  F  F35  1  0.83315709  0.24051621  0.00949509  1
  F  F36  1  0.99050491  0.33315709  0.25948379  1
  F  F37  1  0.24051621  0.00949509  0.83315709  1
  F  F38  1  0.25948379  0.99050491  0.33315709  1
  F  F39  1  0.75948379  0.50949509  0.66684291  1
  F  F40  1  0.56952292  0.33712251  0.25028769  1
  F  F41  1  0.25028769  0.56952292  0.33712251  1
  F  F42  1  0.33712251  0.25028769  0.56952292  1
  F  F43  1  0.16287749  0.74971231  0.06952292  1
  F  F44  1  0.75028769  0.93047708  0.66287749  1
  F  F45  1  0.74971231  0.06952292  0.16287749  1
  F  F46  1  0.24971231  0.43047708  0.83712251  1
  F  F47  1  0.66287749  0.75028769  0.93047708  1
loop_
_geom_bond_atom_site_label_1
_geom_bond_atom_site_label_2
_geom_bond_distance
_geom_bond_site_symmetry_2
Be0 F16 1.542633 1_555
Be0 F28 1.548624 1_555
Be0 F5 1.549618 1_555
Be0 F40 1.549817 1_555
Be1 F27 1.542633 1_555
Be1 F39 1.548624 1_555
Be1 F4 1.549618 1_555
Be1 F17 1.549817 1_555
Be2 F26 1.542633 1_565
Be2 F38 1.548624 1_555
Be2 F15 1.549618 1_565
Be2 F1 1.549817 1_555
Be3 F25 1.542633 1_545
Be3 F37 1.548624 1_555
Be3 F14 1.549618 1_545
Be3 F2 1.549817 1_555
Be4 F24 1.542633 1_655
Be4 F36 1.548624 1_555
Be4 F13 1.549618 1_655
Be4 F3 1.549817 1_555
Be5 F23 1.542633 1_554
Be5 F35 1.548624 1_555
Be5 F12 1.549618 1_554
Be5 F45 1.549817 1_555
Be6 F22 1.542633 1_556
Be6 F34 1.548624 1_555
Be6 F11 1.549618 1_556
Be6 F46 1.549817 1_555
Be7 F21 1.542633 1_555
Be7 F33 1.548624 1_555
Be7 F10 1.549618 1_555
Be7 F47 1.549817 1_555
Be8 F20 1.542633 1_555
Be8 F32 1.548624 1_555
Be8 F9 1.549618 1_555
Be8 F44 1.549817 1_555
Be9 F19 1.542633 1_455
Be9 F31 1.548624 1_555
Be9 F8 1.549618 1_455
Be9 F43 1.549817 1_555
Be10 F18 1.542633 1_555
Be10 F30 1.548624 1_555
Be10 F7 1.549618 1_555
Be10 F42 1.549817 1_555
Be11 F0 1.542633 1_555
Be11 F29 1.548624 1_555
Be11 F6 1.549618 1_555
Be11 F41 1.549817 1_555
Cd0 F18 2.219861 1_555
Cd0 F0 2.219861 1_555
Cd0 F16 2.219861 1_555
Cd0 F39 2.231311 1_555
Cd0 F32 2.231311 1_555
Cd0 F33 2.231311 1_555
Cd1 F22 2.219861 1_655
Cd1 F27 2.219861 1_554
Cd1 F19 2.219861 1_555
Cd1 F35 2.231311 1_555
Cd1 F36 2.231311 1_555
Cd1 F28 2.231311 1_555
Cd2 F24 2.219861 1_565
Cd2 F20 2.219861 1_455
Cd2 F25 2.219861 1_555
Cd2 F31 2.231311 1_555
Cd2 F38 2.231311 1_555
Cd2 F29 2.231311 1_555
Cd3 F26 2.219861 1_556
Cd3 F21 2.219861 1_545
Cd3 F23 2.219861 1_555
Cd3 F37 2.231311 1_555
Cd3 F30 2.231311 1_555
Cd3 F34 2.231311 1_555
Cd4 F44 2.223138 1_555
Cd4 F47 2.223138 1_555
Cd4 F17 2.223138 1_555
Cd4 F12 2.238098 1_565
Cd4 F14 2.238098 1_655
Cd4 F8 2.238098 1_556
Cd5 F3 2.223138 1_555
Cd5 F45 2.223138 1_555
Cd5 F40 2.223138 1_555
Cd5 F7 2.238098 1_555
Cd5 F9 2.238098 1_545
Cd5 F15 2.238098 1_555
Cd6 F41 2.223138 1_555
Cd6 F1 2.223138 1_555
Cd6 F43 2.223138 1_555
Cd6 F5 2.238098 1_555
Cd6 F10 2.238098 1_554
Cd6 F11 2.238098 1_555
Cd7 F42 2.223138 1_555
Cd7 F2 2.223138 1_555
Cd7 F46 2.223138 1_555
Cd7 F6 2.238098 1_555
Cd7 F4 2.238098 1_455
Cd7 F13 2.238098 1_555
F0 Rb1 2.948737 1_555
F1 Rb7 2.940992 1_555
F1 Rb1 3.364402 1_555
F2 Rb6 2.940992 1_455
F2 Rb0 3.364402 1_556
F3 Rb6 2.940992 1_555
F3 Rb3 3.364402 1_555
F4 Rb6 2.985232 1_555
F4 Rb3 3.103915 1_555
F5 Rb7 2.985232 1_555
F5 Rb2 3.103915 1_554
F6 Rb5 2.985232 1_555
F6 Rb3 3.103915 1_455
F7 Rb6 2.985232 1_555
F7 Rb1 3.103915 1_545
F8 Rb7 2.985232 1_555
F8 Rb0 3.103915 1_665
F9 Rb7 2.985232 1_555
F9 Rb1 3.103915 1_555
F10 Rb5 2.985232 1_555
F10 Rb2 3.103915 1_555
F11 Rb4 2.985232 1_555
F11 Rb2 3.103915 1_554
F12 Rb6 2.985232 1_555
F12 Rb0 3.103915 1_656
F13 Rb4 2.985232 1_555
F13 Rb3 3.103915 1_455
F14 Rb5 2.985232 1_555
F14 Rb0 3.103915 1_566
F15 Rb4 2.985232 1_555
F15 Rb1 3.103915 1_545
F16 Rb3 2.948737 1_555
F17 Rb5 2.940992 1_655
F17 Rb3 3.364402 1_555
F18 Rb2 2.948737 1_555
F19 Rb3 2.948737 1_555
F20 Rb3 2.948737 1_555
F21 Rb1 2.948737 1_555
F22 Rb0 2.948737 1_555
F23 Rb2 2.948737 1_555
F24 Rb0 2.948737 1_555
F25 Rb1 2.948737 1_555
F26 Rb0 2.948737 1_555
F27 Rb2 2.948737 1_555
F28 Rb2 3.040521 1_554
F28 Rb7 3.193409 1_555
F29 Rb3 3.040521 1_455
F29 Rb5 3.193409 1_555
F30 Rb1 3.040521 1_545
F30 Rb6 3.193409 1_555
F31 Rb0 3.040521 1_565
F31 Rb7 3.193409 1_455
F32 Rb1 3.040521 1_555
F32 Rb7 3.193409 1_555
F33 Rb2 3.040521 1_555
F33 Rb5 3.193409 1_555
F34 Rb2 3.040521 1_555
F34 Rb4 3.193409 1_556
F35 Rb0 3.040521 1_655
F35 Rb6 3.193409 1_554
F36 Rb3 3.040521 1_555
F36 Rb4 3.193409 1_655
F37 Rb0 3.040521 1_556
F37 Rb5 3.193409 1_545
F38 Rb1 3.040521 1_555
F38 Rb4 3.193409 1_565
F39 Rb3 3.040521 1_555
F39 Rb6 3.193409 1_555
F40 Rb4 2.940992 1_555
F40 Rb2 3.364402 1_554
F41 Rb4 2.940992 1_555
F41 Rb3 3.364402 1_455
F42 Rb4 2.940992 1_555
F42 Rb1 3.364402 1_545
F43 Rb5 2.940992 1_554
F43 Rb0 3.364402 1_565
F44 Rb6 2.940992 1_565
F44 Rb1 3.364402 1_555
F45 Rb7 2.940992 1_545
F45 Rb0 3.364402 1_655
F46 Rb5 2.940992 1_555
F46 Rb2 3.364402 1_555
F47 Rb7 2.940992 1_556
F47 Rb2 3.364402 1_555
