# generated using pymatgen
data_DyCrC6(N3O2)2
_symmetry_space_group_name_H-M   'P 1'
_cell_length_a   7.71904029
_cell_length_b   7.71904029
_cell_length_c   13.59564400
_cell_angle_alpha   90.00000000
_cell_angle_beta   90.00000000
_cell_angle_gamma   120.07284211
_symmetry_Int_Tables_number   1
_chemical_formula_structural   DyCrC6(N3O2)2
_chemical_formula_sum   'Dy2 Cr2 C12 N12 O8'
_cell_volume   701.03191194
_cell_formula_units_Z   2
loop_
 _symmetry_equiv_pos_site_id
 _symmetry_equiv_pos_as_xyz
  1  'x, y, z'
loop_
 _atom_site_type_symbol
 _atom_site_label
 _atom_site_symmetry_multiplicity
 _atom_site_fract_x
 _atom_site_fract_y
 _atom_site_fract_z
 _atom_site_occupancy
  Dy  Dy0  1  0.66445600  0.33554400  0.25000000  1
  Dy  Dy1  1  0.33554400  0.66445600  0.75000000  1
  Cr  Cr0  1  0.00000000  0.00000000  0.00000000  1
  Cr  Cr1  1  0.00000000  0.00000000  0.50000000  1
  C  C0  1  0.86306000  0.13694000  0.07468000  1
  C  C1  1  0.13694000  0.86306000  0.92532000  1
  C  C2  1  0.13694000  0.86306000  0.57468000  1
  C  C3  1  0.86306000  0.13694000  0.42532000  1
  C  C4  1  0.85973600  0.75465200  0.09383000  1
  C  C5  1  0.14026400  0.24534800  0.90617000  1
  C  C6  1  0.14026400  0.24534800  0.59383000  1
  C  C7  1  0.24534800  0.14026400  0.40617000  1
  C  C8  1  0.85973600  0.75465200  0.40617000  1
  C  C9  1  0.75465200  0.85973600  0.59383000  1
  C  C10  1  0.75465200  0.85973600  0.90617000  1
  C  C11  1  0.24534800  0.14026400  0.09383000  1
  N  N0  1  0.78629500  0.61336100  0.14477100  1
  N  N1  1  0.21370500  0.38663900  0.85522900  1
  N  N2  1  0.21370500  0.38663900  0.64477100  1
  N  N3  1  0.38663900  0.21370500  0.35522900  1
  N  N4  1  0.78629500  0.61336100  0.35522900  1
  N  N5  1  0.61336100  0.78629500  0.64477100  1
  N  N6  1  0.61336100  0.78629500  0.85522900  1
  N  N7  1  0.38663900  0.21370500  0.14477100  1
  N  N8  1  0.79137000  0.20863000  0.12435400  1
  N  N9  1  0.20863000  0.79137000  0.87564600  1
  N  N10  1  0.20863000  0.79137000  0.62435400  1
  N  N11  1  0.79137000  0.20863000  0.37564600  1
  O  O0  1  0.16368700  0.57249100  0.25000000  1
  O  O1  1  0.83631300  0.42750900  0.75000000  1
  O  O2  1  0.42750900  0.83631300  0.25000000  1
  O  O3  1  0.57249100  0.16368700  0.75000000  1
  O  O4  1  0.32269300  0.67730700  0.17500400  1
  O  O5  1  0.67730700  0.32269300  0.82499600  1
  O  O6  1  0.67730700  0.32269300  0.67500400  1
  O  O7  1  0.32269300  0.67730700  0.32499600  1
loop_
_geom_bond_atom_site_label_1
_geom_bond_atom_site_label_2
_geom_bond_distance
_geom_bond_site_symmetry_2
Dy0 N0 2.347082 1_555
Dy0 N3 2.347082 1_555
Dy0 N4 2.347082 1_555
Dy0 N7 2.347082 1_555
Dy0 N8 2.408186 1_555
Dy0 N11 2.408186 1_555
Dy1 N6 2.347082 1_555
Dy1 N5 2.347082 1_555
Dy1 N1 2.347082 1_555
Dy1 N2 2.347082 1_555
Dy1 N9 2.408186 1_555
Dy1 N10 2.408186 1_555
C0 N8 1.172797 1_555
C0 Cr0 2.094129 1_655
C1 N9 1.172797 1_555
C1 Cr0 2.094129 1_566
C2 N10 1.172797 1_555
C2 Cr1 2.094129 1_565
C3 N11 1.172797 1_555
C3 Cr1 2.094129 1_655
C4 N0 1.170843 1_555
C4 Cr0 2.081174 1_665
C5 N1 1.170843 1_555
C5 Cr0 2.081174 1_556
C6 N2 1.170843 1_555
C6 Cr1 2.081174 1_555
C7 N3 1.170843 1_555
C7 Cr1 2.081174 1_555
C8 N4 1.170843 1_555
C8 Cr1 2.081174 1_665
C9 N5 1.170843 1_555
C9 Cr1 2.081174 1_665
C10 N6 1.170843 1_555
C10 Cr0 2.081174 1_666
C11 N7 1.170843 1_555
C11 Cr0 2.081174 1_555
O0 O7 1.485076 1_555
O0 O4 1.485076 1_555
O1 O5 1.485076 1_555
O1 O6 1.485076 1_555
O2 O7 1.485076 1_555
O2 O4 1.485076 1_555
O3 O5 1.485076 1_555
O3 O6 1.485076 1_555
