# generated using pymatgen
data_Sc19(RuBr7)4
_symmetry_space_group_name_H-M   'P 1'
_cell_length_a   11.23520325
_cell_length_b   11.23520325
_cell_length_c   11.23520287
_cell_angle_alpha   89.28671748
_cell_angle_beta   89.28671748
_cell_angle_gamma   89.28671977
_symmetry_Int_Tables_number   1
_chemical_formula_structural   Sc19(RuBr7)4
_chemical_formula_sum   'Sc19 Ru4 Br28'
_cell_volume   1417.89034324
_cell_formula_units_Z   1
loop_
 _symmetry_equiv_pos_site_id
 _symmetry_equiv_pos_as_xyz
  1  'x, y, z'
loop_
 _atom_site_type_symbol
 _atom_site_label
 _atom_site_symmetry_multiplicity
 _atom_site_fract_x
 _atom_site_fract_y
 _atom_site_fract_z
 _atom_site_occupancy
  Sc  Sc0  1  0.32584400  0.11823400  0.11823400  1
  Sc  Sc1  1  0.11823400  0.32584400  0.11823400  1
  Sc  Sc2  1  0.11823400  0.11823400  0.32584400  1
  Sc  Sc3  1  0.32321000  0.88597800  0.88597800  1
  Sc  Sc4  1  0.11558800  0.67574000  0.88645000  1
  Sc  Sc5  1  0.11558800  0.88645000  0.67574000  1
  Sc  Sc6  1  0.67574000  0.88645000  0.11558800  1
  Sc  Sc7  1  0.88645000  0.67574000  0.11558800  1
  Sc  Sc8  1  0.88597800  0.88597800  0.32321000  1
  Sc  Sc9  1  0.67574000  0.11558800  0.88645000  1
  Sc  Sc10  1  0.88597800  0.32321000  0.88597800  1
  Sc  Sc11  1  0.88645000  0.11558800  0.67574000  1
  Sc  Sc12  1  0.86511800  0.86511800  0.86511800  1
  Sc  Sc13  1  0.86639200  0.13417700  0.13417700  1
  Sc  Sc14  1  0.13417700  0.13417700  0.86639200  1
  Sc  Sc15  1  0.13417700  0.86639200  0.13417700  1
  Sc  Sc16  1  0.37902400  0.62124300  0.62124300  1
  Sc  Sc17  1  0.62124300  0.62124300  0.37902400  1
  Sc  Sc18  1  0.62124300  0.37902400  0.62124300  1
  Ru  Ru0  1  0.09852100  0.09852100  0.09852100  1
  Ru  Ru1  1  0.09796900  0.90010300  0.90010300  1
  Ru  Ru2  1  0.90010300  0.90010300  0.09796900  1
  Ru  Ru3  1  0.90010300  0.09796900  0.90010300  1
  Br  Br0  1  0.60564800  0.12610200  0.12610200  1
  Br  Br1  1  0.12610200  0.60564800  0.12610200  1
  Br  Br2  1  0.12610200  0.12610200  0.60564800  1
  Br  Br3  1  0.60693500  0.87458100  0.87458100  1
  Br  Br4  1  0.12266900  0.39352700  0.87359500  1
  Br  Br5  1  0.12266900  0.87359500  0.39352700  1
  Br  Br6  1  0.39352700  0.87359500  0.12266900  1
  Br  Br7  1  0.87359500  0.39352700  0.12266900  1
  Br  Br8  1  0.87458100  0.87458100  0.60693500  1
  Br  Br9  1  0.39352700  0.12266900  0.87359500  1
  Br  Br10  1  0.87458100  0.60693500  0.87458100  1
  Br  Br11  1  0.87359500  0.12266900  0.39352700  1
  Br  Br12  1  0.62518600  0.62518600  0.62518600  1
  Br  Br13  1  0.63211000  0.38454500  0.38454500  1
  Br  Br14  1  0.38454500  0.38454500  0.63211000  1
  Br  Br15  1  0.38454500  0.63211000  0.38454500  1
  Br  Br16  1  0.11100200  0.35455800  0.35455800  1
  Br  Br17  1  0.35455800  0.11100200  0.35455800  1
  Br  Br18  1  0.35455800  0.35455800  0.11100200  1
  Br  Br19  1  0.13274000  0.63779300  0.63779300  1
  Br  Br20  1  0.36375200  0.86832000  0.63714500  1
  Br  Br21  1  0.36375200  0.63714500  0.86832000  1
  Br  Br22  1  0.86832000  0.63714500  0.36375200  1
  Br  Br23  1  0.63714500  0.86832000  0.36375200  1
  Br  Br24  1  0.63779300  0.63779300  0.13274000  1
  Br  Br25  1  0.86832000  0.36375200  0.63714500  1
  Br  Br26  1  0.63779300  0.13274000  0.63779300  1
  Br  Br27  1  0.63714500  0.36375200  0.86832000  1
loop_
_geom_bond_atom_site_label_1
_geom_bond_atom_site_label_2
_geom_bond_distance
_geom_bond_site_symmetry_2
Ru0 Sc2 2.578859 1_555
Ru0 Sc1 2.578859 1_555
Ru0 Sc0 2.578859 1_555
Ru0 Sc14 2.659828 1_554
Ru0 Sc15 2.659828 1_545
Ru0 Sc13 2.659828 1_455
Ru1 Sc5 2.532472 1_555
Ru1 Sc4 2.532472 1_555
Ru1 Sc3 2.536746 1_555
Ru1 Sc12 2.684805 1_455
Ru1 Sc15 2.687592 1_556
Ru1 Sc14 2.687592 1_565
Ru2 Sc6 2.532472 1_555
Ru2 Sc7 2.532472 1_555
Ru2 Sc8 2.536746 1_555
Ru2 Sc12 2.684805 1_554
Ru2 Sc13 2.687592 1_565
Ru2 Sc15 2.687592 1_655
Ru3 Sc11 2.532472 1_555
Ru3 Sc9 2.532472 1_555
Ru3 Sc10 2.536746 1_555
Ru3 Sc12 2.684805 1_545
Ru3 Sc13 2.687592 1_556
Ru3 Sc14 2.687592 1_655
Br0 Sc9 2.799408 1_554
Br0 Sc6 2.799408 1_545
Br0 Sc13 2.934611 1_555
Br0 Sc0 3.148369 1_555
Br1 Sc4 2.799408 1_554
Br1 Sc7 2.799408 1_455
Br1 Sc15 2.934611 1_555
Br1 Sc1 3.148369 1_555
Br2 Sc5 2.799408 1_545
Br2 Sc11 2.799408 1_455
Br2 Sc14 2.934611 1_555
Br2 Sc2 3.148369 1_555
Br3 Sc6 2.830375 1_556
Br3 Sc9 2.830375 1_565
Br3 Sc12 2.902036 1_555
Br3 Sc3 3.189727 1_555
Br4 Sc10 2.784884 1_455
Br4 Sc1 2.842686 1_556
Br4 Sc14 2.917194 1_555
Br4 Sc4 3.175766 1_555
Br5 Sc8 2.784884 1_455
Br5 Sc2 2.842686 1_565
Br5 Sc15 2.917193 1_555
Br5 Sc5 3.175766 1_555
Br6 Sc3 2.784884 1_554
Br6 Sc0 2.842686 1_565
Br6 Sc15 2.917194 1_555
Br6 Sc6 3.175766 1_555
Br7 Sc10 2.784884 1_554
Br7 Sc1 2.842686 1_655
Br7 Sc13 2.917194 1_555
Br7 Sc7 3.175766 1_555
Br8 Sc11 2.830375 1_565
Br8 Sc5 2.830375 1_655
Br8 Sc12 2.902036 1_555
Br8 Sc8 3.189727 1_555
Br9 Sc3 2.784884 1_545
Br9 Sc0 2.842686 1_556
Br9 Sc14 2.917194 1_555
Br9 Sc9 3.175766 1_555
Br10 Sc7 2.830375 1_556
Br10 Sc4 2.830375 1_655
Br10 Sc12 2.902036 1_555
Br10 Sc10 3.189727 1_555
Br11 Sc8 2.784884 1_545
Br11 Sc2 2.842686 1_655
Br11 Sc13 2.917193 1_555
Br11 Sc11 3.175766 1_555
Br12 Sc17 2.767501 1_555
Br12 Sc18 2.767501 1_555
Br12 Sc16 2.767501 1_555
Br13 Sc18 2.660619 1_555
Br13 Sc17 2.660619 1_555
Br14 Sc18 2.660619 1_555
Br14 Sc16 2.660619 1_555
Br15 Sc16 2.660619 1_555
Br15 Sc17 2.660619 1_555
Br16 Sc1 2.678767 1_555
Br16 Sc2 2.678767 1_555
Br17 Sc0 2.678767 1_555
Br17 Sc2 2.678767 1_555
Br18 Sc1 2.678767 1_555
Br18 Sc0 2.678767 1_555
Br19 Sc16 2.775060 1_555
Br19 Sc4 2.835125 1_555
Br19 Sc5 2.835125 1_555
Br20 Sc16 2.786941 1_555
Br20 Sc5 2.821593 1_555
Br20 Sc3 2.835942 1_555
Br21 Sc16 2.786941 1_555
Br21 Sc4 2.821593 1_555
Br21 Sc3 2.835943 1_555
Br22 Sc17 2.786941 1_555
Br22 Sc7 2.821593 1_555
Br22 Sc8 2.835942 1_555
Br23 Sc17 2.786941 1_555
Br23 Sc6 2.821593 1_555
Br23 Sc8 2.835942 1_555
Br24 Sc17 2.775060 1_555
Br24 Sc7 2.835125 1_555
Br24 Sc6 2.835125 1_555
Br25 Sc18 2.786941 1_555
Br25 Sc11 2.821593 1_555
Br25 Sc10 2.835942 1_555
Br26 Sc18 2.775060 1_555
Br26 Sc9 2.835125 1_555
Br26 Sc11 2.835125 1_555
Br27 Sc18 2.786941 1_555
Br27 Sc9 2.821593 1_555
Br27 Sc10 2.835943 1_555
