# generated using pymatgen
data_AlH8C3NCl2
_symmetry_space_group_name_H-M   'P 1'
_cell_length_a   7.72663858
_cell_length_b   8.14007427
_cell_length_c   8.84835606
_cell_angle_alpha   90.03241481
_cell_angle_beta   64.76788259
_cell_angle_gamma   68.08843374
_symmetry_Int_Tables_number   1
_chemical_formula_structural   AlH8C3NCl2
_chemical_formula_sum   'Al2 H16 C6 N2 Cl4'
_cell_volume   458.52734947
_cell_formula_units_Z   2
loop_
 _symmetry_equiv_pos_site_id
 _symmetry_equiv_pos_as_xyz
  1  'x, y, z'
loop_
 _atom_site_type_symbol
 _atom_site_label
 _atom_site_symmetry_multiplicity
 _atom_site_fract_x
 _atom_site_fract_y
 _atom_site_fract_z
 _atom_site_occupancy
  Al  Al0  1  0.55609600  0.12572900  0.90661700  1
  Al  Al1  1  0.44390400  0.87427100  0.09338300  1
  H  H0  1  0.41100300  0.89181200  0.76837700  1
  H  H1  1  0.58899700  0.10818800  0.23162300  1
  H  H2  1  0.67084800  0.82672800  0.60443300  1
  H  H3  1  0.32915200  0.17327200  0.39556700  1
  H  H4  1  0.60277200  0.66742600  0.72855700  1
  H  H5  1  0.39722800  0.33257400  0.27144300  1
  H  H6  1  0.90195300  0.78371100  0.90322600  1
  H  H7  1  0.09804700  0.21628900  0.09677400  1
  H  H8  1  0.87231200  0.60624500  0.81579700  1
  H  H9  1  0.12768800  0.39375500  0.18420300  1
  H  H10  1  0.18025500  0.66141700  0.61095500  1
  H  H11  1  0.81974500  0.33858300  0.38904500  1
  H  H12  1  0.00146000  0.68934500  0.52863700  1
  H  H13  1  0.99854000  0.31065500  0.47136300  1
  H  H14  1  0.01079500  0.88222300  0.61493700  1
  H  H15  1  0.98920500  0.11777700  0.38506300  1
  C  C0  1  0.57693000  0.81016600  0.73232600  1
  C  C1  1  0.42307000  0.18983400  0.26767400  1
  C  C2  1  0.86263500  0.74442100  0.80748100  1
  C  C3  1  0.13736500  0.25557900  0.19251900  1
  C  C4  1  0.02084300  0.74521600  0.63027300  1
  C  C5  1  0.97915700  0.25478400  0.36972700  1
  N  N0  1  0.63698000  0.86585200  0.85686700  1
  N  N1  1  0.36302000  0.13414800  0.14313300  1
  Cl  Cl0  1  0.39860000  0.27046300  0.76919800  1
  Cl  Cl1  1  0.60140000  0.72953700  0.23080200  1
  Cl  Cl2  1  0.80090500  0.19812300  0.89041900  1
  Cl  Cl3  1  0.19909500  0.80187700  0.10958100  1
loop_
_geom_bond_atom_site_label_1
_geom_bond_atom_site_label_2
_geom_bond_distance
_geom_bond_site_symmetry_2
Al0 N0 1.958834 1_545
Al0 N1 1.967667 1_556
Al0 Cl0 2.130849 1_555
Al0 Cl2 2.132292 1_555
Al1 N1 1.958834 1_565
Al1 N0 1.967667 1_554
Al1 Cl1 2.130849 1_555
Al1 Cl3 2.132292 1_555
C0 H2 1.094735 1_555
C0 H0 1.096484 1_555
C0 H4 1.100977 1_555
C0 N0 1.492464 1_555
C1 H3 1.094735 1_555
C1 H1 1.096484 1_555
C1 H5 1.100977 1_555
C1 N1 1.492464 1_555
C2 H6 1.097242 1_555
C2 H8 1.103682 1_555
C2 N0 1.507194 1_555
C2 C4 1.524701 1_655
C3 H7 1.097242 1_555
C3 H9 1.103682 1_555
C3 N1 1.507194 1_555
C3 C5 1.524701 1_455
C4 H12 1.096919 1_555
C4 H10 1.097697 1_555
C4 H14 1.101249 1_555
C5 H13 1.096919 1_555
C5 H11 1.097697 1_555
C5 H15 1.101249 1_555
