# generated using pymatgen
data_Tm2O3
_symmetry_space_group_name_H-M   'P 1'
_cell_length_a   3.58086434
_cell_length_b   3.58086468
_cell_length_c   5.72990175
_cell_angle_alpha   90.00000000
_cell_angle_beta   90.00000000
_cell_angle_gamma   119.99999685
_symmetry_Int_Tables_number   1
_chemical_formula_structural   Tm2O3
_chemical_formula_sum   'Tm2 O3'
_cell_volume   63.62878033
_cell_formula_units_Z   1
loop_
 _symmetry_equiv_pos_site_id
 _symmetry_equiv_pos_as_xyz
  1  'x, y, z'
loop_
 _atom_site_type_symbol
 _atom_site_label
 _atom_site_symmetry_multiplicity
 _atom_site_fract_x
 _atom_site_fract_y
 _atom_site_fract_z
 _atom_site_occupancy
  Tm  Tm0  1  0.66666700  0.33333300  0.75015096  1
  Tm  Tm1  1  0.33333300  0.66666700  0.24984904  1
  O  O0  1  0.66666700  0.33333300  0.35365601  1
  O  O1  1  0.33333300  0.66666700  0.64634399  1
  O  O2  1  -0.00000000  -0.00000000  -0.00000000  1
loop_
_geom_bond_atom_site_label_1
_geom_bond_atom_site_label_2
_geom_bond_distance
_geom_bond_site_symmetry_2
O0 Tm1 2.151274 1_655
O0 Tm1 2.151274 1_545
O0 Tm1 2.151280 1_555
O0 Tm0 2.271877 1_555
O1 Tm0 2.151274 1_455
O1 Tm0 2.151274 1_565
O1 Tm0 2.151280 1_555
O1 Tm1 2.271877 1_555
O2 Tm0 2.514696 1_454
O2 Tm1 2.514696 1_545
O2 Tm1 2.514699 1_445
O2 Tm0 2.514699 1_554
O2 Tm0 2.514699 1_444
O2 Tm1 2.514699 1_555
