# generated using pymatgen
data_YMg
_symmetry_space_group_name_H-M   'P 1'
_cell_length_a   17.88076496
_cell_length_b   17.88076496
_cell_length_c   10.98608000
_cell_angle_alpha   90.00000000
_cell_angle_beta   90.00000000
_cell_angle_gamma   157.61496564
_symmetry_Int_Tables_number   1
_chemical_formula_structural   YMg
_chemical_formula_sum   'Y24 Mg24'
_cell_volume   1337.65714213
_cell_formula_units_Z   24
loop_
 _symmetry_equiv_pos_site_id
 _symmetry_equiv_pos_as_xyz
  1  'x, y, z'
loop_
 _atom_site_type_symbol
 _atom_site_label
 _atom_site_symmetry_multiplicity
 _atom_site_fract_x
 _atom_site_fract_y
 _atom_site_fract_z
 _atom_site_occupancy
  Y  Y0_0  1  0.49494350  0.00505650  0.00000000  1
  Y  Y0_1  1  0.49494350  0.00505650  0.50000000  1
  Y  Y0_2  1  0.49494350  0.50505650  0.00000000  1
  Y  Y0_3  1  0.49494350  0.50505650  0.50000000  1
  Y  Y0_4  1  0.99494350  0.00505650  0.00000000  1
  Y  Y0_5  1  0.99494350  0.00505650  0.50000000  1
  Y  Y0_6  1  0.99494350  0.50505650  0.00000000  1
  Y  Y0_7  1  0.99494350  0.50505650  0.50000000  1
  Y  Y1_0  1  0.33291100  0.16708900  0.00000000  1
  Y  Y1_1  1  0.33291100  0.16708900  0.50000000  1
  Y  Y1_2  1  0.33291100  0.66708900  0.00000000  1
  Y  Y1_3  1  0.33291100  0.66708900  0.50000000  1
  Y  Y1_4  1  0.83291100  0.16708900  0.00000000  1
  Y  Y1_5  1  0.83291100  0.16708900  0.50000000  1
  Y  Y1_6  1  0.83291100  0.66708900  0.00000000  1
  Y  Y1_7  1  0.83291100  0.66708900  0.50000000  1
  Y  Y2_0  1  0.39413450  0.10586550  0.25000000  1
  Y  Y2_1  1  0.39413450  0.10586550  0.75000000  1
  Y  Y2_2  1  0.39413450  0.60586550  0.25000000  1
  Y  Y2_3  1  0.39413450  0.60586550  0.75000000  1
  Y  Y2_4  1  0.89413450  0.10586550  0.25000000  1
  Y  Y2_5  1  0.89413450  0.10586550  0.75000000  1
  Y  Y2_6  1  0.89413450  0.60586550  0.25000000  1
  Y  Y2_7  1  0.89413450  0.60586550  0.75000000  1
  Mg  Mg0_0  1  0.16589900  0.33410100  0.00000000  1
  Mg  Mg0_1  1  0.16589900  0.33410100  0.50000000  1
  Mg  Mg0_2  1  0.16589900  0.83410100  0.00000000  1
  Mg  Mg0_3  1  0.16589900  0.83410100  0.50000000  1
  Mg  Mg0_4  1  0.66589900  0.33410100  0.00000000  1
  Mg  Mg0_5  1  0.66589900  0.33410100  0.50000000  1
  Mg  Mg0_6  1  0.66589900  0.83410100  0.00000000  1
  Mg  Mg0_7  1  0.66589900  0.83410100  0.50000000  1
  Mg  Mg1_0  1  0.05431350  0.44568650  0.25000000  1
  Mg  Mg1_1  1  0.05431350  0.44568650  0.75000000  1
  Mg  Mg1_2  1  0.05431350  0.94568650  0.25000000  1
  Mg  Mg1_3  1  0.05431350  0.94568650  0.75000000  1
  Mg  Mg1_4  1  0.55431350  0.44568650  0.25000000  1
  Mg  Mg1_5  1  0.55431350  0.44568650  0.75000000  1
  Mg  Mg1_6  1  0.55431350  0.94568650  0.25000000  1
  Mg  Mg1_7  1  0.55431350  0.94568650  0.75000000  1
  Mg  Mg2_0  1  0.22446550  0.27553450  0.25000000  1
  Mg  Mg2_1  1  0.22446550  0.27553450  0.75000000  1
  Mg  Mg2_2  1  0.22446550  0.77553450  0.25000000  1
  Mg  Mg2_3  1  0.22446550  0.77553450  0.75000000  1
  Mg  Mg2_4  1  0.72446550  0.27553450  0.25000000  1
  Mg  Mg2_5  1  0.72446550  0.27553450  0.75000000  1
  Mg  Mg2_6  1  0.72446550  0.77553450  0.25000000  1
  Mg  Mg2_7  1  0.72446550  0.77553450  0.75000000  1
loop_
_geom_bond_atom_site_label_1
_geom_bond_atom_site_label_2
_geom_bond_distance
_geom_bond_site_symmetry_2
Y0_0 Y0_6 3.470768 1_555
Y0_0 Y0_6 3.470768 1_445
Y0_0 Y1_4 3.540491 1_555
Y0_0 Y1_2 3.540491 1_545
Y0_1 Y0_7 3.470768 1_555
Y0_1 Y0_7 3.470768 1_445
Y0_1 Y1_5 3.540491 1_555
Y0_1 Y1_3 3.540491 1_545
Y0_2 Y0_4 3.470768 1_565
Y0_2 Y0_4 3.470768 1_455
Y0_2 Y1_0 3.540491 1_555
Y0_2 Y1_6 3.540491 1_555
Y0_3 Y0_5 3.470768 1_565
Y0_3 Y0_5 3.470768 1_455
Y0_3 Y1_1 3.540491 1_555
Y0_3 Y1_7 3.540491 1_555
Y0_4 Y1_0 3.540491 1_655
Y0_4 Y1_6 3.540491 1_545
Y0_5 Y1_1 3.540491 1_655
Y0_5 Y1_7 3.540491 1_545
Y0_6 Y1_4 3.540491 1_555
Y0_6 Y1_2 3.540491 1_655
Y0_7 Y1_5 3.540491 1_555
Y0_7 Y1_3 3.540491 1_655
Y1_0 Y1_6 3.470768 1_445
Y1_0 Y1_6 3.470768 1_555
Y1_0 Y2_0 3.486608 1_555
Y1_0 Y2_1 3.486608 1_554
Y1_1 Y1_7 3.470768 1_445
Y1_1 Y1_7 3.470768 1_555
Y1_1 Y2_1 3.486608 1_555
Y1_1 Y2_0 3.486608 1_555
Y1_2 Y1_4 3.470768 1_565
Y1_2 Y1_4 3.470768 1_455
Y1_2 Y2_2 3.486608 1_555
Y1_2 Y2_3 3.486608 1_554
Y1_3 Y1_5 3.470768 1_565
Y1_3 Y1_5 3.470768 1_455
Y1_3 Y2_2 3.486608 1_555
Y1_3 Y2_3 3.486608 1_555
Y1_4 Y2_5 3.486608 1_554
Y1_4 Y2_4 3.486608 1_555
Y1_5 Y2_4 3.486608 1_555
Y1_5 Y2_5 3.486608 1_555
Y1_6 Y2_7 3.486608 1_554
Y1_6 Y2_6 3.486608 1_555
Y1_7 Y2_7 3.486608 1_555
Y1_7 Y2_6 3.486608 1_555
Y2_0 Y2_6 3.470768 1_445
Y2_0 Y2_6 3.470768 1_555
Y2_1 Y2_7 3.470768 1_445
Y2_1 Y2_7 3.470768 1_555
Y2_2 Y2_4 3.470768 1_455
Y2_2 Y2_4 3.470768 1_565
Y2_3 Y2_5 3.470768 1_565
Y2_3 Y2_5 3.470768 1_455
Mg0_0 Y0_2 3.271242 1_555
Mg0_0 Y0_4 3.271242 1_455
Mg0_0 Y2_2 3.337350 1_555
Mg0_0 Y2_3 3.337350 1_554
Mg0_0 Y2_5 3.337350 1_454
Mg0_0 Y2_4 3.337350 1_455
Mg0_0 Y1_2 3.389309 1_555
Mg0_0 Y1_4 3.389309 1_455
Mg0_0 Mg2_1 3.429974 1_554
Mg0_0 Mg2_0 3.429974 1_555
Mg0_0 Mg0_6 3.470768 1_555
Mg0_0 Mg0_6 3.470768 1_445
Mg0_1 Y0_3 3.271242 1_555
Mg0_1 Y0_5 3.271242 1_455
Mg0_1 Y2_2 3.337350 1_555
Mg0_1 Y2_3 3.337350 1_555
Mg0_1 Y2_5 3.337350 1_455
Mg0_1 Y2_4 3.337350 1_455
Mg0_1 Y1_3 3.389309 1_555
Mg0_1 Y1_5 3.389309 1_455
Mg0_1 Mg2_1 3.429974 1_555
Mg0_1 Mg2_0 3.429974 1_555
Mg0_1 Mg0_7 3.470768 1_445
Mg0_1 Mg0_7 3.470768 1_555
Mg0_2 Y0_0 3.271242 1_565
Mg0_2 Y0_6 3.271242 1_455
Mg0_2 Y2_1 3.337350 1_564
Mg0_2 Y2_0 3.337350 1_565
Mg0_2 Y2_6 3.337350 1_455
Mg0_2 Y2_7 3.337350 1_454
Mg0_2 Y1_6 3.389309 1_455
Mg0_2 Y1_0 3.389309 1_565
Mg0_2 Mg2_2 3.429974 1_555
Mg0_2 Mg2_3 3.429974 1_554
Mg0_2 Mg0_4 3.470768 1_565
Mg0_2 Mg0_4 3.470768 1_455
Mg0_3 Y0_1 3.271242 1_565
Mg0_3 Y0_7 3.271242 1_455
Mg0_3 Y2_0 3.337350 1_565
Mg0_3 Y2_1 3.337350 1_565
Mg0_3 Y2_6 3.337350 1_455
Mg0_3 Y2_7 3.337350 1_455
Mg0_3 Y1_7 3.389309 1_455
Mg0_3 Y1_1 3.389309 1_565
Mg0_3 Mg2_3 3.429974 1_555
Mg0_3 Mg2_2 3.429974 1_555
Mg0_3 Mg0_5 3.470768 1_565
Mg0_3 Mg0_5 3.470768 1_455
Mg0_4 Y0_0 3.271242 1_555
Mg0_4 Y0_6 3.271242 1_555
Mg0_4 Y2_1 3.337350 1_554
Mg0_4 Y2_0 3.337350 1_555
Mg0_4 Y2_6 3.337350 1_555
Mg0_4 Y2_7 3.337350 1_554
Mg0_4 Y1_0 3.389309 1_555
Mg0_4 Y1_6 3.389309 1_555
Mg0_4 Mg2_5 3.429974 1_554
Mg0_4 Mg2_4 3.429974 1_555
Mg0_5 Y0_1 3.271242 1_555
Mg0_5 Y0_7 3.271242 1_555
Mg0_5 Y2_0 3.337350 1_555
Mg0_5 Y2_1 3.337350 1_555
Mg0_5 Y2_7 3.337350 1_555
Mg0_5 Y2_6 3.337350 1_555
Mg0_5 Y1_7 3.389309 1_555
Mg0_5 Y1_1 3.389309 1_555
Mg0_5 Mg2_4 3.429974 1_555
Mg0_5 Mg2_5 3.429974 1_555
Mg0_6 Y0_2 3.271242 1_555
Mg0_6 Y0_4 3.271242 1_565
Mg0_6 Y2_4 3.337350 1_565
Mg0_6 Y2_5 3.337350 1_564
Mg0_6 Y2_3 3.337350 1_554
Mg0_6 Y2_2 3.337350 1_555
Mg0_6 Y1_4 3.389309 1_565
Mg0_6 Y1_2 3.389309 1_555
Mg0_6 Mg2_7 3.429974 1_554
Mg0_6 Mg2_6 3.429974 1_555
Mg0_7 Y0_5 3.271242 1_565
Mg0_7 Y0_3 3.271242 1_555
Mg0_7 Y2_4 3.337350 1_565
Mg0_7 Y2_5 3.337350 1_565
Mg0_7 Y2_2 3.337350 1_555
Mg0_7 Y2_3 3.337350 1_555
Mg0_7 Y1_5 3.389309 1_565
Mg0_7 Y1_3 3.389309 1_555
Mg0_7 Mg2_7 3.429974 1_555
Mg0_7 Mg2_6 3.429974 1_555
Mg1_0 Mg2_2 3.295171 1_555
Mg1_0 Mg2_4 3.295171 1_455
Mg1_0 Y1_4 3.400209 1_455
Mg1_0 Y1_5 3.400209 1_455
Mg1_0 Y1_2 3.400209 1_555
Mg1_0 Y1_3 3.400209 1_555
Mg1_0 Y0_7 3.446933 1_455
Mg1_0 Y0_6 3.446933 1_455
Mg1_0 Mg1_6 3.470768 1_445
Mg1_0 Mg1_6 3.470768 1_555
Mg1_0 Y2_2 3.597309 1_555
Mg1_0 Y2_4 3.597309 1_455
Mg1_1 Mg2_3 3.295171 1_555
Mg1_1 Mg2_5 3.295171 1_455
Mg1_1 Y1_4 3.400209 1_456
Mg1_1 Y1_5 3.400209 1_455
Mg1_1 Y1_2 3.400209 1_556
Mg1_1 Y1_3 3.400209 1_555
Mg1_1 Y0_6 3.446933 1_456
Mg1_1 Y0_7 3.446933 1_455
Mg1_1 Mg1_7 3.470768 1_445
Mg1_1 Mg1_7 3.470768 1_555
Mg1_1 Y2_3 3.597309 1_555
Mg1_1 Y2_5 3.597309 1_455
Mg1_2 Mg2_0 3.295171 1_565
Mg1_2 Mg2_6 3.295171 1_455
Mg1_2 Y1_1 3.400209 1_565
Mg1_2 Y1_0 3.400209 1_565
Mg1_2 Y1_6 3.400209 1_455
Mg1_2 Y1_7 3.400209 1_455
Mg1_2 Y0_5 3.446933 1_465
Mg1_2 Y0_4 3.446933 1_465
Mg1_2 Mg1_4 3.470768 1_565
Mg1_2 Mg1_4 3.470768 1_455
Mg1_2 Y2_6 3.597309 1_455
Mg1_2 Y2_0 3.597309 1_565
Mg1_3 Mg2_7 3.295171 1_455
Mg1_3 Mg2_1 3.295171 1_565
Mg1_3 Y1_1 3.400209 1_565
Mg1_3 Y1_0 3.400209 1_566
Mg1_3 Y1_6 3.400209 1_456
Mg1_3 Y1_7 3.400209 1_455
Mg1_3 Y0_4 3.446933 1_466
Mg1_3 Y0_5 3.446933 1_465
Mg1_3 Mg1_5 3.470768 1_565
Mg1_3 Mg1_5 3.470768 1_455
Mg1_3 Y2_7 3.597309 1_455
Mg1_3 Y2_1 3.597309 1_565
Mg1_4 Mg2_0 3.295171 1_555
Mg1_4 Mg2_6 3.295171 1_555
Mg1_4 Y1_0 3.400209 1_555
Mg1_4 Y1_1 3.400209 1_555
Mg1_4 Y1_6 3.400209 1_555
Mg1_4 Y1_7 3.400209 1_555
Mg1_4 Y0_2 3.446933 1_555
Mg1_4 Y0_3 3.446933 1_555
Mg1_4 Y2_0 3.597309 1_555
Mg1_4 Y2_6 3.597309 1_555
Mg1_5 Mg2_1 3.295171 1_555
Mg1_5 Mg2_7 3.295171 1_555
Mg1_5 Y1_1 3.400209 1_555
Mg1_5 Y1_0 3.400209 1_556
Mg1_5 Y1_6 3.400209 1_556
Mg1_5 Y1_7 3.400209 1_555
Mg1_5 Y0_2 3.446933 1_556
Mg1_5 Y0_3 3.446933 1_555
Mg1_5 Y2_1 3.597309 1_555
Mg1_5 Y2_7 3.597309 1_555
Mg1_6 Mg2_2 3.295171 1_555
Mg1_6 Mg2_4 3.295171 1_565
Mg1_6 Y1_4 3.400209 1_565
Mg1_6 Y1_5 3.400209 1_565
Mg1_6 Y1_2 3.400209 1_555
Mg1_6 Y1_3 3.400209 1_555
Mg1_6 Y0_0 3.446933 1_565
Mg1_6 Y0_1 3.446933 1_565
Mg1_6 Y2_2 3.597309 1_555
Mg1_6 Y2_4 3.597309 1_565
Mg1_7 Mg2_3 3.295171 1_555
Mg1_7 Mg2_5 3.295171 1_565
Mg1_7 Y1_4 3.400209 1_566
Mg1_7 Y1_5 3.400209 1_565
Mg1_7 Y1_2 3.400209 1_556
Mg1_7 Y1_3 3.400209 1_555
Mg1_7 Y0_1 3.446933 1_565
Mg1_7 Y0_0 3.446933 1_566
Mg1_7 Y2_3 3.597309 1_555
Mg1_7 Y2_5 3.597309 1_565
Mg2_0 Y2_2 3.309587 1_555
Mg2_0 Y2_4 3.309587 1_455
Mg2_0 Y0_3 3.327315 1_555
Mg2_0 Y0_2 3.327315 1_555
Mg2_0 Y0_4 3.327315 1_455
Mg2_0 Y0_5 3.327315 1_455
Mg2_0 Mg2_6 3.470768 1_445
Mg2_0 Mg2_6 3.470768 1_555
Mg2_1 Y2_3 3.309587 1_555
Mg2_1 Y2_5 3.309587 1_455
Mg2_1 Y0_3 3.327315 1_555
Mg2_1 Y0_2 3.327315 1_556
Mg2_1 Y0_5 3.327315 1_455
Mg2_1 Y0_4 3.327315 1_456
Mg2_1 Mg2_7 3.470768 1_445
Mg2_1 Mg2_7 3.470768 1_555
Mg2_2 Y2_0 3.309587 1_565
Mg2_2 Y2_6 3.309587 1_455
Mg2_2 Y0_1 3.327315 1_565
Mg2_2 Y0_0 3.327315 1_565
Mg2_2 Y0_6 3.327315 1_455
Mg2_2 Y0_7 3.327315 1_455
Mg2_2 Mg2_4 3.470768 1_565
Mg2_2 Mg2_4 3.470768 1_455
Mg2_3 Y2_1 3.309587 1_565
Mg2_3 Y2_7 3.309587 1_455
Mg2_3 Y0_1 3.327315 1_565
Mg2_3 Y0_0 3.327315 1_566
Mg2_3 Y0_6 3.327315 1_456
Mg2_3 Y0_7 3.327315 1_455
Mg2_3 Mg2_5 3.470768 1_565
Mg2_3 Mg2_5 3.470768 1_455
Mg2_4 Y2_0 3.309587 1_555
Mg2_4 Y2_6 3.309587 1_555
Mg2_4 Y0_7 3.327315 1_555
Mg2_4 Y0_1 3.327315 1_555
Mg2_4 Y0_6 3.327315 1_555
Mg2_4 Y0_0 3.327315 1_555
Mg2_5 Y2_1 3.309587 1_555
Mg2_5 Y2_7 3.309587 1_555
Mg2_5 Y0_7 3.327315 1_555
Mg2_5 Y0_0 3.327315 1_556
Mg2_5 Y0_1 3.327315 1_555
Mg2_5 Y0_6 3.327315 1_556
Mg2_6 Y2_4 3.309587 1_565
Mg2_6 Y2_2 3.309587 1_555
Mg2_6 Y0_4 3.327315 1_565
Mg2_6 Y0_5 3.327315 1_565
Mg2_6 Y0_3 3.327315 1_555
Mg2_6 Y0_2 3.327315 1_555
Mg2_7 Y2_5 3.309587 1_565
Mg2_7 Y2_3 3.309587 1_555
Mg2_7 Y0_4 3.327315 1_566
Mg2_7 Y0_5 3.327315 1_565
Mg2_7 Y0_3 3.327315 1_555
Mg2_7 Y0_2 3.327315 1_556
