# generated using pymatgen
data_SmCoSi4
_symmetry_space_group_name_H-M   'P 1'
_cell_length_a   4.22816089
_cell_length_b   4.23200978
_cell_length_c   6.35522400
_cell_angle_alpha   90.00000000
_cell_angle_beta   90.00000000
_cell_angle_gamma   119.96993824
_symmetry_Int_Tables_number   1
_chemical_formula_structural   SmCoSi4
_chemical_formula_sum   'Sm1 Co1 Si4'
_cell_volume   98.51245445
_cell_formula_units_Z   1
loop_
 _symmetry_equiv_pos_site_id
 _symmetry_equiv_pos_as_xyz
  1  'x, y, z'
loop_
 _atom_site_type_symbol
 _atom_site_label
 _atom_site_symmetry_multiplicity
 _atom_site_fract_x
 _atom_site_fract_y
 _atom_site_fract_z
 _atom_site_occupancy
  Sm  Sm0  1  0.99993700  0.00000000  0.50000000  1
  Co  Co0  1  0.00004600  0.00000000  0.00000000  1
  Si  Si0  1  0.33318000  0.66645200  0.18832800  1
  Si  Si1  1  0.33318000  0.66645200  0.81167200  1
  Si  Si2  1  0.66672800  0.33354800  0.18832800  1
  Si  Si3  1  0.66672800  0.33354800  0.81167200  1
loop_
_geom_bond_atom_site_label_1
_geom_bond_atom_site_label_2
_geom_bond_distance
_geom_bond_site_symmetry_2
Co0 Si3 2.719467 1_554
Co0 Si2 2.719467 1_555
Co0 Si1 2.719467 1_544
Co0 Si0 2.719467 1_545
Co0 Si0 2.720072 1_445
Co0 Si1 2.720072 1_444
Co0 Si3 2.720072 1_454
Co0 Si2 2.720072 1_455
Co0 Si2 2.720704 1_445
Co0 Si3 2.720704 1_444
Co0 Si0 2.720704 1_555
Co0 Si1 2.720704 1_554
Co0 Sm0 3.177612 1_454
Co0 Sm0 3.177612 1_455
Si0 Si1 2.393733 1_554
Si0 Si2 2.441083 1_455
Si0 Si2 2.441084 1_555
Si0 Si2 2.445666 1_565
Si0 Sm0 3.144472 1_565
Si0 Sm0 3.144569 1_465
Si0 Sm0 3.145328 1_455
Si1 Si3 2.441083 1_455
Si1 Si3 2.441084 1_555
Si1 Si3 2.445666 1_565
Si1 Sm0 3.144472 1_565
Si1 Sm0 3.144569 1_465
Si1 Sm0 3.145328 1_455
Si2 Si3 2.393733 1_554
Si2 Sm0 3.144472 1_555
Si2 Sm0 3.144568 1_455
Si2 Sm0 3.145328 1_565
Si3 Sm0 3.144472 1_555
Si3 Sm0 3.144568 1_455
Si3 Sm0 3.145328 1_565
