# generated using pymatgen
data_Na3AlSiTe4
_symmetry_space_group_name_H-M   'P 1'
_cell_length_a   4.36861713
_cell_length_b   7.94669929
_cell_length_c   10.08134104
_cell_angle_alpha   121.20939479
_cell_angle_beta   90.04889959
_cell_angle_gamma   100.65490297
_symmetry_Int_Tables_number   1
_chemical_formula_structural   Na3AlSiTe4
_chemical_formula_sum   'Na3 Al1 Si1 Te4'
_cell_volume   292.22213350
_cell_formula_units_Z   1
loop_
 _symmetry_equiv_pos_site_id
 _symmetry_equiv_pos_as_xyz
  1  'x, y, z'
loop_
 _atom_site_type_symbol
 _atom_site_label
 _atom_site_symmetry_multiplicity
 _atom_site_fract_x
 _atom_site_fract_y
 _atom_site_fract_z
 _atom_site_occupancy
  Na  Na0  1  0.43967500  0.96674800  0.41043000  1
  Na  Na1  1  0.93054400  0.99973400  0.12286300  1
  Na  Na2  1  0.42267100  0.14447400  0.89268500  1
  Al  Al0  1  0.33105000  0.56962600  0.91771400  1
  Si  Si0  1  0.10801500  0.45437100  0.53150700  1
  Te  Te0  1  0.61818500  0.75426800  0.78822400  1
  Te  Te1  1  0.84700600  0.59174300  0.09920700  1
  Te  Te2  1  0.51508400  0.29869200  0.32452700  1
  Te  Te3  1  0.03777100  0.22034400  0.66284200  1
loop_
_geom_bond_atom_site_label_1
_geom_bond_atom_site_label_2
_geom_bond_distance
_geom_bond_site_symmetry_2
Na0 Te3 3.101742 1_565
Na0 Te2 3.140604 1_565
Na0 Te3 3.176565 1_665
Na0 Te1 3.587720 1_455
Na0 Te1 3.764588 1_555
Na1 Te2 3.006772 1_665
Na1 Te0 3.039136 1_554
Na1 Te1 3.076168 1_555
Na1 Te2 3.109157 1_565
Na2 Te0 3.008418 1_545
Na2 Te1 3.208158 1_556
Na2 Te3 3.221178 1_555
Na2 Te3 3.716531 1_655
Al0 Te0 2.595731 1_555
Al0 Te3 2.690005 1_555
Al0 Te1 2.767848 1_456
Al0 Te1 2.823552 1_556
Si0 Te2 2.681722 1_555
Si0 Te3 2.765386 1_555
Si0 Te2 2.953757 1_455
Si0 Te0 2.996496 1_555
