# generated using pymatgen
data_Sr6Ca4Cu17O29
_symmetry_space_group_name_H-M   'P 1'
_cell_length_a   8.80906542
_cell_length_b   8.78339764
_cell_length_c   11.32030780
_cell_angle_alpha   71.07926494
_cell_angle_beta   70.99933904
_cell_angle_gamma   99.42115106
_symmetry_Int_Tables_number   1
_chemical_formula_structural   Sr6Ca4Cu17O29
_chemical_formula_sum   'Sr6 Ca4 Cu17 O29'
_cell_volume   747.07854098
_cell_formula_units_Z   1
loop_
 _symmetry_equiv_pos_site_id
 _symmetry_equiv_pos_as_xyz
  1  'x, y, z'
loop_
 _atom_site_type_symbol
 _atom_site_label
 _atom_site_symmetry_multiplicity
 _atom_site_fract_x
 _atom_site_fract_y
 _atom_site_fract_z
 _atom_site_occupancy
  Sr  Sr0  1  0.43549600  0.17322300  0.39878100  1
  Sr  Sr1  1  0.16572300  0.42799600  0.39878100  1
  Sr  Sr2  1  0.56450400  0.82677700  0.60121900  1
  Sr  Sr3  1  0.83427700  0.57200400  0.60121900  1
  Sr  Sr4  1  0.62638300  0.36249900  0.00000000  1
  Sr  Sr5  1  0.37361700  0.63750100  0.00000000  1
  Ca  Ca0  1  0.77773400  0.02825000  0.19737000  1
  Ca  Ca1  1  0.02489600  0.77438000  0.19737000  1
  Ca  Ca2  1  0.22226600  0.97175000  0.80263000  1
  Ca  Ca3  1  0.97510400  0.22562000  0.80263000  1
  Cu  Cu0  1  0.23412800  0.23159600  0.19942000  1
  Cu  Cu1  1  0.56645200  0.56898500  0.19942000  1
  Cu  Cu2  1  0.76587200  0.76840400  0.80058000  1
  Cu  Cu3  1  0.43354800  0.43101500  0.80058000  1
  Cu  Cu4  1  0.83725700  0.83441600  0.00000000  1
  Cu  Cu5  1  0.16274300  0.16558400  0.00000000  1
  Cu  Cu6  1  0.35611100  0.85611100  0.28777800  1
  Cu  Cu7  1  0.64388900  0.14388900  0.71222200  1
  Cu  Cu8  1  0.50000000  0.00000000  0.00000000  1
  Cu  Cu9  1  0.78739800  0.28739800  0.42520500  1
  Cu  Cu10  1  0.21260200  0.71260200  0.57479500  1
  Cu  Cu11  1  0.63405000  0.63737800  0.40019200  1
  Cu  Cu12  1  0.96575800  0.96243000  0.40019200  1
  Cu  Cu13  1  0.36595000  0.36262200  0.59980800  1
  Cu  Cu14  1  0.03424200  0.03757000  0.59980800  1
  Cu  Cu15  1  0.92964400  0.42964400  0.14071100  1
  Cu  Cu16  1  0.07035600  0.57035600  0.85928900  1
  O  O0  1  0.41281500  0.87794500  0.43061900  1
  O  O1  1  0.15656600  0.69143600  0.43061900  1
  O  O2  1  0.58718500  0.12205500  0.56938100  1
  O  O3  1  0.84343400  0.30856400  0.56938100  1
  O  O4  1  0.53653500  0.04625100  0.14805400  1
  O  O5  1  0.31541100  0.80569500  0.14805400  1
  O  O6  1  0.46346500  0.95374900  0.85194600  1
  O  O7  1  0.68458900  0.19430500  0.85194600  1
  O  O8  1  0.09026800  0.63392000  0.00000000  1
  O  O9  1  0.90973200  0.36608000  0.00000000  1
  O  O10  1  0.97014300  0.47762200  0.28001100  1
  O  O11  1  0.74984600  0.24236700  0.28001100  1
  O  O12  1  0.02985700  0.52237800  0.71998900  1
  O  O13  1  0.25015400  0.75763300  0.71998900  1
  O  O14  1  0.32379400  0.33290000  0.00000000  1
  O  O15  1  0.67620600  0.66710000  0.00000000  1
  O  O16  1  0.40037100  0.40037100  0.19925800  1
  O  O17  1  0.59962900  0.59962900  0.80074200  1
  O  O18  1  0.80170200  0.80170200  0.39659600  1
  O  O19  1  0.19829800  0.19829800  0.60340400  1
  O  O20  1  0.00000000  0.00000000  0.00000000  1
  O  O21  1  0.13308000  0.12575500  0.39877000  1
  O  O22  1  0.46815100  0.47547600  0.39877000  1
  O  O23  1  0.86692000  0.87424500  0.60123000  1
  O  O24  1  0.53184900  0.52452400  0.60123000  1
  O  O25  1  0.73239100  0.73880400  0.19982800  1
  O  O26  1  0.06778100  0.06136900  0.19982800  1
  O  O27  1  0.26760900  0.26119600  0.80017200  1
  O  O28  1  0.93221900  0.93863100  0.80017200  1
loop_
_geom_bond_atom_site_label_1
_geom_bond_atom_site_label_2
_geom_bond_distance
_geom_bond_site_symmetry_2
Ca0 O11 2.369621 1_555
Ca0 O4 2.382500 1_555
Ca0 O25 2.497628 1_545
Ca0 O26 2.534138 1_655
Ca0 O20 2.560706 1_655
Ca0 O18 2.574437 1_545
Ca0 O9 2.833396 1_555
Ca1 O10 2.369621 1_455
Ca1 O5 2.382500 1_555
Ca1 O26 2.497636 1_565
Ca1 O25 2.534139 1_455
Ca1 O20 2.560706 1_565
Ca1 O18 2.574437 1_455
Ca1 O8 2.833396 1_555
Ca2 O13 2.369621 1_555
Ca2 O6 2.382500 1_555
Ca2 O27 2.497628 1_565
Ca2 O28 2.534138 1_455
Ca2 O20 2.560706 1_566
Ca2 O19 2.574437 1_565
Ca2 O8 2.833396 1_556
Ca3 O12 2.369621 1_655
Ca3 O7 2.382500 1_555
Ca3 O28 2.497636 1_545
Ca3 O27 2.534139 1_655
Ca3 O20 2.560706 1_656
Ca3 O19 2.574437 1_655
Ca3 O9 2.833396 1_556
Cu0 O16 1.904715 1_555
Cu0 O26 1.912244 1_555
Cu0 O21 1.951871 1_555
Cu0 O14 1.953981 1_555
Cu1 O16 1.904721 1_555
Cu1 O25 1.912244 1_555
Cu1 O22 1.951871 1_555
Cu1 O15 1.953981 1_555
Cu2 O17 1.904715 1_555
Cu2 O28 1.912244 1_555
Cu2 O23 1.951871 1_555
Cu2 O15 1.953981 1_556
Cu3 O17 1.904721 1_555
Cu3 O27 1.912244 1_555
Cu3 O24 1.951871 1_555
Cu3 O14 1.953981 1_556
Cu4 O20 1.867592 1_665
Cu4 O15 1.868127 1_555
Cu4 O28 1.956805 1_554
Cu4 O25 1.956805 1_555
Cu5 O20 1.867592 1_555
Cu5 O14 1.868127 1_555
Cu5 O26 1.956805 1_555
Cu5 O27 1.956805 1_554
Cu6 O1 1.896492 1_555
Cu6 O0 1.896492 1_555
Cu6 O4 1.896839 1_565
Cu6 O5 1.896839 1_555
Cu7 O3 1.896492 1_555
Cu7 O2 1.896492 1_555
Cu7 O6 1.896839 1_545
Cu7 O7 1.896839 1_555
Cu8 O7 1.956435 1_554
Cu8 O5 1.956435 1_545
Cu8 O4 1.956435 1_555
Cu8 O6 1.956435 1_544
Cu9 O3 1.906141 1_555
Cu9 O2 1.906149 1_555
Cu9 O10 1.923592 1_555
Cu9 O11 1.923599 1_555
Cu10 O1 1.906141 1_555
Cu10 O0 1.906149 1_555
Cu10 O12 1.923592 1_555
Cu10 O13 1.923599 1_555
Cu11 O18 1.868384 1_555
Cu11 O22 1.872971 1_555
Cu11 O25 1.961174 1_555
Cu11 O24 1.970562 1_555
Cu12 O18 1.868384 1_555
Cu12 O21 1.872982 1_665
Cu12 O26 1.961174 1_665
Cu12 O23 1.970561 1_555
Cu13 O19 1.868384 1_555
Cu13 O24 1.872971 1_555
Cu13 O27 1.961174 1_555
Cu13 O22 1.970562 1_555
Cu14 O19 1.868384 1_555
Cu14 O23 1.872982 1_445
Cu14 O28 1.961174 1_445
Cu14 O21 1.970561 1_555
Cu15 O11 1.881376 1_555
Cu15 O10 1.881384 1_555
Cu15 O9 1.899052 1_555
Cu15 O8 1.899060 1_655
Cu16 O13 1.881376 1_555
Cu16 O12 1.881384 1_555
Cu16 O8 1.899052 1_556
Cu16 O9 1.899060 1_456
O0 Sr0 2.464457 1_565
O0 Sr2 2.651664 1_555
O1 Sr1 2.464457 1_555
O1 Sr3 2.651664 1_455
O2 Sr2 2.464457 1_545
O2 Sr0 2.651664 1_555
O3 Sr3 2.464457 1_555
O3 Sr1 2.651664 1_655
O4 Sr4 2.559010 1_555
O5 Sr5 2.559011 1_555
O6 Sr5 2.559010 1_556
O7 Sr4 2.559011 1_556
O8 Sr5 2.491085 1_555
O9 Sr4 2.491085 1_555
O10 Sr1 2.517969 1_655
O11 Sr0 2.517969 1_555
O12 Sr3 2.517969 1_455
O13 Sr2 2.517969 1_555
O14 Sr4 2.635479 1_555
O14 Sr5 2.639345 1_555
O15 Sr5 2.635479 1_555
O15 Sr4 2.639345 1_555
O16 Sr1 2.629178 1_555
O16 Sr0 2.629178 1_555
O16 Sr5 2.634708 1_555
O16 Sr4 2.634708 1_555
O17 Sr3 2.629178 1_555
O17 Sr2 2.629178 1_555
O17 Sr4 2.634708 1_556
O17 Sr5 2.634708 1_556
O18 Sr2 2.666463 1_555
O18 Sr3 2.666463 1_555
O19 Sr0 2.666463 1_555
O19 Sr1 2.666463 1_555
O21 Sr1 2.623063 1_555
O21 Sr0 2.628187 1_555
O22 Sr0 2.623071 1_555
O22 Sr1 2.628196 1_555
O23 Sr3 2.623063 1_555
O23 Sr2 2.628187 1_555
O24 Sr2 2.623071 1_555
O24 Sr3 2.628196 1_555
