# generated using pymatgen
data_NaHfScO4
_symmetry_space_group_name_H-M   'P 1'
_cell_length_a   3.18673800
_cell_length_b   9.59571400
_cell_length_c   11.30929500
_cell_angle_alpha   90.00000000
_cell_angle_beta   90.00000000
_cell_angle_gamma   90.00000000
_symmetry_Int_Tables_number   1
_chemical_formula_structural   NaHfScO4
_chemical_formula_sum   'Na4 Hf4 Sc4 O16'
_cell_volume   345.82723083
_cell_formula_units_Z   4
loop_
 _symmetry_equiv_pos_site_id
 _symmetry_equiv_pos_as_xyz
  1  'x, y, z'
loop_
 _atom_site_type_symbol
 _atom_site_label
 _atom_site_symmetry_multiplicity
 _atom_site_fract_x
 _atom_site_fract_y
 _atom_site_fract_z
 _atom_site_occupancy
  Na  Na0  1  0.50000000  0.25560800  0.90005700  1
  Na  Na1  1  0.50000000  0.75560800  0.09994300  1
  Na  Na2  1  0.00000000  0.74339500  0.59924800  1
  Na  Na3  1  0.00000000  0.24339500  0.40075200  1
  Hf  Hf0  1  0.00000000  0.56671900  0.36137100  1
  Hf  Hf1  1  0.00000000  0.06671900  0.63862900  1
  Hf  Hf2  1  0.00000000  0.57982800  0.85534900  1
  Hf  Hf3  1  0.00000000  0.07982800  0.14465100  1
  Sc  Sc0  1  0.50000000  0.43149600  0.13775800  1
  Sc  Sc1  1  0.50000000  0.93149600  0.86224200  1
  Sc  Sc2  1  0.50000000  0.42078100  0.64313500  1
  Sc  Sc3  1  0.50000000  0.92078100  0.35686500  1
  O  O0  1  0.50000000  0.20344000  0.59728100  1
  O  O1  1  0.50000000  0.70344000  0.40271900  1
  O  O2  1  0.00000000  0.79016500  0.90284200  1
  O  O3  1  0.00000000  0.29016500  0.09715800  1
  O  O4  1  0.50000000  0.11772400  0.26481800  1
  O  O5  1  0.50000000  0.61772400  0.73518200  1
  O  O6  1  0.00000000  0.88745700  0.23245900  1
  O  O7  1  0.00000000  0.38745700  0.76754100  1
  O  O8  1  0.50000000  0.42728500  0.32621300  1
  O  O9  1  0.50000000  0.92728500  0.67378700  1
  O  O10  1  0.00000000  0.57362300  0.17855400  1
  O  O11  1  0.00000000  0.07362300  0.82144600  1
  O  O12  1  0.50000000  0.02160600  0.03556000  1
  O  O13  1  0.50000000  0.52160600  0.96444000  1
  O  O14  1  0.00000000  0.98087100  0.46886000  1
  O  O15  1  0.00000000  0.48087100  0.53114000  1
loop_
_geom_bond_atom_site_label_1
_geom_bond_atom_site_label_2
_geom_bond_distance
_geom_bond_site_symmetry_2
Na0 O11 2.525606 1_655
Na0 O11 2.525606 1_555
Na0 O7 2.526956 1_655
Na0 O7 2.526956 1_555
Na0 O13 2.654265 1_555
Na0 O12 2.718506 1_556
Na0 O3 2.759991 1_556
Na0 O3 2.759991 1_656
Na1 O10 2.525606 1_655
Na1 O10 2.525606 1_555
Na1 O6 2.526956 1_655
Na1 O6 2.526956 1_555
Na1 O12 2.654265 1_565
Na1 O13 2.718506 1_554
Na1 O2 2.759991 1_654
Na1 O2 2.759991 1_554
Na2 O5 2.521185 1_455
Na2 O5 2.521185 1_555
Na2 O9 2.522519 1_555
Na2 O9 2.522519 1_455
Na2 O15 2.634233 1_555
Na2 O14 2.714248 1_555
Na2 O1 2.761483 1_555
Na2 O1 2.761483 1_455
Na3 O4 2.521185 1_455
Na3 O4 2.521185 1_555
Na3 O8 2.522519 1_455
Na3 O8 2.522519 1_555
Na3 O14 2.634233 1_545
Na3 O15 2.714248 1_555
Na3 O0 2.761483 1_555
Na3 O0 2.761483 1_455
Hf0 O10 2.068592 1_555
Hf0 O15 2.089229 1_555
Hf0 O1 2.116286 1_455
Hf0 O1 2.116286 1_555
Hf0 O8 2.118273 1_555
Hf0 O8 2.118273 1_455
Hf1 O11 2.068592 1_555
Hf1 O14 2.089229 1_545
Hf1 O0 2.116286 1_455
Hf1 O0 2.116286 1_555
Hf1 O9 2.118273 1_445
Hf1 O9 2.118273 1_545
Hf2 O2 2.088579 1_555
Hf2 O13 2.091189 1_555
Hf2 O13 2.091189 1_455
Hf2 O7 2.096098 1_555
Hf2 O5 2.125547 1_555
Hf2 O5 2.125547 1_455
Hf3 O3 2.088579 1_555
Hf3 O12 2.091189 1_455
Hf3 O12 2.091189 1_555
Hf3 O6 2.096098 1_545
Hf3 O4 2.125547 1_455
Hf3 O4 2.125547 1_555
O0 Sc2 2.149048 1_555
O1 Sc3 2.149048 1_555
O2 Sc1 2.142161 1_555
O2 Sc1 2.142161 1_455
O3 Sc0 2.142161 1_455
O3 Sc0 2.142161 1_555
O4 Sc3 2.157552 1_545
O5 Sc2 2.157552 1_555
O6 Sc3 2.149551 1_555
O6 Sc3 2.149551 1_455
O7 Sc2 2.149551 1_555
O7 Sc2 2.149551 1_455
O8 Sc0 2.131676 1_555
O9 Sc1 2.131676 1_555
O10 Sc0 2.147480 1_555
O10 Sc0 2.147480 1_455
O11 Sc1 2.147480 1_445
O11 Sc1 2.147480 1_545
O12 Sc1 2.142350 1_544
O13 Sc0 2.142350 1_556
O14 Sc3 2.115546 1_555
O14 Sc3 2.115546 1_455
O15 Sc2 2.115546 1_455
O15 Sc2 2.115546 1_555
