# generated using pymatgen
data_B
_symmetry_space_group_name_H-M   'P 1'
_cell_length_a   7.29292500
_cell_length_b   7.29292500
_cell_length_c   7.29292500
_cell_angle_alpha   90.00000000
_cell_angle_beta   90.00000000
_cell_angle_gamma   90.00000000
_symmetry_Int_Tables_number   1
_chemical_formula_structural   B
_chemical_formula_sum   B48
_cell_volume   387.88701561
_cell_formula_units_Z   48
loop_
 _symmetry_equiv_pos_site_id
 _symmetry_equiv_pos_as_xyz
  1  'x, y, z'
loop_
 _atom_site_type_symbol
 _atom_site_label
 _atom_site_symmetry_multiplicity
 _atom_site_fract_x
 _atom_site_fract_y
 _atom_site_fract_z
 _atom_site_occupancy
  B  B0  1  0.00001100  0.85920100  0.64129600  1
  B  B1  1  0.35870400  0.00001100  0.14079900  1
  B  B2  1  0.85920100  0.35870400  0.99998900  1
  B  B3  1  0.00001100  0.14079900  0.35870400  1
  B  B4  1  0.35870400  0.99998900  0.85920100  1
  B  B5  1  0.85920100  0.64129600  0.00001100  1
  B  B6  1  0.99998900  0.85920100  0.35870400  1
  B  B7  1  0.64129600  0.00001100  0.85920100  1
  B  B8  1  0.14079900  0.35870400  0.00001100  1
  B  B9  1  0.99998900  0.14079900  0.64129600  1
  B  B10  1  0.64129600  0.99998900  0.14079900  1
  B  B11  1  0.14079900  0.64129600  0.99998900  1
  B  B12  1  0.30214500  0.50006000  0.62378000  1
  B  B13  1  0.37622000  0.30214500  0.49994000  1
  B  B14  1  0.50006000  0.37622000  0.69785500  1
  B  B15  1  0.30214500  0.49994000  0.37622000  1
  B  B16  1  0.37622000  0.69785500  0.50006000  1
  B  B17  1  0.50006000  0.62378000  0.30214500  1
  B  B18  1  0.69785500  0.50006000  0.37622000  1
  B  B19  1  0.62378000  0.30214500  0.50006000  1
  B  B20  1  0.49994000  0.37622000  0.30214500  1
  B  B21  1  0.69785500  0.49994000  0.62378000  1
  B  B22  1  0.62378000  0.69785500  0.49994000  1
  B  B23  1  0.49994000  0.62378000  0.69785500  1
  B  B24  1  0.49986500  0.21825900  0.13122800  1
  B  B25  1  0.86877200  0.49986500  0.78174100  1
  B  B26  1  0.21825900  0.86877200  0.50013500  1
  B  B27  1  0.49986500  0.78174100  0.86877200  1
  B  B28  1  0.86877200  0.50013500  0.21825900  1
  B  B29  1  0.21825900  0.13122800  0.49986500  1
  B  B30  1  0.50013500  0.21825900  0.86877200  1
  B  B31  1  0.13122800  0.49986500  0.21825900  1
  B  B32  1  0.78174100  0.86877200  0.49986500  1
  B  B33  1  0.50013500  0.78174100  0.13122800  1
  B  B34  1  0.13122800  0.50013500  0.78174100  1
  B  B35  1  0.78174100  0.13122800  0.50013500  1
  B  B36  1  0.19384000  0.99976600  0.30649600  1
  B  B37  1  0.69350400  0.19384000  0.00023400  1
  B  B38  1  0.99976600  0.69350400  0.80616000  1
  B  B39  1  0.19384000  0.00023400  0.69350400  1
  B  B40  1  0.69350400  0.80616000  0.99976600  1
  B  B41  1  0.99976600  0.30649600  0.19384000  1
  B  B42  1  0.80616000  0.99976600  0.69350400  1
  B  B43  1  0.30649600  0.19384000  0.99976600  1
  B  B44  1  0.00023400  0.69350400  0.19384000  1
  B  B45  1  0.80616000  0.00023400  0.30649600  1
  B  B46  1  0.30649600  0.80616000  0.00023400  1
  B  B47  1  0.00023400  0.30649600  0.80616000  1
loop_
_geom_bond_atom_site_label_1
_geom_bond_atom_site_label_2
_geom_bond_distance
_geom_bond_site_symmetry_2
B0 B38 1.704669 1_455
B0 B42 1.787323 1_455
B0 B39 1.789156 1_565
B0 B26 1.896865 1_555
B0 B32 1.898069 1_455
B0 B9 2.053673 1_465
B0 B6 2.060922 1_455
B1 B36 1.704669 1_545
B1 B46 1.787323 1_545
B1 B43 1.789156 1_554
B1 B24 1.896865 1_555
B1 B33 1.898069 1_545
B1 B4 2.053673 1_544
B1 B10 2.060922 1_545
B2 B37 1.704669 1_556
B2 B41 1.787323 1_556
B2 B47 1.789156 1_655
B2 B25 1.896865 1_555
B2 B28 1.898069 1_556
B2 B8 2.053673 1_656
B2 B5 2.060922 1_556
B3 B41 1.704669 1_455
B3 B45 1.787323 1_455
B3 B36 1.789156 1_545
B3 B35 1.898069 1_455
B3 B6 2.053673 1_445
B3 B9 2.060922 1_455
B4 B43 1.787323 1_565
B4 B46 1.789156 1_556
B4 B7 2.060922 1_565
B10 B45 1.704669 1_565
B10 B37 1.787323 1_565
B10 B40 1.789156 1_554
B10 B33 1.896865 1_555
B10 B24 1.898069 1_565
B10 B7 2.053673 1_564
B11 B46 1.704669 1_556
B11 B44 1.787323 1_556
B11 B38 1.789156 1_455
B11 B34 1.896865 1_555
B11 B31 1.898069 1_556
B11 B5 2.053673 1_456
B11 B8 2.060922 1_556
B12 B34 1.697299 1_555
B12 B16 1.785153 1_555
B12 B23 1.785153 1_555
B12 B13 1.786302 1_555
B12 B14 1.786302 1_555
B12 B15 1.805437 1_555
B13 B29 1.697299 1_555
B13 B20 1.785153 1_555
B13 B15 1.785153 1_555
B13 B14 1.786302 1_555
B13 B19 1.805437 1_555
B14 B30 1.697299 1_555
B14 B19 1.785153 1_555
B14 B21 1.785153 1_555
B14 B23 1.805437 1_555
B15 B31 1.697299 1_555
B15 B20 1.785153 1_555
B15 B16 1.786302 1_555
B15 B17 1.786302 1_555
B16 B26 1.697299 1_555
B16 B23 1.785153 1_555
B16 B17 1.786302 1_555
B16 B22 1.805437 1_555
B17 B33 1.697299 1_555
B17 B18 1.785153 1_555
B17 B22 1.785153 1_555
B17 B20 1.805437 1_555
B18 B28 1.697299 1_555
B18 B22 1.785153 1_555
B18 B20 1.786302 1_555
B18 B19 1.786302 1_555
B18 B21 1.805437 1_555
B19 B35 1.697299 1_555
B19 B21 1.785153 1_555
B19 B20 1.786302 1_555
B20 B24 1.697299 1_555
B21 B25 1.697299 1_555
B21 B23 1.786302 1_555
B21 B22 1.786302 1_555
B22 B32 1.697299 1_555
B22 B23 1.786302 1_555
B23 B27 1.697299 1_555
B24 B37 1.714253 1_555
B24 B43 1.714537 1_554
B24 B30 1.914073 1_554
B25 B38 1.714253 1_555
B25 B47 1.714537 1_655
B25 B5 1.898069 1_556
B25 B34 1.914073 1_655
B26 B36 1.714253 1_555
B26 B39 1.714537 1_565
B26 B6 1.898069 1_455
B26 B29 1.914073 1_565
B27 B40 1.714253 1_555
B27 B46 1.714537 1_556
B27 B4 1.896865 1_555
B27 B7 1.898069 1_565
B27 B33 1.914073 1_556
B28 B41 1.714253 1_555
B28 B44 1.714537 1_655
B28 B5 1.896865 1_555
B28 B31 1.914073 1_655
B29 B39 1.714253 1_555
B29 B36 1.714537 1_545
B29 B3 1.896865 1_555
B29 B9 1.898069 1_455
B30 B43 1.714253 1_555
B30 B37 1.714537 1_556
B30 B7 1.896865 1_555
B30 B4 1.898069 1_545
B31 B44 1.714253 1_555
B31 B41 1.714537 1_455
B31 B8 1.896865 1_555
B32 B42 1.714253 1_555
B32 B45 1.714537 1_565
B32 B6 1.896865 1_555
B32 B35 1.914073 1_565
B33 B46 1.714253 1_555
B33 B40 1.714537 1_554
B34 B47 1.714253 1_555
B34 B38 1.714537 1_455
B34 B8 1.898069 1_556
B35 B45 1.714253 1_555
B35 B42 1.714537 1_545
B35 B9 1.896865 1_555
B36 B6 1.787323 1_455
B37 B7 1.789156 1_554
B38 B5 1.787323 1_556
B39 B4 1.704669 1_545
B39 B9 1.787323 1_455
B40 B5 1.704669 1_556
B40 B7 1.787323 1_565
B41 B8 1.789156 1_655
B42 B7 1.704669 1_565
B42 B9 1.789156 1_565
B43 B8 1.704669 1_556
B44 B6 1.704669 1_455
B44 B5 1.789156 1_455
B45 B6 1.789156 1_545
B47 B9 1.704669 1_455
B47 B8 1.787323 1_556
