# generated using pymatgen
data_UCrC2
_symmetry_space_group_name_H-M   'P 1'
_cell_length_a   3.13840500
_cell_length_b   5.47226300
_cell_length_c   10.71589600
_cell_angle_alpha   90.00000000
_cell_angle_beta   90.00000000
_cell_angle_gamma   90.00000000
_symmetry_Int_Tables_number   1
_chemical_formula_structural   UCrC2
_chemical_formula_sum   'U4 Cr4 C8'
_cell_volume   184.03670062
_cell_formula_units_Z   4
loop_
 _symmetry_equiv_pos_site_id
 _symmetry_equiv_pos_as_xyz
  1  'x, y, z'
loop_
 _atom_site_type_symbol
 _atom_site_label
 _atom_site_symmetry_multiplicity
 _atom_site_fract_x
 _atom_site_fract_y
 _atom_site_fract_z
 _atom_site_occupancy
  U  U0  1  0.75000000  0.42147300  0.64136100  1
  U  U1  1  0.75000000  0.92147300  0.85863900  1
  U  U2  1  0.25000000  0.57852700  0.35863900  1
  U  U3  1  0.25000000  0.07852700  0.14136100  1
  Cr  Cr0  1  0.75000000  0.07581700  0.40110700  1
  Cr  Cr1  1  0.75000000  0.57581700  0.09889300  1
  Cr  Cr2  1  0.25000000  0.92418300  0.59889300  1
  Cr  Cr3  1  0.25000000  0.42418300  0.90110700  1
  C  C0  1  0.75000000  0.33363700  0.25449000  1
  C  C1  1  0.75000000  0.83363700  0.24551000  1
  C  C2  1  0.25000000  0.66636300  0.74551000  1
  C  C3  1  0.25000000  0.16636300  0.75449000  1
  C  C4  1  0.75000000  0.77166300  0.51044600  1
  C  C5  1  0.75000000  0.27166300  0.98955400  1
  C  C6  1  0.25000000  0.22833700  0.48955400  1
  C  C7  1  0.25000000  0.72833700  0.01044600  1
loop_
_geom_bond_atom_site_label_1
_geom_bond_atom_site_label_2
_geom_bond_distance
_geom_bond_site_symmetry_2
C0 Cr0 2.111630 1_555
C0 Cr1 2.129892 1_555
C0 U2 2.346026 1_555
C0 U2 2.346026 1_655
C0 U3 2.425059 1_655
C0 U3 2.425059 1_555
C1 Cr1 2.111630 1_555
C1 Cr0 2.129892 1_565
C1 U3 2.346026 1_565
C1 U3 2.346026 1_665
C1 U2 2.425059 1_555
C1 U2 2.425059 1_655
C2 Cr2 2.111630 1_555
C2 Cr3 2.129892 1_555
C2 U0 2.346026 1_555
C2 U0 2.346026 1_455
C2 U1 2.425059 1_455
C2 U1 2.425059 1_555
C3 Cr3 2.111630 1_555
C3 Cr2 2.129892 1_545
C3 U1 2.346026 1_545
C3 U1 2.346026 1_445
C3 U0 2.425059 1_555
C3 U0 2.425059 1_455
C4 Cr2 2.014276 1_655
C4 Cr2 2.014276 1_555
C4 Cr0 2.035451 1_565
C4 U0 2.374948 1_555
C4 U2 2.495140 1_555
C4 U2 2.495140 1_655
C5 Cr3 2.014276 1_655
C5 Cr3 2.014276 1_555
C5 Cr1 2.035451 1_556
C5 U1 2.374948 1_545
C5 U3 2.495140 1_556
C5 U3 2.495140 1_656
C6 Cr0 2.014276 1_455
C6 Cr0 2.014276 1_555
C6 Cr2 2.035451 1_545
C6 U2 2.374948 1_555
C6 U0 2.495140 1_455
C6 U0 2.495140 1_555
C7 Cr1 2.014276 1_455
C7 Cr1 2.014276 1_555
C7 Cr3 2.035451 1_554
C7 U3 2.374948 1_565
C7 U1 2.495140 1_454
C7 U1 2.495140 1_554
