# generated using pymatgen
data_SmAlGe2O7
_symmetry_space_group_name_H-M   'P 1'
_cell_length_a   6.57224000
_cell_length_b   7.28089100
_cell_length_c   12.82101036
_cell_angle_alpha   62.44527079
_cell_angle_beta   90.00000000
_cell_angle_gamma   90.00000000
_symmetry_Int_Tables_number   1
_chemical_formula_structural   SmAlGe2O7
_chemical_formula_sum   'Sm4 Al4 Ge8 O28'
_cell_volume   543.91735302
_cell_formula_units_Z   4
loop_
 _symmetry_equiv_pos_site_id
 _symmetry_equiv_pos_as_xyz
  1  'x, y, z'
loop_
 _atom_site_type_symbol
 _atom_site_label
 _atom_site_symmetry_multiplicity
 _atom_site_fract_x
 _atom_site_fract_y
 _atom_site_fract_z
 _atom_site_occupancy
  Sm  Sm0  1  0.35315800  0.73961700  0.52694300  1
  Sm  Sm1  1  0.64684200  0.26038300  0.47305700  1
  Sm  Sm2  1  0.85315800  0.26038300  0.97305700  1
  Sm  Sm3  1  0.14684200  0.73961700  0.02694300  1
  Al  Al0  1  0.39782700  0.71231800  0.27038800  1
  Al  Al1  1  0.60217300  0.28768200  0.72961200  1
  Al  Al2  1  0.89782700  0.28768200  0.22961200  1
  Al  Al3  1  0.10217300  0.71231800  0.77038800  1
  Ge  Ge0  1  0.65789800  0.71061700  0.04856800  1
  Ge  Ge1  1  0.34210200  0.28938300  0.95143200  1
  Ge  Ge2  1  0.15789800  0.28938300  0.45143200  1
  Ge  Ge3  1  0.84210200  0.71061700  0.54856800  1
  Ge  Ge4  1  0.90998100  0.80278500  0.27982600  1
  Ge  Ge5  1  0.09001900  0.19721500  0.72017400  1
  Ge  Ge6  1  0.40998100  0.19721500  0.22017400  1
  Ge  Ge7  1  0.59001900  0.80278500  0.77982600  1
  O  O0  1  0.37575700  0.92658700  0.30386500  1
  O  O1  1  0.62424300  0.07341300  0.69613500  1
  O  O2  1  0.87575700  0.07341300  0.19613500  1
  O  O3  1  0.12424300  0.92658700  0.80386500  1
  O  O4  1  0.82641700  0.90868800  0.02299000  1
  O  O5  1  0.17358300  0.09131200  0.97701000  1
  O  O6  1  0.32641700  0.09131200  0.47701000  1
  O  O7  1  0.67358300  0.90868800  0.52299000  1
  O  O8  1  0.61555000  0.27638900  0.27859100  1
  O  O9  1  0.38445000  0.72361100  0.72140900  1
  O  O10  1  0.11555000  0.72361100  0.22140900  1
  O  O11  1  0.88445000  0.27638900  0.77859100  1
  O  O12  1  0.00075300  0.74769200  0.42657500  1
  O  O13  1  0.99924700  0.25230800  0.57342500  1
  O  O14  1  0.50075300  0.25230800  0.07342500  1
  O  O15  1  0.49924700  0.74769200  0.92657500  1
  O  O16  1  0.44610000  0.70450800  0.13437900  1
  O  O17  1  0.55390000  0.29549200  0.86562100  1
  O  O18  1  0.94610000  0.29549200  0.36562100  1
  O  O19  1  0.05390000  0.70450800  0.63437900  1
  O  O20  1  0.84187400  0.50733300  0.08436300  1
  O  O21  1  0.15812600  0.49266700  0.91563700  1
  O  O22  1  0.34187400  0.49266700  0.41563700  1
  O  O23  1  0.65812600  0.50733300  0.58436300  1
  O  O24  1  0.68145900  0.65870700  0.31304500  1
  O  O25  1  0.31854100  0.34129300  0.68695500  1
  O  O26  1  0.18145900  0.34129300  0.18695500  1
  O  O27  1  0.81854100  0.65870700  0.81304500  1
loop_
_geom_bond_atom_site_label_1
_geom_bond_atom_site_label_2
_geom_bond_distance
_geom_bond_site_symmetry_2
Al0 O16 1.798992 1_555
Al0 O0 1.805154 1_555
Al0 O22 1.845367 1_555
Al0 O24 1.931015 1_555
Al0 O10 1.948092 1_555
Al1 O17 1.798992 1_555
Al1 O1 1.805154 1_555
Al1 O23 1.845367 1_555
Al1 O25 1.931015 1_555
Al1 O11 1.948092 1_555
Al2 O18 1.798992 1_555
Al2 O2 1.805154 1_555
Al2 O20 1.845367 1_555
Al2 O26 1.931015 1_655
Al2 O8 1.948092 1_555
Al3 O19 1.798992 1_555
Al3 O3 1.805154 1_555
Al3 O21 1.845367 1_555
Al3 O27 1.931015 1_455
Al3 O9 1.948092 1_555
Ge0 O4 1.725226 1_555
Ge0 O16 1.762026 1_555
Ge0 O15 1.793260 1_554
Ge0 O20 1.798567 1_555
Ge1 O5 1.725226 1_555
Ge1 O17 1.762026 1_555
Ge1 O14 1.793260 1_556
Ge1 O21 1.798567 1_555
Ge2 O6 1.725226 1_555
Ge2 O18 1.762026 1_455
Ge2 O13 1.793260 1_455
Ge2 O22 1.798567 1_555
Ge3 O7 1.725226 1_555
Ge3 O19 1.762026 1_655
Ge3 O12 1.793260 1_655
Ge3 O23 1.798567 1_555
Ge4 O10 1.765795 1_655
Ge4 O24 1.767535 1_555
Ge4 O2 1.768717 1_565
Ge4 O12 1.832618 1_655
Ge5 O11 1.765795 1_455
Ge5 O25 1.767535 1_555
Ge5 O3 1.768717 1_545
Ge5 O13 1.832618 1_455
Ge6 O8 1.765795 1_555
Ge6 O26 1.767535 1_555
Ge6 O0 1.768717 1_545
Ge6 O14 1.832618 1_555
Ge7 O9 1.765795 1_555
Ge7 O27 1.767535 1_555
Ge7 O1 1.768717 1_565
Ge7 O15 1.832618 1_555
O0 Sm0 2.540298 1_555
O1 Sm1 2.540298 1_555
O2 Sm2 2.540298 1_554
O3 Sm3 2.540298 1_556
O4 Sm2 2.341154 1_564
O4 Sm3 2.427969 1_655
O5 Sm3 2.341154 1_546
O5 Sm2 2.427969 1_455
O6 Sm0 2.341154 1_545
O6 Sm1 2.427969 1_555
O7 Sm1 2.341154 1_565
O7 Sm0 2.427969 1_555
O8 Sm1 2.450174 1_555
O9 Sm0 2.450174 1_555
O10 Sm3 2.450174 1_555
O11 Sm2 2.450174 1_555
O12 Sm0 2.636975 1_555
O13 Sm1 2.636975 1_555
O14 Sm2 2.636975 1_554
O15 Sm3 2.636975 1_556
O16 Sm3 2.346316 1_555
O17 Sm2 2.346316 1_555
O18 Sm1 2.346316 1_555
O19 Sm0 2.346316 1_555
O20 Sm3 2.503524 1_655
O20 Sm2 2.765641 1_554
O21 Sm2 2.503524 1_455
O21 Sm3 2.765641 1_556
O22 Sm1 2.503524 1_555
O22 Sm0 2.765641 1_555
O23 Sm0 2.503524 1_555
O23 Sm1 2.765641 1_555
O24 Sm1 2.677078 1_555
O25 Sm0 2.677078 1_555
O26 Sm3 2.677078 1_555
O27 Sm2 2.677078 1_555
