# generated using pymatgen
data_Na8Al6Si6O25
_symmetry_space_group_name_H-M   'P 1'
_cell_length_a   8.95776446
_cell_length_b   8.95776446
_cell_length_c   8.95776412
_cell_angle_alpha   90.30195922
_cell_angle_beta   90.30195922
_cell_angle_gamma   90.30196099
_symmetry_Int_Tables_number   1
_chemical_formula_structural   Na8Al6Si6O25
_chemical_formula_sum   'Na8 Al6 Si6 O25'
_cell_volume   718.75477237
_cell_formula_units_Z   1
loop_
 _symmetry_equiv_pos_site_id
 _symmetry_equiv_pos_as_xyz
  1  'x, y, z'
loop_
 _atom_site_type_symbol
 _atom_site_label
 _atom_site_symmetry_multiplicity
 _atom_site_fract_x
 _atom_site_fract_y
 _atom_site_fract_z
 _atom_site_occupancy
  Na  Na0  1  0.84402400  0.15604500  0.15584700  1
  Na  Na1  1  0.87359500  0.87359500  0.87359500  1
  Na  Na2  1  0.70045900  0.30634400  0.69843100  1
  Na  Na3  1  0.69843100  0.70045900  0.30634400  1
  Na  Na4  1  0.30634400  0.69843100  0.70045900  1
  Na  Na5  1  0.19039200  0.19039200  0.19039200  1
  Na  Na6  1  0.15604500  0.15584700  0.84402400  1
  Na  Na7  1  0.15584700  0.84402400  0.15604500  1
  Al  Al0  1  0.00562000  0.25281500  0.50208600  1
  Al  Al1  1  0.75281800  0.50369500  0.00178200  1
  Al  Al2  1  0.50369500  0.00178200  0.75281800  1
  Al  Al3  1  0.50208600  0.00562000  0.25281500  1
  Al  Al4  1  0.25281500  0.50208600  0.00562000  1
  Al  Al5  1  0.00178200  0.75281800  0.50369500  1
  Si  Si0  1  0.00194800  0.50078300  0.25196200  1
  Si  Si1  1  0.75401300  0.00335400  0.50430400  1
  Si  Si2  1  0.50430400  0.75401300  0.00335400  1
  Si  Si3  1  0.50078300  0.25196200  0.00194800  1
  Si  Si4  1  0.25196200  0.00194800  0.50078300  1
  Si  Si5  1  0.00335400  0.50430400  0.75401300  1
  O  O0  1  0.93805200  0.63680700  0.35694600  1
  O  O1  1  0.94100600  0.36598600  0.64932000  1
  O  O2  1  0.86091700  0.43854200  0.15136200  1
  O  O3  1  0.86380800  0.56606700  0.85363600  1
  O  O4  1  0.85285000  0.14318700  0.44128200  1
  O  O5  1  0.85363600  0.86380800  0.56606700  1
  O  O6  1  0.65391400  0.06584000  0.64403800  1
  O  O7  1  0.64932000  0.94100600  0.36598600  1
  O  O8  1  0.63680700  0.35694600  0.93805200  1
  O  O9  1  0.64403800  0.65391400  0.06584000  1
  O  O10  1  0.56799900  0.14935200  0.13709600  1
  O  O11  1  0.56606700  0.85363600  0.86380800  1
  O  O12  1  0.43854200  0.15136200  0.86091700  1
  O  O13  1  0.44128200  0.85285000  0.14318700  1
  O  O14  1  0.35865800  0.34810200  0.06430300  1
  O  O15  1  0.36598600  0.64932000  0.94100600  1
  O  O16  1  0.34810200  0.06430300  0.35865800  1
  O  O17  1  0.35694600  0.93805200  0.63680700  1
  O  O18  1  0.14935200  0.13709600  0.56799900  1
  O  O19  1  0.15136200  0.86091700  0.43854200  1
  O  O20  1  0.13709600  0.56799900  0.14935200  1
  O  O21  1  0.14318700  0.44128200  0.85285000  1
  O  O22  1  0.06430300  0.35865800  0.34810200  1
  O  O23  1  0.06584000  0.64403800  0.65391400  1
  O  O24  1  0.03103900  0.03103900  0.03103900  1
loop_
_geom_bond_atom_site_label_1
_geom_bond_atom_site_label_2
_geom_bond_distance
_geom_bond_site_symmetry_2
Na0 O24 2.310098 1_655
Na0 O10 2.477771 1_555
Na0 O2 2.534808 1_555
Na0 O4 2.560882 1_555
Na1 O24 2.429883 1_666
Na1 O5 2.760520 1_555
Na1 O11 2.760520 1_555
Na1 O3 2.760520 1_555
Na2 O6 2.242747 1_555
Na2 O1 2.263251 1_555
Na2 O8 2.267876 1_555
Na3 O9 2.242747 1_555
Na3 O7 2.263251 1_555
Na3 O0 2.267877 1_555
Na4 O23 2.242747 1_555
Na4 O15 2.263251 1_555
Na4 O17 2.267877 1_555
Na5 O14 2.357064 1_555
Na5 O16 2.357064 1_555
Na5 O22 2.357064 1_555
Na5 O24 2.459346 1_555
Na6 O24 2.310098 1_556
Na6 O18 2.477771 1_555
Na6 O12 2.534808 1_555
Na6 O21 2.560882 1_555
Na7 O24 2.310098 1_565
Na7 O20 2.477771 1_555
Na7 O19 2.534808 1_555
Na7 O13 2.560882 1_555
Al0 O18 1.758785 1_555
Al0 O22 1.758988 1_555
Al0 O1 1.761339 1_455
Al0 O4 1.762414 1_455
Al1 O2 1.753321 1_555
Al1 O3 1.754305 1_554
Al1 O9 1.760982 1_555
Al1 O8 1.762186 1_554
Al2 O12 1.753321 1_555
Al2 O11 1.754305 1_545
Al2 O6 1.760982 1_555
Al2 O17 1.762186 1_545
Al3 O10 1.758785 1_555
Al3 O16 1.758988 1_555
Al3 O7 1.761339 1_545
Al3 O13 1.762414 1_545
Al4 O20 1.758785 1_555
Al4 O14 1.758988 1_555
Al4 O15 1.761339 1_554
Al4 O21 1.762414 1_554
Al5 O19 1.753321 1_555
Al5 O5 1.754305 1_455
Al5 O23 1.760982 1_555
Al5 O0 1.762186 1_455
O0 Si0 1.642441 1_655
O1 Si5 1.643632 1_655
O2 Si0 1.641398 1_655
O3 Si5 1.636724 1_655
O4 Si1 1.634802 1_555
O5 Si1 1.636724 1_565
O6 Si1 1.641282 1_555
O7 Si1 1.643632 1_565
O8 Si3 1.642441 1_556
O9 Si2 1.641282 1_555
O10 Si3 1.637946 1_555
O11 Si2 1.636724 1_556
O12 Si3 1.641398 1_556
O13 Si2 1.634802 1_555
O14 Si3 1.639658 1_555
O15 Si2 1.643632 1_556
O16 Si4 1.639658 1_555
O17 Si4 1.642441 1_565
O18 Si4 1.637946 1_555
O19 Si4 1.641398 1_565
O20 Si0 1.637946 1_555
O21 Si5 1.634802 1_555
O22 Si0 1.639658 1_555
O23 Si5 1.641282 1_555
