# generated using pymatgen
data_Yb(TmS2)2
_symmetry_space_group_name_H-M   'P 1'
_cell_length_a   3.83858000
_cell_length_b   12.81630400
_cell_length_c   13.01214300
_cell_angle_alpha   90.00000000
_cell_angle_beta   90.00000000
_cell_angle_gamma   90.00000000
_symmetry_Int_Tables_number   1
_chemical_formula_structural   Yb(TmS2)2
_chemical_formula_sum   'Yb4 Tm8 S16'
_cell_volume   640.15069869
_cell_formula_units_Z   4
loop_
 _symmetry_equiv_pos_site_id
 _symmetry_equiv_pos_as_xyz
  1  'x, y, z'
loop_
 _atom_site_type_symbol
 _atom_site_label
 _atom_site_symmetry_multiplicity
 _atom_site_fract_x
 _atom_site_fract_y
 _atom_site_fract_z
 _atom_site_occupancy
  Yb  Yb0  1  0.25000000  0.36860900  0.58368700  1
  Yb  Yb1  1  0.25000000  0.86860900  0.91631300  1
  Yb  Yb2  1  0.75000000  0.63139100  0.41631300  1
  Yb  Yb3  1  0.75000000  0.13139100  0.08368700  1
  Tm  Tm0  1  0.25000000  0.10735300  0.41669900  1
  Tm  Tm1  1  0.25000000  0.60735300  0.08330100  1
  Tm  Tm2  1  0.75000000  0.89264700  0.58330100  1
  Tm  Tm3  1  0.75000000  0.39264700  0.91669900  1
  Tm  Tm4  1  0.25000000  0.14684200  0.79749500  1
  Tm  Tm5  1  0.25000000  0.64684200  0.70250500  1
  Tm  Tm6  1  0.75000000  0.85315800  0.20250500  1
  Tm  Tm7  1  0.75000000  0.35315800  0.29749500  1
  S  S0  1  0.25000000  0.21666800  0.23705100  1
  S  S1  1  0.25000000  0.71666800  0.26294900  1
  S  S2  1  0.75000000  0.78333200  0.76294900  1
  S  S3  1  0.75000000  0.28333200  0.73705100  1
  S  S4  1  0.25000000  0.25755900  0.97412800  1
  S  S5  1  0.25000000  0.75755900  0.52587200  1
  S  S6  1  0.75000000  0.74244100  0.02587200  1
  S  S7  1  0.75000000  0.24244100  0.47412800  1
  S  S8  1  0.25000000  0.46978700  0.38275600  1
  S  S9  1  0.25000000  0.96978700  0.11724400  1
  S  S10  1  0.75000000  0.53021300  0.61724400  1
  S  S11  1  0.75000000  0.03021300  0.88275600  1
  S  S12  1  0.25000000  0.03372400  0.61806100  1
  S  S13  1  0.25000000  0.53372400  0.88193900  1
  S  S14  1  0.75000000  0.96627600  0.38193900  1
  S  S15  1  0.75000000  0.46627600  0.11806100  1
loop_
_geom_bond_atom_site_label_1
_geom_bond_atom_site_label_2
_geom_bond_distance
_geom_bond_site_symmetry_2
S0 Tm7 2.713357 1_455
S0 Tm7 2.713357 1_555
S0 Tm0 2.725296 1_555
S0 Yb3 2.976673 1_555
S0 Yb3 2.976673 1_455
S1 Tm6 2.713357 1_555
S1 Tm6 2.713357 1_455
S1 Tm1 2.725296 1_555
S1 Yb2 2.976673 1_555
S1 Yb2 2.976673 1_455
S2 Tm5 2.713357 1_555
S2 Tm5 2.713357 1_655
S2 Tm2 2.725296 1_555
S2 Yb1 2.976673 1_655
S2 Yb1 2.976673 1_555
S3 Tm4 2.713357 1_655
S3 Tm4 2.713357 1_555
S3 Tm3 2.725296 1_555
S3 Yb0 2.976673 1_555
S3 Yb0 2.976673 1_655
S4 Tm3 2.690649 1_455
S4 Tm3 2.690649 1_555
S4 Tm4 2.701117 1_555
S4 Yb3 2.886298 1_556
S4 Yb3 2.886298 1_456
S5 Tm2 2.690649 1_455
S5 Tm2 2.690649 1_555
S5 Tm5 2.701117 1_555
S5 Yb2 2.886298 1_555
S5 Yb2 2.886298 1_455
S6 Tm1 2.690649 1_555
S6 Tm1 2.690649 1_655
S6 Tm6 2.701117 1_555
S6 Yb1 2.886298 1_654
S6 Yb1 2.886298 1_554
S7 Tm0 2.690649 1_655
S7 Tm0 2.690649 1_555
S7 Tm7 2.701117 1_555
S7 Yb0 2.886298 1_555
S7 Yb0 2.886298 1_655
S8 Tm7 2.673722 1_555
S8 Tm7 2.673722 1_455
S8 Yb2 2.857283 1_555
S8 Yb2 2.857283 1_455
S8 Yb0 2.918448 1_555
S9 Tm6 2.673722 1_555
S9 Tm6 2.673722 1_455
S9 Yb3 2.857283 1_565
S9 Yb3 2.857283 1_465
S9 Yb1 2.918448 1_554
S10 Tm5 2.673722 1_555
S10 Tm5 2.673722 1_655
S10 Yb0 2.857283 1_555
S10 Yb0 2.857283 1_655
S10 Yb2 2.918448 1_555
S11 Tm4 2.673722 1_655
S11 Tm4 2.673722 1_555
S11 Yb1 2.857283 1_545
S11 Yb1 2.857283 1_645
S11 Yb3 2.918448 1_556
S12 Tm2 2.675336 1_445
S12 Tm2 2.675336 1_545
S12 Tm4 2.748304 1_555
S12 Tm0 2.784900 1_555
S13 Tm3 2.675336 1_555
S13 Tm3 2.675336 1_455
S13 Tm5 2.748304 1_555
S13 Tm1 2.784900 1_556
S14 Tm0 2.675336 1_665
S14 Tm0 2.675336 1_565
S14 Tm6 2.748304 1_555
S14 Tm2 2.784900 1_555
S15 Tm1 2.675336 1_555
S15 Tm1 2.675336 1_655
S15 Tm7 2.748304 1_555
S15 Tm3 2.784900 1_554
