# generated using pymatgen
data_Ba5B3BrO9
_symmetry_space_group_name_H-M   'P 1'
_cell_length_a   9.23157360
_cell_length_b   9.23157360
_cell_length_c   8.14640700
_cell_angle_alpha   90.00000000
_cell_angle_beta   90.00000000
_cell_angle_gamma   109.53888167
_symmetry_Int_Tables_number   1
_chemical_formula_structural   Ba5B3BrO9
_chemical_formula_sum   'Ba10 B6 Br2 O18'
_cell_volume   654.27398307
_cell_formula_units_Z   2
loop_
 _symmetry_equiv_pos_site_id
 _symmetry_equiv_pos_as_xyz
  1  'x, y, z'
loop_
 _atom_site_type_symbol
 _atom_site_label
 _atom_site_symmetry_multiplicity
 _atom_site_fract_x
 _atom_site_fract_y
 _atom_site_fract_z
 _atom_site_occupancy
  Ba  Ba0  1  0.75841900  0.75841900  0.00000000  1
  Ba  Ba1  1  0.24158100  0.24158100  0.50000000  1
  Ba  Ba2  1  0.00729800  0.27013900  0.93424700  1
  Ba  Ba3  1  0.27013900  0.00729800  0.06575300  1
  Ba  Ba4  1  0.99270200  0.72986100  0.43424700  1
  Ba  Ba5  1  0.72986100  0.99270200  0.56575300  1
  Ba  Ba6  1  0.36154900  0.63845100  0.75000000  1
  Ba  Ba7  1  0.63845100  0.36154900  0.25000000  1
  Ba  Ba8  1  0.63997000  0.36003000  0.75000000  1
  Ba  Ba9  1  0.36003000  0.63997000  0.25000000  1
  B  B0  1  0.59823700  0.01665000  0.96957900  1
  B  B1  1  0.01665000  0.59823700  0.03042100  1
  B  B2  1  0.40176300  0.98335000  0.46957900  1
  B  B3  1  0.98335000  0.40176300  0.53042100  1
  B  B4  1  0.37521200  0.37521200  0.00000000  1
  B  B5  1  0.62478800  0.62478800  0.50000000  1
  Br  Br0  1  0.05552000  0.94448000  0.75000000  1
  Br  Br1  1  0.94448000  0.05552000  0.25000000  1
  O  O0  1  0.50737000  0.50737000  0.00000000  1
  O  O1  1  0.49263000  0.49263000  0.50000000  1
  O  O2  1  0.49449700  0.87013900  0.01001200  1
  O  O3  1  0.87013900  0.49449700  0.98998800  1
  O  O4  1  0.50550300  0.12986100  0.51001200  1
  O  O5  1  0.12986100  0.50550300  0.48998800  1
  O  O6  1  0.14969400  0.56788600  0.98631000  1
  O  O7  1  0.56788600  0.14969400  0.01369000  1
  O  O8  1  0.85030600  0.43211400  0.48631000  1
  O  O9  1  0.43211400  0.85030600  0.51369000  1
  O  O10  1  0.68774800  0.68709600  0.34978800  1
  O  O11  1  0.68709600  0.68774800  0.65021200  1
  O  O12  1  0.31225200  0.31290400  0.84978800  1
  O  O13  1  0.31290400  0.31225200  0.15021200  1
  O  O14  1  0.73052900  0.02899600  0.88068000  1
  O  O15  1  0.02899600  0.73052900  0.11932000  1
  O  O16  1  0.26947100  0.97100400  0.38068000  1
  O  O17  1  0.97100400  0.26947100  0.61932000  1
loop_
_geom_bond_atom_site_label_1
_geom_bond_atom_site_label_2
_geom_bond_distance
_geom_bond_site_symmetry_2
Ba0 O0 2.673873 1_555
Ba0 O14 2.771384 1_564
Ba0 O15 2.771384 1_655
Ba0 O3 2.947415 1_554
Ba0 O2 2.947415 1_555
Ba0 O10 2.948146 1_555
Ba0 O11 2.948146 1_554
Ba0 Br0 3.386641 1_654
Ba0 Br1 3.386641 1_565
Ba1 O1 2.673873 1_555
Ba1 O16 2.771384 1_545
Ba1 O17 2.771384 1_455
Ba1 O4 2.947415 1_555
Ba1 O5 2.947415 1_555
Ba1 O12 2.948146 1_555
Ba1 O13 2.948146 1_555
Ba1 Br1 3.386641 1_455
Ba1 Br0 3.386641 1_545
Ba2 O17 2.587050 1_455
Ba2 O6 2.654474 1_555
Ba2 O12 2.794856 1_555
Ba2 O3 2.802391 1_455
Ba2 O14 2.805289 1_455
Ba2 Br1 3.179573 1_456
Ba2 O13 3.236059 1_556
Ba2 Br0 3.519137 1_545
Ba3 O16 2.587050 1_545
Ba3 O7 2.654474 1_555
Ba3 O13 2.794856 1_555
Ba3 O2 2.802391 1_545
Ba3 O15 2.805289 1_545
Ba3 Br0 3.179573 1_544
Ba3 O12 3.236059 1_554
Ba3 Br1 3.519137 1_455
Ba4 O15 2.587050 1_655
Ba4 O8 2.654474 1_555
Ba4 O10 2.794856 1_555
Ba4 O5 2.802391 1_655
Ba4 O16 2.805289 1_655
Ba4 Br0 3.179573 1_655
Ba4 O11 3.236059 1_555
Ba4 Br1 3.519137 1_565
Ba5 O14 2.587050 1_565
Ba5 O9 2.654474 1_555
Ba5 O11 2.794856 1_555
Ba5 O4 2.802391 1_565
Ba5 O17 2.805289 1_565
Ba5 Br1 3.179573 1_565
Ba5 O10 3.236059 1_555
Ba5 Br0 3.519137 1_655
Ba6 O9 2.665158 1_555
Ba6 O6 2.665158 1_555
Ba6 O0 2.917840 1_556
Ba6 O1 2.917840 1_555
Ba6 O2 2.968453 1_556
Ba6 O5 2.968453 1_555
Ba6 O11 2.997498 1_555
Ba6 O12 2.997498 1_555
Ba7 O7 2.665158 1_555
Ba7 O8 2.665158 1_555
Ba7 O1 2.917840 1_555
Ba7 O0 2.917840 1_555
Ba7 O4 2.968453 1_555
Ba7 O3 2.968453 1_554
Ba7 O10 2.997498 1_555
Ba7 O13 2.997498 1_555
Ba8 O7 2.821932 1_556
Ba8 O8 2.821932 1_555
Ba8 O3 2.848453 1_555
Ba8 O4 2.848453 1_555
Ba8 O0 2.934277 1_556
Ba8 O1 2.934277 1_555
Ba8 O11 3.020344 1_555
Ba8 O12 3.020344 1_555
Ba9 O9 2.821932 1_555
Ba9 O6 2.821932 1_554
Ba9 O2 2.848453 1_555
Ba9 O5 2.848453 1_555
Ba9 O0 2.934277 1_555
Ba9 O1 2.934277 1_555
Ba9 O10 3.020344 1_555
Ba9 O13 3.020344 1_555
B0 O14 1.391347 1_555
B0 O7 1.395101 1_556
B0 O2 1.410166 1_546
B1 O15 1.391347 1_555
B1 O6 1.395101 1_554
B1 O3 1.410166 1_454
B2 O16 1.391347 1_555
B2 O9 1.395101 1_555
B2 O4 1.410166 1_565
B3 O17 1.391347 1_555
B3 O8 1.395101 1_555
B3 O5 1.410166 1_655
B4 O12 1.393722 1_554
B4 O13 1.393722 1_555
B4 O0 1.407588 1_555
B5 O10 1.393722 1_555
B5 O11 1.393722 1_555
B5 O1 1.407588 1_555
