# generated using pymatgen
data_CoCu2SnSe4
_symmetry_space_group_name_H-M   'P 1'
_cell_length_a   5.70378600
_cell_length_b   5.70378600
_cell_length_c   6.93708364
_cell_angle_alpha   114.27447856
_cell_angle_beta   114.27447856
_cell_angle_gamma   90.00000000
_symmetry_Int_Tables_number   1
_chemical_formula_structural   CoCu2SnSe4
_chemical_formula_sum   'Co1 Cu2 Sn1 Se4'
_cell_volume   183.62244351
_cell_formula_units_Z   1
loop_
 _symmetry_equiv_pos_site_id
 _symmetry_equiv_pos_as_xyz
  1  'x, y, z'
loop_
 _atom_site_type_symbol
 _atom_site_label
 _atom_site_symmetry_multiplicity
 _atom_site_fract_x
 _atom_site_fract_y
 _atom_site_fract_z
 _atom_site_occupancy
  Co  Co0  1  0.00000000  0.00000000  0.00000000  1
  Cu  Cu0  1  0.25000000  0.75000000  0.50000000  1
  Cu  Cu1  1  0.75000000  0.25000000  0.50000000  1
  Sn  Sn0  1  0.50000000  0.50000000  0.00000000  1
  Se  Se0  1  0.90371000  0.36099800  0.26470800  1
  Se  Se1  1  0.36099800  0.90371000  0.26470800  1
  Se  Se2  1  0.63900200  0.63900200  0.73529300  1
  Se  Se3  1  0.09629000  0.09629000  0.73529100  1
loop_
_geom_bond_atom_site_label_1
_geom_bond_atom_site_label_2
_geom_bond_distance
_geom_bond_site_symmetry_2
Co0 Se2 2.373550 1_444
Co0 Se1 2.373551 1_545
Co0 Se0 2.373551 1_455
Co0 Se3 2.373557 1_554
Cu0 Se3 2.420735 1_565
Cu0 Se0 2.420738 1_455
Cu0 Se1 2.420738 1_555
Cu0 Se2 2.420741 1_555
Cu1 Se3 2.420735 1_655
Cu1 Se1 2.420738 1_545
Cu1 Se0 2.420738 1_555
Cu1 Se2 2.420741 1_555
Se0 Sn0 2.650151 1_555
Se1 Sn0 2.650151 1_555
Se2 Sn0 2.650144 1_556
Se3 Sn0 2.650151 1_556
