# generated using pymatgen
data_NaH3CN2O
_symmetry_space_group_name_H-M   'P 1'
_cell_length_a   17.96169500
_cell_length_b   6.79454200
_cell_length_c   11.15261491
_cell_angle_alpha   90.00000000
_cell_angle_beta   97.26976544
_cell_angle_gamma   90.00000000
_symmetry_Int_Tables_number   1
_chemical_formula_structural   NaH3CN2O
_chemical_formula_sum   'Na16 H48 C16 N32 O16'
_cell_volume   1350.14050016
_cell_formula_units_Z   16
loop_
 _symmetry_equiv_pos_site_id
 _symmetry_equiv_pos_as_xyz
  1  'x, y, z'
loop_
 _atom_site_type_symbol
 _atom_site_label
 _atom_site_symmetry_multiplicity
 _atom_site_fract_x
 _atom_site_fract_y
 _atom_site_fract_z
 _atom_site_occupancy
  Na  Na0  1  0.99752300  0.45899500  0.74023200  1
  Na  Na1  1  0.00247700  0.95899500  0.75976800  1
  Na  Na2  1  0.00247700  0.54100500  0.25976800  1
  Na  Na3  1  0.99752300  0.04100500  0.24023200  1
  Na  Na4  1  0.91930100  0.82758800  0.97673100  1
  Na  Na5  1  0.08069900  0.32758800  0.52326900  1
  Na  Na6  1  0.08069900  0.17241200  0.02326900  1
  Na  Na7  1  0.91930100  0.67241200  0.47673100  1
  Na  Na8  1  0.50249000  0.95093300  0.74422600  1
  Na  Na9  1  0.49751000  0.45093300  0.75577400  1
  Na  Na10  1  0.49751000  0.04906700  0.25577400  1
  Na  Na11  1  0.50249000  0.54906700  0.24422600  1
  Na  Na12  1  0.57680000  0.31200000  0.52001300  1
  Na  Na13  1  0.42320000  0.81200000  0.97998700  1
  Na  Na14  1  0.42320000  0.68800000  0.47998700  1
  Na  Na15  1  0.57680000  0.18800000  0.02001300  1
  H  H0  1  0.38902700  0.32315000  0.35087300  1
  H  H1  1  0.61097300  0.82315000  0.14912700  1
  H  H2  1  0.61097300  0.67685000  0.64912700  1
  H  H3  1  0.38902700  0.17685000  0.85087300  1
  H  H4  1  0.10130700  0.77664500  0.15254200  1
  H  H5  1  0.89869300  0.27664500  0.34745800  1
  H  H6  1  0.89869300  0.22335500  0.84745800  1
  H  H7  1  0.10130700  0.72335500  0.65254200  1
  H  H8  1  0.26554700  0.02753600  0.78229200  1
  H  H9  1  0.73445300  0.52753600  0.71770800  1
  H  H10  1  0.73445300  0.97246400  0.21770800  1
  H  H11  1  0.26554700  0.47246400  0.28229200  1
  H  H12  1  0.26491400  0.23348900  0.69449400  1
  H  H13  1  0.73508600  0.73348900  0.80550600  1
  H  H14  1  0.73508600  0.76651100  0.30550600  1
  H  H15  1  0.26491400  0.26651100  0.19449400  1
  H  H16  1  0.17519200  0.60175700  0.04919800  1
  H  H17  1  0.82480800  0.10175700  0.45080200  1
  H  H18  1  0.82480800  0.39824300  0.95080200  1
  H  H19  1  0.17519200  0.89824300  0.54919800  1
  H  H20  1  0.31480200  0.15033000  0.44222200  1
  H  H21  1  0.68519800  0.65033000  0.05777800  1
  H  H22  1  0.68519800  0.84967000  0.55777800  1
  H  H23  1  0.31480200  0.34967000  0.94222200  1
  H  H24  1  0.34815400  0.04347800  0.57740600  1
  H  H25  1  0.65184600  0.54347800  0.92259400  1
  H  H26  1  0.65184600  0.95652200  0.42259400  1
  H  H27  1  0.34815400  0.45652200  0.07740600  1
  H  H28  1  0.14002900  0.51929300  0.90799900  1
  H  H29  1  0.85997100  0.01929300  0.59200100  1
  H  H30  1  0.85997100  0.48070700  0.09200100  1
  H  H31  1  0.14002900  0.98070700  0.40799900  1
  H  H32  1  0.73335100  0.19248500  0.65473000  1
  H  H33  1  0.26664900  0.69248500  0.84527000  1
  H  H34  1  0.26664900  0.80751500  0.34527000  1
  H  H35  1  0.73335100  0.30751500  0.15473000  1
  H  H36  1  0.16583200  0.95855900  0.86659200  1
  H  H37  1  0.83416800  0.45855900  0.63340800  1
  H  H38  1  0.83416800  0.04144100  0.13340800  1
  H  H39  1  0.16583200  0.54144100  0.36659200  1
  H  H40  1  0.71547900  0.06926400  0.94090100  1
  H  H41  1  0.28452100  0.56926400  0.55909900  1
  H  H42  1  0.28452100  0.93073600  0.05909900  1
  H  H43  1  0.71547900  0.43073600  0.44090100  1
  H  H44  1  0.77234200  0.05804300  0.83032600  1
  H  H45  1  0.22765800  0.55804300  0.66967400  1
  H  H46  1  0.22765800  0.94195700  0.16967400  1
  H  H47  1  0.77234200  0.44195700  0.33032600  1
  C  C0  1  0.06755200  0.68753700  0.99047200  1
  C  C1  1  0.93244800  0.18753700  0.50952800  1
  C  C2  1  0.93244800  0.31246300  0.00952800  1
  C  C3  1  0.06755200  0.81246300  0.49047200  1
  C  C4  1  0.17032400  0.20159900  0.77868600  1
  C  C5  1  0.82967600  0.70159900  0.72131400  1
  C  C6  1  0.82967600  0.79840100  0.22131400  1
  C  C7  1  0.17032400  0.29840100  0.27868600  1
  C  C8  1  0.42144400  0.22901200  0.51134100  1
  C  C9  1  0.57855600  0.72901200  0.98865900  1
  C  C10  1  0.57855600  0.77098800  0.48865900  1
  C  C11  1  0.42144400  0.27098800  0.01134100  1
  C  C12  1  0.66994100  0.19515800  0.78178200  1
  C  C13  1  0.33005900  0.69515800  0.71821800  1
  C  C14  1  0.33005900  0.80484200  0.21821800  1
  C  C15  1  0.66994100  0.30484200  0.28178200  1
  N  N0  1  0.24651900  0.16881600  0.76759000  1
  N  N1  1  0.75348100  0.66881600  0.73241000  1
  N  N2  1  0.75348100  0.83118400  0.23241000  1
  N  N3  1  0.24651900  0.33118400  0.26759000  1
  N  N4  1  0.05728500  0.79685400  0.08568200  1
  N  N5  1  0.94271500  0.29685400  0.41431800  1
  N  N6  1  0.94271500  0.20314600  0.91431800  1
  N  N7  1  0.05728500  0.70314600  0.58568200  1
  N  N8  1  0.12891200  0.55864100  0.99241100  1
  N  N9  1  0.87108800  0.05864100  0.50758900  1
  N  N10  1  0.87108800  0.44135900  0.00758900  1
  N  N11  1  0.12891200  0.94135900  0.49241100  1
  N  N12  1  0.73072100  0.13407800  0.86554600  1
  N  N13  1  0.26927900  0.63407800  0.63445400  1
  N  N14  1  0.26927900  0.86592200  0.13445400  1
  N  N15  1  0.73072100  0.36592200  0.36554600  1
  N  N16  1  0.43680500  0.32157600  0.41177500  1
  N  N17  1  0.56319500  0.82157600  0.08822500  1
  N  N18  1  0.56319500  0.67842400  0.58822500  1
  N  N19  1  0.43680500  0.17842400  0.91177500  1
  N  N20  1  0.67994600  0.23188600  0.66816800  1
  N  N21  1  0.32005400  0.73188600  0.83183200  1
  N  N22  1  0.32005400  0.76811400  0.33183200  1
  N  N23  1  0.67994600  0.26811400  0.16816800  1
  N  N24  1  0.13231600  0.07657500  0.83923300  1
  N  N25  1  0.86768400  0.57657500  0.66076700  1
  N  N26  1  0.86768400  0.92342500  0.16076700  1
  N  N27  1  0.13231600  0.42342500  0.33923300  1
  N  N28  1  0.34909200  0.16260600  0.52220800  1
  N  N29  1  0.65090800  0.66260600  0.97779200  1
  N  N30  1  0.65090800  0.83739400  0.47779200  1
  N  N31  1  0.34909200  0.33739400  0.02220800  1
  O  O0  1  0.02078300  0.68843500  0.89259000  1
  O  O1  1  0.97921700  0.18843500  0.60741000  1
  O  O2  1  0.97921700  0.31156500  0.10741000  1
  O  O3  1  0.02078300  0.81156500  0.39259000  1
  O  O4  1  0.14155000  0.36269400  0.73165000  1
  O  O5  1  0.85845000  0.86269400  0.76835000  1
  O  O6  1  0.85845000  0.63730600  0.26835000  1
  O  O7  1  0.14155000  0.13730600  0.23165000  1
  O  O8  1  0.60637400  0.22256900  0.82283500  1
  O  O9  1  0.39362600  0.72256900  0.67716500  1
  O  O10  1  0.39362600  0.77743100  0.17716500  1
  O  O11  1  0.60637400  0.27743100  0.32283500  1
  O  O12  1  0.47153000  0.20304400  0.60390300  1
  O  O13  1  0.52847000  0.70304400  0.89609700  1
  O  O14  1  0.52847000  0.79695600  0.39609700  1
  O  O15  1  0.47153000  0.29695600  0.10390300  1
loop_
_geom_bond_atom_site_label_1
_geom_bond_atom_site_label_2
_geom_bond_distance
_geom_bond_site_symmetry_2
Na0 O0 2.304870 1_655
Na0 O1 2.357667 1_555
Na0 O4 2.681859 1_655
Na1 O1 2.304870 1_465
Na1 O0 2.357667 1_555
Na1 O5 2.681859 1_455
Na2 O2 2.304870 1_455
Na2 O3 2.357667 1_555
Na2 O6 2.681859 1_455
Na3 O3 2.304870 1_645
Na3 O2 2.357667 1_555
Na3 O7 2.681859 1_655
Na4 O0 2.351588 1_655
Na4 O5 2.451450 1_555
Na5 O1 2.351588 1_455
Na5 O4 2.451450 1_555
Na6 O2 2.351588 1_455
Na6 O7 2.451450 1_555
Na7 O3 2.351588 1_655
Na7 O6 2.451450 1_555
Na8 O12 2.339319 1_565
Na8 O13 2.392360 1_555
Na8 O9 2.533834 1_555
Na8 O8 2.691225 1_565
Na9 O13 2.339319 1_555
Na9 O12 2.392360 1_555
Na9 O8 2.533834 1_555
Na9 O9 2.691225 1_555
Na10 O14 2.339319 1_545
Na10 O15 2.392360 1_555
Na10 O11 2.533834 1_555
Na10 O10 2.691225 1_545
Na11 O15 2.339319 1_555
Na11 O14 2.392360 1_555
Na11 O10 2.533834 1_555
Na11 O11 2.691225 1_555
Na12 O12 2.333737 1_555
Na12 O11 2.338546 1_555
Na13 O13 2.333737 1_555
Na13 O10 2.338546 1_556
Na14 O14 2.333737 1_555
Na14 O9 2.338546 1_555
Na15 O15 2.333737 1_555
Na15 O8 2.338546 1_554
H0 N16 1.024887 1_555
H1 N17 1.024887 1_555
H2 N18 1.024887 1_555
H3 N19 1.024887 1_555
H4 N4 1.025121 1_555
H5 N5 1.025121 1_555
H6 N6 1.025121 1_555
H7 N7 1.025121 1_555
H8 N0 1.025175 1_555
H9 N1 1.025175 1_555
H10 N2 1.025175 1_555
H11 N3 1.025175 1_555
H12 N0 1.017349 1_555
H13 N1 1.017349 1_555
H14 N2 1.017349 1_555
H15 N3 1.017349 1_555
H16 N8 1.022100 1_554
H17 N9 1.022100 1_555
H18 N10 1.022100 1_556
H19 N11 1.022100 1_555
H20 N28 1.021278 1_555
H21 N29 1.021278 1_554
H22 N30 1.021278 1_555
H23 N31 1.021278 1_556
H24 N28 1.018349 1_555
H25 N29 1.018349 1_555
H26 N30 1.018349 1_555
H27 N31 1.018349 1_555
H28 N8 1.022343 1_555
H29 N9 1.022343 1_555
H30 N10 1.022343 1_555
H31 N11 1.022343 1_555
H32 N20 1.025019 1_555
H33 N21 1.025019 1_555
H34 N22 1.025019 1_555
H35 N23 1.025019 1_555
H36 N24 1.025675 1_565
H37 N25 1.025675 1_555
H38 N26 1.025675 1_545
H39 N27 1.025675 1_555
H40 N12 1.016561 1_555
H41 N13 1.016561 1_555
H42 N14 1.016561 1_555
H43 N15 1.016561 1_555
H44 N12 1.026833 1_555
H45 N13 1.026833 1_555
H46 N14 1.026833 1_555
H47 N15 1.026833 1_555
C0 O0 1.290471 1_555
C0 N4 1.327690 1_556
C0 N8 1.405750 1_555
C1 O1 1.290471 1_555
C1 N5 1.327690 1_555
C1 N9 1.405750 1_555
C2 O2 1.290471 1_555
C2 N6 1.327690 1_554
C2 N10 1.405750 1_555
C3 O3 1.290471 1_555
C3 N7 1.327690 1_555
C3 N11 1.405750 1_555
C4 O4 1.292963 1_555
C4 N24 1.326771 1_555
C4 N0 1.407421 1_555
C5 O5 1.292963 1_555
C5 N25 1.326771 1_555
C5 N1 1.407421 1_555
C6 O6 1.292963 1_555
C6 N26 1.326771 1_555
C6 N2 1.407421 1_555
C7 O7 1.292963 1_555
C7 N27 1.326771 1_555
C7 N3 1.407421 1_555
C8 O12 1.292706 1_555
C8 N16 1.335010 1_555
C8 N28 1.395348 1_555
C9 O13 1.292706 1_555
C9 N17 1.335010 1_556
C9 N29 1.395348 1_555
C10 O14 1.292706 1_555
C10 N18 1.335010 1_555
C10 N30 1.395348 1_555
C11 O15 1.292706 1_555
C11 N19 1.335010 1_554
C11 N31 1.395348 1_555
C12 O8 1.296246 1_555
C12 N20 1.325791 1_555
C12 N12 1.406650 1_555
C13 O9 1.296246 1_555
C13 N21 1.325791 1_555
C13 N13 1.406650 1_555
C14 O10 1.296246 1_555
C14 N22 1.325791 1_555
C14 N14 1.406650 1_555
C15 O11 1.296246 1_555
C15 N23 1.325791 1_555
C15 N15 1.406650 1_555
N4 Na4 2.626878 1_454
N4 Na6 2.692000 1_565
N4 Na3 2.709862 1_465
N4 Na2 2.871286 1_555
N5 Na5 2.626878 1_655
N5 Na7 2.692000 1_555
N5 Na2 2.709862 1_655
N5 Na3 2.871286 1_555
N6 Na6 2.626878 1_656
N6 Na4 2.692000 1_545
N6 Na1 2.709862 1_645
N6 Na0 2.871286 1_555
N7 Na7 2.626878 1_455
N7 Na5 2.692000 1_555
N7 Na0 2.709862 1_455
N7 Na1 2.871286 1_555
N8 Na6 2.798300 1_556
N9 Na7 2.798300 1_545
N10 Na4 2.798300 1_554
N11 Na5 2.798300 1_565
N16 Na14 2.623741 1_555
N16 Na12 2.648803 1_555
N16 Na11 2.798355 1_555
N16 Na10 2.850315 1_555
N17 Na15 2.623741 1_565
N17 Na13 2.648803 1_554
N17 Na10 2.798355 1_565
N17 Na11 2.850315 1_555
N18 Na12 2.623741 1_555
N18 Na14 2.648803 1_555
N18 Na9 2.798355 1_555
N18 Na8 2.850315 1_555
N19 Na13 2.623741 1_545
N19 Na15 2.648803 1_556
N19 Na8 2.798355 1_545
N19 Na9 2.850315 1_555
N20 Na12 2.384140 1_555
N21 Na13 2.384140 1_555
N22 Na14 2.384140 1_555
N23 Na15 2.384140 1_555
N24 Na6 2.444968 1_556
N24 Na1 2.517820 1_545
N25 Na7 2.444968 1_555
N25 Na0 2.517820 1_555
N26 Na4 2.444968 1_554
N26 Na3 2.517820 1_565
N27 Na5 2.444968 1_555
N27 Na2 2.517820 1_555
