# generated using pymatgen
data_Bi(WO4)2
_symmetry_space_group_name_H-M   'P 1'
_cell_length_a   5.37379100
_cell_length_b   5.97118210
_cell_length_c   6.10062199
_cell_angle_alpha   111.89567934
_cell_angle_beta   111.53380483
_cell_angle_gamma   88.95344054
_symmetry_Int_Tables_number   1
_chemical_formula_structural   Bi(WO4)2
_chemical_formula_sum   'Bi1 W2 O8'
_cell_volume   167.35403555
_cell_formula_units_Z   1
loop_
 _symmetry_equiv_pos_site_id
 _symmetry_equiv_pos_as_xyz
  1  'x, y, z'
loop_
 _atom_site_type_symbol
 _atom_site_label
 _atom_site_symmetry_multiplicity
 _atom_site_fract_x
 _atom_site_fract_y
 _atom_site_fract_z
 _atom_site_occupancy
  Bi  Bi0  1  0.00000000  0.00000000  0.00000000  1
  W  W0  1  0.74505100  0.32580700  0.51097600  1
  W  W1  1  0.25494900  0.67419300  0.48902400  1
  O  O0  1  0.76338500  0.23520300  0.76672600  1
  O  O1  1  0.77456300  0.04076800  0.27673300  1
  O  O2  1  0.64046400  0.68312800  0.67549000  1
  O  O3  1  0.88805000  0.49189600  0.30861400  1
  O  O4  1  0.22543700  0.95923200  0.72326700  1
  O  O5  1  0.23661500  0.76479700  0.23327400  1
  O  O6  1  0.35953600  0.31687200  0.32451000  1
  O  O7  1  0.11195000  0.50810400  0.69138600  1
loop_
_geom_bond_atom_site_label_1
_geom_bond_atom_site_label_2
_geom_bond_distance
_geom_bond_site_symmetry_2
Bi0 O4 2.358209 1_544
Bi0 O1 2.358209 1_455
Bi0 O5 2.389887 1_545
Bi0 O0 2.389887 1_454
Bi0 O6 2.400852 1_555
Bi0 O2 2.400852 1_444
O0 W0 1.803193 1_555
O1 W0 1.818408 1_555
O2 W1 1.953838 1_555
O2 W0 2.156083 1_555
O3 W1 1.968616 1_655
O3 W0 2.176137 1_555
O4 W1 1.818408 1_555
O5 W1 1.803193 1_555
O6 W0 1.953838 1_555
O6 W1 2.156083 1_555
O7 W0 1.968616 1_455
O7 W1 2.176137 1_555
