# generated using pymatgen
data_Li2V3CoO8
_symmetry_space_group_name_H-M   'P 1'
_cell_length_a   5.87103215
_cell_length_b   5.98849742
_cell_length_c   8.24593802
_cell_angle_alpha   89.89097637
_cell_angle_beta   90.95672469
_cell_angle_gamma   90.52220984
_symmetry_Int_Tables_number   1
_chemical_formula_structural   Li2V3CoO8
_chemical_formula_sum   'Li4 V6 Co2 O16'
_cell_volume   289.86323742
_cell_formula_units_Z   2
loop_
 _symmetry_equiv_pos_site_id
 _symmetry_equiv_pos_as_xyz
  1  'x, y, z'
loop_
 _atom_site_type_symbol
 _atom_site_label
 _atom_site_symmetry_multiplicity
 _atom_site_fract_x
 _atom_site_fract_y
 _atom_site_fract_z
 _atom_site_occupancy
  Li  Li0  1  0.25268700  0.50089500  0.37569600  1
  Li  Li1  1  0.75289300  0.99895300  0.87464400  1
  Li  Li2  1  0.74728400  0.50097300  0.62547200  1
  Li  Li3  1  0.24691000  0.99898400  0.12423900  1
  V  V0  1  0.74988400  0.24989000  0.25003000  1
  V  V1  1  0.25017100  0.75021600  0.75009500  1
  V  V2  1  0.00027800  0.49867500  0.00098000  1
  V  V3  1  0.49960300  0.00121300  0.49875600  1
  V  V4  1  0.75001900  0.74982000  0.25003900  1
  V  V5  1  0.25012900  0.24990800  0.74985000  1
  Co  Co0  1  0.50020200  0.50279100  0.99916700  1
  Co  Co1  1  0.99970700  0.99702300  0.50090700  1
  O  O0  1  0.02047100  0.51320400  0.76529600  1
  O  O1  1  0.51504900  0.99016500  0.26727400  1
  O  O2  1  0.98489700  0.50966900  0.23277800  1
  O  O3  1  0.47957600  0.98725800  0.73467600  1
  O  O4  1  0.02661600  0.99245000  0.73703900  1
  O  O5  1  0.53086900  0.50981400  0.23896500  1
  O  O6  1  0.24981000  0.21732300  0.50466400  1
  O  O7  1  0.74817000  0.72255600  0.01087100  1
  O  O8  1  0.24116000  0.77802600  0.51116100  1
  O  O9  1  0.74760400  0.28258100  0.00455700  1
  O  O10  1  0.75249200  0.21736000  0.49559200  1
  O  O11  1  0.25897000  0.72180000  0.98878700  1
  O  O12  1  0.75187900  0.77749400  0.48909600  1
  O  O13  1  0.25031500  0.28277100  0.99519800  1
  O  O14  1  0.96865900  0.99017200  0.26120200  1
  O  O15  1  0.47369400  0.50801600  0.76296800  1
loop_
_geom_bond_atom_site_label_1
_geom_bond_atom_site_label_2
_geom_bond_distance
_geom_bond_site_symmetry_2
Li0 O2 1.950084 1_455
Li0 O5 2.000280 1_555
Li0 O6 2.002055 1_555
Li0 O8 2.004555 1_555
Li1 O3 1.961716 1_555
Li1 O4 1.983378 1_655
Li1 O7 1.998859 1_556
Li1 O9 2.010589 1_566
Li2 O0 1.960514 1_655
Li2 O15 1.982305 1_555
Li2 O12 2.000151 1_555
Li2 O10 2.010352 1_555
Li3 O1 1.952295 1_555
Li3 O14 2.001708 1_455
Li3 O13 2.003496 1_564
Li3 O11 2.004920 1_554
Co0 O11 1.939764 1_555
Co0 O15 1.951512 1_555
Co0 O7 1.954900 1_556
Co0 O13 1.962856 1_555
Co0 O9 1.970615 1_556
Co0 O5 1.983034 1_556
Co1 O8 1.940638 1_655
Co1 O4 1.951058 1_655
Co1 O12 1.953386 1_555
Co1 O6 1.964901 1_665
Co1 O10 1.970309 1_565
Co1 O14 1.982415 1_555
O0 V2 1.950751 1_556
O0 V1 1.954223 1_555
O0 V5 2.089402 1_555
O1 V3 1.913749 1_565
O1 V4 2.009573 1_555
O1 V0 2.075299 1_565
O2 V2 1.916314 1_655
O2 V4 2.008376 1_555
O2 V0 2.076233 1_555
O3 V3 1.952475 1_565
O3 V1 1.953302 1_555
O3 V5 2.085487 1_565
O4 V1 1.966705 1_555
O4 V5 2.017271 1_565
O5 V4 1.921562 1_555
O5 V0 2.028942 1_555
O6 V3 1.966019 1_555
O6 V5 2.031521 1_555
O7 V4 1.979062 1_555
O7 V2 2.008874 1_655
O8 V1 1.976813 1_555
O8 V3 2.016636 1_565
O9 V2 1.960224 1_655
O9 V0 2.033063 1_555
O10 V3 1.961292 1_555
O10 V0 2.033686 1_555
O11 V1 1.975116 1_555
O11 V2 2.017377 1_556
O12 V4 1.978358 1_555
O12 V3 2.008852 1_565
O13 V2 1.966237 1_556
O13 V5 2.033028 1_555
O14 V4 1.921148 1_555
O14 V0 2.027116 1_565
O15 V1 1.966364 1_555
O15 V5 2.020531 1_555
