# generated using pymatgen
data_Ba2NaO
_symmetry_space_group_name_H-M   'P 1'
_cell_length_a   8.44928166
_cell_length_b   8.44928166
_cell_length_c   7.04248323
_cell_angle_alpha   90.00000000
_cell_angle_beta   90.00000000
_cell_angle_gamma   133.48365414
_symmetry_Int_Tables_number   1
_chemical_formula_structural   Ba2NaO
_chemical_formula_sum   'Ba4 Na2 O2'
_cell_volume   364.79186649
_cell_formula_units_Z   2
loop_
 _symmetry_equiv_pos_site_id
 _symmetry_equiv_pos_as_xyz
  1  'x, y, z'
loop_
 _atom_site_type_symbol
 _atom_site_label
 _atom_site_symmetry_multiplicity
 _atom_site_fract_x
 _atom_site_fract_y
 _atom_site_fract_z
 _atom_site_occupancy
  Ba  Ba0  1  0.91400190  0.08599810  0.80826835  1
  Ba  Ba1  1  0.08599810  0.91400190  0.19173165  1
  Ba  Ba2  1  0.41400190  0.58599810  0.19173165  1
  Ba  Ba3  1  0.58599810  0.41400190  0.80826835  1
  Na  Na0  1  0.75000000  0.25000000  0.31238635  1
  Na  Na1  1  0.25000000  0.75000000  0.68761365  1
  O  O0  1  0.25000000  0.25000000  -0.00000000  1
  O  O1  1  0.75000000  0.75000000  -0.00000000  1
loop_
_geom_bond_atom_site_label_1
_geom_bond_atom_site_label_2
_geom_bond_distance
_geom_bond_site_symmetry_2
Ba0 O1 2.527596 1_546
Ba0 O0 2.527596 1_656
Ba0 Na1 4.282132 1_655
Ba0 Na1 4.282132 1_545
Ba0 Na0 4.321894 1_555
Ba0 Na0 4.368896 1_556
Ba1 O0 2.527596 1_565
Ba1 O1 2.527596 1_455
Ba1 Na0 4.282132 1_455
Ba1 Na0 4.282132 1_565
Ba1 Na1 4.321894 1_555
Ba1 Na1 4.368896 1_554
Ba2 O0 2.527596 1_555
Ba2 O1 2.527596 1_555
Ba2 Na0 4.282132 1_565
Ba2 Na0 4.282132 1_455
Ba2 Na1 4.321894 1_555
Ba2 Na1 4.368896 1_554
Ba3 O1 2.527596 1_556
Ba3 O0 2.527596 1_556
Ba3 Na1 4.282132 1_545
Ba3 Na1 4.282132 1_655
Ba3 Na0 4.321894 1_555
Ba3 Na0 4.368896 1_556
