# generated using pymatgen
data_SmMnGe
_symmetry_space_group_name_H-M   'P 1'
_cell_length_a   4.25292600
_cell_length_b   7.30496400
_cell_length_c   7.88121100
_cell_angle_alpha   90.00000000
_cell_angle_beta   90.00000000
_cell_angle_gamma   90.00000000
_symmetry_Int_Tables_number   1
_chemical_formula_structural   SmMnGe
_chemical_formula_sum   'Sm4 Mn4 Ge4'
_cell_volume   244.84929675
_cell_formula_units_Z   4
loop_
 _symmetry_equiv_pos_site_id
 _symmetry_equiv_pos_as_xyz
  1  'x, y, z'
loop_
 _atom_site_type_symbol
 _atom_site_label
 _atom_site_symmetry_multiplicity
 _atom_site_fract_x
 _atom_site_fract_y
 _atom_site_fract_z
 _atom_site_occupancy
  Sm  Sm0  1  0.25000000  0.51289400  0.68296800  1
  Sm  Sm1  1  0.25000000  0.01289400  0.81703200  1
  Sm  Sm2  1  0.75000000  0.48710600  0.31703200  1
  Sm  Sm3  1  0.75000000  0.98710600  0.18296800  1
  Mn  Mn0  1  0.25000000  0.13286600  0.44500800  1
  Mn  Mn1  1  0.25000000  0.63286600  0.05499200  1
  Mn  Mn2  1  0.75000000  0.86713400  0.55499200  1
  Mn  Mn3  1  0.75000000  0.36713400  0.94500800  1
  Ge  Ge0  1  0.25000000  0.78126100  0.38599200  1
  Ge  Ge1  1  0.25000000  0.28126100  0.11400800  1
  Ge  Ge2  1  0.75000000  0.21873900  0.61400800  1
  Ge  Ge3  1  0.75000000  0.71873900  0.88599200  1
loop_
_geom_bond_atom_site_label_1
_geom_bond_atom_site_label_2
_geom_bond_distance
_geom_bond_site_symmetry_2
Ge0 Mn2 2.586382 1_555
Ge0 Mn2 2.586382 1_455
Ge0 Mn0 2.610236 1_565
Ge0 Mn1 2.824945 1_555
Ge0 Sm0 3.053080 1_555
Ge0 Sm3 3.056660 1_455
Ge0 Sm3 3.056660 1_555
Ge0 Sm2 3.071568 1_555
Ge0 Sm2 3.071568 1_455
Ge1 Mn3 2.586382 1_554
Ge1 Mn3 2.586382 1_454
Ge1 Mn1 2.610236 1_555
Ge1 Mn0 2.824945 1_555
Ge1 Sm1 3.053080 1_554
Ge1 Sm2 3.056660 1_455
Ge1 Sm2 3.056660 1_555
Ge1 Sm3 3.071568 1_545
Ge1 Sm3 3.071568 1_445
Ge2 Mn0 2.586382 1_555
Ge2 Mn0 2.586382 1_655
Ge2 Mn2 2.610236 1_545
Ge2 Mn3 2.824945 1_555
Ge2 Sm2 3.053080 1_555
Ge2 Sm1 3.056660 1_655
Ge2 Sm1 3.056660 1_555
Ge2 Sm0 3.071568 1_555
Ge2 Sm0 3.071568 1_655
Ge3 Mn1 2.586382 1_656
Ge3 Mn1 2.586382 1_556
Ge3 Mn3 2.610236 1_555
Ge3 Mn2 2.824945 1_555
Ge3 Sm3 3.053080 1_556
Ge3 Sm0 3.056660 1_655
Ge3 Sm0 3.056660 1_555
Ge3 Sm1 3.071568 1_665
Ge3 Sm1 3.071568 1_565
