# generated using pymatgen
data_NdTh
_symmetry_space_group_name_H-M   'P 1'
_cell_length_a   12.48291439
_cell_length_b   12.48291439
_cell_length_c   12.48291375
_cell_angle_alpha   33.69920735
_cell_angle_beta   33.69920735
_cell_angle_gamma   33.69922419
_symmetry_Int_Tables_number   1
_chemical_formula_structural   NdTh
_chemical_formula_sum   'Nd8 Th8'
_cell_volume   533.47858883
_cell_formula_units_Z   8
loop_
 _symmetry_equiv_pos_site_id
 _symmetry_equiv_pos_as_xyz
  1  'x, y, z'
loop_
 _atom_site_type_symbol
 _atom_site_label
 _atom_site_symmetry_multiplicity
 _atom_site_fract_x
 _atom_site_fract_y
 _atom_site_fract_z
 _atom_site_occupancy
  Nd  Nd0_0  1  0.00000000  0.00000000  0.00000000  1
  Nd  Nd0_1  1  0.00000000  0.00000000  0.50000000  1
  Nd  Nd0_2  1  0.00000000  0.50000000  0.00000000  1
  Nd  Nd0_3  1  0.00000000  0.50000000  0.50000000  1
  Nd  Nd0_4  1  0.50000000  0.00000000  0.00000000  1
  Nd  Nd0_5  1  0.50000000  0.00000000  0.50000000  1
  Nd  Nd0_6  1  0.50000000  0.50000000  0.00000000  1
  Nd  Nd0_7  1  0.50000000  0.50000000  0.50000000  1
  Th  Th0_0  1  0.25000000  0.25000000  0.25000000  1
  Th  Th0_1  1  0.25000000  0.25000000  0.75000000  1
  Th  Th0_2  1  0.25000000  0.75000000  0.25000000  1
  Th  Th0_3  1  0.25000000  0.75000000  0.75000000  1
  Th  Th0_4  1  0.75000000  0.25000000  0.25000000  1
  Th  Th0_5  1  0.75000000  0.25000000  0.75000000  1
  Th  Th0_6  1  0.75000000  0.75000000  0.25000000  1
  Th  Th0_7  1  0.75000000  0.75000000  0.75000000  1
loop_
_geom_bond_atom_site_label_1
_geom_bond_atom_site_label_2
_geom_bond_distance
_geom_bond_site_symmetry_2
Nd0_0 Th0_6 3.607211 1_445
Nd0_0 Th0_1 3.607211 1_554
Nd0_0 Th0_4 3.607212 1_455
Nd0_0 Th0_3 3.607212 1_544
Nd0_0 Th0_5 3.607212 1_454
Nd0_0 Th0_2 3.607212 1_545
Nd0_0 Nd0_3 3.618304 1_545
Nd0_0 Nd0_5 3.618304 1_554
Nd0_0 Nd0_5 3.618304 1_455
Nd0_0 Nd0_3 3.618304 1_554
Nd0_0 Nd0_6 3.618305 1_455
Nd0_0 Nd0_6 3.618305 1_545
Nd0_1 Th0_7 3.607211 1_445
Nd0_1 Th0_0 3.607211 1_555
Nd0_1 Th0_5 3.607212 1_455
Nd0_1 Th0_2 3.607212 1_545
Nd0_1 Th0_3 3.607212 1_545
Nd0_1 Th0_4 3.607212 1_455
Nd0_1 Nd0_2 3.618304 1_555
Nd0_1 Nd0_4 3.618304 1_555
Nd0_1 Nd0_4 3.618304 1_456
Nd0_1 Nd0_2 3.618304 1_546
Nd0_1 Nd0_7 3.618305 1_455
Nd0_1 Nd0_7 3.618305 1_545
Nd0_2 Th0_3 3.607211 1_554
Nd0_2 Th0_4 3.607211 1_455
Nd0_2 Th0_7 3.607212 1_454
Nd0_2 Th0_0 3.607212 1_555
Nd0_2 Th0_1 3.607212 1_554
Nd0_2 Th0_6 3.607212 1_455
Nd0_2 Nd0_7 3.618304 1_455
Nd0_2 Nd0_7 3.618304 1_554
Nd0_2 Nd0_4 3.618305 1_555
Nd0_2 Nd0_4 3.618305 1_465
Nd0_3 Th0_2 3.607211 1_555
Nd0_3 Th0_5 3.607211 1_455
Nd0_3 Th0_6 3.607212 1_455
Nd0_3 Th0_1 3.607212 1_555
Nd0_3 Th0_0 3.607212 1_555
Nd0_3 Th0_7 3.607212 1_455
Nd0_3 Nd0_6 3.618304 1_555
Nd0_3 Nd0_6 3.618304 1_456
Nd0_3 Nd0_5 3.618305 1_555
Nd0_3 Nd0_5 3.618305 1_465
Nd0_4 Th0_2 3.607211 1_545
Nd0_4 Th0_5 3.607211 1_554
Nd0_4 Th0_7 3.607212 1_544
Nd0_4 Th0_1 3.607212 1_554
Nd0_4 Th0_0 3.607212 1_555
Nd0_4 Th0_6 3.607212 1_545
Nd0_4 Nd0_7 3.618304 1_554
Nd0_4 Nd0_7 3.618304 1_545
Nd0_5 Th0_3 3.607211 1_545
Nd0_5 Th0_4 3.607211 1_555
Nd0_5 Th0_6 3.607212 1_545
Nd0_5 Th0_0 3.607212 1_555
Nd0_5 Th0_1 3.607212 1_555
Nd0_5 Th0_7 3.607212 1_545
Nd0_5 Nd0_6 3.618304 1_555
Nd0_5 Nd0_6 3.618304 1_546
Nd0_6 Th0_0 3.607211 1_555
Nd0_6 Th0_7 3.607211 1_554
Nd0_6 Th0_4 3.607212 1_555
Nd0_6 Th0_3 3.607212 1_554
Nd0_6 Th0_2 3.607212 1_555
Nd0_6 Th0_5 3.607212 1_554
Nd0_7 Th0_1 3.607211 1_555
Nd0_7 Th0_6 3.607211 1_555
Nd0_7 Th0_2 3.607212 1_555
Nd0_7 Th0_5 3.607212 1_555
Nd0_7 Th0_4 3.607212 1_555
Nd0_7 Th0_3 3.607212 1_555
Th0_0 Th0_3 3.618304 1_545
Th0_0 Th0_5 3.618304 1_455
Th0_0 Th0_3 3.618304 1_554
Th0_0 Th0_5 3.618304 1_554
Th0_0 Th0_6 3.618305 1_455
Th0_0 Th0_6 3.618305 1_545
Th0_1 Th0_4 3.618304 1_555
Th0_1 Th0_2 3.618304 1_546
Th0_1 Th0_2 3.618304 1_555
Th0_1 Th0_4 3.618304 1_456
Th0_1 Th0_7 3.618305 1_455
Th0_1 Th0_7 3.618305 1_545
Th0_2 Th0_7 3.618304 1_455
Th0_2 Th0_7 3.618304 1_554
Th0_2 Th0_4 3.618305 1_555
Th0_2 Th0_4 3.618305 1_465
Th0_3 Th0_6 3.618304 1_555
Th0_3 Th0_6 3.618304 1_456
Th0_3 Th0_5 3.618305 1_555
Th0_3 Th0_5 3.618305 1_465
Th0_4 Th0_7 3.618304 1_545
Th0_4 Th0_7 3.618304 1_554
Th0_5 Th0_6 3.618304 1_555
Th0_5 Th0_6 3.618304 1_546
