# generated using pymatgen
data_RbMgCoF6
_symmetry_space_group_name_H-M   'P 1'
_cell_length_a   7.34147505
_cell_length_b   7.34147505
_cell_length_c   7.34147505
_cell_angle_alpha   120.52917821
_cell_angle_beta   119.83951752
_cell_angle_gamma   89.68203906
_symmetry_Int_Tables_number   1
_chemical_formula_structural   RbMgCoF6
_chemical_formula_sum   'Rb2 Mg2 Co2 F12'
_cell_volume   278.99480894
_cell_formula_units_Z   2
loop_
 _symmetry_equiv_pos_site_id
 _symmetry_equiv_pos_as_xyz
  1  'x, y, z'
loop_
 _atom_site_type_symbol
 _atom_site_label
 _atom_site_symmetry_multiplicity
 _atom_site_fract_x
 _atom_site_fract_y
 _atom_site_fract_z
 _atom_site_occupancy
  Rb  Rb0  1  0.36786300  0.61786300  0.75000000  1
  Rb  Rb1  1  0.63213700  0.38213700  0.25000000  1
  Mg  Mg0  1  0.00000000  0.00000000  0.50000000  1
  Mg  Mg1  1  0.00000000  0.50000000  0.00000000  1
  Co  Co0  1  0.00000000  0.00000000  0.00000000  1
  Co  Co1  1  0.50000000  0.00000000  0.50000000  1
  F  F0  1  0.31727500  0.06727500  0.25000000  1
  F  F1  1  0.92962200  0.67962200  0.25000000  1
  F  F2  1  0.32648600  0.68803600  0.25874100  1
  F  F3  1  0.92929400  0.06774500  0.24125900  1
  F  F4  1  0.32648600  0.06774500  0.63845000  1
  F  F5  1  0.92929400  0.68803600  0.86155000  1
  F  F6  1  0.68272500  0.93272500  0.75000000  1
  F  F7  1  0.07037800  0.32037800  0.75000000  1
  F  F8  1  0.67351400  0.31196400  0.74125900  1
  F  F9  1  0.07070600  0.93225500  0.75874100  1
  F  F10  1  0.67351400  0.93225500  0.36155000  1
  F  F11  1  0.07070600  0.31196400  0.13845000  1
loop_
_geom_bond_atom_site_label_1
_geom_bond_atom_site_label_2
_geom_bond_distance
_geom_bond_site_symmetry_2
Co0 F5 1.915997 1_444
Co0 F11 1.915997 1_555
Co0 F9 1.916002 1_544
Co0 F3 1.916002 1_455
Co0 F6 1.968632 1_444
Co0 F0 1.968632 1_555
Co1 F10 1.915997 1_545
Co1 F4 1.915997 1_555
Co1 F2 1.915997 1_545
Co1 F8 1.915997 1_555
Co1 F6 1.968632 1_545
Co1 F0 1.968632 1_555
F0 Rb1 3.278086 1_555
F1 Mg1 1.962578 1_655
F1 Mg0 1.962578 1_665
F1 Rb1 3.097170 1_555
F2 Mg1 2.025035 1_555
F2 Rb1 3.166020 1_555
F3 Mg0 2.025034 1_655
F3 Rb1 3.166015 1_555
F4 Mg0 2.025035 1_555
F4 Rb1 3.166020 1_556
F5 Mg1 2.025036 1_656
F5 Rb1 3.166020 1_555
F6 Rb0 3.278086 1_555
F7 Mg1 1.962578 1_556
F7 Mg0 1.962578 1_555
F7 Rb0 3.097170 1_555
F8 Mg1 2.025035 1_656
F8 Rb0 3.166020 1_555
F9 Mg0 2.025034 1_565
F9 Rb0 3.166015 1_555
F10 Mg0 2.025035 1_665
F10 Rb0 3.166020 1_554
F11 Mg1 2.025036 1_555
F11 Rb0 3.166020 1_555
