# generated using pymatgen
data_Yb3DySb3
_symmetry_space_group_name_H-M   'P 1'
_cell_length_a   8.11747671
_cell_length_b   8.11747671
_cell_length_c   8.17782606
_cell_angle_alpha   70.54136121
_cell_angle_beta   70.54136121
_cell_angle_gamma   109.09372441
_symmetry_Int_Tables_number   1
_chemical_formula_structural   Yb3DySb3
_chemical_formula_sum   'Yb6 Dy2 Sb6'
_cell_volume   416.86287639
_cell_formula_units_Z   2
loop_
 _symmetry_equiv_pos_site_id
 _symmetry_equiv_pos_as_xyz
  1  'x, y, z'
loop_
 _atom_site_type_symbol
 _atom_site_label
 _atom_site_symmetry_multiplicity
 _atom_site_fract_x
 _atom_site_fract_y
 _atom_site_fract_z
 _atom_site_occupancy
  Yb  Yb0  1  0.00091800  0.35904800  0.49523700  1
  Yb  Yb1  1  0.49572000  0.49574500  0.14844000  1
  Yb  Yb2  1  0.64452000  0.14841800  0.35665200  1
  Yb  Yb3  1  0.35904800  0.00091800  0.99523700  1
  Yb  Yb4  1  0.49574500  0.49572000  0.64844000  1
  Yb  Yb5  1  0.14841800  0.64452000  0.85665200  1
  Dy  Dy0  1  0.85517000  0.00032800  0.99950800  1
  Dy  Dy1  1  0.00032800  0.85517000  0.49950800  1
  Sb  Sb0  1  0.63347800  0.87378700  0.75026700  1
  Sb  Sb1  1  0.87378700  0.63347800  0.25026700  1
  Sb  Sb2  1  0.23998400  0.11850100  0.62879000  1
  Sb  Sb3  1  0.75661000  0.37777300  0.87110500  1
  Sb  Sb4  1  0.37777300  0.75661000  0.37110500  1
  Sb  Sb5  1  0.11850100  0.23998400  0.12879000  1
loop_
_geom_bond_atom_site_label_1
_geom_bond_atom_site_label_2
_geom_bond_distance
_geom_bond_site_symmetry_2
Dy0 Sb1 3.086785 1_546
Dy0 Sb5 3.102751 1_656
Dy0 Sb2 3.108278 1_655
Dy0 Sb0 3.328280 1_545
Dy0 Sb3 3.339180 1_555
Dy0 Sb4 3.361387 1_546
Dy1 Sb0 3.086785 1_455
Dy1 Sb2 3.102751 1_565
Dy1 Sb5 3.108278 1_565
Dy1 Sb1 3.328280 1_455
Dy1 Sb4 3.339180 1_555
Dy1 Sb3 3.361387 1_455
Sb0 Yb1 3.153084 1_556
Sb0 Yb3 3.154195 1_565
Sb0 Yb2 3.199268 1_565
Sb0 Yb4 3.382316 1_555
Sb0 Yb0 3.384961 1_665
Sb0 Yb5 3.401312 1_555
Sb1 Yb4 3.153084 1_555
Sb1 Yb0 3.154195 1_655
Sb1 Yb5 3.199268 1_654
Sb1 Yb1 3.382316 1_555
Sb1 Yb3 3.384961 1_664
Sb1 Yb2 3.401312 1_555
Sb2 Yb2 3.169285 1_555
Sb2 Yb4 3.178587 1_555
Sb2 Yb0 3.352898 1_555
Sb2 Yb5 3.355262 1_545
Sb2 Yb3 3.384247 1_555
Sb2 Yb1 3.392829 1_555
Sb3 Yb0 3.138682 1_655
Sb3 Yb5 3.145091 1_655
Sb3 Yb3 3.176956 1_555
Sb3 Yb1 3.181132 1_556
Sb3 Yb4 3.383837 1_555
Sb3 Yb2 3.408813 1_556
Sb4 Yb3 3.138682 1_564
Sb4 Yb2 3.145091 1_565
Sb4 Yb0 3.176956 1_555
Sb4 Yb4 3.181132 1_555
Sb4 Yb1 3.383837 1_555
Sb4 Yb5 3.408813 1_555
Sb5 Yb5 3.169285 1_554
Sb5 Yb1 3.178587 1_555
Sb5 Yb3 3.352898 1_554
Sb5 Yb2 3.355262 1_455
Sb5 Yb0 3.384247 1_555
Sb5 Yb4 3.392829 1_554
