# generated using pymatgen
data_Tb3GaCo3
_symmetry_space_group_name_H-M   'P 1'
_cell_length_a   5.42605111
_cell_length_b   5.42605111
_cell_length_c   13.03244400
_cell_angle_alpha   90.00000000
_cell_angle_beta   90.00000000
_cell_angle_gamma   136.26153476
_symmetry_Int_Tables_number   1
_chemical_formula_structural   Tb3GaCo3
_chemical_formula_sum   'Tb6 Ga2 Co6'
_cell_volume   265.27887109
_cell_formula_units_Z   2
loop_
 _symmetry_equiv_pos_site_id
 _symmetry_equiv_pos_as_xyz
  1  'x, y, z'
loop_
 _atom_site_type_symbol
 _atom_site_label
 _atom_site_symmetry_multiplicity
 _atom_site_fract_x
 _atom_site_fract_y
 _atom_site_fract_z
 _atom_site_occupancy
  Tb  Tb0  1  0.79215800  0.20784200  0.39541500  1
  Tb  Tb1  1  0.20784200  0.79215800  0.60458500  1
  Tb  Tb2  1  0.79215800  0.20784200  0.10458500  1
  Tb  Tb3  1  0.20784200  0.79215800  0.89541500  1
  Tb  Tb4  1  0.50704600  0.49295400  0.25000000  1
  Tb  Tb5  1  0.49295400  0.50704600  0.75000000  1
  Ga  Ga0  1  0.50000000  0.50000000  0.50000000  1
  Ga  Ga1  1  0.50000000  0.50000000  0.00000000  1
  Co  Co0  1  0.08450000  0.91550000  0.40656900  1
  Co  Co1  1  0.91550000  0.08450000  0.59343100  1
  Co  Co2  1  0.08450000  0.91550000  0.09343100  1
  Co  Co3  1  0.91550000  0.08450000  0.90656900  1
  Co  Co4  1  0.20763800  0.79236200  0.25000000  1
  Co  Co5  1  0.79236200  0.20763800  0.75000000  1
loop_
_geom_bond_atom_site_label_1
_geom_bond_atom_site_label_2
_geom_bond_distance
_geom_bond_site_symmetry_2
Ga0 Tb0 3.213147 1_455
Ga0 Tb1 3.213147 1_545
Ga0 Tb1 3.213147 1_655
Ga0 Tb0 3.213147 1_565
Ga0 Tb0 3.242727 1_555
Ga0 Tb1 3.242727 1_555
Ga0 Tb4 3.258884 1_555
Ga0 Tb5 3.258884 1_555
Ga1 Tb2 3.213147 1_455
Ga1 Tb3 3.213147 1_544
Ga1 Tb3 3.213147 1_654
Ga1 Tb2 3.213147 1_565
Ga1 Tb2 3.242727 1_555
Ga1 Tb3 3.242727 1_554
Ga1 Tb5 3.258884 1_554
Ga1 Tb4 3.258884 1_555
Co0 Co4 2.387780 1_555
Co0 Ga0 2.508364 1_565
Co0 Ga0 2.508364 1_455
Co0 Tb1 2.864038 1_555
Co0 Tb0 2.912032 1_565
Co0 Tb0 2.912032 1_455
Co0 Tb0 2.947805 1_465
Co0 Tb4 2.976081 1_455
Co0 Tb4 2.976081 1_565
Co1 Co5 2.387780 1_555
Co1 Ga0 2.508364 1_655
Co1 Ga0 2.508364 1_545
Co1 Tb0 2.864038 1_555
Co1 Tb1 2.912032 1_655
Co1 Tb1 2.912032 1_545
Co1 Tb1 2.947805 1_645
Co1 Tb5 2.976081 1_545
Co1 Tb5 2.976081 1_655
Co2 Co4 2.387780 1_555
Co2 Ga1 2.508364 1_565
Co2 Ga1 2.508364 1_455
Co2 Tb3 2.864038 1_554
Co2 Tb2 2.912032 1_565
Co2 Tb2 2.912032 1_455
Co2 Tb2 2.947805 1_465
Co2 Tb4 2.976081 1_455
Co2 Tb4 2.976081 1_565
Co3 Co5 2.387780 1_555
Co3 Ga1 2.508364 1_546
Co3 Ga1 2.508364 1_656
Co3 Tb2 2.864038 1_556
Co3 Tb3 2.912032 1_655
Co3 Tb3 2.912032 1_545
Co3 Tb3 2.947805 1_645
Co3 Tb5 2.976081 1_545
Co3 Tb5 2.976081 1_655
Co4 Tb4 2.857658 1_455
Co4 Tb4 2.857658 1_565
Co4 Tb2 2.898457 1_565
Co4 Tb2 2.898457 1_455
Co4 Tb0 2.898457 1_565
Co4 Tb0 2.898457 1_455
Co4 Tb4 3.015382 1_555
Co5 Tb5 2.857658 1_545
Co5 Tb5 2.857658 1_655
Co5 Tb3 2.898457 1_545
Co5 Tb1 2.898457 1_545
Co5 Tb3 2.898457 1_655
Co5 Tb1 2.898457 1_655
Co5 Tb5 3.015382 1_555
