# generated using pymatgen
data_KEr(MoO4)2
_symmetry_space_group_name_H-M   'P 1'
_cell_length_a   7.33521833
_cell_length_b   7.33521833
_cell_length_c   7.65994906
_cell_angle_alpha   61.71478448
_cell_angle_beta   61.71478448
_cell_angle_gamma   87.86513366
_symmetry_Int_Tables_number   1
_chemical_formula_structural   KEr(MoO4)2
_chemical_formula_sum   'K2 Er2 Mo4 O16'
_cell_volume   310.13965382
_cell_formula_units_Z   2
loop_
 _symmetry_equiv_pos_site_id
 _symmetry_equiv_pos_as_xyz
  1  'x, y, z'
loop_
 _atom_site_type_symbol
 _atom_site_label
 _atom_site_symmetry_multiplicity
 _atom_site_fract_x
 _atom_site_fract_y
 _atom_site_fract_z
 _atom_site_occupancy
  K  K0  1  0.19641156  0.80358844  0.75000000  1
  K  K1  1  0.80358844  0.19641156  0.25000000  1
  Er  Er0  1  0.77023036  0.22976964  0.75000000  1
  Er  Er1  1  0.22976964  0.77023036  0.25000000  1
  Mo  Mo0  1  0.69363777  0.70066739  0.75792807  1
  Mo  Mo1  1  0.30636223  0.29933261  0.24207193  1
  Mo  Mo2  1  0.29933261  0.30636223  0.74207193  1
  Mo  Mo3  1  0.70066739  0.69363777  0.25792807  1
  O  O0  1  0.60825872  0.77540516  0.56129924  1
  O  O1  1  0.39174128  0.22459484  0.43870076  1
  O  O2  1  0.22459484  0.39174128  0.93870076  1
  O  O3  1  0.77540516  0.60825872  0.06129924  1
  O  O4  1  0.38541708  0.07058550  0.87779621  1
  O  O5  1  0.61458292  0.92941450  0.12220379  1
  O  O6  1  0.92941450  0.61458292  0.62220379  1
  O  O7  1  0.07058550  0.38541708  0.37779621  1
  O  O8  1  0.58313138  0.36602833  0.96939238  1
  O  O9  1  0.41686862  0.63397167  0.03060762  1
  O  O10  1  0.63397167  0.41686862  0.53060762  1
  O  O11  1  0.36602833  0.58313138  0.46939238  1
  O  O12  1  0.79753702  0.95334537  0.69268445  1
  O  O13  1  0.20246298  0.04665463  0.30731555  1
  O  O14  1  0.04665463  0.20246298  0.80731555  1
  O  O15  1  0.95334537  0.79753702  0.19268445  1
loop_
_geom_bond_atom_site_label_1
_geom_bond_atom_site_label_2
_geom_bond_distance
_geom_bond_site_symmetry_2
K0 O0 2.712323 1_555
K0 O2 2.712323 1_555
K0 O1 2.718188 1_565
K0 O3 2.718188 1_456
K0 O15 2.968635 1_456
K0 O13 2.968635 1_565
K0 O9 3.064777 1_556
K0 O11 3.064777 1_555
K0 O4 3.165672 1_565
K0 O6 3.165672 1_455
K0 O14 3.237408 1_565
K0 O12 3.237408 1_455
K1 O1 2.712323 1_555
K1 O3 2.712323 1_555
K1 O2 2.718188 1_654
K1 O0 2.718188 1_545
K1 O12 2.968635 1_545
K1 O14 2.968635 1_654
K1 O8 3.064777 1_554
K1 O10 3.064777 1_555
K1 O7 3.165672 1_655
K1 O5 3.165672 1_545
K1 O13 3.237408 1_655
K1 O15 3.237408 1_545
Er0 O10 2.238423 1_555
Er0 O8 2.238423 1_555
Er0 O14 2.252604 1_655
Er0 O12 2.252604 1_545
Er0 O7 2.331418 1_655
Er0 O5 2.331418 1_546
Er0 O6 2.613967 1_555
Er0 O4 2.613967 1_555
Er1 O11 2.238423 1_555
Er1 O9 2.238423 1_555
Er1 O13 2.252604 1_565
Er1 O15 2.252604 1_455
Er1 O4 2.331418 1_564
Er1 O6 2.331418 1_455
Er1 O5 2.613967 1_555
Er1 O7 2.613967 1_555
Mo0 O0 1.745606 1_555
Mo0 O12 1.769824 1_555
Mo0 O6 1.818632 1_555
Mo0 O9 1.952034 1_556
Mo0 O8 2.107563 1_555
Mo0 O3 2.452976 1_556
Mo1 O1 1.745606 1_555
Mo1 O13 1.769824 1_555
Mo1 O7 1.818632 1_555
Mo1 O8 1.952034 1_554
Mo1 O9 2.107563 1_555
Mo1 O2 2.452976 1_554
Mo2 O2 1.745606 1_555
Mo2 O14 1.769824 1_555
Mo2 O4 1.818632 1_555
Mo2 O11 1.952034 1_555
Mo2 O10 2.107563 1_555
Mo2 O1 2.452976 1_555
Mo3 O3 1.745606 1_555
Mo3 O15 1.769824 1_555
Mo3 O5 1.818632 1_555
Mo3 O10 1.952034 1_555
Mo3 O11 2.107563 1_555
Mo3 O0 2.452976 1_555
