# generated using pymatgen
data_Ba2B2AsH3F18
_symmetry_space_group_name_H-M   'P 1'
_cell_length_a   7.01552040
_cell_length_b   7.01552040
_cell_length_c   17.89323300
_cell_angle_alpha   90.00000000
_cell_angle_beta   90.00000000
_cell_angle_gamma   120.00000375
_symmetry_Int_Tables_number   1
_chemical_formula_structural   Ba2B2AsH3F18
_chemical_formula_sum   'Ba4 B4 As2 H6 F36'
_cell_volume   762.67448218
_cell_formula_units_Z   2
loop_
 _symmetry_equiv_pos_site_id
 _symmetry_equiv_pos_as_xyz
  1  'x, y, z'
loop_
 _atom_site_type_symbol
 _atom_site_label
 _atom_site_symmetry_multiplicity
 _atom_site_fract_x
 _atom_site_fract_y
 _atom_site_fract_z
 _atom_site_occupancy
  Ba  Ba0  1  0.66666700  0.33333300  0.37673200  1
  Ba  Ba1  1  0.33333300  0.66666700  0.62326800  1
  Ba  Ba2  1  0.33333300  0.66666700  0.87673200  1
  Ba  Ba3  1  0.66666700  0.33333300  0.12326800  1
  B  B0  1  0.66666700  0.33333300  0.60896000  1
  B  B1  1  0.33333300  0.66666700  0.39104000  1
  B  B2  1  0.33333300  0.66666700  0.10896000  1
  B  B3  1  0.66666700  0.33333300  0.89104000  1
  As  As0  1  0.00000000  0.00000000  0.50000000  1
  As  As1  1  0.00000000  0.00000000  0.00000000  1
  H  H0  1  0.88877900  0.11122100  0.25000000  1
  H  H1  1  0.88877900  0.77755800  0.25000000  1
  H  H2  1  0.22244200  0.11122100  0.25000000  1
  H  H3  1  0.11122100  0.88877900  0.75000000  1
  H  H4  1  0.11122100  0.22244200  0.75000000  1
  H  H5  1  0.77755800  0.88877900  0.75000000  1
  F  F0  1  0.80518400  0.19481600  0.25000000  1
  F  F1  1  0.80518400  0.61036700  0.25000000  1
  F  F2  1  0.38963300  0.19481600  0.25000000  1
  F  F3  1  0.19481600  0.80518400  0.75000000  1
  F  F4  1  0.19481600  0.38963300  0.75000000  1
  F  F5  1  0.61036700  0.80518400  0.75000000  1
  F  F6  1  0.44329800  0.88659600  0.36503800  1
  F  F7  1  0.11340400  0.55670200  0.36503800  1
  F  F8  1  0.44329800  0.55670200  0.36503800  1
  F  F9  1  0.55670200  0.11340400  0.63496200  1
  F  F10  1  0.88659600  0.44329800  0.63496200  1
  F  F11  1  0.55670200  0.44329800  0.63496200  1
  F  F12  1  0.55670200  0.11340400  0.86503800  1
  F  F13  1  0.88659600  0.44329800  0.86503800  1
  F  F14  1  0.55670200  0.44329800  0.86503800  1
  F  F15  1  0.44329800  0.88659600  0.13496200  1
  F  F16  1  0.11340400  0.55670200  0.13496200  1
  F  F17  1  0.44329800  0.55670200  0.13496200  1
  F  F18  1  0.76243100  0.88121500  0.55730400  1
  F  F19  1  0.11878500  0.88121500  0.55730400  1
  F  F20  1  0.11878500  0.23756900  0.55730400  1
  F  F21  1  0.23756900  0.11878500  0.44269600  1
  F  F22  1  0.88121500  0.11878500  0.44269600  1
  F  F23  1  0.88121500  0.76243100  0.44269600  1
  F  F24  1  0.23756900  0.11878500  0.05730400  1
  F  F25  1  0.88121500  0.11878500  0.05730400  1
  F  F26  1  0.88121500  0.76243100  0.05730400  1
  F  F27  1  0.76243100  0.88121500  0.94269600  1
  F  F28  1  0.11878500  0.88121500  0.94269600  1
  F  F29  1  0.11878500  0.23756900  0.94269600  1
  F  F30  1  0.00000000  0.00000000  0.75000000  1
  F  F31  1  0.00000000  0.00000000  0.25000000  1
  F  F32  1  0.66666700  0.33333300  0.52931000  1
  F  F33  1  0.33333300  0.66666700  0.47069000  1
  F  F34  1  0.33333300  0.66666700  0.02931000  1
  F  F35  1  0.66666700  0.33333300  0.97069000  1
loop_
_geom_bond_atom_site_label_1
_geom_bond_atom_site_label_2
_geom_bond_distance
_geom_bond_site_symmetry_2
Ba0 F7 2.722257 1_655
Ba0 F6 2.722257 1_545
Ba0 F8 2.722263 1_555
Ba0 F32 2.730114 1_555
Ba0 F1 2.824043 1_555
Ba0 F2 2.824043 1_555
Ba0 F0 2.824043 1_555
Ba0 F22 2.861766 1_555
Ba0 F23 2.861777 1_555
Ba0 F21 2.861777 1_555
Ba1 F9 2.722257 1_565
Ba1 F10 2.722257 1_455
Ba1 F11 2.722263 1_555
Ba1 F33 2.730114 1_555
Ba1 F4 2.824043 1_555
Ba1 F5 2.824043 1_555
Ba1 F3 2.824043 1_555
Ba1 F19 2.861766 1_555
Ba1 F18 2.861777 1_555
Ba1 F20 2.861777 1_555
Ba2 F12 2.722257 1_565
Ba2 F13 2.722257 1_455
Ba2 F14 2.722263 1_555
Ba2 F34 2.730114 1_556
Ba2 F4 2.824043 1_555
Ba2 F5 2.824043 1_555
Ba2 F3 2.824043 1_555
Ba2 F28 2.861766 1_555
Ba2 F27 2.861777 1_555
Ba2 F29 2.861777 1_555
Ba3 F16 2.722257 1_655
Ba3 F15 2.722257 1_545
Ba3 F17 2.722263 1_555
Ba3 F35 2.730114 1_554
Ba3 F1 2.824043 1_555
Ba3 F2 2.824043 1_555
Ba3 F0 2.824043 1_555
Ba3 F25 2.861766 1_555
Ba3 F24 2.861777 1_555
Ba3 F26 2.861777 1_555
B0 F10 1.414889 1_555
B0 F9 1.414889 1_555
B0 F11 1.414894 1_555
B0 F32 1.425196 1_555
B1 F6 1.414889 1_555
B1 F7 1.414889 1_555
B1 F8 1.414894 1_555
B1 F33 1.425196 1_555
B2 F15 1.414889 1_555
B2 F16 1.414889 1_555
B2 F17 1.414894 1_555
B2 F34 1.425196 1_555
B3 F13 1.414889 1_555
B3 F12 1.414889 1_555
B3 F14 1.414894 1_555
B3 F35 1.425196 1_555
As0 F20 1.770506 1_555
As0 F23 1.770506 1_445
As0 F21 1.770506 1_555
As0 F18 1.770506 1_445
As0 F22 1.770511 1_455
As0 F19 1.770511 1_545
As1 F26 1.770506 1_445
As1 F24 1.770506 1_555
As1 F29 1.770506 1_554
As1 F27 1.770506 1_444
As1 F25 1.770511 1_455
As1 F28 1.770511 1_544
F0 H0 1.015783 1_555
F1 H1 1.015789 1_555
F2 H2 1.015789 1_555
F3 H3 1.015783 1_555
F4 H4 1.015789 1_555
F5 H5 1.015789 1_555
F30 H4 1.351473 1_555
F30 H5 1.351473 1_445
F30 H3 1.351473 1_545
F31 H2 1.351473 1_555
F31 H1 1.351473 1_445
F31 H0 1.351473 1_455
