# generated using pymatgen
data_LiNb2Te4Cl10O
_symmetry_space_group_name_H-M   'P 1'
_cell_length_a   7.00045690
_cell_length_b   9.18413109
_cell_length_c   9.40665220
_cell_angle_alpha   81.05909334
_cell_angle_beta   89.66999511
_cell_angle_gamma   74.78845265
_symmetry_Int_Tables_number   1
_chemical_formula_structural   LiNb2Te4Cl10O
_chemical_formula_sum   'Li1 Nb2 Te4 Cl10 O1'
_cell_volume   576.11325749
_cell_formula_units_Z   1
loop_
 _symmetry_equiv_pos_site_id
 _symmetry_equiv_pos_as_xyz
  1  'x, y, z'
loop_
 _atom_site_type_symbol
 _atom_site_label
 _atom_site_symmetry_multiplicity
 _atom_site_fract_x
 _atom_site_fract_y
 _atom_site_fract_z
 _atom_site_occupancy
  Li  Li0  1  0.40629500  0.96606500  0.57427900  1
  Nb  Nb0  1  0.52474200  0.61471400  0.63666100  1
  Nb  Nb1  1  0.48661400  0.36430000  0.35145900  1
  Te  Te0  1  0.18278600  0.90475400  0.16250900  1
  Te  Te1  1  0.08203400  0.18513600  0.98917600  1
  Te  Te2  1  0.91438600  0.81114500  0.01003200  1
  Te  Te3  1  0.81193400  0.09129300  0.83807600  1
  Cl  Cl0  1  0.44878300  0.18358900  0.20005500  1
  Cl  Cl1  1  0.38611700  0.48595300  0.82619300  1
  Cl  Cl2  1  0.80048900  0.20438400  0.42959100  1
  Cl  Cl3  1  0.15790100  0.52301500  0.27986000  1
  Cl  Cl4  1  0.61815100  0.51372300  0.17540000  1
  Cl  Cl5  1  0.32765400  0.22912700  0.54781500  1
  Cl  Cl6  1  0.85238100  0.48037500  0.71860300  1
  Cl  Cl7  1  0.64923800  0.78775300  0.45813100  1
  Cl  Cl8  1  0.19943300  0.79223500  0.57278600  1
  Cl  Cl9  1  0.54565700  0.81833500  0.80107800  1
  O  O0  1  0.50355400  0.49410400  0.49972400  1
loop_
_geom_bond_atom_site_label_1
_geom_bond_atom_site_label_2
_geom_bond_distance
_geom_bond_site_symmetry_2
Nb0 O0 1.854771 1_555
Nb1 O0 1.993307 1_555
Te0 Te1 2.746269 1_564
Te0 Te2 2.754756 1_455
Te1 Te3 2.757745 1_455
Te2 Te3 2.738993 1_564
Cl0 Nb1 2.413033 1_555
Cl1 Nb0 2.333612 1_555
Cl2 Nb1 2.348363 1_555
Cl3 Nb1 2.413734 1_555
Cl4 Nb1 2.326595 1_555
Cl5 Li0 2.306240 1_545
Cl5 Nb1 2.485887 1_555
Cl6 Nb0 2.369984 1_555
Cl7 Li0 2.416851 1_555
Cl7 Nb0 2.446597 1_555
Cl8 Li0 2.422071 1_555
Cl8 Nb0 2.442983 1_555
Cl9 Li0 2.402860 1_555
Cl9 Nb0 2.637417 1_555
