# generated using pymatgen
data_Ba3SnF6
_symmetry_space_group_name_H-M   'P 1'
_cell_length_a   8.57174111
_cell_length_b   8.43751671
_cell_length_c   8.32745783
_cell_angle_alpha   64.60145028
_cell_angle_beta   153.83315783
_cell_angle_gamma   117.34120488
_symmetry_Int_Tables_number   1
_chemical_formula_structural   Ba3SnF6
_chemical_formula_sum   'Ba3 Sn1 F6'
_cell_volume   235.71111860
_cell_formula_units_Z   1
loop_
 _symmetry_equiv_pos_site_id
 _symmetry_equiv_pos_as_xyz
  1  'x, y, z'
loop_
 _atom_site_type_symbol
 _atom_site_label
 _atom_site_symmetry_multiplicity
 _atom_site_fract_x
 _atom_site_fract_y
 _atom_site_fract_z
 _atom_site_occupancy
  Ba  Ba0  1  0.00000000  0.00000000  0.50000000  1
  Ba  Ba1  1  0.50000000  0.50000000  0.00000000  1
  Ba  Ba2  1  0.00000000  0.50000000  0.00000000  1
  Sn  Sn0  1  0.00000000  0.00000000  0.00000000  1
  F  F0  1  0.92067600  0.39598500  0.66590000  1
  F  F1  1  0.07932400  0.60401500  0.33410000  1
  F  F2  1  0.61916200  0.68940500  0.39621800  1
  F  F3  1  0.38083800  0.31059500  0.60378200  1
  F  F4  1  0.50504700  0.84202500  0.91387100  1
  F  F5  1  0.49495300  0.15797500  0.08612900  1
loop_
_geom_bond_atom_site_label_1
_geom_bond_atom_site_label_2
_geom_bond_distance
_geom_bond_site_symmetry_2
Ba0 F4 2.610572 1_444
Ba0 F5 2.610572 1_556
Ba0 F5 2.640787 1_455
Ba0 F4 2.640787 1_545
Ba0 F2 2.700285 1_445
Ba0 F3 2.700285 1_555
Ba1 F1 2.541962 1_655
Ba1 F0 2.541962 1_454
Ba1 F5 2.647612 1_555
Ba1 F4 2.647612 1_554
Ba1 F1 2.713309 1_554
Ba1 F0 2.713309 1_555
Ba2 F2 2.628082 1_555
Ba2 F3 2.628082 1_454
Ba2 F3 2.632038 1_555
Ba2 F2 2.632038 1_454
Ba2 F1 2.669066 1_555
Ba2 F0 2.669066 1_454
