# generated using pymatgen
data_Ca4La2Zr4O15
_symmetry_space_group_name_H-M   'P 1'
_cell_length_a   12.76660150
_cell_length_b   12.76660150
_cell_length_c   12.76660197
_cell_angle_alpha   27.06449384
_cell_angle_beta   27.06449384
_cell_angle_gamma   27.06449231
_symmetry_Int_Tables_number   1
_chemical_formula_structural   Ca4La2Zr4O15
_chemical_formula_sum   'Ca4 La2 Zr4 O15'
_cell_volume   379.97919683
_cell_formula_units_Z   1
loop_
 _symmetry_equiv_pos_site_id
 _symmetry_equiv_pos_as_xyz
  1  'x, y, z'
loop_
 _atom_site_type_symbol
 _atom_site_label
 _atom_site_symmetry_multiplicity
 _atom_site_fract_x
 _atom_site_fract_y
 _atom_site_fract_z
 _atom_site_occupancy
  Ca  Ca0  1  0.61500700  0.61500700  0.61500700  1
  Ca  Ca1  1  0.00000000  0.00000000  0.00000000  1
  Ca  Ca2  1  0.38499300  0.38499300  0.38499300  1
  Ca  Ca3  1  0.50000000  0.50000000  0.50000000  1
  La  La0  1  0.81478100  0.81478100  0.81478100  1
  La  La1  1  0.18521900  0.18521900  0.18521900  1
  Zr  Zr0  1  0.90269800  0.90269800  0.90269800  1
  Zr  Zr1  1  0.29785700  0.29785700  0.29785700  1
  Zr  Zr2  1  0.70214300  0.70214300  0.70214300  1
  Zr  Zr3  1  0.09730200  0.09730200  0.09730200  1
  O  O0  1  0.71518800  0.16231200  0.71518800  1
  O  O1  1  0.28481200  0.83768800  0.28481200  1
  O  O2  1  0.90126300  0.38665000  0.90126300  1
  O  O3  1  0.09873700  0.61335000  0.09873700  1
  O  O4  1  0.50000000  0.00000000  0.50000000  1
  O  O5  1  0.28481200  0.28481200  0.83768800  1
  O  O6  1  0.90126300  0.90126300  0.38665000  1
  O  O7  1  0.50000000  0.50000000  0.00000000  1
  O  O8  1  0.71518800  0.71518800  0.16231200  1
  O  O9  1  0.09873700  0.09873700  0.61335000  1
  O  O10  1  0.16231200  0.71518800  0.71518800  1
  O  O11  1  0.83768800  0.28481200  0.28481200  1
  O  O12  1  0.38665000  0.90126300  0.90126300  1
  O  O13  1  0.61335000  0.09873700  0.09873700  1
  O  O14  1  0.00000000  0.50000000  0.50000000  1
loop_
_geom_bond_atom_site_label_1
_geom_bond_atom_site_label_2
_geom_bond_distance
_geom_bond_site_symmetry_2
Ca0 O14 2.569733 1_655
Ca0 O4 2.569733 1_565
Ca0 O7 2.569734 1_556
Ca0 O9 3.017139 1_655
Ca0 O9 3.017139 1_565
Ca0 O3 3.017139 1_556
Ca0 O13 3.017139 1_556
Ca0 O3 3.017140 1_655
Ca0 O13 3.017140 1_565
Ca1 O12 2.865372 1_544
Ca1 O2 2.865372 1_454
Ca1 O13 2.865372 1_455
Ca1 O3 2.865372 1_545
Ca1 O6 2.865372 1_445
Ca1 O9 2.865372 1_554
Ca1 O7 2.987290 1_545
Ca1 O7 2.987290 1_455
Ca1 O4 2.987290 1_455
Ca1 O14 2.987290 1_545
Ca1 O14 2.987290 1_554
Ca1 O4 2.987290 1_554
Ca2 O14 2.569733 1_555
Ca2 O4 2.569733 1_555
Ca2 O7 2.569734 1_555
Ca2 O6 3.017139 1_455
Ca2 O6 3.017139 1_545
Ca2 O12 3.017139 1_554
Ca2 O2 3.017139 1_554
Ca2 O2 3.017140 1_455
Ca2 O12 3.017140 1_545
Ca3 O10 2.221498 1_555
Ca3 O0 2.221498 1_555
Ca3 O11 2.221498 1_555
Ca3 O1 2.221498 1_555
Ca3 O8 2.221498 1_555
Ca3 O5 2.221498 1_555
La0 O10 2.388226 1_655
La0 O0 2.388226 1_565
La0 O8 2.388226 1_556
La0 O5 3.027268 1_565
La0 O5 3.027268 1_655
La0 O1 3.027269 1_556
La0 O11 3.027269 1_556
La0 O1 3.027269 1_655
La0 O11 3.027269 1_565
La1 O1 2.388226 1_545
La1 O11 2.388226 1_455
La1 O5 2.388226 1_554
La1 O8 3.027268 1_545
La1 O8 3.027268 1_455
La1 O10 3.027269 1_554
La1 O0 3.027269 1_554
La1 O10 3.027269 1_545
La1 O0 3.027269 1_455
O0 Zr0 2.095476 1_545
O1 Zr3 2.095476 1_565
O2 Zr2 2.045863 1_555
O2 Zr3 2.097093 1_656
O3 Zr1 2.045863 1_555
O3 Zr0 2.097093 1_454
O4 Zr2 2.164722 1_545
O4 Zr1 2.164722 1_555
O5 Zr3 2.095476 1_556
O6 Zr2 2.045863 1_555
O6 Zr3 2.097093 1_665
O7 Zr2 2.164722 1_554
O7 Zr1 2.164722 1_555
O8 Zr0 2.095476 1_554
O9 Zr1 2.045863 1_555
O9 Zr0 2.097093 1_445
O10 Zr0 2.095476 1_455
O11 Zr3 2.095476 1_655
O12 Zr2 2.045863 1_555
O12 Zr3 2.097093 1_566
O13 Zr1 2.045863 1_555
O13 Zr0 2.097093 1_544
O14 Zr2 2.164722 1_455
O14 Zr1 2.164722 1_555
