# generated using pymatgen
data_NiH44C12N8(ClO5)2
_symmetry_space_group_name_H-M   'P 1'
_cell_length_a   9.39967700
_cell_length_b   9.44952548
_cell_length_c   9.50482514
_cell_angle_alpha   119.55337449
_cell_angle_beta   93.94874007
_cell_angle_gamma   101.19505858
_symmetry_Int_Tables_number   1
_chemical_formula_structural   NiH44C12N8(ClO5)2
_chemical_formula_sum   'Ni1 H44 C12 N8 Cl2 O10'
_cell_volume   706.89581127
_cell_formula_units_Z   1
loop_
 _symmetry_equiv_pos_site_id
 _symmetry_equiv_pos_as_xyz
  1  'x, y, z'
loop_
 _atom_site_type_symbol
 _atom_site_label
 _atom_site_symmetry_multiplicity
 _atom_site_fract_x
 _atom_site_fract_y
 _atom_site_fract_z
 _atom_site_occupancy
  Ni  Ni0  1  0.00000000  0.00000000  0.00000000  1
  H  H0  1  0.86351100  0.70899100  0.18696500  1
  H  H1  1  0.13648900  0.29100900  0.81303500  1
  H  H2  1  0.80657800  0.83398800  0.22019000  1
  H  H3  1  0.19342200  0.16601200  0.77981000  1
  H  H4  1  0.87634300  0.05811200  0.67925900  1
  H  H5  1  0.12365700  0.94188800  0.32074100  1
  H  H6  1  0.80742100  0.88350200  0.80330400  1
  H  H7  1  0.19257900  0.11649800  0.19669600  1
  H  H8  1  0.79691500  0.23339600  0.85473000  1
  H  H9  1  0.20308500  0.76660400  0.14527000  1
  H  H10  1  0.88110600  0.22002300  0.02919800  1
  H  H11  1  0.11889400  0.77997700  0.97080200  1
  H  H12  1  0.54816600  0.31590500  0.67248300  1
  H  H13  1  0.45183400  0.68409500  0.32751700  1
  H  H14  1  0.66754300  0.46585300  0.62895200  1
  H  H15  1  0.33245700  0.53414700  0.37104800  1
  H  H16  1  0.58843500  0.72258900  0.77731900  1
  H  H17  1  0.41156500  0.27741100  0.22268100  1
  H  H18  1  0.70440800  0.72953700  0.68056800  1
  H  H19  1  0.29559200  0.27046300  0.31943200  1
  H  H20  1  0.98529800  0.82216900  0.62544700  1
  H  H21  1  0.01470200  0.17783100  0.37455300  1
  H  H22  1  0.14373500  0.96253800  0.63009200  1
  H  H23  1  0.85626500  0.03746200  0.36990800  1
  H  H24  1  0.36205000  0.94498100  0.56169600  1
  H  H25  1  0.63795000  0.05501900  0.43830400  1
  H  H26  1  0.36983500  0.79581300  0.49925500  1
  H  H27  1  0.63016500  0.20418700  0.50074500  1
  H  H28  1  0.36145800  0.64924500  0.99080700  1
  H  H29  1  0.63854200  0.35075500  0.00919300  1
  H  H30  1  0.36143600  0.86254100  0.84042800  1
  H  H31  1  0.63856400  0.13745900  0.15957200  1
  H  H32  1  0.99206300  0.62361200  0.54552100  1
  H  H33  1  0.00793700  0.37638800  0.45447900  1
  H  H34  1  0.15712500  0.60967800  0.49213800  1
  H  H35  1  0.84287500  0.39032200  0.50786200  1
  H  H36  1  0.36885500  0.44816500  0.90991700  1
  H  H37  1  0.63114500  0.55183500  0.09008300  1
  H  H38  1  0.37182500  0.51041500  0.69948200  1
  H  H39  1  0.62817500  0.48958500  0.30051800  1
  H  H40  1  0.15097300  0.46625800  0.98211300  1
  H  H41  1  0.84902700  0.53374200  0.01788700  1
  H  H42  1  0.98897900  0.54158800  0.82491800  1
  H  H43  1  0.01102100  0.45841200  0.17508200  1
  C  C0  1  0.10650800  0.83690800  0.65205400  1
  C  C1  1  0.89349200  0.16309200  0.34794600  1
  C  C2  1  0.32620000  0.81984400  0.58084500  1
  C  C3  1  0.67380000  0.18015600  0.41915500  1
  C  C4  1  0.32318900  0.73724400  0.86140800  1
  C  C5  1  0.67681100  0.26275600  0.13859200  1
  C  C6  1  0.11353700  0.63470400  0.57291100  1
  C  C7  1  0.88646300  0.36529600  0.42708900  1
  C  C8  1  0.32937800  0.53593600  0.78082300  1
  C  C9  1  0.67062200  0.46406400  0.21917700  1
  C  C10  1  0.11022700  0.55362800  0.85337500  1
  C  C11  1  0.88977300  0.44637200  0.14662500  1
  N  N0  1  0.16300800  0.80473000  0.54055400  1
  N  N1  1  0.83699200  0.19527000  0.45944600  1
  N  N2  1  0.38422100  0.70347700  0.75406700  1
  N  N3  1  0.61577900  0.29652300  0.24593300  1
  N  N4  1  0.15976100  0.72211600  0.82687800  1
  N  N5  1  0.84023900  0.27788400  0.17312200  1
  N  N6  1  0.16621700  0.51521100  0.74595400  1
  N  N7  1  0.83378300  0.48478900  0.25404600  1
  Cl  Cl0  1  0.68890500  0.73414500  0.44141100  1
  Cl  Cl1  1  0.31109500  0.26585500  0.55858900  1
  O  O0  1  0.84730300  0.82688600  0.13855000  1
  O  O1  1  0.15269700  0.17311400  0.86145000  1
  O  O2  1  0.88365000  0.97501800  0.79782200  1
  O  O3  1  0.11635000  0.02498200  0.20217800  1
  O  O4  1  0.88906100  0.19865100  0.93940100  1
  O  O5  1  0.11093900  0.80134900  0.06059900  1
  O  O6  1  0.65268100  0.34786100  0.70579200  1
  O  O7  1  0.34731900  0.65213900  0.29420800  1
  O  O8  1  0.69733600  0.72808600  0.78277700  1
  O  O9  1  0.30266400  0.27191400  0.21722300  1
loop_
_geom_bond_atom_site_label_1
_geom_bond_atom_site_label_2
_geom_bond_distance
_geom_bond_site_symmetry_2
Ni0 O2 2.026671 1_444
Ni0 O3 2.026671 1_555
H0 O0 1.427605 1_555
H1 O1 1.427605 1_555
H2 O0 0.867578 1_555
H3 O1 0.867578 1_555
H4 O2 1.665644 1_545
H5 O3 1.665644 1_565
H6 O2 1.035839 1_555
H7 O3 1.035839 1_555
H8 O4 1.334447 1_555
H9 O5 1.334447 1_555
H10 O4 0.787060 1_554
H10 N5 1.316797 1_555
H11 O5 0.787060 1_556
H11 N4 1.316797 1_555
H12 O6 0.950897 1_555
H13 O7 0.950897 1_555
H14 O6 1.597796 1_555
H15 O7 1.597796 1_555
H16 O8 1.011236 1_555
H17 O9 1.011236 1_555
H18 O8 0.984915 1_555
H19 O9 0.984915 1_555
H22 N0 1.361992 1_555
H23 N1 1.361992 1_555
H24 H26 1.251101 1_555
H25 H27 1.251101 1_555
H30 N2 1.382395 1_555
H31 N3 1.382395 1_555
H38 N2 1.608234 1_555
H39 N3 1.608234 1_555
C0 H20 1.115971 1_455
C0 N0 1.148909 1_555
C0 H22 1.291722 1_555
C1 H21 1.115971 1_655
C1 N1 1.148909 1_555
C1 H23 1.291722 1_555
C2 H26 0.852905 1_555
C2 H24 1.269245 1_555
C2 N0 1.516619 1_555
C3 H27 0.852905 1_555
C3 H25 1.269245 1_555
C3 N1 1.516619 1_555
C4 N2 1.141227 1_555
C4 H30 1.283885 1_555
C4 N4 1.512276 1_555
C5 N3 1.141227 1_555
C5 H31 1.283885 1_555
C5 N5 1.512276 1_555
C6 H34 0.845606 1_555
C6 H32 1.126133 1_455
C7 H35 0.845606 1_555
C7 H33 1.126133 1_655
C8 H38 0.843211 1_555
C8 N6 1.499883 1_555
C8 H28 1.704254 1_555
C9 H39 0.843211 1_555
C9 N7 1.499883 1_555
C9 H29 1.704254 1_555
C10 N6 1.110765 1_555
C10 H42 1.123316 1_455
C11 N7 1.110765 1_555
C11 H43 1.123316 1_655
Cl0 H39 1.946638 1_555
Cl1 H38 1.946638 1_555
