# generated using pymatgen
data_KSr4Si8H17O29
_symmetry_space_group_name_H-M   'P 1'
_cell_length_a   9.25827700
_cell_length_b   9.25827700
_cell_length_c   16.47701700
_cell_angle_alpha   90.00000000
_cell_angle_beta   90.00000000
_cell_angle_gamma   90.00000000
_symmetry_Int_Tables_number   1
_chemical_formula_structural   KSr4Si8H17O29
_chemical_formula_sum   'K2 Sr8 Si16 H34 O58'
_cell_volume   1412.33893087
_cell_formula_units_Z   2
loop_
 _symmetry_equiv_pos_site_id
 _symmetry_equiv_pos_as_xyz
  1  'x, y, z'
loop_
 _atom_site_type_symbol
 _atom_site_label
 _atom_site_symmetry_multiplicity
 _atom_site_fract_x
 _atom_site_fract_y
 _atom_site_fract_z
 _atom_site_occupancy
  K  K0  1  0.00000000  0.00000000  0.50040700  1
  K  K1  1  0.50000000  0.50000000  0.00040700  1
  Sr  Sr0  1  0.39149600  0.23920600  0.50183800  1
  Sr  Sr1  1  0.60850400  0.76079400  0.50183800  1
  Sr  Sr2  1  0.10850400  0.73920600  0.00183800  1
  Sr  Sr3  1  0.89149600  0.26079400  0.00183800  1
  Sr  Sr4  1  0.23920600  0.60850400  0.50183800  1
  Sr  Sr5  1  0.76079400  0.39149600  0.50183800  1
  Sr  Sr6  1  0.73920600  0.89149600  0.00183800  1
  Sr  Sr7  1  0.26079400  0.10850400  0.00183800  1
  Si  Si0  1  0.59354500  0.28129000  0.30766400  1
  Si  Si1  1  0.40645500  0.71871000  0.30766400  1
  Si  Si2  1  0.90645500  0.78129000  0.80766400  1
  Si  Si3  1  0.09354500  0.21871000  0.80766400  1
  Si  Si4  1  0.28129000  0.40645500  0.30766400  1
  Si  Si5  1  0.71871000  0.59354500  0.30766400  1
  Si  Si6  1  0.78129000  0.09354500  0.80766400  1
  Si  Si7  1  0.21871000  0.90645500  0.80766400  1
  Si  Si8  1  0.40673200  0.71912300  0.69207700  1
  Si  Si9  1  0.59326800  0.28087700  0.69207700  1
  Si  Si10  1  0.09326800  0.21912300  0.19207700  1
  Si  Si11  1  0.90673200  0.78087700  0.19207700  1
  Si  Si12  1  0.71912300  0.59326800  0.69207700  1
  Si  Si13  1  0.28087700  0.40673200  0.69207700  1
  Si  Si14  1  0.21912300  0.90673200  0.19207700  1
  Si  Si15  1  0.78087700  0.09326800  0.19207700  1
  H  H0  1  0.67195600  0.07443300  0.40995800  1
  H  H1  1  0.32804400  0.92556700  0.40995800  1
  H  H2  1  0.82804400  0.57443300  0.90995800  1
  H  H3  1  0.17195600  0.42556700  0.90995800  1
  H  H4  1  0.07443300  0.32804400  0.40995800  1
  H  H5  1  0.92556700  0.67195600  0.40995800  1
  H  H6  1  0.57443300  0.17195600  0.90995800  1
  H  H7  1  0.42556700  0.82804400  0.90995800  1
  H  H8  1  0.32715900  0.92592100  0.59057100  1
  H  H9  1  0.67284100  0.07407900  0.59057100  1
  H  H10  1  0.17284100  0.42592100  0.09057100  1
  H  H11  1  0.82715900  0.57407900  0.09057100  1
  H  H12  1  0.92592100  0.67284100  0.59057100  1
  H  H13  1  0.07407900  0.32715900  0.59057100  1
  H  H14  1  0.42592100  0.82715900  0.09057100  1
  H  H15  1  0.57407900  0.17284100  0.09057100  1
  H  H16  1  0.26684500  0.04831800  0.64664300  1
  H  H17  1  0.73315500  0.95168200  0.64664300  1
  H  H18  1  0.23315500  0.54831800  0.14664300  1
  H  H19  1  0.76684500  0.45168200  0.14664300  1
  H  H20  1  0.04831800  0.73315500  0.64664300  1
  H  H21  1  0.95168200  0.26684500  0.64664300  1
  H  H22  1  0.54831800  0.76684500  0.14664300  1
  H  H23  1  0.45168200  0.23315500  0.14664300  1
  H  H24  1  0.73161300  0.95172400  0.35416200  1
  H  H25  1  0.26838700  0.04827600  0.35416200  1
  H  H26  1  0.76838700  0.45172400  0.85416200  1
  H  H27  1  0.23161300  0.54827600  0.85416200  1
  H  H28  1  0.95172400  0.26838700  0.35416200  1
  H  H29  1  0.04827600  0.73161300  0.35416200  1
  H  H30  1  0.45172400  0.23161300  0.85416200  1
  H  H31  1  0.54827600  0.76838700  0.85416200  1
  H  H32  1  0.50000000  0.50000000  0.43799000  1
  H  H33  1  0.00000000  0.00000000  0.93799000  1
  O  O0  1  0.28191700  0.02610200  0.58936500  1
  O  O1  1  0.71808300  0.97389800  0.58936500  1
  O  O2  1  0.21808300  0.52610200  0.08936500  1
  O  O3  1  0.78191700  0.47389800  0.08936500  1
  O  O4  1  0.02610200  0.71808300  0.58936500  1
  O  O5  1  0.97389800  0.28191700  0.58936500  1
  O  O6  1  0.52610200  0.78191700  0.08936500  1
  O  O7  1  0.47389800  0.21808300  0.08936500  1
  O  O8  1  0.71697500  0.97433200  0.41137300  1
  O  O9  1  0.28302500  0.02566800  0.41137300  1
  O  O10  1  0.78302500  0.47433100  0.91137300  1
  O  O11  1  0.21697500  0.52566800  0.91137300  1
  O  O12  1  0.97433200  0.28302500  0.41137300  1
  O  O13  1  0.02566800  0.71697500  0.41137300  1
  O  O14  1  0.47433100  0.21697500  0.91137300  1
  O  O15  1  0.52566800  0.78302500  0.91137300  1
  O  O16  1  0.42420300  0.31103800  0.28053600  1
  O  O17  1  0.57579700  0.68896200  0.28053600  1
  O  O18  1  0.07579700  0.81103800  0.78053600  1
  O  O19  1  0.92420300  0.18896200  0.78053600  1
  O  O20  1  0.31103800  0.57579700  0.28053600  1
  O  O21  1  0.68896200  0.42420300  0.28053600  1
  O  O22  1  0.81103800  0.92420300  0.78053600  1
  O  O23  1  0.18896200  0.07579700  0.78053600  1
  O  O24  1  0.57619400  0.68906200  0.71852400  1
  O  O25  1  0.42380600  0.31093800  0.71852400  1
  O  O26  1  0.92380600  0.18906200  0.21852400  1
  O  O27  1  0.07619400  0.81093800  0.21852400  1
  O  O28  1  0.68906200  0.42380600  0.71852400  1
  O  O29  1  0.31093800  0.57619400  0.71852400  1
  O  O30  1  0.18906200  0.07619400  0.21852400  1
  O  O31  1  0.81093800  0.92380600  0.21852400  1
  O  O32  1  0.64843700  0.14753000  0.25050300  1
  O  O33  1  0.35156300  0.85247000  0.25050300  1
  O  O34  1  0.85156300  0.64753000  0.75050300  1
  O  O35  1  0.14843700  0.35247000  0.75050300  1
  O  O36  1  0.14753000  0.35156300  0.25050300  1
  O  O37  1  0.85247000  0.64843700  0.25050300  1
  O  O38  1  0.64753000  0.14843700  0.75050300  1
  O  O39  1  0.35247000  0.85156300  0.75050300  1
  O  O40  1  0.60738300  0.24168400  0.40272800  1
  O  O41  1  0.39261700  0.75831600  0.40272800  1
  O  O42  1  0.89261700  0.74168400  0.90272800  1
  O  O43  1  0.10738300  0.25831600  0.90272800  1
  O  O44  1  0.24168400  0.39261700  0.40272800  1
  O  O45  1  0.75831600  0.60738300  0.40272800  1
  O  O46  1  0.74168400  0.10738300  0.90272800  1
  O  O47  1  0.25831600  0.89261700  0.90272800  1
  O  O48  1  0.39167900  0.76158000  0.59769200  1
  O  O49  1  0.60832100  0.23842000  0.59769200  1
  O  O50  1  0.10832100  0.26158000  0.09769200  1
  O  O51  1  0.89167900  0.73842000  0.09769200  1
  O  O52  1  0.76158000  0.60832100  0.59769200  1
  O  O53  1  0.23842000  0.39167900  0.59769200  1
  O  O54  1  0.26158000  0.89167900  0.09769200  1
  O  O55  1  0.73842000  0.10832100  0.09769200  1
  O  O56  1  0.50000000  0.50000000  0.49706000  1
  O  O57  1  0.00000000  0.00000000  0.99706000  1
loop_
_geom_bond_atom_site_label_1
_geom_bond_atom_site_label_2
_geom_bond_distance
_geom_bond_site_symmetry_2
K0 O0 3.003215 1_555
K0 O5 3.003215 1_455
K0 O4 3.003215 1_545
K0 O1 3.003215 1_445
K0 O12 3.012425 1_455
K0 O9 3.012425 1_555
K0 O8 3.012425 1_445
K0 O13 3.012425 1_545
K1 O7 3.003215 1_555
K1 O2 3.003215 1_555
K1 O6 3.003215 1_555
K1 O3 3.003215 1_555
K1 O11 3.012425 1_554
K1 O15 3.012425 1_554
K1 O10 3.012425 1_554
K1 O14 3.012425 1_554
H0 O8 1.016442 1_545
H0 O40 1.664126 1_555
H1 O9 1.016442 1_565
H1 O41 1.664126 1_555
H2 O10 1.016450 1_555
H2 O42 1.664126 1_555
H3 O11 1.016442 1_555
H3 O43 1.664126 1_555
H4 O12 1.016442 1_455
H4 O44 1.664126 1_555
H5 O13 1.016442 1_655
H5 O45 1.664126 1_555
H6 O14 1.016450 1_555
H6 O46 1.664126 1_555
H7 O15 1.016442 1_555
H7 O47 1.664126 1_555
H8 O0 1.017892 1_565
H8 O48 1.638778 1_555
H9 O1 1.017892 1_545
H9 O49 1.638778 1_555
H10 O2 1.017892 1_555
H10 O50 1.638778 1_555
H11 O3 1.017892 1_555
H11 O51 1.638778 1_555
H12 O4 1.017892 1_655
H12 O52 1.638778 1_555
H13 O5 1.017892 1_455
H13 O53 1.638778 1_555
H14 O6 1.017892 1_555
H14 O54 1.638778 1_555
H15 O7 1.017892 1_555
H15 O55 1.638778 1_555
H16 O0 0.975951 1_555
H17 O1 0.975951 1_555
H18 O2 0.975951 1_555
H19 O3 0.975951 1_555
H20 O4 0.975951 1_555
H21 O5 0.975951 1_555
H22 O6 0.975951 1_555
H23 O7 0.975951 1_555
H24 O8 0.975089 1_555
H25 O9 0.975089 1_555
H26 O10 0.975087 1_555
H27 O11 0.975089 1_555
H28 O12 0.975089 1_555
H29 O13 0.975089 1_555
H30 O14 0.975087 1_555
H31 O15 0.975089 1_555
H32 O56 0.973297 1_555
H33 O57 0.973297 1_555
O0 Sr0 2.646085 1_555
O1 Sr1 2.646085 1_555
O2 Sr2 2.646085 1_555
O3 Sr3 2.646085 1_555
O4 Sr4 2.646085 1_555
O5 Sr5 2.646085 1_555
O6 Sr6 2.646085 1_555
O7 Sr7 2.646085 1_555
O8 Sr1 2.671872 1_555
O9 Sr0 2.671872 1_555
O10 Sr3 2.671865 1_556
O11 Sr2 2.671872 1_556
O12 Sr5 2.671872 1_555
O13 Sr4 2.671872 1_555
O14 Sr7 2.671865 1_556
O15 Sr6 2.671872 1_556
O16 Si4 1.652531 1_555
O16 Si0 1.653389 1_555
O17 Si5 1.652531 1_555
O17 Si1 1.653389 1_555
O18 Si7 1.652531 1_555
O18 Si2 1.653389 1_455
O19 Si6 1.652531 1_555
O19 Si3 1.653389 1_655
O20 Si1 1.652531 1_555
O20 Si4 1.653389 1_555
O21 Si0 1.652531 1_555
O21 Si5 1.653389 1_555
O22 Si2 1.652531 1_555
O22 Si6 1.653389 1_565
O23 Si3 1.652531 1_555
O23 Si7 1.653389 1_545
O24 Si12 1.651521 1_555
O24 Si8 1.651932 1_555
O25 Si13 1.651521 1_555
O25 Si9 1.651932 1_555
O26 Si15 1.651521 1_555
O26 Si10 1.651932 1_655
O27 Si14 1.651521 1_555
O27 Si11 1.651932 1_455
O28 Si9 1.651521 1_555
O28 Si12 1.651932 1_555
O29 Si8 1.651521 1_555
O29 Si13 1.651932 1_555
O30 Si10 1.651521 1_555
O30 Si14 1.651932 1_545
O31 Si11 1.651521 1_555
O31 Si15 1.651932 1_565
O32 Si0 1.636748 1_555
O32 Si15 1.637873 1_555
O33 Si1 1.636748 1_555
O33 Si14 1.637873 1_555
O34 Si2 1.636748 1_555
O34 Si12 1.637873 1_555
O35 Si3 1.636748 1_555
O35 Si13 1.637873 1_555
O36 Si4 1.636748 1_555
O36 Si10 1.637873 1_555
O37 Si5 1.636748 1_555
O37 Si11 1.637873 1_555
O38 Si6 1.636748 1_555
O38 Si9 1.637873 1_555
O39 Si7 1.636748 1_555
O39 Si8 1.637873 1_555
O40 Si0 1.613812 1_555
O40 Sr5 2.570583 1_555
O40 Sr0 2.581144 1_555
O41 Si1 1.613812 1_555
O41 Sr4 2.570583 1_555
O41 Sr1 2.581144 1_555
O42 Si2 1.613812 1_555
O42 Sr6 2.570583 1_556
O42 Sr2 2.581144 1_656
O43 Si3 1.613812 1_555
O43 Sr7 2.570583 1_556
O43 Sr3 2.581144 1_456
O44 Si4 1.613812 1_555
O44 Sr0 2.570583 1_555
O44 Sr4 2.581144 1_555
O45 Si5 1.613812 1_555
O45 Sr1 2.570583 1_555
O45 Sr5 2.581144 1_555
O46 Si6 1.613812 1_555
O46 Sr3 2.570583 1_556
O46 Sr6 2.581144 1_546
O47 Si7 1.613812 1_555
O47 Sr2 2.570583 1_556
O47 Sr7 2.581144 1_566
O48 Si8 1.610133 1_555
O48 Sr4 2.548666 1_555
O48 Sr1 2.554267 1_555
O49 Si9 1.610133 1_555
O49 Sr5 2.548666 1_555
O49 Sr0 2.554267 1_555
O50 Si10 1.610133 1_555
O50 Sr7 2.548666 1_555
O50 Sr3 2.554267 1_455
O51 Si11 1.610133 1_555
O51 Sr6 2.548666 1_555
O51 Sr2 2.554267 1_655
O52 Si12 1.610133 1_555
O52 Sr1 2.548666 1_555
O52 Sr5 2.554267 1_555
O53 Si13 1.610133 1_555
O53 Sr0 2.548666 1_555
O53 Sr4 2.554267 1_555
O54 Si14 1.610133 1_555
O54 Sr2 2.548666 1_555
O54 Sr7 2.554267 1_565
O55 Si15 1.610133 1_555
O55 Sr3 2.548666 1_555
O55 Sr6 2.554267 1_545
O56 Sr1 2.616326 1_555
O56 Sr4 2.616326 1_555
O56 Sr0 2.616326 1_555
O56 Sr5 2.616326 1_555
O57 Sr7 2.616326 1_556
O57 Sr3 2.616326 1_456
O57 Sr2 2.616326 1_546
O57 Sr6 2.616326 1_446
