# generated using pymatgen
data_Ba2HgGe
_symmetry_space_group_name_H-M   'P 1'
_cell_length_a   12.92553378
_cell_length_b   13.10607631
_cell_length_c   13.10607687
_cell_angle_alpha   60.53900934
_cell_angle_beta   60.45465339
_cell_angle_gamma   60.45465073
_symmetry_Int_Tables_number   1
_chemical_formula_structural   Ba2HgGe
_chemical_formula_sum   'Ba2 Hg1 Ge1'
_cell_volume   1587.05340247
_cell_formula_units_Z   1
loop_
 _symmetry_equiv_pos_site_id
 _symmetry_equiv_pos_as_xyz
  1  'x, y, z'
loop_
 _atom_site_type_symbol
 _atom_site_label
 _atom_site_symmetry_multiplicity
 _atom_site_fract_x
 _atom_site_fract_y
 _atom_site_fract_z
 _atom_site_occupancy
  Ba  Ba0  1  0.77913887  0.00000000  0.00000000  1
  Ba  Ba1  1  0.22086113  1.00000000  1.00000000  1
  Hg  Hg0  1  0.50000000  -0.00000000  -0.00000000  1
  Ge  Ge0  1  -0.00000000  -0.00000000  -0.00000000  1
loop_
_geom_bond_atom_site_label_1
_geom_bond_atom_site_label_2
_geom_bond_distance
_geom_bond_site_symmetry_2
Ba0 Ge0 2.854748 1_655
Ba0 Hg0 3.608019 1_555
Ba1 Ge0 2.854748 1_566
Ba1 Hg0 3.608019 1_566
