# generated using pymatgen
data_NaOsO3
_symmetry_space_group_name_H-M   'P 1'
_cell_length_a   5.40018132
_cell_length_b   7.56373322
_cell_length_c   5.30133582
_cell_angle_alpha   89.99944685
_cell_angle_beta   90.00159102
_cell_angle_gamma   89.99043966
_symmetry_Int_Tables_number   1
_chemical_formula_structural   NaOsO3
_chemical_formula_sum   'Na4 Os4 O12'
_cell_volume   216.53587254
_cell_formula_units_Z   4
loop_
 _symmetry_equiv_pos_site_id
 _symmetry_equiv_pos_as_xyz
  1  'x, y, z'
loop_
 _atom_site_type_symbol
 _atom_site_label
 _atom_site_symmetry_multiplicity
 _atom_site_fract_x
 _atom_site_fract_y
 _atom_site_fract_z
 _atom_site_occupancy
  Na  Na0  1  0.04256471  0.24956802  0.98876652  1
  Na  Na1  1  0.95743490  0.75043152  0.01122857  1
  Na  Na2  1  0.54255385  0.24965996  0.51123124  1
  Na  Na3  1  0.45744350  0.75034111  0.48877490  1
  Os  Os0  1  0.00000859  -0.00002508  0.50000873  1
  Os  Os1  1  -0.00000055  0.50002412  0.50000092  1
  Os  Os2  1  0.50000172  0.50002277  -0.00002042  1
  Os  Os3  1  0.49999645  -0.00002520  -0.00001304  1
  O  O0  1  0.47688321  0.25006620  0.08740560  1
  O  O1  1  0.52311691  0.74993436  0.91259618  1
  O  O2  1  0.97688113  0.25008303  0.41260220  1
  O  O3  1  0.02311644  0.74991932  0.58739782  1
  O  O4  1  0.29304515  0.04496314  0.70458726  1
  O  O5  1  0.70684558  0.54510711  0.29568745  1
  O  O6  1  0.70695520  0.95502351  0.29541256  1
  O  O7  1  0.29316652  0.45490493  0.70432593  1
  O  O8  1  0.79319957  0.45489149  0.79564918  1
  O  O9  1  0.20696111  0.95504167  0.20458919  1
  O  O10  1  0.20678995  0.54512090  0.20435984  1
  O  O11  1  0.79303705  0.04494612  0.79541037  1
loop_
_geom_bond_atom_site_label_1
_geom_bond_atom_site_label_2
_geom_bond_distance
_geom_bond_site_symmetry_2
Na0 O2 2.274733 1_456
Na0 O11 2.294015 1_455
Na0 O8 2.296202 1_455
Na0 O0 2.402975 1_556
Na0 O4 2.548278 1_555
Na0 O7 2.553066 1_555
Na0 O9 2.656911 1_546
Na0 O10 2.662861 1_556
Na1 O3 2.274706 1_654
Na1 O9 2.293961 1_655
Na1 O10 2.296137 1_655
Na1 O1 2.402964 1_554
Na1 O6 2.548231 1_555
Na1 O5 2.553030 1_555
Na1 O11 2.656829 1_564
Na1 O8 2.662766 1_554
Na2 O0 2.274649 1_555
Na2 O4 2.294357 1_555
Na2 O7 2.295864 1_555
Na2 O2 2.403037 1_555
Na2 O11 2.548724 1_555
Na2 O8 2.552609 1_555
Na2 O6 2.657649 1_545
Na2 O5 2.662200 1_555
Na3 O1 2.274629 1_555
Na3 O6 2.294307 1_555
Na3 O5 2.295837 1_555
Na3 O3 2.403029 1_555
Na3 O9 2.548681 1_555
Na3 O10 2.552571 1_555
Na3 O4 2.657538 1_565
Na3 O7 2.662120 1_555
O0 Os2 1.950602 1_555
O0 Os3 1.951547 1_555
O1 Os2 1.950217 1_556
O1 Os3 1.951141 1_566
O2 Os1 1.950461 1_655
O2 Os0 1.951649 1_655
O3 Os1 1.950121 1_555
O3 Os0 1.951235 1_565
O4 Os0 1.948399 1_555
O4 Os3 1.953695 1_556
O5 Os1 1.948161 1_655
O5 Os2 1.954870 1_555
O6 Os0 1.948476 1_665
O6 Os3 1.953780 1_565
O7 Os1 1.948301 1_555
O7 Os2 1.954657 1_556
O8 Os2 1.948520 1_556
O8 Os1 1.954589 1_655
O9 Os3 1.948436 1_565
O9 Os0 1.953766 1_565
O10 Os2 1.948684 1_555
O10 Os1 1.954483 1_555
O11 Os3 1.948433 1_556
O11 Os0 1.953799 1_655
