# generated using pymatgen
data_Eu2Mn3Sb3O14
_symmetry_space_group_name_H-M   'P 1'
_cell_length_a   7.24492397
_cell_length_b   7.24492397
_cell_length_c   7.35185874
_cell_angle_alpha   60.51661028
_cell_angle_beta   60.51661028
_cell_angle_gamma   60.29591012
_symmetry_Int_Tables_number   1
_chemical_formula_structural   Eu2Mn3Sb3O14
_chemical_formula_sum   'Eu2 Mn3 Sb3 O14'
_cell_volume   275.59671455
_cell_formula_units_Z   1
loop_
 _symmetry_equiv_pos_site_id
 _symmetry_equiv_pos_as_xyz
  1  'x, y, z'
loop_
 _atom_site_type_symbol
 _atom_site_label
 _atom_site_symmetry_multiplicity
 _atom_site_fract_x
 _atom_site_fract_y
 _atom_site_fract_z
 _atom_site_occupancy
  Eu  Eu0  1  0.00000000  0.00000000  0.00000000  1
  Eu  Eu1  1  0.00000000  0.00000000  0.50000000  1
  Mn  Mn0  1  0.50000000  0.00000000  0.00000000  1
  Mn  Mn1  1  0.00000000  0.50000000  0.00000000  1
  Mn  Mn2  1  0.50000000  0.50000000  0.50000000  1
  Sb  Sb0  1  0.50000000  0.50000000  0.00000000  1
  Sb  Sb1  1  0.00000000  0.50000000  0.50000000  1
  Sb  Sb2  1  0.50000000  0.00000000  0.50000000  1
  O  O0  1  0.86031500  0.86031500  0.88910100  1
  O  O1  1  0.13968500  0.13968500  0.11089900  1
  O  O2  1  0.57475800  0.57475800  0.17397500  1
  O  O3  1  0.16982300  0.16982300  0.57900000  1
  O  O4  1  0.17827800  0.57425000  0.57238700  1
  O  O5  1  0.57669900  0.16966900  0.17466100  1
  O  O6  1  0.16966900  0.57669900  0.17466100  1
  O  O7  1  0.57425000  0.17827800  0.57238700  1
  O  O8  1  0.42524200  0.42524200  0.82602500  1
  O  O9  1  0.83017700  0.83017700  0.42100000  1
  O  O10  1  0.82172200  0.42575000  0.42761300  1
  O  O11  1  0.42330100  0.83033100  0.82533900  1
  O  O12  1  0.83033200  0.42330100  0.82533900  1
  O  O13  1  0.42575000  0.82172200  0.42761300  1
loop_
_geom_bond_atom_site_label_1
_geom_bond_atom_site_label_2
_geom_bond_distance
_geom_bond_site_symmetry_2
Eu0 O0 2.313527 1_444
Eu0 O1 2.313527 1_555
Eu0 O12 2.550765 1_454
Eu0 O11 2.550766 1_544
Eu0 O5 2.550766 1_455
Eu0 O6 2.550766 1_545
Eu0 O9 2.571115 1_445
Eu0 O3 2.571115 1_554
Eu1 O0 2.355239 1_445
Eu1 O1 2.355239 1_555
Eu1 O9 2.504372 1_445
Eu1 O3 2.504372 1_555
Eu1 O7 2.564809 1_455
Eu1 O4 2.564809 1_545
Eu1 O13 2.564809 1_545
Eu1 O10 2.564809 1_455
Mn0 O1 2.145322 1_555
Mn0 O0 2.145322 1_544
Mn0 O11 2.530161 1_544
Mn0 O5 2.530161 1_555
Mn0 O8 2.563258 1_554
Mn0 O2 2.563258 1_545
Mn0 O13 2.620648 1_545
Mn0 O7 2.620648 1_554
Mn1 O1 2.145322 1_555
Mn1 O0 2.145322 1_454
Mn1 O12 2.530155 1_454
Mn1 O6 2.530161 1_555
Mn1 O2 2.563258 1_455
Mn1 O8 2.563258 1_554
Mn1 O10 2.620648 1_455
Mn1 O4 2.620648 1_554
Mn2 O13 1.955410 1_555
Mn2 O10 1.955410 1_555
Mn2 O7 1.955410 1_555
Mn2 O4 1.955410 1_555
Mn2 O2 2.016621 1_555
Mn2 O8 2.016621 1_555
O2 Sb0 1.969051 1_555
O3 Sb2 1.998080 1_555
O3 Sb1 1.998080 1_555
O4 Sb1 1.971757 1_555
O5 Sb2 2.003815 1_555
O5 Sb0 2.011119 1_555
O6 Sb1 2.003815 1_555
O6 Sb0 2.011119 1_555
O7 Sb2 1.971757 1_555
O8 Sb0 1.969051 1_556
O9 Sb2 1.998080 1_565
O9 Sb1 1.998080 1_655
O10 Sb1 1.971757 1_655
O11 Sb2 2.003815 1_565
O11 Sb0 2.011119 1_556
O12 Sb1 2.003814 1_655
O12 Sb0 2.011125 1_556
O13 Sb2 1.971757 1_565
