# generated using pymatgen
data_YUSb2
_symmetry_space_group_name_H-M   'P 1'
_cell_length_a   7.78203015
_cell_length_b   7.78203015
_cell_length_c   7.78203030
_cell_angle_alpha   32.67643889
_cell_angle_beta   32.67643889
_cell_angle_gamma   32.67644616
_symmetry_Int_Tables_number   1
_chemical_formula_structural   YUSb2
_chemical_formula_sum   'Y1 U1 Sb2'
_cell_volume   122.18490480
_cell_formula_units_Z   1
loop_
 _symmetry_equiv_pos_site_id
 _symmetry_equiv_pos_as_xyz
  1  'x, y, z'
loop_
 _atom_site_type_symbol
 _atom_site_label
 _atom_site_symmetry_multiplicity
 _atom_site_fract_x
 _atom_site_fract_y
 _atom_site_fract_z
 _atom_site_occupancy
  Y  Y0  1  0.50000000  0.50000000  0.50000000  1
  U  U0  1  -0.00000000  -0.00000000  0.00000000  1
  Sb  Sb0  1  0.24837215  0.24837215  0.24837215  1
  Sb  Sb1  1  0.75162785  0.75162785  0.75162785  1
loop_
_geom_bond_atom_site_label_1
_geom_bond_atom_site_label_2
_geom_bond_distance
_geom_bond_site_symmetry_2
Sb0 Y0 3.105548 1_554
Sb0 Y0 3.105549 1_545
Sb0 Y0 3.105549 1_455
Sb0 U0 3.147852 1_556
Sb0 U0 3.147852 1_565
Sb0 U0 3.147852 1_655
Sb1 Y0 3.105548 1_556
Sb1 Y0 3.105549 1_655
Sb1 Y0 3.105549 1_565
Sb1 U0 3.147852 1_665
Sb1 U0 3.147852 1_566
Sb1 U0 3.147852 1_656
