# generated using pymatgen
data_Ba2CuO4
_symmetry_space_group_name_H-M   'P 1'
_cell_length_a   5.51360697
_cell_length_b   5.51360688
_cell_length_c   8.45965785
_cell_angle_alpha   109.01868798
_cell_angle_beta   109.01868638
_cell_angle_gamma   90.00000242
_symmetry_Int_Tables_number   1
_chemical_formula_structural   Ba2CuO4
_chemical_formula_sum   'Ba4 Cu2 O8'
_cell_volume   228.23367845
_cell_formula_units_Z   2
loop_
 _symmetry_equiv_pos_site_id
 _symmetry_equiv_pos_as_xyz
  1  'x, y, z'
loop_
 _atom_site_type_symbol
 _atom_site_label
 _atom_site_symmetry_multiplicity
 _atom_site_fract_x
 _atom_site_fract_y
 _atom_site_fract_z
 _atom_site_occupancy
  Ba  Ba0  1  0.37109400  0.87109400  0.74218800  1
  Ba  Ba1  1  0.87109400  0.37109400  0.74218800  1
  Ba  Ba2  1  0.12890600  0.62890600  0.25781200  1
  Ba  Ba3  1  0.62890600  0.12890600  0.25781200  1
  Cu  Cu0  1  0.50000000  0.50000000  0.00000000  1
  Cu  Cu1  1  0.00000000  0.00000000  0.00000000  1
  O  O0  1  0.20487200  0.20487200  0.40974400  1
  O  O1  1  0.30751200  0.30751200  0.61502400  1
  O  O2  1  0.69248800  0.69248800  0.38497600  1
  O  O3  1  0.75060500  0.75060500  0.00000000  1
  O  O4  1  0.79512800  0.79512800  0.59025600  1
  O  O5  1  0.24939500  0.24939500  0.00000000  1
  O  O6  1  0.24939500  0.75060500  0.00000000  1
  O  O7  1  0.75060500  0.24939500  0.00000000  1
loop_
_geom_bond_atom_site_label_1
_geom_bond_atom_site_label_2
_geom_bond_distance
_geom_bond_site_symmetry_2
Ba0 O7 2.747085 1_566
Ba0 O5 2.747085 1_566
Ba0 O3 2.747085 1_556
Ba0 O6 2.747085 1_556
Ba0 O1 2.917437 1_555
Ba0 O1 2.917437 1_565
Ba0 O4 2.983467 1_455
Ba0 O4 2.983467 1_555
Ba1 O6 2.747085 1_656
Ba1 O3 2.747085 1_556
Ba1 O5 2.747085 1_656
Ba1 O7 2.747085 1_556
Ba1 O1 2.917437 1_555
Ba1 O1 2.917437 1_655
Ba1 O4 2.983467 1_545
Ba1 O4 2.983467 1_555
Ba2 O7 2.747085 1_455
Ba2 O5 2.747085 1_555
Ba2 O3 2.747085 1_455
Ba2 O6 2.747085 1_555
Ba2 O2 2.917437 1_555
Ba2 O2 2.917437 1_455
Ba2 O0 2.983467 1_565
Ba2 O0 2.983467 1_555
Ba3 O6 2.747085 1_545
Ba3 O3 2.747085 1_545
Ba3 O5 2.747085 1_555
Ba3 O7 2.747085 1_555
Ba3 O2 2.917437 1_555
Ba3 O2 2.917437 1_545
Ba3 O0 2.983467 1_655
Ba3 O0 2.983467 1_555
Cu0 O5 1.954072 1_555
Cu0 O3 1.954072 1_555
Cu0 O6 1.954072 1_555
Cu0 O7 1.954072 1_555
Cu1 O3 1.944637 1_445
Cu1 O5 1.944637 1_555
Cu1 O7 1.944637 1_455
Cu1 O6 1.944637 1_545
O0 O1 1.541185 1_555
O2 O4 1.541185 1_555
