# generated using pymatgen
data_Mg14CdNiO16
_symmetry_space_group_name_H-M   'P 1'
_cell_length_a   8.60296683
_cell_length_b   8.60334740
_cell_length_c   4.30679707
_cell_angle_alpha   90.00000000
_cell_angle_beta   90.00000000
_cell_angle_gamma   90.00000000
_symmetry_Int_Tables_number   1
_chemical_formula_structural   Mg14CdNiO16
_chemical_formula_sum   'Mg14 Cd1 Ni1 O16'
_cell_volume   318.76462339
_cell_formula_units_Z   1
loop_
 _symmetry_equiv_pos_site_id
 _symmetry_equiv_pos_as_xyz
  1  'x, y, z'
loop_
 _atom_site_type_symbol
 _atom_site_label
 _atom_site_symmetry_multiplicity
 _atom_site_fract_x
 _atom_site_fract_y
 _atom_site_fract_z
 _atom_site_occupancy
  Mg  Mg0  1  0.50000000  0.00000000  0.00000000  1
  Mg  Mg1  1  0.50000000  0.50000000  0.00000000  1
  Mg  Mg2  1  0.00000000  0.24367616  0.50000000  1
  Mg  Mg3  1  0.00000000  0.75632384  0.50000000  1
  Mg  Mg4  1  0.50000000  0.24902711  0.50000000  1
  Mg  Mg5  1  0.50000000  0.75097289  0.50000000  1
  Mg  Mg6  1  0.24962163  0.00000000  0.50000000  1
  Mg  Mg7  1  0.25500551  0.50000000  0.50000000  1
  Mg  Mg8  1  0.75037837  0.00000000  0.50000000  1
  Mg  Mg9  1  0.74499449  0.50000000  0.50000000  1
  Mg  Mg10  1  0.25190878  0.24677190  0.00000000  1
  Mg  Mg11  1  0.25190878  0.75322810  0.00000000  1
  Mg  Mg12  1  0.74809122  0.24677190  0.00000000  1
  Mg  Mg13  1  0.74809122  0.75322810  0.00000000  1
  Cd  Cd0  1  0.00000000  0.50000000  0.00000000  1
  Ni  Ni0  1  0.00000000  0.00000000  0.00000000  1
  O  O0  1  0.25396886  0.00000000  0.00000000  1
  O  O1  1  0.26502176  0.50000000  0.00000000  1
  O  O2  1  0.74603114  0.00000000  0.00000000  1
  O  O3  1  0.73497824  0.50000000  0.00000000  1
  O  O4  1  0.24868922  0.24999014  0.50000000  1
  O  O5  1  0.24868922  0.75000986  0.50000000  1
  O  O6  1  0.75131078  0.24999014  0.50000000  1
  O  O7  1  0.75131078  0.75000986  0.50000000  1
  O  O8  1  0.00000000  0.00000000  0.50000000  1
  O  O9  1  0.00000000  0.50000000  0.50000000  1
  O  O10  1  0.50000000  0.00000000  0.50000000  1
  O  O11  1  0.50000000  0.50000000  0.50000000  1
  O  O12  1  0.00000000  0.23478947  0.00000000  1
  O  O13  1  0.00000000  0.76521053  0.00000000  1
  O  O14  1  0.50000000  0.24769481  0.00000000  1
  O  O15  1  0.50000000  0.75230519  0.00000000  1
loop_
_geom_bond_atom_site_label_1
_geom_bond_atom_site_label_2
_geom_bond_distance
_geom_bond_site_symmetry_2
Mg0 O0 2.116598 1_555
Mg0 O2 2.116598 1_555
Mg0 O14 2.131004 1_555
Mg0 O15 2.131004 1_545
Mg0 O10 2.153399 1_555
Mg0 O10 2.153399 1_554
Mg1 O1 2.021510 1_555
Mg1 O3 2.021510 1_555
Mg1 O11 2.153399 1_554
Mg1 O11 2.153399 1_555
Mg1 O15 2.170669 1_555
Mg1 O14 2.170669 1_555
Mg2 O8 2.096431 1_555
Mg2 O4 2.140155 1_555
Mg2 O6 2.140155 1_455
Mg2 O12 2.154755 1_556
Mg2 O12 2.154755 1_555
Mg2 O9 2.205243 1_555
Mg3 O8 2.096431 1_565
Mg3 O5 2.140155 1_555
Mg3 O7 2.140155 1_455
Mg3 O13 2.154755 1_555
Mg3 O13 2.154755 1_556
Mg3 O9 2.205243 1_555
Mg4 O10 2.142467 1_555
Mg4 O14 2.153429 1_556
Mg4 O14 2.153429 1_555
Mg4 O11 2.159207 1_555
Mg4 O6 2.162034 1_555
Mg4 O4 2.162034 1_555
Mg5 O10 2.142467 1_565
Mg5 O15 2.153429 1_556
Mg5 O15 2.153429 1_555
Mg5 O11 2.159207 1_555
Mg5 O7 2.162034 1_555
Mg5 O5 2.162034 1_555
Mg6 O8 2.147487 1_555
Mg6 O5 2.150767 1_545
Mg6 O4 2.150767 1_555
Mg6 O0 2.153723 1_555
Mg6 O0 2.153723 1_556
Mg6 O10 2.153997 1_555
Mg7 O11 2.107679 1_555
Mg7 O4 2.151608 1_555
Mg7 O5 2.151608 1_555
Mg7 O1 2.155122 1_556
Mg7 O1 2.155122 1_555
Mg7 O9 2.193804 1_555
Mg8 O8 2.147487 1_655
Mg8 O6 2.150767 1_555
Mg8 O7 2.150767 1_545
Mg8 O2 2.153723 1_556
Mg8 O2 2.153723 1_555
Mg8 O10 2.153997 1_555
Mg9 O11 2.107679 1_555
Mg9 O6 2.151608 1_555
Mg9 O7 2.151608 1_555
Mg9 O3 2.155122 1_556
Mg9 O3 2.155122 1_555
Mg9 O9 2.193804 1_655
Mg10 O0 2.123138 1_555
Mg10 O14 2.134335 1_555
Mg10 O4 2.153755 1_554
Mg10 O4 2.153755 1_555
Mg10 O12 2.169613 1_555
Mg10 O1 2.181528 1_555
Mg11 O0 2.123138 1_565
Mg11 O15 2.134335 1_555
Mg11 O5 2.153755 1_555
Mg11 O5 2.153755 1_554
Mg11 O13 2.169613 1_555
Mg11 O1 2.181528 1_555
Mg12 O2 2.123138 1_555
Mg12 O14 2.134335 1_555
Mg12 O6 2.153755 1_555
Mg12 O6 2.153755 1_554
Mg12 O12 2.169613 1_655
Mg12 O3 2.181528 1_555
Mg13 O2 2.123138 1_565
Mg13 O15 2.134335 1_555
Mg13 O7 2.153755 1_555
Mg13 O7 2.153755 1_554
Mg13 O13 2.169613 1_655
Mg13 O3 2.181528 1_555
Cd0 O9 2.153399 1_555
Cd0 O9 2.153399 1_554
Cd0 O1 2.279973 1_555
Cd0 O3 2.279973 1_455
Cd0 O12 2.281698 1_555
Cd0 O13 2.281698 1_555
Ni0 O13 2.019975 1_545
Ni0 O12 2.019975 1_555
Ni0 O8 2.153399 1_554
Ni0 O8 2.153399 1_555
Ni0 O2 2.184886 1_455
Ni0 O0 2.184886 1_555
