# generated using pymatgen
data_Sm2Fe2As2O
_symmetry_space_group_name_H-M   'P 1'
_cell_length_a   3.99221100
_cell_length_b   3.99221100
_cell_length_c   8.08779100
_cell_angle_alpha   90.00000000
_cell_angle_beta   90.00000000
_cell_angle_gamma   90.00000000
_symmetry_Int_Tables_number   1
_chemical_formula_structural   Sm2Fe2As2O
_chemical_formula_sum   'Sm2 Fe2 As2 O1'
_cell_volume   128.90118024
_cell_formula_units_Z   1
loop_
 _symmetry_equiv_pos_site_id
 _symmetry_equiv_pos_as_xyz
  1  'x, y, z'
loop_
 _atom_site_type_symbol
 _atom_site_label
 _atom_site_symmetry_multiplicity
 _atom_site_fract_x
 _atom_site_fract_y
 _atom_site_fract_z
 _atom_site_occupancy
  Sm  Sm0  1  0.75000000  0.75000000  0.83903700  1
  Sm  Sm1  1  0.25000000  0.25000000  0.16096300  1
  Fe  Fe0  1  0.75000000  0.25000000  0.50000000  1
  Fe  Fe1  1  0.25000000  0.75000000  0.50000000  1
  As  As0  1  0.75000000  0.75000000  0.31784000  1
  As  As1  1  0.25000000  0.25000000  0.68216000  1
  O  O0  1  0.75000000  0.25000000  0.00000000  1
loop_
_geom_bond_atom_site_label_1
_geom_bond_atom_site_label_2
_geom_bond_distance
_geom_bond_site_symmetry_2
As0 Fe0 2.480921 1_555
As0 Fe0 2.480921 1_565
As0 Fe1 2.480921 1_555
As0 Fe1 2.480921 1_655
As0 Sm1 3.094947 1_655
As0 Sm1 3.094947 1_565
As0 Sm1 3.094947 1_665
As0 Sm1 3.094947 1_555
As1 Fe1 2.480921 1_545
As1 Fe0 2.480921 1_455
As1 Fe0 2.480921 1_555
As1 Fe1 2.480921 1_555
As1 Sm0 3.094947 1_555
As1 Sm0 3.094947 1_445
As1 Sm0 3.094947 1_545
As1 Sm0 3.094947 1_455
O0 Sm0 2.383110 1_554
O0 Sm0 2.383110 1_544
O0 Sm1 2.383110 1_555
O0 Sm1 2.383110 1_655
