# generated using pymatgen
data_ZnFe4(CuO4)3
_symmetry_space_group_name_H-M   'P 1'
_cell_length_a   6.41406553
_cell_length_b   6.41452906
_cell_length_c   6.38430907
_cell_angle_alpha   109.37483938
_cell_angle_beta   109.37867927
_cell_angle_gamma   109.55336150
_symmetry_Int_Tables_number   1
_chemical_formula_structural   ZnFe4(CuO4)3
_chemical_formula_sum   'Zn1 Fe4 Cu3 O12'
_cell_volume   202.46975543
_cell_formula_units_Z   1
loop_
 _symmetry_equiv_pos_site_id
 _symmetry_equiv_pos_as_xyz
  1  'x, y, z'
loop_
 _atom_site_type_symbol
 _atom_site_label
 _atom_site_symmetry_multiplicity
 _atom_site_fract_x
 _atom_site_fract_y
 _atom_site_fract_z
 _atom_site_occupancy
  Zn  Zn0  1  0.99997900  0.99996700  0.99997000  1
  Fe  Fe0  1  0.99996500  0.50001200  0.99991000  1
  Fe  Fe1  1  0.50001500  0.00005300  0.00001300  1
  Fe  Fe2  1  0.49997400  0.49997100  0.49996500  1
  Fe  Fe3  1  0.00002800  0.00000800  0.49994800  1
  Cu  Cu0  1  0.50005100  0.00002600  0.50001800  1
  Cu  Cu1  1  0.49994100  0.49995500  0.99996400  1
  Cu  Cu2  1  0.99999500  0.50002600  0.50005300  1
  O  O0  1  0.31209500  0.14395900  0.83429800  1
  O  O1  1  0.68783400  0.85604000  0.16574200  1
  O  O2  1  0.68681900  0.51907400  0.83041900  1
  O  O3  1  0.48086100  0.16770500  0.31135300  1
  O  O4  1  0.16820100  0.31216300  0.47791200  1
  O  O5  1  0.83231100  0.31318700  0.14364400  1
  O  O6  1  0.85606300  0.16812700  0.69036200  1
  O  O7  1  0.83183700  0.68789700  0.52217500  1
  O  O8  1  0.31323300  0.48102200  0.16960200  1
  O  O9  1  0.51904200  0.83220100  0.68858000  1
  O  O10  1  0.16778100  0.68678800  0.85637600  1
  O  O11  1  0.14397600  0.83181600  0.30969500  1
loop_
_geom_bond_atom_site_label_1
_geom_bond_atom_site_label_2
_geom_bond_distance
_geom_bond_site_symmetry_2
Fe0 O10 1.988344 1_655
Fe0 O5 1.989086 1_556
Fe0 O6 1.993091 1_555
Fe0 O11 1.993364 1_656
Fe0 O2 2.007472 1_555
Fe0 O8 2.008158 1_656
Fe1 O3 1.988651 1_555
Fe1 O9 1.988977 1_544
Fe1 O0 1.992663 1_554
Fe1 O1 1.992906 1_545
Fe1 O5 2.008334 1_555
Fe1 O10 2.008512 1_544
Fe2 O8 1.988434 1_555
Fe2 O2 1.988589 1_555
Fe2 O4 1.993037 1_555
Fe2 O7 1.993207 1_555
Fe2 O9 2.007912 1_555
Fe2 O3 2.007960 1_555
Fe3 O11 2.008307 1_545
Fe3 O4 2.008609 1_555
Fe3 O1 2.008635 1_445
Fe3 O6 2.008765 1_455
Fe3 O0 2.008793 1_555
Fe3 O7 2.009104 1_445
Cu0 O3 1.863504 1_555
Cu0 O9 1.863672 1_545
Cu0 O6 1.869409 1_555
Cu0 O11 1.869697 1_545
Cu1 O8 1.863450 1_556
Cu1 O2 1.863904 1_555
Cu1 O0 1.869516 1_555
Cu1 O1 1.869960 1_556
Cu2 O10 1.863479 1_655
Cu2 O5 1.863977 1_555
Cu2 O7 1.869159 1_555
Cu2 O4 1.869376 1_655
O0 Zn0 2.606768 1_445
O1 Zn0 2.607314 1_554
O2 Zn0 2.629816 1_555
O3 Zn0 2.629358 1_444
O4 Zn0 2.607614 1_444
O5 Zn0 2.629225 1_544
O6 Zn0 2.606337 1_545
O7 Zn0 2.606808 1_555
O8 Zn0 2.630649 1_444
O9 Zn0 2.629603 1_555
O10 Zn0 2.629571 1_455
O11 Zn0 2.606999 1_454
