# generated using pymatgen
data_NaCa2(SiO3)3
_symmetry_space_group_name_H-M   'P 1'
_cell_length_a   7.01077200
_cell_length_b   7.16272211
_cell_length_c   8.09293616
_cell_angle_alpha   95.73715471
_cell_angle_beta   102.32946907
_cell_angle_gamma   90.20779471
_symmetry_Int_Tables_number   1
_chemical_formula_structural   NaCa2(SiO3)3
_chemical_formula_sum   'Na2 Ca4 Si6 O18'
_cell_volume   394.90431932
_cell_formula_units_Z   2
loop_
 _symmetry_equiv_pos_site_id
 _symmetry_equiv_pos_as_xyz
  1  'x, y, z'
loop_
 _atom_site_type_symbol
 _atom_site_label
 _atom_site_symmetry_multiplicity
 _atom_site_fract_x
 _atom_site_fract_y
 _atom_site_fract_z
 _atom_site_occupancy
  Na  Na0  1  0.26660200  0.34783900  0.56158100  1
  Na  Na1  1  0.73339800  0.65216100  0.43841900  1
  Ca  Ca0  1  0.58919100  0.14936100  0.85559500  1
  Ca  Ca1  1  0.41080900  0.85063900  0.14440500  1
  Ca  Ca2  1  0.08736400  0.14037500  0.84850700  1
  Ca  Ca3  1  0.91263600  0.85962500  0.15149300  1
  Si  Si0  1  0.59419600  0.66283400  0.78135100  1
  Si  Si1  1  0.40580400  0.33716600  0.21864900  1
  Si  Si2  1  0.04982300  0.65817900  0.78433100  1
  Si  Si3  1  0.95017700  0.34182100  0.21566900  1
  Si  Si4  1  0.26551500  0.85516200  0.54798800  1
  Si  Si5  1  0.73448500  0.14483800  0.45201200  1
  O  O0  1  0.78873700  0.12972100  0.65399000  1
  O  O1  1  0.21126300  0.87027900  0.34601000  1
  O  O2  1  0.29539500  0.05329100  0.66806900  1
  O  O3  1  0.70460500  0.94670900  0.33193100  1
  O  O4  1  0.50495300  0.45730100  0.80565100  1
  O  O5  1  0.49504700  0.54269900  0.19434900  1
  O  O6  1  0.15039200  0.45590300  0.81706600  1
  O  O7  1  0.84960800  0.54409700  0.18293400  1
  O  O8  1  0.61119400  0.82827600  0.93497700  1
  O  O9  1  0.38880600  0.17172400  0.06502300  1
  O  O10  1  0.10720000  0.82368200  0.94015300  1
  O  O11  1  0.89280000  0.17631800  0.05984700  1
  O  O12  1  0.46791900  0.72875000  0.59912000  1
  O  O13  1  0.53208100  0.27125000  0.40088000  1
  O  O14  1  0.09209300  0.72591600  0.60521600  1
  O  O15  1  0.90790700  0.27408400  0.39478400  1
  O  O16  1  0.81055900  0.61370400  0.73781600  1
  O  O17  1  0.18944100  0.38629600  0.26218400  1
loop_
_geom_bond_atom_site_label_1
_geom_bond_atom_site_label_2
_geom_bond_distance
_geom_bond_site_symmetry_2
Na0 O2 2.350929 1_555
Na0 O4 2.362181 1_555
Na0 O17 2.411264 1_555
Na0 O6 2.437618 1_555
Na0 O13 2.520910 1_555
Na0 O15 2.612125 1_455
Na1 O3 2.350929 1_555
Na1 O5 2.362181 1_555
Na1 O16 2.411264 1_555
Na1 O7 2.437618 1_555
Na1 O12 2.520910 1_555
Na1 O14 2.612125 1_655
Ca0 O4 2.337298 1_555
Ca0 O2 2.337776 1_555
Ca0 O0 2.359932 1_555
Ca0 O11 2.393937 1_556
Ca0 O9 2.415811 1_556
Ca0 O8 2.445698 1_545
Ca1 O5 2.337298 1_555
Ca1 O3 2.337776 1_555
Ca1 O1 2.359932 1_555
Ca1 O10 2.393937 1_554
Ca1 O8 2.415811 1_554
Ca1 O9 2.445698 1_565
Ca2 O2 2.320044 1_555
Ca2 O0 2.331194 1_455
Ca2 O6 2.350218 1_555
Ca2 O11 2.400644 1_456
Ca2 O9 2.433811 1_556
Ca2 O10 2.451450 1_545
Ca3 O3 2.320044 1_555
Ca3 O1 2.331194 1_655
Ca3 O7 2.350218 1_555
Ca3 O10 2.400644 1_654
Ca3 O8 2.433811 1_554
Ca3 O11 2.451450 1_565
O0 Si5 1.611974 1_555
O1 Si4 1.611974 1_555
O2 Si4 1.624018 1_545
O3 Si5 1.624018 1_565
O4 Si0 1.643526 1_555
O5 Si1 1.643526 1_555
O6 Si2 1.634270 1_555
O7 Si3 1.634270 1_555
O8 Si0 1.614114 1_555
O9 Si1 1.614114 1_555
O10 Si2 1.624314 1_555
O11 Si3 1.624314 1_555
O12 Si0 1.663223 1_555
O12 Si4 1.684674 1_555
O13 Si1 1.663223 1_555
O13 Si5 1.684674 1_555
O14 Si2 1.657555 1_555
O14 Si4 1.693452 1_555
O15 Si3 1.657555 1_555
O15 Si5 1.693452 1_555
O16 Si0 1.660178 1_555
O16 Si2 1.661151 1_655
O17 Si1 1.660178 1_555
O17 Si3 1.661151 1_455
