# generated using pymatgen
data_Li9Mn2Co5O16
_symmetry_space_group_name_H-M   'P 1'
_cell_length_a   5.89208600
_cell_length_b   5.92916785
_cell_length_c   8.61397654
_cell_angle_alpha   70.79110556
_cell_angle_beta   87.98945390
_cell_angle_gamma   86.31136734
_symmetry_Int_Tables_number   1
_chemical_formula_structural   Li9Mn2Co5O16
_chemical_formula_sum   'Li9 Mn2 Co5 O16'
_cell_volume   283.55685911
_cell_formula_units_Z   1
loop_
 _symmetry_equiv_pos_site_id
 _symmetry_equiv_pos_as_xyz
  1  'x, y, z'
loop_
 _atom_site_type_symbol
 _atom_site_label
 _atom_site_symmetry_multiplicity
 _atom_site_fract_x
 _atom_site_fract_y
 _atom_site_fract_z
 _atom_site_occupancy
  Li  Li0  1  0.74689700  0.87895500  0.74244800  1
  Li  Li1  1  0.00747900  0.75505200  0.50244100  1
  Li  Li2  1  0.74909600  0.37899500  0.74258800  1
  Li  Li3  1  0.00695000  0.23880700  0.50939800  1
  Li  Li4  1  0.25478600  0.12050500  0.25768200  1
  Li  Li5  1  0.25066400  0.62109400  0.25528400  1
  Li  Li6  1  0.49560900  0.50777500  0.99258600  1
  Li  Li7  1  0.49588300  0.99821000  0.99596600  1
  Li  Li8  1  0.24986300  0.87605900  0.74339300  1
  Mn  Mn0  1  0.00416200  0.00372000  0.99899900  1
  Mn  Mn1  1  0.00480300  0.50593600  0.00016200  1
  Co  Co0  1  0.49478800  0.74849900  0.49833000  1
  Co  Co1  1  0.74650100  0.62564000  0.24946000  1
  Co  Co2  1  0.25260500  0.37556400  0.74952800  1
  Co  Co3  1  0.49341000  0.24041900  0.50367400  1
  Co  Co4  1  0.75157200  0.12693200  0.25458000  1
  O  O0  1  0.02603700  0.14518200  0.76286200  1
  O  O1  1  0.26778000  0.98001700  0.50002000  1
  O  O2  1  0.01069500  0.60145000  0.76410000  1
  O  O3  1  0.25454500  0.47061200  0.51484700  1
  O  O4  1  0.51341800  0.35358200  0.26502000  1
  O  O5  1  0.51453300  0.86128500  0.25462900  1
  O  O6  1  0.75166200  0.73100000  0.00565800  1
  O  O7  1  0.77890300  0.25993100  0.01245600  1
  O  O8  1  0.47048900  0.60170900  0.73369400  1
  O  O9  1  0.73316000  0.52110400  0.48510800  1
  O  O10  1  0.48605500  0.14467900  0.74011700  1
  O  O11  1  0.74285000  0.01757800  0.49342900  1
  O  O12  1  0.98642100  0.89736400  0.23994400  1
  O  O13  1  0.98893000  0.39629700  0.24014100  1
  O  O14  1  0.25109200  0.27744200  0.98939800  1
  O  O15  1  0.21836300  0.73861000  0.00205600  1
loop_
_geom_bond_atom_site_label_1
_geom_bond_atom_site_label_2
_geom_bond_distance
_geom_bond_site_symmetry_2
Li0 O11 2.029351 1_565
Li0 O10 2.124743 1_565
Li0 O6 2.145562 1_556
Li0 O2 2.155759 1_655
Li0 O0 2.400976 1_665
Li0 O8 2.407269 1_555
Li1 O1 2.091546 1_555
Li1 O11 2.115837 1_465
Li1 O3 2.133370 1_555
Li1 O2 2.135415 1_555
Li1 O12 2.142636 1_455
Li1 O9 2.236188 1_455
Li2 O8 2.026752 1_555
Li2 O0 2.045637 1_655
Li2 O9 2.100639 1_555
Li2 O2 2.142962 1_655
Li2 O10 2.152091 1_555
Li2 O7 2.205894 1_556
Li3 O0 2.073502 1_555
Li3 O3 2.079591 1_555
Li3 O1 2.119488 1_545
Li3 O11 2.134787 1_455
Li3 O13 2.200475 1_455
Li3 O9 2.212136 1_455
Li4 O1 1.978927 1_545
Li4 O5 2.103884 1_545
Li4 O4 2.138039 1_555
Li4 O13 2.162166 1_455
Li4 O12 2.166385 1_445
Li4 O14 2.189271 1_554
Li5 O15 2.071650 1_555
Li5 O3 2.117539 1_555
Li5 O4 2.127268 1_555
Li5 O13 2.136534 1_455
Li5 O12 2.160694 1_455
Li5 O5 2.173566 1_555
Li6 O14 2.054780 1_555
Li6 O15 2.079624 1_556
Li6 O6 2.099400 1_556
Li6 O8 2.121474 1_555
Li6 O7 2.124590 1_556
Li6 O4 2.224226 1_556
Li7 O10 2.087506 1_565
Li7 O6 2.098312 1_556
Li7 O5 2.109758 1_556
Li7 O14 2.112204 1_565
Li7 O15 2.304431 1_556
Li7 O7 2.388234 1_566
Li8 O1 1.982058 1_555
Li8 O8 2.037797 1_555
Li8 O0 2.050207 1_565
Li8 O15 2.111562 1_556
Li8 O10 2.174180 1_565
Li8 O2 2.180638 1_555
Mn0 O0 1.931439 1_555
Mn0 O15 1.945305 1_546
Mn0 O12 1.961706 1_446
Mn0 O7 1.982016 1_456
Mn0 O14 2.228155 1_555
Mn0 O6 2.252534 1_446
Mn1 O2 1.922650 1_554
Mn1 O15 1.930395 1_555
Mn1 O14 1.941683 1_554
Mn1 O6 1.946318 1_455
Mn1 O13 1.953085 1_455
Mn1 O7 2.012121 1_455
Co0 O1 1.857181 1_555
Co0 O9 1.910392 1_555
Co0 O8 1.929500 1_555
Co0 O5 1.984098 1_555
Co0 O3 2.206897 1_555
Co0 O11 2.221441 1_565
Co1 O5 1.900822 1_555
Co1 O9 1.917783 1_555
Co1 O13 1.926073 1_555
Co1 O6 1.984009 1_555
Co1 O4 2.153118 1_555
Co1 O12 2.190596 1_555
Co2 O8 1.885064 1_555
Co2 O10 1.896193 1_555
Co2 O3 1.911515 1_555
Co2 O2 1.921874 1_555
Co2 O0 1.944690 1_555
Co2 O14 1.953519 1_555
Co3 O3 1.919028 1_555
Co3 O10 1.925749 1_555
Co3 O11 1.931675 1_555
Co3 O4 1.943134 1_555
Co3 O1 2.109794 1_545
Co3 O9 2.214103 1_555
Co4 O4 1.900285 1_555
Co4 O12 1.908328 1_545
Co4 O11 1.942976 1_555
Co4 O7 1.976928 1_555
Co4 O13 2.160233 1_555
Co4 O5 2.171185 1_545
