# generated using pymatgen
data_U2Al3Si
_symmetry_space_group_name_H-M   'P 1'
_cell_length_a   5.38599544
_cell_length_b   5.38599544
_cell_length_c   5.38599515
_cell_angle_alpha   59.69476074
_cell_angle_beta   59.69476074
_cell_angle_gamma   59.69474786
_symmetry_Int_Tables_number   1
_chemical_formula_structural   U2Al3Si
_chemical_formula_sum   'U2 Al3 Si1'
_cell_volume   109.71376627
_cell_formula_units_Z   1
loop_
 _symmetry_equiv_pos_site_id
 _symmetry_equiv_pos_as_xyz
  1  'x, y, z'
loop_
 _atom_site_type_symbol
 _atom_site_label
 _atom_site_symmetry_multiplicity
 _atom_site_fract_x
 _atom_site_fract_y
 _atom_site_fract_z
 _atom_site_occupancy
  U  U0  1  0.12480600  0.12480600  0.12480600  1
  U  U1  1  0.87519400  0.87519400  0.87519400  1
  Al  Al0  1  0.50000000  0.00000000  0.50000000  1
  Al  Al1  1  0.00000000  0.50000000  0.50000000  1
  Al  Al2  1  0.50000000  0.50000000  0.00000000  1
  Si  Si0  1  0.50000000  0.50000000  0.50000000  1
loop_
_geom_bond_atom_site_label_1
_geom_bond_atom_site_label_2
_geom_bond_distance
_geom_bond_site_symmetry_2
U0 U1 3.287273 1_454
U0 U1 3.287273 1_544
U0 U1 3.287274 1_445
U0 U1 3.300693 1_444
Al0 Al1 2.680563 1_645
Al0 Al1 2.680563 1_555
Al0 Al2 2.680563 1_546
Al0 Al2 2.680563 1_555
Al0 Si0 2.692998 1_555
Al0 Si0 2.692998 1_545
Al0 U0 3.147866 1_556
Al0 U1 3.147866 1_544
Al0 U0 3.147867 1_655
Al0 U1 3.147867 1_445
Al0 U1 3.162039 1_545
Al0 U0 3.162039 1_555
Al1 Al2 2.680563 1_555
Al1 Al2 2.680563 1_456
Al1 Si0 2.692998 1_555
Al1 Si0 2.692998 1_455
Al1 U0 3.147866 1_556
Al1 U1 3.147866 1_454
Al1 U0 3.147867 1_565
Al1 U1 3.147867 1_445
Al1 U1 3.162039 1_455
Al1 U0 3.162039 1_555
Al2 Si0 2.692998 1_555
Al2 Si0 2.692998 1_554
Al2 U0 3.147866 1_655
Al2 U0 3.147866 1_565
Al2 U1 3.147866 1_454
Al2 U1 3.147866 1_544
Al2 U1 3.162040 1_554
Al2 U0 3.162040 1_555
Si0 U1 3.144354 1_545
Si0 U1 3.144354 1_455
Si0 U0 3.144354 1_655
Si0 U0 3.144354 1_565
Si0 U1 3.144354 1_554
Si0 U0 3.144354 1_556
