# generated using pymatgen
data_Mg3Ti4(PO4)6
_symmetry_space_group_name_H-M   'P 1'
_cell_length_a   6.49108700
_cell_length_b   8.03742890
_cell_length_c   9.39313305
_cell_angle_alpha   104.58042447
_cell_angle_beta   108.74183440
_cell_angle_gamma   101.15975232
_symmetry_Int_Tables_number   1
_chemical_formula_structural   Mg3Ti4(PO4)6
_chemical_formula_sum   'Mg3 Ti4 P6 O24'
_cell_volume   428.51725479
_cell_formula_units_Z   1
loop_
 _symmetry_equiv_pos_site_id
 _symmetry_equiv_pos_as_xyz
  1  'x, y, z'
loop_
 _atom_site_type_symbol
 _atom_site_label
 _atom_site_symmetry_multiplicity
 _atom_site_fract_x
 _atom_site_fract_y
 _atom_site_fract_z
 _atom_site_occupancy
  Mg  Mg0  1  0.78119200  0.30988300  0.28678500  1
  Mg  Mg1  1  0.21880800  0.69011700  0.71321500  1
  Mg  Mg2  1  0.50000000  0.50000000  0.00000000  1
  Ti  Ti0  1  0.44929900  0.77947300  0.47366200  1
  Ti  Ti1  1  0.55070100  0.22052700  0.52633800  1
  Ti  Ti2  1  0.90013100  0.96256300  0.11719800  1
  Ti  Ti3  1  0.09986900  0.03743700  0.88280200  1
  P  P0  1  0.42271400  0.91244200  0.16799100  1
  P  P1  1  0.57728600  0.08755800  0.83200900  1
  P  P2  1  0.89090800  0.72311800  0.36748800  1
  P  P3  1  0.10909200  0.27688200  0.63251200  1
  P  P4  1  0.27110000  0.35499400  0.22811100  1
  P  P5  1  0.72890000  0.64500600  0.77188900  1
  O  O0  1  0.29451400  0.55452300  0.29725900  1
  O  O1  1  0.70548600  0.44547700  0.70274100  1
  O  O2  1  0.44369100  0.95857400  0.34698400  1
  O  O3  1  0.55630900  0.04142600  0.65301600  1
  O  O4  1  0.79653800  0.03694300  0.91559800  1
  O  O5  1  0.20346200  0.96305700  0.08440200  1
  O  O6  1  0.95227500  0.86046200  0.28719300  1
  O  O7  1  0.04772500  0.13953800  0.71280700  1
  O  O8  1  0.52007800  0.68799100  0.66440600  1
  O  O9  1  0.47992200  0.31200900  0.33559400  1
  O  O10  1  0.73277200  0.69242600  0.94409500  1
  O  O11  1  0.26722800  0.30757400  0.05590500  1
  O  O12  1  0.40388900  0.72073500  0.08699400  1
  O  O13  1  0.59611100  0.27926500  0.91300600  1
  O  O14  1  0.63186200  0.04444300  0.16666900  1
  O  O15  1  0.36813800  0.95555700  0.83333100  1
  O  O16  1  0.74450000  0.77525400  0.46041900  1
  O  O17  1  0.25550000  0.22474600  0.53958100  1
  O  O18  1  0.04458100  0.24189200  0.22653700  1
  O  O19  1  0.95541900  0.75810800  0.77346300  1
  O  O20  1  0.11742100  0.71742200  0.49134000  1
  O  O21  1  0.88257900  0.28257800  0.50866000  1
  O  O22  1  0.76513100  0.53545800  0.23465100  1
  O  O23  1  0.23486900  0.46454200  0.76534900  1
loop_
_geom_bond_atom_site_label_1
_geom_bond_atom_site_label_2
_geom_bond_distance
_geom_bond_site_symmetry_2
Mg0 O22 2.006283 1_555
Mg0 O14 2.012207 1_555
Mg0 O21 2.056589 1_555
Mg0 O18 2.090360 1_655
Mg0 O9 2.149389 1_555
Mg1 O23 2.006283 1_555
Mg1 O15 2.012207 1_555
Mg1 O20 2.056589 1_555
Mg1 O19 2.090360 1_455
Mg1 O8 2.149389 1_555
Mg2 O13 2.056853 1_554
Mg2 O12 2.056853 1_555
Mg2 O22 2.226528 1_555
Mg2 O23 2.226528 1_554
Mg2 O11 2.228208 1_555
Mg2 O10 2.228208 1_554
O0 P4 1.527941 1_555
O0 Ti0 1.934592 1_555
O1 P5 1.527941 1_555
O1 Ti1 1.934592 1_555
O2 P0 1.581861 1_555
O2 Ti0 2.084283 1_555
O2 Ti1 2.156290 1_565
O3 P1 1.581861 1_555
O3 Ti1 2.084283 1_555
O3 Ti0 2.156290 1_545
O4 P1 1.572988 1_555
O4 Ti2 2.074320 1_546
O4 Ti3 2.087830 1_655
O5 P0 1.572988 1_555
O5 Ti3 2.074320 1_564
O5 Ti2 2.087830 1_455
O6 P2 1.545360 1_555
O6 Ti2 1.938471 1_555
O7 P3 1.545360 1_555
O7 Ti3 1.938471 1_555
O8 P5 1.566357 1_555
O8 Ti0 2.055947 1_555
O9 P4 1.566357 1_555
O9 Ti1 2.055947 1_555
O10 P5 1.556324 1_555
O10 Ti2 2.170838 1_556
O11 P4 1.556324 1_555
O11 Ti3 2.170838 1_554
O12 P0 1.498362 1_555
O13 P1 1.498362 1_555
O14 P0 1.558449 1_545
O14 Ti2 2.119195 1_545
O15 P1 1.558449 1_565
O15 Ti3 2.119195 1_565
O16 P2 1.530950 1_555
O16 Ti0 1.965846 1_555
O17 P3 1.530950 1_555
O17 Ti1 1.965846 1_555
O18 P4 1.565376 1_555
O18 Ti2 2.092795 1_445
O19 P5 1.565376 1_555
O19 Ti3 2.092795 1_665
O20 P2 1.571945 1_455
O20 Ti0 2.184668 1_555
O21 P3 1.571945 1_655
O21 Ti1 2.184668 1_555
O22 P2 1.555503 1_555
O23 P3 1.555503 1_555
