# generated using pymatgen
data_Ce2CoRu3
_symmetry_space_group_name_H-M   'P 1'
_cell_length_a   5.26905226
_cell_length_b   5.26905226
_cell_length_c   5.26905295
_cell_angle_alpha   60.24079710
_cell_angle_beta   60.24079710
_cell_angle_gamma   60.24079588
_symmetry_Int_Tables_number   1
_chemical_formula_structural   Ce2CoRu3
_chemical_formula_sum   'Ce2 Co1 Ru3'
_cell_volume   104.00244180
_cell_formula_units_Z   1
loop_
 _symmetry_equiv_pos_site_id
 _symmetry_equiv_pos_as_xyz
  1  'x, y, z'
loop_
 _atom_site_type_symbol
 _atom_site_label
 _atom_site_symmetry_multiplicity
 _atom_site_fract_x
 _atom_site_fract_y
 _atom_site_fract_z
 _atom_site_occupancy
  Ce  Ce0  1  0.62489100  0.62489100  0.62489100  1
  Ce  Ce1  1  0.37510900  0.37510900  0.37510900  1
  Co  Co0  1  0.00000000  0.00000000  0.00000000  1
  Ru  Ru0  1  0.00000000  0.50000000  0.00000000  1
  Ru  Ru1  1  0.50000000  0.00000000  0.00000000  1
  Ru  Ru2  1  0.00000000  0.00000000  0.50000000  1
loop_
_geom_bond_atom_site_label_1
_geom_bond_atom_site_label_2
_geom_bond_distance
_geom_bond_site_symmetry_2
Ce0 Ru2 3.088941 1_665
Ce0 Ru0 3.088941 1_656
Ce0 Ru1 3.088941 1_566
Ce0 Ru2 3.095170 1_655
Ce0 Ru2 3.095170 1_565
Ce0 Ru1 3.095170 1_556
Ce0 Ru0 3.095170 1_556
Ce0 Ru1 3.095171 1_565
Ce0 Ru0 3.095171 1_655
Ce0 Co0 3.100226 1_656
Ce0 Co0 3.100226 1_566
Ce0 Co0 3.100226 1_665
Ce1 Ru2 3.088941 1_555
Ce1 Ru1 3.088941 1_555
Ce1 Ru0 3.088941 1_555
Ce1 Ru2 3.095170 1_565
Ce1 Ru2 3.095170 1_655
Ce1 Ru1 3.095170 1_565
Ce1 Ru0 3.095170 1_655
Ce1 Ru0 3.095171 1_556
Ce1 Ru1 3.095171 1_556
Ce1 Co0 3.100226 1_655
Ce1 Co0 3.100226 1_565
Ce1 Co0 3.100226 1_556
Co0 Ru1 2.634526 1_455
Co0 Ru0 2.634526 1_555
Co0 Ru0 2.634526 1_545
Co0 Ru1 2.634526 1_555
Co0 Ru2 2.634526 1_555
Co0 Ru2 2.634526 1_554
Ru0 Ru1 2.644109 1_555
Ru0 Ru1 2.644109 1_465
Ru0 Ru2 2.644109 1_555
Ru0 Ru2 2.644109 1_564
Ru1 Ru2 2.644109 1_555
Ru1 Ru2 2.644109 1_654
