# generated using pymatgen
data_Y
_symmetry_space_group_name_H-M   'P 1'
_cell_length_a   7.28508672
_cell_length_b   7.28508984
_cell_length_c   23.68826070
_cell_angle_alpha   90.00000000
_cell_angle_beta   90.00000000
_cell_angle_gamma   119.99999577
_symmetry_Int_Tables_number   1
_chemical_formula_structural   Y
_chemical_formula_sum   Y32
_cell_volume   1088.76327185
_cell_formula_units_Z   32
loop_
 _symmetry_equiv_pos_site_id
 _symmetry_equiv_pos_as_xyz
  1  'x, y, z'
loop_
 _atom_site_type_symbol
 _atom_site_label
 _atom_site_symmetry_multiplicity
 _atom_site_fract_x
 _atom_site_fract_y
 _atom_site_fract_z
 _atom_site_occupancy
  Y  Y0_0  1  0.00000000  0.00000000  0.49999900  1
  Y  Y0_1  1  0.00000000  0.00000000  0.99999900  1
  Y  Y0_2  1  0.00000000  0.50000000  0.49999900  1
  Y  Y0_3  1  0.00000000  0.50000000  0.99999900  1
  Y  Y0_4  1  0.50000000  0.00000000  0.49999900  1
  Y  Y0_5  1  0.50000000  0.00000000  0.99999900  1
  Y  Y0_6  1  0.50000000  0.50000000  0.49999900  1
  Y  Y0_7  1  0.50000000  0.50000000  0.99999900  1
  Y  Y1_0  1  0.16666700  0.33333400  0.12499859  1
  Y  Y1_1  1  0.16666700  0.33333400  0.62499859  1
  Y  Y1_2  1  0.16666700  0.83333400  0.12499859  1
  Y  Y1_3  1  0.16666700  0.83333400  0.62499859  1
  Y  Y1_4  1  0.66666700  0.33333400  0.12499859  1
  Y  Y1_5  1  0.66666700  0.33333400  0.62499859  1
  Y  Y1_6  1  0.66666700  0.83333400  0.12499859  1
  Y  Y1_7  1  0.66666700  0.83333400  0.62499859  1
  Y  Y2_0  1  0.00000000  0.00000000  0.25000150  1
  Y  Y2_1  1  0.00000000  0.00000000  0.75000150  1
  Y  Y2_2  1  0.00000000  0.50000000  0.25000150  1
  Y  Y2_3  1  0.00000000  0.50000000  0.75000150  1
  Y  Y2_4  1  0.50000000  0.00000000  0.25000150  1
  Y  Y2_5  1  0.50000000  0.00000000  0.75000150  1
  Y  Y2_6  1  0.50000000  0.50000000  0.25000150  1
  Y  Y2_7  1  0.50000000  0.50000000  0.75000150  1
  Y  Y3_0  1  0.33333250  0.16666600  0.37500141  1
  Y  Y3_1  1  0.33333250  0.16666600  0.87500141  1
  Y  Y3_2  1  0.33333250  0.66666600  0.37500141  1
  Y  Y3_3  1  0.33333250  0.66666600  0.87500141  1
  Y  Y3_4  1  0.83333250  0.16666600  0.37500141  1
  Y  Y3_5  1  0.83333250  0.16666600  0.87500141  1
  Y  Y3_6  1  0.83333250  0.66666600  0.37500141  1
  Y  Y3_7  1  0.83333250  0.66666600  0.87500141  1
loop_
_geom_bond_atom_site_label_1
_geom_bond_atom_site_label_2
_geom_bond_distance
_geom_bond_site_symmetry_2
Y0_0 Y3_0 3.631812 1_555
Y0_0 Y3_4 3.631816 1_455
Y0_0 Y3_6 3.631818 1_445
Y0_0 Y1_7 3.631853 1_445
Y0_0 Y1_3 3.631853 1_545
Y0_0 Y1_1 3.631857 1_555
Y0_0 Y0_4 3.642543 1_555
Y0_0 Y0_4 3.642543 1_455
Y0_0 Y0_6 3.642544 1_445
Y0_0 Y0_6 3.642544 1_555
Y0_0 Y0_2 3.642545 1_555
Y0_0 Y0_2 3.642545 1_545
Y0_1 Y3_1 3.631812 1_555
Y0_1 Y3_5 3.631816 1_455
Y0_1 Y3_7 3.631818 1_445
Y0_1 Y1_6 3.631853 1_446
Y0_1 Y1_2 3.631853 1_546
Y0_1 Y1_0 3.631857 1_556
Y0_1 Y0_5 3.642543 1_455
Y0_1 Y0_5 3.642543 1_555
Y0_1 Y0_7 3.642544 1_445
Y0_1 Y0_7 3.642544 1_555
Y0_1 Y0_3 3.642545 1_555
Y0_1 Y0_3 3.642545 1_545
Y0_2 Y3_2 3.631812 1_555
Y0_2 Y3_6 3.631816 1_455
Y0_2 Y3_4 3.631818 1_455
Y0_2 Y1_5 3.631853 1_455
Y0_2 Y1_1 3.631853 1_555
Y0_2 Y1_3 3.631857 1_555
Y0_2 Y0_6 3.642543 1_555
Y0_2 Y0_6 3.642543 1_455
Y0_2 Y0_4 3.642544 1_455
Y0_2 Y0_4 3.642544 1_565
Y0_3 Y3_3 3.631812 1_555
Y0_3 Y3_7 3.631816 1_455
Y0_3 Y3_5 3.631818 1_455
Y0_3 Y1_4 3.631853 1_456
Y0_3 Y1_0 3.631853 1_556
Y0_3 Y1_2 3.631857 1_556
Y0_3 Y0_7 3.642543 1_555
Y0_3 Y0_7 3.642543 1_455
Y0_3 Y0_5 3.642544 1_455
Y0_3 Y0_5 3.642544 1_565
Y0_4 Y3_4 3.631812 1_555
Y0_4 Y3_0 3.631816 1_555
Y0_4 Y3_2 3.631818 1_545
Y0_4 Y1_3 3.631853 1_545
Y0_4 Y1_7 3.631853 1_545
Y0_4 Y1_5 3.631857 1_555
Y0_4 Y0_6 3.642545 1_545
Y0_4 Y0_6 3.642545 1_555
Y0_5 Y3_5 3.631812 1_555
Y0_5 Y3_1 3.631816 1_555
Y0_5 Y3_3 3.631818 1_545
Y0_5 Y1_2 3.631853 1_546
Y0_5 Y1_6 3.631853 1_546
Y0_5 Y1_4 3.631857 1_556
Y0_5 Y0_7 3.642545 1_545
Y0_5 Y0_7 3.642545 1_555
Y0_6 Y3_6 3.631812 1_555
Y0_6 Y3_2 3.631816 1_555
Y0_6 Y3_0 3.631818 1_555
Y0_6 Y1_1 3.631853 1_555
Y0_6 Y1_5 3.631853 1_555
Y0_6 Y1_7 3.631857 1_555
Y0_7 Y3_7 3.631812 1_555
Y0_7 Y3_3 3.631816 1_555
Y0_7 Y3_1 3.631818 1_555
Y0_7 Y1_0 3.631853 1_556
Y0_7 Y1_4 3.631853 1_556
Y0_7 Y1_6 3.631857 1_556
Y1_0 Y2_6 3.631917 1_555
Y1_0 Y2_2 3.631917 1_555
Y1_0 Y2_0 3.631921 1_555
Y1_0 Y1_4 3.642543 1_455
Y1_0 Y1_4 3.642543 1_555
Y1_0 Y1_6 3.642544 1_445
Y1_0 Y1_6 3.642544 1_555
Y1_0 Y1_2 3.642545 1_545
Y1_0 Y1_2 3.642545 1_555
Y1_1 Y2_7 3.631917 1_555
Y1_1 Y2_3 3.631917 1_555
Y1_1 Y2_1 3.631921 1_555
Y1_1 Y1_5 3.642543 1_455
Y1_1 Y1_5 3.642543 1_555
Y1_1 Y1_7 3.642544 1_445
Y1_1 Y1_7 3.642544 1_555
Y1_1 Y1_3 3.642545 1_545
Y1_1 Y1_3 3.642545 1_555
Y1_2 Y2_4 3.631917 1_565
Y1_2 Y2_0 3.631917 1_565
Y1_2 Y2_2 3.631921 1_555
Y1_2 Y1_6 3.642543 1_455
Y1_2 Y1_6 3.642543 1_555
Y1_2 Y1_4 3.642544 1_455
Y1_2 Y1_4 3.642544 1_565
Y1_3 Y2_5 3.631917 1_565
Y1_3 Y2_1 3.631917 1_565
Y1_3 Y2_3 3.631921 1_555
Y1_3 Y1_7 3.642543 1_455
Y1_3 Y1_7 3.642543 1_555
Y1_3 Y1_5 3.642544 1_455
Y1_3 Y1_5 3.642544 1_565
Y1_4 Y2_2 3.631917 1_655
Y1_4 Y2_6 3.631917 1_555
Y1_4 Y2_4 3.631921 1_555
Y1_4 Y1_6 3.642545 1_545
Y1_4 Y1_6 3.642545 1_555
Y1_5 Y2_3 3.631917 1_655
Y1_5 Y2_7 3.631917 1_555
Y1_5 Y2_5 3.631921 1_555
Y1_5 Y1_7 3.642545 1_555
Y1_5 Y1_7 3.642545 1_545
Y1_6 Y2_0 3.631917 1_665
Y1_6 Y2_4 3.631917 1_565
Y1_6 Y2_6 3.631921 1_555
Y1_7 Y2_1 3.631917 1_665
Y1_7 Y2_5 3.631917 1_565
Y1_7 Y2_7 3.631921 1_555
Y2_0 Y3_0 3.631857 1_555
Y2_0 Y3_4 3.631861 1_455
Y2_0 Y3_6 3.631863 1_445
Y2_0 Y2_4 3.642543 1_555
Y2_0 Y2_4 3.642543 1_455
Y2_0 Y2_6 3.642544 1_445
Y2_0 Y2_6 3.642544 1_555
Y2_0 Y2_2 3.642545 1_545
Y2_0 Y2_2 3.642545 1_555
Y2_1 Y3_1 3.631857 1_555
Y2_1 Y3_5 3.631861 1_455
Y2_1 Y3_7 3.631863 1_445
Y2_1 Y2_5 3.642543 1_555
Y2_1 Y2_5 3.642543 1_455
Y2_1 Y2_7 3.642544 1_445
Y2_1 Y2_7 3.642544 1_555
Y2_1 Y2_3 3.642545 1_545
Y2_1 Y2_3 3.642545 1_555
Y2_2 Y3_2 3.631857 1_555
Y2_2 Y3_6 3.631861 1_455
Y2_2 Y3_4 3.631863 1_455
Y2_2 Y2_6 3.642543 1_555
Y2_2 Y2_6 3.642543 1_455
Y2_2 Y2_4 3.642544 1_455
Y2_2 Y2_4 3.642544 1_565
Y2_3 Y3_3 3.631857 1_555
Y2_3 Y3_7 3.631861 1_455
Y2_3 Y3_5 3.631863 1_455
Y2_3 Y2_7 3.642543 1_555
Y2_3 Y2_7 3.642543 1_455
Y2_3 Y2_5 3.642544 1_455
Y2_3 Y2_5 3.642544 1_565
Y2_4 Y3_4 3.631857 1_555
Y2_4 Y3_0 3.631861 1_555
Y2_4 Y3_2 3.631863 1_545
Y2_4 Y2_6 3.642545 1_545
Y2_4 Y2_6 3.642545 1_555
Y2_5 Y3_5 3.631857 1_555
Y2_5 Y3_1 3.631861 1_555
Y2_5 Y3_3 3.631863 1_545
Y2_5 Y2_7 3.642545 1_545
Y2_5 Y2_7 3.642545 1_555
Y2_6 Y3_6 3.631857 1_555
Y2_6 Y3_2 3.631861 1_555
Y2_6 Y3_0 3.631863 1_555
Y2_7 Y3_7 3.631857 1_555
Y2_7 Y3_3 3.631861 1_555
Y2_7 Y3_1 3.631863 1_555
Y3_0 Y3_4 3.642543 1_455
Y3_0 Y3_4 3.642543 1_555
Y3_0 Y3_6 3.642544 1_445
Y3_0 Y3_6 3.642544 1_555
Y3_0 Y3_2 3.642545 1_555
Y3_0 Y3_2 3.642545 1_545
Y3_1 Y3_5 3.642543 1_455
Y3_1 Y3_5 3.642543 1_555
Y3_1 Y3_7 3.642544 1_445
Y3_1 Y3_7 3.642544 1_555
Y3_1 Y3_3 3.642545 1_545
Y3_1 Y3_3 3.642545 1_555
Y3_2 Y3_6 3.642543 1_555
Y3_2 Y3_6 3.642543 1_455
Y3_2 Y3_4 3.642544 1_565
Y3_2 Y3_4 3.642544 1_455
Y3_3 Y3_7 3.642543 1_555
Y3_3 Y3_7 3.642543 1_455
Y3_3 Y3_5 3.642544 1_565
Y3_3 Y3_5 3.642544 1_455
Y3_4 Y3_6 3.642545 1_545
Y3_4 Y3_6 3.642545 1_555
Y3_5 Y3_7 3.642545 1_545
Y3_5 Y3_7 3.642545 1_555
