# generated using pymatgen
data_Cs3BiF6
_symmetry_space_group_name_H-M   'P 1'
_cell_length_a   9.56191190
_cell_length_b   7.67655058
_cell_length_c   7.72592588
_cell_angle_alpha   76.69420807
_cell_angle_beta   111.38779032
_cell_angle_gamma   128.41765365
_symmetry_Int_Tables_number   1
_chemical_formula_structural   Cs3BiF6
_chemical_formula_sum   'Cs3 Bi1 F6'
_cell_volume   413.72177541
_cell_formula_units_Z   1
loop_
 _symmetry_equiv_pos_site_id
 _symmetry_equiv_pos_as_xyz
  1  'x, y, z'
loop_
 _atom_site_type_symbol
 _atom_site_label
 _atom_site_symmetry_multiplicity
 _atom_site_fract_x
 _atom_site_fract_y
 _atom_site_fract_z
 _atom_site_occupancy
  Cs  Cs0  1  0.00000000  0.00000000  0.50000000  1
  Cs  Cs1  1  0.50000000  0.50000000  0.00000000  1
  Cs  Cs2  1  0.00000000  0.50000000  0.00000000  1
  Bi  Bi0  1  0.00000000  0.00000000  0.00000000  1
  F  F0  1  0.05126100  0.27109000  0.77797400  1
  F  F1  1  0.94873900  0.72891000  0.22202600  1
  F  F2  1  0.78030300  0.71368400  0.79314000  1
  F  F3  1  0.21969700  0.28631600  0.20686000  1
  F  F4  1  0.78643100  0.99942400  0.06870300  1
  F  F5  1  0.21356900  0.00057600  0.93129700  1
loop_
_geom_bond_atom_site_label_1
_geom_bond_atom_site_label_2
_geom_bond_distance
_geom_bond_site_symmetry_2
Cs0 F0 3.033962 1_555
Cs0 F1 3.033962 1_445
Cs0 F3 3.132683 1_555
Cs0 F2 3.132683 1_445
Cs0 F5 3.210319 1_555
Cs0 F4 3.210319 1_445
Cs1 F3 2.980300 1_555
Cs1 F2 2.980300 1_554
Cs1 F4 3.050941 1_555
Cs1 F5 3.050941 1_554
Cs1 F1 3.330170 1_555
Cs1 F0 3.330170 1_554
Cs2 F4 3.052482 1_445
Cs2 F5 3.052482 1_564
Cs2 F1 3.056422 1_455
Cs2 F0 3.056422 1_554
Cs2 F2 3.207043 1_454
Cs2 F3 3.207043 1_555
Bi0 F1 2.283823 1_445
Bi0 F0 2.283823 1_554
Bi0 F3 2.286498 1_555
Bi0 F2 2.286498 1_444
Bi0 F5 2.286992 1_554
Bi0 F4 2.286992 1_445
