# generated using pymatgen
data_Ba3NaY3(Si3O10)2
_symmetry_space_group_name_H-M   'P 1'
_cell_length_a   12.30115740
_cell_length_b   12.30115740
_cell_length_c   14.85988500
_cell_angle_alpha   90.00000000
_cell_angle_beta   90.00000000
_cell_angle_gamma   153.73486593
_symmetry_Int_Tables_number   1
_chemical_formula_structural   Ba3NaY3(Si3O10)2
_chemical_formula_sum   'Ba6 Na2 Y6 Si12 O40'
_cell_volume   995.05199352
_cell_formula_units_Z   2
loop_
 _symmetry_equiv_pos_site_id
 _symmetry_equiv_pos_as_xyz
  1  'x, y, z'
loop_
 _atom_site_type_symbol
 _atom_site_label
 _atom_site_symmetry_multiplicity
 _atom_site_fract_x
 _atom_site_fract_y
 _atom_site_fract_z
 _atom_site_occupancy
  Ba  Ba0  1  0.00904700  0.85028100  0.25000000  1
  Ba  Ba1  1  0.85028100  0.00904700  0.75000000  1
  Ba  Ba2  1  0.68885600  0.17419700  0.88652200  1
  Ba  Ba3  1  0.17419700  0.68885600  0.11347800  1
  Ba  Ba4  1  0.68885600  0.17419700  0.61347800  1
  Ba  Ba5  1  0.17419700  0.68885600  0.38652200  1
  Na  Na0  1  0.47568200  0.25285700  0.75000000  1
  Na  Na1  1  0.25285700  0.47568200  0.25000000  1
  Y  Y0  1  0.61580200  0.39693500  0.02926700  1
  Y  Y1  1  0.39693500  0.61580200  0.97073300  1
  Y  Y2  1  0.61580200  0.39693500  0.47073300  1
  Y  Y3  1  0.39693500  0.61580200  0.52926700  1
  Y  Y4  1  0.99745600  0.99745600  0.00000000  1
  Y  Y5  1  0.99745600  0.99745600  0.50000000  1
  Si  Si0  1  0.63714000  0.28227700  0.25000000  1
  Si  Si1  1  0.28227700  0.63714000  0.75000000  1
  Si  Si2  1  0.11554800  0.81605700  0.94310500  1
  Si  Si3  1  0.81605700  0.11554800  0.05689500  1
  Si  Si4  1  0.11554800  0.81605700  0.55689500  1
  Si  Si5  1  0.81605700  0.11554800  0.44310500  1
  Si  Si6  1  0.44111600  0.44035500  0.86190300  1
  Si  Si7  1  0.44035500  0.44111600  0.13809700  1
  Si  Si8  1  0.44111600  0.44035500  0.63809700  1
  Si  Si9  1  0.44035500  0.44111600  0.36190300  1
  Si  Si10  1  0.10112300  0.71958300  0.75000000  1
  Si  Si11  1  0.71958300  0.10112300  0.25000000  1
  O  O0  1  0.95974100  0.78633400  0.96383100  1
  O  O1  1  0.78633400  0.95974100  0.03616900  1
  O  O2  1  0.95974100  0.78633400  0.53616900  1
  O  O3  1  0.78633400  0.95974100  0.46383100  1
  O  O4  1  0.91890700  0.54349600  0.96958000  1
  O  O5  1  0.54349600  0.91890700  0.03042000  1
  O  O6  1  0.91890700  0.54349600  0.53042000  1
  O  O7  1  0.54349600  0.91890700  0.46958000  1
  O  O8  1  0.45203400  0.43236500  0.75000000  1
  O  O9  1  0.43236500  0.45203400  0.25000000  1
  O  O10  1  0.19975300  0.88243900  0.83524500  1
  O  O11  1  0.88243900  0.19975300  0.16475500  1
  O  O12  1  0.19975300  0.88243900  0.66475500  1
  O  O13  1  0.88243900  0.19975300  0.33524500  1
  O  O14  1  0.78630700  0.29352600  0.25000000  1
  O  O15  1  0.29352600  0.78630700  0.75000000  1
  O  O16  1  0.66891400  0.72224900  0.89430400  1
  O  O17  1  0.72224900  0.66891400  0.10569600  1
  O  O18  1  0.66891400  0.72224900  0.60569600  1
  O  O19  1  0.72224900  0.66891400  0.39430400  1
  O  O20  1  0.36968900  0.02945800  0.00029700  1
  O  O21  1  0.02945800  0.36968900  0.99970300  1
  O  O22  1  0.36968900  0.02945800  0.49970300  1
  O  O23  1  0.02945800  0.36968900  0.50029700  1
  O  O24  1  0.74775200  0.44439600  0.16138200  1
  O  O25  1  0.44439600  0.74775200  0.83861800  1
  O  O26  1  0.74775200  0.44439600  0.33861800  1
  O  O27  1  0.44439600  0.74775200  0.66138200  1
  O  O28  1  0.28355200  0.19010500  0.11004500  1
  O  O29  1  0.19010500  0.28355200  0.88995500  1
  O  O30  1  0.28355200  0.19010500  0.38995500  1
  O  O31  1  0.19010500  0.28355200  0.61004500  1
  O  O32  1  0.34488600  0.99438800  0.25000000  1
  O  O33  1  0.99438800  0.34488600  0.75000000  1
  O  O34  1  0.42201900  0.30531300  0.90999500  1
  O  O35  1  0.30531300  0.42201900  0.09000500  1
  O  O36  1  0.42201900  0.30531300  0.59000500  1
  O  O37  1  0.30531300  0.42201900  0.40999500  1
  O  O38  1  0.81553900  0.43357000  0.75000000  1
  O  O39  1  0.43357000  0.81553900  0.25000000  1
loop_
_geom_bond_atom_site_label_1
_geom_bond_atom_site_label_2
_geom_bond_distance
_geom_bond_site_symmetry_2
Ba0 O32 2.659854 1_555
Ba0 O30 2.808115 1_565
Ba0 O28 2.808115 1_565
Ba0 O17 2.811666 1_455
Ba0 O19 2.811666 1_455
Ba0 O24 2.865549 1_455
Ba0 O26 2.865549 1_455
Ba1 O33 2.659854 1_555
Ba1 O29 2.808115 1_655
Ba1 O31 2.808115 1_655
Ba1 O18 2.811666 1_545
Ba1 O16 2.811666 1_545
Ba1 O25 2.865549 1_545
Ba1 O27 2.865549 1_545
Ba2 O4 2.666822 1_555
Ba2 O5 2.749631 1_546
Ba2 O38 2.794013 1_555
Ba2 O21 2.845245 1_655
Ba2 O33 2.914872 1_555
Ba2 O25 2.962343 1_545
Ba2 O20 2.984243 1_556
Ba2 O15 2.985855 1_545
Ba2 O10 3.306422 1_545
Ba3 O5 2.666822 1_555
Ba3 O4 2.749631 1_454
Ba3 O39 2.794013 1_555
Ba3 O20 2.845245 1_565
Ba3 O32 2.914872 1_555
Ba3 O24 2.962343 1_455
Ba3 O21 2.984243 1_554
Ba3 O14 2.985855 1_455
Ba3 O11 3.306422 1_455
Ba4 O6 2.666822 1_555
Ba4 O7 2.749631 1_545
Ba4 O38 2.794013 1_555
Ba4 O23 2.845245 1_655
Ba4 O33 2.914872 1_555
Ba4 O27 2.962343 1_545
Ba4 O22 2.984243 1_555
Ba4 O15 2.985855 1_545
Ba4 O12 3.306422 1_545
Ba5 O7 2.666822 1_555
Ba5 O6 2.749631 1_455
Ba5 O39 2.794013 1_555
Ba5 O22 2.845245 1_565
Ba5 O32 2.914872 1_555
Ba5 O26 2.962343 1_455
Ba5 O23 2.984243 1_555
Ba5 O14 2.985855 1_455
Ba5 O13 3.306422 1_455
Na0 O38 2.398209 1_555
Na0 O8 2.472374 1_555
Na0 O12 2.479753 1_545
Na0 O10 2.479753 1_545
Na0 O34 2.696038 1_555
Na0 O36 2.696038 1_555
Na1 O39 2.398209 1_555
Na1 O9 2.472374 1_555
Na1 O13 2.479753 1_455
Na1 O11 2.479753 1_455
Na1 O35 2.696038 1_555
Na1 O37 2.696038 1_555
O0 Si2 1.626374 1_655
O0 Y4 2.255617 1_556
O0 Y0 2.333006 1_556
O1 Si3 1.626374 1_565
O1 Y4 2.255617 1_555
O1 Y1 2.333006 1_554
O2 Si4 1.626374 1_655
O2 Y5 2.255617 1_555
O2 Y2 2.333006 1_555
O3 Si5 1.626374 1_565
O3 Y5 2.255617 1_555
O3 Y3 2.333006 1_555
O4 Si2 1.643656 1_655
O4 Y0 2.425471 1_556
O5 Si3 1.643656 1_565
O5 Y1 2.425471 1_554
O6 Si4 1.643656 1_655
O6 Y2 2.425471 1_555
O7 Si5 1.643656 1_565
O7 Y3 2.425471 1_555
O8 Si8 1.678242 1_555
O8 Si6 1.678242 1_555
O9 Si9 1.678242 1_555
O9 Si7 1.678242 1_555
O10 Si10 1.652475 1_555
O10 Si2 1.670822 1_555
O11 Si11 1.652475 1_555
O11 Si3 1.670822 1_555
O12 Si10 1.652475 1_555
O12 Si4 1.670822 1_555
O13 Si11 1.652475 1_555
O13 Si5 1.670822 1_555
O14 Si11 1.670699 1_555
O14 Si0 1.711933 1_555
O15 Si10 1.670699 1_555
O15 Si1 1.711933 1_555
O16 Si6 1.637394 1_555
O16 Y4 2.392164 1_556
O16 Y1 2.518080 1_555
O17 Si7 1.637394 1_555
O17 Y4 2.392164 1_555
O17 Y0 2.518080 1_555
O18 Si8 1.637394 1_555
O18 Y5 2.392164 1_555
O18 Y3 2.518080 1_555
O19 Si9 1.637394 1_555
O19 Y5 2.392164 1_555
O19 Y2 2.518080 1_555
O20 Si2 1.633398 1_544
O20 Y0 2.289103 1_555
O21 Si3 1.633398 1_456
O21 Y1 2.289103 1_555
O22 Si4 1.633398 1_545
O22 Y2 2.289103 1_555
O23 Si5 1.633398 1_455
O23 Y3 2.289103 1_555
O24 Si0 1.641904 1_555
O24 Y0 2.264962 1_555
O25 Si1 1.641904 1_555
O25 Y1 2.264962 1_555
O26 Si0 1.641904 1_555
O26 Y2 2.264962 1_555
O27 Si1 1.641904 1_555
O27 Y3 2.264962 1_555
O28 Si7 1.657268 1_555
O28 Y4 2.391141 1_445
O28 Y0 2.443006 1_555
O29 Si6 1.657268 1_555
O29 Y4 2.391141 1_446
O29 Y1 2.443006 1_555
O30 Si9 1.657268 1_555
O30 Y5 2.391141 1_445
O30 Y2 2.443006 1_555
O31 Si8 1.657268 1_555
O31 Y5 2.391141 1_445
O31 Y3 2.443006 1_555
O32 Si0 1.622275 1_565
O33 Si1 1.622275 1_655
O34 Si6 1.620340 1_555
O34 Y0 2.296810 1_556
O34 Y4 2.816690 1_446
O35 Si7 1.620340 1_555
O35 Y1 2.296810 1_554
O35 Y4 2.816690 1_445
O36 Si8 1.620340 1_555
O36 Y2 2.296810 1_555
O36 Y5 2.816690 1_445
O37 Si9 1.620340 1_555
O37 Y3 2.296810 1_555
O37 Y5 2.816690 1_445
O38 Si10 1.597555 1_655
O39 Si11 1.597555 1_565
