# generated using pymatgen
data_LaTlCd
_symmetry_space_group_name_H-M   'P 1'
_cell_length_a   4.99907948
_cell_length_b   4.99812127
_cell_length_c   7.86390616
_cell_angle_alpha   90.00000000
_cell_angle_beta   90.00000000
_cell_angle_gamma   120.00634870
_symmetry_Int_Tables_number   1
_chemical_formula_structural   LaTlCd
_chemical_formula_sum   'La2 Tl2 Cd2'
_cell_volume   170.15236802
_cell_formula_units_Z   2
loop_
 _symmetry_equiv_pos_site_id
 _symmetry_equiv_pos_as_xyz
  1  'x, y, z'
loop_
 _atom_site_type_symbol
 _atom_site_label
 _atom_site_symmetry_multiplicity
 _atom_site_fract_x
 _atom_site_fract_y
 _atom_site_fract_z
 _atom_site_occupancy
  La  La0  1  -0.00000000  -0.00000000  0.50000000  1
  La  La1  1  -0.00000000  -0.00000000  -0.00000000  1
  Tl  Tl0  1  0.33332223  0.66664546  0.75000000  1
  Tl  Tl1  1  0.66667777  0.33335554  0.25000000  1
  Cd  Cd0  1  0.33329641  0.66659283  0.25000000  1
  Cd  Cd1  1  0.66670459  0.33340717  0.75000000  1
loop_
_geom_bond_atom_site_label_1
_geom_bond_atom_site_label_2
_geom_bond_distance
_geom_bond_site_symmetry_2
La0 Tl1 3.491492 1_445
La0 Tl0 3.491495 1_555
La0 Tl0 3.492065 1_545
La0 Tl1 3.492068 1_555
La0 Tl0 3.492068 1_445
La0 Tl1 3.492069 1_455
La1 Tl1 3.491492 1_445
La1 Tl0 3.491495 1_554
La1 Tl0 3.492065 1_544
La1 Tl1 3.492068 1_555
La1 Tl0 3.492068 1_444
La1 Tl1 3.492069 1_455
Cd0 Tl1 2.885827 1_455
Cd0 Tl1 2.885828 1_555
Cd0 Tl1 2.885898 1_565
Cd0 La0 3.491307 1_555
Cd0 La1 3.491307 1_555
Cd0 La0 3.492161 1_665
Cd0 La1 3.492161 1_665
Cd0 La1 3.492161 1_565
Cd0 La0 3.492161 1_565
Cd1 Tl0 2.885823 1_655
Cd1 Tl0 2.885836 1_555
Cd1 Tl0 2.885893 1_545
Cd1 La0 3.491307 1_665
Cd1 La1 3.491307 1_666
Cd1 La0 3.492157 1_655
Cd1 La1 3.492157 1_656
Cd1 La0 3.492164 1_555
Cd1 La1 3.492164 1_556
