# generated using pymatgen
data_Na2ReO3
_symmetry_space_group_name_H-M   'P 1'
_cell_length_a   5.54613852
_cell_length_b   5.54613355
_cell_length_c   12.10054436
_cell_angle_alpha   90.00002625
_cell_angle_beta   90.00000363
_cell_angle_gamma   120.00251849
_symmetry_Int_Tables_number   1
_chemical_formula_structural   Na2ReO3
_chemical_formula_sum   'Na8 Re4 O12'
_cell_volume   322.33358114
_cell_formula_units_Z   4
loop_
 _symmetry_equiv_pos_site_id
 _symmetry_equiv_pos_as_xyz
  1  'x, y, z'
loop_
 _atom_site_type_symbol
 _atom_site_label
 _atom_site_symmetry_multiplicity
 _atom_site_fract_x
 _atom_site_fract_y
 _atom_site_fract_z
 _atom_site_occupancy
  Na  Na0  1  0.33333560  0.66666884  0.75000138  1
  Na  Na1  1  0.66666624  0.33333378  0.24999887  1
  Na  Na2  1  0.66666826  0.33333663  0.75000139  1
  Na  Na3  1  0.33333329  0.66666627  0.24999882  1
  Na  Na4  1  0.33333052  0.66666377  0.50001883  1
  Na  Na5  1  0.66666387  0.33333147  0.50001901  1
  Na  Na6  1  0.66666321  0.33333127  0.99998127  1
  Na  Na7  1  0.33333115  0.66666377  0.99998126  1
  Re  Re0  1  0.00000596  0.00000649  0.65473113  1
  Re  Re1  1  -0.00000512  -0.00000517  0.34526577  1
  Re  Re2  1  -0.00000420  0.99999478  0.15469722  1
  Re  Re3  1  0.00000661  0.00000569  0.84530078  1
  O  O0  1  0.32216614  0.00000439  0.62353384  1
  O  O1  1  0.67785105  -0.00000514  0.37650782  1
  O  O2  1  0.00000291  0.32216554  0.62353390  1
  O  O3  1  0.67785559  -0.00000369  0.12347599  1
  O  O4  1  0.00000522  0.32216203  0.87648320  1
  O  O5  1  -0.00000382  0.67785255  0.37650845  1
  O  O6  1  0.32216278  0.00000463  0.87648342  1
  O  O7  1  -0.00000324  0.67785380  0.12347592  1
  O  O8  1  0.67783408  0.67783388  0.62353317  1
  O  O9  1  0.32214935  0.32214938  0.37650844  1
  O  O10  1  0.32214763  0.32214757  0.12347504  1
  O  O11  1  0.67783793  0.67783849  0.87648508  1
loop_
_geom_bond_atom_site_label_1
_geom_bond_atom_site_label_2
_geom_bond_distance
_geom_bond_site_symmetry_2
Na0 O2 2.424401 1_555
Na0 O8 2.424452 1_555
Na0 O0 2.424469 1_565
Na0 O4 2.424515 1_555
Na0 O11 2.424577 1_555
Na0 O6 2.424587 1_565
Na1 O5 2.424752 1_655
Na1 O9 2.424808 1_555
Na1 O1 2.424834 1_555
Na1 O7 2.424859 1_655
Na1 O10 2.424920 1_555
Na1 O3 2.424944 1_555
Na2 O0 2.424398 1_555
Na2 O8 2.424444 1_555
Na2 O2 2.424469 1_655
Na2 O6 2.424517 1_555
Na2 O11 2.424573 1_555
Na2 O4 2.424596 1_655
Na3 O1 2.424742 1_565
Na3 O9 2.424808 1_555
Na3 O5 2.424836 1_555
Na3 O3 2.424862 1_565
Na3 O10 2.424919 1_555
Na3 O7 2.424937 1_555
Na4 O2 2.401989 1_555
Na4 O1 2.402017 1_565
Na4 O9 2.402055 1_555
Na4 O8 2.402062 1_555
Na4 O5 2.402082 1_555
Na4 O0 2.402087 1_565
Na5 O0 2.401985 1_555
Na5 O5 2.402017 1_655
Na5 O8 2.402054 1_555
Na5 O9 2.402056 1_555
Na5 O2 2.402084 1_655
Na5 O1 2.402093 1_555
Na6 O6 2.401861 1_555
Na6 O7 2.401902 1_656
Na6 O11 2.401931 1_555
Na6 O10 2.401931 1_556
Na6 O3 2.401974 1_556
Na6 O4 2.401978 1_655
Na7 O4 2.401864 1_555
Na7 O3 2.401905 1_566
Na7 O11 2.401930 1_555
Na7 O10 2.401934 1_556
Na7 O7 2.401967 1_556
Na7 O6 2.401969 1_565
O0 Re0 1.826195 1_555
O1 Re1 1.826213 1_655
O2 Re0 1.826190 1_555
O3 Re2 1.826145 1_645
O4 Re3 1.826133 1_555
O5 Re1 1.826208 1_565
O6 Re3 1.826134 1_555
O7 Re2 1.826146 1_555
O8 Re0 1.826189 1_665
O9 Re1 1.826205 1_555
O10 Re2 1.826142 1_545
O11 Re3 1.826132 1_665
