# generated using pymatgen
data_NdB4Rh7
_symmetry_space_group_name_H-M   'P 1'
_cell_length_a   5.84796400
_cell_length_b   11.14055902
_cell_length_c   19.31213294
_cell_angle_alpha   90.00000737
_cell_angle_beta   90.00000000
_cell_angle_gamma   90.00000000
_symmetry_Int_Tables_number   1
_chemical_formula_structural   NdB4Rh7
_chemical_formula_sum   'Nd8 B32 Rh56'
_cell_volume   1258.17750668
_cell_formula_units_Z   8
loop_
 _symmetry_equiv_pos_site_id
 _symmetry_equiv_pos_as_xyz
  1  'x, y, z'
loop_
 _atom_site_type_symbol
 _atom_site_label
 _atom_site_symmetry_multiplicity
 _atom_site_fract_x
 _atom_site_fract_y
 _atom_site_fract_z
 _atom_site_occupancy
  Nd  Nd0_0  1  0.00000000  0.00001400  0.00000000  1
  Nd  Nd0_1  1  0.00000000  0.00001400  0.50000000  1
  Nd  Nd0_2  1  0.00000000  0.50001400  0.00000000  1
  Nd  Nd0_3  1  0.00000000  0.50001400  0.50000000  1
  Nd  Nd0_4  1  0.50000000  0.00001400  0.00000000  1
  Nd  Nd0_5  1  0.50000000  0.00001400  0.50000000  1
  Nd  Nd0_6  1  0.50000000  0.50001400  0.00000000  1
  Nd  Nd0_7  1  0.50000000  0.50001400  0.50000000  1
  B  B0_0  1  0.00000000  0.49968500  0.16673800  1
  B  B0_1  1  0.00000000  0.49968500  0.66673800  1
  B  B0_2  1  0.00000000  0.99968500  0.16673800  1
  B  B0_3  1  0.00000000  0.99968500  0.66673800  1
  B  B0_4  1  0.50000000  0.49968500  0.16673800  1
  B  B0_5  1  0.50000000  0.49968500  0.66673800  1
  B  B0_6  1  0.50000000  0.99968500  0.16673800  1
  B  B0_7  1  0.50000000  0.99968500  0.66673800  1
  B  B1_0  1  0.00000000  0.25027200  0.41635150  1
  B  B1_1  1  0.00000000  0.25027200  0.91635150  1
  B  B1_2  1  0.00000000  0.75027200  0.41635150  1
  B  B1_3  1  0.00000000  0.75027200  0.91635150  1
  B  B1_4  1  0.50000000  0.25027200  0.41635150  1
  B  B1_5  1  0.50000000  0.25027200  0.91635150  1
  B  B1_6  1  0.50000000  0.75027200  0.41635150  1
  B  B1_7  1  0.50000000  0.75027200  0.91635150  1
  B  B2_0  1  0.00000000  0.25027200  0.08364850  1
  B  B2_1  1  0.00000000  0.25027200  0.58364850  1
  B  B2_2  1  0.00000000  0.75027200  0.08364850  1
  B  B2_3  1  0.00000000  0.75027200  0.58364850  1
  B  B2_4  1  0.50000000  0.25027200  0.08364850  1
  B  B2_5  1  0.50000000  0.25027200  0.58364850  1
  B  B2_6  1  0.50000000  0.75027200  0.08364850  1
  B  B2_7  1  0.50000000  0.75027200  0.58364850  1
  B  B3_0  1  0.00000000  0.49968500  0.33326200  1
  B  B3_1  1  0.00000000  0.49968500  0.83326200  1
  B  B3_2  1  0.00000000  0.99968500  0.33326200  1
  B  B3_3  1  0.00000000  0.99968500  0.83326200  1
  B  B3_4  1  0.50000000  0.49968500  0.33326200  1
  B  B3_5  1  0.50000000  0.49968500  0.83326200  1
  B  B3_6  1  0.50000000  0.99968500  0.33326200  1
  B  B3_7  1  0.50000000  0.99968500  0.83326200  1
  Rh  Rh0_0  1  0.25000000  0.00281250  0.25000000  1
  Rh  Rh0_1  1  0.25000000  0.00281250  0.75000000  1
  Rh  Rh0_2  1  0.25000000  0.50281250  0.25000000  1
  Rh  Rh0_3  1  0.25000000  0.50281250  0.75000000  1
  Rh  Rh0_4  1  0.75000000  0.00281250  0.25000000  1
  Rh  Rh0_5  1  0.75000000  0.00281250  0.75000000  1
  Rh  Rh0_6  1  0.75000000  0.50281250  0.25000000  1
  Rh  Rh0_7  1  0.75000000  0.50281250  0.75000000  1
  Rh  Rh1_0  1  0.25000000  0.25046750  0.00000000  1
  Rh  Rh1_1  1  0.25000000  0.25046750  0.50000000  1
  Rh  Rh1_2  1  0.25000000  0.75046750  0.00000000  1
  Rh  Rh1_3  1  0.25000000  0.75046750  0.50000000  1
  Rh  Rh1_4  1  0.75000000  0.25046750  0.00000000  1
  Rh  Rh1_5  1  0.75000000  0.25046750  0.50000000  1
  Rh  Rh1_6  1  0.75000000  0.75046750  0.00000000  1
  Rh  Rh1_7  1  0.75000000  0.75046750  0.50000000  1
  Rh  Rh2_0  1  0.25000000  0.12750100  0.12829350  1
  Rh  Rh2_1  1  0.25000000  0.12750100  0.62829350  1
  Rh  Rh2_2  1  0.25000000  0.62750100  0.12829350  1
  Rh  Rh2_3  1  0.25000000  0.62750100  0.62829350  1
  Rh  Rh2_4  1  0.75000000  0.12750100  0.12829350  1
  Rh  Rh2_5  1  0.75000000  0.12750100  0.62829350  1
  Rh  Rh2_6  1  0.75000000  0.62750100  0.12829350  1
  Rh  Rh2_7  1  0.75000000  0.62750100  0.62829350  1
  Rh  Rh3_0  1  0.25000000  0.37076950  0.37019700  1
  Rh  Rh3_1  1  0.25000000  0.37076950  0.87019700  1
  Rh  Rh3_2  1  0.25000000  0.87076950  0.37019700  1
  Rh  Rh3_3  1  0.25000000  0.87076950  0.87019700  1
  Rh  Rh3_4  1  0.75000000  0.37076950  0.37019700  1
  Rh  Rh3_5  1  0.75000000  0.37076950  0.87019700  1
  Rh  Rh3_6  1  0.75000000  0.87076950  0.37019700  1
  Rh  Rh3_7  1  0.75000000  0.87076950  0.87019700  1
  Rh  Rh4_0  1  0.25000000  0.37076950  0.12980300  1
  Rh  Rh4_1  1  0.25000000  0.37076950  0.62980300  1
  Rh  Rh4_2  1  0.25000000  0.87076950  0.12980300  1
  Rh  Rh4_3  1  0.25000000  0.87076950  0.62980300  1
  Rh  Rh4_4  1  0.75000000  0.37076950  0.12980300  1
  Rh  Rh4_5  1  0.75000000  0.37076950  0.62980300  1
  Rh  Rh4_6  1  0.75000000  0.87076950  0.12980300  1
  Rh  Rh4_7  1  0.75000000  0.87076950  0.62980300  1
  Rh  Rh5_0  1  0.25000000  0.12750100  0.37170650  1
  Rh  Rh5_1  1  0.25000000  0.12750100  0.87170650  1
  Rh  Rh5_2  1  0.25000000  0.62750100  0.37170650  1
  Rh  Rh5_3  1  0.25000000  0.62750100  0.87170650  1
  Rh  Rh5_4  1  0.75000000  0.12750100  0.37170650  1
  Rh  Rh5_5  1  0.75000000  0.12750100  0.87170650  1
  Rh  Rh5_6  1  0.75000000  0.62750100  0.37170650  1
  Rh  Rh5_7  1  0.75000000  0.62750100  0.87170650  1
  Rh  Rh6_0  1  0.00000000  0.25015000  0.25000000  1
  Rh  Rh6_1  1  0.00000000  0.25015000  0.75000000  1
  Rh  Rh6_2  1  0.00000000  0.75015000  0.25000000  1
  Rh  Rh6_3  1  0.00000000  0.75015000  0.75000000  1
  Rh  Rh6_4  1  0.50000000  0.25015000  0.25000000  1
  Rh  Rh6_5  1  0.50000000  0.25015000  0.75000000  1
  Rh  Rh6_6  1  0.50000000  0.75015000  0.25000000  1
  Rh  Rh6_7  1  0.50000000  0.75015000  0.75000000  1
loop_
_geom_bond_atom_site_label_1
_geom_bond_atom_site_label_2
_geom_bond_distance
_geom_bond_site_symmetry_2
Nd0_0 Nd0_4 2.923982 1_555
Nd0_0 Nd0_4 2.923982 1_455
Nd0_0 Rh1_6 3.141067 1_445
Nd0_0 Rh1_2 3.141067 1_545
Nd0_0 Rh1_0 3.150014 1_555
Nd0_0 Rh1_4 3.150014 1_455
Nd0_0 Rh2_4 3.208303 1_455
Nd0_0 Rh2_0 3.208303 1_555
Nd0_0 Rh5_1 3.208303 1_554
Nd0_0 Rh5_5 3.208303 1_454
Nd0_0 Rh3_7 3.239523 1_444
Nd0_0 Rh3_3 3.239523 1_544
Nd0_0 Rh4_2 3.239524 1_545
Nd0_0 Rh4_6 3.239524 1_445
Nd0_1 Nd0_5 2.923982 1_455
Nd0_1 Nd0_5 2.923982 1_555
Nd0_1 Rh1_3 3.141067 1_545
Nd0_1 Rh1_7 3.141067 1_445
Nd0_1 Rh1_5 3.150014 1_455
Nd0_1 Rh1_1 3.150014 1_555
Nd0_1 Rh2_1 3.208303 1_555
Nd0_1 Rh2_5 3.208303 1_455
Nd0_1 Rh5_0 3.208303 1_555
Nd0_1 Rh5_4 3.208303 1_455
Nd0_1 Rh3_6 3.239523 1_445
Nd0_1 Rh3_2 3.239523 1_545
Nd0_1 Rh4_3 3.239524 1_545
Nd0_1 Rh4_7 3.239524 1_445
Nd0_2 Nd0_6 2.923982 1_555
Nd0_2 Nd0_6 2.923982 1_455
Nd0_2 Rh1_0 3.141067 1_555
Nd0_2 Rh1_4 3.141067 1_455
Nd0_2 Rh1_2 3.150014 1_555
Nd0_2 Rh1_6 3.150014 1_455
Nd0_2 Rh2_2 3.208303 1_555
Nd0_2 Rh2_6 3.208303 1_455
Nd0_2 Rh5_7 3.208303 1_454
Nd0_2 Rh5_3 3.208303 1_554
Nd0_2 Rh3_1 3.239523 1_554
Nd0_2 Rh3_5 3.239523 1_454
Nd0_2 Rh4_0 3.239524 1_555
Nd0_2 Rh4_4 3.239524 1_455
Nd0_3 Nd0_7 2.923982 1_555
Nd0_3 Nd0_7 2.923982 1_455
Nd0_3 Rh1_1 3.141067 1_555
Nd0_3 Rh1_5 3.141067 1_455
Nd0_3 Rh1_3 3.150014 1_555
Nd0_3 Rh1_7 3.150014 1_455
Nd0_3 Rh2_3 3.208303 1_555
Nd0_3 Rh2_7 3.208303 1_455
Nd0_3 Rh5_6 3.208303 1_455
Nd0_3 Rh5_2 3.208303 1_555
Nd0_3 Rh3_0 3.239523 1_555
Nd0_3 Rh3_4 3.239523 1_455
Nd0_3 Rh4_1 3.239524 1_555
Nd0_3 Rh4_5 3.239524 1_455
Nd0_4 Rh1_6 3.141067 1_545
Nd0_4 Rh1_2 3.141067 1_545
Nd0_4 Rh1_4 3.150014 1_555
Nd0_4 Rh1_0 3.150014 1_555
Nd0_4 Rh2_4 3.208303 1_555
Nd0_4 Rh2_0 3.208303 1_555
Nd0_4 Rh5_5 3.208303 1_554
Nd0_4 Rh5_1 3.208303 1_554
Nd0_4 Rh3_7 3.239523 1_544
Nd0_4 Rh3_3 3.239523 1_544
Nd0_4 Rh4_6 3.239524 1_545
Nd0_4 Rh4_2 3.239524 1_545
Nd0_5 Rh1_7 3.141067 1_545
Nd0_5 Rh1_3 3.141067 1_545
Nd0_5 Rh1_5 3.150014 1_555
Nd0_5 Rh1_1 3.150014 1_555
Nd0_5 Rh2_5 3.208303 1_555
Nd0_5 Rh2_1 3.208303 1_555
Nd0_5 Rh5_4 3.208303 1_555
Nd0_5 Rh5_0 3.208303 1_555
Nd0_5 Rh3_6 3.239523 1_545
Nd0_5 Rh3_2 3.239523 1_545
Nd0_5 Rh4_7 3.239524 1_545
Nd0_5 Rh4_3 3.239524 1_545
Nd0_6 Rh1_4 3.141067 1_555
Nd0_6 Rh1_0 3.141067 1_555
Nd0_6 Rh1_6 3.150014 1_555
Nd0_6 Rh1_2 3.150014 1_555
Nd0_6 Rh2_6 3.208303 1_555
Nd0_6 Rh2_2 3.208303 1_555
Nd0_6 Rh5_7 3.208303 1_554
Nd0_6 Rh5_3 3.208303 1_554
Nd0_6 Rh3_5 3.239523 1_554
Nd0_6 Rh3_1 3.239523 1_554
Nd0_6 Rh4_4 3.239524 1_555
Nd0_6 Rh4_0 3.239524 1_555
Nd0_7 Rh1_5 3.141067 1_555
Nd0_7 Rh1_1 3.141067 1_555
Nd0_7 Rh1_7 3.150014 1_555
Nd0_7 Rh1_3 3.150014 1_555
Nd0_7 Rh2_7 3.208303 1_555
Nd0_7 Rh2_3 3.208303 1_555
Nd0_7 Rh5_6 3.208303 1_555
Nd0_7 Rh5_2 3.208303 1_555
Nd0_7 Rh3_4 3.239523 1_555
Nd0_7 Rh3_0 3.239523 1_555
Nd0_7 Rh4_5 3.239524 1_555
Nd0_7 Rh4_1 3.239524 1_555
B0_0 Rh4_0 2.169988 1_555
B0_0 Rh4_4 2.169988 1_455
B0_0 Rh2_2 2.171694 1_555
B0_0 Rh2_6 2.171694 1_455
B0_0 Rh0_2 2.173520 1_555
B0_0 Rh0_6 2.173520 1_455
B0_0 Nd0_2 3.220069 1_555
B0_1 Rh4_1 2.169988 1_555
B0_1 Rh4_5 2.169988 1_455
B0_1 Rh2_3 2.171694 1_555
B0_1 Rh2_7 2.171694 1_455
B0_1 Rh0_3 2.173520 1_555
B0_1 Rh0_7 2.173520 1_455
B0_1 Nd0_3 3.220069 1_555
B0_2 Rh4_2 2.169988 1_555
B0_2 Rh4_6 2.169988 1_455
B0_2 Rh2_0 2.171694 1_565
B0_2 Rh2_4 2.171694 1_465
B0_2 Rh0_0 2.173520 1_565
B0_2 Rh0_4 2.173520 1_465
B0_2 Nd0_0 3.220069 1_565
B0_3 Rh4_3 2.169988 1_555
B0_3 Rh4_7 2.169988 1_455
B0_3 Rh2_1 2.171694 1_565
B0_3 Rh2_5 2.171694 1_465
B0_3 Rh0_5 2.173520 1_465
B0_3 Rh0_1 2.173520 1_565
B0_3 Nd0_1 3.220069 1_565
B0_4 Rh4_4 2.169988 1_555
B0_4 Rh4_0 2.169988 1_555
B0_4 Rh2_6 2.171694 1_555
B0_4 Rh2_2 2.171694 1_555
B0_4 Rh0_6 2.173520 1_555
B0_4 Rh0_2 2.173520 1_555
B0_4 Nd0_6 3.220069 1_555
B0_5 Rh4_5 2.169988 1_555
B0_5 Rh4_1 2.169988 1_555
B0_5 Rh2_7 2.171694 1_555
B0_5 Rh2_3 2.171694 1_555
B0_5 Rh0_7 2.173520 1_555
B0_5 Rh0_3 2.173520 1_555
B0_5 Nd0_7 3.220069 1_555
B0_6 Rh4_6 2.169988 1_555
B0_6 Rh4_2 2.169988 1_555
B0_6 Rh2_4 2.171694 1_565
B0_6 Rh2_0 2.171694 1_565
B0_6 Rh0_4 2.173520 1_565
B0_6 Rh0_0 2.173520 1_565
B0_6 Nd0_4 3.220069 1_565
B0_7 Rh4_7 2.169988 1_555
B0_7 Rh4_3 2.169988 1_555
B0_7 Rh2_5 2.171694 1_565
B0_7 Rh2_1 2.171694 1_565
B0_7 Rh0_5 2.173520 1_565
B0_7 Rh0_1 2.173520 1_565
B0_7 Nd0_5 3.220069 1_565
B1_0 Rh3_0 2.175769 1_555
B1_0 Rh3_4 2.175769 1_455
B1_0 Rh1_1 2.178770 1_555
B1_0 Rh1_5 2.178770 1_455
B1_0 Rh5_0 2.179793 1_555
B1_0 Rh5_4 2.179793 1_455
B1_0 Nd0_3 3.217238 1_555
B1_0 Nd0_1 3.222210 1_555
B1_1 Rh3_1 2.175769 1_555
B1_1 Rh3_5 2.175769 1_455
B1_1 Rh1_0 2.178770 1_556
B1_1 Rh1_4 2.178770 1_456
B1_1 Rh5_1 2.179793 1_555
B1_1 Rh5_5 2.179793 1_455
B1_1 Nd0_2 3.217238 1_556
B1_1 Nd0_0 3.222210 1_556
B1_2 Rh3_2 2.175769 1_555
B1_2 Rh3_6 2.175769 1_455
B1_2 Rh1_3 2.178770 1_555
B1_2 Rh1_7 2.178770 1_455
B1_2 Rh5_2 2.179793 1_555
B1_2 Rh5_6 2.179793 1_455
B1_2 Nd0_1 3.217238 1_565
B1_2 Nd0_3 3.222210 1_555
B1_3 Rh3_3 2.175769 1_555
B1_3 Rh3_7 2.175769 1_455
B1_3 Rh1_2 2.178770 1_556
B1_3 Rh1_6 2.178770 1_456
B1_3 Rh5_3 2.179793 1_555
B1_3 Rh5_7 2.179793 1_455
B1_3 Nd0_0 3.217238 1_566
B1_3 Nd0_2 3.222210 1_556
B1_4 Rh3_4 2.175769 1_555
B1_4 Rh3_0 2.175769 1_555
B1_4 Rh1_5 2.178770 1_555
B1_4 Rh1_1 2.178770 1_555
B1_4 Rh5_4 2.179793 1_555
B1_4 Rh5_0 2.179793 1_555
B1_4 Nd0_7 3.217238 1_555
B1_4 Nd0_5 3.222210 1_555
B1_5 Rh3_5 2.175769 1_555
B1_5 Rh3_1 2.175769 1_555
B1_5 Rh1_4 2.178770 1_556
B1_5 Rh1_0 2.178770 1_556
B1_5 Rh5_5 2.179793 1_555
B1_5 Rh5_1 2.179793 1_555
B1_5 Nd0_6 3.217238 1_556
B1_5 Nd0_4 3.222210 1_556
B1_6 Rh3_6 2.175769 1_555
B1_6 Rh3_2 2.175769 1_555
B1_6 Rh1_7 2.178770 1_555
B1_6 Rh1_3 2.178770 1_555
B1_6 Rh5_6 2.179793 1_555
B1_6 Rh5_2 2.179793 1_555
B1_6 Nd0_5 3.217238 1_565
B1_6 Nd0_7 3.222210 1_555
B1_7 Rh3_7 2.175769 1_555
B1_7 Rh3_3 2.175769 1_555
B1_7 Rh1_6 2.178770 1_556
B1_7 Rh1_2 2.178770 1_556
B1_7 Rh5_7 2.179793 1_555
B1_7 Rh5_3 2.179793 1_555
B1_7 Nd0_4 3.217238 1_566
B1_7 Nd0_6 3.222210 1_556
B2_0 Rh4_0 2.175769 1_555
B2_0 Rh4_4 2.175769 1_455
B2_0 Rh1_0 2.178770 1_555
B2_0 Rh1_4 2.178770 1_455
B2_0 Rh2_0 2.179793 1_555
B2_0 Rh2_4 2.179793 1_455
B2_0 Nd0_2 3.217238 1_555
B2_0 Nd0_0 3.222210 1_555
B2_1 Rh4_1 2.175769 1_555
B2_1 Rh4_5 2.175769 1_455
B2_1 Rh1_1 2.178770 1_555
B2_1 Rh1_5 2.178770 1_455
B2_1 Rh2_1 2.179793 1_555
B2_1 Rh2_5 2.179793 1_455
B2_1 Nd0_3 3.217238 1_555
B2_1 Nd0_1 3.222210 1_555
B2_2 Rh4_2 2.175769 1_555
B2_2 Rh4_6 2.175769 1_455
B2_2 Rh1_2 2.178770 1_555
B2_2 Rh1_6 2.178770 1_455
B2_2 Rh2_2 2.179793 1_555
B2_2 Rh2_6 2.179793 1_455
B2_2 Nd0_0 3.217238 1_565
B2_2 Nd0_2 3.222210 1_555
B2_3 Rh4_3 2.175769 1_555
B2_3 Rh4_7 2.175769 1_455
B2_3 Rh1_3 2.178770 1_555
B2_3 Rh1_7 2.178770 1_455
B2_3 Rh2_3 2.179793 1_555
B2_3 Rh2_7 2.179793 1_455
B2_3 Nd0_1 3.217238 1_565
B2_3 Nd0_3 3.222210 1_555
B2_4 Rh4_4 2.175769 1_555
B2_4 Rh4_0 2.175769 1_555
B2_4 Rh1_4 2.178770 1_555
B2_4 Rh1_0 2.178770 1_555
B2_4 Rh2_4 2.179793 1_555
B2_4 Rh2_0 2.179793 1_555
B2_4 Nd0_6 3.217238 1_555
B2_4 Nd0_4 3.222210 1_555
B2_5 Rh4_5 2.175769 1_555
B2_5 Rh4_1 2.175769 1_555
B2_5 Rh1_5 2.178770 1_555
B2_5 Rh1_1 2.178770 1_555
B2_5 Rh2_5 2.179793 1_555
B2_5 Rh2_1 2.179793 1_555
B2_5 Nd0_7 3.217238 1_555
B2_5 Nd0_5 3.222210 1_555
B2_6 Rh4_6 2.175769 1_555
B2_6 Rh4_2 2.175769 1_555
B2_6 Rh1_6 2.178770 1_555
B2_6 Rh1_2 2.178770 1_555
B2_6 Rh2_6 2.179793 1_555
B2_6 Rh2_2 2.179793 1_555
B2_6 Nd0_4 3.217238 1_565
B2_6 Nd0_6 3.222210 1_555
B2_7 Rh4_7 2.175769 1_555
B2_7 Rh4_3 2.175769 1_555
B2_7 Rh1_7 2.178770 1_555
B2_7 Rh1_3 2.178770 1_555
B2_7 Rh2_7 2.179793 1_555
B2_7 Rh2_3 2.179793 1_555
B2_7 Nd0_5 3.217238 1_565
B2_7 Nd0_7 3.222210 1_555
B3_0 Rh3_0 2.169988 1_555
B3_0 Rh3_4 2.169988 1_455
B3_0 Rh5_2 2.171693 1_555
B3_0 Rh5_6 2.171693 1_455
B3_0 Rh0_6 2.173520 1_455
B3_0 Rh0_2 2.173520 1_555
B3_0 Nd0_3 3.220069 1_555
B3_1 Rh3_1 2.169988 1_555
B3_1 Rh3_5 2.169988 1_455
B3_1 Rh5_3 2.171693 1_555
B3_1 Rh5_7 2.171693 1_455
B3_1 Rh0_3 2.173520 1_555
B3_1 Rh0_7 2.173520 1_455
B3_1 Nd0_2 3.220069 1_556
B3_2 Rh3_2 2.169988 1_555
B3_2 Rh3_6 2.169988 1_455
B3_2 Rh5_0 2.171693 1_565
B3_2 Rh5_4 2.171693 1_465
B3_2 Rh0_4 2.173520 1_465
B3_2 Rh0_0 2.173520 1_565
B3_2 Nd0_1 3.220069 1_565
B3_3 Rh3_3 2.169988 1_555
B3_3 Rh3_7 2.169988 1_455
B3_3 Rh5_1 2.171693 1_565
B3_3 Rh5_5 2.171693 1_465
B3_3 Rh0_1 2.173520 1_565
B3_3 Rh0_5 2.173520 1_465
B3_3 Nd0_0 3.220069 1_566
B3_4 Rh3_4 2.169988 1_555
B3_4 Rh3_0 2.169988 1_555
B3_4 Rh5_6 2.171693 1_555
B3_4 Rh5_2 2.171693 1_555
B3_4 Rh0_6 2.173520 1_555
B3_4 Rh0_2 2.173520 1_555
B3_4 Nd0_7 3.220069 1_555
B3_5 Rh3_5 2.169988 1_555
B3_5 Rh3_1 2.169988 1_555
B3_5 Rh5_7 2.171693 1_555
B3_5 Rh5_3 2.171693 1_555
B3_5 Rh0_7 2.173520 1_555
B3_5 Rh0_3 2.173520 1_555
B3_5 Nd0_6 3.220069 1_556
B3_6 Rh3_6 2.169988 1_555
B3_6 Rh3_2 2.169988 1_555
B3_6 Rh5_4 2.171693 1_565
B3_6 Rh5_0 2.171693 1_565
B3_6 Rh0_4 2.173520 1_565
B3_6 Rh0_0 2.173520 1_565
B3_6 Nd0_5 3.220069 1_565
B3_7 Rh3_7 2.169988 1_555
B3_7 Rh3_3 2.169988 1_555
B3_7 Rh5_5 2.171693 1_565
B3_7 Rh5_1 2.171693 1_565
B3_7 Rh0_5 2.173520 1_565
B3_7 Rh0_1 2.173520 1_565
B3_7 Nd0_4 3.220069 1_566
Rh0_0 Rh6_0 3.119307 1_555
Rh0_0 Rh6_4 3.119307 1_555
Rh0_0 Rh6_6 3.171833 1_545
Rh0_0 Rh6_2 3.171833 1_545
Rh0_1 Rh6_5 3.119307 1_555
Rh0_1 Rh6_1 3.119307 1_555
Rh0_1 Rh6_3 3.171833 1_545
Rh0_1 Rh6_7 3.171833 1_545
Rh0_2 Rh6_2 3.119307 1_555
Rh0_2 Rh6_6 3.119307 1_555
Rh0_2 Rh6_0 3.171833 1_555
Rh0_2 Rh6_4 3.171833 1_555
Rh0_3 Rh6_3 3.119307 1_555
Rh0_3 Rh6_7 3.119307 1_555
Rh0_3 Rh6_1 3.171833 1_555
Rh0_3 Rh6_5 3.171833 1_555
Rh0_4 Rh6_4 3.119307 1_555
Rh0_4 Rh6_0 3.119307 1_655
Rh0_4 Rh6_6 3.171833 1_545
Rh0_4 Rh6_2 3.171833 1_645
Rh0_5 Rh6_5 3.119307 1_555
Rh0_5 Rh6_1 3.119307 1_655
Rh0_5 Rh6_7 3.171833 1_545
Rh0_5 Rh6_3 3.171833 1_645
Rh0_6 Rh6_6 3.119307 1_555
Rh0_6 Rh6_2 3.119307 1_655
Rh0_6 Rh6_4 3.171833 1_555
Rh0_6 Rh6_0 3.171833 1_655
Rh0_7 Rh6_7 3.119307 1_555
Rh0_7 Rh6_3 3.119307 1_655
Rh0_7 Rh6_5 3.171833 1_555
Rh0_7 Rh6_1 3.171833 1_655
Rh2_0 Rh6_0 3.086883 1_555
Rh2_0 Rh6_4 3.086883 1_555
Rh2_1 Rh6_1 3.086883 1_555
Rh2_1 Rh6_5 3.086883 1_555
Rh2_2 Rh6_2 3.086883 1_555
Rh2_2 Rh6_6 3.086883 1_555
Rh2_3 Rh6_7 3.086883 1_555
Rh2_3 Rh6_3 3.086883 1_555
Rh2_4 Rh6_4 3.086883 1_555
Rh2_4 Rh6_0 3.086883 1_655
Rh2_5 Rh6_5 3.086883 1_555
Rh2_5 Rh6_1 3.086883 1_655
Rh2_6 Rh6_6 3.086883 1_555
Rh2_6 Rh6_2 3.086883 1_655
Rh2_7 Rh6_7 3.086883 1_555
Rh2_7 Rh6_3 3.086883 1_655
Rh3_0 Rh6_0 3.054731 1_555
Rh3_0 Rh6_4 3.054731 1_555
Rh3_1 Rh6_1 3.054731 1_555
Rh3_1 Rh6_5 3.054731 1_555
Rh3_2 Rh6_2 3.054731 1_555
Rh3_2 Rh6_6 3.054731 1_555
Rh3_3 Rh6_7 3.054731 1_555
Rh3_3 Rh6_3 3.054731 1_555
Rh3_4 Rh6_4 3.054731 1_555
Rh3_4 Rh6_0 3.054731 1_655
Rh3_5 Rh6_5 3.054731 1_555
Rh3_5 Rh6_1 3.054731 1_655
Rh3_6 Rh6_6 3.054731 1_555
Rh3_6 Rh6_2 3.054731 1_655
Rh3_7 Rh6_7 3.054731 1_555
Rh3_7 Rh6_3 3.054731 1_655
Rh4_0 Rh6_0 3.054731 1_555
Rh4_0 Rh6_4 3.054731 1_555
Rh4_1 Rh6_1 3.054731 1_555
Rh4_1 Rh6_5 3.054731 1_555
Rh4_2 Rh6_6 3.054731 1_555
Rh4_2 Rh6_2 3.054731 1_555
Rh4_3 Rh6_3 3.054731 1_555
Rh4_3 Rh6_7 3.054731 1_555
Rh4_4 Rh6_4 3.054731 1_555
Rh4_4 Rh6_0 3.054731 1_655
Rh4_5 Rh6_5 3.054731 1_555
Rh4_5 Rh6_1 3.054731 1_655
Rh4_6 Rh6_6 3.054731 1_555
Rh4_6 Rh6_2 3.054731 1_655
Rh4_7 Rh6_7 3.054731 1_555
Rh4_7 Rh6_3 3.054731 1_655
Rh5_0 Rh6_0 3.086883 1_555
Rh5_0 Rh6_4 3.086883 1_555
Rh5_1 Rh6_5 3.086883 1_555
Rh5_1 Rh6_1 3.086883 1_555
Rh5_2 Rh6_2 3.086883 1_555
Rh5_2 Rh6_6 3.086883 1_555
Rh5_3 Rh6_7 3.086883 1_555
Rh5_3 Rh6_3 3.086883 1_555
Rh5_4 Rh6_4 3.086883 1_555
Rh5_4 Rh6_0 3.086883 1_655
Rh5_5 Rh6_5 3.086883 1_555
Rh5_5 Rh6_1 3.086883 1_655
Rh5_6 Rh6_6 3.086883 1_555
Rh5_6 Rh6_2 3.086883 1_655
Rh5_7 Rh6_7 3.086883 1_555
Rh5_7 Rh6_3 3.086883 1_655
Rh6_0 Rh6_4 2.923982 1_555
Rh6_0 Rh6_4 2.923982 1_455
Rh6_1 Rh6_5 2.923982 1_455
Rh6_1 Rh6_5 2.923982 1_555
Rh6_2 Rh6_6 2.923982 1_555
Rh6_2 Rh6_6 2.923982 1_455
Rh6_3 Rh6_7 2.923982 1_455
Rh6_3 Rh6_7 2.923982 1_555
