# generated using pymatgen
data_UTeS
_symmetry_space_group_name_H-M   'P 1'
_cell_length_a   4.31779027
_cell_length_b   7.72932334
_cell_length_c   8.94853470
_cell_angle_alpha   90.00000000
_cell_angle_beta   90.00000000
_cell_angle_gamma   90.00000000
_symmetry_Int_Tables_number   1
_chemical_formula_structural   UTeS
_chemical_formula_sum   'U4 Te4 S4'
_cell_volume   298.64479181
_cell_formula_units_Z   4
loop_
 _symmetry_equiv_pos_site_id
 _symmetry_equiv_pos_as_xyz
  1  'x, y, z'
loop_
 _atom_site_type_symbol
 _atom_site_label
 _atom_site_symmetry_multiplicity
 _atom_site_fract_x
 _atom_site_fract_y
 _atom_site_fract_z
 _atom_site_occupancy
  U  U0  1  0.25000000  0.20964510  0.87864678  1
  U  U1  1  0.75000000  0.79035490  0.12135322  1
  U  U2  1  0.25000000  0.70964510  0.62135322  1
  U  U3  1  0.75000000  0.29035490  0.37864678  1
  Te  Te0  1  0.25000000  0.97329529  0.33727113  1
  Te  Te1  1  0.75000000  0.52670471  0.83727113  1
  Te  Te2  1  0.25000000  0.47329529  0.16272887  1
  Te  Te3  1  0.75000000  0.02670471  0.66272887  1
  S  S0  1  0.75000000  0.14733029  0.06769825  1
  S  S1  1  0.25000000  0.35266971  0.56769825  1
  S  S2  1  0.75000000  0.64733029  0.43230175  1
  S  S3  1  0.25000000  0.85266971  0.93230175  1
loop_
_geom_bond_atom_site_label_1
_geom_bond_atom_site_label_2
_geom_bond_distance
_geom_bond_site_symmetry_2
Te0 U1 3.223886 1_455
Te0 U1 3.223886 1_555
Te0 U2 3.258090 1_555
Te0 U3 3.286888 1_465
Te0 U3 3.286888 1_565
Te1 U2 3.223886 1_555
Te1 U2 3.223886 1_655
Te1 U1 3.258090 1_556
Te1 U0 3.286888 1_655
Te1 U0 3.286888 1_555
Te2 U3 3.223886 1_455
Te2 U3 3.223886 1_555
Te2 U0 3.258090 1_554
Te2 U1 3.286888 1_455
Te2 U1 3.286888 1_555
Te3 U0 3.223886 1_655
Te3 U0 3.223886 1_555
Te3 U3 3.258090 1_555
Te3 U2 3.286888 1_645
Te3 U2 3.286888 1_545
S0 U0 2.784740 1_654
S0 U0 2.784740 1_554
S0 U1 2.800641 1_545
S0 U3 2.994092 1_555
S1 U3 2.784740 1_555
S1 U3 2.784740 1_455
S1 U2 2.800641 1_555
S1 U0 2.994092 1_555
S2 U2 2.784740 1_655
S2 U2 2.784740 1_555
S2 U3 2.800641 1_555
S2 U1 2.994092 1_555
S3 U1 2.784740 1_456
S3 U1 2.784740 1_556
S3 U0 2.800641 1_565
S3 U2 2.994092 1_555
