# generated using pymatgen
data_MgMn2O4
_symmetry_space_group_name_H-M   'P 1'
_cell_length_a   6.01154013
_cell_length_b   6.05619140
_cell_length_c   10.46804720
_cell_angle_alpha   89.98242524
_cell_angle_beta   106.47913770
_cell_angle_gamma   119.41404379
_symmetry_Int_Tables_number   1
_chemical_formula_structural   MgMn2O4
_chemical_formula_sum   'Mg4 Mn8 O16'
_cell_volume   313.90713743
_cell_formula_units_Z   4
loop_
 _symmetry_equiv_pos_site_id
 _symmetry_equiv_pos_as_xyz
  1  'x, y, z'
loop_
 _atom_site_type_symbol
 _atom_site_label
 _atom_site_symmetry_multiplicity
 _atom_site_fract_x
 _atom_site_fract_y
 _atom_site_fract_z
 _atom_site_occupancy
  Mg  Mg0  1  0.00774200  0.51825500  0.50654100  1
  Mg  Mg1  1  0.99078200  0.01770800  0.00516700  1
  Mg  Mg2  1  0.37223200  0.44260900  0.81255000  1
  Mg  Mg3  1  0.37875500  0.93508000  0.31315100  1
  Mn  Mn0  1  0.75628200  0.86593200  0.62061800  1
  Mn  Mn1  1  0.75007900  0.35196600  0.11863400  1
  Mn  Mn2  1  0.36755700  0.93879700  0.81300300  1
  Mn  Mn3  1  0.36752600  0.68583500  0.06101900  1
  Mn  Mn4  1  0.87506900  0.44570100  0.81348100  1
  Mn  Mn5  1  0.38038400  0.43315500  0.31385500  1
  Mn  Mn6  1  0.38189000  0.19157300  0.56179600  1
  Mn  Mn7  1  0.87684200  0.92899000  0.31158600  1
  O  O0  1  0.60239400  0.07197300  0.66965800  1
  O  O1  1  0.60159600  0.53310500  0.20074200  1
  O  O2  1  0.11832200  0.81825200  0.93820600  1
  O  O3  1  0.16793200  0.32687100  0.44224700  1
  O  O4  1  0.16795700  0.08719000  0.68243300  1
  O  O5  1  0.16931700  0.56500900  0.19805900  1
  O  O6  1  0.60850800  0.29067900  0.91062900  1
  O  O7  1  0.61724800  0.78482200  0.41356000  1
  O  O8  1  0.61152000  0.51847900  0.68665900  1
  O  O9  1  0.61985400  0.01040200  0.19260500  1
  O  O10  1  0.12391100  0.35396900  0.93395700  1
  O  O11  1  0.14058100  0.85811400  0.43784700  1
  O  O12  1  0.13286700  0.58853000  0.70864100  1
  O  O13  1  0.13666600  0.08096700  0.21117400  1
  O  O14  1  0.58305000  0.80271000  0.93694100  1
  O  O15  1  0.59314000  0.30332200  0.43524000  1
loop_
_geom_bond_atom_site_label_1
_geom_bond_atom_site_label_2
_geom_bond_distance
_geom_bond_site_symmetry_2
Mg0 O12 2.001487 1_555
Mg0 O11 2.025248 1_555
Mg0 O3 2.046520 1_555
Mg0 O15 2.054758 1_455
Mg1 O2 1.937374 1_644
Mg1 O10 2.019904 1_654
Mg1 O14 2.021375 1_544
Mg1 O13 2.040559 1_655
Mg2 O6 2.091408 1_555
Mg2 O12 2.096468 1_555
Mg2 O14 2.099643 1_555
Mg2 O10 2.102514 1_555
Mg2 O8 2.107832 1_555
Mg2 O4 2.110209 1_555
Mg3 O9 2.070985 1_565
Mg3 O11 2.091789 1_555
Mg3 O7 2.101035 1_555
Mg3 O13 2.102176 1_565
Mg3 O5 2.104565 1_555
Mg3 O15 2.124159 1_565
Mn0 O0 2.019924 1_565
Mn0 O4 2.042948 1_665
Mn0 O8 2.050569 1_555
Mn0 O7 2.051218 1_555
Mn1 O1 2.033863 1_555
Mn1 O6 2.059627 1_554
Mn1 O9 2.060040 1_555
Mn1 O5 2.079810 1_655
Mn2 O6 1.952814 1_565
Mn2 O12 1.967529 1_555
Mn2 O14 2.033514 1_555
Mn2 O4 2.059997 1_565
Mn2 O2 2.129479 1_555
Mn2 O0 2.231099 1_565
Mn3 O14 1.979918 1_554
Mn3 O9 1.987366 1_565
Mn3 O10 1.989667 1_554
Mn3 O5 2.031212 1_555
Mn3 O2 2.151037 1_554
Mn3 O1 2.254946 1_555
Mn4 O10 1.970395 1_655
Mn4 O6 1.982337 1_555
Mn4 O8 1.989750 1_555
Mn4 O12 2.000512 1_655
Mn4 O2 2.147455 1_655
Mn4 O0 2.243715 1_555
Mn5 O1 1.907640 1_555
Mn5 O7 1.957615 1_555
Mn5 O5 1.959329 1_555
Mn5 O13 1.972248 1_555
Mn5 O15 1.983390 1_555
Mn5 O3 2.004413 1_555
Mn6 O0 1.910523 1_555
Mn6 O4 1.941828 1_555
Mn6 O8 1.956313 1_555
Mn6 O11 1.980524 1_545
Mn6 O15 1.983831 1_555
Mn6 O3 2.003306 1_555
Mn7 O9 1.958881 1_565
Mn7 O13 1.977479 1_665
Mn7 O11 1.980943 1_655
Mn7 O7 1.985785 1_555
Mn7 O1 2.201889 1_555
Mn7 O3 2.289482 1_665
