# generated using pymatgen
data_K2InAsCl6
_symmetry_space_group_name_H-M   'P 1'
_cell_length_a   7.67735248
_cell_length_b   7.67735248
_cell_length_c   7.67735248
_cell_angle_alpha   60.00000000
_cell_angle_beta   60.00000000
_cell_angle_gamma   60.00000000
_symmetry_Int_Tables_number   1
_chemical_formula_structural   K2InAsCl6
_chemical_formula_sum   'K2 In1 As1 Cl6'
_cell_volume   319.97750144
_cell_formula_units_Z   1
loop_
 _symmetry_equiv_pos_site_id
 _symmetry_equiv_pos_as_xyz
  1  'x, y, z'
loop_
 _atom_site_type_symbol
 _atom_site_label
 _atom_site_symmetry_multiplicity
 _atom_site_fract_x
 _atom_site_fract_y
 _atom_site_fract_z
 _atom_site_occupancy
  K  K0  1  0.75000000  0.75000000  0.75000000  1
  K  K1  1  0.25000000  0.25000000  0.25000000  1
  In  In0  1  0.50000000  0.50000000  0.50000000  1
  As  As0  1  0.00000000  0.00000000  0.00000000  1
  Cl  Cl0  1  0.76727400  0.23272600  0.23272600  1
  Cl  Cl1  1  0.23272600  0.23272600  0.76727400  1
  Cl  Cl2  1  0.23272600  0.76727400  0.76727400  1
  Cl  Cl3  1  0.23272600  0.76727400  0.23272600  1
  Cl  Cl4  1  0.76727400  0.23272600  0.76727400  1
  Cl  Cl5  1  0.76727400  0.76727400  0.23272600  1
loop_
_geom_bond_atom_site_label_1
_geom_bond_atom_site_label_2
_geom_bond_distance
_geom_bond_site_symmetry_2
As0 Cl0 2.526803 1_455
As0 Cl5 2.526803 1_445
As0 Cl3 2.526803 1_545
As0 Cl2 2.526803 1_544
As0 Cl4 2.526803 1_454
As0 Cl1 2.526803 1_554
Cl0 In0 2.901905 1_555
Cl1 In0 2.901905 1_555
Cl2 In0 2.901905 1_555
Cl3 In0 2.901905 1_555
Cl4 In0 2.901905 1_555
Cl5 In0 2.901905 1_555
