# generated using pymatgen
data_Cu2Bi5Pb5S14
_symmetry_space_group_name_H-M   'P 1'
_cell_length_a   4.05678500
_cell_length_b   15.00714000
_cell_length_c   21.27154200
_cell_angle_alpha   90.00000000
_cell_angle_beta   90.00000000
_cell_angle_gamma   90.00000000
_symmetry_Int_Tables_number   1
_chemical_formula_structural   Cu2Bi5Pb5S14
_chemical_formula_sum   'Cu4 Bi10 Pb10 S28'
_cell_volume   1295.02722736
_cell_formula_units_Z   2
loop_
 _symmetry_equiv_pos_site_id
 _symmetry_equiv_pos_as_xyz
  1  'x, y, z'
loop_
 _atom_site_type_symbol
 _atom_site_label
 _atom_site_symmetry_multiplicity
 _atom_site_fract_x
 _atom_site_fract_y
 _atom_site_fract_z
 _atom_site_occupancy
  Cu  Cu0  1  0.25000000  0.82775100  0.67510000  1
  Cu  Cu1  1  0.25000000  0.67224900  0.17510000  1
  Cu  Cu2  1  0.75000000  0.17219500  0.32429600  1
  Cu  Cu3  1  0.75000000  0.32780500  0.82429600  1
  Bi  Bi0  1  0.25000000  0.89620700  0.97204200  1
  Bi  Bi1  1  0.25000000  0.60379300  0.47204200  1
  Bi  Bi2  1  0.75000000  0.10768000  0.03242800  1
  Bi  Bi3  1  0.75000000  0.39232000  0.53242800  1
  Bi  Bi4  1  0.25000000  0.53454600  0.84122900  1
  Bi  Bi5  1  0.25000000  0.96545400  0.34122900  1
  Bi  Bi6  1  0.75000000  0.46595100  0.15794500  1
  Bi  Bi7  1  0.75000000  0.03404900  0.65794500  1
  Bi  Bi8  1  0.75000000  0.66172800  0.30784600  1
  Bi  Bi9  1  0.75000000  0.83827200  0.80784600  1
  Pb  Pb0  1  0.25000000  0.86465900  0.51931300  1
  Pb  Pb1  1  0.25000000  0.63534100  0.01931300  1
  Pb  Pb2  1  0.75000000  0.14054500  0.47893000  1
  Pb  Pb3  1  0.75000000  0.35945500  0.97893000  1
  Pb  Pb4  1  0.25000000  0.10753900  0.83531000  1
  Pb  Pb5  1  0.25000000  0.39246100  0.33531000  1
  Pb  Pb6  1  0.75000000  0.89453600  0.16501700  1
  Pb  Pb7  1  0.75000000  0.60546400  0.66501700  1
  Pb  Pb8  1  0.25000000  0.33160400  0.69226800  1
  Pb  Pb9  1  0.25000000  0.16839600  0.19226800  1
  S  S0  1  0.25000000  0.96163200  0.74266800  1
  S  S1  1  0.25000000  0.53836800  0.24266800  1
  S  S2  1  0.75000000  0.03222700  0.26160400  1
  S  S3  1  0.75000000  0.46777300  0.76160400  1
  S  S4  1  0.25000000  0.76964400  0.88294800  1
  S  S5  1  0.25000000  0.73035600  0.38294800  1
  S  S6  1  0.75000000  0.23754300  0.11258500  1
  S  S7  1  0.75000000  0.26245700  0.61258500  1
  S  S8  1  0.25000000  0.04567800  0.56821900  1
  S  S9  1  0.25000000  0.45432200  0.06821900  1
  S  S10  1  0.75000000  0.95327500  0.43528600  1
  S  S11  1  0.75000000  0.54672500  0.93528600  1
  S  S12  1  0.25000000  0.18880200  0.96559200  1
  S  S13  1  0.25000000  0.31119800  0.46559200  1
  S  S14  1  0.75000000  0.80920000  0.03187200  1
  S  S15  1  0.75000000  0.69080000  0.53187200  1
  S  S16  1  0.25000000  0.36409400  0.87276700  1
  S  S17  1  0.25000000  0.13590600  0.37276700  1
  S  S18  1  0.75000000  0.63579900  0.12772800  1
  S  S19  1  0.75000000  0.86420100  0.62772800  1
  S  S20  1  0.25000000  0.48317800  0.60503200  1
  S  S21  1  0.25000000  0.01682200  0.10503200  1
  S  S22  1  0.75000000  0.52571300  0.39016000  1
  S  S23  1  0.75000000  0.97428700  0.89016000  1
  S  S24  1  0.25000000  0.70117500  0.73248200  1
  S  S25  1  0.25000000  0.79882500  0.23248200  1
  S  S26  1  0.75000000  0.30121500  0.26933200  1
  S  S27  1  0.75000000  0.19878500  0.76933200  1
loop_
_geom_bond_atom_site_label_1
_geom_bond_atom_site_label_2
_geom_bond_distance
_geom_bond_site_symmetry_2
Cu0 S24 2.257906 1_555
Cu0 S19 2.330023 1_455
Cu0 S19 2.330023 1_555
Cu0 S0 2.470330 1_555
Cu1 S25 2.257906 1_555
Cu1 S18 2.330023 1_555
Cu1 S18 2.330023 1_455
Cu1 S1 2.470330 1_555
Cu2 S26 2.261837 1_555
Cu2 S17 2.339664 1_655
Cu2 S17 2.339664 1_555
Cu2 S2 2.488082 1_555
Cu3 S27 2.261837 1_555
Cu3 S16 2.339664 1_555
Cu3 S16 2.339664 1_655
Cu3 S3 2.488082 1_555
Bi0 S4 2.683129 1_555
Bi0 S14 2.727453 1_456
Bi0 S14 2.727453 1_556
Bi0 S23 2.919094 1_455
Bi0 S23 2.919094 1_555
Bi1 S5 2.683129 1_555
Bi1 S15 2.727453 1_455
Bi1 S15 2.727453 1_555
Bi1 S22 2.919094 1_455
Bi1 S22 2.919094 1_555
Bi2 S6 2.589468 1_555
Bi2 S12 2.760019 1_654
Bi2 S12 2.760019 1_554
Bi2 S21 2.891146 1_555
Bi2 S21 2.891146 1_655
Bi3 S7 2.589468 1_555
Bi3 S13 2.760019 1_655
Bi3 S13 2.760019 1_555
Bi3 S20 2.891146 1_655
Bi3 S20 2.891146 1_555
Bi4 S16 2.644505 1_555
Bi4 S3 2.826181 1_555
Bi4 S3 2.826181 1_455
Bi4 S11 2.854949 1_555
Bi4 S11 2.854949 1_455
Bi5 S17 2.644505 1_565
Bi5 S2 2.826181 1_465
Bi5 S2 2.826181 1_565
Bi5 S10 2.854949 1_455
Bi5 S10 2.854949 1_555
Bi6 S18 2.628726 1_555
Bi6 S9 2.790632 1_555
Bi6 S9 2.790632 1_655
Bi6 S1 2.922898 1_555
Bi6 S1 2.922898 1_655
Bi7 S19 2.628726 1_545
Bi7 S8 2.790632 1_655
Bi7 S8 2.790632 1_555
Bi7 S0 2.922898 1_545
Bi7 S0 2.922898 1_645
Bi8 S22 2.689292 1_555
Bi8 S5 2.779786 1_655
Bi8 S5 2.779786 1_555
Bi8 S1 3.076333 1_555
Bi8 S1 3.076333 1_655
Bi9 S23 2.689292 1_555
Bi9 S4 2.779786 1_555
Bi9 S4 2.779786 1_655
Bi9 S0 3.076333 1_655
Bi9 S0 3.076333 1_555
Pb0 S8 2.908957 1_565
Pb0 S10 3.012919 1_555
Pb0 S10 3.012919 1_455
Pb0 S19 3.071282 1_555
Pb0 S19 3.071282 1_455
Pb1 S9 2.908957 1_555
Pb1 S11 3.012919 1_454
Pb1 S11 3.012919 1_554
Pb1 S18 3.071282 1_455
Pb1 S18 3.071282 1_555
Pb2 S10 2.959756 1_545
Pb2 S17 3.036267 1_655
Pb2 S17 3.036267 1_555
Pb2 S8 3.122282 1_655
Pb2 S8 3.122282 1_555
Pb3 S11 2.959756 1_555
Pb3 S16 3.036267 1_555
Pb3 S16 3.036267 1_655
Pb3 S9 3.122282 1_656
Pb3 S9 3.122282 1_556
Pb4 S27 2.821197 1_455
Pb4 S27 2.821197 1_555
Pb4 S0 2.945839 1_545
Pb4 S12 3.027762 1_555
Pb4 S23 3.078083 1_445
Pb4 S23 3.078083 1_545
Pb5 S26 2.821197 1_455
Pb5 S26 2.821197 1_555
Pb5 S1 2.945839 1_555
Pb5 S13 3.027762 1_555
Pb5 S22 3.078083 1_455
Pb5 S22 3.078083 1_555
Pb6 S25 2.870007 1_555
Pb6 S25 2.870007 1_655
Pb6 S2 2.913930 1_565
Pb6 S21 3.018329 1_565
Pb6 S21 3.018329 1_665
Pb6 S14 3.108282 1_555
Pb7 S24 2.870007 1_655
Pb7 S24 2.870007 1_555
Pb7 S3 2.913930 1_555
Pb7 S20 3.018329 1_655
Pb7 S20 3.018329 1_555
Pb7 S15 3.108282 1_555
Pb8 S7 2.839745 1_555
Pb8 S7 2.839745 1_455
Pb8 S20 2.935582 1_555
Pb9 S6 2.839745 1_455
Pb9 S6 2.839745 1_555
Pb9 S21 2.935582 1_555
