# generated using pymatgen
data_Tm(Fe5Mo)2
_symmetry_space_group_name_H-M   'P 1'
_cell_length_a   4.74356900
_cell_length_b   6.47459877
_cell_length_c   6.47459877
_cell_angle_alpha   97.26036451
_cell_angle_beta   111.48892575
_cell_angle_gamma   68.51107425
_symmetry_Int_Tables_number   1
_chemical_formula_structural   Tm(Fe5Mo)2
_chemical_formula_sum   'Tm1 Fe10 Mo2'
_cell_volume   172.16115825
_cell_formula_units_Z   1
loop_
 _symmetry_equiv_pos_site_id
 _symmetry_equiv_pos_as_xyz
  1  'x, y, z'
loop_
 _atom_site_type_symbol
 _atom_site_label
 _atom_site_symmetry_multiplicity
 _atom_site_fract_x
 _atom_site_fract_y
 _atom_site_fract_z
 _atom_site_occupancy
  Tm  Tm0  1  0.00000000  0.00000000  0.00000000  1
  Fe  Fe0  1  0.71665700  0.78334300  0.21665700  1
  Fe  Fe1  1  0.28334300  0.21665700  0.78334300  1
  Fe  Fe2  1  0.50000000  0.77868500  0.77868500  1
  Fe  Fe3  1  0.50000000  0.22131500  0.22131500  1
  Fe  Fe4  1  0.50000000  0.00000000  0.50000000  1
  Fe  Fe5  1  0.00000000  0.00000000  0.50000000  1
  Fe  Fe6  1  0.50000000  0.50000000  0.00000000  1
  Fe  Fe7  1  0.00000000  0.50000000  0.00000000  1
  Fe  Fe8  1  0.64140800  0.35859200  0.64140800  1
  Fe  Fe9  1  0.35859200  0.64140800  0.35859200  1
  Mo  Mo0  1  0.00000000  0.35747400  0.35747400  1
  Mo  Mo1  1  0.00000000  0.64252600  0.64252600  1
loop_
_geom_bond_atom_site_label_1
_geom_bond_atom_site_label_2
_geom_bond_distance
_geom_bond_site_symmetry_2
Fe0 Fe4 2.462547 1_565
Fe0 Fe6 2.462547 1_555
Fe0 Fe7 2.462547 1_655
Fe0 Fe5 2.462547 1_665
Fe0 Fe3 2.638982 1_565
Fe0 Fe2 2.638982 1_554
Fe0 Fe9 2.659799 1_555
Fe0 Fe9 2.659800 1_655
Fe0 Mo1 2.695007 1_655
Fe0 Mo0 2.695007 1_655
Fe0 Tm0 3.000335 1_665
Fe0 Tm0 3.000336 1_565
Fe1 Fe4 2.462547 1_555
Fe1 Fe6 2.462547 1_556
Fe1 Fe5 2.462547 1_555
Fe1 Fe7 2.462547 1_556
Fe1 Fe3 2.638982 1_556
Fe1 Fe2 2.638982 1_545
Fe1 Fe8 2.659799 1_555
Fe1 Fe8 2.659800 1_455
Fe1 Mo1 2.695007 1_555
Fe1 Mo0 2.695007 1_555
Fe1 Tm0 3.000335 1_556
Fe1 Tm0 3.000336 1_656
Fe2 Fe4 2.441834 1_565
Fe2 Fe6 2.441834 1_556
Fe2 Fe7 2.441834 1_656
Fe2 Fe5 2.441834 1_565
Fe2 Mo1 2.642589 1_555
Fe2 Mo1 2.642589 1_655
Fe2 Fe8 2.669652 1_555
Fe2 Fe9 2.669652 1_555
Fe2 Tm0 3.035282 1_566
Fe2 Tm0 3.035282 1_666
Fe3 Fe6 2.441834 1_555
Fe3 Fe4 2.441834 1_555
Fe3 Fe5 2.441834 1_655
Fe3 Fe7 2.441834 1_555
Fe3 Mo0 2.642589 1_655
Fe3 Mo0 2.642589 1_555
Fe3 Fe8 2.669652 1_555
Fe3 Fe9 2.669652 1_555
Fe3 Tm0 3.035282 1_555
Fe3 Tm0 3.035282 1_655
Fe4 Fe5 2.371784 1_655
Fe4 Fe5 2.371784 1_555
Fe4 Mo0 2.597752 1_555
Fe4 Mo1 2.597752 1_645
Fe4 Fe8 2.613893 1_555
Fe4 Fe9 2.613893 1_545
Fe4 Tm0 3.237300 1_656
Fe4 Tm0 3.237300 1_555
Fe5 Mo0 2.597752 1_555
Fe5 Mo1 2.597752 1_545
Fe5 Fe8 2.613894 1_455
Fe5 Fe9 2.613894 1_545
Fe5 Tm0 3.237299 1_555
Fe5 Tm0 3.237299 1_556
Fe6 Fe7 2.371784 1_555
Fe6 Fe7 2.371784 1_655
Fe6 Mo0 2.597752 1_655
Fe6 Mo1 2.597752 1_554
Fe6 Fe9 2.613893 1_555
Fe6 Fe8 2.613893 1_554
Fe6 Tm0 3.237300 1_655
Fe6 Tm0 3.237300 1_565
Fe7 Mo0 2.597752 1_555
Fe7 Mo1 2.597752 1_554
Fe7 Fe9 2.613894 1_555
Fe7 Fe8 2.613894 1_454
Fe7 Tm0 3.237299 1_555
Fe7 Tm0 3.237299 1_565
Fe8 Fe9 2.398691 1_555
Fe8 Mo1 2.924324 1_655
Fe8 Mo0 2.924324 1_655
Fe8 Mo1 2.924324 1_555
Fe8 Mo0 2.924324 1_555
Fe8 Tm0 3.041382 1_656
Fe9 Mo1 2.924324 1_555
Fe9 Mo0 2.924324 1_555
Fe9 Mo1 2.924324 1_655
Fe9 Mo0 2.924324 1_655
Fe9 Tm0 3.041382 1_565
Mo0 Mo1 2.439572 1_555
Mo0 Tm0 3.059384 1_555
Mo1 Tm0 3.059384 1_566
