# generated using pymatgen
data_MgMn4(Si4O11)2
_symmetry_space_group_name_H-M   'P 1'
_cell_length_a   8.91574446
_cell_length_b   7.90246560
_cell_length_c   7.25556456
_cell_angle_alpha   107.62699097
_cell_angle_beta   105.39743887
_cell_angle_gamma   98.64415639
_symmetry_Int_Tables_number   1
_chemical_formula_structural   MgMn4(Si4O11)2
_chemical_formula_sum   'Mg1 Mn4 Si8 O22'
_cell_volume   454.66575054
_cell_formula_units_Z   1
loop_
 _symmetry_equiv_pos_site_id
 _symmetry_equiv_pos_as_xyz
  1  'x, y, z'
loop_
 _atom_site_type_symbol
 _atom_site_label
 _atom_site_symmetry_multiplicity
 _atom_site_fract_x
 _atom_site_fract_y
 _atom_site_fract_z
 _atom_site_occupancy
  Mg  Mg0  1  0.50000000  0.00000000  0.00000000  1
  Mn  Mn0  1  0.36022400  0.59060800  0.88093500  1
  Mn  Mn1  1  0.40217100  0.62256100  0.35333400  1
  Mn  Mn2  1  0.59782900  0.37743900  0.64666600  1
  Mn  Mn3  1  0.63977600  0.40939200  0.11906500  1
  Si  Si0  1  0.04038300  0.38781500  0.24625800  1
  Si  Si1  1  0.21493500  0.22987200  0.96444300  1
  Si  Si2  1  0.20609400  0.20954100  0.53006900  1
  Si  Si3  1  0.63833400  0.97355600  0.74564900  1
  Si  Si4  1  0.36166600  0.02644400  0.25435000  1
  Si  Si5  1  0.79390600  0.79045900  0.46993100  1
  Si  Si6  1  0.78506500  0.77012800  0.03555700  1
  Si  Si7  1  0.95961700  0.61218500  0.75374200  1
  O  O0  1  0.13081900  0.56952300  0.79861300  1
  O  O1  1  0.05971600  0.26484500  0.39713300  1
  O  O2  1  0.19050100  0.57055500  0.33883300  1
  O  O3  1  0.06001300  0.24865100  0.03327900  1
  O  O4  1  0.16990700  0.15931900  0.71796300  1
  O  O5  1  0.23943000  0.02352300  0.38155600  1
  O  O6  1  0.37283500  0.37638600  0.62340300  1
  O  O7  1  0.47234200  0.80804800  0.62926600  1
  O  O8  1  0.41868100  0.84076200  0.15359400  1
  O  O9  1  0.29241100  0.06859000  0.03331800  1
  O  O10  1  0.36540400  0.42042800  0.07862300  1
  O  O11  1  0.63459600  0.57957200  0.92137700  1
  O  O12  1  0.70758900  0.93141000  0.96668200  1
  O  O13  1  0.58131900  0.15923800  0.84640600  1
  O  O14  1  0.52765800  0.19195200  0.37073400  1
  O  O15  1  0.62716500  0.62361400  0.37659700  1
  O  O16  1  0.76057000  0.97647700  0.61844400  1
  O  O17  1  0.83009300  0.84068100  0.28203700  1
  O  O18  1  0.93998700  0.75134900  0.96672100  1
  O  O19  1  0.80949900  0.42944500  0.66116700  1
  O  O20  1  0.94028400  0.73515500  0.60286700  1
  O  O21  1  0.86918100  0.43047700  0.20138700  1
loop_
_geom_bond_atom_site_label_1
_geom_bond_atom_site_label_2
_geom_bond_distance
_geom_bond_site_symmetry_2
Mg0 O12 2.058524 1_544
Mg0 O9 2.058524 1_555
Mg0 O13 2.086909 1_554
Mg0 O8 2.086909 1_545
Mn0 O0 1.938142 1_555
Mn0 O6 2.150104 1_555
Mn0 O8 2.206225 1_556
Mn0 O10 2.240491 1_556
Mn0 O11 2.403375 1_555
Mn1 O2 1.837583 1_555
Mn1 O7 1.957057 1_555
Mn1 O15 1.966440 1_555
Mn1 O10 2.049187 1_555
Mn1 O8 2.577918 1_555
Mn2 O19 1.837583 1_555
Mn2 O14 1.957057 1_555
Mn2 O6 1.966440 1_555
Mn2 O11 2.049187 1_555
Mn2 O13 2.577918 1_555
Mn3 O21 1.938142 1_555
Mn3 O15 2.150104 1_555
Mn3 O13 2.206225 1_554
Mn3 O11 2.240491 1_554
Mn3 O10 2.403375 1_555
O0 Si7 1.583288 1_455
O1 Si2 1.607116 1_555
O1 Si0 1.663366 1_555
O2 Si0 1.637710 1_555
O3 Si1 1.600738 1_554
O3 Si0 1.673380 1_555
O4 Si1 1.617968 1_555
O4 Si2 1.625696 1_555
O5 Si4 1.606103 1_555
O5 Si2 1.659041 1_555
O6 Si2 1.656047 1_555
O7 Si3 1.643040 1_555
O8 Si4 1.648579 1_565
O9 Si1 1.678797 1_554
O9 Si4 1.709838 1_555
O10 Si1 1.673529 1_554
O11 Si6 1.673529 1_556
O12 Si6 1.678797 1_556
O12 Si3 1.709844 1_555
O13 Si3 1.648581 1_545
O14 Si4 1.643040 1_555
O15 Si5 1.656047 1_555
O16 Si3 1.606097 1_555
O16 Si5 1.659041 1_555
O17 Si6 1.617968 1_555
O17 Si5 1.625696 1_555
O18 Si6 1.600738 1_556
O18 Si7 1.673380 1_555
O19 Si7 1.637710 1_555
O20 Si5 1.607116 1_555
O20 Si7 1.663366 1_555
O21 Si0 1.583288 1_655
