# generated using pymatgen
data_U
_symmetry_space_group_name_H-M   'P 1'
_cell_length_a   6.09236511
_cell_length_b   6.09236511
_cell_length_c   6.09236511
_cell_angle_alpha   60.00000000
_cell_angle_beta   60.00000000
_cell_angle_gamma   60.00000000
_symmetry_Int_Tables_number   1
_chemical_formula_structural   U
_chemical_formula_sum   U8
_cell_volume   159.89790305
_cell_formula_units_Z   8
loop_
 _symmetry_equiv_pos_site_id
 _symmetry_equiv_pos_as_xyz
  1  'x, y, z'
loop_
 _atom_site_type_symbol
 _atom_site_label
 _atom_site_symmetry_multiplicity
 _atom_site_fract_x
 _atom_site_fract_y
 _atom_site_fract_z
 _atom_site_occupancy
  U  U0_0  1  0.00000000  0.00000000  0.00000000  1
  U  U0_1  1  0.00000000  0.00000000  0.50000000  1
  U  U0_2  1  0.00000000  0.50000000  0.00000000  1
  U  U0_3  1  0.00000000  0.50000000  0.50000000  1
  U  U0_4  1  0.50000000  0.00000000  0.00000000  1
  U  U0_5  1  0.50000000  0.00000000  0.50000000  1
  U  U0_6  1  0.50000000  0.50000000  0.00000000  1
  U  U0_7  1  0.50000000  0.50000000  0.50000000  1
loop_
_geom_bond_atom_site_label_1
_geom_bond_atom_site_label_2
_geom_bond_distance
_geom_bond_site_symmetry_2
U0_0 U0_2 3.046183 1_555
U0_0 U0_4 3.046183 1_455
U0_0 U0_6 3.046183 1_545
U0_0 U0_3 3.046183 1_554
U0_0 U0_1 3.046183 1_555
U0_0 U0_1 3.046183 1_554
U0_0 U0_2 3.046183 1_545
U0_0 U0_5 3.046183 1_455
U0_0 U0_3 3.046183 1_545
U0_0 U0_5 3.046183 1_554
U0_0 U0_4 3.046183 1_555
U0_0 U0_6 3.046183 1_455
U0_1 U0_2 3.046183 1_555
U0_1 U0_3 3.046183 1_555
U0_1 U0_4 3.046183 1_456
U0_1 U0_2 3.046183 1_546
U0_1 U0_7 3.046183 1_455
U0_1 U0_3 3.046183 1_545
U0_1 U0_4 3.046183 1_555
U0_1 U0_7 3.046183 1_545
U0_1 U0_5 3.046183 1_555
U0_1 U0_5 3.046183 1_455
U0_2 U0_3 3.046183 1_555
U0_2 U0_3 3.046183 1_554
U0_2 U0_4 3.046183 1_465
U0_2 U0_7 3.046183 1_455
U0_2 U0_6 3.046183 1_555
U0_2 U0_4 3.046183 1_555
U0_2 U0_6 3.046183 1_455
U0_2 U0_7 3.046183 1_554
U0_3 U0_6 3.046183 1_555
U0_3 U0_7 3.046183 1_555
U0_3 U0_5 3.046183 1_465
U0_3 U0_5 3.046183 1_555
U0_3 U0_6 3.046183 1_456
U0_3 U0_7 3.046183 1_455
U0_4 U0_6 3.046183 1_545
U0_4 U0_6 3.046183 1_555
U0_4 U0_5 3.046183 1_554
U0_4 U0_7 3.046183 1_545
U0_4 U0_5 3.046183 1_555
U0_4 U0_7 3.046183 1_554
U0_5 U0_6 3.046183 1_555
U0_5 U0_7 3.046183 1_555
U0_5 U0_6 3.046183 1_546
U0_5 U0_7 3.046183 1_545
U0_6 U0_7 3.046183 1_555
U0_6 U0_7 3.046183 1_554
