# generated using pymatgen
data_RbLiMg30O31
_symmetry_space_group_name_H-M   'P 1'
_cell_length_a   8.55647700
_cell_length_b   8.61382000
_cell_length_c   8.69157100
_cell_angle_alpha   90.00000000
_cell_angle_beta   90.00000000
_cell_angle_gamma   90.00000000
_symmetry_Int_Tables_number   1
_chemical_formula_structural   RbLiMg30O31
_chemical_formula_sum   'Rb1 Li1 Mg30 O31'
_cell_volume   640.60313798
_cell_formula_units_Z   1
loop_
 _symmetry_equiv_pos_site_id
 _symmetry_equiv_pos_as_xyz
  1  'x, y, z'
loop_
 _atom_site_type_symbol
 _atom_site_label
 _atom_site_symmetry_multiplicity
 _atom_site_fract_x
 _atom_site_fract_y
 _atom_site_fract_z
 _atom_site_occupancy
  Rb  Rb0  1  0.50000000  0.00757300  0.00000000  1
  Li  Li0  1  0.00000000  0.02603000  0.00000000  1
  Mg  Mg0  1  0.00000000  0.00562700  0.50000000  1
  Mg  Mg1  1  0.50000000  0.00204100  0.50000000  1
  Mg  Mg2  1  0.00000000  0.48120500  0.00000000  1
  Mg  Mg3  1  0.50000000  0.50214100  0.00000000  1
  Mg  Mg4  1  0.00000000  0.49722500  0.50000000  1
  Mg  Mg5  1  0.50000000  0.49870900  0.50000000  1
  Mg  Mg6  1  0.24290500  0.99740300  0.24989300  1
  Mg  Mg7  1  0.75709500  0.99740300  0.24989300  1
  Mg  Mg8  1  0.24290500  0.99740300  0.75010700  1
  Mg  Mg9  1  0.75709500  0.99740300  0.75010700  1
  Mg  Mg10  1  0.24890500  0.50087800  0.24967900  1
  Mg  Mg11  1  0.75109500  0.50087800  0.24967900  1
  Mg  Mg12  1  0.24890500  0.50087800  0.75032100  1
  Mg  Mg13  1  0.75109500  0.50087800  0.75032100  1
  Mg  Mg14  1  0.26761200  0.75083800  0.00000000  1
  Mg  Mg15  1  0.73238800  0.75083800  0.00000000  1
  Mg  Mg16  1  0.25277600  0.75064200  0.50000000  1
  Mg  Mg17  1  0.74722400  0.75064200  0.50000000  1
  Mg  Mg18  1  0.24525700  0.24893800  0.00000000  1
  Mg  Mg19  1  0.75474300  0.24893800  0.00000000  1
  Mg  Mg20  1  0.25054300  0.24838100  0.50000000  1
  Mg  Mg21  1  0.74945700  0.24838100  0.50000000  1
  Mg  Mg22  1  0.00000000  0.75554900  0.27137700  1
  Mg  Mg23  1  0.50000000  0.74914100  0.25689000  1
  Mg  Mg24  1  0.00000000  0.75554900  0.72862300  1
  Mg  Mg25  1  0.50000000  0.74914100  0.74311000  1
  Mg  Mg26  1  0.00000000  0.24349400  0.24890800  1
  Mg  Mg27  1  0.50000000  0.25283200  0.25305500  1
  Mg  Mg28  1  0.00000000  0.24349400  0.75109200  1
  Mg  Mg29  1  0.50000000  0.25283200  0.74694500  1
  O  O0  1  0.50000000  0.72371700  0.00000000  1
  O  O1  1  0.00000000  0.74469300  0.50000000  1
  O  O2  1  0.50000000  0.74270800  0.50000000  1
  O  O3  1  0.00000000  0.25403700  0.00000000  1
  O  O4  1  0.50000000  0.28303400  0.00000000  1
  O  O5  1  0.00000000  0.25501300  0.50000000  1
  O  O6  1  0.50000000  0.25584500  0.50000000  1
  O  O7  1  0.24563000  0.74844800  0.24794000  1
  O  O8  1  0.75437000  0.74844800  0.24794000  1
  O  O9  1  0.24563000  0.74844800  0.75206000  1
  O  O10  1  0.75437000  0.74844800  0.75206000  1
  O  O11  1  0.24925300  0.24954700  0.24616400  1
  O  O12  1  0.75074700  0.24954700  0.24616400  1
  O  O13  1  0.24925300  0.24954700  0.75383600  1
  O  O14  1  0.75074700  0.24954700  0.75383600  1
  O  O15  1  0.21185200  0.98022600  0.00000000  1
  O  O16  1  0.78814800  0.98022600  0.00000000  1
  O  O17  1  0.24590200  0.99929500  0.50000000  1
  O  O18  1  0.75409800  0.99929500  0.50000000  1
  O  O19  1  0.23713800  0.51018200  0.00000000  1
  O  O20  1  0.76286200  0.51018200  0.00000000  1
  O  O21  1  0.24731100  0.49956700  0.50000000  1
  O  O22  1  0.75268900  0.49956700  0.50000000  1
  O  O23  1  0.00000000  0.99792800  0.26540800  1
  O  O24  1  0.50000000  0.99666600  0.27817600  1
  O  O25  1  0.00000000  0.99792800  0.73459200  1
  O  O26  1  0.50000000  0.99666600  0.72182400  1
  O  O27  1  0.00000000  0.50708000  0.24513500  1
  O  O28  1  0.50000000  0.50188800  0.25455500  1
  O  O29  1  0.00000000  0.50708000  0.75486500  1
  O  O30  1  0.50000000  0.50188800  0.74544500  1
loop_
_geom_bond_atom_site_label_1
_geom_bond_atom_site_label_2
_geom_bond_distance
_geom_bond_site_symmetry_2
Li0 O15 1.855148 1_545
Li0 O16 1.855148 1_445
Li0 O3 1.964011 1_555
Li0 O23 2.319478 1_545
Li0 O25 2.319478 1_544
Mg0 O25 2.040051 1_545
Mg0 O23 2.040051 1_545
Mg0 O18 2.104762 1_445
Mg0 O17 2.104762 1_545
Mg0 O5 2.148166 1_555
Mg0 O1 2.247639 1_545
Mg1 O24 1.928555 1_545
Mg1 O26 1.928555 1_545
Mg1 O17 2.174312 1_545
Mg1 O18 2.174312 1_545
Mg1 O6 2.186222 1_555
Mg1 O2 2.233848 1_545
Mg2 O3 1.956784 1_555
Mg2 O20 2.044360 1_455
Mg2 O19 2.044360 1_555
Mg2 O27 2.142234 1_555
Mg2 O29 2.142234 1_554
Mg3 O4 1.887348 1_555
Mg3 O0 1.908616 1_555
Mg3 O28 2.212484 1_555
Mg3 O30 2.212484 1_554
Mg3 O19 2.250239 1_555
Mg3 O20 2.250239 1_555
Mg4 O5 2.086371 1_555
Mg4 O22 2.116207 1_455
Mg4 O21 2.116207 1_555
Mg4 O1 2.131645 1_555
Mg4 O27 2.216803 1_555
Mg4 O29 2.216803 1_555
Mg5 O6 2.091987 1_555
Mg5 O2 2.101763 1_555
Mg5 O28 2.133478 1_555
Mg5 O30 2.133478 1_555
Mg5 O21 2.162140 1_555
Mg5 O22 2.162140 1_555
Mg6 O23 2.082786 1_555
Mg6 O7 2.144647 1_555
Mg6 O11 2.172844 1_565
Mg6 O17 2.174035 1_555
Mg6 O15 2.193151 1_555
Mg6 O24 2.213529 1_555
Mg7 O23 2.082786 1_655
Mg7 O8 2.144647 1_555
Mg7 O12 2.172844 1_565
Mg7 O18 2.174035 1_555
Mg7 O16 2.193151 1_555
Mg7 O24 2.213529 1_555
Mg8 O25 2.082786 1_555
Mg8 O9 2.144647 1_555
Mg8 O13 2.172844 1_565
Mg8 O17 2.174035 1_555
Mg8 O15 2.193151 1_556
Mg8 O26 2.213529 1_555
Mg9 O25 2.082786 1_655
Mg9 O10 2.144647 1_555
Mg9 O14 2.172844 1_565
Mg9 O18 2.174035 1_555
Mg9 O16 2.193151 1_556
Mg9 O26 2.213529 1_555
Mg10 O27 2.130786 1_555
Mg10 O7 2.132761 1_555
Mg10 O28 2.148924 1_555
Mg10 O11 2.165138 1_555
Mg10 O19 2.173915 1_555
Mg10 O21 2.175755 1_555
Mg11 O27 2.130786 1_655
Mg11 O8 2.132761 1_555
Mg11 O28 2.148924 1_555
Mg11 O12 2.165138 1_555
Mg11 O20 2.173915 1_555
Mg11 O22 2.175755 1_555
Mg12 O29 2.130786 1_555
Mg12 O9 2.132761 1_555
Mg12 O30 2.148924 1_555
Mg12 O13 2.165138 1_555
Mg12 O19 2.173915 1_556
Mg12 O21 2.175755 1_555
Mg13 O29 2.130786 1_655
Mg13 O10 2.132761 1_555
Mg13 O30 2.148924 1_555
Mg13 O14 2.165138 1_555
Mg13 O20 2.173915 1_556
Mg13 O22 2.175755 1_555
Mg14 O0 2.002099 1_555
Mg14 O15 2.032693 1_555
Mg14 O19 2.089302 1_555
Mg14 O7 2.163279 1_555
Mg14 O9 2.163279 1_554
Mg15 O0 2.002099 1_555
Mg15 O16 2.032693 1_555
Mg15 O20 2.089302 1_555
Mg15 O8 2.163279 1_555
Mg15 O10 2.163279 1_554
Mg16 O2 2.116470 1_555
Mg16 O17 2.142660 1_555
Mg16 O21 2.163220 1_555
Mg16 O1 2.163479 1_555
Mg16 O9 2.191732 1_555
Mg16 O7 2.191732 1_555
Mg17 O2 2.116470 1_555
Mg17 O18 2.142660 1_555
Mg17 O22 2.163220 1_555
Mg17 O1 2.163479 1_655
Mg17 O10 2.191732 1_555
Mg17 O8 2.191732 1_555
Mg18 O3 2.098995 1_555
Mg18 O11 2.139832 1_555
Mg18 O13 2.139832 1_554
Mg18 O4 2.199400 1_555
Mg18 O19 2.251381 1_555
Mg18 O15 2.332218 1_545
Mg19 O3 2.098995 1_655
Mg19 O12 2.139832 1_555
Mg19 O14 2.139832 1_554
Mg19 O4 2.199400 1_555
Mg19 O20 2.251381 1_555
Mg19 O16 2.332218 1_545
Mg20 O6 2.135441 1_555
Mg20 O5 2.144526 1_555
Mg20 O17 2.145949 1_545
Mg20 O21 2.163848 1_555
Mg20 O13 2.206284 1_555
Mg20 O11 2.206284 1_555
Mg21 O6 2.135441 1_555
Mg21 O5 2.144526 1_655
Mg21 O18 2.145949 1_545
Mg21 O22 2.163848 1_555
Mg21 O14 2.206284 1_555
Mg21 O12 2.206284 1_555
Mg22 O1 1.989292 1_555
Mg22 O23 2.088454 1_555
Mg22 O7 2.112462 1_555
Mg22 O8 2.112462 1_455
Mg22 O27 2.152386 1_555
Mg23 O2 2.113734 1_555
Mg23 O28 2.129890 1_555
Mg23 O24 2.140147 1_555
Mg23 O8 2.177909 1_555
Mg23 O7 2.177909 1_555
Mg23 O0 2.243492 1_555
Mg24 O1 1.989292 1_555
Mg24 O25 2.088454 1_555
Mg24 O10 2.112462 1_455
Mg24 O9 2.112462 1_555
Mg24 O29 2.152386 1_555
Mg25 O2 2.113734 1_555
Mg25 O30 2.129890 1_555
Mg25 O26 2.140147 1_555
Mg25 O9 2.177909 1_555
Mg25 O10 2.177909 1_555
Mg25 O0 2.243492 1_556
Mg26 O23 2.120117 1_545
Mg26 O12 2.133498 1_455
Mg26 O11 2.133498 1_555
Mg26 O3 2.165307 1_555
Mg26 O5 2.184638 1_555
Mg26 O27 2.270719 1_555
Mg27 O28 2.145363 1_555
Mg27 O6 2.146497 1_555
Mg27 O11 2.146533 1_555
Mg27 O12 2.146533 1_555
Mg27 O4 2.214778 1_555
Mg27 O24 2.217344 1_545
Mg28 O25 2.120117 1_545
Mg28 O14 2.133498 1_455
Mg28 O13 2.133498 1_555
Mg28 O3 2.165307 1_556
Mg28 O5 2.184638 1_555
Mg28 O29 2.270719 1_555
Mg29 O30 2.145363 1_555
Mg29 O6 2.146497 1_555
Mg29 O13 2.146533 1_555
Mg29 O14 2.146533 1_555
Mg29 O4 2.214778 1_556
Mg29 O26 2.217344 1_545
O0 Rb0 2.445084 1_565
O4 Rb0 2.372771 1_555
O15 Rb0 2.476759 1_565
O16 Rb0 2.476759 1_565
O24 Rb0 2.419611 1_565
O26 Rb0 2.419611 1_566
