# generated using pymatgen
data_KLiZn3O4
_symmetry_space_group_name_H-M   'P 1'
_cell_length_a   6.09722881
_cell_length_b   6.09722881
_cell_length_c   8.27705559
_cell_angle_alpha   47.71876065
_cell_angle_beta   47.71876065
_cell_angle_gamma   32.02572997
_symmetry_Int_Tables_number   1
_chemical_formula_structural   KLiZn3O4
_chemical_formula_sum   'K1 Li1 Zn3 O4'
_cell_volume   116.54421921
_cell_formula_units_Z   1
loop_
 _symmetry_equiv_pos_site_id
 _symmetry_equiv_pos_as_xyz
  1  'x, y, z'
loop_
 _atom_site_type_symbol
 _atom_site_label
 _atom_site_symmetry_multiplicity
 _atom_site_fract_x
 _atom_site_fract_y
 _atom_site_fract_z
 _atom_site_occupancy
  K  K0  1  0.99504400  0.99504400  0.00365100  1
  Li  Li0  1  0.18005300  0.18005300  0.18738400  1
  Zn  Zn0  1  0.80309400  0.80309400  0.83882800  1
  Zn  Zn1  1  0.63008200  0.63008200  0.54070900  1
  Zn  Zn2  1  0.37730400  0.37730400  0.43895500  1
  O  O0  1  0.23485700  0.23485700  0.36819500  1
  O  O1  1  0.77332900  0.77332900  0.62983800  1
  O  O2  1  0.40449000  0.40449000  0.82329500  1
  O  O3  1  0.60174700  0.60174700  0.16914600  1
loop_
_geom_bond_atom_site_label_1
_geom_bond_atom_site_label_2
_geom_bond_distance
_geom_bond_site_symmetry_2
K0 O0 2.890081 1_565
K0 O0 2.890081 1_655
K0 O2 2.898634 1_564
K0 O2 2.898634 1_654
K0 O3 2.944115 1_565
K0 O3 2.944115 1_655
K0 O1 2.985633 1_654
K0 O1 2.985633 1_564
Li0 O3 1.971830 1_455
Li0 O3 1.971830 1_545
Li0 O0 1.999545 1_555
Li0 O2 2.214598 1_554
O0 Zn1 1.980219 1_455
O0 Zn1 1.980219 1_545
O0 Zn2 2.121255 1_555
O1 Zn0 1.989681 1_555
O1 Zn2 2.028546 1_565
O1 Zn2 2.028546 1_655
O1 Zn1 2.257739 1_555
O2 Zn1 1.950631 1_555
O2 Zn0 2.010987 1_455
O2 Zn0 2.010987 1_545
O3 Zn2 1.919360 1_555
O3 Zn0 2.003080 1_554
