# generated using pymatgen
data_CaMg14Al
_symmetry_space_group_name_H-M   'P 1'
_cell_length_a   6.42709103
_cell_length_b   6.42709051
_cell_length_c   10.50976893
_cell_angle_alpha   90.00000000
_cell_angle_beta   90.00000000
_cell_angle_gamma   120.00000273
_symmetry_Int_Tables_number   1
_chemical_formula_structural   CaMg14Al
_chemical_formula_sum   'Ca1 Mg14 Al1'
_cell_volume   375.96953420
_cell_formula_units_Z   1
loop_
 _symmetry_equiv_pos_site_id
 _symmetry_equiv_pos_as_xyz
  1  'x, y, z'
loop_
 _atom_site_type_symbol
 _atom_site_label
 _atom_site_symmetry_multiplicity
 _atom_site_fract_x
 _atom_site_fract_y
 _atom_site_fract_z
 _atom_site_occupancy
  Ca  Ca0  1  0.16666700  0.33333300  0.62500000  1
  Mg  Mg0  1  0.16437698  0.83218799  0.12500000  1
  Mg  Mg1  1  0.17342386  0.83671143  0.62500000  1
  Mg  Mg2  1  0.66781201  0.33562302  0.12500000  1
  Mg  Mg3  1  0.66328857  0.32657614  0.62500000  1
  Mg  Mg4  1  0.66781201  0.83218799  0.12500000  1
  Mg  Mg5  1  0.66328857  0.83671143  0.62500000  1
  Mg  Mg6  1  0.33348700  0.16651300  0.36712950  1
  Mg  Mg7  1  0.33348700  0.16651300  0.88287050  1
  Mg  Mg8  1  0.33348700  0.66697499  0.36712950  1
  Mg  Mg9  1  0.33348700  0.66697499  0.88287050  1
  Mg  Mg10  1  0.83302501  0.16651300  0.36712950  1
  Mg  Mg11  1  0.83302501  0.16651300  0.88287050  1
  Mg  Mg12  1  0.83333300  0.66666700  0.37921610  1
  Mg  Mg13  1  0.83333300  0.66666700  0.87078390  1
  Al  Al0  1  0.16666700  0.33333300  0.12500000  1
loop_
_geom_bond_atom_site_label_1
_geom_bond_atom_site_label_2
_geom_bond_distance
_geom_bond_site_symmetry_2
Ca0 Mg5 3.213765 1_555
Ca0 Mg1 3.213765 1_555
Ca0 Mg5 3.213765 1_445
Ca0 Mg1 3.213765 1_545
Ca0 Mg3 3.213766 1_455
Ca0 Mg3 3.213766 1_555
Ca0 Mg6 3.285360 1_555
Ca0 Mg7 3.285360 1_555
Ca0 Mg9 3.285366 1_555
Ca0 Mg8 3.285366 1_555
Ca0 Mg10 3.285367 1_455
Ca0 Mg11 3.285367 1_455
Mg0 Mg9 3.152546 1_554
Mg0 Mg8 3.152546 1_555
Mg0 Mg7 3.152552 1_564
Mg0 Mg6 3.152552 1_565
Mg0 Mg2 3.191468 1_455
Mg0 Mg4 3.191468 1_455
Mg0 Mg2 3.235623 1_565
Mg0 Mg4 3.235623 1_555
Mg0 Mg12 3.245525 1_455
Mg0 Mg13 3.245525 1_454
Mg1 Mg3 3.148405 1_565
Mg1 Mg5 3.148405 1_555
Mg1 Mg13 3.202475 1_455
Mg1 Mg12 3.202475 1_455
Mg1 Mg8 3.273473 1_555
Mg1 Mg9 3.273473 1_555
Mg1 Mg7 3.273479 1_565
Mg1 Mg6 3.273479 1_565
Mg1 Mg3 3.278686 1_455
Mg1 Mg5 3.278686 1_455
Mg2 Mg7 3.152552 1_554
Mg2 Mg6 3.152552 1_555
Mg2 Mg4 3.191468 1_555
Mg2 Mg4 3.235623 1_545
Mg3 Mg5 3.148405 1_545
Mg3 Mg6 3.273479 1_555
Mg3 Mg7 3.273479 1_555
Mg3 Mg5 3.278686 1_555
Mg4 Mg9 3.152552 1_554
Mg4 Mg8 3.152552 1_555
Mg5 Mg8 3.273479 1_555
Mg5 Mg9 3.273479 1_555
Mg6 Mg8 3.210576 1_545
Mg6 Mg8 3.216515 1_555
Mg7 Mg9 3.210576 1_545
Mg7 Mg9 3.216515 1_555
Mg10 Mg2 3.152546 1_555
Mg10 Mg4 3.152552 1_545
Mg10 Mg8 3.210576 1_545
Mg10 Mg6 3.210576 1_555
Mg10 Mg12 3.216055 1_545
Mg10 Mg12 3.216055 1_555
Mg10 Mg8 3.216515 1_655
Mg10 Mg6 3.216515 1_655
Mg10 Mg3 3.273473 1_555
Mg10 Mg5 3.273479 1_545
Mg11 Mg2 3.152546 1_556
Mg11 Mg4 3.152552 1_546
Mg11 Mg9 3.210576 1_545
Mg11 Mg7 3.210576 1_555
Mg11 Mg13 3.216055 1_545
Mg11 Mg13 3.216055 1_555
Mg11 Mg9 3.216515 1_655
Mg11 Mg7 3.216515 1_655
Mg11 Mg3 3.273473 1_555
Mg11 Mg5 3.273479 1_545
Mg12 Mg5 3.202468 1_555
Mg12 Mg3 3.202475 1_555
Mg12 Mg6 3.216055 1_555
Mg12 Mg6 3.216055 1_665
Mg12 Mg8 3.216056 1_555
Mg12 Mg8 3.216056 1_655
Mg12 Mg4 3.245518 1_555
Mg12 Mg2 3.245525 1_555
Mg13 Mg5 3.202468 1_555
Mg13 Mg3 3.202475 1_555
Mg13 Mg7 3.216055 1_555
Mg13 Mg7 3.216055 1_665
Mg13 Mg9 3.216056 1_555
Mg13 Mg9 3.216056 1_655
Mg13 Mg4 3.245518 1_556
Mg13 Mg2 3.245525 1_556
Al0 Mg7 3.150278 1_554
Al0 Mg6 3.150278 1_555
Al0 Mg9 3.150285 1_554
Al0 Mg8 3.150285 1_555
Al0 Mg11 3.150285 1_454
Al0 Mg10 3.150285 1_455
Al0 Mg4 3.213571 1_445
Al0 Mg4 3.213571 1_555
Al0 Mg0 3.213571 1_545
Al0 Mg0 3.213571 1_555
Al0 Mg2 3.213571 1_555
Al0 Mg2 3.213571 1_455
