# generated using pymatgen
data_Ca2Zn
_symmetry_space_group_name_H-M   'P 1'
_cell_length_a   7.45848800
_cell_length_b   7.45848800
_cell_length_c   3.94837800
_cell_angle_alpha   90.00000000
_cell_angle_beta   90.00000000
_cell_angle_gamma   90.00000000
_symmetry_Int_Tables_number   1
_chemical_formula_structural   Ca2Zn
_chemical_formula_sum   'Ca4 Zn2'
_cell_volume   219.64449051
_cell_formula_units_Z   2
loop_
 _symmetry_equiv_pos_site_id
 _symmetry_equiv_pos_as_xyz
  1  'x, y, z'
loop_
 _atom_site_type_symbol
 _atom_site_label
 _atom_site_symmetry_multiplicity
 _atom_site_fract_x
 _atom_site_fract_y
 _atom_site_fract_z
 _atom_site_occupancy
  Ca  Ca0  1  0.28215600  0.28215600  0.00000000  1
  Ca  Ca1  1  0.71784400  0.71784400  0.00000000  1
  Ca  Ca2  1  0.21784400  0.78215600  0.50000000  1
  Ca  Ca3  1  0.78215600  0.21784400  0.50000000  1
  Zn  Zn0  1  0.00000000  0.00000000  0.00000000  1
  Zn  Zn1  1  0.50000000  0.50000000  0.50000000  1
loop_
_geom_bond_atom_site_label_1
_geom_bond_atom_site_label_2
_geom_bond_distance
_geom_bond_site_symmetry_2
Ca0 Zn0 2.976152 1_555
Ca0 Zn1 3.029404 1_555
Ca0 Zn1 3.029404 1_554
Ca1 Zn0 2.976152 1_665
Ca1 Zn1 3.029404 1_555
Ca1 Zn1 3.029404 1_554
Ca2 Zn1 2.976152 1_555
Ca2 Zn0 3.029404 1_566
Ca2 Zn0 3.029404 1_565
Ca3 Zn1 2.976152 1_555
Ca3 Zn0 3.029404 1_655
Ca3 Zn0 3.029404 1_656
