# generated using pymatgen
data_TmReTc2
_symmetry_space_group_name_H-M   'P 1'
_cell_length_a   4.53753391
_cell_length_b   4.53753391
_cell_length_c   4.53753391
_cell_angle_alpha   60.00000000
_cell_angle_beta   60.00000000
_cell_angle_gamma   60.00000000
_symmetry_Int_Tables_number   1
_chemical_formula_structural   TmReTc2
_chemical_formula_sum   'Tm1 Re1 Tc2'
_cell_volume   66.06092554
_cell_formula_units_Z   1
loop_
 _symmetry_equiv_pos_site_id
 _symmetry_equiv_pos_as_xyz
  1  'x, y, z'
loop_
 _atom_site_type_symbol
 _atom_site_label
 _atom_site_symmetry_multiplicity
 _atom_site_fract_x
 _atom_site_fract_y
 _atom_site_fract_z
 _atom_site_occupancy
  Tm  Tm0  1  0.74999900  0.74999900  0.74999900  1
  Re  Re0  1  0.25000000  0.25000000  0.25000000  1
  Tc  Tc0  1  0.49999900  0.49999900  0.49999900  1
  Tc  Tc1  1  0.00000000  0.00000000  0.00000000  1
loop_
_geom_bond_atom_site_label_1
_geom_bond_atom_site_label_2
_geom_bond_distance
_geom_bond_site_symmetry_2
Re0 Tc0 2.778650 1_555
Re0 Tc1 2.778661 1_565
Re0 Tc1 2.778661 1_655
Re0 Tc1 2.778661 1_556
Re0 Tc1 2.778661 1_555
Re0 Tc0 2.778664 1_545
Re0 Tc0 2.778664 1_455
Re0 Tc0 2.778664 1_554
Tc0 Tm0 2.778661 1_455
Tc0 Tm0 2.778661 1_545
Tc0 Tm0 2.778661 1_554
Tc0 Tm0 2.778661 1_555
Tc1 Tm0 2.778657 1_544
Tc1 Tm0 2.778657 1_445
Tc1 Tm0 2.778657 1_454
Tc1 Tm0 2.778672 1_444
