# generated using pymatgen
data_La(ZnP)3
_symmetry_space_group_name_H-M   'P 1'
_cell_length_a   4.04901187
_cell_length_b   4.04901187
_cell_length_c   20.18381147
_cell_angle_alpha   90.00000000
_cell_angle_beta   90.00000000
_cell_angle_gamma   119.99998974
_symmetry_Int_Tables_number   1
_chemical_formula_structural   La(ZnP)3
_chemical_formula_sum   'La2 Zn6 P6'
_cell_volume   286.57081435
_cell_formula_units_Z   2
loop_
 _symmetry_equiv_pos_site_id
 _symmetry_equiv_pos_as_xyz
  1  'x, y, z'
loop_
 _atom_site_type_symbol
 _atom_site_label
 _atom_site_symmetry_multiplicity
 _atom_site_fract_x
 _atom_site_fract_y
 _atom_site_fract_z
 _atom_site_occupancy
  La  La0  1  -0.00000000  0.00000000  -0.00000000  1
  La  La1  1  -0.00000000  0.00000000  0.50000000  1
  Zn  Zn0  1  0.33333300  0.66666700  0.75000000  1
  Zn  Zn1  1  0.66666700  0.33333300  0.25000000  1
  Zn  Zn2  1  0.33333300  0.66666700  0.13115875  1
  Zn  Zn3  1  0.66666700  0.33333300  0.86884125  1
  Zn  Zn4  1  0.66666700  0.33333300  0.63115875  1
  Zn  Zn5  1  0.33333300  0.66666700  0.36884125  1
  P  P0  1  0.33333300  0.66666700  0.58963959  1
  P  P1  1  0.66666700  0.33333300  0.41036041  1
  P  P2  1  0.66666700  0.33333300  0.08963959  1
  P  P3  1  0.33333300  0.66666700  0.91036041  1
  P  P4  1  0.33333300  0.66666700  0.25000000  1
  P  P5  1  0.66666700  0.33333300  0.75000000  1
loop_
_geom_bond_atom_site_label_1
_geom_bond_atom_site_label_2
_geom_bond_distance
_geom_bond_site_symmetry_2
La0 P3 2.956057 1_544
La0 P2 2.956057 1_455
La0 P3 2.956060 1_444
La0 P2 2.956060 1_555
La0 P3 2.956060 1_554
La0 P2 2.956060 1_445
La1 P1 2.956057 1_455
La1 P0 2.956057 1_545
La1 P1 2.956060 1_555
La1 P0 2.956060 1_445
La1 P1 2.956060 1_445
La1 P0 2.956060 1_555
P0 Zn4 2.483363 1_455
P0 Zn4 2.483363 1_565
P0 Zn4 2.483369 1_555
P1 Zn5 2.483363 1_545
P1 Zn5 2.483363 1_655
P1 Zn5 2.483369 1_555
P2 Zn2 2.483363 1_655
P2 Zn2 2.483363 1_545
P2 Zn2 2.483369 1_555
P3 Zn3 2.483363 1_455
P3 Zn3 2.483363 1_565
P3 Zn3 2.483369 1_555
P4 Zn1 2.337696 1_455
P4 Zn1 2.337696 1_565
P4 Zn1 2.337703 1_555
P4 Zn2 2.398669 1_555
P4 Zn5 2.398669 1_555
P5 Zn0 2.337696 1_545
P5 Zn0 2.337696 1_655
P5 Zn0 2.337703 1_555
P5 Zn4 2.398669 1_555
P5 Zn3 2.398669 1_555
