# generated using pymatgen
data_HoTl(MoO4)2
_symmetry_space_group_name_H-M   'P 1'
_cell_length_a   5.13488200
_cell_length_b   8.16055200
_cell_length_c   18.84014200
_cell_angle_alpha   90.00000000
_cell_angle_beta   90.00000000
_cell_angle_gamma   90.00000000
_symmetry_Int_Tables_number   1
_chemical_formula_structural   HoTl(MoO4)2
_chemical_formula_sum   'Ho4 Tl4 Mo8 O32'
_cell_volume   789.46735476
_cell_formula_units_Z   4
loop_
 _symmetry_equiv_pos_site_id
 _symmetry_equiv_pos_as_xyz
  1  'x, y, z'
loop_
 _atom_site_type_symbol
 _atom_site_label
 _atom_site_symmetry_multiplicity
 _atom_site_fract_x
 _atom_site_fract_y
 _atom_site_fract_z
 _atom_site_occupancy
  Ho  Ho0  1  0.00000000  0.75000000  0.00647300  1
  Ho  Ho1  1  0.00000000  0.25000000  0.99352700  1
  Ho  Ho2  1  0.50000000  0.25000000  0.49352700  1
  Ho  Ho3  1  0.50000000  0.75000000  0.50647300  1
  Tl  Tl0  1  0.00000000  0.75000000  0.76943400  1
  Tl  Tl1  1  0.00000000  0.25000000  0.23056600  1
  Tl  Tl2  1  0.50000000  0.25000000  0.73056600  1
  Tl  Tl3  1  0.50000000  0.75000000  0.26943400  1
  Mo  Mo0  1  0.02239900  0.51541500  0.40060300  1
  Mo  Mo1  1  0.97760100  0.48458500  0.59939700  1
  Mo  Mo2  1  0.47760100  0.01541500  0.09939700  1
  Mo  Mo3  1  0.97760100  0.98458500  0.40060300  1
  Mo  Mo4  1  0.52239900  0.98458500  0.90060300  1
  Mo  Mo5  1  0.02239900  0.01541500  0.59939700  1
  Mo  Mo6  1  0.52239900  0.48458500  0.09939700  1
  Mo  Mo7  1  0.47760100  0.51541500  0.90060300  1
  O  O0  1  0.09926200  0.97591000  0.31321400  1
  O  O1  1  0.90073800  0.02409000  0.68678600  1
  O  O2  1  0.40073800  0.47591000  0.18678600  1
  O  O3  1  0.90073800  0.52409000  0.31321400  1
  O  O4  1  0.59926200  0.52409000  0.81321400  1
  O  O5  1  0.09926200  0.47591000  0.68678600  1
  O  O6  1  0.59926200  0.02409000  0.18678600  1
  O  O7  1  0.40073800  0.97591000  0.81321400  1
  O  O8  1  0.26742400  0.83904400  0.09695000  1
  O  O9  1  0.73257600  0.16095600  0.90305000  1
  O  O10  1  0.23257600  0.33904400  0.40305000  1
  O  O11  1  0.73257600  0.66095600  0.09695000  1
  O  O12  1  0.76742400  0.66095600  0.59695000  1
  O  O13  1  0.26742400  0.33904400  0.90305000  1
  O  O14  1  0.76742400  0.16095600  0.40305000  1
  O  O15  1  0.23257600  0.83904400  0.59695000  1
  O  O16  1  0.24592200  0.50555600  0.03562300  1
  O  O17  1  0.75407800  0.49444400  0.96437700  1
  O  O18  1  0.25407800  0.00555600  0.46437700  1
  O  O19  1  0.75407800  0.99444400  0.03562300  1
  O  O20  1  0.74592200  0.99444400  0.53562300  1
  O  O21  1  0.24592200  0.00555600  0.96437700  1
  O  O22  1  0.74592200  0.49444400  0.46437700  1
  O  O23  1  0.25407800  0.50555600  0.53562300  1
  O  O24  1  0.24255600  0.68933000  0.41093300  1
  O  O25  1  0.75744400  0.31067000  0.58906700  1
  O  O26  1  0.25744400  0.18933000  0.08906700  1
  O  O27  1  0.75744400  0.81067000  0.41093300  1
  O  O28  1  0.74255600  0.81067000  0.91093300  1
  O  O29  1  0.24255600  0.18933000  0.58906700  1
  O  O30  1  0.74255600  0.31067000  0.08906700  1
  O  O31  1  0.25744400  0.68933000  0.91093300  1
loop_
_geom_bond_atom_site_label_1
_geom_bond_atom_site_label_2
_geom_bond_distance
_geom_bond_site_symmetry_2
Ho0 O28 2.287491 1_454
Ho0 O31 2.287491 1_554
Ho0 O11 2.306367 1_455
Ho0 O8 2.306367 1_555
Ho0 O19 2.423931 1_455
Ho0 O16 2.423931 1_555
Ho0 O21 2.563754 1_564
Ho0 O17 2.563754 1_454
Ho1 O30 2.287491 1_456
Ho1 O26 2.287491 1_556
Ho1 O9 2.306367 1_455
Ho1 O13 2.306367 1_555
Ho1 O17 2.423931 1_455
Ho1 O21 2.423931 1_555
Ho1 O19 2.563754 1_446
Ho1 O16 2.563754 1_556
Ho2 O25 2.287491 1_555
Ho2 O29 2.287491 1_555
Ho2 O14 2.306367 1_555
Ho2 O10 2.306367 1_555
Ho2 O18 2.423931 1_555
Ho2 O22 2.423931 1_555
Ho2 O23 2.563754 1_555
Ho2 O20 2.563754 1_545
Ho3 O27 2.287491 1_555
Ho3 O24 2.287491 1_555
Ho3 O15 2.306367 1_555
Ho3 O12 2.306367 1_555
Ho3 O20 2.423931 1_555
Ho3 O23 2.423931 1_555
Ho3 O18 2.563754 1_565
Ho3 O22 2.563754 1_555
Mo0 O3 1.762380 1_455
Mo0 O10 1.799559 1_555
Mo0 O24 1.824859 1_555
Mo0 O22 1.867725 1_455
Mo1 O5 1.762380 1_655
Mo1 O12 1.799559 1_555
Mo1 O25 1.824859 1_555
Mo1 O23 1.867725 1_655
Mo2 O6 1.762380 1_555
Mo2 O8 1.799559 1_545
Mo2 O26 1.824859 1_555
Mo2 O19 1.867725 1_545
Mo3 O0 1.762380 1_655
Mo3 O14 1.799559 1_565
Mo3 O27 1.824859 1_555
Mo3 O18 1.867725 1_665
Mo4 O7 1.762380 1_555
Mo4 O9 1.799559 1_565
Mo4 O28 1.824859 1_555
Mo4 O21 1.867725 1_565
Mo5 O1 1.762380 1_455
Mo5 O15 1.799559 1_545
Mo5 O29 1.824859 1_555
Mo5 O20 1.867725 1_445
Mo6 O2 1.762380 1_555
Mo6 O11 1.799559 1_555
Mo6 O30 1.824859 1_555
Mo6 O16 1.867725 1_555
Mo7 O4 1.762380 1_555
Mo7 O13 1.799559 1_555
Mo7 O31 1.824859 1_555
Mo7 O17 1.867725 1_555
O0 Tl1 2.772597 1_565
O1 Tl0 2.772597 1_645
O2 Tl3 2.772597 1_555
O3 Tl1 2.772597 1_655
O4 Tl2 2.772597 1_555
O5 Tl0 2.772597 1_555
O6 Tl3 2.772597 1_545
O7 Tl2 2.772597 1_565
