# generated using pymatgen
data_Ca2NdNbO6
_symmetry_space_group_name_H-M   'P 1'
_cell_length_a   5.66302420
_cell_length_b   5.95003400
_cell_length_c   8.22281823
_cell_angle_alpha   90.00000000
_cell_angle_beta   90.17348460
_cell_angle_gamma   90.00000000
_symmetry_Int_Tables_number   1
_chemical_formula_structural   Ca2NdNbO6
_chemical_formula_sum   'Ca4 Nd2 Nb2 O12'
_cell_volume   277.06812401
_cell_formula_units_Z   2
loop_
 _symmetry_equiv_pos_site_id
 _symmetry_equiv_pos_as_xyz
  1  'x, y, z'
loop_
 _atom_site_type_symbol
 _atom_site_label
 _atom_site_symmetry_multiplicity
 _atom_site_fract_x
 _atom_site_fract_y
 _atom_site_fract_z
 _atom_site_occupancy
  Ca  Ca0  1  0.99918900  0.99650700  0.49960900  1
  Ca  Ca1  1  0.49918900  0.50349300  0.99960900  1
  Ca  Ca2  1  0.51438600  0.94411500  0.24489600  1
  Ca  Ca3  1  0.01438600  0.55588500  0.74489600  1
  Nd  Nd0  1  0.48427100  0.05814200  0.75556000  1
  Nd  Nd1  1  0.98427100  0.44185800  0.25556000  1
  Nb  Nb0  1  0.49977700  0.50122700  0.50155600  1
  Nb  Nb1  1  0.99977700  0.99877300  0.00155600  1
  O  O0  1  0.83143300  0.71215200  0.07296500  1
  O  O1  1  0.33143300  0.78784800  0.57296500  1
  O  O2  1  0.17331500  0.28230800  0.92771600  1
  O  O3  1  0.67331500  0.21769200  0.42771600  1
  O  O4  1  0.37726400  0.55702000  0.26957400  1
  O  O5  1  0.87726400  0.94298000  0.76957400  1
  O  O6  1  0.61780200  0.44252400  0.73032500  1
  O  O7  1  0.11780200  0.05747500  0.23032500  1
  O  O8  1  0.79355400  0.67532900  0.44460600  1
  O  O9  1  0.29355400  0.82467100  0.94460600  1
  O  O10  1  0.20901000  0.32144400  0.55319300  1
  O  O11  1  0.70901000  0.17855600  0.05319300  1
loop_
_geom_bond_atom_site_label_1
_geom_bond_atom_site_label_2
_geom_bond_distance
_geom_bond_site_symmetry_2
Ca0 O8 2.282425 1_555
Ca0 O10 2.311021 1_665
Ca0 O1 2.332043 1_655
Ca0 O3 2.341046 1_565
Ca0 O7 2.344099 1_665
Ca0 O5 2.348466 1_555
Ca1 O9 2.282425 1_555
Ca1 O11 2.311021 1_556
Ca1 O0 2.332043 1_556
Ca1 O2 2.341046 1_555
Ca1 O6 2.344100 1_555
Ca1 O4 2.348466 1_556
Ca2 O7 2.347675 1_565
Ca2 O11 2.378226 1_565
Ca2 O3 2.389863 1_565
Ca2 O4 2.439259 1_555
Ca2 O0 2.672568 1_555
Ca2 O8 2.781744 1_555
Ca2 O9 2.854370 1_554
Ca2 O1 3.038454 1_555
Ca3 O6 2.347677 1_455
Ca3 O10 2.378226 1_555
Ca3 O2 2.389863 1_555
Ca3 O5 2.439259 1_455
Ca3 O1 2.672568 1_555
Ca3 O9 2.781744 1_555
Ca3 O8 2.854370 1_455
Ca3 O0 3.038454 1_456
Nd0 O5 2.331143 1_545
Nd0 O9 2.350075 1_545
Nd0 O1 2.362646 1_545
Nd0 O6 2.417973 1_555
Nd0 O2 2.626595 1_555
Nd0 O10 2.763617 1_555
Nd0 O11 2.846737 1_556
Nd0 O3 3.054856 1_555
Nd1 O4 2.331143 1_655
Nd1 O8 2.350075 1_555
Nd1 O0 2.362646 1_555
Nd1 O7 2.417978 1_655
Nd1 O3 2.626595 1_555
Nd1 O11 2.763617 1_555
Nd1 O10 2.846737 1_655
Nd1 O2 3.054856 1_654
Nb0 O10 2.010017 1_555
Nb0 O8 2.016163 1_555
Nb0 O6 2.024784 1_555
Nb0 O1 2.040938 1_555
Nb0 O3 2.045528 1_555
Nb0 O4 2.054817 1_555
Nb1 O11 2.010017 1_565
Nb1 O9 2.016163 1_654
Nb1 O7 2.024783 1_665
Nb1 O0 2.040938 1_555
Nb1 O2 2.045528 1_664
Nb1 O5 2.054817 1_554
