# generated using pymatgen
data_ErAgS2
_symmetry_space_group_name_H-M   'P 1'
_cell_length_a   3.91296700
_cell_length_b   3.91296700
_cell_length_c   5.41348400
_cell_angle_alpha   90.00000000
_cell_angle_beta   90.00000000
_cell_angle_gamma   90.00000000
_symmetry_Int_Tables_number   1
_chemical_formula_structural   ErAgS2
_chemical_formula_sum   'Er1 Ag1 S2'
_cell_volume   82.88753573
_cell_formula_units_Z   1
loop_
 _symmetry_equiv_pos_site_id
 _symmetry_equiv_pos_as_xyz
  1  'x, y, z'
loop_
 _atom_site_type_symbol
 _atom_site_label
 _atom_site_symmetry_multiplicity
 _atom_site_fract_x
 _atom_site_fract_y
 _atom_site_fract_z
 _atom_site_occupancy
  Er  Er0  1  0.50000000  0.50000000  0.00000000  1
  Ag  Ag0  1  0.00000000  0.00000000  0.50000000  1
  S  S0  1  0.00000000  0.00000000  0.00000000  1
  S  S1  1  0.50000000  0.50000000  0.50000000  1
loop_
_geom_bond_atom_site_label_1
_geom_bond_atom_site_label_2
_geom_bond_distance
_geom_bond_site_symmetry_2
Er0 S1 2.706742 1_555
Er0 S1 2.706742 1_554
Er0 S0 2.766886 1_555
Er0 S0 2.766886 1_565
Er0 S0 2.766886 1_655
Er0 S0 2.766886 1_665
Ag0 S0 2.706742 1_556
Ag0 S0 2.706742 1_555
Ag0 S1 2.766886 1_445
Ag0 S1 2.766886 1_455
Ag0 S1 2.766886 1_555
Ag0 S1 2.766886 1_545
