# generated using pymatgen
data_Nd3Ru
_symmetry_space_group_name_H-M   'P 1'
_cell_length_a   6.52028582
_cell_length_b   7.38442301
_cell_length_c   9.76339012
_cell_angle_alpha   90.00000000
_cell_angle_beta   90.00000000
_cell_angle_gamma   90.00000000
_symmetry_Int_Tables_number   1
_chemical_formula_structural   Nd3Ru
_chemical_formula_sum   'Nd12 Ru4'
_cell_volume   470.09306409
_cell_formula_units_Z   4
loop_
 _symmetry_equiv_pos_site_id
 _symmetry_equiv_pos_as_xyz
  1  'x, y, z'
loop_
 _atom_site_type_symbol
 _atom_site_label
 _atom_site_symmetry_multiplicity
 _atom_site_fract_x
 _atom_site_fract_y
 _atom_site_fract_z
 _atom_site_occupancy
  Nd  Nd0  1  0.32630986  0.67397213  0.06872187  1
  Nd  Nd1  1  0.17369014  0.17397213  0.43127813  1
  Nd  Nd2  1  0.67369014  0.32602687  0.56872187  1
  Nd  Nd3  1  0.82630986  0.82602787  0.93127813  1
  Nd  Nd4  1  0.67369014  0.32602687  0.93127813  1
  Nd  Nd5  1  0.82630986  0.82602787  0.56872187  1
  Nd  Nd6  1  0.32630986  0.67397213  0.43127813  1
  Nd  Nd7  1  0.17369014  0.17397213  0.06872187  1
  Nd  Nd8  1  0.85594482  0.54600773  0.25000000  1
  Nd  Nd9  1  0.64405518  0.04600773  0.25000000  1
  Nd  Nd10  1  0.14405518  0.45399227  0.75000000  1
  Nd  Nd11  1  0.35594482  0.95399227  0.75000000  1
  Ru  Ru0  1  0.04615280  0.88748800  0.25000000  1
  Ru  Ru1  1  0.45384720  0.38748800  0.25000000  1
  Ru  Ru2  1  0.95384720  0.11251200  0.75000000  1
  Ru  Ru3  1  0.54615280  0.61251200  0.75000000  1
loop_
_geom_bond_atom_site_label_1
_geom_bond_atom_site_label_2
_geom_bond_distance
_geom_bond_site_symmetry_2
Nd0 Ru1 2.880878 1_555
Nd0 Ru0 2.992543 1_555
Nd0 Ru3 3.456018 1_554
Nd1 Ru0 2.880878 1_545
Nd1 Ru1 2.992543 1_555
Nd1 Ru2 3.456018 1_455
Nd2 Ru3 2.880883 1_555
Nd2 Ru2 2.992539 1_555
Nd2 Ru1 3.456019 1_555
Nd3 Ru2 2.880878 1_565
Nd3 Ru3 2.992543 1_555
Nd3 Ru0 3.456018 1_656
Nd4 Ru3 2.880883 1_555
Nd4 Ru2 2.992539 1_555
Nd4 Ru1 3.456019 1_556
Nd5 Ru2 2.880878 1_565
Nd5 Ru3 2.992543 1_555
Nd5 Ru0 3.456018 1_655
Nd6 Ru1 2.880878 1_555
Nd6 Ru0 2.992543 1_555
Nd6 Ru3 3.456018 1_555
Nd7 Ru0 2.880878 1_545
Nd7 Ru1 2.992543 1_555
Nd7 Ru2 3.456018 1_454
Nd8 Ru0 2.810118 1_655
Nd8 Ru1 2.871244 1_555
Nd9 Ru1 2.810118 1_555
Nd9 Ru0 2.871244 1_645
Nd10 Ru2 2.810118 1_455
Nd10 Ru3 2.871244 1_555
Nd11 Ru3 2.810118 1_555
Nd11 Ru2 2.871244 1_465
