# generated using pymatgen
data_PuN2O11
_symmetry_space_group_name_H-M   'P 1'
_cell_length_a   7.36430895
_cell_length_b   7.58246026
_cell_length_c   10.34419628
_cell_angle_alpha   82.79390201
_cell_angle_beta   77.72640006
_cell_angle_gamma   67.92999159
_symmetry_Int_Tables_number   1
_chemical_formula_structural   PuN2O11
_chemical_formula_sum   'Pu2 N4 O22'
_cell_volume   522.39368368
_cell_formula_units_Z   2
loop_
 _symmetry_equiv_pos_site_id
 _symmetry_equiv_pos_as_xyz
  1  'x, y, z'
loop_
 _atom_site_type_symbol
 _atom_site_label
 _atom_site_symmetry_multiplicity
 _atom_site_fract_x
 _atom_site_fract_y
 _atom_site_fract_z
 _atom_site_occupancy
  Pu  Pu0  1  0.50000000  0.50000000  0.50000000  1
  Pu  Pu1  1  0.50000000  0.00000000  0.00000000  1
  N  N0  1  0.82840900  0.11747100  0.38965300  1
  N  N1  1  0.17159100  0.88252900  0.61034700  1
  N  N2  1  0.75226900  0.23519400  0.04363900  1
  N  N3  1  0.24773100  0.76480600  0.95636100  1
  O  O0  1  0.58452300  0.42459100  0.65612300  1
  O  O1  1  0.41547700  0.57540900  0.34387700  1
  O  O2  1  0.65478900  0.12189200  0.44243600  1
  O  O3  1  0.34521100  0.87810800  0.55756400  1
  O  O4  1  0.96041900  0.96970000  0.34644500  1
  O  O5  1  0.03958100  0.03030000  0.65355500  1
  O  O6  1  0.86025800  0.27236300  0.38335900  1
  O  O7  1  0.13974200  0.72763700  0.61664100  1
  O  O8  1  0.67591600  0.62154400  0.45206200  1
  O  O9  1  0.32408400  0.37845600  0.54793800  1
  O  O10  1  0.66527800  0.79262000  0.07712400  1
  O  O11  1  0.33472200  0.20738000  0.92287600  1
  O  O12  1  0.78087600  0.15715900  0.93559700  1
  O  O13  1  0.21912400  0.84284100  0.06440300  1
  O  O14  1  0.85434900  0.32592600  0.05939700  1
  O  O15  1  0.14565100  0.67407400  0.94060300  1
  O  O16  1  0.61428300  0.21598200  0.13511100  1
  O  O17  1  0.38571700  0.78401800  0.86488900  1
  O  O18  1  0.65665200  0.93127900  0.84028800  1
  O  O19  1  0.34334800  0.06872100  0.15971200  1
  O  O20  1  0.06540500  0.52802900  0.23169100  1
  O  O21  1  0.93459500  0.47197100  0.76830900  1
loop_
_geom_bond_atom_site_label_1
_geom_bond_atom_site_label_2
_geom_bond_distance
_geom_bond_site_symmetry_2
N0 O4 1.233956 1_545
N0 O2 1.268703 1_555
N0 O6 1.272770 1_555
N1 O5 1.233956 1_565
N1 O3 1.268703 1_555
N1 O7 1.272770 1_555
N2 O14 1.238501 1_555
N2 O12 1.271086 1_554
N2 O16 1.271611 1_555
N3 O15 1.238501 1_555
N3 O13 1.271086 1_556
N3 O17 1.271611 1_555
O0 Pu0 1.802990 1_555
O1 Pu0 1.802990 1_555
O8 Pu0 1.811906 1_555
O9 Pu0 1.811906 1_555
O10 Pu1 1.802884 1_565
O11 Pu1 1.802884 1_556
O18 Pu1 1.812655 1_566
O19 Pu1 1.812655 1_555
