# generated using pymatgen
data_Na2TlNiF6
_symmetry_space_group_name_H-M   'P 1'
_cell_length_a   6.12367100
_cell_length_b   6.12367155
_cell_length_c   6.12367103
_cell_angle_alpha   59.99999242
_cell_angle_beta   59.99999473
_cell_angle_gamma   59.99999758
_symmetry_Int_Tables_number   1
_chemical_formula_structural   Na2TlNiF6
_chemical_formula_sum   'Na2 Tl1 Ni1 F6'
_cell_volume   162.37551533
_cell_formula_units_Z   1
loop_
 _symmetry_equiv_pos_site_id
 _symmetry_equiv_pos_as_xyz
  1  'x, y, z'
loop_
 _atom_site_type_symbol
 _atom_site_label
 _atom_site_symmetry_multiplicity
 _atom_site_fract_x
 _atom_site_fract_y
 _atom_site_fract_z
 _atom_site_occupancy
  Na  Na0  1  0.25000000  0.25000000  0.25000000  1
  Na  Na1  1  0.75000000  0.75000000  0.75000000  1
  Tl  Tl0  1  0.50000000  0.50000000  0.50000000  1
  Ni  Ni0  1  0.00000000  0.00000000  0.00000000  1
  F  F0  1  0.22498100  0.77501900  0.22498100  1
  F  F1  1  0.77501900  0.77501900  0.22498100  1
  F  F2  1  0.77501900  0.22498100  0.77501900  1
  F  F3  1  0.77501900  0.22498100  0.22498100  1
  F  F4  1  0.22498100  0.77501900  0.77501900  1
  F  F5  1  0.22498100  0.22498100  0.77501900  1
loop_
_geom_bond_atom_site_label_1
_geom_bond_atom_site_label_2
_geom_bond_distance
_geom_bond_site_symmetry_2
F0 Ni0 1.948376 1_565
F0 Tl0 2.381714 1_555
F1 Ni0 1.948376 1_665
F1 Tl0 2.381714 1_555
F2 Ni0 1.948376 1_656
F2 Tl0 2.381714 1_555
F3 Ni0 1.948376 1_655
F3 Tl0 2.381714 1_555
F4 Ni0 1.948376 1_566
F4 Tl0 2.381714 1_555
F5 Ni0 1.948376 1_556
F5 Tl0 2.381714 1_555
