# generated using pymatgen
data_La2Co14B
_symmetry_space_group_name_H-M   'P 1'
_cell_length_a   8.61090392
_cell_length_b   8.61090392
_cell_length_c   11.93051843
_cell_angle_alpha   90.00000000
_cell_angle_beta   90.00000000
_cell_angle_gamma   90.00000000
_symmetry_Int_Tables_number   1
_chemical_formula_structural   La2Co14B
_chemical_formula_sum   'La8 Co56 B4'
_cell_volume   884.62009957
_cell_formula_units_Z   4
loop_
 _symmetry_equiv_pos_site_id
 _symmetry_equiv_pos_as_xyz
  1  'x, y, z'
loop_
 _atom_site_type_symbol
 _atom_site_label
 _atom_site_symmetry_multiplicity
 _atom_site_fract_x
 _atom_site_fract_y
 _atom_site_fract_z
 _atom_site_occupancy
  La  La0  1  0.23148781  0.76851219  0.50000000  1
  La  La1  1  0.76851219  0.23148781  0.50000000  1
  La  La2  1  0.26851219  0.26851219  -0.00000000  1
  La  La3  1  0.73148781  0.73148781  -0.00000000  1
  La  La4  1  0.64040660  0.64040660  0.50000000  1
  La  La5  1  0.35959340  0.35959340  0.50000000  1
  La  La6  1  0.85959340  0.14040660  -0.00000000  1
  La  La7  1  0.14040660  0.85959340  -0.00000000  1
  Co  Co0  1  0.00000000  0.50000000  0.50000000  1
  Co  Co1  1  0.50000000  0.00000000  -0.00000000  1
  Co  Co2  1  0.50000000  0.00000000  0.50000000  1
  Co  Co3  1  0.00000000  0.50000000  -0.00000000  1
  Co  Co4  1  0.50000000  0.50000000  0.11395840  1
  Co  Co5  1  0.00000000  0.00000000  0.61395840  1
  Co  Co6  1  0.50000000  0.50000000  0.88604160  1
  Co  Co7  1  0.00000000  0.00000000  0.38604160  1
  Co  Co8  1  0.18339118  0.81660882  0.25213169  1
  Co  Co9  1  0.81660882  0.18339118  0.25213169  1
  Co  Co10  1  0.31660882  0.31660882  0.75213169  1
  Co  Co11  1  0.68339118  0.68339118  0.75213169  1
  Co  Co12  1  0.81660882  0.18339118  0.74786831  1
  Co  Co13  1  0.18339118  0.81660882  0.74786831  1
  Co  Co14  1  0.68339118  0.68339118  0.24786831  1
  Co  Co15  1  0.31660882  0.31660882  0.24786831  1
  Co  Co16  1  0.39927845  0.60072155  0.28551825  1
  Co  Co17  1  0.60072155  0.39927845  0.28551825  1
  Co  Co18  1  0.10072155  0.10072155  0.78551825  1
  Co  Co19  1  0.89927845  0.89927845  0.78551825  1
  Co  Co20  1  0.60072155  0.39927845  0.71448175  1
  Co  Co21  1  0.39927845  0.60072155  0.71448175  1
  Co  Co22  1  0.89927845  0.89927845  0.21448175  1
  Co  Co23  1  0.10072155  0.10072155  0.21448175  1
  Co  Co24  1  0.14097404  0.53273730  0.31816689  1
  Co  Co25  1  0.85902596  0.46726270  0.31816689  1
  Co  Co26  1  0.35902596  0.03273730  0.81816689  1
  Co  Co27  1  0.64097404  0.96726270  0.81816689  1
  Co  Co28  1  0.85902596  0.46726270  0.68183311  1
  Co  Co29  1  0.14097404  0.53273730  0.68183311  1
  Co  Co30  1  0.64097404  0.96726270  0.18183311  1
  Co  Co31  1  0.35902596  0.03273730  0.18183311  1
  Co  Co32  1  0.53273730  0.14097404  0.31816689  1
  Co  Co33  1  0.46726270  0.85902596  0.31816689  1
  Co  Co34  1  0.03273730  0.35902596  0.81816689  1
  Co  Co35  1  0.96726270  0.64097404  0.81816689  1
  Co  Co36  1  0.46726270  0.85902596  0.68183311  1
  Co  Co37  1  0.53273730  0.14097404  0.68183311  1
  Co  Co38  1  0.96726270  0.64097404  0.18183311  1
  Co  Co39  1  0.03273730  0.35902596  0.18183311  1
  Co  Co40  1  0.93270759  0.72063346  0.37601967  1
  Co  Co41  1  0.06729241  0.27936654  0.37601967  1
  Co  Co42  1  0.56729241  0.22063346  0.87601967  1
  Co  Co43  1  0.43270759  0.77936654  0.87601967  1
  Co  Co44  1  0.06729241  0.27936654  0.62398033  1
  Co  Co45  1  0.93270759  0.72063346  0.62398033  1
  Co  Co46  1  0.43270759  0.77936654  0.12398033  1
  Co  Co47  1  0.56729241  0.22063346  0.12398033  1
  Co  Co48  1  0.72063346  0.93270759  0.37601967  1
  Co  Co49  1  0.27936654  0.06729241  0.37601967  1
  Co  Co50  1  0.22063346  0.56729241  0.87601967  1
  Co  Co51  1  0.77936654  0.43270759  0.87601967  1
  Co  Co52  1  0.27936654  0.06729241  0.62398033  1
  Co  Co53  1  0.72063346  0.93270759  0.62398033  1
  Co  Co54  1  0.77936654  0.43270759  0.12398033  1
  Co  Co55  1  0.22063346  0.56729241  0.12398033  1
  B  B0  1  0.87463678  0.87463678  0.50000000  1
  B  B1  1  0.12536322  0.12536322  0.50000000  1
  B  B2  1  0.62536322  0.37463678  -0.00000000  1
  B  B3  1  0.37463678  0.62536322  -0.00000000  1
loop_
_geom_bond_atom_site_label_1
_geom_bond_atom_site_label_2
_geom_bond_distance
_geom_bond_site_symmetry_2
La0 La5 3.689907 1_555
La0 La4 3.689907 1_555
La1 La5 3.689907 1_555
La1 La4 3.689907 1_555
La2 La7 3.689907 1_545
La2 La6 3.689907 1_455
La3 La7 3.689907 1_655
La3 La6 3.689907 1_565
La4 La5 3.419647 1_555
La6 La7 3.419647 1_645
Co0 Co45 2.476507 1_455
Co0 Co40 2.476507 1_455
Co0 Co44 2.476507 1_555
Co0 Co41 2.476507 1_555
Co0 Co25 2.501837 1_455
Co0 Co28 2.501837 1_455
Co0 Co24 2.501837 1_555
Co0 Co29 2.501837 1_555
Co0 La1 3.052749 1_455
Co0 La0 3.052749 1_555
Co0 La4 3.324093 1_455
Co0 La5 3.324093 1_555
Co1 Co43 2.476507 1_544
Co1 Co46 2.476507 1_545
Co1 Co42 2.476507 1_554
Co1 Co47 2.476507 1_555
Co1 Co31 2.501837 1_555
Co1 Co30 2.501837 1_545
Co1 Co26 2.501837 1_554
Co1 Co27 2.501837 1_544
Co1 La2 3.052749 1_555
Co1 La3 3.052749 1_545
Co1 La6 3.324093 1_555
Co1 La7 3.324093 1_545
Co2 Co53 2.476507 1_545
Co2 Co48 2.476507 1_545
Co2 Co49 2.476507 1_555
Co2 Co52 2.476507 1_555
Co2 Co33 2.501837 1_545
Co2 Co37 2.501837 1_555
Co2 Co36 2.501837 1_545
Co2 Co32 2.501837 1_555
Co2 La0 3.052749 1_545
Co2 La1 3.052749 1_555
Co2 La4 3.324093 1_545
Co2 La5 3.324093 1_555
Co3 Co51 2.476507 1_454
Co3 Co54 2.476507 1_455
Co3 Co50 2.476507 1_554
Co3 Co55 2.476507 1_555
Co3 Co38 2.501837 1_455
Co3 Co39 2.501837 1_555
Co3 Co34 2.501837 1_554
Co3 Co35 2.501837 1_454
Co3 La2 3.052749 1_555
Co3 La3 3.052749 1_455
Co3 La7 3.324093 1_555
Co3 La6 3.324093 1_455
Co4 La3 3.129714 1_555
Co4 La2 3.129714 1_555
Co5 La1 3.129714 1_455
Co5 La0 3.129714 1_545
Co6 La3 3.129714 1_556
Co6 La2 3.129714 1_556
Co7 Co8 2.745886 1_545
Co7 Co9 2.745886 1_455
Co7 La1 3.129714 1_455
Co7 La0 3.129714 1_545
Co8 La0 3.014642 1_555
Co8 La7 3.053267 1_555
Co9 La1 3.014642 1_555
Co9 La6 3.053267 1_555
Co10 Co37 2.540520 1_555
Co10 Co29 2.540520 1_555
Co10 Co21 2.587221 1_555
Co10 Co20 2.587221 1_555
Co10 Co26 2.594058 1_555
Co10 Co34 2.594058 1_555
Co10 Co44 2.655058 1_555
Co10 Co52 2.655058 1_555
Co10 Co18 2.659005 1_555
Co10 Co42 2.743579 1_555
Co10 Co50 2.743579 1_555
Co10 Co6 2.745886 1_555
Co10 La2 3.014642 1_556
Co10 La5 3.053267 1_555
Co11 Co36 2.540520 1_555
Co11 Co28 2.540520 1_555
Co11 Co20 2.587221 1_555
Co11 Co21 2.587221 1_555
Co11 Co27 2.594058 1_555
Co11 Co35 2.594058 1_555
Co11 Co53 2.655058 1_555
Co11 Co45 2.655058 1_555
Co11 Co19 2.659005 1_555
Co11 Co51 2.743579 1_555
Co11 Co43 2.743579 1_555
Co11 Co6 2.745886 1_555
Co11 La3 3.014642 1_556
Co11 La4 3.053267 1_555
Co12 Co34 2.540520 1_655
Co12 Co27 2.540520 1_545
Co12 Co19 2.587221 1_545
Co12 Co18 2.587221 1_655
Co12 Co28 2.594058 1_555
Co12 Co37 2.594058 1_555
Co12 Co51 2.655058 1_555
Co12 Co42 2.655058 1_555
Co12 Co20 2.659005 1_555
Co12 Co53 2.743579 1_545
Co12 Co44 2.743579 1_655
Co12 Co5 2.745886 1_655
Co12 La1 3.014642 1_555
Co12 La6 3.053267 1_556
Co13 Co35 2.540520 1_455
Co13 Co26 2.540520 1_565
Co13 Co19 2.587221 1_455
Co13 Co18 2.587221 1_565
Co13 Co36 2.594058 1_555
Co13 Co29 2.594058 1_555
Co13 Co43 2.655058 1_555
Co13 Co50 2.655058 1_555
Co13 Co21 2.659005 1_555
Co13 Co45 2.743579 1_455
Co13 Co52 2.743579 1_565
Co13 Co5 2.745886 1_565
Co13 La0 3.014642 1_555
Co13 La7 3.053267 1_556
Co14 Co25 2.540520 1_555
Co14 Co33 2.540520 1_555
Co14 Co16 2.587221 1_555
Co14 Co17 2.587221 1_555
Co14 Co30 2.594058 1_555
Co14 Co38 2.594058 1_555
Co14 Co40 2.655058 1_555
Co14 Co48 2.655058 1_555
Co14 Co22 2.659005 1_555
Co14 Co46 2.743579 1_555
Co14 Co54 2.743579 1_555
Co14 Co4 2.745886 1_555
Co14 La3 3.014642 1_555
Co14 La4 3.053267 1_555
Co15 Co32 2.540520 1_555
Co15 Co24 2.540520 1_555
Co15 Co16 2.587221 1_555
Co15 Co17 2.587221 1_555
Co15 Co39 2.594058 1_555
Co15 Co31 2.594058 1_555
Co15 Co41 2.655058 1_555
Co15 Co49 2.655058 1_555
Co15 Co23 2.659005 1_555
Co15 Co55 2.743579 1_555
Co15 Co47 2.743579 1_555
Co15 Co4 2.745886 1_555
Co15 La2 3.014642 1_555
Co15 La5 3.053267 1_555
Co16 Co33 2.332733 1_555
Co16 Co24 2.332733 1_555
Co16 Co4 2.386171 1_555
Co16 Co17 2.453105 1_555
Co16 Co46 2.482626 1_555
Co16 Co55 2.482626 1_555
Co16 Co8 2.659005 1_555
Co16 La0 3.274587 1_555
Co16 La5 3.312972 1_555
Co16 La4 3.312972 1_555
Co17 Co25 2.332733 1_555
Co17 Co32 2.332733 1_555
Co17 Co4 2.386171 1_555
Co17 Co54 2.482626 1_555
Co17 Co47 2.482626 1_555
Co17 Co9 2.659005 1_555
Co17 La1 3.274587 1_555
Co17 La5 3.312972 1_555
Co17 La4 3.312972 1_555
Co18 Co34 2.332733 1_555
Co18 Co26 2.332733 1_555
Co18 Co5 2.386171 1_555
Co18 Co19 2.453105 1_445
Co18 Co52 2.482626 1_555
Co18 Co44 2.482626 1_555
Co18 La2 3.274587 1_556
Co18 La7 3.312972 1_546
Co18 La6 3.312972 1_456
Co19 Co35 2.332733 1_555
Co19 Co27 2.332733 1_555
Co19 Co5 2.386171 1_665
Co19 Co45 2.482626 1_555
Co19 Co53 2.482626 1_555
Co19 La3 3.274587 1_556
Co19 La6 3.312972 1_566
Co19 La7 3.312972 1_656
Co20 Co28 2.332733 1_555
Co20 Co37 2.332733 1_555
Co20 Co6 2.386171 1_555
Co20 Co21 2.453105 1_555
Co20 Co42 2.482626 1_555
Co20 Co51 2.482626 1_555
Co20 La1 3.274587 1_555
Co20 La5 3.312972 1_555
Co20 La4 3.312972 1_555
Co21 Co36 2.332733 1_555
Co21 Co29 2.332733 1_555
Co21 Co6 2.386171 1_555
Co21 Co43 2.482626 1_555
Co21 Co50 2.482626 1_555
Co21 La0 3.274587 1_555
Co21 La5 3.312972 1_555
Co21 La4 3.312972 1_555
Co22 Co30 2.332733 1_555
Co22 Co38 2.332733 1_555
Co22 Co7 2.386171 1_665
Co22 Co23 2.453105 1_665
Co22 Co48 2.482626 1_555
Co22 Co40 2.482626 1_555
Co22 Co9 2.587221 1_565
Co22 Co8 2.587221 1_655
Co22 La3 3.274587 1_555
Co22 La6 3.312972 1_565
Co22 La7 3.312972 1_655
Co23 Co31 2.332733 1_555
Co23 Co39 2.332733 1_555
Co23 Co7 2.386171 1_555
Co23 Co41 2.482626 1_555
Co23 Co49 2.482626 1_555
Co23 Co8 2.587221 1_545
Co23 Co9 2.587221 1_455
Co23 La2 3.274587 1_555
Co23 La6 3.312972 1_455
Co23 La7 3.312972 1_545
Co24 Co41 2.374654 1_555
Co24 Co38 2.398273 1_455
Co24 Co39 2.398273 1_555
Co24 Co55 2.434412 1_555
Co24 Co25 2.492431 1_455
Co24 Co40 2.512036 1_455
Co24 Co8 2.594058 1_555
Co24 La0 3.071720 1_555
Co24 La5 3.236177 1_555
Co25 Co40 2.374654 1_555
Co25 Co39 2.398273 1_655
Co25 Co38 2.398273 1_555
Co25 Co54 2.434412 1_555
Co25 Co41 2.512036 1_655
Co25 Co9 2.594058 1_555
Co25 La1 3.071720 1_555
Co25 La4 3.236177 1_555
Co26 Co43 2.374654 1_545
Co26 Co36 2.398273 1_545
Co26 Co37 2.398273 1_555
Co26 Co52 2.434412 1_555
Co26 Co27 2.492431 1_545
Co26 Co42 2.512036 1_555
Co26 La2 3.071720 1_556
Co26 La7 3.236177 1_546
Co27 Co42 2.374654 1_565
Co27 Co37 2.398273 1_565
Co27 Co36 2.398273 1_555
Co27 Co53 2.434412 1_555
Co27 Co43 2.512036 1_555
Co27 La3 3.071720 1_556
Co27 La6 3.236177 1_566
Co28 Co45 2.374654 1_555
Co28 Co34 2.398273 1_655
Co28 Co35 2.398273 1_555
Co28 Co51 2.434412 1_555
Co28 Co29 2.492431 1_655
Co28 Co44 2.512036 1_655
Co28 La1 3.071720 1_555
Co28 La4 3.236177 1_555
Co29 Co44 2.374654 1_555
Co29 Co35 2.398273 1_455
Co29 Co34 2.398273 1_555
Co29 Co50 2.434412 1_555
Co29 Co45 2.512036 1_455
Co29 La0 3.071720 1_555
Co29 La5 3.236177 1_555
Co30 Co47 2.374654 1_565
Co30 Co32 2.398273 1_565
Co30 Co33 2.398273 1_555
Co30 Co48 2.434412 1_555
Co30 Co31 2.492431 1_565
Co30 Co46 2.512036 1_555
Co30 Co9 2.540520 1_565
Co30 La3 3.071720 1_555
Co30 La6 3.236177 1_565
Co31 Co46 2.374654 1_545
Co31 Co32 2.398273 1_555
Co31 Co33 2.398273 1_545
Co31 Co49 2.434412 1_555
Co31 Co47 2.512036 1_555
Co31 Co8 2.540520 1_545
Co31 La2 3.071720 1_555
Co31 La7 3.236177 1_545
Co32 Co49 2.374654 1_555
Co32 Co47 2.434412 1_555
Co32 Co33 2.492431 1_545
Co32 Co48 2.512036 1_545
Co32 Co9 2.594058 1_555
Co32 La1 3.071720 1_555
Co32 La5 3.236177 1_555
Co33 Co48 2.374654 1_555
Co33 Co46 2.434412 1_555
Co33 Co49 2.512036 1_565
Co33 Co8 2.594058 1_555
Co33 La0 3.071720 1_555
Co33 La4 3.236177 1_555
Co34 Co51 2.374654 1_455
Co34 Co44 2.434412 1_555
Co34 Co35 2.492431 1_455
Co34 Co50 2.512036 1_555
Co34 La2 3.071720 1_556
Co34 La6 3.236177 1_456
Co35 Co50 2.374654 1_655
Co35 Co45 2.434412 1_555
Co35 Co51 2.512036 1_555
Co35 La3 3.071720 1_556
Co35 La7 3.236177 1_656
Co36 Co53 2.374654 1_555
Co36 Co43 2.434412 1_555
Co36 Co37 2.492431 1_565
Co36 Co52 2.512036 1_565
Co36 La0 3.071720 1_555
Co36 La4 3.236177 1_555
Co37 Co52 2.374654 1_555
Co37 Co42 2.434412 1_555
Co37 Co53 2.512036 1_545
Co37 La1 3.071720 1_555
Co37 La5 3.236177 1_555
Co38 Co55 2.374654 1_655
Co38 Co40 2.434412 1_555
Co38 Co39 2.492431 1_655
Co38 Co54 2.512036 1_555
Co38 Co8 2.540520 1_655
Co38 La3 3.071720 1_555
Co38 La7 3.236177 1_655
Co39 Co54 2.374654 1_455
Co39 Co41 2.434412 1_555
Co39 Co55 2.512036 1_555
Co39 Co9 2.540520 1_455
Co39 La2 3.071720 1_555
Co39 La6 3.236177 1_455
Co40 Co8 2.743579 1_655
Co40 La0 2.996163 1_655
Co40 La4 3.000048 1_555
Co41 Co9 2.743579 1_455
Co41 La1 2.996163 1_455
Co41 La5 3.000048 1_555
Co42 La2 2.996163 1_556
Co42 La6 3.000048 1_556
Co43 La3 2.996163 1_556
Co43 La7 3.000048 1_556
Co44 La1 2.996163 1_455
Co44 La5 3.000048 1_555
Co45 La0 2.996163 1_655
Co45 La4 3.000048 1_555
Co46 Co8 2.655058 1_555
Co46 La3 2.996163 1_555
Co46 La7 3.000048 1_555
Co47 Co9 2.655058 1_555
Co47 La2 2.996163 1_555
Co47 La6 3.000048 1_555
Co48 Co9 2.743579 1_565
Co48 La1 2.996163 1_565
Co48 La4 3.000048 1_555
Co49 Co8 2.743579 1_545
Co49 La0 2.996163 1_545
Co49 La5 3.000048 1_555
Co50 La2 2.996163 1_556
Co50 La7 3.000048 1_556
Co51 La3 2.996163 1_556
Co51 La6 3.000048 1_556
Co52 La0 2.996163 1_545
Co52 La5 3.000048 1_555
Co53 La1 2.996163 1_565
Co53 La4 3.000048 1_555
Co54 Co9 2.655058 1_555
Co54 La3 2.996163 1_555
Co54 La6 3.000048 1_555
Co55 Co8 2.655058 1_555
Co55 La2 2.996163 1_555
Co55 La7 3.000048 1_555
B0 Co5 2.044276 1_665
B0 Co7 2.044276 1_665
B0 Co45 2.048533 1_555
B0 Co53 2.048533 1_555
B0 Co48 2.048533 1_555
B0 Co40 2.048533 1_555
B0 La4 2.852375 1_555
B1 Co7 2.044276 1_555
B1 Co5 2.044276 1_555
B1 Co44 2.048533 1_555
B1 Co52 2.048533 1_555
B1 Co49 2.048533 1_555
B1 Co41 2.048533 1_555
B1 La5 2.852375 1_555
B2 Co4 2.044276 1_555
B2 Co6 2.044276 1_554
B2 Co42 2.048533 1_554
B2 Co47 2.048533 1_555
B2 Co51 2.048533 1_554
B2 Co54 2.048533 1_555
B2 La6 2.852375 1_555
B3 Co4 2.044276 1_555
B3 Co6 2.044276 1_554
B3 Co50 2.048533 1_554
B3 Co55 2.048533 1_555
B3 Co43 2.048533 1_554
B3 Co46 2.048533 1_555
B3 La7 2.852375 1_555
