# generated using pymatgen
data_Rb9Fe7(PO4)10
_symmetry_space_group_name_H-M   'P 1'
_cell_length_a   10.03552149
_cell_length_b   13.68200401
_cell_length_c   16.77974453
_cell_angle_alpha   90.00015706
_cell_angle_beta   90.00009265
_cell_angle_gamma   110.54256225
_symmetry_Int_Tables_number   1
_chemical_formula_structural   Rb9Fe7(PO4)10
_chemical_formula_sum   'Rb18 Fe14 P20 O80'
_cell_volume   2157.45562159
_cell_formula_units_Z   2
loop_
 _symmetry_equiv_pos_site_id
 _symmetry_equiv_pos_as_xyz
  1  'x, y, z'
loop_
 _atom_site_type_symbol
 _atom_site_label
 _atom_site_symmetry_multiplicity
 _atom_site_fract_x
 _atom_site_fract_y
 _atom_site_fract_z
 _atom_site_occupancy
  Rb  Rb0  1  0.91906858  0.70664067  0.42767448  1
  Rb  Rb1  1  0.58093078  0.29335873  0.92767753  1
  Rb  Rb2  1  0.08093142  0.29335933  0.57232552  1
  Rb  Rb3  1  0.41906922  0.70664127  0.07232247  1
  Rb  Rb4  1  0.96629725  0.35705327  0.78340372  1
  Rb  Rb5  1  0.53370309  0.64294860  0.28339797  1
  Rb  Rb6  1  0.03370275  0.64294673  0.21659628  1
  Rb  Rb7  1  0.46629691  0.35705140  0.71660203  1
  Rb  Rb8  1  0.26167268  0.78027907  0.81693183  1
  Rb  Rb9  1  0.23832099  0.21972001  0.31693158  1
  Rb  Rb10  1  0.73832732  0.21972093  0.18306817  1
  Rb  Rb11  1  0.76167901  0.78027999  0.68306842  1
  Rb  Rb12  1  -0.00000000  0.50000000  0.00000000  1
  Rb  Rb13  1  0.50000000  0.50000000  0.50000000  1
  Rb  Rb14  1  0.34484932  0.95521540  0.40884054  1
  Rb  Rb15  1  0.15515211  0.04478386  0.90883493  1
  Rb  Rb16  1  0.65515068  0.04478460  0.59115946  1
  Rb  Rb17  1  0.84484789  0.95521614  0.09116507  1
  Fe  Fe0  1  -0.00000000  -0.00000000  0.50000000  1
  Fe  Fe1  1  0.50000000  -0.00000000  0.00000000  1
  Fe  Fe2  1  0.98794538  0.58865279  0.63201833  1
  Fe  Fe3  1  0.51205242  0.41135069  0.13202116  1
  Fe  Fe4  1  0.01205462  0.41134721  0.36798167  1
  Fe  Fe5  1  0.48794758  0.58864931  0.86797884  1
  Fe  Fe6  1  0.35947573  0.71987694  0.55690001  1
  Fe  Fe7  1  0.14053459  0.28012426  0.05689823  1
  Fe  Fe8  1  0.64052427  0.28012306  0.44309999  1
  Fe  Fe9  1  0.85946541  0.71987574  0.94310177  1
  Fe  Fe10  1  0.30768438  0.05621816  0.68875028  1
  Fe  Fe11  1  0.19231471  0.94378487  0.18875344  1
  Fe  Fe12  1  0.69231562  0.94378184  0.31124972  1
  Fe  Fe13  1  0.80768529  0.05621513  0.81124656  1
  P  P0  1  0.68170164  0.57228558  0.04306525  1
  P  P1  1  0.81829946  0.42771356  0.54306419  1
  P  P2  1  0.31829836  0.42771442  0.95693475  1
  P  P3  1  0.18170054  0.57228644  0.45693581  1
  P  P4  1  0.65843638  0.81829850  0.47206540  1
  P  P5  1  0.84156568  0.18170133  0.97206524  1
  P  P6  1  0.34156362  0.18170150  0.52793460  1
  P  P7  1  0.15843432  0.81829867  0.02793476  1
  P  P8  1  0.14399886  0.84598213  0.59710795  1
  P  P9  1  0.35600210  0.15401840  0.09710831  1
  P  P10  1  0.85600114  0.15401787  0.40289205  1
  P  P11  1  0.64399790  0.84598160  0.90289169  1
  P  P12  1  0.99898618  0.93376391  0.30119924  1
  P  P13  1  0.50101381  0.06623586  0.80119914  1
  P  P14  1  0.00101382  0.06623609  0.69880076  1
  P  P15  1  0.49898619  0.93376414  0.19880086  1
  P  P16  1  0.27927732  0.56063651  0.70336262  1
  P  P17  1  0.22072262  0.43936440  0.20336225  1
  P  P18  1  0.72072268  0.43936349  0.29663738  1
  P  P19  1  0.77927738  0.56063560  0.79663775  1
  O  O0  1  0.13862243  0.60944669  0.53852700  1
  O  O1  1  0.36137747  0.39055328  0.03852637  1
  O  O2  1  0.86137757  0.39055331  0.46147300  1
  O  O3  1  0.63862253  0.60944672  0.96147363  1
  O  O4  1  0.82562484  0.54276241  0.54274867  1
  O  O5  1  0.67437502  0.45723779  0.04274815  1
  O  O6  1  0.17437516  0.45723759  0.45725133  1
  O  O7  1  0.32562498  0.54276221  0.95725185  1
  O  O8  1  0.33798075  0.65166355  0.44999461  1
  O  O9  1  0.16201961  0.34833670  0.94999313  1
  O  O10  1  0.66201925  0.34833645  0.55000539  1
  O  O11  1  0.83798039  0.65166330  0.05000687  1
  O  O12  1  0.91515245  0.42316074  0.61371625  1
  O  O13  1  0.58484771  0.57683868  0.11371635  1
  O  O14  1  0.08484755  0.57683926  0.38628375  1
  O  O15  1  0.41515229  0.42316132  0.88628365  1
  O  O16  1  0.81218055  0.88105369  0.49847446  1
  O  O17  1  0.68781650  0.11894596  0.99847413  1
  O  O18  1  0.18781945  0.11894631  0.50152554  1
  O  O19  1  0.31218350  0.88105404  0.00152587  1
  O  O20  1  0.64436115  0.71150630  0.44035814  1
  O  O21  1  0.85563784  0.28849309  0.94035751  1
  O  O22  1  0.35563885  0.28849370  0.55964186  1
  O  O23  1  0.14436216  0.71150691  0.05964249  1
  O  O24  1  0.55916043  0.81077721  0.54655179  1
  O  O25  1  0.94084437  0.18922505  0.04655145  1
  O  O26  1  0.44083957  0.18922279  0.45344821  1
  O  O27  1  0.05915563  0.81077495  0.95344855  1
  O  O28  1  0.39287173  0.11506701  0.59073154  1
  O  O29  1  0.10712904  0.88493374  0.09073369  1
  O  O30  1  0.60712827  0.88493299  0.40926846  1
  O  O31  1  0.89287096  0.11506626  0.90926631  1
  O  O32  1  0.02501892  0.74170079  0.61706356  1
  O  O33  1  0.47498018  0.25829943  0.11706423  1
  O  O34  1  0.97498108  0.25829921  0.38293644  1
  O  O35  1  0.52501982  0.74170057  0.88293577  1
  O  O36  1  0.10260788  0.89834395  0.52449053  1
  O  O37  1  0.39739171  0.10165586  0.02448989  1
  O  O38  1  0.89739212  0.10165605  0.47550947  1
  O  O39  1  0.60260829  0.89834414  0.97551011  1
  O  O40  1  0.17065583  0.91642472  0.67241880  1
  O  O41  1  0.32934495  0.08357598  0.17241937  1
  O  O42  1  0.82934417  0.08357528  0.32758120  1
  O  O43  1  0.67065505  0.91642402  0.82758063  1
  O  O44  1  0.28645790  0.82988667  0.57470358  1
  O  O45  1  0.21354394  0.17011315  0.07470307  1
  O  O46  1  0.71354210  0.17011333  0.42529642  1
  O  O47  1  0.78645606  0.82988685  0.92529693  1
  O  O48  1  0.04493933  0.98538213  0.38274227  1
  O  O49  1  0.45506110  0.01461765  0.88274243  1
  O  O50  1  0.95506067  0.01461787  0.61725773  1
  O  O51  1  0.54493890  0.98538235  0.11725757  1
  O  O52  1  0.16443466  0.12287253  0.70481316  1
  O  O53  1  0.33556511  0.87712804  0.20481299  1
  O  O54  1  0.83556534  0.87712747  0.29518684  1
  O  O55  1  0.66443489  0.12287196  0.79518701  1
  O  O56  1  0.44561221  0.98707970  0.73087988  1
  O  O57  1  0.05438785  0.01292113  0.23088034  1
  O  O58  1  0.55438779  0.01292030  0.26912012  1
  O  O59  1  0.94561215  0.98707887  0.76911966  1
  O  O60  1  0.41989730  0.14406571  0.78379345  1
  O  O61  1  0.08010380  0.85593445  0.28379291  1
  O  O62  1  0.58010270  0.85593429  0.21620655  1
  O  O63  1  0.91989620  0.14406555  0.71620709  1
  O  O64  1  0.74890833  0.55192887  0.31959258  1
  O  O65  1  0.75109104  0.44806985  0.81959326  1
  O  O66  1  0.25109167  0.44807113  0.68040742  1
  O  O67  1  0.24890896  0.55193015  0.18040674  1
  O  O68  1  0.84699680  0.58833821  0.71269947  1
  O  O69  1  0.65300250  0.41166187  0.21269889  1
  O  O70  1  0.15300320  0.41166179  0.28730053  1
  O  O71  1  0.34699750  0.58833813  0.78730111  1
  O  O72  1  0.14019355  0.58897284  0.70647262  1
  O  O73  1  0.35980636  0.41102779  0.20647246  1
  O  O74  1  0.85980645  0.41102716  0.29352738  1
  O  O75  1  0.64019364  0.58897221  0.79352754  1
  O  O76  1  0.38651152  0.63867098  0.64284470  1
  O  O77  1  0.11349071  0.36132923  0.14284464  1
  O  O78  1  0.61348848  0.36132902  0.35715530  1
  O  O79  1  0.88650929  0.63867077  0.85715536  1
loop_
_geom_bond_atom_site_label_1
_geom_bond_atom_site_label_2
_geom_bond_distance
_geom_bond_site_symmetry_2
Fe0 O16 2.012240 1_445
Fe0 O18 2.012240 1_555
Fe0 O36 2.041769 1_545
Fe0 O38 2.041769 1_455
Fe0 O50 2.044008 1_455
Fe0 O48 2.044008 1_545
Fe1 O19 2.012219 1_545
Fe1 O17 2.012219 1_554
Fe1 O37 2.041767 1_555
Fe1 O39 2.041767 1_544
Fe1 O51 2.044003 1_545
Fe1 O49 2.044003 1_554
Fe2 O68 1.956870 1_555
Fe2 O72 1.972454 1_655
Fe2 O32 2.009847 1_655
Fe2 O0 2.127571 1_655
Fe2 O4 2.138628 1_555
Fe2 O12 2.143363 1_555
Fe3 O69 1.956850 1_555
Fe3 O73 1.972399 1_555
Fe3 O33 2.009895 1_555
Fe3 O1 2.127589 1_555
Fe3 O5 2.138686 1_555
Fe3 O13 2.143319 1_555
Fe4 O70 1.956870 1_555
Fe4 O74 1.972454 1_455
Fe4 O34 2.009847 1_455
Fe4 O2 2.127571 1_455
Fe4 O6 2.138628 1_555
Fe4 O14 2.143363 1_555
Fe5 O71 1.956850 1_555
Fe5 O75 1.972399 1_555
Fe5 O35 2.009895 1_555
Fe5 O3 2.127589 1_555
Fe5 O7 2.138686 1_555
Fe5 O15 2.143319 1_555
Fe6 O76 1.897202 1_555
Fe6 O44 1.914610 1_555
Fe6 O24 1.960511 1_555
Fe6 O8 1.998538 1_555
Fe6 O0 2.222621 1_555
Fe7 O77 1.897240 1_555
Fe7 O45 1.914576 1_555
Fe7 O25 1.960548 1_455
Fe7 O9 1.998539 1_554
Fe7 O1 2.222536 1_555
Fe8 O78 1.897202 1_555
Fe8 O46 1.914610 1_555
Fe8 O26 1.960511 1_555
Fe8 O10 1.998538 1_555
Fe8 O2 2.222621 1_555
Fe9 O79 1.897240 1_555
Fe9 O47 1.914576 1_555
Fe9 O27 1.960548 1_655
Fe9 O11 1.998539 1_556
Fe9 O3 2.222536 1_555
Fe10 O28 1.897688 1_555
Fe10 O40 1.943836 1_545
Fe10 O52 1.972579 1_555
Fe10 O56 2.056560 1_545
Fe10 O60 2.075148 1_555
Fe11 O29 1.897699 1_555
Fe11 O41 1.943827 1_565
Fe11 O53 1.972602 1_555
Fe11 O57 2.056515 1_565
Fe11 O61 2.075117 1_555
Fe12 O30 1.897688 1_555
Fe12 O42 1.943836 1_565
Fe12 O54 1.972579 1_555
Fe12 O58 2.056560 1_565
Fe12 O62 2.075148 1_555
Fe13 O31 1.897699 1_555
Fe13 O43 1.943827 1_545
Fe13 O55 1.972602 1_555
Fe13 O59 2.056515 1_545
Fe13 O63 2.075117 1_555
O0 P3 1.572903 1_555
O1 P2 1.572919 1_554
O2 P1 1.572903 1_555
O3 P0 1.572919 1_556
O4 P1 1.549841 1_555
O4 Rb0 2.856502 1_555
O4 Rb13 3.192751 1_555
O5 P0 1.549823 1_555
O5 Rb1 2.856459 1_554
O5 Rb12 3.192754 1_655
O6 P3 1.549841 1_555
O6 Rb2 2.856502 1_555
O6 Rb13 3.192751 1_555
O7 P2 1.549823 1_555
O7 Rb3 2.856459 1_556
O7 Rb12 3.192754 1_556
O8 P3 1.567609 1_555
O8 Rb13 3.165674 1_555
O8 Rb5 3.442546 1_555
O9 P2 1.567600 1_555
O9 Rb12 3.165679 1_556
O9 Rb4 3.442448 1_455
O10 P1 1.567609 1_555
O10 Rb13 3.165674 1_555
O10 Rb7 3.442546 1_555
O11 P0 1.567600 1_555
O11 Rb12 3.165679 1_655
O11 Rb6 3.442448 1_655
O12 P1 1.548083 1_555
O12 Rb2 2.911652 1_655
O12 Rb4 3.084564 1_555
O13 P0 1.548080 1_555
O13 Rb3 2.911675 1_555
O13 Rb5 3.084481 1_555
O14 P3 1.548083 1_555
O14 Rb0 2.911652 1_455
O14 Rb6 3.084564 1_555
O15 P2 1.548080 1_555
O15 Rb1 2.911675 1_555
O15 Rb7 3.084481 1_555
O16 P4 1.544154 1_555
O16 Rb0 3.170639 1_555
O16 Rb11 3.355839 1_555
O17 P5 1.544197 1_555
O17 Rb1 3.170604 1_555
O17 Rb10 3.355839 1_556
O18 P6 1.544154 1_555
O18 Rb2 3.170639 1_555
O18 Rb9 3.355839 1_555
O19 P7 1.544197 1_555
O19 Rb3 3.170604 1_555
O19 Rb8 3.355839 1_554
O20 P4 1.514290 1_555
O20 Rb0 2.789024 1_555
O20 Rb5 2.884210 1_555
O20 Rb13 2.921030 1_555
O21 P5 1.514298 1_555
O21 Rb1 2.789015 1_555
O21 Rb4 2.884130 1_555
O21 Rb12 2.921034 1_656
O22 P6 1.514290 1_555
O22 Rb2 2.789024 1_555
O22 Rb7 2.884210 1_555
O22 Rb13 2.921030 1_555
O23 P7 1.514298 1_555
O23 Rb3 2.789015 1_555
O23 Rb6 2.884130 1_555
O23 Rb12 2.921034 1_555
O24 P4 1.579045 1_555
O24 Rb16 3.094270 1_565
O24 Rb11 3.185466 1_555
O25 P5 1.579052 1_554
O25 Rb17 3.094315 1_545
O25 Rb10 3.185453 1_555
O26 P6 1.579045 1_555
O26 Rb14 3.094270 1_545
O26 Rb9 3.185466 1_555
O27 P7 1.579052 1_556
O27 Rb15 3.094315 1_565
O27 Rb8 3.185453 1_555
O28 P6 1.592509 1_555
O28 Rb16 3.103066 1_555
O29 P7 1.592519 1_555
O29 Rb17 3.103087 1_455
O30 P4 1.592509 1_555
O30 Rb14 3.103066 1_555
O31 P5 1.592519 1_555
O31 Rb15 3.103087 1_655
O32 P8 1.542050 1_555
O32 Rb11 3.077078 1_455
O32 Rb0 3.331925 1_455
O33 P9 1.542037 1_555
O33 Rb10 3.077133 1_555
O33 Rb1 3.331893 1_554
O34 P10 1.542050 1_555
O34 Rb9 3.077078 1_655
O34 Rb2 3.331925 1_655
O35 P11 1.542037 1_555
O35 Rb8 3.077133 1_555
O35 Rb3 3.331893 1_556
O36 P8 1.542526 1_555
O36 Rb14 2.992263 1_555
O36 Rb0 3.085576 1_455
O37 P9 1.542537 1_555
O37 Rb15 2.992295 1_554
O37 Rb1 3.085550 1_554
O38 P10 1.542526 1_555
O38 Rb16 2.992263 1_555
O38 Rb2 3.085576 1_655
O39 P11 1.542537 1_555
O39 Rb17 2.992295 1_556
O39 Rb3 3.085550 1_556
O40 P8 1.554491 1_555
O40 Rb8 3.373176 1_555
O41 P9 1.554497 1_555
O41 Rb9 3.373180 1_555
O42 P10 1.554491 1_555
O42 Rb10 3.373176 1_555
O43 P11 1.554497 1_555
O43 Rb11 3.373180 1_555
O44 P8 1.566743 1_555
O44 Rb14 3.213168 1_555
O45 P9 1.566732 1_555
O45 Rb15 3.213236 1_554
O46 P10 1.566743 1_555
O46 Rb16 3.213168 1_555
O47 P11 1.566732 1_555
O47 Rb17 3.213236 1_556
O48 P12 1.534612 1_455
O48 Rb14 3.208202 1_555
O48 Rb9 3.301321 1_565
O49 P13 1.534620 1_555
O49 Rb15 3.208177 1_555
O49 Rb8 3.301336 1_545
O50 P14 1.534612 1_655
O50 Rb16 3.208202 1_555
O50 Rb11 3.301321 1_545
O51 P15 1.534620 1_555
O51 Rb17 3.208177 1_555
O51 Rb10 3.301336 1_565
O52 P14 1.551903 1_555
O53 P15 1.551905 1_555
O54 P12 1.551903 1_555
O55 P13 1.551905 1_555
O56 P13 1.565791 1_565
O56 Rb16 3.062132 1_565
O56 Rb8 3.135711 1_555
O57 P12 1.565801 1_445
O57 Rb17 3.062066 1_445
O57 Rb9 3.135662 1_555
O58 P15 1.565791 1_545
O58 Rb14 3.062132 1_545
O58 Rb10 3.135711 1_555
O59 P14 1.565801 1_665
O59 Rb15 3.062066 1_665
O59 Rb11 3.135662 1_555
O60 P13 1.578062 1_555
O60 Rb7 3.004582 1_555
O60 Rb1 3.208783 1_555
O60 Rb15 3.282312 1_555
O61 P12 1.578067 1_455
O61 Rb6 3.004631 1_555
O61 Rb0 3.208773 1_455
O61 Rb14 3.282368 1_555
O62 P15 1.578062 1_555
O62 Rb5 3.004582 1_555
O62 Rb3 3.208783 1_555
O62 Rb17 3.282312 1_555
O63 P14 1.578067 1_655
O63 Rb4 3.004631 1_555
O63 Rb2 3.208773 1_655
O63 Rb16 3.282368 1_555
O64 P18 1.514797 1_555
O64 Rb0 2.854648 1_555
O64 Rb5 2.910590 1_555
O64 Rb6 3.195049 1_655
O65 P19 1.514804 1_555
O65 Rb1 2.854679 1_555
O65 Rb4 2.910552 1_555
O65 Rb7 3.194993 1_555
O66 P16 1.514797 1_555
O66 Rb2 2.854648 1_555
O66 Rb7 2.910590 1_555
O66 Rb4 3.195049 1_455
O67 P17 1.514804 1_555
O67 Rb3 2.854679 1_555
O67 Rb6 2.910552 1_555
O67 Rb5 3.194993 1_555
O68 P19 1.551939 1_555
O68 Rb11 3.074898 1_555
O69 P18 1.551940 1_555
O69 Rb10 3.074925 1_555
O70 P17 1.551939 1_555
O70 Rb9 3.074898 1_555
O71 P16 1.551940 1_555
O71 Rb8 3.074925 1_555
O72 P16 1.575121 1_555
O72 Rb8 3.087587 1_555
O72 Rb4 3.300661 1_455
O73 P17 1.575123 1_555
O73 Rb9 3.087618 1_555
O73 Rb5 3.300629 1_555
O74 P18 1.575121 1_555
O74 Rb10 3.087587 1_555
O74 Rb6 3.300661 1_655
O75 P19 1.575123 1_555
O75 Rb11 3.087618 1_555
O75 Rb7 3.300629 1_555
O76 P16 1.588351 1_555
O76 Rb13 3.486900 1_555
O77 P17 1.588336 1_555
O77 Rb12 3.486914 1_555
O78 P18 1.588351 1_555
O78 Rb13 3.486900 1_555
O79 P19 1.588336 1_555
O79 Rb12 3.486914 1_656
