# generated using pymatgen
data_K2CeAl(SiO3)4
_symmetry_space_group_name_H-M   'P 1'
_cell_length_a   14.07806169
_cell_length_b   14.07806169
_cell_length_c   15.10621602
_cell_angle_alpha   57.81729694
_cell_angle_beta   57.81729694
_cell_angle_gamma   30.73788707
_symmetry_Int_Tables_number   1
_chemical_formula_structural   K2CeAl(SiO3)4
_chemical_formula_sum   'K8 Ce4 Al4 Si16 O48'
_cell_volume   1275.59486273
_cell_formula_units_Z   4
loop_
 _symmetry_equiv_pos_site_id
 _symmetry_equiv_pos_as_xyz
  1  'x, y, z'
loop_
 _atom_site_type_symbol
 _atom_site_label
 _atom_site_symmetry_multiplicity
 _atom_site_fract_x
 _atom_site_fract_y
 _atom_site_fract_z
 _atom_site_occupancy
  K  K0  1  0.19595000  0.19033100  0.52566200  1
  K  K1  1  0.19033100  0.19595000  0.02566200  1
  K  K2  1  0.80405000  0.80966900  0.47433800  1
  K  K3  1  0.80966900  0.80405000  0.97433800  1
  K  K4  1  0.79539200  0.27913100  0.53687700  1
  K  K5  1  0.27913100  0.79539200  0.03687700  1
  K  K6  1  0.20460800  0.72086900  0.46312300  1
  K  K7  1  0.72086900  0.20460800  0.96312300  1
  Ce  Ce0  1  0.98168400  0.55658500  0.75059900  1
  Ce  Ce1  1  0.55658500  0.98168400  0.25059900  1
  Ce  Ce2  1  0.01831600  0.44341500  0.24940100  1
  Ce  Ce3  1  0.44341500  0.01831600  0.74940100  1
  Al  Al0  1  0.11739600  0.74013000  0.72856600  1
  Al  Al1  1  0.74013000  0.11739600  0.22856600  1
  Al  Al2  1  0.88260400  0.25987000  0.27143400  1
  Al  Al3  1  0.25987000  0.88260400  0.77143400  1
  Si  Si0  1  0.63155900  0.69529800  0.99595900  1
  Si  Si1  1  0.69529800  0.63155900  0.49595900  1
  Si  Si2  1  0.36844100  0.30470200  0.00404100  1
  Si  Si3  1  0.30470200  0.36844100  0.50404100  1
  Si  Si4  1  0.63621100  0.67875100  0.20958000  1
  Si  Si5  1  0.67875100  0.63621100  0.70958000  1
  Si  Si6  1  0.36378900  0.32124900  0.79042000  1
  Si  Si7  1  0.32124900  0.36378900  0.29042000  1
  Si  Si8  1  0.73892500  0.02607000  0.65888200  1
  Si  Si9  1  0.02607000  0.73892500  0.15888200  1
  Si  Si10  1  0.26107500  0.97393000  0.34111800  1
  Si  Si11  1  0.97393000  0.26107500  0.84111800  1
  Si  Si12  1  0.32403200  0.79874400  0.57786300  1
  Si  Si13  1  0.79874400  0.32403200  0.07786300  1
  Si  Si14  1  0.67596800  0.20125600  0.42213700  1
  Si  Si15  1  0.20125600  0.67596800  0.92213700  1
  O  O0  1  0.54054300  0.23993200  0.69068700  1
  O  O1  1  0.23993200  0.54054300  0.19068700  1
  O  O2  1  0.45945700  0.76006800  0.30931300  1
  O  O3  1  0.76006800  0.45945700  0.80931300  1
  O  O4  1  0.77341300  0.05053900  0.52950200  1
  O  O5  1  0.05053900  0.77341300  0.02950200  1
  O  O6  1  0.22658700  0.94946100  0.47049800  1
  O  O7  1  0.94946100  0.22658700  0.97049800  1
  O  O8  1  0.21960400  0.92663400  0.65544500  1
  O  O9  1  0.92663400  0.21960400  0.15544500  1
  O  O10  1  0.78039600  0.07336600  0.34455500  1
  O  O11  1  0.07336600  0.78039600  0.84455500  1
  O  O12  1  0.63520200  0.55319400  0.04868000  1
  O  O13  1  0.55319400  0.63520200  0.54868000  1
  O  O14  1  0.36479800  0.44680600  0.95132000  1
  O  O15  1  0.44680600  0.36479800  0.45132000  1
  O  O16  1  0.56758700  0.76354400  0.10015400  1
  O  O17  1  0.76354400  0.56758700  0.60015400  1
  O  O18  1  0.43241300  0.23645600  0.89984600  1
  O  O19  1  0.23645600  0.43241300  0.39984600  1
  O  O20  1  0.41534300  0.16237000  0.56821100  1
  O  O21  1  0.16237000  0.41534300  0.06821100  1
  O  O22  1  0.58465700  0.83763000  0.43178900  1
  O  O23  1  0.83763000  0.58465700  0.93178900  1
  O  O24  1  0.11863500  0.54136100  0.57011300  1
  O  O25  1  0.54136100  0.11863500  0.07011300  1
  O  O26  1  0.88136500  0.45863900  0.42988700  1
  O  O27  1  0.45863900  0.88136500  0.92988700  1
  O  O28  1  0.90985900  0.93989500  0.67567200  1
  O  O29  1  0.93989500  0.90985900  0.17567200  1
  O  O30  1  0.09014100  0.06010500  0.32432800  1
  O  O31  1  0.06010500  0.09014100  0.82432800  1
  O  O32  1  0.82251100  0.44784400  0.23608800  1
  O  O33  1  0.44784400  0.82251100  0.73608800  1
  O  O34  1  0.17748900  0.55215600  0.76391200  1
  O  O35  1  0.55215600  0.17748900  0.26391200  1
  O  O36  1  0.29386700  0.68978900  0.62791500  1
  O  O37  1  0.68978900  0.29386700  0.12791500  1
  O  O38  1  0.70613300  0.31021100  0.37208500  1
  O  O39  1  0.31021100  0.70613300  0.87208500  1
  O  O40  1  0.72864300  0.89870500  0.72341600  1
  O  O41  1  0.89870500  0.72864300  0.22341600  1
  O  O42  1  0.27135700  0.10129500  0.27658400  1
  O  O43  1  0.10129500  0.27135700  0.77658400  1
  O  O44  1  0.73941300  0.70279100  0.69636600  1
  O  O45  1  0.70279100  0.73941300  0.19636600  1
  O  O46  1  0.26058700  0.29720900  0.30363400  1
  O  O47  1  0.29720900  0.26058700  0.80363400  1
loop_
_geom_bond_atom_site_label_1
_geom_bond_atom_site_label_2
_geom_bond_distance
_geom_bond_site_symmetry_2
K0 O46 2.840421 1_555
K0 O26 2.867396 1_455
K0 O8 2.924623 1_545
K0 O22 3.022676 1_545
K0 O20 3.140533 1_555
K0 O17 3.165812 1_455
K0 O19 3.292202 1_555
K1 O47 2.840421 1_554
K1 O27 2.867396 1_544
K1 O9 2.924623 1_455
K1 O23 3.022676 1_454
K1 O21 3.140533 1_555
K1 O16 3.165812 1_545
K1 O18 3.292202 1_554
K2 O44 2.840421 1_555
K2 O24 2.867396 1_655
K2 O10 2.924623 1_565
K2 O20 3.022676 1_565
K2 O22 3.140533 1_555
K2 O19 3.165812 1_655
K2 O17 3.292202 1_555
K3 O45 2.840421 1_556
K3 O25 2.867396 1_566
K3 O11 2.924623 1_655
K3 O21 3.022676 1_656
K3 O23 3.140533 1_555
K3 O18 3.165812 1_565
K3 O16 3.292202 1_556
K4 O13 2.776435 1_555
K4 O38 3.032210 1_555
K4 O26 3.047412 1_555
K4 O6 3.072055 1_645
K4 O28 3.082839 1_545
K5 O12 2.776435 1_555
K5 O39 3.032210 1_554
K5 O27 3.047412 1_554
K5 O7 3.072055 1_464
K5 O29 3.082839 1_455
K6 O15 2.776435 1_555
K6 O36 3.032210 1_555
K6 O24 3.047412 1_555
K6 O4 3.072055 1_465
K6 O30 3.082839 1_565
K7 O14 2.776435 1_555
K7 O37 3.032210 1_556
K7 O25 3.047412 1_556
K7 O5 3.072055 1_646
K7 O31 3.082839 1_655
Ce0 O24 2.347186 1_655
Ce0 O23 2.371121 1_555
Ce0 O44 2.377589 1_555
Ce0 O40 2.452244 1_555
Ce0 O47 2.480490 1_655
Ce0 O43 2.552482 1_655
Ce0 O34 2.815075 1_655
Ce1 O25 2.347186 1_565
Ce1 O22 2.371121 1_555
Ce1 O45 2.377589 1_555
Ce1 O41 2.452244 1_555
Ce1 O46 2.480490 1_565
Ce1 O42 2.552482 1_565
Ce1 O35 2.815075 1_565
Ce2 O26 2.347186 1_455
Ce2 O21 2.371121 1_555
Ce2 O46 2.377589 1_555
Ce2 O42 2.452244 1_555
Ce2 O45 2.480490 1_455
Ce2 O41 2.552482 1_455
Ce2 O32 2.815075 1_455
Ce3 O27 2.347186 1_545
Ce3 O20 2.371121 1_555
Ce3 O47 2.377589 1_555
Ce3 O43 2.452244 1_555
Ce3 O44 2.480490 1_545
Ce3 O40 2.552482 1_545
Ce3 O33 2.815075 1_545
Al0 O28 1.747060 1_455
Al0 O11 1.752905 1_555
Al0 O36 1.755994 1_555
Al0 O34 1.769542 1_555
Al1 O29 1.747060 1_545
Al1 O10 1.752905 1_555
Al1 O37 1.755994 1_555
Al1 O35 1.769542 1_555
Al2 O30 1.747060 1_655
Al2 O9 1.752905 1_555
Al2 O38 1.755994 1_555
Al2 O32 1.769542 1_555
Al3 O31 1.747060 1_565
Al3 O8 1.752905 1_555
Al3 O39 1.755994 1_555
Al3 O33 1.769542 1_555
O0 Si6 1.648969 1_555
O0 Si8 1.659043 1_555
O1 Si7 1.648969 1_555
O1 Si9 1.659043 1_555
O2 Si4 1.648969 1_555
O2 Si10 1.659043 1_555
O3 Si5 1.648969 1_555
O3 Si11 1.659043 1_555
O4 Si14 1.647747 1_555
O4 Si8 1.653400 1_555
O5 Si15 1.647747 1_554
O5 Si9 1.653400 1_555
O6 Si12 1.647747 1_555
O6 Si10 1.653400 1_555
O7 Si13 1.647747 1_556
O7 Si11 1.653400 1_555
O8 Si12 1.624400 1_555
O9 Si13 1.624400 1_555
O10 Si14 1.624400 1_555
O11 Si15 1.624400 1_555
O12 Si13 1.643446 1_555
O12 Si0 1.676015 1_554
O13 Si12 1.643446 1_555
O13 Si1 1.676015 1_555
O14 Si15 1.643446 1_555
O14 Si2 1.676015 1_556
O15 Si14 1.643446 1_555
O15 Si3 1.676015 1_555
O16 Si4 1.645440 1_555
O16 Si0 1.680796 1_554
O17 Si5 1.645440 1_555
O17 Si1 1.680796 1_555
O18 Si6 1.645440 1_555
O18 Si2 1.680796 1_556
O19 Si7 1.645440 1_555
O19 Si3 1.680796 1_555
O20 Si3 1.620784 1_555
O21 Si2 1.620784 1_555
O22 Si1 1.620784 1_555
O23 Si0 1.620784 1_555
O24 Si3 1.620295 1_555
O25 Si2 1.620295 1_555
O26 Si1 1.620295 1_555
O27 Si0 1.620295 1_555
O28 Si8 1.621980 1_565
O29 Si9 1.621980 1_655
O30 Si10 1.621980 1_545
O31 Si11 1.621980 1_455
O32 Si4 1.637786 1_555
O33 Si5 1.637786 1_555
O34 Si6 1.637786 1_555
O35 Si7 1.637786 1_555
O36 Si12 1.626986 1_555
O37 Si13 1.626986 1_555
O38 Si14 1.626986 1_555
O39 Si15 1.626986 1_555
O40 Si8 1.618695 1_565
O41 Si9 1.618695 1_655
O42 Si10 1.618695 1_545
O43 Si11 1.618695 1_455
O44 Si5 1.625689 1_555
O45 Si4 1.625689 1_555
O46 Si7 1.625689 1_555
O47 Si6 1.625689 1_555
