# generated using pymatgen
data_CePr3Fe34
_symmetry_space_group_name_H-M   'P 1'
_cell_length_a   6.47511240
_cell_length_b   6.47511240
_cell_length_c   12.94369674
_cell_angle_alpha   82.98841217
_cell_angle_beta   82.98841217
_cell_angle_gamma   83.00086738
_symmetry_Int_Tables_number   1
_chemical_formula_structural   CePr3Fe34
_chemical_formula_sum   'Ce1 Pr3 Fe34'
_cell_volume   531.44450253
_cell_formula_units_Z   1
loop_
 _symmetry_equiv_pos_site_id
 _symmetry_equiv_pos_as_xyz
  1  'x, y, z'
loop_
 _atom_site_type_symbol
 _atom_site_label
 _atom_site_symmetry_multiplicity
 _atom_site_fract_x
 _atom_site_fract_y
 _atom_site_fract_z
 _atom_site_occupancy
  Ce  Ce0  1  0.34294000  0.34294000  0.67142400  1
  Pr  Pr0  1  0.34202700  0.34202700  0.17113800  1
  Pr  Pr1  1  0.65712400  0.65712400  0.82832200  1
  Pr  Pr2  1  0.65794800  0.65794900  0.32911700  1
  Fe  Fe0  1  0.09732400  0.09732400  0.54890500  1
  Fe  Fe1  1  0.09638300  0.09638300  0.04797400  1
  Fe  Fe2  1  0.90365700  0.90365700  0.95139000  1
  Fe  Fe3  1  0.90382700  0.90382700  0.45235300  1
  Fe  Fe4  1  0.99960000  0.99960000  0.74980000  1
  Fe  Fe5  1  0.00006000  0.00006000  0.25004100  1
  Fe  Fe6  1  0.99941800  0.49996600  0.50003200  1
  Fe  Fe7  1  0.00029500  0.49985300  0.99978400  1
  Fe  Fe8  1  0.49985300  0.00029500  0.99978400  1
  Fe  Fe9  1  0.49996600  0.99941800  0.50003200  1
  Fe  Fe10  1  0.70947800  0.28927600  0.50091300  1
  Fe  Fe11  1  0.71253600  0.28795500  0.99952400  1
  Fe  Fe12  1  0.28873400  0.00147700  0.85473000  1
  Fe  Fe13  1  0.28801400  0.99949100  0.35638100  1
  Fe  Fe14  1  0.00076300  0.71049700  0.64436100  1
  Fe  Fe15  1  0.00004700  0.71187800  0.14408300  1
  Fe  Fe16  1  0.71049700  0.00076300  0.64436100  1
  Fe  Fe17  1  0.71187800  0.00004700  0.14408300  1
  Fe  Fe18  1  0.00147700  0.28873400  0.85473000  1
  Fe  Fe19  1  0.99949100  0.28801400  0.35638100  1
  Fe  Fe20  1  0.28795500  0.71253600  0.99952400  1
  Fe  Fe21  1  0.28927600  0.70947800  0.50091300  1
  Fe  Fe22  1  0.65734800  0.65734800  0.57755000  1
  Fe  Fe23  1  0.65901300  0.65901300  0.07666900  1
  Fe  Fe24  1  0.65748200  0.15501300  0.82838100  1
  Fe  Fe25  1  0.65889500  0.15318300  0.32975300  1
  Fe  Fe26  1  0.15501300  0.65748200  0.82838100  1
  Fe  Fe27  1  0.15318300  0.65889500  0.32975300  1
  Fe  Fe28  1  0.34182900  0.34182900  0.92231000  1
  Fe  Fe29  1  0.34088300  0.34088300  0.42433100  1
  Fe  Fe30  1  0.34178400  0.84637000  0.67081000  1
  Fe  Fe31  1  0.34102900  0.84660100  0.17058600  1
  Fe  Fe32  1  0.84637000  0.34178400  0.67081000  1
  Fe  Fe33  1  0.84660100  0.34102900  0.17058600  1
loop_
_geom_bond_atom_site_label_1
_geom_bond_atom_site_label_2
_geom_bond_distance
_geom_bond_site_symmetry_2
Ce0 Fe21 3.054847 1_555
Ce0 Fe10 3.054847 1_555
Ce0 Fe12 3.057177 1_555
Ce0 Fe18 3.057177 1_555
Ce0 Fe14 3.065428 1_555
Ce0 Fe16 3.065428 1_555
Ce0 Fe0 3.069451 1_555
Ce0 Fe24 3.091748 1_555
Ce0 Fe26 3.091748 1_555
Ce0 Fe22 3.093189 1_555
Ce0 Fe29 3.201609 1_555
Ce0 Fe32 3.217249 1_455
Ce0 Fe30 3.217249 1_545
Ce0 Fe28 3.245653 1_555
Ce0 Fe30 3.257904 1_555
Ce0 Fe32 3.257904 1_555
Ce0 Fe9 3.317510 1_545
Ce0 Fe6 3.317510 1_455
Ce0 Fe4 3.319242 1_445
Fe0 Fe3 2.418382 1_445
Fe0 Fe4 2.618520 1_445
Fe0 Fe9 2.625218 1_545
Fe0 Fe6 2.625218 1_455
Fe0 Fe29 2.634155 1_555
Fe0 Fe30 2.644388 1_545
Fe0 Fe32 2.644388 1_455
Fe0 Fe19 2.753067 1_455
Fe0 Fe13 2.753067 1_545
Fe0 Fe14 2.762027 1_545
Fe0 Fe16 2.762027 1_455
Fe0 Fe10 2.769338 1_455
Fe0 Fe21 2.769338 1_545
Fe1 Fe2 2.412219 1_444
Fe1 Fe7 2.627199 1_554
Fe1 Fe8 2.627199 1_554
Fe1 Fe5 2.630037 1_555
Fe1 Fe31 2.647022 1_545
Fe1 Fe33 2.647022 1_455
Fe1 Fe28 2.655316 1_554
Fe1 Fe11 2.747493 1_454
Fe1 Fe20 2.747493 1_544
Fe1 Fe17 2.751039 1_455
Fe1 Fe15 2.751039 1_545
Fe1 Fe12 2.759260 1_554
Fe1 Fe18 2.759260 1_554
Fe1 Pr0 3.075060 1_555
Fe2 Fe4 2.623543 1_555
Fe2 Fe8 2.630125 1_565
Fe2 Fe7 2.630125 1_655
Fe2 Fe23 2.646795 1_556
Fe2 Fe24 2.660749 1_565
Fe2 Fe26 2.660749 1_655
Fe2 Fe20 2.747986 1_655
Fe2 Pr1 3.081673 1_555
Fe3 Fe6 2.628160 1_555
Fe3 Fe9 2.628160 1_555
Fe3 Fe5 2.632839 1_665
Fe3 Pr2 3.077616 1_555
Fe4 Pr1 3.311523 1_555
Fe5 Pr0 3.307532 1_555
Fe5 Pr2 3.309193 1_445
Fe6 Pr2 3.304517 1_555
Fe7 Pr0 3.309634 1_556
Fe7 Pr1 3.316760 1_455
Fe8 Pr0 3.309634 1_556
Fe8 Pr1 3.316760 1_545
Fe9 Pr2 3.304512 1_555
Fe10 Fe9 2.447994 1_545
Fe10 Fe6 2.449706 1_555
Fe10 Fe16 2.467933 1_555
Fe10 Fe19 2.483661 1_555
Fe10 Fe32 2.543459 1_555
Fe10 Fe25 2.552672 1_555
Fe10 Fe22 2.660352 1_555
Fe10 Fe29 2.663252 1_555
Fe10 Fe3 2.762662 1_545
Fe10 Pr2 3.073406 1_555
Fe11 Fe7 2.445416 1_655
Fe11 Fe8 2.447124 1_555
Fe11 Fe17 2.474851 1_556
Fe11 Fe18 2.481296 1_655
Fe11 Fe33 2.549898 1_556
Fe11 Fe24 2.551161 1_555
Fe11 Fe28 2.679336 1_555
Fe11 Fe23 2.681080 1_556
Fe11 Fe2 2.747986 1_545
Fe11 Pr1 3.073312 1_555
Fe11 Pr0 3.081652 1_556
Fe12 Fe4 2.445447 1_445
Fe12 Fe8 2.452447 1_555
Fe12 Fe18 2.464996 1_555
Fe12 Fe20 2.481296 1_545
Fe12 Fe28 2.543399 1_555
Fe12 Fe26 2.560263 1_545
Fe12 Fe30 2.663449 1_545
Fe12 Fe24 2.665076 1_555
Fe12 Fe2 2.759250 1_445
Fe12 Pr1 3.077219 1_545
Fe13 Fe9 2.442012 1_555
Fe13 Fe5 2.448412 1_565
Fe13 Fe19 2.475860 1_465
Fe13 Fe21 2.483661 1_555
Fe13 Fe27 2.544221 1_555
Fe13 Fe29 2.551449 1_565
Fe13 Fe25 2.678240 1_565
Fe13 Fe31 2.679215 1_555
Fe13 Fe3 2.747452 1_455
Fe13 Pr2 3.073480 1_555
Fe13 Pr0 3.078430 1_565
Fe14 Fe6 2.444795 1_455
Fe14 Fe4 2.446371 1_455
Fe14 Fe21 2.467933 1_555
Fe14 Fe16 2.490817 1_465
Fe14 Fe30 2.549257 1_555
Fe14 Fe22 2.557252 1_455
Fe14 Fe26 2.662046 1_555
Fe14 Fe32 2.667425 1_455
Fe14 Fe3 2.750915 1_455
Fe14 Pr1 3.071368 1_455
Fe15 Fe5 2.447008 1_565
Fe15 Fe7 2.449105 1_554
Fe15 Fe17 2.472822 1_465
Fe15 Fe20 2.474851 1_554
Fe15 Fe31 2.545751 1_555
Fe15 Fe23 2.546064 1_455
Fe15 Fe33 2.677350 1_455
Fe15 Fe27 2.678460 1_555
Fe15 Fe2 2.754529 1_454
Fe15 Pr0 3.074638 1_555
Fe15 Pr2 3.074731 1_455
Fe16 Fe9 2.444795 1_545
Fe16 Fe4 2.446371 1_545
Fe16 Fe32 2.549257 1_555
Fe16 Fe22 2.557252 1_545
Fe16 Fe24 2.662046 1_555
Fe16 Fe30 2.667425 1_545
Fe16 Fe3 2.750915 1_545
Fe16 Pr1 3.071368 1_545
Fe17 Fe5 2.447008 1_655
Fe17 Fe8 2.449105 1_554
Fe17 Fe33 2.545751 1_555
Fe17 Fe23 2.546064 1_545
Fe17 Fe31 2.677350 1_545
Fe17 Fe25 2.678460 1_555
Fe17 Fe2 2.754529 1_544
Fe17 Pr0 3.074638 1_555
Fe17 Pr2 3.074728 1_545
Fe18 Fe4 2.445447 1_445
Fe18 Fe7 2.452447 1_555
Fe18 Fe28 2.543399 1_555
Fe18 Fe24 2.560263 1_455
Fe18 Fe32 2.663449 1_455
Fe18 Fe26 2.665076 1_555
Fe18 Fe2 2.759250 1_445
Fe18 Pr1 3.077219 1_455
Fe19 Fe6 2.442012 1_555
Fe19 Fe5 2.448412 1_655
Fe19 Fe25 2.544221 1_555
Fe19 Fe29 2.551449 1_655
Fe19 Fe27 2.678240 1_655
Fe19 Fe33 2.679215 1_555
Fe19 Fe3 2.747452 1_545
Fe19 Pr2 3.073488 1_555
Fe19 Pr0 3.078430 1_655
Fe20 Fe8 2.445416 1_565
Fe20 Fe7 2.447124 1_555
Fe20 Fe31 2.549898 1_556
Fe20 Fe26 2.551161 1_555
Fe20 Fe28 2.679336 1_555
Fe20 Fe23 2.681080 1_556
Fe20 Pr1 3.073312 1_555
Fe20 Pr0 3.081652 1_556
Fe21 Fe6 2.447994 1_455
Fe21 Fe9 2.449706 1_555
Fe21 Fe30 2.543459 1_555
Fe21 Fe27 2.552672 1_555
Fe21 Fe22 2.660352 1_555
Fe21 Fe29 2.663252 1_555
Fe21 Fe3 2.762662 1_455
Fe21 Pr2 3.073401 1_555
Fe22 Fe9 2.471472 1_555
Fe22 Fe6 2.471472 1_555
Fe22 Fe32 2.505863 1_555
Fe22 Fe30 2.505863 1_555
Fe22 Fe3 2.660504 1_555
Fe22 Pr2 3.214697 1_555
Fe22 Pr1 3.245563 1_555
Fe23 Fe8 2.468667 1_564
Fe23 Fe7 2.468667 1_654
Fe23 Fe33 2.516439 1_555
Fe23 Fe31 2.516439 1_555
Fe23 Pr0 3.118027 1_555
Fe23 Pr1 3.217565 1_554
Fe23 Pr2 3.265943 1_555
Fe24 Fe4 2.472059 1_545
Fe24 Fe8 2.474117 1_555
Fe24 Fe32 2.503500 1_555
Fe24 Fe28 2.503742 1_555
Fe24 Pr1 3.224264 1_545
Fe24 Pr1 3.250850 1_555
Fe25 Fe9 2.463396 1_545
Fe25 Fe5 2.467213 1_655
Fe25 Fe33 2.517601 1_555
Fe25 Fe29 2.520681 1_555
Fe25 Fe3 2.646755 1_545
Fe25 Pr0 3.118343 1_555
Fe25 Pr2 3.208466 1_545
Fe25 Pr2 3.266682 1_555
Fe26 Fe4 2.472059 1_455
Fe26 Fe7 2.474117 1_555
Fe26 Fe30 2.503500 1_555
Fe26 Fe28 2.503742 1_555
Fe26 Pr1 3.224264 1_455
Fe26 Pr1 3.250850 1_555
Fe27 Fe6 2.463396 1_455
Fe27 Fe5 2.467213 1_565
Fe27 Fe31 2.517601 1_555
Fe27 Fe29 2.520681 1_555
Fe27 Fe3 2.646755 1_455
Fe27 Pr0 3.118343 1_555
Fe27 Pr2 3.208471 1_455
Fe27 Pr2 3.266676 1_555
Fe28 Fe7 2.469983 1_555
Fe28 Fe8 2.469983 1_555
Fe28 Pr1 3.101462 1_555
Fe28 Pr0 3.221068 1_556
Fe29 Fe6 2.464192 1_455
Fe29 Fe9 2.464192 1_545
Fe29 Pr2 3.120983 1_555
Fe29 Pr0 3.275463 1_555
Fe30 Fe9 2.465212 1_555
Fe30 Fe4 2.469382 1_455
Fe30 Pr1 3.102266 1_555
Fe31 Fe5 2.465764 1_565
Fe31 Fe8 2.468377 1_564
Fe31 Pr2 3.117532 1_555
Fe31 Pr0 3.209614 1_565
Fe31 Pr0 3.265529 1_555
Fe32 Fe6 2.465212 1_555
Fe32 Fe4 2.469382 1_545
Fe32 Pr1 3.102266 1_555
Fe33 Fe5 2.465764 1_655
Fe33 Fe7 2.468377 1_654
Fe33 Pr2 3.117538 1_555
Fe33 Pr0 3.209614 1_655
Fe33 Pr0 3.265529 1_555
