# generated using pymatgen
data_AgSnSe2
_symmetry_space_group_name_H-M   'P 1'
_cell_length_a   6.91640531
_cell_length_b   6.91640531
_cell_length_c   6.91640602
_cell_angle_alpha   34.01729218
_cell_angle_beta   34.01729218
_cell_angle_gamma   34.01728964
_symmetry_Int_Tables_number   1
_chemical_formula_structural   AgSnSe2
_chemical_formula_sum   'Ag1 Sn1 Se2'
_cell_volume   92.30530354
_cell_formula_units_Z   1
loop_
 _symmetry_equiv_pos_site_id
 _symmetry_equiv_pos_as_xyz
  1  'x, y, z'
loop_
 _atom_site_type_symbol
 _atom_site_label
 _atom_site_symmetry_multiplicity
 _atom_site_fract_x
 _atom_site_fract_y
 _atom_site_fract_z
 _atom_site_occupancy
  Ag  Ag0  1  0.00000000  0.00000000  0.00000000  1
  Sn  Sn0  1  0.50000000  0.50000000  0.50000000  1
  Se  Se0  1  0.25228116  0.25228116  0.25228116  1
  Se  Se1  1  0.74771884  0.74771884  0.74771884  1
loop_
_geom_bond_atom_site_label_1
_geom_bond_atom_site_label_2
_geom_bond_distance
_geom_bond_site_symmetry_2
Ag0 Se0 2.821920 1_545
Ag0 Se1 2.821920 1_454
Ag0 Se1 2.821920 1_544
Ag0 Se0 2.821920 1_455
Ag0 Se1 2.821921 1_445
Ag0 Se0 2.821921 1_554
Se0 Sn0 2.872847 1_455
Se0 Sn0 2.872847 1_545
Se0 Sn0 2.872848 1_554
Se1 Sn0 2.872847 1_655
Se1 Sn0 2.872847 1_565
Se1 Sn0 2.872848 1_556
