# generated using pymatgen
data_Mg7GeN6
_symmetry_space_group_name_H-M   'P 1'
_cell_length_a   5.52416500
_cell_length_b   8.32852840
_cell_length_c   8.32852840
_cell_angle_alpha   77.71162740
_cell_angle_beta   70.63158115
_cell_angle_gamma   70.63158115
_symmetry_Int_Tables_number   1
_chemical_formula_structural   Mg7GeN6
_chemical_formula_sum   'Mg14 Ge2 N12'
_cell_volume   338.75128826
_cell_formula_units_Z   2
loop_
 _symmetry_equiv_pos_site_id
 _symmetry_equiv_pos_as_xyz
  1  'x, y, z'
loop_
 _atom_site_type_symbol
 _atom_site_label
 _atom_site_symmetry_multiplicity
 _atom_site_fract_x
 _atom_site_fract_y
 _atom_site_fract_z
 _atom_site_occupancy
  Mg  Mg0  1  0.28191400  0.95918600  0.04081400  1
  Mg  Mg1  1  0.71808600  0.04081400  0.95918600  1
  Mg  Mg2  1  0.21808600  0.45918600  0.54081400  1
  Mg  Mg3  1  0.78191400  0.54081400  0.45918600  1
  Mg  Mg4  1  0.70540700  0.15154300  0.61501400  1
  Mg  Mg5  1  0.52803600  0.61501400  0.15154300  1
  Mg  Mg6  1  0.79459300  0.88498600  0.34845700  1
  Mg  Mg7  1  0.97196400  0.34845700  0.88498600  1
  Mg  Mg8  1  0.29459300  0.84845700  0.38498600  1
  Mg  Mg9  1  0.47196400  0.38498600  0.84845700  1
  Mg  Mg10  1  0.20540700  0.11501400  0.65154300  1
  Mg  Mg11  1  0.02803600  0.65154300  0.11501400  1
  Mg  Mg12  1  0.25000000  0.25000000  0.25000000  1
  Mg  Mg13  1  0.75000000  0.75000000  0.75000000  1
  Ge  Ge0  1  0.75000000  0.25000000  0.25000000  1
  Ge  Ge1  1  0.25000000  0.75000000  0.75000000  1
  N  N0  1  0.03812900  0.05939900  0.27663700  1
  N  N1  1  0.62583500  0.27663700  0.05939900  1
  N  N2  1  0.46187100  0.22336300  0.44060100  1
  N  N3  1  0.87416500  0.44060100  0.22336300  1
  N  N4  1  0.96187100  0.94060100  0.72336300  1
  N  N5  1  0.37416500  0.72336300  0.94060100  1
  N  N6  1  0.53812900  0.77663700  0.55939900  1
  N  N7  1  0.12583500  0.55939900  0.77663700  1
  N  N8  1  0.85725600  0.34479700  0.65520300  1
  N  N9  1  0.14274400  0.65520300  0.34479700  1
  N  N10  1  0.64274400  0.84479700  0.15520300  1
  N  N11  1  0.35725600  0.15520300  0.84479700  1
loop_
_geom_bond_atom_site_label_1
_geom_bond_atom_site_label_2
_geom_bond_distance
_geom_bond_site_symmetry_2
Mg0 N11 2.090236 1_564
Mg0 N0 2.136727 1_565
Mg0 N5 2.136728 1_554
Mg0 N10 2.324239 1_555
Mg1 N10 2.090236 1_546
Mg1 N4 2.136727 1_545
Mg1 N1 2.136728 1_556
Mg1 N11 2.324239 1_555
Mg2 N9 2.090236 1_555
Mg2 N2 2.136727 1_555
Mg2 N7 2.136728 1_555
Mg2 N8 2.324239 1_455
Mg3 N8 2.090236 1_555
Mg3 N6 2.136727 1_555
Mg3 N3 2.136728 1_555
Mg3 N9 2.324239 1_655
Mg4 N4 2.104804 1_545
Mg4 N2 2.161104 1_555
Mg4 N8 2.171937 1_555
Mg4 N11 2.215154 1_555
Mg5 N5 2.104804 1_554
Mg5 N3 2.161104 1_555
Mg5 N9 2.171937 1_555
Mg5 N10 2.215155 1_555
Mg6 N6 2.104804 1_555
Mg6 N0 2.161104 1_665
Mg6 N10 2.171937 1_555
Mg6 N9 2.215154 1_655
Mg7 N7 2.104804 1_655
Mg7 N1 2.161104 1_556
Mg7 N11 2.171937 1_655
Mg7 N8 2.215155 1_555
Mg8 N0 2.104804 1_565
Mg8 N6 2.161104 1_555
Mg8 N9 2.171937 1_555
Mg8 N10 2.215154 1_555
Mg9 N1 2.104804 1_556
Mg9 N7 2.161104 1_555
Mg9 N8 2.171937 1_555
Mg9 N11 2.215155 1_555
Mg10 N2 2.104804 1_555
Mg10 N4 2.161104 1_445
Mg10 N11 2.171937 1_555
Mg10 N8 2.215154 1_455
Mg11 N3 2.104804 1_455
Mg11 N5 2.161104 1_554
Mg11 N10 2.171937 1_455
Mg11 N9 2.215155 1_555
Mg12 N3 2.202092 1_455
Mg12 N1 2.202092 1_555
Mg12 N2 2.202092 1_555
Mg12 N0 2.202092 1_555
Mg13 N7 2.202092 1_655
Mg13 N5 2.202092 1_555
Mg13 N6 2.202092 1_555
Mg13 N4 2.202092 1_555
Ge0 N0 1.873759 1_655
Ge0 N2 1.873759 1_555
Ge0 N1 1.873759 1_555
Ge0 N3 1.873759 1_555
Ge1 N6 1.873759 1_555
Ge1 N4 1.873759 1_455
Ge1 N5 1.873759 1_555
Ge1 N7 1.873759 1_555
