# generated using pymatgen
data_Dy3SbO7
_symmetry_space_group_name_H-M   'P 1'
_cell_length_a   6.48443020
_cell_length_b   6.48443020
_cell_length_c   7.51077100
_cell_angle_alpha   90.00000000
_cell_angle_beta   90.00000000
_cell_angle_gamma   109.21555077
_symmetry_Int_Tables_number   1
_chemical_formula_structural   Dy3SbO7
_chemical_formula_sum   'Dy6 Sb2 O14'
_cell_volume   298.21686914
_cell_formula_units_Z   2
loop_
 _symmetry_equiv_pos_site_id
 _symmetry_equiv_pos_as_xyz
  1  'x, y, z'
loop_
 _atom_site_type_symbol
 _atom_site_label
 _atom_site_symmetry_multiplicity
 _atom_site_fract_x
 _atom_site_fract_y
 _atom_site_fract_z
 _atom_site_occupancy
  Dy  Dy0  1  0.99995800  0.46795800  0.74830000  1
  Dy  Dy1  1  0.00004200  0.53204200  0.24830000  1
  Dy  Dy2  1  0.53204200  0.00004200  0.75170000  1
  Dy  Dy3  1  0.46795800  0.99995800  0.25170000  1
  Dy  Dy4  1  0.51389900  0.51389900  0.50000000  1
  Dy  Dy5  1  0.48610100  0.48610100  0.00000000  1
  Sb  Sb0  1  0.99927800  0.99927800  0.50000000  1
  Sb  Sb1  1  0.00072200  0.00072200  0.00000000  1
  O  O0  1  0.63814000  0.36186000  0.75000000  1
  O  O1  1  0.36186000  0.63814000  0.25000000  1
  O  O2  1  0.92926700  0.07073300  0.75000000  1
  O  O3  1  0.07073300  0.92926700  0.25000000  1
  O  O4  1  0.92085500  0.67451600  0.52838500  1
  O  O5  1  0.07914500  0.32548400  0.02838500  1
  O  O6  1  0.32548400  0.07914500  0.97161500  1
  O  O7  1  0.67451600  0.92085500  0.47161500  1
  O  O8  1  0.37076200  0.62923800  0.75000000  1
  O  O9  1  0.62923800  0.37076200  0.25000000  1
  O  O10  1  0.93794300  0.68324400  0.96711900  1
  O  O11  1  0.06205700  0.31675600  0.46711900  1
  O  O12  1  0.31675600  0.06205700  0.53288100  1
  O  O13  1  0.68324400  0.93794300  0.03288100  1
loop_
_geom_bond_atom_site_label_1
_geom_bond_atom_site_label_2
_geom_bond_distance
_geom_bond_site_symmetry_2
Dy0 O0 2.217107 1_555
Dy0 O10 2.276216 1_555
Dy0 O8 2.284742 1_655
Dy0 O4 2.288576 1_555
Dy0 O11 2.417311 1_655
Dy0 O5 2.419672 1_656
Dy0 O2 2.463274 1_555
Dy1 O1 2.217107 1_555
Dy1 O11 2.276216 1_555
Dy1 O9 2.284742 1_455
Dy1 O5 2.288576 1_555
Dy1 O10 2.417311 1_454
Dy1 O4 2.419672 1_455
Dy1 O3 2.463274 1_555
Dy2 O0 2.217107 1_555
Dy2 O12 2.276216 1_555
Dy2 O8 2.284742 1_545
Dy2 O6 2.288576 1_555
Dy2 O13 2.417311 1_546
Dy2 O7 2.419672 1_545
Dy2 O2 2.463274 1_555
Dy3 O1 2.217107 1_555
Dy3 O13 2.276216 1_555
Dy3 O9 2.284742 1_565
Dy3 O7 2.288576 1_555
Dy3 O12 2.417311 1_565
Dy3 O6 2.419672 1_564
Dy3 O3 2.463274 1_555
Dy4 O8 2.324548 1_555
Dy4 O9 2.324548 1_555
Dy4 O1 2.381085 1_555
Dy4 O0 2.381085 1_555
Dy4 O4 2.506938 1_555
Dy4 O7 2.506938 1_555
Dy4 O12 2.795400 1_555
Dy4 O11 2.795400 1_555
Dy5 O8 2.324548 1_554
Dy5 O9 2.324548 1_555
Dy5 O1 2.381085 1_555
Dy5 O0 2.381085 1_554
Dy5 O5 2.506938 1_555
Dy5 O6 2.506938 1_554
Dy5 O10 2.795400 1_554
Dy5 O13 2.795400 1_555
O2 Sb0 2.021133 1_545
O2 Sb1 2.021133 1_656
O3 Sb1 2.021133 1_565
O3 Sb0 2.021133 1_455
O4 Sb0 2.008465 1_555
O5 Sb1 2.008465 1_555
O6 Sb1 2.008465 1_556
O7 Sb0 2.008465 1_555
O10 Sb1 1.978171 1_666
O11 Sb0 1.978171 1_445
O12 Sb0 1.978171 1_445
O13 Sb1 1.978171 1_665
