# generated using pymatgen
data_HoLuIn2
_symmetry_space_group_name_H-M   'P 1'
_cell_length_a   5.22851142
_cell_length_b   5.22851142
_cell_length_c   5.22851142
_cell_angle_alpha   60.00000000
_cell_angle_beta   60.00000000
_cell_angle_gamma   60.00000000
_symmetry_Int_Tables_number   1
_chemical_formula_structural   HoLuIn2
_chemical_formula_sum   'Ho1 Lu1 In2'
_cell_volume   101.06928300
_cell_formula_units_Z   1
loop_
 _symmetry_equiv_pos_site_id
 _symmetry_equiv_pos_as_xyz
  1  'x, y, z'
loop_
 _atom_site_type_symbol
 _atom_site_label
 _atom_site_symmetry_multiplicity
 _atom_site_fract_x
 _atom_site_fract_y
 _atom_site_fract_z
 _atom_site_occupancy
  Ho  Ho0  1  0.50000000  0.50000000  0.50000000  1
  Lu  Lu0  1  -0.00000000  -0.00000000  -0.00000000  1
  In  In0  1  0.25000000  0.25000000  0.25000000  1
  In  In1  1  0.75000000  0.75000000  0.75000000  1
loop_
_geom_bond_atom_site_label_1
_geom_bond_atom_site_label_2
_geom_bond_distance
_geom_bond_site_symmetry_2
Ho0 In0 3.201796 1_556
Ho0 In0 3.201796 1_555
Ho0 In1 3.201796 1_455
Ho0 In1 3.201796 1_555
Ho0 In0 3.201796 1_655
Ho0 In0 3.201796 1_565
Ho0 In1 3.201796 1_545
Ho0 In1 3.201796 1_554
In0 Lu0 3.201796 1_655
In0 Lu0 3.201796 1_565
In0 Lu0 3.201796 1_556
In0 Lu0 3.201796 1_555
In1 Lu0 3.201796 1_656
In1 Lu0 3.201796 1_666
In1 Lu0 3.201796 1_665
In1 Lu0 3.201796 1_566
