# generated using pymatgen
data_TiGeRh
_symmetry_space_group_name_H-M   'P 1'
_cell_length_a   7.48685523
_cell_length_b   7.48695132
_cell_length_c   7.48740426
_cell_angle_alpha   127.50807198
_cell_angle_beta   123.06352844
_cell_angle_gamma   81.11096055
_symmetry_Int_Tables_number   1
_chemical_formula_structural   TiGeRh
_chemical_formula_sum   'Ti6 Ge6 Rh6'
_cell_volume   268.87143841
_cell_formula_units_Z   6
loop_
 _symmetry_equiv_pos_site_id
 _symmetry_equiv_pos_as_xyz
  1  'x, y, z'
loop_
 _atom_site_type_symbol
 _atom_site_label
 _atom_site_symmetry_multiplicity
 _atom_site_fract_x
 _atom_site_fract_y
 _atom_site_fract_z
 _atom_site_occupancy
  Ti  Ti0  1  0.97774625  0.74282763  0.26507626  1
  Ti  Ti1  1  0.02218814  0.28730584  0.76498760  1
  Ti  Ti2  1  0.24909351  0.16428353  0.41521063  1
  Ti  Ti3  1  0.75082865  0.16611530  0.91512524  1
  Ti  Ti4  1  0.55655178  0.35552123  0.29894594  1
  Ti  Ti5  1  0.44342035  0.74233046  0.79891092  1
  Ge  Ge0  1  0.78647841  0.78707105  0.50061327  1
  Ge  Ge1  1  0.21358517  0.71400113  0.00050251  1
  Ge  Ge2  1  0.33809535  0.07934429  0.75347835  1
  Ge  Ge3  1  0.66186863  0.41527400  0.74114388  1
  Ge  Ge4  1  0.17407669  0.41530700  0.25342897  1
  Ge  Ge5  1  0.82592308  0.07933873  0.24114409  1
  Rh  Rh0  1  0.50024570  0.48804707  0.98821193  1
  Rh  Rh1  1  0.99993212  0.48817085  0.48810501  1
  Rh  Rh2  1  0.16983364  0.00522100  0.92249619  1
  Rh  Rh3  1  0.83014505  0.75248942  0.83528263  1
  Rh  Rh4  1  0.41716749  0.75263142  0.42243187  1
  Rh  Rh5  1  0.58281899  0.00512506  0.33530271  1
loop_
_geom_bond_atom_site_label_1
_geom_bond_atom_site_label_2
_geom_bond_distance
_geom_bond_site_symmetry_2
Ge0 Rh5 2.480789 1_565
Ge0 Rh2 2.481317 1_665
Ge0 Rh3 2.514556 1_555
Ge0 Rh4 2.514899 1_555
Ge0 Rh1 2.524583 1_555
Ge0 Rh0 2.525056 1_554
Ge0 Ti0 2.677326 1_555
Ge0 Ti3 2.775158 1_565
Ge0 Ti4 2.936716 1_555
Ge0 Ti1 3.203503 1_665
Ge1 Rh4 2.481261 1_555
Ge1 Rh3 2.481552 1_454
Ge1 Rh2 2.514684 1_564
Ge1 Rh5 2.514726 1_565
Ge1 Rh1 2.525240 1_454
Ge1 Rh0 2.525932 1_554
Ge1 Ti1 2.676975 1_554
Ge1 Ti2 2.776043 1_565
Ge1 Ti5 2.936131 1_554
Ge1 Ti0 3.204162 1_455
Ge2 Rh0 2.489351 1_555
Ge2 Rh4 2.499594 1_545
Ge2 Rh2 2.511423 1_555
Ge2 Ti1 2.635631 1_555
Ge2 Ti3 2.649067 1_555
Ge2 Ti4 2.665243 1_556
Ge2 Ti0 2.667422 1_445
Ge2 Ti5 2.691047 1_545
Ge2 Ti2 2.692985 1_555
Ge3 Rh0 2.488883 1_555
Ge3 Rh5 2.499989 1_555
Ge3 Rh3 2.511027 1_555
Ge3 Ti0 2.636359 1_556
Ge3 Ti2 2.649229 1_555
Ge3 Ti5 2.665018 1_555
Ge3 Ti1 2.666687 1_655
Ge3 Ti4 2.690865 1_555
Ge3 Ti3 2.692384 1_555
Ge4 Rh1 2.489488 1_455
Ge4 Rh2 2.499480 1_554
Ge4 Rh4 2.511538 1_555
Ge4 Ti0 2.635660 1_455
Ge4 Ti2 2.649270 1_555
Ge4 Ti5 2.665340 1_555
Ge4 Ti1 2.667843 1_554
Ge4 Ti4 2.690937 1_555
Ge4 Ti3 2.693010 1_454
Ge5 Rh1 2.489389 1_555
Ge5 Rh3 2.499840 1_544
Ge5 Rh5 2.511600 1_555
Ge5 Ti1 2.636097 1_655
Ge5 Ti3 2.649100 1_554
Ge5 Ti4 2.665344 1_555
Ge5 Ti0 2.667249 1_545
Ge5 Ti5 2.691455 1_544
Ge5 Ti2 2.692309 1_655
Rh0 Ti3 2.783017 1_555
Rh0 Ti2 2.785691 1_555
Rh0 Ti4 2.861281 1_556
Rh0 Ti5 2.862189 1_555
Rh1 Ti2 2.785549 1_655
Rh1 Ti3 2.785671 1_554
Rh1 Ti4 2.861383 1_555
Rh1 Ti5 2.861845 1_655
Rh2 Ti5 2.744103 1_545
Rh2 Ti4 2.765148 1_556
Rh2 Ti2 2.803548 1_556
Rh2 Ti1 2.821737 1_555
Rh3 Ti4 2.743613 1_555
Rh3 Ti5 2.765049 1_555
Rh3 Ti3 2.804421 1_565
Rh3 Ti0 2.821471 1_556
Rh4 Ti4 2.744064 1_555
Rh4 Ti5 2.765142 1_555
Rh4 Ti3 2.803654 1_565
Rh4 Ti0 2.820782 1_455
Rh5 Ti5 2.743831 1_544
Rh5 Ti4 2.765282 1_555
Rh5 Ti2 2.804195 1_555
Rh5 Ti1 2.820978 1_655
