# generated using pymatgen
data_Sr2Si
_symmetry_space_group_name_H-M   'P 1'
_cell_length_a   5.41390812
_cell_length_b   5.41390812
_cell_length_c   7.55065400
_cell_angle_alpha   90.00000000
_cell_angle_beta   90.00000000
_cell_angle_gamma   120.00000146
_symmetry_Int_Tables_number   1
_chemical_formula_structural   Sr2Si
_chemical_formula_sum   'Sr4 Si2'
_cell_volume   191.66241541
_cell_formula_units_Z   2
loop_
 _symmetry_equiv_pos_site_id
 _symmetry_equiv_pos_as_xyz
  1  'x, y, z'
loop_
 _atom_site_type_symbol
 _atom_site_label
 _atom_site_symmetry_multiplicity
 _atom_site_fract_x
 _atom_site_fract_y
 _atom_site_fract_z
 _atom_site_occupancy
  Sr  Sr0  1  0.33333300  0.66666700  0.75000000  1
  Sr  Sr1  1  0.66666700  0.33333300  0.25000000  1
  Sr  Sr2  1  0.00000000  0.00000000  0.50000000  1
  Sr  Sr3  1  0.00000000  0.00000000  0.00000000  1
  Si  Si0  1  0.66666700  0.33333300  0.75000000  1
  Si  Si1  1  0.33333300  0.66666700  0.25000000  1
loop_
_geom_bond_atom_site_label_1
_geom_bond_atom_site_label_2
_geom_bond_distance
_geom_bond_site_symmetry_2
Si0 Sr0 3.125718 1_545
Si0 Sr0 3.125718 1_655
Si0 Sr0 3.125728 1_555
Si0 Sr3 3.651491 1_656
Si0 Sr2 3.651491 1_655
Si0 Sr2 3.651495 1_555
Si0 Sr3 3.651495 1_666
Si0 Sr3 3.651495 1_556
Si0 Sr2 3.651495 1_665
Si1 Sr1 3.125718 1_455
Si1 Sr1 3.125718 1_565
Si1 Sr1 3.125728 1_555
Si1 Sr3 3.651491 1_565
Si1 Sr2 3.651491 1_565
Si1 Sr3 3.651495 1_665
Si1 Sr2 3.651495 1_555
Si1 Sr3 3.651495 1_555
Si1 Sr2 3.651495 1_665
