# generated using pymatgen
data_Tm5Ir3
_symmetry_space_group_name_H-M   'P 1'
_cell_length_a   6.26796150
_cell_length_b   10.66985193
_cell_length_c   10.66985193
_cell_angle_alpha   90.00000000
_cell_angle_beta   90.00000000
_cell_angle_gamma   90.00000000
_symmetry_Int_Tables_number   1
_chemical_formula_structural   Tm5Ir3
_chemical_formula_sum   'Tm20 Ir12'
_cell_volume   713.58071656
_cell_formula_units_Z   4
loop_
 _symmetry_equiv_pos_site_id
 _symmetry_equiv_pos_as_xyz
  1  'x, y, z'
loop_
 _atom_site_type_symbol
 _atom_site_label
 _atom_site_symmetry_multiplicity
 _atom_site_fract_x
 _atom_site_fract_y
 _atom_site_fract_z
 _atom_site_occupancy
  Tm  Tm0  1  0.38026279  0.83737860  0.54152634  1
  Tm  Tm1  1  0.88026279  0.66262140  0.54152634  1
  Tm  Tm2  1  0.88026279  0.83737860  0.95847366  1
  Tm  Tm3  1  0.38026279  0.66262140  0.95847366  1
  Tm  Tm4  1  0.88026279  0.54152634  0.83737860  1
  Tm  Tm5  1  0.38026279  0.95847366  0.83737860  1
  Tm  Tm6  1  0.38026279  0.54152634  0.66262140  1
  Tm  Tm7  1  0.88026279  0.95847366  0.66262140  1
  Tm  Tm8  1  0.61973721  0.16262140  0.45847366  1
  Tm  Tm9  1  0.11973721  0.33737860  0.45847366  1
  Tm  Tm10  1  0.11973721  0.16262140  0.04152634  1
  Tm  Tm11  1  0.61973721  0.33737860  0.04152634  1
  Tm  Tm12  1  0.11973721  0.45847366  0.16262140  1
  Tm  Tm13  1  0.61973721  0.04152634  0.16262140  1
  Tm  Tm14  1  0.61973721  0.45847366  0.33737860  1
  Tm  Tm15  1  0.11973721  0.04152634  0.33737860  1
  Tm  Tm16  1  0.50000000  0.75000000  0.25000000  1
  Tm  Tm17  1  0.00000000  0.75000000  0.25000000  1
  Tm  Tm18  1  0.00000000  0.25000000  0.75000000  1
  Tm  Tm19  1  0.50000000  0.25000000  0.75000000  1
  Ir  Ir0  1  0.25000000  0.90361793  0.09638207  1
  Ir  Ir1  1  0.75000000  0.59638207  0.09638207  1
  Ir  Ir2  1  0.75000000  0.90361793  0.40361793  1
  Ir  Ir3  1  0.25000000  0.59638207  0.40361793  1
  Ir  Ir4  1  0.75000000  0.09638207  0.90361793  1
  Ir  Ir5  1  0.25000000  0.40361793  0.90361793  1
  Ir  Ir6  1  0.25000000  0.09638207  0.59638207  1
  Ir  Ir7  1  0.75000000  0.40361793  0.59638207  1
  Ir  Ir8  1  0.12686915  0.75000000  0.75000000  1
  Ir  Ir9  1  0.62686915  0.75000000  0.75000000  1
  Ir  Ir10  1  0.87313085  0.25000000  0.25000000  1
  Ir  Ir11  1  0.37313085  0.25000000  0.25000000  1
loop_
_geom_bond_atom_site_label_1
_geom_bond_atom_site_label_2
_geom_bond_distance
_geom_bond_site_symmetry_2
Ir0 Tm16 2.797969 1_555
Ir0 Tm17 2.797969 1_555
Ir0 Tm2 2.834699 1_454
Ir0 Tm13 2.834699 1_565
Ir0 Tm10 2.940461 1_565
Ir0 Tm5 2.940461 1_554
Ir0 Tm15 3.073098 1_565
Ir0 Tm3 3.073098 1_554
Ir1 Tm16 2.797969 1_555
Ir1 Tm17 2.797969 1_655
Ir1 Tm3 2.834699 1_554
Ir1 Tm12 2.834699 1_655
Ir1 Tm11 2.940461 1_555
Ir1 Tm4 2.940461 1_554
Ir1 Tm14 3.073098 1_555
Ir1 Tm2 3.073098 1_554
Ir2 Tm16 2.797969 1_555
Ir2 Tm17 2.797969 1_655
Ir2 Tm0 2.834699 1_555
Ir2 Tm15 2.834699 1_665
Ir2 Tm7 2.940461 1_555
Ir2 Tm8 2.940461 1_565
Ir2 Tm13 3.073098 1_565
Ir2 Tm1 3.073098 1_555
Ir3 Tm16 2.797969 1_555
Ir3 Tm17 2.797969 1_555
Ir3 Tm1 2.834699 1_455
Ir3 Tm14 2.834699 1_555
Ir3 Tm6 2.940461 1_555
Ir3 Tm9 2.940461 1_555
Ir3 Tm0 3.073098 1_555
Ir3 Tm12 3.073098 1_555
Ir4 Tm19 2.797969 1_555
Ir4 Tm18 2.797969 1_655
Ir4 Tm5 2.834699 1_545
Ir4 Tm10 2.834699 1_656
Ir4 Tm13 2.940461 1_556
Ir4 Tm2 2.940461 1_545
Ir4 Tm11 3.073098 1_556
Ir4 Tm7 3.073098 1_545
Ir5 Tm19 2.797969 1_555
Ir5 Tm18 2.797969 1_555
Ir5 Tm4 2.834699 1_455
Ir5 Tm11 2.834699 1_556
Ir5 Tm3 2.940461 1_555
Ir5 Tm12 2.940461 1_556
Ir5 Tm10 3.073098 1_556
Ir5 Tm6 3.073098 1_555
Ir6 Tm19 2.797969 1_555
Ir6 Tm18 2.797969 1_555
Ir6 Tm7 2.834699 1_445
Ir6 Tm8 2.834699 1_555
Ir6 Tm15 2.940461 1_555
Ir6 Tm0 2.940461 1_545
Ir6 Tm9 3.073098 1_555
Ir6 Tm5 3.073098 1_545
Ir7 Tm19 2.797969 1_555
Ir7 Tm18 2.797969 1_655
Ir7 Tm6 2.834699 1_555
Ir7 Tm9 2.834699 1_655
Ir7 Tm1 2.940461 1_555
Ir7 Tm14 2.940461 1_555
Ir7 Tm8 3.073098 1_555
Ir7 Tm4 3.073098 1_555
Ir8 Tm4 2.864671 1_455
Ir8 Tm2 2.864671 1_455
Ir8 Tm7 2.864671 1_455
Ir8 Tm1 2.864671 1_455
Ir8 Tm5 2.887849 1_555
Ir8 Tm0 2.887849 1_555
Ir8 Tm6 2.887849 1_555
Ir8 Tm3 2.887849 1_555
Ir9 Tm5 2.864671 1_555
Ir9 Tm0 2.864671 1_555
Ir9 Tm3 2.864671 1_555
Ir9 Tm6 2.864671 1_555
Ir9 Tm4 2.887849 1_555
Ir9 Tm2 2.887849 1_555
Ir9 Tm1 2.887849 1_555
Ir9 Tm7 2.887849 1_555
Ir10 Tm9 2.864671 1_655
Ir10 Tm15 2.864671 1_655
Ir10 Tm12 2.864671 1_655
Ir10 Tm10 2.864671 1_655
Ir10 Tm14 2.887849 1_555
Ir10 Tm11 2.887849 1_555
Ir10 Tm8 2.887849 1_555
Ir10 Tm13 2.887849 1_555
Ir11 Tm14 2.864671 1_555
Ir11 Tm11 2.864671 1_555
Ir11 Tm8 2.864671 1_555
Ir11 Tm13 2.864671 1_555
Ir11 Tm9 2.887849 1_555
Ir11 Tm15 2.887849 1_555
Ir11 Tm10 2.887849 1_555
Ir11 Tm12 2.887849 1_555
