# generated using pymatgen
data_Li7Mn4CoO12
_symmetry_space_group_name_H-M   'P 1'
_cell_length_a   2.97119012
_cell_length_b   15.16827192
_cell_length_c   9.91410405
_cell_angle_alpha   78.27780693
_cell_angle_beta   92.70413046
_cell_angle_gamma   92.42875432
_symmetry_Int_Tables_number   1
_chemical_formula_structural   Li7Mn4CoO12
_chemical_formula_sum   'Li14 Mn8 Co2 O24'
_cell_volume   436.75568777
_cell_formula_units_Z   2
loop_
 _symmetry_equiv_pos_site_id
 _symmetry_equiv_pos_as_xyz
  1  'x, y, z'
loop_
 _atom_site_type_symbol
 _atom_site_label
 _atom_site_symmetry_multiplicity
 _atom_site_fract_x
 _atom_site_fract_y
 _atom_site_fract_z
 _atom_site_occupancy
  Li  Li0  1  0.50000500  0.16666400  0.00000200  1
  Li  Li1  1  0.00000600  0.66666800  0.00000100  1
  Li  Li2  1  0.97956400  0.09292800  0.24077000  1
  Li  Li3  1  0.48371200  0.59295900  0.24109400  1
  Li  Li4  1  0.02042200  0.24040300  0.75923400  1
  Li  Li5  1  0.51627700  0.74037700  0.75890600  1
  Li  Li6  1  0.49625600  0.08778700  0.75581500  1
  Li  Li7  1  0.98925700  0.58864300  0.75445000  1
  Li  Li8  1  0.50375200  0.24554300  0.24419000  1
  Li  Li9  1  0.01074500  0.74469200  0.24554900  1
  Li  Li10  1  0.01013300  0.41682200  0.25392800  1
  Li  Li11  1  0.50653600  0.91659000  0.25292400  1
  Li  Li12  1  0.49344900  0.41674300  0.74707500  1
  Li  Li13  1  0.98986700  0.91651100  0.74607100  1
  Mn  Mn0  1  0.00991500  0.00491500  0.99647100  1
  Mn  Mn1  1  0.50849400  0.50513300  0.99604200  1
  Mn  Mn2  1  0.99008900  0.32841500  0.00354300  1
  Mn  Mn3  1  0.49151000  0.82819800  0.00396500  1
  Mn  Mn4  1  0.48413900  0.00023600  0.49760200  1
  Mn  Mn5  1  0.99854500  0.50275800  0.49793800  1
  Mn  Mn6  1  0.51587800  0.33309600  0.50239200  1
  Mn  Mn7  1  0.00141100  0.83058100  0.50205500  1
  Co  Co0  1  0.49997500  0.66666800  0.49999600  1
  Co  Co1  1  0.00000600  0.16666600  0.50000500  1
  O  O0  1  0.53152900  0.03332600  0.10814100  1
  O  O1  1  0.03088300  0.53335000  0.10779700  1
  O  O2  1  0.46848100  0.30000300  0.89186300  1
  O  O3  1  0.96915500  0.79998600  0.89219900  1
  O  O4  1  0.94792300  0.04699600  0.61438600  1
  O  O5  1  0.46103700  0.54941400  0.61291100  1
  O  O6  1  0.05208600  0.28633500  0.38561400  1
  O  O7  1  0.53893000  0.78392100  0.38708400  1
  O  O8  1  0.98843000  0.21850900  0.11761500  1
  O  O9  1  0.49217100  0.71822600  0.11775700  1
  O  O10  1  0.01157800  0.11482000  0.88238900  1
  O  O11  1  0.50785700  0.61510900  0.88224200  1
  O  O12  1  0.51598800  0.21215400  0.61774000  1
  O  O13  1  0.97054400  0.71075200  0.61740900  1
  O  O14  1  0.48402300  0.12118000  0.38226100  1
  O  O15  1  0.02942300  0.62258400  0.38258700  1
  O  O16  1  0.51110900  0.37495700  0.10539200  1
  O  O17  1  0.01140800  0.87470100  0.10621700  1
  O  O18  1  0.98862000  0.45863200  0.89378400  1
  O  O19  1  0.48891100  0.95837500  0.89460800  1
  O  O20  1  0.97024600  0.38210100  0.61916900  1
  O  O21  1  0.45908800  0.87990900  0.61907500  1
  O  O22  1  0.54089200  0.45342600  0.38091500  1
  O  O23  1  0.02974600  0.95123600  0.38082300  1
loop_
_geom_bond_atom_site_label_1
_geom_bond_atom_site_label_2
_geom_bond_distance
_geom_bond_site_symmetry_2
Li0 O10 2.049445 1_554
Li0 O8 2.049448 1_555
Li0 O0 2.091465 1_555
Li0 O2 2.091478 1_554
Li0 O10 2.220244 1_654
Li0 O8 2.220256 1_455
Li1 O11 2.055684 1_454
Li1 O9 2.055691 1_555
Li1 O1 2.090019 1_555
Li1 O3 2.090033 1_454
Li1 O9 2.210979 1_455
Li1 O11 2.211040 1_554
Li2 O8 2.042952 1_555
Li2 O14 2.095074 1_655
Li2 O0 2.129373 1_555
Li2 O14 2.193578 1_555
Li2 O23 2.316111 1_645
Li2 O0 2.459272 1_655
Li3 O9 2.039833 1_555
Li3 O15 2.116083 1_555
Li3 O1 2.142145 1_555
Li3 O15 2.185966 1_655
Li3 O22 2.290417 1_555
Li3 O1 2.453531 1_655
Li4 O10 2.042977 1_555
Li4 O12 2.095029 1_455
Li4 O2 2.129399 1_555
Li4 O12 2.193636 1_555
Li4 O20 2.316232 1_455
Li4 O2 2.459206 1_455
Li5 O11 2.039841 1_555
Li5 O13 2.116068 1_555
Li5 O3 2.142203 1_555
Li5 O13 2.186038 1_455
Li5 O21 2.290448 1_555
Li5 O3 2.453403 1_455
Li6 O10 2.015374 1_655
Li6 O10 2.060648 1_555
Li6 O12 2.094001 1_555
Li6 O19 2.156096 1_545
Li6 O4 2.179494 1_555
Li6 O4 2.248256 1_455
Li7 O11 2.027458 1_655
Li7 O11 2.058754 1_555
Li7 O13 2.063651 1_555
Li7 O18 2.165680 1_555
Li7 O5 2.199683 1_555
Li7 O5 2.209886 1_655
Li8 O8 2.015385 1_455
Li8 O8 2.060660 1_555
Li8 O14 2.093936 1_555
Li8 O16 2.156143 1_555
Li8 O6 2.179463 1_555
Li8 O6 2.248232 1_655
Li9 O9 2.027402 1_455
Li9 O9 2.058810 1_555
Li9 O15 2.063622 1_555
Li9 O17 2.165647 1_555
Li9 O7 2.199587 1_555
Li9 O7 2.209927 1_455
Li10 O1 2.045860 1_555
Li10 O22 2.086220 1_455
Li10 O22 2.098243 1_555
Li10 O6 2.143141 1_555
Li10 O16 2.205526 1_455
Li10 O16 2.335452 1_555
Li11 O0 2.041410 1_565
Li11 O23 2.077542 1_655
Li11 O23 2.096237 1_555
Li11 O7 2.178235 1_555
Li11 O17 2.185813 1_555
Li11 O17 2.330571 1_655
Li12 O2 2.041478 1_555
Li12 O20 2.077550 1_455
Li12 O20 2.096276 1_555
Li12 O5 2.178278 1_555
Li12 O18 2.185907 1_555
Li12 O18 2.330498 1_455
Li13 O3 2.045808 1_555
Li13 O21 2.086227 1_655
Li13 O21 2.098330 1_555
Li13 O4 2.143111 1_565
Li13 O19 2.205564 1_655
Li13 O19 2.335412 1_555
Mn0 O10 1.814399 1_555
Mn0 O0 1.946454 1_556
Mn0 O0 1.956009 1_456
Mn0 O19 1.990995 1_445
Mn0 O19 2.013481 1_545
Mn0 O17 2.052320 1_546
Mn1 O11 1.814094 1_555
Mn1 O1 1.947801 1_656
Mn1 O1 1.953721 1_556
Mn1 O18 1.990395 1_455
Mn1 O18 2.018073 1_555
Mn1 O16 2.050580 1_556
Mn2 O8 1.814368 1_555
Mn2 O2 1.946503 1_554
Mn2 O2 1.956092 1_654
Mn2 O16 1.990967 1_655
Mn2 O16 2.013376 1_555
Mn2 O18 2.052401 1_554
Mn3 O9 1.814012 1_555
Mn3 O3 1.947764 1_454
Mn3 O3 1.953841 1_554
Mn3 O17 1.990428 1_655
Mn3 O17 2.017998 1_555
Mn3 O19 2.050615 1_554
Mn4 O14 1.954649 1_555
Mn4 O23 1.957721 1_545
Mn4 O4 1.960291 1_555
Mn4 O21 1.972528 1_545
Mn4 O4 2.232795 1_455
Mn4 O23 2.269285 1_645
Mn5 O15 1.941886 1_655
Mn5 O5 1.945751 1_655
Mn5 O22 1.967889 1_555
Mn5 O20 1.975804 1_555
Mn5 O5 2.223951 1_555
Mn5 O22 2.265823 1_655
Mn6 O12 1.954652 1_555
Mn6 O20 1.957697 1_555
Mn6 O6 1.960276 1_555
Mn6 O22 1.972578 1_555
Mn6 O6 2.232747 1_655
Mn6 O20 2.269363 1_455
Mn7 O13 1.941934 1_455
Mn7 O7 1.945744 1_455
Mn7 O21 1.967887 1_555
Mn7 O23 1.975788 1_555
Mn7 O7 2.223991 1_555
Mn7 O21 2.265723 1_455
Co0 O7 1.901435 1_555
Co0 O5 1.901457 1_555
Co0 O15 1.959642 1_555
Co0 O13 1.959701 1_555
Co0 O13 2.203359 1_455
Co0 O15 2.203372 1_655
Co1 O4 1.939363 1_455
Co1 O6 1.939390 1_555
Co1 O12 2.063392 1_555
Co1 O14 2.063435 1_455
Co1 O12 2.115750 1_455
Co1 O14 2.115792 1_555
