# generated using pymatgen
data_Cs3FeSe3
_symmetry_space_group_name_H-M   'P 1'
_cell_length_a   10.92554685
_cell_length_b   10.92554685
_cell_length_c   14.08449820
_cell_angle_alpha   90.00000000
_cell_angle_beta   90.00000000
_cell_angle_gamma   139.60250280
_symmetry_Int_Tables_number   1
_chemical_formula_structural   Cs3FeSe3
_chemical_formula_sum   'Cs12 Fe4 Se12'
_cell_volume   1089.58423537
_cell_formula_units_Z   4
loop_
 _symmetry_equiv_pos_site_id
 _symmetry_equiv_pos_as_xyz
  1  'x, y, z'
loop_
 _atom_site_type_symbol
 _atom_site_label
 _atom_site_symmetry_multiplicity
 _atom_site_fract_x
 _atom_site_fract_y
 _atom_site_fract_z
 _atom_site_occupancy
  Cs  Cs0  1  0.86414785  0.86414785  0.68025670  1
  Cs  Cs1  1  0.13585215  0.13585215  0.31974330  1
  Cs  Cs2  1  0.63585215  0.63585215  0.18025670  1
  Cs  Cs3  1  0.36414785  0.36414785  0.81974330  1
  Cs  Cs4  1  0.17780282  0.52875667  0.12549860  1
  Cs  Cs5  1  0.47124333  0.82219718  0.87450140  1
  Cs  Cs6  1  0.97124333  0.32219718  0.62549860  1
  Cs  Cs7  1  0.67780282  0.02875667  0.37450140  1
  Cs  Cs8  1  0.82219718  0.47124333  0.87450140  1
  Cs  Cs9  1  0.52875667  0.17780282  0.12549860  1
  Cs  Cs10  1  0.02875667  0.67780282  0.37450140  1
  Cs  Cs11  1  0.32219718  0.97124333  0.62549860  1
  Fe  Fe0  1  0.91957498  0.08042502  0.00000000  1
  Fe  Fe1  1  0.41957498  0.58042502  0.50000000  1
  Fe  Fe2  1  0.08042502  0.91957498  0.00000000  1
  Fe  Fe3  1  0.58042502  0.41957498  0.50000000  1
  Se  Se0  1  0.28903013  0.28903013  0.56600598  1
  Se  Se1  1  0.71096987  0.71096987  0.43399402  1
  Se  Se2  1  0.21096987  0.21096987  0.06600598  1
  Se  Se3  1  0.78903013  0.78903013  0.93399402  1
  Se  Se4  1  0.71672510  0.00876713  0.11802026  1
  Se  Se5  1  0.99123287  0.28327490  0.88197974  1
  Se  Se6  1  0.49123287  0.78327490  0.61802026  1
  Se  Se7  1  0.21672510  0.50876713  0.38197974  1
  Se  Se8  1  0.28327490  0.99123287  0.88197974  1
  Se  Se9  1  0.00876713  0.71672510  0.11802026  1
  Se  Se10  1  0.50876713  0.21672510  0.38197974  1
  Se  Se11  1  0.78327490  0.49123287  0.61802026  1
loop_
_geom_bond_atom_site_label_1
_geom_bond_atom_site_label_2
_geom_bond_distance
_geom_bond_site_symmetry_2
Cs0 Se11 3.558900 1_555
Cs0 Se6 3.558900 1_555
Cs0 Se0 3.586827 1_665
Cs0 Se3 3.618422 1_555
Cs0 Se1 3.655954 1_555
Cs1 Se10 3.558900 1_555
Cs1 Se7 3.558900 1_555
Cs1 Se1 3.586827 1_445
Cs1 Se2 3.618422 1_555
Cs1 Se0 3.655954 1_555
Cs2 Se4 3.558900 1_565
Cs2 Se9 3.558900 1_655
Cs2 Se2 3.586827 1_555
Cs2 Se1 3.618422 1_555
Cs2 Se3 3.655954 1_554
Cs3 Se8 3.558900 1_545
Cs3 Se5 3.558900 1_455
Cs3 Se3 3.586827 1_555
Cs3 Se0 3.618422 1_555
Cs3 Se2 3.655954 1_556
Cs4 Se9 3.662800 1_555
Cs4 Se7 3.663261 1_555
Cs4 Se4 3.751379 1_455
Cs4 Se5 3.845141 1_454
Cs4 Se2 3.847660 1_555
Cs4 Se4 3.892369 1_565
Cs5 Se8 3.662800 1_555
Cs5 Se6 3.663261 1_555
Cs5 Se5 3.751379 1_565
Cs5 Se4 3.845141 1_566
Cs5 Se3 3.847660 1_555
Cs5 Se5 3.892369 1_455
Cs6 Se11 3.662800 1_555
Cs6 Se5 3.663261 1_555
Cs6 Se6 3.751379 1_655
Cs6 Se7 3.845141 1_655
Cs6 Se0 3.847660 1_655
Cs6 Se6 3.892369 1_545
Cs7 Se10 3.662800 1_555
Cs7 Se4 3.663261 1_555
Cs7 Se7 3.751379 1_545
Cs7 Se6 3.845141 1_545
Cs7 Se1 3.847660 1_545
Cs7 Se7 3.892369 1_655
Cs8 Se5 3.662800 1_555
Cs8 Se11 3.663261 1_555
Cs8 Se8 3.751379 1_655
Cs8 Se9 3.845141 1_656
Cs8 Se3 3.847660 1_555
Cs8 Se8 3.892369 1_545
Cs9 Se4 3.662800 1_555
Cs9 Se10 3.663261 1_555
Cs9 Se9 3.751379 1_545
Cs9 Se8 3.845141 1_544
Cs9 Se2 3.847660 1_555
Cs9 Se9 3.892369 1_655
Cs10 Se7 3.662800 1_555
Cs10 Se9 3.663261 1_555
Cs10 Se10 3.751379 1_455
Cs10 Se11 3.845141 1_455
Cs10 Se1 3.847660 1_455
Cs10 Se10 3.892369 1_565
Cs11 Se6 3.662800 1_555
Cs11 Se8 3.663261 1_555
Cs11 Se11 3.751379 1_565
Cs11 Se10 3.845141 1_565
Cs11 Se0 3.847660 1_565
Cs11 Se11 3.892369 1_455
Fe0 Se5 2.375917 1_554
Fe0 Se4 2.375917 1_555
Fe0 Se2 2.473453 1_655
Fe0 Se3 2.473453 1_544
Fe1 Se7 2.375917 1_555
Fe1 Se6 2.375917 1_555
Fe1 Se1 2.473453 1_555
Fe1 Se0 2.473453 1_555
Fe2 Se8 2.375917 1_554
Fe2 Se9 2.375917 1_555
Fe2 Se2 2.473453 1_565
Fe2 Se3 2.473453 1_454
Fe3 Se10 2.375917 1_555
Fe3 Se11 2.375917 1_555
Fe3 Se1 2.473453 1_555
Fe3 Se0 2.473453 1_555
