# generated using pymatgen
data_CaVSi4(H2O5)3
_symmetry_space_group_name_H-M   'P 1'
_cell_length_a   8.84761102
_cell_length_b   8.84761102
_cell_length_c   9.00369400
_cell_angle_alpha   90.00000000
_cell_angle_beta   90.00000000
_cell_angle_gamma   107.79001629
_symmetry_Int_Tables_number   1
_chemical_formula_structural   CaVSi4(H2O5)3
_chemical_formula_sum   'Ca2 V2 Si8 H12 O30'
_cell_volume   671.10894974
_cell_formula_units_Z   2
loop_
 _symmetry_equiv_pos_site_id
 _symmetry_equiv_pos_as_xyz
  1  'x, y, z'
loop_
 _atom_site_type_symbol
 _atom_site_label
 _atom_site_symmetry_multiplicity
 _atom_site_fract_x
 _atom_site_fract_y
 _atom_site_fract_z
 _atom_site_occupancy
  Ca  Ca0  1  0.24680700  0.24680700  0.74046700  1
  Ca  Ca1  1  0.75319300  0.75319300  0.24046700  1
  V  V0  1  0.95366700  0.95366700  0.57275200  1
  V  V1  1  0.04633300  0.04633300  0.07275200  1
  Si  Si0  1  0.30542800  0.89589400  0.60902000  1
  Si  Si1  1  0.89589400  0.30542800  0.60902000  1
  Si  Si2  1  0.69457200  0.10410600  0.10902000  1
  Si  Si3  1  0.10410600  0.69457200  0.10902000  1
  Si  Si4  1  0.35735100  0.94737900  0.95257700  1
  Si  Si5  1  0.94737900  0.35735100  0.95257700  1
  Si  Si6  1  0.64264900  0.05262100  0.45257700  1
  Si  Si7  1  0.05262100  0.64264900  0.45257700  1
  H  H0  1  0.56218200  0.41493300  0.75892600  1
  H  H1  1  0.41493300  0.56218200  0.75892600  1
  H  H2  1  0.43781800  0.58506700  0.25892600  1
  H  H3  1  0.58506700  0.43781800  0.25892600  1
  H  H4  1  0.57807600  0.25035700  0.70308000  1
  H  H5  1  0.25035700  0.57807600  0.70308000  1
  H  H6  1  0.42192400  0.74964300  0.20308000  1
  H  H7  1  0.74964300  0.42192400  0.20308000  1
  H  H8  1  0.64433300  0.64433300  0.88269300  1
  H  H9  1  0.35566700  0.35566700  0.38269300  1
  H  H10  1  0.65793300  0.65793300  0.67370600  1
  H  H11  1  0.34206700  0.34206700  0.17370600  1
  O  O0  1  0.17815200  0.99634000  0.59637500  1
  O  O1  1  0.99634000  0.17815200  0.59637500  1
  O  O2  1  0.82184800  0.00366000  0.09637500  1
  O  O3  1  0.00366000  0.82184800  0.09637500  1
  O  O4  1  0.23593100  0.05535100  0.96309900  1
  O  O5  1  0.05535100  0.23593100  0.96309900  1
  O  O6  1  0.76406900  0.94464900  0.46309900  1
  O  O7  1  0.94464900  0.76406900  0.46309900  1
  O  O8  1  0.46197800  0.96775700  0.50721100  1
  O  O9  1  0.96775700  0.46197800  0.50721100  1
  O  O10  1  0.53802200  0.03224400  0.00721100  1
  O  O11  1  0.03224300  0.53802200  0.00721100  1
  O  O12  1  0.21124700  0.71316800  0.55778900  1
  O  O13  1  0.71316800  0.21124700  0.55778900  1
  O  O14  1  0.78875300  0.28683200  0.05778900  1
  O  O15  1  0.28683200  0.78875300  0.05778900  1
  O  O16  1  0.36459200  0.89511500  0.77994000  1
  O  O17  1  0.89511500  0.36459200  0.77994000  1
  O  O18  1  0.63540800  0.10488500  0.27994000  1
  O  O19  1  0.10488500  0.63540800  0.27994000  1
  O  O20  1  0.89078300  0.89078300  0.73592900  1
  O  O21  1  0.10921700  0.10921700  0.23592900  1
  O  O22  1  0.51625400  0.29317700  0.77244300  1
  O  O23  1  0.29317700  0.51625400  0.77244300  1
  O  O24  1  0.48374600  0.70682300  0.27244300  1
  O  O25  1  0.70682300  0.48374600  0.27244300  1
  O  O26  1  0.59516100  0.59516100  0.75334500  1
  O  O27  1  0.40483900  0.40483900  0.25334500  1
  O  O28  1  0.32981100  0.32981100  0.50620900  1
  O  O29  1  0.67018900  0.67018900  0.00620900  1
loop_
_geom_bond_atom_site_label_1
_geom_bond_atom_site_label_2
_geom_bond_distance
_geom_bond_site_symmetry_2
Ca0 O28 2.279860 1_555
Ca0 O22 2.310158 1_555
Ca0 O23 2.310158 1_555
Ca0 O0 2.477980 1_545
Ca0 O1 2.477980 1_455
Ca0 O5 2.607127 1_555
Ca0 O4 2.607127 1_555
Ca1 O29 2.279860 1_555
Ca1 O24 2.310158 1_555
Ca1 O25 2.310158 1_555
Ca1 O2 2.477980 1_565
Ca1 O3 2.477980 1_655
Ca1 O7 2.607127 1_555
Ca1 O6 2.607127 1_555
H0 O22 1.035816 1_555
H0 O26 1.531685 1_555
H1 O23 1.035816 1_555
H1 O26 1.531685 1_555
H2 O24 1.035816 1_555
H2 O27 1.531685 1_555
H3 O25 1.035816 1_555
H3 O27 1.531685 1_555
H4 O22 0.979475 1_555
H5 O23 0.979475 1_555
H6 O24 0.979475 1_555
H7 O25 0.979475 1_555
H8 O29 1.144314 1_556
H8 O26 1.272480 1_555
H9 O28 1.144314 1_555
H9 O27 1.272480 1_555
H10 O26 0.970861 1_555
H11 O27 0.970861 1_555
O0 Si0 1.637792 1_555
O0 V0 1.916867 1_455
O1 Si1 1.637792 1_555
O1 V0 1.916867 1_545
O2 Si2 1.637792 1_555
O2 V1 1.916867 1_655
O3 Si3 1.637792 1_555
O3 V1 1.916867 1_565
O4 Si4 1.643999 1_545
O4 V1 1.926986 1_556
O5 Si5 1.643999 1_455
O5 V1 1.926986 1_556
O6 Si6 1.643999 1_565
O6 V0 1.926986 1_555
O7 Si7 1.643999 1_655
O7 V0 1.926986 1_555
O8 Si0 1.620145 1_555
O8 Si6 1.620973 1_565
O9 Si1 1.620145 1_555
O9 Si7 1.620973 1_655
O10 Si2 1.620143 1_555
O10 Si4 1.620974 1_544
O11 Si3 1.620145 1_555
O11 Si5 1.620973 1_454
O12 Si0 1.642441 1_555
O12 Si7 1.649630 1_555
O13 Si1 1.642441 1_555
O13 Si6 1.649630 1_555
O14 Si2 1.642441 1_555
O14 Si5 1.649630 1_554
O15 Si3 1.642441 1_555
O15 Si4 1.649630 1_554
O16 Si0 1.626195 1_555
O16 Si4 1.628527 1_555
O17 Si1 1.626195 1_555
O17 Si5 1.628527 1_555
O18 Si2 1.626195 1_555
O18 Si6 1.628527 1_555
O19 Si3 1.626195 1_555
O19 Si7 1.628527 1_555
O20 V0 1.608877 1_555
O21 V1 1.608877 1_555
