# generated using pymatgen
data_Fe3Sn
_symmetry_space_group_name_H-M   'P 1'
_cell_length_a   3.18694200
_cell_length_b   3.18694200
_cell_length_c   5.63582800
_cell_angle_alpha   90.00000000
_cell_angle_beta   90.00000000
_cell_angle_gamma   90.00000000
_symmetry_Int_Tables_number   1
_chemical_formula_structural   Fe3Sn
_chemical_formula_sum   'Fe3 Sn1'
_cell_volume   57.24084678
_cell_formula_units_Z   1
loop_
 _symmetry_equiv_pos_site_id
 _symmetry_equiv_pos_as_xyz
  1  'x, y, z'
loop_
 _atom_site_type_symbol
 _atom_site_label
 _atom_site_symmetry_multiplicity
 _atom_site_fract_x
 _atom_site_fract_y
 _atom_site_fract_z
 _atom_site_occupancy
  Fe  Fe0  1  0.50000000  0.50000000  0.21434100  1
  Fe  Fe1  1  0.50000000  0.50000000  0.78565900  1
  Fe  Fe2  1  0.00000000  0.00000000  0.00000000  1
  Sn  Sn0  1  0.00000000  0.00000000  0.50000000  1
loop_
_geom_bond_atom_site_label_1
_geom_bond_atom_site_label_2
_geom_bond_distance
_geom_bond_site_symmetry_2
Fe0 Fe1 2.415978 1_554
Fe0 Fe2 2.556861 1_555
Fe0 Fe2 2.556861 1_655
Fe0 Fe2 2.556861 1_565
Fe0 Fe2 2.556861 1_665
Fe0 Sn0 2.769505 1_565
Fe0 Sn0 2.769505 1_555
Fe0 Sn0 2.769505 1_655
Fe0 Sn0 2.769505 1_665
Fe1 Fe2 2.556861 1_556
Fe1 Fe2 2.556861 1_656
Fe1 Fe2 2.556861 1_566
Fe1 Fe2 2.556861 1_666
Fe1 Sn0 2.769505 1_565
Fe1 Sn0 2.769505 1_555
Fe1 Sn0 2.769505 1_655
Fe1 Sn0 2.769505 1_665
Fe2 Sn0 2.817914 1_554
Fe2 Sn0 2.817914 1_555
