# generated using pymatgen
data_Sm3(SiNi3)2
_symmetry_space_group_name_H-M   'P 1'
_cell_length_a   7.67917370
_cell_length_b   7.67917370
_cell_length_c   7.67917370
_cell_angle_alpha   109.47122063
_cell_angle_beta   109.47122063
_cell_angle_gamma   109.47122063
_symmetry_Int_Tables_number   1
_chemical_formula_structural   Sm3(SiNi3)2
_chemical_formula_sum   'Sm6 Si4 Ni12'
_cell_volume   348.59534405
_cell_formula_units_Z   2
loop_
 _symmetry_equiv_pos_site_id
 _symmetry_equiv_pos_as_xyz
  1  'x, y, z'
loop_
 _atom_site_type_symbol
 _atom_site_label
 _atom_site_symmetry_multiplicity
 _atom_site_fract_x
 _atom_site_fract_y
 _atom_site_fract_z
 _atom_site_occupancy
  Sm  Sm0  1  0.71454300  0.71454300  0.00000000  1
  Sm  Sm1  1  0.28545700  0.00000000  0.28545700  1
  Sm  Sm2  1  0.00000000  0.28545700  0.28545700  1
  Sm  Sm3  1  0.28545700  0.28545700  0.00000000  1
  Sm  Sm4  1  0.71454300  0.00000000  0.71454300  1
  Sm  Sm5  1  0.00000000  0.71454300  0.71454300  1
  Si  Si0  1  0.00000000  0.00000000  0.50000000  1
  Si  Si1  1  0.00000000  0.50000000  0.00000000  1
  Si  Si2  1  0.50000000  0.00000000  0.00000000  1
  Si  Si3  1  0.50000000  0.50000000  0.50000000  1
  Ni  Ni0  1  0.33083500  0.33083500  0.66166900  1
  Ni  Ni1  1  0.66916500  0.00000000  0.33083500  1
  Ni  Ni2  1  0.00000000  0.66916500  0.33083500  1
  Ni  Ni3  1  0.66916500  0.33083500  0.00000000  1
  Ni  Ni4  1  0.33083500  0.66166900  0.33083500  1
  Ni  Ni5  1  0.00000000  0.33083500  0.66916500  1
  Ni  Ni6  1  0.33083500  0.66916500  0.00000000  1
  Ni  Ni7  1  0.33083500  0.00000000  0.66916500  1
  Ni  Ni8  1  0.66166900  0.33083500  0.33083500  1
  Ni  Ni9  1  0.66916500  0.66916500  0.33833100  1
  Ni  Ni10  1  0.66916500  0.33833000  0.66916500  1
  Ni  Ni11  1  0.33833000  0.66916500  0.66916500  1
loop_
_geom_bond_atom_site_label_1
_geom_bond_atom_site_label_2
_geom_bond_distance
_geom_bond_site_symmetry_2
Si0 Sm2 3.150735 1_555
Si0 Sm1 3.150735 1_555
Si0 Sm3 3.150735 1_556
Si0 Sm5 3.150735 1_545
Si0 Sm0 3.150735 1_445
Si0 Sm4 3.150735 1_455
Si1 Sm2 3.150735 1_555
Si1 Sm3 3.150735 1_555
Si1 Sm1 3.150735 1_565
Si1 Sm4 3.150735 1_454
Si1 Sm5 3.150735 1_554
Si1 Sm0 3.150735 1_455
Si2 Sm1 3.150735 1_555
Si2 Sm2 3.150735 1_655
Si2 Sm3 3.150735 1_555
Si2 Sm5 3.150735 1_544
Si2 Sm4 3.150735 1_554
Si2 Sm0 3.150735 1_545
Si3 Sm2 3.150735 1_555
Si3 Sm1 3.150735 1_555
Si3 Sm3 3.150735 1_555
Si3 Sm5 3.150735 1_655
Si3 Sm0 3.150735 1_556
Si3 Sm4 3.150735 1_565
Ni0 Si3 2.437549 1_555
Ni0 Si0 2.437557 1_555
Ni0 Ni10 2.560297 1_555
Ni0 Ni11 2.560297 1_555
Ni0 Ni7 2.560302 1_555
Ni0 Ni5 2.560302 1_555
Ni0 Sm0 2.849410 1_556
Ni0 Sm3 2.849416 1_556
Ni0 Sm2 2.961024 1_555
Ni0 Sm1 2.961024 1_555
Ni1 Si0 2.437556 1_655
Ni1 Si2 2.437556 1_555
Ni1 Ni6 2.560300 1_545
Ni1 Ni5 2.560300 1_655
Ni1 Ni9 2.560302 1_545
Ni1 Ni8 2.560302 1_555
Ni1 Sm4 2.849409 1_555
Ni1 Sm1 2.849409 1_555
Ni1 Sm0 2.961029 1_545
Ni1 Sm2 2.961029 1_655
Ni2 Si1 2.437556 1_555
Ni2 Si0 2.437556 1_565
Ni2 Ni3 2.560300 1_455
Ni2 Ni7 2.560300 1_565
Ni2 Ni9 2.560302 1_455
Ni2 Ni4 2.560302 1_555
Ni2 Sm5 2.849409 1_555
Ni2 Sm2 2.849409 1_555
Ni2 Sm0 2.961029 1_455
Ni2 Sm1 2.961029 1_565
Ni3 Si2 2.437556 1_555
Ni3 Si1 2.437556 1_655
Ni3 Ni7 2.560300 1_554
Ni3 Ni8 2.560302 1_555
Ni3 Sm0 2.849409 1_555
Ni3 Sm3 2.849409 1_555
Ni3 Sm4 2.961029 1_554
Ni3 Sm2 2.961029 1_655
Ni4 Si3 2.437549 1_555
Ni4 Si1 2.437557 1_555
Ni4 Ni9 2.560295 1_555
Ni4 Ni6 2.560302 1_555
Ni4 Sm4 2.849410 1_565
Ni4 Sm1 2.849416 1_565
Ni4 Sm2 2.961024 1_555
Ni4 Sm3 2.961024 1_555
Ni5 Si0 2.437556 1_555
Ni5 Si1 2.437556 1_556
Ni5 Ni6 2.560300 1_556
Ni5 Sm5 2.849409 1_555
Ni5 Sm2 2.849409 1_555
Ni5 Sm4 2.961029 1_455
Ni5 Sm3 2.961029 1_556
Ni6 Si2 2.437556 1_565
Ni6 Si1 2.437556 1_555
Ni6 Sm0 2.849409 1_555
Ni6 Sm3 2.849409 1_555
Ni6 Sm5 2.961029 1_554
Ni6 Sm1 2.961029 1_565
Ni7 Si0 2.437556 1_555
Ni7 Si2 2.437556 1_556
Ni7 Sm4 2.849409 1_555
Ni7 Sm1 2.849409 1_555
Ni7 Sm5 2.961029 1_545
Ni7 Sm3 2.961029 1_556
Ni8 Si3 2.437549 1_555
Ni8 Si2 2.437557 1_555
Ni8 Ni9 2.560295 1_555
Ni8 Sm5 2.849410 1_655
Ni8 Sm2 2.849416 1_655
Ni8 Sm1 2.961024 1_555
Ni8 Sm3 2.961024 1_555
Ni9 Si3 2.437549 1_555
Ni9 Si0 2.437557 1_665
Ni9 Sm3 2.849410 1_555
Ni9 Sm0 2.849416 1_555
Ni9 Sm5 2.961024 1_655
Ni9 Sm4 2.961024 1_565
Ni10 Si3 2.437556 1_555
Ni10 Si1 2.437556 1_656
Ni10 Ni8 2.560297 1_555
Ni10 Ni3 2.560300 1_556
Ni10 Ni5 2.560300 1_655
Ni10 Sm4 2.849409 1_555
Ni10 Sm1 2.849409 1_555
Ni10 Sm5 2.961029 1_655
Ni10 Sm0 2.961029 1_556
Ni11 Si3 2.437556 1_555
Ni11 Si2 2.437556 1_566
Ni11 Ni4 2.560297 1_555
Ni11 Ni6 2.560300 1_556
Ni11 Ni7 2.560300 1_565
Ni11 Sm5 2.849409 1_555
Ni11 Sm2 2.849409 1_555
Ni11 Sm0 2.961029 1_556
Ni11 Sm4 2.961029 1_565
