# generated using pymatgen
data_La2MgS4
_symmetry_space_group_name_H-M   'P 1'
_cell_length_a   7.77313141
_cell_length_b   9.06138367
_cell_length_c   11.97803270
_cell_angle_alpha   78.88309158
_cell_angle_beta   82.98438206
_cell_angle_gamma   90.38030735
_symmetry_Int_Tables_number   1
_chemical_formula_structural   La2MgS4
_chemical_formula_sum   'La8 Mg4 S16'
_cell_volume   821.25274177
_cell_formula_units_Z   4
loop_
 _symmetry_equiv_pos_site_id
 _symmetry_equiv_pos_as_xyz
  1  'x, y, z'
loop_
 _atom_site_type_symbol
 _atom_site_label
 _atom_site_symmetry_multiplicity
 _atom_site_fract_x
 _atom_site_fract_y
 _atom_site_fract_z
 _atom_site_occupancy
  La  La0  1  0.13368600  0.70366100  0.65990900  1
  La  La1  1  0.86631400  0.29633900  0.34009100  1
  La  La2  1  0.24758100  0.86600000  0.99933100  1
  La  La3  1  0.75241900  0.13400000  0.00066900  1
  La  La4  1  0.36713000  0.55076100  0.33734600  1
  La  La5  1  0.63287000  0.44923900  0.66265400  1
  La  La6  1  0.35843400  0.03084700  0.34256300  1
  La  La7  1  0.64156600  0.96915300  0.65743700  1
  Mg  Mg0  1  0.14221600  0.20550600  0.68586500  1
  Mg  Mg1  1  0.85778400  0.79449400  0.31413500  1
  Mg  Mg2  1  0.24720100  0.37645600  0.98973900  1
  Mg  Mg3  1  0.75279900  0.62354400  0.01026100  1
  S  S0  1  0.09481300  0.63923100  0.89202400  1
  S  S1  1  0.90518700  0.36076900  0.10797600  1
  S  S2  1  0.11824200  0.16664000  0.89226000  1
  S  S3  1  0.88175800  0.83336000  0.10774000  1
  S  S4  1  0.14696300  0.77596000  0.38546200  1
  S  S5  1  0.85303700  0.22404000  0.61453800  1
  S  S6  1  0.19846600  0.27894400  0.38598400  1
  S  S7  1  0.80153400  0.72105600  0.61401600  1
  S  S8  1  0.29650100  0.98913000  0.61815700  1
  S  S9  1  0.70349900  0.01087000  0.38184300  1
  S  S10  1  0.29912100  0.45137000  0.60373100  1
  S  S11  1  0.70087900  0.54863000  0.39626900  1
  S  S12  1  0.38932500  0.09966600  0.11003600  1
  S  S13  1  0.61067500  0.90033400  0.88996400  1
  S  S14  1  0.40839300  0.58849900  0.10526700  1
  S  S15  1  0.59160700  0.41150100  0.89473300  1
loop_
_geom_bond_atom_site_label_1
_geom_bond_atom_site_label_2
_geom_bond_distance
_geom_bond_site_symmetry_2
La0 S7 2.704019 1_455
La0 S0 2.707141 1_555
La0 S10 2.784528 1_555
La0 S8 2.801093 1_555
La0 S4 3.214367 1_555
La1 S6 2.704019 1_655
La1 S1 2.707141 1_555
La1 S11 2.784528 1_555
La1 S9 2.801093 1_555
La1 S5 3.214367 1_555
La2 S0 2.939983 1_555
La2 S14 2.948619 1_556
La2 S13 2.950713 1_555
La2 S3 2.966208 1_456
La2 S12 2.977254 1_566
La2 S2 3.013462 1_565
La3 S1 2.939983 1_555
La3 S15 2.948619 1_554
La3 S12 2.950713 1_555
La3 S2 2.966208 1_654
La3 S13 2.977254 1_544
La3 S3 3.013462 1_545
La4 S6 2.709616 1_555
La4 S14 2.713217 1_555
La4 S11 2.769738 1_555
La4 S4 2.772013 1_555
La4 S10 3.121708 1_555
La5 S7 2.709616 1_555
La5 S15 2.713217 1_555
La5 S10 2.769738 1_555
La5 S5 2.772013 1_555
La5 S11 3.121708 1_555
La6 S6 2.683403 1_555
La6 S12 2.714559 1_555
La6 S4 2.754285 1_545
La6 S9 2.780360 1_555
La6 S8 3.224891 1_545
La7 S7 2.683403 1_555
La7 S13 2.714559 1_555
La7 S5 2.754285 1_565
La7 S8 2.780360 1_555
La7 S9 3.224891 1_565
Mg0 S2 2.412758 1_555
Mg0 S5 2.495929 1_455
Mg0 S10 2.498882 1_555
Mg0 S8 2.519329 1_545
Mg1 S3 2.412758 1_555
Mg1 S4 2.495929 1_655
Mg1 S11 2.498882 1_555
Mg1 S9 2.519329 1_565
Mg2 S2 2.664478 1_555
Mg2 S15 2.769105 1_555
Mg2 S0 2.782823 1_555
Mg2 S1 2.844521 1_456
Mg2 S14 2.931468 1_556
Mg2 S12 2.935864 1_556
Mg3 S3 2.664478 1_555
Mg3 S14 2.769105 1_555
Mg3 S1 2.782823 1_555
Mg3 S0 2.844521 1_654
Mg3 S15 2.931468 1_554
Mg3 S13 2.935864 1_554
