# generated using pymatgen
data_KHgH2Cl3O
_symmetry_space_group_name_H-M   'P 1'
_cell_length_a   4.28996200
_cell_length_b   8.75665700
_cell_length_c   18.22914000
_cell_angle_alpha   90.00000000
_cell_angle_beta   90.00000000
_cell_angle_gamma   90.00000000
_symmetry_Int_Tables_number   1
_chemical_formula_structural   KHgH2Cl3O
_chemical_formula_sum   'K4 Hg4 H8 Cl12 O4'
_cell_volume   684.79087439
_cell_formula_units_Z   4
loop_
 _symmetry_equiv_pos_site_id
 _symmetry_equiv_pos_as_xyz
  1  'x, y, z'
loop_
 _atom_site_type_symbol
 _atom_site_label
 _atom_site_symmetry_multiplicity
 _atom_site_fract_x
 _atom_site_fract_y
 _atom_site_fract_z
 _atom_site_occupancy
  K  K0  1  0.25000000  0.90241600  0.19080400  1
  K  K1  1  0.75000000  0.09758400  0.80919600  1
  K  K2  1  0.75000000  0.59758400  0.69080400  1
  K  K3  1  0.25000000  0.40241600  0.30919600  1
  Hg  Hg0  1  0.25000000  0.54620700  0.90520800  1
  Hg  Hg1  1  0.75000000  0.45379300  0.09479200  1
  Hg  Hg2  1  0.75000000  0.95379300  0.40520800  1
  Hg  Hg3  1  0.25000000  0.04620700  0.59479200  1
  H  H0  1  0.25000000  0.60188600  0.54425300  1
  H  H1  1  0.75000000  0.39811400  0.45574700  1
  H  H2  1  0.75000000  0.89811400  0.04425300  1
  H  H3  1  0.25000000  0.10188600  0.95574700  1
  H  H4  1  0.25000000  0.93291100  0.92900800  1
  H  H5  1  0.75000000  0.06708900  0.07099200  1
  H  H6  1  0.75000000  0.56708900  0.42900800  1
  H  H7  1  0.25000000  0.43291100  0.57099200  1
  Cl  Cl0  1  0.25000000  0.65965600  0.03401300  1
  Cl  Cl1  1  0.75000000  0.34034400  0.96598700  1
  Cl  Cl2  1  0.75000000  0.84034400  0.53401300  1
  Cl  Cl3  1  0.25000000  0.15965600  0.46598700  1
  Cl  Cl4  1  0.25000000  0.89221500  0.70966900  1
  Cl  Cl5  1  0.75000000  0.10778500  0.29033100  1
  Cl  Cl6  1  0.75000000  0.60778500  0.20966900  1
  Cl  Cl7  1  0.25000000  0.39221500  0.79033100  1
  Cl  Cl8  1  0.25000000  0.77056800  0.36846800  1
  Cl  Cl9  1  0.75000000  0.22943200  0.63153200  1
  Cl  Cl10  1  0.75000000  0.72943200  0.86846800  1
  Cl  Cl11  1  0.25000000  0.27056800  0.13153200  1
  O  O0  1  0.25000000  0.53837400  0.58827600  1
  O  O1  1  0.75000000  0.46162600  0.41172400  1
  O  O2  1  0.75000000  0.96162600  0.08827600  1
  O  O3  1  0.25000000  0.03837400  0.91172400  1
loop_
_geom_bond_atom_site_label_1
_geom_bond_atom_site_label_2
_geom_bond_distance
_geom_bond_site_symmetry_2
K0 O2 2.891871 1_555
K0 O2 2.891871 1_455
K1 O3 2.891871 1_655
K1 O3 2.891871 1_555
K2 O0 2.891871 1_655
K2 O0 2.891871 1_555
K3 O1 2.891871 1_555
K3 O1 2.891871 1_455
H0 O0 0.976378 1_555
H1 O1 0.976378 1_555
H2 O2 0.976378 1_555
H3 O3 0.976378 1_555
H4 O3 0.975771 1_565
H5 O2 0.975771 1_545
H6 O1 0.975771 1_555
H7 O0 0.975771 1_555
Cl0 Hg0 2.549517 1_554
Cl0 Hg1 3.012992 1_455
Cl0 Hg1 3.012992 1_555
Cl0 K0 3.562020 1_555
Cl1 Hg1 2.549517 1_556
Cl1 Hg0 3.012992 1_655
Cl1 Hg0 3.012992 1_555
Cl1 K1 3.562020 1_555
Cl2 Hg2 2.549517 1_555
Cl2 Hg3 3.012992 1_565
Cl2 Hg3 3.012992 1_665
Cl2 K2 3.562020 1_555
Cl3 Hg3 2.549517 1_555
Cl3 Hg2 3.012992 1_445
Cl3 Hg2 3.012992 1_545
Cl3 K3 3.562020 1_555
Cl4 Hg3 2.490707 1_565
Cl4 K1 3.335663 1_465
Cl4 K1 3.335663 1_565
Cl4 K2 3.372761 1_455
Cl4 K2 3.372761 1_555
Cl5 Hg2 2.490707 1_545
Cl5 K0 3.335663 1_545
Cl5 K0 3.335663 1_645
Cl5 K3 3.372761 1_555
Cl5 K3 3.372761 1_655
Cl6 Hg1 2.490707 1_555
Cl6 K3 3.335663 1_555
Cl6 K3 3.335663 1_655
Cl6 K0 3.372761 1_555
Cl6 K0 3.372761 1_655
Cl7 Hg0 2.490707 1_555
Cl7 K2 3.335663 1_455
Cl7 K2 3.335663 1_555
Cl7 K1 3.372761 1_455
Cl7 K1 3.372761 1_555
Cl8 Hg2 2.761108 1_455
Cl8 Hg2 2.761108 1_555
Cl8 K3 3.400029 1_555
Cl8 K0 3.438301 1_555
Cl9 Hg3 2.761108 1_555
Cl9 Hg3 2.761108 1_655
Cl9 K2 3.400029 1_555
Cl9 K1 3.438301 1_555
Cl10 Hg0 2.761108 1_655
Cl10 Hg0 2.761108 1_555
Cl10 K1 3.400029 1_565
Cl10 K2 3.438301 1_555
Cl11 Hg1 2.761108 1_555
Cl11 Hg1 2.761108 1_455
Cl11 K0 3.400029 1_545
Cl11 K3 3.438301 1_555
