# generated using pymatgen
data_RbSi
_symmetry_space_group_name_H-M   'P 1'
_cell_length_a   13.09925557
_cell_length_b   13.09925557
_cell_length_c   13.09925557
_cell_angle_alpha   90.00000000
_cell_angle_beta   90.00000000
_cell_angle_gamma   90.00000000
_symmetry_Int_Tables_number   1
_chemical_formula_structural   RbSi
_chemical_formula_sum   'Rb32 Si32'
_cell_volume   2247.70776688
_cell_formula_units_Z   32
loop_
 _symmetry_equiv_pos_site_id
 _symmetry_equiv_pos_as_xyz
  1  'x, y, z'
loop_
 _atom_site_type_symbol
 _atom_site_label
 _atom_site_symmetry_multiplicity
 _atom_site_fract_x
 _atom_site_fract_y
 _atom_site_fract_z
 _atom_site_occupancy
  Rb  Rb0  1  0.06511920  0.33637415  0.14073226  1
  Rb  Rb1  1  0.83637515  0.43488080  0.35926774  1
  Rb  Rb2  1  0.56511920  0.64073226  0.83637515  1
  Rb  Rb3  1  0.43488080  0.64073226  0.16362485  1
  Rb  Rb4  1  0.64073226  0.83637515  0.56511920  1
  Rb  Rb5  1  0.35926774  0.16362485  0.56511920  1
  Rb  Rb6  1  0.66362485  0.85926774  0.06511920  1
  Rb  Rb7  1  0.66362485  0.14073226  0.93488080  1
  Rb  Rb8  1  0.33637415  0.85926774  0.93488080  1
  Rb  Rb9  1  0.14073226  0.93488080  0.66362485  1
  Rb  Rb10  1  0.93488080  0.33637415  0.85926774  1
  Rb  Rb11  1  0.93488080  0.66362485  0.14073226  1
  Rb  Rb12  1  0.85926774  0.06511920  0.66362485  1
  Rb  Rb13  1  0.06511920  0.66362485  0.85926774  1
  Rb  Rb14  1  0.85926774  0.93488080  0.33637415  1
  Rb  Rb15  1  0.14073226  0.06511920  0.33637415  1
  Rb  Rb16  1  0.83637515  0.56511920  0.64073226  1
  Rb  Rb17  1  0.35926774  0.83637515  0.43488080  1
  Rb  Rb18  1  0.64073226  0.16362485  0.43488080  1
  Rb  Rb19  1  0.56511920  0.35926774  0.16362485  1
  Rb  Rb20  1  0.43488080  0.35926774  0.83637515  1
  Rb  Rb21  1  0.16362485  0.43488080  0.64073226  1
  Rb  Rb22  1  0.16362485  0.56511920  0.35926774  1
  Rb  Rb23  1  0.33637415  0.14073226  0.06511920  1
  Rb  Rb24  1  0.83323416  0.83323416  0.83323416  1
  Rb  Rb25  1  0.66676584  0.33323416  0.66676584  1
  Rb  Rb26  1  0.33323416  0.66676584  0.66676584  1
  Rb  Rb27  1  0.66676584  0.66676584  0.33323416  1
  Rb  Rb28  1  0.83323416  0.16676584  0.16676584  1
  Rb  Rb29  1  0.16676584  0.16676584  0.83323416  1
  Rb  Rb30  1  0.16676584  0.83323416  0.16676584  1
  Rb  Rb31  1  0.33323416  0.33323416  0.33323416  1
  Si  Si0  1  0.56012640  0.92948374  0.81429945  1
  Si  Si1  1  0.56012640  0.07051626  0.18570055  1
  Si  Si2  1  0.92948374  0.81429945  0.56012640  1
  Si  Si3  1  0.07051626  0.81429945  0.43987360  1
  Si  Si4  1  0.81429945  0.56012640  0.92948374  1
  Si  Si5  1  0.18570055  0.43987360  0.92948374  1
  Si  Si6  1  0.93987360  0.68570055  0.42948374  1
  Si  Si7  1  0.93987360  0.31429945  0.57051626  1
  Si  Si8  1  0.06012640  0.68570055  0.57051626  1
  Si  Si9  1  0.31429945  0.57051626  0.93987360  1
  Si  Si10  1  0.57051626  0.06012640  0.68570055  1
  Si  Si11  1  0.57051626  0.93987360  0.31429945  1
  Si  Si12  1  0.68570055  0.42948374  0.93987360  1
  Si  Si13  1  0.42948374  0.93987360  0.68570055  1
  Si  Si14  1  0.68570055  0.57051626  0.06012640  1
  Si  Si15  1  0.06512344  0.06512344  0.06512344  1
  Si  Si16  1  0.42948374  0.06012640  0.31429945  1
  Si  Si17  1  0.18570055  0.56012640  0.07051626  1
  Si  Si18  1  0.81429945  0.43987360  0.07051626  1
  Si  Si19  1  0.92948374  0.18570055  0.43987360  1
  Si  Si20  1  0.07051626  0.18570055  0.56012640  1
  Si  Si21  1  0.43987360  0.07051626  0.81429945  1
  Si  Si22  1  0.43987360  0.92948374  0.18570055  1
  Si  Si23  1  0.06012640  0.31429945  0.42948374  1
  Si  Si24  1  0.56512344  0.56512344  0.56512344  1
  Si  Si25  1  0.93487656  0.06512344  0.93487656  1
  Si  Si26  1  0.06512344  0.93487656  0.93487656  1
  Si  Si27  1  0.93487656  0.93487656  0.06512344  1
  Si  Si28  1  0.56512344  0.43487656  0.43487656  1
  Si  Si29  1  0.43487656  0.43487656  0.56512344  1
  Si  Si30  1  0.43487656  0.56512344  0.43487656  1
  Si  Si31  1  0.31429945  0.42948374  0.06012640  1
loop_
_geom_bond_atom_site_label_1
_geom_bond_atom_site_label_2
_geom_bond_distance
_geom_bond_site_symmetry_2
Rb0 Si17 3.454212 1_555
Rb0 Si5 3.462714 1_554
Rb0 Si31 3.640969 1_555
Rb0 Si18 3.671368 1_455
Rb0 Si15 3.688636 1_555
Rb0 Si23 3.794030 1_555
Rb1 Si23 3.454201 1_655
Rb1 Si7 3.462709 1_555
Rb1 Si19 3.640964 1_555
Rb1 Si6 3.671363 1_555
Rb1 Si28 3.688649 1_555
Rb1 Si18 3.794031 1_555
Rb2 Si14 3.454201 1_556
Rb2 Si12 3.462709 1_555
Rb2 Si4 3.640964 1_555
Rb2 Si9 3.671363 1_555
Rb2 Si24 3.688649 1_555
Rb2 Si0 3.794031 1_555
Rb3 Si9 3.454201 1_554
Rb3 Si31 3.462709 1_555
Rb3 Si17 3.640964 1_555
Rb3 Si14 3.671363 1_555
Rb3 Si30 3.688649 1_555
Rb3 Si22 3.794031 1_555
Rb4 Si10 3.454201 1_565
Rb4 Si13 3.462709 1_555
Rb4 Si0 3.640964 1_555
Rb4 Si11 3.671363 1_555
Rb4 Si24 3.688649 1_555
Rb4 Si2 3.794031 1_555
Rb5 Si13 3.454201 1_545
Rb5 Si10 3.462709 1_555
Rb5 Si21 3.640964 1_555
Rb5 Si16 3.671363 1_555
Rb5 Si29 3.688649 1_555
Rb5 Si20 3.794031 1_555
Rb6 Si22 3.454201 1_555
Rb6 Si1 3.462709 1_565
Rb6 Si11 3.640964 1_555
Rb6 Si0 3.671363 1_554
Rb6 Si27 3.688649 1_555
Rb6 Si14 3.794031 1_555
Rb7 Si21 3.454201 1_555
Rb7 Si0 3.462709 1_545
Rb7 Si10 3.640964 1_555
Rb7 Si1 3.671363 1_556
Rb7 Si25 3.688649 1_555
Rb7 Si12 3.794031 1_555
Rb8 Si0 3.454212 1_555
Rb8 Si21 3.462714 1_565
Rb8 Si13 3.640969 1_555
Rb8 Si22 3.671368 1_556
Rb8 Si26 3.688636 1_555
Rb8 Si9 3.794030 1_555
Rb9 Si3 3.454201 1_555
Rb9 Si2 3.462709 1_455
Rb9 Si8 3.640964 1_555
Rb9 Si20 3.671363 1_565
Rb9 Si26 3.688649 1_555
Rb9 Si13 3.794031 1_555
Rb10 Si4 3.454212 1_555
Rb10 Si18 3.462714 1_556
Rb10 Si12 3.640969 1_555
Rb10 Si5 3.671368 1_655
Rb10 Si25 3.688636 1_555
Rb10 Si7 3.794030 1_555
Rb11 Si18 3.454201 1_555
Rb11 Si4 3.462709 1_554
Rb11 Si14 3.640964 1_555
Rb11 Si17 3.671363 1_655
Rb11 Si27 3.688649 1_555
Rb11 Si6 3.794031 1_555
Rb12 Si19 3.454201 1_555
Rb12 Si20 3.462709 1_655
Rb12 Si7 3.640964 1_555
Rb12 Si2 3.671363 1_545
Rb12 Si25 3.688649 1_555
Rb12 Si10 3.794031 1_555
Rb13 Si5 3.454201 1_555
Rb13 Si17 3.462709 1_556
Rb13 Si9 3.640964 1_555
Rb13 Si4 3.671363 1_455
Rb13 Si26 3.688649 1_555
Rb13 Si8 3.794031 1_555
Rb14 Si2 3.454212 1_555
Rb14 Si3 3.462714 1_655
Rb14 Si6 3.640969 1_555
Rb14 Si19 3.671368 1_565
Rb14 Si27 3.688636 1_555
Rb14 Si11 3.794030 1_555
Rb15 Si20 3.454212 1_555
Rb15 Si19 3.462714 1_455
Rb15 Si23 3.640969 1_555
Rb15 Si3 3.671368 1_545
Rb15 Si15 3.688636 1_555
Rb15 Si16 3.794030 1_555
Rb16 Si8 3.454201 1_655
Rb16 Si6 3.462709 1_555
Rb16 Si2 3.640964 1_555
Rb16 Si7 3.671363 1_555
Rb16 Si24 3.688649 1_555
Rb16 Si4 3.794031 1_555
Rb17 Si16 3.454201 1_565
Rb17 Si11 3.462709 1_555
Rb17 Si22 3.640964 1_555
Rb17 Si13 3.671363 1_555
Rb17 Si30 3.688649 1_555
Rb17 Si3 3.794031 1_555
Rb18 Si11 3.454201 1_545
Rb18 Si16 3.462709 1_555
Rb18 Si1 3.640964 1_555
Rb18 Si10 3.671363 1_555
Rb18 Si28 3.688649 1_555
Rb18 Si19 3.794031 1_555
Rb19 Si12 3.454201 1_554
Rb19 Si14 3.462709 1_555
Rb19 Si18 3.640964 1_555
Rb19 Si31 3.671363 1_555
Rb19 Si28 3.688649 1_555
Rb19 Si1 3.794031 1_555
Rb20 Si31 3.454201 1_556
Rb20 Si9 3.462709 1_555
Rb20 Si5 3.640964 1_555
Rb20 Si12 3.671363 1_555
Rb20 Si29 3.688649 1_555
Rb20 Si21 3.794031 1_555
Rb21 Si7 3.454201 1_455
Rb21 Si23 3.462709 1_555
Rb21 Si20 3.640964 1_555
Rb21 Si8 3.671363 1_555
Rb21 Si29 3.688649 1_555
Rb21 Si5 3.794031 1_555
Rb22 Si6 3.454201 1_455
Rb22 Si8 3.462709 1_555
Rb22 Si3 3.640964 1_555
Rb22 Si23 3.671363 1_555
Rb22 Si30 3.688649 1_555
Rb22 Si17 3.794031 1_555
Rb23 Si1 3.454212 1_555
Rb23 Si22 3.462714 1_545
Rb23 Si16 3.640969 1_555
Rb23 Si21 3.671368 1_554
Rb23 Si15 3.688636 1_555
Rb23 Si31 3.794030 1_555
Rb24 Si25 3.573841 1_565
Rb24 Si26 3.573841 1_655
Rb24 Si27 3.573841 1_556
Rb24 Si2 3.801276 1_555
Rb24 Si4 3.801276 1_555
Rb24 Si0 3.801276 1_555
Rb25 Si24 3.573841 1_555
Rb25 Si28 3.573841 1_555
Rb25 Si29 3.573841 1_555
Rb25 Si12 3.801276 1_555
Rb25 Si7 3.801276 1_555
Rb25 Si10 3.801276 1_555
Rb26 Si30 3.573841 1_555
Rb26 Si24 3.573841 1_555
Rb26 Si29 3.573841 1_555
Rb26 Si9 3.801276 1_555
Rb26 Si13 3.801276 1_555
Rb26 Si8 3.801276 1_555
Rb27 Si30 3.573841 1_555
Rb27 Si24 3.573841 1_555
Rb27 Si28 3.573841 1_555
Rb27 Si6 3.801276 1_555
Rb27 Si11 3.801276 1_555
Rb27 Si14 3.801276 1_555
Rb28 Si25 3.573841 1_554
Rb28 Si27 3.573841 1_545
Rb28 Si15 3.573841 1_655
Rb28 Si1 3.801276 1_555
Rb28 Si19 3.801276 1_555
Rb28 Si18 3.801276 1_555
Rb29 Si26 3.573841 1_545
Rb29 Si25 3.573841 1_455
Rb29 Si15 3.573841 1_556
Rb29 Si20 3.801276 1_555
Rb29 Si5 3.801276 1_555
Rb29 Si21 3.801276 1_555
Rb30 Si26 3.573841 1_554
Rb30 Si27 3.573841 1_455
Rb30 Si15 3.573841 1_565
Rb30 Si17 3.801276 1_555
Rb30 Si3 3.801276 1_555
Rb30 Si22 3.801276 1_555
Rb31 Si30 3.573841 1_555
Rb31 Si28 3.573841 1_555
Rb31 Si29 3.573841 1_555
Rb31 Si16 3.801276 1_555
Rb31 Si31 3.801276 1_555
Rb31 Si23 3.801276 1_555
Si0 Si10 2.405172 1_565
Si0 Si13 2.405172 1_555
Si0 Si21 2.427816 1_565
Si1 Si11 2.405172 1_545
Si1 Si16 2.405172 1_555
Si1 Si22 2.427816 1_545
Si2 Si8 2.405172 1_655
Si2 Si6 2.405172 1_555
Si2 Si3 2.427816 1_655
Si3 Si6 2.405172 1_455
Si3 Si8 2.405172 1_555
Si5 Si9 2.405172 1_555
Si6 Si8 2.427816 1_655
Si10 Si21 2.405172 1_555
Si10 Si13 2.427816 1_545
Si11 Si22 2.405172 1_555
Si11 Si16 2.427816 1_565
Si12 Si4 2.405172 1_555
Si12 Si18 2.405172 1_556
Si12 Si14 2.427816 1_556
Si13 Si21 2.405172 1_565
Si14 Si4 2.405172 1_554
Si14 Si18 2.405172 1_555
Si15 Si27 2.412842 1_445
Si15 Si26 2.412842 1_544
Si15 Si25 2.412842 1_454
Si16 Si22 2.405172 1_545
Si17 Si31 2.405172 1_555
Si17 Si9 2.405172 1_554
Si17 Si5 2.427816 1_554
Si18 Si4 2.427816 1_554
Si19 Si23 2.405172 1_655
Si19 Si7 2.405172 1_555
Si19 Si20 2.427816 1_655
Si20 Si23 2.405172 1_555
Si20 Si7 2.405172 1_455
Si23 Si7 2.427816 1_455
Si24 Si30 2.412842 1_555
Si24 Si28 2.412842 1_555
Si24 Si29 2.412842 1_555
Si25 Si26 2.412842 1_645
Si25 Si27 2.412842 1_546
Si26 Si27 2.412842 1_456
Si28 Si30 2.412842 1_555
Si28 Si29 2.412842 1_555
Si29 Si30 2.412842 1_555
Si31 Si5 2.405172 1_554
Si31 Si9 2.427816 1_554
