# generated using pymatgen
data_LiNiO2
_symmetry_space_group_name_H-M   'P 1'
_cell_length_a   5.73613994
_cell_length_b   8.27492813
_cell_length_c   5.76353982
_cell_angle_alpha   89.82659931
_cell_angle_beta   90.02340713
_cell_angle_gamma   90.00359430
_symmetry_Int_Tables_number   1
_chemical_formula_structural   LiNiO2
_chemical_formula_sum   'Li8 Ni8 O16'
_cell_volume   273.57174506
_cell_formula_units_Z   8
loop_
 _symmetry_equiv_pos_site_id
 _symmetry_equiv_pos_as_xyz
  1  'x, y, z'
loop_
 _atom_site_type_symbol
 _atom_site_label
 _atom_site_symmetry_multiplicity
 _atom_site_fract_x
 _atom_site_fract_y
 _atom_site_fract_z
 _atom_site_occupancy
  Li  Li0  1  0.49922600  0.00006100  0.99998200  1
  Li  Li1  1  0.00115500  0.49996500  0.49996900  1
  Li  Li2  1  0.49883600  0.49995300  0.99997600  1
  Li  Li3  1  0.00049000  0.00003500  0.50003200  1
  Li  Li4  1  0.74936200  0.24811800  0.25063200  1
  Li  Li5  1  0.25045700  0.75214900  0.74966900  1
  Li  Li6  1  0.25054500  0.24784600  0.25034300  1
  Li  Li7  1  0.74941100  0.75188900  0.74939500  1
  Ni  Ni0  1  0.50073200  0.00001000  0.50001000  1
  Ni  Ni1  1  0.50092400  0.49997700  0.49989200  1
  Ni  Ni2  1  0.99946400  0.00005200  0.00009800  1
  Ni  Ni3  1  0.99886900  0.49996300  0.99995900  1
  Ni  Ni4  1  0.74998900  0.74966000  0.24984400  1
  Ni  Ni5  1  0.25036600  0.24970300  0.74961300  1
  Ni  Ni6  1  0.25039000  0.75027100  0.25045000  1
  Ni  Ni7  1  0.74996500  0.25033000  0.75018400  1
  O  O0  1  0.50166200  0.75015200  0.03032700  1
  O  O1  1  0.99853200  0.25014100  0.53044000  1
  O  O2  1  0.50136100  0.24986000  0.96967200  1
  O  O3  1  0.99832000  0.74986100  0.46958300  1
  O  O4  1  0.52362700  0.24848900  0.51026800  1
  O  O5  1  0.97679500  0.74526600  0.00877700  1
  O  O6  1  0.52343700  0.75148900  0.48974600  1
  O  O7  1  0.97641900  0.25476100  0.99121500  1
  O  O8  1  0.25335900  0.51327100  0.25341000  1
  O  O9  1  0.75471300  0.02263800  0.75556500  1
  O  O10  1  0.74674400  0.52105800  0.25331300  1
  O  O11  1  0.24491100  0.01412600  0.75532800  1
  O  O12  1  0.74660900  0.47901200  0.74649900  1
  O  O13  1  0.24515000  0.98599800  0.24491000  1
  O  O14  1  0.25328500  0.48650700  0.74660100  1
  O  O15  1  0.75489400  0.97738700  0.24430000  1
loop_
_geom_bond_atom_site_label_1
_geom_bond_atom_site_label_2
_geom_bond_distance
_geom_bond_site_symmetry_2
Li0 O11 2.031565 1_555
Li0 O13 2.032493 1_546
Li0 O15 2.040971 1_546
Li0 O9 2.041356 1_555
Li0 O2 2.073946 1_555
Li0 O0 2.074881 1_546
Li1 O14 2.030275 1_555
Li1 O8 2.031035 1_555
Li1 O10 2.044002 1_455
Li1 O12 2.044768 1_455
Li1 O1 2.074246 1_455
Li1 O3 2.074810 1_455
Li2 O14 2.031788 1_555
Li2 O8 2.032515 1_556
Li2 O10 2.045591 1_556
Li2 O12 2.046355 1_555
Li2 O2 2.077437 1_555
Li2 O0 2.078345 1_556
Li3 O11 2.035600 1_555
Li3 O13 2.036632 1_545
Li3 O15 2.047474 1_445
Li3 O9 2.048173 1_455
Li3 O1 2.077576 1_455
Li3 O3 2.078162 1_445
Li4 O4 1.979275 1_555
Li4 O7 1.983919 1_554
Li4 O1 2.154561 1_555
Li4 O2 2.155017 1_554
Li4 O15 2.240914 1_545
Li4 O10 2.258709 1_555
Li5 O0 2.165898 1_556
Li5 O3 2.167099 1_455
Li5 O6 2.167515 1_555
Li5 O5 2.167711 1_456
Li5 O11 2.168420 1_565
Li5 O14 2.198354 1_555
Li6 O2 2.165349 1_554
Li6 O4 2.167060 1_555
Li6 O13 2.167313 1_545
Li6 O1 2.167554 1_455
Li6 O7 2.168847 1_454
Li6 O8 2.196556 1_555
Li7 O6 1.979430 1_555
Li7 O5 1.984197 1_556
Li7 O3 2.154461 1_555
Li7 O0 2.154814 1_556
Li7 O9 2.241023 1_565
Li7 O12 2.258206 1_555
Ni0 O4 2.061353 1_555
Ni0 O6 2.061651 1_545
Ni0 O13 2.079358 1_545
Ni0 O9 2.080109 1_555
Ni0 O11 2.082120 1_555
Ni0 O15 2.082324 1_545
Ni1 O12 2.008297 1_555
Ni1 O10 2.009606 1_555
Ni1 O8 2.011032 1_555
Ni1 O14 2.013142 1_555
Ni1 O4 2.085799 1_555
Ni1 O6 2.085883 1_555
Ni2 O15 1.996051 1_545
Ni2 O11 1.996646 1_654
Ni2 O13 1.996972 1_645
Ni2 O9 1.997273 1_554
Ni2 O7 2.112313 1_554
Ni2 O5 2.112776 1_545
Ni3 O7 2.033879 1_555
Ni3 O5 2.034608 1_556
Ni3 O10 2.063387 1_556
Ni3 O12 2.063408 1_555
Ni3 O8 2.067895 1_656
Ni3 O14 2.068137 1_655
Ni4 O15 1.884807 1_555
Ni4 O10 1.891801 1_555
Ni4 O6 1.898007 1_555
Ni4 O5 1.904237 1_555
Ni4 O0 1.904798 1_555
Ni4 O3 1.905673 1_555
Ni5 O2 1.918335 1_555
Ni5 O1 1.918578 1_455
Ni5 O11 1.949811 1_555
Ni5 O14 1.959631 1_555
Ni5 O4 2.088503 1_555
Ni5 O7 2.100524 1_455
Ni6 O3 1.920222 1_455
Ni6 O0 1.920549 1_555
Ni6 O13 1.951022 1_555
Ni6 O8 1.961255 1_555
Ni6 O6 2.086548 1_555
Ni6 O5 2.098421 1_455
Ni7 O9 1.884495 1_555
Ni7 O12 1.892481 1_555
Ni7 O4 1.896452 1_555
Ni7 O7 1.901934 1_555
Ni7 O2 1.906648 1_555
Ni7 O1 1.907477 1_555
