# generated using pymatgen
data_CePr4O10
_symmetry_space_group_name_H-M   'P 1'
_cell_length_a   14.89705339
_cell_length_b   14.89705339
_cell_length_c   14.89705339
_cell_angle_alpha   164.76260574
_cell_angle_beta   164.76260574
_cell_angle_gamma   21.61340386
_symmetry_Int_Tables_number   1
_chemical_formula_structural   CePr4O10
_chemical_formula_sum   'Ce1 Pr4 O10'
_cell_volume   228.32051145
_cell_formula_units_Z   1
loop_
 _symmetry_equiv_pos_site_id
 _symmetry_equiv_pos_as_xyz
  1  'x, y, z'
loop_
 _atom_site_type_symbol
 _atom_site_label
 _atom_site_symmetry_multiplicity
 _atom_site_fract_x
 _atom_site_fract_y
 _atom_site_fract_z
 _atom_site_occupancy
  Ce  Ce0  1  0.00000000  0.00000000  0.00000000  1
  Pr  Pr0  1  0.40545600  0.40545600  0.00000000  1
  Pr  Pr1  1  0.80120700  0.80120700  0.00000000  1
  Pr  Pr2  1  0.19879300  0.19879300  0.00000000  1
  Pr  Pr3  1  0.59454400  0.59454400  0.00000000  1
  O  O0  1  0.14739000  0.64739000  0.50000000  1
  O  O1  1  0.54563600  0.04563600  0.50000000  1
  O  O2  1  0.95436400  0.45436400  0.50000000  1
  O  O3  1  0.35261000  0.85261000  0.50000000  1
  O  O4  1  0.75000000  0.25000000  0.50000000  1
  O  O5  1  0.04563600  0.54563600  0.50000000  1
  O  O6  1  0.45436400  0.95436400  0.50000000  1
  O  O7  1  0.85261000  0.35261000  0.50000000  1
  O  O8  1  0.25000000  0.75000000  0.50000000  1
  O  O9  1  0.64739000  0.14739000  0.50000000  1
loop_
_geom_bond_atom_site_label_1
_geom_bond_atom_site_label_2
_geom_bond_distance
_geom_bond_site_symmetry_2
Ce0 O5 2.384233 1_544
Ce0 O1 2.384233 1_454
Ce0 O5 2.384233 1_555
Ce0 O1 2.384233 1_555
Ce0 O6 2.384233 1_545
Ce0 O2 2.384233 1_444
Ce0 O6 2.384233 1_444
Ce0 O2 2.384233 1_455
O0 Pr2 2.482715 1_555
O0 Pr2 2.482715 1_566
O0 Pr3 2.508529 1_556
O0 Pr3 2.508529 1_455
O1 Pr3 2.439163 1_545
O1 Pr3 2.439163 1_556
O2 Pr0 2.439163 1_555
O2 Pr0 2.439163 1_656
O3 Pr1 2.482715 1_455
O3 Pr1 2.482715 1_556
O3 Pr0 2.508529 1_555
O3 Pr0 2.508529 1_566
O4 Pr2 2.479244 1_555
O4 Pr1 2.479244 1_545
O4 Pr1 2.479244 1_556
O4 Pr2 2.479244 1_656
O5 Pr3 2.439163 1_455
O5 Pr3 2.439163 1_556
O6 Pr0 2.439163 1_555
O6 Pr0 2.439163 1_566
O7 Pr1 2.482715 1_556
O7 Pr1 2.482715 1_545
O7 Pr0 2.508529 1_656
O7 Pr0 2.508529 1_555
O8 Pr1 2.479244 1_556
O8 Pr2 2.479244 1_566
O8 Pr2 2.479244 1_555
O8 Pr1 2.479244 1_455
O9 Pr2 2.482715 1_656
O9 Pr2 2.482715 1_555
O9 Pr3 2.508529 1_545
O9 Pr3 2.508529 1_556
