# generated using pymatgen
data_DyCrB4
_symmetry_space_group_name_H-M   'P 1'
_cell_length_a   5.92674500
_cell_length_b   11.44924700
_cell_length_c   3.44492900
_cell_angle_alpha   90.00000000
_cell_angle_beta   90.00000000
_cell_angle_gamma   90.00000000
_symmetry_Int_Tables_number   1
_chemical_formula_structural   DyCrB4
_chemical_formula_sum   'Dy4 Cr4 B16'
_cell_volume   233.76174590
_cell_formula_units_Z   4
loop_
 _symmetry_equiv_pos_site_id
 _symmetry_equiv_pos_as_xyz
  1  'x, y, z'
loop_
 _atom_site_type_symbol
 _atom_site_label
 _atom_site_symmetry_multiplicity
 _atom_site_fract_x
 _atom_site_fract_y
 _atom_site_fract_z
 _atom_site_occupancy
  Dy  Dy0  1  0.62515700  0.34923300  0.00000000  1
  Dy  Dy1  1  0.37484300  0.65076700  0.00000000  1
  Dy  Dy2  1  0.12515700  0.15076700  0.00000000  1
  Dy  Dy3  1  0.87484300  0.84923300  0.00000000  1
  Cr  Cr0  1  0.62222900  0.07928800  0.00000000  1
  Cr  Cr1  1  0.37777100  0.92071200  0.00000000  1
  Cr  Cr2  1  0.12222900  0.42071200  0.00000000  1
  Cr  Cr3  1  0.87777100  0.57928800  0.00000000  1
  B  B0  1  0.78118400  0.18394700  0.50000000  1
  B  B1  1  0.21881600  0.81605300  0.50000000  1
  B  B2  1  0.28118400  0.31605300  0.50000000  1
  B  B3  1  0.71881600  0.68394700  0.50000000  1
  B  B4  1  0.86301000  0.03260800  0.50000000  1
  B  B5  1  0.13699000  0.96739200  0.50000000  1
  B  B6  1  0.36301000  0.46739200  0.50000000  1
  B  B7  1  0.63699000  0.53260800  0.50000000  1
  B  B8  1  0.88698900  0.45338400  0.50000000  1
  B  B9  1  0.11301100  0.54661600  0.50000000  1
  B  B10  1  0.38698900  0.04661600  0.50000000  1
  B  B11  1  0.61301100  0.95338400  0.50000000  1
  B  B12  1  0.97585200  0.30850100  0.50000000  1
  B  B13  1  0.02414800  0.69149900  0.50000000  1
  B  B14  1  0.47585200  0.19149900  0.50000000  1
  B  B15  1  0.52414800  0.80850100  0.50000000  1
loop_
_geom_bond_atom_site_label_1
_geom_bond_atom_site_label_2
_geom_bond_distance
_geom_bond_site_symmetry_2
B0 B4 1.799305 1_555
B0 B14 1.811689 1_555
B0 B12 1.834326 1_555
B0 Cr0 2.300055 1_556
B0 Cr0 2.300055 1_555
B0 Dy2 2.695784 1_655
B0 Dy2 2.695784 1_656
B0 Dy0 2.720881 1_556
B0 Dy0 2.720881 1_555
B1 B5 1.799305 1_555
B1 B15 1.811689 1_555
B1 B13 1.834326 1_555
B1 Cr1 2.300055 1_556
B1 Cr1 2.300055 1_555
B1 Dy3 2.695784 1_455
B1 Dy3 2.695784 1_456
B1 Dy1 2.720881 1_556
B1 Dy1 2.720881 1_555
B2 B6 1.799305 1_555
B2 Cr2 2.300055 1_555
B2 Cr2 2.300055 1_556
B2 Dy0 2.695784 1_555
B2 Dy0 2.695784 1_556
B2 Dy2 2.720881 1_556
B2 Dy2 2.720881 1_555
B3 B7 1.799305 1_555
B3 Cr3 2.300055 1_556
B3 Cr3 2.300055 1_555
B3 Dy1 2.695784 1_555
B3 Dy1 2.695784 1_556
B3 Dy3 2.720881 1_555
B3 Dy3 2.720881 1_556
B4 B5 1.787255 1_645
B4 Cr0 2.299780 1_555
B4 Cr0 2.299780 1_556
B4 Dy2 2.685322 1_656
B4 Dy2 2.685322 1_655
B4 Dy3 2.716565 1_546
B4 Dy3 2.716565 1_545
B5 Cr1 2.299780 1_556
B5 Cr1 2.299780 1_555
B5 Dy3 2.685322 1_456
B5 Dy3 2.685322 1_455
B5 Dy2 2.716565 1_565
B5 Dy2 2.716565 1_566
B6 B9 1.737275 1_555
B6 B7 1.787255 1_555
B6 Cr2 2.299780 1_556
B6 Cr2 2.299780 1_555
B6 Dy0 2.685322 1_555
B6 Dy0 2.685322 1_556
B6 Dy1 2.716565 1_555
B6 Dy1 2.716565 1_556
B7 B8 1.737275 1_555
B7 Cr3 2.299780 1_556
B7 Cr3 2.299780 1_555
B7 Dy1 2.685322 1_556
B7 Dy1 2.685322 1_555
B7 Dy0 2.716565 1_556
B7 Dy0 2.716565 1_555
B8 B9 1.712857 1_655
B8 Cr3 2.246733 1_556
B8 Cr3 2.246733 1_555
B8 Cr2 2.247360 1_655
B8 Cr2 2.247360 1_656
B8 Dy0 2.607094 1_555
B8 Dy0 2.607094 1_556
B9 Cr2 2.246733 1_556
B9 Cr2 2.246733 1_555
B9 Cr3 2.247360 1_456
B9 Cr3 2.247360 1_455
B9 Dy1 2.607094 1_556
B9 Dy1 2.607094 1_555
B10 B11 1.712857 1_545
B10 B5 1.737275 1_545
B10 B14 1.740403 1_555
B10 Cr1 2.246733 1_546
B10 Cr1 2.246733 1_545
B10 Cr0 2.247360 1_555
B10 Cr0 2.247360 1_556
B10 Dy2 2.607094 1_556
B10 Dy2 2.607094 1_555
B11 B4 1.737275 1_565
B11 B15 1.740403 1_555
B11 Cr0 2.246733 1_565
B11 Cr0 2.246733 1_566
B11 Cr1 2.247360 1_555
B11 Cr1 2.247360 1_556
B11 Dy3 2.607094 1_555
B11 Dy3 2.607094 1_556
B12 B8 1.740403 1_555
B12 B2 1.811689 1_655
B12 Cr2 2.317335 1_655
B12 Cr2 2.317335 1_656
B12 Dy2 2.647890 1_656
B12 Dy2 2.647890 1_655
B12 Dy0 2.739424 1_555
B12 Dy0 2.739424 1_556
B13 B9 1.740403 1_555
B13 B3 1.811689 1_455
B13 Cr3 2.317335 1_455
B13 Cr3 2.317335 1_456
B13 Dy3 2.647890 1_456
B13 Dy3 2.647890 1_455
B13 Dy1 2.739424 1_556
B13 Dy1 2.739424 1_555
B14 B2 1.834326 1_555
B14 Cr0 2.317335 1_556
B14 Cr0 2.317335 1_555
B14 Dy0 2.647890 1_555
B14 Dy0 2.647890 1_556
B14 Dy2 2.739424 1_556
B14 Dy2 2.739424 1_555
B15 B3 1.834326 1_555
B15 Cr1 2.317335 1_555
B15 Cr1 2.317335 1_556
B15 Dy1 2.647890 1_555
B15 Dy1 2.647890 1_556
B15 Dy3 2.739424 1_555
B15 Dy3 2.739424 1_556
