# generated using pymatgen
data_Li3MnCoO5
_symmetry_space_group_name_H-M   'P 1'
_cell_length_a   3.00625529
_cell_length_b   3.00625529
_cell_length_c   24.65124369
_cell_angle_alpha   88.50681773
_cell_angle_beta   88.50681773
_cell_angle_gamma   57.59506173
_symmetry_Int_Tables_number   1
_chemical_formula_structural   Li3MnCoO5
_chemical_formula_sum   'Li6 Mn2 Co2 O10'
_cell_volume   188.01212604
_cell_formula_units_Z   2
loop_
 _symmetry_equiv_pos_site_id
 _symmetry_equiv_pos_as_xyz
  1  'x, y, z'
loop_
 _atom_site_type_symbol
 _atom_site_label
 _atom_site_symmetry_multiplicity
 _atom_site_fract_x
 _atom_site_fract_y
 _atom_site_fract_z
 _atom_site_occupancy
  Li  Li0  1  0.50000000  0.50000000  0.00000000  1
  Li  Li1  1  0.09723300  0.09723300  0.20303500  1
  Li  Li2  1  0.69056200  0.69056200  0.40217500  1
  Li  Li3  1  0.30943800  0.30943800  0.59782500  1
  Li  Li4  1  0.90276700  0.90276700  0.79696500  1
  Li  Li5  1  0.00000000  0.00000000  0.50000000  1
  Mn  Mn0  1  0.20106700  0.20106700  0.89933100  1
  Mn  Mn1  1  0.79893300  0.79893300  0.10066900  1
  Co  Co0  1  0.39862700  0.39862700  0.29970100  1
  Co  Co1  1  0.60137300  0.60137300  0.70029900  1
  O  O0  1  0.82731100  0.82731100  0.94607200  1
  O  O1  1  0.42763100  0.42763100  0.14602300  1
  O  O2  1  0.05124400  0.05124400  0.34263400  1
  O  O3  1  0.64904800  0.64904800  0.55124800  1
  O  O4  1  0.25015700  0.25015700  0.74647300  1
  O  O5  1  0.17268900  0.17268900  0.05392800  1
  O  O6  1  0.74984300  0.74984300  0.25352700  1
  O  O7  1  0.35095200  0.35095200  0.44875200  1
  O  O8  1  0.94875600  0.94875600  0.65736600  1
  O  O9  1  0.57236900  0.57236900  0.85397700  1
loop_
_geom_bond_atom_site_label_1
_geom_bond_atom_site_label_2
_geom_bond_distance
_geom_bond_site_symmetry_2
Li0 O0 2.145952 1_554
Li0 O5 2.145952 1_555
Li0 O0 2.182724 1_454
Li0 O0 2.182724 1_544
Li0 O5 2.182724 1_565
Li0 O5 2.182724 1_655
Li1 O6 2.086267 1_455
Li1 O6 2.086267 1_545
Li1 O6 2.182666 1_445
Li1 O1 2.204593 1_555
Li1 O1 2.223874 1_455
Li1 O1 2.223874 1_545
Li2 O7 2.046304 1_655
Li2 O7 2.046304 1_565
Li2 O7 2.097145 1_555
Li2 O2 2.203271 1_565
Li2 O2 2.203271 1_655
Li2 O2 2.366428 1_665
Li3 O3 2.046304 1_545
Li3 O3 2.046304 1_455
Li3 O3 2.097145 1_555
Li3 O8 2.203271 1_455
Li3 O8 2.203271 1_545
Li3 O8 2.366428 1_445
Li4 O4 2.086267 1_565
Li4 O4 2.086267 1_655
Li4 O4 2.182666 1_665
Li4 O9 2.204593 1_555
Li4 O9 2.223874 1_655
Li4 O9 2.223874 1_565
Li5 O3 2.090191 1_455
Li5 O3 2.090191 1_545
Li5 O7 2.090191 1_545
Li5 O7 2.090191 1_455
Li5 O3 2.208255 1_445
Li5 O7 2.208255 1_555
Mn0 O9 1.962670 1_455
Mn0 O9 1.962670 1_545
Mn0 O0 1.978085 1_545
Mn0 O0 1.978085 1_455
Mn0 O9 2.224247 1_555
Mn0 O0 2.251842 1_445
Mn1 O1 1.962670 1_655
Mn1 O1 1.962670 1_565
Mn1 O5 1.978085 1_655
Mn1 O5 1.978085 1_565
Mn1 O1 2.224247 1_555
Mn1 O5 2.251842 1_665
Co0 O2 1.978513 1_565
Co0 O2 1.978513 1_655
Co0 O6 2.015041 1_545
Co0 O6 2.015041 1_455
Co0 O2 2.086872 1_555
Co0 O6 2.143550 1_555
Co1 O8 1.978513 1_455
Co1 O8 1.978513 1_545
Co1 O4 2.015041 1_655
Co1 O4 2.015041 1_565
Co1 O8 2.086872 1_555
Co1 O4 2.143550 1_555
