# generated using pymatgen
data_Zr9Mo4S
_symmetry_space_group_name_H-M   'P 1'
_cell_length_a   8.76323154
_cell_length_b   8.76323154
_cell_length_c   8.65443900
_cell_angle_alpha   90.00000000
_cell_angle_beta   90.00000000
_cell_angle_gamma   119.99999653
_symmetry_Int_Tables_number   1
_chemical_formula_structural   Zr9Mo4S
_chemical_formula_sum   'Zr18 Mo8 S2'
_cell_volume   575.56998935
_cell_formula_units_Z   2
loop_
 _symmetry_equiv_pos_site_id
 _symmetry_equiv_pos_as_xyz
  1  'x, y, z'
loop_
 _atom_site_type_symbol
 _atom_site_label
 _atom_site_symmetry_multiplicity
 _atom_site_fract_x
 _atom_site_fract_y
 _atom_site_fract_z
 _atom_site_occupancy
  Zr  Zr0  1  0.53830800  0.07661700  0.25000000  1
  Zr  Zr1  1  0.46169200  0.92338300  0.75000000  1
  Zr  Zr2  1  0.92338300  0.46169200  0.25000000  1
  Zr  Zr3  1  0.07661700  0.53830800  0.75000000  1
  Zr  Zr4  1  0.53830800  0.46169200  0.25000000  1
  Zr  Zr5  1  0.46169200  0.53830800  0.75000000  1
  Zr  Zr6  1  0.19829800  0.39659500  0.04798600  1
  Zr  Zr7  1  0.80170200  0.60340500  0.95201400  1
  Zr  Zr8  1  0.60340500  0.80170200  0.04798600  1
  Zr  Zr9  1  0.80170200  0.60340500  0.54798600  1
  Zr  Zr10  1  0.39659500  0.19829800  0.95201400  1
  Zr  Zr11  1  0.19829800  0.39659500  0.45201400  1
  Zr  Zr12  1  0.19829800  0.80170200  0.04798600  1
  Zr  Zr13  1  0.39659500  0.19829800  0.54798600  1
  Zr  Zr14  1  0.80170200  0.19829800  0.95201400  1
  Zr  Zr15  1  0.60340500  0.80170200  0.45201400  1
  Zr  Zr16  1  0.80170200  0.19829800  0.54798600  1
  Zr  Zr17  1  0.19829800  0.80170200  0.45201400  1
  Mo  Mo0  1  0.00000000  0.00000000  0.00000000  1
  Mo  Mo1  1  0.00000000  0.00000000  0.50000000  1
  Mo  Mo2  1  0.89138100  0.78276300  0.25000000  1
  Mo  Mo3  1  0.10861900  0.21723700  0.75000000  1
  Mo  Mo4  1  0.21723700  0.10861900  0.25000000  1
  Mo  Mo5  1  0.78276300  0.89138100  0.75000000  1
  Mo  Mo6  1  0.89138100  0.10861900  0.25000000  1
  Mo  Mo7  1  0.10861900  0.89138100  0.75000000  1
  S  S0  1  0.33333300  0.66666700  0.25000000  1
  S  S1  1  0.66666700  0.33333300  0.75000000  1
loop_
_geom_bond_atom_site_label_1
_geom_bond_atom_site_label_2
_geom_bond_distance
_geom_bond_site_symmetry_2
Mo0 Mo3 2.720158 1_554
Mo0 Mo4 2.720158 1_555
Mo0 Mo2 2.720158 1_445
Mo0 Mo5 2.720158 1_444
Mo0 Mo7 2.720162 1_544
Mo0 Mo6 2.720162 1_455
Mo0 Zr6 3.038347 1_555
Mo0 Zr8 3.038347 1_445
Mo0 Zr10 3.038347 1_554
Mo0 Zr7 3.038347 1_444
Mo0 Zr12 3.038354 1_545
Mo0 Zr14 3.038354 1_454
Mo1 Mo4 2.720158 1_555
Mo1 Mo2 2.720158 1_445
Mo1 Mo5 2.720158 1_445
Mo1 Mo3 2.720158 1_555
Mo1 Mo7 2.720162 1_545
Mo1 Mo6 2.720162 1_455
Mo1 Zr11 3.038347 1_555
Mo1 Zr9 3.038347 1_445
Mo1 Zr13 3.038347 1_555
Mo1 Zr15 3.038347 1_445
Mo1 Zr16 3.038354 1_455
Mo1 Zr17 3.038354 1_545
Mo2 Mo6 2.855552 1_565
Mo2 Mo4 2.855552 1_665
Mo2 Zr9 2.916084 1_555
Mo2 Zr7 2.916084 1_554
Mo2 Zr2 2.963808 1_555
Mo2 Zr4 2.963808 1_555
Mo2 Zr15 3.141903 1_555
Mo2 Zr8 3.141903 1_555
Mo2 Zr17 3.141917 1_655
Mo2 Zr12 3.141917 1_655
Mo3 Mo7 2.855552 1_545
Mo3 Mo5 2.855552 1_445
Mo3 Zr11 2.916084 1_555
Mo3 Zr6 2.916084 1_556
Mo3 Zr3 2.963808 1_555
Mo3 Zr5 2.963808 1_555
Mo3 Zr13 3.141903 1_555
Mo3 Zr10 3.141903 1_555
Mo3 Zr16 3.141917 1_455
Mo3 Zr14 3.141917 1_455
Mo4 Mo6 2.855552 1_455
Mo4 Zr13 2.916084 1_555
Mo4 Zr10 2.916084 1_554
Mo4 Zr0 2.963808 1_555
Mo4 Zr4 2.963808 1_555
Mo4 Zr6 3.141903 1_555
Mo4 Zr11 3.141903 1_555
Mo4 Zr17 3.141917 1_545
Mo4 Zr12 3.141917 1_545
Mo5 Mo7 2.855552 1_655
Mo5 Zr15 2.916084 1_555
Mo5 Zr8 2.916084 1_556
Mo5 Zr1 2.963808 1_555
Mo5 Zr5 2.963808 1_555
Mo5 Zr7 3.141903 1_555
Mo5 Zr9 3.141903 1_555
Mo5 Zr14 3.141917 1_565
Mo5 Zr16 3.141917 1_565
Mo6 Zr14 2.916084 1_554
Mo6 Zr16 2.916084 1_555
Mo6 Zr0 2.963808 1_555
Mo6 Zr2 2.963808 1_555
Mo6 Zr8 3.141911 1_545
Mo6 Zr11 3.141911 1_655
Mo6 Zr6 3.141911 1_655
Mo6 Zr15 3.141911 1_545
Mo7 Zr17 2.916084 1_555
Mo7 Zr12 2.916084 1_556
Mo7 Zr3 2.963808 1_555
Mo7 Zr1 2.963808 1_555
Mo7 Zr9 3.141911 1_455
Mo7 Zr7 3.141911 1_455
Mo7 Zr13 3.141911 1_565
Mo7 Zr10 3.141911 1_565
S0 Zr12 2.693978 1_555
S0 Zr17 2.693978 1_555
S0 Zr8 2.693990 1_555
S0 Zr15 2.693990 1_555
S0 Zr11 2.693990 1_555
S0 Zr6 2.693990 1_555
S0 Zr4 3.111185 1_555
S0 Zr0 3.111185 1_565
S0 Zr2 3.111185 1_455
S1 Zr14 2.693978 1_555
S1 Zr16 2.693978 1_555
S1 Zr9 2.693990 1_555
S1 Zr13 2.693990 1_555
S1 Zr7 2.693990 1_555
S1 Zr10 2.693990 1_555
S1 Zr5 3.111185 1_555
S1 Zr3 3.111185 1_655
S1 Zr1 3.111185 1_545
