# generated using pymatgen
data_Sm(BIr)2
_symmetry_space_group_name_H-M   'P 1'
_cell_length_a   6.50481026
_cell_length_b   6.50481026
_cell_length_c   8.36511795
_cell_angle_alpha   112.80581896
_cell_angle_beta   112.80581896
_cell_angle_gamma   90.17631220
_symmetry_Int_Tables_number   1
_chemical_formula_structural   Sm(BIr)2
_chemical_formula_sum   'Sm4 B8 Ir8'
_cell_volume   295.83576606
_cell_formula_units_Z   4
loop_
 _symmetry_equiv_pos_site_id
 _symmetry_equiv_pos_as_xyz
  1  'x, y, z'
loop_
 _atom_site_type_symbol
 _atom_site_label
 _atom_site_symmetry_multiplicity
 _atom_site_fract_x
 _atom_site_fract_y
 _atom_site_fract_z
 _atom_site_occupancy
  Sm  Sm0  1  0.62500000  0.87500000  0.75000000  1
  Sm  Sm1  1  0.12500000  0.87500000  0.75000000  1
  Sm  Sm2  1  0.12500000  0.37500000  0.25000000  1
  Sm  Sm3  1  0.12500000  0.87500000  0.25000000  1
  B  B0  1  0.39037800  0.25097300  0.78335700  1
  B  B1  1  0.39298000  0.53238400  0.78335700  1
  B  B2  1  0.74902700  0.60962200  0.21664300  1
  B  B3  1  0.85962200  0.49902700  0.71664300  1
  B  B4  1  0.46761600  0.60702000  0.21664300  1
  B  B5  1  0.85702000  0.21761600  0.71664300  1
  B  B6  1  0.50097300  0.14037800  0.28335700  1
  B  B7  1  0.78238400  0.14298000  0.28335700  1
  Ir  Ir0  1  0.18096300  0.46767200  0.93826700  1
  Ir  Ir1  1  0.75730400  0.47059500  0.93826700  1
  Ir  Ir2  1  0.53232800  0.81903700  0.06173300  1
  Ir  Ir3  1  0.06903700  0.28232800  0.56173300  1
  Ir  Ir4  1  0.52940500  0.24269600  0.06173300  1
  Ir  Ir5  1  0.49269600  0.27940500  0.56173300  1
  Ir  Ir6  1  0.71767200  0.93096300  0.43826700  1
  Ir  Ir7  1  0.72059500  0.50730400  0.43826700  1
loop_
_geom_bond_atom_site_label_1
_geom_bond_atom_site_label_2
_geom_bond_distance
_geom_bond_site_symmetry_2
B0 B1 1.830551 1_555
B0 Ir4 2.169862 1_556
B0 Ir5 2.266216 1_555
B0 Ir3 2.267032 1_555
B0 Ir0 2.342212 1_555
B0 Ir1 2.358617 1_555
B0 Sm1 2.847885 1_545
B0 Sm0 2.865704 1_545
B1 Ir2 2.169862 1_556
B1 Ir3 2.266220 1_555
B1 Ir5 2.267028 1_555
B1 Ir1 2.342207 1_555
B1 Ir0 2.358622 1_555
B1 Sm0 2.847882 1_555
B1 Sm1 2.865708 1_555
B2 B4 1.830551 1_555
B2 Ir1 2.169862 1_554
B2 Ir7 2.266216 1_555
B2 Ir6 2.267032 1_555
B2 Ir2 2.342212 1_555
B2 Ir4 2.358617 1_555
B2 Sm3 2.847885 1_655
B2 Sm2 2.865704 1_655
B3 B5 1.830551 1_555
B3 Ir7 2.169862 1_555
B3 Ir1 2.266216 1_555
B3 Ir0 2.267032 1_655
B3 Ir3 2.342212 1_655
B3 Ir5 2.358617 1_555
B3 Sm1 2.847885 1_655
B3 Sm0 2.865704 1_555
B4 Ir0 2.169862 1_554
B4 Ir6 2.266220 1_555
B4 Ir7 2.267028 1_555
B4 Ir4 2.342207 1_555
B4 Ir2 2.358622 1_555
B4 Sm2 2.847882 1_555
B4 Sm3 2.865708 1_555
B5 Ir6 2.169862 1_545
B5 Ir0 2.266220 1_655
B5 Ir1 2.267028 1_555
B5 Ir5 2.342207 1_555
B5 Ir3 2.358622 1_655
B5 Sm0 2.847882 1_545
B5 Sm1 2.865708 1_645
B6 B7 1.830551 1_555
B6 Ir5 2.169862 1_555
B6 Ir4 2.266216 1_555
B6 Ir2 2.267032 1_545
B6 Ir6 2.342212 1_545
B6 Ir7 2.358617 1_555
B6 Sm3 2.847885 1_545
B6 Sm2 2.865704 1_555
B7 Ir3 2.169862 1_655
B7 Ir2 2.266220 1_545
B7 Ir4 2.267028 1_555
B7 Ir7 2.342207 1_555
B7 Ir6 2.358622 1_545
B7 Sm2 2.847882 1_655
B7 Sm3 2.865708 1_645
Ir0 Sm2 3.041226 1_556
Ir0 Sm3 3.055893 1_556
Ir1 Sm3 3.041226 1_656
Ir1 Sm2 3.055893 1_656
Ir2 Sm0 3.041226 1_554
Ir2 Sm1 3.055893 1_554
Ir3 Sm2 3.041226 1_555
Ir3 Sm3 3.055893 1_545
Ir4 Sm1 3.041226 1_544
Ir4 Sm0 3.055893 1_544
Ir5 Sm3 3.041226 1_545
Ir5 Sm2 3.055893 1_555
Ir6 Sm0 3.041226 1_555
Ir6 Sm1 3.055893 1_655
Ir7 Sm1 3.041226 1_655
Ir7 Sm0 3.055893 1_555
