# generated using pymatgen
data_Ba5Cr3F18
_symmetry_space_group_name_H-M   'P 1'
_cell_length_a   15.64733668
_cell_length_b   16.75550153
_cell_length_c   16.75550153
_cell_angle_alpha   77.40695053
_cell_angle_beta   62.16471488
_cell_angle_gamma   62.16471488
_symmetry_Int_Tables_number   1
_chemical_formula_structural   Ba5Cr3F18
_chemical_formula_sum   'Ba40 Cr24 F144'
_cell_volume   3435.17006126
_cell_formula_units_Z   8
loop_
 _symmetry_equiv_pos_site_id
 _symmetry_equiv_pos_as_xyz
  1  'x, y, z'
loop_
 _atom_site_type_symbol
 _atom_site_label
 _atom_site_symmetry_multiplicity
 _atom_site_fract_x
 _atom_site_fract_y
 _atom_site_fract_z
 _atom_site_occupancy
  Ba  Ba0  1  0.01840740  0.24416728  0.72661517  1
  Ba  Ba1  1  0.48918985  0.25583272  0.77338483  1
  Ba  Ba2  1  0.24502256  0.27338483  0.74416728  1
  Ba  Ba3  1  0.76257468  0.22661517  0.75583272  1
  Ba  Ba4  1  0.98159260  0.75583272  0.27338483  1
  Ba  Ba5  1  0.51081015  0.74416728  0.22661517  1
  Ba  Ba6  1  0.75497744  0.72661517  0.25583272  1
  Ba  Ba7  1  0.23742532  0.77338483  0.24416728  1
  Ba  Ba8  1  0.49082027  0.54626253  0.67724233  1
  Ba  Ba9  1  0.21432513  0.95373747  0.82275767  1
  Ba  Ba10  1  0.66806260  0.32275767  0.04626253  1
  Ba  Ba11  1  0.53708280  0.17724233  0.45373747  1
  Ba  Ba12  1  0.50917973  0.45373747  0.32275767  1
  Ba  Ba13  1  0.78567487  0.04626253  0.17724233  1
  Ba  Ba14  1  0.33193740  0.67724233  0.95373747  1
  Ba  Ba15  1  0.46291720  0.82275767  0.54626253  1
  Ba  Ba16  1  0.00808367  0.53172095  0.69153223  1
  Ba  Ba17  1  0.73133685  0.96827905  0.80846777  1
  Ba  Ba18  1  0.19961590  0.30846777  0.03172095  1
  Ba  Ba19  1  0.03980462  0.19153223  0.46827905  1
  Ba  Ba20  1  0.99191633  0.46827905  0.30846777  1
  Ba  Ba21  1  0.26866315  0.03172095  0.19153223  1
  Ba  Ba22  1  0.80038410  0.69153223  0.96827905  1
  Ba  Ba23  1  0.96019538  0.80846777  0.53172095  1
  Ba  Ba24  1  0.72529017  0.32255041  0.47134255  1
  Ba  Ba25  1  0.01918312  0.17744959  0.02865745  1
  Ba  Ba26  1  0.69663272  0.52865745  0.82255041  1
  Ba  Ba27  1  0.54784057  0.97134255  0.67744959  1
  Ba  Ba28  1  0.27470983  0.67744959  0.52865745  1
  Ba  Ba29  1  0.98081688  0.82255041  0.97134255  1
  Ba  Ba30  1  0.30336728  0.47134255  0.17744959  1
  Ba  Ba31  1  0.45215943  0.02865745  0.32255041  1
  Ba  Ba32  1  0.21404979  0.33717607  0.46943193  1
  Ba  Ba33  1  0.52065779  0.16282393  0.03056807  1
  Ba  Ba34  1  0.18348171  0.53056807  0.83717607  1
  Ba  Ba35  1  0.05122586  0.96943193  0.66282393  1
  Ba  Ba36  1  0.78595021  0.66282393  0.53056807  1
  Ba  Ba37  1  0.47934221  0.83717607  0.96943193  1
  Ba  Ba38  1  0.81651829  0.46943193  0.16282393  1
  Ba  Ba39  1  0.94877414  0.03056807  0.33717607  1
  Cr  Cr0  1  0.78043477  0.25000000  0.25000000  1
  Cr  Cr1  1  0.53043477  0.75000000  0.75000000  1
  Cr  Cr2  1  0.21956523  0.75000000  0.75000000  1
  Cr  Cr3  1  0.46956523  0.25000000  0.25000000  1
  Cr  Cr4  1  0.00674234  0.25000000  0.25000000  1
  Cr  Cr5  1  0.75674234  0.75000000  0.75000000  1
  Cr  Cr6  1  0.99325766  0.75000000  0.75000000  1
  Cr  Cr7  1  0.24325766  0.25000000  0.25000000  1
  Cr  Cr8  1  0.40570358  0.38727169  0.57517109  1
  Cr  Cr9  1  0.86814635  0.11272831  0.92482891  1
  Cr  Cr10  1  0.48087467  0.42482891  0.88727169  1
  Cr  Cr11  1  0.29297526  0.07517109  0.61272831  1
  Cr  Cr12  1  0.59429642  0.61272831  0.42482891  1
  Cr  Cr13  1  0.13185365  0.88727169  0.07517109  1
  Cr  Cr14  1  0.51912533  0.57517109  0.11272831  1
  Cr  Cr15  1  0.70702474  0.92482891  0.38727169  1
  Cr  Cr16  1  0.85350346  0.41797802  0.60217508  1
  Cr  Cr17  1  0.37365656  0.08202198  0.89782492  1
  Cr  Cr18  1  0.95567854  0.39782492  0.91797802  1
  Cr  Cr19  1  0.77148148  0.10217508  0.58202198  1
  Cr  Cr20  1  0.14649654  0.58202198  0.39782492  1
  Cr  Cr21  1  0.62634344  0.91797802  0.10217508  1
  Cr  Cr22  1  0.04432146  0.60217508  0.08202198  1
  Cr  Cr23  1  0.22851852  0.89782492  0.41797802  1
  F  F0  1  0.11882373  0.35312106  0.65759064  1
  F  F1  1  0.62953543  0.14687894  0.84240936  1
  F  F2  1  0.27641437  0.34240936  0.85312106  1
  F  F3  1  0.97194479  0.15759064  0.64687894  1
  F  F4  1  0.88117627  0.64687894  0.34240936  1
  F  F5  1  0.37046457  0.85312106  0.15759064  1
  F  F6  1  0.72358563  0.65759064  0.14687894  1
  F  F7  1  0.02805521  0.84240936  0.35312106  1
  F  F8  1  0.68712418  0.32886375  0.18791930  1
  F  F9  1  0.70390722  0.17113625  0.31208070  1
  F  F10  1  0.37504347  0.81208070  0.82886375  1
  F  F11  1  0.51598792  0.68791930  0.67113625  1
  F  F12  1  0.31287582  0.67113625  0.81208070  1
  F  F13  1  0.29609278  0.82886375  0.68791930  1
  F  F14  1  0.62495653  0.18791930  0.17113625  1
  F  F15  1  0.48401208  0.31208070  0.32886375  1
  F  F16  1  0.70656362  0.39404887  0.31712138  1
  F  F17  1  0.91773387  0.10595113  0.18287862  1
  F  F18  1  0.52368500  0.68287862  0.89404887  1
  F  F19  1  0.60061249  0.81712138  0.60595113  1
  F  F20  1  0.29343638  0.60595113  0.68287862  1
  F  F21  1  0.08226613  0.89404887  0.81712138  1
  F  F22  1  0.47631500  0.31712138  0.10595113  1
  F  F23  1  0.39938751  0.18287862  0.39404887  1
  F  F24  1  0.85656743  0.20877673  0.33245162  1
  F  F25  1  0.89779579  0.29122327  0.16754838  1
  F  F26  1  0.68901905  0.66754838  0.70877673  1
  F  F27  1  0.56534417  0.83245162  0.79122327  1
  F  F28  1  0.14343257  0.79122327  0.66754838  1
  F  F29  1  0.10220421  0.70877673  0.83245162  1
  F  F30  1  0.31098095  0.33245162  0.29122327  1
  F  F31  1  0.43465583  0.16754838  0.20877673  1
  F  F32  1  0.93010503  0.31788472  0.36741233  1
  F  F33  1  0.11540209  0.18211528  0.13258767  1
  F  F34  1  0.79751736  0.63258767  0.81788472  1
  F  F35  1  0.74798976  0.86741233  0.68211528  1
  F  F36  1  0.06989497  0.68211528  0.63258767  1
  F  F37  1  0.88459791  0.81788472  0.86741233  1
  F  F38  1  0.20248264  0.36741233  0.18211528  1
  F  F39  1  0.25201024  0.13258767  0.31788472  1
  F  F40  1  0.00626436  0.36963652  0.18859426  1
  F  F41  1  0.06449514  0.13036348  0.31140574  1
  F  F42  1  0.69485863  0.81140574  0.86963652  1
  F  F43  1  0.87590088  0.68859426  0.63036348  1
  F  F44  1  0.99373564  0.63036348  0.81140574  1
  F  F45  1  0.93550486  0.86963652  0.68859426  1
  F  F46  1  0.30514137  0.18859426  0.13036348  1
  F  F47  1  0.12409912  0.31140574  0.36963652  1
  F  F48  1  0.37506203  0.49924718  0.50799987  1
  F  F49  1  0.88230908  0.00075282  0.99200013  1
  F  F50  1  0.38306190  0.49200013  0.99924718  1
  F  F51  1  0.37430921  0.00799987  0.50075282  1
  F  F52  1  0.62493797  0.50075282  0.49200013  1
  F  F53  1  0.11769092  0.99924718  0.00799987  1
  F  F54  1  0.61693810  0.50799987  0.00075282  1
  F  F55  1  0.62569079  0.99200013  0.49924718  1
  F  F56  1  0.44268158  0.26730660  0.63307948  1
  F  F57  1  0.84306766  0.23269340  0.86692052  1
  F  F58  1  0.57576106  0.36692052  0.76730660  1
  F  F59  1  0.20998818  0.13307948  0.73269340  1
  F  F60  1  0.55731842  0.73269340  0.36692052  1
  F  F61  1  0.15693234  0.76730660  0.13307948  1
  F  F62  1  0.42423894  0.63307948  0.23269340  1
  F  F63  1  0.79001182  0.86692052  0.26730660  1
  F  F64  1  0.26723324  0.43400433  0.67916956  1
  F  F65  1  0.88040712  0.06599567  0.82083044  1
  F  F66  1  0.44640280  0.32083044  0.93400433  1
  F  F67  1  0.20123757  0.17916956  0.56599567  1
  F  F68  1  0.73276676  0.56599567  0.32083044  1
  F  F69  1  0.11959288  0.93400433  0.17916956  1
  F  F70  1  0.55359720  0.67916956  0.06599567  1
  F  F71  1  0.79876243  0.82083044  0.43400433  1
  F  F72  1  0.54248383  0.33703236  0.46906685  1
  F  F73  1  0.84858304  0.16296764  0.03093315  1
  F  F74  1  0.51155068  0.53093315  0.83703236  1
  F  F75  1  0.37951619  0.96906685  0.66296764  1
  F  F76  1  0.45751617  0.66296764  0.53093315  1
  F  F77  1  0.15141696  0.83703236  0.96906685  1
  F  F78  1  0.48844932  0.46906685  0.16296764  1
  F  F79  1  0.62048381  0.03093315  0.33703236  1
  F  F80  1  0.34551636  0.34047683  0.52710413  1
  F  F81  1  0.71309731  0.15952317  0.97289587  1
  F  F82  1  0.37262048  0.47289587  0.84047683  1
  F  F83  1  0.18599319  0.02710413  0.65952317  1
  F  F84  1  0.65448364  0.65952317  0.47289587  1
  F  F85  1  0.28690269  0.84047683  0.02710413  1
  F  F86  1  0.62737952  0.52710413  0.15952317  1
  F  F87  1  0.81400681  0.97289587  0.34047683  1
  F  F88  1  0.48100904  0.40721245  0.62913924  1
  F  F89  1  0.01736073  0.09278755  0.87086076  1
  F  F90  1  0.61014828  0.37086076  0.90721245  1
  F  F91  1  0.38822149  0.12913924  0.59278755  1
  F  F92  1  0.51899096  0.59278755  0.37086076  1
  F  F93  1  0.98263927  0.90721245  0.12913924  1
  F  F94  1  0.38985172  0.62913924  0.09278755  1
  F  F95  1  0.61177851  0.87086076  0.40721245  1
  F  F96  1  0.87878170  0.48051480  0.48655337  1
  F  F97  1  0.34584987  0.01948520  0.01344663  1
  F  F98  1  0.86533506  0.51344663  0.98051480  1
  F  F99  1  0.85929650  0.98655337  0.51948520  1
  F  F100  1  0.12121830  0.51948520  0.51344663  1
  F  F101  1  0.65415013  0.98051480  0.98655337  1
  F  F102  1  0.13466494  0.48655337  0.01948520  1
  F  F103  1  0.14070350  0.01344663  0.48051480  1
  F  F104  1  0.82533972  0.36256252  0.72328650  1
  F  F105  1  0.41118875  0.13743748  0.77671350  1
  F  F106  1  0.04862622  0.27671350  0.86256252  1
  F  F107  1  0.68790225  0.22328650  0.63743748  1
  F  F108  1  0.17466028  0.63743748  0.27671350  1
  F  F109  1  0.58881125  0.86256252  0.22328650  1
  F  F110  1  0.95137378  0.72328650  0.13743748  1
  F  F111  1  0.31209775  0.77671350  0.36256252  1
  F  F112  1  0.70425587  0.50055796  0.64983342  1
  F  F113  1  0.35464725  0.99944204  0.85016658  1
  F  F114  1  0.85408929  0.35016658  0.00055796  1
  F  F115  1  0.70481383  0.14983342  0.49944204  1
  F  F116  1  0.29574413  0.49944204  0.35016658  1
  F  F117  1  0.64535275  0.00055796  0.14983342  1
  F  F118  1  0.14591071  0.64983342  0.99944204  1
  F  F119  1  0.29518617  0.85016658  0.50055796  1
  F  F120  1  0.00461179  0.33160012  0.56313279  1
  F  F121  1  0.39934470  0.16839988  0.93686721  1
  F  F122  1  0.06774459  0.43686721  0.83160012  1
  F  F123  1  0.83621191  0.06313279  0.66839988  1
  F  F124  1  0.99538821  0.66839988  0.43686721  1
  F  F125  1  0.60065530  0.83160012  0.06313279  1
  F  F126  1  0.93225541  0.56313279  0.16839988  1
  F  F127  1  0.16378809  0.93686721  0.33160012  1
  F  F128  1  0.82787763  0.32879031  0.56878433  1
  F  F129  1  0.22545227  0.17120969  0.93121567  1
  F  F130  1  0.89666196  0.43121567  0.82879031  1
  F  F131  1  0.65666794  0.06878433  0.67120969  1
  F  F132  1  0.17212237  0.67120969  0.43121567  1
  F  F133  1  0.77454773  0.82879031  0.06878433  1
  F  F134  1  0.10333804  0.56878433  0.17120969  1
  F  F135  1  0.34333206  0.93121567  0.32879031  1
  F  F136  1  0.88050260  0.50169106  0.64261263  1
  F  F137  1  0.52480629  0.99830894  0.85738737  1
  F  F138  1  0.02311523  0.35738737  0.00169106  1
  F  F139  1  0.88219366  0.14261263  0.49830894  1
  F  F140  1  0.11949740  0.49830894  0.35738737  1
  F  F141  1  0.47519371  0.00169106  0.14261263  1
  F  F142  1  0.97688477  0.64261263  0.99830894  1
  F  F143  1  0.11780634  0.85738737  0.50169106  1
loop_
_geom_bond_atom_site_label_1
_geom_bond_atom_site_label_2
_geom_bond_distance
_geom_bond_site_symmetry_2
Ba0 F3 2.674864 1_455
Ba0 F0 2.683314 1_555
Ba0 F57 2.713513 1_455
Ba0 F59 2.730022 1_555
Ba0 F106 2.738236 1_555
Ba0 F104 2.752702 1_455
Ba0 F67 2.791359 1_555
Ba0 F120 2.864120 1_555
Ba0 F89 3.099023 1_555
Ba0 F130 3.178191 1_455
Ba1 F2 2.674864 1_555
Ba1 F1 2.683314 1_555
Ba1 F56 2.713513 1_555
Ba1 F58 2.730022 1_555
Ba1 F107 2.738236 1_555
Ba1 F105 2.752702 1_555
Ba1 F66 2.791359 1_555
Ba1 F121 2.864120 1_555
Ba1 F88 3.099023 1_555
Ba1 F131 3.178191 1_555
Ba2 F0 2.674864 1_555
Ba2 F2 2.683314 1_555
Ba2 F59 2.713513 1_555
Ba2 F56 2.730022 1_555
Ba2 F105 2.738236 1_555
Ba2 F106 2.752702 1_555
Ba2 F64 2.791359 1_555
Ba2 F122 2.864120 1_555
Ba2 F91 3.099023 1_555
Ba2 F129 3.178191 1_555
Ba3 F1 2.674864 1_555
Ba3 F3 2.683314 1_555
Ba3 F58 2.713513 1_555
Ba3 F57 2.730022 1_555
Ba3 F104 2.738236 1_555
Ba3 F107 2.752702 1_555
Ba3 F65 2.791359 1_555
Ba3 F123 2.864120 1_555
Ba3 F90 3.099023 1_555
Ba3 F128 3.178191 1_555
Ba4 F7 2.674864 1_655
Ba4 F4 2.683314 1_555
Ba4 F61 2.713513 1_655
Ba4 F63 2.730022 1_555
Ba4 F110 2.738236 1_555
Ba4 F108 2.752702 1_655
Ba4 F71 2.791359 1_555
Ba4 F124 2.864120 1_555
Ba4 F93 3.099023 1_555
Ba4 F134 3.178191 1_655
Ba5 F6 2.674864 1_555
Ba5 F5 2.683314 1_555
Ba5 F60 2.713513 1_555
Ba5 F62 2.730022 1_555
Ba5 F111 2.738236 1_555
Ba5 F109 2.752702 1_555
Ba5 F70 2.791359 1_555
Ba5 F125 2.864120 1_555
Ba5 F92 3.099023 1_555
Ba5 F135 3.178191 1_555
Ba6 F4 2.674864 1_555
Ba6 F6 2.683314 1_555
Ba6 F63 2.713513 1_555
Ba6 F60 2.730022 1_555
Ba6 F109 2.738236 1_555
Ba6 F110 2.752702 1_555
Ba6 F68 2.791359 1_555
Ba6 F126 2.864120 1_555
Ba6 F95 3.099023 1_555
Ba6 F133 3.178191 1_555
Ba7 F5 2.674864 1_555
Ba7 F7 2.683314 1_555
Ba7 F62 2.713513 1_555
Ba7 F61 2.730022 1_555
Ba7 F108 2.738236 1_555
Ba7 F111 2.752702 1_555
Ba7 F69 2.791359 1_555
Ba7 F127 2.864120 1_555
Ba7 F94 3.099023 1_555
Ba7 F132 3.178191 1_555
Ba8 F11 2.555108 1_555
Ba8 F88 2.714741 1_555
Ba8 F20 2.726240 1_555
Ba8 F74 2.787978 1_555
Ba8 F12 2.825069 1_555
Ba8 F52 2.841484 1_555
Ba8 F76 2.873363 1_555
Ba8 F112 2.878122 1_555
Ba8 F82 2.888882 1_555
Ba8 F58 3.039665 1_555
Ba9 F10 2.555108 1_555
Ba9 F89 2.714741 1_565
Ba9 F21 2.726240 1_555
Ba9 F75 2.787978 1_555
Ba9 F13 2.825069 1_555
Ba9 F53 2.841484 1_556
Ba9 F77 2.873363 1_555
Ba9 F113 2.878122 1_555
Ba9 F83 2.888882 1_565
Ba9 F59 3.039665 1_565
Ba10 F8 2.555108 1_555
Ba10 F90 2.714741 1_554
Ba10 F22 2.726240 1_555
Ba10 F73 2.787978 1_555
Ba10 F14 2.825069 1_555
Ba10 F54 2.841484 1_555
Ba10 F78 2.873363 1_555
Ba10 F114 2.878122 1_555
Ba10 F81 2.888882 1_554
Ba10 F57 3.039665 1_554
Ba11 F9 2.555108 1_555
Ba11 F91 2.714741 1_555
Ba11 F23 2.726240 1_555
Ba11 F72 2.787978 1_555
Ba11 F15 2.825069 1_555
Ba11 F55 2.841484 1_545
Ba11 F79 2.873363 1_555
Ba11 F115 2.878122 1_555
Ba11 F80 2.888882 1_555
Ba11 F56 3.039665 1_555
Ba12 F15 2.555108 1_555
Ba12 F92 2.714741 1_555
Ba12 F16 2.726240 1_555
Ba12 F78 2.787978 1_555
Ba12 F8 2.825069 1_555
Ba12 F48 2.841484 1_555
Ba12 F72 2.873363 1_555
Ba12 F116 2.878122 1_555
Ba12 F86 2.888882 1_555
Ba12 F62 3.039665 1_555
Ba13 F14 2.555108 1_555
Ba13 F93 2.714741 1_545
Ba13 F17 2.726240 1_555
Ba13 F79 2.787978 1_555
Ba13 F9 2.825069 1_555
Ba13 F49 2.841484 1_554
Ba13 F73 2.873363 1_555
Ba13 F117 2.878122 1_555
Ba13 F87 2.888882 1_545
Ba13 F63 3.039665 1_545
Ba14 F12 2.555108 1_555
Ba14 F94 2.714741 1_556
Ba14 F18 2.726240 1_555
Ba14 F77 2.787978 1_555
Ba14 F10 2.825069 1_555
Ba14 F50 2.841484 1_555
Ba14 F74 2.873363 1_555
Ba14 F118 2.878122 1_555
Ba14 F85 2.888882 1_556
Ba14 F61 3.039665 1_556
Ba15 F13 2.555108 1_555
Ba15 F95 2.714741 1_555
Ba15 F19 2.726240 1_555
Ba15 F76 2.787978 1_555
Ba15 F11 2.825069 1_555
Ba15 F51 2.841484 1_565
Ba15 F75 2.873363 1_555
Ba15 F119 2.878122 1_555
Ba15 F84 2.888882 1_555
Ba15 F60 3.039665 1_555
Ba16 F100 2.659788 1_555
Ba16 F0 2.694546 1_555
Ba16 F44 2.737943 1_455
Ba16 F136 2.748862 1_455
Ba16 F122 2.817695 1_555
Ba16 F43 2.822281 1_455
Ba16 F34 2.835511 1_455
Ba16 F130 2.910897 1_455
Ba16 F36 2.925695 1_555
Ba17 F101 2.659788 1_555
Ba17 F1 2.694546 1_565
Ba17 F45 2.737943 1_555
Ba17 F137 2.748862 1_555
Ba17 F123 2.817695 1_565
Ba17 F42 2.822281 1_555
Ba17 F35 2.835511 1_555
Ba17 F131 2.910897 1_565
Ba17 F37 2.925695 1_555
Ba18 F102 2.659788 1_555
Ba18 F2 2.694546 1_554
Ba18 F46 2.737943 1_555
Ba18 F138 2.748862 1_555
Ba18 F121 2.817695 1_554
Ba18 F40 2.822281 1_555
Ba18 F33 2.835511 1_555
Ba18 F129 2.910897 1_554
Ba18 F38 2.925695 1_555
Ba19 F103 2.659788 1_555
Ba19 F3 2.694546 1_455
Ba19 F47 2.737943 1_555
Ba19 F139 2.748862 1_455
Ba19 F120 2.817695 1_555
Ba19 F41 2.822281 1_555
Ba19 F32 2.835511 1_455
Ba19 F128 2.910897 1_455
Ba19 F39 2.925695 1_555
Ba20 F96 2.659788 1_555
Ba20 F4 2.694546 1_555
Ba20 F40 2.737943 1_655
Ba20 F140 2.748862 1_655
Ba20 F126 2.817695 1_555
Ba20 F47 2.822281 1_655
Ba20 F38 2.835511 1_655
Ba20 F134 2.910897 1_655
Ba20 F32 2.925695 1_555
Ba21 F97 2.659788 1_555
Ba21 F5 2.694546 1_545
Ba21 F41 2.737943 1_555
Ba21 F141 2.748862 1_555
Ba21 F127 2.817695 1_545
Ba21 F46 2.822281 1_555
Ba21 F39 2.835511 1_555
Ba21 F135 2.910897 1_545
Ba21 F33 2.925695 1_555
Ba22 F98 2.659788 1_555
Ba22 F6 2.694546 1_556
Ba22 F42 2.737943 1_555
Ba22 F142 2.748862 1_555
Ba22 F125 2.817695 1_556
Ba22 F44 2.822281 1_555
Ba22 F37 2.835511 1_555
Ba22 F133 2.910897 1_556
Ba22 F34 2.925695 1_555
Ba23 F99 2.659788 1_555
Ba23 F7 2.694546 1_655
Ba23 F43 2.737943 1_555
Ba23 F143 2.748862 1_655
Ba23 F124 2.817695 1_555
Ba23 F45 2.822281 1_555
Ba23 F36 2.835511 1_655
Ba23 F132 2.910897 1_655
Ba23 F35 2.925695 1_555
Ba24 F52 2.658107 1_555
Ba24 F24 2.661352 1_555
Ba24 F16 2.688455 1_555
Ba24 F72 2.773453 1_555
Ba24 F32 2.814786 1_555
Ba24 F128 2.816377 1_555
Ba24 F107 2.867668 1_555
Ba24 F115 2.971569 1_555
Ba24 F139 2.975081 1_555
Ba24 F88 3.278305 1_555
Ba25 F53 2.658107 1_545
Ba25 F25 2.661352 1_455
Ba25 F17 2.688455 1_455
Ba25 F73 2.773453 1_455
Ba25 F33 2.814786 1_555
Ba25 F129 2.816377 1_554
Ba25 F106 2.867668 1_554
Ba25 F114 2.971569 1_455
Ba25 F138 2.975081 1_555
Ba25 F89 3.278305 1_554
Ba26 F54 2.658107 1_556
Ba26 F26 2.661352 1_555
Ba26 F18 2.688455 1_555
Ba26 F74 2.773453 1_555
Ba26 F34 2.814786 1_555
Ba26 F130 2.816377 1_555
Ba26 F104 2.867668 1_555
Ba26 F112 2.971569 1_555
Ba26 F136 2.975081 1_555
Ba26 F90 3.278305 1_555
Ba27 F55 2.658107 1_555
Ba27 F27 2.661352 1_555
Ba27 F19 2.688455 1_555
Ba27 F75 2.773453 1_555
Ba27 F35 2.814786 1_555
Ba27 F131 2.816377 1_565
Ba27 F105 2.867668 1_565
Ba27 F113 2.971569 1_555
Ba27 F137 2.975081 1_555
Ba27 F91 3.278305 1_565
Ba28 F48 2.658107 1_555
Ba28 F28 2.661352 1_555
Ba28 F20 2.688455 1_555
Ba28 F76 2.773453 1_555
Ba28 F36 2.814786 1_555
Ba28 F132 2.816377 1_555
Ba28 F111 2.867668 1_555
Ba28 F119 2.971569 1_555
Ba28 F143 2.975081 1_555
Ba28 F92 3.278305 1_555
Ba29 F49 2.658107 1_565
Ba29 F29 2.661352 1_655
Ba29 F21 2.688455 1_655
Ba29 F77 2.773453 1_655
Ba29 F37 2.814786 1_555
Ba29 F133 2.816377 1_556
Ba29 F110 2.867668 1_556
Ba29 F118 2.971569 1_655
Ba29 F142 2.975081 1_555
Ba29 F93 3.278305 1_556
Ba30 F50 2.658107 1_554
Ba30 F30 2.661352 1_555
Ba30 F22 2.688455 1_555
Ba30 F78 2.773453 1_555
Ba30 F38 2.814786 1_555
Ba30 F134 2.816377 1_555
Ba30 F108 2.867668 1_555
Ba30 F116 2.971569 1_555
Ba30 F140 2.975081 1_555
Ba30 F94 3.278305 1_555
Ba31 F51 2.658107 1_555
Ba31 F31 2.661352 1_555
Ba31 F23 2.688455 1_555
Ba31 F79 2.773453 1_555
Ba31 F39 2.814786 1_555
Ba31 F135 2.816377 1_545
Ba31 F109 2.867668 1_545
Ba31 F117 2.971569 1_555
Ba31 F141 2.975081 1_555
Ba31 F95 3.278305 1_545
Ba32 F30 2.642790 1_555
Ba32 F80 2.674776 1_555
Ba32 F23 2.773272 1_555
Ba32 F100 2.796994 1_555
Ba32 F0 2.799937 1_555
Ba32 F67 2.827025 1_555
Ba32 F47 2.836139 1_555
Ba32 F120 2.937763 1_555
Ba32 F140 3.107423 1_555
Ba33 F31 2.642790 1_555
Ba33 F81 2.674776 1_554
Ba33 F22 2.773272 1_555
Ba33 F101 2.796994 1_544
Ba33 F1 2.799937 1_554
Ba33 F66 2.827025 1_554
Ba33 F46 2.836140 1_555
Ba33 F121 2.937763 1_554
Ba33 F141 3.107423 1_555
Ba34 F29 2.642790 1_555
Ba34 F82 2.674776 1_555
Ba34 F20 2.773272 1_555
Ba34 F102 2.796994 1_556
Ba34 F2 2.799937 1_555
Ba34 F64 2.827025 1_555
Ba34 F44 2.836139 1_455
Ba34 F122 2.937763 1_555
Ba34 F142 3.107422 1_455
Ba35 F28 2.642790 1_555
Ba35 F83 2.674776 1_565
Ba35 F21 2.773272 1_555
Ba35 F103 2.796994 1_565
Ba35 F3 2.799937 1_465
Ba35 F65 2.827025 1_465
Ba35 F45 2.836139 1_455
Ba35 F123 2.937763 1_465
Ba35 F143 3.107423 1_555
Ba36 F26 2.642790 1_555
Ba36 F84 2.674776 1_555
Ba36 F19 2.773272 1_555
Ba36 F96 2.796994 1_555
Ba36 F4 2.799937 1_555
Ba36 F71 2.827025 1_555
Ba36 F43 2.836139 1_555
Ba36 F124 2.937763 1_555
Ba36 F136 3.107423 1_555
Ba37 F27 2.642790 1_555
Ba37 F85 2.674776 1_556
Ba37 F18 2.773272 1_555
Ba37 F97 2.796994 1_566
Ba37 F5 2.799937 1_556
Ba37 F70 2.827025 1_556
Ba37 F42 2.836140 1_555
Ba37 F125 2.937763 1_556
Ba37 F137 3.107423 1_555
Ba38 F25 2.642790 1_555
Ba38 F86 2.674776 1_555
Ba38 F16 2.773272 1_555
Ba38 F98 2.796994 1_554
Ba38 F6 2.799937 1_555
Ba38 F68 2.827025 1_555
Ba38 F40 2.836139 1_655
Ba38 F126 2.937763 1_555
Ba38 F138 3.107422 1_655
Ba39 F24 2.642790 1_555
Ba39 F87 2.674776 1_545
Ba39 F17 2.773272 1_555
Ba39 F99 2.796994 1_545
Ba39 F7 2.799937 1_645
Ba39 F69 2.827025 1_645
Ba39 F41 2.836139 1_655
Ba39 F127 2.937763 1_645
Ba39 F139 3.107423 1_555
Cr0 F8 1.994268 1_555
Cr0 F9 1.994268 1_555
Cr0 F24 2.038928 1_555
Cr0 F25 2.038928 1_555
Cr0 F16 2.406396 1_555
Cr0 F17 2.406396 1_555
Cr1 F11 1.994268 1_555
Cr1 F10 1.994268 1_555
Cr1 F26 2.038928 1_555
Cr1 F27 2.038928 1_555
Cr1 F18 2.406396 1_555
Cr1 F19 2.406396 1_555
Cr2 F12 1.994268 1_555
Cr2 F13 1.994268 1_555
Cr2 F28 2.038928 1_555
Cr2 F29 2.038928 1_555
Cr2 F20 2.406396 1_555
Cr2 F21 2.406396 1_555
Cr3 F14 1.994268 1_555
Cr3 F15 1.994268 1_555
Cr3 F30 2.038928 1_555
Cr3 F31 2.038928 1_555
Cr3 F23 2.406396 1_555
Cr3 F22 2.406396 1_555
Cr4 F32 2.025075 1_455
Cr4 F33 2.025075 1_555
Cr4 F41 2.042255 1_555
Cr4 F40 2.042255 1_555
Cr4 F25 2.444465 1_455
Cr4 F24 2.444465 1_455
Cr5 F34 2.025075 1_555
Cr5 F35 2.025075 1_555
Cr5 F43 2.042255 1_555
Cr5 F42 2.042255 1_555
Cr5 F27 2.444465 1_555
Cr5 F26 2.444465 1_555
Cr6 F36 2.025075 1_655
Cr6 F37 2.025075 1_555
Cr6 F45 2.042255 1_555
Cr6 F44 2.042255 1_555
Cr6 F29 2.444465 1_655
Cr6 F28 2.444465 1_655
Cr7 F38 2.025075 1_555
Cr7 F39 2.025075 1_555
Cr7 F47 2.042255 1_555
Cr7 F46 2.042255 1_555
Cr7 F31 2.444465 1_555
Cr7 F30 2.444465 1_555
Cr8 F48 1.939029 1_555
Cr8 F88 1.952497 1_555
Cr8 F80 1.955404 1_555
Cr8 F64 1.956758 1_555
Cr8 F72 1.966391 1_555
Cr8 F56 1.975944 1_555
Cr9 F49 1.939029 1_555
Cr9 F89 1.952497 1_655
Cr9 F81 1.955404 1_555
Cr9 F65 1.956758 1_555
Cr9 F73 1.966391 1_556
Cr9 F57 1.975944 1_555
Cr10 F50 1.939029 1_555
Cr10 F90 1.952497 1_555
Cr10 F82 1.955404 1_555
Cr10 F66 1.956758 1_555
Cr10 F74 1.966391 1_555
Cr10 F58 1.975944 1_555
Cr11 F51 1.939029 1_555
Cr11 F91 1.952497 1_555
Cr11 F83 1.955403 1_555
Cr11 F67 1.956758 1_555
Cr11 F75 1.966391 1_545
Cr11 F59 1.975944 1_555
Cr12 F52 1.939029 1_555
Cr12 F92 1.952497 1_555
Cr12 F84 1.955404 1_555
Cr12 F68 1.956758 1_555
Cr12 F76 1.966391 1_555
Cr12 F60 1.975944 1_555
Cr13 F53 1.939029 1_555
Cr13 F93 1.952497 1_455
Cr13 F85 1.955404 1_555
Cr13 F69 1.956758 1_555
Cr13 F77 1.966391 1_554
Cr13 F61 1.975944 1_555
Cr14 F54 1.939029 1_555
Cr14 F94 1.952497 1_555
Cr14 F86 1.955404 1_555
Cr14 F70 1.956758 1_555
Cr14 F78 1.966391 1_555
Cr14 F62 1.975944 1_555
Cr15 F55 1.939029 1_555
Cr15 F95 1.952497 1_555
Cr15 F87 1.955403 1_555
Cr15 F71 1.956758 1_555
Cr15 F79 1.966391 1_565
Cr15 F63 1.975944 1_555
Cr16 F112 1.930967 1_555
Cr16 F96 1.947774 1_555
Cr16 F136 1.959615 1_555
Cr16 F128 1.959754 1_555
Cr16 F120 1.971261 1_655
Cr16 F104 1.974768 1_555
Cr17 F113 1.930967 1_545
Cr17 F97 1.947774 1_556
Cr17 F137 1.959615 1_545
Cr17 F129 1.959754 1_555
Cr17 F121 1.971261 1_555
Cr17 F105 1.974768 1_555
Cr18 F114 1.930967 1_556
Cr18 F98 1.947774 1_555
Cr18 F138 1.959615 1_656
Cr18 F130 1.959754 1_555
Cr18 F122 1.971261 1_655
Cr18 F106 1.974768 1_655
Cr19 F115 1.930967 1_555
Cr19 F99 1.947774 1_545
Cr19 F139 1.959615 1_555
Cr19 F131 1.959754 1_555
Cr19 F123 1.971261 1_555
Cr19 F107 1.974768 1_555
Cr20 F116 1.930967 1_555
Cr20 F100 1.947774 1_555
Cr20 F140 1.959615 1_555
Cr20 F132 1.959754 1_555
Cr20 F124 1.971261 1_455
Cr20 F108 1.974768 1_555
Cr21 F117 1.930967 1_565
Cr21 F101 1.947774 1_554
Cr21 F141 1.959615 1_565
Cr21 F133 1.959754 1_555
Cr21 F125 1.971261 1_555
Cr21 F109 1.974768 1_555
Cr22 F118 1.930967 1_554
Cr22 F102 1.947774 1_555
Cr22 F142 1.959615 1_454
Cr22 F134 1.959754 1_555
Cr22 F126 1.971261 1_455
Cr22 F110 1.974768 1_455
Cr23 F119 1.930967 1_555
Cr23 F103 1.947774 1_565
Cr23 F143 1.959615 1_555
Cr23 F135 1.959754 1_555
Cr23 F127 1.971261 1_555
Cr23 F111 1.974768 1_555
