# generated using pymatgen
data_Dy4BClO7
_symmetry_space_group_name_H-M   'P 1'
_cell_length_a   8.07211100
_cell_length_b   8.66313600
_cell_length_c   12.34320246
_cell_angle_alpha   59.69004581
_cell_angle_beta   90.00000000
_cell_angle_gamma   90.00000000
_symmetry_Int_Tables_number   1
_chemical_formula_structural   Dy4BClO7
_chemical_formula_sum   'Dy16 B4 Cl4 O28'
_cell_volume   745.17078091
_cell_formula_units_Z   4
loop_
 _symmetry_equiv_pos_site_id
 _symmetry_equiv_pos_as_xyz
  1  'x, y, z'
loop_
 _atom_site_type_symbol
 _atom_site_label
 _atom_site_symmetry_multiplicity
 _atom_site_fract_x
 _atom_site_fract_y
 _atom_site_fract_z
 _atom_site_occupancy
  Dy  Dy0  1  0.62631000  0.79798700  0.22042500  1
  Dy  Dy1  1  0.87369000  0.79798700  0.72042500  1
  Dy  Dy2  1  0.37369000  0.20201300  0.77957500  1
  Dy  Dy3  1  0.12631000  0.20201300  0.27957500  1
  Dy  Dy4  1  0.61742000  0.42254600  0.91046300  1
  Dy  Dy5  1  0.88258000  0.42254600  0.41046300  1
  Dy  Dy6  1  0.38258000  0.57745400  0.08953700  1
  Dy  Dy7  1  0.11742000  0.57745400  0.58953700  1
  Dy  Dy8  1  0.63787800  0.57082800  0.58074900  1
  Dy  Dy9  1  0.86212200  0.57082800  0.08074900  1
  Dy  Dy10  1  0.36212200  0.42917200  0.41925100  1
  Dy  Dy11  1  0.13787800  0.42917200  0.91925100  1
  Dy  Dy12  1  0.61472600  0.18283500  0.27909400  1
  Dy  Dy13  1  0.88527400  0.18283500  0.77909400  1
  Dy  Dy14  1  0.38527400  0.81716500  0.72090600  1
  Dy  Dy15  1  0.11472600  0.81716500  0.22090600  1
  B  B0  1  0.87095600  0.86992600  0.41299400  1
  B  B1  1  0.62904400  0.86992600  0.91299400  1
  B  B2  1  0.12904400  0.13007400  0.58700600  1
  B  B3  1  0.37095600  0.13007400  0.08700600  1
  Cl  Cl0  1  0.85498000  0.11807200  0.03268300  1
  Cl  Cl1  1  0.64502000  0.11807200  0.53268300  1
  Cl  Cl2  1  0.14502000  0.88192800  0.96731700  1
  Cl  Cl3  1  0.35498000  0.88192800  0.46731700  1
  O  O0  1  0.62222200  0.54201800  0.40293700  1
  O  O1  1  0.87777800  0.54201800  0.90293700  1
  O  O2  1  0.37777800  0.45798200  0.59706300  1
  O  O3  1  0.12222200  0.45798200  0.09706300  1
  O  O4  1  0.63694800  0.30852100  0.77579500  1
  O  O5  1  0.86305200  0.30852100  0.27579500  1
  O  O6  1  0.36305200  0.69147900  0.22420500  1
  O  O7  1  0.13694800  0.69147900  0.72420500  1
  O  O8  1  0.61702300  0.67757500  0.71842100  1
  O  O9  1  0.88297700  0.67757500  0.21842100  1
  O  O10  1  0.38297700  0.32242500  0.28157900  1
  O  O11  1  0.11702300  0.32242500  0.78157900  1
  O  O12  1  0.62244400  0.42943000  0.09258300  1
  O  O13  1  0.87755600  0.42943000  0.59258300  1
  O  O14  1  0.37755600  0.57057000  0.90741700  1
  O  O15  1  0.12244400  0.57057000  0.40741700  1
  O  O16  1  0.88833800  0.77552600  0.54263600  1
  O  O17  1  0.61166200  0.77552600  0.04263600  1
  O  O18  1  0.11166200  0.22447400  0.45736400  1
  O  O19  1  0.38833800  0.22447400  0.95736400  1
  O  O20  1  0.00811700  0.93316000  0.33678200  1
  O  O21  1  0.49188300  0.93316000  0.83678200  1
  O  O22  1  0.99188300  0.06684000  0.66321800  1
  O  O23  1  0.50811700  0.06684000  0.16321800  1
  O  O24  1  0.71454600  0.88801300  0.36351700  1
  O  O25  1  0.78545400  0.88801300  0.86351700  1
  O  O26  1  0.28545400  0.11198700  0.63648300  1
  O  O27  1  0.21454600  0.11198700  0.13648300  1
loop_
_geom_bond_atom_site_label_1
_geom_bond_atom_site_label_2
_geom_bond_distance
_geom_bond_site_symmetry_2
Dy0 O0 2.225114 1_555
Dy0 O23 2.274552 1_565
Dy0 O17 2.301872 1_555
Dy0 O6 2.307794 1_555
Dy0 O9 2.325371 1_555
Dy0 O24 2.371800 1_555
Dy1 O1 2.225114 1_555
Dy1 O22 2.274552 1_565
Dy1 O16 2.301872 1_555
Dy1 O7 2.307794 1_655
Dy1 O8 2.325371 1_555
Dy1 O25 2.371800 1_555
Dy2 O2 2.225114 1_555
Dy2 O21 2.274552 1_545
Dy2 O19 2.301872 1_555
Dy2 O4 2.307794 1_555
Dy2 O11 2.325371 1_555
Dy2 O26 2.371800 1_555
Dy3 O3 2.225114 1_555
Dy3 O20 2.274552 1_545
Dy3 O18 2.301872 1_555
Dy3 O5 2.307794 1_455
Dy3 O10 2.325371 1_555
Dy3 O27 2.371800 1_555
Dy4 O12 2.278984 1_556
Dy4 O8 2.283426 1_555
Dy4 O14 2.312159 1_555
Dy4 O1 2.323725 1_555
Dy4 O4 2.328301 1_555
Dy4 O19 2.386698 1_555
Dy5 O13 2.278984 1_555
Dy5 O9 2.283426 1_555
Dy5 O15 2.312159 1_655
Dy5 O0 2.323725 1_555
Dy5 O5 2.328301 1_555
Dy5 O18 2.386698 1_655
Dy6 O14 2.278984 1_554
Dy6 O10 2.283426 1_555
Dy6 O12 2.312159 1_555
Dy6 O3 2.323725 1_555
Dy6 O6 2.328301 1_555
Dy6 O17 2.386698 1_555
Dy7 O15 2.278984 1_555
Dy7 O11 2.283426 1_555
Dy7 O13 2.312159 1_455
Dy7 O2 2.323725 1_555
Dy7 O7 2.328301 1_555
Dy7 O16 2.386698 1_455
Dy8 O13 2.254846 1_555
Dy8 O2 2.281598 1_555
Dy8 O8 2.314597 1_555
Dy8 O4 2.331933 1_555
Dy8 O0 2.334134 1_555
Dy8 O16 2.571263 1_555
Dy8 O24 2.772422 1_555
Dy9 O12 2.254846 1_555
Dy9 O3 2.281598 1_655
Dy9 O9 2.314597 1_555
Dy9 O5 2.331933 1_555
Dy9 O1 2.334134 1_554
Dy9 O17 2.571263 1_555
Dy9 O25 2.772422 1_554
Dy10 O15 2.254846 1_555
Dy10 O0 2.281598 1_555
Dy10 O10 2.314597 1_555
Dy10 O6 2.331933 1_555
Dy10 O2 2.334134 1_555
Dy10 O18 2.571263 1_555
Dy10 O26 2.772422 1_555
Dy11 O14 2.254846 1_555
Dy11 O1 2.281598 1_455
Dy11 O11 2.314597 1_555
Dy11 O7 2.331933 1_555
Dy11 O3 2.334134 1_556
Dy11 O19 2.571263 1_555
Dy11 O27 2.772422 1_556
Dy12 O12 2.214366 1_555
Dy12 O10 2.236132 1_555
Dy12 O5 2.271684 1_555
Dy12 O23 2.290580 1_555
Dy12 O24 2.360524 1_545
Dy13 O13 2.214366 1_555
Dy13 O11 2.236132 1_655
Dy13 O4 2.271684 1_555
Dy13 O22 2.290580 1_555
Dy13 O25 2.360524 1_545
Dy14 O14 2.214366 1_555
Dy14 O8 2.236132 1_555
Dy14 O7 2.271684 1_555
Dy14 O21 2.290580 1_555
Dy14 O26 2.360524 1_565
Dy15 O15 2.214366 1_555
Dy15 O9 2.236132 1_455
Dy15 O6 2.271684 1_555
Dy15 O20 2.290580 1_555
Dy15 O27 2.360524 1_565
B0 O20 1.375031 1_655
B0 O24 1.376583 1_555
B0 O16 1.388608 1_555
B1 O21 1.375031 1_555
B1 O25 1.376583 1_555
B1 O17 1.388608 1_556
B2 O22 1.375031 1_455
B2 O26 1.376583 1_555
B2 O18 1.388608 1_555
B3 O23 1.375031 1_555
B3 O27 1.376583 1_555
B3 O19 1.388608 1_554
Cl0 Dy13 2.898194 1_554
Cl0 Dy4 2.982298 1_554
Cl0 Dy0 3.159186 1_545
Cl0 Dy15 3.236693 1_645
Cl0 Dy11 3.260352 1_654
Cl1 Dy12 2.898194 1_555
Cl1 Dy5 2.982298 1_555
Cl1 Dy1 3.159186 1_545
Cl1 Dy14 3.236693 1_545
Cl1 Dy10 3.260352 1_555
Cl2 Dy15 2.898194 1_556
Cl2 Dy6 2.982298 1_556
Cl2 Dy2 3.159186 1_565
Cl2 Dy13 3.236693 1_465
Cl2 Dy9 3.260352 1_456
Cl3 Dy14 2.898194 1_555
Cl3 Dy7 2.982298 1_555
Cl3 Dy3 3.159186 1_565
Cl3 Dy12 3.236693 1_565
Cl3 Dy8 3.260352 1_555
