# generated using pymatgen
data_YMg2Cr3S8
_symmetry_space_group_name_H-M   'P 1'
_cell_length_a   7.41941341
_cell_length_b   7.41895760
_cell_length_c   7.41912434
_cell_angle_alpha   59.43458259
_cell_angle_beta   59.43489118
_cell_angle_gamma   59.43556041
_symmetry_Int_Tables_number   1
_chemical_formula_structural   YMg2Cr3S8
_chemical_formula_sum   'Y1 Mg2 Cr3 S8'
_cell_volume   285.05674442
_cell_formula_units_Z   1
loop_
 _symmetry_equiv_pos_site_id
 _symmetry_equiv_pos_as_xyz
  1  'x, y, z'
loop_
 _atom_site_type_symbol
 _atom_site_label
 _atom_site_symmetry_multiplicity
 _atom_site_fract_x
 _atom_site_fract_y
 _atom_site_fract_z
 _atom_site_occupancy
  Y  Y0  1  0.50000900  0.49998000  0.50000500  1
  Mg  Mg0  1  0.87525200  0.87521400  0.87529700  1
  Mg  Mg1  1  0.12479600  0.12473700  0.12481500  1
  Cr  Cr0  1  0.49994500  0.50020800  0.99987200  1
  Cr  Cr1  1  0.99995500  0.49981800  0.50015600  1
  Cr  Cr2  1  0.50002000  0.00004000  0.49978900  1
  S  S0  1  0.73604200  0.73608300  0.73601400  1
  S  S1  1  0.24477200  0.24466600  0.72068100  1
  S  S2  1  0.24467700  0.72064200  0.24480600  1
  S  S3  1  0.72067600  0.24476300  0.24467600  1
  S  S4  1  0.75524100  0.27927700  0.75537900  1
  S  S5  1  0.27929900  0.75534500  0.75526600  1
  S  S6  1  0.26396200  0.26398000  0.26392600  1
  S  S7  1  0.75535500  0.75524000  0.27932000  1
loop_
_geom_bond_atom_site_label_1
_geom_bond_atom_site_label_2
_geom_bond_distance
_geom_bond_site_symmetry_2
Mg0 S7 2.438942 1_556
Mg0 S4 2.439119 1_565
Mg0 S5 2.439202 1_655
Mg0 S0 2.540599 1_555
Mg1 S2 2.439354 1_545
Mg1 S1 2.439629 1_554
Mg1 S3 2.439674 1_455
Mg1 S6 2.539966 1_555
Cr0 S5 2.435704 1_555
Cr0 S2 2.436364 1_556
Cr0 S4 2.436531 1_555
Cr0 S3 2.437263 1_556
Cr0 S0 2.471615 1_555
Cr0 S6 2.472900 1_556
Cr1 S4 2.435744 1_555
Cr1 S1 2.436214 1_655
Cr1 S7 2.436726 1_555
Cr1 S2 2.437215 1_655
Cr1 S6 2.472167 1_655
Cr1 S0 2.472389 1_555
Cr2 S7 2.435872 1_545
Cr2 S3 2.436292 1_555
Cr2 S5 2.436618 1_545
Cr2 S1 2.437000 1_555
Cr2 S6 2.471456 1_555
Cr2 S0 2.473075 1_545
S1 Y0 2.682397 1_555
S2 Y0 2.682357 1_555
S3 Y0 2.682350 1_555
S4 Y0 2.682744 1_555
S5 Y0 2.682764 1_555
S7 Y0 2.682698 1_555
