# generated using pymatgen
data_Li7Si2(NiO4)3
_symmetry_space_group_name_H-M   'P 1'
_cell_length_a   4.87570045
_cell_length_b   4.89662078
_cell_length_c   9.70626859
_cell_angle_alpha   85.15418738
_cell_angle_beta   99.77386884
_cell_angle_gamma   119.85793793
_symmetry_Int_Tables_number   1
_chemical_formula_structural   Li7Si2(NiO4)3
_chemical_formula_sum   'Li7 Si2 Ni3 O12'
_cell_volume   198.05533609
_cell_formula_units_Z   1
loop_
 _symmetry_equiv_pos_site_id
 _symmetry_equiv_pos_as_xyz
  1  'x, y, z'
loop_
 _atom_site_type_symbol
 _atom_site_label
 _atom_site_symmetry_multiplicity
 _atom_site_fract_x
 _atom_site_fract_y
 _atom_site_fract_z
 _atom_site_occupancy
  Li  Li0  1  0.58327400  0.66642900  0.74998800  1
  Li  Li1  1  0.33747400  0.65782300  0.99666900  1
  Li  Li2  1  0.82041200  0.65783100  0.50332300  1
  Li  Li3  1  0.17886000  0.34197400  0.50289100  1
  Li  Li4  1  0.66324500  0.34197400  0.99710700  1
  Li  Li5  1  0.50653000  0.99489500  0.50332200  1
  Li  Li6  1  0.98847900  0.99491200  0.99667600  1
  Si  Si0  1  0.91630500  0.33249300  0.74999700  1
  Si  Si1  1  0.24987400  0.99962500  0.74999300  1
  Ni  Ni0  1  0.41868600  0.33751200  0.25000000  1
  Ni  Ni1  1  0.08247000  0.66501500  0.25001800  1
  Ni  Ni2  1  0.75301400  0.00632300  0.24998900  1
  O  O0  1  0.46208000  0.65102700  0.36664500  1
  O  O1  1  0.68886300  0.65097400  0.13338900  1
  O  O2  1  0.17601000  0.66677400  0.64497600  1
  O  O3  1  0.99079700  0.66672400  0.85496000  1
  O  O4  1  0.06412800  0.32677900  0.13333600  1
  O  O5  1  0.76247700  0.32685300  0.36672200  1
  O  O6  1  0.40252200  0.02550600  0.14020900  1
  O  O7  1  0.12276600  0.02539300  0.35984200  1
  O  O8  1  0.24579900  0.29365000  0.85352200  1
  O  O9  1  0.91941300  0.03792400  0.64494100  1
  O  O10  1  0.61864200  0.03795000  0.85501800  1
  O  O11  1  0.54788500  0.29364200  0.64646800  1
loop_
_geom_bond_atom_site_label_1
_geom_bond_atom_site_label_2
_geom_bond_distance
_geom_bond_site_symmetry_2
Li0 O3 2.072723 1_555
Li0 O2 2.073111 1_555
Li0 O11 2.075778 1_555
Li0 O8 2.076091 1_555
Li0 O10 2.078407 1_565
Li0 O9 2.078504 1_565
Li1 O1 1.993794 1_556
Li1 O3 2.006180 1_455
Li1 O4 2.061405 1_556
Li1 O8 2.173535 1_555
Li1 O10 2.213849 1_565
Li1 O6 2.233465 1_566
Li2 O0 1.994008 1_555
Li2 O2 2.005884 1_655
Li2 O5 2.060194 1_555
Li2 O11 2.173709 1_555
Li2 O9 2.213337 1_565
Li2 O7 2.232439 1_665
Li3 O9 2.021857 1_455
Li3 O0 2.036418 1_555
Li3 O7 2.053842 1_555
Li3 O11 2.179996 1_555
Li3 O5 2.197668 1_455
Li3 O2 2.197880 1_555
Li4 O10 2.021941 1_555
Li4 O1 2.036807 1_556
Li4 O6 2.054507 1_556
Li4 O8 2.180373 1_555
Li4 O4 2.196598 1_656
Li4 O3 2.198093 1_555
Li5 O11 2.016343 1_565
Li5 O5 2.033549 1_565
Li5 O0 2.135059 1_555
Li5 O9 2.161835 1_565
Li5 O7 2.195731 1_565
Li5 O2 2.206773 1_555
Li6 O8 2.016347 1_665
Li6 O4 2.034087 1_666
Li6 O1 2.135914 1_556
Li6 O10 2.161982 1_565
Li6 O6 2.194986 1_666
Li6 O3 2.207155 1_555
Ni0 O5 1.878388 1_555
Ni0 O4 1.878419 1_555
Ni0 O1 1.889917 1_555
Ni0 O0 1.890041 1_555
Ni0 O6 1.898052 1_555
Ni0 O7 1.898830 1_555
Ni1 O1 2.028145 1_455
Ni1 O0 2.028204 1_555
Ni1 O4 2.041749 1_555
Ni1 O5 2.042055 1_455
Ni1 O7 2.047032 1_565
Ni1 O6 2.047222 1_565
Ni2 O6 1.894526 1_555
Ni2 O7 1.895331 1_655
Ni2 O4 1.989521 1_655
Ni2 O5 1.989945 1_555
Ni2 O0 2.018973 1_545
Ni2 O1 2.019143 1_545
O2 Si1 1.843017 1_555
O2 Si0 1.847794 1_455
O3 Si1 1.843086 1_655
O3 Si0 1.847307 1_555
O8 Si0 1.830475 1_455
O8 Si1 1.833763 1_545
O9 Si1 1.838939 1_645
O9 Si0 1.842829 1_555
O10 Si1 1.838820 1_545
O10 Si0 1.842624 1_555
O11 Si0 1.830811 1_555
O11 Si1 1.833593 1_545
