# generated using pymatgen
data_EuHfS3
_symmetry_space_group_name_H-M   'P 1'
_cell_length_a   6.60695663
_cell_length_b   7.07850207
_cell_length_c   9.64170674
_cell_angle_alpha   90.00000000
_cell_angle_beta   90.00000000
_cell_angle_gamma   90.00000000
_symmetry_Int_Tables_number   1
_chemical_formula_structural   EuHfS3
_chemical_formula_sum   'Eu4 Hf4 S12'
_cell_volume   450.91713331
_cell_formula_units_Z   4
loop_
 _symmetry_equiv_pos_site_id
 _symmetry_equiv_pos_as_xyz
  1  'x, y, z'
loop_
 _atom_site_type_symbol
 _atom_site_label
 _atom_site_symmetry_multiplicity
 _atom_site_fract_x
 _atom_site_fract_y
 _atom_site_fract_z
 _atom_site_occupancy
  Eu  Eu0  1  0.46889601  0.58916338  0.25000000  1
  Eu  Eu1  1  0.03110399  0.08916338  0.25000000  1
  Eu  Eu2  1  0.53110399  0.41083662  0.75000000  1
  Eu  Eu3  1  0.96889601  0.91083662  0.75000000  1
  Hf  Hf0  1  -0.00000000  0.50000000  0.00000000  1
  Hf  Hf1  1  0.50000000  0.00000000  0.50000000  1
  Hf  Hf2  1  -0.00000000  0.50000000  0.50000000  1
  Hf  Hf3  1  0.50000000  0.00000000  0.00000000  1
  S  S0  1  0.89374204  0.47874331  0.25000000  1
  S  S1  1  0.60625796  0.97874331  0.25000000  1
  S  S2  1  0.10625796  0.52125669  0.75000000  1
  S  S3  1  0.39374204  0.02125669  0.75000000  1
  S  S4  1  0.68617436  0.69337457  0.94696340  1
  S  S5  1  0.81382564  0.19337457  0.55303660  1
  S  S6  1  0.31382564  0.30662543  0.44696340  1
  S  S7  1  0.18617436  0.80662543  0.05303660  1
  S  S8  1  0.31382564  0.30662543  0.05303660  1
  S  S9  1  0.18617436  0.80662543  0.44696340  1
  S  S10  1  0.68617436  0.69337457  0.55303660  1
  S  S11  1  0.81382564  0.19337457  0.94696340  1
loop_
_geom_bond_atom_site_label_1
_geom_bond_atom_site_label_2
_geom_bond_distance
_geom_bond_site_symmetry_2
Eu0 S1 2.903141 1_555
Eu0 S0 2.913730 1_555
Eu0 S6 2.942093 1_555
Eu0 S8 2.942093 1_555
Eu0 S9 3.076534 1_555
Eu0 S7 3.076534 1_555
Eu0 S4 3.337933 1_554
Eu0 S10 3.337933 1_555
Eu1 S0 2.903141 1_455
Eu1 S1 2.913730 1_445
Eu1 S9 2.942093 1_545
Eu1 S7 2.942093 1_545
Eu1 S6 3.076534 1_555
Eu1 S8 3.076534 1_555
Eu1 S11 3.337933 1_454
Eu1 S5 3.337933 1_455
Eu2 S3 2.903141 1_555
Eu2 S2 2.913730 1_555
Eu2 S10 2.942093 1_555
Eu2 S4 2.942093 1_555
Eu2 S11 3.076534 1_555
Eu2 S5 3.076534 1_555
Eu2 S8 3.337933 1_556
Eu2 S6 3.337933 1_555
Eu3 S2 2.903141 1_655
Eu3 S3 2.913730 1_665
Eu3 S5 2.942093 1_565
Eu3 S11 2.942093 1_565
Eu3 S4 3.076534 1_555
Eu3 S10 3.076534 1_555
Eu3 S7 3.337933 1_656
Eu3 S9 3.337933 1_655
Hf0 S0 2.515086 1_455
Hf0 S2 2.515086 1_554
Hf0 S8 2.536579 1_555
Hf0 S4 2.536579 1_454
Hf0 S7 2.546636 1_555
Hf0 S11 2.546636 1_454
Hf1 S1 2.515086 1_545
Hf1 S3 2.515086 1_555
Hf1 S5 2.536579 1_555
Hf1 S9 2.536579 1_545
Hf1 S10 2.546636 1_545
Hf1 S6 2.546636 1_555
Hf2 S2 2.515086 1_555
Hf2 S0 2.515086 1_455
Hf2 S10 2.536579 1_455
Hf2 S6 2.536579 1_555
Hf2 S5 2.546636 1_455
Hf2 S9 2.546636 1_555
Hf3 S1 2.515086 1_545
Hf3 S3 2.515086 1_554
Hf3 S7 2.536579 1_545
Hf3 S11 2.536579 1_554
Hf3 S8 2.546636 1_555
Hf3 S4 2.546636 1_544
