# generated using pymatgen
data_CrN2
_symmetry_space_group_name_H-M   'P 1'
_cell_length_a   5.39587200
_cell_length_b   5.76015255
_cell_length_c   6.22582760
_cell_angle_alpha   76.78511726
_cell_angle_beta   83.35741830
_cell_angle_gamma   62.21038064
_symmetry_Int_Tables_number   1
_chemical_formula_structural   CrN2
_chemical_formula_sum   'Cr4 N8'
_cell_volume   166.64498609
_cell_formula_units_Z   4
loop_
 _symmetry_equiv_pos_site_id
 _symmetry_equiv_pos_as_xyz
  1  'x, y, z'
loop_
 _atom_site_type_symbol
 _atom_site_label
 _atom_site_symmetry_multiplicity
 _atom_site_fract_x
 _atom_site_fract_y
 _atom_site_fract_z
 _atom_site_occupancy
  Cr  Cr0  1  0.63140200  0.22283100  0.08130200  1
  Cr  Cr1  1  0.74545700  0.71759200  0.91550100  1
  Cr  Cr2  1  0.07542600  0.94147500  0.47798900  1
  Cr  Cr3  1  0.67231700  0.48955200  0.37938000  1
  N  N0  1  0.63575600  0.49490600  0.87399700  1
  N  N1  1  0.94042400  0.24892700  0.55815100  1
  N  N2  1  0.95281600  0.99699900  0.20813700  1
  N  N3  1  0.44312300  0.78209400  0.47710500  1
  N  N4  1  0.96266700  0.75768200  0.68989500  1
  N  N5  1  0.44298800  0.38721800  0.29293100  1
  N  N6  1  0.88051400  0.58844800  0.17575000  1
  N  N7  1  0.50972900  0.04617700  0.96870300  1
loop_
_geom_bond_atom_site_label_1
_geom_bond_atom_site_label_2
_geom_bond_distance
_geom_bond_site_symmetry_2
Cr0 N7 1.735923 1_554
Cr0 N5 1.740417 1_555
Cr0 N2 1.751306 1_545
Cr0 N0 1.795812 1_554
Cr1 N6 1.710648 1_556
Cr1 N0 1.719709 1_555
Cr1 N4 1.767222 1_555
Cr1 N7 1.803952 1_565
Cr2 N4 1.734315 1_455
Cr2 N1 1.741586 1_465
Cr2 N3 1.755178 1_555
Cr2 N2 1.782341 1_455
Cr3 N1 1.746486 1_555
Cr3 N3 1.758012 1_555
Cr3 N6 1.769412 1_555
Cr3 N5 1.774162 1_555
