# generated using pymatgen
data_Ca3NbGa3(SiO7)2
_symmetry_space_group_name_H-M   'P 1'
_cell_length_a   5.03760500
_cell_length_b   8.20439482
_cell_length_c   8.20439482
_cell_angle_alpha   119.99999051
_cell_angle_beta   90.00000000
_cell_angle_gamma   90.00000000
_symmetry_Int_Tables_number   1
_chemical_formula_structural   Ca3NbGa3(SiO7)2
_chemical_formula_sum   'Ca3 Nb1 Ga3 Si2 O14'
_cell_volume   293.66209207
_cell_formula_units_Z   1
loop_
 _symmetry_equiv_pos_site_id
 _symmetry_equiv_pos_as_xyz
  1  'x, y, z'
loop_
 _atom_site_type_symbol
 _atom_site_label
 _atom_site_symmetry_multiplicity
 _atom_site_fract_x
 _atom_site_fract_y
 _atom_site_fract_z
 _atom_site_occupancy
  Ca  Ca0  1  0.00000000  0.42606400  0.42606400  1
  Ca  Ca1  1  0.00000000  0.00000000  0.57393600  1
  Ca  Ca2  1  0.00000000  0.57393600  0.00000000  1
  Nb  Nb0  1  0.00000000  0.00000000  0.00000000  1
  Ga  Ga0  1  0.50000000  0.74628300  0.74628300  1
  Ga  Ga1  1  0.50000000  0.00000000  0.25371700  1
  Ga  Ga2  1  0.50000000  0.25371700  0.00000000  1
  Si  Si0  1  0.45657200  0.66666700  0.33333300  1
  Si  Si1  1  0.54342800  0.33333300  0.66666700  1
  O  O0  1  0.77651100  0.66666700  0.33333300  1
  O  O1  1  0.22348900  0.33333300  0.66666700  1
  O  O2  1  0.76309100  0.85711200  0.08302200  1
  O  O3  1  0.76309100  0.22591100  0.14288800  1
  O  O4  1  0.23690900  0.77408900  0.91697800  1
  O  O5  1  0.76309100  0.91697800  0.77408900  1
  O  O6  1  0.23690900  0.08302200  0.85711200  1
  O  O7  1  0.23690900  0.14288800  0.22591100  1
  O  O8  1  0.68473000  0.52241600  0.67794300  1
  O  O9  1  0.68473000  0.15552700  0.47758400  1
  O  O10  1  0.31527000  0.84447300  0.32205700  1
  O  O11  1  0.68473000  0.32205700  0.84447300  1
  O  O12  1  0.31527000  0.67794300  0.52241600  1
  O  O13  1  0.31527000  0.47758400  0.15552700  1
loop_
_geom_bond_atom_site_label_1
_geom_bond_atom_site_label_2
_geom_bond_distance
_geom_bond_site_symmetry_2
Ca0 O3 2.388190 1_455
Ca0 O7 2.388190 1_555
Ca0 O12 2.405034 1_555
Ca0 O8 2.405034 1_455
Ca0 O1 2.691628 1_555
Ca0 O0 2.691628 1_455
Ca0 O9 2.926748 1_455
Ca0 O13 2.926748 1_555
Ca1 O5 2.388185 1_445
Ca1 O6 2.388192 1_555
Ca1 O9 2.405033 1_455
Ca1 O10 2.405034 1_545
Ca1 O1 2.691621 1_555
Ca1 O0 2.691623 1_445
Ca1 O12 2.926748 1_545
Ca1 O11 2.926749 1_455
Ca2 O4 2.388185 1_554
Ca2 O2 2.388192 1_455
Ca2 O13 2.405033 1_555
Ca2 O11 2.405034 1_454
Ca2 O0 2.691621 1_455
Ca2 O1 2.691623 1_554
Ca2 O8 2.926748 1_454
Ca2 O10 2.926749 1_555
Nb0 O6 2.015221 1_554
Nb0 O2 2.015221 1_445
Nb0 O3 2.015226 1_455
Nb0 O7 2.015226 1_555
Nb0 O5 2.015227 1_444
Nb0 O4 2.015227 1_544
Ga0 O5 1.857516 1_555
Ga0 O4 1.857516 1_555
Ga0 O8 1.877235 1_555
Ga0 O12 1.877235 1_555
Ga1 O7 1.857510 1_555
Ga1 O2 1.857514 1_545
Ga1 O10 1.877235 1_545
Ga1 O9 1.877235 1_555
Ga2 O3 1.857510 1_555
Ga2 O6 1.857514 1_554
Ga2 O11 1.877235 1_554
Ga2 O13 1.877235 1_555
O0 Si0 1.611726 1_555
O1 Si1 1.611726 1_555
O8 Si1 1.666824 1_555
O9 Si1 1.666821 1_555
O10 Si0 1.666817 1_555
O11 Si1 1.666817 1_555
O12 Si0 1.666824 1_555
O13 Si0 1.666821 1_555
