# generated using pymatgen
data_Hf4CoP
_symmetry_space_group_name_H-M   'P 1'
_cell_length_a   6.35670200
_cell_length_b   6.35670200
_cell_length_c   5.33437100
_cell_angle_alpha   90.00000000
_cell_angle_beta   90.00000000
_cell_angle_gamma   90.00000000
_symmetry_Int_Tables_number   1
_chemical_formula_structural   Hf4CoP
_chemical_formula_sum   'Hf8 Co2 P2'
_cell_volume   215.54945137
_cell_formula_units_Z   2
loop_
 _symmetry_equiv_pos_site_id
 _symmetry_equiv_pos_as_xyz
  1  'x, y, z'
loop_
 _atom_site_type_symbol
 _atom_site_label
 _atom_site_symmetry_multiplicity
 _atom_site_fract_x
 _atom_site_fract_y
 _atom_site_fract_z
 _atom_site_occupancy
  Hf  Hf0  1  0.15711300  0.66900500  0.50000000  1
  Hf  Hf1  1  0.84288700  0.33099500  0.50000000  1
  Hf  Hf2  1  0.66900500  0.84288700  0.50000000  1
  Hf  Hf3  1  0.33099500  0.15711300  0.50000000  1
  Hf  Hf4  1  0.15711300  0.33099500  0.00000000  1
  Hf  Hf5  1  0.84288700  0.66900500  0.00000000  1
  Hf  Hf6  1  0.66900500  0.15711300  0.00000000  1
  Hf  Hf7  1  0.33099500  0.84288700  0.00000000  1
  Co  Co0  1  0.00000000  0.00000000  0.25000000  1
  Co  Co1  1  0.00000000  0.00000000  0.75000000  1
  P  P0  1  0.50000000  0.50000000  0.25000000  1
  P  P1  1  0.50000000  0.50000000  0.75000000  1
loop_
_geom_bond_atom_site_label_1
_geom_bond_atom_site_label_2
_geom_bond_distance
_geom_bond_site_symmetry_2
Hf0 P1 2.771896 1_555
Hf0 P0 2.771896 1_555
Hf1 P1 2.771896 1_555
Hf1 P0 2.771896 1_555
Hf2 P1 2.771896 1_555
Hf2 P0 2.771896 1_555
Hf3 P1 2.771896 1_555
Hf3 P0 2.771896 1_555
Hf4 P1 2.771896 1_554
Hf4 P0 2.771896 1_555
Hf5 P1 2.771896 1_554
Hf5 P0 2.771896 1_555
Hf6 P1 2.771896 1_554
Hf6 P0 2.771896 1_555
Hf7 P0 2.771896 1_555
Hf7 P1 2.771896 1_554
Co0 Hf7 2.683819 1_545
Co0 Hf5 2.683819 1_445
Co0 Hf2 2.683819 1_445
Co0 Hf3 2.683819 1_555
Co0 Hf6 2.683819 1_455
Co0 Hf4 2.683819 1_555
Co0 Hf1 2.683819 1_455
Co0 Hf0 2.683819 1_545
Co1 Hf6 2.683819 1_456
Co1 Hf7 2.683819 1_546
Co1 Hf5 2.683819 1_446
Co1 Hf2 2.683819 1_445
Co1 Hf3 2.683819 1_555
Co1 Hf1 2.683819 1_455
Co1 Hf0 2.683819 1_545
Co1 Hf4 2.683819 1_556
