# generated using pymatgen
data_Co3(ReB)4
_symmetry_space_group_name_H-M   'P 1'
_cell_length_a   5.31392400
_cell_length_b   5.31392400
_cell_length_c   7.95387700
_cell_angle_alpha   90.00000000
_cell_angle_beta   90.00000000
_cell_angle_gamma   90.00000000
_symmetry_Int_Tables_number   1
_chemical_formula_structural   Co3(ReB)4
_chemical_formula_sum   'Co6 Re8 B8'
_cell_volume   224.59989471
_cell_formula_units_Z   2
loop_
 _symmetry_equiv_pos_site_id
 _symmetry_equiv_pos_as_xyz
  1  'x, y, z'
loop_
 _atom_site_type_symbol
 _atom_site_label
 _atom_site_symmetry_multiplicity
 _atom_site_fract_x
 _atom_site_fract_y
 _atom_site_fract_z
 _atom_site_occupancy
  Co  Co0  1  0.16176000  0.66176000  0.50000000  1
  Co  Co1  1  0.83824000  0.33824000  0.50000000  1
  Co  Co2  1  0.33824000  0.16176000  0.50000000  1
  Co  Co3  1  0.66176000  0.83824000  0.50000000  1
  Co  Co4  1  0.00000000  0.00000000  0.00000000  1
  Co  Co5  1  0.50000000  0.50000000  0.00000000  1
  Re  Re0  1  0.67438100  0.17438100  0.22327700  1
  Re  Re1  1  0.32561900  0.82561900  0.77672300  1
  Re  Re2  1  0.32561900  0.82561900  0.22327700  1
  Re  Re3  1  0.82561900  0.67438100  0.22327700  1
  Re  Re4  1  0.82561900  0.67438100  0.77672300  1
  Re  Re5  1  0.67438100  0.17438100  0.77672300  1
  Re  Re6  1  0.17438100  0.32561900  0.77672300  1
  Re  Re7  1  0.17438100  0.32561900  0.22327700  1
  B  B0  1  0.12245200  0.62245200  0.00000000  1
  B  B1  1  0.87754800  0.37754800  0.00000000  1
  B  B2  1  0.37754800  0.12245200  0.00000000  1
  B  B3  1  0.62245200  0.87754800  0.00000000  1
  B  B4  1  0.00000000  0.00000000  0.37520100  1
  B  B5  1  0.00000000  0.00000000  0.62479900  1
  B  B6  1  0.50000000  0.50000000  0.62479900  1
  B  B7  1  0.50000000  0.50000000  0.37520100  1
loop_
_geom_bond_atom_site_label_1
_geom_bond_atom_site_label_2
_geom_bond_distance
_geom_bond_site_symmetry_2
B0 B1 1.840459 1_455
B0 Co4 2.109146 1_565
B0 Co5 2.109146 1_555
B0 Re2 2.342011 1_555
B0 Re1 2.342011 1_554
B0 Re3 2.391246 1_455
B0 Re7 2.391246 1_555
B0 Re4 2.391246 1_454
B0 Re6 2.391246 1_554
B1 Co5 2.109146 1_555
B1 Co4 2.109146 1_655
B1 Re0 2.342011 1_555
B1 Re5 2.342011 1_554
B1 Re7 2.391246 1_655
B1 Re3 2.391246 1_555
B1 Re6 2.391246 1_654
B1 Re4 2.391246 1_554
B2 B3 1.840459 1_545
B2 Co4 2.109146 1_555
B2 Co5 2.109146 1_555
B2 Re7 2.342011 1_555
B2 Re6 2.342011 1_554
B2 Re2 2.391246 1_545
B2 Re0 2.391246 1_555
B2 Re1 2.391246 1_544
B2 Re5 2.391246 1_554
B3 Co5 2.109146 1_555
B3 Co4 2.109146 1_665
B3 Re3 2.342011 1_555
B3 Re4 2.342011 1_554
B3 Re0 2.391246 1_565
B3 Re2 2.391246 1_555
B3 Re5 2.391246 1_564
B3 Re1 2.391246 1_554
B4 B5 1.985272 1_555
B4 Co1 2.225935 1_455
B4 Co0 2.225935 1_545
B4 Co3 2.225935 1_445
B4 Co2 2.225935 1_555
B4 Re0 2.304964 1_455
B4 Re7 2.304964 1_555
B4 Re3 2.304964 1_445
B4 Re2 2.304964 1_545
B5 Co1 2.225935 1_455
B5 Co0 2.225935 1_545
B5 Co3 2.225935 1_445
B5 Co2 2.225935 1_555
B5 Re5 2.304964 1_455
B5 Re6 2.304964 1_555
B5 Re1 2.304964 1_545
B5 Re4 2.304964 1_445
B6 B7 1.985272 1_555
B6 Co2 2.225935 1_555
B6 Co0 2.225935 1_555
B6 Co3 2.225935 1_555
B6 Co1 2.225935 1_555
B6 Re1 2.304964 1_555
B6 Re4 2.304964 1_555
B6 Re5 2.304964 1_555
B6 Re6 2.304964 1_555
B7 Co2 2.225935 1_555
B7 Co0 2.225935 1_555
B7 Co3 2.225935 1_555
B7 Co1 2.225935 1_555
B7 Re3 2.304964 1_555
B7 Re2 2.304964 1_555
B7 Re7 2.304964 1_555
B7 Re0 2.304964 1_555
