# generated using pymatgen
data_LiY(WO4)2
_symmetry_space_group_name_H-M   'P 1'
_cell_length_a   5.94234300
_cell_length_b   5.09954200
_cell_length_c   11.03811558
_cell_angle_alpha   66.24116153
_cell_angle_beta   90.00000000
_cell_angle_gamma   90.00000000
_symmetry_Int_Tables_number   1
_chemical_formula_structural   LiY(WO4)2
_chemical_formula_sum   'Li2 Y2 W4 O16'
_cell_volume   306.14223672
_cell_formula_units_Z   2
loop_
 _symmetry_equiv_pos_site_id
 _symmetry_equiv_pos_as_xyz
  1  'x, y, z'
loop_
 _atom_site_type_symbol
 _atom_site_label
 _atom_site_symmetry_multiplicity
 _atom_site_fract_x
 _atom_site_fract_y
 _atom_site_fract_z
 _atom_site_occupancy
  Li  Li0  1  0.25117200  0.50000000  0.75000000  1
  Li  Li1  1  0.74882800  0.50000000  0.25000000  1
  Y  Y0  1  0.67849200  0.00000000  0.75000000  1
  Y  Y1  1  0.32150800  0.00000000  0.25000000  1
  W  W0  1  0.17312900  0.23576200  0.51299700  1
  W  W1  1  0.82687100  0.76423800  0.48700300  1
  W  W2  1  0.17312900  0.76423800  0.98700300  1
  W  W3  1  0.82687100  0.23576200  0.01299700  1
  O  O0  1  0.62813800  0.79058100  0.60805800  1
  O  O1  1  0.37186200  0.20941900  0.39194200  1
  O  O2  1  0.62813800  0.20941900  0.89194200  1
  O  O3  1  0.37186200  0.79058100  0.10805800  1
  O  O4  1  0.36500800  0.27021900  0.63523400  1
  O  O5  1  0.63499200  0.72978100  0.36476600  1
  O  O6  1  0.36500800  0.72978100  0.86476600  1
  O  O7  1  0.63499200  0.27021900  0.13523400  1
  O  O8  1  0.08386200  0.84718600  0.61166000  1
  O  O9  1  0.91613800  0.15281400  0.38834000  1
  O  O10  1  0.08386200  0.15281400  0.88834000  1
  O  O11  1  0.91613800  0.84718600  0.11166000  1
  O  O12  1  0.88857000  0.35065400  0.59672900  1
  O  O13  1  0.11143000  0.64934600  0.40327100  1
  O  O14  1  0.88857000  0.64934600  0.90327100  1
  O  O15  1  0.11143000  0.35065400  0.09672900  1
loop_
_geom_bond_atom_site_label_1
_geom_bond_atom_site_label_2
_geom_bond_distance
_geom_bond_site_symmetry_2
Li0 O8 2.067946 1_555
Li0 O10 2.067946 1_555
Li0 O6 2.152100 1_555
Li0 O4 2.152100 1_555
Li1 O9 2.067946 1_555
Li1 O11 2.067946 1_555
Li1 O5 2.152100 1_555
Li1 O7 2.152100 1_555
O0 W1 1.828329 1_555
O0 Y0 2.243445 1_565
O1 W0 1.828329 1_555
O1 Y1 2.243445 1_555
O2 W3 1.828329 1_556
O2 Y0 2.243445 1_555
O3 W2 1.828329 1_554
O3 Y1 2.243445 1_565
O4 W0 1.828254 1_555
O4 Y0 2.359488 1_555
O5 W1 1.828254 1_555
O5 Y1 2.359488 1_565
O6 W2 1.828254 1_555
O6 Y0 2.359488 1_565
O7 W3 1.828254 1_555
O7 Y1 2.359488 1_555
O8 W0 1.911836 1_565
O8 W1 2.207567 1_455
O9 W1 1.911836 1_545
O9 W0 2.207567 1_655
O10 W2 1.911836 1_545
O10 W3 2.207567 1_456
O11 W3 1.911836 1_565
O11 W2 2.207567 1_654
O12 W1 1.997820 1_555
O12 W0 2.119703 1_655
O12 Y0 2.276078 1_555
O13 W0 1.997820 1_555
O13 W1 2.119703 1_455
O13 Y1 2.276078 1_565
O14 W3 1.997820 1_556
O14 W2 2.119703 1_655
O14 Y0 2.276078 1_565
O15 W2 1.997820 1_554
O15 W3 2.119703 1_455
O15 Y1 2.276078 1_555
