# generated using pymatgen
data_Lu10Al4Ge11
_symmetry_space_group_name_H-M   'P 1'
_cell_length_a   5.57323893
_cell_length_b   5.57323893
_cell_length_c   24.76383750
_cell_angle_alpha   83.42761716
_cell_angle_beta   83.42761716
_cell_angle_gamma   42.54567460
_symmetry_Int_Tables_number   1
_chemical_formula_structural   Lu10Al4Ge11
_chemical_formula_sum   'Lu10 Al4 Ge11'
_cell_volume   516.17048031
_cell_formula_units_Z   1
loop_
 _symmetry_equiv_pos_site_id
 _symmetry_equiv_pos_as_xyz
  1  'x, y, z'
loop_
 _atom_site_type_symbol
 _atom_site_label
 _atom_site_symmetry_multiplicity
 _atom_site_fract_x
 _atom_site_fract_y
 _atom_site_fract_z
 _atom_site_occupancy
  Lu  Lu0  1  0.33340000  0.33340000  0.94335200  1
  Lu  Lu1  1  0.12784600  0.12784600  0.54258200  1
  Lu  Lu2  1  0.72770200  0.72770200  0.74272500  1
  Lu  Lu3  1  0.92638500  0.92638500  0.14299100  1
  Lu  Lu4  1  0.52816100  0.52816100  0.34247900  1
  Lu  Lu5  1  0.07361500  0.07361500  0.85700900  1
  Lu  Lu6  1  0.87215400  0.87215400  0.45741800  1
  Lu  Lu7  1  0.47183900  0.47183900  0.65752100  1
  Lu  Lu8  1  0.66660000  0.66660000  0.05664800  1
  Lu  Lu9  1  0.27229800  0.27229800  0.25727500  1
  Al  Al0  1  0.59931400  0.59931400  0.20048300  1
  Al  Al1  1  0.19982300  0.19982300  0.39997600  1
  Al  Al2  1  0.80017700  0.80017700  0.60002400  1
  Al  Al3  1  0.40068600  0.40068600  0.79951700  1
  Ge  Ge0  1  0.62131500  0.62131500  0.94032100  1
  Ge  Ge1  1  0.41345800  0.41345800  0.54294300  1
  Ge  Ge2  1  0.01457900  0.01457900  0.74264100  1
  Ge  Ge3  1  0.21041000  0.21041000  0.14397800  1
  Ge  Ge4  1  0.81377500  0.81377500  0.34296600  1
  Ge  Ge5  1  0.78959000  0.78959000  0.85602200  1
  Ge  Ge6  1  0.58654200  0.58654200  0.45705700  1
  Ge  Ge7  1  0.18622500  0.18622500  0.65703400  1
  Ge  Ge8  1  0.37868500  0.37868500  0.05967900  1
  Ge  Ge9  1  0.98542100  0.98542100  0.25735900  1
  Ge  Ge10  1  0.00000000  0.00000000  0.00000000  1
loop_
_geom_bond_atom_site_label_1
_geom_bond_atom_site_label_2
_geom_bond_distance
_geom_bond_site_symmetry_2
Al0 Ge3 2.642256 1_655
Al0 Ge3 2.642256 1_565
Al0 Ge9 2.657546 1_545
Al0 Ge9 2.657546 1_455
Al0 Lu9 3.148921 1_565
Al0 Lu9 3.148921 1_655
Al0 Lu3 3.157556 1_455
Al0 Lu3 3.157556 1_545
Al1 Ge6 2.657557 1_545
Al1 Ge6 2.657557 1_455
Al1 Ge4 2.659357 1_545
Al1 Ge4 2.659357 1_455
Al1 Lu4 3.149422 1_545
Al1 Lu4 3.149422 1_455
Al1 Lu6 3.153037 1_455
Al1 Lu6 3.153037 1_545
Al2 Ge1 2.657557 1_655
Al2 Ge1 2.657557 1_565
Al2 Ge7 2.659357 1_655
Al2 Ge7 2.659357 1_565
Al2 Lu7 3.149422 1_655
Al2 Lu7 3.149422 1_565
Al2 Lu1 3.153037 1_565
Al2 Lu1 3.153037 1_655
Al3 Ge5 2.642256 1_545
Al3 Ge5 2.642256 1_455
Al3 Ge2 2.657546 1_565
Al3 Ge2 2.657546 1_655
Al3 Lu2 3.148921 1_455
Al3 Lu2 3.148921 1_545
Al3 Lu5 3.157556 1_655
Al3 Lu5 3.157556 1_565
Ge0 Ge5 2.552772 1_555
Ge0 Ge10 2.720861 1_656
Ge0 Ge10 2.720861 1_566
Ge0 Lu5 2.973492 1_655
Ge0 Lu5 2.973492 1_565
Ge0 Lu8 2.975326 1_556
Ge0 Lu0 2.982283 1_555
Ge0 Lu0 2.997952 1_655
Ge0 Lu0 2.997952 1_565
Ge1 Ge6 2.610826 1_555
Ge1 Lu1 2.967761 1_555
Ge1 Lu7 2.973413 1_555
Ge1 Lu6 2.996910 1_455
Ge1 Lu6 2.996910 1_545
Ge1 Lu1 3.007095 1_565
Ge1 Lu1 3.007095 1_655
Ge2 Ge7 2.597001 1_555
Ge2 Lu5 2.970515 1_555
Ge2 Lu2 2.979535 1_445
Ge2 Lu7 2.993121 1_455
Ge2 Lu7 2.993121 1_545
Ge2 Lu2 2.998369 1_455
Ge2 Lu2 2.998369 1_545
Ge3 Ge8 2.552772 1_555
Ge3 Lu3 2.953268 1_445
Ge3 Lu9 2.954329 1_555
Ge3 Lu3 3.017987 1_455
Ge3 Lu3 3.017987 1_545
Ge3 Lu8 3.035516 1_455
Ge3 Lu8 3.035516 1_545
Ge4 Ge9 2.597001 1_555
Ge4 Lu4 2.968176 1_555
Ge4 Lu6 2.970351 1_555
Ge4 Lu9 3.000303 1_565
Ge4 Lu9 3.000303 1_655
Ge4 Lu4 3.006806 1_655
Ge4 Lu4 3.006806 1_565
Ge5 Lu5 2.953268 1_665
Ge5 Lu2 2.954329 1_555
Ge5 Lu5 3.017987 1_565
Ge5 Lu5 3.017987 1_655
Ge5 Lu0 3.035516 1_565
Ge5 Lu0 3.035516 1_655
Ge6 Lu6 2.967761 1_555
Ge6 Lu4 2.973413 1_555
Ge6 Lu1 2.996910 1_565
Ge6 Lu1 2.996910 1_655
Ge6 Lu6 3.007095 1_455
Ge6 Lu6 3.007095 1_545
Ge7 Lu7 2.968176 1_555
Ge7 Lu1 2.970351 1_555
Ge7 Lu2 3.000303 1_545
Ge7 Lu2 3.000303 1_455
Ge7 Lu7 3.006806 1_545
Ge7 Lu7 3.006806 1_455
Ge8 Lu3 2.973492 1_545
Ge8 Lu3 2.973492 1_455
Ge8 Lu0 2.975326 1_554
Ge8 Lu8 2.982283 1_555
Ge8 Lu8 2.997952 1_545
Ge8 Lu8 2.997952 1_455
Ge9 Lu3 2.970515 1_555
Ge9 Lu9 2.979535 1_665
Ge9 Lu4 2.993121 1_565
Ge9 Lu4 2.993121 1_655
Ge9 Lu9 2.998369 1_565
Ge9 Lu9 2.998369 1_655
Ge10 Ge8 2.720861 1_455
Ge10 Ge8 2.720861 1_545
Ge10 Lu8 3.106021 1_455
Ge10 Lu8 3.106021 1_545
Ge10 Lu0 3.106021 1_544
Ge10 Lu0 3.106021 1_454
Ge10 Lu5 3.529626 1_554
Ge10 Lu3 3.529626 1_445
Ge10 Lu0 3.573101 1_554
Ge10 Lu8 3.573101 1_445
