# generated using pymatgen
data_B13H27C6S3F4
_symmetry_space_group_name_H-M   'P 1'
_cell_length_a   11.92200700
_cell_length_b   13.84854339
_cell_length_c   14.37904464
_cell_angle_alpha   84.77532901
_cell_angle_beta   88.02799488
_cell_angle_gamma   88.23082661
_symmetry_Int_Tables_number   1
_chemical_formula_structural   B13H27C6S3F4
_chemical_formula_sum   'B52 H108 C24 S12 F16'
_cell_volume   2361.83380747
_cell_formula_units_Z   4
loop_
 _symmetry_equiv_pos_site_id
 _symmetry_equiv_pos_as_xyz
  1  'x, y, z'
loop_
 _atom_site_type_symbol
 _atom_site_label
 _atom_site_symmetry_multiplicity
 _atom_site_fract_x
 _atom_site_fract_y
 _atom_site_fract_z
 _atom_site_occupancy
  B  B0  1  0.37720800  0.37113600  0.38871100  1
  B  B1  1  0.62279200  0.62886400  0.61128900  1
  B  B2  1  0.25578700  0.35439400  0.46113200  1
  B  B3  1  0.74421300  0.64560600  0.53886800  1
  B  B4  1  0.26286300  0.31149500  0.34681400  1
  B  B5  1  0.73713700  0.68850500  0.65318600  1
  B  B6  1  0.34002800  0.39660600  0.27078900  1
  B  B7  1  0.65997200  0.60339400  0.72921100  1
  B  B8  1  0.38025800  0.49264600  0.33835100  1
  B  B9  1  0.61974200  0.50735400  0.66164900  1
  B  B10  1  0.32800500  0.46597300  0.45523800  1
  B  B11  1  0.67199500  0.53402700  0.54476200  1
  B  B12  1  0.14139700  0.37325300  0.38658100  1
  B  B13  1  0.85860300  0.62674700  0.61341900  1
  B  B14  1  0.18988700  0.39834000  0.26979700  1
  B  B15  1  0.81011300  0.60166000  0.73020300  1
  B  B16  1  0.26342300  0.50806500  0.26676300  1
  B  B17  1  0.73657700  0.49193500  0.73323700  1
  B  B18  1  0.25556700  0.55237400  0.37836100  1
  B  B19  1  0.74443300  0.44762600  0.62163900  1
  B  B20  1  0.17866400  0.46758300  0.45374800  1
  B  B21  1  0.82133600  0.53241700  0.54625200  1
  B  B22  1  0.13802300  0.49516200  0.33567800  1
  B  B23  1  0.86197700  0.50483800  0.66432200  1
  B  B24  1  0.77380100  0.81996200  0.20902300  1
  B  B25  1  0.22619900  0.18003800  0.79097700  1
  B  B26  1  0.83626500  0.87965800  0.10753500  1
  B  B27  1  0.16373500  0.12034200  0.89246500  1
  B  B28  1  0.69654500  0.83473300  0.10580000  1
  B  B29  1  0.30345500  0.16526700  0.89420000  1
  B  B30  1  0.69213900  0.72316500  0.17900500  1
  B  B31  1  0.30786100  0.27683500  0.82099500  1
  B  B32  1  0.82932100  0.69922600  0.22623600  1
  B  B33  1  0.17067900  0.30077400  0.77376400  1
  B  B34  1  0.91726700  0.79573500  0.18160900  1
  B  B35  1  0.08273300  0.20426500  0.81839100  1
  B  B36  1  0.79471300  0.81634000  0.01416700  1
  B  B37  1  0.20528700  0.18366000  0.98583300  1
  B  B38  1  0.70546400  0.72159000  0.05516200  1
  B  B39  1  0.29453600  0.27841000  0.94483800  1
  B  B40  1  0.78874100  0.64082200  0.12936900  1
  B  B41  1  0.21125900  0.35917800  0.87063100  1
  B  B42  1  0.92619400  0.68325000  0.13130600  1
  B  B43  1  0.07380600  0.31675000  0.86869400  1
  B  B44  1  0.93069000  0.79361700  0.05805600  1
  B  B45  1  0.06931000  0.20638300  0.94194400  1
  B  B46  1  0.85039100  0.69581200  0.02580500  1
  B  B47  1  0.14960900  0.30418800  0.97419500  1
  B  B48  1  0.69153700  0.20777300  0.12354000  1
  B  B49  1  0.30846300  0.79222700  0.87646000  1
  B  B50  1  0.74507700  0.04797400  0.58870600  1
  B  B51  1  0.25492300  0.95202600  0.41129400  1
  H  H0  1  0.59109200  0.23101500  0.55506900  1
  H  H1  1  0.40890800  0.76898500  0.44493100  1
  H  H2  1  0.50629500  0.33735400  0.57631000  1
  H  H3  1  0.49370500  0.66264600  0.42369000  1
  H  H4  1  0.43904200  0.22654000  0.55610300  1
  H  H5  1  0.56095800  0.77346000  0.44389700  1
  H  H6  1  0.44866200  0.15084000  0.39607300  1
  H  H7  1  0.55133800  0.84916000  0.60392700  1
  H  H8  1  0.51906600  0.20908700  0.29269800  1
  H  H9  1  0.48093400  0.79091300  0.70730200  1
  H  H10  1  0.60041800  0.15867700  0.38925500  1
  H  H11  1  0.39958200  0.84132300  0.61074500  1
  H  H12  1  0.07753600  0.21108500  0.53895000  1
  H  H13  1  0.92246400  0.78891500  0.46105000  1
  H  H14  1  0.00194200  0.31688100  0.57525900  1
  H  H15  1  0.99805800  0.68311900  0.42474100  1
  H  H16  1  0.92520000  0.21641300  0.54075300  1
  H  H17  1  0.07480000  0.78358700  0.45924700  1
  H  H18  1  0.91709300  0.17697300  0.36082200  1
  H  H19  1  0.08290700  0.82302700  0.63917800  1
  H  H20  1  0.00838900  0.23452700  0.27262300  1
  H  H21  1  0.99161100  0.76547300  0.72737700  1
  H  H22  1  0.06752100  0.15609000  0.36730600  1
  H  H23  1  0.93247900  0.84391000  0.63269400  1
  H  H24  1  0.46755500  0.59054300  0.14651000  1
  H  H25  1  0.53244500  0.40945700  0.85349000  1
  H  H26  1  0.40821300  0.50274600  0.07850800  1
  H  H27  1  0.59178700  0.49725400  0.92149200  1
  H  H28  1  0.40279500  0.62941400  0.03657100  1
  H  H29  1  0.59720500  0.37058600  0.96342900  1
  H  H30  1  0.27997000  0.75801700  0.12116200  1
  H  H31  1  0.72003000  0.24198300  0.87883800  1
  H  H32  1  0.18905400  0.72759000  0.22150900  1
  H  H33  1  0.81094600  0.27241000  0.77849100  1
  H  H34  1  0.33902100  0.71877500  0.23413500  1
  H  H35  1  0.66097900  0.28122500  0.76586500  1
  H  H36  1  0.25372100  0.30077900  0.53098100  1
  H  H37  1  0.74627900  0.69922100  0.46901900  1
  H  H38  1  0.26528600  0.22731800  0.33522900  1
  H  H39  1  0.73471400  0.77268200  0.66477100  1
  H  H40  1  0.39662700  0.37221300  0.20636200  1
  H  H41  1  0.60337300  0.62778700  0.79363800  1
  H  H42  1  0.46613200  0.53442400  0.32086200  1
  H  H43  1  0.53386800  0.46557600  0.67913800  1
  H  H44  1  0.37739600  0.48956600  0.52015200  1
  H  H45  1  0.62260400  0.51043400  0.47984800  1
  H  H46  1  0.14076400  0.37535900  0.20451900  1
  H  H47  1  0.85923600  0.62464100  0.79548100  1
  H  H48  1  0.25249000  0.63669800  0.38984400  1
  H  H49  1  0.74751000  0.36330200  0.61015600  1
  H  H50  1  0.12183100  0.49215300  0.51803600  1
  H  H51  1  0.87816900  0.50784700  0.48196400  1
  H  H52  1  0.05172200  0.53797100  0.31710500  1
  H  H53  1  0.94827800  0.46202900  0.68289500  1
  H  H54  1  0.79379500  0.02141700  0.38318600  1
  H  H55  1  0.20620500  0.97858300  0.61681400  1
  H  H56  1  0.90802500  0.95774400  0.32897100  1
  H  H57  1  0.09197500  0.04225600  0.67102900  1
  H  H58  1  0.81329500  0.03492500  0.25711300  1
  H  H59  1  0.18670500  0.96507500  0.74288700  1
  H  H60  1  0.60254500  0.99833100  0.24311900  1
  H  H61  1  0.39745500  0.00166900  0.75688100  1
  H  H62  1  0.53961700  0.88561500  0.28811400  1
  H  H63  1  0.46038300  0.11438500  0.71188600  1
  H  H64  1  0.57403900  0.97144500  0.36765500  1
  H  H65  1  0.42596100  0.02855500  0.63234500  1
  H  H66  1  0.81923800  0.03319900  0.93172000  1
  H  H67  1  0.18076200  0.96680100  0.06828000  1
  H  H68  1  0.94352900  0.96558500  0.89891600  1
  H  H69  1  0.05647100  0.03441500  0.10108400  1
  H  H70  1  0.84982800  0.01536200  0.80983300  1
  H  H71  1  0.15017200  0.98463800  0.19016700  1
  H  H72  1  0.63232900  0.95119200  0.80691900  1
  H  H73  1  0.36767100  0.04880800  0.19308100  1
  H  H74  1  0.58137000  0.86122700  0.89568700  1
  H  H75  1  0.41863000  0.13877300  0.10431300  1
  H  H76  1  0.62351400  0.97708500  0.92806000  1
  H  H77  1  0.37648600  0.02291500  0.07194000  1
  H  H78  1  0.82679400  0.47759600  0.29060600  1
  H  H79  1  0.17320600  0.52240400  0.70939400  1
  H  H80  1  0.67807600  0.50394700  0.28886200  1
  H  H81  1  0.32192400  0.49605300  0.71113800  1
  H  H82  1  0.73106200  0.38714600  0.25897600  1
  H  H83  1  0.26893800  0.61285400  0.74102400  1
  H  H84  1  0.86181200  0.36550400  0.10980900  1
  H  H85  1  0.13818800  0.63449600  0.89019100  1
  H  H86  1  0.89438000  0.46327200  0.02376800  1
  H  H87  1  0.10562000  0.53672800  0.97623200  1
  H  H88  1  0.95265800  0.46072900  0.13834900  1
  H  H89  1  0.04734200  0.53927100  0.86165100  1
  H  H90  1  0.85401100  0.96447300  0.10056100  1
  H  H91  1  0.14598900  0.03552700  0.89943900  1
  H  H92  1  0.61547400  0.88703100  0.09699200  1
  H  H93  1  0.38452600  0.11296900  0.90300800  1
  H  H94  1  0.60790200  0.69850600  0.22129900  1
  H  H95  1  0.39209800  0.30149400  0.77870100  1
  H  H96  1  0.84057900  0.65820200  0.30222800  1
  H  H97  1  0.15942100  0.34179800  0.69777200  1
  H  H98  1  0.99156300  0.82155200  0.22655600  1
  H  H99  1  0.00843700  0.17844800  0.77344400  1
  H  H100  1  0.63124600  0.69552200  0.01034500  1
  H  H101  1  0.36875400  0.30447800  0.98965500  1
  H  H102  1  0.00661000  0.62992700  0.13962700  1
  H  H103  1  0.99339000  0.37007300  0.86037300  1
  H  H104  1  0.01456900  0.81752600  0.01541600  1
  H  H105  1  0.98543100  0.18247400  0.98458400  1
  H  H106  1  0.87622200  0.65272000  0.95946200  1
  H  H107  1  0.12377800  0.34728000  0.04053800  1
  C  C0  1  0.51218800  0.27161800  0.53953800  1
  C  C1  1  0.48781200  0.72838200  0.46046200  1
  C  C2  1  0.52004200  0.19407000  0.36865300  1
  C  C3  1  0.47995800  0.80593000  0.63134700  1
  C  C4  1  0.00241900  0.25800400  0.52947300  1
  C  C5  1  0.99758100  0.74199600  0.47052700  1
  C  C6  1  0.99999600  0.20844000  0.34658900  1
  C  C7  1  0.00000400  0.79156000  0.65341100  1
  C  C8  1  0.40126400  0.57691400  0.09879600  1
  C  C9  1  0.59873600  0.42308600  0.90120400  1
  C  C10  1  0.26982100  0.71200700  0.18705200  1
  C  C11  1  0.73017900  0.28799300  0.81294800  1
  C  C12  1  0.82152900  0.98580400  0.32075700  1
  C  C13  1  0.17847100  0.01419600  0.67924300  1
  C  C14  1  0.59827600  0.94158800  0.30148800  1
  C  C15  1  0.40172400  0.05841200  0.69851200  1
  C  C16  1  0.85606600  0.98417900  0.88265600  1
  C  C17  1  0.14393400  0.01582100  0.11734400  1
  C  C18  1  0.63900700  0.92085300  0.88004300  1
  C  C19  1  0.36099300  0.07914700  0.11995700  1
  C  C20  1  0.74814700  0.46460300  0.25688100  1
  C  C21  1  0.25185300  0.53539700  0.74311900  1
  C  C22  1  0.88046700  0.44293900  0.09843300  1
  C  C23  1  0.11953300  0.55706100  0.90156700  1
  S  S0  1  0.51881800  0.30958600  0.41652900  1
  S  S1  1  0.48118200  0.69041400  0.58347100  1
  S  S2  1  0.99980100  0.31370500  0.41146700  1
  S  S3  1  0.00019900  0.68629500  0.58853300  1
  S  S4  1  0.26411300  0.59064100  0.15332800  1
  S  S5  1  0.73588700  0.40935900  0.84667200  1
  S  S6  1  0.73364000  0.88244200  0.31917800  1
  S  S7  1  0.26636000  0.11755800  0.68082200  1
  S  S8  1  0.78067300  0.87300700  0.88969000  1
  S  S9  1  0.21932700  0.12699300  0.11031000  1
  S  S10  1  0.75512200  0.50695200  0.13506400  1
  S  S11  1  0.24487800  0.49304800  0.86493600  1
  F  F0  1  0.75825200  0.12964500  0.52085700  1
  F  F1  1  0.24174800  0.87035500  0.47914300  1
  F  F2  1  0.69022100  0.07916700  0.67048900  1
  F  F3  1  0.30977900  0.92083300  0.32951100  1
  F  F4  1  0.67887200  0.97882800  0.55018500  1
  F  F5  1  0.32112800  0.02117200  0.44981500  1
  F  F6  1  0.85205800  0.00663100  0.61102400  1
  F  F7  1  0.14794200  0.99336900  0.38897600  1
  F  F8  1  0.74144900  0.21850200  0.03234500  1
  F  F9  1  0.25855100  0.78149800  0.96765500  1
  F  F10  1  0.63396800  0.11912400  0.13659800  1
  F  F11  1  0.36603200  0.88087600  0.86340200  1
  F  F12  1  0.77652400  0.20854300  0.19086100  1
  F  F13  1  0.22347600  0.79145700  0.80913900  1
  F  F14  1  0.61429400  0.28646700  0.13541500  1
  F  F15  1  0.38570600  0.71353300  0.86458500  1
loop_
_geom_bond_atom_site_label_1
_geom_bond_atom_site_label_2
_geom_bond_distance
_geom_bond_site_symmetry_2
B0 B2 1.762571 1_555
B0 B4 1.766394 1_555
B0 B10 1.768245 1_555
B0 B6 1.768932 1_555
B0 B8 1.771252 1_555
B0 S0 1.905871 1_555
B1 B3 1.762571 1_555
B1 B5 1.766394 1_555
B1 B11 1.768245 1_555
B1 B7 1.768932 1_555
B1 B9 1.771252 1_555
B1 S1 1.905871 1_555
B2 H36 1.193421 1_555
B3 H37 1.193421 1_555
B4 H38 1.191832 1_555
B5 H39 1.191832 1_555
B6 H40 1.194800 1_555
B7 H41 1.194800 1_555
B8 H42 1.199367 1_555
B9 H43 1.199367 1_555
B10 H44 1.195813 1_555
B11 H45 1.195813 1_555
B12 B2 1.762045 1_555
B12 B4 1.763827 1_555
B12 B14 1.764679 1_555
B12 B20 1.769694 1_555
B12 B22 1.777741 1_555
B12 S2 1.910092 1_455
B13 B3 1.762045 1_555
B13 B5 1.763827 1_555
B13 B15 1.764679 1_555
B13 B21 1.769694 1_555
B13 B23 1.777741 1_555
B13 S3 1.910092 1_655
B14 H46 1.195427 1_555
B14 B16 1.773986 1_555
B15 H47 1.195427 1_555
B15 B17 1.773986 1_555
B16 B8 1.756606 1_555
B16 B6 1.766435 1_555
B16 B18 1.767966 1_555
B16 B22 1.769533 1_555
B16 S4 1.904781 1_555
B17 B9 1.756606 1_555
B17 B7 1.766435 1_555
B17 B19 1.767966 1_555
B17 B23 1.769533 1_555
B17 S5 1.904781 1_555
B18 H48 1.193456 1_555
B19 H49 1.193456 1_555
B20 H50 1.195544 1_555
B21 H51 1.195544 1_555
B22 H52 1.197411 1_555
B23 H53 1.197411 1_555
B24 B26 1.763824 1_555
B24 B28 1.766442 1_555
B24 B34 1.770785 1_555
B24 B30 1.773687 1_555
B24 B32 1.778369 1_555
B24 S6 1.912736 1_555
B25 B27 1.763824 1_555
B25 B29 1.766442 1_555
B25 B35 1.770785 1_555
B25 B31 1.773687 1_555
B25 B33 1.778369 1_555
B25 S7 1.912736 1_555
B26 H90 1.194508 1_555
B27 H91 1.194508 1_555
B28 H92 1.193002 1_555
B29 H93 1.193002 1_555
B30 H94 1.198477 1_555
B31 H95 1.198477 1_555
B32 H96 1.194605 1_555
B33 H97 1.194605 1_555
B34 H98 1.196296 1_555
B35 H99 1.196296 1_555
B36 S8 1.898462 1_554
B37 S9 1.898462 1_556
B38 H100 1.195769 1_555
B39 H101 1.195769 1_555
B40 S10 1.902705 1_555
B41 S11 1.902705 1_555
B42 H102 1.194509 1_655
B43 H103 1.194509 1_455
B44 H104 1.194503 1_655
B45 H105 1.194503 1_455
B46 H106 1.197119 1_554
B47 H107 1.197119 1_556
B48 F8 1.418427 1_555
B48 F10 1.419380 1_555
B48 F14 1.423361 1_555
B48 F12 1.426119 1_555
B49 F9 1.418427 1_555
B49 F11 1.419380 1_555
B49 F15 1.423361 1_555
B49 F13 1.426119 1_555
B50 F6 1.416729 1_555
B50 F2 1.421035 1_555
B50 F4 1.421297 1_545
B50 F0 1.433581 1_555
B51 F7 1.416729 1_555
B51 F3 1.421035 1_555
B51 F5 1.421297 1_565
B51 F1 1.433581 1_555
C0 H2 1.092886 1_555
C0 H4 1.095055 1_555
C0 H0 1.099945 1_555
C0 S0 1.798546 1_555
C1 H3 1.092886 1_555
C1 H5 1.095055 1_555
C1 H1 1.099945 1_555
C1 S1 1.798546 1_555
C2 H8 1.093416 1_555
C2 H6 1.097008 1_555
C2 H10 1.100144 1_555
C2 S0 1.797689 1_555
C3 H9 1.093416 1_555
C3 H7 1.097008 1_555
C3 H11 1.100144 1_555
C3 S1 1.797689 1_555
C4 H14 1.093390 1_555
C4 H12 1.095035 1_555
C4 H16 1.100463 1_455
C4 S2 1.799710 1_455
C5 H15 1.093390 1_555
C5 H13 1.095035 1_555
C5 H17 1.100463 1_655
C5 S3 1.799710 1_655
C6 H20 1.093900 1_655
C6 H22 1.097059 1_655
C6 H18 1.097765 1_555
C6 S2 1.800743 1_555
C7 H21 1.093900 1_455
C7 H23 1.097059 1_455
C7 H19 1.097765 1_555
C7 S3 1.800743 1_555
C8 H26 1.092973 1_555
C8 H24 1.095925 1_555
C8 H28 1.100321 1_555
C8 S4 1.801193 1_555
C9 H27 1.092973 1_555
C9 H25 1.095925 1_555
C9 H29 1.100321 1_555
C9 S5 1.801193 1_555
C10 H32 1.092265 1_555
C10 H34 1.096597 1_555
C10 H30 1.097811 1_555
C10 S4 1.795116 1_555
C11 H33 1.092265 1_555
C11 H35 1.096597 1_555
C11 H31 1.097811 1_555
C11 S5 1.795116 1_555
C12 H58 1.094781 1_565
C12 H56 1.097096 1_555
C12 H54 1.099320 1_565
C12 S6 1.802093 1_555
C13 H59 1.094781 1_545
C13 H57 1.097096 1_555
C13 H55 1.099320 1_545
C13 S7 1.802093 1_555
C14 H62 1.093971 1_555
C14 H60 1.097228 1_555
C14 H64 1.097725 1_555
C14 S6 1.802408 1_555
C15 H63 1.093971 1_555
C15 H61 1.097228 1_555
C15 H65 1.097725 1_555
C15 S7 1.802408 1_555
C16 H68 1.094304 1_555
C16 H66 1.094917 1_565
C16 H70 1.099777 1_565
C16 S8 1.799789 1_555
C17 H69 1.094304 1_555
C17 H67 1.094917 1_545
C17 H71 1.099777 1_545
C17 S9 1.799789 1_555
C18 H74 1.093242 1_555
C18 H76 1.094307 1_555
C18 H72 1.100754 1_555
C18 S8 1.800303 1_555
C19 H75 1.093242 1_555
C19 H77 1.094307 1_555
C19 H73 1.100754 1_555
C19 S9 1.800303 1_555
C20 H80 1.094211 1_555
C20 H82 1.095533 1_555
C20 H78 1.097401 1_555
C20 S10 1.795802 1_555
C21 H81 1.094211 1_555
C21 H83 1.095533 1_555
C21 H79 1.097401 1_555
C21 S11 1.795802 1_555
C22 H86 1.093167 1_555
C22 H88 1.097132 1_555
C22 H84 1.098388 1_555
C22 S10 1.801523 1_555
C23 H87 1.093167 1_555
C23 H89 1.097132 1_555
C23 H85 1.098388 1_555
C23 S11 1.801523 1_555
