# generated using pymatgen
data_Sr4CePr3Nb2(CuO5)4
_symmetry_space_group_name_H-M   'P 1'
_cell_length_a   14.90110906
_cell_length_b   14.90110906
_cell_length_c   5.61733600
_cell_angle_alpha   90.00000000
_cell_angle_beta   90.00000000
_cell_angle_gamma   158.27308479
_symmetry_Int_Tables_number   1
_chemical_formula_structural   Sr4CePr3Nb2(CuO5)4
_chemical_formula_sum   'Sr4 Ce1 Pr3 Nb2 Cu4 O20'
_cell_volume   461.72594202
_cell_formula_units_Z   1
loop_
 _symmetry_equiv_pos_site_id
 _symmetry_equiv_pos_as_xyz
  1  'x, y, z'
loop_
 _atom_site_type_symbol
 _atom_site_label
 _atom_site_symmetry_multiplicity
 _atom_site_fract_x
 _atom_site_fract_y
 _atom_site_fract_z
 _atom_site_occupancy
  Sr  Sr0  1  0.08060300  0.91939700  0.50000000  1
  Sr  Sr1  1  0.58216600  0.41783400  0.00000000  1
  Sr  Sr2  1  0.41832900  0.58167100  0.00000000  1
  Sr  Sr3  1  0.91835600  0.08164400  0.50000000  1
  Ce  Ce0  1  0.70802600  0.29197400  0.00000000  1
  Pr  Pr0  1  0.20459500  0.79540500  0.50000000  1
  Pr  Pr1  1  0.79434100  0.20565900  0.50000000  1
  Pr  Pr2  1  0.29434400  0.70565600  0.00000000  1
  Nb  Nb0  1  0.50013100  0.49986900  0.50000000  1
  Nb  Nb1  1  0.00015000  0.99985000  0.00000000  1
  Cu  Cu0  1  0.14265000  0.85735000  0.00000000  1
  Cu  Cu1  1  0.64260400  0.35739600  0.50000000  1
  Cu  Cu2  1  0.35801800  0.64198200  0.50000000  1
  Cu  Cu3  1  0.85806600  0.14193400  0.00000000  1
  O  O0  1  0.50530500  0.00915700  0.75718900  1
  O  O1  1  0.99084300  0.49469500  0.24281100  1
  O  O2  1  0.99084300  0.49469500  0.75718900  1
  O  O3  1  0.50530500  0.00915700  0.24281100  1
  O  O4  1  0.40161800  0.10611600  0.75401000  1
  O  O5  1  0.89388400  0.59838200  0.24599000  1
  O  O6  1  0.89388400  0.59838200  0.75401000  1
  O  O7  1  0.40161800  0.10611600  0.24599000  1
  O  O8  1  0.10340000  0.39696000  0.74985200  1
  O  O9  1  0.60304000  0.89660000  0.25014800  1
  O  O10  1  0.60304000  0.89660000  0.74985200  1
  O  O11  1  0.10340000  0.39696000  0.25014800  1
  O  O12  1  0.06849900  0.93150100  0.00000000  1
  O  O13  1  0.56848600  0.43151400  0.50000000  1
  O  O14  1  0.43194600  0.56805400  0.50000000  1
  O  O15  1  0.93177800  0.06822200  0.00000000  1
  O  O16  1  0.25002400  0.24965800  0.74953400  1
  O  O17  1  0.75034200  0.74997600  0.25046600  1
  O  O18  1  0.25002400  0.24965800  0.25046600  1
  O  O19  1  0.75034200  0.74997600  0.74953400  1
loop_
_geom_bond_atom_site_label_1
_geom_bond_atom_site_label_2
_geom_bond_distance
_geom_bond_site_symmetry_2
Ce0 O0 2.256904 1_554
Ce0 O1 2.256904 1_555
Ce0 O2 2.256904 1_554
Ce0 O3 2.256904 1_555
Ce0 O5 2.633025 1_555
Ce0 O6 2.633025 1_554
Ce0 O7 2.633025 1_555
Ce0 O4 2.633025 1_554
Nb0 O17 1.984716 1_555
Nb0 O18 1.984716 1_555
Nb0 O16 1.984716 1_555
Nb0 O19 1.984716 1_555
Nb0 O14 1.995648 1_555
Nb0 O13 2.000623 1_555
Nb1 O16 1.987154 1_564
Nb1 O19 1.987154 1_454
Nb1 O18 1.987154 1_565
Nb1 O17 1.987154 1_455
Nb1 O12 2.000448 1_555
Nb1 O15 2.001121 1_465
Cu0 O5 1.991213 1_455
Cu0 O6 1.991213 1_454
Cu0 O7 1.991213 1_565
Cu0 O4 1.991213 1_564
Cu0 O12 2.170262 1_555
Cu1 O6 1.992453 1_555
Cu1 O7 1.992453 1_555
Cu1 O4 1.992453 1_555
Cu1 O5 1.992453 1_555
Cu1 O13 2.169296 1_555
Cu2 O10 1.989592 1_555
Cu2 O9 1.989592 1_555
Cu2 O8 1.989592 1_555
Cu2 O11 1.989592 1_555
Cu2 O14 2.163735 1_555
Cu3 O11 1.992291 1_655
Cu3 O8 1.992291 1_654
Cu3 O9 1.992291 1_545
Cu3 O10 1.992291 1_544
Cu3 O15 2.157413 1_555
O0 Pr1 2.404223 1_555
O0 Pr2 2.404539 1_546
O0 Pr0 2.407089 1_545
O1 Pr1 2.404223 1_555
O1 Pr2 2.404539 1_655
O1 Pr0 2.407089 1_655
O2 Pr1 2.404223 1_555
O2 Pr2 2.404539 1_656
O2 Pr0 2.407089 1_655
O3 Pr1 2.404223 1_555
O3 Pr2 2.404539 1_545
O3 Pr0 2.407089 1_545
O4 Pr0 2.614791 1_545
O4 Sr1 2.739584 1_556
O4 Sr0 2.816304 1_545
O5 Pr0 2.614791 1_655
O5 Sr1 2.739584 1_555
O5 Sr0 2.816304 1_655
O6 Pr0 2.614791 1_655
O6 Sr1 2.739584 1_556
O6 Sr0 2.816304 1_655
O7 Pr0 2.614791 1_545
O7 Sr1 2.739584 1_555
O7 Sr0 2.816304 1_545
O8 Pr2 2.629223 1_556
O8 Pr1 2.629472 1_455
O8 Sr2 2.752238 1_556
O8 Sr3 2.752968 1_455
O9 Pr2 2.629223 1_555
O9 Pr1 2.629472 1_565
O9 Sr2 2.752238 1_555
O9 Sr3 2.752968 1_565
O10 Pr2 2.629223 1_556
O10 Pr1 2.629472 1_565
O10 Sr2 2.752238 1_556
O10 Sr3 2.752968 1_565
O11 Pr2 2.629223 1_555
O11 Pr1 2.629472 1_455
O11 Sr2 2.752238 1_555
O11 Sr3 2.752968 1_455
O12 Sr0 2.830922 1_555
O12 Sr0 2.830922 1_554
O12 Sr1 2.836743 1_565
O12 Sr1 2.836743 1_455
O13 Sr0 2.830702 1_655
O13 Sr0 2.830702 1_545
O13 Sr1 2.837063 1_556
O13 Sr1 2.837063 1_555
O14 Sr3 2.836426 1_455
O14 Sr3 2.836426 1_565
O14 Sr2 2.836803 1_556
O14 Sr2 2.836803 1_555
O15 Sr2 2.835850 1_545
O15 Sr2 2.835850 1_655
O15 Sr3 2.836007 1_554
O15 Sr3 2.836007 1_555
O16 Sr0 3.078017 1_545
O16 Sr3 3.109620 1_455
O16 Sr2 3.113397 1_556
O16 Sr1 3.116304 1_556
O17 Sr0 3.078017 1_655
O17 Sr3 3.109620 1_565
O17 Sr2 3.113397 1_555
O17 Sr1 3.116304 1_555
O18 Sr0 3.078017 1_545
O18 Sr3 3.109620 1_455
O18 Sr2 3.113397 1_555
O18 Sr1 3.116304 1_555
O19 Sr0 3.078017 1_655
O19 Sr3 3.109620 1_565
O19 Sr2 3.113397 1_556
O19 Sr1 3.116304 1_556
