# generated using pymatgen
data_Cu19Sn16
_symmetry_space_group_name_H-M   'P 1'
_cell_length_a   7.54866400
_cell_length_b   9.77652994
_cell_length_c   9.79287863
_cell_angle_alpha   116.54957109
_cell_angle_beta   90.17547041
_cell_angle_gamma   90.32568388
_symmetry_Int_Tables_number   1
_chemical_formula_structural   Cu19Sn16
_chemical_formula_sum   'Cu19 Sn16'
_cell_volume   646.47734129
_cell_formula_units_Z   1
loop_
 _symmetry_equiv_pos_site_id
 _symmetry_equiv_pos_as_xyz
  1  'x, y, z'
loop_
 _atom_site_type_symbol
 _atom_site_label
 _atom_site_symmetry_multiplicity
 _atom_site_fract_x
 _atom_site_fract_y
 _atom_site_fract_z
 _atom_site_occupancy
  Cu  Cu0  1  0.75774000  0.31221300  0.19176100  1
  Cu  Cu1  1  0.25583800  0.18789400  0.81023300  1
  Cu  Cu2  1  0.24680200  0.68729400  0.81208000  1
  Cu  Cu3  1  0.74626400  0.81364700  0.18997800  1
  Cu  Cu4  1  0.26995600  0.44485900  0.05960300  1
  Cu  Cu5  1  0.77660900  0.05773900  0.94223700  1
  Cu  Cu6  1  0.72328500  0.55698600  0.94364100  1
  Cu  Cu7  1  0.22669700  0.94074500  0.05853300  1
  Cu  Cu8  1  0.22804300  0.18724300  0.31586400  1
  Cu  Cu9  1  0.72368900  0.31751200  0.68654500  1
  Cu  Cu10  1  0.77545000  0.81467600  0.68151800  1
  Cu  Cu11  1  0.26874700  0.68249500  0.31441400  1
  Cu  Cu12  1  0.74368000  0.06731500  0.43018900  1
  Cu  Cu13  1  0.24840900  0.43109000  0.56649500  1
  Cu  Cu14  1  0.25592700  0.93086200  0.56860900  1
  Cu  Cu15  1  0.75486500  0.56794100  0.43053000  1
  Cu  Cu16  1  0.09183200  0.93773200  0.80923300  1
  Cu  Cu17  1  0.40939400  0.43758800  0.81216900  1
  Cu  Cu18  1  0.90833700  0.06298700  0.19059500  1
  Sn  Sn0  1  0.09570200  0.21492100  0.06927700  1
  Sn  Sn1  1  0.59344900  0.29322400  0.94179600  1
  Sn  Sn2  1  0.90581300  0.78477300  0.92995900  1
  Sn  Sn3  1  0.41335900  0.71040300  0.07662400  1
  Sn  Sn4  1  0.55159500  0.06259000  0.18243700  1
  Sn  Sn5  1  0.05336900  0.43668000  0.81652000  1
  Sn  Sn6  1  0.44892800  0.93850100  0.81578200  1
  Sn  Sn7  1  0.92811300  0.56244200  0.18322300  1
  Sn  Sn8  1  0.58834700  0.81887400  0.44289500  1
  Sn  Sn9  1  0.09154400  0.66785400  0.54406800  1
  Sn  Sn10  1  0.41245900  0.16901500  0.54509200  1
  Sn  Sn11  1  0.91023000  0.33183900  0.45694900  1
  Sn  Sn12  1  0.08525900  0.92215500  0.32230900  1
  Sn  Sn13  1  0.58370900  0.57718800  0.67696800  1
  Sn  Sn14  1  0.91176800  0.07817700  0.67819600  1
  Sn  Sn15  1  0.42469100  0.43064800  0.31377900  1
loop_
_geom_bond_atom_site_label_1
_geom_bond_atom_site_label_2
_geom_bond_distance
_geom_bond_site_symmetry_2
Cu0 Cu15 2.548235 1_555
Cu0 Cu5 2.598541 1_554
Cu0 Sn1 2.671545 1_554
Cu0 Cu18 2.689983 1_555
Cu0 Sn11 2.764009 1_555
Cu0 Sn7 2.791682 1_555
Cu0 Sn0 2.806834 1_655
Cu0 Sn15 2.811358 1_555
Cu0 Sn4 2.853486 1_555
Cu1 Cu14 2.568680 1_545
Cu1 Cu4 2.607159 1_556
Cu1 Cu17 2.688766 1_555
Cu1 Sn0 2.718371 1_556
Cu1 Cu16 2.731012 1_545
Cu1 Sn10 2.786844 1_555
Cu1 Sn1 2.824763 1_555
Cu1 Sn5 2.857374 1_555
Cu1 Sn6 2.868909 1_545
Cu1 Sn14 2.876836 1_455
Cu2 Cu7 2.578420 1_556
Cu2 Sn3 2.792285 1_556
Cu2 Sn9 2.798386 1_555
Cu2 Sn2 2.815843 1_455
Cu2 Sn13 2.855834 1_555
Cu2 Sn5 2.862180 1_555
Cu2 Sn6 2.870261 1_555
Cu3 Cu6 2.593673 1_554
Cu3 Sn2 2.719214 1_554
Cu3 Sn8 2.731981 1_555
Cu3 Sn3 2.742010 1_555
Cu3 Sn7 2.795333 1_555
Cu3 Sn12 2.841283 1_655
Cu3 Sn4 2.879044 1_565
Cu4 Sn0 2.636328 1_555
Cu4 Sn3 2.742158 1_555
Cu4 Sn15 2.805798 1_555
Cu4 Sn1 2.832180 1_554
Cu4 Sn5 2.854933 1_554
Cu4 Sn7 2.873079 1_455
Cu5 Sn1 2.693867 1_555
Cu5 Sn6 2.769278 1_545
Cu5 Sn2 2.798377 1_545
Cu5 Sn0 2.818099 1_656
Cu5 Sn14 2.870982 1_555
Cu5 Sn4 2.888958 1_556
Cu6 Cu9 2.559484 1_555
Cu6 Sn2 2.666227 1_555
Cu6 Sn1 2.745903 1_555
Cu6 Sn3 2.780544 1_556
Cu6 Sn7 2.786238 1_556
Cu6 Sn5 2.808034 1_655
Cu6 Sn13 2.900968 1_555
Cu7 Cu8 2.593999 1_565
Cu7 Sn3 2.734823 1_555
Cu7 Sn4 2.750041 1_565
Cu7 Sn0 2.820026 1_565
Cu7 Sn2 2.828573 1_454
Cu7 Sn12 2.877474 1_555
Cu7 Sn6 2.905873 1_554
Cu8 Sn10 2.711109 1_555
Cu8 Sn0 2.734024 1_555
Cu8 Sn4 2.790629 1_555
Cu8 Sn15 2.805383 1_555
Cu8 Sn11 2.824122 1_455
Cu8 Sn12 2.827929 1_545
Cu9 Sn11 2.712282 1_555
Cu9 Sn14 2.713815 1_555
Cu9 Sn10 2.773014 1_555
Cu9 Sn5 2.791555 1_655
Cu9 Sn13 2.795213 1_555
Cu9 Sn1 2.795380 1_555
Cu10 Cu15 2.564644 1_555
Cu10 Cu5 2.596464 1_565
Cu10 Cu16 2.705429 1_655
Cu10 Sn13 2.712311 1_555
Cu10 Sn8 2.742870 1_555
Cu10 Sn2 2.756366 1_555
Cu10 Sn14 2.782328 1_565
Cu10 Sn9 2.810165 1_655
Cu10 Sn6 2.810769 1_555
Cu11 Cu4 2.538151 1_555
Cu11 Cu14 2.588965 1_555
Cu11 Sn9 2.678001 1_555
Cu11 Sn3 2.696081 1_555
Cu11 Sn12 2.699984 1_555
Cu11 Sn15 2.732664 1_555
Cu11 Sn8 2.761591 1_555
Cu11 Sn7 2.870079 1_455
Cu12 Cu3 2.543628 1_545
Cu12 Cu9 2.612554 1_555
Cu12 Cu18 2.642271 1_555
Cu12 Sn14 2.696083 1_555
Cu12 Sn8 2.743824 1_545
Cu12 Sn10 2.747993 1_555
Cu12 Sn11 2.773542 1_555
Cu12 Sn4 2.805096 1_555
Cu12 Sn12 2.914895 1_645
Cu13 Cu8 2.548315 1_555
Cu13 Cu2 2.583308 1_555
Cu13 Cu17 2.667119 1_555
Cu13 Sn9 2.700440 1_555
Cu13 Sn11 2.762913 1_455
Cu13 Sn10 2.774858 1_555
Cu13 Sn15 2.811790 1_555
Cu13 Sn5 2.840595 1_555
Cu13 Sn13 2.859650 1_555
Cu14 Cu16 2.639859 1_555
Cu14 Sn12 2.698306 1_555
Cu14 Sn10 2.705548 1_565
Cu14 Sn9 2.760184 1_555
Cu14 Sn6 2.793329 1_555
Cu14 Sn8 2.802903 1_555
Cu14 Sn14 2.941628 1_465
Cu15 Sn13 2.706847 1_555
Cu15 Sn11 2.707991 1_555
Cu15 Sn8 2.717273 1_555
Cu15 Sn7 2.735390 1_555
Cu15 Sn9 2.762801 1_655
Cu15 Sn15 2.809518 1_555
Cu16 Cu7 2.630153 1_556
Cu16 Sn14 2.639157 1_465
Cu16 Sn2 2.678149 1_455
Cu16 Sn6 2.696052 1_555
Cu16 Cu5 2.723917 1_465
Cu16 Cu2 2.730818 1_555
Cu16 Sn9 2.753120 1_555
Cu16 Sn0 2.767523 1_566
Cu17 Cu4 2.616643 1_556
Cu17 Sn13 2.636807 1_555
Cu17 Sn1 2.673365 1_555
Cu17 Sn5 2.688008 1_555
Cu17 Cu6 2.690896 1_555
Cu17 Cu9 2.697935 1_555
Cu17 Cu2 2.738995 1_555
Cu17 Sn10 2.756349 1_555
Cu17 Sn3 2.765047 1_556
Cu18 Cu5 2.603798 1_554
Cu18 Sn12 2.634581 1_645
Cu18 Sn0 2.679965 1_655
Cu18 Sn4 2.693795 1_555
Cu18 Cu3 2.718822 1_545
Cu18 Cu8 2.724196 1_655
Cu18 Cu7 2.747028 1_645
Cu18 Sn11 2.753728 1_555
Cu18 Sn2 2.776009 1_544
