# generated using pymatgen
data_Ba4Na(FeAs)10
_symmetry_space_group_name_H-M   'P 1'
_cell_length_a   8.91724361
_cell_length_b   8.91724361
_cell_length_c   8.91724361
_cell_angle_alpha   121.31040997
_cell_angle_beta   121.31040997
_cell_angle_gamma   87.74490355
_symmetry_Int_Tables_number   1
_chemical_formula_structural   Ba4Na(FeAs)10
_chemical_formula_sum   'Ba4 Na1 Fe10 As10'
_cell_volume   491.04728127
_cell_formula_units_Z   1
loop_
 _symmetry_equiv_pos_site_id
 _symmetry_equiv_pos_as_xyz
  1  'x, y, z'
loop_
 _atom_site_type_symbol
 _atom_site_label
 _atom_site_symmetry_multiplicity
 _atom_site_fract_x
 _atom_site_fract_y
 _atom_site_fract_z
 _atom_site_occupancy
  Ba  Ba0  1  0.19789100  0.60536900  0.80326000  1
  Ba  Ba1  1  0.39463100  0.19789100  0.59252200  1
  Ba  Ba2  1  0.60536900  0.80210900  0.40747800  1
  Ba  Ba3  1  0.80210900  0.39463100  0.19674000  1
  Na  Na0  1  0.00000000  0.00000000  0.00000000  1
  Fe  Fe0  1  0.35044500  0.04959700  0.89960900  1
  Fe  Fe1  1  0.54916500  0.64955500  0.69915300  1
  Fe  Fe2  1  0.75000000  0.25000000  0.50000000  1
  Fe  Fe3  1  0.95040300  0.85001200  0.30084700  1
  Fe  Fe4  1  0.14998800  0.45083500  0.10039100  1
  Fe  Fe5  1  0.45083500  0.35044500  0.30084700  1
  Fe  Fe6  1  0.64955500  0.95040300  0.10039100  1
  Fe  Fe7  1  0.85001200  0.54916500  0.89960900  1
  Fe  Fe8  1  0.04959700  0.14998800  0.69915300  1
  Fe  Fe9  1  0.25000000  0.75000000  0.50000000  1
  As  As0  1  0.45071400  0.05283900  0.19942400  1
  As  As1  1  0.65327200  0.65327200  0.00000000  1
  As  As2  1  0.85341500  0.25129000  0.80057600  1
  As  As3  1  0.05283900  0.85341500  0.60212600  1
  As  As4  1  0.25129000  0.45071400  0.39787400  1
  As  As5  1  0.34672800  0.34672800  0.00000000  1
  As  As6  1  0.54928600  0.94716100  0.80057600  1
  As  As7  1  0.74871000  0.54928600  0.60212600  1
  As  As8  1  0.94716100  0.14658500  0.39787400  1
  As  As9  1  0.14658500  0.74871000  0.19942400  1
loop_
_geom_bond_atom_site_label_1
_geom_bond_atom_site_label_2
_geom_bond_distance
_geom_bond_site_symmetry_2
As0 Fe5 2.316326 1_555
As0 Fe0 2.320604 1_554
As0 Fe6 2.328040 1_545
As0 Fe2 2.331183 1_555
As0 Ba0 3.356137 1_544
As0 Ba1 3.356978 1_555
As0 Na0 3.374529 1_555
As0 Ba2 3.428142 1_545
As1 Fe1 2.319795 1_554
As1 Fe3 2.319800 1_555
As1 Fe7 2.319800 1_554
As1 Fe6 2.319802 1_555
As1 Ba1 3.420988 1_554
As1 Ba0 3.420988 1_554
As1 Ba2 3.420988 1_555
As1 Ba3 3.420988 1_555
As2 Fe8 2.316318 1_655
As2 Fe4 2.320602 1_656
As2 Fe7 2.328048 1_555
As2 Fe2 2.331183 1_555
As2 Ba3 3.356137 1_556
As2 Ba2 3.356978 1_545
As2 Na0 3.374529 1_656
As2 Ba1 3.428142 1_555
As3 Fe0 2.316321 1_565
As3 Fe8 2.320604 1_565
As3 Fe3 2.328056 1_455
As3 Fe9 2.331188 1_555
As3 Ba2 3.356135 1_455
As3 Ba0 3.356972 1_555
As3 Na0 3.374520 1_566
As3 Ba3 3.428143 1_455
As4 Fe4 2.316309 1_555
As4 Fe5 2.320595 1_555
As4 Fe1 2.328048 1_555
As4 Fe9 2.331181 1_555
As4 Ba1 3.356143 1_555
As4 Ba3 3.356980 1_455
As4 Na0 3.374528 1_555
As4 Ba0 3.428150 1_555
As5 Fe5 2.319795 1_555
As5 Fe4 2.319800 1_555
As5 Fe8 2.319800 1_554
As5 Fe0 2.319802 1_554
As5 Ba3 3.420988 1_555
As5 Ba2 3.420988 1_555
As5 Ba1 3.420988 1_554
As5 Ba0 3.420988 1_554
As6 Fe1 2.316326 1_555
As6 Fe6 2.320604 1_556
As6 Fe0 2.328040 1_565
As6 Fe9 2.331183 1_555
As6 Ba3 3.356137 1_566
As6 Ba2 3.356978 1_555
As6 Na0 3.374529 1_666
As6 Ba1 3.428142 1_565
As7 Fe7 2.316309 1_555
As7 Fe1 2.320595 1_555
As7 Fe5 2.328048 1_555
As7 Fe2 2.331181 1_555
As7 Ba2 3.356143 1_555
As7 Ba0 3.356980 1_655
As7 Na0 3.374528 1_666
As7 Ba3 3.428150 1_555
As8 Fe6 2.316321 1_545
As8 Fe3 2.320604 1_545
As8 Fe8 2.328056 1_655
As8 Fe2 2.331188 1_555
As8 Ba1 3.356135 1_655
As8 Ba3 3.356972 1_555
As8 Na0 3.374520 1_655
As8 Ba0 3.428143 1_655
As9 Fe3 2.316318 1_455
As9 Fe7 2.320602 1_454
As9 Fe4 2.328048 1_555
As9 Fe9 2.331183 1_555
As9 Ba0 3.356137 1_554
As9 Ba1 3.356978 1_565
As9 Na0 3.374529 1_565
As9 Ba2 3.428142 1_555
