# generated using pymatgen
data_YbMgS3
_symmetry_space_group_name_H-M   'P 1'
_cell_length_a   7.43158716
_cell_length_b   11.65483500
_cell_length_c   6.65942645
_cell_angle_alpha   90.00000000
_cell_angle_beta   115.94650479
_cell_angle_gamma   90.00000000
_symmetry_Int_Tables_number   1
_chemical_formula_structural   YbMgS3
_chemical_formula_sum   'Yb4 Mg4 S12'
_cell_volume   518.65940024
_cell_formula_units_Z   4
loop_
 _symmetry_equiv_pos_site_id
 _symmetry_equiv_pos_as_xyz
  1  'x, y, z'
loop_
 _atom_site_type_symbol
 _atom_site_label
 _atom_site_symmetry_multiplicity
 _atom_site_fract_x
 _atom_site_fract_y
 _atom_site_fract_z
 _atom_site_occupancy
  Yb  Yb0  1  0.09734400  0.00000000  0.27972000  1
  Yb  Yb1  1  0.90265600  0.00000000  0.72028000  1
  Yb  Yb2  1  0.59734400  0.50000000  0.27972000  1
  Yb  Yb3  1  0.40265600  0.50000000  0.72028000  1
  Mg  Mg0  1  0.00000000  0.36584100  0.00000000  1
  Mg  Mg1  1  0.00000000  0.63415900  0.00000000  1
  Mg  Mg2  1  0.50000000  0.86584100  0.00000000  1
  Mg  Mg3  1  0.50000000  0.13415900  0.00000000  1
  S  S0  1  0.27856200  0.20694600  0.15610500  1
  S  S1  1  0.72143800  0.79305400  0.84389500  1
  S  S2  1  0.72143800  0.20694600  0.84389500  1
  S  S3  1  0.27856200  0.79305400  0.15610500  1
  S  S4  1  0.77856200  0.70694600  0.15610500  1
  S  S5  1  0.22143800  0.29305400  0.84389500  1
  S  S6  1  0.22143800  0.70694600  0.84389500  1
  S  S7  1  0.77856200  0.29305400  0.15610500  1
  S  S8  1  0.27029600  0.00000000  0.71548900  1
  S  S9  1  0.72970400  0.00000000  0.28451100  1
  S  S10  1  0.77029600  0.50000000  0.71548900  1
  S  S11  1  0.22970400  0.50000000  0.28451100  1
loop_
_geom_bond_atom_site_label_1
_geom_bond_atom_site_label_2
_geom_bond_distance
_geom_bond_site_symmetry_2
Mg0 S7 2.450610 1_455
Mg0 S5 2.450610 1_554
Mg0 S11 2.473556 1_555
Mg0 S10 2.473556 1_454
Mg0 S0 2.629177 1_555
Mg0 S2 2.629177 1_454
Mg1 S6 2.450610 1_554
Mg1 S4 2.450610 1_455
Mg1 S10 2.473556 1_454
Mg1 S11 2.473556 1_555
Mg1 S1 2.629177 1_454
Mg1 S3 2.629177 1_555
Mg2 S3 2.450610 1_555
Mg2 S1 2.450610 1_554
Mg2 S8 2.473556 1_564
Mg2 S9 2.473556 1_565
Mg2 S6 2.629177 1_554
Mg2 S4 2.629177 1_555
Mg3 S0 2.450610 1_555
Mg3 S2 2.450610 1_554
Mg3 S9 2.473556 1_555
Mg3 S8 2.473556 1_554
Mg3 S5 2.629177 1_554
Mg3 S7 2.629177 1_555
S0 S5 2.176657 1_554
S0 Yb0 3.046123 1_555
S1 S4 2.176657 1_556
S1 Yb1 3.046123 1_565
S2 S7 2.176657 1_556
S2 Yb1 3.046123 1_555
S3 S6 2.176657 1_554
S3 Yb0 3.046123 1_565
S4 Yb2 3.046123 1_555
S5 Yb3 3.046123 1_555
S6 Yb3 3.046123 1_555
S7 Yb2 3.046123 1_555
S8 Yb0 2.609508 1_555
S8 Yb1 2.746258 1_455
S9 Yb1 2.609508 1_555
S9 Yb0 2.746258 1_655
S10 Yb2 2.609508 1_555
S10 Yb3 2.746258 1_555
S11 Yb3 2.609508 1_555
S11 Yb2 2.746258 1_555
