# generated using pymatgen
data_Ba4Fe2MoWO12
_symmetry_space_group_name_H-M   'P 1'
_cell_length_a   10.07465355
_cell_length_b   10.07465355
_cell_length_c   10.07465389
_cell_angle_alpha   33.60693299
_cell_angle_beta   33.60693299
_cell_angle_gamma   33.60693617
_symmetry_Int_Tables_number   1
_chemical_formula_structural   Ba4Fe2MoWO12
_chemical_formula_sum   'Ba4 Fe2 Mo1 W1 O12'
_cell_volume   279.05641654
_cell_formula_units_Z   1
loop_
 _symmetry_equiv_pos_site_id
 _symmetry_equiv_pos_as_xyz
  1  'x, y, z'
loop_
 _atom_site_type_symbol
 _atom_site_label
 _atom_site_symmetry_multiplicity
 _atom_site_fract_x
 _atom_site_fract_y
 _atom_site_fract_z
 _atom_site_occupancy
  Ba  Ba0  1  0.62334700  0.62334700  0.62334700  1
  Ba  Ba1  1  0.12643000  0.12643000  0.12643000  1
  Ba  Ba2  1  0.87357000  0.87357000  0.87357000  1
  Ba  Ba3  1  0.37665300  0.37665300  0.37665300  1
  Fe  Fe0  1  0.24644400  0.24644400  0.24644400  1
  Fe  Fe1  1  0.75355600  0.75355600  0.75355600  1
  Mo  Mo0  1  0.50000000  0.50000000  0.50000000  1
  W  W0  1  0.00000000  0.00000000  0.00000000  1
  O  O0  1  0.12098300  0.12098300  0.63903800  1
  O  O1  1  0.62598600  0.62598600  0.12080100  1
  O  O2  1  0.37401400  0.87919900  0.37401400  1
  O  O3  1  0.87901700  0.36096200  0.87901700  1
  O  O4  1  0.63903800  0.12098300  0.12098300  1
  O  O5  1  0.12080100  0.62598600  0.62598600  1
  O  O6  1  0.37401400  0.37401400  0.87919900  1
  O  O7  1  0.87901700  0.87901700  0.36096200  1
  O  O8  1  0.12098300  0.63903800  0.12098300  1
  O  O9  1  0.62598600  0.12080100  0.62598600  1
  O  O10  1  0.87919900  0.37401400  0.37401400  1
  O  O11  1  0.36096200  0.87901700  0.87901700  1
loop_
_geom_bond_atom_site_label_1
_geom_bond_atom_site_label_2
_geom_bond_distance
_geom_bond_site_symmetry_2
Ba0 O6 2.864237 1_555
Ba0 O2 2.864237 1_555
Ba0 O10 2.864237 1_555
Ba0 O4 2.914972 1_565
Ba0 O8 2.914972 1_655
Ba0 O8 2.914972 1_556
Ba0 O4 2.914972 1_556
Ba0 O0 2.914972 1_565
Ba0 O0 2.914972 1_655
Ba0 O7 2.936863 1_555
Ba0 O3 2.936863 1_555
Ba0 O11 2.936863 1_555
Ba1 O6 2.883282 1_554
Ba1 O10 2.883282 1_455
Ba1 O2 2.883282 1_545
Ba1 O9 2.913188 1_455
Ba1 O5 2.913188 1_545
Ba1 O5 2.913188 1_554
Ba1 O9 2.913188 1_554
Ba1 O1 2.913189 1_545
Ba1 O1 2.913189 1_455
Ba1 O7 2.955933 1_445
Ba1 O11 2.955933 1_544
Ba1 O3 2.955933 1_454
Ba2 O1 2.883282 1_556
Ba2 O5 2.883282 1_655
Ba2 O9 2.883282 1_565
Ba2 O2 2.913188 1_655
Ba2 O10 2.913188 1_565
Ba2 O2 2.913188 1_556
Ba2 O10 2.913188 1_556
Ba2 O6 2.913189 1_655
Ba2 O6 2.913189 1_565
Ba2 O0 2.955933 1_665
Ba2 O8 2.955933 1_656
Ba2 O4 2.955933 1_566
Ba3 O1 2.864237 1_555
Ba3 O5 2.864237 1_555
Ba3 O9 2.864237 1_555
Ba3 O3 2.914972 1_455
Ba3 O11 2.914972 1_545
Ba3 O11 2.914972 1_554
Ba3 O3 2.914972 1_554
Ba3 O7 2.914972 1_545
Ba3 O7 2.914972 1_455
Ba3 O0 2.936863 1_555
Ba3 O8 2.936863 1_555
Ba3 O4 2.936863 1_555
Fe0 O2 1.975505 1_545
Fe0 O10 1.975505 1_455
Fe0 O6 1.975505 1_554
Fe0 O4 2.201266 1_555
Fe0 O8 2.201266 1_555
Fe0 O0 2.201266 1_555
Fe1 O9 1.975505 1_565
Fe1 O5 1.975505 1_655
Fe1 O1 1.975505 1_556
Fe1 O11 2.201266 1_555
Fe1 O3 2.201266 1_555
Fe1 O7 2.201266 1_555
Mo0 O10 2.084782 1_555
Mo0 O2 2.084782 1_555
Mo0 O5 2.084782 1_555
Mo0 O9 2.084782 1_555
Mo0 O6 2.084782 1_555
Mo0 O1 2.084782 1_555
O0 W0 1.975872 1_556
O3 W0 1.975872 1_656
O4 W0 1.975872 1_655
O7 W0 1.975872 1_665
O8 W0 1.975872 1_565
O11 W0 1.975872 1_566
