# generated using pymatgen
data_TaFeAs
_symmetry_space_group_name_H-M   'P 1'
_cell_length_a   3.72594366
_cell_length_b   6.26282698
_cell_length_c   7.04330272
_cell_angle_alpha   90.00000000
_cell_angle_beta   90.00000000
_cell_angle_gamma   90.00000000
_symmetry_Int_Tables_number   1
_chemical_formula_structural   TaFeAs
_chemical_formula_sum   'Ta4 Fe4 As4'
_cell_volume   164.35504975
_cell_formula_units_Z   4
loop_
 _symmetry_equiv_pos_site_id
 _symmetry_equiv_pos_as_xyz
  1  'x, y, z'
loop_
 _atom_site_type_symbol
 _atom_site_label
 _atom_site_symmetry_multiplicity
 _atom_site_fract_x
 _atom_site_fract_y
 _atom_site_fract_z
 _atom_site_occupancy
  Ta  Ta0  1  0.75000000  0.48039048  0.17930244  1
  Ta  Ta1  1  0.75000000  0.98039048  0.32069756  1
  Ta  Ta2  1  0.25000000  0.51960952  0.82069756  1
  Ta  Ta3  1  0.25000000  0.01960952  0.67930244  1
  Fe  Fe0  1  0.75000000  0.35908818  0.56368323  1
  Fe  Fe1  1  0.75000000  0.85908818  0.93631677  1
  Fe  Fe2  1  0.25000000  0.64091182  0.43631677  1
  Fe  Fe3  1  0.25000000  0.14091182  0.06368323  1
  As  As0  1  0.75000000  0.22565308  0.88062858  1
  As  As1  1  0.75000000  0.72565308  0.61937142  1
  As  As2  1  0.25000000  0.77434692  0.11937142  1
  As  As3  1  0.25000000  0.27434692  0.38062858  1
loop_
_geom_bond_atom_site_label_1
_geom_bond_atom_site_label_2
_geom_bond_distance
_geom_bond_site_symmetry_2
Fe0 Ta2 2.785365 1_555
Fe0 Ta2 2.785365 1_655
Fe0 Ta0 2.811879 1_555
Fe0 Ta1 2.924724 1_545
Fe0 Ta3 2.941785 1_655
Fe0 Ta3 2.941785 1_555
Fe1 Ta3 2.785365 1_565
Fe1 Ta3 2.785365 1_665
Fe1 Ta1 2.811879 1_556
Fe1 Ta0 2.924724 1_556
Fe1 Ta2 2.941785 1_555
Fe1 Ta2 2.941785 1_655
Fe2 Ta0 2.785365 1_455
Fe2 Ta0 2.785365 1_555
Fe2 Ta2 2.811879 1_555
Fe2 Ta3 2.924724 1_565
Fe2 Ta1 2.941785 1_555
Fe2 Ta1 2.941785 1_455
Fe3 Ta1 2.785365 1_445
Fe3 Ta1 2.785365 1_545
Fe3 Ta3 2.811879 1_554
Fe3 Ta2 2.924724 1_554
Fe3 Ta0 2.941785 1_555
Fe3 Ta0 2.941785 1_455
As0 Fe3 2.326939 1_556
As0 Fe3 2.326939 1_656
As0 Fe1 2.328998 1_545
As0 Fe0 2.383635 1_555
As0 Ta0 2.640184 1_556
As0 Ta2 2.652945 1_655
As0 Ta2 2.652945 1_555
As0 Ta3 2.673305 1_655
As0 Ta3 2.673305 1_555
As1 Fe2 2.326939 1_555
As1 Fe2 2.326939 1_655
As1 Fe0 2.328998 1_555
As1 Fe1 2.383635 1_555
As1 Ta1 2.640184 1_555
As1 Ta3 2.652945 1_565
As1 Ta3 2.652945 1_665
As1 Ta2 2.673305 1_555
As1 Ta2 2.673305 1_655
As2 Fe1 2.326939 1_454
As2 Fe1 2.326939 1_554
As2 Fe3 2.328998 1_565
As2 Fe2 2.383635 1_555
As2 Ta2 2.640184 1_554
As2 Ta0 2.652945 1_555
As2 Ta0 2.652945 1_455
As2 Ta1 2.673305 1_455
As2 Ta1 2.673305 1_555
As3 Fe0 2.326939 1_555
As3 Fe0 2.326939 1_455
As3 Fe2 2.328998 1_555
As3 Fe3 2.383635 1_555
As3 Ta3 2.640184 1_555
As3 Ta1 2.652945 1_445
As3 Ta1 2.652945 1_545
As3 Ta0 2.673305 1_455
As3 Ta0 2.673305 1_555
