# generated using pymatgen
data_Nd23Cd4Ni7
_symmetry_space_group_name_H-M   'P 1'
_cell_length_a   9.94336279
_cell_length_b   9.94336279
_cell_length_c   22.52776500
_cell_angle_alpha   90.00000000
_cell_angle_beta   90.00000000
_cell_angle_gamma   120.00000524
_symmetry_Int_Tables_number   1
_chemical_formula_structural   Nd23Cd4Ni7
_chemical_formula_sum   'Nd46 Cd8 Ni14'
_cell_volume   1928.92475234
_cell_formula_units_Z   2
loop_
 _symmetry_equiv_pos_site_id
 _symmetry_equiv_pos_as_xyz
  1  'x, y, z'
loop_
 _atom_site_type_symbol
 _atom_site_label
 _atom_site_symmetry_multiplicity
 _atom_site_fract_x
 _atom_site_fract_y
 _atom_site_fract_z
 _atom_site_occupancy
  Nd  Nd0  1  0.20666600  0.41333300  0.71963700  1
  Nd  Nd1  1  0.20666600  0.79333400  0.71963700  1
  Nd  Nd2  1  0.79333400  0.58666700  0.21963700  1
  Nd  Nd3  1  0.58666700  0.79333400  0.71963700  1
  Nd  Nd4  1  0.79333400  0.20666600  0.21963700  1
  Nd  Nd5  1  0.41333300  0.20666600  0.21963700  1
  Nd  Nd6  1  0.79290800  0.58581600  0.94724500  1
  Nd  Nd7  1  0.79290800  0.20709200  0.94724500  1
  Nd  Nd8  1  0.20709200  0.41418400  0.44724500  1
  Nd  Nd9  1  0.41418400  0.20709200  0.94724500  1
  Nd  Nd10  1  0.20709200  0.79290800  0.44724500  1
  Nd  Nd11  1  0.58581600  0.79290800  0.44724500  1
  Nd  Nd12  1  0.21079000  0.42158100  0.99049300  1
  Nd  Nd13  1  0.21079000  0.78921000  0.99049300  1
  Nd  Nd14  1  0.78921000  0.57841900  0.49049300  1
  Nd  Nd15  1  0.57841900  0.78921000  0.99049300  1
  Nd  Nd16  1  0.78921000  0.21079000  0.49049300  1
  Nd  Nd17  1  0.42158100  0.21079000  0.49049300  1
  Nd  Nd18  1  0.87282000  0.74564000  0.63379700  1
  Nd  Nd19  1  0.87282000  0.12718000  0.63379700  1
  Nd  Nd20  1  0.12718000  0.25436000  0.13379700  1
  Nd  Nd21  1  0.25436000  0.12718000  0.63379700  1
  Nd  Nd22  1  0.12718000  0.87282000  0.13379700  1
  Nd  Nd23  1  0.74564000  0.87282000  0.13379700  1
  Nd  Nd24  1  0.45752400  0.91504800  0.85591800  1
  Nd  Nd25  1  0.45752400  0.54247600  0.85591800  1
  Nd  Nd26  1  0.54247600  0.08495200  0.35591800  1
  Nd  Nd27  1  0.08495200  0.54247600  0.85591800  1
  Nd  Nd28  1  0.54247600  0.45752400  0.35591800  1
  Nd  Nd29  1  0.91504800  0.45752400  0.35591800  1
  Nd  Nd30  1  0.00000000  0.00000000  0.99939800  1
  Nd  Nd31  1  0.00000000  0.00000000  0.49939800  1
  Nd  Nd32  1  0.46039600  0.92079200  0.58566600  1
  Nd  Nd33  1  0.46039600  0.53960400  0.58566600  1
  Nd  Nd34  1  0.53960400  0.07920800  0.08566600  1
  Nd  Nd35  1  0.07920800  0.53960400  0.58566600  1
  Nd  Nd36  1  0.53960400  0.46039600  0.08566600  1
  Nd  Nd37  1  0.92079200  0.46039600  0.08566600  1
  Nd  Nd38  1  0.79653800  0.59307600  0.78230800  1
  Nd  Nd39  1  0.79653800  0.20346200  0.78230800  1
  Nd  Nd40  1  0.20346200  0.40692400  0.28230800  1
  Nd  Nd41  1  0.40692400  0.20346200  0.78230800  1
  Nd  Nd42  1  0.20346200  0.79653800  0.28230800  1
  Nd  Nd43  1  0.59307600  0.79653800  0.28230800  1
  Nd  Nd44  1  0.66666700  0.33333300  0.64548600  1
  Nd  Nd45  1  0.33333300  0.66666700  0.14548600  1
  Cd  Cd0  1  0.00000000  0.00000000  0.74919400  1
  Cd  Cd1  1  0.00000000  0.00000000  0.24919400  1
  Cd  Cd2  1  0.10668500  0.21336900  0.86315500  1
  Cd  Cd3  1  0.10668500  0.89331500  0.86315500  1
  Cd  Cd4  1  0.89331500  0.78663100  0.36315500  1
  Cd  Cd5  1  0.78663100  0.89331500  0.86315500  1
  Cd  Cd6  1  0.89331500  0.10668500  0.36315500  1
  Cd  Cd7  1  0.21336900  0.10668500  0.36315500  1
  Ni  Ni0  1  0.52131700  0.04263300  0.71043400  1
  Ni  Ni1  1  0.52131700  0.47868300  0.71043400  1
  Ni  Ni2  1  0.47868300  0.95736700  0.21043400  1
  Ni  Ni3  1  0.95736700  0.47868300  0.71043400  1
  Ni  Ni4  1  0.47868300  0.52131700  0.21043400  1
  Ni  Ni5  1  0.04263300  0.52131700  0.21043400  1
  Ni  Ni6  1  0.66666700  0.33333300  0.86321400  1
  Ni  Ni7  1  0.33333300  0.66666700  0.36321400  1
  Ni  Ni8  1  0.14275500  0.28551100  0.56449000  1
  Ni  Ni9  1  0.14275500  0.85724500  0.56449000  1
  Ni  Ni10  1  0.85724500  0.71448900  0.06449000  1
  Ni  Ni11  1  0.71448900  0.85724500  0.56449000  1
  Ni  Ni12  1  0.85724500  0.14275500  0.06449000  1
  Ni  Ni13  1  0.28551100  0.14275500  0.06449000  1
loop_
_geom_bond_atom_site_label_1
_geom_bond_atom_site_label_2
_geom_bond_distance
_geom_bond_site_symmetry_2
Nd0 Ni3 2.867191 1_455
Nd0 Ni1 2.867211 1_555
Nd1 Ni0 2.867204 1_565
Nd1 Ni3 2.867204 1_455
Nd2 Ni5 2.867191 1_655
Nd2 Ni4 2.867211 1_555
Nd3 Ni0 2.867191 1_565
Nd3 Ni1 2.867211 1_555
Nd4 Ni5 2.867204 1_655
Nd4 Ni2 2.867204 1_545
Nd5 Ni2 2.867191 1_545
Nd5 Ni4 2.867211 1_555
Nd6 Ni10 2.864267 1_556
Nd6 Ni6 2.882817 1_555
Nd7 Ni12 2.864270 1_556
Nd7 Ni6 2.882811 1_555
Nd8 Ni8 2.864267 1_555
Nd8 Ni7 2.882817 1_555
Nd9 Ni13 2.864267 1_556
Nd9 Ni6 2.882817 1_555
Nd10 Ni9 2.864270 1_555
Nd10 Ni7 2.882811 1_555
Nd11 Ni11 2.864267 1_555
Nd11 Ni7 2.882817 1_555
Nd12 Ni12 3.616246 1_456
Nd12 Ni13 3.616258 1_556
Nd13 Ni13 3.616241 1_566
Nd13 Ni10 3.616241 1_456
Nd14 Ni9 3.616246 1_655
Nd14 Ni11 3.616258 1_555
Nd15 Ni12 3.616246 1_566
Nd15 Ni10 3.616258 1_556
Nd16 Ni8 3.616241 1_655
Nd16 Ni11 3.616241 1_545
Nd17 Ni9 3.616246 1_545
Nd17 Ni8 3.616258 1_555
Nd18 Ni9 2.809779 1_655
Nd18 Ni11 2.809787 1_555
Nd18 Ni1 3.600697 1_555
Nd18 Ni3 3.600703 1_555
Nd19 Ni8 2.809780 1_655
Nd19 Ni11 2.809780 1_545
Nd19 Ni3 3.600695 1_555
Nd19 Ni0 3.600695 1_555
Nd20 Ni12 2.809779 1_455
Nd20 Ni13 2.809787 1_555
Nd20 Ni4 3.600697 1_555
Nd20 Ni5 3.600703 1_555
Nd21 Ni9 2.809779 1_545
Nd21 Ni8 2.809787 1_555
Nd21 Ni1 3.600697 1_555
Nd21 Ni0 3.600703 1_555
Nd22 Ni13 2.809780 1_565
Nd22 Ni10 2.809780 1_455
Nd22 Ni2 3.600695 1_555
Nd22 Ni5 3.600695 1_555
Nd23 Ni12 2.809779 1_565
Nd23 Ni10 2.809787 1_555
Nd23 Ni4 3.600697 1_555
Nd23 Ni2 3.600703 1_555
Nd24 Ni0 3.456674 1_565
Nd24 Ni6 3.605686 1_565
Nd25 Ni1 3.456677 1_555
Nd25 Ni6 3.605695 1_555
Nd26 Ni2 3.456674 1_545
Nd26 Ni7 3.605686 1_545
Nd27 Ni3 3.456674 1_455
Nd27 Ni6 3.605686 1_455
Nd28 Ni4 3.456677 1_555
Nd28 Ni7 3.605695 1_555
Nd29 Ni5 3.456674 1_655
Nd29 Ni7 3.605686 1_655
Nd30 Ni12 2.862674 1_456
Nd30 Ni13 2.862681 1_556
Nd30 Ni10 2.862681 1_446
Nd31 Ni9 2.862674 1_545
Nd31 Ni8 2.862681 1_555
Nd31 Ni11 2.862681 1_445
Nd32 Ni11 2.933715 1_555
Nd32 Ni9 2.933724 1_555
Nd32 Ni0 3.000183 1_565
Nd33 Ni11 2.933721 1_555
Nd33 Ni8 2.933721 1_555
Nd33 Ni1 3.000186 1_555
Nd34 Ni13 2.933715 1_555
Nd34 Ni12 2.933724 1_555
Nd34 Ni2 3.000183 1_545
Nd35 Ni8 2.933715 1_555
Nd35 Ni9 2.933724 1_555
Nd35 Ni3 3.000183 1_455
Nd36 Ni13 2.933721 1_555
Nd36 Ni10 2.933721 1_555
Nd36 Ni4 3.000186 1_555
Nd37 Ni10 2.933715 1_555
Nd37 Ni12 2.933724 1_555
Nd37 Ni5 3.000183 1_655
Nd38 Ni1 2.879549 1_555
Nd38 Ni3 2.879557 1_555
Nd38 Ni6 2.885275 1_555
Nd39 Ni3 2.879550 1_555
Nd39 Ni0 2.879550 1_555
Nd39 Ni6 2.885269 1_555
Nd40 Ni4 2.879549 1_555
Nd40 Ni5 2.879557 1_555
Nd40 Ni7 2.885275 1_555
Nd41 Ni1 2.879549 1_555
Nd41 Ni0 2.879557 1_555
Nd41 Ni6 2.885275 1_555
Nd42 Ni2 2.879550 1_555
Nd42 Ni5 2.879550 1_555
Nd42 Ni7 2.885269 1_555
Nd43 Ni4 2.879549 1_555
Nd43 Ni2 2.879557 1_555
Nd43 Ni7 2.885275 1_555
Nd44 Ni3 2.899509 1_555
Nd44 Ni0 2.899509 1_555
Nd44 Ni1 2.899510 1_555
Nd45 Ni2 2.899509 1_555
Nd45 Ni5 2.899509 1_555
Nd45 Ni4 2.899510 1_555
Cd0 Cd2 3.157035 1_555
Cd0 Cd5 3.157035 1_445
Cd0 Cd3 3.157040 1_545
Cd0 Nd18 3.399371 1_445
Cd0 Nd21 3.399371 1_555
Cd0 Nd19 3.399371 1_455
Cd0 Nd41 3.582632 1_555
Cd0 Nd38 3.582632 1_445
Cd0 Nd39 3.582632 1_455
Cd0 Nd1 3.621033 1_545
Cd0 Nd0 3.621041 1_555
Cd0 Nd3 3.621041 1_445
Cd1 Cd4 3.157035 1_445
Cd1 Cd7 3.157035 1_555
Cd1 Cd6 3.157040 1_455
Cd1 Nd23 3.399371 1_445
Cd1 Nd20 3.399371 1_555
Cd1 Nd22 3.399371 1_545
Cd1 Nd40 3.582632 1_555
Cd1 Nd43 3.582632 1_445
Cd1 Nd42 3.582632 1_545
Cd1 Nd4 3.621033 1_455
Cd1 Nd5 3.621041 1_555
Cd1 Nd2 3.621041 1_445
Cd2 Cd5 3.182413 1_445
Cd2 Cd3 3.182413 1_545
Cd2 Nd12 3.382867 1_555
Cd2 Nd25 3.389574 1_555
Cd2 Nd27 3.389579 1_555
Cd2 Nd41 3.540262 1_555
Cd2 Nd39 3.540271 1_455
Cd2 Nd30 3.577178 1_555
Cd2 Nd9 3.623823 1_555
Cd2 Nd7 3.623831 1_455
Cd2 Nd0 3.663091 1_555
Cd3 Cd5 3.182413 1_455
Cd3 Nd13 3.382858 1_555
Cd3 Nd27 3.389569 1_555
Cd3 Nd24 3.389569 1_555
Cd3 Nd41 3.540267 1_565
Cd3 Nd38 3.540267 1_455
Cd3 Nd30 3.577183 1_565
Cd3 Nd6 3.623827 1_455
Cd3 Nd9 3.623827 1_565
Cd3 Nd1 3.663083 1_555
Cd4 Cd7 3.182413 1_665
Cd4 Cd6 3.182413 1_565
Cd4 Nd14 3.382867 1_555
Cd4 Nd28 3.389574 1_555
Cd4 Nd29 3.389579 1_555
Cd4 Nd43 3.540262 1_555
Cd4 Nd42 3.540271 1_655
Cd4 Nd31 3.577178 1_665
Cd4 Nd11 3.623823 1_555
Cd4 Nd10 3.623831 1_655
Cd4 Nd2 3.663091 1_555
Cd5 Nd15 3.382867 1_555
Cd5 Nd25 3.389574 1_555
Cd5 Nd24 3.389579 1_555
Cd5 Nd38 3.540262 1_555
Cd5 Nd39 3.540271 1_565
Cd5 Nd30 3.577178 1_665
Cd5 Nd6 3.623823 1_555
Cd5 Nd7 3.623831 1_565
Cd5 Nd3 3.663091 1_555
Cd6 Cd7 3.182413 1_655
Cd6 Nd16 3.382858 1_555
Cd6 Nd29 3.389569 1_555
Cd6 Nd26 3.389569 1_555
Cd6 Nd40 3.540267 1_655
Cd6 Nd43 3.540267 1_545
Cd6 Nd31 3.577183 1_655
Cd6 Nd11 3.623827 1_545
Cd6 Nd8 3.623827 1_655
Cd6 Nd4 3.663083 1_555
Cd7 Nd17 3.382867 1_555
Cd7 Nd28 3.389574 1_555
Cd7 Nd26 3.389579 1_555
Cd7 Nd40 3.540262 1_555
Cd7 Nd42 3.540271 1_545
Cd7 Nd31 3.577178 1_555
Cd7 Nd8 3.623823 1_555
Cd7 Nd10 3.623831 1_545
Cd7 Nd5 3.663091 1_555
