# generated using pymatgen
data_Rb3Bi2I9
_symmetry_space_group_name_H-M   'P 1'
_cell_length_a   8.44828200
_cell_length_b   15.13087300
_cell_length_c   26.07709485
_cell_angle_alpha   55.14351708
_cell_angle_beta   90.00000000
_cell_angle_gamma   90.00000000
_symmetry_Int_Tables_number   1
_chemical_formula_structural   Rb3Bi2I9
_chemical_formula_sum   'Rb12 Bi8 I36'
_cell_volume   2735.36824151
_cell_formula_units_Z   4
loop_
 _symmetry_equiv_pos_site_id
 _symmetry_equiv_pos_as_xyz
  1  'x, y, z'
loop_
 _atom_site_type_symbol
 _atom_site_label
 _atom_site_symmetry_multiplicity
 _atom_site_fract_x
 _atom_site_fract_y
 _atom_site_fract_z
 _atom_site_occupancy
  Rb  Rb0  1  0.47678600  0.19185700  0.27648700  1
  Rb  Rb1  1  0.02321400  0.19185700  0.77648700  1
  Rb  Rb2  1  0.52321400  0.80814300  0.72351300  1
  Rb  Rb3  1  0.97678600  0.80814300  0.22351300  1
  Rb  Rb4  1  0.01985100  0.87441100  0.43864000  1
  Rb  Rb5  1  0.48014900  0.87441100  0.93864000  1
  Rb  Rb6  1  0.98014900  0.12558900  0.56136000  1
  Rb  Rb7  1  0.51985100  0.12558900  0.06136000  1
  Rb  Rb8  1  0.47279300  0.54168200  0.60644500  1
  Rb  Rb9  1  0.02720700  0.54168200  0.10644500  1
  Rb  Rb10  1  0.52720700  0.45831800  0.39355500  1
  Rb  Rb11  1  0.97279300  0.45831800  0.89355500  1
  Bi  Bi0  1  0.99329700  0.67465600  0.65857900  1
  Bi  Bi1  1  0.50670300  0.67465600  0.15857900  1
  Bi  Bi2  1  0.00670300  0.32534400  0.34142100  1
  Bi  Bi3  1  0.49329700  0.32534400  0.84142100  1
  Bi  Bi4  1  0.51004000  0.82069300  0.34253800  1
  Bi  Bi5  1  0.98996000  0.82069300  0.84253800  1
  Bi  Bi6  1  0.48996000  0.17930700  0.65746200  1
  Bi  Bi7  1  0.01004000  0.17930700  0.15746200  1
  I  I0  1  0.08434300  0.74047300  0.75420800  1
  I  I1  1  0.41565700  0.74047300  0.25420800  1
  I  I2  1  0.91565700  0.25952700  0.24579200  1
  I  I3  1  0.58434300  0.25952700  0.74579200  1
  I  I4  1  0.30247900  0.31373300  0.11323500  1
  I  I5  1  0.19752100  0.31373300  0.61323500  1
  I  I6  1  0.69752100  0.68626700  0.88676500  1
  I  I7  1  0.80247900  0.68626700  0.38676500  1
  I  I8  1  0.28815600  0.78843300  0.58711300  1
  I  I9  1  0.21184400  0.78843300  0.08711300  1
  I  I10  1  0.71184400  0.21156700  0.41288700  1
  I  I11  1  0.78815600  0.21156700  0.91288700  1
  I  I12  1  0.56940800  0.91062400  0.41773300  1
  I  I13  1  0.93059200  0.91062400  0.91773300  1
  I  I14  1  0.43059200  0.08937600  0.58226700  1
  I  I15  1  0.06940800  0.08937600  0.08226700  1
  I  I16  1  0.19374600  0.97683400  0.28123700  1
  I  I17  1  0.30625400  0.97683400  0.78123700  1
  I  I18  1  0.80625400  0.02316600  0.71876300  1
  I  I19  1  0.69374600  0.02316600  0.21876300  1
  I  I20  1  0.92530100  0.59421200  0.57929500  1
  I  I21  1  0.57469900  0.59421200  0.07929500  1
  I  I22  1  0.07469900  0.40578800  0.42070500  1
  I  I23  1  0.42530100  0.40578800  0.92070500  1
  I  I24  1  0.30722600  0.64389400  0.44270600  1
  I  I25  1  0.19277400  0.64389400  0.94270600  1
  I  I26  1  0.69277400  0.35610600  0.55729400  1
  I  I27  1  0.80722600  0.35610600  0.05729400  1
  I  I28  1  0.32078900  0.44581400  0.25516200  1
  I  I29  1  0.17921100  0.44581400  0.75516200  1
  I  I30  1  0.67921100  0.55418600  0.74483800  1
  I  I31  1  0.82078900  0.55418600  0.24483800  1
  I  I32  1  0.20320700  0.12651600  0.42083400  1
  I  I33  1  0.29679300  0.12651600  0.92083400  1
  I  I34  1  0.79679300  0.87348400  0.57916600  1
  I  I35  1  0.70320700  0.87348400  0.07916600  1
loop_
_geom_bond_atom_site_label_1
_geom_bond_atom_site_label_2
_geom_bond_distance
_geom_bond_site_symmetry_2
Bi0 I20 2.993759 1_555
Bi0 I34 2.995653 1_555
Bi0 I8 2.995815 1_655
Bi0 I0 3.262014 1_655
Bi0 I30 3.276683 1_555
Bi0 I29 3.291113 1_655
Bi1 I21 2.993759 1_555
Bi1 I35 2.995653 1_555
Bi1 I9 2.995815 1_555
Bi1 I1 3.262014 1_555
Bi1 I31 3.276683 1_555
Bi1 I28 3.291113 1_555
Bi2 I22 2.993759 1_555
Bi2 I32 2.995653 1_555
Bi2 I10 2.995815 1_455
Bi2 I2 3.262014 1_455
Bi2 I28 3.276683 1_555
Bi2 I31 3.291113 1_455
Bi3 I23 2.993759 1_555
Bi3 I33 2.995653 1_555
Bi3 I11 2.995815 1_555
Bi3 I3 3.262014 1_555
Bi3 I29 3.276683 1_555
Bi3 I30 3.291113 1_555
Bi4 I7 2.981566 1_555
Bi4 I24 2.987963 1_555
Bi4 I12 2.999676 1_555
Bi4 I1 3.257377 1_555
Bi4 I19 3.302951 1_565
Bi4 I16 3.310658 1_555
Bi5 I6 2.981566 1_555
Bi5 I25 2.987963 1_655
Bi5 I13 2.999676 1_555
Bi5 I0 3.257377 1_655
Bi5 I18 3.302951 1_565
Bi5 I17 3.310658 1_655
Bi6 I5 2.981566 1_555
Bi6 I26 2.987963 1_555
Bi6 I14 2.999676 1_555
Bi6 I3 3.257377 1_555
Bi6 I17 3.302951 1_545
Bi6 I18 3.310658 1_555
Bi7 I4 2.981566 1_555
Bi7 I27 2.987963 1_455
Bi7 I15 2.999676 1_555
Bi7 I2 3.257377 1_455
Bi7 I16 3.302951 1_545
Bi7 I19 3.310658 1_455
I0 Rb2 3.807802 1_555
I0 Rb11 3.819201 1_455
I1 Rb3 3.807802 1_455
I1 Rb10 3.819201 1_555
I2 Rb0 3.807802 1_555
I2 Rb9 3.819201 1_655
I3 Rb1 3.807802 1_655
I3 Rb8 3.819201 1_555
I4 Rb0 3.836521 1_555
I4 Rb9 4.078928 1_555
I4 Rb7 4.208134 1_555
I5 Rb1 3.836521 1_555
I5 Rb8 4.078928 1_555
I5 Rb6 4.208134 1_455
I6 Rb2 3.836521 1_555
I6 Rb11 4.078928 1_555
I6 Rb5 4.208134 1_555
I7 Rb3 3.836521 1_555
I7 Rb10 4.078928 1_555
I7 Rb4 4.208134 1_655
I8 Rb8 3.804651 1_555
I8 Rb4 4.007926 1_555
I8 Rb2 4.230444 1_555
I9 Rb9 3.804651 1_555
I9 Rb5 4.007926 1_554
I9 Rb3 4.230444 1_455
I10 Rb10 3.804651 1_555
I10 Rb6 4.007926 1_555
I10 Rb0 4.230444 1_555
I11 Rb11 3.804651 1_555
I11 Rb7 4.007926 1_556
I11 Rb1 4.230444 1_655
I12 Rb0 3.790906 1_565
I12 Rb4 3.838959 1_655
I13 Rb1 3.790906 1_665
I13 Rb5 3.838959 1_555
I14 Rb2 3.790906 1_545
I14 Rb6 3.838959 1_455
I15 Rb3 3.790906 1_445
I15 Rb7 3.838959 1_555
I16 Rb4 3.759896 1_555
I16 Rb0 3.982175 1_565
I16 Rb3 4.065981 1_455
I17 Rb5 3.759896 1_555
I17 Rb1 3.982175 1_565
I17 Rb2 4.065981 1_555
I18 Rb6 3.759896 1_555
I18 Rb2 3.982175 1_545
I18 Rb1 4.065981 1_655
I19 Rb7 3.759896 1_555
I19 Rb3 3.982175 1_545
I19 Rb0 4.065981 1_555
I20 Rb4 3.780354 1_655
I20 Rb8 3.886445 1_555
I21 Rb5 3.780354 1_554
I21 Rb9 3.886445 1_655
I22 Rb6 3.780354 1_455
I22 Rb10 3.886445 1_555
I23 Rb7 3.780354 1_556
I23 Rb11 3.886445 1_455
I24 Rb8 3.877076 1_555
I24 Rb10 4.134599 1_555
I24 Rb4 4.201007 1_555
I25 Rb9 3.877076 1_556
I25 Rb11 4.134599 1_455
I25 Rb5 4.201007 1_555
I26 Rb10 3.877076 1_555
I26 Rb8 4.134599 1_555
I26 Rb6 4.201007 1_555
I27 Rb11 3.877076 1_554
I27 Rb9 4.134599 1_655
I27 Rb7 4.201007 1_555
I28 Rb0 3.790662 1_555
I28 Rb9 4.106753 1_555
I28 Rb10 4.108702 1_555
I29 Rb1 3.790662 1_555
I29 Rb8 4.106753 1_555
I29 Rb11 4.108702 1_455
I30 Rb2 3.790662 1_555
I30 Rb11 4.106753 1_555
I30 Rb8 4.108702 1_555
I31 Rb3 3.790662 1_555
I31 Rb10 4.106753 1_555
I31 Rb9 4.108702 1_655
I32 Rb4 3.891207 1_545
I32 Rb0 4.029198 1_555
I32 Rb6 4.113545 1_455
I33 Rb5 3.891207 1_545
I33 Rb1 4.029198 1_555
I33 Rb7 4.113545 1_556
I34 Rb6 3.891207 1_565
I34 Rb2 4.029198 1_555
I34 Rb4 4.113545 1_655
I35 Rb7 3.891207 1_565
I35 Rb3 4.029198 1_555
I35 Rb5 4.113545 1_554
