# generated using pymatgen
data_Pr4C2Br5
_symmetry_space_group_name_H-M   'P 1'
_cell_length_a   13.01340858
_cell_length_b   13.01340858
_cell_length_c   7.82425245
_cell_angle_alpha   73.86149866
_cell_angle_beta   73.86149866
_cell_angle_gamma   15.30535423
_symmetry_Int_Tables_number   1
_chemical_formula_structural   Pr4C2Br5
_chemical_formula_sum   'Pr4 C2 Br5'
_cell_volume   335.72143942
_cell_formula_units_Z   1
loop_
 _symmetry_equiv_pos_site_id
 _symmetry_equiv_pos_as_xyz
  1  'x, y, z'
loop_
 _atom_site_type_symbol
 _atom_site_label
 _atom_site_symmetry_multiplicity
 _atom_site_fract_x
 _atom_site_fract_y
 _atom_site_fract_z
 _atom_site_occupancy
  Pr  Pr0  1  0.95685000  0.95685000  0.23259900  1
  Pr  Pr1  1  0.03750200  0.03750200  0.77022900  1
  Pr  Pr2  1  0.31065700  0.31065700  0.12829800  1
  Pr  Pr3  1  0.68254800  0.68254800  0.88209600  1
  C  C0  1  0.23815200  0.23815200  0.98666300  1
  C  C1  1  0.75500000  0.75500000  0.02412300  1
  Br  Br0  1  0.90929700  0.90929700  0.92778300  1
  Br  Br1  1  0.08386500  0.08386500  0.08184400  1
  Br  Br2  1  0.49308700  0.49308700  0.50986000  1
  Br  Br3  1  0.83548900  0.83548900  0.42531700  1
  Br  Br4  1  0.15995100  0.15995100  0.58168800  1
loop_
_geom_bond_atom_site_label_1
_geom_bond_atom_site_label_2
_geom_bond_distance
_geom_bond_site_symmetry_2
C0 C1 1.830135 1_546
C0 C1 1.830135 1_456
C0 Pr2 2.426631 1_556
C0 Pr3 2.527452 1_455
C0 Pr3 2.527452 1_545
C1 Pr3 2.427468 1_554
C1 Pr2 2.526873 1_565
C1 Pr2 2.526873 1_655
Br0 Pr0 2.972134 1_556
Br0 Pr2 3.114403 1_656
Br0 Pr2 3.114403 1_566
Br0 Pr1 3.188968 1_665
Br1 Pr1 3.001735 1_554
Br1 Pr3 3.113511 1_454
Br1 Pr3 3.113511 1_544
Br1 Pr0 3.155645 1_445
Br2 Pr0 3.117760 1_455
Br2 Pr0 3.117760 1_545
Br2 Pr1 3.126513 1_655
Br2 Pr1 3.126513 1_565
Br3 Pr0 3.070181 1_555
Br3 Pr2 3.106314 1_565
Br3 Pr2 3.106314 1_655
Br4 Pr1 3.088557 1_555
Br4 Pr3 3.104210 1_545
Br4 Pr3 3.104210 1_455
