# generated using pymatgen
data_FeCu3
_symmetry_space_group_name_H-M   'P 1'
_cell_length_a   5.16888413
_cell_length_b   5.16888413
_cell_length_c   4.15990000
_cell_angle_alpha   90.00000000
_cell_angle_beta   90.00000000
_cell_angle_gamma   120.00000163
_symmetry_Int_Tables_number   1
_chemical_formula_structural   FeCu3
_chemical_formula_sum   'Fe2 Cu6'
_cell_volume   96.25141179
_cell_formula_units_Z   2
loop_
 _symmetry_equiv_pos_site_id
 _symmetry_equiv_pos_as_xyz
  1  'x, y, z'
loop_
 _atom_site_type_symbol
 _atom_site_label
 _atom_site_symmetry_multiplicity
 _atom_site_fract_x
 _atom_site_fract_y
 _atom_site_fract_z
 _atom_site_occupancy
  Fe  Fe0  1  0.33333300  0.66666700  0.75000000  1
  Fe  Fe1  1  0.66666700  0.33333300  0.25000000  1
  Cu  Cu0  1  0.16677600  0.33355100  0.25000000  1
  Cu  Cu1  1  0.66644900  0.83322400  0.25000000  1
  Cu  Cu2  1  0.16677600  0.83322400  0.25000000  1
  Cu  Cu3  1  0.83322400  0.66644900  0.75000000  1
  Cu  Cu4  1  0.33355100  0.16677600  0.75000000  1
  Cu  Cu5  1  0.83322400  0.16677600  0.75000000  1
loop_
_geom_bond_atom_site_label_1
_geom_bond_atom_site_label_2
_geom_bond_distance
_geom_bond_site_symmetry_2
Cu0 Fe0 2.559245 1_555
Cu0 Fe0 2.559245 1_554
Cu0 Cu4 2.560378 1_555
Cu0 Cu4 2.560378 1_554
Cu0 Cu5 2.560383 1_455
Cu0 Cu5 2.560383 1_454
Cu0 Cu1 2.582752 1_555
Cu0 Cu2 2.582752 1_555
Cu0 Fe1 2.584442 1_455
Cu0 Fe1 2.584442 1_555
Cu0 Cu1 2.586132 1_445
Cu0 Cu2 2.586132 1_545
Cu1 Fe0 2.559245 1_555
Cu1 Fe0 2.559245 1_554
Cu1 Cu3 2.560378 1_555
Cu1 Cu3 2.560378 1_554
Cu1 Cu5 2.560383 1_564
Cu1 Cu5 2.560383 1_565
Cu1 Cu2 2.582752 1_555
Cu1 Fe1 2.584442 1_565
Cu1 Fe1 2.584442 1_555
Cu1 Cu2 2.586132 1_655
Cu2 Fe0 2.559240 1_555
Cu2 Fe0 2.559240 1_554
Cu2 Cu3 2.560383 1_455
Cu2 Cu4 2.560383 1_565
Cu2 Cu4 2.560383 1_564
Cu2 Cu3 2.560383 1_454
Cu2 Fe1 2.584442 1_455
Cu2 Fe1 2.584442 1_565
Cu3 Fe1 2.559245 1_555
Cu3 Fe1 2.559245 1_556
Cu3 Cu4 2.582752 1_555
Cu3 Cu5 2.582752 1_555
Cu3 Fe0 2.584442 1_655
Cu3 Fe0 2.584442 1_555
Cu3 Cu4 2.586132 1_665
Cu3 Cu5 2.586132 1_565
Cu4 Fe1 2.559245 1_556
Cu4 Fe1 2.559245 1_555
Cu4 Cu5 2.582752 1_555
Cu4 Fe0 2.584442 1_545
Cu4 Fe0 2.584442 1_555
Cu4 Cu5 2.586132 1_455
Cu5 Fe1 2.559240 1_556
Cu5 Fe1 2.559240 1_555
Cu5 Fe0 2.584442 1_545
Cu5 Fe0 2.584442 1_655
