# generated using pymatgen
data_Na2Si2S5
_symmetry_space_group_name_H-M   'P 1'
_cell_length_a   8.99536991
_cell_length_b   8.99536991
_cell_length_c   10.41154439
_cell_angle_alpha   90.00000000
_cell_angle_beta   90.00000000
_cell_angle_gamma   89.96569804
_symmetry_Int_Tables_number   1
_chemical_formula_structural   Na2Si2S5
_chemical_formula_sum   'Na8 Si8 S20'
_cell_volume   842.46745213
_cell_formula_units_Z   4
loop_
 _symmetry_equiv_pos_site_id
 _symmetry_equiv_pos_as_xyz
  1  'x, y, z'
loop_
 _atom_site_type_symbol
 _atom_site_label
 _atom_site_symmetry_multiplicity
 _atom_site_fract_x
 _atom_site_fract_y
 _atom_site_fract_z
 _atom_site_occupancy
  Na  Na0  1  0.90371224  0.41957935  0.25000000  1
  Na  Na1  1  0.84837480  0.84837480  -0.00000000  1
  Na  Na2  1  0.84837480  0.84837480  0.50000000  1
  Na  Na3  1  0.15162520  0.15162520  -0.00000000  1
  Na  Na4  1  0.58042065  0.09628776  0.25000000  1
  Na  Na5  1  0.41957935  0.90371224  0.75000000  1
  Na  Na6  1  0.09628776  0.58042065  0.75000000  1
  Na  Na7  1  0.15162520  0.15162520  0.50000000  1
  Si  Si0  1  0.68871468  0.58244165  0.75000000  1
  Si  Si1  1  0.41755835  0.31128532  0.75000000  1
  Si  Si2  1  0.58244165  0.68871468  0.25000000  1
  Si  Si3  1  0.25261175  0.74738825  0.08401813  1
  Si  Si4  1  0.74738825  0.25261175  0.58401813  1
  Si  Si5  1  0.74738825  0.25261175  0.91598187  1
  Si  Si6  1  0.31128532  0.41755835  0.25000000  1
  Si  Si7  1  0.25261175  0.74738825  0.41598187  1
  S  S0  1  0.48812801  0.79149060  0.08177238  1
  S  S1  1  0.79149060  0.48812801  0.91822762  1
  S  S2  1  0.20850940  0.51187199  0.41822762  1
  S  S3  1  0.84563168  0.15436832  0.75000000  1
  S  S4  1  0.15908366  0.84091634  0.57732231  1
  S  S5  1  0.84091634  0.15908366  0.07732231  1
  S  S6  1  0.84091634  0.15908366  0.42267769  1
  S  S7  1  0.15908366  0.84091634  0.92267769  1
  S  S8  1  0.80627118  0.72841936  0.25000000  1
  S  S9  1  0.19372882  0.27158064  0.75000000  1
  S  S10  1  0.72841936  0.80627118  0.75000000  1
  S  S11  1  0.27158064  0.19372882  0.25000000  1
  S  S12  1  0.51187199  0.20850940  0.58177238  1
  S  S13  1  0.20850940  0.51187199  0.08177238  1
  S  S14  1  0.79149060  0.48812801  0.58177238  1
  S  S15  1  0.51187199  0.20850940  0.91822762  1
  S  S16  1  0.48812801  0.79149060  0.41822762  1
  S  S17  1  0.45438508  0.54561492  0.75000000  1
  S  S18  1  0.54561492  0.45438508  0.25000000  1
  S  S19  1  0.15436832  0.84563168  0.25000000  1
loop_
_geom_bond_atom_site_label_1
_geom_bond_atom_site_label_2
_geom_bond_distance
_geom_bond_site_symmetry_2
Na0 S8 2.912624 1_555
Na0 S5 3.007282 1_555
Na0 S6 3.007282 1_555
Na0 S18 3.236211 1_555
Na0 S13 3.358127 1_655
Na0 S2 3.358127 1_655
Na1 S10 2.843111 1_554
Na1 S8 2.843111 1_555
Na1 S7 2.909307 1_654
Na1 S5 2.909307 1_565
Na2 S8 2.843111 1_555
Na2 S10 2.843111 1_555
Na2 S6 2.909307 1_565
Na2 S4 2.909307 1_655
Na3 S11 2.843111 1_555
Na3 S9 2.843111 1_554
Na3 S5 2.909307 1_455
Na3 S7 2.909307 1_544
Na4 S11 2.912624 1_555
Na4 S5 3.007282 1_555
Na4 S6 3.007282 1_555
Na4 S18 3.236211 1_555
Na4 S16 3.358127 1_545
Na4 S0 3.358127 1_545
Na5 S10 2.912624 1_555
Na5 S4 3.007282 1_555
Na5 S7 3.007282 1_555
Na5 S17 3.236211 1_555
Na5 S15 3.358127 1_565
Na5 S12 3.358127 1_565
Na6 S9 2.912624 1_555
Na6 S7 3.007282 1_555
Na6 S4 3.007282 1_555
Na6 S17 3.236211 1_555
Na6 S14 3.358127 1_455
Na6 S1 3.358127 1_455
Na7 S9 2.843111 1_555
Na7 S11 2.843111 1_555
Na7 S4 2.909307 1_545
Na7 S6 2.909307 1_455
S0 Si2 2.154372 1_555
S0 Si3 2.155740 1_555
S1 Si0 2.154372 1_555
S1 Si5 2.155740 1_555
S2 Si6 2.154372 1_555
S2 Si7 2.155740 1_555
S3 Si4 2.132479 1_555
S3 Si5 2.132479 1_555
S4 Si7 2.058283 1_555
S5 Si5 2.058283 1_554
S6 Si4 2.058283 1_555
S7 Si3 2.058283 1_556
S8 Si2 2.045072 1_555
S9 Si1 2.045072 1_555
S10 Si0 2.045072 1_555
S11 Si6 2.045072 1_555
S12 Si1 2.154372 1_555
S12 Si4 2.155740 1_555
S13 Si6 2.154372 1_555
S13 Si3 2.155740 1_555
S14 Si0 2.154372 1_555
S14 Si4 2.155740 1_555
S15 Si1 2.154372 1_555
S15 Si5 2.155740 1_555
S16 Si2 2.154372 1_555
S16 Si7 2.155740 1_555
S17 Si1 2.133949 1_555
S17 Si0 2.133949 1_555
S18 Si6 2.133949 1_555
S18 Si2 2.133949 1_555
S19 Si3 2.132479 1_555
S19 Si7 2.132479 1_555
