# generated using pymatgen
data_Li9Mn2Co5O16
_symmetry_space_group_name_H-M   'P 1'
_cell_length_a   5.87653900
_cell_length_b   5.90172649
_cell_length_c   8.27251998
_cell_angle_alpha   91.02346331
_cell_angle_beta   90.00644121
_cell_angle_gamma   90.38100536
_symmetry_Int_Tables_number   1
_chemical_formula_structural   Li9Mn2Co5O16
_chemical_formula_sum   'Li9 Mn2 Co5 O16'
_cell_volume   286.85314855
_cell_formula_units_Z   1
loop_
 _symmetry_equiv_pos_site_id
 _symmetry_equiv_pos_as_xyz
  1  'x, y, z'
loop_
 _atom_site_type_symbol
 _atom_site_label
 _atom_site_symmetry_multiplicity
 _atom_site_fract_x
 _atom_site_fract_y
 _atom_site_fract_z
 _atom_site_occupancy
  Li  Li0  1  0.00000000  0.50000000  0.00000000  1
  Li  Li1  1  0.25493900  0.74804700  0.25463100  1
  Li  Li2  1  0.25609200  0.25494900  0.74387100  1
  Li  Li3  1  0.50000000  0.50000000  0.00000000  1
  Li  Li4  1  0.50000000  0.00000000  0.50000000  1
  Li  Li5  1  0.74506100  0.25195300  0.74536900  1
  Li  Li6  1  0.74390800  0.74505100  0.25612900  1
  Li  Li7  1  0.00000000  0.00000000  0.50000000  1
  Li  Li8  1  0.50000000  0.50000000  0.50000000  1
  Mn  Mn0  1  0.00000000  0.00000000  0.00000000  1
  Mn  Mn1  1  0.00000000  0.50000000  0.50000000  1
  Co  Co0  1  0.25683400  0.25980100  0.25482400  1
  Co  Co1  1  0.74316600  0.74019900  0.74517600  1
  Co  Co2  1  0.50000000  0.00000000  0.00000000  1
  Co  Co3  1  0.74380700  0.25276000  0.25739100  1
  Co  Co4  1  0.25619300  0.74724000  0.74260900  1
  O  O0  1  0.76160000  0.77155300  0.00027000  1
  O  O1  1  0.00858900  0.01719300  0.23333300  1
  O  O2  1  0.99987200  0.50358100  0.73426700  1
  O  O3  1  0.23540000  0.76815600  0.98913600  1
  O  O4  1  0.23157300  0.26596200  0.49458200  1
  O  O5  1  0.50906300  0.52164400  0.75891100  1
  O  O6  1  0.49781200  0.00570000  0.23991400  1
  O  O7  1  0.76493600  0.26215600  0.48568500  1
  O  O8  1  0.23840000  0.22844700  0.99973000  1
  O  O9  1  0.49093700  0.47835600  0.24108900  1
  O  O10  1  0.50218800  0.99430000  0.76008600  1
  O  O11  1  0.76460000  0.23184400  0.01086400  1
  O  O12  1  0.76842700  0.73403800  0.50541800  1
  O  O13  1  0.99141100  0.98280700  0.76666700  1
  O  O14  1  0.00012800  0.49641900  0.26573300  1
  O  O15  1  0.23506400  0.73784400  0.51431500  1
loop_
_geom_bond_atom_site_label_1
_geom_bond_atom_site_label_2
_geom_bond_distance
_geom_bond_site_symmetry_2
Li0 O3 2.098157 1_554
Li0 O11 2.098157 1_455
Li0 O0 2.135620 1_455
Li0 O8 2.135620 1_554
Li0 O14 2.198761 1_555
Li0 O2 2.198761 1_454
Li1 O6 2.083717 1_565
Li1 O14 2.105073 1_555
Li1 O9 2.119494 1_555
Li1 O15 2.153321 1_555
Li1 O1 2.165746 1_565
Li1 O3 2.204653 1_554
Li2 O4 2.069468 1_555
Li2 O2 2.111887 1_455
Li2 O10 2.124308 1_545
Li2 O8 2.127657 1_555
Li2 O5 2.159777 1_555
Li2 O13 2.238772 1_445
Li3 O5 2.001468 1_554
Li3 O9 2.001468 1_555
Li3 O8 2.213332 1_554
Li3 O0 2.213332 1_555
Li3 O3 2.228955 1_554
Li3 O11 2.228955 1_555
Li4 O6 2.152469 1_555
Li4 O10 2.152469 1_545
Li4 O7 2.192322 1_555
Li4 O15 2.192322 1_545
Li4 O4 2.233707 1_555
Li4 O12 2.233707 1_545
Li5 O10 2.083717 1_545
Li5 O2 2.105073 1_555
Li5 O5 2.119494 1_555
Li5 O7 2.153321 1_555
Li5 O13 2.165746 1_545
Li5 O11 2.204653 1_556
Li6 O12 2.069468 1_555
Li6 O14 2.111887 1_655
Li6 O6 2.124308 1_565
Li6 O0 2.127657 1_555
Li6 O9 2.159777 1_555
Li6 O1 2.238772 1_665
Li7 O4 2.071663 1_555
Li7 O12 2.071663 1_445
Li7 O15 2.085872 1_545
Li7 O7 2.085872 1_455
Li7 O1 2.210717 1_555
Li7 O13 2.210717 1_445
Li8 O12 2.089702 1_555
Li8 O4 2.089702 1_555
Li8 O7 2.105112 1_555
Li8 O15 2.105112 1_555
Li8 O5 2.144008 1_555
Li8 O9 2.144008 1_555
Mn0 O13 1.931742 1_444
Mn0 O1 1.931742 1_555
Mn0 O0 1.937893 1_445
Mn0 O8 1.937893 1_554
Mn0 O3 1.953125 1_544
Mn0 O11 1.953125 1_455
Mn1 O14 1.937716 1_555
Mn1 O2 1.937716 1_455
Mn1 O12 1.945381 1_455
Mn1 O4 1.945381 1_555
Mn1 O7 1.964884 1_455
Mn1 O15 1.964884 1_555
Co0 O9 1.884381 1_555
Co0 O4 1.988670 1_555
Co0 O1 2.042769 1_555
Co0 O14 2.063365 1_555
Co0 O6 2.071516 1_555
Co0 O8 2.117770 1_554
Co1 O5 1.884381 1_555
Co1 O12 1.988670 1_555
Co1 O13 2.042769 1_555
Co1 O2 2.063365 1_555
Co1 O10 2.071516 1_555
Co1 O0 2.117770 1_556
Co2 O10 1.984422 1_544
Co2 O6 1.984422 1_555
Co2 O0 2.051513 1_545
Co2 O8 2.051513 1_554
Co2 O11 2.065275 1_555
Co2 O3 2.065275 1_544
Co3 O7 1.892430 1_555
Co3 O9 2.007911 1_555
Co3 O11 2.044647 1_555
Co3 O6 2.049646 1_555
Co3 O14 2.075846 1_655
Co3 O1 2.100597 1_655
Co4 O15 1.892430 1_555
Co4 O5 2.007911 1_555
Co4 O3 2.044647 1_555
Co4 O10 2.049646 1_555
Co4 O2 2.075846 1_455
Co4 O13 2.100597 1_455
