# generated using pymatgen
data_CePuFe4
_symmetry_space_group_name_H-M   'P 1'
_cell_length_a   4.94176989
_cell_length_b   4.94176989
_cell_length_c   4.94176989
_cell_angle_alpha   60.00000000
_cell_angle_beta   60.00000000
_cell_angle_gamma   60.00000000
_symmetry_Int_Tables_number   1
_chemical_formula_structural   CePuFe4
_chemical_formula_sum   'Ce1 Pu1 Fe4'
_cell_volume   85.33605438
_cell_formula_units_Z   1
loop_
 _symmetry_equiv_pos_site_id
 _symmetry_equiv_pos_as_xyz
  1  'x, y, z'
loop_
 _atom_site_type_symbol
 _atom_site_label
 _atom_site_symmetry_multiplicity
 _atom_site_fract_x
 _atom_site_fract_y
 _atom_site_fract_z
 _atom_site_occupancy
  Ce  Ce0  1  0.25000000  0.25000000  0.25000000  1
  Pu  Pu0  1  0.00000000  0.00000000  0.00000000  1
  Fe  Fe0  1  0.62593600  0.62593600  0.12219100  1
  Fe  Fe1  1  0.62593600  0.12219100  0.62593600  1
  Fe  Fe2  1  0.12219100  0.62593600  0.62593600  1
  Fe  Fe3  1  0.62593600  0.62593600  0.62593600  1
loop_
_geom_bond_atom_site_label_1
_geom_bond_atom_site_label_2
_geom_bond_distance
_geom_bond_site_symmetry_2
Ce0 Fe0 2.899361 1_555
Ce0 Fe1 2.899361 1_555
Ce0 Fe2 2.899361 1_555
Ce0 Fe3 2.899363 1_545
Ce0 Fe3 2.899363 1_554
Ce0 Fe3 2.899363 1_455
Ce0 Fe2 2.899365 1_554
Ce0 Fe0 2.899365 1_455
Ce0 Fe1 2.899365 1_455
Ce0 Fe1 2.899365 1_554
Ce0 Fe2 2.899365 1_545
Ce0 Fe0 2.899365 1_545
Ce0 Pu0 3.026204 1_556
Ce0 Pu0 3.026204 1_555
Ce0 Pu0 3.026204 1_655
Ce0 Pu0 3.026204 1_565
Fe0 Fe3 2.452378 1_554
Fe0 Fe1 2.452378 1_564
Fe0 Fe2 2.452378 1_654
Fe0 Fe1 2.489392 1_555
Fe0 Fe3 2.489392 1_555
Fe0 Fe2 2.489392 1_555
Fe0 Pu0 2.895417 1_655
Fe0 Pu0 2.895417 1_565
Fe0 Pu0 2.895421 1_665
Fe1 Fe3 2.452378 1_545
Fe1 Fe2 2.452378 1_645
Fe1 Fe3 2.489392 1_555
Fe1 Fe2 2.489392 1_555
Fe1 Pu0 2.895417 1_655
Fe1 Pu0 2.895417 1_556
Fe1 Pu0 2.895421 1_656
Fe2 Fe3 2.452378 1_455
Fe2 Fe3 2.489392 1_555
Fe2 Pu0 2.895417 1_556
Fe2 Pu0 2.895417 1_565
Fe2 Pu0 2.895421 1_566
Fe3 Pu0 2.895419 1_665
Fe3 Pu0 2.895419 1_566
Fe3 Pu0 2.895419 1_656
