# generated using pymatgen
data_Mg14ZnSi
_symmetry_space_group_name_H-M   'P 1'
_cell_length_a   6.22711781
_cell_length_b   6.26579430
_cell_length_c   10.26066909
_cell_angle_alpha   90.00000000
_cell_angle_beta   90.00000000
_cell_angle_gamma   120.20567621
_symmetry_Int_Tables_number   1
_chemical_formula_structural   Mg14ZnSi
_chemical_formula_sum   'Mg14 Zn1 Si1'
_cell_volume   345.99171903
_cell_formula_units_Z   1
loop_
 _symmetry_equiv_pos_site_id
 _symmetry_equiv_pos_as_xyz
  1  'x, y, z'
loop_
 _atom_site_type_symbol
 _atom_site_label
 _atom_site_symmetry_multiplicity
 _atom_site_fract_x
 _atom_site_fract_y
 _atom_site_fract_z
 _atom_site_occupancy
  Mg  Mg0  1  0.16996384  0.33498142  0.62500000  1
  Mg  Mg1  1  0.16868871  0.83434386  0.62500000  1
  Mg  Mg2  1  0.67127481  0.33497043  0.12500000  1
  Mg  Mg3  1  0.66536980  0.33356829  0.62500000  1
  Mg  Mg4  1  0.67127481  0.83630338  0.12500000  1
  Mg  Mg5  1  0.66536980  0.83180051  0.62500000  1
  Mg  Mg6  1  0.32848811  0.16403986  0.36561778  1
  Mg  Mg7  1  0.32848811  0.16403986  0.88438222  1
  Mg  Mg8  1  0.32848811  0.66444925  0.36561778  1
  Mg  Mg9  1  0.32848811  0.66444925  0.88438222  1
  Mg  Mg10  1  0.83597448  0.16798774  0.37479431  1
  Mg  Mg11  1  0.83597448  0.16798774  0.87520569  1
  Mg  Mg12  1  0.83688096  0.66844098  0.37282231  1
  Mg  Mg13  1  0.83688096  0.66844098  0.87717769  1
  Zn  Zn0  1  0.16322500  0.33161200  0.12500000  1
  Si  Si0  1  0.16516994  0.83258447  0.12500000  1
loop_
_geom_bond_atom_site_label_1
_geom_bond_atom_site_label_2
_geom_bond_distance
_geom_bond_site_symmetry_2
Mg0 Mg5 3.089415 1_555
Mg0 Mg3 3.089415 1_555
Mg0 Mg1 3.132905 1_545
Mg0 Mg1 3.132905 1_555
Mg0 Mg11 3.133941 1_455
Mg0 Mg10 3.133941 1_455
Mg0 Mg5 3.137721 1_445
Mg0 Mg3 3.137721 1_455
Mg0 Mg7 3.204499 1_555
Mg0 Mg6 3.204499 1_555
Mg0 Mg8 3.204505 1_555
Mg0 Mg9 3.204505 1_555
Mg1 Mg3 3.100940 1_565
Mg1 Mg5 3.100940 1_555
Mg1 Mg3 3.126239 1_455
Mg1 Mg5 3.126239 1_455
Mg1 Mg12 3.143855 1_455
Mg1 Mg13 3.143855 1_455
Mg1 Mg8 3.205079 1_555
Mg1 Mg9 3.205079 1_555
Mg1 Mg7 3.205085 1_565
Mg1 Mg6 3.205085 1_565
Mg2 Zn0 3.074073 1_655
Mg2 Mg7 3.081977 1_554
Mg2 Mg6 3.081977 1_555
Mg2 Si0 3.087332 1_655
Mg2 Mg4 3.124545 1_545
Mg2 Si0 3.139916 1_545
Mg2 Mg4 3.141249 1_555
Mg2 Zn0 3.153151 1_555
Mg3 Mg5 3.121821 1_555
Mg3 Mg5 3.143974 1_545
Mg3 Mg6 3.220272 1_555
Mg3 Mg7 3.220272 1_555
Mg4 Zn0 3.074072 1_665
Mg4 Mg9 3.081977 1_554
Mg4 Mg8 3.081977 1_555
Mg4 Si0 3.087332 1_655
Mg4 Si0 3.139916 1_555
Mg4 Zn0 3.153151 1_555
Mg5 Mg8 3.220272 1_555
Mg5 Mg9 3.220272 1_555
Mg6 Si0 3.052495 1_545
Mg6 Zn0 3.056834 1_555
Mg6 Mg8 3.130332 1_545
Mg6 Mg8 3.135462 1_555
Mg7 Si0 3.052495 1_546
Mg7 Zn0 3.056834 1_556
Mg7 Mg9 3.130332 1_545
Mg7 Mg9 3.135462 1_555
Mg8 Si0 3.052489 1_555
Mg8 Zn0 3.056840 1_555
Mg9 Si0 3.052489 1_556
Mg9 Zn0 3.056840 1_556
Mg10 Mg8 3.080899 1_655
Mg10 Mg6 3.080899 1_655
Mg10 Zn0 3.109804 1_655
Mg10 Mg2 3.129786 1_555
Mg10 Mg4 3.129792 1_545
Mg10 Mg12 3.132966 1_555
Mg10 Mg12 3.132966 1_545
Mg10 Mg3 3.147222 1_555
Mg10 Mg5 3.147228 1_545
Mg10 Mg8 3.149213 1_545
Mg10 Mg6 3.149213 1_555
Mg11 Mg9 3.080899 1_655
Mg11 Mg7 3.080899 1_655
Mg11 Zn0 3.109804 1_656
Mg11 Mg2 3.129786 1_556
Mg11 Mg4 3.129792 1_546
Mg11 Mg13 3.132966 1_555
Mg11 Mg13 3.132966 1_545
Mg11 Mg3 3.147222 1_555
Mg11 Mg5 3.147228 1_545
Mg11 Mg9 3.149213 1_545
Mg11 Mg7 3.149213 1_555
Mg12 Mg6 3.074843 1_665
Mg12 Mg8 3.074844 1_655
Mg12 Si0 3.096334 1_655
Mg12 Mg4 3.118827 1_555
Mg12 Mg2 3.118833 1_555
Mg12 Mg6 3.154179 1_555
Mg12 Mg8 3.154179 1_555
Mg12 Mg5 3.159681 1_555
Mg12 Mg3 3.159687 1_555
Mg13 Mg7 3.074843 1_665
Mg13 Mg9 3.074844 1_655
Mg13 Si0 3.096334 1_656
Mg13 Mg4 3.118827 1_556
Mg13 Mg2 3.118833 1_556
Mg13 Mg7 3.154179 1_555
Mg13 Mg9 3.154179 1_555
Mg13 Mg5 3.159681 1_555
Mg13 Mg3 3.159687 1_555
