# generated using pymatgen
data_CaTbMn2O6
_symmetry_space_group_name_H-M   'P 1'
_cell_length_a   5.37277100
_cell_length_b   5.55389100
_cell_length_c   7.58551600
_cell_angle_alpha   90.00000000
_cell_angle_beta   90.00000000
_cell_angle_gamma   90.00000000
_symmetry_Int_Tables_number   1
_chemical_formula_structural   CaTbMn2O6
_chemical_formula_sum   'Ca2 Tb2 Mn4 O12'
_cell_volume   226.35016278
_cell_formula_units_Z   2
loop_
 _symmetry_equiv_pos_site_id
 _symmetry_equiv_pos_as_xyz
  1  'x, y, z'
loop_
 _atom_site_type_symbol
 _atom_site_label
 _atom_site_symmetry_multiplicity
 _atom_site_fract_x
 _atom_site_fract_y
 _atom_site_fract_z
 _atom_site_occupancy
  Ca  Ca0  1  0.48979100  0.19916500  0.50000000  1
  Ca  Ca1  1  0.98979100  0.80083500  0.00000000  1
  Tb  Tb0  1  0.01555800  0.68932700  0.50000000  1
  Tb  Tb1  1  0.51555800  0.31067300  0.00000000  1
  Mn  Mn0  1  0.00043400  0.24632600  0.75002400  1
  Mn  Mn1  1  0.50043400  0.75367400  0.25002400  1
  Mn  Mn2  1  0.00043400  0.24632600  0.24997600  1
  Mn  Mn3  1  0.50043400  0.75367400  0.74997600  1
  O  O0  1  0.19880300  0.94946000  0.70156000  1
  O  O1  1  0.29148000  0.45950300  0.29620400  1
  O  O2  1  0.79148000  0.54049700  0.20379600  1
  O  O3  1  0.69880300  0.05054000  0.79844000  1
  O  O4  1  0.79148000  0.54049700  0.79620400  1
  O  O5  1  0.69880300  0.05054000  0.20156000  1
  O  O6  1  0.19880300  0.94946000  0.29844000  1
  O  O7  1  0.29148000  0.45950300  0.70379600  1
  O  O8  1  0.59782700  0.77467200  0.50000000  1
  O  O9  1  0.91539100  0.28004700  0.50000000  1
  O  O10  1  0.41539100  0.71995300  0.00000000  1
  O  O11  1  0.09782700  0.22532800  0.00000000  1
loop_
_geom_bond_atom_site_label_1
_geom_bond_atom_site_label_2
_geom_bond_distance
_geom_bond_site_symmetry_2
Ca0 O9 2.330357 1_555
Ca0 O7 2.369734 1_555
Ca0 O1 2.369734 1_555
Ca0 O8 2.427992 1_545
Ca0 O6 2.589443 1_545
Ca0 O0 2.589443 1_545
Ca0 O5 2.658443 1_555
Ca0 O3 2.658443 1_555
Ca1 O10 2.330357 1_655
Ca1 O2 2.369734 1_555
Ca1 O4 2.369734 1_554
Ca1 O11 2.427992 1_665
Ca1 O3 2.589443 1_564
Ca1 O5 2.589443 1_565
Ca1 O6 2.658443 1_655
Ca1 O0 2.658443 1_654
Mn0 O9 1.959794 1_455
Mn0 O11 1.970527 1_556
Mn0 O3 1.985847 1_455
Mn0 O7 1.992476 1_555
Mn0 O0 1.997366 1_545
Mn0 O4 2.013048 1_455
Mn1 O10 1.959794 1_555
Mn1 O8 1.970527 1_555
Mn1 O6 1.985847 1_555
Mn1 O2 1.992476 1_555
Mn1 O5 1.997366 1_565
Mn1 O1 2.013048 1_555
Mn2 O9 1.959794 1_455
Mn2 O11 1.970527 1_555
Mn2 O5 1.985847 1_455
Mn2 O1 1.992476 1_555
Mn2 O6 1.997366 1_545
Mn2 O2 2.013048 1_455
Mn3 O10 1.959794 1_556
Mn3 O8 1.970527 1_555
Mn3 O0 1.985847 1_555
Mn3 O4 1.992476 1_555
Mn3 O3 1.997366 1_565
Mn3 O7 2.013048 1_555
O0 Tb0 2.322554 1_555
O1 Tb0 2.493340 1_555
O1 Tb1 2.679748 1_555
O2 Tb1 2.493340 1_555
O2 Tb0 2.679748 1_655
O3 Tb1 2.322554 1_556
O4 Tb1 2.493340 1_556
O4 Tb0 2.679748 1_655
O5 Tb1 2.322554 1_555
O6 Tb0 2.322554 1_555
O7 Tb0 2.493340 1_555
O7 Tb1 2.679748 1_556
O8 Tb0 2.293880 1_655
O9 Tb0 2.335937 1_655
O10 Tb1 2.335937 1_555
O11 Tb1 2.293880 1_555
