# generated using pymatgen
data_Zr3S
_symmetry_space_group_name_H-M   'P 1'
_cell_length_a   4.27162100
_cell_length_b   4.27162100
_cell_length_c   4.27162100
_cell_angle_alpha   90.00000000
_cell_angle_beta   90.00000000
_cell_angle_gamma   90.00000000
_symmetry_Int_Tables_number   1
_chemical_formula_structural   Zr3S
_chemical_formula_sum   'Zr3 S1'
_cell_volume   77.94318326
_cell_formula_units_Z   1
loop_
 _symmetry_equiv_pos_site_id
 _symmetry_equiv_pos_as_xyz
  1  'x, y, z'
loop_
 _atom_site_type_symbol
 _atom_site_label
 _atom_site_symmetry_multiplicity
 _atom_site_fract_x
 _atom_site_fract_y
 _atom_site_fract_z
 _atom_site_occupancy
  Zr  Zr0  1  0.00000000  0.50000000  0.50000000  1
  Zr  Zr1  1  0.50000000  0.00000000  0.50000000  1
  Zr  Zr2  1  0.50000000  0.50000000  0.00000000  1
  S  S0  1  0.00000000  0.00000000  0.00000000  1
loop_
_geom_bond_atom_site_label_1
_geom_bond_atom_site_label_2
_geom_bond_distance
_geom_bond_site_symmetry_2
S0 Zr1 3.020492 1_554
S0 Zr0 3.020492 1_544
S0 Zr2 3.020492 1_455
S0 Zr0 3.020492 1_545
S0 Zr2 3.020492 1_555
S0 Zr2 3.020492 1_445
S0 Zr2 3.020492 1_545
S0 Zr0 3.020492 1_555
S0 Zr0 3.020492 1_554
S0 Zr1 3.020492 1_555
S0 Zr1 3.020492 1_455
S0 Zr1 3.020492 1_454
