# generated using pymatgen
data_Cu3(BO3)2
_symmetry_space_group_name_H-M   'P 1'
_cell_length_a   8.59992400
_cell_length_b   9.30717000
_cell_length_c   18.14657071
_cell_angle_alpha   85.18169184
_cell_angle_beta   90.00000000
_cell_angle_gamma   90.00000000
_symmetry_Int_Tables_number   1
_chemical_formula_structural   Cu3(BO3)2
_chemical_formula_sum   'Cu36 B24 O72'
_cell_volume   1447.33592018
_cell_formula_units_Z   12
loop_
 _symmetry_equiv_pos_site_id
 _symmetry_equiv_pos_as_xyz
  1  'x, y, z'
loop_
 _atom_site_type_symbol
 _atom_site_label
 _atom_site_symmetry_multiplicity
 _atom_site_fract_x
 _atom_site_fract_y
 _atom_site_fract_z
 _atom_site_occupancy
  Cu  Cu0  1  0.78825800  0.10652600  0.09305400  1
  Cu  Cu1  1  0.28825800  0.89347400  0.90694600  1
  Cu  Cu2  1  0.20999900  0.40801600  0.90346900  1
  Cu  Cu3  1  0.70999900  0.59198400  0.09653100  1
  Cu  Cu4  1  0.48860800  0.91729900  0.44140600  1
  Cu  Cu5  1  0.98860800  0.08270100  0.55859400  1
  Cu  Cu6  1  0.51148900  0.58271200  0.55850900  1
  Cu  Cu7  1  0.01148900  0.41728800  0.44149100  1
  Cu  Cu8  1  0.24587800  0.46945400  0.26109000  1
  Cu  Cu9  1  0.74587800  0.53054600  0.73891000  1
  Cu  Cu10  1  0.75414500  0.03054000  0.73893800  1
  Cu  Cu11  1  0.25414500  0.96946000  0.26106200  1
  Cu  Cu12  1  0.90550900  0.49396500  0.25385100  1
  Cu  Cu13  1  0.40550900  0.50603500  0.74614900  1
  Cu  Cu14  1  0.09439600  0.00585300  0.74646300  1
  Cu  Cu15  1  0.59439600  0.99414700  0.25353700  1
  Cu  Cu16  1  0.17705800  0.09567000  0.05224700  1
  Cu  Cu17  1  0.67705800  0.90433000  0.94775300  1
  Cu  Cu18  1  0.82303500  0.41464400  0.94309700  1
  Cu  Cu19  1  0.32303500  0.58535600  0.05690300  1
  Cu  Cu20  1  0.10224800  0.83580800  0.43577600  1
  Cu  Cu21  1  0.60224800  0.16419200  0.56422400  1
  Cu  Cu22  1  0.89782800  0.66405000  0.56433100  1
  Cu  Cu23  1  0.39782800  0.33595000  0.43566900  1
  Cu  Cu24  1  0.41963700  0.22470800  0.14852300  1
  Cu  Cu25  1  0.91963700  0.77529200  0.85147700  1
  Cu  Cu26  1  0.58062600  0.27880000  0.85084500  1
  Cu  Cu27  1  0.08062600  0.72120000  0.14915500  1
  Cu  Cu28  1  0.57585800  0.47644300  0.26847900  1
  Cu  Cu29  1  0.07585800  0.52355700  0.73152100  1
  Cu  Cu30  1  0.42411300  0.02360700  0.73167000  1
  Cu  Cu31  1  0.92411300  0.97639300  0.26833000  1
  Cu  Cu32  1  0.73803400  0.75237000  0.36406100  1
  Cu  Cu33  1  0.23803400  0.24763000  0.63593900  1
  Cu  Cu34  1  0.26164500  0.74850400  0.63520700  1
  Cu  Cu35  1  0.76164500  0.25149600  0.36479300  1
  B  B0  1  0.80934500  0.97439800  0.47720800  1
  B  B1  1  0.30934500  0.02560200  0.52279200  1
  B  B2  1  0.19084700  0.52561100  0.52267800  1
  B  B3  1  0.69084700  0.47438900  0.47732200  1
  B  B4  1  0.75838900  0.23759100  0.20713400  1
  B  B5  1  0.25838900  0.76240900  0.79286600  1
  B  B6  1  0.24177800  0.26175900  0.79411300  1
  B  B7  1  0.74177800  0.73824100  0.20588700  1
  B  B8  1  0.06024800  0.26662400  0.17183100  1
  B  B9  1  0.56024800  0.73337600  0.82816900  1
  B  B10  1  0.93974400  0.23420200  0.82792900  1
  B  B11  1  0.43974400  0.76579800  0.17207100  1
  B  B12  1  0.08582100  0.72505000  0.31238200  1
  B  B13  1  0.58582100  0.27495000  0.68761800  1
  B  B14  1  0.91423200  0.77493800  0.68757900  1
  B  B15  1  0.41423200  0.22506200  0.31242100  1
  B  B16  1  0.99628900  0.96161700  0.98227600  1
  B  B17  1  0.49628900  0.03838300  0.01772400  1
  B  B18  1  0.00152600  0.55251100  0.01254500  1
  B  B19  1  0.50152600  0.44748900  0.98745500  1
  B  B20  1  0.38397000  0.69166300  0.34910200  1
  B  B21  1  0.88397000  0.30833700  0.65089800  1
  B  B22  1  0.61607800  0.80834900  0.65079100  1
  B  B23  1  0.11607800  0.19165100  0.34920900  1
  O  O0  1  0.91026000  0.20920000  0.16515900  1
  O  O1  1  0.41026000  0.79080000  0.83484100  1
  O  O2  1  0.08977700  0.29021800  0.83582400  1
  O  O3  1  0.58977700  0.70978200  0.16417600  1
  O  O4  1  0.07529200  0.57603300  0.30121400  1
  O  O5  1  0.57529200  0.42396700  0.69878600  1
  O  O6  1  0.92486900  0.92412200  0.69848200  1
  O  O7  1  0.42486900  0.07587800  0.30151800  1
  O  O8  1  0.18538600  0.20954300  0.13703700  1
  O  O9  1  0.68538600  0.79045700  0.86296300  1
  O  O10  1  0.81437900  0.29280400  0.86189300  1
  O  O11  1  0.31437900  0.70719600  0.13810700  1
  O  O12  1  0.74010300  0.38738600  0.21741100  1
  O  O13  1  0.24010300  0.61261400  0.78258900  1
  O  O14  1  0.26006800  0.11246800  0.78285500  1
  O  O15  1  0.76006800  0.88753200  0.21714500  1
  O  O16  1  0.64012200  0.18178900  0.15854100  1
  O  O17  1  0.14012200  0.81821100  0.84145900  1
  O  O18  1  0.35903600  0.31680000  0.84341400  1
  O  O19  1  0.85903600  0.68320000  0.15658600  1
  O  O20  1  0.95632200  0.92115100  0.49795900  1
  O  O21  1  0.45632200  0.07884900  0.50204100  1
  O  O22  1  0.04386300  0.57885000  0.50209200  1
  O  O23  1  0.54386300  0.42115000  0.49790800  1
  O  O24  1  0.78006000  0.09478800  0.51563800  1
  O  O25  1  0.28006000  0.90521200  0.48436200  1
  O  O26  1  0.22007000  0.40532600  0.48425600  1
  O  O27  1  0.72007000  0.59467400  0.51574400  1
  O  O28  1  0.76124000  0.13767200  0.27818300  1
  O  O29  1  0.26124000  0.86232800  0.72181700  1
  O  O30  1  0.23913000  0.36197100  0.72283400  1
  O  O31  1  0.73913000  0.63802900  0.27716600  1
  O  O32  1  0.50712700  0.75102100  0.38367400  1
  O  O33  1  0.00712700  0.24897900  0.61632600  1
  O  O34  1  0.49289200  0.74902500  0.61619800  1
  O  O35  1  0.99289200  0.25097500  0.38380200  1
  O  O36  1  0.96404200  0.78145500  0.35951300  1
  O  O37  1  0.46404200  0.21854500  0.64048700  1
  O  O38  1  0.03607700  0.71818700  0.64050600  1
  O  O39  1  0.53607700  0.28181300  0.35949400  1
  O  O40  1  0.07503300  0.38000500  0.21418700  1
  O  O41  1  0.57503300  0.61999500  0.78581300  1
  O  O42  1  0.92491000  0.11996500  0.78604900  1
  O  O43  1  0.42491000  0.88003500  0.21395100  1
  O  O44  1  0.89880200  0.88028400  0.94442100  1
  O  O45  1  0.39880200  0.11971600  0.05557900  1
  O  O46  1  0.10117300  0.62571500  0.05368700  1
  O  O47  1  0.60117300  0.37428500  0.94631300  1
  O  O48  1  0.71299900  0.91782500  0.42820800  1
  O  O49  1  0.21299900  0.08217500  0.57179200  1
  O  O50  1  0.28721800  0.58240700  0.57163400  1
  O  O51  1  0.78721800  0.41759300  0.42836600  1
  O  O52  1  0.40289100  0.57525000  0.30863100  1
  O  O53  1  0.90289100  0.42475000  0.69136900  1
  O  O54  1  0.59710700  0.92484400  0.69127900  1
  O  O55  1  0.09710700  0.07515600  0.30872100  1
  O  O56  1  0.15485000  0.97788400  0.97051800  1
  O  O57  1  0.65485000  0.02211600  0.02948200  1
  O  O58  1  0.84733400  0.51828400  0.02969500  1
  O  O59  1  0.34733400  0.48171600  0.97030500  1
  O  O60  1  0.23492300  0.75138900  0.35607200  1
  O  O61  1  0.73492300  0.24861100  0.64392800  1
  O  O62  1  0.76513900  0.74874000  0.64377800  1
  O  O63  1  0.26513900  0.25126000  0.35622200  1
  O  O64  1  0.08979300  0.82452000  0.24070300  1
  O  O65  1  0.58979300  0.17548000  0.75929700  1
  O  O66  1  0.90973400  0.67524900  0.75906600  1
  O  O67  1  0.40973400  0.32475100  0.24093400  1
  O  O68  1  0.96226700  0.04654400  0.04015300  1
  O  O69  1  0.46226700  0.95345600  0.95984700  1
  O  O70  1  0.03217500  0.49527000  0.94505800  1
  O  O71  1  0.53217500  0.50473000  0.05494200  1
loop_
_geom_bond_atom_site_label_1
_geom_bond_atom_site_label_2
_geom_bond_distance
_geom_bond_site_symmetry_2
Cu0 O57 1.848396 1_555
Cu0 O68 1.887495 1_555
Cu0 O16 1.914602 1_555
Cu0 O0 1.983969 1_555
Cu1 O56 1.848396 1_555
Cu1 O69 1.887495 1_555
Cu1 O17 1.914602 1_555
Cu1 O1 1.983969 1_555
Cu2 O59 1.864454 1_555
Cu2 O70 1.915905 1_555
Cu2 O18 1.925249 1_555
Cu2 O2 2.000968 1_555
Cu3 O58 1.864454 1_555
Cu3 O71 1.915905 1_555
Cu3 O19 1.925249 1_555
Cu3 O3 2.000968 1_555
Cu4 O48 1.944506 1_555
Cu4 O32 1.946862 1_555
Cu4 O25 1.955040 1_555
Cu4 O21 1.956132 1_565
Cu5 O49 1.944506 1_655
Cu5 O33 1.946862 1_655
Cu5 O24 1.955040 1_555
Cu5 O20 1.956132 1_545
Cu6 O50 1.943337 1_555
Cu6 O34 1.946719 1_555
Cu6 O27 1.953910 1_555
Cu6 O23 1.955944 1_555
Cu7 O51 1.943337 1_455
Cu7 O35 1.946719 1_455
Cu7 O26 1.953910 1_555
Cu7 O22 1.955944 1_555
Cu8 O52 1.918290 1_555
Cu8 O40 1.922303 1_555
Cu8 O4 1.946179 1_555
Cu8 O67 2.004006 1_555
Cu8 O63 2.557870 1_555
Cu9 O53 1.918290 1_555
Cu9 O41 1.922303 1_555
Cu9 O5 1.946179 1_555
Cu9 O66 2.004006 1_555
Cu9 O62 2.557870 1_555
Cu10 O54 1.918985 1_545
Cu10 O42 1.923484 1_555
Cu10 O6 1.948782 1_545
Cu10 O65 2.009404 1_555
Cu10 O61 2.555658 1_555
Cu11 O55 1.918985 1_565
Cu11 O43 1.923484 1_555
Cu11 O7 1.948782 1_565
Cu11 O64 2.009404 1_555
Cu11 O60 2.555658 1_555
Cu12 O12 1.885436 1_555
Cu12 O4 1.887951 1_655
Cu12 O40 1.974014 1_655
Cu12 O31 2.029642 1_555
Cu12 O19 2.419668 1_555
Cu13 O13 1.885436 1_555
Cu13 O5 1.887951 1_555
Cu13 O41 1.974014 1_555
Cu13 O30 2.029642 1_555
Cu13 O18 2.419668 1_555
Cu14 O14 1.887005 1_555
Cu14 O6 1.890380 1_445
Cu14 O42 1.973997 1_455
Cu14 O29 2.035574 1_545
Cu14 O17 2.381285 1_545
Cu15 O15 1.887005 1_555
Cu15 O7 1.890380 1_565
Cu15 O43 1.973997 1_555
Cu15 O28 2.035574 1_565
Cu15 O16 2.381285 1_565
Cu16 O68 1.919941 1_455
Cu16 O45 1.921612 1_555
Cu16 O56 1.926388 1_544
Cu16 O8 1.941588 1_555
Cu17 O69 1.919941 1_555
Cu17 O44 1.921612 1_555
Cu17 O57 1.926388 1_566
Cu17 O9 1.941588 1_555
Cu18 O58 1.923079 1_556
Cu18 O10 1.934839 1_555
Cu18 O47 1.944549 1_555
Cu18 O70 1.950326 1_655
Cu19 O59 1.923079 1_554
Cu19 O11 1.934839 1_555
Cu19 O46 1.944549 1_555
Cu19 O71 1.950326 1_555
Cu20 O25 1.904897 1_555
Cu20 O20 1.905176 1_455
Cu20 O36 1.923904 1_455
Cu20 O60 2.049889 1_555
Cu20 O22 2.633693 1_555
Cu21 O24 1.904897 1_555
Cu21 O21 1.905176 1_555
Cu21 O37 1.923904 1_555
Cu21 O61 2.049889 1_555
Cu21 O23 2.633693 1_555
Cu22 O27 1.904435 1_555
Cu22 O22 1.905811 1_655
Cu22 O38 1.922299 1_655
Cu22 O62 2.047637 1_555
Cu23 O26 1.904435 1_555
Cu23 O23 1.905811 1_555
Cu23 O39 1.922299 1_555
Cu23 O63 2.047637 1_555
Cu24 O16 1.943145 1_555
Cu24 O67 1.987128 1_555
Cu24 O45 2.026950 1_555
Cu24 O8 2.031424 1_555
Cu25 O17 1.943145 1_655
Cu25 O66 1.987128 1_555
Cu25 O44 2.026950 1_555
Cu25 O9 2.031424 1_555
Cu26 O18 1.940821 1_555
Cu26 O65 1.989762 1_555
Cu26 O47 2.020126 1_555
Cu26 O10 2.025514 1_555
Cu27 O19 1.940821 1_455
Cu27 O64 1.989762 1_555
Cu27 O46 2.020126 1_555
Cu27 O11 2.025514 1_555
Cu28 O12 1.915722 1_555
Cu28 O52 1.924008 1_555
Cu28 O31 2.073159 1_555
Cu28 O67 2.098260 1_555
Cu28 O39 2.371418 1_555
Cu29 O13 1.915722 1_555
Cu29 O53 1.924008 1_455
Cu29 O30 2.073159 1_555
Cu29 O66 2.098260 1_455
Cu29 O38 2.371418 1_555
Cu30 O14 1.914697 1_555
Cu30 O54 1.925799 1_545
Cu30 O29 2.071752 1_545
Cu30 O65 2.097271 1_555
Cu30 O37 2.375551 1_555
Cu31 O15 1.914697 1_555
Cu31 O55 1.925799 1_665
Cu31 O28 2.071752 1_565
Cu31 O64 2.097271 1_655
Cu31 O36 2.375551 1_555
Cu32 O36 1.963191 1_555
Cu32 O31 1.975079 1_555
Cu32 O32 2.017278 1_555
Cu32 O48 2.018376 1_555
Cu33 O37 1.963191 1_555
Cu33 O30 1.975079 1_555
Cu33 O33 2.017278 1_555
Cu33 O49 2.018376 1_555
Cu34 O38 1.961477 1_555
Cu34 O29 1.967782 1_555
Cu34 O50 2.017081 1_555
Cu34 O34 2.018337 1_555
Cu35 O39 1.961477 1_555
Cu35 O28 1.967782 1_555
Cu35 O51 2.017081 1_555
Cu35 O35 2.018337 1_555
B0 O48 1.353906 1_555
B0 O24 1.391590 1_565
B0 O20 1.397755 1_555
B1 O49 1.353906 1_555
B1 O25 1.391590 1_545
B1 O21 1.397755 1_555
B2 O50 1.354410 1_555
B2 O26 1.390583 1_555
B2 O22 1.397070 1_555
B3 O51 1.354410 1_555
B3 O27 1.390583 1_555
B3 O23 1.397070 1_555
B4 O12 1.430696 1_555
B4 O16 1.469251 1_555
B4 O28 1.525219 1_555
B4 O0 1.545855 1_555
B5 O13 1.430696 1_555
B5 O17 1.469251 1_555
B5 O29 1.525219 1_555
B5 O1 1.545855 1_555
B6 O14 1.429968 1_555
B6 O18 1.468570 1_555
B6 O30 1.529976 1_555
B6 O2 1.544512 1_555
B7 O15 1.429968 1_555
B7 O19 1.468570 1_555
B7 O31 1.529976 1_555
B7 O3 1.544512 1_555
B8 O40 1.362630 1_555
B8 O8 1.376737 1_555
B8 O0 1.405338 1_455
B9 O41 1.362630 1_555
B9 O9 1.376737 1_555
B9 O1 1.405338 1_555
B10 O42 1.363828 1_555
B10 O10 1.377018 1_555
B10 O2 1.403454 1_655
B11 O43 1.363828 1_555
B11 O11 1.377018 1_555
B11 O3 1.403454 1_555
B12 O4 1.421286 1_555
B12 O36 1.476251 1_455
B12 O64 1.532267 1_555
B12 O60 1.538025 1_555
B13 O5 1.421286 1_555
B13 O37 1.476251 1_555
B13 O65 1.532267 1_555
B13 O61 1.538025 1_555
B14 O6 1.421810 1_555
B14 O38 1.477318 1_655
B14 O66 1.530684 1_555
B14 O62 1.538761 1_555
B15 O7 1.421810 1_555
B15 O39 1.477318 1_555
B15 O67 1.530684 1_555
B15 O63 1.538761 1_555
B16 O44 1.354674 1_555
B16 O56 1.386528 1_655
B16 O68 1.397467 1_566
B17 O45 1.354674 1_555
B17 O57 1.386528 1_555
B17 O69 1.397467 1_544
B18 O46 1.356988 1_555
B18 O58 1.392860 1_455
B18 O70 1.400960 1_554
B19 O47 1.356988 1_555
B19 O59 1.392860 1_555
B19 O71 1.400960 1_556
B20 O52 1.368733 1_555
B20 O32 1.370691 1_555
B20 O60 1.407055 1_555
B21 O53 1.368733 1_555
B21 O33 1.370691 1_655
B21 O61 1.407055 1_555
B22 O54 1.369608 1_555
B22 O34 1.370932 1_555
B22 O62 1.406823 1_555
B23 O55 1.369608 1_555
B23 O35 1.370932 1_455
B23 O63 1.406823 1_555
