# generated using pymatgen
data_MnNCl3
_symmetry_space_group_name_H-M   'P 1'
_cell_length_a   4.50429800
_cell_length_b   4.50429800
_cell_length_c   4.50429800
_cell_angle_alpha   90.00000000
_cell_angle_beta   90.00000000
_cell_angle_gamma   90.00000000
_symmetry_Int_Tables_number   1
_chemical_formula_structural   MnNCl3
_chemical_formula_sum   'Mn1 N1 Cl3'
_cell_volume   91.38635296
_cell_formula_units_Z   1
loop_
 _symmetry_equiv_pos_site_id
 _symmetry_equiv_pos_as_xyz
  1  'x, y, z'
loop_
 _atom_site_type_symbol
 _atom_site_label
 _atom_site_symmetry_multiplicity
 _atom_site_fract_x
 _atom_site_fract_y
 _atom_site_fract_z
 _atom_site_occupancy
  Mn  Mn0  1  0.50000000  0.50000000  0.50000000  1
  N  N0  1  0.00000000  0.00000000  0.00000000  1
  Cl  Cl0  1  0.50000000  0.00000000  0.50000000  1
  Cl  Cl1  1  0.00000000  0.50000000  0.50000000  1
  Cl  Cl2  1  0.50000000  0.50000000  0.00000000  1
loop_
_geom_bond_atom_site_label_1
_geom_bond_atom_site_label_2
_geom_bond_distance
_geom_bond_site_symmetry_2
Cl0 Mn0 2.252149 1_545
Cl0 Mn0 2.252149 1_555
Cl1 Mn0 2.252149 1_555
Cl1 Mn0 2.252149 1_455
Cl2 Mn0 2.252149 1_554
Cl2 Mn0 2.252149 1_555
