# generated using pymatgen
data_BaHo4Si5O17
_symmetry_space_group_name_H-M   'P 1'
_cell_length_a   19.94370100
_cell_length_b   5.57047700
_cell_length_c   6.92317714
_cell_angle_alpha   73.34380840
_cell_angle_beta   90.00000000
_cell_angle_gamma   90.00000000
_symmetry_Int_Tables_number   1
_chemical_formula_structural   BaHo4Si5O17
_chemical_formula_sum   'Ba2 Ho8 Si10 O34'
_cell_volume   736.86529318
_cell_formula_units_Z   2
loop_
 _symmetry_equiv_pos_site_id
 _symmetry_equiv_pos_as_xyz
  1  'x, y, z'
loop_
 _atom_site_type_symbol
 _atom_site_label
 _atom_site_symmetry_multiplicity
 _atom_site_fract_x
 _atom_site_fract_y
 _atom_site_fract_z
 _atom_site_occupancy
  Ba  Ba0  1  0.25000000  0.75638300  0.81271900  1
  Ba  Ba1  1  0.75000000  0.24361700  0.18728100  1
  Ho  Ho0  1  0.03891300  0.69859800  0.11700000  1
  Ho  Ho1  1  0.53891300  0.30140200  0.88300000  1
  Ho  Ho2  1  0.96108700  0.30140200  0.88300000  1
  Ho  Ho3  1  0.46108700  0.69859800  0.11700000  1
  Ho  Ho4  1  0.15832700  0.35201600  0.48139000  1
  Ho  Ho5  1  0.65832700  0.64798400  0.51861000  1
  Ho  Ho6  1  0.84167300  0.64798400  0.51861000  1
  Ho  Ho7  1  0.34167300  0.35201600  0.48139000  1
  Si  Si0  1  0.25000000  0.93535500  0.28195000  1
  Si  Si1  1  0.75000000  0.06464500  0.71805000  1
  Si  Si2  1  0.13565300  0.22939200  0.00717200  1
  Si  Si3  1  0.63565300  0.77060800  0.99282800  1
  Si  Si4  1  0.86434700  0.77060800  0.99282800  1
  Si  Si5  1  0.36434700  0.22939200  0.00717200  1
  Si  Si6  1  0.06082700  0.80260300  0.59523400  1
  Si  Si7  1  0.56082700  0.19739700  0.40476600  1
  Si  Si8  1  0.93917300  0.19739700  0.40476600  1
  Si  Si9  1  0.43917300  0.80260300  0.59523400  1
  O  O0  1  0.25000000  0.13426600  0.41614500  1
  O  O1  1  0.75000000  0.86573400  0.58385500  1
  O  O2  1  0.25000000  0.64128100  0.41861100  1
  O  O3  1  0.75000000  0.35871900  0.58138900  1
  O  O4  1  0.18361900  0.98141800  0.13070100  1
  O  O5  1  0.68361900  0.01858200  0.86929900  1
  O  O6  1  0.81638100  0.01858200  0.86929900  1
  O  O7  1  0.31638100  0.98141800  0.13070100  1
  O  O8  1  0.17349600  0.36153900  0.79522300  1
  O  O9  1  0.67349600  0.63846100  0.20477700  1
  O  O10  1  0.82650400  0.63846100  0.20477700  1
  O  O11  1  0.32650400  0.36153900  0.79522300  1
  O  O12  1  0.12987700  0.42241900  0.14774600  1
  O  O13  1  0.62987700  0.57758100  0.85225400  1
  O  O14  1  0.87012300  0.57758100  0.85225400  1
  O  O15  1  0.37012300  0.42241900  0.14774600  1
  O  O16  1  0.06308600  0.10253600  0.98177300  1
  O  O17  1  0.56308600  0.89746400  0.01822700  1
  O  O18  1  0.93691400  0.89746400  0.01822700  1
  O  O19  1  0.43691400  0.10253600  0.98177300  1
  O  O20  1  0.12817200  0.95858700  0.61486100  1
  O  O21  1  0.62817200  0.04141300  0.38513900  1
  O  O22  1  0.87182800  0.04141300  0.38513900  1
  O  O23  1  0.37182800  0.95858700  0.61486100  1
  O  O24  1  0.03357000  0.62532900  0.81369900  1
  O  O25  1  0.53357000  0.37467100  0.18630100  1
  O  O26  1  0.96643000  0.37467100  0.18630100  1
  O  O27  1  0.46643000  0.62532900  0.81369900  1
  O  O28  1  0.00000000  0.00000000  0.50000000  1
  O  O29  1  0.50000000  0.00000000  0.50000000  1
  O  O30  1  0.07342100  0.62971600  0.43987200  1
  O  O31  1  0.57342100  0.37028400  0.56012800  1
  O  O32  1  0.92657900  0.37028400  0.56012800  1
  O  O33  1  0.42657900  0.62971600  0.43987200  1
loop_
_geom_bond_atom_site_label_1
_geom_bond_atom_site_label_2
_geom_bond_distance
_geom_bond_site_symmetry_2
Ba0 O8 2.707960 1_555
Ba0 O11 2.707960 1_555
Ba0 O23 2.857280 1_555
Ba0 O20 2.857280 1_555
Ba0 O0 2.942105 1_565
Ba0 O2 2.976336 1_555
Ba0 O7 3.122883 1_556
Ba0 O4 3.122883 1_556
Ba1 O10 2.707960 1_555
Ba1 O9 2.707960 1_555
Ba1 O21 2.857280 1_555
Ba1 O22 2.857280 1_555
Ba1 O1 2.942105 1_545
Ba1 O3 2.976336 1_555
Ba1 O5 3.122883 1_554
Ba1 O6 3.122883 1_554
Ho0 O16 2.228084 1_564
Ho0 O24 2.253534 1_554
Ho0 O26 2.253789 1_455
Ho0 O30 2.264014 1_555
Ho0 O18 2.323500 1_455
Ho0 O12 2.348527 1_555
Ho1 O17 2.228084 1_546
Ho1 O25 2.253534 1_556
Ho1 O27 2.253789 1_555
Ho1 O31 2.264014 1_555
Ho1 O19 2.323500 1_555
Ho1 O13 2.348527 1_555
Ho2 O18 2.228084 1_546
Ho2 O26 2.253534 1_556
Ho2 O24 2.253789 1_655
Ho2 O32 2.264014 1_555
Ho2 O16 2.323500 1_655
Ho2 O14 2.348527 1_555
Ho3 O19 2.228084 1_564
Ho3 O27 2.253534 1_554
Ho3 O25 2.253789 1_555
Ho3 O33 2.264014 1_555
Ho3 O17 2.323500 1_555
Ho3 O15 2.348527 1_555
Ho4 O20 2.204015 1_545
Ho4 O8 2.209327 1_555
Ho4 O30 2.255680 1_555
Ho4 O12 2.300428 1_555
Ho4 O0 2.309134 1_555
Ho4 O2 2.393018 1_555
Ho5 O21 2.204015 1_565
Ho5 O9 2.209327 1_555
Ho5 O31 2.255680 1_555
Ho5 O13 2.300428 1_555
Ho5 O1 2.309134 1_555
Ho5 O3 2.393018 1_555
Ho6 O22 2.204015 1_565
Ho6 O10 2.209327 1_555
Ho6 O32 2.255680 1_555
Ho6 O14 2.300428 1_555
Ho6 O1 2.309134 1_555
Ho6 O3 2.393018 1_555
Ho7 O23 2.204015 1_545
Ho7 O11 2.209327 1_555
Ho7 O33 2.255680 1_555
Ho7 O15 2.300428 1_555
Ho7 O0 2.309134 1_555
Ho7 O2 2.393018 1_555
O0 Si0 1.637374 1_545
O1 Si1 1.637374 1_565
O2 Si0 1.640170 1_555
O3 Si1 1.640170 1_555
O4 Si0 1.661610 1_555
O4 Si2 1.696286 1_565
O5 Si1 1.661610 1_555
O5 Si3 1.696286 1_545
O6 Si1 1.661610 1_555
O6 Si4 1.696286 1_545
O7 Si0 1.661610 1_555
O7 Si5 1.696286 1_565
O8 Si2 1.626479 1_556
O9 Si3 1.626479 1_554
O10 Si4 1.626479 1_554
O11 Si5 1.626479 1_556
O12 Si2 1.648175 1_555
O13 Si3 1.648175 1_555
O14 Si4 1.648175 1_555
O15 Si5 1.648175 1_555
O16 Si2 1.641965 1_556
O17 Si3 1.641965 1_554
O18 Si4 1.641965 1_554
O19 Si5 1.641965 1_556
O20 Si6 1.626371 1_555
O21 Si7 1.626371 1_555
O22 Si8 1.626371 1_555
O23 Si9 1.626371 1_555
O24 Si6 1.643788 1_555
O25 Si7 1.643788 1_555
O26 Si8 1.643788 1_555
O27 Si9 1.643788 1_555
O28 Si8 1.643125 1_455
O28 Si6 1.643125 1_545
O29 Si7 1.643125 1_555
O29 Si9 1.643125 1_545
O30 Si6 1.655690 1_555
O31 Si7 1.655690 1_555
O32 Si8 1.655690 1_555
O33 Si9 1.655690 1_555
