# generated using pymatgen
data_LaAsO4
_symmetry_space_group_name_H-M   'P 1'
_cell_length_a   6.96853856
_cell_length_b   6.96853856
_cell_length_c   6.96853856
_cell_angle_alpha   136.22995214
_cell_angle_beta   136.22995214
_cell_angle_gamma   63.62502530
_symmetry_Int_Tables_number   1
_chemical_formula_structural   LaAsO4
_chemical_formula_sum   'La2 As2 O8'
_cell_volume   159.81392779
_cell_formula_units_Z   2
loop_
 _symmetry_equiv_pos_site_id
 _symmetry_equiv_pos_as_xyz
  1  'x, y, z'
loop_
 _atom_site_type_symbol
 _atom_site_label
 _atom_site_symmetry_multiplicity
 _atom_site_fract_x
 _atom_site_fract_y
 _atom_site_fract_z
 _atom_site_occupancy
  La  La0  1  0.75000000  0.25000000  0.50000000  1
  La  La1  1  -0.00000000  -0.00000000  -0.00000000  1
  As  As0  1  0.25000000  0.75000000  0.50000000  1
  As  As1  1  0.50000000  0.50000000  -0.00000000  1
  O  O0  1  0.30383742  0.91733508  0.87504064  1
  O  O1  1  0.04229443  0.42879678  0.12495936  1
  O  O2  1  0.17879678  0.55383742  0.88650235  1
  O  O3  1  0.66733508  0.29229443  0.11349765  1
  O  O4  1  0.44616258  0.33266492  0.62495936  1
  O  O5  1  0.70770557  0.82120322  0.37504064  1
  O  O6  1  0.57120322  0.69616258  0.61349765  1
  O  O7  1  0.08266492  0.95770557  0.38650235  1
loop_
_geom_bond_atom_site_label_1
_geom_bond_atom_site_label_2
_geom_bond_distance
_geom_bond_site_symmetry_2
La0 O7 2.504878 1_645
La0 O0 2.504878 1_544
La0 O6 2.504878 1_555
La0 O1 2.504878 1_656
La0 O5 2.535294 1_545
La0 O2 2.535294 1_655
La0 O4 2.535294 1_555
La0 O3 2.535294 1_555
La1 O3 2.504878 1_455
La1 O4 2.504878 1_555
La1 O2 2.504878 1_544
La1 O5 2.504878 1_444
La1 O1 2.535294 1_555
La1 O6 2.535294 1_444
La1 O0 2.535294 1_544
La1 O7 2.535294 1_545
As0 O0 1.703535 1_555
As0 O7 1.703535 1_555
As0 O1 1.703535 1_555
As0 O6 1.703535 1_555
As1 O4 1.703535 1_554
As1 O3 1.703535 1_555
As1 O5 1.703535 1_555
As1 O2 1.703535 1_554
