# generated using pymatgen
data_Sr4La(CoO3)5
_symmetry_space_group_name_H-M   'P 1'
_cell_length_a   8.69701476
_cell_length_b   8.69701476
_cell_length_c   6.70886999
_cell_angle_alpha   74.78631474
_cell_angle_beta   74.78631474
_cell_angle_gamma   36.57760159
_symmetry_Int_Tables_number   1
_chemical_formula_structural   Sr4La(CoO3)5
_chemical_formula_sum   'Sr4 La1 Co5 O15'
_cell_volume   290.61390537
_cell_formula_units_Z   1
loop_
 _symmetry_equiv_pos_site_id
 _symmetry_equiv_pos_as_xyz
  1  'x, y, z'
loop_
 _atom_site_type_symbol
 _atom_site_label
 _atom_site_symmetry_multiplicity
 _atom_site_fract_x
 _atom_site_fract_y
 _atom_site_fract_z
 _atom_site_occupancy
  Sr  Sr0  1  0.09964400  0.09964400  0.09986100  1
  Sr  Sr1  1  0.70015800  0.70015800  0.69777700  1
  Sr  Sr2  1  0.29984200  0.29984200  0.30222300  1
  Sr  Sr3  1  0.90035600  0.90035600  0.90013900  1
  La  La0  1  0.50000000  0.50000000  0.50000000  1
  Co  Co0  1  0.89938100  0.89938100  0.40010600  1
  Co  Co1  1  0.50000000  0.50000000  0.00000000  1
  Co  Co2  1  0.10061900  0.10061900  0.59989400  1
  Co  Co3  1  0.70181300  0.70181300  0.19974300  1
  Co  Co4  1  0.29818700  0.29818700  0.80025700  1
  O  O0  1  0.69782800  0.20097500  0.21271700  1
  O  O1  1  0.30217200  0.79902500  0.78728300  1
  O  O2  1  0.89108600  0.39982500  0.39813200  1
  O  O3  1  0.50000000  0.00000000  0.00000000  1
  O  O4  1  0.10891400  0.60017500  0.60186800  1
  O  O5  1  0.79963400  0.79963400  0.30634800  1
  O  O6  1  0.40594200  0.40594200  0.90080400  1
  O  O7  1  0.00000000  0.00000000  0.50000000  1
  O  O8  1  0.59405800  0.59405800  0.09919600  1
  O  O9  1  0.20036600  0.20036600  0.69365200  1
  O  O10  1  0.60017500  0.10891400  0.60186800  1
  O  O11  1  0.20097500  0.69782800  0.21271700  1
  O  O12  1  0.79902500  0.30217200  0.78728300  1
  O  O13  1  0.39982500  0.89108600  0.39813200  1
  O  O14  1  0.00000000  0.50000000  0.00000000  1
loop_
_geom_bond_atom_site_label_1
_geom_bond_atom_site_label_2
_geom_bond_distance
_geom_bond_site_symmetry_2
La0 O2 2.669829 1_555
La0 O13 2.669829 1_555
La0 O10 2.669829 1_555
La0 O4 2.669829 1_555
La0 O12 2.672451 1_555
La0 O11 2.672451 1_555
La0 O0 2.672451 1_555
La0 O1 2.672451 1_555
La0 O6 2.708244 1_555
La0 O8 2.708244 1_555
La0 O7 2.729183 1_565
La0 O7 2.729183 1_655
Co0 O0 1.890629 1_565
Co0 O11 1.890629 1_655
Co0 O5 1.918914 1_555
Co0 O4 1.937594 1_655
Co0 O10 1.937594 1_565
Co0 O7 1.956064 1_665
Co1 O8 1.851320 1_555
Co1 O6 1.851320 1_554
Co1 O11 1.978497 1_555
Co1 O1 1.978497 1_554
Co1 O0 1.978497 1_555
Co1 O12 1.978497 1_554
Co2 O12 1.890629 1_455
Co2 O1 1.890629 1_545
Co2 O9 1.918914 1_555
Co2 O2 1.937594 1_455
Co2 O13 1.937594 1_545
Co2 O7 1.956064 1_555
Co3 O3 1.923979 1_565
Co3 O14 1.923979 1_655
Co3 O2 1.936650 1_555
Co3 O13 1.936650 1_555
Co3 O5 1.939125 1_555
Co3 O8 2.070176 1_555
Co4 O14 1.923979 1_556
Co4 O3 1.923979 1_556
Co4 O4 1.936650 1_555
Co4 O10 1.936650 1_555
Co4 O9 1.939125 1_555
Co4 O6 2.070176 1_555
O0 Sr2 2.735057 1_555
O0 Sr0 2.752696 1_655
O0 Sr3 2.806824 1_544
O1 Sr1 2.735057 1_555
O1 Sr3 2.752696 1_455
O1 Sr0 2.806824 1_566
O2 Sr0 2.709489 1_655
O2 Sr1 2.767472 1_555
O2 Sr2 2.817121 1_655
O3 Sr3 2.749108 1_544
O3 Sr0 2.749108 1_555
O3 Sr2 2.751969 1_555
O3 Sr1 2.751969 1_544
O4 Sr3 2.709489 1_455
O4 Sr2 2.767472 1_555
O4 Sr1 2.817121 1_455
O5 Sr1 2.685222 1_555
O5 Sr2 2.729316 1_565
O5 Sr2 2.729316 1_655
O5 Sr3 2.772729 1_554
O6 Sr3 2.730787 1_455
O6 Sr3 2.730787 1_545
O6 Sr2 2.777521 1_556
O7 Sr3 2.733620 1_445
O7 Sr0 2.733620 1_555
O8 Sr0 2.730787 1_565
O8 Sr0 2.730787 1_655
O8 Sr1 2.777521 1_554
O9 Sr2 2.685222 1_555
O9 Sr1 2.729316 1_545
O9 Sr1 2.729316 1_455
O9 Sr0 2.772729 1_556
O10 Sr3 2.709489 1_545
O10 Sr2 2.767472 1_555
O10 Sr1 2.817121 1_545
O11 Sr2 2.735057 1_555
O11 Sr0 2.752696 1_565
O11 Sr3 2.806824 1_454
O12 Sr1 2.735057 1_555
O12 Sr3 2.752696 1_545
O12 Sr0 2.806824 1_656
O13 Sr0 2.709489 1_565
O13 Sr1 2.767472 1_555
O13 Sr2 2.817121 1_565
O14 Sr3 2.749108 1_454
O14 Sr0 2.749108 1_555
O14 Sr2 2.751969 1_555
O14 Sr1 2.751969 1_454
