# generated using pymatgen
data_Mg14GaSn
_symmetry_space_group_name_H-M   'P 1'
_cell_length_a   6.32560808
_cell_length_b   6.32560758
_cell_length_c   10.38203178
_cell_angle_alpha   90.00000000
_cell_angle_beta   90.00000000
_cell_angle_gamma   120.00000263
_symmetry_Int_Tables_number   1
_chemical_formula_structural   Mg14GaSn
_chemical_formula_sum   'Mg14 Ga1 Sn1'
_cell_volume   359.76383213
_cell_formula_units_Z   1
loop_
 _symmetry_equiv_pos_site_id
 _symmetry_equiv_pos_as_xyz
  1  'x, y, z'
loop_
 _atom_site_type_symbol
 _atom_site_label
 _atom_site_symmetry_multiplicity
 _atom_site_fract_x
 _atom_site_fract_y
 _atom_site_fract_z
 _atom_site_occupancy
  Mg  Mg0  1  0.16635767  0.83317833  0.12500000  1
  Mg  Mg1  1  0.16679690  0.83339795  0.62500000  1
  Mg  Mg2  1  0.66682167  0.33364233  0.12500000  1
  Mg  Mg3  1  0.66660205  0.33320310  0.62500000  1
  Mg  Mg4  1  0.66682167  0.83317833  0.12500000  1
  Mg  Mg5  1  0.66660205  0.83339795  0.62500000  1
  Mg  Mg6  1  0.33351633  0.16648367  0.37689343  1
  Mg  Mg7  1  0.33351633  0.16648367  0.87310657  1
  Mg  Mg8  1  0.33351633  0.66703366  0.37689343  1
  Mg  Mg9  1  0.33351633  0.66703366  0.87310657  1
  Mg  Mg10  1  0.83296634  0.16648367  0.37689343  1
  Mg  Mg11  1  0.83296634  0.16648367  0.87310657  1
  Mg  Mg12  1  0.83333300  0.66666700  0.37533269  1
  Mg  Mg13  1  0.83333300  0.66666700  0.87466731  1
  Ga  Ga0  1  0.16666700  0.33333300  0.62500000  1
  Sn  Sn0  1  0.16666700  0.33333300  0.12500000  1
loop_
_geom_bond_atom_site_label_1
_geom_bond_atom_site_label_2
_geom_bond_distance
_geom_bond_site_symmetry_2
Mg0 Mg2 3.159869 1_455
Mg0 Mg4 3.159869 1_455
Mg0 Sn0 3.162804 1_555
Mg0 Sn0 3.162804 1_565
Mg0 Mg2 3.165739 1_565
Mg0 Mg4 3.165739 1_555
Mg0 Mg12 3.175354 1_455
Mg0 Mg13 3.175354 1_454
Mg0 Mg8 3.189505 1_555
Mg0 Mg9 3.189505 1_554
Mg0 Mg7 3.189512 1_564
Mg0 Mg6 3.189512 1_565
Mg1 Mg8 3.156653 1_555
Mg1 Mg9 3.156653 1_555
Mg1 Mg7 3.156659 1_565
Mg1 Mg6 3.156659 1_565
Mg1 Mg3 3.161571 1_565
Mg1 Mg5 3.161571 1_555
Mg1 Mg3 3.164036 1_455
Mg1 Mg5 3.164037 1_455
Mg1 Mg13 3.171088 1_455
Mg1 Mg12 3.171088 1_455
Mg2 Mg4 3.159869 1_555
Mg2 Sn0 3.162804 1_655
Mg2 Sn0 3.162805 1_555
Mg2 Mg4 3.165739 1_545
Mg2 Mg7 3.189512 1_554
Mg2 Mg6 3.189512 1_555
Mg3 Mg7 3.156659 1_555
Mg3 Mg6 3.156659 1_555
Mg3 Mg5 3.161571 1_545
Mg3 Mg5 3.164036 1_555
Mg4 Sn0 3.162804 1_665
Mg4 Sn0 3.162804 1_555
Mg4 Mg9 3.189512 1_554
Mg4 Mg8 3.189512 1_555
Mg5 Mg9 3.156659 1_555
Mg5 Mg8 3.156659 1_555
Mg6 Mg8 3.159325 1_545
Mg6 Mg8 3.166283 1_555
Mg6 Sn0 3.190744 1_555
Mg7 Mg9 3.159325 1_545
Mg7 Mg9 3.166283 1_555
Mg7 Sn0 3.190744 1_556
Mg8 Sn0 3.190750 1_555
Mg9 Sn0 3.190750 1_556
Mg10 Mg3 3.156653 1_555
Mg10 Mg5 3.156659 1_545
Mg10 Mg8 3.159325 1_545
Mg10 Mg6 3.159325 1_555
Mg10 Mg12 3.162846 1_555
Mg10 Mg12 3.162846 1_545
Mg10 Mg8 3.166283 1_655
Mg10 Mg6 3.166283 1_655
Mg10 Mg2 3.189505 1_555
Mg10 Mg4 3.189512 1_545
Mg10 Sn0 3.190750 1_655
Mg11 Mg3 3.156653 1_555
Mg11 Mg5 3.156659 1_545
Mg11 Mg9 3.159325 1_545
Mg11 Mg7 3.159325 1_555
Mg11 Mg13 3.162846 1_555
Mg11 Mg13 3.162846 1_545
Mg11 Mg9 3.166283 1_655
Mg11 Mg7 3.166283 1_655
Mg11 Mg2 3.189505 1_556
Mg11 Mg4 3.189512 1_546
Mg11 Sn0 3.190750 1_656
Mg12 Mg6 3.162846 1_555
Mg12 Mg6 3.162846 1_665
Mg12 Mg8 3.162846 1_555
Mg12 Mg8 3.162846 1_655
Mg12 Mg5 3.171082 1_555
Mg12 Mg3 3.171088 1_555
Mg12 Mg4 3.175348 1_555
Mg12 Mg2 3.175354 1_555
Mg13 Mg7 3.162846 1_555
Mg13 Mg7 3.162846 1_665
Mg13 Mg9 3.162846 1_555
Mg13 Mg9 3.162846 1_655
Mg13 Mg5 3.171082 1_555
Mg13 Mg3 3.171088 1_555
Mg13 Mg4 3.175348 1_556
Mg13 Mg2 3.175354 1_556
Ga0 Mg6 3.158601 1_555
Ga0 Mg7 3.158601 1_555
Ga0 Mg9 3.158607 1_555
Ga0 Mg8 3.158607 1_555
Ga0 Mg10 3.158607 1_455
Ga0 Mg11 3.158607 1_455
Ga0 Mg5 3.162804 1_555
Ga0 Mg1 3.162804 1_555
Ga0 Mg1 3.162804 1_545
Ga0 Mg5 3.162804 1_445
Ga0 Mg3 3.162804 1_555
Ga0 Mg3 3.162804 1_455
