# generated using pymatgen
data_Li4Zn(PS4)2
_symmetry_space_group_name_H-M   'P 1'
_cell_length_a   9.53482022
_cell_length_b   11.51214618
_cell_length_c   22.98172240
_cell_angle_alpha   90.02326083
_cell_angle_beta   90.01953903
_cell_angle_gamma   90.05451779
_symmetry_Int_Tables_number   1
_chemical_formula_structural   Li4Zn(PS4)2
_chemical_formula_sum   'Li32 Zn8 P16 S64'
_cell_volume   2522.61585547
_cell_formula_units_Z   8
loop_
 _symmetry_equiv_pos_site_id
 _symmetry_equiv_pos_as_xyz
  1  'x, y, z'
loop_
 _atom_site_type_symbol
 _atom_site_label
 _atom_site_symmetry_multiplicity
 _atom_site_fract_x
 _atom_site_fract_y
 _atom_site_fract_z
 _atom_site_occupancy
  Li  Li0  1  0.75170491  0.25119542  0.99864395  1
  Li  Li1  1  0.74792785  0.74757973  0.75227998  1
  Li  Li2  1  0.74981436  0.25090138  0.75011620  1
  Li  Li3  1  0.25115925  0.50112325  0.87089242  1
  Li  Li4  1  0.24340778  0.00185563  0.87054863  1
  Li  Li5  1  0.75142713  0.25981479  0.25197041  1
  Li  Li6  1  0.24790768  0.49252555  0.37482876  1
  Li  Li7  1  0.24974050  0.00534345  0.37617583  1
  Li  Li8  1  0.99251127  0.75093466  0.87654208  1
  Li  Li9  1  0.99967419  0.24963387  0.87444411  1
  Li  Li10  1  0.49266184  0.50199219  0.74873327  1
  Li  Li11  1  0.49341959  0.00071760  0.74885302  1
  Li  Li12  1  0.99214799  0.24991238  0.37684137  1
  Li  Li13  1  0.50820175  0.49868215  0.50055976  1
  Li  Li14  1  0.01535848  0.24871062  0.12630193  1
  Li  Li15  1  0.49952756  0.50283274  0.24989966  1
  Li  Li16  1  0.00322465  0.99976935  0.00206185  1
  Li  Li17  1  0.00686948  0.50067227  0.00086868  1
  Li  Li18  1  0.00137128  0.00015777  0.74950146  1
  Li  Li19  1  0.00464391  0.50093315  0.75054470  1
  Li  Li20  1  0.50218079  0.74898740  0.87558629  1
  Li  Li21  1  0.49743820  0.24730152  0.87261421  1
  Li  Li22  1  0.99072398  0.99936732  0.49971698  1
  Li  Li23  1  0.99802907  0.49887167  0.50128731  1
  Li  Li24  1  0.49523070  0.74586595  0.62381578  1
  Li  Li25  1  0.50083718  0.25178197  0.62335596  1
  Li  Li26  1  0.99432432  0.99820507  0.24841291  1
  Li  Li27  1  0.00479946  0.49778988  0.24887392  1
  Li  Li28  1  0.50799341  0.74919226  0.37550489  1
  Li  Li29  1  0.51227603  0.25425569  0.37699196  1
  Li  Li30  1  0.49924922  0.75141510  0.12724949  1
  Li  Li31  1  0.49117512  0.25246978  0.12527862  1
  Zn  Zn0  1  0.00671599  0.74928376  0.62428627  1
  Zn  Zn1  1  0.00730533  0.25112669  0.62459023  1
  Zn  Zn2  1  0.98539854  0.74672126  0.37360685  1
  Zn  Zn3  1  0.50484414  0.00065491  0.50117014  1
  Zn  Zn4  1  0.99827185  0.74846660  0.12454358  1
  Zn  Zn5  1  0.49685202  0.99975960  0.25056937  1
  Zn  Zn6  1  0.50103577  0.50058100  0.00042622  1
  Zn  Zn7  1  0.49989802  0.99931811  0.00022794  1
  P  P0  1  0.75248276  0.99721148  0.87494345  1
  P  P1  1  0.74663247  0.49359457  0.87541149  1
  P  P2  1  0.75118992  0.00501907  0.62542808  1
  P  P3  1  0.75339277  0.50157829  0.62698499  1
  P  P4  1  0.24929610  0.75528643  0.75080907  1
  P  P5  1  0.24970844  0.25417333  0.75023081  1
  P  P6  1  0.74571899  0.99858360  0.37178233  1
  P  P7  1  0.75327406  0.50076366  0.37610096  1
  P  P8  1  0.24811408  0.75113994  0.50035926  1
  P  P9  1  0.25043701  0.24268930  0.49750120  1
  P  P10  1  0.74828769  0.00105789  0.12228323  1
  P  P11  1  0.75155453  0.50356116  0.12641387  1
  P  P12  1  0.24707350  0.75376523  0.25319442  1
  P  P13  1  0.25065288  0.24791929  0.25059365  1
  P  P14  1  0.25118257  0.74495879  0.00004795  1
  P  P15  1  0.25144117  0.24868819  0.99790842  1
  S  S0  1  0.62985679  0.89497298  0.06946599  1
  S  S1  1  0.63351674  0.39533191  0.06955363  1
  S  S2  1  0.62703973  0.89590037  0.82249602  1
  S  S3  1  0.62679469  0.39185975  0.82121111  1
  S  S4  1  0.13563441  0.64404908  0.94481668  1
  S  S5  1  0.13489785  0.14293448  0.94442866  1
  S  S6  1  0.63888945  0.89732495  0.57068345  1
  S  S7  1  0.64143446  0.39794121  0.57374678  1
  S  S8  1  0.12825908  0.64882790  0.69795813  1
  S  S9  1  0.12798439  0.14776551  0.69758907  1
  S  S10  1  0.63150503  0.89194763  0.31738206  1
  S  S11  1  0.63459844  0.39730430  0.32054107  1
  S  S12  1  0.12812149  0.64843437  0.44344448  1
  S  S13  1  0.12789088  0.13879740  0.44535931  1
  S  S14  1  0.13283768  0.65090056  0.19697493  1
  S  S15  1  0.13492741  0.14058807  0.19977495  1
  S  S16  1  0.86711992  0.60195817  0.82459328  1
  S  S17  1  0.86570178  0.10739181  0.82233191  1
  S  S18  1  0.87280916  0.60905918  0.57459581  1
  S  S19  1  0.86947232  0.11178694  0.57334952  1
  S  S20  1  0.36922965  0.35427178  0.69784487  1
  S  S21  1  0.36809010  0.85527683  0.69797605  1
  S  S22  1  0.86712257  0.60781093  0.31956638  1
  S  S23  1  0.86472412  0.10705140  0.32090550  1
  S  S24  1  0.36725471  0.35423526  0.44714944  1
  S  S25  1  0.36852353  0.86239221  0.44727776  1
  S  S26  1  0.86996804  0.60792738  0.07194881  1
  S  S27  1  0.86583917  0.11166310  0.07239957  1
  S  S28  1  0.37109888  0.35267056  0.20046983  1
  S  S29  1  0.35900911  0.86358847  0.19958834  1
  S  S30  1  0.37450403  0.35872318  0.94530129  1
  S  S31  1  0.36746532  0.85928242  0.94752003  1
  S  S32  1  0.62606669  0.10451705  0.92840242  1
  S  S33  1  0.62980652  0.60137799  0.92890810  1
  S  S34  1  0.63338114  0.10632669  0.67972823  1
  S  S35  1  0.63775214  0.60670041  0.68124254  1
  S  S36  1  0.12577933  0.85690569  0.80460683  1
  S  S37  1  0.13012634  0.35779135  0.80450222  1
  S  S38  1  0.63558095  0.10222266  0.42914667  1
  S  S39  1  0.63243393  0.60430625  0.42698102  1
  S  S40  1  0.12985770  0.85777896  0.55294645  1
  S  S41  1  0.13843344  0.34953918  0.55308757  1
  S  S42  1  0.62965836  0.10479101  0.17903431  1
  S  S43  1  0.63357877  0.60573883  0.17773030  1
  S  S44  1  0.12455408  0.85914667  0.30719858  1
  S  S45  1  0.13153597  0.35060397  0.30525685  1
  S  S46  1  0.13868477  0.85064169  0.05529852  1
  S  S47  1  0.13871686  0.35169531  0.05126954  1
  S  S48  1  0.86783354  0.89712255  0.92875154  1
  S  S49  1  0.87019985  0.39201233  0.92849833  1
  S  S50  1  0.86944159  0.89071502  0.67700072  1
  S  S51  1  0.87665100  0.39096442  0.67943652  1
  S  S52  1  0.36555384  0.64551520  0.80350590  1
  S  S53  1  0.36327820  0.14213532  0.80262606  1
  S  S54  1  0.85972787  0.88933423  0.42508412  1
  S  S55  1  0.87067273  0.39641106  0.42783346  1
  S  S56  1  0.36006496  0.64162899  0.54989711  1
  S  S57  1  0.36852627  0.13768163  0.55150696  1
  S  S58  1  0.86151905  0.89023724  0.17459109  1
  S  S59  1  0.86896567  0.39093682  0.17576968  1
  S  S60  1  0.36365918  0.64575362  0.30441545  1
  S  S61  1  0.37552606  0.14050394  0.30566416  1
  S  S62  1  0.37055164  0.64004581  0.05273255  1
  S  S63  1  0.37204214  0.14223832  0.05039328  1
loop_
_geom_bond_atom_site_label_1
_geom_bond_atom_site_label_2
_geom_bond_distance
_geom_bond_site_symmetry_2
Li0 S49 2.550124 1_555
Li0 S27 2.577198 1_556
Li0 S1 2.584870 1_556
Li0 S32 2.623901 1_555
Li1 S35 2.528354 1_555
Li1 S2 2.617417 1_555
Li1 S16 2.620765 1_555
Li1 S50 2.655319 1_555
Li2 S34 2.571461 1_555
Li2 S3 2.584855 1_555
Li2 S51 2.588575 1_555
Li2 S17 2.590223 1_555
Li3 S52 2.520108 1_555
Li3 S37 2.524985 1_555
Li3 S4 2.609472 1_555
Li3 S30 2.645632 1_555
Li4 S36 2.516397 1_545
Li4 S53 2.520057 1_555
Li4 S5 2.567723 1_555
Li4 S31 2.688284 1_545
Li5 S11 2.496401 1_555
Li5 S59 2.569361 1_555
Li5 S23 2.602752 1_555
Li5 S42 2.708313 1_555
Li6 S45 2.539723 1_555
Li6 S24 2.568304 1_555
Li6 S60 2.635942 1_555
Li6 S12 2.648664 1_555
Li7 S13 2.498157 1_555
Li7 S61 2.546624 1_555
Li7 S25 2.581772 1_545
Li7 S44 2.600577 1_545
Li8 S48 2.385012 1_555
Li8 S16 2.406153 1_555
Li8 S36 2.415804 1_655
Li8 S4 2.416949 1_655
Li9 S37 2.383526 1_655
Li9 S17 2.396017 1_555
Li9 S49 2.399389 1_555
Li9 S5 2.400258 1_655
Li10 S20 2.374541 1_555
Li10 S35 2.402587 1_555
Li10 S52 2.405503 1_555
Li10 S3 2.453758 1_555
Li11 S21 2.364780 1_545
Li11 S53 2.391793 1_555
Li11 S34 2.404714 1_555
Li11 S2 2.438590 1_545
Li12 S55 2.358435 1_555
Li12 S13 2.407157 1_655
Li12 S45 2.411766 1_655
Li12 S23 2.413897 1_555
Li13 S39 2.396108 1_555
Li13 S7 2.406393 1_555
Li13 S56 2.448010 1_555
Li13 S24 2.463924 1_555
Li14 S15 2.388167 1_555
Li14 S47 2.400602 1_555
Li14 S59 2.434244 1_455
Li14 S27 2.459491 1_455
Li15 S28 2.402449 1_555
Li15 S11 2.402767 1_555
Li15 S43 2.405859 1_555
Li15 S60 2.441011 1_555
Li16 S48 2.428048 1_454
Li16 S27 2.447700 1_465
Li16 S5 2.458838 1_564
Li16 S46 2.473309 1_555
Li17 S47 2.422429 1_555
Li17 S4 2.426953 1_554
Li17 S26 2.428953 1_455
Li17 S49 2.454149 1_454
Li18 S36 2.394776 1_545
Li18 S9 2.401464 1_555
Li18 S50 2.437175 1_445
Li18 S17 2.449832 1_455
Li19 S37 2.385175 1_555
Li19 S8 2.397369 1_555
Li19 S51 2.399299 1_455
Li19 S16 2.443530 1_455
Li20 S2 2.401092 1_555
Li20 S52 2.419516 1_555
Li20 S33 2.423783 1_555
Li20 S31 2.449065 1_555
Li21 S53 2.383961 1_555
Li21 S3 2.384316 1_555
Li21 S30 2.410854 1_555
Li21 S32 2.419585 1_555
Li22 S13 2.417913 1_665
Li22 S19 2.424352 1_565
Li22 S40 2.432666 1_655
Li22 S54 2.469875 1_555
Li23 S55 2.389523 1_555
Li23 S18 2.423946 1_555
Li23 S41 2.483904 1_655
Li23 S12 2.503836 1_655
Li24 S21 2.442002 1_555
Li24 S56 2.445545 1_555
Li24 S35 2.481890 1_555
Li24 S6 2.530966 1_555
Li25 S20 2.428983 1_555
Li25 S7 2.434428 1_555
Li25 S57 2.457050 1_555
Li25 S34 2.466613 1_555
Li26 S15 2.394119 1_665
Li26 S23 2.423915 1_565
Li26 S44 2.436022 1_655
Li26 S58 2.453665 1_555
Li27 S22 2.443328 1_455
Li27 S59 2.450917 1_455
Li27 S45 2.452546 1_555
Li27 S14 2.453260 1_555
Li28 S39 2.365122 1_555
Li28 S10 2.423046 1_555
Li28 S60 2.444354 1_555
Li28 S25 2.488065 1_555
Li29 S11 2.398843 1_555
Li29 S24 2.416493 1_555
Li29 S38 2.426284 1_555
Li29 S61 2.468932 1_555
Li30 S43 2.409050 1_555
Li30 S0 2.458574 1_555
Li30 S62 2.464978 1_555
Li30 S29 2.494490 1_555
Li31 S28 2.372707 1_555
Li31 S63 2.420047 1_555
Li31 S42 2.482922 1_555
Li31 S1 2.487086 1_555
P0 S48 2.017213 1_555
P0 S17 2.058082 1_565
P0 S2 2.058864 1_555
P0 S32 2.119176 1_565
P1 S3 2.055273 1_555
P1 S16 2.058978 1_555
P1 S49 2.060818 1_555
P1 S33 2.072268 1_555
P2 S34 2.044872 1_555
P2 S19 2.052956 1_555
P2 S6 2.064410 1_545
P2 S50 2.100184 1_545
P3 S7 2.013822 1_555
P3 S35 2.058491 1_555
P3 S18 2.067971 1_555
P3 S51 2.111620 1_555
P4 S21 2.020362 1_555
P4 S36 2.070411 1_555
P4 S52 2.072529 1_555
P4 S8 2.074679 1_555
P5 S20 2.018814 1_555
P5 S37 2.069047 1_555
P5 S53 2.071025 1_555
P5 S9 2.075177 1_555
P6 S23 2.052628 1_565
P6 S10 2.061862 1_555
P6 S38 2.065518 1_565
P6 S54 2.065665 1_555
P7 S55 2.027924 1_555
P7 S39 2.029307 1_555
P7 S11 2.079561 1_555
P7 S22 2.094000 1_555
P8 S56 2.006936 1_555
P8 S40 2.059472 1_555
P8 S12 2.100708 1_555
P8 S25 2.108557 1_555
P9 S13 2.055947 1_555
P9 S24 2.056219 1_555
P9 S57 2.066987 1_555
P9 S41 2.070663 1_555
P10 S27 2.047236 1_555
P10 S0 2.057971 1_545
P10 S58 2.059450 1_545
P10 S42 2.099726 1_555
P11 S43 2.010506 1_555
P11 S59 2.055234 1_555
P11 S26 2.069944 1_555
P11 S1 2.126421 1_555
P12 S60 2.042172 1_555
P12 S14 2.062370 1_555
P12 S29 2.062735 1_555
P12 S44 2.092673 1_555
P13 S28 2.024712 1_555
P13 S15 2.025741 1_555
P13 S45 2.065879 1_555
P13 S61 2.133446 1_555
P14 S4 2.042031 1_554
P14 S62 2.054991 1_555
P14 S46 2.060390 1_555
P14 S31 2.101941 1_554
P15 S47 2.016789 1_556
P15 S5 2.054960 1_555
P15 S63 2.069274 1_556
P15 S30 2.107729 1_555
S0 Zn7 2.348065 1_555
S1 Zn6 2.364461 1_555
S6 Zn3 2.367219 1_565
S8 Zn0 2.355811 1_555
S9 Zn1 2.357386 1_555
S10 Zn5 2.355787 1_555
S12 Zn2 2.389783 1_455
S14 Zn4 2.383590 1_455
S18 Zn0 2.352396 1_655
S19 Zn1 2.383366 1_655
S22 Zn2 2.316359 1_555
S25 Zn3 2.397982 1_565
S26 Zn4 2.359843 1_555
S29 Zn5 2.356078 1_555
S30 Zn6 2.391860 1_556
S31 Zn7 2.377848 1_556
S32 Zn7 2.374618 1_546
S33 Zn6 2.357049 1_556
S38 Zn3 2.379293 1_555
S40 Zn0 2.372089 1_555
S41 Zn1 2.355262 1_555
S42 Zn5 2.401737 1_545
S44 Zn2 2.400936 1_455
S46 Zn4 2.389232 1_455
S50 Zn0 2.415644 1_655
S51 Zn1 2.394890 1_655
S54 Zn2 2.352435 1_555
S57 Zn3 2.349362 1_555
S58 Zn4 2.385445 1_555
S61 Zn5 2.360001 1_545
S62 Zn6 2.360915 1_555
S63 Zn7 2.350663 1_545
