# generated using pymatgen
data_K8MgMn4O16
_symmetry_space_group_name_H-M   'P 1'
_cell_length_a   6.31171457
_cell_length_b   7.99290270
_cell_length_c   11.62956506
_cell_angle_alpha   91.46353247
_cell_angle_beta   116.44149191
_cell_angle_gamma   91.71236309
_symmetry_Int_Tables_number   1
_chemical_formula_structural   K8MgMn4O16
_chemical_formula_sum   'K8 Mg1 Mn4 O16'
_cell_volume   524.59469924
_cell_formula_units_Z   1
loop_
 _symmetry_equiv_pos_site_id
 _symmetry_equiv_pos_as_xyz
  1  'x, y, z'
loop_
 _atom_site_type_symbol
 _atom_site_label
 _atom_site_symmetry_multiplicity
 _atom_site_fract_x
 _atom_site_fract_y
 _atom_site_fract_z
 _atom_site_occupancy
  K  K0  1  0.16851300  0.69023800  0.90613000  1
  K  K1  1  0.46837600  0.48693300  0.70905700  1
  K  K2  1  0.20973800  0.78060100  0.41818700  1
  K  K3  1  0.51852600  0.00185400  0.79617700  1
  K  K4  1  0.62078500  0.95877000  0.23506300  1
  K  K5  1  0.82362100  0.20845400  0.59250500  1
  K  K6  1  0.50415200  0.49864400  0.27071400  1
  K  K7  1  0.74097400  0.35978800  0.05073900  1
  Mg  Mg0  1  0.11814200  0.05808400  0.11914800  1
  Mn  Mn0  1  0.11886200  0.23930400  0.92354300  1
  Mn  Mn1  1  0.14627700  0.24456000  0.40539100  1
  Mn  Mn2  1  0.85608200  0.73871800  0.58305600  1
  Mn  Mn3  1  0.85511500  0.76960100  0.07176300  1
  O  O0  1  0.17922600  0.03037400  0.95563600  1
  O  O1  1  0.29550000  0.34123100  0.87004600  1
  O  O2  1  0.25034700  0.17897000  0.55454300  1
  O  O3  1  0.15115800  0.76984100  0.66111200  1
  O  O4  1  0.26781400  0.43379800  0.41394200  1
  O  O5  1  0.21621400  0.10670700  0.31520500  1
  O  O6  1  0.82608800  0.26500300  0.83021900  1
  O  O7  1  0.74681400  0.67580000  0.92421900  1
  O  O8  1  0.18184300  0.29795900  0.08425700  1
  O  O9  1  0.16534200  0.80196900  0.14717000  1
  O  O10  1  0.71510400  0.87676300  0.62960000  1
  O  O11  1  0.79003300  0.54551700  0.60876900  1
  O  O12  1  0.85212300  0.25289100  0.34147600  1
  O  O13  1  0.76789600  0.76028000  0.42613800  1
  O  O14  1  0.75874000  0.67090900  0.16768000  1
  O  O15  1  0.78034300  0.98143900  0.06074200  1
loop_
_geom_bond_atom_site_label_1
_geom_bond_atom_site_label_2
_geom_bond_distance
_geom_bond_site_symmetry_2
K0 O0 2.757103 1_565
K0 O7 2.761060 1_455
K0 O3 2.890503 1_555
K0 O9 2.928990 1_556
K0 O1 2.995601 1_555
K1 O7 2.713088 1_555
K1 O6 2.786294 1_555
K1 O11 2.789459 1_555
K1 O1 2.811912 1_555
K1 O2 2.924241 1_555
K1 O3 2.962045 1_555
K1 O4 3.096147 1_555
K2 O4 2.808991 1_555
K2 O13 2.831179 1_455
K2 O5 2.902879 1_565
K2 O3 3.011000 1_555
K2 O9 3.047198 1_555
K2 O10 3.095611 1_555
K2 O14 3.113505 1_455
K3 O6 2.716276 1_555
K3 O3 2.762860 1_545
K3 O15 2.781677 1_546
K3 O10 2.899604 1_545
K3 O2 2.979309 1_555
K3 O7 3.097936 1_545
K4 O13 2.597616 1_555
K4 O15 2.642533 1_555
K4 O12 2.688336 1_565
K4 O14 2.702119 1_555
K4 O9 2.825156 1_555
K5 O11 2.717125 1_555
K5 O6 2.782889 1_555
K5 O10 2.810160 1_545
K5 O2 2.931940 1_655
K5 O12 3.032825 1_555
K6 O8 2.666884 1_555
K6 O13 2.707529 1_555
K6 O4 2.734771 1_555
K6 O14 2.753269 1_555
K6 O12 2.844311 1_555
K6 O9 3.204190 1_555
K7 O1 2.653442 1_554
K7 O8 2.695423 1_655
K7 O14 2.778641 1_555
K7 O6 2.931130 1_554
K7 O7 2.962905 1_554
K7 O15 3.042636 1_545
K7 O12 3.274948 1_555
Mg0 O15 1.998360 1_445
Mg0 O8 2.035016 1_555
Mg0 O9 2.090369 1_545
Mg0 O5 2.101503 1_555
Mg0 O0 2.109546 1_554
Mn0 O6 1.697895 1_455
Mn0 O1 1.697968 1_555
Mn0 O0 1.736790 1_555
Mn0 O8 1.775820 1_556
Mn1 O4 1.655663 1_555
Mn1 O2 1.663549 1_555
Mn1 O12 1.668792 1_455
Mn1 O5 1.700381 1_555
Mn2 O11 1.656506 1_555
Mn2 O10 1.661117 1_555
Mn2 O13 1.669413 1_555
Mn2 O3 1.676222 1_655
Mn3 O7 1.683061 1_554
Mn3 O14 1.690299 1_555
Mn3 O9 1.760372 1_655
Mn3 O15 1.763818 1_555
