# generated using pymatgen
data_K15P16Pd9O56
_symmetry_space_group_name_H-M   'P 1'
_cell_length_a   12.00067098
_cell_length_b   12.00067098
_cell_length_c   12.42590518
_cell_angle_alpha   66.38722565
_cell_angle_beta   66.38722565
_cell_angle_gamma   72.36315028
_symmetry_Int_Tables_number   1
_chemical_formula_structural   K15P16Pd9O56
_chemical_formula_sum   'K15 P16 Pd9 O56'
_cell_volume   1480.60085347
_cell_formula_units_Z   1
loop_
 _symmetry_equiv_pos_site_id
 _symmetry_equiv_pos_as_xyz
  1  'x, y, z'
loop_
 _atom_site_type_symbol
 _atom_site_label
 _atom_site_symmetry_multiplicity
 _atom_site_fract_x
 _atom_site_fract_y
 _atom_site_fract_z
 _atom_site_occupancy
  K  K0  1  0.84136401  0.84136401  0.90682597  1
  K  K1  1  0.15863599  0.15863599  0.09317403  1
  K  K2  1  0.25948585  0.74051415  0.00000000  1
  K  K3  1  0.74051415  0.25948585  -0.00000000  1
  K  K4  1  0.58471162  0.12228526  0.91684482  1
  K  K5  1  0.41528838  0.87771474  0.08315518  1
  K  K6  1  0.87771474  0.41528838  0.08315518  1
  K  K7  1  0.12228526  0.58471162  0.91684482  1
  K  K8  1  0.64607887  0.11605018  0.59880668  1
  K  K9  1  0.35392113  0.88394982  0.40119332  1
  K  K10  1  0.88394982  0.35392113  0.40119332  1
  K  K11  1  0.11605018  0.64607887  0.59880668  1
  K  K12  1  0.25291102  0.25291102  0.49982031  1
  K  K13  1  0.74708898  0.74708898  0.50017969  1
  K  K14  1  0.00000000  0.00000000  -0.00000000  1
  P  P0  1  0.32066035  0.10868213  0.80194337  1
  P  P1  1  0.67933965  0.89131787  0.19805663  1
  P  P2  1  0.89131787  0.67933965  0.19805663  1
  P  P3  1  0.10868213  0.32066035  0.80194337  1
  P  P4  1  0.13929751  0.92412008  0.69646345  1
  P  P5  1  0.86070249  0.07587992  0.30353655  1
  P  P6  1  0.07587992  0.86070249  0.30353655  1
  P  P7  1  0.92412008  0.13929751  0.69646345  1
  P  P8  1  0.60432641  0.81937815  0.81162676  1
  P  P9  1  0.39567359  0.18062185  0.18837324  1
  P  P10  1  0.18062185  0.39567359  0.18837324  1
  P  P11  1  0.81937815  0.60432641  0.81162676  1
  P  P12  1  0.42400344  0.62854948  0.69284568  1
  P  P13  1  0.57599656  0.37145052  0.30715432  1
  P  P14  1  0.37145052  0.57599656  0.30715432  1
  P  P15  1  0.62854948  0.42400344  0.69284568  1
  Pd  Pd0  1  0.37352630  0.37352630  0.74330036  1
  Pd  Pd1  1  0.62647370  0.62647370  0.25669964  1
  Pd  Pd2  1  0.43448538  0.43448538  0.95259435  1
  Pd  Pd3  1  0.56551462  0.56551462  0.04740565  1
  Pd  Pd4  1  0.41289837  0.91623818  0.65635082  1
  Pd  Pd5  1  0.58710163  0.08376182  0.34364918  1
  Pd  Pd6  1  0.08376182  0.58710163  0.34364918  1
  Pd  Pd7  1  0.91623818  0.41289837  0.65635082  1
  Pd  Pd8  1  0.00000000  0.00000000  0.50000000  1
  O  O0  1  0.58100113  0.84607028  0.68892342  1
  O  O1  1  0.41899887  0.15392972  0.31107658  1
  O  O2  1  0.15392972  0.41899887  0.31107658  1
  O  O3  1  0.84607028  0.58100113  0.68892342  1
  O  O4  1  0.40496293  0.07662024  0.68202387  1
  O  O5  1  0.59503707  0.92337976  0.31797613  1
  O  O6  1  0.92337976  0.59503707  0.31797613  1
  O  O7  1  0.07662024  0.40496293  0.68202387  1
  O  O8  1  0.56929837  0.56929837  0.64246211  1
  O  O9  1  0.43070163  0.43070163  0.35753789  1
  O  O10  1  0.56656541  0.34775696  0.66518172  1
  O  O11  1  0.43343459  0.65224304  0.33481828  1
  O  O12  1  0.65224304  0.43343459  0.33481828  1
  O  O13  1  0.34775696  0.56656541  0.66518172  1
  O  O14  1  0.11809013  0.90947857  0.37766818  1
  O  O15  1  0.88190987  0.09052143  0.62233182  1
  O  O16  1  0.09052143  0.88190987  0.62233182  1
  O  O17  1  0.90947857  0.11809013  0.37766818  1
  O  O18  1  0.60711474  0.39116717  0.83223820  1
  O  O19  1  0.39288526  0.60883283  0.16776180  1
  O  O20  1  0.60883283  0.39288526  0.16776180  1
  O  O21  1  0.39116717  0.60711474  0.83223820  1
  O  O22  1  0.60684846  0.93191513  0.83711107  1
  O  O23  1  0.39315154  0.06808487  0.16288893  1
  O  O24  1  0.06808487  0.39315154  0.16288893  1
  O  O25  1  0.93191513  0.60684846  0.83711107  1
  O  O26  1  0.38552112  0.18435791  0.82864616  1
  O  O27  1  0.61447888  0.81564209  0.17135384  1
  O  O28  1  0.81564209  0.61447888  0.17135384  1
  O  O29  1  0.18435791  0.38552112  0.82864616  1
  O  O30  1  0.41724451  0.76474187  0.61393252  1
  O  O31  1  0.58275549  0.23525813  0.38606748  1
  O  O32  1  0.23525813  0.58275549  0.38606748  1
  O  O33  1  0.76474187  0.41724451  0.61393252  1
  O  O34  1  0.74709386  0.74709386  0.78710888  1
  O  O35  1  0.25290614  0.25290614  0.21289112  1
  O  O36  1  0.02948291  0.02948291  0.74684523  1
  O  O37  1  0.97051709  0.97051709  0.25315477  1
  O  O38  1  0.82260346  0.15291951  0.81242878  1
  O  O39  1  0.17739654  0.84708049  0.18757122  1
  O  O40  1  0.84708049  0.17739654  0.18757122  1
  O  O41  1  0.15291951  0.82260346  0.81242878  1
  O  O42  1  0.20377950  0.20377950  0.75881488  1
  O  O43  1  0.79622050  0.79622050  0.24118512  1
  O  O44  1  0.25189256  0.98993199  0.60946961  1
  O  O45  1  0.74810744  0.01006801  0.39053039  1
  O  O46  1  0.01006801  0.74810744  0.39053039  1
  O  O47  1  0.98993199  0.25189256  0.60946961  1
  O  O48  1  0.51959584  0.73314960  0.92375744  1
  O  O49  1  0.48040416  0.26685040  0.07624256  1
  O  O50  1  0.26685040  0.48040416  0.07624256  1
  O  O51  1  0.73314960  0.51959584  0.92375744  1
  O  O52  1  0.27160293  0.00480708  0.91608525  1
  O  O53  1  0.72839707  0.99519292  0.08391475  1
  O  O54  1  0.99519292  0.72839707  0.08391475  1
  O  O55  1  0.00480708  0.27160293  0.91608525  1
loop_
_geom_bond_atom_site_label_1
_geom_bond_atom_site_label_2
_geom_bond_distance
_geom_bond_site_symmetry_2
K0 O34 2.871338 1_555
K0 O22 3.032749 1_555
K0 O25 3.032749 1_555
K0 O53 3.071780 1_556
K0 O54 3.071780 1_556
K0 O36 3.169034 1_665
K0 O27 3.292400 1_556
K0 O28 3.292400 1_556
K1 O35 2.871338 1_555
K1 O23 3.032749 1_555
K1 O24 3.032749 1_555
K1 O52 3.071780 1_554
K1 O55 3.071780 1_554
K1 O37 3.169034 1_445
K1 O29 3.292400 1_554
K1 O26 3.292400 1_554
K2 O39 2.797030 1_555
K2 O41 2.797030 1_554
K2 O19 2.811945 1_555
K2 O21 2.811945 1_554
K2 O50 2.860053 1_555
K2 O48 2.860053 1_554
K2 O54 2.945614 1_455
K2 O52 2.945614 1_564
K3 O40 2.797030 1_555
K3 O38 2.797030 1_554
K3 O20 2.811945 1_555
K3 O18 2.811945 1_554
K3 O49 2.860053 1_555
K3 O51 2.860053 1_554
K3 O53 2.945614 1_545
K3 O55 2.945614 1_654
K4 O38 2.693567 1_555
K4 O22 2.739727 1_545
K4 O26 2.799249 1_555
K4 O49 2.819637 1_556
K4 O53 2.889080 1_546
K4 O23 2.955935 1_556
K4 O18 3.028395 1_555
K4 O10 3.249279 1_555
K5 O39 2.693567 1_555
K5 O23 2.739727 1_565
K5 O27 2.799249 1_555
K5 O48 2.819637 1_554
K5 O52 2.889080 1_564
K5 O22 2.955935 1_554
K5 O19 3.028395 1_555
K5 O11 3.249279 1_555
K6 O40 2.693567 1_555
K6 O24 2.739727 1_655
K6 O28 2.799249 1_555
K6 O51 2.819637 1_554
K6 O55 2.889080 1_654
K6 O25 2.955935 1_554
K6 O20 3.028395 1_555
K6 O12 3.249279 1_555
K7 O41 2.693567 1_555
K7 O25 2.739727 1_455
K7 O29 2.799249 1_555
K7 O50 2.819637 1_556
K7 O54 2.889080 1_456
K7 O24 2.955935 1_556
K7 O21 3.028395 1_555
K7 O13 3.249279 1_555
K8 O31 2.744630 1_555
K8 O4 2.776066 1_555
K8 O22 2.853885 1_545
K8 O15 2.873076 1_555
K8 O10 2.986914 1_555
K8 O45 2.994891 1_555
K8 O0 3.207384 1_545
K8 O17 3.252338 1_555
K9 O30 2.744630 1_555
K9 O5 2.776066 1_555
K9 O23 2.853885 1_565
K9 O14 2.873076 1_555
K9 O11 2.986914 1_555
K9 O44 2.994891 1_555
K9 O1 3.207384 1_565
K9 O16 3.252338 1_555
K10 O33 2.744630 1_555
K10 O6 2.776066 1_555
K10 O24 2.853885 1_655
K10 O17 2.873076 1_555
K10 O12 2.986914 1_555
K10 O47 2.994891 1_555
K10 O2 3.207384 1_655
K10 O15 3.252338 1_555
K11 O32 2.744630 1_555
K11 O7 2.776066 1_555
K11 O25 2.853885 1_455
K11 O16 2.873076 1_555
K11 O13 2.986914 1_555
K11 O46 2.994891 1_555
K11 O3 3.207384 1_455
K11 O14 3.252338 1_555
K12 O1 2.817166 1_555
K12 O2 2.817166 1_555
K12 O42 2.867543 1_555
K12 O44 2.895122 1_545
K12 O47 2.895122 1_455
K12 O9 2.990820 1_555
K12 O4 3.172453 1_555
K12 O7 3.172453 1_555
K13 O3 2.817166 1_555
K13 O0 2.817166 1_555
K13 O43 2.867543 1_555
K13 O46 2.895122 1_655
K13 O45 2.895122 1_565
K13 O8 2.990820 1_555
K13 O5 3.172453 1_555
K13 O6 3.172453 1_555
K14 O36 2.904870 1_554
K14 O37 2.904870 1_445
K14 O55 3.009561 1_554
K14 O52 3.009561 1_554
K14 O54 3.009561 1_445
K14 O53 3.009561 1_445
O0 P8 1.549834 1_555
O0 Pd4 2.072264 1_555
O1 P9 1.549834 1_555
O1 Pd5 2.072264 1_555
O2 P10 1.549834 1_555
O2 Pd6 2.072264 1_555
O3 P11 1.549834 1_555
O3 Pd7 2.072264 1_555
O4 P0 1.551682 1_555
O4 Pd4 2.042486 1_545
O5 P1 1.551682 1_555
O5 Pd5 2.042486 1_565
O6 P2 1.551682 1_555
O6 Pd6 2.042486 1_655
O7 P3 1.551682 1_555
O7 Pd7 2.042486 1_455
O8 P12 1.633599 1_555
O8 P15 1.633599 1_555
O9 P14 1.633599 1_555
O9 P13 1.633599 1_555
O10 P15 1.542068 1_555
O10 Pd0 2.099862 1_555
O11 P14 1.542068 1_555
O11 Pd1 2.099862 1_555
O12 P13 1.542068 1_555
O12 Pd1 2.099862 1_555
O13 P12 1.542068 1_555
O13 Pd0 2.099862 1_555
O14 P6 1.559864 1_555
O14 Pd8 2.040423 1_565
O15 P7 1.559864 1_555
O15 Pd8 2.040423 1_655
O16 P4 1.559864 1_555
O16 Pd8 2.040423 1_565
O17 P5 1.559864 1_555
O17 Pd8 2.040423 1_655
O18 P15 1.542483 1_555
O18 Pd2 2.070475 1_555
O19 P14 1.542483 1_555
O19 Pd3 2.070475 1_555
O20 P13 1.542483 1_555
O20 Pd3 2.070475 1_555
O21 P12 1.542483 1_555
O21 Pd2 2.070475 1_555
O22 P8 1.516623 1_555
O23 P9 1.516623 1_555
O24 P10 1.516623 1_555
O25 P11 1.516623 1_555
O26 P0 1.554788 1_555
O26 Pd0 2.072334 1_555
O27 P1 1.554788 1_555
O27 Pd1 2.072334 1_555
O28 P2 1.554788 1_555
O28 Pd1 2.072334 1_555
O29 P3 1.554788 1_555
O29 Pd0 2.072334 1_555
O30 P12 1.529331 1_555
O30 Pd4 2.067382 1_555
O31 P13 1.529331 1_555
O31 Pd5 2.067382 1_555
O32 P14 1.529331 1_555
O32 Pd6 2.067382 1_555
O33 P15 1.529331 1_555
O33 Pd7 2.067382 1_555
O34 P11 1.635138 1_555
O34 P8 1.635138 1_555
O35 P10 1.635138 1_555
O35 P9 1.635138 1_555
O36 P7 1.640394 1_455
O36 P4 1.640394 1_545
O37 P5 1.640394 1_565
O37 P6 1.640394 1_655
O38 P7 1.499666 1_555
O39 P6 1.499666 1_555
O40 P5 1.499666 1_555
O41 P4 1.499666 1_555
O42 P3 1.642945 1_555
O42 P0 1.642945 1_555
O43 P1 1.642945 1_555
O43 P2 1.642945 1_555
O44 P4 1.552633 1_555
O44 Pd4 2.075648 1_555
O45 P5 1.552633 1_555
O45 Pd5 2.075648 1_555
O46 P6 1.552633 1_555
O46 Pd6 2.075648 1_555
O47 P7 1.552633 1_555
O47 Pd7 2.075648 1_555
O48 P8 1.547150 1_555
O48 Pd3 2.059549 1_556
O49 P9 1.547150 1_555
O49 Pd2 2.059549 1_554
O50 P10 1.547150 1_555
O50 Pd2 2.059549 1_554
O51 P11 1.547150 1_555
O51 Pd3 2.059549 1_556
O52 P0 1.507169 1_555
O53 P1 1.507169 1_555
O54 P2 1.507169 1_555
O55 P3 1.507169 1_555
