# generated using pymatgen
data_Re2Os(Se2Cl)2
_symmetry_space_group_name_H-M   'P 1'
_cell_length_a   9.07579700
_cell_length_b   9.08727432
_cell_length_c   12.17743475
_cell_angle_alpha   94.79377513
_cell_angle_beta   88.14298527
_cell_angle_gamma   116.62222357
_symmetry_Int_Tables_number   1
_chemical_formula_structural   Re2Os(Se2Cl)2
_chemical_formula_sum   'Re8 Os4 Se16 Cl8'
_cell_volume   894.69180503
_cell_formula_units_Z   4
loop_
 _symmetry_equiv_pos_site_id
 _symmetry_equiv_pos_as_xyz
  1  'x, y, z'
loop_
 _atom_site_type_symbol
 _atom_site_label
 _atom_site_symmetry_multiplicity
 _atom_site_fract_x
 _atom_site_fract_y
 _atom_site_fract_z
 _atom_site_occupancy
  Re  Re0  1  0.34881300  0.36768700  0.39104500  1
  Re  Re1  1  0.65118700  0.63231300  0.60895500  1
  Re  Re2  1  0.41771500  0.32670300  0.59086800  1
  Re  Re3  1  0.58228500  0.67329700  0.40913200  1
  Re  Re4  1  0.12333800  0.03886000  0.86992900  1
  Re  Re5  1  0.87666200  0.96114000  0.13007100  1
  Re  Re6  1  0.17286600  0.98918700  0.07206500  1
  Re  Re7  1  0.82713400  0.01081300  0.92793500  1
  Os  Os0  1  0.65535000  0.42853700  0.44086300  1
  Os  Os1  1  0.34465000  0.57146300  0.55913700  1
  Os  Os2  1  0.09350600  0.23093500  0.03742700  1
  Os  Os3  1  0.90649400  0.76906500  0.96257300  1
  Se  Se0  1  0.36828600  0.24538400  0.97926600  1
  Se  Se1  1  0.63171400  0.75461600  0.02073400  1
  Se  Se2  1  0.57833700  0.46967300  0.25212700  1
  Se  Se3  1  0.42166300  0.53032700  0.74787300  1
  Se  Se4  1  0.04074600  0.26551800  0.84267600  1
  Se  Se5  1  0.95925400  0.73448200  0.15732400  1
  Se  Se6  1  0.80950100  0.19389000  0.09036900  1
  Se  Se7  1  0.19049900  0.80611000  0.90963100  1
  Se  Se8  1  0.87083600  0.72496600  0.46169000  1
  Se  Se9  1  0.12916400  0.27503400  0.53831000  1
  Se  Se10  1  0.71313300  0.39128000  0.63434400  1
  Se  Se11  1  0.28686700  0.60872000  0.36565600  1
  Se  Se12  1  0.14017900  0.17634500  0.23044500  1
  Se  Se13  1  0.85982100  0.82365500  0.76955500  1
  Se  Se14  1  0.42559200  0.13887300  0.42714100  1
  Se  Se15  1  0.57440800  0.86112700  0.57285900  1
  Cl  Cl0  1  0.39101500  0.97130900  0.16221000  1
  Cl  Cl1  1  0.60898500  0.02869100  0.83779000  1
  Cl  Cl2  1  0.30035800  0.08113400  0.70187500  1
  Cl  Cl3  1  0.69964200  0.91886600  0.29812500  1
  Cl  Cl4  1  0.20836700  0.51959700  0.08362700  1
  Cl  Cl5  1  0.79163300  0.48040300  0.91637300  1
  Cl  Cl6  1  0.85430700  0.34629400  0.36814500  1
  Cl  Cl7  1  0.14569300  0.65370600  0.63185500  1
loop_
_geom_bond_atom_site_label_1
_geom_bond_atom_site_label_2
_geom_bond_distance
_geom_bond_site_symmetry_2
Re0 Se2 2.522588 1_555
Re0 Se9 2.532842 1_555
Re0 Se11 2.537182 1_555
Re0 Se14 2.544288 1_555
Re0 Re3 2.627772 1_555
Re0 Re2 2.628626 1_555
Re0 Se12 2.674782 1_555
Re1 Se3 2.522588 1_555
Re1 Se8 2.532842 1_555
Re1 Se10 2.537182 1_555
Re1 Se15 2.544288 1_555
Re1 Re2 2.627772 1_555
Re1 Re3 2.628626 1_555
Re1 Se13 2.674782 1_555
Re2 Se14 2.534750 1_555
Re2 Se3 2.536605 1_555
Re2 Se10 2.538353 1_555
Re2 Se9 2.538653 1_555
Re3 Se15 2.534750 1_555
Re3 Se2 2.536605 1_555
Re3 Se11 2.538353 1_555
Re3 Se8 2.538653 1_555
Re4 Se0 2.504416 1_555
Re4 Se7 2.534599 1_545
Re4 Se4 2.535441 1_555
Re4 Se13 2.576161 1_445
Re5 Se1 2.504416 1_555
Re5 Se6 2.534599 1_565
Re5 Se5 2.535441 1_555
Re5 Se12 2.576161 1_665
Re6 Se7 2.524695 1_554
Re6 Se5 2.538385 1_455
Re6 Se0 2.540095 1_564
Re6 Se12 2.562649 1_565
Re7 Se6 2.524695 1_556
Re7 Se4 2.538385 1_655
Re7 Se1 2.540095 1_546
Re7 Se13 2.562649 1_545
Os0 Se10 2.512648 1_555
Os0 Se14 2.516899 1_555
Os0 Se8 2.518310 1_555
Os0 Se2 2.528324 1_555
Os0 Re3 2.649189 1_555
Os0 Re1 2.654158 1_555
Os0 Re2 2.661408 1_555
Os0 Re0 2.662387 1_555
Os1 Se11 2.512648 1_555
Os1 Se15 2.516899 1_555
Os1 Se9 2.518310 1_555
Os1 Se3 2.528324 1_555
Os1 Re2 2.649189 1_555
Os1 Re0 2.654158 1_555
Os1 Re3 2.661408 1_555
Os1 Re1 2.662387 1_555
Os2 Se4 2.507073 1_554
Os2 Se6 2.514709 1_455
Os2 Se0 2.519076 1_554
Os2 Se12 2.529415 1_555
Os2 Re7 2.655695 1_454
Os2 Re4 2.659495 1_554
Os2 Re6 2.667465 1_545
Os2 Re5 2.674117 1_445
Os3 Se5 2.507073 1_556
Os3 Se7 2.514709 1_655
Os3 Se1 2.519076 1_556
Os3 Se13 2.529415 1_555
Os3 Re6 2.655695 1_656
Os3 Re5 2.659495 1_556
Os3 Re7 2.667465 1_565
Os3 Re4 2.674117 1_665
Cl0 Re6 2.368599 1_555
Cl1 Re7 2.368599 1_555
Cl2 Re2 2.494456 1_555
Cl2 Re4 2.506380 1_555
Cl3 Re3 2.494456 1_555
Cl3 Re5 2.506380 1_555
Cl4 Os2 2.371664 1_555
Cl5 Os3 2.371664 1_555
Cl6 Os0 2.366100 1_555
Cl7 Os1 2.366100 1_555
