# generated using pymatgen
data_Mn2CuNiSb2
_symmetry_space_group_name_H-M   'P 1'
_cell_length_a   7.35449527
_cell_length_b   7.35449527
_cell_length_c   7.35449604
_cell_angle_alpha   33.59928285
_cell_angle_beta   33.59928285
_cell_angle_gamma   33.59928411
_symmetry_Int_Tables_number   1
_chemical_formula_structural   Mn2CuNiSb2
_chemical_formula_sum   'Mn2 Cu1 Ni1 Sb2'
_cell_volume   108.51262818
_cell_formula_units_Z   1
loop_
 _symmetry_equiv_pos_site_id
 _symmetry_equiv_pos_as_xyz
  1  'x, y, z'
loop_
 _atom_site_type_symbol
 _atom_site_label
 _atom_site_symmetry_multiplicity
 _atom_site_fract_x
 _atom_site_fract_y
 _atom_site_fract_z
 _atom_site_occupancy
  Mn  Mn0  1  0.25266500  0.25266500  0.25266500  1
  Mn  Mn1  1  0.74749000  0.74749000  0.74749000  1
  Cu  Cu0  1  0.87536100  0.87536100  0.87536100  1
  Ni  Ni0  1  0.37433900  0.37433900  0.37433900  1
  Sb  Sb0  1  0.00264300  0.00264300  0.00264300  1
  Sb  Sb1  1  0.49750300  0.49750300  0.49750300  1
loop_
_geom_bond_atom_site_label_1
_geom_bond_atom_site_label_2
_geom_bond_distance
_geom_bond_site_symmetry_2
Mn0 Ni0 2.530636 1_555
Mn0 Sb0 3.004476 1_655
Mn0 Sb0 3.004476 1_565
Mn0 Sb0 3.004477 1_556
Mn0 Sb1 3.067923 1_455
Mn0 Sb1 3.067923 1_545
Mn0 Sb1 3.067923 1_554
Mn1 Ni0 2.590421 1_556
Mn1 Ni0 2.590422 1_565
Mn1 Ni0 2.590422 1_655
Mn1 Sb0 2.944221 1_566
Mn1 Sb0 2.944221 1_656
Mn1 Sb0 2.944222 1_665
Mn1 Sb1 3.004896 1_565
Mn1 Sb1 3.004896 1_655
Mn1 Sb1 3.004897 1_556
Cu0 Mn0 2.619314 1_665
Cu0 Mn0 2.619315 1_566
Cu0 Mn0 2.619315 1_656
Cu0 Sb1 2.623360 1_556
Cu0 Sb1 2.623360 1_565
Cu0 Sb1 2.623360 1_655
Cu0 Sb0 2.647274 1_666
Cu0 Mn1 2.659524 1_555
Ni0 Sb1 2.561626 1_555
Ni0 Sb0 2.580906 1_556
Ni0 Sb0 2.580906 1_565
Ni0 Sb0 2.580906 1_655
