# generated using pymatgen
data_MgH2(CO2)2
_symmetry_space_group_name_H-M   'P 1'
_cell_length_a   14.23765900
_cell_length_b   7.65533900
_cell_length_c   25.46635000
_cell_angle_alpha   90.00000000
_cell_angle_beta   90.00000000
_cell_angle_gamma   90.00000000
_symmetry_Int_Tables_number   1
_chemical_formula_structural   MgH2(CO2)2
_chemical_formula_sum   'Mg24 H48 C48 O96'
_cell_volume   2775.68205672
_cell_formula_units_Z   24
loop_
 _symmetry_equiv_pos_site_id
 _symmetry_equiv_pos_as_xyz
  1  'x, y, z'
loop_
 _atom_site_type_symbol
 _atom_site_label
 _atom_site_symmetry_multiplicity
 _atom_site_fract_x
 _atom_site_fract_y
 _atom_site_fract_z
 _atom_site_occupancy
  Mg  Mg0  1  0.95954100  0.84747000  0.67016800  1
  Mg  Mg1  1  0.04045900  0.15253000  0.17016800  1
  Mg  Mg2  1  0.54045900  0.84747000  0.17016800  1
  Mg  Mg3  1  0.45954100  0.15253000  0.67016800  1
  Mg  Mg4  1  0.84088400  0.17656800  0.62467300  1
  Mg  Mg5  1  0.15911600  0.82343200  0.12467300  1
  Mg  Mg6  1  0.65911600  0.17656800  0.12467300  1
  Mg  Mg7  1  0.34088400  0.82343200  0.62467300  1
  Mg  Mg8  1  0.83471500  0.50939800  0.70485500  1
  Mg  Mg9  1  0.16528500  0.49060200  0.20485500  1
  Mg  Mg10  1  0.66528500  0.50939800  0.20485500  1
  Mg  Mg11  1  0.33471500  0.49060200  0.70485500  1
  Mg  Mg12  1  0.58130500  0.48702700  0.38692800  1
  Mg  Mg13  1  0.41869500  0.51297300  0.88692800  1
  Mg  Mg14  1  0.91869500  0.48702700  0.88692800  1
  Mg  Mg15  1  0.08130500  0.51297300  0.38692800  1
  Mg  Mg16  1  0.58921700  0.82114400  0.46366400  1
  Mg  Mg17  1  0.41078300  0.17885600  0.96366400  1
  Mg  Mg18  1  0.91078300  0.82114400  0.96366400  1
  Mg  Mg19  1  0.08921700  0.17885600  0.46366400  1
  Mg  Mg20  1  0.70812400  0.15460800  0.42284300  1
  Mg  Mg21  1  0.29187600  0.84539200  0.92284300  1
  Mg  Mg22  1  0.79187600  0.15460800  0.92284300  1
  Mg  Mg23  1  0.20812400  0.84539200  0.42284300  1
  H  H0  1  0.00031600  0.28225100  0.75642000  1
  H  H1  1  0.99968400  0.71774900  0.25642000  1
  H  H2  1  0.49968400  0.28225100  0.25642000  1
  H  H3  1  0.50031600  0.71774900  0.75642000  1
  H  H4  1  0.67842700  0.94489300  0.68528600  1
  H  H5  1  0.32157300  0.05510700  0.18528600  1
  H  H6  1  0.82157300  0.94489300  0.18528600  1
  H  H7  1  0.17842700  0.05510700  0.68528600  1
  H  H8  1  0.07372200  0.92638900  0.56836100  1
  H  H9  1  0.92627800  0.07361100  0.06836100  1
  H  H10  1  0.42627800  0.92638900  0.06836100  1
  H  H11  1  0.57372200  0.07361100  0.56836100  1
  H  H12  1  0.61992800  0.46168000  0.68441300  1
  H  H13  1  0.38007200  0.53832000  0.18441300  1
  H  H14  1  0.88007200  0.46168000  0.18441300  1
  H  H15  1  0.11992800  0.53832000  0.68441300  1
  H  H16  1  0.94656100  0.62058600  0.56119200  1
  H  H17  1  0.05343900  0.37941400  0.06119200  1
  H  H18  1  0.55343900  0.62058600  0.06119200  1
  H  H19  1  0.44656100  0.37941400  0.56119200  1
  H  H20  1  0.01876800  0.80048600  0.79200900  1
  H  H21  1  0.98123200  0.19951400  0.29200900  1
  H  H22  1  0.48123200  0.80048600  0.29200900  1
  H  H23  1  0.51876800  0.19951400  0.79200900  1
  H  H24  1  0.77297300  0.85187400  0.54597400  1
  H  H25  1  0.22702700  0.14812600  0.04597400  1
  H  H26  1  0.72702700  0.85187400  0.04597400  1
  H  H27  1  0.27297300  0.14812600  0.54597400  1
  H  H28  1  0.75342500  0.71873300  0.33542900  1
  H  H29  1  0.24657500  0.28126700  0.83542900  1
  H  H30  1  0.74657500  0.71873300  0.83542900  1
  H  H31  1  0.25342500  0.28126700  0.33542900  1
  H  H32  1  0.70418300  0.38680600  0.52866500  1
  H  H33  1  0.29581700  0.61319400  0.02866500  1
  H  H34  1  0.79581700  0.38680600  0.02866500  1
  H  H35  1  0.20418300  0.61319400  0.52866500  1
  H  H36  1  0.42856600  0.04657100  0.40506500  1
  H  H37  1  0.57143400  0.95342900  0.90506500  1
  H  H38  1  0.07143400  0.04657100  0.90506500  1
  H  H39  1  0.92856600  0.95342900  0.40506500  1
  H  H40  1  0.36443300  0.52582300  0.41920900  1
  H  H41  1  0.63556700  0.47417700  0.91920900  1
  H  H42  1  0.13556700  0.52582300  0.91920900  1
  H  H43  1  0.86443300  0.47417700  0.41920900  1
  H  H44  1  0.77227800  0.19919500  0.30260300  1
  H  H45  1  0.22772200  0.80080500  0.80260300  1
  H  H46  1  0.72772200  0.19919500  0.80260300  1
  H  H47  1  0.27227800  0.80080500  0.30260300  1
  C  C0  1  0.97277900  0.20411300  0.72334300  1
  C  C1  1  0.02722100  0.79588700  0.22334300  1
  C  C2  1  0.52722100  0.20411300  0.22334300  1
  C  C3  1  0.47277900  0.79588700  0.72334300  1
  C  C4  1  0.74445500  0.86935500  0.68668200  1
  C  C5  1  0.25554500  0.13064500  0.18668200  1
  C  C6  1  0.75554500  0.86935500  0.18668200  1
  C  C7  1  0.24445500  0.13064500  0.68668200  1
  C  C8  1  0.01317900  0.01653000  0.56503200  1
  C  C9  1  0.98682100  0.98347000  0.06503200  1
  C  C10  1  0.48682100  0.01653000  0.06503200  1
  C  C11  1  0.51317900  0.98347000  0.56503200  1
  C  C12  1  0.65079100  0.34211100  0.66726700  1
  C  C13  1  0.34920900  0.65788900  0.16726700  1
  C  C14  1  0.84920900  0.34211100  0.16726700  1
  C  C15  1  0.15079100  0.65788900  0.66726700  1
  C  C16  1  0.91255900  0.54350900  0.59280500  1
  C  C17  1  0.08744100  0.45649100  0.09280500  1
  C  C18  1  0.58744100  0.54350900  0.09280500  1
  C  C19  1  0.41255900  0.45649100  0.59280500  1
  C  C20  1  0.97739800  0.68204100  0.78222800  1
  C  C21  1  0.02260200  0.31795900  0.28222800  1
  C  C22  1  0.52260200  0.68204100  0.28222800  1
  C  C23  1  0.47739800  0.31795900  0.78222800  1
  C  C24  1  0.74797000  0.98134100  0.53225800  1
  C  C25  1  0.25203000  0.01865900  0.03225800  1
  C  C26  1  0.75203000  0.98134100  0.03225800  1
  C  C27  1  0.24797000  0.01865900  0.53225800  1
  C  C28  1  0.72267200  0.79512900  0.36806900  1
  C  C29  1  0.27732800  0.20487100  0.86806900  1
  C  C30  1  0.77732800  0.79512900  0.86806900  1
  C  C31  1  0.22267200  0.20487100  0.36806900  1
  C  C32  1  0.66729900  0.46374400  0.49826800  1
  C  C33  1  0.33270100  0.53625600  0.99826800  1
  C  C34  1  0.83270100  0.46374400  0.99826800  1
  C  C35  1  0.16729900  0.53625600  0.49826800  1
  C  C36  1  0.49318800  0.12620800  0.40429800  1
  C  C37  1  0.50681200  0.87379200  0.90429800  1
  C  C38  1  0.00681200  0.12620800  0.90429800  1
  C  C39  1  0.99318800  0.87379200  0.40429800  1
  C  C40  1  0.39808200  0.65318000  0.42772000  1
  C  C41  1  0.60191800  0.34682000  0.92772000  1
  C  C42  1  0.10191800  0.65318000  0.92772000  1
  C  C43  1  0.89808200  0.34682000  0.42772000  1
  C  C44  1  0.72659900  0.31358800  0.31028400  1
  C  C45  1  0.27340100  0.68641200  0.81028400  1
  C  C46  1  0.77340100  0.31358800  0.81028400  1
  C  C47  1  0.22659900  0.68641200  0.31028400  1
  O  O0  1  0.00016100  0.04889500  0.71872100  1
  O  O1  1  0.99983900  0.95110500  0.21872100  1
  O  O2  1  0.49983900  0.04889500  0.21872100  1
  O  O3  1  0.50016100  0.95110500  0.71872100  1
  O  O4  1  0.91434900  0.28110700  0.69263200  1
  O  O5  1  0.08565100  0.71889300  0.19263200  1
  O  O6  1  0.58565100  0.28110700  0.19263200  1
  O  O7  1  0.41434900  0.71889300  0.69263200  1
  O  O8  1  0.81872700  0.94843900  0.67060400  1
  O  O9  1  0.18127300  0.05156100  0.17060400  1
  O  O10  1  0.68127300  0.94843900  0.17060400  1
  O  O11  1  0.31872700  0.05156100  0.67060400  1
  O  O12  1  0.74167800  0.71530000  0.70360900  1
  O  O13  1  0.25832200  0.28470000  0.20360900  1
  O  O14  1  0.75832200  0.71530000  0.20360900  1
  O  O15  1  0.24167800  0.28470000  0.70360900  1
  O  O16  1  0.95583100  0.01362200  0.60409800  1
  O  O17  1  0.04416900  0.98637800  0.10409800  1
  O  O18  1  0.54416900  0.01362200  0.10409800  1
  O  O19  1  0.45583100  0.98637800  0.60409800  1
  O  O20  1  0.00477200  0.11068700  0.52532800  1
  O  O21  1  0.99522800  0.88931300  0.02532800  1
  O  O22  1  0.49522800  0.11068700  0.02532800  1
  O  O23  1  0.50477200  0.88931300  0.52532800  1
  O  O24  1  0.74011500  0.34366200  0.66086900  1
  O  O25  1  0.25988500  0.65633800  0.16086900  1
  O  O26  1  0.75988500  0.34366200  0.16086900  1
  O  O27  1  0.24011500  0.65633800  0.66086900  1
  O  O28  1  0.59805000  0.21611700  0.65562500  1
  O  O29  1  0.40195000  0.78388300  0.15562500  1
  O  O30  1  0.90195000  0.21611700  0.15562500  1
  O  O31  1  0.09805000  0.78388300  0.65562500  1
  O  O32  1  0.90257800  0.62089300  0.63712700  1
  O  O33  1  0.09742200  0.37910700  0.13712700  1
  O  O34  1  0.59742200  0.62089300  0.13712700  1
  O  O35  1  0.40257800  0.37910700  0.63712700  1
  O  O36  1  0.88720900  0.39121200  0.58263000  1
  O  O37  1  0.11279100  0.60878800  0.08263000  1
  O  O38  1  0.61279100  0.39121200  0.08263000  1
  O  O39  1  0.38720900  0.60878800  0.58263000  1
  O  O40  1  0.94181400  0.67766300  0.73595700  1
  O  O41  1  0.05818600  0.32233700  0.23595700  1
  O  O42  1  0.55818600  0.67766300  0.23595700  1
  O  O43  1  0.44181400  0.32233700  0.73595700  1
  O  O44  1  0.96930100  0.56361700  0.81566400  1
  O  O45  1  0.03069900  0.43638300  0.31566400  1
  O  O46  1  0.53069900  0.56361700  0.31566400  1
  O  O47  1  0.46930100  0.43638300  0.81566400  1
  O  O48  1  0.76247900  0.11283300  0.56017900  1
  O  O49  1  0.23752100  0.88716700  0.06017900  1
  O  O50  1  0.73752100  0.11283300  0.06017900  1
  O  O51  1  0.26247900  0.88716700  0.56017900  1
  O  O52  1  0.70412200  0.98336600  0.48829000  1
  O  O53  1  0.29587800  0.01663400  0.98829000  1
  O  O54  1  0.79587800  0.98336600  0.98829000  1
  O  O55  1  0.20412200  0.01663400  0.48829000  1
  O  O56  1  0.66178300  0.71600800  0.39667200  1
  O  O57  1  0.33821700  0.28399200  0.89667200  1
  O  O58  1  0.83821700  0.71600800  0.89667200  1
  O  O59  1  0.16178300  0.28399200  0.39667200  1
  O  O60  1  0.74925000  0.94997000  0.37425200  1
  O  O61  1  0.25075000  0.05003000  0.87425200  1
  O  O62  1  0.75075000  0.94997000  0.87425200  1
  O  O63  1  0.24925000  0.05003000  0.37425200  1
  O  O64  1  0.65076300  0.38381400  0.45478600  1
  O  O65  1  0.34923700  0.61618600  0.95478600  1
  O  O66  1  0.84923700  0.38381400  0.95478600  1
  O  O67  1  0.15076300  0.61618600  0.45478600  1
  O  O68  1  0.64486300  0.61873900  0.50798000  1
  O  O69  1  0.35513700  0.38126100  0.00798000  1
  O  O70  1  0.85513700  0.61873900  0.00798000  1
  O  O71  1  0.14486300  0.38126100  0.50798000  1
  O  O72  1  0.56889900  0.05007000  0.41963100  1
  O  O73  1  0.43110100  0.94993000  0.91963100  1
  O  O74  1  0.93110100  0.05007000  0.91963100  1
  O  O75  1  0.06889900  0.94993000  0.41963100  1
  O  O76  1  0.48806400  0.28177700  0.38888700  1
  O  O77  1  0.51193600  0.71822300  0.88888700  1
  O  O78  1  0.01193600  0.28177700  0.88888700  1
  O  O79  1  0.98806400  0.71822300  0.38888700  1
  O  O80  1  0.48810700  0.65228400  0.43013800  1
  O  O81  1  0.51189300  0.34771600  0.93013800  1
  O  O82  1  0.01189300  0.65228400  0.93013800  1
  O  O83  1  0.98810700  0.34771600  0.43013800  1
  O  O84  1  0.34757800  0.78580400  0.43371500  1
  O  O85  1  0.65242200  0.21419600  0.93371500  1
  O  O86  1  0.15242200  0.78580400  0.93371500  1
  O  O87  1  0.84757800  0.21419600  0.43371500  1
  O  O88  1  0.68857300  0.31956500  0.35589700  1
  O  O89  1  0.31142700  0.68043500  0.85589700  1
  O  O90  1  0.81142700  0.31956500  0.85589700  1
  O  O91  1  0.18857300  0.68043500  0.35589700  1
  O  O92  1  0.71647900  0.42639500  0.27515600  1
  O  O93  1  0.28352100  0.57360500  0.77515600  1
  O  O94  1  0.78352100  0.42639500  0.77515600  1
  O  O95  1  0.21647900  0.57360500  0.27515600  1
loop_
_geom_bond_atom_site_label_1
_geom_bond_atom_site_label_2
_geom_bond_distance
_geom_bond_site_symmetry_2
Mg0 O0 2.059372 1_665
Mg0 O31 2.064722 1_655
Mg0 O32 2.091491 1_555
Mg0 O16 2.109896 1_565
Mg0 O40 2.135534 1_555
Mg0 O8 2.148732 1_555
Mg1 O1 2.059372 1_445
Mg1 O30 2.064722 1_455
Mg1 O33 2.091491 1_555
Mg1 O17 2.109896 1_545
Mg1 O41 2.135534 1_555
Mg1 O9 2.148732 1_555
Mg2 O2 2.059372 1_565
Mg2 O29 2.064722 1_555
Mg2 O34 2.091491 1_555
Mg2 O18 2.109896 1_565
Mg2 O42 2.135534 1_555
Mg2 O10 2.148732 1_555
Mg3 O3 2.059372 1_545
Mg3 O28 2.064722 1_555
Mg3 O35 2.091491 1_555
Mg3 O19 2.109896 1_545
Mg3 O43 2.135534 1_555
Mg3 O11 2.148732 1_555
Mg4 O48 2.044935 1_555
Mg4 O36 2.069153 1_555
Mg4 O16 2.123429 1_555
Mg4 O8 2.125473 1_545
Mg4 O24 2.131745 1_555
Mg4 O4 2.174790 1_555
Mg5 O49 2.044935 1_555
Mg5 O37 2.069153 1_555
Mg5 O17 2.123429 1_555
Mg5 O9 2.125473 1_565
Mg5 O25 2.131745 1_555
Mg5 O5 2.174790 1_555
Mg6 O50 2.044935 1_555
Mg6 O38 2.069153 1_555
Mg6 O18 2.123429 1_555
Mg6 O10 2.125473 1_545
Mg6 O26 2.131745 1_555
Mg6 O6 2.174790 1_555
Mg7 O51 2.044935 1_555
Mg7 O39 2.069153 1_555
Mg7 O19 2.123429 1_555
Mg7 O11 2.125473 1_565
Mg7 O27 2.131745 1_555
Mg7 O7 2.174790 1_555
Mg8 O94 2.034756 1_555
Mg8 O12 2.059177 1_555
Mg8 O4 2.106338 1_555
Mg8 O40 2.147499 1_555
Mg8 O32 2.153361 1_555
Mg8 O24 2.163012 1_555
Mg9 O95 2.034756 1_555
Mg9 O13 2.059177 1_555
Mg9 O5 2.106338 1_555
Mg9 O41 2.147499 1_555
Mg9 O33 2.153361 1_555
Mg9 O25 2.163012 1_555
Mg10 O92 2.034756 1_555
Mg10 O14 2.059177 1_555
Mg10 O6 2.106338 1_555
Mg10 O42 2.147499 1_555
Mg10 O34 2.153361 1_555
Mg10 O26 2.163012 1_555
Mg11 O93 2.034756 1_555
Mg11 O15 2.059177 1_555
Mg11 O7 2.106338 1_555
Mg11 O43 2.147499 1_555
Mg11 O35 2.153361 1_555
Mg11 O27 2.163012 1_555
Mg12 O46 2.038758 1_555
Mg12 O76 2.057593 1_555
Mg12 O56 2.108845 1_555
Mg12 O80 2.138241 1_555
Mg12 O64 2.142098 1_555
Mg12 O88 2.144863 1_555
Mg13 O47 2.038758 1_555
Mg13 O77 2.057593 1_555
Mg13 O57 2.108845 1_555
Mg13 O81 2.138241 1_555
Mg13 O65 2.142098 1_555
Mg13 O89 2.144863 1_555
Mg14 O44 2.038758 1_555
Mg14 O78 2.057593 1_655
Mg14 O58 2.108845 1_555
Mg14 O82 2.138241 1_655
Mg14 O66 2.142098 1_555
Mg14 O90 2.144863 1_555
Mg15 O45 2.038758 1_555
Mg15 O79 2.057593 1_455
Mg15 O59 2.108845 1_555
Mg15 O83 2.138241 1_455
Mg15 O67 2.142098 1_555
Mg15 O91 2.144863 1_555
Mg16 O23 2.045453 1_555
Mg16 O68 2.074184 1_555
Mg16 O72 2.100573 1_565
Mg16 O80 2.114789 1_555
Mg16 O52 2.147545 1_555
Mg16 O56 2.150768 1_555
Mg17 O22 2.045453 1_556
Mg17 O69 2.074184 1_556
Mg17 O73 2.100573 1_545
Mg17 O81 2.114789 1_555
Mg17 O53 2.147545 1_555
Mg17 O57 2.150768 1_555
Mg18 O21 2.045453 1_556
Mg18 O70 2.074184 1_556
Mg18 O74 2.100573 1_565
Mg18 O82 2.114789 1_655
Mg18 O54 2.147545 1_555
Mg18 O58 2.150768 1_555
Mg19 O20 2.045453 1_555
Mg19 O71 2.074184 1_555
Mg19 O75 2.100573 1_545
Mg19 O83 2.114789 1_455
Mg19 O55 2.147545 1_555
Mg19 O59 2.150768 1_555
Mg20 O87 2.055955 1_555
Mg20 O60 2.080445 1_545
Mg20 O64 2.099407 1_555
Mg20 O52 2.121231 1_545
Mg20 O72 2.139251 1_555
Mg20 O88 2.139798 1_555
Mg21 O86 2.055955 1_555
Mg21 O61 2.080445 1_565
Mg21 O65 2.099407 1_555
Mg21 O53 2.121231 1_565
Mg21 O73 2.139251 1_555
Mg21 O89 2.139798 1_555
Mg22 O85 2.055955 1_555
Mg22 O62 2.080445 1_545
Mg22 O66 2.099407 1_555
Mg22 O54 2.121231 1_545
Mg22 O74 2.139251 1_555
Mg22 O90 2.139798 1_555
Mg23 O84 2.055955 1_555
Mg23 O63 2.080445 1_565
Mg23 O67 2.099407 1_555
Mg23 O55 2.121231 1_565
Mg23 O75 2.139251 1_555
Mg23 O91 2.139798 1_555
C0 H0 1.105024 1_655
C0 O0 1.256094 1_655
C0 O4 1.284973 1_555
C1 H1 1.105024 1_455
C1 O1 1.256094 1_455
C1 O5 1.284973 1_555
C2 H2 1.105024 1_555
C2 O2 1.256094 1_555
C2 O6 1.284973 1_555
C3 H3 1.105024 1_555
C3 O3 1.256094 1_555
C3 O7 1.284973 1_555
C4 H4 1.104272 1_555
C4 O12 1.256278 1_555
C4 O8 1.285455 1_555
C5 H5 1.104272 1_555
C5 O13 1.256278 1_555
C5 O9 1.285455 1_555
C6 H6 1.104272 1_555
C6 O14 1.256278 1_555
C6 O10 1.285455 1_555
C7 H7 1.104272 1_555
C7 O15 1.256278 1_555
C7 O11 1.285455 1_555
C8 H8 1.107428 1_545
C8 O20 1.247494 1_555
C8 O16 1.287219 1_455
C9 H9 1.107428 1_565
C9 O21 1.247494 1_555
C9 O17 1.287219 1_655
C10 H10 1.107428 1_545
C10 O22 1.247494 1_555
C10 O18 1.287219 1_555
C11 H11 1.107428 1_565
C11 O23 1.247494 1_555
C11 O19 1.287219 1_555
C12 H12 1.105259 1_555
C12 O28 1.257806 1_555
C12 O24 1.282214 1_555
C13 H13 1.105259 1_555
C13 O29 1.257806 1_555
C13 O25 1.282214 1_555
C14 H14 1.105259 1_555
C14 O30 1.257806 1_555
C14 O26 1.282214 1_555
C15 H15 1.105259 1_555
C15 O31 1.257806 1_555
C15 O27 1.282214 1_555
C16 H16 1.109349 1_555
C16 O36 1.247677 1_555
C16 O32 1.282630 1_555
C17 H17 1.109349 1_555
C17 O37 1.247677 1_555
C17 O33 1.282630 1_555
C18 H18 1.109349 1_555
C18 O38 1.247677 1_555
C18 O34 1.282630 1_555
C19 H19 1.109349 1_555
C19 O39 1.247677 1_555
C19 O35 1.282630 1_555
C20 H20 1.109572 1_655
C20 O44 1.249084 1_555
C20 O40 1.283089 1_555
C21 H21 1.109572 1_455
C21 O45 1.249084 1_555
C21 O41 1.283089 1_555
C22 H22 1.109572 1_555
C22 O46 1.249084 1_555
C22 O42 1.283089 1_555
C23 H23 1.109572 1_555
C23 O47 1.249084 1_555
C23 O43 1.283089 1_555
C24 H24 1.109522 1_555
C24 O48 1.249614 1_565
C24 O52 1.282076 1_555
C25 H25 1.109522 1_555
C25 O49 1.249614 1_545
C25 O53 1.282076 1_554
C26 H26 1.109522 1_555
C26 O50 1.249614 1_565
C26 O54 1.282076 1_554
C27 H27 1.109522 1_555
C27 O51 1.249614 1_545
C27 O55 1.282076 1_555
C28 H28 1.106651 1_555
C28 O60 1.254219 1_555
C28 O56 1.284135 1_555
C29 H29 1.106651 1_555
C29 O61 1.254219 1_555
C29 O57 1.284135 1_555
C30 H30 1.106651 1_555
C30 O62 1.254219 1_555
C30 O58 1.284135 1_555
C31 H31 1.106651 1_555
C31 O63 1.254219 1_555
C31 O59 1.284135 1_555
C32 H32 1.105401 1_555
C32 O68 1.253430 1_555
C32 O64 1.286862 1_555
C33 H33 1.105401 1_556
C33 O69 1.253430 1_556
C33 O65 1.286862 1_555
C34 H34 1.105401 1_556
C34 O70 1.253430 1_556
C34 O66 1.286862 1_555
C35 H35 1.105401 1_555
C35 O71 1.253430 1_555
C35 O67 1.286862 1_555
C36 H36 1.103890 1_555
C36 O76 1.256054 1_555
C36 O72 1.286145 1_555
C37 H37 1.103890 1_555
C37 O77 1.256054 1_555
C37 O73 1.286145 1_555
C38 H38 1.103890 1_555
C38 O78 1.256054 1_555
C38 O74 1.286145 1_455
C39 H39 1.103890 1_555
C39 O79 1.256054 1_555
C39 O75 1.286145 1_655
C40 H40 1.107722 1_555
C40 O84 1.253456 1_555
C40 O80 1.283242 1_555
C41 H41 1.107722 1_555
C41 O85 1.253456 1_555
C41 O81 1.283242 1_555
C42 H42 1.107722 1_555
C42 O86 1.253456 1_555
C42 O82 1.283242 1_555
C43 H43 1.107722 1_555
C43 O87 1.253456 1_555
C43 O83 1.283242 1_555
C44 H44 1.108203 1_555
C44 O92 1.251719 1_555
C44 O88 1.282387 1_555
C45 H45 1.108203 1_555
C45 O93 1.251719 1_555
C45 O89 1.282387 1_555
C46 H46 1.108203 1_555
C46 O94 1.251719 1_555
C46 O90 1.282387 1_555
C47 H47 1.108203 1_555
C47 O95 1.251719 1_555
C47 O91 1.282387 1_555
