# generated using pymatgen
data_TbSi2
_symmetry_space_group_name_H-M   'P 1'
_cell_length_a   4.06306607
_cell_length_b   4.06306414
_cell_length_c   4.00257683
_cell_angle_alpha   90.00000000
_cell_angle_beta   90.00000000
_cell_angle_gamma   119.99998373
_symmetry_Int_Tables_number   1
_chemical_formula_structural   TbSi2
_chemical_formula_sum   'Tb1 Si2'
_cell_volume   57.22396443
_cell_formula_units_Z   1
loop_
 _symmetry_equiv_pos_site_id
 _symmetry_equiv_pos_as_xyz
  1  'x, y, z'
loop_
 _atom_site_type_symbol
 _atom_site_label
 _atom_site_symmetry_multiplicity
 _atom_site_fract_x
 _atom_site_fract_y
 _atom_site_fract_z
 _atom_site_occupancy
  Tb  Tb0  1  -0.00000000  -0.00000000  0.00000000  1
  Si  Si0  1  0.33333300  0.66666700  0.50000000  1
  Si  Si1  1  0.66666700  0.33333300  0.50000000  1
loop_
_geom_bond_atom_site_label_1
_geom_bond_atom_site_label_2
_geom_bond_distance
_geom_bond_site_symmetry_2
Si0 Si1 2.345809 1_565
Si0 Si1 2.345810 1_455
Si0 Si1 2.345816 1_555
Si0 Tb0 3.083501 1_565
Si0 Tb0 3.083501 1_566
Si0 Tb0 3.083503 1_555
Si0 Tb0 3.083503 1_556
Si0 Tb0 3.083504 1_665
Si0 Tb0 3.083504 1_666
Si1 Tb0 3.083501 1_656
Si1 Tb0 3.083501 1_655
Si1 Tb0 3.083503 1_665
Si1 Tb0 3.083503 1_666
Si1 Tb0 3.083504 1_555
Si1 Tb0 3.083504 1_556
