# generated using pymatgen
data_Li4MnCo2O7
_symmetry_space_group_name_H-M   'P 1'
_cell_length_a   3.01246000
_cell_length_b   7.74270366
_cell_length_c   11.11638026
_cell_angle_alpha   79.80317940
_cell_angle_beta   83.32609934
_cell_angle_gamma   84.02054284
_symmetry_Int_Tables_number   1
_chemical_formula_structural   Li4MnCo2O7
_chemical_formula_sum   'Li8 Mn2 Co4 O14'
_cell_volume   252.53188155
_cell_formula_units_Z   2
loop_
 _symmetry_equiv_pos_site_id
 _symmetry_equiv_pos_as_xyz
  1  'x, y, z'
loop_
 _atom_site_type_symbol
 _atom_site_label
 _atom_site_symmetry_multiplicity
 _atom_site_fract_x
 _atom_site_fract_y
 _atom_site_fract_z
 _atom_site_occupancy
  Li  Li0  1  0.50000000  0.00000000  0.00000000  1
  Li  Li1  1  0.63890000  0.43255200  0.29137300  1
  Li  Li2  1  0.78998800  0.85820200  0.57022800  1
  Li  Li3  1  0.92951500  0.28566700  0.85413900  1
  Li  Li4  1  0.07048500  0.71433300  0.14586100  1
  Li  Li5  1  0.21001200  0.14179800  0.42977200  1
  Li  Li6  1  0.36110000  0.56744800  0.70862700  1
  Li  Li7  1  0.00000000  0.50000000  0.50000000  1
  Mn  Mn0  1  0.71379200  0.64641600  0.92637400  1
  Mn  Mn1  1  0.28620800  0.35358400  0.07362600  1
  Co  Co0  1  0.85720200  0.06693500  0.21776000  1
  Co  Co1  1  0.14279800  0.93306500  0.78224000  1
  Co  Co2  1  0.43280100  0.77343000  0.36314700  1
  Co  Co3  1  0.56719900  0.22657000  0.63685300  1
  O  O0  1  0.08737200  0.82631800  0.95332600  1
  O  O1  1  0.22646500  0.24217700  0.24538500  1
  O  O2  1  0.38983700  0.69410000  0.51948800  1
  O  O3  1  0.51795100  0.10577600  0.80525800  1
  O  O4  1  0.65613900  0.53470300  0.09985300  1
  O  O5  1  0.81320700  0.95668400  0.38245200  1
  O  O6  1  0.94977000  0.37879500  0.67549200  1
  O  O7  1  0.91262800  0.17368200  0.04667400  1
  O  O8  1  0.05023000  0.62120500  0.32450800  1
  O  O9  1  0.18679300  0.04331600  0.61754800  1
  O  O10  1  0.34386100  0.46529700  0.90014700  1
  O  O11  1  0.48204900  0.89422400  0.19474200  1
  O  O12  1  0.61016300  0.30590000  0.48051200  1
  O  O13  1  0.77353500  0.75782300  0.75461500  1
loop_
_geom_bond_atom_site_label_1
_geom_bond_atom_site_label_2
_geom_bond_distance
_geom_bond_site_symmetry_2
Li0 O7 2.089958 1_555
Li0 O0 2.089958 1_544
Li0 O11 2.171272 1_545
Li0 O3 2.171272 1_554
Li0 O0 2.178623 1_644
Li0 O7 2.178623 1_455
Li1 O8 2.116213 1_655
Li1 O4 2.132510 1_555
Li1 O12 2.152947 1_555
Li1 O1 2.184887 1_555
Li1 O8 2.216534 1_555
Li1 O1 2.253870 1_655
Li2 O2 2.028922 1_555
Li2 O13 2.056263 1_555
Li2 O5 2.087378 1_555
Li2 O9 2.128365 1_665
Li2 O2 2.176318 1_655
Li2 O9 2.266057 1_565
Li3 O6 1.985317 1_555
Li3 O10 2.125062 1_655
Li3 O3 2.134659 1_555
Li3 O7 2.159183 1_556
Li3 O10 2.199878 1_555
Li3 O3 2.215221 1_655
Li4 O8 1.985317 1_555
Li4 O4 2.125062 1_455
Li4 O11 2.134659 1_555
Li4 O0 2.159183 1_554
Li4 O4 2.199878 1_555
Li4 O11 2.215221 1_455
Li5 O12 2.028922 1_555
Li5 O1 2.056263 1_555
Li5 O9 2.087378 1_555
Li5 O5 2.128365 1_445
Li5 O12 2.176318 1_455
Li5 O5 2.266057 1_545
Li6 O6 2.116213 1_455
Li6 O10 2.132510 1_555
Li6 O2 2.152947 1_555
Li6 O13 2.184887 1_555
Li6 O6 2.216534 1_555
Li6 O13 2.253870 1_455
Li7 O6 2.005523 1_455
Li7 O8 2.005523 1_555
Li7 O12 2.055911 1_455
Li7 O2 2.055911 1_555
Li7 O12 2.265234 1_555
Li7 O2 2.265234 1_455
Mn0 O13 1.947144 1_555
Mn0 O10 1.959427 1_555
Mn0 O0 1.961953 1_655
Mn0 O4 1.964722 1_556
Mn0 O0 2.249385 1_555
Mn0 O10 2.261811 1_655
Mn1 O1 1.947144 1_555
Mn1 O4 1.959427 1_555
Mn1 O7 1.961953 1_455
Mn1 O10 1.964722 1_554
Mn1 O7 2.249385 1_555
Mn1 O4 2.261811 1_455
Co0 O5 1.873995 1_545
Co0 O11 1.906342 1_545
Co0 O1 1.927211 1_655
Co0 O7 1.930402 1_555
Co0 O11 2.209441 1_645
Co0 O1 2.240619 1_555
Co1 O9 1.873995 1_565
Co1 O3 1.906342 1_565
Co1 O13 1.927211 1_455
Co1 O0 1.930402 1_555
Co1 O3 2.209441 1_465
Co1 O13 2.240619 1_555
Co2 O2 1.732283 1_555
Co2 O8 1.865258 1_555
Co2 O11 1.935398 1_555
Co2 O5 1.968815 1_555
Co2 O8 2.137757 1_655
Co2 O5 2.237420 1_455
Co3 O12 1.732283 1_555
Co3 O6 1.865258 1_555
Co3 O3 1.935398 1_555
Co3 O9 1.968815 1_555
Co3 O6 2.137757 1_455
Co3 O9 2.237420 1_655
