# generated using pymatgen
data_LaNd3Mn4O12
_symmetry_space_group_name_H-M   'P 1'
_cell_length_a   7.72464200
_cell_length_b   5.52679400
_cell_length_c   5.86509324
_cell_angle_alpha   89.98368586
_cell_angle_beta   90.00000000
_cell_angle_gamma   90.00000000
_symmetry_Int_Tables_number   1
_chemical_formula_structural   LaNd3Mn4O12
_chemical_formula_sum   'La1 Nd3 Mn4 O12'
_cell_volume   250.39551257
_cell_formula_units_Z   1
loop_
 _symmetry_equiv_pos_site_id
 _symmetry_equiv_pos_as_xyz
  1  'x, y, z'
loop_
 _atom_site_type_symbol
 _atom_site_label
 _atom_site_symmetry_multiplicity
 _atom_site_fract_x
 _atom_site_fract_y
 _atom_site_fract_z
 _atom_site_occupancy
  La  La0  1  0.50000000  0.48784700  0.55874800  1
  Nd  Nd0  1  0.50000000  0.01472200  0.06563700  1
  Nd  Nd1  1  0.00000000  0.51559100  0.43249200  1
  Nd  Nd2  1  0.00000000  0.98536500  0.93490500  1
  Mn  Mn0  1  0.24864000  0.00069800  0.50051700  1
  Mn  Mn1  1  0.75062200  0.49939800  0.99903000  1
  Mn  Mn2  1  0.75136000  0.00069800  0.50051700  1
  Mn  Mn3  1  0.24937800  0.49939800  0.99903000  1
  O  O0  1  0.50000000  0.59588400  0.97820500  1
  O  O1  1  0.50000000  0.91184600  0.47438100  1
  O  O2  1  0.00000000  0.40340900  0.02570300  1
  O  O3  1  0.00000000  0.09792900  0.52789700  1
  O  O4  1  0.29697800  0.21335300  0.81391700  1
  O  O5  1  0.70461800  0.28150900  0.30860800  1
  O  O6  1  0.79907300  0.78183800  0.18994400  1
  O  O7  1  0.19998200  0.71690900  0.68900000  1
  O  O8  1  0.20092700  0.78183800  0.18994400  1
  O  O9  1  0.80001800  0.71690900  0.68900000  1
  O  O10  1  0.70302200  0.21335300  0.81391700  1
  O  O11  1  0.29538200  0.28150900  0.30860800  1
loop_
_geom_bond_atom_site_label_1
_geom_bond_atom_site_label_2
_geom_bond_distance
_geom_bond_site_symmetry_2
La0 O1 2.394890 1_555
La0 O5 2.439693 1_555
La0 O11 2.439693 1_555
La0 O0 2.531743 1_555
La0 O10 2.645652 1_555
La0 O4 2.645652 1_555
La0 O9 2.749147 1_555
La0 O7 2.749147 1_555
Nd0 O0 2.371093 1_544
Nd0 O4 2.417301 1_554
Nd0 O10 2.417301 1_554
Nd0 O1 2.463666 1_545
Nd0 O5 2.589274 1_555
Nd0 O11 2.589274 1_555
Nd0 O6 2.743140 1_545
Nd0 O8 2.743140 1_545
Nd1 O3 2.375030 1_555
Nd1 O9 2.426654 1_455
Nd1 O7 2.426654 1_555
Nd1 O2 2.465270 1_555
Nd1 O8 2.568419 1_555
Nd1 O6 2.568419 1_455
Nd1 O11 2.721844 1_555
Nd1 O5 2.721844 1_455
Nd2 O2 2.371170 1_566
Nd2 O6 2.431217 1_456
Nd2 O8 2.431217 1_556
Nd2 O3 2.466703 1_565
Nd2 O7 2.582453 1_555
Nd2 O9 2.582453 1_455
Nd2 O10 2.711715 1_465
Nd2 O4 2.711715 1_565
Mn0 O11 1.950621 1_555
Mn0 O7 1.955087 1_545
Mn0 O3 2.000881 1_555
Mn0 O1 2.008670 1_545
Mn0 O4 2.213746 1_555
Mn0 O8 2.217706 1_545
Mn1 O10 1.953001 1_555
Mn1 O6 1.957433 1_556
Mn1 O2 2.004174 1_656
Mn1 O0 2.011767 1_555
Mn1 O5 2.207257 1_556
Mn1 O9 2.212668 1_555
Mn2 O5 1.950621 1_555
Mn2 O9 1.955087 1_545
Mn2 O3 2.000881 1_655
Mn2 O1 2.008670 1_545
Mn2 O10 2.213746 1_555
Mn2 O6 2.217706 1_545
Mn3 O4 1.953001 1_555
Mn3 O8 1.957433 1_556
Mn3 O2 2.004174 1_556
Mn3 O0 2.011767 1_555
Mn3 O11 2.207257 1_556
Mn3 O7 2.212668 1_555
