# generated using pymatgen
data_RbMg14B
_symmetry_space_group_name_H-M   'P 1'
_cell_length_a   6.39223998
_cell_length_b   6.39223946
_cell_length_c   10.68798965
_cell_angle_alpha   90.00000000
_cell_angle_beta   90.00000000
_cell_angle_gamma   120.00000269
_symmetry_Int_Tables_number   1
_chemical_formula_structural   RbMg14B
_chemical_formula_sum   'Rb1 Mg14 B1'
_cell_volume   378.20977688
_cell_formula_units_Z   1
loop_
 _symmetry_equiv_pos_site_id
 _symmetry_equiv_pos_as_xyz
  1  'x, y, z'
loop_
 _atom_site_type_symbol
 _atom_site_label
 _atom_site_symmetry_multiplicity
 _atom_site_fract_x
 _atom_site_fract_y
 _atom_site_fract_z
 _atom_site_occupancy
  Rb  Rb0  1  0.16666700  0.33333300  0.12500000  1
  Mg  Mg0  1  0.17440164  0.83720032  0.12500000  1
  Mg  Mg1  1  0.15608519  0.82804210  0.62500000  1
  Mg  Mg2  1  0.66279968  0.32559836  0.12500000  1
  Mg  Mg3  1  0.67195790  0.34391481  0.62500000  1
  Mg  Mg4  1  0.66279968  0.83720032  0.12500000  1
  Mg  Mg5  1  0.67195790  0.82804210  0.62500000  1
  Mg  Mg6  1  0.33005973  0.16994027  0.40570578  1
  Mg  Mg7  1  0.33005973  0.16994027  0.84429422  1
  Mg  Mg8  1  0.33005973  0.66012046  0.40570578  1
  Mg  Mg9  1  0.33005973  0.66012046  0.84429422  1
  Mg  Mg10  1  0.83987954  0.16994027  0.40570578  1
  Mg  Mg11  1  0.83987954  0.16994027  0.84429422  1
  Mg  Mg12  1  0.83333300  0.66666700  0.36575796  1
  Mg  Mg13  1  0.83333300  0.66666700  0.88424204  1
  B  B0  1  0.16666700  0.33333300  0.62500000  1
loop_
_geom_bond_atom_site_label_1
_geom_bond_atom_site_label_2
_geom_bond_distance
_geom_bond_site_symmetry_2
Mg0 Mg12 3.191611 1_455
Mg0 Mg13 3.191611 1_454
Mg0 Rb0 3.196407 1_555
Mg0 Rb0 3.196407 1_565
Mg1 Mg8 3.012655 1_555
Mg1 Mg9 3.012655 1_555
Mg1 Mg7 3.012662 1_565
Mg1 Mg6 3.012662 1_565
Mg1 Mg3 3.094658 1_455
Mg1 Mg5 3.094658 1_455
Mg1 Mg13 3.296895 1_455
Mg1 Mg12 3.296895 1_455
Mg1 Mg3 3.297582 1_565
Mg1 Mg5 3.297582 1_555
Mg2 Rb0 3.196407 1_655
Mg2 Rb0 3.196407 1_555
Mg3 Mg6 3.012662 1_555
Mg3 Mg7 3.012662 1_555
Mg3 Mg5 3.094658 1_555
Mg3 Mg5 3.297582 1_545
Mg4 Rb0 3.196407 1_555
Mg4 Rb0 3.196407 1_665
Mg5 Mg8 3.012662 1_555
Mg5 Mg9 3.012662 1_555
Mg6 Rb0 3.503382 1_555
Mg7 Rb0 3.503382 1_556
Mg8 Rb0 3.503387 1_555
Mg9 Rb0 3.503387 1_556
Mg10 Mg3 3.012655 1_555
Mg10 Mg5 3.012662 1_545
Mg10 Mg12 3.224716 1_545
Mg10 Mg12 3.224716 1_555
Mg10 Rb0 3.503387 1_655
Mg11 Mg3 3.012655 1_555
Mg11 Mg5 3.012662 1_545
Mg11 Mg13 3.224716 1_545
Mg11 Mg13 3.224716 1_555
Mg11 Rb0 3.503387 1_656
Mg12 Mg4 3.191605 1_555
Mg12 Mg2 3.191611 1_555
Mg12 Mg6 3.224716 1_665
Mg12 Mg6 3.224716 1_555
Mg12 Mg8 3.224716 1_655
Mg12 Mg8 3.224716 1_555
Mg12 Mg5 3.296889 1_555
Mg12 Mg3 3.296895 1_555
Mg13 Mg4 3.191605 1_556
Mg13 Mg2 3.191611 1_556
Mg13 Mg7 3.224716 1_665
Mg13 Mg7 3.224716 1_555
Mg13 Mg9 3.224716 1_655
Mg13 Mg9 3.224716 1_555
Mg13 Mg5 3.296889 1_555
Mg13 Mg3 3.296895 1_555
B0 Mg6 2.960754 1_555
B0 Mg7 2.960754 1_555
B0 Mg8 2.960761 1_555
B0 Mg9 2.960761 1_555
B0 Mg10 2.960761 1_455
B0 Mg11 2.960761 1_455
