# generated using pymatgen
data_Ca3LaSi8
_symmetry_space_group_name_H-M   'P 1'
_cell_length_a   4.31369400
_cell_length_b   4.31369400
_cell_length_c   13.50640300
_cell_angle_alpha   90.00000000
_cell_angle_beta   90.00000000
_cell_angle_gamma   90.00000000
_symmetry_Int_Tables_number   1
_chemical_formula_structural   Ca3LaSi8
_chemical_formula_sum   'Ca3 La1 Si8'
_cell_volume   251.32655174
_cell_formula_units_Z   1
loop_
 _symmetry_equiv_pos_site_id
 _symmetry_equiv_pos_as_xyz
  1  'x, y, z'
loop_
 _atom_site_type_symbol
 _atom_site_label
 _atom_site_symmetry_multiplicity
 _atom_site_fract_x
 _atom_site_fract_y
 _atom_site_fract_z
 _atom_site_occupancy
  Ca  Ca0  1  0.00000000  0.00000000  0.50000000  1
  Ca  Ca1  1  0.50000000  0.00000000  0.74906300  1
  Ca  Ca2  1  0.00000000  0.50000000  0.25093700  1
  La  La0  1  0.50000000  0.50000000  0.00000000  1
  Si  Si0  1  0.00000000  0.00000000  0.91481400  1
  Si  Si1  1  0.50000000  0.50000000  0.41510000  1
  Si  Si2  1  0.00000000  0.50000000  0.83532000  1
  Si  Si3  1  0.50000000  0.00000000  0.33508900  1
  Si  Si4  1  0.00000000  0.00000000  0.08518600  1
  Si  Si5  1  0.50000000  0.50000000  0.58490000  1
  Si  Si6  1  0.50000000  0.00000000  0.16468000  1
  Si  Si7  1  0.00000000  0.50000000  0.66491100  1
loop_
_geom_bond_atom_site_label_1
_geom_bond_atom_site_label_2
_geom_bond_distance
_geom_bond_site_symmetry_2
Ca0 Si3 3.100499 1_455
Ca0 Si3 3.100499 1_555
Ca0 Si7 3.100499 1_555
Ca0 Si7 3.100499 1_545
Ca0 Si1 3.258663 1_445
Ca0 Si1 3.258663 1_455
Ca0 Si5 3.258663 1_545
Ca0 Si1 3.258663 1_545
Ca0 Si1 3.258663 1_555
Ca0 Si5 3.258663 1_445
Ca0 Si5 3.258663 1_555
Ca0 Si5 3.258663 1_455
Ca1 Si5 3.093250 1_545
Ca1 Si5 3.093250 1_555
Ca1 Si0 3.108660 1_655
Ca1 Si0 3.108660 1_555
Ca1 Si7 3.255122 1_555
Ca1 Si7 3.255122 1_655
Ca1 Si7 3.255122 1_645
Ca1 Si7 3.255122 1_545
Ca1 Si2 3.265158 1_555
Ca1 Si2 3.265158 1_545
Ca1 Si2 3.265158 1_655
Ca1 Si2 3.265158 1_645
Ca2 Si1 3.093250 1_455
Ca2 Si1 3.093250 1_555
Ca2 Si4 3.108660 1_555
Ca2 Si4 3.108660 1_565
Ca2 Si3 3.255122 1_565
Ca2 Si3 3.255122 1_455
Ca2 Si3 3.255122 1_465
Ca2 Si3 3.255122 1_555
Ca2 Si6 3.265158 1_455
Ca2 Si6 3.265158 1_465
Ca2 Si6 3.265158 1_555
Ca2 Si6 3.265158 1_565
La0 Si2 3.098259 1_654
La0 Si2 3.098259 1_554
La0 Si6 3.098259 1_555
La0 Si6 3.098259 1_565
La0 Si0 3.260024 1_654
La0 Si0 3.260024 1_564
La0 Si0 3.260024 1_664
La0 Si4 3.260024 1_555
La0 Si4 3.260024 1_565
La0 Si4 3.260024 1_655
La0 Si0 3.260024 1_554
La0 Si4 3.260024 1_665
Si0 Si4 2.301113 1_556
Si0 Si2 2.409310 1_545
Si0 Si2 2.409310 1_555
Si1 Si5 2.293387 1_555
Si1 Si3 2.412430 1_565
Si1 Si3 2.412430 1_555
Si2 Si7 2.301613 1_555
Si3 Si6 2.301613 1_555
Si4 Si6 2.409310 1_455
Si4 Si6 2.409310 1_555
Si5 Si7 2.412430 1_655
Si5 Si7 2.412430 1_555
