# generated using pymatgen
data_Mg4Si3
_symmetry_space_group_name_H-M   'P 1'
_cell_length_a   5.84006400
_cell_length_b   6.40386022
_cell_length_c   8.43275711
_cell_angle_alpha   103.82901526
_cell_angle_beta   108.95675947
_cell_angle_gamma   102.26160805
_symmetry_Int_Tables_number   1
_chemical_formula_structural   Mg4Si3
_chemical_formula_sum   'Mg8 Si6'
_cell_volume   274.80331221
_cell_formula_units_Z   2
loop_
 _symmetry_equiv_pos_site_id
 _symmetry_equiv_pos_as_xyz
  1  'x, y, z'
loop_
 _atom_site_type_symbol
 _atom_site_label
 _atom_site_symmetry_multiplicity
 _atom_site_fract_x
 _atom_site_fract_y
 _atom_site_fract_z
 _atom_site_occupancy
  Mg  Mg0  1  0.40958600  0.10914600  0.13374200  1
  Mg  Mg1  1  0.31917500  0.89968200  0.40577300  1
  Mg  Mg2  1  0.86521600  0.98609000  0.45209500  1
  Mg  Mg3  1  0.20419700  0.72541300  0.73437200  1
  Mg  Mg4  1  0.52375900  0.58932100  0.05626100  1
  Mg  Mg5  1  0.02478100  0.42000900  0.31445100  1
  Mg  Mg6  1  0.74843200  0.23163000  0.87531700  1
  Mg  Mg7  1  0.72875000  0.75043000  0.75532500  1
  Si  Si0  1  0.31542500  0.34245200  0.62979000  1
  Si  Si1  1  0.67016100  0.32353100  0.54510800  1
  Si  Si2  1  0.56808800  0.55880200  0.37555900  1
  Si  Si3  1  0.05357300  0.67587300  0.03958700  1
  Si  Si4  1  0.87476500  0.98057400  0.11580400  1
  Si  Si5  1  0.19407400  0.15712700  0.81684800  1
loop_
_geom_bond_atom_site_label_1
_geom_bond_atom_site_label_2
_geom_bond_distance
_geom_bond_site_symmetry_2
Mg0 Si5 2.681644 1_554
Mg0 Si3 2.841784 1_545
Mg0 Si2 2.853283 1_555
Mg0 Si4 2.999589 1_445
Mg0 Si4 3.039516 1_545
Mg0 Si1 3.104889 1_555
Mg1 Si1 2.738042 1_565
Mg1 Si3 2.797078 1_555
Mg1 Si2 2.875054 1_555
Mg1 Si0 3.016861 1_565
Mg1 Si4 3.168104 1_455
Mg2 Si2 2.706707 1_555
Mg2 Si1 2.719970 1_565
Mg2 Si0 2.761014 1_665
Mg2 Si5 2.829677 1_665
Mg2 Si4 2.846429 1_555
Mg3 Si0 2.688687 1_555
Mg3 Si5 2.703214 1_565
Mg3 Si3 3.040015 1_556
Mg3 Si1 3.207912 1_455
Mg4 Si2 2.678671 1_555
Mg4 Si4 2.698180 1_555
Mg4 Si5 2.825437 1_554
Mg4 Si3 2.880955 1_555
Mg4 Si3 3.080943 1_655
Mg5 Si4 2.690442 1_445
Mg5 Si0 2.873307 1_555
Mg5 Si2 2.940069 1_555
Mg5 Si2 3.138461 1_455
Mg5 Si3 3.168163 1_555
Mg6 Si3 2.747134 1_656
Mg6 Si4 2.886546 1_546
Mg6 Si1 2.894797 1_555
Mg6 Si5 2.914245 1_655
Mg6 Si5 3.024303 1_555
Mg6 Si0 3.041096 1_555
Mg7 Si3 2.747743 1_656
Mg7 Si1 2.761358 1_555
Mg7 Si4 2.789292 1_556
Mg7 Si0 2.848172 1_555
Mg7 Si2 2.884805 1_555
Mg7 Si5 3.141493 1_665
Si0 Si5 2.379702 1_555
Si0 Si1 2.417213 1_555
Si1 Si2 2.350973 1_555
Si3 Si4 2.452137 1_455
