# generated using pymatgen
data_LiYGe
_symmetry_space_group_name_H-M   'P 1'
_cell_length_a   7.08506173
_cell_length_b   7.08506121
_cell_length_c   4.23013885
_cell_angle_alpha   90.00000000
_cell_angle_beta   90.00000000
_cell_angle_gamma   120.00000248
_symmetry_Int_Tables_number   1
_chemical_formula_structural   LiYGe
_chemical_formula_sum   'Li3 Y3 Ge3'
_cell_volume   183.89608717
_cell_formula_units_Z   3
loop_
 _symmetry_equiv_pos_site_id
 _symmetry_equiv_pos_as_xyz
  1  'x, y, z'
loop_
 _atom_site_type_symbol
 _atom_site_label
 _atom_site_symmetry_multiplicity
 _atom_site_fract_x
 _atom_site_fract_y
 _atom_site_fract_z
 _atom_site_occupancy
  Li  Li0  1  0.23304863  0.00000000  0.50000000  1
  Li  Li1  1  0.76695137  0.76695137  0.50000000  1
  Li  Li2  1  -0.00000000  0.23304863  0.50000000  1
  Y  Y0  1  0.00000000  0.57818063  -0.00000000  1
  Y  Y1  1  0.57818063  0.00000000  0.00000000  1
  Y  Y2  1  0.42181937  0.42181937  -0.00000000  1
  Ge  Ge0  1  0.33333300  0.66666700  0.50000000  1
  Ge  Ge1  1  0.66666700  0.33333300  0.50000000  1
  Ge  Ge2  1  0.00000000  0.00000000  0.00000000  1
loop_
_geom_bond_atom_site_label_1
_geom_bond_atom_site_label_2
_geom_bond_distance
_geom_bond_site_symmetry_2
Ge0 Li0 2.785753 1_565
Ge0 Li2 2.785758 1_555
Ge0 Li1 2.785760 1_555
Ge0 Y0 2.993911 1_556
Ge0 Y0 2.993911 1_555
Ge0 Y1 2.993912 1_566
Ge0 Y1 2.993912 1_565
Ge0 Y2 2.993916 1_556
Ge0 Y2 2.993916 1_555
Ge1 Li2 2.785753 1_655
Ge1 Li0 2.785758 1_555
Ge1 Li1 2.785760 1_555
Ge1 Y1 2.993911 1_556
Ge1 Y1 2.993911 1_555
Ge1 Y0 2.993912 1_655
Ge1 Y0 2.993912 1_656
Ge1 Y2 2.993916 1_555
Ge1 Y2 2.993916 1_556
Ge2 Li1 2.683256 1_444
Ge2 Li1 2.683256 1_445
Ge2 Li2 2.683256 1_555
Ge2 Li2 2.683256 1_554
Ge2 Li0 2.683256 1_554
Ge2 Li0 2.683256 1_555
Ge2 Y2 2.988616 1_555
Ge2 Y0 2.988616 1_545
Ge2 Y1 2.988616 1_455
