# generated using pymatgen
data_NaH4C3N3O4
_symmetry_space_group_name_H-M   'P 1'
_cell_length_a   3.88223312
_cell_length_b   9.13692378
_cell_length_c   9.35840163
_cell_angle_alpha   91.51894588
_cell_angle_beta   95.51577706
_cell_angle_gamma   91.21169117
_symmetry_Int_Tables_number   1
_chemical_formula_structural   NaH4C3N3O4
_chemical_formula_sum   'Na2 H8 C6 N6 O8'
_cell_volume   330.21130519
_cell_formula_units_Z   2
loop_
 _symmetry_equiv_pos_site_id
 _symmetry_equiv_pos_as_xyz
  1  'x, y, z'
loop_
 _atom_site_type_symbol
 _atom_site_label
 _atom_site_symmetry_multiplicity
 _atom_site_fract_x
 _atom_site_fract_y
 _atom_site_fract_z
 _atom_site_occupancy
  Na  Na0  1  0.34323700  0.61994700  0.13879700  1
  Na  Na1  1  0.65676300  0.38005300  0.86120300  1
  H  H0  1  0.41689600  0.11736800  0.01372400  1
  H  H1  1  0.58310400  0.88263200  0.98627600  1
  H  H2  1  0.07799800  0.34965800  0.62281400  1
  H  H3  1  0.92200200  0.65034200  0.37718600  1
  H  H4  1  0.06067900  0.51239200  0.68671200  1
  H  H5  1  0.93932100  0.48760800  0.31328800  1
  H  H6  1  0.13383900  0.95173100  0.39228400  1
  H  H7  1  0.86616100  0.04826900  0.60771600  1
  C  C0  1  0.10094700  0.17997500  0.37352100  1
  C  C1  1  0.89905300  0.82002500  0.62647900  1
  C  C2  1  0.24167200  0.27166500  0.15597600  1
  C  C3  1  0.75832800  0.72833500  0.84402400  1
  C  C4  1  0.29325800  0.00921800  0.19490400  1
  C  C5  1  0.70674200  0.99078200  0.80509600  1
  N  N0  1  0.17716400  0.03817400  0.32548400  1
  N  N1  1  0.82283600  0.96182600  0.67451600  1
  N  N2  1  0.12806900  0.29429500  0.28625600  1
  N  N3  1  0.87193100  0.70570500  0.71374400  1
  N  N4  1  0.32592500  0.12998300  0.11363500  1
  N  N5  1  0.67407500  0.87001700  0.88636500  1
  O  O0  1  0.36673500  0.88405000  0.15137100  1
  O  O1  1  0.63326500  0.11595000  0.84862900  1
  O  O2  1  0.27642300  0.37106700  0.06708600  1
  O  O3  1  0.72357700  0.62893300  0.93291400  1
  O  O4  1  0.00500200  0.19296800  0.49777800  1
  O  O5  1  0.99499800  0.80703200  0.50222200  1
  O  O6  1  0.12039700  0.41060400  0.71187300  1
  O  O7  1  0.87960300  0.58939600  0.28812700  1
loop_
_geom_bond_atom_site_label_1
_geom_bond_atom_site_label_2
_geom_bond_distance
_geom_bond_site_symmetry_2
Na0 O2 2.355718 1_555
Na0 O7 2.398678 1_455
Na0 O0 2.412206 1_555
Na0 O7 2.419238 1_555
Na0 O3 2.539583 1_554
Na0 O3 2.938021 1_454
Na1 O3 2.355718 1_555
Na1 O6 2.398678 1_655
Na1 O1 2.412206 1_555
Na1 O6 2.419238 1_555
Na1 O2 2.539583 1_556
Na1 O2 2.938021 1_656
H0 N4 1.035250 1_555
H1 N5 1.035250 1_555
H2 O6 0.988418 1_555
H3 O7 0.988418 1_555
H4 O6 0.992161 1_555
H5 O7 0.992161 1_555
H6 N0 1.041001 1_565
H7 N1 1.041001 1_545
C0 O4 1.258120 1_555
C0 N2 1.351360 1_555
C0 N0 1.406840 1_555
C1 O5 1.258120 1_555
C1 N3 1.351360 1_555
C1 N1 1.406840 1_555
C2 O2 1.261559 1_555
C2 N2 1.348186 1_555
C2 N4 1.398376 1_555
C3 O3 1.261559 1_555
C3 N3 1.348186 1_555
C3 N5 1.398376 1_555
C4 O0 1.251686 1_545
C4 N0 1.363909 1_555
C4 N4 1.367175 1_555
C5 O1 1.251686 1_565
C5 N1 1.363909 1_555
C5 N5 1.367175 1_555
