# generated using pymatgen
data_RbSeO4
_symmetry_space_group_name_H-M   'P 1'
_cell_length_a   10.97144116
_cell_length_b   10.97144116
_cell_length_c   4.54558538
_cell_angle_alpha   78.09944591
_cell_angle_beta   78.09944591
_cell_angle_gamma   41.23433568
_symmetry_Int_Tables_number   1
_chemical_formula_structural   RbSeO4
_chemical_formula_sum   'Rb3 Se3 O12'
_cell_volume   351.79495601
_cell_formula_units_Z   3
loop_
 _symmetry_equiv_pos_site_id
 _symmetry_equiv_pos_as_xyz
  1  'x, y, z'
loop_
 _atom_site_type_symbol
 _atom_site_label
 _atom_site_symmetry_multiplicity
 _atom_site_fract_x
 _atom_site_fract_y
 _atom_site_fract_z
 _atom_site_occupancy
  Rb  Rb0  1  0.49346000  0.50654000  0.00000000  1
  Rb  Rb1  1  0.24578800  0.08389900  0.41757200  1
  Rb  Rb2  1  0.91610100  0.75421200  0.58242800  1
  Se  Se0  1  0.99820700  0.00179300  0.00000000  1
  Se  Se1  1  0.74286600  0.58795300  0.29074400  1
  Se  Se2  1  0.41204700  0.25713400  0.70925600  1
  O  O0  1  0.18242200  0.94546300  0.04267000  1
  O  O1  1  0.05453700  0.81757800  0.95733000  1
  O  O2  1  0.89101400  0.16383200  0.69740600  1
  O  O3  1  0.83616800  0.10898600  0.30259400  1
  O  O4  1  0.84371500  0.42179400  0.05957700  1
  O  O5  1  0.57820600  0.15628500  0.94042300  1
  O  O6  1  0.55370300  0.65688800  0.47057900  1
  O  O7  1  0.34311200  0.44629700  0.52942100  1
  O  O8  1  0.90132400  0.48841100  0.53782500  1
  O  O9  1  0.51158900  0.09867600  0.46217500  1
  O  O10  1  0.69826200  0.76212100  0.09640000  1
  O  O11  1  0.23787900  0.30173800  0.90360000  1
loop_
_geom_bond_atom_site_label_1
_geom_bond_atom_site_label_2
_geom_bond_distance
_geom_bond_site_symmetry_2
O0 Se0 1.654689 1_465
O0 Rb1 2.972980 1_565
O0 Rb1 3.139665 1_564
O0 Rb0 3.204503 1_555
O1 Se0 1.654689 1_466
O1 Rb2 2.972980 1_455
O1 Rb2 3.139665 1_456
O1 Rb0 3.204503 1_556
O2 Se0 1.717440 1_556
O2 Rb0 3.169615 1_556
O2 Rb1 3.289639 1_655
O3 Se0 1.717440 1_555
O3 Rb0 3.169615 1_555
O3 Rb2 3.289639 1_545
O4 Se1 1.711291 1_555
O4 Rb0 3.264417 1_555
O4 Rb1 3.424500 1_655
O5 Se2 1.711291 1_555
O5 Rb0 3.264417 1_556
O5 Rb2 3.424500 1_545
O6 Se1 1.655887 1_555
O6 Rb0 2.880243 1_556
O6 Rb1 3.079787 1_565
O6 Rb0 3.378093 1_555
O7 Se2 1.655887 1_555
O7 Rb0 2.880243 1_555
O7 Rb2 3.079787 1_455
O7 Rb0 3.378093 1_556
O8 Se1 1.708893 1_555
O8 Rb1 3.033139 1_655
O8 Rb2 3.088727 1_555
O9 Se2 1.708893 1_555
O9 Rb2 3.033139 1_545
O9 Rb1 3.088727 1_555
O10 Se1 1.657394 1_555
O10 Rb2 2.940538 1_554
O10 Rb1 3.466438 1_565
O10 Rb2 3.519560 1_555
O11 Se2 1.657394 1_555
O11 Rb1 2.940538 1_556
O11 Rb2 3.466438 1_455
O11 Rb1 3.519560 1_555
