# generated using pymatgen
data_Li4Mn3NbO8
_symmetry_space_group_name_H-M   'P 1'
_cell_length_a   6.25181525
_cell_length_b   10.60137385
_cell_length_c   6.16757950
_cell_angle_alpha   90.11235776
_cell_angle_beta   60.23533588
_cell_angle_gamma   71.65976021
_symmetry_Int_Tables_number   1
_chemical_formula_structural   Li4Mn3NbO8
_chemical_formula_sum   'Li8 Mn6 Nb2 O16'
_cell_volume   330.55667074
_cell_formula_units_Z   2
loop_
 _symmetry_equiv_pos_site_id
 _symmetry_equiv_pos_as_xyz
  1  'x, y, z'
loop_
 _atom_site_type_symbol
 _atom_site_label
 _atom_site_symmetry_multiplicity
 _atom_site_fract_x
 _atom_site_fract_y
 _atom_site_fract_z
 _atom_site_occupancy
  Li  Li0  1  0.48854800  0.24952500  0.76114100  1
  Li  Li1  1  0.51233100  0.75050200  0.23793400  1
  Li  Li2  1  0.00688500  0.75025300  0.24225000  1
  Li  Li3  1  0.99326000  0.24957400  0.75726600  1
  Li  Li4  1  0.98339800  0.76067500  0.74204800  1
  Li  Li5  1  0.01634500  0.23931000  0.25897800  1
  Li  Li6  1  0.51504100  0.26237400  0.24046400  1
  Li  Li7  1  0.48660200  0.73820900  0.75889800  1
  Mn  Mn0  1  0.49959100  0.99982200  0.49984800  1
  Mn  Mn1  1  0.49946800  0.00007300  0.00023900  1
  Mn  Mn2  1  0.50018700  0.50021000  0.49977200  1
  Mn  Mn3  1  0.50055700  0.50007300  0.99941500  1
  Mn  Mn4  1  0.99938200  0.99984400  0.50048300  1
  Mn  Mn5  1  0.00059900  0.49981300  0.99959500  1
  Nb  Nb0  1  0.00052100  0.49998300  0.49976900  1
  Nb  Nb1  1  0.99947500  0.00001800  0.00023700  1
  O  O0  1  0.77553900  0.89330300  0.61144100  1
  O  O1  1  0.72526100  0.39291100  0.11536400  1
  O  O2  1  0.27529900  0.60721000  0.88450000  1
  O  O3  1  0.22299500  0.10625000  0.38927000  1
  O  O4  1  0.22476300  0.37465800  0.15728200  1
  O  O5  1  0.22283900  0.88383100  0.63631000  1
  O  O6  1  0.77593500  0.11602200  0.36440300  1
  O  O7  1  0.77585000  0.62537200  0.84266200  1
  O  O8  1  0.24039600  0.37982500  0.60946100  1
  O  O9  1  0.24595400  0.87754800  0.09742400  1
  O  O10  1  0.75298300  0.12247300  0.90302000  1
  O  O11  1  0.76047900  0.62027900  0.39023100  1
  O  O12  1  0.77838200  0.88097600  0.11259400  1
  O  O13  1  0.75623200  0.38858700  0.64311600  1
  O  O14  1  0.24443600  0.61155600  0.35662400  1
  O  O15  1  0.22046800  0.11894400  0.88796100  1
loop_
_geom_bond_atom_site_label_1
_geom_bond_atom_site_label_2
_geom_bond_distance
_geom_bond_site_symmetry_2
Li0 O4 2.249188 1_556
Li0 O6 2.289039 1_555
Li0 O8 2.299470 1_555
Li0 O10 2.313571 1_555
Li0 O15 2.345185 1_555
Li0 O13 2.418936 1_555
Li1 O7 2.245299 1_554
Li1 O5 2.296019 1_555
Li1 O11 2.301964 1_555
Li1 O9 2.316105 1_555
Li1 O12 2.335130 1_555
Li1 O14 2.418720 1_555
Li2 O12 2.119783 1_455
Li2 O14 2.129602 1_555
Li2 O2 2.166382 1_554
Li2 O9 2.191213 1_555
Li2 O0 2.216477 1_455
Li2 O11 2.247107 1_455
Li3 O15 2.118621 1_655
Li3 O13 2.128144 1_555
Li3 O1 2.169035 1_556
Li3 O10 2.194998 1_555
Li3 O3 2.213444 1_655
Li3 O8 2.252563 1_655
Li4 O0 2.051445 1_555
Li4 O7 2.121683 1_555
Li4 O12 2.131613 1_556
Li4 O5 2.152861 1_655
Li4 O14 2.307188 1_655
Li4 O2 2.545233 1_655
Li5 O3 2.047692 1_555
Li5 O4 2.125732 1_555
Li5 O15 2.134814 1_554
Li5 O6 2.158560 1_455
Li5 O13 2.302706 1_455
Li5 O1 2.547362 1_455
Li6 O10 2.066293 1_554
Li6 O1 2.092759 1_555
Li6 O8 2.107496 1_555
Li6 O4 2.130930 1_555
Li6 O6 2.302587 1_555
Li7 O9 2.067681 1_556
Li7 O2 2.101571 1_555
Li7 O11 2.107380 1_555
Li7 O7 2.129921 1_555
Li7 O5 2.305326 1_555
Mn0 O3 2.162055 1_565
Mn0 O0 2.163581 1_555
Mn0 O12 2.191534 1_555
Mn0 O15 2.196307 1_565
Mn0 O6 2.260661 1_565
Mn0 O5 2.260790 1_555
Mn1 O3 2.158457 1_555
Mn1 O0 2.158913 1_544
Mn1 O10 2.215642 1_554
Mn1 O9 2.216730 1_545
Mn1 O15 2.220234 1_554
Mn1 O12 2.220929 1_545
Mn2 O1 2.136523 1_555
Mn2 O2 2.137115 1_555
Mn2 O11 2.222646 1_555
Mn2 O8 2.222904 1_555
Mn2 O14 2.224247 1_555
Mn2 O13 2.227433 1_555
Mn3 O2 1.939883 1_555
Mn3 O1 1.942115 1_556
Mn3 O13 2.023430 1_555
Mn3 O14 2.027496 1_556
Mn3 O7 2.335165 1_555
Mn3 O4 2.338720 1_556
Mn4 O3 1.934100 1_665
Mn4 O0 1.936317 1_555
Mn4 O5 2.061748 1_655
Mn4 O6 2.063538 1_565
Mn4 O10 2.270818 1_565
Mn4 O9 2.271947 1_655
Mn5 O1 2.183538 1_456
Mn5 O2 2.184688 1_555
Mn5 O4 2.204184 1_556
Mn5 O7 2.204824 1_455
Mn5 O8 2.204905 1_555
Mn5 O11 2.208979 1_456
Nb0 O4 2.017199 1_555
Nb0 O7 2.019165 1_455
Nb0 O8 2.034171 1_555
Nb0 O11 2.034821 1_455
Nb0 O14 2.075183 1_555
Nb0 O13 2.075400 1_455
Nb1 O9 2.020041 1_645
Nb1 O10 2.020159 1_554
Nb1 O15 2.031661 1_654
Nb1 O12 2.033131 1_545
Nb1 O5 2.073614 1_644
Nb1 O6 2.073924 1_555
