# generated using pymatgen
data_KNa(BiO3)2
_symmetry_space_group_name_H-M   'P 1'
_cell_length_a   4.28888212
_cell_length_b   5.88192454
_cell_length_c   5.88192454
_cell_angle_alpha   90.49998837
_cell_angle_beta   90.00000000
_cell_angle_gamma   90.00000000
_symmetry_Int_Tables_number   1
_chemical_formula_structural   KNa(BiO3)2
_chemical_formula_sum   'K1 Na1 Bi2 O6'
_cell_volume   148.37696079
_cell_formula_units_Z   1
loop_
 _symmetry_equiv_pos_site_id
 _symmetry_equiv_pos_as_xyz
  1  'x, y, z'
loop_
 _atom_site_type_symbol
 _atom_site_label
 _atom_site_symmetry_multiplicity
 _atom_site_fract_x
 _atom_site_fract_y
 _atom_site_fract_z
 _atom_site_occupancy
  K  K0  1  0.50000000  0.50000000  0.50000000  1
  Na  Na0  1  0.50000000  -0.00000000  -0.00000000  1
  Bi  Bi0  1  0.00000000  -0.00000000  0.50000000  1
  Bi  Bi1  1  0.00000000  0.50000000  -0.00000000  1
  O  O0  1  0.50000000  -0.00000000  0.50000000  1
  O  O1  1  0.50000000  0.50000000  -0.00000000  1
  O  O2  1  0.00000000  0.31366603  0.68633397  1
  O  O3  1  0.00000000  0.68633397  0.31366603  1
  O  O4  1  0.00000000  0.82164682  0.82164682  1
  O  O5  1  0.00000000  0.17835318  0.17835318  1
loop_
_geom_bond_atom_site_label_1
_geom_bond_atom_site_label_2
_geom_bond_distance
_geom_bond_site_symmetry_2
K0 O3 2.649912 1_655
K0 O2 2.649912 1_655
K0 O3 2.649912 1_555
K0 O2 2.649912 1_555
K0 O1 2.940962 1_555
K0 O1 2.940962 1_556
K0 O0 2.940962 1_565
K0 O0 2.940962 1_555
Na0 O4 2.603934 1_544
Na0 O5 2.603934 1_555
Na0 O5 2.603934 1_655
Na0 O4 2.603934 1_644
Na0 O1 2.940962 1_555
Na0 O1 2.940962 1_545
Na0 O0 2.940962 1_555
Na0 O0 2.940962 1_554
Bi0 O2 2.137711 1_555
Bi0 O3 2.137711 1_545
Bi0 O0 2.144441 1_455
Bi0 O0 2.144441 1_555
Bi0 O5 2.171281 1_555
Bi0 O4 2.171281 1_545
Bi1 O3 2.137711 1_555
Bi1 O2 2.137711 1_554
Bi1 O1 2.144441 1_455
Bi1 O1 2.144441 1_555
Bi1 O5 2.171281 1_555
Bi1 O4 2.171281 1_554
