# generated using pymatgen
data_SbH8C2S2Br3N4O
_symmetry_space_group_name_H-M   'P 1'
_cell_length_a   8.75054522
_cell_length_b   8.75054522
_cell_length_c   20.00858800
_cell_angle_alpha   90.00000000
_cell_angle_beta   90.00000000
_cell_angle_gamma   91.73273566
_symmetry_Int_Tables_number   1
_chemical_formula_structural   SbH8C2S2Br3N4O
_chemical_formula_sum   'Sb4 H32 C8 S8 Br12 N16 O4'
_cell_volume   1531.39787604
_cell_formula_units_Z   4
loop_
 _symmetry_equiv_pos_site_id
 _symmetry_equiv_pos_as_xyz
  1  'x, y, z'
loop_
 _atom_site_type_symbol
 _atom_site_label
 _atom_site_symmetry_multiplicity
 _atom_site_fract_x
 _atom_site_fract_y
 _atom_site_fract_z
 _atom_site_occupancy
  Sb  Sb0  1  0.91026800  0.91026800  0.09556000  1
  Sb  Sb1  1  0.08973200  0.08973200  0.90444000  1
  Sb  Sb2  1  0.58973200  0.58973200  0.59556000  1
  Sb  Sb3  1  0.41026800  0.41026800  0.40444000  1
  H  H0  1  0.37653700  0.00885300  0.07314300  1
  H  H1  1  0.99114700  0.62346300  0.92685700  1
  H  H2  1  0.49114700  0.12346300  0.57314300  1
  H  H3  1  0.87653700  0.50885300  0.42685700  1
  H  H4  1  0.62346300  0.99114700  0.92685700  1
  H  H5  1  0.00885300  0.37653700  0.07314300  1
  H  H6  1  0.50885300  0.87653700  0.42685700  1
  H  H7  1  0.12346300  0.49114700  0.57314300  1
  H  H8  1  0.54394400  0.12344300  0.07684800  1
  H  H9  1  0.87655700  0.45605600  0.92315200  1
  H  H10  1  0.37655700  0.95605600  0.57684800  1
  H  H11  1  0.04394400  0.62344300  0.42315200  1
  H  H12  1  0.45605600  0.87655700  0.92315200  1
  H  H13  1  0.12344300  0.54394400  0.07684800  1
  H  H14  1  0.62344300  0.04394400  0.42315200  1
  H  H15  1  0.95605600  0.37655700  0.57684800  1
  H  H16  1  0.34656300  0.80215800  0.14806600  1
  H  H17  1  0.19784200  0.65343700  0.85193400  1
  H  H18  1  0.69784200  0.15343700  0.64806600  1
  H  H19  1  0.84656300  0.30215800  0.35193400  1
  H  H20  1  0.65343700  0.19784200  0.85193400  1
  H  H21  1  0.80215800  0.34656300  0.14806600  1
  H  H22  1  0.30215800  0.84656300  0.35193400  1
  H  H23  1  0.15343700  0.69784200  0.64806600  1
  H  H24  1  0.49402000  0.76276400  0.20365500  1
  H  H25  1  0.23723600  0.50598000  0.79634500  1
  H  H26  1  0.73723600  0.00598000  0.70365500  1
  H  H27  1  0.99402000  0.26276400  0.29634500  1
  H  H28  1  0.50598000  0.23723600  0.79634500  1
  H  H29  1  0.76276400  0.49402000  0.20365500  1
  H  H30  1  0.26276400  0.99402000  0.29634500  1
  H  H31  1  0.00598000  0.73723600  0.70365500  1
  C  C0  1  0.53356100  0.94933800  0.14384700  1
  C  C1  1  0.05066200  0.46643900  0.85615300  1
  C  C2  1  0.55066200  0.96643900  0.64384700  1
  C  C3  1  0.03356100  0.44933800  0.35615300  1
  C  C4  1  0.46643900  0.05066200  0.85615300  1
  C  C5  1  0.94933800  0.53356100  0.14384700  1
  C  C6  1  0.44933800  0.03356100  0.35615300  1
  C  C7  1  0.96643900  0.55066200  0.64384700  1
  S  S0  1  0.70840900  0.99982100  0.18100900  1
  S  S1  1  0.00017900  0.29159100  0.81899100  1
  S  S2  1  0.50017900  0.79159100  0.68100900  1
  S  S3  1  0.20840900  0.49982100  0.31899100  1
  S  S4  1  0.29159100  0.00017900  0.81899100  1
  S  S5  1  0.99982100  0.70840900  0.18100900  1
  S  S6  1  0.49982100  0.20840900  0.31899100  1
  S  S7  1  0.79159100  0.50017900  0.68100900  1
  Br  Br0  1  0.08330700  0.08330700  0.19143600  1
  Br  Br1  1  0.91669300  0.91669300  0.80856400  1
  Br  Br2  1  0.41669300  0.41669300  0.69143600  1
  Br  Br3  1  0.58330700  0.58330700  0.30856400  1
  Br  Br4  1  0.71559900  0.71559900  0.03329700  1
  Br  Br5  1  0.28440100  0.28440100  0.96670300  1
  Br  Br6  1  0.78440100  0.78440100  0.53329700  1
  Br  Br7  1  0.21559900  0.21559900  0.46670300  1
  Br  Br8  1  0.18214800  0.81785200  0.00000000  1
  Br  Br9  1  0.68214800  0.31785200  0.50000000  1
  Br  Br10  1  0.81785200  0.18214800  0.00000000  1
  Br  Br11  1  0.31785200  0.68214800  0.50000000  1
  N  N0  1  0.47975900  0.03390600  0.09483800  1
  N  N1  1  0.96609400  0.52024100  0.90516200  1
  N  N2  1  0.46609400  0.02024100  0.59483800  1
  N  N3  1  0.97975900  0.53390600  0.40516200  1
  N  N4  1  0.52024100  0.96609400  0.90516200  1
  N  N5  1  0.03390600  0.47975900  0.09483800  1
  N  N6  1  0.53390600  0.97975900  0.40516200  1
  N  N7  1  0.02024100  0.46609400  0.59483800  1
  N  N8  1  0.45179200  0.83026300  0.16714500  1
  N  N9  1  0.16973700  0.54820800  0.83285500  1
  N  N10  1  0.66973700  0.04820800  0.66714500  1
  N  N11  1  0.95179200  0.33026300  0.33285500  1
  N  N12  1  0.54820800  0.16973700  0.83285500  1
  N  N13  1  0.83026300  0.45179200  0.16714500  1
  N  N14  1  0.33026300  0.95179200  0.33285500  1
  N  N15  1  0.04820800  0.66973700  0.66714500  1
  O  O0  1  0.43549300  0.43549300  0.13998400  1
  O  O1  1  0.56450700  0.56450700  0.86001600  1
  O  O2  1  0.06450700  0.06450700  0.63998400  1
  O  O3  1  0.93549300  0.93549300  0.36001600  1
loop_
_geom_bond_atom_site_label_1
_geom_bond_atom_site_label_2
_geom_bond_distance
_geom_bond_site_symmetry_2
H0 N0 1.019988 1_555
H1 N1 1.019988 1_555
H2 N2 1.019988 1_555
H3 N3 1.019988 1_555
H4 N4 1.019988 1_555
H5 N5 1.019988 1_555
H6 N6 1.019988 1_555
H7 N7 1.019988 1_555
H8 N0 1.016011 1_555
H9 N1 1.016011 1_555
H10 N2 1.016011 1_565
H11 N3 1.016011 1_455
H12 N4 1.016011 1_555
H13 N5 1.016011 1_555
H14 N6 1.016011 1_545
H15 N7 1.016011 1_655
H16 N8 1.020005 1_555
H17 N9 1.020005 1_555
H18 N10 1.020005 1_555
H19 N11 1.020005 1_555
H20 N12 1.020005 1_555
H21 N13 1.020005 1_555
H22 N14 1.020005 1_555
H23 N15 1.020005 1_555
H24 N8 1.016004 1_555
H25 N9 1.016004 1_555
H26 N10 1.016004 1_555
H27 N11 1.016004 1_555
H28 N12 1.016004 1_555
H29 N13 1.016004 1_555
H30 N14 1.016004 1_555
H31 N15 1.016004 1_555
C0 N0 1.323601 1_565
C0 N8 1.330374 1_555
C0 S0 1.745881 1_555
C1 N1 1.323601 1_455
C1 N9 1.330374 1_555
C1 S1 1.745881 1_555
C2 N2 1.323601 1_565
C2 N10 1.330374 1_565
C2 S2 1.745881 1_555
C3 N3 1.323601 1_455
C3 N11 1.330374 1_455
C3 S3 1.745881 1_555
C4 N4 1.323601 1_545
C4 N12 1.330374 1_555
C4 S4 1.745881 1_555
C5 N5 1.323601 1_655
C5 N13 1.330374 1_555
C5 S5 1.745881 1_555
C6 N6 1.323601 1_545
C6 N14 1.330374 1_545
C6 S6 1.745881 1_555
C7 N7 1.323601 1_655
C7 N15 1.330374 1_655
C7 S7 1.745881 1_555
S0 Sb0 2.596344 1_555
S1 Sb1 2.596344 1_555
S2 Sb2 2.596344 1_555
S3 Sb3 2.596344 1_555
S4 Sb1 2.596344 1_555
S5 Sb0 2.596344 1_555
S6 Sb3 2.596344 1_555
S7 Sb2 2.596344 1_555
Br0 Sb0 2.850772 1_445
Br1 Sb1 2.850772 1_665
Br2 Sb2 2.850772 1_555
Br3 Sb3 2.850772 1_555
Br4 Sb0 2.679566 1_555
Br5 Sb1 2.679566 1_555
Br6 Sb2 2.679566 1_555
Br7 Sb3 2.679566 1_555
Br8 Sb1 3.175888 1_564
Br8 Sb0 3.175888 1_455
Br9 Sb2 3.175888 1_555
Br9 Sb3 3.175888 1_555
Br10 Sb1 3.175888 1_654
Br10 Sb0 3.175888 1_545
Br11 Sb2 3.175888 1_555
Br11 Sb3 3.175888 1_555
