# generated using pymatgen
data_As(NO2)2
_symmetry_space_group_name_H-M   'P 1'
_cell_length_a   6.74591000
_cell_length_b   8.85271400
_cell_length_c   10.84964335
_cell_angle_alpha   67.47723565
_cell_angle_beta   90.00000000
_cell_angle_gamma   90.00000000
_symmetry_Int_Tables_number   1
_chemical_formula_structural   As(NO2)2
_chemical_formula_sum   'As4 N8 O16'
_cell_volume   598.51669878
_cell_formula_units_Z   4
loop_
 _symmetry_equiv_pos_site_id
 _symmetry_equiv_pos_as_xyz
  1  'x, y, z'
loop_
 _atom_site_type_symbol
 _atom_site_label
 _atom_site_symmetry_multiplicity
 _atom_site_fract_x
 _atom_site_fract_y
 _atom_site_fract_z
 _atom_site_occupancy
  As  As0  1  0.33340600  0.08337900  0.31968500  1
  As  As1  1  0.83340600  0.41662100  0.68031500  1
  As  As2  1  0.66659400  0.91662100  0.68031500  1
  As  As3  1  0.16659400  0.58337900  0.31968500  1
  N  N0  1  0.75630100  0.35535700  0.43782500  1
  N  N1  1  0.25630100  0.14464300  0.56217500  1
  N  N2  1  0.24369900  0.64464300  0.56217500  1
  N  N3  1  0.74369900  0.85535700  0.43782500  1
  N  N4  1  0.87393300  0.23337100  0.10969600  1
  N  N5  1  0.37393300  0.26662900  0.89030400  1
  N  N6  1  0.12606700  0.76662900  0.89030400  1
  N  N7  1  0.62606700  0.73337100  0.10969600  1
  O  O0  1  0.37334300  0.28131300  0.25585000  1
  O  O1  1  0.87334300  0.21868700  0.74415000  1
  O  O2  1  0.62665700  0.71868700  0.74415000  1
  O  O3  1  0.12665700  0.78131300  0.25585000  1
  O  O4  1  0.67661500  0.89609900  0.32635900  1
  O  O5  1  0.17661500  0.60390100  0.67364100  1
  O  O6  1  0.32338500  0.10390100  0.67364100  1
  O  O7  1  0.82338500  0.39609900  0.32635900  1
  O  O8  1  0.28690600  0.02336100  0.51201000  1
  O  O9  1  0.78690600  0.47663900  0.48799000  1
  O  O10  1  0.71309400  0.97663900  0.48799000  1
  O  O11  1  0.21309400  0.52336100  0.51201000  1
  O  O12  1  0.27007500  0.16171000  0.95684800  1
  O  O13  1  0.77007500  0.33829000  0.04315200  1
  O  O14  1  0.72992500  0.83829000  0.04315200  1
  O  O15  1  0.22992500  0.66171000  0.95684800  1
loop_
_geom_bond_atom_site_label_1
_geom_bond_atom_site_label_2
_geom_bond_distance
_geom_bond_site_symmetry_2
As0 O0 1.641012 1_555
As0 O8 1.971161 1_555
As1 O1 1.641012 1_555
As1 O9 1.971161 1_555
As2 O2 1.641012 1_555
As2 O10 1.971161 1_555
As3 O3 1.641012 1_555
As3 O11 1.971161 1_555
N0 O7 1.209663 1_555
N0 O9 1.392596 1_555
N1 O6 1.209663 1_555
N1 O8 1.392596 1_555
N2 O5 1.209663 1_555
N2 O11 1.392596 1_555
N3 O4 1.209663 1_555
N3 O10 1.392596 1_555
N4 O13 1.166654 1_555
N5 O12 1.166654 1_555
N6 O15 1.166654 1_555
N7 O14 1.166654 1_555
