# generated using pymatgen
data_KHfMg6O7
_symmetry_space_group_name_H-M   'P 1'
_cell_length_a   11.80179638
_cell_length_b   4.17842267
_cell_length_c   4.17842267
_cell_angle_alpha   90.00000000
_cell_angle_beta   90.00000000
_cell_angle_gamma   90.00000000
_symmetry_Int_Tables_number   1
_chemical_formula_structural   KHfMg6O7
_chemical_formula_sum   'K1 Hf1 Mg6 O7'
_cell_volume   206.05011229
_cell_formula_units_Z   1
loop_
 _symmetry_equiv_pos_site_id
 _symmetry_equiv_pos_as_xyz
  1  'x, y, z'
loop_
 _atom_site_type_symbol
 _atom_site_label
 _atom_site_symmetry_multiplicity
 _atom_site_fract_x
 _atom_site_fract_y
 _atom_site_fract_z
 _atom_site_occupancy
  K  K0  1  0.07281949  0.00000000  -0.00000000  1
  Hf  Hf0  1  0.90866682  0.50000000  0.50000000  1
  Mg  Mg0  1  0.52506986  -0.00000000  -0.00000000  1
  Mg  Mg1  1  0.52825224  0.50000000  0.50000000  1
  Mg  Mg2  1  0.33885502  0.00000000  0.50000000  1
  Mg  Mg3  1  0.71605046  -0.00000000  0.50000000  1
  Mg  Mg4  1  0.33885502  0.50000000  0.00000000  1
  Mg  Mg5  1  0.71605046  0.50000000  -0.00000000  1
  O  O0  1  0.33642330  0.00000000  -0.00000000  1
  O  O1  1  0.69713018  0.00000000  -0.00000000  1
  O  O2  1  0.72289386  0.50000000  0.50000000  1
  O  O3  1  0.90138260  -0.00000000  0.50000000  1
  O  O4  1  0.52308404  0.00000000  0.50000000  1
  O  O5  1  0.90138260  0.50000000  0.00000000  1
  O  O6  1  0.52308404  0.50000000  -0.00000000  1
loop_
_geom_bond_atom_site_label_1
_geom_bond_atom_site_label_2
_geom_bond_distance
_geom_bond_site_symmetry_2
K0 O5 2.908333 1_445
K0 O3 2.908333 1_455
K0 O5 2.908333 1_455
K0 O3 2.908333 1_454
K0 O0 3.110998 1_555
Hf0 O5 2.090979 1_556
Hf0 O5 2.090979 1_555
Hf0 O3 2.090979 1_555
Hf0 O3 2.090979 1_565
Hf0 O2 2.192455 1_555
Mg0 O1 2.030621 1_555
Mg0 O6 2.089343 1_555
Mg0 O4 2.089343 1_555
Mg0 O4 2.089343 1_554
Mg0 O6 2.089343 1_545
Mg0 O0 2.226368 1_555
Mg1 O4 2.090101 1_565
Mg1 O6 2.090101 1_556
Mg1 O6 2.090101 1_555
Mg1 O4 2.090101 1_555
Mg1 O2 2.297121 1_555
Mg2 O0 2.089408 1_555
Mg2 O0 2.089408 1_556
Mg2 O4 2.174233 1_555
Mg3 O2 2.090772 1_545
Mg3 O2 2.090772 1_555
Mg3 O1 2.101110 1_555
Mg3 O1 2.101110 1_556
Mg3 O3 2.187252 1_555
Mg3 O4 2.277350 1_555
Mg4 O0 2.089408 1_555
Mg4 O0 2.089408 1_565
Mg4 O6 2.174233 1_555
Mg5 O2 2.090772 1_554
Mg5 O2 2.090772 1_555
Mg5 O1 2.101110 1_555
Mg5 O1 2.101110 1_565
Mg5 O5 2.187252 1_555
Mg5 O6 2.277350 1_555
