# generated using pymatgen
data_Dy2Sn5Rh3
_symmetry_space_group_name_H-M   'P 1'
_cell_length_a   13.45591607
_cell_length_b   13.45591607
_cell_length_c   7.33453500
_cell_angle_alpha   90.00000000
_cell_angle_beta   90.00000000
_cell_angle_gamma   161.18873033
_symmetry_Int_Tables_number   1
_chemical_formula_structural   Dy2Sn5Rh3
_chemical_formula_sum   'Dy4 Sn10 Rh6'
_cell_volume   428.21714196
_cell_formula_units_Z   2
loop_
 _symmetry_equiv_pos_site_id
 _symmetry_equiv_pos_as_xyz
  1  'x, y, z'
loop_
 _atom_site_type_symbol
 _atom_site_label
 _atom_site_symmetry_multiplicity
 _atom_site_fract_x
 _atom_site_fract_y
 _atom_site_fract_z
 _atom_site_occupancy
  Dy  Dy0  1  0.17294800  0.82705200  0.75529800  1
  Dy  Dy1  1  0.82705200  0.17294800  0.25529800  1
  Dy  Dy2  1  0.47592600  0.52407400  0.73668700  1
  Dy  Dy3  1  0.52407400  0.47592600  0.23668700  1
  Sn  Sn0  1  0.88054400  0.11945600  0.73057500  1
  Sn  Sn1  1  0.11945600  0.88054400  0.23057500  1
  Sn  Sn2  1  0.70464000  0.29536000  0.05007500  1
  Sn  Sn3  1  0.29536000  0.70464000  0.55007500  1
  Sn  Sn4  1  0.59631900  0.40368100  0.61450100  1
  Sn  Sn5  1  0.40368100  0.59631900  0.11450100  1
  Sn  Sn6  1  0.95230500  0.04769500  0.39733400  1
  Sn  Sn7  1  0.04769500  0.95230500  0.89733400  1
  Sn  Sn8  1  0.29061800  0.70938200  0.97731300  1
  Sn  Sn9  1  0.70938200  0.29061800  0.47731300  1
  Rh  Rh0  1  0.05016200  0.94983800  0.51889800  1
  Rh  Rh1  1  0.94983800  0.05016200  0.01889800  1
  Rh  Rh2  1  0.77654500  0.22345500  0.76494800  1
  Rh  Rh3  1  0.22345500  0.77654500  0.26494800  1
  Rh  Rh4  1  0.39414300  0.60585700  0.48237000  1
  Rh  Rh5  1  0.60585700  0.39414300  0.98237000  1
loop_
_geom_bond_atom_site_label_1
_geom_bond_atom_site_label_2
_geom_bond_distance
_geom_bond_site_symmetry_2
Dy0 Sn9 3.150939 1_565
Dy0 Sn9 3.150939 1_455
Dy0 Sn4 3.168794 1_455
Dy0 Sn4 3.168794 1_565
Dy0 Sn2 3.196575 1_566
Dy0 Sn2 3.196575 1_456
Dy0 Rh5 3.283645 1_455
Dy0 Rh5 3.283645 1_565
Dy1 Sn8 3.150939 1_654
Dy1 Sn8 3.150939 1_544
Dy1 Sn5 3.168794 1_655
Dy1 Sn5 3.168794 1_545
Dy1 Sn3 3.196575 1_655
Dy1 Sn3 3.196575 1_545
Dy1 Rh4 3.283645 1_545
Dy1 Rh4 3.283645 1_655
Dy2 Rh4 2.862526 1_555
Dy2 Rh1 3.098355 1_566
Dy2 Rh1 3.098355 1_456
Dy2 Sn7 3.139230 1_655
Dy2 Sn7 3.139230 1_545
Dy2 Sn4 3.319691 1_555
Dy2 Sn0 3.354201 1_565
Dy2 Sn0 3.354201 1_455
Dy2 Rh0 3.357375 1_545
Dy2 Rh0 3.357375 1_655
Dy2 Sn5 3.370174 1_556
Dy2 Sn6 3.379946 1_565
Dy2 Sn6 3.379946 1_455
Dy3 Rh5 2.862526 1_554
Dy3 Rh0 3.098355 1_655
Dy3 Rh0 3.098355 1_545
Dy3 Sn6 3.139230 1_565
Dy3 Sn6 3.139230 1_455
Dy3 Sn5 3.319691 1_555
Dy3 Sn1 3.354201 1_655
Dy3 Sn1 3.354201 1_545
Dy3 Rh1 3.357375 1_565
Dy3 Rh1 3.357375 1_455
Dy3 Sn4 3.370174 1_555
Dy3 Sn7 3.379946 1_654
Dy3 Sn7 3.379946 1_544
Rh0 Sn4 2.613253 1_565
Rh0 Sn4 2.613253 1_455
Rh0 Sn6 2.746841 1_465
Rh0 Sn7 2.776425 1_555
Rh0 Sn1 2.802986 1_555
Rh1 Sn5 2.613253 1_655
Rh1 Sn5 2.613253 1_545
Rh1 Sn7 2.746841 1_644
Rh1 Sn6 2.776425 1_555
Rh1 Sn0 2.802986 1_554
Rh2 Sn8 2.720542 1_655
Rh2 Sn8 2.720542 1_545
Rh2 Sn3 2.751167 1_545
Rh2 Sn3 2.751167 1_655
Rh2 Sn9 2.762324 1_555
Rh2 Sn0 2.772662 1_555
Rh2 Sn2 2.831610 1_556
Rh3 Sn9 2.720542 1_565
Rh3 Sn9 2.720542 1_455
Rh3 Sn2 2.751167 1_455
Rh3 Sn2 2.751167 1_565
Rh3 Sn8 2.762324 1_554
Rh3 Sn1 2.772662 1_555
Rh3 Sn3 2.831610 1_555
Rh4 Sn3 2.669290 1_555
Rh4 Sn5 2.710006 1_555
Rh4 Sn6 2.758476 1_565
Rh4 Sn6 2.758476 1_455
Rh4 Sn0 2.877515 1_565
Rh4 Sn0 2.877515 1_455
Rh5 Sn2 2.669290 1_556
Rh5 Sn4 2.710006 1_555
Rh5 Sn7 2.758476 1_655
Rh5 Sn7 2.758476 1_545
Rh5 Sn1 2.877515 1_546
Rh5 Sn1 2.877515 1_656
