# generated using pymatgen
data_MgZrSi2O7
_symmetry_space_group_name_H-M   'P 1'
_cell_length_a   6.62699437
_cell_length_b   6.62699437
_cell_length_c   6.62699437
_cell_angle_alpha   120.81728044
_cell_angle_beta   118.77618471
_cell_angle_gamma   90.36146455
_symmetry_Int_Tables_number   1
_chemical_formula_structural   MgZrSi2O7
_chemical_formula_sum   'Mg2 Zr2 Si4 O14'
_cell_volume   206.34159050
_cell_formula_units_Z   2
loop_
 _symmetry_equiv_pos_site_id
 _symmetry_equiv_pos_as_xyz
  1  'x, y, z'
loop_
 _atom_site_type_symbol
 _atom_site_label
 _atom_site_symmetry_multiplicity
 _atom_site_fract_x
 _atom_site_fract_y
 _atom_site_fract_z
 _atom_site_occupancy
  Mg  Mg0  1  0.50000000  0.00000000  0.00000000  1
  Mg  Mg1  1  0.50000000  0.50000000  0.50000000  1
  Zr  Zr0  1  0.50000000  0.00000000  0.50000000  1
  Zr  Zr1  1  0.00000000  0.00000000  0.00000000  1
  Si  Si0  1  0.00000000  0.50000000  0.00000000  1
  Si  Si1  1  0.00000000  0.00000000  0.50000000  1
  Si  Si2  1  0.00000000  0.50000000  0.50000000  1
  Si  Si3  1  0.50000000  0.50000000  0.00000000  1
  O  O0  1  0.92580300  0.17580300  0.75000000  1
  O  O1  1  0.32479100  0.57479100  0.75000000  1
  O  O2  1  0.93479500  0.58148000  0.76079900  1
  O  O3  1  0.32068100  0.17399500  0.73920100  1
  O  O4  1  0.93479500  0.17399500  0.35331400  1
  O  O5  1  0.32068100  0.58148100  0.14668600  1
  O  O6  1  0.07419700  0.82419700  0.25000000  1
  O  O7  1  0.67520900  0.42520900  0.25000000  1
  O  O8  1  0.06520500  0.41852000  0.23920100  1
  O  O9  1  0.67931900  0.82600500  0.26079900  1
  O  O10  1  0.06520500  0.82600500  0.64668600  1
  O  O11  1  0.67931900  0.41851900  0.85331400  1
  O  O12  1  0.62313700  0.87313700  0.75000000  1
  O  O13  1  0.37686300  0.12686300  0.25000000  1
loop_
_geom_bond_atom_site_label_1
_geom_bond_atom_site_label_2
_geom_bond_distance
_geom_bond_site_symmetry_2
Mg0 O12 2.000171 1_544
Mg0 O13 2.000171 1_555
Mg0 O7 2.314438 1_555
Mg0 O1 2.314438 1_544
Mg0 O3 2.410514 1_554
Mg0 O9 2.410514 1_545
Mg0 O4 2.410519 1_555
Mg0 O10 2.410519 1_544
Mg1 O12 2.000171 1_555
Mg1 O13 2.000171 1_555
Mg1 O7 2.314438 1_555
Mg1 O1 2.314438 1_555
Mg1 O11 2.410519 1_555
Mg1 O5 2.410519 1_555
Mg1 O2 2.410520 1_555
Mg1 O8 2.410520 1_555
O0 Si0 1.777013 1_656
O0 Si1 1.777013 1_655
O0 Zr0 2.354680 1_555
O0 Zr1 2.354680 1_656
O1 Si3 1.826253 1_556
O1 Si2 1.826253 1_555
O2 Si0 1.792083 1_656
O2 Si2 1.797535 1_655
O2 Zr1 2.283126 1_666
O3 Si1 1.792082 1_555
O3 Si3 1.797540 1_556
O3 Zr0 2.283125 1_555
O4 Si1 1.792082 1_655
O4 Si2 1.797540 1_655
O4 Zr1 2.283121 1_655
O5 Si0 1.792082 1_555
O5 Si3 1.797540 1_555
O5 Zr0 2.283121 1_565
O6 Si1 1.777013 1_565
O6 Si0 1.777013 1_555
O6 Zr0 2.354680 1_565
O6 Zr1 2.354680 1_565
O7 Si3 1.826253 1_555
O7 Si2 1.826253 1_655
O8 Si0 1.792083 1_555
O8 Si2 1.797535 1_555
O8 Zr1 2.283126 1_555
O9 Si1 1.792082 1_665
O9 Si3 1.797540 1_555
O9 Zr0 2.283125 1_565
O10 Si1 1.792082 1_565
O10 Si2 1.797540 1_555
O10 Zr1 2.283121 1_566
O11 Si0 1.792082 1_656
O11 Si3 1.797540 1_556
O11 Zr0 2.283121 1_555
O12 Zr0 2.061961 1_565
O12 Zr1 2.061961 1_666
O13 Zr1 2.061961 1_555
O13 Zr0 2.061961 1_555
