# generated using pymatgen
data_Ba5P4
_symmetry_space_group_name_H-M   'P 1'
_cell_length_a   8.43000231
_cell_length_b   8.51581321
_cell_length_c   16.72311357
_cell_angle_alpha   90.00000000
_cell_angle_beta   90.00000000
_cell_angle_gamma   90.00000000
_symmetry_Int_Tables_number   1
_chemical_formula_structural   Ba5P4
_chemical_formula_sum   'Ba20 P16'
_cell_volume   1200.52431251
_cell_formula_units_Z   4
loop_
 _symmetry_equiv_pos_site_id
 _symmetry_equiv_pos_as_xyz
  1  'x, y, z'
loop_
 _atom_site_type_symbol
 _atom_site_label
 _atom_site_symmetry_multiplicity
 _atom_site_fract_x
 _atom_site_fract_y
 _atom_site_fract_z
 _atom_site_occupancy
  Ba  Ba0  1  0.74555541  0.99606127  0.75000000  1
  Ba  Ba1  1  0.24555541  0.50393873  0.75000000  1
  Ba  Ba2  1  0.75444459  0.49606127  0.25000000  1
  Ba  Ba3  1  0.25444459  0.00393873  0.25000000  1
  Ba  Ba4  1  0.57242061  0.33304222  0.89788419  1
  Ba  Ba5  1  0.07242061  0.16695778  0.60211581  1
  Ba  Ba6  1  0.92757939  0.83304222  0.10211581  1
  Ba  Ba7  1  0.42757939  0.66695778  0.39788419  1
  Ba  Ba8  1  0.42757939  0.66695778  0.10211581  1
  Ba  Ba9  1  0.92757939  0.83304222  0.39788419  1
  Ba  Ba10  1  0.07242061  0.16695778  0.89788419  1
  Ba  Ba11  1  0.57242061  0.33304222  0.60211581  1
  Ba  Ba12  1  0.40843025  0.84176909  0.60314857  1
  Ba  Ba13  1  0.90843025  0.65823091  0.89685143  1
  Ba  Ba14  1  0.09156975  0.34176909  0.39685143  1
  Ba  Ba15  1  0.59156975  0.15823091  0.10314857  1
  Ba  Ba16  1  0.59156975  0.15823091  0.39685143  1
  Ba  Ba17  1  0.09156975  0.34176909  0.10314857  1
  Ba  Ba18  1  0.90843025  0.65823091  0.60314857  1
  Ba  Ba19  1  0.40843025  0.84176909  0.89685143  1
  P  P0  1  0.35388252  0.41159420  0.25000000  1
  P  P1  1  0.85388252  0.08840580  0.25000000  1
  P  P2  1  0.14611748  0.91159420  0.75000000  1
  P  P3  1  0.64611748  0.58840580  0.75000000  1
  P  P4  1  0.16028175  0.60102227  0.25000000  1
  P  P5  1  0.66028175  0.89897773  0.25000000  1
  P  P6  1  0.33971825  0.10102227  0.75000000  1
  P  P7  1  0.83971825  0.39897773  0.75000000  1
  P  P8  1  0.74601304  0.99261670  0.94721933  1
  P  P9  1  0.24601304  0.50738330  0.55278067  1
  P  P10  1  0.75398696  0.49261670  0.05278067  1
  P  P11  1  0.25398696  0.00738330  0.44721933  1
  P  P12  1  0.25398696  0.00738330  0.05278067  1
  P  P13  1  0.75398696  0.49261670  0.44721933  1
  P  P14  1  0.24601304  0.50738330  0.94721933  1
  P  P15  1  0.74601304  0.99261670  0.55278067  1
loop_
_geom_bond_atom_site_label_1
_geom_bond_atom_site_label_2
_geom_bond_distance
_geom_bond_site_symmetry_2
Ba0 P15 3.298254 1_555
Ba0 P8 3.298254 1_555
Ba0 P2 3.452502 1_655
Ba0 P7 3.521786 1_565
Ba0 P6 3.536042 1_565
Ba0 P3 3.571291 1_555
Ba1 P9 3.298254 1_555
Ba1 P14 3.298254 1_555
Ba1 P3 3.452502 1_555
Ba1 P6 3.521786 1_555
Ba1 P7 3.536042 1_455
Ba1 P2 3.571291 1_555
Ba2 P10 3.298254 1_555
Ba2 P13 3.298254 1_555
Ba2 P0 3.452502 1_555
Ba2 P5 3.521786 1_555
Ba2 P4 3.536042 1_655
Ba2 P1 3.571291 1_555
Ba3 P12 3.298254 1_555
Ba3 P11 3.298254 1_555
Ba3 P1 3.452502 1_455
Ba3 P4 3.521786 1_545
Ba3 P5 3.536042 1_545
Ba3 P0 3.571291 1_555
Ba4 P14 3.233618 1_555
Ba4 P10 3.301409 1_556
Ba4 P8 3.350579 1_545
Ba4 P3 3.351287 1_555
Ba4 P7 3.392473 1_555
Ba4 P6 3.724014 1_555
Ba5 P15 3.233618 1_445
Ba5 P11 3.301409 1_555
Ba5 P9 3.350579 1_555
Ba5 P2 3.351287 1_545
Ba5 P6 3.392473 1_555
Ba5 P7 3.724014 1_455
Ba6 P12 3.233618 1_665
Ba6 P8 3.301409 1_554
Ba6 P10 3.350579 1_555
Ba6 P1 3.351287 1_565
Ba6 P5 3.392473 1_555
Ba6 P4 3.724014 1_655
Ba7 P13 3.233618 1_555
Ba7 P9 3.301409 1_555
Ba7 P11 3.350579 1_565
Ba7 P0 3.351287 1_555
Ba7 P4 3.392473 1_555
Ba7 P5 3.724014 1_555
Ba8 P10 3.233618 1_555
Ba8 P14 3.301409 1_554
Ba8 P12 3.350579 1_565
Ba8 P0 3.351287 1_555
Ba8 P4 3.392473 1_555
Ba8 P5 3.724014 1_555
Ba9 P11 3.233618 1_665
Ba9 P15 3.301409 1_555
Ba9 P13 3.350579 1_555
Ba9 P1 3.351287 1_565
Ba9 P5 3.392473 1_555
Ba9 P4 3.724014 1_655
Ba10 P8 3.233618 1_445
Ba10 P12 3.301409 1_556
Ba10 P14 3.350579 1_555
Ba10 P2 3.351287 1_545
Ba10 P6 3.392473 1_555
Ba10 P7 3.724014 1_455
Ba11 P9 3.233618 1_555
Ba11 P13 3.301409 1_555
Ba11 P15 3.350579 1_545
Ba11 P3 3.351287 1_555
Ba11 P7 3.392473 1_555
Ba11 P6 3.724014 1_555
Ba12 P15 3.233940 1_555
Ba12 P11 3.237877 1_565
Ba12 P9 3.269980 1_555
Ba12 P6 3.352716 1_565
Ba12 P2 3.357741 1_555
Ba12 P3 3.834196 1_555
Ba13 P14 3.233940 1_655
Ba13 P10 3.237877 1_556
Ba13 P8 3.269980 1_555
Ba13 P7 3.352716 1_555
Ba13 P3 3.357741 1_555
Ba13 P2 3.834196 1_655
Ba14 P13 3.233940 1_455
Ba14 P9 3.237877 1_555
Ba14 P11 3.269980 1_555
Ba14 P4 3.352716 1_555
Ba14 P0 3.357741 1_555
Ba14 P1 3.834196 1_455
Ba15 P12 3.233940 1_555
Ba15 P8 3.237877 1_544
Ba15 P10 3.269980 1_555
Ba15 P5 3.352716 1_545
Ba15 P1 3.357741 1_555
Ba15 P0 3.834196 1_555
Ba16 P11 3.233940 1_555
Ba16 P15 3.237877 1_545
Ba16 P13 3.269980 1_555
Ba16 P5 3.352716 1_545
Ba16 P1 3.357741 1_555
Ba16 P0 3.834196 1_555
Ba17 P10 3.233940 1_455
Ba17 P14 3.237877 1_554
Ba17 P12 3.269980 1_555
Ba17 P4 3.352716 1_555
Ba17 P0 3.357741 1_555
Ba17 P1 3.834196 1_455
Ba18 P9 3.233940 1_655
Ba18 P13 3.237877 1_555
Ba18 P15 3.269980 1_555
Ba18 P7 3.352716 1_555
Ba18 P3 3.357741 1_555
Ba18 P2 3.834196 1_655
Ba19 P8 3.233940 1_555
Ba19 P12 3.237877 1_566
Ba19 P14 3.269980 1_555
Ba19 P6 3.352716 1_565
Ba19 P2 3.357741 1_555
Ba19 P3 3.834196 1_555
P0 P4 2.294734 1_555
P1 P5 2.294734 1_545
P2 P6 2.294734 1_565
P3 P7 2.294734 1_555
