# generated using pymatgen
data_Sr2CaMoO6
_symmetry_space_group_name_H-M   'P 1'
_cell_length_a   5.81094700
_cell_length_b   6.13299000
_cell_length_c   8.33586300
_cell_angle_alpha   90.00000000
_cell_angle_beta   90.00000000
_cell_angle_gamma   90.00000000
_symmetry_Int_Tables_number   1
_chemical_formula_structural   Sr2CaMoO6
_chemical_formula_sum   'Sr4 Ca2 Mo2 O12'
_cell_volume   297.07748549
_cell_formula_units_Z   2
loop_
 _symmetry_equiv_pos_site_id
 _symmetry_equiv_pos_as_xyz
  1  'x, y, z'
loop_
 _atom_site_type_symbol
 _atom_site_label
 _atom_site_symmetry_multiplicity
 _atom_site_fract_x
 _atom_site_fract_y
 _atom_site_fract_z
 _atom_site_occupancy
  Sr  Sr0  1  0.50000000  0.80315400  0.76849100  1
  Sr  Sr1  1  0.00000000  0.19684600  0.26849100  1
  Sr  Sr2  1  0.50000000  0.80315400  0.23150900  1
  Sr  Sr3  1  0.00000000  0.19684600  0.73150900  1
  Ca  Ca0  1  0.00000000  0.72166400  0.50000000  1
  Ca  Ca1  1  0.50000000  0.27833600  0.00000000  1
  Mo  Mo0  1  0.50000000  0.23532900  0.50000000  1
  Mo  Mo1  1  0.00000000  0.76467100  0.00000000  1
  O  O0  1  0.50000000  0.21776300  0.73243900  1
  O  O1  1  0.50000000  0.21776300  0.26756100  1
  O  O2  1  0.00000000  0.78223700  0.76756100  1
  O  O3  1  0.00000000  0.78223700  0.23243900  1
  O  O4  1  0.74694900  0.43754300  0.50000000  1
  O  O5  1  0.25305100  0.43754300  0.50000000  1
  O  O6  1  0.73150200  0.99367700  0.50000000  1
  O  O7  1  0.26849800  0.99367700  0.50000000  1
  O  O8  1  0.24694900  0.56245700  0.00000000  1
  O  O9  1  0.75305100  0.56245700  0.00000000  1
  O  O10  1  0.76849800  0.00632300  0.00000000  1
  O  O11  1  0.23150200  0.00632300  0.00000000  1
loop_
_geom_bond_atom_site_label_1
_geom_bond_atom_site_label_2
_geom_bond_distance
_geom_bond_site_symmetry_2
Ca0 O3 2.261079 1_555
Ca0 O2 2.261079 1_555
Ca0 O5 2.280047 1_555
Ca0 O4 2.280047 1_455
Ca0 O6 2.284158 1_455
Ca0 O7 2.284158 1_555
Ca1 O1 2.261079 1_555
Ca1 O0 2.261079 1_554
Ca1 O8 2.280047 1_555
Ca1 O9 2.280047 1_555
Ca1 O10 2.284158 1_555
Ca1 O11 2.284158 1_555
Mo0 O4 1.896651 1_555
Mo0 O5 1.896651 1_555
Mo0 O0 1.940572 1_555
Mo0 O1 1.940572 1_555
Mo0 O6 2.001539 1_545
Mo0 O7 2.001539 1_545
Mo1 O9 1.896651 1_455
Mo1 O8 1.896651 1_555
Mo1 O2 1.940572 1_554
Mo1 O3 1.940572 1_555
Mo1 O10 2.001539 1_465
Mo1 O11 2.001539 1_565
O0 Sr0 2.560490 1_545
O0 Sr3 2.908314 1_555
O0 Sr3 2.908314 1_655
O1 Sr2 2.560490 1_545
O1 Sr1 2.908314 1_655
O1 Sr1 2.908314 1_555
O2 Sr3 2.560490 1_565
O2 Sr0 2.908314 1_555
O2 Sr0 2.908314 1_455
O3 Sr1 2.560490 1_565
O3 Sr2 2.908314 1_455
O3 Sr2 2.908314 1_555
O4 Sr3 2.840008 1_655
O4 Sr1 2.840008 1_655
O5 Sr3 2.840008 1_555
O5 Sr1 2.840008 1_555
O6 Sr3 2.776895 1_665
O6 Sr1 2.776895 1_665
O6 Sr2 2.860792 1_555
O6 Sr0 2.860792 1_555
O7 Sr3 2.776895 1_565
O7 Sr1 2.776895 1_565
O7 Sr2 2.860792 1_555
O7 Sr0 2.860792 1_555
O8 Sr0 2.840008 1_554
O8 Sr2 2.840008 1_555
O9 Sr0 2.840008 1_554
O9 Sr2 2.840008 1_555
O10 Sr2 2.776895 1_545
O10 Sr0 2.776895 1_544
O10 Sr1 2.860792 1_655
O10 Sr3 2.860792 1_654
O11 Sr2 2.776895 1_545
O11 Sr0 2.776895 1_544
O11 Sr1 2.860792 1_555
O11 Sr3 2.860792 1_554
