# generated using pymatgen
data_Sr4LiY2(RuO6)2
_symmetry_space_group_name_H-M   'P 1'
_cell_length_a   5.93584380
_cell_length_b   5.91191493
_cell_length_c   8.28605511
_cell_angle_alpha   89.89134978
_cell_angle_beta   90.35208166
_cell_angle_gamma   90.71288483
_symmetry_Int_Tables_number   1
_chemical_formula_structural   Sr4LiY2(RuO6)2
_chemical_formula_sum   'Sr4 Li1 Y2 Ru2 O12'
_cell_volume   290.74745456
_cell_formula_units_Z   1
loop_
 _symmetry_equiv_pos_site_id
 _symmetry_equiv_pos_as_xyz
  1  'x, y, z'
loop_
 _atom_site_type_symbol
 _atom_site_label
 _atom_site_symmetry_multiplicity
 _atom_site_fract_x
 _atom_site_fract_y
 _atom_site_fract_z
 _atom_site_occupancy
  Sr  Sr0  1  0.49808600  0.57775300  0.24574400  1
  Sr  Sr1  1  0.04257600  0.96938200  0.27090700  1
  Sr  Sr2  1  0.00730700  0.95835000  0.75260400  1
  Sr  Sr3  1  0.48746500  0.46701500  0.75746100  1
  Li  Li0  1  0.67334000  0.18410700  0.23534700  1
  Y  Y0  1  0.50360500  0.99821900  0.51375500  1
  Y  Y1  1  0.99682500  0.49162500  0.00008600  1
  Ru  Ru0  1  0.49654300  0.00184400  0.99409800  1
  Ru  Ru1  1  0.99859000  0.49298100  0.49947200  1
  O  O0  1  0.92333900  0.50319400  0.73149500  1
  O  O1  1  0.58010300  0.02231000  0.76721300  1
  O  O2  1  0.07429600  0.50138900  0.26513200  1
  O  O3  1  0.44033400  0.98637400  0.24121200  1
  O  O4  1  0.79187700  0.76147000  0.46676500  1
  O  O5  1  0.67549000  0.29909200  0.03562300  1
  O  O6  1  0.20067200  0.22676200  0.53894500  1
  O  O7  1  0.30027200  0.72338800  0.96286800  1
  O  O8  1  0.22358000  0.19200600  0.96253200  1
  O  O9  1  0.26020900  0.70848500  0.53646900  1
  O  O10  1  0.77626600  0.81575400  0.03946700  1
  O  O11  1  0.73672400  0.28516800  0.44061500  1
loop_
_geom_bond_atom_site_label_1
_geom_bond_atom_site_label_2
_geom_bond_distance
_geom_bond_site_symmetry_2
Li0 O5 1.787964 1_555
Li0 O3 1.800607 1_545
Li0 O11 1.838979 1_555
Li0 Sr1 2.561608 1_645
O0 Ru1 1.977638 1_555
O0 Y1 2.266341 1_556
O0 Sr3 2.603642 1_555
O0 Sr2 2.736238 1_655
O1 Ru0 1.950407 1_555
O1 Y0 2.150577 1_545
O1 Sr2 2.572120 1_645
O1 Sr3 2.693598 1_555
O2 Ru1 1.996152 1_455
O2 Y1 2.241749 1_455
O2 Sr0 2.556179 1_555
O2 Sr1 2.775993 1_555
O2 Sr1 3.148762 1_545
O3 Ru0 2.078287 1_564
O3 Y0 2.288105 1_555
O3 Sr1 2.376181 1_555
O3 Sr0 2.444339 1_555
O4 Ru1 2.035002 1_555
O4 Y0 2.260185 1_555
O4 Sr1 2.517076 1_655
O4 Sr0 2.737881 1_555
O4 Sr2 2.921619 1_655
O5 Ru0 2.070298 1_554
O5 Y1 2.229811 1_555
O5 Sr0 2.632643 1_555
O5 Sr3 2.744245 1_554
O6 Ru1 2.015712 1_455
O6 Y0 2.273464 1_545
O6 Sr2 2.634144 1_545
O6 Sr1 2.842598 1_545
O6 Sr3 2.847023 1_555
O7 Ru0 2.021004 1_565
O7 Y1 2.271703 1_456
O7 Sr3 2.550225 1_555
O7 Sr0 2.756390 1_556
O7 Sr2 2.828921 1_555
O8 Ru0 1.999137 1_555
O8 Y1 2.261116 1_456
O8 Sr2 2.553331 1_545
O8 Sr3 2.818353 1_555
O8 Sr1 3.066183 1_546
O9 Ru1 2.018700 1_455
O9 Y0 2.235456 1_555
O9 Sr3 2.686698 1_555
O9 Sr2 2.782306 1_555
O9 Sr0 2.910362 1_555
O9 Sr1 2.981886 1_555
O10 Ru0 2.035870 1_564
O10 Y1 2.358486 1_555
O10 Sr1 2.633445 1_655
O10 Sr0 2.755999 1_555
O10 Sr2 2.871432 1_654
O11 Ru1 2.027022 1_555
O11 Y0 2.260067 1_545
O11 Sr0 2.761897 1_555
O11 Sr1 2.980674 1_645
