# generated using pymatgen
data_TiCrCuS4
_symmetry_space_group_name_H-M   'P 1'
_cell_length_a   6.91194712
_cell_length_b   5.85529966
_cell_length_c   5.90182190
_cell_angle_alpha   92.62561457
_cell_angle_beta   90.00080084
_cell_angle_gamma   89.99815787
_symmetry_Int_Tables_number   1
_chemical_formula_structural   TiCrCuS4
_chemical_formula_sum   'Ti2 Cr2 Cu2 S8'
_cell_volume   238.60495903
_cell_formula_units_Z   2
loop_
 _symmetry_equiv_pos_site_id
 _symmetry_equiv_pos_as_xyz
  1  'x, y, z'
loop_
 _atom_site_type_symbol
 _atom_site_label
 _atom_site_symmetry_multiplicity
 _atom_site_fract_x
 _atom_site_fract_y
 _atom_site_fract_z
 _atom_site_occupancy
  Ti  Ti0  1  0.25001600  0.50000200  0.49999000  1
  Ti  Ti1  1  0.75002600  0.50000200  0.49999100  1
  Cr  Cr0  1  0.00000700  0.99996500  0.49991200  1
  Cr  Cr1  1  0.49992500  0.99999300  0.50006300  1
  Cu  Cu0  1  0.00002600  0.00000900  0.99998500  1
  Cu  Cu1  1  0.50001700  0.99999800  0.00001000  1
  S  S0  1  0.00002100  0.32220200  0.26263800  1
  S  S1  1  0.50002000  0.32214200  0.26270500  1
  S  S2  1  0.25001700  0.82880200  0.26196700  1
  S  S3  1  0.74993900  0.82879600  0.26195000  1
  S  S4  1  0.24997300  0.17121600  0.73805500  1
  S  S5  1  0.74998400  0.17122200  0.73806900  1
  S  S6  1  0.50001300  0.67782400  0.73733900  1
  S  S7  1  0.00001700  0.67782800  0.73732800  1
loop_
_geom_bond_atom_site_label_1
_geom_bond_atom_site_label_2
_geom_bond_distance
_geom_bond_site_symmetry_2
Cr0 S0 2.400634 1_565
Cr0 S7 2.400677 1_555
Cr0 S2 2.415305 1_555
Cr0 S3 2.415680 1_455
Cr0 S4 2.415963 1_565
Cr0 S5 2.416287 1_465
Cr1 S6 2.400318 1_555
Cr1 S1 2.400522 1_565
Cr1 S4 2.415311 1_565
Cr1 S2 2.415384 1_555
Cr1 S5 2.415918 1_565
Cr1 S3 2.415960 1_555
Cu0 S7 2.386171 1_545
Cu0 S0 2.386210 1_556
Cu0 S4 2.553718 1_555
Cu0 S2 2.554043 1_546
Cu0 S5 2.554053 1_455
Cu0 S3 2.554517 1_446
Cu1 S1 2.386144 1_565
Cu1 S6 2.386190 1_554
Cu1 S3 2.553553 1_555
Cu1 S5 2.553894 1_564
Cu1 S2 2.554038 1_555
Cu1 S4 2.554218 1_564
S0 Ti1 2.428636 1_455
S0 Ti0 2.428652 1_555
S1 Ti0 2.428598 1_555
S1 Ti1 2.428631 1_555
S2 Ti0 2.434675 1_555
S3 Ti1 2.434711 1_555
S4 Ti0 2.434760 1_555
S5 Ti1 2.434778 1_555
S6 Ti0 2.428704 1_555
S6 Ti1 2.428760 1_555
S7 Ti1 2.428645 1_455
S7 Ti0 2.428668 1_555
