# generated using pymatgen
data_KY(CuO2)2
_symmetry_space_group_name_H-M   'P 1'
_cell_length_a   3.88063200
_cell_length_b   3.88063200
_cell_length_c   7.18106500
_cell_angle_alpha   90.00000000
_cell_angle_beta   90.00000000
_cell_angle_gamma   90.00000000
_symmetry_Int_Tables_number   1
_chemical_formula_structural   KY(CuO2)2
_chemical_formula_sum   'K1 Y1 Cu2 O4'
_cell_volume   108.14184604
_cell_formula_units_Z   1
loop_
 _symmetry_equiv_pos_site_id
 _symmetry_equiv_pos_as_xyz
  1  'x, y, z'
loop_
 _atom_site_type_symbol
 _atom_site_label
 _atom_site_symmetry_multiplicity
 _atom_site_fract_x
 _atom_site_fract_y
 _atom_site_fract_z
 _atom_site_occupancy
  K  K0  1  0.00000000  0.00000000  0.00000000  1
  Y  Y0  1  0.00000000  0.00000000  0.50000000  1
  Cu  Cu0  1  0.50000000  0.50000000  0.72299200  1
  Cu  Cu1  1  0.50000000  0.50000000  0.27700800  1
  O  O0  1  0.00000000  0.50000000  0.70014400  1
  O  O1  1  0.50000000  0.00000000  0.70014400  1
  O  O2  1  0.00000000  0.50000000  0.29985600  1
  O  O3  1  0.50000000  0.00000000  0.29985600  1
loop_
_geom_bond_atom_site_label_1
_geom_bond_atom_site_label_2
_geom_bond_distance
_geom_bond_site_symmetry_2
K0 O1 2.898528 1_554
K0 O0 2.898528 1_544
K0 O3 2.898528 1_455
K0 O1 2.898528 1_454
K0 O3 2.898528 1_555
K0 O2 2.898528 1_555
K0 O0 2.898528 1_554
K0 O2 2.898528 1_545
Cu0 O1 1.947241 1_555
Cu0 O1 1.947241 1_565
Cu0 O0 1.947241 1_655
Cu0 O0 1.947241 1_555
Cu1 O3 1.947241 1_565
Cu1 O3 1.947241 1_555
Cu1 O2 1.947241 1_555
Cu1 O2 1.947241 1_655
O0 Y0 2.414644 1_565
O0 Y0 2.414644 1_555
O1 Y0 2.414644 1_555
O1 Y0 2.414644 1_655
O2 Y0 2.414644 1_565
O2 Y0 2.414644 1_555
O3 Y0 2.414644 1_555
O3 Y0 2.414644 1_655
