# generated using pymatgen
data_Li3VAs2O9
_symmetry_space_group_name_H-M   'P 1'
_cell_length_a   8.83467800
_cell_length_b   8.99593500
_cell_length_c   9.94658700
_cell_angle_alpha   90.00000000
_cell_angle_beta   90.00000000
_cell_angle_gamma   90.00000000
_symmetry_Int_Tables_number   1
_chemical_formula_structural   Li3VAs2O9
_chemical_formula_sum   'Li12 V4 As8 O36'
_cell_volume   790.51682865
_cell_formula_units_Z   4
loop_
 _symmetry_equiv_pos_site_id
 _symmetry_equiv_pos_as_xyz
  1  'x, y, z'
loop_
 _atom_site_type_symbol
 _atom_site_label
 _atom_site_symmetry_multiplicity
 _atom_site_fract_x
 _atom_site_fract_y
 _atom_site_fract_z
 _atom_site_occupancy
  Li  Li0  1  0.12186500  0.83538000  0.65681100  1
  Li  Li1  1  0.12186500  0.66462000  0.15681100  1
  Li  Li2  1  0.34398700  0.63157300  0.34187100  1
  Li  Li3  1  0.34398700  0.86842700  0.84187100  1
  Li  Li4  1  0.36580400  0.64881700  0.66668600  1
  Li  Li5  1  0.36580400  0.85118300  0.16668600  1
  Li  Li6  1  0.62186500  0.16462000  0.34318900  1
  Li  Li7  1  0.62186500  0.33538000  0.84318900  1
  Li  Li8  1  0.84398700  0.13157300  0.15812900  1
  Li  Li9  1  0.84398700  0.36842700  0.65812900  1
  Li  Li10  1  0.86580400  0.35118300  0.33331400  1
  Li  Li11  1  0.86580400  0.14881700  0.83331400  1
  V  V0  1  0.24776400  0.24775700  0.43183000  1
  V  V1  1  0.24776400  0.25224300  0.93183000  1
  V  V2  1  0.74776400  0.75224300  0.56817000  1
  V  V3  1  0.74776400  0.74775700  0.06817000  1
  As  As0  1  0.06367100  0.93905600  0.99305200  1
  As  As1  1  0.06367100  0.56094400  0.49305200  1
  As  As2  1  0.43704200  0.56410500  0.99823400  1
  As  As3  1  0.43704200  0.93589500  0.49823400  1
  As  As4  1  0.56367100  0.06094400  0.00694800  1
  As  As5  1  0.56367100  0.43905600  0.50694800  1
  As  As6  1  0.93704200  0.06410500  0.50176600  1
  As  As7  1  0.93704200  0.43589500  0.00176600  1
  O  O0  1  0.06841600  0.36479200  0.47855600  1
  O  O1  1  0.06841600  0.13520800  0.97855600  1
  O  O2  1  0.15241400  0.87675100  0.13082700  1
  O  O3  1  0.15241400  0.62324900  0.63082700  1
  O  O4  1  0.12001000  0.87142000  0.84453100  1
  O  O5  1  0.12001000  0.62858000  0.34453100  1
  O  O6  1  0.13507400  0.08092100  0.48325600  1
  O  O7  1  0.13507400  0.41907900  0.98325600  1
  O  O8  1  0.24325400  0.25071000  0.27030600  1
  O  O9  1  0.24325400  0.24929000  0.77030600  1
  O  O10  1  0.36662800  0.07650000  0.97696800  1
  O  O11  1  0.36662800  0.42350000  0.47696800  1
  O  O12  1  0.38705600  0.65441900  0.85762900  1
  O  O13  1  0.38705600  0.84558100  0.35762900  1
  O  O14  1  0.35222100  0.87659400  0.64118300  1
  O  O15  1  0.35222100  0.62340600  0.14118300  1
  O  O16  1  0.42810400  0.12945700  0.46953200  1
  O  O17  1  0.42810400  0.37054300  0.96953200  1
  O  O18  1  0.56841600  0.63520800  0.52144400  1
  O  O19  1  0.56841600  0.86479200  0.02144400  1
  O  O20  1  0.65241400  0.37675100  0.36917300  1
  O  O21  1  0.65241400  0.12324900  0.86917300  1
  O  O22  1  0.62001000  0.12858000  0.15546900  1
  O  O23  1  0.62001000  0.37142000  0.65546900  1
  O  O24  1  0.63507400  0.58092100  0.01674400  1
  O  O25  1  0.63507400  0.91907900  0.51674400  1
  O  O26  1  0.74325400  0.75071000  0.22969400  1
  O  O27  1  0.74325400  0.74929000  0.72969400  1
  O  O28  1  0.86662800  0.57650000  0.52303200  1
  O  O29  1  0.86662800  0.92350000  0.02303200  1
  O  O30  1  0.88705600  0.15441900  0.64237100  1
  O  O31  1  0.88705600  0.34558100  0.14237100  1
  O  O32  1  0.85222100  0.12340600  0.35881700  1
  O  O33  1  0.85222100  0.37659400  0.85881700  1
  O  O34  1  0.92810400  0.62945700  0.03046800  1
  O  O35  1  0.92810400  0.87054300  0.53046800  1
loop_
_geom_bond_atom_site_label_1
_geom_bond_atom_site_label_2
_geom_bond_distance
_geom_bond_site_symmetry_2
Li0 O4 1.895183 1_555
Li0 O3 1.944559 1_555
Li0 O14 2.074450 1_555
Li0 O35 2.147003 1_455
Li1 O5 1.895183 1_555
Li1 O2 1.944559 1_555
Li1 O15 2.074450 1_555
Li1 O34 2.147003 1_455
Li2 O13 1.968693 1_555
Li2 O5 1.979125 1_555
Li2 O15 1.998836 1_555
Li2 O11 2.312869 1_555
Li3 O12 1.968693 1_555
Li3 O4 1.979125 1_555
Li3 O14 1.998836 1_555
Li3 O10 2.312869 1_565
Li4 O12 1.909154 1_555
Li4 O3 1.932413 1_555
Li4 O14 2.068193 1_555
Li4 O18 2.303515 1_555
Li5 O13 1.909154 1_555
Li5 O2 1.932413 1_555
Li5 O15 2.068193 1_555
Li5 O19 2.303515 1_555
Li6 O22 1.895183 1_555
Li6 O20 1.944559 1_555
Li6 O32 2.074450 1_555
Li6 O16 2.147003 1_555
Li7 O23 1.895183 1_555
Li7 O21 1.944559 1_555
Li7 O33 2.074450 1_555
Li7 O17 2.147003 1_555
Li8 O31 1.968693 1_555
Li8 O22 1.979125 1_555
Li8 O32 1.998836 1_555
Li8 O29 2.312869 1_545
Li9 O30 1.968693 1_555
Li9 O23 1.979125 1_555
Li9 O33 1.998836 1_555
Li9 O28 2.312869 1_555
Li10 O31 1.909154 1_555
Li10 O20 1.932413 1_555
Li10 O32 2.068193 1_555
Li10 O0 2.303515 1_655
Li11 O30 1.909154 1_555
Li11 O21 1.932413 1_555
Li11 O33 2.068193 1_555
Li11 O1 2.303515 1_655
As0 O4 1.673410 1_555
As0 O2 1.675352 1_556
As0 O1 1.770948 1_565
As0 O29 1.771703 1_456
As1 O5 1.673410 1_555
As1 O3 1.675352 1_555
As1 O0 1.770948 1_555
As1 O28 1.771703 1_455
As2 O12 1.676610 1_555
As2 O15 1.693461 1_556
As2 O24 1.765702 1_556
As2 O17 1.766285 1_555
As3 O13 1.676610 1_555
As3 O14 1.693461 1_555
As3 O25 1.765702 1_555
As3 O16 1.766285 1_565
As4 O22 1.673410 1_555
As4 O21 1.675352 1_554
As4 O19 1.770948 1_545
As4 O10 1.771703 1_554
As5 O23 1.673410 1_555
As5 O20 1.675352 1_555
As5 O18 1.770948 1_555
As5 O11 1.771703 1_555
As6 O30 1.676610 1_555
As6 O32 1.693461 1_555
As6 O6 1.765702 1_655
As6 O35 1.766285 1_545
As7 O31 1.676610 1_555
As7 O33 1.693461 1_554
As7 O7 1.765702 1_654
As7 O34 1.766285 1_555
O0 V0 1.958331 1_555
O1 V1 1.958331 1_555
O6 V0 1.872262 1_555
O7 V1 1.872262 1_555
O8 V0 1.607326 1_555
O9 V1 1.607326 1_555
O10 V1 1.950336 1_555
O11 V0 1.950336 1_555
O16 V0 1.952338 1_555
O17 V1 1.952338 1_555
O18 V2 1.958331 1_555
O19 V3 1.958331 1_555
O24 V3 1.872262 1_555
O25 V2 1.872262 1_555
O26 V3 1.607326 1_555
O27 V2 1.607326 1_555
O28 V2 1.950336 1_555
O29 V3 1.950336 1_555
O34 V3 1.952338 1_555
O35 V2 1.952338 1_555
