# generated using pymatgen
data_YInPdAu
_symmetry_space_group_name_H-M   'P 1'
_cell_length_a   4.89124570
_cell_length_b   4.89124570
_cell_length_c   4.89124570
_cell_angle_alpha   60.00000000
_cell_angle_beta   60.00000000
_cell_angle_gamma   60.00000000
_symmetry_Int_Tables_number   1
_chemical_formula_structural   YInPdAu
_chemical_formula_sum   'Y1 In1 Pd1 Au1'
_cell_volume   82.74531973
_cell_formula_units_Z   1
loop_
 _symmetry_equiv_pos_site_id
 _symmetry_equiv_pos_as_xyz
  1  'x, y, z'
loop_
 _atom_site_type_symbol
 _atom_site_label
 _atom_site_symmetry_multiplicity
 _atom_site_fract_x
 _atom_site_fract_y
 _atom_site_fract_z
 _atom_site_occupancy
  Y  Y0  1  0.00000000  0.00000000  0.00000000  1
  In  In0  1  0.50000000  0.50000000  0.50000000  1
  Pd  Pd0  1  0.25000000  0.25000000  0.25000000  1
  Au  Au0  1  0.75000000  0.75000000  0.75000000  1
loop_
_geom_bond_atom_site_label_1
_geom_bond_atom_site_label_2
_geom_bond_distance
_geom_bond_site_symmetry_2
In0 Pd0 2.995264 1_565
In0 Pd0 2.995264 1_655
In0 Pd0 2.995264 1_556
In0 Pd0 2.995264 1_555
Pd0 Y0 2.995264 1_655
Pd0 Y0 2.995264 1_556
Pd0 Y0 2.995264 1_555
Pd0 Y0 2.995264 1_565
Au0 In0 2.995264 1_555
Au0 Y0 2.995264 1_666
Au0 In0 2.995264 1_655
Au0 In0 2.995264 1_565
Au0 Y0 2.995264 1_566
Au0 Y0 2.995264 1_656
Au0 Y0 2.995264 1_665
Au0 In0 2.995264 1_556
