# generated using pymatgen
data_Sr(As3Pt2)2
_symmetry_space_group_name_H-M   'P 1'
_cell_length_a   6.01784081
_cell_length_b   6.01784081
_cell_length_c   12.03799329
_cell_angle_alpha   89.33006438
_cell_angle_beta   89.33006438
_cell_angle_gamma   88.19257637
_symmetry_Int_Tables_number   1
_chemical_formula_structural   Sr(As3Pt2)2
_chemical_formula_sum   'Sr2 As12 Pt8'
_cell_volume   435.67415636
_cell_formula_units_Z   2
loop_
 _symmetry_equiv_pos_site_id
 _symmetry_equiv_pos_as_xyz
  1  'x, y, z'
loop_
 _atom_site_type_symbol
 _atom_site_label
 _atom_site_symmetry_multiplicity
 _atom_site_fract_x
 _atom_site_fract_y
 _atom_site_fract_z
 _atom_site_occupancy
  Sr  Sr0  1  0.59632981  0.40367019  0.25000000  1
  Sr  Sr1  1  0.40367019  0.59632981  0.75000000  1
  As  As0  1  0.86424122  0.90414501  0.69185953  1
  As  As1  1  0.09585499  0.13575878  0.80814047  1
  As  As2  1  0.13575878  0.09585499  0.30814047  1
  As  As3  1  0.90414501  0.86424122  0.19185953  1
  As  As4  1  0.11989879  0.37713793  0.05619239  1
  As  As5  1  0.62286207  0.88010121  0.44380761  1
  As  As6  1  0.88010121  0.62286207  0.94380761  1
  As  As7  1  0.37713793  0.11989879  0.55619239  1
  As  As8  1  0.61505261  0.12296486  0.94546679  1
  As  As9  1  0.87703514  0.38494739  0.55453321  1
  As  As10  1  0.12296486  0.61505261  0.44546679  1
  As  As11  1  0.38494739  0.87703514  0.05453321  1
  Pt  Pt0  1  0.07639666  0.49349034  0.25028395  1
  Pt  Pt1  1  0.50650966  0.92360334  0.24971605  1
  Pt  Pt2  1  0.50000000  0.50000000  0.50000000  1
  Pt  Pt3  1  0.50000000  0.50000000  -0.00000000  1
  Pt  Pt4  1  0.00000000  0.00000000  0.50000000  1
  Pt  Pt5  1  0.00000000  0.00000000  -0.00000000  1
  Pt  Pt6  1  0.49349034  0.07639666  0.75028395  1
  Pt  Pt7  1  0.92360334  0.50650966  0.74971605  1
loop_
_geom_bond_atom_site_label_1
_geom_bond_atom_site_label_2
_geom_bond_distance
_geom_bond_site_symmetry_2
As0 As1 2.461432 1_665
As0 Pt7 2.500323 1_555
As0 Pt4 2.507770 1_665
As0 Pt6 2.526166 1_565
As1 Pt6 2.500323 1_555
As1 Pt5 2.507770 1_556
As1 Pt7 2.526166 1_455
As2 As3 2.461432 1_445
As2 Pt0 2.500323 1_555
As2 Pt4 2.507770 1_555
As2 Pt1 2.526166 1_545
As3 Pt1 2.500323 1_555
As3 Pt5 2.507770 1_665
As3 Pt0 2.526166 1_655
As4 As6 2.442056 1_454
As4 Pt0 2.455666 1_555
As4 Pt5 2.505929 1_555
As4 Pt3 2.509021 1_555
As5 As7 2.442056 1_565
As5 Pt1 2.455666 1_555
As5 Pt4 2.505929 1_665
As5 Pt2 2.509021 1_555
As6 Pt7 2.455666 1_555
As6 Pt5 2.505929 1_666
As6 Pt3 2.509021 1_556
As7 Pt6 2.455666 1_555
As7 Pt4 2.505929 1_555
As7 Pt2 2.509021 1_555
As8 Pt3 2.446122 1_556
As8 Pt6 2.490558 1_555
As8 Pt5 2.502201 1_656
As9 Pt2 2.446122 1_555
As9 Pt7 2.490558 1_555
As9 Pt4 2.502201 1_655
As10 As9 2.423413 1_455
As10 Pt2 2.446122 1_555
As10 Pt0 2.490558 1_555
As10 Pt4 2.502201 1_565
As11 As8 2.423413 1_564
As11 Pt3 2.446122 1_555
As11 Pt1 2.490558 1_555
As11 Pt5 2.502201 1_565
Pt0 Sr0 2.955855 1_455
Pt0 Sr0 3.158345 1_555
Pt1 Sr0 2.955855 1_565
Pt1 Sr0 3.158345 1_555
Pt2 Sr1 3.115763 1_555
Pt2 Sr0 3.115763 1_555
Pt3 Sr1 3.115763 1_554
Pt3 Sr0 3.115763 1_555
Pt6 Sr1 2.955855 1_545
Pt6 Sr1 3.158345 1_555
Pt7 Sr1 2.955855 1_655
Pt7 Sr1 3.158345 1_555
