# generated using pymatgen
data_Tb3GaFeS7
_symmetry_space_group_name_H-M   'P 1'
_cell_length_a   9.66974404
_cell_length_b   9.66974404
_cell_length_c   6.13988800
_cell_angle_alpha   90.00000000
_cell_angle_beta   90.00000000
_cell_angle_gamma   120.00000028
_symmetry_Int_Tables_number   1
_chemical_formula_structural   Tb3GaFeS7
_chemical_formula_sum   'Tb6 Ga2 Fe2 S14'
_cell_volume   497.18845603
_cell_formula_units_Z   2
loop_
 _symmetry_equiv_pos_site_id
 _symmetry_equiv_pos_as_xyz
  1  'x, y, z'
loop_
 _atom_site_type_symbol
 _atom_site_label
 _atom_site_symmetry_multiplicity
 _atom_site_fract_x
 _atom_site_fract_y
 _atom_site_fract_z
 _atom_site_occupancy
  Tb  Tb0  1  0.62205500  0.84681800  0.32075700  1
  Tb  Tb1  1  0.15318200  0.77523700  0.32075700  1
  Tb  Tb2  1  0.22476300  0.37794500  0.32075700  1
  Tb  Tb3  1  0.37794500  0.15318200  0.82075700  1
  Tb  Tb4  1  0.84681800  0.22476300  0.82075700  1
  Tb  Tb5  1  0.77523700  0.62205500  0.82075700  1
  Ga  Ga0  1  0.66666700  0.33333300  0.39406600  1
  Ga  Ga1  1  0.33333300  0.66666700  0.89406600  1
  Fe  Fe0  1  0.00000000  0.00000000  0.50215800  1
  Fe  Fe1  1  0.00000000  0.00000000  0.00215800  1
  S  S0  1  0.89907300  0.13704800  0.23646500  1
  S  S1  1  0.86295200  0.76202500  0.23646500  1
  S  S2  1  0.23797500  0.10092700  0.23646500  1
  S  S3  1  0.10092700  0.86295200  0.73646500  1
  S  S4  1  0.13704800  0.23797500  0.73646500  1
  S  S5  1  0.76202500  0.89907300  0.73646500  1
  S  S6  1  0.48104800  0.56984200  0.05276400  1
  S  S7  1  0.43015800  0.91120600  0.05276400  1
  S  S8  1  0.08879400  0.51895200  0.05276400  1
  S  S9  1  0.51895200  0.43015800  0.55276400  1
  S  S10  1  0.56984200  0.08879400  0.55276400  1
  S  S11  1  0.91120600  0.48104800  0.55276400  1
  S  S12  1  0.66666700  0.33333300  0.02510500  1
  S  S13  1  0.33333300  0.66666700  0.52510500  1
loop_
_geom_bond_atom_site_label_1
_geom_bond_atom_site_label_2
_geom_bond_distance
_geom_bond_site_symmetry_2
Ga0 S12 2.265379 1_555
Ga0 S10 2.281134 1_555
Ga0 S11 2.281135 1_555
Ga0 S9 2.281142 1_555
Ga1 S13 2.265379 1_555
Ga1 S7 2.281134 1_556
Ga1 S8 2.281135 1_556
Ga1 S6 2.281142 1_556
Fe0 S4 2.464065 1_555
Fe0 S5 2.464065 1_445
Fe0 S3 2.464065 1_545
Fe0 S1 2.581320 1_445
Fe0 S2 2.581320 1_555
Fe0 S0 2.581320 1_455
Fe1 S1 2.464065 1_445
Fe1 S2 2.464065 1_555
Fe1 S0 2.464065 1_455
Fe1 S4 2.581320 1_554
Fe1 S5 2.581320 1_444
Fe1 S3 2.581320 1_544
S0 Tb0 2.793169 1_545
S0 Tb4 2.813905 1_554
S0 Tb2 2.876845 1_655
S1 Tb1 2.793169 1_655
S1 Tb5 2.813905 1_554
S1 Tb0 2.876845 1_555
S2 Tb2 2.793169 1_555
S2 Tb3 2.813905 1_554
S2 Tb1 2.876845 1_545
S3 Tb3 2.793169 1_565
S3 Tb1 2.813905 1_555
S3 Tb5 2.876845 1_455
S4 Tb4 2.793169 1_455
S4 Tb2 2.813905 1_555
S4 Tb3 2.876845 1_555
S5 Tb5 2.793169 1_555
S5 Tb0 2.813905 1_555
S5 Tb4 2.876845 1_565
S6 Tb2 2.773752 1_555
S6 Tb0 2.843942 1_555
S6 Tb5 2.990040 1_554
S7 Tb0 2.773752 1_555
S7 Tb1 2.843942 1_555
S7 Tb3 2.990040 1_564
S8 Tb1 2.773752 1_555
S8 Tb2 2.843942 1_555
S8 Tb4 2.990040 1_454
S9 Tb5 2.773752 1_555
S9 Tb3 2.843942 1_555
S9 Tb2 2.990040 1_555
S10 Tb3 2.773752 1_555
S10 Tb4 2.843942 1_555
S10 Tb0 2.990040 1_545
S11 Tb4 2.773752 1_555
S11 Tb5 2.843942 1_555
S11 Tb1 2.990040 1_655
S12 Tb4 2.745876 1_554
S12 Tb3 2.745883 1_554
S12 Tb5 2.745884 1_554
S13 Tb1 2.745876 1_555
S13 Tb0 2.745883 1_555
S13 Tb2 2.745884 1_555
