# generated using pymatgen
data_KU2SbSe8
_symmetry_space_group_name_H-M   'P 1'
_cell_length_a   7.11931472
_cell_length_b   7.11931472
_cell_length_c   7.75292939
_cell_angle_alpha   81.20675619
_cell_angle_beta   81.20675619
_cell_angle_gamma   109.52763569
_symmetry_Int_Tables_number   1
_chemical_formula_structural   KU2SbSe8
_chemical_formula_sum   'K1 U2 Sb1 Se8'
_cell_volume   357.11506778
_cell_formula_units_Z   1
loop_
 _symmetry_equiv_pos_site_id
 _symmetry_equiv_pos_as_xyz
  1  'x, y, z'
loop_
 _atom_site_type_symbol
 _atom_site_label
 _atom_site_symmetry_multiplicity
 _atom_site_fract_x
 _atom_site_fract_y
 _atom_site_fract_z
 _atom_site_occupancy
  K  K0  1  0.11617600  0.11617600  0.53548700  1
  U  U0  1  0.49970300  0.99983900  0.99956200  1
  U  U1  1  0.99983900  0.49970300  0.99956200  1
  Sb  Sb0  1  0.57496700  0.57496700  0.69514300  1
  Se  Se0  1  0.08057000  0.79754400  0.22799700  1
  Se  Se1  1  0.79754400  0.08057000  0.22799700  1
  Se  Se2  1  0.77376600  0.77376600  0.90765800  1
  Se  Se3  1  0.27077600  0.27077600  0.90984200  1
  Se  Se4  1  0.59635200  0.29407000  0.23160000  1
  Se  Se5  1  0.29407000  0.59635200  0.23160000  1
  Se  Se6  1  0.80958200  0.32362100  0.73351500  1
  Se  Se7  1  0.32362100  0.80958200  0.73351500  1
loop_
_geom_bond_atom_site_label_1
_geom_bond_atom_site_label_2
_geom_bond_distance
_geom_bond_site_symmetry_2
K0 Se7 3.335618 1_545
K0 Se6 3.335618 1_455
K0 Se2 3.454980 1_445
K0 Se3 3.462650 1_555
K0 Se0 3.513833 1_545
K0 Se1 3.513833 1_455
K0 Se5 3.545701 1_555
K0 Se4 3.545701 1_555
Sb0 Se2 2.609142 1_555
Sb0 Se3 2.609797 1_555
Sb0 Se7 2.840365 1_555
Sb0 Se6 2.840365 1_555
Se0 Se5 2.412247 1_555
Se0 U1 2.933897 1_454
Se0 U0 2.974246 1_554
Se1 Se4 2.412247 1_555
Se1 U0 2.933897 1_544
Se1 U1 2.974246 1_554
Se2 U0 2.988317 1_555
Se2 U1 2.988317 1_555
Se3 U0 2.983076 1_545
Se3 U1 2.983076 1_455
Se4 U1 2.904230 1_554
Se4 U0 2.943577 1_544
Se5 U0 2.904230 1_554
Se5 U1 2.943577 1_454
Se6 U1 2.858362 1_555
Se6 U0 2.861889 1_545
Se7 U0 2.858362 1_555
Se7 U1 2.861889 1_455
