# generated using pymatgen
data_Ti4In2CoNi
_symmetry_space_group_name_H-M   'P 1'
_cell_length_a   7.86465382
_cell_length_b   7.86465382
_cell_length_c   7.86465351
_cell_angle_alpha   33.57597198
_cell_angle_beta   33.57597198
_cell_angle_gamma   33.57596790
_symmetry_Int_Tables_number   1
_chemical_formula_structural   Ti4In2CoNi
_chemical_formula_sum   'Ti4 In2 Co1 Ni1'
_cell_volume   132.52920424
_cell_formula_units_Z   1
loop_
 _symmetry_equiv_pos_site_id
 _symmetry_equiv_pos_as_xyz
  1  'x, y, z'
loop_
 _atom_site_type_symbol
 _atom_site_label
 _atom_site_symmetry_multiplicity
 _atom_site_fract_x
 _atom_site_fract_y
 _atom_site_fract_z
 _atom_site_occupancy
  Ti  Ti0  1  0.12486500  0.12486500  0.12486500  1
  Ti  Ti1  1  0.62503000  0.62503000  0.62503000  1
  Ti  Ti2  1  0.37497000  0.37497000  0.37497000  1
  Ti  Ti3  1  0.87513500  0.87513500  0.87513500  1
  In  In0  1  0.74985700  0.74985700  0.74985700  1
  In  In1  1  0.25014300  0.25014300  0.25014300  1
  Co  Co0  1  0.00000000  0.00000000  0.00000000  1
  Ni  Ni0  1  0.50000000  0.50000000  0.50000000  1
loop_
_geom_bond_atom_site_label_1
_geom_bond_atom_site_label_2
_geom_bond_distance
_geom_bond_site_symmetry_2
In0 Ti1 2.776539 1_555
In0 Ti2 2.781053 1_565
In0 Ti2 2.781053 1_655
In0 Ti2 2.781053 1_556
In0 Ti0 2.781948 1_566
In0 Ti0 2.781948 1_656
In0 Ti0 2.781949 1_665
In0 Ti3 2.786571 1_555
In1 Ti2 2.776539 1_555
In1 Ti1 2.781053 1_455
In1 Ti1 2.781053 1_545
In1 Ti1 2.781053 1_554
In1 Ti3 2.781948 1_544
In1 Ti3 2.781948 1_454
In1 Ti3 2.781949 1_445
In1 Ti0 2.786571 1_555
Co0 Ti3 2.777384 1_444
Co0 Ti0 2.777384 1_555
Co0 Ti2 2.781667 1_455
Co0 Ti1 2.781667 1_544
Co0 Ti2 2.781667 1_545
Co0 Ti1 2.781667 1_454
Co0 Ti2 2.781667 1_554
Co0 Ti1 2.781667 1_445
Ni0 Ti1 2.781055 1_555
Ni0 Ti2 2.781055 1_555
Ni0 Ti3 2.782891 1_545
Ni0 Ti0 2.782891 1_655
Ni0 Ti0 2.782891 1_565
Ni0 Ti3 2.782891 1_455
Ni0 Ti3 2.782891 1_554
Ni0 Ti0 2.782891 1_556
