# generated using pymatgen
data_Ce3Ga2
_symmetry_space_group_name_H-M   'P 1'
_cell_length_a   8.39397300
_cell_length_b   8.39397300
_cell_length_c   7.19072400
_cell_angle_alpha   90.00000000
_cell_angle_beta   90.00000000
_cell_angle_gamma   90.00000000
_symmetry_Int_Tables_number   1
_chemical_formula_structural   Ce3Ga2
_chemical_formula_sum   'Ce12 Ga8'
_cell_volume   506.64965995
_cell_formula_units_Z   4
loop_
 _symmetry_equiv_pos_site_id
 _symmetry_equiv_pos_as_xyz
  1  'x, y, z'
loop_
 _atom_site_type_symbol
 _atom_site_label
 _atom_site_symmetry_multiplicity
 _atom_site_fract_x
 _atom_site_fract_y
 _atom_site_fract_z
 _atom_site_occupancy
  Ce  Ce0  1  0.50000000  0.00000000  0.25000000  1
  Ce  Ce1  1  0.00000000  0.50000000  0.75000000  1
  Ce  Ce2  1  0.50000000  0.00000000  0.75000000  1
  Ce  Ce3  1  0.00000000  0.50000000  0.25000000  1
  Ce  Ce4  1  0.84297700  0.15702300  0.50000000  1
  Ce  Ce5  1  0.15702300  0.84297700  0.50000000  1
  Ce  Ce6  1  0.34297700  0.34297700  0.00000000  1
  Ce  Ce7  1  0.65702300  0.65702300  0.00000000  1
  Ce  Ce8  1  0.69586700  0.69586700  0.50000000  1
  Ce  Ce9  1  0.30413300  0.30413300  0.50000000  1
  Ce  Ce10  1  0.19586700  0.80413300  0.00000000  1
  Ce  Ce11  1  0.80413300  0.19586700  0.00000000  1
  Ga  Ga0  1  0.62002800  0.37997200  0.29798200  1
  Ga  Ga1  1  0.37997200  0.62002800  0.29798200  1
  Ga  Ga2  1  0.12002800  0.12002800  0.79798200  1
  Ga  Ga3  1  0.87997200  0.87997200  0.79798200  1
  Ga  Ga4  1  0.37997200  0.62002800  0.70201800  1
  Ga  Ga5  1  0.62002800  0.37997200  0.70201800  1
  Ga  Ga6  1  0.87997200  0.87997200  0.20201800  1
  Ga  Ga7  1  0.12002800  0.12002800  0.20201800  1
loop_
_geom_bond_atom_site_label_1
_geom_bond_atom_site_label_2
_geom_bond_distance
_geom_bond_site_symmetry_2
Ce0 Ga0 3.362569 1_555
Ce0 Ga1 3.362569 1_545
Ce0 Ga6 3.362569 1_545
Ce0 Ga7 3.362569 1_555
Ce0 Ce11 3.528732 1_555
Ce0 Ce8 3.528732 1_545
Ce0 Ce9 3.528732 1_555
Ce0 Ce10 3.528732 1_545
Ce0 Ce2 3.595362 1_554
Ce0 Ce2 3.595362 1_555
Ce0 Ce5 3.641044 1_545
Ce0 Ce6 3.641044 1_555
Ce0 Ce7 3.641044 1_545
Ce0 Ce4 3.641044 1_555
Ce1 Ga2 3.362569 1_555
Ce1 Ga3 3.362569 1_455
Ce1 Ga4 3.362569 1_555
Ce1 Ga5 3.362569 1_455
Ce1 Ce10 3.528732 1_556
Ce1 Ce8 3.528732 1_455
Ce1 Ce9 3.528732 1_555
Ce1 Ce11 3.528732 1_456
Ce1 Ce3 3.595362 1_555
Ce1 Ce3 3.595362 1_556
Ce1 Ce7 3.641044 1_456
Ce1 Ce5 3.641044 1_555
Ce1 Ce4 3.641044 1_455
Ce1 Ce6 3.641044 1_556
Ce2 Ga2 3.362569 1_555
Ce2 Ga3 3.362569 1_545
Ce2 Ga4 3.362569 1_545
Ce2 Ga5 3.362569 1_555
Ce2 Ce8 3.528732 1_545
Ce2 Ce9 3.528732 1_555
Ce2 Ce5 3.641044 1_545
Ce2 Ce7 3.641044 1_546
Ce2 Ce6 3.641044 1_556
Ce2 Ce4 3.641044 1_555
Ce3 Ga1 3.362569 1_555
Ce3 Ga0 3.362569 1_455
Ce3 Ga7 3.362569 1_555
Ce3 Ga6 3.362569 1_455
Ce3 Ce8 3.528732 1_455
Ce3 Ce9 3.528732 1_555
Ce3 Ce5 3.641044 1_555
Ce3 Ce4 3.641044 1_455
Ce3 Ce7 3.641044 1_455
Ce3 Ce6 3.641044 1_555
Ce4 Ga5 3.019055 1_555
Ce4 Ga0 3.019055 1_555
Ce4 Ga3 3.177396 1_545
Ce4 Ga6 3.177396 1_545
Ce4 Ga7 3.177396 1_655
Ce4 Ga2 3.177396 1_655
Ce5 Ga4 3.019055 1_555
Ce5 Ga1 3.019055 1_555
Ce5 Ga2 3.177396 1_565
Ce5 Ga7 3.177396 1_565
Ce5 Ga6 3.177396 1_455
Ce5 Ga3 3.177396 1_455
Ce6 Ga2 3.019055 1_554
Ce6 Ga7 3.019055 1_555
Ce6 Ga1 3.177396 1_555
Ce6 Ga0 3.177396 1_555
Ce6 Ga4 3.177396 1_554
Ce6 Ga5 3.177396 1_554
Ce7 Ga3 3.019055 1_554
Ce7 Ga6 3.019055 1_555
Ce7 Ga0 3.177396 1_555
Ce7 Ga1 3.177396 1_555
Ce7 Ga4 3.177396 1_554
Ce7 Ga5 3.177396 1_554
Ce8 Ga3 3.060644 1_555
Ce8 Ga6 3.060644 1_555
Ce8 Ga5 3.089743 1_555
Ce8 Ga4 3.089743 1_555
Ce8 Ga1 3.089743 1_555
Ce8 Ga0 3.089743 1_555
Ce9 Ga7 3.060644 1_555
Ce9 Ga2 3.060644 1_555
Ce9 Ga4 3.089743 1_555
Ce9 Ga5 3.089743 1_555
Ce9 Ga1 3.089743 1_555
Ce9 Ga0 3.089743 1_555
Ce10 Ga1 3.060644 1_555
Ce10 Ga4 3.060644 1_554
Ce10 Ga6 3.089743 1_455
Ce10 Ga3 3.089743 1_454
Ce10 Ga7 3.089743 1_565
Ce10 Ga2 3.089743 1_564
Ce10 Ce3 3.528732 1_555
Ce10 Ce2 3.528732 1_564
Ce11 Ga0 3.060644 1_555
Ce11 Ga5 3.060644 1_554
Ce11 Ga3 3.089743 1_544
Ce11 Ga6 3.089743 1_545
Ce11 Ga7 3.089743 1_655
Ce11 Ga2 3.089743 1_654
Ce11 Ce2 3.528732 1_554
Ce11 Ce3 3.528732 1_655
Ga0 Ga1 2.849674 1_555
Ga0 Ga5 2.905311 1_555
Ga1 Ga4 2.905311 1_555
Ga2 Ga3 2.849674 1_445
Ga2 Ga7 2.905311 1_556
Ga3 Ga6 2.905311 1_556
Ga4 Ga5 2.849674 1_555
Ga6 Ga7 2.849674 1_665
