# generated using pymatgen
data_DyAlGe2O7
_symmetry_space_group_name_H-M   'P 1'
_cell_length_a   6.53847600
_cell_length_b   7.22443000
_cell_length_c   12.69111883
_cell_angle_alpha   62.22729767
_cell_angle_beta   90.00000000
_cell_angle_gamma   90.00000000
_symmetry_Int_Tables_number   1
_chemical_formula_structural   DyAlGe2O7
_chemical_formula_sum   'Dy4 Al4 Ge8 O28'
_cell_volume   530.42826278
_cell_formula_units_Z   4
loop_
 _symmetry_equiv_pos_site_id
 _symmetry_equiv_pos_as_xyz
  1  'x, y, z'
loop_
 _atom_site_type_symbol
 _atom_site_label
 _atom_site_symmetry_multiplicity
 _atom_site_fract_x
 _atom_site_fract_y
 _atom_site_fract_z
 _atom_site_occupancy
  Dy  Dy0  1  0.35507400  0.74328500  0.52881200  1
  Dy  Dy1  1  0.64492600  0.25671500  0.47118800  1
  Dy  Dy2  1  0.85507400  0.25671500  0.97118800  1
  Dy  Dy3  1  0.14492600  0.74328500  0.02881200  1
  Al  Al0  1  0.39889900  0.70994800  0.27200800  1
  Al  Al1  1  0.60110100  0.29005200  0.72799200  1
  Al  Al2  1  0.89889900  0.29005200  0.22799200  1
  Al  Al3  1  0.10110100  0.70994800  0.77200800  1
  Ge  Ge0  1  0.65647200  0.71371800  0.04660000  1
  Ge  Ge1  1  0.34352800  0.28628200  0.95340000  1
  Ge  Ge2  1  0.15647200  0.28628200  0.45340000  1
  Ge  Ge3  1  0.84352800  0.71371800  0.54660000  1
  Ge  Ge4  1  0.91005700  0.80349200  0.27734300  1
  Ge  Ge5  1  0.08994300  0.19650800  0.72265700  1
  Ge  Ge6  1  0.41005700  0.19650800  0.22265700  1
  Ge  Ge7  1  0.58994300  0.80349200  0.77734300  1
  O  O0  1  0.37799600  0.92272700  0.30888800  1
  O  O1  1  0.62200400  0.07727300  0.69111200  1
  O  O2  1  0.87799600  0.07727300  0.19111200  1
  O  O3  1  0.12200400  0.92272700  0.80888800  1
  O  O4  1  0.82869300  0.91129600  0.02222100  1
  O  O5  1  0.17130700  0.08870400  0.97777900  1
  O  O6  1  0.32869300  0.08870400  0.47777900  1
  O  O7  1  0.67130700  0.91129600  0.52222100  1
  O  O8  1  0.61671200  0.27935300  0.27946800  1
  O  O9  1  0.38328800  0.72064700  0.72053200  1
  O  O10  1  0.11671200  0.72064700  0.22053200  1
  O  O11  1  0.88328800  0.27935300  0.77946800  1
  O  O12  1  0.00444500  0.75103600  0.42430000  1
  O  O13  1  0.99555500  0.24896400  0.57570000  1
  O  O14  1  0.50444500  0.24896400  0.07570000  1
  O  O15  1  0.49555500  0.75103600  0.92430000  1
  O  O16  1  0.44353400  0.70827100  0.13237200  1
  O  O17  1  0.55646600  0.29172900  0.86762800  1
  O  O18  1  0.94353400  0.29172900  0.36762800  1
  O  O19  1  0.05646600  0.70827100  0.63237200  1
  O  O20  1  0.84589300  0.51260000  0.08161600  1
  O  O21  1  0.15410700  0.48740000  0.91838400  1
  O  O22  1  0.34589300  0.48740000  0.41838400  1
  O  O23  1  0.65410700  0.51260000  0.58161600  1
  O  O24  1  0.68284300  0.65563300  0.31266900  1
  O  O25  1  0.31715700  0.34436700  0.68733100  1
  O  O26  1  0.18284300  0.34436700  0.18733100  1
  O  O27  1  0.81715700  0.65563300  0.81266900  1
loop_
_geom_bond_atom_site_label_1
_geom_bond_atom_site_label_2
_geom_bond_distance
_geom_bond_site_symmetry_2
Dy0 O6 2.273833 1_565
Dy0 O19 2.300772 1_555
Dy0 O9 2.368567 1_555
Dy0 O7 2.379277 1_555
Dy0 O23 2.451247 1_555
Dy0 O0 2.474105 1_555
Dy0 O12 2.636116 1_555
Dy0 O25 2.647866 1_555
Dy0 O22 2.792758 1_555
Dy1 O7 2.273833 1_545
Dy1 O18 2.300772 1_555
Dy1 O8 2.368567 1_555
Dy1 O6 2.379277 1_555
Dy1 O22 2.451247 1_555
Dy1 O1 2.474105 1_555
Dy1 O13 2.636116 1_555
Dy1 O24 2.647866 1_555
Dy1 O23 2.792758 1_555
Dy2 O4 2.273833 1_546
Dy2 O17 2.300772 1_555
Dy2 O11 2.368567 1_555
Dy2 O5 2.379277 1_655
Dy2 O21 2.451247 1_655
Dy2 O2 2.474105 1_556
Dy2 O14 2.636116 1_556
Dy2 O27 2.647866 1_555
Dy2 O20 2.792758 1_556
Dy3 O5 2.273833 1_564
Dy3 O16 2.300772 1_555
Dy3 O10 2.368567 1_555
Dy3 O4 2.379277 1_455
Dy3 O20 2.451247 1_455
Dy3 O3 2.474105 1_554
Dy3 O15 2.636116 1_554
Dy3 O26 2.647866 1_555
Dy3 O21 2.792758 1_554
Al0 O16 1.801610 1_555
Al0 O0 1.808664 1_555
Al0 O22 1.836466 1_555
Al0 O24 1.917910 1_555
Al0 O10 1.946791 1_555
Al1 O17 1.801610 1_555
Al1 O1 1.808664 1_555
Al1 O23 1.836466 1_555
Al1 O25 1.917910 1_555
Al1 O11 1.946791 1_555
Al2 O18 1.801610 1_555
Al2 O2 1.808664 1_555
Al2 O20 1.836466 1_555
Al2 O26 1.917910 1_655
Al2 O8 1.946791 1_555
Al3 O19 1.801610 1_555
Al3 O3 1.808664 1_555
Al3 O21 1.836466 1_555
Al3 O27 1.917910 1_455
Al3 O9 1.946791 1_555
Ge0 O4 1.729050 1_555
Ge0 O16 1.756424 1_555
Ge0 O15 1.788526 1_554
Ge0 O20 1.800221 1_555
Ge1 O5 1.729050 1_555
Ge1 O17 1.756424 1_555
Ge1 O14 1.788526 1_556
Ge1 O21 1.800221 1_555
Ge2 O6 1.729050 1_555
Ge2 O18 1.756424 1_455
Ge2 O13 1.788526 1_455
Ge2 O22 1.800221 1_555
Ge3 O7 1.729050 1_555
Ge3 O19 1.756424 1_655
Ge3 O12 1.788526 1_655
Ge3 O23 1.800221 1_555
Ge4 O24 1.761490 1_555
Ge4 O10 1.762373 1_655
Ge4 O2 1.771016 1_565
Ge4 O12 1.828722 1_655
Ge5 O25 1.761490 1_555
Ge5 O11 1.762373 1_455
Ge5 O3 1.771016 1_545
Ge5 O13 1.828722 1_455
Ge6 O26 1.761490 1_555
Ge6 O8 1.762373 1_555
Ge6 O0 1.771016 1_545
Ge6 O14 1.828722 1_555
Ge7 O27 1.761490 1_555
Ge7 O9 1.762373 1_555
Ge7 O1 1.771016 1_565
Ge7 O15 1.828722 1_555
