# generated using pymatgen
data_Li6Zn3(PS4)4
_symmetry_space_group_name_H-M   'P 1'
_cell_length_a   9.24388200
_cell_length_b   5.79605100
_cell_length_c   23.15063492
_cell_angle_alpha   89.93946365
_cell_angle_beta   90.00000000
_cell_angle_gamma   90.00000000
_symmetry_Int_Tables_number   1
_chemical_formula_structural   Li6Zn3(PS4)4
_chemical_formula_sum   'Li12 Zn6 P8 S32'
_cell_volume   1240.36429198
_cell_formula_units_Z   2
loop_
 _symmetry_equiv_pos_site_id
 _symmetry_equiv_pos_as_xyz
  1  'x, y, z'
loop_
 _atom_site_type_symbol
 _atom_site_label
 _atom_site_symmetry_multiplicity
 _atom_site_fract_x
 _atom_site_fract_y
 _atom_site_fract_z
 _atom_site_occupancy
  Li  Li0  1  0.25180800  0.24841600  0.56047100  1
  Li  Li1  1  0.75180800  0.75158400  0.43952900  1
  Li  Li2  1  0.99901900  0.74875900  0.81292800  1
  Li  Li3  1  0.99993200  0.74999800  0.06251400  1
  Li  Li4  1  0.49993200  0.25000200  0.93748600  1
  Li  Li5  1  0.00323000  0.75038800  0.31224400  1
  Li  Li6  1  0.49901900  0.25124100  0.18707200  1
  Li  Li7  1  0.99802300  0.75091700  0.56231100  1
  Li  Li8  1  0.49802300  0.24908300  0.43768900  1
  Li  Li9  1  0.50323000  0.24961200  0.68775600  1
  Li  Li10  1  0.00379800  0.25179700  0.43709400  1
  Li  Li11  1  0.50379800  0.74820300  0.56290600  1
  Zn  Zn0  1  0.99435300  0.24589200  0.68775900  1
  Zn  Zn1  1  0.00000200  0.24998100  0.93749300  1
  Zn  Zn2  1  0.50039600  0.75027200  0.81252600  1
  Zn  Zn3  1  0.00039600  0.24972800  0.18747400  1
  Zn  Zn4  1  0.50000200  0.75001900  0.06250700  1
  Zn  Zn5  1  0.49435300  0.75410800  0.31224100  1
  P  P0  1  0.25072300  0.75785600  0.68764000  1
  P  P1  1  0.24999600  0.74999100  0.93748800  1
  P  P2  1  0.74987300  0.24966100  0.81253700  1
  P  P3  1  0.24987300  0.75033900  0.18746300  1
  P  P4  1  0.74999600  0.25000900  0.06251200  1
  P  P5  1  0.24888900  0.74252000  0.43757400  1
  P  P6  1  0.75072300  0.24214400  0.31236000  1
  P  P7  1  0.74888900  0.25748000  0.56242600  1
  S  S0  1  0.36501600  0.54484100  0.74231700  1
  S  S1  1  0.36472900  0.54100700  0.99321800  1
  S  S2  1  0.86462800  0.04100000  0.86835300  1
  S  S3  1  0.36434300  0.54073200  0.24299800  1
  S  S4  1  0.86461500  0.04105000  0.11826300  1
  S  S5  1  0.37380100  0.53865000  0.49106800  1
  S  S6  1  0.86910500  0.03931600  0.36663200  1
  S  S7  1  0.87070100  0.04249500  0.61563000  1
  S  S8  1  0.13541900  0.52717700  0.88523500  1
  S  S9  1  0.13511700  0.52745000  0.13523500  1
  S  S10  1  0.63536800  0.02731900  0.01022500  1
  S  S11  1  0.12960700  0.53929000  0.38524100  1
  S  S12  1  0.63015500  0.03045500  0.25987200  1
  S  S13  1  0.13034400  0.53084300  0.63586300  1
  S  S14  1  0.63126100  0.03748900  0.51019500  1
  S  S15  1  0.63574700  0.02697600  0.76032000  1
  S  S16  1  0.36910500  0.96068400  0.63336800  1
  S  S17  1  0.36461500  0.95895000  0.88173700  1
  S  S18  1  0.86434300  0.45926800  0.75700200  1
  S  S19  1  0.36462800  0.95900000  0.13164700  1
  S  S20  1  0.86472900  0.45899300  0.00678200  1
  S  S21  1  0.37070100  0.95750500  0.38437000  1
  S  S22  1  0.86501600  0.45515900  0.25768300  1
  S  S23  1  0.87380100  0.46135000  0.50893200  1
  S  S24  1  0.13015500  0.96954500  0.74012800  1
  S  S25  1  0.13536800  0.97268100  0.98977500  1
  S  S26  1  0.63511700  0.47255000  0.86476500  1
  S  S27  1  0.13574700  0.97302400  0.23968000  1
  S  S28  1  0.63541900  0.47282300  0.11476500  1
  S  S29  1  0.13126100  0.96251100  0.48980500  1
  S  S30  1  0.63034400  0.46915700  0.36413700  1
  S  S31  1  0.62960700  0.46071000  0.61475900  1
loop_
_geom_bond_atom_site_label_1
_geom_bond_atom_site_label_2
_geom_bond_distance
_geom_bond_site_symmetry_2
Li0 S29 2.582608 1_545
Li0 S5 2.584060 1_555
Li0 S16 2.607490 1_545
Li0 S13 2.644368 1_555
Li1 S14 2.582608 1_565
Li1 S23 2.584060 1_555
Li1 S6 2.607490 1_565
Li1 S30 2.644368 1_555
Li2 S24 2.437815 1_655
Li2 S8 2.456987 1_655
Li2 S18 2.458884 1_555
Li2 S2 2.462398 1_565
Li3 S9 2.460719 1_655
Li3 S25 2.462592 1_654
Li3 S20 2.464992 1_555
Li3 S4 2.465919 1_565
Li4 S26 2.460719 1_555
Li4 S10 2.462592 1_556
Li4 S1 2.464992 1_555
Li4 S17 2.465919 1_545
Li5 S11 2.390240 1_555
Li5 S6 2.435456 1_465
Li5 S27 2.446059 1_555
Li5 S22 2.482029 1_455
Li6 S12 2.437815 1_555
Li6 S28 2.456987 1_555
Li6 S3 2.458884 1_555
Li6 S19 2.462398 1_545
Li7 S23 2.380525 1_555
Li7 S7 2.401955 1_565
Li7 S29 2.415413 1_655
Li7 S13 2.453167 1_655
Li8 S5 2.380525 1_555
Li8 S21 2.401955 1_545
Li8 S14 2.415413 1_555
Li8 S30 2.453167 1_555
Li9 S31 2.390240 1_555
Li9 S16 2.435456 1_545
Li9 S15 2.446059 1_555
Li9 S0 2.482029 1_555
Li10 S11 2.359221 1_555
Li10 S29 2.384208 1_545
Li10 S23 2.385243 1_455
Li10 S6 2.394190 1_455
Li11 S31 2.359221 1_555
Li11 S14 2.384208 1_565
Li11 S5 2.385243 1_555
Li11 S16 2.394190 1_555
P0 S16 2.038394 1_555
P0 S24 2.056033 1_555
P0 S0 2.059012 1_555
P0 S13 2.099922 1_555
P1 S17 2.062031 1_555
P1 S1 2.062354 1_555
P1 S8 2.063066 1_555
P1 S25 2.063320 1_555
P2 S15 2.059970 1_555
P2 S18 2.060410 1_555
P2 S2 2.062607 1_555
P2 S26 2.063849 1_555
P3 S27 2.059970 1_555
P3 S3 2.060410 1_555
P3 S19 2.062607 1_555
P3 S9 2.063849 1_555
P4 S4 2.062031 1_555
P4 S20 2.062354 1_555
P4 S28 2.063066 1_555
P4 S10 2.063320 1_555
P5 S11 2.018456 1_555
P5 S5 2.064009 1_555
P5 S29 2.067247 1_555
P5 S21 2.081933 1_555
P6 S6 2.038394 1_555
P6 S12 2.056033 1_555
P6 S22 2.059012 1_555
P6 S30 2.099922 1_555
P7 S31 2.018456 1_555
P7 S23 2.064009 1_555
P7 S14 2.067247 1_555
P7 S7 2.081933 1_555
S0 Zn2 2.372718 1_555
S1 Zn4 2.368208 1_556
S2 Zn1 2.366273 1_655
S3 Zn5 2.355355 1_555
S4 Zn3 2.368478 1_655
S7 Zn0 2.342821 1_555
S8 Zn1 2.368073 1_555
S9 Zn3 2.366525 1_555
S10 Zn4 2.368517 1_545
S12 Zn5 2.367939 1_545
S13 Zn0 2.397341 1_455
S15 Zn2 2.365204 1_545
S17 Zn2 2.368478 1_555
S18 Zn0 2.355355 1_555
S19 Zn4 2.366273 1_555
S20 Zn1 2.368208 1_654
S21 Zn5 2.342821 1_555
S22 Zn3 2.372718 1_655
S24 Zn0 2.367939 1_465
S25 Zn1 2.368517 1_565
S26 Zn2 2.366525 1_555
S27 Zn3 2.365204 1_565
S28 Zn4 2.368073 1_555
S30 Zn5 2.397341 1_555
