# generated using pymatgen
data_NaBeSi3HO8
_symmetry_space_group_name_H-M   'P 1'
_cell_length_a   7.39376200
_cell_length_b   7.40329410
_cell_length_c   14.14897412
_cell_angle_alpha   78.15753879
_cell_angle_beta   78.20278140
_cell_angle_gamma   60.56522371
_symmetry_Int_Tables_number   1
_chemical_formula_structural   NaBeSi3HO8
_chemical_formula_sum   'Na4 Be4 Si12 H4 O32'
_cell_volume   655.26435229
_cell_formula_units_Z   4
loop_
 _symmetry_equiv_pos_site_id
 _symmetry_equiv_pos_as_xyz
  1  'x, y, z'
loop_
 _atom_site_type_symbol
 _atom_site_label
 _atom_site_symmetry_multiplicity
 _atom_site_fract_x
 _atom_site_fract_y
 _atom_site_fract_z
 _atom_site_occupancy
  Na  Na0  1  0.63123700  0.31184800  0.42836100  1
  Na  Na1  1  0.68962700  0.36919500  0.07057500  1
  Na  Na2  1  0.36876300  0.68815200  0.57163900  1
  Na  Na3  1  0.31037300  0.63080500  0.92942500  1
  Be  Be0  1  0.50841200  0.15339400  0.99720200  1
  Be  Be1  1  0.84615500  0.49172200  0.50283200  1
  Be  Be2  1  0.49158800  0.84660600  0.00279800  1
  Be  Be3  1  0.15384500  0.50827800  0.49716800  1
  Si  Si0  1  0.64668800  0.84998300  0.36615300  1
  Si  Si1  1  0.14925700  0.35335300  0.13355400  1
  Si  Si2  1  0.35331200  0.15001700  0.63384700  1
  Si  Si3  1  0.85074300  0.64664700  0.86644600  1
  Si  Si4  1  0.87576000  0.06442500  0.86202200  1
  Si  Si5  1  0.93568200  0.12442200  0.63814400  1
  Si  Si6  1  0.12424000  0.93557500  0.13797800  1
  Si  Si7  1  0.06431800  0.87557800  0.36185600  1
  Si  Si8  1  0.77650700  0.81520600  0.14132000  1
  Si  Si9  1  0.18392600  0.22270200  0.35933400  1
  Si  Si10  1  0.22349300  0.18479400  0.85868000  1
  Si  Si11  1  0.81607400  0.77729800  0.64066600  1
  H  H0  1  0.47812400  0.56870800  0.24805900  1
  H  H1  1  0.52187600  0.43129200  0.75194100  1
  H  H2  1  0.44840800  0.37970100  0.24479900  1
  H  H3  1  0.55159200  0.62029900  0.75520100  1
  O  O0  1  0.59665200  0.92357300  0.06972800  1
  O  O1  1  0.07611400  0.40344300  0.43022900  1
  O  O2  1  0.40334800  0.07642700  0.93027200  1
  O  O3  1  0.92388600  0.59655700  0.56977100  1
  O  O4  1  0.57864400  0.94021500  0.61601900  1
  O  O5  1  0.05950500  0.42116500  0.88409100  1
  O  O6  1  0.42135600  0.05978500  0.38398100  1
  O  O7  1  0.94049500  0.57883500  0.11590900  1
  O  O8  1  0.81830000  0.92546300  0.37506800  1
  O  O9  1  0.07454300  0.18145600  0.12520000  1
  O  O10  1  0.18170000  0.07453700  0.62493200  1
  O  O11  1  0.92545700  0.81854400  0.87480000  1
  O  O12  1  0.82544800  0.17339000  0.74997000  1
  O  O13  1  0.17455200  0.82661000  0.25003000  1
  O  O14  1  0.34469100  0.34451000  0.55571200  1
  O  O15  1  0.65524100  0.65587700  0.94387700  1
  O  O16  1  0.65530900  0.65549000  0.44428800  1
  O  O17  1  0.34475900  0.34412300  0.05612300  1
  O  O18  1  0.68940300  0.20268800  0.93763200  1
  O  O19  1  0.79693700  0.31075600  0.56233500  1
  O  O20  1  0.31059700  0.79731200  0.06236800  1
  O  O21  1  0.20306300  0.68924400  0.43766500  1
  O  O22  1  0.89578400  0.95899600  0.12594100  1
  O  O23  1  0.04026800  0.10416700  0.37408700  1
  O  O24  1  0.10421600  0.04100400  0.87405900  1
  O  O25  1  0.95973200  0.89583300  0.62591300  1
  O  O26  1  0.32433200  0.20043300  0.74510300  1
  O  O27  1  0.79598000  0.67652500  0.75488700  1
  O  O28  1  0.67566800  0.79956700  0.25489700  1
  O  O29  1  0.20402000  0.32347500  0.24511300  1
  O  O30  1  0.55858000  0.41678800  0.24576200  1
  O  O31  1  0.44142000  0.58321200  0.75423800  1
loop_
_geom_bond_atom_site_label_1
_geom_bond_atom_site_label_2
_geom_bond_distance
_geom_bond_site_symmetry_2
Na0 O14 2.430693 1_555
Na0 O19 2.455182 1_555
Na0 O30 2.626894 1_555
Na0 O23 2.657950 1_655
Na0 O8 2.689683 1_545
Na0 O16 2.692875 1_555
Na1 O15 2.424286 1_554
Na1 O18 2.452085 1_554
Na1 O30 2.499575 1_555
Na1 O22 2.668628 1_545
Na1 O9 2.683175 1_655
Na1 O17 2.696679 1_555
Na2 O16 2.430693 1_555
Na2 O21 2.455182 1_555
Na2 O31 2.626894 1_555
Na2 O25 2.657950 1_455
Na2 O10 2.689683 1_565
Na2 O14 2.692875 1_555
Na3 O17 2.424286 1_556
Na3 O20 2.452085 1_556
Na3 O31 2.499575 1_555
Na3 O24 2.668628 1_565
Na3 O11 2.683175 1_455
Na3 O15 2.696679 1_555
Be0 O18 1.589629 1_555
Be0 O17 1.595099 1_556
Be0 O2 1.668008 1_555
Be0 O0 1.685128 1_546
Be1 O19 1.589687 1_555
Be1 O16 1.591057 1_555
Be1 O3 1.671050 1_555
Be1 O1 1.685967 1_655
Be2 O20 1.589629 1_555
Be2 O15 1.595099 1_554
Be2 O0 1.668008 1_555
Be2 O2 1.685128 1_564
Be3 O21 1.589687 1_555
Be3 O14 1.591057 1_555
Be3 O1 1.671050 1_555
Be3 O3 1.685967 1_455
H0 O30 0.984582 1_555
H1 O31 0.984582 1_555
H2 O30 0.982355 1_555
H3 O31 0.982355 1_555
O0 Si8 1.614545 1_555
O1 Si9 1.614827 1_555
O2 Si10 1.614545 1_555
O3 Si11 1.614827 1_555
O4 Si11 1.629340 1_555
O4 Si2 1.642383 1_565
O5 Si10 1.629788 1_555
O5 Si3 1.638736 1_455
O6 Si9 1.629340 1_555
O6 Si0 1.642383 1_545
O7 Si8 1.629788 1_555
O7 Si1 1.638736 1_655
O8 Si7 1.645940 1_655
O8 Si0 1.652100 1_555
O9 Si6 1.648021 1_545
O9 Si1 1.648654 1_555
O10 Si5 1.645940 1_455
O10 Si2 1.652100 1_555
O11 Si4 1.648021 1_565
O11 Si3 1.648654 1_555
O12 Si5 1.648291 1_555
O12 Si4 1.650446 1_555
O13 Si7 1.648291 1_555
O13 Si6 1.650446 1_555
O14 Si2 1.607727 1_555
O15 Si3 1.606393 1_555
O16 Si0 1.607727 1_555
O17 Si1 1.606393 1_555
O18 Si4 1.597272 1_555
O19 Si5 1.599241 1_555
O20 Si6 1.597272 1_555
O21 Si7 1.599241 1_555
O22 Si8 1.645444 1_555
O22 Si6 1.652253 1_655
O23 Si9 1.640783 1_555
O23 Si7 1.654490 1_545
O24 Si10 1.645444 1_555
O24 Si4 1.652253 1_455
O25 Si11 1.640783 1_555
O25 Si5 1.654490 1_565
O26 Si10 1.634104 1_555
O26 Si2 1.639459 1_555
O27 Si11 1.645105 1_555
O27 Si3 1.653592 1_555
O28 Si8 1.634104 1_555
O28 Si0 1.639459 1_555
O29 Si9 1.645105 1_555
O29 Si1 1.653592 1_555
