# generated using pymatgen
data_CsNa2Fe3P4ClO14
_symmetry_space_group_name_H-M   'P 1'
_cell_length_a   10.91431930
_cell_length_b   10.91431930
_cell_length_c   13.95285076
_cell_angle_alpha   62.47373352
_cell_angle_beta   62.47373352
_cell_angle_gamma   28.08616380
_symmetry_Int_Tables_number   1
_chemical_formula_structural   CsNa2Fe3P4ClO14
_chemical_formula_sum   'Cs2 Na4 Fe6 P8 Cl2 O28'
_cell_volume   688.01100701
_cell_formula_units_Z   2
loop_
 _symmetry_equiv_pos_site_id
 _symmetry_equiv_pos_as_xyz
  1  'x, y, z'
loop_
 _atom_site_type_symbol
 _atom_site_label
 _atom_site_symmetry_multiplicity
 _atom_site_fract_x
 _atom_site_fract_y
 _atom_site_fract_z
 _atom_site_occupancy
  Cs  Cs0  1  0.50000000  0.50000000  0.00000000  1
  Cs  Cs1  1  0.50000000  0.50000000  0.50000000  1
  Na  Na0  1  0.24878100  0.30902400  0.15075500  1
  Na  Na1  1  0.69097600  0.75121900  0.34924500  1
  Na  Na2  1  0.75121900  0.69097600  0.84924500  1
  Na  Na3  1  0.30902400  0.24878100  0.65075500  1
  Fe  Fe0  1  0.66673400  0.64297300  0.15625100  1
  Fe  Fe1  1  0.35702700  0.33326600  0.34374900  1
  Fe  Fe2  1  0.33326600  0.35702700  0.84374900  1
  Fe  Fe3  1  0.64297300  0.66673400  0.65625100  1
  Fe  Fe4  1  0.93737100  0.06262900  0.25000000  1
  Fe  Fe5  1  0.06262900  0.93737100  0.75000000  1
  P  P0  1  0.17982100  0.13698400  0.00678900  1
  P  P1  1  0.86301600  0.82017900  0.49321100  1
  P  P2  1  0.82017900  0.86301600  0.99321100  1
  P  P3  1  0.13698400  0.17982100  0.50678900  1
  P  P4  1  0.86974300  0.89066800  0.17509100  1
  P  P5  1  0.10933200  0.13025700  0.32490900  1
  P  P6  1  0.13025700  0.10933200  0.82490900  1
  P  P7  1  0.89066800  0.86974300  0.67509100  1
  Cl  Cl0  1  0.46191400  0.53808600  0.25000000  1
  Cl  Cl1  1  0.53808600  0.46191400  0.75000000  1
  O  O0  1  0.95170100  0.96468300  0.15221400  1
  O  O1  1  0.03531700  0.04829900  0.34778600  1
  O  O2  1  0.04829900  0.03531700  0.84778600  1
  O  O3  1  0.96468300  0.95170100  0.65221400  1
  O  O4  1  0.07826500  0.13831100  0.94809500  1
  O  O5  1  0.86168900  0.92173500  0.55190500  1
  O  O6  1  0.92173500  0.86168900  0.05190500  1
  O  O7  1  0.13831100  0.07826500  0.44809500  1
  O  O8  1  0.88906300  0.42435600  0.28502200  1
  O  O9  1  0.57564400  0.11093700  0.21497800  1
  O  O10  1  0.11093700  0.57564400  0.71497800  1
  O  O11  1  0.42435600  0.88906300  0.78502200  1
  O  O12  1  0.98597900  0.25276800  0.11249800  1
  O  O13  1  0.74723200  0.01402100  0.38750200  1
  O  O14  1  0.01402100  0.74723200  0.88750200  1
  O  O15  1  0.25276800  0.98597900  0.61249800  1
  O  O16  1  0.46415000  0.84878800  0.02663100  1
  O  O17  1  0.15121200  0.53585000  0.47336900  1
  O  O18  1  0.53585000  0.15121200  0.97336900  1
  O  O19  1  0.84878800  0.46415000  0.52663100  1
  O  O20  1  0.04241200  0.62496500  0.24531700  1
  O  O21  1  0.37503500  0.95758800  0.25468300  1
  O  O22  1  0.95758800  0.37503500  0.75468300  1
  O  O23  1  0.62496500  0.04241200  0.74531700  1
  O  O24  1  0.84726900  0.68809900  0.07309500  1
  O  O25  1  0.31190100  0.15273100  0.42690500  1
  O  O26  1  0.15273100  0.31190100  0.92690500  1
  O  O27  1  0.68809900  0.84726900  0.57309500  1
loop_
_geom_bond_atom_site_label_1
_geom_bond_atom_site_label_2
_geom_bond_distance
_geom_bond_site_symmetry_2
Cs0 O2 3.214945 1_564
Cs0 O0 3.214945 1_545
Cs0 O6 3.224516 1_455
Cs0 O4 3.224516 1_654
Cs0 O0 3.271099 1_455
Cs0 O2 3.271099 1_654
Cs0 O9 3.469938 1_555
Cs0 O11 3.469938 1_554
Cs0 O6 3.475935 1_545
Cs0 O4 3.475935 1_564
Cs0 O18 3.650702 1_554
Cs0 O16 3.650702 1_555
Cs1 O3 3.214945 1_455
Cs1 O1 3.214945 1_655
Cs1 O5 3.224516 1_545
Cs1 O7 3.224516 1_565
Cs1 O3 3.271099 1_545
Cs1 O1 3.271099 1_565
Cs1 O10 3.469938 1_555
Cs1 O8 3.469938 1_555
Cs1 O5 3.475935 1_455
Cs1 O7 3.475935 1_655
Cs1 O19 3.650702 1_555
Cs1 O17 3.650702 1_555
Na0 O24 2.397816 1_455
Na0 O9 2.399808 1_555
Na0 O21 2.468557 1_545
Na0 O18 2.481866 1_554
Na0 O20 2.541401 1_555
Na0 O8 2.677571 1_455
Na1 O25 2.397816 1_565
Na1 O8 2.399808 1_555
Na1 O20 2.468557 1_655
Na1 O19 2.481866 1_555
Na1 O21 2.541401 1_555
Na1 O9 2.677571 1_565
Na2 O26 2.397816 1_655
Na2 O11 2.399808 1_555
Na2 O23 2.468557 1_565
Na2 O16 2.481866 1_556
Na2 O22 2.541401 1_555
Na2 O10 2.677571 1_655
Na3 O27 2.397816 1_545
Na3 O10 2.399808 1_555
Na3 O22 2.468557 1_455
Na3 O17 2.481866 1_555
Na3 O23 2.541401 1_555
Na3 O11 2.677571 1_545
Fe0 O16 2.093558 1_555
Fe0 O24 2.131277 1_555
Fe0 O8 2.158883 1_555
Fe0 O21 2.200238 1_555
Fe0 O12 2.214595 1_555
Fe1 O17 2.093558 1_555
Fe1 O25 2.131277 1_555
Fe1 O9 2.158883 1_555
Fe1 O20 2.200238 1_555
Fe1 O13 2.214595 1_555
Fe2 O18 2.093558 1_555
Fe2 O26 2.131277 1_555
Fe2 O10 2.158883 1_555
Fe2 O23 2.200238 1_555
Fe2 O14 2.214595 1_555
Fe3 O19 2.093558 1_555
Fe3 O27 2.131277 1_555
Fe3 O11 2.158883 1_555
Fe3 O22 2.200238 1_555
Fe3 O15 2.214595 1_555
Fe4 O0 1.970970 1_545
Fe4 O1 1.970970 1_655
Fe4 O13 2.364451 1_555
Fe4 O12 2.364451 1_555
Fe5 O3 1.970970 1_455
Fe5 O2 1.970970 1_565
Fe5 O14 2.364451 1_555
Fe5 O15 2.364451 1_555
Cl0 Fe4 2.518377 1_555
Cl0 Fe4 2.778373 1_465
Cl0 Fe1 2.906448 1_555
Cl0 Fe0 2.906448 1_555
Cl0 Cs0 3.494041 1_555
Cl0 Cs1 3.494041 1_555
Cl1 Fe5 2.518377 1_555
Cl1 Fe5 2.778373 1_645
Cl1 Fe2 2.906448 1_555
Cl1 Fe3 2.906448 1_555
Cl1 Cs1 3.494041 1_555
Cl1 Cs0 3.494041 1_556
O0 P4 1.525582 1_555
O1 P5 1.525582 1_555
O2 P6 1.525582 1_555
O3 P7 1.525582 1_555
O4 P6 1.631129 1_555
O4 P0 1.642927 1_556
O5 P7 1.631129 1_555
O5 P1 1.642927 1_555
O6 P4 1.631129 1_555
O6 P2 1.642927 1_554
O7 P5 1.631129 1_555
O7 P3 1.642927 1_555
O8 P5 1.536881 1_655
O9 P4 1.536881 1_545
O10 P7 1.536881 1_455
O11 P6 1.536881 1_565
O12 P0 1.539311 1_655
O13 P1 1.539311 1_545
O14 P2 1.539311 1_455
O15 P3 1.539311 1_565
O16 P0 1.538366 1_565
O17 P1 1.538366 1_455
O18 P2 1.538366 1_545
O19 P3 1.538366 1_655
O20 P4 1.535796 1_455
O21 P5 1.535796 1_565
O22 P6 1.535796 1_655
O23 P7 1.535796 1_545
O24 P2 1.521915 1_554
O25 P3 1.521915 1_555
O26 P0 1.521915 1_556
O27 P1 1.521915 1_555
