# generated using pymatgen
data_Mn7PbO12
_symmetry_space_group_name_H-M   'P 1'
_cell_length_a   6.57178277
_cell_length_b   6.57289210
_cell_length_c   10.63808535
_cell_angle_alpha   90.55317459
_cell_angle_beta   89.44413455
_cell_angle_gamma   110.17462042
_symmetry_Int_Tables_number   1
_chemical_formula_structural   Mn7PbO12
_chemical_formula_sum   'Mn14 Pb2 O24'
_cell_volume   431.29527787
_cell_formula_units_Z   2
loop_
 _symmetry_equiv_pos_site_id
 _symmetry_equiv_pos_as_xyz
  1  'x, y, z'
loop_
 _atom_site_type_symbol
 _atom_site_label
 _atom_site_symmetry_multiplicity
 _atom_site_fract_x
 _atom_site_fract_y
 _atom_site_fract_z
 _atom_site_occupancy
  Mn  Mn0  1  0.74944200  0.74992200  0.25032700  1
  Mn  Mn1  1  0.25070400  0.25000100  0.74981200  1
  Mn  Mn2  1  0.49995200  0.00005000  0.99995700  1
  Mn  Mn3  1  0.99994100  0.49993400  0.49997100  1
  Mn  Mn4  1  0.00020000  0.50023600  0.99994100  1
  Mn  Mn5  1  0.50008700  0.00003300  0.49996700  1
  Mn  Mn6  1  0.25003600  0.25072600  0.25029300  1
  Mn  Mn7  1  0.74976200  0.74912600  0.74987800  1
  Mn  Mn8  1  0.74965000  0.25056000  0.24962500  1
  Mn  Mn9  1  0.25039400  0.74997500  0.75042900  1
  Mn  Mn10  1  0.99989000  0.99980400  0.50012400  1
  Mn  Mn11  1  0.24986000  0.75025100  0.24986500  1
  Mn  Mn12  1  0.75027700  0.24951800  0.74994000  1
  Mn  Mn13  1  0.49983300  0.49996800  0.00001200  1
  Pb  Pb0  1  0.00005200  0.00013300  0.99990400  1
  Pb  Pb1  1  0.50006000  0.49982200  0.50001500  1
  O  O0  1  0.84297700  0.52040800  0.34626700  1
  O  O1  1  0.34337600  0.02029800  0.84646800  1
  O  O2  1  0.65667700  0.97984300  0.15355500  1
  O  O3  1  0.15700200  0.47968100  0.65377000  1
  O  O4  1  0.47962300  0.15697600  0.34627900  1
  O  O5  1  0.97982500  0.65672900  0.84647900  1
  O  O6  1  0.02021000  0.34347200  0.15350500  1
  O  O7  1  0.52038500  0.84307400  0.65373700  1
  O  O8  1  0.77503400  0.59773100  0.09199100  1
  O  O9  1  0.27634400  0.09606600  0.58996900  1
  O  O10  1  0.72368100  0.90376400  0.41009500  1
  O  O11  1  0.22486500  0.40221500  0.90798700  1
  O  O12  1  0.09609100  0.27621400  0.41008600  1
  O  O13  1  0.59773200  0.77497700  0.90792200  1
  O  O14  1  0.40210400  0.22500000  0.09210500  1
  O  O15  1  0.90377800  0.72355400  0.59004700  1
  O  O16  1  0.25189400  0.74807600  0.43321700  1
  O  O17  1  0.75156900  0.24855300  0.93380500  1
  O  O18  1  0.24850800  0.75158800  0.06606500  1
  O  O19  1  0.74806200  0.25188700  0.56668700  1
  O  O20  1  0.43285600  0.56740400  0.25234700  1
  O  O21  1  0.93327700  0.06678000  0.75139600  1
  O  O22  1  0.06675100  0.93311600  0.24856400  1
  O  O23  1  0.56724300  0.43253600  0.74759400  1
loop_
_geom_bond_atom_site_label_1
_geom_bond_atom_site_label_2
_geom_bond_distance
_geom_bond_site_symmetry_2
Mn0 O8 1.985988 1_555
Mn0 O10 2.004794 1_555
Mn0 O20 2.011542 1_555
Mn0 O22 2.016529 1_655
Mn0 O0 2.092085 1_555
Mn0 O2 2.095954 1_555
Mn1 O11 1.985032 1_555
Mn1 O9 2.005588 1_555
Mn1 O23 2.011328 1_555
Mn1 O21 2.017206 1_455
Mn1 O1 2.093819 1_555
Mn1 O3 2.094128 1_555
Mn2 O1 1.968224 1_555
Mn2 O2 1.969666 1_546
Mn2 O18 2.007586 1_546
Mn2 O17 2.008506 1_555
Mn2 O13 2.043432 1_545
Mn2 O14 2.043578 1_556
Mn3 O0 1.971929 1_555
Mn3 O3 1.972754 1_655
Mn3 O19 2.009952 1_555
Mn3 O16 2.010689 1_655
Mn3 O12 2.019396 1_655
Mn3 O15 2.019840 1_555
Mn4 O5 1.967951 1_455
Mn4 O6 1.969231 1_556
Mn4 O18 2.006838 1_556
Mn4 O17 2.009187 1_455
Mn4 O11 2.041531 1_555
Mn4 O8 2.042801 1_456
Mn5 O4 1.971749 1_555
Mn5 O7 1.972256 1_545
Mn5 O19 2.009687 1_555
Mn5 O16 2.010925 1_545
Mn5 O10 2.018916 1_545
Mn5 O9 2.019504 1_555
Mn6 O14 1.984343 1_555
Mn6 O12 2.004809 1_555
Mn6 O20 2.012766 1_555
Mn6 O22 2.018554 1_545
Mn6 O4 2.093365 1_555
Mn6 O6 2.095321 1_555
Mn7 O13 1.983128 1_555
Mn7 O15 2.005533 1_555
Mn7 O23 2.011830 1_555
Mn7 O21 2.019147 1_565
Mn7 O7 2.093758 1_555
Mn7 O5 2.094364 1_555
Mn8 O0 1.950831 1_555
Mn8 O6 1.951364 1_655
Mn8 O4 1.951548 1_555
Mn8 O2 1.952212 1_545
Mn9 O1 1.949974 1_565
Mn9 O5 1.951035 1_455
Mn9 O7 1.951552 1_555
Mn9 O3 1.953261 1_555
Mn10 O15 1.960045 1_555
Mn10 O10 1.960187 1_555
Mn10 O9 1.960538 1_665
Mn10 O12 1.961511 1_665
Mn11 O16 1.950914 1_555
Mn11 O18 1.955505 1_555
Mn11 O20 1.972193 1_555
Mn11 O22 1.972622 1_555
Mn12 O19 1.949909 1_555
Mn12 O17 1.956153 1_555
Mn12 O21 1.971382 1_555
Mn12 O23 1.973283 1_555
Mn13 O11 1.964153 1_554
Mn13 O14 1.964707 1_555
Mn13 O13 1.964915 1_554
Mn13 O8 1.965150 1_555
O0 Pb1 2.737604 1_555
O1 Pb0 2.738425 1_555
O2 Pb0 2.739851 1_664
O3 Pb1 2.739060 1_555
O4 Pb1 2.737756 1_555
O5 Pb0 2.739061 1_665
O6 Pb0 2.739925 1_554
O7 Pb1 2.739973 1_555
O8 Pb0 2.732442 1_664
O9 Pb1 2.729582 1_555
O10 Pb1 2.730295 1_555
O11 Pb0 2.729861 1_555
O12 Pb1 2.730216 1_555
O13 Pb0 2.731569 1_665
O14 Pb0 2.730645 1_554
O15 Pb1 2.729464 1_555
O16 Pb1 2.776301 1_555
O17 Pb0 2.776841 1_655
O18 Pb0 2.777526 1_564
O19 Pb1 2.773426 1_555
O20 Pb1 2.741275 1_555
O21 Pb0 2.747876 1_655
O22 Pb0 2.749870 1_564
O23 Pb1 2.739890 1_555
