# generated using pymatgen
data_VCu3(SeS)2
_symmetry_space_group_name_H-M   'P 1'
_cell_length_a   5.50842063
_cell_length_b   5.50842063
_cell_length_c   5.51540600
_cell_angle_alpha   90.00000000
_cell_angle_beta   90.00000000
_cell_angle_gamma   91.14687865
_symmetry_Int_Tables_number   1
_chemical_formula_structural   VCu3(SeS)2
_chemical_formula_sum   'V1 Cu3 Se2 S2'
_cell_volume   167.31877181
_cell_formula_units_Z   1
loop_
 _symmetry_equiv_pos_site_id
 _symmetry_equiv_pos_as_xyz
  1  'x, y, z'
loop_
 _atom_site_type_symbol
 _atom_site_label
 _atom_site_symmetry_multiplicity
 _atom_site_fract_x
 _atom_site_fract_y
 _atom_site_fract_z
 _atom_site_occupancy
  V  V0  1  0.00000000  0.00000000  0.00070400  1
  Cu  Cu0  1  0.50000000  0.00000000  0.01408100  1
  Cu  Cu1  1  0.00000000  0.50000000  0.01408100  1
  Cu  Cu2  1  0.00000000  0.00000000  0.49199000  1
  Se  Se0  1  0.75040000  0.75040000  0.75510800  1
  Se  Se1  1  0.24960000  0.24960000  0.75510800  1
  S  S0  1  0.23001800  0.76998200  0.23446400  1
  S  S1  1  0.76998200  0.23001800  0.23446400  1
loop_
_geom_bond_atom_site_label_1
_geom_bond_atom_site_label_2
_geom_bond_distance
_geom_bond_site_symmetry_2
Cu0 S0 2.284531 1_545
Cu0 S1 2.284531 1_555
Cu0 Se1 2.430827 1_554
Cu0 Se0 2.430827 1_544
Cu1 S1 2.284531 1_455
Cu1 S0 2.284531 1_555
Cu1 Se1 2.430827 1_554
Cu1 Se0 2.430827 1_454
Cu2 S1 2.300532 1_455
Cu2 S0 2.300532 1_545
Cu2 Se0 2.410607 1_445
Cu2 Se1 2.410607 1_555
Se0 V0 2.353694 1_666
Se1 V0 2.353694 1_556
S0 V0 2.221997 1_565
S1 V0 2.221997 1_655
