# generated using pymatgen
data_Ce2Ge2IrRh
_symmetry_space_group_name_H-M   'P 1'
_cell_length_a   4.45619976
_cell_length_b   7.13832145
_cell_length_c   7.46519657
_cell_angle_alpha   90.00102832
_cell_angle_beta   90.00000000
_cell_angle_gamma   90.00000000
_symmetry_Int_Tables_number   1
_chemical_formula_structural   Ce2Ge2IrRh
_chemical_formula_sum   'Ce4 Ge4 Ir2 Rh2'
_cell_volume   237.46630780
_cell_formula_units_Z   2
loop_
 _symmetry_equiv_pos_site_id
 _symmetry_equiv_pos_as_xyz
  1  'x, y, z'
loop_
 _atom_site_type_symbol
 _atom_site_label
 _atom_site_symmetry_multiplicity
 _atom_site_fract_x
 _atom_site_fract_y
 _atom_site_fract_z
 _atom_site_occupancy
  Ce  Ce0  1  0.50000000  0.52030996  0.54890841  1
  Ce  Ce1  1  0.50000000  0.02033737  0.45100444  1
  Ce  Ce2  1  -0.00000000  0.48133179  0.94695496  1
  Ce  Ce3  1  -0.00000000  0.98125853  0.05307628  1
  Ge  Ge0  1  0.50000000  0.17708992  0.83612755  1
  Ge  Ge1  1  0.50000000  0.67717375  0.16388086  1
  Ge  Ge2  1  0.00000000  0.82331033  0.66630828  1
  Ge  Ge3  1  -0.00000000  0.32326070  0.33369873  1
  Ir  Ir0  1  0.50000000  0.78988332  0.83650921  1
  Ir  Ir1  1  0.50000000  0.28981727  0.16352545  1
  Rh  Rh0  1  -0.00000000  0.20808083  0.66409653  1
  Rh  Rh1  1  -0.00000000  0.70814724  0.33590930  1
loop_
_geom_bond_atom_site_label_1
_geom_bond_atom_site_label_2
_geom_bond_distance
_geom_bond_site_symmetry_2
Ce0 Ir0 2.883120 1_555
Ce0 Rh1 3.048068 1_655
Ce0 Rh1 3.048068 1_555
Ce0 Ge1 3.084733 1_555
Ce0 Ge3 3.086095 1_655
Ce0 Ge3 3.086095 1_555
Ce0 Ge2 3.226555 1_655
Ce0 Ge2 3.226555 1_555
Ce0 Ge0 3.255784 1_555
Ce0 Rh0 3.266717 1_555
Ce0 Rh0 3.266717 1_655
Ce0 Ir1 3.314188 1_555
Ce1 Ir1 2.882049 1_555
Ce1 Rh0 3.048111 1_555
Ce1 Rh0 3.048111 1_655
Ce1 Ge0 3.085072 1_555
Ce1 Ge2 3.086415 1_545
Ce1 Ge2 3.086415 1_645
Ce1 Ge3 3.226017 1_555
Ce1 Ge3 3.226017 1_655
Ce1 Ge1 3.254953 1_545
Ce1 Rh1 3.266324 1_645
Ce1 Rh1 3.266324 1_545
Ce1 Ir0 3.314891 1_545
Ce2 Rh0 2.874602 1_555
Ce2 Ir1 3.073646 1_556
Ce2 Ir1 3.073646 1_456
Ce2 Ge1 3.088874 1_556
Ce2 Ge1 3.088874 1_456
Ce2 Ge3 3.099802 1_556
Ce2 Ge2 3.216952 1_555
Ce2 Ge0 3.219547 1_555
Ce2 Ge0 3.219547 1_455
Ce2 Ir0 3.239672 1_455
Ce2 Ir0 3.239672 1_555
Ce2 Rh1 3.324495 1_556
Ce3 Rh1 2.873838 1_555
Ce3 Ir0 3.073165 1_554
Ce3 Ir0 3.073165 1_454
Ce3 Ge0 3.088955 1_564
Ce3 Ge0 3.088955 1_464
Ce3 Ge2 3.099613 1_554
Ce3 Ge3 3.216905 1_565
Ce3 Ge1 3.218767 1_455
Ce3 Ge1 3.218767 1_555
Ce3 Ir1 3.239694 1_565
Ce3 Ir1 3.239694 1_465
Ce3 Rh0 3.324736 1_564
Ge0 Ir1 2.573134 1_556
Ge0 Rh0 2.581214 1_555
Ge0 Rh0 2.581214 1_655
Ge0 Ir0 2.764007 1_545
Ge1 Ir0 2.572936 1_554
Ge1 Rh1 2.581190 1_655
Ge1 Rh1 2.581190 1_555
Ge1 Ir1 2.765076 1_555
Ge2 Ir0 2.575997 1_455
Ge2 Ir0 2.575997 1_555
Ge2 Rh1 2.599869 1_555
Ge2 Rh0 2.746665 1_565
Ge3 Ir1 2.575901 1_555
Ge3 Ir1 2.575901 1_455
Ge3 Rh0 2.599926 1_555
Ge3 Rh1 2.747493 1_555
