# generated using pymatgen
data_BaVN2
_symmetry_space_group_name_H-M   'P 1'
_cell_length_a   6.66306338
_cell_length_b   11.99011615
_cell_length_c   7.79216181
_cell_angle_alpha   90.00000000
_cell_angle_beta   90.00000000
_cell_angle_gamma   25.87541770
_symmetry_Int_Tables_number   1
_chemical_formula_structural   BaVN2
_chemical_formula_sum   'Ba4 V4 N8'
_cell_volume   271.67880747
_cell_formula_units_Z   4
loop_
 _symmetry_equiv_pos_site_id
 _symmetry_equiv_pos_as_xyz
  1  'x, y, z'
loop_
 _atom_site_type_symbol
 _atom_site_label
 _atom_site_symmetry_multiplicity
 _atom_site_fract_x
 _atom_site_fract_y
 _atom_site_fract_z
 _atom_site_occupancy
  Ba  Ba0  1  -0.00000000  0.16774890  0.56933215  1
  Ba  Ba1  1  0.00000000  0.83225110  0.43066785  1
  Ba  Ba2  1  0.00000000  0.33225110  0.06933215  1
  Ba  Ba3  1  -0.00000000  0.66774890  0.93066785  1
  V  V0  1  0.00000000  0.44445841  0.64182930  1
  V  V1  1  1.00000000  0.55554159  0.35817070  1
  V  V2  1  1.00000000  0.05554159  0.14182930  1
  V  V3  1  0.00000000  0.94445841  0.85817070  1
  N  N0  1  0.00000000  0.10208981  0.91171242  1
  N  N1  1  1.00000000  0.89791019  0.08828758  1
  N  N2  1  1.00000000  0.39791019  0.41171242  1
  N  N3  1  0.00000000  0.60208981  0.58828758  1
  N  N4  1  0.50000000  0.63282493  0.75000000  1
  N  N5  1  0.50000000  0.86717507  0.25000000  1
  N  N6  1  0.50000000  0.36717507  0.25000000  1
  N  N7  1  0.50000000  0.13282493  0.75000000  1
loop_
_geom_bond_atom_site_label_1
_geom_bond_atom_site_label_2
_geom_bond_distance
_geom_bond_site_symmetry_2
Ba0 N0 2.781614 1_555
Ba0 N5 2.945030 1_545
Ba0 N6 2.945030 1_455
Ba0 N3 3.016170 1_645
Ba0 N3 3.016170 1_455
Ba0 N2 3.020629 1_455
Ba0 N4 3.278100 1_455
Ba0 N7 3.278101 1_555
Ba1 N1 2.781614 1_455
Ba1 N7 2.945030 1_465
Ba1 N4 2.945030 1_555
Ba1 N2 3.016170 1_365
Ba1 N2 3.016170 1_555
Ba1 N3 3.020629 1_555
Ba1 N6 3.278100 1_555
Ba1 N5 3.278101 1_455
Ba2 N2 2.781614 1_455
Ba2 N4 2.945030 1_454
Ba2 N7 2.945030 1_554
Ba2 N1 3.016170 1_355
Ba2 N1 3.016170 1_545
Ba2 N0 3.020629 1_554
Ba2 N5 3.278100 1_545
Ba2 N6 3.278101 1_455
Ba3 N3 2.781614 1_555
Ba3 N6 2.945030 1_556
Ba3 N5 2.945030 1_456
Ba3 N0 3.016170 1_655
Ba3 N0 3.016170 1_465
Ba3 N1 3.020629 1_456
Ba3 N7 3.278100 1_465
Ba3 N4 3.278101 1_555
N0 V2 1.877960 1_456
N0 V3 1.935518 1_545
N1 V3 1.877960 1_654
N1 V2 1.935518 1_565
N2 V0 1.877960 1_655
N2 V1 1.935518 1_555
N3 V1 1.877960 1_455
N3 V0 1.935518 1_555
N4 V3 1.835888 1_555
N4 V0 1.835888 1_655
N5 V1 1.835888 1_555
N5 V2 1.835888 1_465
N6 V2 1.835888 1_555
N6 V1 1.835888 1_455
N7 V0 1.835888 1_555
N7 V3 1.835888 1_645
