# generated using pymatgen
data_KTa(PO4)2
_symmetry_space_group_name_H-M   'P 1'
_cell_length_a   5.02726259
_cell_length_b   5.02726259
_cell_length_c   8.29809819
_cell_angle_alpha   86.54006699
_cell_angle_beta   86.54006699
_cell_angle_gamma   63.70446194
_symmetry_Int_Tables_number   1
_chemical_formula_structural   KTa(PO4)2
_chemical_formula_sum   'K1 Ta1 P2 O8'
_cell_volume   187.54400835
_cell_formula_units_Z   1
loop_
 _symmetry_equiv_pos_site_id
 _symmetry_equiv_pos_as_xyz
  1  'x, y, z'
loop_
 _atom_site_type_symbol
 _atom_site_label
 _atom_site_symmetry_multiplicity
 _atom_site_fract_x
 _atom_site_fract_y
 _atom_site_fract_z
 _atom_site_occupancy
  K  K0  1  0.00000000  0.00000000  0.50000000  1
  Ta  Ta0  1  0.00000000  0.00000000  0.00000000  1
  P  P0  1  0.63577500  0.63577500  0.20555100  1
  P  P1  1  0.36422500  0.36422500  0.79444900  1
  O  O0  1  0.68266800  0.68266800  0.37454700  1
  O  O1  1  0.31733200  0.31733200  0.62545300  1
  O  O2  1  0.29831700  0.77114300  0.16506500  1
  O  O3  1  0.70168300  0.22885700  0.83493500  1
  O  O4  1  0.22885700  0.70168300  0.83493500  1
  O  O5  1  0.77114300  0.29831700  0.16506500  1
  O  O6  1  0.77725100  0.77725100  0.07274700  1
  O  O7  1  0.22274900  0.22274900  0.92725300  1
loop_
_geom_bond_atom_site_label_1
_geom_bond_atom_site_label_2
_geom_bond_distance
_geom_bond_site_symmetry_2
K0 O0 2.971458 1_445
K0 O1 2.971458 1_555
K0 O2 3.106701 1_545
K0 O5 3.106701 1_455
K0 O4 3.106701 1_545
K0 O3 3.106701 1_455
K0 O1 3.213310 1_455
K0 O0 3.213310 1_545
K0 O1 3.213310 1_545
K0 O0 3.213310 1_455
O0 P0 1.485519 1_555
O1 P1 1.485519 1_555
O2 P0 1.572375 1_555
O2 Ta0 1.994486 1_565
O3 P1 1.572375 1_555
O3 Ta0 1.994486 1_656
O4 P1 1.572375 1_555
O4 Ta0 1.994486 1_566
O5 P0 1.572375 1_555
O5 Ta0 1.994486 1_655
O6 P0 1.576435 1_555
O6 Ta0 1.954545 1_665
O7 P1 1.576435 1_555
O7 Ta0 1.954545 1_556
