# generated using pymatgen
data_NaMg14TiO16
_symmetry_space_group_name_H-M   'P 1'
_cell_length_a   8.56729025
_cell_length_b   8.57186413
_cell_length_c   4.27515420
_cell_angle_alpha   90.00000000
_cell_angle_beta   90.00000000
_cell_angle_gamma   90.00000000
_symmetry_Int_Tables_number   1
_chemical_formula_structural   NaMg14TiO16
_chemical_formula_sum   'Na1 Mg14 Ti1 O16'
_cell_volume   313.95726922
_cell_formula_units_Z   1
loop_
 _symmetry_equiv_pos_site_id
 _symmetry_equiv_pos_as_xyz
  1  'x, y, z'
loop_
 _atom_site_type_symbol
 _atom_site_label
 _atom_site_symmetry_multiplicity
 _atom_site_fract_x
 _atom_site_fract_y
 _atom_site_fract_z
 _atom_site_occupancy
  Na  Na0  1  -0.00000000  0.50000000  0.00000000  1
  Mg  Mg0  1  0.50000000  0.00000000  0.00000000  1
  Mg  Mg1  1  0.50000000  0.50000000  0.00000000  1
  Mg  Mg2  1  -0.00000000  0.25920238  0.50000000  1
  Mg  Mg3  1  -0.00000000  0.74079762  0.50000000  1
  Mg  Mg4  1  0.50000000  0.25242765  0.50000000  1
  Mg  Mg5  1  0.50000000  0.74757235  0.50000000  1
  Mg  Mg6  1  0.25281435  -0.00000000  0.50000000  1
  Mg  Mg7  1  0.24727567  0.50000000  0.50000000  1
  Mg  Mg8  1  0.74718565  0.00000000  0.50000000  1
  Mg  Mg9  1  0.75272433  0.50000000  0.50000000  1
  Mg  Mg10  1  0.25216963  0.25628887  0.00000000  1
  Mg  Mg11  1  0.25216963  0.74371113  -0.00000000  1
  Mg  Mg12  1  0.74783037  0.25628887  0.00000000  1
  Mg  Mg13  1  0.74783037  0.74371113  0.00000000  1
  Ti  Ti0  1  -0.00000000  -0.00000000  0.00000000  1
  O  O0  1  0.24745692  -0.00000000  0.00000000  1
  O  O1  1  0.26421925  0.50000000  0.00000000  1
  O  O2  1  0.75254308  -0.00000000  -0.00000000  1
  O  O3  1  0.73578075  0.50000000  0.00000000  1
  O  O4  1  0.24875788  0.24831106  0.50000000  1
  O  O5  1  0.24875788  0.75168894  0.50000000  1
  O  O6  1  0.75124212  0.24831106  0.50000000  1
  O  O7  1  0.75124212  0.75168894  0.50000000  1
  O  O8  1  -0.00000000  0.00000000  0.50000000  1
  O  O9  1  -0.00000000  0.50000000  0.50000000  1
  O  O10  1  0.50000000  0.00000000  0.50000000  1
  O  O11  1  0.50000000  0.50000000  0.50000000  1
  O  O12  1  -0.00000000  0.23231969  0.00000000  1
  O  O13  1  -0.00000000  0.76768031  -0.00000000  1
  O  O14  1  0.50000000  0.24478942  -0.00000000  1
  O  O15  1  0.50000000  0.75521058  0.00000000  1
loop_
_geom_bond_atom_site_label_1
_geom_bond_atom_site_label_2
_geom_bond_distance
_geom_bond_site_symmetry_2
Na0 O9 2.137577 1_554
Na0 O9 2.137577 1_555
Na0 O1 2.263643 1_555
Na0 O3 2.263643 1_455
Na0 O12 2.294519 1_555
Na0 O13 2.294519 1_555
Mg0 O14 2.098302 1_555
Mg0 O15 2.098302 1_545
Mg0 O10 2.137577 1_555
Mg0 O10 2.137577 1_554
Mg0 O0 2.163610 1_555
Mg0 O2 2.163610 1_555
Mg1 O1 2.020002 1_555
Mg1 O3 2.020002 1_555
Mg1 O11 2.137577 1_554
Mg1 O11 2.137577 1_555
Mg1 O15 2.187630 1_555
Mg1 O14 2.187630 1_555
Mg2 O9 2.064084 1_555
Mg2 O4 2.133225 1_555
Mg2 O6 2.133225 1_455
Mg2 O12 2.149962 1_555
Mg2 O12 2.149962 1_556
Mg2 O8 2.221848 1_555
Mg3 O9 2.064084 1_555
Mg3 O5 2.133225 1_555
Mg3 O7 2.133225 1_455
Mg3 O13 2.149962 1_556
Mg3 O13 2.149962 1_555
Mg3 O8 2.221848 1_565
Mg4 O11 2.122157 1_555
Mg4 O14 2.138580 1_555
Mg4 O14 2.138580 1_556
Mg4 O4 2.152753 1_555
Mg4 O6 2.152753 1_555
Mg4 O10 2.163776 1_555
Mg5 O11 2.122157 1_555
Mg5 O15 2.138580 1_556
Mg5 O15 2.138580 1_555
Mg5 O5 2.152753 1_555
Mg5 O7 2.152753 1_555
Mg5 O10 2.163776 1_565
Mg6 O10 2.117711 1_555
Mg6 O4 2.128772 1_555
Mg6 O5 2.128772 1_545
Mg6 O0 2.138070 1_555
Mg6 O0 2.138070 1_556
Mg6 O8 2.165934 1_555
Mg7 O9 2.118482 1_555
Mg7 O1 2.142500 1_555
Mg7 O1 2.142500 1_556
Mg7 O5 2.157481 1_555
Mg7 O4 2.157481 1_555
Mg7 O11 2.165163 1_555
Mg8 O10 2.117711 1_555
Mg8 O6 2.128772 1_555
Mg8 O7 2.128772 1_545
Mg8 O2 2.138070 1_556
Mg8 O2 2.138070 1_555
Mg8 O8 2.165934 1_655
Mg9 O9 2.118482 1_655
Mg9 O3 2.142500 1_555
Mg9 O3 2.142500 1_556
Mg9 O6 2.157481 1_555
Mg9 O7 2.157481 1_555
Mg9 O11 2.165163 1_555
Mg10 O1 2.091608 1_555
Mg10 O14 2.125522 1_555
Mg10 O4 2.138870 1_554
Mg10 O4 2.138870 1_555
Mg10 O12 2.170158 1_555
Mg10 O0 2.197244 1_555
Mg11 O1 2.091608 1_555
Mg11 O15 2.125522 1_555
Mg11 O5 2.138870 1_554
Mg11 O5 2.138870 1_555
Mg11 O13 2.170158 1_555
Mg11 O0 2.197244 1_565
Mg12 O3 2.091608 1_555
Mg12 O14 2.125522 1_555
Mg12 O6 2.138870 1_554
Mg12 O6 2.138870 1_555
Mg12 O12 2.170158 1_655
Mg12 O2 2.197244 1_555
Mg13 O3 2.091608 1_555
Mg13 O15 2.125522 1_555
Mg13 O7 2.138870 1_554
Mg13 O7 2.138870 1_555
Mg13 O13 2.170158 1_655
Mg13 O2 2.197244 1_565
O0 Ti0 2.120035 1_555
O2 Ti0 2.120035 1_655
O8 Ti0 2.137577 1_555
O8 Ti0 2.137577 1_556
O12 Ti0 1.991413 1_555
O13 Ti0 1.991413 1_565
