# generated using pymatgen
data_BaCaI4
_symmetry_space_group_name_H-M   'P 1'
_cell_length_a   5.70046300
_cell_length_b   5.70046300
_cell_length_c   8.16845400
_cell_angle_alpha   90.00000000
_cell_angle_beta   90.00000000
_cell_angle_gamma   90.00000000
_symmetry_Int_Tables_number   1
_chemical_formula_structural   BaCaI4
_chemical_formula_sum   'Ba1 Ca1 I4'
_cell_volume   265.43618694
_cell_formula_units_Z   1
loop_
 _symmetry_equiv_pos_site_id
 _symmetry_equiv_pos_as_xyz
  1  'x, y, z'
loop_
 _atom_site_type_symbol
 _atom_site_label
 _atom_site_symmetry_multiplicity
 _atom_site_fract_x
 _atom_site_fract_y
 _atom_site_fract_z
 _atom_site_occupancy
  Ba  Ba0  1  0.50000000  0.50000000  0.00000000  1
  Ca  Ca0  1  0.00000000  0.00000000  0.50000000  1
  I  I0  1  0.00000000  0.50000000  0.26463800  1
  I  I1  1  0.50000000  0.00000000  0.26463800  1
  I  I2  1  0.00000000  0.50000000  0.73536200  1
  I  I3  1  0.50000000  0.00000000  0.73536200  1
loop_
_geom_bond_atom_site_label_1
_geom_bond_atom_site_label_2
_geom_bond_distance
_geom_bond_site_symmetry_2
Ba0 I3 3.577247 1_554
Ba0 I2 3.577247 1_654
Ba0 I0 3.577247 1_555
Ba0 I1 3.577247 1_565
Ba0 I0 3.577247 1_655
Ba0 I2 3.577247 1_554
Ba0 I1 3.577247 1_555
Ba0 I3 3.577247 1_564
Ca0 I3 3.438022 1_455
Ca0 I2 3.438022 1_545
Ca0 I2 3.438022 1_555
Ca0 I3 3.438022 1_555
Ca0 I0 3.438022 1_555
Ca0 I0 3.438022 1_545
Ca0 I1 3.438022 1_555
Ca0 I1 3.438022 1_455
