# generated using pymatgen
data_KAgCO3
_symmetry_space_group_name_H-M   'P 1'
_cell_length_a   11.05620999
_cell_length_b   11.05620999
_cell_length_c   11.05620999
_cell_angle_alpha   149.25721206
_cell_angle_beta   148.84455836
_cell_angle_gamma   44.33732288
_symmetry_Int_Tables_number   1
_chemical_formula_structural   KAgCO3
_chemical_formula_sum   'K4 Ag4 C4 O12'
_cell_volume   356.37878717
_cell_formula_units_Z   4
loop_
 _symmetry_equiv_pos_site_id
 _symmetry_equiv_pos_as_xyz
  1  'x, y, z'
loop_
 _atom_site_type_symbol
 _atom_site_label
 _atom_site_symmetry_multiplicity
 _atom_site_fract_x
 _atom_site_fract_y
 _atom_site_fract_z
 _atom_site_occupancy
  K  K0  1  0.06971700  0.31971700  0.75000000  1
  K  K1  1  0.43028300  0.18028300  0.25000000  1
  K  K2  1  0.93028300  0.68028300  0.25000000  1
  K  K3  1  0.56971700  0.81971700  0.75000000  1
  Ag  Ag0  1  0.13297000  0.25000000  0.38297000  1
  Ag  Ag1  1  0.36703000  0.75000000  0.11703000  1
  Ag  Ag2  1  0.86703000  0.75000000  0.61703000  1
  Ag  Ag3  1  0.63297000  0.25000000  0.88297000  1
  C  C0  1  0.37314700  0.62314700  0.75000000  1
  C  C1  1  0.12685300  0.87685300  0.25000000  1
  C  C2  1  0.62685300  0.37685300  0.25000000  1
  C  C3  1  0.87314700  0.12314700  0.75000000  1
  O  O0  1  0.43600300  0.68600300  0.75000000  1
  O  O1  1  0.06399700  0.81399700  0.25000000  1
  O  O2  1  0.56399700  0.31399700  0.25000000  1
  O  O3  1  0.93600300  0.18600300  0.75000000  1
  O  O4  1  0.46409900  0.44127900  0.72201100  1
  O  O5  1  0.21926800  0.74208800  0.77798900  1
  O  O6  1  0.03590100  0.75791200  0.97718100  1
  O  O7  1  0.28073200  0.05872100  0.52281900  1
  O  O8  1  0.53590100  0.55872100  0.27798900  1
  O  O9  1  0.78073200  0.25791200  0.22201100  1
  O  O10  1  0.96409900  0.24208800  0.02281900  1
  O  O11  1  0.71926800  0.94127900  0.47718100  1
loop_
_geom_bond_atom_site_label_1
_geom_bond_atom_site_label_2
_geom_bond_distance
_geom_bond_site_symmetry_2
K0 O3 2.738169 1_455
K0 O6 2.831804 1_555
K0 O7 2.831817 1_555
K0 O1 2.933062 1_545
K0 O1 2.933062 1_556
K0 O2 2.971403 1_556
K0 O2 2.971403 1_455
K0 O8 3.016004 1_556
K0 O9 3.016004 1_455
K1 O2 2.738169 1_555
K1 O4 2.831809 1_555
K1 O5 2.831809 1_544
K1 O0 2.933062 1_544
K1 O0 2.933062 1_555
K1 O3 2.971403 1_454
K1 O3 2.971403 1_555
K1 O10 3.015999 1_455
K1 O11 3.016011 1_545
K2 O1 2.738169 1_655
K2 O10 2.831804 1_555
K2 O11 2.831817 1_555
K2 O3 2.933062 1_565
K2 O3 2.933062 1_554
K2 O0 2.971403 1_655
K2 O0 2.971403 1_554
K2 O4 3.016004 1_554
K2 O5 3.016004 1_655
K3 O0 2.738169 1_555
K3 O9 2.831809 1_566
K3 O8 2.831809 1_555
K3 O2 2.933062 1_555
K3 O2 2.933062 1_566
K3 O1 2.971403 1_555
K3 O1 2.971403 1_656
K3 O6 3.015999 1_655
K3 O7 3.016011 1_565
Ag0 O7 2.426394 1_555
Ag0 O4 2.426403 1_555
Ag0 O9 2.501920 1_455
Ag0 O10 2.501930 1_455
Ag1 O5 2.426403 1_554
Ag1 O6 2.426410 1_554
Ag1 O11 2.501915 1_555
Ag1 O8 2.501920 1_555
Ag2 O11 2.426394 1_555
Ag2 O8 2.426403 1_555
Ag2 O5 2.501920 1_655
Ag2 O6 2.501930 1_655
Ag3 O9 2.426403 1_556
Ag3 O10 2.426410 1_556
Ag3 O7 2.501915 1_555
Ag3 O4 2.501920 1_555
C0 O0 1.287153 1_555
C0 O4 1.311772 1_555
C0 O5 1.311772 1_555
C1 O1 1.287153 1_555
C1 O6 1.311763 1_554
C1 O7 1.311773 1_565
C2 O2 1.287153 1_555
C2 O9 1.311772 1_555
C2 O8 1.311772 1_555
C3 O3 1.287153 1_555
C3 O10 1.311763 1_556
C3 O11 1.311773 1_545
