# generated using pymatgen
data_Hf2SiNi3
_symmetry_space_group_name_H-M   'P 1'
_cell_length_a   4.99219105
_cell_length_b   4.99219105
_cell_length_c   7.77815200
_cell_angle_alpha   90.00000000
_cell_angle_beta   90.00000000
_cell_angle_gamma   119.99998746
_symmetry_Int_Tables_number   1
_chemical_formula_structural   Hf2SiNi3
_chemical_formula_sum   'Hf4 Si2 Ni6'
_cell_volume   167.87634599
_cell_formula_units_Z   2
loop_
 _symmetry_equiv_pos_site_id
 _symmetry_equiv_pos_as_xyz
  1  'x, y, z'
loop_
 _atom_site_type_symbol
 _atom_site_label
 _atom_site_symmetry_multiplicity
 _atom_site_fract_x
 _atom_site_fract_y
 _atom_site_fract_z
 _atom_site_occupancy
  Hf  Hf0  1  0.33333300  0.66666700  0.44554300  1
  Hf  Hf1  1  0.66666700  0.33333300  0.55445700  1
  Hf  Hf2  1  0.66666700  0.33333300  0.94554300  1
  Hf  Hf3  1  0.33333300  0.66666700  0.05445700  1
  Si  Si0  1  0.00000000  0.00000000  0.50000000  1
  Si  Si1  1  0.00000000  0.00000000  0.00000000  1
  Ni  Ni0  1  0.83279600  0.16720400  0.25000000  1
  Ni  Ni1  1  0.83279600  0.66559200  0.25000000  1
  Ni  Ni2  1  0.33440800  0.16720400  0.25000000  1
  Ni  Ni3  1  0.16720400  0.83279600  0.75000000  1
  Ni  Ni4  1  0.16720400  0.33440800  0.75000000  1
  Ni  Ni5  1  0.66559200  0.83279600  0.75000000  1
loop_
_geom_bond_atom_site_label_1
_geom_bond_atom_site_label_2
_geom_bond_distance
_geom_bond_site_symmetry_2
Hf0 Ni3 2.769731 1_555
Hf0 Ni4 2.769734 1_555
Hf0 Ni5 2.769734 1_555
Hf0 Si0 2.913198 1_565
Hf0 Si0 2.913203 1_555
Hf0 Si0 2.913203 1_665
Hf0 Ni2 2.922983 1_565
Hf0 Ni1 2.922983 1_455
Hf0 Ni0 2.922986 1_455
Hf0 Ni0 2.922986 1_565
Hf0 Ni2 2.922987 1_555
Hf0 Ni1 2.922987 1_555
Hf1 Ni0 2.769731 1_555
Hf1 Ni2 2.769734 1_555
Hf1 Ni1 2.769734 1_555
Hf1 Si0 2.913198 1_655
Hf1 Si0 2.913203 1_555
Hf1 Si0 2.913203 1_665
Hf1 Ni4 2.922983 1_655
Hf1 Ni5 2.922983 1_545
Hf1 Ni3 2.922986 1_545
Hf1 Ni3 2.922986 1_655
Hf1 Ni4 2.922987 1_555
Hf1 Ni5 2.922987 1_555
Hf2 Ni0 2.769731 1_556
Hf2 Ni2 2.769734 1_556
Hf2 Ni1 2.769734 1_556
Hf2 Si1 2.913198 1_656
Hf2 Si1 2.913203 1_556
Hf2 Si1 2.913203 1_666
Hf2 Ni4 2.922983 1_655
Hf2 Ni5 2.922983 1_545
Hf2 Ni3 2.922986 1_655
Hf2 Ni3 2.922986 1_545
Hf2 Ni4 2.922987 1_555
Hf2 Ni5 2.922987 1_555
Hf3 Ni3 2.769731 1_554
Hf3 Ni4 2.769734 1_554
Hf3 Ni5 2.769734 1_554
Hf3 Si1 2.913198 1_565
Hf3 Si1 2.913203 1_665
Hf3 Si1 2.913203 1_555
Hf3 Ni2 2.922983 1_565
Hf3 Ni1 2.922983 1_455
Hf3 Ni0 2.922986 1_455
Hf3 Ni0 2.922986 1_565
Hf3 Ni2 2.922987 1_555
Hf3 Ni1 2.922987 1_555
Ni0 Si0 2.423112 1_655
Ni0 Si1 2.423112 1_655
Ni0 Ni2 2.488048 1_555
Ni0 Ni1 2.488048 1_555
Ni0 Ni2 2.504143 1_655
Ni0 Ni1 2.504143 1_545
Ni1 Si1 2.423112 1_665
Ni1 Si0 2.423112 1_665
Ni1 Ni2 2.488049 1_555
Ni1 Ni2 2.504143 1_665
Ni2 Si0 2.423112 1_555
Ni2 Si1 2.423112 1_555
Ni3 Si1 2.423112 1_566
Ni3 Si0 2.423112 1_565
Ni3 Ni5 2.488048 1_555
Ni3 Ni4 2.488048 1_555
Ni3 Ni5 2.504143 1_455
Ni3 Ni4 2.504143 1_565
Ni4 Si0 2.423112 1_555
Ni4 Si1 2.423112 1_556
Ni4 Ni5 2.488049 1_555
Ni4 Ni5 2.504143 1_445
Ni5 Si0 2.423112 1_665
Ni5 Si1 2.423112 1_666
