# generated using pymatgen
data_Ta2AlC
_symmetry_space_group_name_H-M   'P 1'
_cell_length_a   3.07264790
_cell_length_b   3.07264790
_cell_length_c   15.67785419
_cell_angle_alpha   90.00000000
_cell_angle_beta   90.00000000
_cell_angle_gamma   119.99998148
_symmetry_Int_Tables_number   1
_chemical_formula_structural   Ta2AlC
_chemical_formula_sum   'Ta4 Al2 C2'
_cell_volume   128.18668806
_cell_formula_units_Z   2
loop_
 _symmetry_equiv_pos_site_id
 _symmetry_equiv_pos_as_xyz
  1  'x, y, z'
loop_
 _atom_site_type_symbol
 _atom_site_label
 _atom_site_symmetry_multiplicity
 _atom_site_fract_x
 _atom_site_fract_y
 _atom_site_fract_z
 _atom_site_occupancy
  Ta  Ta0  1  0.33333300  0.66666700  0.42040596  1
  Ta  Ta1  1  0.66666700  0.33333300  0.57959404  1
  Ta  Ta2  1  0.66666700  0.33333300  0.92038076  1
  Ta  Ta3  1  0.33333300  0.66666700  0.07961924  1
  Al  Al0  1  0.66666700  0.33333300  0.74999812  1
  Al  Al1  1  0.33333300  0.66666700  0.25000188  1
  C  C0  1  -0.00000000  0.00000000  0.50000000  1
  C  C1  1  -0.00000000  0.00000000  -0.00000000  1
loop_
_geom_bond_atom_site_label_1
_geom_bond_atom_site_label_2
_geom_bond_distance
_geom_bond_site_symmetry_2
Al0 Ta2 2.671234 1_555
Al0 Ta1 2.671570 1_555
Al1 Ta3 2.671234 1_555
Al1 Ta0 2.671570 1_555
C0 Ta0 2.168920 1_545
C0 Ta1 2.168920 1_455
C0 Ta0 2.168922 1_555
C0 Ta0 2.168922 1_445
C0 Ta1 2.168922 1_555
C0 Ta1 2.168922 1_445
C1 Ta3 2.169147 1_545
C1 Ta2 2.169147 1_454
C1 Ta2 2.169149 1_554
C1 Ta2 2.169149 1_444
C1 Ta3 2.169149 1_555
C1 Ta3 2.169149 1_445
