# generated using pymatgen
data_SbO2
_symmetry_space_group_name_H-M   'P 1'
_cell_length_a   6.15613508
_cell_length_b   6.15613508
_cell_length_c   6.15613508
_cell_angle_alpha   117.55495315
_cell_angle_beta   106.78981787
_cell_angle_gamma   104.39108579
_symmetry_Int_Tables_number   1
_chemical_formula_structural   SbO2
_chemical_formula_sum   'Sb4 O8'
_cell_volume   176.81487945
_cell_formula_units_Z   4
loop_
 _symmetry_equiv_pos_site_id
 _symmetry_equiv_pos_as_xyz
  1  'x, y, z'
loop_
 _atom_site_type_symbol
 _atom_site_label
 _atom_site_symmetry_multiplicity
 _atom_site_fract_x
 _atom_site_fract_y
 _atom_site_fract_z
 _atom_site_occupancy
  Sb  Sb0  1  0.56609400  0.81609400  0.75000000  1
  Sb  Sb1  1  0.43390600  0.18390600  0.25000000  1
  Sb  Sb2  1  0.00000000  0.00000000  0.50000000  1
  Sb  Sb3  1  0.00000000  0.50000000  0.00000000  1
  O  O0  1  0.26406800  0.25585700  0.49179000  1
  O  O1  1  0.17742700  0.24844800  0.92897900  1
  O  O2  1  0.26406800  0.77227800  0.00821000  1
  O  O3  1  0.81946800  0.24844800  0.57102100  1
  O  O4  1  0.18053200  0.75155200  0.42897900  1
  O  O5  1  0.82257300  0.75155200  0.07102100  1
  O  O6  1  0.73593200  0.22772200  0.99179000  1
  O  O7  1  0.73593200  0.74414300  0.50821000  1
loop_
_geom_bond_atom_site_label_1
_geom_bond_atom_site_label_2
_geom_bond_distance
_geom_bond_site_symmetry_2
O0 Sb2 1.993615 1_555
O0 Sb1 2.006061 1_555
O1 Sb2 2.067024 1_555
O1 Sb3 2.067024 1_556
O1 Sb1 2.406668 1_556
O2 Sb3 1.993619 1_555
O2 Sb1 2.006061 1_565
O3 Sb3 2.067024 1_656
O3 Sb2 2.067029 1_655
O3 Sb1 2.406664 1_555
O4 Sb3 2.067024 1_555
O4 Sb2 2.067029 1_565
O4 Sb0 2.406664 1_555
O5 Sb2 2.067024 1_665
O5 Sb3 2.067024 1_655
O5 Sb0 2.406668 1_554
O6 Sb3 1.993619 1_656
O6 Sb0 2.006061 1_545
O7 Sb2 1.993615 1_665
O7 Sb0 2.006061 1_555
