# generated using pymatgen
data_LuInAu
_symmetry_space_group_name_H-M   'P 1'
_cell_length_a   7.57263583
_cell_length_b   7.57263583
_cell_length_c   3.94763836
_cell_angle_alpha   90.00000000
_cell_angle_beta   90.00000000
_cell_angle_gamma   119.99999314
_symmetry_Int_Tables_number   1
_chemical_formula_structural   LuInAu
_chemical_formula_sum   'Lu3 In3 Au3'
_cell_volume   196.04788739
_cell_formula_units_Z   3
loop_
 _symmetry_equiv_pos_site_id
 _symmetry_equiv_pos_as_xyz
  1  'x, y, z'
loop_
 _atom_site_type_symbol
 _atom_site_label
 _atom_site_symmetry_multiplicity
 _atom_site_fract_x
 _atom_site_fract_y
 _atom_site_fract_z
 _atom_site_occupancy
  Lu  Lu0  1  0.40421757  1.00000000  0.50000000  1
  Lu  Lu1  1  1.00000000  0.40421757  0.50000000  1
  Lu  Lu2  1  0.59578243  0.59578243  0.50000000  1
  In  In0  1  0.73822875  0.00000000  -0.00000000  1
  In  In1  1  0.00000000  0.73822875  0.00000000  1
  In  In2  1  0.26177125  0.26177125  -0.00000000  1
  Au  Au0  1  0.33333300  0.66666700  0.00000000  1
  Au  Au1  1  0.66666700  0.33333300  0.00000000  1
  Au  Au2  1  0.00000000  -0.00000000  0.50000000  1
loop_
_geom_bond_atom_site_label_1
_geom_bond_atom_site_label_2
_geom_bond_distance
_geom_bond_site_symmetry_2
In0 Lu0 3.208356 1_545
In0 Lu0 3.208356 1_544
In0 Lu2 3.335767 1_544
In0 Lu2 3.335767 1_545
In0 Lu1 3.335767 1_555
In0 Lu1 3.335767 1_554
In0 In1 3.433441 1_645
In0 In2 3.433442 1_655
In1 Lu1 3.208356 1_454
In1 Lu1 3.208356 1_455
In1 Lu2 3.335767 1_455
In1 Lu2 3.335767 1_454
In1 Lu0 3.335767 1_554
In1 Lu0 3.335767 1_555
In1 In2 3.433442 1_565
In2 Lu2 3.208356 1_554
In2 Lu2 3.208356 1_555
In2 Lu1 3.335767 1_455
In2 Lu1 3.335767 1_454
In2 Lu0 3.335767 1_545
In2 Lu0 3.335767 1_544
Au0 In1 2.834290 1_555
Au0 In0 2.834295 1_565
Au0 In2 2.834297 1_555
Au0 Lu0 3.033279 1_554
Au0 Lu0 3.033279 1_555
Au0 Lu1 3.033281 1_455
Au0 Lu1 3.033281 1_454
Au0 Lu2 3.033284 1_554
Au0 Lu2 3.033284 1_555
Au1 In0 2.834290 1_555
Au1 In1 2.834295 1_655
Au1 In2 2.834297 1_555
Au1 Lu1 3.033279 1_555
Au1 Lu1 3.033279 1_554
Au1 Lu0 3.033281 1_545
Au1 Lu0 3.033281 1_544
Au1 Lu2 3.033284 1_554
Au1 Lu2 3.033284 1_555
Au2 In0 2.797404 1_456
Au2 In1 2.797404 1_545
Au2 In1 2.797404 1_546
Au2 In0 2.797404 1_455
Au2 In2 2.797404 1_556
Au2 In2 2.797404 1_555
Au2 Lu1 3.060992 1_455
Au2 Lu0 3.060992 1_545
Au2 Lu2 3.060993 1_445
