# generated using pymatgen
data_Li7Mn2(CoO4)3
_symmetry_space_group_name_H-M   'P 1'
_cell_length_a   5.04139400
_cell_length_b   5.16479179
_cell_length_c   8.73449892
_cell_angle_alpha   73.64875876
_cell_angle_beta   85.42796448
_cell_angle_gamma   79.58870743
_symmetry_Int_Tables_number   1
_chemical_formula_structural   Li7Mn2(CoO4)3
_chemical_formula_sum   'Li7 Mn2 Co3 O12'
_cell_volume   214.53502141
_cell_formula_units_Z   1
loop_
 _symmetry_equiv_pos_site_id
 _symmetry_equiv_pos_as_xyz
  1  'x, y, z'
loop_
 _atom_site_type_symbol
 _atom_site_label
 _atom_site_symmetry_multiplicity
 _atom_site_fract_x
 _atom_site_fract_y
 _atom_site_fract_z
 _atom_site_occupancy
  Li  Li0  1  0.25735900  0.41898900  0.08653100  1
  Li  Li1  1  0.73153300  0.58211100  0.92666800  1
  Li  Li2  1  0.26010500  0.74789900  0.75134300  1
  Li  Li3  1  0.25779000  0.08792200  0.40432300  1
  Li  Li4  1  0.74039800  0.24608700  0.25100600  1
  Li  Li5  1  0.74972800  0.91716800  0.58079500  1
  Li  Li6  1  0.49986500  0.83440500  0.16506700  1
  Mn  Mn0  1  0.00299000  0.99260900  0.00274500  1
  Mn  Mn1  1  0.00048600  0.33349500  0.66671400  1
  Co  Co0  1  0.49835500  0.15640800  0.83820800  1
  Co  Co1  1  0.49968500  0.50937200  0.49170600  1
  Co  Co2  1  0.99156600  0.68130300  0.32741200  1
  O  O0  1  0.10795600  0.03591800  0.19720400  1
  O  O1  1  0.63666900  0.19945100  0.02188700  1
  O  O2  1  0.12506900  0.34016000  0.87251300  1
  O  O3  1  0.12347900  0.67384400  0.55487500  1
  O  O4  1  0.64089000  0.85753500  0.37739400  1
  O  O5  1  0.64529600  0.52836800  0.69777600  1
  O  O6  1  0.35108600  0.80521600  0.95841600  1
  O  O7  1  0.87150200  0.99170100  0.79284700  1
  O  O8  1  0.36354400  0.13922500  0.64116000  1
  O  O9  1  0.36794000  0.46334800  0.30838100  1
  O  O10  1  0.89156500  0.65671700  0.11528000  1
  O  O11  1  0.88514400  0.30075100  0.46974800  1
loop_
_geom_bond_atom_site_label_1
_geom_bond_atom_site_label_2
_geom_bond_distance
_geom_bond_site_symmetry_2
Li0 O10 2.062221 1_455
Li0 O6 2.110488 1_554
Li0 O9 2.141610 1_555
Li0 O1 2.160059 1_555
Li0 O0 2.182158 1_555
Li0 O2 2.197817 1_554
Li1 O1 2.044293 1_556
Li1 O10 2.048190 1_556
Li1 O6 2.092767 1_555
Li1 O5 2.181222 1_555
Li1 O2 2.237989 1_655
Li1 O7 2.314102 1_555
Li2 O6 2.012991 1_555
Li2 O3 2.053961 1_555
Li2 O8 2.118674 1_565
Li2 O5 2.152562 1_555
Li2 O7 2.192544 1_455
Li2 O2 2.273037 1_555
Li3 O9 2.042159 1_555
Li3 O4 2.110899 1_545
Li3 O0 2.116666 1_555
Li3 O11 2.121403 1_455
Li3 O8 2.273607 1_555
Li3 O3 2.357836 1_545
Li4 O0 2.062558 1_655
Li4 O9 2.107401 1_555
Li4 O4 2.127380 1_545
Li4 O1 2.195499 1_555
Li4 O11 2.205233 1_555
Li4 O10 2.347030 1_555
Li5 O4 2.019117 1_555
Li5 O3 2.101727 1_655
Li5 O5 2.120055 1_555
Li5 O7 2.150287 1_555
Li5 O11 2.152445 1_565
Li5 O8 2.180271 1_565
Li6 O6 2.062334 1_554
Li6 O4 2.079619 1_555
Li6 O10 2.088930 1_555
Li6 O0 2.097266 1_565
Li6 O1 2.144579 1_565
Li6 O9 2.158521 1_555
Mn0 O10 1.896142 1_455
Mn0 O0 1.901304 1_565
Mn0 O6 1.911827 1_554
Mn0 O1 1.979407 1_465
Mn0 O7 2.000084 1_454
Mn0 O2 2.008193 1_564
Mn1 O11 1.919725 1_455
Mn1 O5 1.928202 1_455
Mn1 O3 1.938872 1_555
Mn1 O8 1.950344 1_555
Mn1 O2 1.962013 1_555
Mn1 O7 1.989596 1_445
Co0 O1 1.882752 1_556
Co0 O8 1.930364 1_555
Co0 O7 1.977887 1_545
Co0 O2 1.989134 1_555
Co0 O6 2.057611 1_545
Co0 O5 2.187839 1_555
Co1 O9 1.871515 1_555
Co1 O4 2.018809 1_555
Co1 O5 2.030841 1_555
Co1 O3 2.034181 1_555
Co1 O11 2.067403 1_555
Co1 O8 2.180852 1_555
Co2 O4 1.914058 1_555
Co2 O10 2.001982 1_555
Co2 O0 2.025189 1_665
Co2 O9 2.044069 1_655
Co2 O3 2.132910 1_655
Co2 O11 2.143714 1_555
