# generated using pymatgen
data_MnCr4CdS8
_symmetry_space_group_name_H-M   'P 1'
_cell_length_a   7.24263879
_cell_length_b   7.24263879
_cell_length_c   7.24263879
_cell_angle_alpha   60.00000000
_cell_angle_beta   60.00000000
_cell_angle_gamma   60.00000000
_symmetry_Int_Tables_number   1
_chemical_formula_structural   MnCr4CdS8
_chemical_formula_sum   'Mn1 Cr4 Cd1 S8'
_cell_volume   268.64297021
_cell_formula_units_Z   1
loop_
 _symmetry_equiv_pos_site_id
 _symmetry_equiv_pos_as_xyz
  1  'x, y, z'
loop_
 _atom_site_type_symbol
 _atom_site_label
 _atom_site_symmetry_multiplicity
 _atom_site_fract_x
 _atom_site_fract_y
 _atom_site_fract_z
 _atom_site_occupancy
  Mn  Mn0  1  0.50000000  0.50000000  0.50000000  1
  Cr  Cr0  1  0.62567800  0.12477400  0.12477400  1
  Cr  Cr1  1  0.12477400  0.62567800  0.12477400  1
  Cr  Cr2  1  0.12477400  0.12477400  0.62567800  1
  Cr  Cr3  1  0.12477400  0.12477400  0.12477400  1
  Cd  Cd0  1  0.75000000  0.75000000  0.75000000  1
  S  S0  1  0.32652600  0.89115800  0.89115800  1
  S  S1  1  0.89115800  0.32652600  0.89115800  1
  S  S2  1  0.89115800  0.89115800  0.32652600  1
  S  S3  1  0.89115800  0.89115800  0.89115800  1
  S  S4  1  0.90814300  0.36395200  0.36395200  1
  S  S5  1  0.36395200  0.90814300  0.36395200  1
  S  S6  1  0.36395200  0.36395200  0.90814300  1
  S  S7  1  0.36395200  0.36395200  0.36395200  1
loop_
_geom_bond_atom_site_label_1
_geom_bond_atom_site_label_2
_geom_bond_distance
_geom_bond_site_symmetry_2
Mn0 S6 2.413590 1_555
Mn0 S5 2.413590 1_555
Mn0 S4 2.413590 1_555
Mn0 S7 2.413596 1_555
Cr0 S3 2.403947 1_544
Cr0 S2 2.403947 1_545
Cr0 S1 2.403947 1_554
Cr0 S7 2.455251 1_555
Cr0 S6 2.455256 1_554
Cr0 S5 2.455256 1_545
Cr1 S3 2.403947 1_454
Cr1 S2 2.403947 1_455
Cr1 S0 2.403947 1_554
Cr1 S7 2.455251 1_555
Cr1 S6 2.455256 1_554
Cr1 S4 2.455256 1_455
Cr2 S3 2.403947 1_445
Cr2 S0 2.403947 1_545
Cr2 S1 2.403947 1_455
Cr2 S7 2.455251 1_555
Cr2 S5 2.455256 1_545
Cr2 S4 2.455256 1_455
Cr3 S1 2.403947 1_454
Cr3 S0 2.403947 1_544
Cr3 S2 2.403947 1_445
Cr3 S6 2.455250 1_554
Cr3 S5 2.455250 1_545
Cr3 S4 2.455250 1_455
Cd0 S1 2.504252 1_555
Cd0 S3 2.504252 1_555
Cd0 S2 2.504252 1_555
Cd0 S0 2.504252 1_555
