# generated using pymatgen
data_LiMn3O6
_symmetry_space_group_name_H-M   'P 1'
_cell_length_a   5.92540697
_cell_length_b   5.92540697
_cell_length_c   13.27193085
_cell_angle_alpha   76.79696176
_cell_angle_beta   76.79696176
_cell_angle_gamma   87.63746459
_symmetry_Int_Tables_number   1
_chemical_formula_structural   LiMn3O6
_chemical_formula_sum   'Li4 Mn12 O24'
_cell_volume   441.64470075
_cell_formula_units_Z   4
loop_
 _symmetry_equiv_pos_site_id
 _symmetry_equiv_pos_as_xyz
  1  'x, y, z'
loop_
 _atom_site_type_symbol
 _atom_site_label
 _atom_site_symmetry_multiplicity
 _atom_site_fract_x
 _atom_site_fract_y
 _atom_site_fract_z
 _atom_site_occupancy
  Li  Li0  1  0.36760000  0.61565100  0.75309600  1
  Li  Li1  1  0.95977400  0.71769900  0.58175500  1
  Li  Li2  1  0.61565100  0.36760000  0.25309600  1
  Li  Li3  1  0.71769900  0.95977400  0.08175500  1
  Mn  Mn0  1  0.99457700  0.48815200  0.00347900  1
  Mn  Mn1  1  0.49483900  0.49248200  0.99943100  1
  Mn  Mn2  1  0.84196000  0.33600000  0.83104800  1
  Mn  Mn3  1  0.83811100  0.83897000  0.83513700  1
  Mn  Mn4  1  0.66963300  0.16845400  0.66531100  1
  Mn  Mn5  1  0.16552400  0.17145000  0.66608600  1
  Mn  Mn6  1  0.48815200  0.99457700  0.50347900  1
  Mn  Mn7  1  0.49248200  0.49483900  0.49943100  1
  Mn  Mn8  1  0.33600000  0.84196000  0.33104800  1
  Mn  Mn9  1  0.83897000  0.83811100  0.33513700  1
  Mn  Mn10  1  0.16845400  0.66963300  0.16531100  1
  Mn  Mn11  1  0.17145000  0.16552400  0.16608600  1
  O  O0  1  0.75962700  0.27756200  0.98795200  1
  O  O1  1  0.73806000  0.70522600  0.00170000  1
  O  O2  1  0.59928700  0.56895600  0.84514600  1
  O  O3  1  0.04711100  0.57582200  0.84735700  1
  O  O4  1  0.63681900  0.10054300  0.82206200  1
  O  O5  1  0.07496900  0.10347100  0.81810900  1
  O  O6  1  0.92761800  0.95881400  0.66663300  1
  O  O7  1  0.93003500  0.40680800  0.67868500  1
  O  O8  1  0.39886400  0.93499900  0.65541800  1
  O  O9  1  0.41464300  0.39147800  0.65606900  1
  O  O10  1  0.27278600  0.25101600  0.50988700  1
  O  O11  1  0.69903400  0.23223700  0.50897700  1
  O  O12  1  0.27756200  0.75962700  0.48795200  1
  O  O13  1  0.70522600  0.73806000  0.50170000  1
  O  O14  1  0.56895600  0.59928700  0.34514600  1
  O  O15  1  0.57582200  0.04711100  0.34735700  1
  O  O16  1  0.10347100  0.07496900  0.31810900  1
  O  O17  1  0.10054300  0.63681900  0.32206200  1
  O  O18  1  0.95881400  0.92761800  0.16663300  1
  O  O19  1  0.40680800  0.93003500  0.17868500  1
  O  O20  1  0.39147800  0.41464300  0.15606900  1
  O  O21  1  0.93499900  0.39886400  0.15541800  1
  O  O22  1  0.23223700  0.69903400  0.00897700  1
  O  O23  1  0.25101600  0.27278600  0.00988700  1
loop_
_geom_bond_atom_site_label_1
_geom_bond_atom_site_label_2
_geom_bond_distance
_geom_bond_site_symmetry_2
Li0 O2 2.008523 1_555
Li0 O3 2.010946 1_555
Li0 O9 2.021698 1_555
Li0 O8 2.023412 1_555
Li1 O7 1.979948 1_555
Li1 O6 1.990275 1_555
Li1 O12 1.995946 1_655
Li1 O13 2.019131 1_555
Li2 O14 2.008523 1_555
Li2 O15 2.010946 1_555
Li2 O20 2.021698 1_555
Li2 O21 2.023412 1_555
Li3 O19 1.979948 1_555
Li3 O18 1.990275 1_555
Li3 O0 1.995946 1_564
Li3 O1 2.019131 1_555
Mn0 O21 1.916705 1_555
Mn0 O22 1.945126 1_655
Mn0 O23 1.947878 1_655
Mn0 O1 1.951061 1_555
Mn0 O3 1.971575 1_654
Mn0 O0 1.982281 1_554
Mn1 O22 1.938807 1_556
Mn1 O23 1.944779 1_556
Mn1 O2 1.949779 1_555
Mn1 O1 1.963151 1_556
Mn1 O20 1.978201 1_556
Mn1 O0 1.980246 1_555
Mn2 O5 1.917577 1_655
Mn2 O7 1.919870 1_555
Mn2 O4 1.928819 1_555
Mn2 O2 1.959464 1_555
Mn2 O0 1.978594 1_555
Mn2 O3 1.986712 1_655
Mn3 O4 1.916841 1_565
Mn3 O3 1.951482 1_655
Mn3 O5 2.086108 1_665
Mn3 O1 2.122760 1_556
Mn3 O6 2.133240 1_555
Mn3 O2 2.140972 1_555
Mn4 O6 1.930268 1_545
Mn4 O9 1.972385 1_555
Mn4 O11 1.990051 1_555
Mn4 O4 1.991734 1_555
Mn4 O7 2.196890 1_555
Mn4 O8 2.206158 1_545
Mn5 O5 1.916521 1_555
Mn5 O6 1.926745 1_445
Mn5 O8 1.932925 1_545
Mn5 O7 1.938919 1_455
Mn5 O9 1.971360 1_555
Mn5 O10 1.974886 1_555
Mn6 O8 1.916705 1_555
Mn6 O11 1.945126 1_565
Mn6 O10 1.947878 1_565
Mn6 O13 1.951061 1_555
Mn6 O15 1.971575 1_565
Mn6 O12 1.982281 1_555
Mn7 O11 1.938807 1_555
Mn7 O10 1.944779 1_555
Mn7 O14 1.949779 1_555
Mn7 O13 1.963151 1_555
Mn7 O9 1.978201 1_555
Mn7 O12 1.980246 1_555
Mn8 O16 1.917577 1_565
Mn8 O19 1.919870 1_555
Mn8 O17 1.928819 1_555
Mn8 O14 1.959464 1_555
Mn8 O12 1.978594 1_555
Mn8 O15 1.986712 1_565
Mn9 O17 1.916841 1_655
Mn9 O15 1.951482 1_565
Mn9 O16 2.086108 1_665
Mn9 O13 2.122760 1_555
Mn9 O18 2.133240 1_555
Mn9 O14 2.140972 1_555
Mn10 O18 1.930268 1_455
Mn10 O20 1.972385 1_555
Mn10 O22 1.990051 1_555
Mn10 O17 1.991734 1_555
Mn10 O19 2.196890 1_555
Mn10 O21 2.206158 1_455
Mn11 O16 1.916521 1_555
Mn11 O18 1.926745 1_445
Mn11 O21 1.932925 1_455
Mn11 O19 1.938919 1_545
Mn11 O20 1.971360 1_555
Mn11 O23 1.974886 1_555
