# generated using pymatgen
data_LiCuOF
_symmetry_space_group_name_H-M   'P 1'
_cell_length_a   2.79449800
_cell_length_b   2.79449800
_cell_length_c   4.98839300
_cell_angle_alpha   90.00000000
_cell_angle_beta   90.00000000
_cell_angle_gamma   90.00000000
_symmetry_Int_Tables_number   1
_chemical_formula_structural   LiCuOF
_chemical_formula_sum   'Li1 Cu1 O1 F1'
_cell_volume   38.95545375
_cell_formula_units_Z   1
loop_
 _symmetry_equiv_pos_site_id
 _symmetry_equiv_pos_as_xyz
  1  'x, y, z'
loop_
 _atom_site_type_symbol
 _atom_site_label
 _atom_site_symmetry_multiplicity
 _atom_site_fract_x
 _atom_site_fract_y
 _atom_site_fract_z
 _atom_site_occupancy
  Li  Li0  1  0.50000000  0.50000000  0.50000000  1
  Cu  Cu0  1  0.00000000  0.00000000  0.00000000  1
  O  O0  1  0.50000000  0.50000000  0.00000000  1
  F  F0  1  0.00000000  0.00000000  0.50000000  1
loop_
_geom_bond_atom_site_label_1
_geom_bond_atom_site_label_2
_geom_bond_distance
_geom_bond_site_symmetry_2
Li0 O0 2.494197 1_555
Li0 O0 2.494197 1_556
Cu0 O0 1.976008 1_445
Cu0 O0 1.976008 1_545
Cu0 O0 1.976008 1_455
Cu0 O0 1.976008 1_555
Cu0 F0 2.494197 1_554
Cu0 F0 2.494197 1_555
F0 Li0 1.976008 1_555
F0 Li0 1.976008 1_445
F0 Li0 1.976008 1_545
F0 Li0 1.976008 1_455
