# generated using pymatgen
data_K2Ti(CuS2)2
_symmetry_space_group_name_H-M   'P 1'
_cell_length_a   5.54633000
_cell_length_b   5.54633000
_cell_length_c   12.95464000
_cell_angle_alpha   90.00000000
_cell_angle_beta   90.00000000
_cell_angle_gamma   90.00000000
_symmetry_Int_Tables_number   1
_chemical_formula_structural   K2Ti(CuS2)2
_chemical_formula_sum   'K4 Ti2 Cu4 S8'
_cell_volume   398.50773992
_cell_formula_units_Z   2
loop_
 _symmetry_equiv_pos_site_id
 _symmetry_equiv_pos_as_xyz
  1  'x, y, z'
loop_
 _atom_site_type_symbol
 _atom_site_label
 _atom_site_symmetry_multiplicity
 _atom_site_fract_x
 _atom_site_fract_y
 _atom_site_fract_z
 _atom_site_occupancy
  K  K0  1  0.25973500  0.25973500  0.00000000  1
  K  K1  1  0.74026500  0.74026500  0.00000000  1
  K  K2  1  0.74026500  0.25973500  0.50000000  1
  K  K3  1  0.25973500  0.74026500  0.50000000  1
  Ti  Ti0  1  0.00000000  0.00000000  0.25000000  1
  Ti  Ti1  1  0.00000000  0.00000000  0.75000000  1
  Cu  Cu0  1  0.00000000  0.50000000  0.25000000  1
  Cu  Cu1  1  0.00000000  0.50000000  0.75000000  1
  Cu  Cu2  1  0.50000000  0.00000000  0.75000000  1
  Cu  Cu3  1  0.50000000  0.00000000  0.25000000  1
  S  S0  1  0.23958400  0.23958400  0.34963000  1
  S  S1  1  0.76041600  0.76041600  0.65037000  1
  S  S2  1  0.76041600  0.76041600  0.34963000  1
  S  S3  1  0.76041600  0.23958400  0.84963000  1
  S  S4  1  0.76041600  0.23958400  0.15037000  1
  S  S5  1  0.23958400  0.23958400  0.65037000  1
  S  S6  1  0.23958400  0.76041600  0.15037000  1
  S  S7  1  0.23958400  0.76041600  0.84963000  1
loop_
_geom_bond_atom_site_label_1
_geom_bond_atom_site_label_2
_geom_bond_distance
_geom_bond_site_symmetry_2
K0 S7 3.387722 1_544
K0 S3 3.387722 1_454
K0 S6 3.387722 1_545
K0 S4 3.387722 1_455
K0 S3 3.393900 1_554
K0 S6 3.393900 1_555
K0 S7 3.393900 1_554
K0 S4 3.393900 1_555
K1 S6 3.387722 1_655
K1 S4 3.387722 1_565
K1 S3 3.387722 1_564
K1 S7 3.387722 1_654
K1 S3 3.393900 1_554
K1 S6 3.393900 1_555
K1 S4 3.393900 1_555
K1 S7 3.393900 1_554
K2 S1 3.387722 1_545
K2 S2 3.387722 1_545
K2 S5 3.387722 1_655
K2 S0 3.387722 1_655
K2 S0 3.393900 1_555
K2 S1 3.393900 1_555
K2 S2 3.393900 1_555
K2 S5 3.393900 1_555
K3 S2 3.387722 1_455
K3 S1 3.387722 1_455
K3 S5 3.387722 1_565
K3 S0 3.387722 1_565
K3 S0 3.393900 1_555
K3 S1 3.393900 1_555
K3 S2 3.393900 1_555
K3 S5 3.393900 1_555
Cu0 S2 2.348984 1_455
Cu0 S0 2.348984 1_555
Cu0 S6 2.348984 1_555
Cu0 S4 2.348984 1_455
Cu1 S1 2.348984 1_455
Cu1 S3 2.348984 1_455
Cu1 S5 2.348984 1_555
Cu1 S7 2.348984 1_555
Cu2 S5 2.348984 1_555
Cu2 S3 2.348984 1_555
Cu2 S1 2.348984 1_545
Cu2 S7 2.348984 1_545
Cu3 S4 2.348984 1_555
Cu3 S0 2.348984 1_555
Cu3 S6 2.348984 1_545
Cu3 S2 2.348984 1_545
S0 Ti0 2.279762 1_555
S1 Ti1 2.279762 1_665
S2 Ti0 2.279762 1_665
S3 Ti1 2.279762 1_655
S4 Ti0 2.279762 1_655
S5 Ti1 2.279762 1_555
S6 Ti0 2.279762 1_565
S7 Ti1 2.279762 1_565
