# generated using pymatgen
data_Gd3Y
_symmetry_space_group_name_H-M   'P 1'
_cell_length_a   5.17994368
_cell_length_b   5.17994823
_cell_length_c   5.17994027
_cell_angle_alpha   90.00000000
_cell_angle_beta   90.00000000
_cell_angle_gamma   90.00000000
_symmetry_Int_Tables_number   1
_chemical_formula_structural   Gd3Y
_chemical_formula_sum   'Gd3 Y1'
_cell_volume   138.98732904
_cell_formula_units_Z   1
loop_
 _symmetry_equiv_pos_site_id
 _symmetry_equiv_pos_as_xyz
  1  'x, y, z'
loop_
 _atom_site_type_symbol
 _atom_site_label
 _atom_site_symmetry_multiplicity
 _atom_site_fract_x
 _atom_site_fract_y
 _atom_site_fract_z
 _atom_site_occupancy
  Gd  Gd0  1  -0.00000000  0.50000000  0.50000000  1
  Gd  Gd1  1  0.50000000  -0.00000000  0.50000000  1
  Gd  Gd2  1  0.50000000  0.50000000  0.00000000  1
  Y  Y0  1  -0.00000000  -0.00000000  0.00000000  1
loop_
_geom_bond_atom_site_label_1
_geom_bond_atom_site_label_2
_geom_bond_distance
_geom_bond_site_symmetry_2
Gd0 Gd2 3.662772 1_455
Gd0 Gd2 3.662772 1_456
Gd0 Gd2 3.662772 1_555
Gd0 Gd2 3.662772 1_556
Gd0 Y0 3.662774 1_565
Gd0 Y0 3.662774 1_556
Gd0 Y0 3.662774 1_555
Gd0 Y0 3.662774 1_566
Gd0 Gd1 3.662775 1_555
Gd0 Gd1 3.662775 1_465
Gd0 Gd1 3.662775 1_565
Gd0 Gd1 3.662775 1_455
Gd1 Y0 3.662772 1_656
Gd1 Y0 3.662772 1_555
Gd1 Y0 3.662772 1_655
Gd1 Y0 3.662772 1_556
Gd1 Gd2 3.662774 1_546
Gd1 Gd2 3.662774 1_545
Gd1 Gd2 3.662774 1_555
Gd1 Gd2 3.662774 1_556
Gd2 Y0 3.662775 1_555
Gd2 Y0 3.662775 1_565
Gd2 Y0 3.662775 1_655
Gd2 Y0 3.662775 1_665
