# generated using pymatgen
data_LiFeSnO4
_symmetry_space_group_name_H-M   'P 1'
_cell_length_a   3.11577600
_cell_length_b   5.18555700
_cell_length_c   9.91613400
_cell_angle_alpha   90.00000000
_cell_angle_beta   90.00000000
_cell_angle_gamma   90.00000000
_symmetry_Int_Tables_number   1
_chemical_formula_structural   LiFeSnO4
_chemical_formula_sum   'Li2 Fe2 Sn2 O8'
_cell_volume   160.21531465
_cell_formula_units_Z   2
loop_
 _symmetry_equiv_pos_site_id
 _symmetry_equiv_pos_as_xyz
  1  'x, y, z'
loop_
 _atom_site_type_symbol
 _atom_site_label
 _atom_site_symmetry_multiplicity
 _atom_site_fract_x
 _atom_site_fract_y
 _atom_site_fract_z
 _atom_site_occupancy
  Li  Li0  1  0.50000000  0.22084800  0.94145800  1
  Li  Li1  1  0.50000000  0.77915200  0.44145800  1
  Fe  Fe0  1  0.50000000  0.24398800  0.35075200  1
  Fe  Fe1  1  0.50000000  0.75601200  0.85075200  1
  Sn  Sn0  1  0.00000000  0.26946700  0.63423300  1
  Sn  Sn1  1  0.00000000  0.73053300  0.13423300  1
  O  O0  1  0.00000000  0.04206800  0.45787800  1
  O  O1  1  0.00000000  0.45023100  0.28355500  1
  O  O2  1  0.00000000  0.95793200  0.95787800  1
  O  O3  1  0.00000000  0.54976900  0.78355500  1
  O  O4  1  0.50000000  0.45564700  0.53175000  1
  O  O5  1  0.50000000  0.93185700  0.22937200  1
  O  O6  1  0.50000000  0.06814300  0.72937200  1
  O  O7  1  0.50000000  0.54435300  0.03175000  1
loop_
_geom_bond_atom_site_label_1
_geom_bond_atom_site_label_2
_geom_bond_distance
_geom_bond_site_symmetry_2
Li0 O7 1.901534 1_556
Li0 O2 2.076606 1_545
Li0 O2 2.076606 1_645
Li0 O6 2.247212 1_555
Li1 O4 1.901534 1_555
Li1 O0 2.076606 1_565
Li1 O0 2.076606 1_665
Li1 O5 2.247212 1_555
Fe0 O1 2.003700 1_655
Fe0 O1 2.003700 1_555
Fe0 O5 2.017048 1_545
Fe0 O4 2.103798 1_555
Fe0 O0 2.156802 1_655
Fe0 O0 2.156802 1_555
Fe1 O3 2.003700 1_555
Fe1 O3 2.003700 1_655
Fe1 O6 2.017048 1_565
Fe1 O7 2.103798 1_556
Fe1 O2 2.156802 1_555
Fe1 O2 2.156802 1_655
O0 Sn0 2.109183 1_555
O1 Sn1 2.074895 1_555
O2 Sn1 2.109183 1_556
O3 Sn0 2.074895 1_555
O4 Sn0 2.095671 1_555
O4 Sn0 2.095671 1_655
O5 Sn1 2.099268 1_555
O5 Sn1 2.099268 1_655
O6 Sn0 2.099268 1_555
O6 Sn0 2.099268 1_655
O7 Sn1 2.095671 1_555
O7 Sn1 2.095671 1_655
