# generated using pymatgen
data_Sr4Fe2MoWO12
_symmetry_space_group_name_H-M   'P 1'
_cell_length_a   5.63622700
_cell_length_b   5.68271420
_cell_length_c   9.83466133
_cell_angle_alpha   89.21588698
_cell_angle_beta   106.58146921
_cell_angle_gamma   119.51227600
_symmetry_Int_Tables_number   1
_chemical_formula_structural   Sr4Fe2MoWO12
_chemical_formula_sum   'Sr4 Fe2 Mo1 W1 O12'
_cell_volume   259.66653108
_cell_formula_units_Z   1
loop_
 _symmetry_equiv_pos_site_id
 _symmetry_equiv_pos_as_xyz
  1  'x, y, z'
loop_
 _atom_site_type_symbol
 _atom_site_label
 _atom_site_symmetry_multiplicity
 _atom_site_fract_x
 _atom_site_fract_y
 _atom_site_fract_z
 _atom_site_occupancy
  Sr  Sr0  1  0.75446000  0.62649100  0.38508100  1
  Sr  Sr1  1  0.74583300  0.12519700  0.86245800  1
  Sr  Sr2  1  0.25416700  0.87480300  0.13754200  1
  Sr  Sr3  1  0.24554000  0.37350900  0.61491900  1
  Fe  Fe0  1  0.00061000  0.25174000  0.25355800  1
  Fe  Fe1  1  0.99939000  0.74826000  0.74644200  1
  Mo  Mo0  1  0.50000000  0.00000000  0.50000000  1
  W  W0  1  0.50000000  0.50000000  0.00000000  1
  O  O0  1  0.74114900  0.85940700  0.11925100  1
  O  O1  1  0.75761400  0.38555300  0.63326100  1
  O  O2  1  0.24238600  0.61444700  0.36673900  1
  O  O3  1  0.25885100  0.14059300  0.88074900  1
  O  O4  1  0.20517400  0.09680700  0.38615900  1
  O  O5  1  0.22805200  0.61211000  0.90014600  1
  O  O6  1  0.79482600  0.90319300  0.61384100  1
  O  O7  1  0.77194800  0.38789000  0.09985400  1
  O  O8  1  0.71205500  0.64207700  0.86394900  1
  O  O9  1  0.71229400  0.13997200  0.35348400  1
  O  O10  1  0.28770600  0.86002800  0.64651600  1
  O  O11  1  0.28794500  0.35792300  0.13605100  1
loop_
_geom_bond_atom_site_label_1
_geom_bond_atom_site_label_2
_geom_bond_distance
_geom_bond_site_symmetry_2
Fe0 O2 1.942717 1_555
Fe0 O9 1.971645 1_455
Fe0 O4 1.978805 1_555
Fe0 O7 2.093579 1_455
Fe0 O11 2.099687 1_555
Fe0 O0 2.149394 1_445
Fe1 O1 1.942717 1_555
Fe1 O10 1.971645 1_655
Fe1 O6 1.978805 1_555
Fe1 O5 2.093579 1_655
Fe1 O8 2.099687 1_555
Fe1 O3 2.149394 1_665
Mo0 O6 2.034530 1_545
Mo0 O4 2.034530 1_555
Mo0 O9 2.038553 1_555
Mo0 O10 2.038553 1_545
Mo0 O1 2.117667 1_555
Mo0 O2 2.117667 1_545
O0 W0 1.953208 1_555
O0 Sr2 2.802681 1_655
O0 Sr2 2.844722 1_555
O0 Sr0 2.912649 1_555
O0 Sr1 2.924792 1_564
O1 Sr1 2.677989 1_555
O1 Sr0 2.782097 1_555
O1 Sr3 2.806375 1_555
O1 Sr3 2.840595 1_655
O2 Sr2 2.677989 1_555
O2 Sr3 2.782097 1_555
O2 Sr0 2.806375 1_555
O2 Sr0 2.840595 1_455
O3 W0 1.953208 1_556
O3 Sr1 2.802681 1_455
O3 Sr1 2.844722 1_555
O3 Sr3 2.912649 1_555
O3 Sr2 2.924792 1_546
O4 Sr0 2.625421 1_445
O4 Sr3 2.652920 1_555
O4 Sr2 2.908469 1_545
O4 Sr0 3.079264 1_555
O5 W0 1.950758 1_556
O5 Sr1 2.687829 1_455
O5 Sr2 2.717312 1_556
O5 Sr1 3.059412 1_565
O5 Sr3 3.179687 1_555
O6 Sr3 2.625421 1_665
O6 Sr0 2.652920 1_555
O6 Sr1 2.908469 1_565
O6 Sr3 3.079264 1_555
O7 W0 1.950758 1_555
O7 Sr2 2.687829 1_655
O7 Sr1 2.717312 1_554
O7 Sr2 3.059412 1_545
O7 Sr0 3.179687 1_555
O8 W0 1.950153 1_556
O8 Sr1 2.656953 1_565
O8 Sr3 2.777465 1_555
O8 Sr1 3.036081 1_555
O8 Sr2 3.122275 1_656
O9 Sr2 2.563683 1_545
O9 Sr0 2.670373 1_555
O9 Sr3 3.026235 1_655
O9 Sr0 3.046937 1_545
O10 Sr1 2.563683 1_565
O10 Sr3 2.670373 1_555
O10 Sr0 3.026235 1_455
O10 Sr3 3.046937 1_565
O11 W0 1.950153 1_555
O11 Sr2 2.656953 1_545
O11 Sr0 2.777465 1_555
O11 Sr2 3.036081 1_555
O11 Sr1 3.122275 1_454
