# generated using pymatgen
data_ThNiGe2
_symmetry_space_group_name_H-M   'P 1'
_cell_length_a   8.53805953
_cell_length_b   8.53805953
_cell_length_c   4.25004627
_cell_angle_alpha   90.00000000
_cell_angle_beta   90.00000000
_cell_angle_gamma   151.24800638
_symmetry_Int_Tables_number   1
_chemical_formula_structural   ThNiGe2
_chemical_formula_sum   'Th2 Ni2 Ge4'
_cell_volume   149.03027204
_cell_formula_units_Z   2
loop_
 _symmetry_equiv_pos_site_id
 _symmetry_equiv_pos_as_xyz
  1  'x, y, z'
loop_
 _atom_site_type_symbol
 _atom_site_label
 _atom_site_symmetry_multiplicity
 _atom_site_fract_x
 _atom_site_fract_y
 _atom_site_fract_z
 _atom_site_occupancy
  Th  Th0  1  0.60810043  0.39189957  0.75000000  1
  Th  Th1  1  0.39190057  0.60810043  0.25000000  1
  Ni  Ni0  1  0.81826321  0.18173679  0.75000000  1
  Ni  Ni1  1  0.18173679  0.81826321  0.25000000  1
  Ge  Ge0  1  0.95875535  0.04124465  0.75000000  1
  Ge  Ge1  1  0.04124465  0.95875535  0.25000000  1
  Ge  Ge2  1  0.25084544  0.74915456  0.75000000  1
  Ge  Ge3  1  0.74915456  0.25084544  0.25000000  1
loop_
_geom_bond_atom_site_label_1
_geom_bond_atom_site_label_2
_geom_bond_distance
_geom_bond_site_symmetry_2
Ni0 Th1 3.239322 1_545
Ni0 Th1 3.239322 1_546
Ni0 Th1 3.239324 1_655
Ni0 Th1 3.239324 1_656
Ni1 Th0 3.239320 1_454
Ni1 Th0 3.239320 1_455
Ni1 Th0 3.239320 1_564
Ni1 Th0 3.239320 1_565
Ge0 Ni0 2.323939 1_555
Ge0 Ge1 2.525382 1_645
Ge0 Ge1 2.525382 1_646
Ge0 Th1 3.198830 1_545
Ge0 Th1 3.198830 1_546
Ge0 Th1 3.198833 1_656
Ge0 Th1 3.198833 1_655
Ge0 Th0 3.255242 1_545
Ge0 Th0 3.255242 1_655
Ge1 Ni1 2.323939 1_555
Ge1 Th0 3.198834 1_454
Ge1 Th0 3.198834 1_455
Ge1 Th0 3.198834 1_564
Ge1 Th0 3.198834 1_565
Ge1 Th1 3.255234 1_455
Ge1 Th1 3.255237 1_565
Ge2 Ni0 2.395300 1_455
Ge2 Ni0 2.395300 1_565
Ge2 Ni1 2.412991 1_556
Ge2 Ni1 2.412991 1_555
Ge2 Th1 3.155907 1_556
Ge2 Th1 3.155907 1_555
Ge2 Th0 3.173187 1_455
Ge2 Th0 3.173187 1_565
Ge3 Ni1 2.395300 1_545
Ge3 Ni1 2.395300 1_655
Ge3 Ni0 2.412991 1_555
Ge3 Ni0 2.412991 1_554
Ge3 Th0 3.155901 1_555
Ge3 Th0 3.155901 1_554
Ge3 Th1 3.173191 1_545
Ge3 Th1 3.173194 1_655
