# generated using pymatgen
data_La4B4I5
_symmetry_space_group_name_H-M   'P 1'
_cell_length_a   9.98978391
_cell_length_b   9.98978391
_cell_length_c   10.42632789
_cell_angle_alpha   73.55109346
_cell_angle_beta   73.55109346
_cell_angle_gamma   25.23213061
_symmetry_Int_Tables_number   1
_chemical_formula_structural   La4B4I5
_chemical_formula_sum   'La4 B4 I5'
_cell_volume   424.46947874
_cell_formula_units_Z   1
loop_
 _symmetry_equiv_pos_site_id
 _symmetry_equiv_pos_as_xyz
  1  'x, y, z'
loop_
 _atom_site_type_symbol
 _atom_site_label
 _atom_site_symmetry_multiplicity
 _atom_site_fract_x
 _atom_site_fract_y
 _atom_site_fract_z
 _atom_site_occupancy
  La  La0  1  0.50718248  0.50718248  0.75127304  1
  La  La1  1  0.49458951  0.49458951  0.24759246  1
  La  La2  1  0.13516024  0.13516024  0.93282155  1
  La  La3  1  0.86646956  0.86646956  0.06574030  1
  B  B0  1  0.31634270  0.68525590  -0.00050593  1
  B  B1  1  0.68525590  0.31634270  -0.00050593  1
  B  B2  1  0.99912347  0.99912347  0.09220030  1
  B  B3  1  0.00246465  0.00246465  0.90676206  1
  I  I0  1  0.68230138  0.68230138  0.68436076  1
  I  I1  1  0.31962274  0.31962274  0.31491063  1
  I  I2  1  0.32847032  0.32847032  0.85166697  1
  I  I3  1  0.67327860  0.67327860  0.14612178  1
  I  I4  1  0.00403947  0.00403947  0.49776003  1
loop_
_geom_bond_atom_site_label_1
_geom_bond_atom_site_label_2
_geom_bond_distance
_geom_bond_site_symmetry_2
B0 B1 1.609891 1_555
B0 B2 1.677240 1_455
B0 B3 1.677424 1_564
B0 La1 2.678086 1_555
B0 La0 2.678512 1_554
B0 La3 2.860557 1_455
B0 La2 2.860967 1_564
B1 B2 1.677240 1_545
B1 B3 1.677424 1_654
B1 La1 2.678086 1_555
B1 La0 2.678512 1_554
B1 La3 2.860557 1_545
B1 La2 2.860967 1_654
B2 B3 1.915552 1_664
B2 La3 2.679466 1_555
B2 La2 2.690433 1_664
B2 La1 2.703793 1_565
B2 La1 2.703793 1_655
B3 La2 2.678678 1_555
B3 La3 2.688395 1_446
B3 La0 2.703885 1_455
B3 La0 2.703885 1_545
I0 La0 3.280544 1_555
I0 La2 3.306769 1_565
I0 La2 3.306769 1_655
I1 La1 3.277265 1_555
I1 La3 3.311690 1_455
I1 La3 3.311690 1_545
I2 La0 3.334662 1_555
I2 La3 3.354285 1_456
I2 La3 3.354285 1_546
I2 La2 3.615325 1_555
I3 La1 3.334372 1_555
I3 La2 3.349371 1_564
I3 La2 3.349371 1_654
I3 La3 3.613621 1_555
I4 La0 3.441680 1_545
I4 La0 3.441680 1_455
I4 La1 3.446313 1_545
I4 La1 3.446313 1_455
