# generated using pymatgen
data_Li7Co5O12
_symmetry_space_group_name_H-M   'P 1'
_cell_length_a   5.02214800
_cell_length_b   5.07196432
_cell_length_c   8.68297009
_cell_angle_alpha   90.35459452
_cell_angle_beta   90.70720063
_cell_angle_gamma   109.02567637
_symmetry_Int_Tables_number   1
_chemical_formula_structural   Li7Co5O12
_chemical_formula_sum   'Li7 Co5 O12'
_cell_volume   209.06367284
_cell_formula_units_Z   1
loop_
 _symmetry_equiv_pos_site_id
 _symmetry_equiv_pos_as_xyz
  1  'x, y, z'
loop_
 _atom_site_type_symbol
 _atom_site_label
 _atom_site_symmetry_multiplicity
 _atom_site_fract_x
 _atom_site_fract_y
 _atom_site_fract_z
 _atom_site_occupancy
  Li  Li0  1  0.00000000  0.50000000  0.00000000  1
  Li  Li1  1  0.49886800  0.49882100  0.16357400  1
  Li  Li2  1  0.00096100  0.50132300  0.33197700  1
  Li  Li3  1  0.50000000  0.50000000  0.50000000  1
  Li  Li4  1  0.99903900  0.49867700  0.66802300  1
  Li  Li5  1  0.50113200  0.50117900  0.83642600  1
  Li  Li6  1  0.50000000  0.00000000  0.00000000  1
  Co  Co0  1  0.00597700  0.00060400  0.83824500  1
  Co  Co1  1  0.99402300  0.99939600  0.16175500  1
  Co  Co2  1  0.49820200  0.99747600  0.32495200  1
  Co  Co3  1  0.00000000  0.00000000  0.50000000  1
  Co  Co4  1  0.50179800  0.00252400  0.67504800  1
  O  O0  1  0.23387700  0.77652700  0.82771400  1
  O  O1  1  0.78649300  0.78007500  0.00195800  1
  O  O2  1  0.24064400  0.77739300  0.17378400  1
  O  O3  1  0.76316500  0.76980300  0.32191900  1
  O  O4  1  0.25328300  0.76888000  0.50303500  1
  O  O5  1  0.76866700  0.77295900  0.67758900  1
  O  O6  1  0.76612300  0.22347300  0.17228600  1
  O  O7  1  0.23133300  0.22704100  0.32241100  1
  O  O8  1  0.74671700  0.23112000  0.49696500  1
  O  O9  1  0.23683500  0.23019700  0.67808100  1
  O  O10  1  0.75935600  0.22260700  0.82621600  1
  O  O11  1  0.21350700  0.21992500  0.99804200  1
loop_
_geom_bond_atom_site_label_1
_geom_bond_atom_site_label_2
_geom_bond_distance
_geom_bond_site_symmetry_2
Li0 O11 2.039899 1_554
Li0 O1 2.039899 1_455
Li0 O2 2.130050 1_555
Li0 O10 2.130050 1_454
Li0 O6 2.140064 1_455
Li0 O0 2.140064 1_554
Li1 O3 2.069623 1_555
Li1 O7 2.114066 1_555
Li1 O11 2.173229 1_554
Li1 O1 2.195932 1_555
Li1 O2 2.209499 1_555
Li1 O6 2.231252 1_555
Li2 O6 2.037496 1_455
Li2 O2 2.064465 1_555
Li2 O7 2.081122 1_555
Li2 O3 2.085020 1_455
Li2 O4 2.112073 1_555
Li2 O8 2.118815 1_455
Li3 O8 2.120803 1_555
Li3 O4 2.120803 1_555
Li3 O7 2.195293 1_555
Li3 O5 2.195293 1_555
Li3 O3 2.215354 1_555
Li3 O9 2.215354 1_555
Li4 O0 2.037496 1_655
Li4 O10 2.064465 1_555
Li4 O5 2.081122 1_555
Li4 O9 2.085020 1_655
Li4 O8 2.112073 1_555
Li4 O4 2.118815 1_655
Li5 O9 2.069623 1_555
Li5 O5 2.114066 1_555
Li5 O1 2.173229 1_556
Li5 O11 2.195932 1_555
Li5 O10 2.209499 1_555
Li5 O0 2.231252 1_555
Li6 O6 2.061754 1_555
Li6 O0 2.061754 1_544
Li6 O2 2.087842 1_545
Li6 O10 2.087842 1_554
Li6 O1 2.088232 1_545
Li6 O11 2.088232 1_554
Co0 O11 1.854232 1_555
Co0 O0 1.859946 1_545
Co0 O10 1.928819 1_455
Co0 O5 1.934248 1_445
Co0 O1 1.934250 1_446
Co0 O9 1.952918 1_555
Co1 O1 1.854232 1_555
Co1 O6 1.859946 1_565
Co1 O2 1.928819 1_655
Co1 O7 1.934248 1_665
Co1 O11 1.934250 1_664
Co1 O3 1.952918 1_555
Co2 O2 1.908038 1_555
Co2 O6 1.984648 1_565
Co2 O3 2.026620 1_555
Co2 O8 2.039750 1_565
Co2 O7 2.041934 1_565
Co2 O4 2.094653 1_555
Co3 O4 1.991131 1_545
Co3 O8 1.991131 1_455
Co3 O3 2.048339 1_445
Co3 O9 2.048339 1_555
Co3 O7 2.060950 1_555
Co3 O5 2.060950 1_445
Co4 O10 1.908038 1_555
Co4 O0 1.984648 1_545
Co4 O9 2.026620 1_555
Co4 O4 2.039750 1_545
Co4 O5 2.041934 1_545
Co4 O8 2.094653 1_555
