# generated using pymatgen
data_Th2N7OF15
_symmetry_space_group_name_H-M   'P 1'
_cell_length_a   13.24361600
_cell_length_b   13.24361600
_cell_length_c   13.24361600
_cell_angle_alpha   90.00000000
_cell_angle_beta   90.00000000
_cell_angle_gamma   90.00000000
_symmetry_Int_Tables_number   1
_chemical_formula_structural   Th2N7OF15
_chemical_formula_sum   'Th8 N28 O4 F60'
_cell_volume   2322.84237177
_cell_formula_units_Z   4
loop_
 _symmetry_equiv_pos_site_id
 _symmetry_equiv_pos_as_xyz
  1  'x, y, z'
loop_
 _atom_site_type_symbol
 _atom_site_label
 _atom_site_symmetry_multiplicity
 _atom_site_fract_x
 _atom_site_fract_y
 _atom_site_fract_z
 _atom_site_occupancy
  Th  Th0  1  0.33857000  0.33857000  0.33857000  1
  Th  Th1  1  0.16143000  0.66143000  0.83857000  1
  Th  Th2  1  0.66143000  0.83857000  0.16143000  1
  Th  Th3  1  0.83857000  0.16143000  0.66143000  1
  Th  Th4  1  0.17715100  0.17715100  0.17715100  1
  Th  Th5  1  0.32284900  0.82284900  0.67715100  1
  Th  Th6  1  0.82284900  0.67715100  0.32284900  1
  Th  Th7  1  0.67715100  0.32284900  0.82284900  1
  N  N0  1  0.50942500  0.50942500  0.50942500  1
  N  N1  1  0.99057500  0.49057500  0.00942500  1
  N  N2  1  0.49057500  0.00942500  0.99057500  1
  N  N3  1  0.00942500  0.99057500  0.49057500  1
  N  N4  1  0.15234700  0.58210200  0.21644300  1
  N  N5  1  0.34765300  0.41789800  0.71644300  1
  N  N6  1  0.84765300  0.08210200  0.28355700  1
  N  N7  1  0.21644300  0.15234700  0.58210200  1
  N  N8  1  0.65234700  0.91789800  0.78355700  1
  N  N9  1  0.71644300  0.34765300  0.41789800  1
  N  N10  1  0.28355700  0.84765300  0.08210200  1
  N  N11  1  0.78355700  0.65234700  0.91789800  1
  N  N12  1  0.58210200  0.21644300  0.15234700  1
  N  N13  1  0.08210200  0.28355700  0.84765300  1
  N  N14  1  0.91789800  0.78355700  0.65234700  1
  N  N15  1  0.41789800  0.71644300  0.34765300  1
  N  N16  1  0.04726800  0.44920600  0.42529700  1
  N  N17  1  0.45273200  0.55079400  0.92529700  1
  N  N18  1  0.95273200  0.94920600  0.07470300  1
  N  N19  1  0.42529700  0.04726800  0.44920600  1
  N  N20  1  0.54726800  0.05079400  0.57470300  1
  N  N21  1  0.92529700  0.45273200  0.55079400  1
  N  N22  1  0.07470300  0.95273200  0.94920600  1
  N  N23  1  0.57470300  0.54726800  0.05079400  1
  N  N24  1  0.44920600  0.42529700  0.04726800  1
  N  N25  1  0.94920600  0.07470300  0.95273200  1
  N  N26  1  0.05079400  0.57470300  0.54726800  1
  N  N27  1  0.55079400  0.92529700  0.45273200  1
  O  O0  1  0.96467300  0.96467300  0.96467300  1
  O  O1  1  0.53532700  0.03532700  0.46467300  1
  O  O2  1  0.03532700  0.46467300  0.53532700  1
  O  O3  1  0.46467300  0.53532700  0.03532700  1
  F  F0  1  0.11486000  0.37016000  0.42282000  1
  F  F1  1  0.38514000  0.62984000  0.92282000  1
  F  F2  1  0.88514000  0.87016000  0.07718000  1
  F  F3  1  0.42282000  0.11486000  0.37016000  1
  F  F4  1  0.61486000  0.12984000  0.57718000  1
  F  F5  1  0.92282000  0.38514000  0.62984000  1
  F  F6  1  0.07718000  0.88514000  0.87016000  1
  F  F7  1  0.57718000  0.61486000  0.12984000  1
  F  F8  1  0.37016000  0.42282000  0.11486000  1
  F  F9  1  0.87016000  0.07718000  0.88514000  1
  F  F10  1  0.12984000  0.57718000  0.61486000  1
  F  F11  1  0.62984000  0.92282000  0.38514000  1
  F  F12  1  0.20257800  0.35152400  0.21935000  1
  F  F13  1  0.29742200  0.64847600  0.71935000  1
  F  F14  1  0.79742200  0.85152400  0.28065000  1
  F  F15  1  0.21935000  0.20257800  0.35152400  1
  F  F16  1  0.70257800  0.14847600  0.78065000  1
  F  F17  1  0.71935000  0.29742200  0.64847600  1
  F  F18  1  0.28065000  0.79742200  0.85152400  1
  F  F19  1  0.78065000  0.70257800  0.14847600  1
  F  F20  1  0.35152400  0.21935000  0.20257800  1
  F  F21  1  0.85152400  0.28065000  0.79742200  1
  F  F22  1  0.14847600  0.78065000  0.70257800  1
  F  F23  1  0.64847600  0.71935000  0.29742200  1
  F  F24  1  0.94260200  0.07840300  0.30993100  1
  F  F25  1  0.55739800  0.92159700  0.80993100  1
  F  F26  1  0.05739800  0.57840300  0.19006900  1
  F  F27  1  0.30993100  0.94260200  0.07840300  1
  F  F28  1  0.44260200  0.42159700  0.69006900  1
  F  F29  1  0.80993100  0.55739800  0.92159700  1
  F  F30  1  0.19006900  0.05739800  0.57840300  1
  F  F31  1  0.69006900  0.44260200  0.42159700  1
  F  F32  1  0.07840300  0.30993100  0.94260200  1
  F  F33  1  0.57840300  0.19006900  0.05739800  1
  F  F34  1  0.42159700  0.69006900  0.44260200  1
  F  F35  1  0.92159700  0.80993100  0.55739800  1
  F  F36  1  0.97853300  0.71426400  0.34863200  1
  F  F37  1  0.52146700  0.28573600  0.84863200  1
  F  F38  1  0.02146700  0.21426400  0.15136800  1
  F  F39  1  0.34863200  0.97853300  0.71426400  1
  F  F40  1  0.47853300  0.78573600  0.65136800  1
  F  F41  1  0.84863200  0.52146700  0.28573600  1
  F  F42  1  0.15136800  0.02146700  0.21426400  1
  F  F43  1  0.65136800  0.47853300  0.78573600  1
  F  F44  1  0.71426400  0.34863200  0.97853300  1
  F  F45  1  0.21426400  0.15136800  0.02146700  1
  F  F46  1  0.78573600  0.65136800  0.47853300  1
  F  F47  1  0.28573600  0.84863200  0.52146700  1
  F  F48  1  0.32009700  0.50011100  0.34427900  1
  F  F49  1  0.17990300  0.49988900  0.84427900  1
  F  F50  1  0.67990300  0.00011100  0.15572100  1
  F  F51  1  0.34427900  0.32009700  0.50011100  1
  F  F52  1  0.82009700  0.99988900  0.65572100  1
  F  F53  1  0.84427900  0.17990300  0.49988900  1
  F  F54  1  0.15572100  0.67990300  0.00011100  1
  F  F55  1  0.65572100  0.82009700  0.99988900  1
  F  F56  1  0.50011100  0.34427900  0.32009700  1
  F  F57  1  0.00011100  0.15572100  0.67990300  1
  F  F58  1  0.99988900  0.65572100  0.82009700  1
  F  F59  1  0.49988900  0.84427900  0.17990300  1
loop_
_geom_bond_atom_site_label_1
_geom_bond_atom_site_label_2
_geom_bond_distance
_geom_bond_site_symmetry_2
N16 O2 1.479995 1_555
N17 O3 1.479995 1_556
N18 O0 1.479995 1_554
N19 O1 1.479995 1_555
N20 O1 1.479995 1_555
N21 O2 1.479995 1_655
N22 O0 1.479995 1_455
N23 O3 1.479995 1_555
N24 O3 1.479995 1_555
N25 O0 1.479995 1_545
N26 O2 1.479995 1_555
N27 O1 1.479995 1_565
F0 N16 1.377787 1_555
F1 N17 1.377787 1_555
F2 N18 1.377787 1_555
F3 N19 1.377787 1_555
F4 N20 1.377787 1_555
F5 N21 1.377787 1_555
F6 N22 1.377787 1_555
F7 N23 1.377787 1_555
F8 N24 1.377787 1_555
F9 N25 1.377787 1_555
F10 N26 1.377787 1_555
F11 N27 1.377787 1_555
F12 Th4 2.399736 1_555
F12 Th0 2.401263 1_555
F13 Th5 2.399736 1_555
F13 Th1 2.401263 1_555
F14 Th6 2.399736 1_555
F14 Th2 2.401263 1_555
F15 Th4 2.399736 1_555
F15 Th0 2.401263 1_555
F16 Th7 2.399736 1_555
F16 Th3 2.401263 1_555
F17 Th7 2.399736 1_555
F17 Th3 2.401263 1_555
F18 Th5 2.399736 1_555
F18 Th1 2.401263 1_555
F19 Th6 2.399736 1_555
F19 Th2 2.401263 1_555
F20 Th4 2.399736 1_555
F20 Th0 2.401263 1_555
F21 Th7 2.399736 1_555
F21 Th3 2.401263 1_555
F22 Th5 2.399736 1_555
F22 Th1 2.401263 1_555
F23 Th6 2.399736 1_555
F23 Th2 2.401263 1_555
F24 N6 1.305997 1_555
F25 N8 1.305997 1_555
F26 N4 1.305997 1_555
F27 N10 1.305997 1_555
F28 N5 1.305997 1_555
F29 N11 1.305997 1_555
F30 N7 1.305997 1_555
F31 N9 1.305997 1_555
F32 N13 1.305997 1_555
F33 N12 1.305997 1_555
F34 N15 1.305997 1_555
F35 N14 1.305997 1_555
F36 Th6 2.146922 1_555
F37 Th7 2.146922 1_555
F38 Th4 2.146922 1_555
F39 Th5 2.146922 1_555
F40 Th5 2.146922 1_555
F41 Th6 2.146922 1_555
F42 Th4 2.146922 1_555
F43 Th7 2.146922 1_555
F44 Th7 2.146922 1_555
F45 Th4 2.146922 1_555
F46 Th6 2.146922 1_555
F47 Th5 2.146922 1_555
F48 Th0 2.154657 1_555
F49 Th1 2.154657 1_555
F50 Th2 2.154657 1_545
F51 Th0 2.154657 1_555
F52 Th3 2.154657 1_565
F53 Th3 2.154657 1_555
F54 Th1 2.154657 1_554
F55 Th2 2.154657 1_556
F56 Th0 2.154657 1_555
F57 Th3 2.154657 1_455
F58 Th1 2.154657 1_655
F59 Th2 2.154657 1_555
