# generated using pymatgen
data_Mg2Fe5(SiO3)8
_symmetry_space_group_name_H-M   'P 1'
_cell_length_a   10.36248885
_cell_length_b   10.36248885
_cell_length_c   5.37882023
_cell_angle_alpha   84.64328136
_cell_angle_beta   84.64328136
_cell_angle_gamma   124.31000241
_symmetry_Int_Tables_number   1
_chemical_formula_structural   Mg2Fe5(SiO3)8
_chemical_formula_sum   'Mg2 Fe5 Si8 O24'
_cell_volume   467.45780543
_cell_formula_units_Z   1
loop_
 _symmetry_equiv_pos_site_id
 _symmetry_equiv_pos_as_xyz
  1  'x, y, z'
loop_
 _atom_site_type_symbol
 _atom_site_label
 _atom_site_symmetry_multiplicity
 _atom_site_fract_x
 _atom_site_fract_y
 _atom_site_fract_z
 _atom_site_occupancy
  Mg  Mg0  1  0.99931600  0.00068400  0.00000000  1
  Mg  Mg1  1  0.82100400  0.17899600  0.00000000  1
  Fe  Fe0  1  0.74097300  0.25902700  0.50000000  1
  Fe  Fe1  1  0.25853100  0.74146900  0.50000000  1
  Fe  Fe2  1  0.17891700  0.82108300  0.00000000  1
  Fe  Fe3  1  0.92201700  0.07798300  0.50000000  1
  Fe  Fe4  1  0.07848500  0.92151500  0.50000000  1
  Si  Si0  1  0.20217900  0.36965900  0.72924000  1
  Si  Si1  1  0.37042200  0.20301800  0.72900700  1
  Si  Si2  1  0.79698200  0.62957800  0.27099300  1
  Si  Si3  1  0.63034100  0.79782100  0.27076000  1
  Si  Si4  1  0.12913900  0.46259800  0.22461300  1
  Si  Si5  1  0.46491000  0.12999500  0.22499500  1
  Si  Si6  1  0.87000500  0.53509000  0.77500500  1
  Si  Si7  1  0.53740200  0.87086100  0.77538700  1
  O  O0  1  0.34030700  0.34051600  0.72824900  1
  O  O1  1  0.65948400  0.65969300  0.27175100  1
  O  O2  1  0.13693300  0.62312800  0.23180800  1
  O  O3  1  0.62625500  0.13769300  0.22823000  1
  O  O4  1  0.86230700  0.37374500  0.77177000  1
  O  O5  1  0.37687200  0.86306700  0.76819200  1
  O  O6  1  0.22928500  0.46911200  0.45149500  1
  O  O7  1  0.47168300  0.23059800  0.45199600  1
  O  O8  1  0.76940200  0.52831700  0.54800400  1
  O  O9  1  0.53088800  0.77071500  0.54850500  1
  O  O10  1  0.10363600  0.10373600  0.29810600  1
  O  O11  1  0.89626400  0.89636400  0.70189400  1
  O  O12  1  0.02430500  0.20178600  0.78915000  1
  O  O13  1  0.20072100  0.02709100  0.78749700  1
  O  O14  1  0.97290900  0.79927900  0.21250300  1
  O  O15  1  0.79821400  0.97569500  0.21085000  1
  O  O16  1  0.21820600  0.47721800  0.94385500  1
  O  O17  1  0.47734500  0.21786700  0.94439300  1
  O  O18  1  0.78213300  0.52265500  0.05560700  1
  O  O19  1  0.52278200  0.78179400  0.05614500  1
  O  O20  1  0.95100200  0.29236700  0.28553900  1
  O  O21  1  0.29433200  0.95352500  0.29436500  1
  O  O22  1  0.04647500  0.70566800  0.70563500  1
  O  O23  1  0.70763300  0.04899800  0.71446100  1
loop_
_geom_bond_atom_site_label_1
_geom_bond_atom_site_label_2
_geom_bond_distance
_geom_bond_site_symmetry_2
Mg0 O10 2.054748 1_655
Mg0 O11 2.054748 1_544
Mg0 O13 2.142319 1_654
Mg0 O14 2.142319 1_545
Mg0 O15 2.142789 1_545
Mg0 O12 2.142789 1_654
Mg1 O4 2.056325 1_554
Mg1 O3 2.056325 1_555
Mg1 O23 2.119626 1_554
Mg1 O20 2.119626 1_555
Mg1 O15 2.173298 1_545
Mg1 O12 2.173298 1_654
Fe0 O4 2.028182 1_555
Fe0 O3 2.028182 1_555
Fe0 O23 2.189978 1_555
Fe0 O20 2.189978 1_555
Fe0 O7 2.676267 1_555
Fe0 O8 2.676267 1_555
Fe1 O5 2.024906 1_555
Fe1 O2 2.024906 1_555
Fe1 O22 2.177216 1_555
Fe1 O21 2.177216 1_555
Fe2 O5 2.089704 1_554
Fe2 O2 2.089704 1_555
Fe2 O21 2.174804 1_555
Fe2 O22 2.174804 1_554
Fe2 O14 2.206162 1_455
Fe2 O13 2.206162 1_564
Fe3 O11 1.946949 1_545
Fe3 O10 1.946949 1_655
Fe3 O15 2.082219 1_545
Fe3 O12 2.082219 1_655
Fe3 O23 2.249617 1_555
Fe3 O20 2.249617 1_555
Fe4 O10 1.955056 1_565
Fe4 O11 1.955056 1_455
Fe4 O14 2.076549 1_455
Fe4 O13 2.076549 1_565
Fe4 O21 2.229234 1_555
Fe4 O22 2.229234 1_555
O0 Si0 1.620546 1_555
O0 Si1 1.621089 1_555
O1 Si3 1.620546 1_555
O1 Si2 1.621089 1_555
O2 Si4 1.623688 1_555
O3 Si5 1.630145 1_555
O4 Si6 1.630145 1_555
O5 Si7 1.623688 1_555
O6 Si0 1.637283 1_555
O6 Si4 1.656396 1_555
O7 Si1 1.641131 1_555
O7 Si5 1.659440 1_555
O8 Si2 1.641131 1_555
O8 Si6 1.659440 1_555
O9 Si3 1.637283 1_555
O9 Si7 1.656396 1_555
O12 Si0 1.642296 1_555
O13 Si1 1.640239 1_555
O14 Si2 1.640239 1_555
O15 Si3 1.642296 1_555
O16 Si0 1.633952 1_555
O16 Si4 1.641570 1_556
O17 Si1 1.635312 1_555
O17 Si5 1.642730 1_556
O18 Si2 1.635312 1_555
O18 Si6 1.642730 1_554
O19 Si3 1.633952 1_555
O19 Si7 1.641570 1_554
O20 Si4 1.653735 1_655
O21 Si5 1.647171 1_565
O22 Si6 1.647171 1_455
O23 Si7 1.653735 1_545
