# generated using pymatgen
data_Sr3RhN3
_symmetry_space_group_name_H-M   'P 1'
_cell_length_a   7.68930875
_cell_length_b   7.68974184
_cell_length_c   5.30627335
_cell_angle_alpha   90.00000000
_cell_angle_beta   90.00000000
_cell_angle_gamma   119.99587787
_symmetry_Int_Tables_number   1
_chemical_formula_structural   Sr3RhN3
_chemical_formula_sum   'Sr6 Rh2 N6'
_cell_volume   271.72984938
_cell_formula_units_Z   2
loop_
 _symmetry_equiv_pos_site_id
 _symmetry_equiv_pos_as_xyz
  1  'x, y, z'
loop_
 _atom_site_type_symbol
 _atom_site_label
 _atom_site_symmetry_multiplicity
 _atom_site_fract_x
 _atom_site_fract_y
 _atom_site_fract_z
 _atom_site_occupancy
  Sr  Sr0  1  0.90593047  0.63677458  0.25000000  1
  Sr  Sr1  1  0.73081167  0.09409834  0.25000000  1
  Sr  Sr2  1  0.36329543  0.26918719  0.25000000  1
  Sr  Sr3  1  0.09405146  0.36321693  0.75000000  1
  Sr  Sr4  1  0.26919801  0.90592170  0.75000000  1
  Sr  Sr5  1  0.63671470  0.73080311  0.75000000  1
  Rh  Rh0  1  0.66660918  0.33329960  0.75000000  1
  Rh  Rh1  1  0.33339338  0.66670363  0.25000000  1
  N  N0  1  0.89353348  0.59437866  0.75000000  1
  N  N1  1  0.70083073  0.10644211  0.75000000  1
  N  N2  1  0.40559329  0.29910787  0.75000000  1
  N  N3  1  0.10641349  0.40556567  0.25000000  1
  N  N4  1  0.29916263  0.89360333  0.25000000  1
  N  N5  1  0.59446208  0.70089627  0.25000000  1
loop_
_geom_bond_atom_site_label_1
_geom_bond_atom_site_label_2
_geom_bond_distance
_geom_bond_site_symmetry_2
N0 Rh0 1.890123 1_555
N0 Sr5 2.659251 1_555
N0 Sr0 2.668976 1_556
N0 Sr0 2.668976 1_555
N0 Sr4 2.676566 1_655
N0 Sr3 2.877057 1_655
N1 Rh0 1.889821 1_555
N1 Sr3 2.659223 1_655
N1 Sr1 2.668927 1_555
N1 Sr1 2.668927 1_556
N1 Sr5 2.676372 1_545
N1 Sr4 2.876814 1_545
N2 Rh0 1.889358 1_555
N2 Sr4 2.659116 1_545
N2 Sr2 2.668901 1_556
N2 Sr2 2.668901 1_555
N2 Sr3 2.676278 1_555
N2 Sr5 2.877401 1_555
N3 Rh1 1.890563 1_555
N3 Sr2 2.659437 1_555
N3 Sr3 2.668945 1_554
N3 Sr3 2.668945 1_555
N3 Sr1 2.676055 1_455
N3 Sr0 2.877151 1_455
N4 Rh1 1.890185 1_555
N4 Sr0 2.659362 1_455
N4 Sr4 2.668898 1_555
N4 Sr4 2.668898 1_554
N4 Sr2 2.675908 1_565
N4 Sr1 2.876933 1_565
N5 Rh1 1.889758 1_555
N5 Sr1 2.659292 1_565
N5 Sr5 2.668871 1_555
N5 Sr5 2.668871 1_554
N5 Sr0 2.675781 1_555
N5 Sr2 2.877506 1_555
