# generated using pymatgen
data_Na2Fe2P2O8F
_symmetry_space_group_name_H-M   'P 1'
_cell_length_a   5.17789800
_cell_length_b   11.16812700
_cell_length_c   14.45781900
_cell_angle_alpha   90.00000000
_cell_angle_beta   90.00000000
_cell_angle_gamma   90.00000000
_symmetry_Int_Tables_number   1
_chemical_formula_structural   Na2Fe2P2O8F
_chemical_formula_sum   'Na8 Fe8 P8 O32 F4'
_cell_volume   836.05840712
_cell_formula_units_Z   4
loop_
 _symmetry_equiv_pos_site_id
 _symmetry_equiv_pos_as_xyz
  1  'x, y, z'
loop_
 _atom_site_type_symbol
 _atom_site_label
 _atom_site_symmetry_multiplicity
 _atom_site_fract_x
 _atom_site_fract_y
 _atom_site_fract_z
 _atom_site_occupancy
  Na  Na0  1  0.25489000  0.34497500  0.75422100  1
  Na  Na1  1  0.24511000  0.84497500  0.74577900  1
  Na  Na2  1  0.75489000  0.65502500  0.74577900  1
  Na  Na3  1  0.74511000  0.15502500  0.75422100  1
  Na  Na4  1  0.74511000  0.65502500  0.24577900  1
  Na  Na5  1  0.75489000  0.15502500  0.25422100  1
  Na  Na6  1  0.24511000  0.34497500  0.25422100  1
  Na  Na7  1  0.25489000  0.84497500  0.24577900  1
  Fe  Fe0  1  0.17854700  0.33674600  0.98981600  1
  Fe  Fe1  1  0.32145300  0.83674600  0.51018400  1
  Fe  Fe2  1  0.67854700  0.66325400  0.51018400  1
  Fe  Fe3  1  0.82145300  0.16325400  0.98981600  1
  Fe  Fe4  1  0.82145300  0.66325400  0.01018400  1
  Fe  Fe5  1  0.67854700  0.16325400  0.48981600  1
  Fe  Fe6  1  0.32145300  0.33674600  0.48981600  1
  Fe  Fe7  1  0.17854700  0.83674600  0.01018400  1
  P  P0  1  0.17060400  0.09053200  0.61311500  1
  P  P1  1  0.32939600  0.59053200  0.88688500  1
  P  P2  1  0.67060400  0.90946800  0.88688500  1
  P  P3  1  0.82939600  0.40946800  0.61311500  1
  P  P4  1  0.82939600  0.90946800  0.38688500  1
  P  P5  1  0.67060400  0.40946800  0.11311500  1
  P  P6  1  0.32939600  0.09053200  0.11311500  1
  P  P7  1  0.17060400  0.59053200  0.38688500  1
  O  O0  1  0.22589900  0.95430000  0.60354800  1
  O  O1  1  0.27410100  0.45430000  0.89645200  1
  O  O2  1  0.72589900  0.04570000  0.89645200  1
  O  O3  1  0.77410100  0.54570000  0.60354800  1
  O  O4  1  0.77410100  0.04570000  0.39645200  1
  O  O5  1  0.72589900  0.54570000  0.10354800  1
  O  O6  1  0.27410100  0.95430000  0.10354800  1
  O  O7  1  0.22589900  0.45430000  0.39645200  1
  O  O8  1  0.26422700  0.13700400  0.70561100  1
  O  O9  1  0.23577300  0.63700400  0.79438900  1
  O  O10  1  0.76422700  0.86299600  0.79438900  1
  O  O11  1  0.73577300  0.36299600  0.70561100  1
  O  O12  1  0.73577300  0.86299600  0.29438900  1
  O  O13  1  0.76422700  0.36299600  0.20561100  1
  O  O14  1  0.23577300  0.13700400  0.20561100  1
  O  O15  1  0.26422700  0.63700400  0.29438900  1
  O  O16  1  0.87510300  0.11316300  0.59956400  1
  O  O17  1  0.62489700  0.61316300  0.90043600  1
  O  O18  1  0.37510300  0.88683700  0.90043600  1
  O  O19  1  0.12489700  0.38683700  0.59956400  1
  O  O20  1  0.12489700  0.88683700  0.40043600  1
  O  O21  1  0.37510300  0.38683700  0.09956400  1
  O  O22  1  0.62489700  0.11316300  0.09956400  1
  O  O23  1  0.87510300  0.61316300  0.40043600  1
  O  O24  1  0.30554900  0.15592600  0.52774100  1
  O  O25  1  0.19445100  0.65592600  0.97225900  1
  O  O26  1  0.80554900  0.84407400  0.97225900  1
  O  O27  1  0.69445100  0.34407400  0.52774100  1
  O  O28  1  0.69445100  0.84407400  0.47225900  1
  O  O29  1  0.80554900  0.34407400  0.02774100  1
  O  O30  1  0.19445100  0.15592600  0.02774100  1
  O  O31  1  0.30554900  0.65592600  0.47225900  1
  F  F0  1  0.00000000  0.25000000  0.87809700  1
  F  F1  1  0.50000000  0.75000000  0.62190300  1
  F  F2  1  0.00000000  0.75000000  0.12190300  1
  F  F3  1  0.50000000  0.25000000  0.37809700  1
loop_
_geom_bond_atom_site_label_1
_geom_bond_atom_site_label_2
_geom_bond_distance
_geom_bond_site_symmetry_2
Na0 O19 2.381456 1_555
Na0 O1 2.393575 1_555
Na0 O8 2.427127 1_555
Na0 O11 2.595061 1_555
Na0 O11 2.785574 1_455
Na1 O18 2.381456 1_555
Na1 O0 2.393575 1_555
Na1 O9 2.427127 1_555
Na1 O10 2.595061 1_455
Na1 O10 2.785574 1_555
Na2 O17 2.381456 1_555
Na2 O3 2.393575 1_555
Na2 O10 2.427127 1_555
Na2 O9 2.595061 1_655
Na2 O9 2.785574 1_555
Na3 O16 2.381456 1_555
Na3 O2 2.393575 1_555
Na3 O11 2.427127 1_555
Na3 O8 2.595061 1_555
Na3 O8 2.785574 1_655
Na4 O23 2.381456 1_555
Na4 O5 2.393575 1_555
Na4 O12 2.427127 1_555
Na4 O15 2.595061 1_555
Na4 O15 2.785574 1_655
Na5 O22 2.381456 1_555
Na5 O4 2.393575 1_555
Na5 O13 2.427127 1_555
Na5 O14 2.595061 1_655
Na5 O14 2.785574 1_555
Na6 O21 2.381456 1_555
Na6 O7 2.393575 1_555
Na6 O14 2.427127 1_555
Na6 O13 2.595061 1_455
Na6 O13 2.785574 1_555
Na7 O20 2.381456 1_555
Na7 O6 2.393575 1_555
Na7 O15 2.427127 1_555
Na7 O12 2.595061 1_555
Na7 O12 2.785574 1_455
Fe0 O1 1.946910 1_555
Fe0 O21 1.966325 1_556
Fe0 O29 2.009338 1_456
Fe0 O30 2.094156 1_556
Fe1 O0 1.946910 1_555
Fe1 O20 1.966325 1_555
Fe1 O28 2.009338 1_555
Fe1 O31 2.094156 1_555
Fe2 O3 1.946910 1_555
Fe2 O23 1.966325 1_555
Fe2 O31 2.009338 1_555
Fe2 O28 2.094156 1_555
Fe3 O2 1.946910 1_555
Fe3 O22 1.966325 1_556
Fe3 O30 2.009338 1_656
Fe3 O29 2.094156 1_556
Fe4 O5 1.946910 1_555
Fe4 O17 1.966325 1_554
Fe4 O25 2.009338 1_654
Fe4 O26 2.094156 1_554
Fe5 O4 1.946910 1_555
Fe5 O16 1.966325 1_555
Fe5 O24 2.009338 1_555
Fe5 O27 2.094156 1_555
Fe6 O7 1.946910 1_555
Fe6 O19 1.966325 1_555
Fe6 O27 2.009338 1_555
Fe6 O24 2.094156 1_555
Fe7 O6 1.946910 1_555
Fe7 O18 1.966325 1_554
Fe7 O26 2.009338 1_454
Fe7 O25 2.094156 1_554
O0 P0 1.554328 1_565
O1 P1 1.554328 1_555
O2 P2 1.554328 1_545
O3 P3 1.554328 1_555
O4 P4 1.554328 1_545
O5 P5 1.554328 1_555
O6 P6 1.554328 1_565
O7 P7 1.554328 1_555
O8 P0 1.514171 1_555
O9 P1 1.514171 1_555
O10 P2 1.514171 1_555
O11 P3 1.514171 1_555
O12 P4 1.514171 1_555
O13 P5 1.514171 1_555
O14 P6 1.514171 1_555
O15 P7 1.514171 1_555
O16 P0 1.563135 1_655
O17 P1 1.563135 1_555
O18 P2 1.563135 1_555
O19 P3 1.563135 1_455
O20 P4 1.563135 1_455
O21 P5 1.563135 1_555
O22 P6 1.563135 1_555
O23 P7 1.563135 1_655
O24 P0 1.595354 1_555
O25 P1 1.595354 1_555
O26 P2 1.595354 1_555
O27 P3 1.595354 1_555
O28 P4 1.595354 1_555
O29 P5 1.595354 1_555
O30 P6 1.595354 1_555
O31 P7 1.595354 1_555
F0 Fe3 2.098134 1_455
F0 Fe0 2.098134 1_555
F0 Na3 2.464655 1_455
F0 Na0 2.464655 1_555
F1 Fe2 2.098134 1_555
F1 Fe1 2.098134 1_555
F1 Na1 2.464655 1_555
F1 Na2 2.464655 1_555
F2 Fe4 2.098134 1_455
F2 Fe7 2.098134 1_555
F2 Na4 2.464655 1_455
F2 Na7 2.464655 1_555
F3 Fe6 2.098134 1_555
F3 Fe5 2.098134 1_555
F3 Na6 2.464655 1_555
F3 Na5 2.464655 1_555
