# generated using pymatgen
data_MnFeTe
_symmetry_space_group_name_H-M   'P 1'
_cell_length_a   4.13400646
_cell_length_b   4.13400646
_cell_length_c   4.13400646
_cell_angle_alpha   60.00000000
_cell_angle_beta   60.00000000
_cell_angle_gamma   60.00000000
_symmetry_Int_Tables_number   1
_chemical_formula_structural   MnFeTe
_chemical_formula_sum   'Mn1 Fe1 Te1'
_cell_volume   49.95724203
_cell_formula_units_Z   1
loop_
 _symmetry_equiv_pos_site_id
 _symmetry_equiv_pos_as_xyz
  1  'x, y, z'
loop_
 _atom_site_type_symbol
 _atom_site_label
 _atom_site_symmetry_multiplicity
 _atom_site_fract_x
 _atom_site_fract_y
 _atom_site_fract_z
 _atom_site_occupancy
  Mn  Mn0  1  0.25000000  0.25000000  0.25000000  1
  Fe  Fe0  1  0.00000000  0.00000000  0.00000000  1
  Te  Te0  1  0.75000000  0.75000000  0.75000000  1
loop_
_geom_bond_atom_site_label_1
_geom_bond_atom_site_label_2
_geom_bond_distance
_geom_bond_site_symmetry_2
Mn0 Te0 2.923184 1_455
Mn0 Te0 2.923184 1_544
Mn0 Te0 2.923184 1_545
Mn0 Te0 2.923184 1_454
Mn0 Te0 2.923184 1_445
Mn0 Te0 2.923184 1_554
Fe0 Te0 2.531552 1_444
Fe0 Mn0 2.531552 1_555
Fe0 Mn0 2.531552 1_554
Fe0 Te0 2.531552 1_445
Fe0 Mn0 2.531552 1_545
Fe0 Te0 2.531552 1_544
Fe0 Te0 2.531552 1_454
Fe0 Mn0 2.531552 1_455
