# generated using pymatgen
data_LiGd(SO4)2
_symmetry_space_group_name_H-M   'P 1'
_cell_length_a   7.65055200
_cell_length_b   7.65055200
_cell_length_c   5.97111800
_cell_angle_alpha   90.00000000
_cell_angle_beta   90.00000000
_cell_angle_gamma   90.00000000
_symmetry_Int_Tables_number   1
_chemical_formula_structural   LiGd(SO4)2
_chemical_formula_sum   'Li2 Gd2 S4 O16'
_cell_volume   349.49518465
_cell_formula_units_Z   2
loop_
 _symmetry_equiv_pos_site_id
 _symmetry_equiv_pos_as_xyz
  1  'x, y, z'
loop_
 _atom_site_type_symbol
 _atom_site_label
 _atom_site_symmetry_multiplicity
 _atom_site_fract_x
 _atom_site_fract_y
 _atom_site_fract_z
 _atom_site_occupancy
  Li  Li0  1  0.00000000  0.50000000  0.75000000  1
  Li  Li1  1  0.50000000  0.00000000  0.25000000  1
  Gd  Gd0  1  0.00000000  0.50000000  0.25000000  1
  Gd  Gd1  1  0.50000000  0.00000000  0.75000000  1
  S  S0  1  0.22148200  0.27851800  0.75000000  1
  S  S1  1  0.77851800  0.72148200  0.75000000  1
  S  S2  1  0.72148200  0.22148200  0.25000000  1
  S  S3  1  0.27851800  0.77851800  0.25000000  1
  O  O0  1  0.18281800  0.41246900  0.93040900  1
  O  O1  1  0.81718200  0.58753100  0.93040900  1
  O  O2  1  0.68281800  0.08753100  0.43040900  1
  O  O3  1  0.31718200  0.91246900  0.43040900  1
  O  O4  1  0.58753100  0.18281800  0.06959100  1
  O  O5  1  0.41246900  0.81718200  0.06959100  1
  O  O6  1  0.08753100  0.31718200  0.56959100  1
  O  O7  1  0.91246900  0.68281800  0.56959100  1
  O  O8  1  0.20614300  0.10011500  0.84380200  1
  O  O9  1  0.79385700  0.89988500  0.84380200  1
  O  O10  1  0.70614300  0.39988500  0.34380200  1
  O  O11  1  0.29385700  0.60011500  0.34380200  1
  O  O12  1  0.10011500  0.79385700  0.15619800  1
  O  O13  1  0.89988500  0.20614300  0.15619800  1
  O  O14  1  0.60011500  0.70614300  0.65619800  1
  O  O15  1  0.39988500  0.29385700  0.65619800  1
loop_
_geom_bond_atom_site_label_1
_geom_bond_atom_site_label_2
_geom_bond_distance
_geom_bond_site_symmetry_2
Li0 O0 1.888159 1_555
Li0 O7 1.888159 1_455
Li0 O1 1.888159 1_455
Li0 O6 1.888159 1_555
Li1 O4 1.888159 1_555
Li1 O2 1.888159 1_555
Li1 O5 1.888159 1_545
Li1 O3 1.888159 1_545
Gd0 O12 2.440211 1_555
Gd0 O11 2.440211 1_555
Gd0 O10 2.440211 1_455
Gd0 O13 2.440211 1_455
Gd0 O7 2.458935 1_455
Gd0 O0 2.458935 1_554
Gd0 O6 2.458935 1_555
Gd0 O1 2.458935 1_454
Gd1 O9 2.440211 1_545
Gd1 O8 2.440211 1_555
Gd1 O15 2.440211 1_555
Gd1 O14 2.440211 1_545
Gd1 O4 2.458935 1_556
Gd1 O2 2.458935 1_555
Gd1 O5 2.458935 1_546
Gd1 O3 2.458935 1_545
O0 S0 1.515970 1_555
O1 S1 1.515970 1_555
O2 S2 1.515970 1_555
O3 S3 1.515970 1_555
O4 S2 1.515970 1_555
O5 S3 1.515970 1_555
O6 S0 1.515970 1_555
O7 S1 1.515970 1_555
O8 S0 1.479996 1_555
O9 S1 1.479996 1_555
O10 S2 1.479996 1_555
O11 S3 1.479996 1_555
O12 S3 1.479996 1_555
O13 S2 1.479996 1_555
O14 S1 1.479996 1_555
O15 S0 1.479996 1_555
