# generated using pymatgen
data_KBaMg6
_symmetry_space_group_name_H-M   'P 1'
_cell_length_a   5.23581700
_cell_length_b   6.90923700
_cell_length_c   14.14926100
_cell_angle_alpha   90.00000000
_cell_angle_beta   90.00000000
_cell_angle_gamma   90.00000000
_symmetry_Int_Tables_number   1
_chemical_formula_structural   KBaMg6
_chemical_formula_sum   'K2 Ba2 Mg12'
_cell_volume   511.85659897
_cell_formula_units_Z   2
loop_
 _symmetry_equiv_pos_site_id
 _symmetry_equiv_pos_as_xyz
  1  'x, y, z'
loop_
 _atom_site_type_symbol
 _atom_site_label
 _atom_site_symmetry_multiplicity
 _atom_site_fract_x
 _atom_site_fract_y
 _atom_site_fract_z
 _atom_site_occupancy
  K  K0  1  0.50000000  0.00000000  0.17807100  1
  K  K1  1  0.50000000  0.50000000  0.67807100  1
  Ba  Ba0  1  0.50000000  0.50000000  0.17412100  1
  Ba  Ba1  1  0.50000000  0.00000000  0.67412100  1
  Mg  Mg0  1  0.50000000  0.25689700  0.42333700  1
  Mg  Mg1  1  0.50000000  0.74310300  0.42333700  1
  Mg  Mg2  1  0.00000000  0.74815600  0.04370700  1
  Mg  Mg3  1  0.00000000  0.25184400  0.04370700  1
  Mg  Mg4  1  0.00000000  0.00000000  0.35738600  1
  Mg  Mg5  1  0.00000000  0.50000000  0.35632900  1
  Mg  Mg6  1  0.50000000  0.75689700  0.92333700  1
  Mg  Mg7  1  0.50000000  0.24310300  0.92333700  1
  Mg  Mg8  1  0.00000000  0.24815600  0.54370700  1
  Mg  Mg9  1  0.00000000  0.75184400  0.54370700  1
  Mg  Mg10  1  0.00000000  0.50000000  0.85738600  1
  Mg  Mg11  1  0.00000000  0.00000000  0.85632900  1
loop_
_geom_bond_atom_site_label_1
_geom_bond_atom_site_label_2
_geom_bond_distance
_geom_bond_site_symmetry_2
K0 Mg4 3.645641 1_655
K0 Mg4 3.645641 1_555
K0 Mg3 3.673635 1_555
K0 Mg3 3.673635 1_655
K0 Mg2 3.673635 1_645
K0 Mg2 3.673635 1_545
K0 Mg0 3.897910 1_555
K0 Mg1 3.897910 1_545
K0 Mg7 3.976457 1_554
K0 Mg6 3.976457 1_544
K1 Mg10 3.645641 1_655
K1 Mg10 3.645641 1_555
K1 Mg8 3.673635 1_655
K1 Mg9 3.673635 1_555
K1 Mg9 3.673635 1_655
K1 Mg8 3.673635 1_555
K1 Mg7 3.897910 1_555
K1 Mg6 3.897910 1_555
K1 Mg1 3.976457 1_555
K1 Mg0 3.976457 1_555
Ba0 K0 3.455071 1_555
Ba0 K0 3.455071 1_565
Ba0 Mg3 3.632930 1_555
Ba0 Mg3 3.632930 1_655
Ba0 Mg2 3.632930 1_555
Ba0 Mg2 3.632930 1_655
Ba0 Mg5 3.674247 1_655
Ba0 Mg5 3.674247 1_555
Ba0 Mg0 3.905827 1_555
Ba0 Mg1 3.905827 1_555
Ba0 Mg7 3.967580 1_554
Ba0 Mg6 3.967580 1_554
Ba1 K1 3.455071 1_555
Ba1 K1 3.455071 1_545
Ba1 Mg8 3.632930 1_555
Ba1 Mg8 3.632930 1_655
Ba1 Mg9 3.632930 1_645
Ba1 Mg9 3.632930 1_545
Ba1 Mg11 3.674247 1_555
Ba1 Mg11 3.674247 1_655
Ba1 Mg7 3.905827 1_555
Ba1 Mg6 3.905827 1_545
Ba1 Mg0 3.967580 1_555
Ba1 Mg1 3.967580 1_545
Mg0 Mg8 3.123748 1_555
Mg0 Mg8 3.123748 1_655
Mg0 Mg5 3.251709 1_655
Mg0 Mg5 3.251709 1_555
Mg0 Mg4 3.297684 1_555
Mg0 Mg4 3.297684 1_655
Mg0 Mg1 3.359312 1_555
Mg0 Mg1 3.549925 1_545
Mg1 Mg9 3.123748 1_655
Mg1 Mg9 3.123748 1_555
Mg1 Mg5 3.251709 1_655
Mg1 Mg5 3.251709 1_555
Mg1 Mg4 3.297684 1_565
Mg1 Mg4 3.297684 1_665
Mg2 Mg6 3.123748 1_554
Mg2 Mg6 3.123748 1_454
Mg2 Mg3 3.429137 1_555
Mg2 Mg3 3.480100 1_565
Mg3 Mg7 3.123748 1_554
Mg3 Mg7 3.123748 1_454
Mg4 Mg9 3.144813 1_545
Mg4 Mg8 3.144813 1_555
Mg4 Mg5 3.454651 1_555
Mg4 Mg5 3.454651 1_545
Mg5 Mg9 3.171270 1_555
Mg5 Mg8 3.171270 1_555
Mg6 Mg7 3.359312 1_565
Mg6 Mg7 3.549925 1_555
Mg8 Mg9 3.429137 1_545
Mg8 Mg9 3.480100 1_555
Mg10 Mg2 3.144813 1_556
Mg10 Mg3 3.144813 1_556
Mg10 Mg7 3.297684 1_455
Mg10 Mg7 3.297684 1_555
Mg10 Mg6 3.297684 1_455
Mg10 Mg6 3.297684 1_555
Mg10 Mg11 3.454651 1_565
Mg10 Mg11 3.454651 1_555
Mg11 Mg2 3.171270 1_546
Mg11 Mg3 3.171270 1_556
Mg11 Mg7 3.251709 1_455
Mg11 Mg7 3.251709 1_555
Mg11 Mg6 3.251709 1_445
Mg11 Mg6 3.251709 1_545
