# generated using pymatgen
data_CaTi2PbO6
_symmetry_space_group_name_H-M   'P 1'
_cell_length_a   3.90125900
_cell_length_b   3.90125900
_cell_length_c   8.17860000
_cell_angle_alpha   90.00000000
_cell_angle_beta   90.00000000
_cell_angle_gamma   90.00000000
_symmetry_Int_Tables_number   1
_chemical_formula_structural   CaTi2PbO6
_chemical_formula_sum   'Ca1 Ti2 Pb1 O6'
_cell_volume   124.47683445
_cell_formula_units_Z   1
loop_
 _symmetry_equiv_pos_site_id
 _symmetry_equiv_pos_as_xyz
  1  'x, y, z'
loop_
 _atom_site_type_symbol
 _atom_site_label
 _atom_site_symmetry_multiplicity
 _atom_site_fract_x
 _atom_site_fract_y
 _atom_site_fract_z
 _atom_site_occupancy
  Ca  Ca0  1  0.00000000  0.00000000  0.03679400  1
  Ti  Ti0  1  0.50000000  0.50000000  0.25702300  1
  Ti  Ti1  1  0.50000000  0.50000000  0.76916800  1
  Pb  Pb0  1  0.00000000  0.00000000  0.52690400  1
  O  O0  1  0.00000000  0.50000000  0.22024000  1
  O  O1  1  0.00000000  0.50000000  0.73933600  1
  O  O2  1  0.50000000  0.00000000  0.22024000  1
  O  O3  1  0.50000000  0.00000000  0.73933600  1
  O  O4  1  0.50000000  0.50000000  0.98697300  1
  O  O5  1  0.50000000  0.50000000  0.48198700  1
loop_
_geom_bond_atom_site_label_1
_geom_bond_atom_site_label_2
_geom_bond_distance
_geom_bond_site_symmetry_2
Ca0 O0 2.460884 1_555
Ca0 O2 2.460884 1_555
Ca0 O2 2.460884 1_455
Ca0 O0 2.460884 1_545
Ca0 O4 2.788537 1_554
Ca0 O4 2.788537 1_454
Ca0 O4 2.788537 1_444
Ca0 O4 2.788537 1_544
O0 Ti0 1.973691 1_555
O0 Ti0 1.973691 1_455
O1 Ti1 1.965829 1_555
O1 Ti1 1.965829 1_455
O1 Pb0 2.612183 1_565
O1 Pb0 2.612183 1_555
O2 Ti0 1.973691 1_555
O2 Ti0 1.973691 1_545
O3 Ti1 1.965829 1_545
O3 Ti1 1.965829 1_555
O3 Pb0 2.612183 1_555
O3 Pb0 2.612183 1_655
O4 Ti1 1.781340 1_555
O4 Ti0 2.208631 1_556
O5 Ti0 1.839891 1_555
O5 Ti1 2.348739 1_555
O5 Pb0 2.782959 1_655
O5 Pb0 2.782959 1_565
O5 Pb0 2.782959 1_555
O5 Pb0 2.782959 1_665
