# generated using pymatgen
data_CaBe13
_symmetry_space_group_name_H-M   'P 1'
_cell_length_a   7.25865353
_cell_length_b   7.25865300
_cell_length_c   7.25858957
_cell_angle_alpha   60.00028901
_cell_angle_beta   60.00029146
_cell_angle_gamma   60.00058397
_symmetry_Int_Tables_number   1
_chemical_formula_structural   CaBe13
_chemical_formula_sum   'Ca2 Be26'
_cell_volume   270.42894071
_cell_formula_units_Z   2
loop_
 _symmetry_equiv_pos_site_id
 _symmetry_equiv_pos_as_xyz
  1  'x, y, z'
loop_
 _atom_site_type_symbol
 _atom_site_label
 _atom_site_symmetry_multiplicity
 _atom_site_fract_x
 _atom_site_fract_y
 _atom_site_fract_z
 _atom_site_occupancy
  Ca  Ca0  1  0.25000000  0.25000000  0.25000000  1
  Ca  Ca1  1  0.75000000  0.75000000  0.75000000  1
  Be  Be0  1  0.00000000  -0.00000000  0.00000000  1
  Be  Be1  1  0.50000000  0.50000000  0.50000000  1
  Be  Be2  1  0.28857026  0.93592609  0.06409518  1
  Be  Be3  1  0.56408894  0.43591106  0.78857925  1
  Be  Be4  1  0.78858187  0.21141813  0.56407981  1
  Be  Be5  1  0.56407674  0.78858816  0.21142742  1
  Be  Be6  1  0.43592326  0.21141184  0.78857258  1
  Be  Be7  1  0.43592609  0.78857026  0.56409518  1
  Be  Be8  1  0.78857026  0.43592609  0.21140947  1
  Be  Be9  1  0.06407674  0.28858816  0.93590868  1
  Be  Be10  1  0.93591106  0.06408894  0.28857925  1
  Be  Be11  1  0.71141813  0.28858187  0.06407981  1
  Be  Be12  1  0.93592326  0.71141184  0.06409132  1
  Be  Be13  1  0.71141184  0.93592326  0.28857258  1
  Be  Be14  1  0.06408894  0.93591106  0.71142075  1
  Be  Be15  1  0.28858816  0.06407674  0.71142742  1
  Be  Be16  1  0.28858187  0.71141813  0.93592019  1
  Be  Be17  1  0.78858816  0.56407674  0.43590868  1
  Be  Be18  1  0.21141813  0.78858187  0.43592019  1
  Be  Be19  1  0.21142974  0.56407391  0.78859053  1
  Be  Be20  1  0.56407391  0.21142974  0.43590482  1
  Be  Be21  1  0.43591106  0.56408894  0.21142075  1
  Be  Be22  1  0.21141184  0.43592326  0.56409132  1
  Be  Be23  1  0.06407391  0.71142974  0.28859053  1
  Be  Be24  1  0.71142974  0.06407391  0.93590482  1
  Be  Be25  1  0.93592609  0.28857026  0.71140947  1
loop_
_geom_bond_atom_site_label_1
_geom_bond_atom_site_label_2
_geom_bond_distance
_geom_bond_site_symmetry_2
Be0 Be14 2.145715 1_544
Be0 Be10 2.145715 1_455
Be0 Be23 2.145732 1_545
Be0 Be25 2.145732 1_454
Be0 Be13 2.145733 1_445
Be0 Be15 2.145733 1_554
Be0 Be12 2.145735 1_445
Be0 Be9 2.145735 1_554
Be0 Be24 2.145737 1_454
Be0 Be2 2.145737 1_545
Be0 Be11 2.145753 1_455
Be0 Be16 2.145753 1_544
Be1 Be21 2.145715 1_555
Be1 Be3 2.145715 1_555
Be1 Be19 2.145732 1_555
Be1 Be8 2.145732 1_555
Be1 Be6 2.145733 1_555
Be1 Be5 2.145733 1_555
Be1 Be22 2.145736 1_555
Be1 Be17 2.145736 1_555
Be1 Be20 2.145736 1_555
Be1 Be7 2.145736 1_555
Be1 Be18 2.145753 1_555
Be1 Be4 2.145753 1_555
Be2 Be21 2.223297 1_555
Be2 Be9 2.244335 1_564
Be2 Be5 2.267791 1_555
Be2 Be6 2.267792 1_564
Be2 Be23 2.304519 1_555
Be2 Ca0 3.026022 1_565
Be2 Ca1 3.026230 1_554
Be3 Be7 2.244256 1_555
Be3 Be6 2.244336 1_555
Be3 Be4 2.304518 1_555
Be3 Ca1 3.026131 1_555
Be3 Ca0 3.026131 1_556
Be4 Be6 2.244287 1_555
Be4 Be8 2.244363 1_555
Be4 Ca1 3.026123 1_545
Be4 Ca0 3.026124 1_655
Be5 Be7 2.244287 1_555
Be5 Be8 2.244335 1_555
Be5 Ca0 3.026081 1_565
Be5 Ca1 3.026175 1_554
Be6 Be9 2.223347 1_555
Be6 Ca1 3.026081 1_545
Be6 Ca0 3.026175 1_556
Be7 Ca1 3.026022 1_555
Be7 Ca0 3.026230 1_565
Be8 Be9 2.267791 1_654
Be8 Ca1 3.026028 1_554
Be8 Ca0 3.026227 1_655
Be9 Ca1 3.026083 1_455
Be9 Ca0 3.026168 1_556
Be10 Be20 2.223298 1_555
Be10 Be8 2.223298 1_555
Be10 Be2 2.244256 1_645
Be10 Be23 2.244259 1_645
Be10 Be9 2.244332 1_654
Be10 Be13 2.244336 1_545
Be10 Be4 2.267740 1_555
Be10 Be18 2.267844 1_645
Be10 Be11 2.304518 1_555
Be10 Ca1 3.026131 1_545
Be10 Ca0 3.026131 1_655
Be11 Be20 2.223211 1_555
Be11 Be8 2.223217 1_555
Be11 Be13 2.244287 1_545
Be11 Be9 2.244288 1_654
Be11 Be25 2.244363 1_554
Be11 Be24 2.244369 1_554
Be11 Be3 2.267740 1_554
Be11 Be21 2.267844 1_555
Be11 Ca1 3.026123 1_554
Be11 Ca0 3.026124 1_555
Be12 Be17 2.223171 1_555
Be12 Be5 2.223347 1_555
Be12 Be23 2.244287 1_655
Be12 Be16 2.244288 1_654
Be12 Be14 2.244332 1_654
Be12 Be24 2.244335 1_564
Be12 Be8 2.267789 1_555
Be12 Be19 2.267791 1_654
Be12 Be13 2.304519 1_555
Be12 Ca0 3.026083 1_655
Be12 Ca1 3.026168 1_554
Be13 Be5 2.223160 1_555
Be13 Be17 2.223347 1_555
Be13 Be24 2.244287 1_564
Be13 Be23 2.244336 1_655
Be13 Be20 2.267791 1_565
Be13 Be7 2.267792 1_555
Be13 Ca0 3.026081 1_565
Be13 Ca1 3.026175 1_555
Be14 Be7 2.223298 1_555
Be14 Be19 2.223298 1_555
Be14 Be24 2.244256 1_465
Be14 Be25 2.244259 1_465
Be14 Be15 2.244336 1_565
Be14 Be18 2.267740 1_555
Be14 Be4 2.267844 1_465
Be14 Be16 2.304518 1_555
Be14 Ca0 3.026131 1_565
Be14 Ca1 3.026131 1_455
Be15 Be6 2.223160 1_555
Be15 Be22 2.223347 1_555
Be15 Be16 2.244287 1_545
Be15 Be2 2.244287 1_546
Be15 Be25 2.244336 1_455
Be15 Be7 2.267791 1_545
Be15 Be20 2.267792 1_555
Be15 Be9 2.304519 1_555
Be15 Ca1 3.026081 1_545
Be15 Ca0 3.026175 1_555
Be16 Be7 2.223211 1_555
Be16 Be19 2.223217 1_555
Be16 Be23 2.244363 1_556
Be16 Be2 2.244369 1_556
Be16 Be21 2.267740 1_556
Be16 Be3 2.267844 1_555
Be16 Ca0 3.026123 1_556
Be16 Ca1 3.026124 1_555
Be17 Be8 2.244287 1_555
Be17 Be4 2.244288 1_555
Be17 Be3 2.244332 1_555
Be17 Be7 2.244336 1_555
Be17 Be23 2.267789 1_655
Be17 Be25 2.267791 1_555
Be17 Be5 2.304519 1_555
Be17 Ca0 3.026083 1_655
Be17 Ca1 3.026168 1_555
Be18 Be2 2.223211 1_555
Be18 Be23 2.223217 1_555
Be18 Be5 2.244287 1_555
Be18 Be22 2.244288 1_555
Be18 Be19 2.244363 1_555
Be18 Be7 2.244369 1_555
Be18 Be21 2.304518 1_555
Be18 Ca0 3.026123 1_565
Be18 Ca1 3.026124 1_455
Be19 Be3 2.244259 1_555
Be19 Be22 2.244287 1_555
Be19 Be6 2.244335 1_555
Be19 Be9 2.267789 1_555
Be19 Be7 2.304519 1_555
Be19 Ca0 3.026028 1_556
Be19 Ca1 3.026227 1_455
Be20 Be21 2.244256 1_555
Be20 Be6 2.244287 1_555
Be20 Be22 2.244336 1_555
Be20 Be4 2.244369 1_555
Be20 Be8 2.304519 1_555
Be20 Ca0 3.026022 1_555
Be20 Ca1 3.026230 1_545
Be21 Be23 2.223298 1_555
Be21 Be8 2.244259 1_555
Be21 Be22 2.244332 1_555
Be21 Be5 2.244336 1_555
Be21 Ca0 3.026131 1_555
Be21 Ca1 3.026131 1_554
Be22 Be9 2.223171 1_555
Be22 Be25 2.267789 1_455
Be22 Be23 2.267791 1_555
Be22 Be6 2.304519 1_555
Be22 Ca1 3.026083 1_455
Be22 Ca0 3.026168 1_555
Be23 Ca1 3.026028 1_455
Be23 Ca0 3.026227 1_555
Be24 Be4 2.223211 1_555
Be24 Be3 2.223297 1_555
Be24 Be6 2.267791 1_555
Be24 Be5 2.267792 1_546
Be24 Be25 2.304519 1_555
Be24 Ca1 3.026022 1_545
Be24 Ca0 3.026230 1_556
Be25 Be4 2.223217 1_555
Be25 Be3 2.223298 1_555
Be25 Be9 2.244287 1_655
Be25 Ca0 3.026028 1_655
Be25 Ca1 3.026227 1_555
