# generated using pymatgen
data_HfCo
_symmetry_space_group_name_H-M   'P 1'
_cell_length_a   3.16600414
_cell_length_b   4.17999741
_cell_length_c   4.95828366
_cell_angle_alpha   90.00000000
_cell_angle_beta   108.61843393
_cell_angle_gamma   90.00000000
_symmetry_Int_Tables_number   1
_chemical_formula_structural   HfCo
_chemical_formula_sum   'Hf2 Co2'
_cell_volume   62.18333937
_cell_formula_units_Z   2
loop_
 _symmetry_equiv_pos_site_id
 _symmetry_equiv_pos_as_xyz
  1  'x, y, z'
loop_
 _atom_site_type_symbol
 _atom_site_label
 _atom_site_symmetry_multiplicity
 _atom_site_fract_x
 _atom_site_fract_y
 _atom_site_fract_z
 _atom_site_occupancy
  Hf  Hf0  1  0.85948194  0.75000000  0.71896488  1
  Hf  Hf1  1  0.14051806  0.25000000  0.28103512  1
  Co  Co0  1  0.58482804  0.75000000  0.16965607  1
  Co  Co1  1  0.41517196  0.25000000  0.83034393  1
loop_
_geom_bond_atom_site_label_1
_geom_bond_atom_site_label_2
_geom_bond_distance
_geom_bond_site_symmetry_2
Co0 Hf0 2.581090 1_555
Co0 Hf0 2.643968 1_554
Co0 Hf0 2.643970 1_454
Co0 Hf1 2.673552 1_555
Co0 Hf1 2.673552 1_565
Co0 Hf1 2.673553 1_655
Co0 Hf1 2.673553 1_665
Co1 Hf1 2.581090 1_555
Co1 Hf1 2.643968 1_556
Co1 Hf1 2.643970 1_656
Co1 Hf0 2.673552 1_545
Co1 Hf0 2.673552 1_555
Co1 Hf0 2.673553 1_445
Co1 Hf0 2.673553 1_455
