# generated using pymatgen
data_Ta4Mn2Zn3O16
_symmetry_space_group_name_H-M   'P 1'
_cell_length_a   5.92044854
_cell_length_b   10.09060328
_cell_length_c   10.41718855
_cell_angle_alpha   89.53424532
_cell_angle_beta   92.32535452
_cell_angle_gamma   104.69682976
_symmetry_Int_Tables_number   1
_chemical_formula_structural   Ta4Mn2Zn3O16
_chemical_formula_sum   'Ta8 Mn4 Zn6 O32'
_cell_volume   601.47339017
_cell_formula_units_Z   2
loop_
 _symmetry_equiv_pos_site_id
 _symmetry_equiv_pos_as_xyz
  1  'x, y, z'
loop_
 _atom_site_type_symbol
 _atom_site_label
 _atom_site_symmetry_multiplicity
 _atom_site_fract_x
 _atom_site_fract_y
 _atom_site_fract_z
 _atom_site_occupancy
  Ta  Ta0  1  0.27772100  0.22980000  0.37003300  1
  Ta  Ta1  1  0.27767000  0.22979500  0.87007300  1
  Ta  Ta2  1  0.04509200  0.76616100  0.38854000  1
  Ta  Ta3  1  0.04507900  0.76615500  0.88847800  1
  Ta  Ta4  1  0.73008600  0.76433700  0.12915100  1
  Ta  Ta5  1  0.73013600  0.76438400  0.62916600  1
  Ta  Ta6  1  0.95681700  0.23796200  0.11772300  1
  Ta  Ta7  1  0.95684300  0.23797300  0.61768800  1
  Mn  Mn0  1  0.65029400  0.99958500  0.87389000  1
  Mn  Mn1  1  0.35367300  0.99698900  0.12788200  1
  Mn  Mn2  1  0.65025400  0.99965100  0.37376500  1
  Mn  Mn3  1  0.35453100  0.99733400  0.62801000  1
  Zn  Zn0  1  0.44008800  0.57155900  0.38374100  1
  Zn  Zn1  1  0.44000500  0.57150900  0.88371100  1
  Zn  Zn2  1  0.88296700  0.44749800  0.35720700  1
  Zn  Zn3  1  0.88292700  0.44747200  0.85721000  1
  Zn  Zn4  1  0.54307900  0.43914300  0.11440400  1
  Zn  Zn5  1  0.54310500  0.43914500  0.61442700  1
  O  O0  1  0.21045500  0.13215100  0.03736600  1
  O  O1  1  0.21065100  0.13228000  0.53731000  1
  O  O2  1  0.03730700  0.86525000  0.22272200  1
  O  O3  1  0.03738300  0.86526100  0.72271700  1
  O  O4  1  0.80072300  0.87212600  0.46181800  1
  O  O5  1  0.80065600  0.87216500  0.96180800  1
  O  O6  1  0.97176000  0.13435600  0.28044400  1
  O  O7  1  0.97186100  0.13434700  0.78048500  1
  O  O8  1  0.44324200  0.10785200  0.29070400  1
  O  O9  1  0.44346800  0.10804300  0.79068600  1
  O  O10  1  0.31275900  0.88840500  0.47094000  1
  O  O11  1  0.31265500  0.88835700  0.97096300  1
  O  O12  1  0.56112700  0.89316500  0.21100000  1
  O  O13  1  0.56132800  0.89336000  0.71096000  1
  O  O14  1  0.70270400  0.11356400  0.02823700  1
  O  O15  1  0.70277400  0.11355000  0.52828600  1
  O  O16  1  0.27199000  0.34370400  0.21177100  1
  O  O17  1  0.27202500  0.34370600  0.71180800  1
  O  O18  1  0.92804200  0.66483400  0.04177300  1
  O  O19  1  0.92812400  0.66484900  0.54179400  1
  O  O20  1  0.80077500  0.36447200  0.18164800  1
  O  O21  1  0.80076800  0.36446600  0.68164900  1
  O  O22  1  0.47240400  0.61765200  0.07032600  1
  O  O23  1  0.47252200  0.61768400  0.57032900  1
  O  O24  1  0.15216600  0.61326100  0.33256400  1
  O  O25  1  0.15208300  0.61325100  0.83254600  1
  O  O26  1  0.54958800  0.38599400  0.42453200  1
  O  O27  1  0.54955700  0.38601000  0.92455300  1
  O  O28  1  0.07434800  0.34100700  0.45938900  1
  O  O29  1  0.07431900  0.34100700  0.95947700  1
  O  O30  1  0.72219300  0.65313000  0.29144100  1
  O  O31  1  0.72216200  0.65311700  0.79145200  1
loop_
_geom_bond_atom_site_label_1
_geom_bond_atom_site_label_2
_geom_bond_distance
_geom_bond_site_symmetry_2
Mn0 O5 1.944191 1_555
Mn0 O14 1.952631 1_566
Mn0 O13 1.994403 1_555
Mn0 O9 2.006695 1_565
Mn0 O7 2.288150 1_565
Mn0 O11 2.298988 1_555
Mn1 O11 1.947945 1_554
Mn1 O12 1.976779 1_555
Mn1 O0 1.992284 1_565
Mn1 O8 2.016534 1_565
Mn1 O2 2.262046 1_555
Mn1 O14 2.377417 1_565
Mn2 O4 1.946024 1_555
Mn2 O15 1.953658 1_565
Mn2 O12 1.994299 1_555
Mn2 O8 2.005095 1_565
Mn2 O6 2.287282 1_565
Mn2 O10 2.298886 1_555
Mn3 O10 1.950648 1_555
Mn3 O13 1.974231 1_555
Mn3 O1 1.993706 1_565
Mn3 O9 2.014168 1_565
Mn3 O3 2.265890 1_555
Mn3 O15 2.373271 1_565
O0 Ta1 1.998910 1_554
O0 Ta6 2.241813 1_455
O1 Ta0 1.998126 1_555
O1 Ta7 2.241940 1_455
O2 Ta2 1.993607 1_555
O2 Ta4 2.056171 1_455
O3 Ta3 1.993120 1_555
O3 Ta5 2.056093 1_455
O4 Ta5 2.047794 1_555
O4 Ta2 2.169560 1_655
O5 Ta4 2.048149 1_556
O5 Ta3 2.170327 1_655
O6 Ta6 1.995015 1_555
O6 Ta0 2.017922 1_655
O7 Ta7 1.995853 1_555
O7 Ta1 2.017246 1_655
O8 Ta0 1.962536 1_555
O9 Ta1 1.962418 1_555
O10 Ta2 1.919541 1_555
O11 Ta3 1.919380 1_555
O12 Ta4 2.040719 1_555
O13 Ta5 2.041011 1_555
O14 Ta6 1.911814 1_555
O15 Ta7 1.911371 1_555
O16 Zn4 1.965730 1_555
O16 Ta0 2.006154 1_555
O16 Ta6 2.106790 1_455
O17 Zn5 1.965772 1_555
O17 Ta1 2.006154 1_555
O17 Ta7 2.107128 1_455
O18 Ta3 1.944040 1_654
O18 Ta4 1.977042 1_555
O19 Ta2 1.943542 1_655
O19 Ta5 1.977366 1_555
O20 Ta6 1.894383 1_555
O20 Zn4 1.968272 1_555
O20 Zn2 2.007269 1_555
O21 Ta7 1.894518 1_555
O21 Zn5 1.968077 1_555
O21 Zn3 2.007195 1_555
O22 Ta4 1.920122 1_555
O22 Zn1 1.992957 1_554
O22 Zn4 1.995962 1_555
O23 Ta5 1.920010 1_555
O23 Zn0 1.992643 1_555
O23 Zn5 1.996062 1_555
O24 Zn0 1.911444 1_555
O24 Ta2 1.913942 1_555
O24 Zn2 2.019242 1_455
O25 Zn1 1.911593 1_555
O25 Ta3 1.913602 1_555
O25 Zn3 2.019228 1_455
O26 Ta0 2.012533 1_555
O26 Zn5 2.058188 1_555
O26 Zn2 2.063116 1_555
O26 Zn0 2.165089 1_555
O27 Ta1 2.012676 1_555
O27 Zn4 2.057693 1_556
O27 Zn3 2.063115 1_555
O27 Zn1 2.164715 1_555
O28 Ta7 1.995600 1_455
O28 Zn2 2.018138 1_455
O28 Ta0 2.090200 1_555
O29 Ta6 1.995181 1_456
O29 Zn3 2.018449 1_455
O29 Ta1 2.090376 1_555
O30 Zn0 1.952284 1_555
O30 Ta4 2.017053 1_555
O30 Ta2 2.175798 1_655
O31 Zn1 1.952372 1_555
O31 Ta5 2.017307 1_555
O31 Ta3 2.175567 1_655
