# generated using pymatgen
data_BaPr2FeS5
_symmetry_space_group_name_H-M   'P 1'
_cell_length_a   8.79457240
_cell_length_b   8.79457240
_cell_length_c   8.79457240
_cell_angle_alpha   126.28914881
_cell_angle_beta   126.28914881
_cell_angle_gamma   79.41342297
_symmetry_Int_Tables_number   1
_chemical_formula_structural   BaPr2FeS5
_chemical_formula_sum   'Ba2 Pr4 Fe2 S10'
_cell_volume   427.16185452
_cell_formula_units_Z   2
loop_
 _symmetry_equiv_pos_site_id
 _symmetry_equiv_pos_as_xyz
  1  'x, y, z'
loop_
 _atom_site_type_symbol
 _atom_site_label
 _atom_site_symmetry_multiplicity
 _atom_site_fract_x
 _atom_site_fract_y
 _atom_site_fract_z
 _atom_site_occupancy
  Ba  Ba0  1  0.75000000  0.75000000  0.00000000  1
  Ba  Ba1  1  0.25000000  0.25000000  0.00000000  1
  Pr  Pr0  1  0.83807700  0.66192300  0.50000000  1
  Pr  Pr1  1  0.66192300  0.16192300  0.82384600  1
  Pr  Pr2  1  0.33807700  0.83807700  0.17615400  1
  Pr  Pr3  1  0.16192300  0.33807700  0.50000000  1
  Fe  Fe0  1  0.25000000  0.75000000  0.50000000  1
  Fe  Fe1  1  0.75000000  0.25000000  0.50000000  1
  S  S0  1  0.98853600  0.48853600  0.20458000  1
  S  S1  1  0.71604400  0.21604400  0.20458000  1
  S  S2  1  0.01146400  0.51146400  0.79542000  1
  S  S3  1  0.51146400  0.71604400  0.50000000  1
  S  S4  1  0.21604400  0.01146400  0.50000000  1
  S  S5  1  0.48853600  0.28395600  0.50000000  1
  S  S6  1  0.78395600  0.98853600  0.50000000  1
  S  S7  1  0.28395600  0.78395600  0.79542000  1
  S  S8  1  0.00000000  0.00000000  0.00000000  1
  S  S9  1  0.50000000  0.50000000  0.00000000  1
loop_
_geom_bond_atom_site_label_1
_geom_bond_atom_site_label_2
_geom_bond_distance
_geom_bond_site_symmetry_2
Ba0 S8 3.382941 1_665
Ba0 S9 3.382941 1_555
Ba0 S2 3.403299 1_654
Ba0 S5 3.403299 1_554
Ba0 S0 3.403299 1_555
Ba0 S4 3.403299 1_665
Ba0 S6 3.403299 1_555
Ba0 S3 3.403299 1_554
Ba0 S7 3.403299 1_554
Ba0 S1 3.403299 1_565
Ba1 S9 3.382941 1_555
Ba1 S8 3.382941 1_555
Ba1 S4 3.403299 1_554
Ba1 S5 3.403299 1_555
Ba1 S7 3.403299 1_544
Ba1 S3 3.403299 1_555
Ba1 S1 3.403299 1_555
Ba1 S2 3.403299 1_554
Ba1 S0 3.403299 1_455
Ba1 S6 3.403299 1_444
Pr0 S6 2.824003 1_555
Pr0 S3 2.824003 1_555
Pr0 S8 2.978486 1_666
Pr0 S9 2.978486 1_555
Pr0 S7 3.076472 1_655
Pr0 S1 3.076472 1_555
Pr0 S0 3.076472 1_555
Pr0 S2 3.076472 1_655
Pr1 S0 2.824003 1_556
Pr1 S1 2.824003 1_556
Pr1 S9 2.978486 1_556
Pr1 S8 2.978486 1_656
Pr1 S6 3.076472 1_545
Pr1 S5 3.076472 1_555
Pr1 S4 3.076472 1_555
Pr1 S3 3.076472 1_545
Pr2 S2 2.824003 1_554
Pr2 S7 2.824003 1_554
Pr2 S9 2.978486 1_555
Pr2 S8 2.978486 1_565
Pr2 S5 3.076472 1_565
Pr2 S3 3.076472 1_555
Pr2 S4 3.076472 1_565
Pr2 S6 3.076472 1_555
Pr3 S5 2.824003 1_555
Pr3 S4 2.824003 1_555
Pr3 S8 2.978486 1_555
Pr3 S9 2.978486 1_556
Pr3 S7 3.076472 1_555
Pr3 S2 3.076472 1_555
Pr3 S0 3.076472 1_455
Pr3 S1 3.076472 1_455
Fe0 S4 2.263713 1_565
Fe0 S0 2.263713 1_455
Fe0 S3 2.263713 1_555
Fe0 S7 2.263713 1_555
Fe1 S2 2.263713 1_655
Fe1 S5 2.263713 1_555
Fe1 S6 2.263713 1_545
Fe1 S1 2.263713 1_555
