# generated using pymatgen
data_SrBi3I3O4
_symmetry_space_group_name_H-M   'P 1'
_cell_length_a   16.64435253
_cell_length_b   16.64435253
_cell_length_c   16.64435253
_cell_angle_alpha   165.97992105
_cell_angle_beta   165.97992105
_cell_angle_gamma   19.87749123
_symmetry_Int_Tables_number   1
_chemical_formula_structural   SrBi3I3O4
_chemical_formula_sum   'Sr1 Bi3 I3 O4'
_cell_volume   270.59599306
_cell_formula_units_Z   1
loop_
 _symmetry_equiv_pos_site_id
 _symmetry_equiv_pos_as_xyz
  1  'x, y, z'
loop_
 _atom_site_type_symbol
 _atom_site_label
 _atom_site_symmetry_multiplicity
 _atom_site_fract_x
 _atom_site_fract_y
 _atom_site_fract_z
 _atom_site_occupancy
  Sr  Sr0  1  0.64838700  0.64838700  0.00000000  1
  Bi  Bi0  1  0.92956800  0.92956800  0.00000000  1
  Bi  Bi1  1  0.07500300  0.07500300  0.00000000  1
  Bi  Bi2  1  0.35494300  0.35494300  0.00000000  1
  I  I0  1  0.48971300  0.48971300  0.00000000  1
  I  I1  1  0.80085600  0.80085600  0.00000000  1
  I  I2  1  0.20633000  0.20633000  0.00000000  1
  O  O0  1  0.89408800  0.39408800  0.50000000  1
  O  O1  1  0.39408800  0.89408800  0.50000000  1
  O  O2  1  0.10351200  0.60351200  0.50000000  1
  O  O3  1  0.60351200  0.10351200  0.50000000  1
loop_
_geom_bond_atom_site_label_1
_geom_bond_atom_site_label_2
_geom_bond_distance
_geom_bond_site_symmetry_2
Bi0 O1 2.340878 1_554
Bi0 O1 2.340878 1_655
Bi0 O0 2.340878 1_554
Bi0 O0 2.340878 1_565
Bi0 I0 3.484509 1_554
Bi0 I0 3.484509 1_565
Bi0 I0 3.484509 1_655
Bi0 I0 3.484509 1_666
Bi1 O2 2.236097 1_555
Bi1 O3 2.236097 1_555
Bi1 O3 2.236097 1_454
Bi1 O2 2.236097 1_544
Bi2 O0 2.402864 1_555
Bi2 O0 2.402864 1_454
Bi2 O1 2.402864 1_555
Bi2 O1 2.402864 1_544
Bi2 I1 3.376062 1_444
Bi2 I1 3.376062 1_455
Bi2 I1 3.376062 1_556
Bi2 I1 3.376062 1_545
I2 Sr0 3.444160 1_545
I2 Sr0 3.444160 1_556
I2 Sr0 3.444160 1_455
I2 Sr0 3.444160 1_444
O2 Sr0 2.508258 1_455
O2 Sr0 2.508258 1_556
O3 Sr0 2.508258 1_556
O3 Sr0 2.508258 1_545
