# generated using pymatgen
data_Mg14BiSb
_symmetry_space_group_name_H-M   'P 1'
_cell_length_a   6.38648578
_cell_length_b   6.63831871
_cell_length_c   10.45327640
_cell_angle_alpha   90.00000000
_cell_angle_beta   90.00000000
_cell_angle_gamma   121.31321420
_symmetry_Int_Tables_number   1
_chemical_formula_structural   Mg14BiSb
_chemical_formula_sum   'Mg14 Bi1 Sb1'
_cell_volume   378.61926670
_cell_formula_units_Z   1
loop_
 _symmetry_equiv_pos_site_id
 _symmetry_equiv_pos_as_xyz
  1  'x, y, z'
loop_
 _atom_site_type_symbol
 _atom_site_label
 _atom_site_symmetry_multiplicity
 _atom_site_fract_x
 _atom_site_fract_y
 _atom_site_fract_z
 _atom_site_occupancy
  Mg  Mg0  1  0.16973130  0.33486515  0.62500000  1
  Mg  Mg1  1  0.17017752  0.83508826  0.62500000  1
  Mg  Mg2  1  0.66748224  0.33477450  0.12500000  1
  Mg  Mg3  1  0.66901831  0.33397338  0.62500000  1
  Mg  Mg4  1  0.66748224  0.83270674  0.12500000  1
  Mg  Mg5  1  0.66901831  0.83504393  0.62500000  1
  Mg  Mg6  1  0.33612501  0.17048436  0.38125814  1
  Mg  Mg7  1  0.33612501  0.17048436  0.86874186  1
  Mg  Mg8  1  0.33612501  0.66564164  0.38125814  1
  Mg  Mg9  1  0.33612501  0.66564164  0.86874186  1
  Mg  Mg10  1  0.83033448  0.16516774  0.37734702  1
  Mg  Mg11  1  0.83033448  0.16516774  0.87265298  1
  Mg  Mg12  1  0.82828029  0.66414064  0.38003268  1
  Mg  Mg13  1  0.82828029  0.66414064  0.86996732  1
  Bi  Bi0  1  0.16487605  0.83243752  0.12500000  1
  Sb  Sb0  1  0.16048445  0.33024172  0.12500000  1
loop_
_geom_bond_atom_site_label_1
_geom_bond_atom_site_label_2
_geom_bond_distance
_geom_bond_site_symmetry_2
Mg0 Mg6 3.164986 1_555
Mg0 Mg7 3.164986 1_555
Mg0 Mg8 3.164993 1_555
Mg0 Mg9 3.164993 1_555
Mg0 Mg11 3.182933 1_455
Mg0 Mg10 3.182933 1_455
Mg0 Mg5 3.191770 1_555
Mg0 Mg3 3.191770 1_555
Mg0 Mg5 3.194723 1_445
Mg0 Mg3 3.194724 1_455
Mg0 Mg1 3.319160 1_555
Mg0 Mg1 3.319160 1_545
Mg1 Mg13 3.168156 1_455
Mg1 Mg12 3.168156 1_455
Mg1 Mg8 3.181105 1_555
Mg1 Mg9 3.181105 1_555
Mg1 Mg6 3.181111 1_565
Mg1 Mg7 3.181111 1_565
Mg1 Mg3 3.185992 1_565
Mg1 Mg5 3.185993 1_555
Mg1 Mg3 3.200493 1_455
Mg1 Mg5 3.200493 1_455
Mg2 Sb0 3.164294 1_655
Mg2 Sb0 3.222398 1_555
Mg2 Mg7 3.231785 1_554
Mg2 Mg6 3.231785 1_555
Mg3 Mg6 3.129102 1_555
Mg3 Mg7 3.129102 1_555
Mg3 Mg5 3.312053 1_545
Mg3 Mg5 3.326266 1_555
Mg4 Sb0 3.164294 1_665
Mg4 Sb0 3.222398 1_555
Mg4 Mg8 3.231785 1_555
Mg4 Mg9 3.231785 1_554
Mg5 Mg8 3.129102 1_555
Mg5 Mg9 3.129102 1_555
Mg6 Sb0 3.285594 1_555
Mg6 Mg8 3.287012 1_555
Mg6 Mg8 3.351307 1_545
Mg7 Sb0 3.285594 1_556
Mg7 Mg9 3.287012 1_555
Mg7 Mg9 3.351307 1_545
Mg8 Sb0 3.285600 1_555
Mg9 Sb0 3.285600 1_556
Mg10 Mg8 3.175011 1_545
Mg10 Mg6 3.175011 1_555
Mg10 Sb0 3.194247 1_655
Mg10 Mg3 3.196705 1_555
Mg10 Mg5 3.196712 1_545
Mg10 Mg8 3.212283 1_655
Mg10 Mg6 3.212283 1_655
Mg10 Mg12 3.319297 1_555
Mg10 Mg12 3.319297 1_545
Mg11 Mg9 3.175011 1_545
Mg11 Mg7 3.175011 1_555
Mg11 Sb0 3.194247 1_656
Mg11 Mg3 3.196705 1_555
Mg11 Mg5 3.196712 1_545
Mg11 Mg9 3.212283 1_655
Mg11 Mg7 3.212283 1_655
Mg11 Mg13 3.319297 1_555
Mg11 Mg13 3.319297 1_545
Mg12 Mg6 3.148359 1_555
Mg12 Mg8 3.148359 1_555
Mg12 Mg5 3.174640 1_555
Mg12 Mg3 3.174647 1_555
Mg12 Mg6 3.238201 1_665
Mg12 Mg8 3.238201 1_655
Mg12 Mg4 3.257048 1_555
Mg12 Mg2 3.257054 1_555
Mg13 Mg7 3.148359 1_555
Mg13 Mg9 3.148359 1_555
Mg13 Mg5 3.174640 1_555
Mg13 Mg3 3.174647 1_555
Mg13 Mg7 3.238201 1_665
Mg13 Mg9 3.238201 1_655
Mg13 Mg4 3.257048 1_556
Mg13 Mg2 3.257054 1_556
Bi0 Mg2 3.177527 1_455
Bi0 Mg4 3.177528 1_455
Bi0 Mg2 3.208959 1_565
Bi0 Mg4 3.208959 1_555
Bi0 Mg13 3.237291 1_454
Bi0 Mg12 3.237291 1_455
Bi0 Mg8 3.294917 1_555
Bi0 Mg9 3.294917 1_554
Bi0 Mg7 3.294924 1_564
Bi0 Mg6 3.294924 1_565
Bi0 Sb0 3.319246 1_555
Bi0 Sb0 3.319246 1_565
