# generated using pymatgen
data_Ti2Nb2Sb3O14
_symmetry_space_group_name_H-M   'P 1'
_cell_length_a   20.21957054
_cell_length_b   20.21957054
_cell_length_c   5.63183726
_cell_angle_alpha   87.68082687
_cell_angle_beta   87.68082687
_cell_angle_gamma   14.16853907
_symmetry_Int_Tables_number   1
_chemical_formula_structural   Ti2Nb2Sb3O14
_chemical_formula_sum   'Ti4 Nb4 Sb6 O28'
_cell_volume   563.11836242
_cell_formula_units_Z   2
loop_
 _symmetry_equiv_pos_site_id
 _symmetry_equiv_pos_as_xyz
  1  'x, y, z'
loop_
 _atom_site_type_symbol
 _atom_site_label
 _atom_site_symmetry_multiplicity
 _atom_site_fract_x
 _atom_site_fract_y
 _atom_site_fract_z
 _atom_site_occupancy
  Ti  Ti0  1  0.44053500  0.00107800  0.31966500  1
  Ti  Ti1  1  0.55946500  0.99892200  0.68033500  1
  Ti  Ti2  1  0.99892200  0.55946500  0.18033500  1
  Ti  Ti3  1  0.00107800  0.44053500  0.81966500  1
  Nb  Nb0  1  0.32136700  0.82689000  0.13893300  1
  Nb  Nb1  1  0.67863300  0.17311000  0.86106700  1
  Nb  Nb2  1  0.17311000  0.67863300  0.36106700  1
  Nb  Nb3  1  0.82689000  0.32136700  0.63893300  1
  Sb  Sb0  1  0.53877600  0.16057200  0.25462700  1
  Sb  Sb1  1  0.46122400  0.83942800  0.74537300  1
  Sb  Sb2  1  0.83942800  0.46122400  0.24537300  1
  Sb  Sb3  1  0.16057200  0.53877600  0.75462700  1
  Sb  Sb4  1  0.80077800  0.19922200  0.25000000  1
  Sb  Sb5  1  0.19922200  0.80077800  0.75000000  1
  O  O0  1  0.10879800  0.94763500  0.07132400  1
  O  O1  1  0.89120200  0.05236500  0.92867600  1
  O  O2  1  0.05236500  0.89120200  0.42867600  1
  O  O3  1  0.94763500  0.10879800  0.57132400  1
  O  O4  1  0.58420800  0.76745000  0.41894000  1
  O  O5  1  0.41579200  0.23255000  0.58106000  1
  O  O6  1  0.23255000  0.41579200  0.08106000  1
  O  O7  1  0.76745000  0.58420800  0.91894000  1
  O  O8  1  0.23672400  0.17004500  0.08016300  1
  O  O9  1  0.76327600  0.82995500  0.91983700  1
  O  O10  1  0.82995500  0.76327600  0.41983700  1
  O  O11  1  0.17004500  0.23672400  0.58016300  1
  O  O12  1  0.30924900  0.21576700  0.34479000  1
  O  O13  1  0.69075100  0.78423300  0.65521000  1
  O  O14  1  0.78423300  0.69075100  0.15521000  1
  O  O15  1  0.21576700  0.30924900  0.84479000  1
  O  O16  1  0.42588000  0.45904600  0.12863300  1
  O  O17  1  0.57412000  0.54095400  0.87136700  1
  O  O18  1  0.54095400  0.57412000  0.37136700  1
  O  O19  1  0.45904600  0.42588000  0.62863300  1
  O  O20  1  0.87538400  0.94367700  0.17630800  1
  O  O21  1  0.12461600  0.05632300  0.82369200  1
  O  O22  1  0.05632300  0.12461600  0.32369200  1
  O  O23  1  0.94367700  0.87538400  0.67630800  1
  O  O24  1  0.54192100  0.69817700  0.08078100  1
  O  O25  1  0.45807900  0.30182300  0.91921900  1
  O  O26  1  0.30182300  0.45807900  0.41921900  1
  O  O27  1  0.69817700  0.54192100  0.58078100  1
loop_
_geom_bond_atom_site_label_1
_geom_bond_atom_site_label_2
_geom_bond_distance
_geom_bond_site_symmetry_2
Nb0 O18 1.863664 1_555
Nb0 O22 1.880905 1_565
Nb0 O24 2.052448 1_555
Nb0 O0 2.070683 1_555
Nb0 O17 2.144839 1_554
Nb0 O21 2.148613 1_564
Nb1 O19 1.863664 1_555
Nb1 O23 1.880905 1_545
Nb1 O25 2.052448 1_555
Nb1 O1 2.070683 1_555
Nb1 O16 2.144839 1_556
Nb1 O20 2.148613 1_546
Nb2 O16 1.863664 1_555
Nb2 O20 1.880905 1_455
Nb2 O26 2.052448 1_555
Nb2 O2 2.070683 1_555
Nb2 O19 2.144839 1_555
Nb2 O23 2.148613 1_455
Nb3 O17 1.863664 1_555
Nb3 O21 1.880905 1_655
Nb3 O27 2.052448 1_555
Nb3 O3 2.070683 1_555
Nb3 O18 2.144839 1_555
Nb3 O22 2.148613 1_655
O0 Sb4 2.036956 1_465
O0 Sb5 2.252605 1_554
O1 Sb5 2.036956 1_645
O1 Sb4 2.252605 1_556
O2 Sb4 2.036956 1_465
O2 Sb5 2.252605 1_555
O3 Sb5 2.036956 1_645
O3 Sb4 2.252605 1_555
O4 Sb2 2.011143 1_555
O4 Ti0 2.091271 1_565
O4 Sb1 2.123708 1_555
O5 Sb3 2.011143 1_555
O5 Ti1 2.091271 1_545
O5 Sb0 2.123708 1_555
O6 Sb0 2.011143 1_555
O6 Ti2 2.091271 1_455
O6 Sb3 2.123708 1_554
O7 Sb1 2.011143 1_555
O7 Ti3 2.091271 1_655
O7 Sb2 2.123708 1_556
O8 Ti0 1.802555 1_555
O8 Ti3 2.037270 1_554
O9 Ti1 1.802555 1_555
O9 Ti2 2.037270 1_556
O10 Ti2 1.802555 1_555
O10 Ti1 2.037270 1_555
O11 Ti3 1.802555 1_555
O11 Ti0 2.037270 1_555
O12 Ti0 1.893214 1_555
O12 Ti2 1.978758 1_455
O12 Ti1 2.340760 1_545
O13 Ti1 1.893214 1_555
O13 Ti3 1.978758 1_655
O13 Ti0 2.340760 1_565
O14 Ti2 1.893214 1_555
O14 Ti0 1.978758 1_565
O14 Ti3 2.340760 1_654
O15 Ti3 1.893214 1_555
O15 Ti1 1.978758 1_545
O15 Ti2 2.340760 1_456
O24 Sb2 2.050280 1_555
O24 Sb1 2.272360 1_554
O25 Sb3 2.050280 1_555
O25 Sb0 2.272360 1_556
O26 Sb0 2.050280 1_555
O26 Sb3 2.272360 1_555
O27 Sb1 2.050280 1_555
O27 Sb2 2.272360 1_555
