# generated using pymatgen
data_LiFePCO7
_symmetry_space_group_name_H-M   'P 1'
_cell_length_a   9.50944106
_cell_length_b   8.23964674
_cell_length_c   8.25335480
_cell_angle_alpha   77.58728815
_cell_angle_beta   72.97138131
_cell_angle_gamma   107.29612273
_symmetry_Int_Tables_number   1
_chemical_formula_structural   LiFePCO7
_chemical_formula_sum   'Li4 Fe4 P4 C4 O28'
_cell_volume   557.13160257
_cell_formula_units_Z   4
loop_
 _symmetry_equiv_pos_site_id
 _symmetry_equiv_pos_as_xyz
  1  'x, y, z'
loop_
 _atom_site_type_symbol
 _atom_site_label
 _atom_site_symmetry_multiplicity
 _atom_site_fract_x
 _atom_site_fract_y
 _atom_site_fract_z
 _atom_site_occupancy
  Li  Li0  1  0.89156300  0.18420900  0.06446700  1
  Li  Li1  1  0.71484900  0.46457200  0.98595300  1
  Li  Li2  1  0.11245300  0.82151900  0.93296700  1
  Li  Li3  1  0.11102100  0.31946100  0.43340900  1
  Fe  Fe0  1  0.66193900  0.81054400  0.94294400  1
  Fe  Fe1  1  0.66608200  0.30657100  0.44790800  1
  Fe  Fe2  1  0.33062300  0.19042800  0.05970700  1
  Fe  Fe3  1  0.34014000  0.69516400  0.55608000  1
  P  P0  1  0.57574000  0.54678400  0.70349400  1
  P  P1  1  0.57829500  0.05470000  0.20031700  1
  P  P2  1  0.42421600  0.44616000  0.30006300  1
  P  P3  1  0.42155400  0.94865600  0.80127100  1
  C  C0  1  0.95623000  0.50249900  0.24754500  1
  C  C1  1  0.95606400  0.99522900  0.74774100  1
  C  C2  1  0.03810200  0.99896600  0.25016000  1
  C  C3  1  0.04509000  0.50262800  0.75652700  1
  O  O0  1  0.92779400  0.86167300  0.88519900  1
  O  O1  1  0.92872800  0.36945100  0.38432900  1
  O  O2  1  0.89722500  0.89558100  0.35426300  1
  O  O3  1  0.82895700  0.51717800  0.22468600  1
  O  O4  1  0.90579700  0.41057700  0.87255700  1
  O  O5  1  0.82992800  0.01460000  0.72766200  1
  O  O6  1  0.68759700  0.98210900  0.08102300  1
  O  O7  1  0.69454800  0.16892700  0.26995100  1
  O  O8  1  0.68007000  0.64439100  0.79485200  1
  O  O9  1  0.68085800  0.47052900  0.58818900  1
  O  O10  1  0.57914600  0.58823200  0.14351400  1
  O  O11  1  0.53175800  0.18775300  0.08081300  1
  O  O12  1  0.52843100  0.67687400  0.58545700  1
  O  O13  1  0.57389600  0.09628100  0.65217400  1
  O  O14  1  0.42764800  0.90588400  0.34779500  1
  O  O15  1  0.47763900  0.32435600  0.41763400  1
  O  O16  1  0.47438500  0.82797500  0.92212300  1
  O  O17  1  0.42058900  0.39620300  0.84924900  1
  O  O18  1  0.32096400  0.52695400  0.41185900  1
  O  O19  1  0.30827700  0.33106400  0.23120400  1
  O  O20  1  0.30966900  0.83235800  0.73036400  1
  O  O21  1  0.31209600  0.02059300  0.91939100  1
  O  O22  1  0.15733200  0.97158600  0.27760000  1
  O  O23  1  0.09058700  0.61465500  0.13591500  1
  O  O24  1  0.16773000  0.47048200  0.77163900  1
  O  O25  1  0.09072000  0.10802300  0.63772400  1
  O  O26  1  0.08729500  0.63640500  0.61347600  1
  O  O27  1  0.07218500  0.13588800  0.11214700  1
loop_
_geom_bond_atom_site_label_1
_geom_bond_atom_site_label_2
_geom_bond_distance
_geom_bond_site_symmetry_2
Li0 O27 1.999686 1_655
Li0 O7 2.075816 1_555
Li0 O6 2.092874 1_545
Li0 O4 2.111932 1_554
Li1 O4 2.008738 1_555
Li1 O8 2.093932 1_555
Li1 O10 2.182459 1_556
Li1 O11 2.217963 1_556
Li1 O3 2.566580 1_556
Li2 O0 2.010799 1_455
Li2 O23 2.027812 1_556
Li2 O21 2.062063 1_565
Li2 O20 2.078634 1_555
Li3 O1 2.025564 1_455
Li3 O25 2.064550 1_555
Li3 O19 2.074642 1_555
Li3 O18 2.138244 1_555
Fe0 O16 1.884773 1_555
Fe0 O10 1.947060 1_556
Fe0 O5 1.998009 1_565
Fe0 O6 2.001739 1_556
Fe0 O8 2.033275 1_555
Fe0 O0 2.317488 1_555
Fe1 O13 1.894296 1_555
Fe1 O15 1.922961 1_555
Fe1 O9 1.959626 1_555
Fe1 O3 2.039748 1_555
Fe1 O7 2.045129 1_555
Fe1 O1 2.264491 1_555
Fe2 O17 1.903892 1_554
Fe2 O11 1.976801 1_555
Fe2 O21 2.000012 1_554
Fe2 O19 2.016621 1_555
Fe2 O22 2.074708 1_545
Fe2 O27 2.250724 1_555
Fe3 O14 1.918877 1_555
Fe3 O12 1.920040 1_555
Fe3 O18 2.014233 1_555
Fe3 O20 2.020050 1_555
Fe3 O24 2.085985 1_555
Fe3 O26 2.186803 1_555
C0 O23 1.256067 1_655
C0 O1 1.291983 1_555
C0 O3 1.313776 1_555
C1 O25 1.255583 1_665
C1 O0 1.295793 1_555
C1 O5 1.307895 1_565
C2 O2 1.261420 1_455
C2 O22 1.291603 1_555
C2 O27 1.299699 1_565
C3 O4 1.262657 1_455
C3 O26 1.292269 1_555
C3 O24 1.304031 1_555
O6 P1 1.559151 1_565
O7 P1 1.556996 1_555
O8 P0 1.556931 1_555
O9 P0 1.540455 1_555
O10 P2 1.555533 1_555
O11 P1 1.565191 1_555
O12 P0 1.547559 1_555
O13 P3 1.535289 1_545
O14 P1 1.526405 1_565
O15 P2 1.542778 1_555
O16 P3 1.549259 1_555
O17 P0 1.547148 1_555
O18 P2 1.542958 1_555
O19 P2 1.553983 1_555
O20 P3 1.546701 1_555
O21 P3 1.551170 1_545
