# generated using pymatgen
data_Zn(AgO2)2
_symmetry_space_group_name_H-M   'P 1'
_cell_length_a   6.22801845
_cell_length_b   6.22801845
_cell_length_c   6.22801845
_cell_angle_alpha   117.51313705
_cell_angle_beta   114.23820273
_cell_angle_gamma   97.32612748
_symmetry_Int_Tables_number   1
_chemical_formula_structural   Zn(AgO2)2
_chemical_formula_sum   'Zn2 Ag4 O8'
_cell_volume   179.71492351
_cell_formula_units_Z   2
loop_
 _symmetry_equiv_pos_site_id
 _symmetry_equiv_pos_as_xyz
  1  'x, y, z'
loop_
 _atom_site_type_symbol
 _atom_site_label
 _atom_site_symmetry_multiplicity
 _atom_site_fract_x
 _atom_site_fract_y
 _atom_site_fract_z
 _atom_site_occupancy
  Zn  Zn0  1  0.00000000  0.50000000  0.00000000  1
  Zn  Zn1  1  0.00000000  0.00000000  0.50000000  1
  Ag  Ag0  1  0.59889600  0.84889600  0.75000000  1
  Ag  Ag1  1  0.40110400  0.15110400  0.25000000  1
  Ag  Ag2  1  0.00000000  0.50000000  0.50000000  1
  Ag  Ag3  1  0.50000000  0.50000000  0.00000000  1
  O  O0  1  0.79953100  0.24995700  0.54957400  1
  O  O1  1  0.26013600  0.71967900  0.95954300  1
  O  O2  1  0.20038300  0.24995700  0.95042600  1
  O  O3  1  0.26013600  0.30059300  0.54045700  1
  O  O4  1  0.73986400  0.69940700  0.45954300  1
  O  O5  1  0.73986400  0.28032100  0.04045700  1
  O  O6  1  0.79961700  0.75004300  0.04957400  1
  O  O7  1  0.20046900  0.75004300  0.45042600  1
loop_
_geom_bond_atom_site_label_1
_geom_bond_atom_site_label_2
_geom_bond_distance
_geom_bond_site_symmetry_2
Ag0 O6 2.182962 1_556
Ag0 O7 2.182962 1_555
Ag0 O4 2.205994 1_555
Ag0 O5 2.205994 1_566
Ag1 O2 2.182962 1_554
Ag1 O0 2.182962 1_555
Ag1 O3 2.205994 1_555
Ag1 O1 2.205994 1_544
Ag2 O7 2.084249 1_555
Ag2 O0 2.084249 1_455
Ag2 O1 2.167426 1_555
Ag2 O3 2.167426 1_555
Ag2 O5 2.167426 1_455
Ag2 O4 2.167426 1_455
Ag3 O6 2.084249 1_555
Ag3 O2 2.084249 1_554
Ag3 O5 2.167426 1_555
Ag3 O4 2.167426 1_555
Ag3 O1 2.167426 1_554
Ag3 O3 2.167426 1_554
O0 Zn1 2.108482 1_655
O0 Zn0 2.108482 1_656
O1 Zn0 2.156050 1_556
O2 Zn1 2.108482 1_555
O2 Zn0 2.108482 1_556
O3 Zn1 2.156050 1_555
O4 Zn1 2.156050 1_665
O5 Zn0 2.156050 1_655
O6 Zn1 2.108482 1_665
O6 Zn0 2.108482 1_655
O7 Zn1 2.108482 1_565
O7 Zn0 2.108482 1_555
