# generated using pymatgen
data_MgSb
_symmetry_space_group_name_H-M   'P 1'
_cell_length_a   17.52752343
_cell_length_b   17.52752343
_cell_length_c   10.90753200
_cell_angle_alpha   90.00000000
_cell_angle_beta   90.00000000
_cell_angle_gamma   158.64657234
_symmetry_Int_Tables_number   1
_chemical_formula_structural   MgSb
_chemical_formula_sum   'Mg24 Sb24'
_cell_volume   1220.14650514
_cell_formula_units_Z   24
loop_
 _symmetry_equiv_pos_site_id
 _symmetry_equiv_pos_as_xyz
  1  'x, y, z'
loop_
 _atom_site_type_symbol
 _atom_site_label
 _atom_site_symmetry_multiplicity
 _atom_site_fract_x
 _atom_site_fract_y
 _atom_site_fract_z
 _atom_site_occupancy
  Mg  Mg0_0  1  0.49958100  0.00041900  0.00000000  1
  Mg  Mg0_1  1  0.49958100  0.00041900  0.50000000  1
  Mg  Mg0_2  1  0.49958100  0.50041900  0.00000000  1
  Mg  Mg0_3  1  0.49958100  0.50041900  0.50000000  1
  Mg  Mg0_4  1  0.99958100  0.00041900  0.00000000  1
  Mg  Mg0_5  1  0.99958100  0.00041900  0.50000000  1
  Mg  Mg0_6  1  0.99958100  0.50041900  0.00000000  1
  Mg  Mg0_7  1  0.99958100  0.50041900  0.50000000  1
  Mg  Mg1_0  1  0.33364150  0.16635850  0.00000000  1
  Mg  Mg1_1  1  0.33364150  0.16635850  0.50000000  1
  Mg  Mg1_2  1  0.33364150  0.66635850  0.00000000  1
  Mg  Mg1_3  1  0.33364150  0.66635850  0.50000000  1
  Mg  Mg1_4  1  0.83364150  0.16635850  0.00000000  1
  Mg  Mg1_5  1  0.83364150  0.16635850  0.50000000  1
  Mg  Mg1_6  1  0.83364150  0.66635850  0.00000000  1
  Mg  Mg1_7  1  0.83364150  0.66635850  0.50000000  1
  Mg  Mg2_0  1  0.05453650  0.44546350  0.25000000  1
  Mg  Mg2_1  1  0.05453650  0.44546350  0.75000000  1
  Mg  Mg2_2  1  0.05453650  0.94546350  0.25000000  1
  Mg  Mg2_3  1  0.05453650  0.94546350  0.75000000  1
  Mg  Mg2_4  1  0.55453650  0.44546350  0.25000000  1
  Mg  Mg2_5  1  0.55453650  0.44546350  0.75000000  1
  Mg  Mg2_6  1  0.55453650  0.94546350  0.25000000  1
  Mg  Mg2_7  1  0.55453650  0.94546350  0.75000000  1
  Sb  Sb0_0  1  0.17024050  0.32975950  0.00000000  1
  Sb  Sb0_1  1  0.17024050  0.32975950  0.50000000  1
  Sb  Sb0_2  1  0.17024050  0.82975950  0.00000000  1
  Sb  Sb0_3  1  0.17024050  0.82975950  0.50000000  1
  Sb  Sb0_4  1  0.67024050  0.32975950  0.00000000  1
  Sb  Sb0_5  1  0.67024050  0.32975950  0.50000000  1
  Sb  Sb0_6  1  0.67024050  0.82975950  0.00000000  1
  Sb  Sb0_7  1  0.67024050  0.82975950  0.50000000  1
  Sb  Sb1_0  1  0.23171150  0.26828850  0.25000000  1
  Sb  Sb1_1  1  0.23171150  0.26828850  0.75000000  1
  Sb  Sb1_2  1  0.23171150  0.76828850  0.25000000  1
  Sb  Sb1_3  1  0.23171150  0.76828850  0.75000000  1
  Sb  Sb1_4  1  0.73171150  0.26828850  0.25000000  1
  Sb  Sb1_5  1  0.73171150  0.26828850  0.75000000  1
  Sb  Sb1_6  1  0.73171150  0.76828850  0.25000000  1
  Sb  Sb1_7  1  0.73171150  0.76828850  0.75000000  1
  Sb  Sb2_0  1  0.37695600  0.12304400  0.25000000  1
  Sb  Sb2_1  1  0.37695600  0.12304400  0.75000000  1
  Sb  Sb2_2  1  0.37695600  0.62304400  0.25000000  1
  Sb  Sb2_3  1  0.37695600  0.62304400  0.75000000  1
  Sb  Sb2_4  1  0.87695600  0.12304400  0.25000000  1
  Sb  Sb2_5  1  0.87695600  0.12304400  0.75000000  1
  Sb  Sb2_6  1  0.87695600  0.62304400  0.25000000  1
  Sb  Sb2_7  1  0.87695600  0.62304400  0.75000000  1
loop_
_geom_bond_atom_site_label_1
_geom_bond_atom_site_label_2
_geom_bond_distance
_geom_bond_site_symmetry_2
Mg0_0 Sb0_2 3.179030 1_545
Mg0_0 Sb0_4 3.179030 1_555
Mg0_0 Sb1_2 3.232804 1_545
Mg0_0 Sb1_4 3.232804 1_555
Mg0_0 Sb1_3 3.232804 1_544
Mg0_0 Sb1_5 3.232804 1_554
Mg0_0 Mg1_4 3.319858 1_555
Mg0_0 Mg1_2 3.319858 1_545
Mg0_1 Sb0_5 3.179030 1_555
Mg0_1 Sb0_3 3.179030 1_545
Mg0_1 Sb1_3 3.232804 1_545
Mg0_1 Sb1_2 3.232804 1_545
Mg0_1 Sb1_4 3.232804 1_555
Mg0_1 Sb1_5 3.232804 1_555
Mg0_1 Mg1_5 3.319858 1_555
Mg0_1 Mg1_3 3.319858 1_545
Mg0_2 Sb0_6 3.179030 1_555
Mg0_2 Sb0_0 3.179030 1_555
Mg0_2 Sb1_0 3.232804 1_555
Mg0_2 Sb1_6 3.232804 1_555
Mg0_2 Sb1_1 3.232804 1_554
Mg0_2 Sb1_7 3.232804 1_554
Mg0_2 Mg1_0 3.319858 1_555
Mg0_2 Mg1_6 3.319858 1_555
Mg0_3 Sb0_7 3.179030 1_555
Mg0_3 Sb0_1 3.179030 1_555
Mg0_3 Sb1_0 3.232804 1_555
Mg0_3 Sb1_1 3.232804 1_555
Mg0_3 Sb1_6 3.232804 1_555
Mg0_3 Sb1_7 3.232804 1_555
Mg0_3 Mg1_1 3.319858 1_555
Mg0_3 Mg1_7 3.319858 1_555
Mg0_4 Sb0_6 3.179030 1_545
Mg0_4 Sb0_0 3.179030 1_655
Mg0_4 Sb1_6 3.232804 1_545
Mg0_4 Sb1_0 3.232804 1_655
Mg0_4 Sb1_7 3.232804 1_544
Mg0_4 Sb1_1 3.232804 1_654
Mg0_4 Mg1_0 3.319858 1_655
Mg0_4 Mg1_6 3.319858 1_545
Mg0_5 Sb0_7 3.179030 1_545
Mg0_5 Sb0_1 3.179030 1_655
Mg0_5 Sb1_6 3.232804 1_545
Mg0_5 Sb1_7 3.232804 1_545
Mg0_5 Sb1_0 3.232804 1_655
Mg0_5 Sb1_1 3.232804 1_655
Mg0_5 Mg1_1 3.319858 1_655
Mg0_5 Mg1_7 3.319858 1_545
Mg0_6 Sb0_4 3.179030 1_555
Mg0_6 Sb0_2 3.179030 1_655
Mg0_6 Sb1_4 3.232804 1_555
Mg0_6 Sb1_2 3.232804 1_655
Mg0_6 Sb1_5 3.232804 1_554
Mg0_6 Sb1_3 3.232804 1_654
Mg0_6 Mg1_4 3.319858 1_555
Mg0_6 Mg1_2 3.319858 1_655
Mg0_7 Sb0_3 3.179030 1_655
Mg0_7 Sb0_5 3.179030 1_555
Mg0_7 Sb1_4 3.232804 1_555
Mg0_7 Sb1_5 3.232804 1_555
Mg0_7 Sb1_2 3.232804 1_655
Mg0_7 Sb1_3 3.232804 1_655
Mg0_7 Mg1_5 3.319858 1_555
Mg0_7 Mg1_3 3.319858 1_655
Mg1_0 Sb2_0 3.108419 1_555
Mg1_0 Sb2_1 3.108419 1_554
Mg1_0 Mg1_6 3.247276 1_445
Mg1_0 Mg1_6 3.247276 1_555
Mg1_0 Mg2_4 3.328262 1_555
Mg1_0 Mg2_2 3.328262 1_545
Mg1_0 Mg2_5 3.328262 1_554
Mg1_0 Mg2_3 3.328262 1_544
Mg1_0 Sb0_2 3.396403 1_545
Mg1_0 Sb0_4 3.396403 1_555
Mg1_1 Sb2_0 3.108419 1_555
Mg1_1 Sb2_1 3.108419 1_555
Mg1_1 Mg1_7 3.247276 1_445
Mg1_1 Mg1_7 3.247276 1_555
Mg1_1 Mg2_4 3.328262 1_555
Mg1_1 Mg2_5 3.328262 1_555
Mg1_1 Mg2_2 3.328262 1_545
Mg1_1 Mg2_3 3.328262 1_545
Mg1_1 Sb0_3 3.396403 1_545
Mg1_1 Sb0_5 3.396403 1_555
Mg1_2 Sb2_2 3.108419 1_555
Mg1_2 Sb2_3 3.108419 1_554
Mg1_2 Mg1_4 3.247276 1_565
Mg1_2 Mg1_4 3.247276 1_455
Mg1_2 Mg2_0 3.328262 1_555
Mg1_2 Mg2_6 3.328262 1_555
Mg1_2 Mg2_1 3.328262 1_554
Mg1_2 Mg2_7 3.328262 1_554
Mg1_2 Sb0_0 3.396403 1_555
Mg1_2 Sb0_6 3.396403 1_555
Mg1_3 Sb2_2 3.108419 1_555
Mg1_3 Sb2_3 3.108419 1_555
Mg1_3 Mg1_5 3.247276 1_565
Mg1_3 Mg1_5 3.247276 1_455
Mg1_3 Mg2_0 3.328262 1_555
Mg1_3 Mg2_1 3.328262 1_555
Mg1_3 Mg2_7 3.328262 1_555
Mg1_3 Mg2_6 3.328262 1_555
Mg1_3 Sb0_1 3.396403 1_555
Mg1_3 Sb0_7 3.396403 1_555
Mg1_4 Sb2_4 3.108419 1_555
Mg1_4 Sb2_5 3.108419 1_554
Mg1_4 Mg2_0 3.328262 1_655
Mg1_4 Mg2_6 3.328262 1_545
Mg1_4 Mg2_7 3.328262 1_544
Mg1_4 Mg2_1 3.328262 1_654
Mg1_4 Sb0_6 3.396403 1_545
Mg1_4 Sb0_0 3.396403 1_655
Mg1_5 Sb2_4 3.108419 1_555
Mg1_5 Sb2_5 3.108419 1_555
Mg1_5 Mg2_0 3.328262 1_655
Mg1_5 Mg2_6 3.328262 1_545
Mg1_5 Mg2_7 3.328262 1_545
Mg1_5 Mg2_1 3.328262 1_655
Mg1_5 Sb0_1 3.396403 1_655
Mg1_5 Sb0_7 3.396403 1_545
Mg1_6 Sb2_6 3.108419 1_555
Mg1_6 Sb2_7 3.108419 1_554
Mg1_6 Mg2_2 3.328262 1_655
Mg1_6 Mg2_4 3.328262 1_555
Mg1_6 Mg2_3 3.328262 1_654
Mg1_6 Mg2_5 3.328262 1_554
Mg1_6 Sb0_4 3.396403 1_555
Mg1_6 Sb0_2 3.396403 1_655
Mg1_7 Sb2_6 3.108419 1_555
Mg1_7 Sb2_7 3.108419 1_555
Mg1_7 Mg2_3 3.328262 1_655
Mg1_7 Mg2_2 3.328262 1_655
Mg1_7 Mg2_4 3.328262 1_555
Mg1_7 Mg2_5 3.328262 1_555
Mg1_7 Sb0_5 3.396403 1_555
Mg1_7 Sb0_3 3.396403 1_655
Mg2_0 Sb2_2 2.976546 1_555
Mg2_0 Sb2_4 2.976546 1_455
Mg2_0 Sb1_2 2.988264 1_555
Mg2_0 Sb1_4 2.988264 1_455
Mg2_1 Sb2_3 2.976546 1_555
Mg2_1 Sb2_5 2.976546 1_455
Mg2_1 Sb1_3 2.988264 1_555
Mg2_1 Sb1_5 2.988264 1_455
Mg2_2 Sb2_0 2.976546 1_565
Mg2_2 Sb2_6 2.976546 1_455
Mg2_2 Sb1_0 2.988264 1_565
Mg2_2 Sb1_6 2.988264 1_455
Mg2_3 Sb2_1 2.976546 1_565
Mg2_3 Sb2_7 2.976546 1_455
Mg2_3 Sb1_1 2.988264 1_565
Mg2_3 Sb1_7 2.988264 1_455
Mg2_4 Sb2_0 2.976546 1_555
Mg2_4 Sb2_6 2.976546 1_555
Mg2_4 Sb1_0 2.988264 1_555
Mg2_4 Sb1_6 2.988264 1_555
Mg2_5 Sb2_1 2.976546 1_555
Mg2_5 Sb2_7 2.976546 1_555
Mg2_5 Sb1_1 2.988264 1_555
Mg2_5 Sb1_7 2.988264 1_555
Mg2_6 Sb2_2 2.976546 1_555
Mg2_6 Sb2_4 2.976546 1_565
Mg2_6 Sb1_4 2.988264 1_565
Mg2_6 Sb1_2 2.988264 1_555
Mg2_7 Sb2_5 2.976546 1_565
Mg2_7 Sb2_3 2.976546 1_555
Mg2_7 Sb1_5 2.988264 1_565
Mg2_7 Sb1_3 2.988264 1_555
