# generated using pymatgen
data_Ba5Eu5(Fe5O13)2
_symmetry_space_group_name_H-M   'P 1'
_cell_length_a   8.79813942
_cell_length_b   8.95703632
_cell_length_c   8.95271742
_cell_angle_alpha   89.90907727
_cell_angle_beta   114.04677535
_cell_angle_gamma   101.82419035
_symmetry_Int_Tables_number   1
_chemical_formula_structural   Ba5Eu5(Fe5O13)2
_chemical_formula_sum   'Ba5 Eu5 Fe10 O26'
_cell_volume   627.96648847
_cell_formula_units_Z   1
loop_
 _symmetry_equiv_pos_site_id
 _symmetry_equiv_pos_as_xyz
  1  'x, y, z'
loop_
 _atom_site_type_symbol
 _atom_site_label
 _atom_site_symmetry_multiplicity
 _atom_site_fract_x
 _atom_site_fract_y
 _atom_site_fract_z
 _atom_site_occupancy
  Ba  Ba0  1  0.00000000  0.80000000  0.60000000  1
  Ba  Ba1  1  0.00020035  0.60218505  0.19906946  1
  Ba  Ba2  1  0.00311602  0.40241754  0.80202386  1
  Ba  Ba3  1  0.99688398  0.19758246  0.39797614  1
  Ba  Ba4  1  -0.00020035  0.99781495  0.00093054  1
  Eu  Eu0  1  0.49990711  0.89538641  0.81171958  1
  Eu  Eu1  1  0.50009289  0.70461359  0.38828042  1
  Eu  Eu2  1  0.50032712  0.51171136  0.00486934  1
  Eu  Eu3  1  0.50000000  0.30000000  0.60000000  1
  Eu  Eu4  1  0.49967288  0.08828864  0.19513066  1
  Fe  Fe0  1  0.75279988  0.65011808  0.79780916  1
  Fe  Fe1  1  0.74977746  0.44645086  0.40010137  1
  Fe  Fe2  1  0.74975299  0.25309854  0.99933775  1
  Fe  Fe3  1  0.75013016  0.05088183  0.60344946  1
  Fe  Fe4  1  0.74011099  0.84789321  0.19632405  1
  Fe  Fe5  1  0.24986984  0.54911817  0.59655054  1
  Fe  Fe6  1  0.25024701  0.34690146  0.20066225  1
  Fe  Fe7  1  0.25022254  0.15354914  0.79989863  1
  Fe  Fe8  1  0.24720012  0.94988192  0.40219084  1
  Fe  Fe9  1  0.25988901  0.75210679  0.00367595  1
  O  O0  1  0.69834122  0.83965132  0.67939861  1
  O  O1  1  0.71654686  0.63482683  0.29130438  1
  O  O2  1  0.69908358  0.43922217  0.87879169  1
  O  O3  1  0.69831673  0.24036260  0.48006594  1
  O  O4  1  0.71649309  0.05172964  0.08211553  1
  O  O5  1  0.30165878  0.76034868  0.52060139  1
  O  O6  1  0.28350691  0.54827036  0.11788447  1
  O  O7  1  0.30168327  0.35963740  0.71993406  1
  O  O8  1  0.30091642  0.16077783  0.32120831  1
  O  O9  1  0.28345314  0.96517317  0.90869562  1
  O  O10  1  0.69963054  0.53897552  0.58070833  1
  O  O11  1  0.69836251  0.33944656  0.17925443  1
  O  O12  1  0.69912373  0.14076974  0.77892065  1
  O  O13  1  0.71674124  0.94841782  0.39527901  1
  O  O14  1  0.71727972  0.73874520  0.97845084  1
  O  O15  1  0.30087627  0.45923026  0.42107935  1
  O  O16  1  0.30163749  0.26055344  0.02074557  1
  O  O17  1  0.30036946  0.06102448  0.61929167  1
  O  O18  1  0.28272028  0.86125480  0.22154916  1
  O  O19  1  0.28325876  0.65158218  0.80472099  1
  O  O20  1  0.00220638  0.69898790  0.89829370  1
  O  O21  1  0.99987062  0.49609560  0.49894163  1
  O  O22  1  0.00000000  0.30000000  0.10000000  1
  O  O23  1  0.00012938  0.10390440  0.70105837  1
  O  O24  1  0.99779362  0.90101210  0.30170630  1
  O  O25  1  0.50000000  0.80000000  0.10000000  1
loop_
_geom_bond_atom_site_label_1
_geom_bond_atom_site_label_2
_geom_bond_distance
_geom_bond_site_symmetry_2
Ba0 O20 2.812125 1_555
Ba0 O24 2.812125 1_455
Ba0 O23 2.869497 1_565
Ba0 O21 2.869497 1_455
Ba0 O9 2.988313 1_555
Ba0 O1 2.988313 1_455
Ba0 O13 2.994129 1_455
Ba0 O19 2.994129 1_555
Ba0 O10 3.094692 1_455
Ba0 O17 3.094692 1_565
Ba0 O0 3.098374 1_455
Ba0 O5 3.098374 1_555
Ba1 O20 2.833394 1_554
Ba1 O24 2.838290 1_455
Ba1 O21 2.847377 1_455
Ba1 O22 2.849068 1_555
Ba1 O14 2.970972 1_454
Ba1 O18 2.972146 1_555
Ba1 O6 2.990861 1_555
Ba1 O1 2.995785 1_455
Ba1 O5 3.094960 1_555
Ba1 O2 3.099786 1_454
Ba1 O11 3.110985 1_455
Ba1 O15 3.111786 1_555
Ba2 O20 2.796589 1_555
Ba2 O23 2.815394 1_555
Ba2 O22 2.828503 1_556
Ba2 O21 2.829648 1_455
Ba2 O19 2.958664 1_555
Ba2 O6 2.965584 1_556
Ba2 O16 3.084743 1_556
Ba2 O10 3.093643 1_455
Ba2 O7 3.094177 1_555
Ba2 O2 3.097834 1_455
Ba2 O12 3.109730 1_455
Ba2 O3 3.118521 1_455
Ba3 O24 2.796589 1_545
Ba3 O21 2.815394 1_555
Ba3 O22 2.828503 1_655
Ba3 O23 2.829648 1_655
Ba3 O13 2.958664 1_545
Ba3 O4 2.965584 1_555
Ba3 O11 3.084743 1_555
Ba3 O17 3.093643 1_655
Ba3 O3 3.094177 1_555
Ba3 O8 3.097834 1_655
Ba3 O15 3.109730 1_655
Ba3 O7 3.118521 1_655
Ba4 O24 2.833394 1_455
Ba4 O20 2.838290 1_554
Ba4 O23 2.847377 1_564
Ba4 O22 2.849068 1_565
Ba4 O18 2.970972 1_555
Ba4 O14 2.972146 1_454
Ba4 O4 2.990861 1_465
Ba4 O9 2.995785 1_554
Ba4 O0 3.094960 1_454
Ba4 O8 3.099786 1_565
Ba4 O16 3.110985 1_565
Ba4 O12 3.111786 1_464
Eu0 O19 2.569673 1_555
Eu0 O9 2.570649 1_555
Eu0 O4 2.571019 1_566
Eu0 O14 2.573077 1_555
Eu0 O5 2.595899 1_555
Eu0 O0 2.597140 1_555
Eu0 O12 2.612992 1_565
Eu0 O17 2.616398 1_565
Eu0 O25 2.717084 1_556
Eu1 O13 2.569673 1_555
Eu1 O1 2.570649 1_555
Eu1 O6 2.571019 1_555
Eu1 O18 2.573077 1_555
Eu1 O0 2.595899 1_555
Eu1 O5 2.597140 1_555
Eu1 O15 2.612992 1_555
Eu1 O10 2.616398 1_555
Eu1 O25 2.717084 1_555
Eu2 O1 2.566039 1_555
Eu2 O6 2.569041 1_555
Eu2 O14 2.571060 1_554
Eu2 O19 2.571427 1_554
Eu2 O16 2.593593 1_555
Eu2 O11 2.594460 1_555
Eu2 O7 2.611368 1_554
Eu2 O2 2.613379 1_554
Eu2 O25 2.721251 1_555
Eu3 O7 2.528486 1_555
Eu3 O3 2.528486 1_555
Eu3 O15 2.529610 1_555
Eu3 O12 2.529610 1_555
Eu3 O17 2.530177 1_555
Eu3 O10 2.530177 1_555
Eu3 O2 2.530739 1_555
Eu3 O8 2.530739 1_555
Eu4 O9 2.566039 1_544
Eu4 O4 2.569041 1_555
Eu4 O18 2.571060 1_545
Eu4 O13 2.571427 1_545
Eu4 O11 2.593593 1_555
Eu4 O16 2.594460 1_555
Eu4 O3 2.611368 1_555
Eu4 O8 2.613379 1_555
Eu4 O25 2.721251 1_545
Fe0 O20 1.953143 1_655
Fe0 O14 1.964921 1_555
Fe0 O10 2.015421 1_555
Fe0 O0 2.036935 1_555
Fe0 O2 2.055811 1_555
Fe1 O21 1.958519 1_555
Fe1 O1 1.961130 1_555
Fe1 O3 2.010584 1_555
Fe1 O11 2.032712 1_555
Fe1 O10 2.057037 1_555
Fe2 O22 1.959917 1_656
Fe2 O4 1.960675 1_556
Fe2 O2 2.012335 1_555
Fe2 O11 2.034182 1_556
Fe2 O12 2.052080 1_555
Fe3 O23 1.958034 1_655
Fe3 O13 1.962323 1_545
Fe3 O12 2.010996 1_555
Fe3 O0 2.035858 1_545
Fe3 O3 2.051627 1_555
Fe4 O25 1.880315 1_555
Fe4 O24 2.018058 1_555
Fe4 O1 2.093938 1_555
Fe4 O4 2.097255 1_565
Fe4 O13 2.098822 1_555
Fe4 O14 2.099301 1_554
Fe5 O21 1.958034 1_455
Fe5 O19 1.962323 1_555
Fe5 O15 2.010996 1_555
Fe5 O5 2.035858 1_555
Fe5 O7 2.051627 1_555
Fe6 O22 1.959917 1_555
Fe6 O6 1.960675 1_555
Fe6 O8 2.012335 1_555
Fe6 O16 2.034182 1_555
Fe6 O15 2.052080 1_555
Fe7 O23 1.958519 1_555
Fe7 O9 1.961130 1_545
Fe7 O7 2.010584 1_555
Fe7 O16 2.032712 1_556
Fe7 O17 2.057037 1_555
Fe8 O24 1.953143 1_455
Fe8 O18 1.964921 1_555
Fe8 O17 2.015421 1_565
Fe8 O5 2.036935 1_555
Fe8 O8 2.055811 1_565
Fe9 O25 1.880315 1_555
Fe9 O20 2.018058 1_554
Fe9 O9 2.093938 1_554
Fe9 O6 2.097255 1_555
Fe9 O19 2.098822 1_554
Fe9 O18 2.099301 1_555
