# generated using pymatgen
data_CeZn4Ni
_symmetry_space_group_name_H-M   'P 1'
_cell_length_a   4.20215747
_cell_length_b   5.21088783
_cell_length_c   5.22216440
_cell_angle_alpha   60.07568592
_cell_angle_beta   90.00000000
_cell_angle_gamma   90.00000000
_symmetry_Int_Tables_number   1
_chemical_formula_structural   CeZn4Ni
_chemical_formula_sum   'Ce1 Zn4 Ni1'
_cell_volume   99.10508396
_cell_formula_units_Z   1
loop_
 _symmetry_equiv_pos_site_id
 _symmetry_equiv_pos_as_xyz
  1  'x, y, z'
loop_
 _atom_site_type_symbol
 _atom_site_label
 _atom_site_symmetry_multiplicity
 _atom_site_fract_x
 _atom_site_fract_y
 _atom_site_fract_z
 _atom_site_occupancy
  Ce  Ce0  1  -0.00000000  0.00045150  -0.00092806  1
  Zn  Zn0  1  0.00000000  0.66623372  0.66750103  1
  Zn  Zn1  1  0.50000000  0.49582736  0.49592807  1
  Zn  Zn2  1  0.50000000  0.49600774  0.00797143  1
  Zn  Zn3  1  0.50000000  0.00822858  0.49592688  1
  Ni  Ni0  1  0.00000000  0.33315210  0.33370165  1
loop_
_geom_bond_atom_site_label_1
_geom_bond_atom_site_label_2
_geom_bond_distance
_geom_bond_site_symmetry_2
Ce0 Zn0 3.006640 1_544
Ce0 Zn0 3.006805 1_554
Ce0 Ni0 3.011447 1_554
Ce0 Ni0 3.013628 1_555
Ce0 Ni0 3.013684 1_545
Ce0 Zn0 3.025292 1_545
Ce0 Zn2 3.347289 1_445
Ce0 Zn2 3.347289 1_545
Ce0 Zn2 3.347333 1_455
Ce0 Zn2 3.347333 1_555
Ce0 Zn3 3.348690 1_454
Ce0 Zn3 3.348690 1_554
Ce0 Zn1 3.348832 1_554
Ce0 Zn1 3.348832 1_454
Ce0 Zn3 3.354599 1_455
Ce0 Zn3 3.354599 1_555
Ce0 Zn1 3.354719 1_545
Ce0 Zn1 3.354719 1_445
Zn0 Zn2 2.605588 1_556
Zn0 Zn2 2.605588 1_456
Zn0 Zn1 2.607602 1_555
Zn0 Zn1 2.607602 1_455
Zn0 Zn3 2.607703 1_465
Zn0 Zn3 2.607703 1_565
Zn1 Zn3 2.540826 1_555
Zn1 Zn2 2.547721 1_555
Zn1 Zn3 2.670062 1_565
Zn1 Zn2 2.674444 1_556
Zn2 Zn3 2.547890 1_555
Zn2 Zn3 2.674612 1_564
Ni0 Zn1 2.562672 1_455
Ni0 Zn1 2.562672 1_555
Ni0 Zn3 2.562783 1_455
Ni0 Zn3 2.562783 1_555
Ni0 Zn2 2.566697 1_555
Ni0 Zn2 2.566697 1_455
Ni0 Zn0 3.011587 1_555
Ni0 Zn0 3.011951 1_545
Ni0 Zn0 3.015206 1_554
