# generated using pymatgen
data_Co(Si2O5)2
_symmetry_space_group_name_H-M   'P 1'
_cell_length_a   7.28930800
_cell_length_b   7.28930800
_cell_length_c   15.75754900
_cell_angle_alpha   90.00000000
_cell_angle_beta   90.00000000
_cell_angle_gamma   90.00000000
_symmetry_Int_Tables_number   1
_chemical_formula_structural   Co(Si2O5)2
_chemical_formula_sum   'Co4 Si16 O40'
_cell_volume   837.26178377
_cell_formula_units_Z   4
loop_
 _symmetry_equiv_pos_site_id
 _symmetry_equiv_pos_as_xyz
  1  'x, y, z'
loop_
 _atom_site_type_symbol
 _atom_site_label
 _atom_site_symmetry_multiplicity
 _atom_site_fract_x
 _atom_site_fract_y
 _atom_site_fract_z
 _atom_site_occupancy
  Co  Co0  1  0.50000000  0.00000000  0.58947300  1
  Co  Co1  1  0.00000000  0.50000000  0.91052700  1
  Co  Co2  1  0.00000000  0.50000000  0.41052700  1
  Co  Co3  1  0.50000000  0.00000000  0.08947300  1
  Si  Si0  1  0.17807400  0.25541700  0.65006100  1
  Si  Si1  1  0.82192600  0.74458300  0.65006100  1
  Si  Si2  1  0.25541700  0.17807400  0.84993900  1
  Si  Si3  1  0.75541700  0.32192600  0.65006100  1
  Si  Si4  1  0.24458300  0.67807400  0.65006100  1
  Si  Si5  1  0.32192600  0.75541700  0.84993900  1
  Si  Si6  1  0.67807400  0.24458300  0.84993900  1
  Si  Si7  1  0.74458300  0.82192600  0.84993900  1
  Si  Si8  1  0.32192600  0.24458300  0.34993900  1
  Si  Si9  1  0.67807400  0.75541700  0.34993900  1
  Si  Si10  1  0.24458300  0.32192600  0.15006100  1
  Si  Si11  1  0.74458300  0.17807400  0.34993900  1
  Si  Si12  1  0.25541700  0.82192600  0.34993900  1
  Si  Si13  1  0.17807400  0.74458300  0.15006100  1
  Si  Si14  1  0.82192600  0.25541700  0.15006100  1
  Si  Si15  1  0.75541700  0.67807400  0.15006100  1
  O  O0  1  0.27644600  0.09688000  0.59249200  1
  O  O1  1  0.72355400  0.90312000  0.59249200  1
  O  O2  1  0.09688000  0.27644600  0.90750800  1
  O  O3  1  0.59688000  0.22355400  0.59249200  1
  O  O4  1  0.40312000  0.77644600  0.59249200  1
  O  O5  1  0.22355400  0.59688000  0.90750800  1
  O  O6  1  0.77644600  0.40312000  0.90750800  1
  O  O7  1  0.90312000  0.72355400  0.90750800  1
  O  O8  1  0.22355400  0.40312000  0.40750800  1
  O  O9  1  0.77644600  0.59688000  0.40750800  1
  O  O10  1  0.40312000  0.22355400  0.09249200  1
  O  O11  1  0.90312000  0.27644600  0.40750800  1
  O  O12  1  0.09688000  0.72355400  0.40750800  1
  O  O13  1  0.27644600  0.90312000  0.09249200  1
  O  O14  1  0.72355400  0.09688000  0.09249200  1
  O  O15  1  0.24591800  0.03996700  0.37144100  1
  O  O16  1  0.59688000  0.77644600  0.09249200  1
  O  O17  1  0.74591800  0.53996700  0.62855900  1
  O  O18  1  0.46003300  0.25408200  0.87144100  1
  O  O19  1  0.96003300  0.24591800  0.62855900  1
  O  O20  1  0.03996700  0.75408200  0.62855900  1
  O  O21  1  0.24591800  0.96003300  0.87144100  1
  O  O22  1  0.75408200  0.03996700  0.87144100  1
  O  O23  1  0.53996700  0.74591800  0.87144100  1
  O  O24  1  0.71183100  0.71183100  0.25000000  1
  O  O25  1  0.78816900  0.21183100  0.25000000  1
  O  O26  1  0.21183100  0.78816900  0.25000000  1
  O  O27  1  0.28816900  0.28816900  0.25000000  1
  O  O28  1  0.78816900  0.78816900  0.75000000  1
  O  O29  1  0.71183100  0.28816900  0.75000000  1
  O  O30  1  0.28816900  0.71183100  0.75000000  1
  O  O31  1  0.21183100  0.21183100  0.75000000  1
  O  O32  1  0.96003300  0.75408200  0.12855900  1
  O  O33  1  0.74591800  0.46003300  0.12855900  1
  O  O34  1  0.25408200  0.53996700  0.12855900  1
  O  O35  1  0.46003300  0.74591800  0.37144100  1
  O  O36  1  0.53996700  0.25408200  0.37144100  1
  O  O37  1  0.03996700  0.24591800  0.12855900  1
  O  O38  1  0.75408200  0.96003300  0.37144100  1
  O  O39  1  0.25408200  0.46003300  0.62855900  1
loop_
_geom_bond_atom_site_label_1
_geom_bond_atom_site_label_2
_geom_bond_distance
_geom_bond_site_symmetry_2
Co0 O1 1.776629 1_545
Co0 O4 1.776629 1_545
Co0 O3 1.776629 1_555
Co0 O0 1.776629 1_555
Co1 O7 1.776629 1_455
Co1 O6 1.776629 1_455
Co1 O5 1.776629 1_555
Co1 O2 1.776629 1_555
Co2 O12 1.776629 1_555
Co2 O8 1.776629 1_555
Co2 O9 1.776629 1_455
Co2 O11 1.776629 1_455
Co3 O14 1.776629 1_555
Co3 O10 1.776629 1_555
Co3 O16 1.776629 1_545
Co3 O13 1.776629 1_545
O0 Si0 1.634798 1_555
O1 Si1 1.634798 1_555
O2 Si2 1.634798 1_555
O3 Si3 1.634798 1_555
O4 Si4 1.634798 1_555
O5 Si5 1.634798 1_555
O6 Si6 1.634798 1_555
O7 Si7 1.634798 1_555
O8 Si8 1.634798 1_555
O9 Si9 1.634798 1_555
O10 Si10 1.634798 1_555
O11 Si11 1.634798 1_555
O12 Si12 1.634798 1_555
O13 Si13 1.634798 1_555
O14 Si14 1.634798 1_555
O15 Si12 1.626556 1_545
O15 Si8 1.626765 1_555
O16 Si15 1.634798 1_555
O17 Si3 1.626556 1_555
O17 Si1 1.626765 1_555
O18 Si6 1.626556 1_555
O18 Si2 1.626765 1_555
O19 Si0 1.626556 1_655
O19 Si3 1.626765 1_555
O20 Si1 1.626556 1_455
O20 Si4 1.626765 1_555
O21 Si2 1.626556 1_565
O21 Si5 1.626765 1_555
O22 Si7 1.626556 1_545
O22 Si6 1.626765 1_555
O23 Si5 1.626556 1_555
O23 Si7 1.626765 1_555
O24 Si15 1.625258 1_555
O24 Si9 1.625258 1_555
O25 Si14 1.625258 1_555
O25 Si11 1.625258 1_555
O26 Si12 1.625258 1_555
O26 Si13 1.625258 1_555
O27 Si8 1.625258 1_555
O27 Si10 1.625258 1_555
O28 Si1 1.625258 1_555
O28 Si7 1.625258 1_555
O29 Si3 1.625258 1_555
O29 Si6 1.625258 1_555
O30 Si5 1.625258 1_555
O30 Si4 1.625258 1_555
O31 Si0 1.625258 1_555
O31 Si2 1.625258 1_555
O32 Si13 1.626556 1_655
O32 Si15 1.626765 1_555
O33 Si15 1.626556 1_555
O33 Si14 1.626765 1_555
O34 Si10 1.626556 1_555
O34 Si13 1.626765 1_555
O35 Si9 1.626556 1_555
O35 Si12 1.626765 1_555
O36 Si8 1.626556 1_555
O36 Si11 1.626765 1_555
O37 Si14 1.626556 1_455
O37 Si10 1.626765 1_555
O38 Si11 1.626556 1_565
O38 Si9 1.626765 1_555
O39 Si4 1.626556 1_555
O39 Si0 1.626765 1_555
