# generated using pymatgen
data_MgSi2
_symmetry_space_group_name_H-M   'P 1'
_cell_length_a   6.05204400
_cell_length_b   7.19619503
_cell_length_c   9.89583180
_cell_angle_alpha   91.81012424
_cell_angle_beta   99.75753618
_cell_angle_gamma   90.07418155
_symmetry_Int_Tables_number   1
_chemical_formula_structural   MgSi2
_chemical_formula_sum   'Mg8 Si16'
_cell_volume   424.52391332
_cell_formula_units_Z   8
loop_
 _symmetry_equiv_pos_site_id
 _symmetry_equiv_pos_as_xyz
  1  'x, y, z'
loop_
 _atom_site_type_symbol
 _atom_site_label
 _atom_site_symmetry_multiplicity
 _atom_site_fract_x
 _atom_site_fract_y
 _atom_site_fract_z
 _atom_site_occupancy
  Mg  Mg0  1  0.78779100  0.88161100  0.63054900  1
  Mg  Mg1  1  0.12424000  0.69647200  0.12112500  1
  Mg  Mg2  1  0.72493200  0.20654200  0.40015900  1
  Mg  Mg3  1  0.36662700  0.39531300  0.86685500  1
  Mg  Mg4  1  0.21220900  0.11838900  0.36945100  1
  Mg  Mg5  1  0.87576000  0.30352800  0.87887500  1
  Mg  Mg6  1  0.27506800  0.79345800  0.59984100  1
  Mg  Mg7  1  0.63337300  0.60468700  0.13314500  1
  Si  Si0  1  0.97988800  0.48283800  0.61858900  1
  Si  Si1  1  0.32513700  0.31336500  0.13854000  1
  Si  Si2  1  0.90688400  0.83484900  0.35361800  1
  Si  Si3  1  0.55339100  0.00994000  0.85632300  1
  Si  Si4  1  0.02011200  0.51716200  0.38141100  1
  Si  Si5  1  0.67486300  0.68663500  0.86146000  1
  Si  Si6  1  0.09311600  0.16515100  0.64638200  1
  Si  Si7  1  0.44660900  0.99006000  0.14367700  1
  Si  Si8  1  0.51422700  0.82379500  0.36580300  1
  Si  Si9  1  0.18123300  0.00399600  0.91220800  1
  Si  Si10  1  0.58773700  0.50199700  0.62566800  1
  Si  Si11  1  0.93753400  0.31519300  0.16125700  1
  Si  Si12  1  0.48577300  0.17620500  0.63419700  1
  Si  Si13  1  0.81876700  0.99600400  0.08779200  1
  Si  Si14  1  0.41226300  0.49800300  0.37433200  1
  Si  Si15  1  0.06246600  0.68480700  0.83874300  1
loop_
_geom_bond_atom_site_label_1
_geom_bond_atom_site_label_2
_geom_bond_distance
_geom_bond_site_symmetry_2
Mg0 Si6 2.733905 1_665
Mg0 Si12 2.804288 1_565
Mg0 Si15 2.836074 1_655
Mg0 Si8 2.870031 1_555
Mg0 Si5 2.895971 1_555
Mg0 Si2 2.958842 1_555
Mg0 Si3 2.967212 1_565
Mg0 Si10 2.982297 1_555
Mg0 Si0 3.103917 1_555
Mg1 Si15 2.754360 1_554
Mg1 Si13 2.832191 1_455
Mg1 Si7 2.851614 1_555
Mg1 Si2 2.983249 1_455
Mg1 Si1 3.012673 1_555
Mg1 Si11 3.029132 1_455
Mg1 Mg7 3.065195 1_455
Mg1 Si4 3.074845 1_555
Mg1 Si9 3.133576 1_564
Mg1 Mg7 3.135410 1_555
Mg1 Si14 3.179443 1_555
Mg1 Si8 3.192172 1_555
Mg2 Si14 2.815211 1_555
Mg2 Si4 2.889720 1_655
Mg2 Si12 2.945142 1_555
Mg2 Si2 2.946328 1_545
Mg2 Si11 3.000205 1_555
Mg2 Si8 3.018741 1_545
Mg2 Si6 3.032831 1_655
Mg2 Si0 3.097811 1_555
Mg2 Si7 3.162344 1_545
Mg3 Si15 2.771071 1_555
Mg3 Si5 2.812191 1_555
Mg3 Si1 2.822714 1_556
Mg3 Si12 2.939931 1_555
Mg3 Si6 2.963762 1_555
Mg3 Si3 3.001497 1_555
Mg3 Si10 3.045049 1_555
Mg3 Mg5 3.065195 1_455
Mg3 Si9 3.103628 1_555
Mg3 Mg5 3.135410 1_555
Mg3 Si0 3.172264 1_455
Mg3 Mg7 3.181395 1_556
Mg4 Si2 2.733905 1_445
Mg4 Si8 2.804288 1_545
Mg4 Si11 2.836074 1_455
Mg4 Si12 2.870031 1_555
Mg4 Si1 2.895971 1_555
Mg4 Si6 2.958842 1_555
Mg4 Si7 2.967212 1_545
Mg4 Si14 2.982297 1_555
Mg4 Si4 3.103917 1_555
Mg5 Si11 2.754360 1_556
Mg5 Si9 2.832191 1_655
Mg5 Si3 2.851614 1_555
Mg5 Si6 2.983249 1_655
Mg5 Si5 3.012673 1_555
Mg5 Si15 3.029132 1_655
Mg5 Si0 3.074845 1_555
Mg5 Si13 3.133576 1_546
Mg5 Si10 3.179443 1_555
Mg5 Si12 3.192172 1_555
Mg6 Si10 2.815211 1_555
Mg6 Si0 2.889720 1_455
Mg6 Si8 2.945142 1_555
Mg6 Si6 2.946328 1_565
Mg6 Si15 3.000205 1_555
Mg6 Si12 3.018741 1_565
Mg6 Si2 3.032831 1_455
Mg6 Si4 3.097811 1_555
Mg6 Si3 3.162344 1_565
Mg7 Si11 2.771071 1_555
Mg7 Si1 2.812191 1_555
Mg7 Si5 2.822714 1_554
Mg7 Si8 2.939931 1_555
Mg7 Si2 2.963762 1_555
Mg7 Si7 3.001497 1_555
Mg7 Si14 3.045049 1_555
Mg7 Si13 3.103628 1_555
Mg7 Si4 3.172264 1_655
Si0 Si10 2.390216 1_555
Si0 Si6 2.398238 1_655
Si0 Si4 2.420571 1_655
Si0 Si15 2.556857 1_655
Si1 Si11 2.394177 1_455
Si1 Si7 2.440323 1_545
Si1 Si14 2.621698 1_555
Si2 Si4 2.398238 1_655
Si2 Si8 2.401100 1_555
Si3 Si9 2.409160 1_555
Si3 Si5 2.440323 1_545
Si6 Si9 2.875417 1_555
Si7 Si8 2.508640 1_555
Si7 Si9 2.569868 1_564
Si10 Si12 2.431222 1_555
Si10 Si14 2.532742 1_555
Si10 Si5 2.621698 1_555
Si11 Si13 2.456470 1_545
Si11 Si4 2.556857 1_655
Si12 Si6 2.401100 1_555
Si12 Si3 2.508640 1_555
Si13 Si7 2.409160 1_555
Si13 Si3 2.569868 1_564
Si13 Si2 2.875417 1_555
Si14 Si4 2.390216 1_555
Si14 Si8 2.431222 1_555
Si15 Si5 2.394177 1_455
Si15 Si9 2.456470 1_565
