# generated using pymatgen
data_BaNd3(CoO3)4
_symmetry_space_group_name_H-M   'P 1'
_cell_length_a   7.88282200
_cell_length_b   5.47413300
_cell_length_c   5.49872349
_cell_angle_alpha   89.19072720
_cell_angle_beta   90.00000000
_cell_angle_gamma   90.00000000
_symmetry_Int_Tables_number   1
_chemical_formula_structural   BaNd3(CoO3)4
_chemical_formula_sum   'Ba1 Nd3 Co4 O12'
_cell_volume   237.25513654
_cell_formula_units_Z   1
loop_
 _symmetry_equiv_pos_site_id
 _symmetry_equiv_pos_as_xyz
  1  'x, y, z'
loop_
 _atom_site_type_symbol
 _atom_site_label
 _atom_site_symmetry_multiplicity
 _atom_site_fract_x
 _atom_site_fract_y
 _atom_site_fract_z
 _atom_site_occupancy
  Ba  Ba0  1  0.50000000  0.50067900  0.51370500  1
  Nd  Nd0  1  0.50000000  0.01245600  0.03506000  1
  Nd  Nd1  1  0.00000000  0.50645200  0.46434300  1
  Nd  Nd2  1  0.00000000  0.99600900  0.97300700  1
  Co  Co0  1  0.24771600  0.00257900  0.50322800  1
  Co  Co1  1  0.75296600  0.49764800  0.99682200  1
  Co  Co2  1  0.75228400  0.00257900  0.50322800  1
  Co  Co3  1  0.24703400  0.49764800  0.99682200  1
  O  O0  1  0.28063200  0.21834200  0.79615500  1
  O  O1  1  0.73268000  0.25347000  0.26161100  1
  O  O2  1  0.79716200  0.75969800  0.22085100  1
  O  O3  1  0.20226300  0.73152300  0.72477800  1
  O  O4  1  0.20283800  0.75969800  0.22085100  1
  O  O5  1  0.79773700  0.73152300  0.72477800  1
  O  O6  1  0.71936800  0.21834200  0.79615500  1
  O  O7  1  0.26732000  0.25347000  0.26161100  1
  O  O8  1  0.50000000  0.58119300  0.00214900  1
  O  O9  1  0.50000000  0.96966300  0.47491900  1
  O  O10  1  0.00000000  0.42983300  0.00710000  1
  O  O11  1  0.00000000  0.07719200  0.52282500  1
loop_
_geom_bond_atom_site_label_1
_geom_bond_atom_site_label_2
_geom_bond_distance
_geom_bond_site_symmetry_2
Ba0 O9 2.573121 1_555
Ba0 O7 2.677690 1_555
Ba0 O1 2.677690 1_555
Ba0 O8 2.727877 1_556
Ba0 O6 2.779092 1_555
Ba0 O0 2.779092 1_555
Ba0 O8 2.841068 1_555
Ba0 O5 2.914414 1_555
Ba0 O3 2.914414 1_555
Ba0 O9 2.917668 1_545
Ba0 O2 3.166431 1_555
Ba0 O4 3.166431 1_555
Nd0 O8 2.370264 1_545
Nd0 O9 2.426685 1_545
Nd0 O0 2.438117 1_554
Nd0 O6 2.438117 1_554
Nd0 O7 2.589047 1_555
Nd0 O1 2.589047 1_555
Nd1 O11 2.367224 1_555
Nd1 O3 2.482086 1_555
Nd1 O5 2.482086 1_455
Nd1 O4 2.493720 1_555
Nd1 O2 2.493720 1_455
Nd1 O10 2.554833 1_555
Nd2 O10 2.384836 1_566
Nd2 O4 2.457129 1_556
Nd2 O2 2.457129 1_456
Nd2 O11 2.508816 1_565
Nd2 O3 2.560709 1_555
Nd2 O5 2.560709 1_455
Nd2 O6 2.699488 1_465
Nd2 O0 2.699488 1_565
Co0 O7 1.903610 1_555
Co0 O3 1.939866 1_545
Co0 O11 1.998180 1_555
Co0 O9 2.003112 1_545
Co0 O0 2.027445 1_555
Co0 O4 2.088569 1_545
Co1 O6 1.916516 1_555
Co1 O2 1.935610 1_556
Co1 O1 1.969062 1_556
Co1 O10 1.983050 1_656
Co1 O5 1.986763 1_555
Co1 O8 2.046160 1_556
Co2 O1 1.903610 1_555
Co2 O5 1.939866 1_545
Co2 O11 1.998180 1_655
Co2 O9 2.003112 1_545
Co2 O6 2.027445 1_555
Co2 O2 2.088569 1_545
Co3 O0 1.916516 1_555
Co3 O4 1.935610 1_556
Co3 O7 1.969062 1_556
Co3 O10 1.983050 1_556
Co3 O3 1.986763 1_555
Co3 O8 2.046160 1_556
