# generated using pymatgen
data_Na8SbO3
_symmetry_space_group_name_H-M   'P 1'
_cell_length_a   6.14994900
_cell_length_b   6.14994900
_cell_length_c   6.14994900
_cell_angle_alpha   90.00000000
_cell_angle_beta   90.00000000
_cell_angle_gamma   90.00000000
_symmetry_Int_Tables_number   1
_chemical_formula_structural   Na8SbO3
_chemical_formula_sum   'Na8 Sb1 O3'
_cell_volume   232.60258821
_cell_formula_units_Z   1
loop_
 _symmetry_equiv_pos_site_id
 _symmetry_equiv_pos_as_xyz
  1  'x, y, z'
loop_
 _atom_site_type_symbol
 _atom_site_label
 _atom_site_symmetry_multiplicity
 _atom_site_fract_x
 _atom_site_fract_y
 _atom_site_fract_z
 _atom_site_occupancy
  Na  Na0  1  0.27010600  0.27010600  0.27010600  1
  Na  Na1  1  0.72989400  0.72989400  0.27010600  1
  Na  Na2  1  0.72989400  0.27010600  0.72989400  1
  Na  Na3  1  0.27010600  0.72989400  0.72989400  1
  Na  Na4  1  0.27010600  0.27010600  0.72989400  1
  Na  Na5  1  0.72989400  0.72989400  0.72989400  1
  Na  Na6  1  0.72989400  0.27010600  0.27010600  1
  Na  Na7  1  0.27010600  0.72989400  0.27010600  1
  Sb  Sb0  1  0.00000000  0.00000000  0.00000000  1
  O  O0  1  0.00000000  0.50000000  0.50000000  1
  O  O1  1  0.50000000  0.50000000  0.00000000  1
  O  O2  1  0.50000000  0.00000000  0.50000000  1
loop_
_geom_bond_atom_site_label_1
_geom_bond_atom_site_label_2
_geom_bond_distance
_geom_bond_site_symmetry_2
Na0 O0 2.599470 1_555
Na0 O1 2.599470 1_555
Na0 O2 2.599470 1_555
Na0 Sb0 2.877176 1_555
Na1 O1 2.599470 1_555
Na1 O0 2.599470 1_655
Na1 O2 2.599470 1_565
Na1 Sb0 2.877176 1_665
Na2 O2 2.599470 1_555
Na2 O0 2.599470 1_655
Na2 O1 2.599470 1_556
Na2 Sb0 2.877176 1_656
Na3 O0 2.599470 1_555
Na3 O1 2.599470 1_556
Na3 O2 2.599470 1_565
Na3 Sb0 2.877176 1_566
Na4 O2 2.599470 1_555
Na4 O0 2.599470 1_555
Na4 O1 2.599470 1_556
Na4 Sb0 2.877176 1_556
Na5 O2 2.599470 1_565
Na5 O0 2.599470 1_655
Na5 O1 2.599470 1_556
Na5 Sb0 2.877176 1_666
Na6 O1 2.599470 1_555
Na6 O2 2.599470 1_555
Na6 O0 2.599470 1_655
Na6 Sb0 2.877176 1_655
Na7 O1 2.599470 1_555
Na7 O0 2.599470 1_555
Na7 O2 2.599470 1_565
Na7 Sb0 2.877176 1_565
