# generated using pymatgen
data_HgH12C2(I2N3)2
_symmetry_space_group_name_H-M   'P 1'
_cell_length_a   9.43867515
_cell_length_b   9.33794846
_cell_length_c   13.18619775
_cell_angle_alpha   106.87533542
_cell_angle_beta   94.95597574
_cell_angle_gamma   119.67166517
_symmetry_Int_Tables_number   1
_chemical_formula_structural   HgH12C2(I2N3)2
_chemical_formula_sum   'Hg2 H24 C4 I8 N12'
_cell_volume   928.58921588
_cell_formula_units_Z   2
loop_
 _symmetry_equiv_pos_site_id
 _symmetry_equiv_pos_as_xyz
  1  'x, y, z'
loop_
 _atom_site_type_symbol
 _atom_site_label
 _atom_site_symmetry_multiplicity
 _atom_site_fract_x
 _atom_site_fract_y
 _atom_site_fract_z
 _atom_site_occupancy
  Hg  Hg0  1  0.34651800  0.11463800  0.23410900  1
  Hg  Hg1  1  0.65348200  0.88536200  0.76589100  1
  H  H0  1  0.34324900  0.68661200  0.45630100  1
  H  H1  1  0.65675100  0.31338800  0.54369900  1
  H  H2  1  0.55664000  0.36483100  0.04785700  1
  H  H3  1  0.44336000  0.63516900  0.95214300  1
  H  H4  1  0.06897500  0.23188400  0.92118100  1
  H  H5  1  0.93102500  0.76811600  0.07881900  1
  H  H6  1  0.46301800  0.75001000  0.08729400  1
  H  H7  1  0.53698200  0.24999000  0.91270600  1
  H  H8  1  0.02632200  0.30871800  0.61838300  1
  H  H9  1  0.97367800  0.69128200  0.38161700  1
  H  H10  1  0.16775900  0.61982600  0.69137300  1
  H  H11  1  0.83224100  0.38017400  0.30862700  1
  H  H12  1  0.26384000  0.60659600  0.17560800  1
  H  H13  1  0.73616000  0.39340400  0.82439200  1
  H  H14  1  0.05446300  0.72090500  0.68470700  1
  H  H15  1  0.94553700  0.27909500  0.31529300  1
  H  H16  1  0.19189600  0.82330900  0.44216700  1
  H  H17  1  0.80810400  0.17669100  0.55783300  1
  H  H18  1  0.23705200  0.45388600  0.39920100  1
  H  H19  1  0.76294800  0.54611400  0.60079900  1
  H  H20  1  0.08796300  0.38607800  0.10093500  1
  H  H21  1  0.91203700  0.61392200  0.89906500  1
  H  H22  1  0.22246500  0.33741300  0.85782600  1
  H  H23  1  0.77753500  0.66258700  0.14217400  1
  C  C0  1  0.08832900  0.55294700  0.38220500  1
  C  C1  1  0.91167100  0.44705300  0.61779500  1
  C  C2  1  0.26055800  0.49051800  0.01730300  1
  C  C3  1  0.73944200  0.50948200  0.98269700  1
  I  I0  1  0.08791700  0.08379800  0.34069900  1
  I  I1  1  0.91208300  0.91620200  0.65930100  1
  I  I2  1  0.48641800  0.03455300  0.68610000  1
  I  I3  1  0.51358200  0.96544700  0.31390000  1
  I  I4  1  0.78717600  0.05775700  0.99902000  1
  I  I5  1  0.21282400  0.94224300  0.00098000  1
  I  I6  1  0.60146300  0.48651200  0.28915500  1
  I  I7  1  0.39853700  0.51348800  0.71084500  1
  N  N0  1  0.05428100  0.60801500  0.67305600  1
  N  N1  1  0.94571900  0.39198500  0.32694400  1
  N  N2  1  0.40975500  0.63081000  0.02304400  1
  N  N3  1  0.59024500  0.36919000  0.97695600  1
  N  N4  1  0.17608400  0.34382300  0.92435600  1
  N  N5  1  0.82391600  0.65617700  0.07564400  1
  N  N6  1  0.08400100  0.69985000  0.40584100  1
  N  N7  1  0.91599900  0.30015000  0.59415900  1
  N  N8  1  0.23534700  0.56615800  0.41169500  1
  N  N9  1  0.76465300  0.43384200  0.58830500  1
  N  N10  1  0.19773100  0.49597800  0.10431100  1
  N  N11  1  0.80226900  0.50402200  0.89568900  1
loop_
_geom_bond_atom_site_label_1
_geom_bond_atom_site_label_2
_geom_bond_distance
_geom_bond_site_symmetry_2
Hg0 I5 2.842409 1_545
Hg0 I0 2.854467 1_555
Hg0 I3 2.876390 1_545
Hg0 I6 2.887503 1_555
Hg1 I4 2.842409 1_565
Hg1 I1 2.854467 1_555
Hg1 I2 2.876390 1_565
Hg1 I7 2.887503 1_555
H0 N8 1.013213 1_555
H1 N9 1.013213 1_555
H2 N3 1.018272 1_554
H3 N2 1.018272 1_556
H4 N4 1.018558 1_555
H5 N5 1.018558 1_555
H6 N2 1.017033 1_555
H7 N3 1.017033 1_555
H8 N7 1.018800 1_455
H9 N6 1.018800 1_655
H10 N0 1.020097 1_555
H11 N1 1.020097 1_555
H12 N10 1.018278 1_555
H13 N11 1.018278 1_555
H14 N0 1.019311 1_555
H15 N1 1.019311 1_555
H16 N6 1.014078 1_555
H17 N7 1.014078 1_555
H18 N8 1.021473 1_555
H19 N9 1.021473 1_555
H20 N10 1.020494 1_555
H21 N11 1.020494 1_555
H22 N4 1.013242 1_555
H23 N5 1.013242 1_555
C0 N6 1.337919 1_555
C0 N1 1.339245 1_455
C0 N8 1.342181 1_555
C1 N7 1.337919 1_555
C1 N0 1.339245 1_655
C1 N9 1.342181 1_555
C2 N10 1.335697 1_555
C2 N4 1.337679 1_554
C2 N2 1.342587 1_555
C3 N11 1.335697 1_555
C3 N5 1.337679 1_556
C3 N3 1.342587 1_555
