# generated using pymatgen
data_Tb11Sn10
_symmetry_space_group_name_H-M   'P 1'
_cell_length_a   11.54404820
_cell_length_b   11.54400941
_cell_length_c   11.78415497
_cell_angle_alpha   119.32846693
_cell_angle_beta   119.32832861
_cell_angle_gamma   90.00428874
_symmetry_Int_Tables_number   1
_chemical_formula_structural   Tb11Sn10
_chemical_formula_sum   'Tb22 Sn20'
_cell_volume   1132.57793526
_cell_formula_units_Z   2
loop_
 _symmetry_equiv_pos_site_id
 _symmetry_equiv_pos_as_xyz
  1  'x, y, z'
loop_
 _atom_site_type_symbol
 _atom_site_label
 _atom_site_symmetry_multiplicity
 _atom_site_fract_x
 _atom_site_fract_y
 _atom_site_fract_z
 _atom_site_occupancy
  Tb  Tb0  1  0.93778973  0.18913638  0.37827868  1
  Tb  Tb1  1  0.44052066  0.18914725  0.37828559  1
  Tb  Tb2  1  0.18915831  0.44051070  0.37828451  1
  Tb  Tb3  1  0.18914839  0.93778301  0.37828069  1
  Tb  Tb4  1  0.06221027  0.81086362  0.62172132  1
  Tb  Tb5  1  0.55947934  0.81085275  0.62171441  1
  Tb  Tb6  1  0.81084169  0.55948930  0.62171549  1
  Tb  Tb7  1  0.81085161  0.06221699  0.62171931  1
  Tb  Tb8  1  0.82629279  0.17366833  0.99996066  1
  Tb  Tb9  1  0.17370721  0.82633167  0.00003934  1
  Tb  Tb10  1  0.17371523  0.17371472  0.00005607  1
  Tb  Tb11  1  0.82628477  0.82628528  0.99994393  1
  Tb  Tb12  1  0.33489410  0.33490169  0.66984337  1
  Tb  Tb13  1  0.66510590  0.66509831  0.33015663  1
  Tb  Tb14  1  0.06722093  0.39791620  0.79582038  1
  Tb  Tb15  1  0.72863220  0.39793155  0.79588943  1
  Tb  Tb16  1  0.39792457  0.72862605  0.79586318  1
  Tb  Tb17  1  0.39793450  0.06723964  0.79584714  1
  Tb  Tb18  1  0.93277907  0.60208380  0.20417962  1
  Tb  Tb19  1  0.27136780  0.60206845  0.20411057  1
  Tb  Tb20  1  0.60207543  0.27137395  0.20413682  1
  Tb  Tb21  1  0.60206550  0.93276036  0.20415286  1
  Sn  Sn0  1  0.99997950  0.35561409  0.99997626  1
  Sn  Sn1  1  0.00002050  0.64438591  0.00002374  1
  Sn  Sn2  1  0.35561225  0.99997756  0.99997278  1
  Sn  Sn3  1  0.64438775  0.00002244  0.00002722  1
  Sn  Sn4  1  0.11205815  0.11206649  0.22414700  1
  Sn  Sn5  1  0.88794185  0.88793351  0.77585300  1
  Sn  Sn6  1  0.62909001  0.37103844  0.00012865  1
  Sn  Sn7  1  0.37090999  0.62896156  0.99987135  1
  Sn  Sn8  1  0.37082886  0.37082923  0.99975807  1
  Sn  Sn9  1  0.62917114  0.62917077  0.00024193  1
  Sn  Sn10  1  0.74998108  0.25001193  0.50000060  1
  Sn  Sn11  1  0.25001892  0.74998807  0.49999940  1
  Sn  Sn12  1  0.11749202  0.53031945  0.64784397  1
  Sn  Sn13  1  0.53036406  0.11745178  0.64784835  1
  Sn  Sn14  1  0.53038967  0.53038601  0.64783270  1
  Sn  Sn15  1  0.11754143  0.11753849  0.64788647  1
  Sn  Sn16  1  0.88250798  0.46968055  0.35215603  1
  Sn  Sn17  1  0.46963594  0.88254822  0.35215165  1
  Sn  Sn18  1  0.46961033  0.46961399  0.35216730  1
  Sn  Sn19  1  0.88245857  0.88246151  0.35211353  1
loop_
_geom_bond_atom_site_label_1
_geom_bond_atom_site_label_2
_geom_bond_distance
_geom_bond_site_symmetry_2
Sn0 Tb8 2.903525 1_555
Sn0 Tb10 2.903888 1_656
Sn0 Tb15 3.099353 1_555
Sn0 Tb19 3.099603 1_656
Sn0 Tb14 3.099871 1_655
Sn0 Tb18 3.099946 1_556
Sn0 Tb7 3.432591 1_555
Sn0 Tb2 3.433084 1_656
Sn1 Tb9 2.903525 1_555
Sn1 Tb11 2.903888 1_454
Sn1 Tb19 3.099353 1_555
Sn1 Tb15 3.099603 1_454
Sn1 Tb18 3.099871 1_455
Sn1 Tb14 3.099946 1_554
Sn1 Tb3 3.432591 1_555
Sn1 Tb6 3.433084 1_454
Sn2 Tb9 2.903531 1_556
Sn2 Tb10 2.903881 1_566
Sn2 Tb16 3.099436 1_555
Sn2 Tb20 3.099655 1_566
Sn2 Tb17 3.099798 1_565
Sn2 Tb21 3.099852 1_556
Sn2 Tb4 3.432585 1_555
Sn2 Tb1 3.433078 1_566
Sn3 Tb8 2.903531 1_554
Sn3 Tb11 2.903881 1_544
Sn3 Tb20 3.099436 1_555
Sn3 Tb16 3.099655 1_544
Sn3 Tb21 3.099798 1_545
Sn3 Tb17 3.099852 1_554
Sn3 Tb0 3.432585 1_555
Sn3 Tb5 3.433078 1_544
Sn4 Tb0 3.183473 1_455
Sn4 Tb3 3.183647 1_545
Sn4 Tb2 3.183786 1_555
Sn4 Tb1 3.183992 1_555
Sn4 Tb11 3.415939 1_444
Sn4 Tb10 3.415958 1_555
Sn4 Tb9 3.416000 1_545
Sn4 Tb8 3.416272 1_454
Sn4 Tb12 3.787847 1_555
Sn5 Tb4 3.183473 1_655
Sn5 Tb7 3.183647 1_565
Sn5 Tb6 3.183786 1_555
Sn5 Tb5 3.183992 1_555
Sn5 Tb10 3.415939 1_666
Sn5 Tb11 3.415958 1_555
Sn5 Tb8 3.416000 1_565
Sn5 Tb9 3.416272 1_656
Sn5 Tb13 3.787847 1_555
Sn6 Sn9 2.979228 1_555
Sn6 Sn8 2.979242 1_554
Sn6 Tb8 3.220965 1_554
Sn6 Tb18 3.262528 1_555
Sn6 Tb20 3.262590 1_555
Sn6 Tb17 3.263492 1_554
Sn6 Tb15 3.263548 1_554
Sn6 Tb13 3.507719 1_555
Sn6 Tb12 3.509555 1_554
Sn7 Sn8 2.979228 1_555
Sn7 Sn9 2.979242 1_556
Sn7 Tb9 3.220965 1_556
Sn7 Tb14 3.262528 1_555
Sn7 Tb16 3.262590 1_555
Sn7 Tb21 3.263492 1_556
Sn7 Tb19 3.263548 1_556
Sn7 Tb12 3.507719 1_555
Sn7 Tb13 3.509555 1_556
Sn8 Tb10 3.220343 1_556
Sn8 Tb17 3.262107 1_555
Sn8 Tb14 3.262255 1_555
Sn8 Tb19 3.264191 1_556
Sn8 Tb20 3.264347 1_556
Sn8 Tb12 3.507034 1_555
Sn8 Tb13 3.510526 1_556
Sn9 Tb11 3.220343 1_554
Sn9 Tb21 3.262107 1_555
Sn9 Tb18 3.262255 1_555
Sn9 Tb15 3.264191 1_554
Sn9 Tb16 3.264347 1_554
Sn9 Tb13 3.507034 1_555
Sn9 Tb12 3.510526 1_554
Sn10 Tb1 3.050565 1_555
Sn10 Tb6 3.050736 1_555
Sn10 Tb7 3.051232 1_555
Sn10 Tb0 3.051412 1_555
Sn10 Tb14 3.184522 1_655
Sn10 Tb21 3.184682 1_545
Sn10 Tb20 3.184728 1_555
Sn10 Tb15 3.184888 1_555
Sn11 Tb5 3.050565 1_555
Sn11 Tb2 3.050736 1_555
Sn11 Tb3 3.051232 1_555
Sn11 Tb4 3.051412 1_555
Sn11 Tb18 3.184522 1_455
Sn11 Tb17 3.184682 1_565
Sn11 Tb16 3.184728 1_555
Sn11 Tb19 3.184888 1_555
Sn12 Sn16 2.888002 1_455
Sn12 Tb14 3.052209 1_555
Sn12 Tb16 3.052677 1_555
Sn12 Sn7 3.247632 1_555
Sn12 Tb0 3.345692 1_455
Sn12 Tb2 3.346349 1_555
Sn12 Tb12 3.375100 1_555
Sn12 Tb6 3.431280 1_455
Sn12 Tb4 3.431485 1_555
Sn12 Tb9 3.576461 1_556
Sn13 Sn17 2.887375 1_545
Sn13 Tb17 3.052368 1_555
Sn13 Tb15 3.052807 1_555
Sn13 Sn6 3.249873 1_556
Sn13 Tb3 3.345914 1_545
Sn13 Tb1 3.346564 1_555
Sn13 Tb12 3.375912 1_555
Sn13 Tb5 3.430570 1_545
Sn13 Tb7 3.430807 1_555
Sn13 Tb8 3.575503 1_555
Sn14 Sn18 2.886946 1_555
Sn14 Tb16 3.053113 1_555
Sn14 Tb15 3.053174 1_555
Sn14 Sn9 3.250885 1_556
Sn14 Tb2 3.346131 1_555
Sn14 Tb1 3.346184 1_555
Sn14 Tb12 3.376259 1_555
Sn14 Tb6 3.430246 1_555
Sn14 Tb5 3.430389 1_555
Sn14 Tb11 3.575151 1_555
Sn15 Sn19 2.888645 1_445
Sn15 Tb14 3.052441 1_555
Sn15 Tb17 3.052520 1_555
Sn15 Sn8 3.246060 1_555
Sn15 Tb0 3.346245 1_455
Sn15 Tb3 3.346303 1_545
Sn15 Tb12 3.374317 1_555
Sn15 Tb4 3.431307 1_545
Sn15 Tb7 3.431462 1_455
Sn15 Tb10 3.576432 1_556
Sn16 Tb18 3.052209 1_555
Sn16 Tb20 3.052677 1_555
Sn16 Sn6 3.247632 1_555
Sn16 Tb4 3.345692 1_655
Sn16 Tb6 3.346349 1_555
Sn16 Tb13 3.375100 1_555
Sn16 Tb2 3.431280 1_655
Sn16 Tb0 3.431485 1_555
Sn16 Tb8 3.576461 1_554
Sn17 Tb21 3.052368 1_555
Sn17 Tb19 3.052807 1_555
Sn17 Sn7 3.249873 1_554
Sn17 Tb7 3.345914 1_565
Sn17 Tb5 3.346564 1_555
Sn17 Tb13 3.375912 1_555
Sn17 Tb1 3.430570 1_565
Sn17 Tb3 3.430807 1_555
Sn17 Tb9 3.575503 1_555
Sn18 Tb20 3.053113 1_555
Sn18 Tb19 3.053174 1_555
Sn18 Sn8 3.250885 1_554
Sn18 Tb6 3.346131 1_555
Sn18 Tb5 3.346184 1_555
Sn18 Tb13 3.376259 1_555
Sn18 Tb2 3.430246 1_555
Sn18 Tb1 3.430389 1_555
Sn18 Tb10 3.575151 1_555
Sn19 Tb18 3.052441 1_555
Sn19 Tb21 3.052520 1_555
Sn19 Sn9 3.246060 1_555
Sn19 Tb4 3.346245 1_655
Sn19 Tb7 3.346303 1_565
Sn19 Tb13 3.374317 1_555
Sn19 Tb0 3.431307 1_565
Sn19 Tb3 3.431462 1_655
Sn19 Tb11 3.576432 1_554
