# generated using pymatgen
data_CeTl(WO4)2
_symmetry_space_group_name_H-M   'P 1'
_cell_length_a   8.24185409
_cell_length_b   8.24185409
_cell_length_c   7.69045956
_cell_angle_alpha   62.19771936
_cell_angle_beta   62.19771936
_cell_angle_gamma   92.90951420
_symmetry_Int_Tables_number   1
_chemical_formula_structural   CeTl(WO4)2
_chemical_formula_sum   'Ce2 Tl2 W4 O16'
_cell_volume   383.96834103
_cell_formula_units_Z   2
loop_
 _symmetry_equiv_pos_site_id
 _symmetry_equiv_pos_as_xyz
  1  'x, y, z'
loop_
 _atom_site_type_symbol
 _atom_site_label
 _atom_site_symmetry_multiplicity
 _atom_site_fract_x
 _atom_site_fract_y
 _atom_site_fract_z
 _atom_site_occupancy
  Ce  Ce0  1  0.26636400  0.26636400  0.91336100  1
  Ce  Ce1  1  0.73363600  0.73363600  0.08663900  1
  Tl  Tl0  1  0.28022300  0.71977700  0.00000000  1
  Tl  Tl1  1  0.71977700  0.28022300  0.00000000  1
  W  W0  1  0.75752600  0.75752600  0.48289000  1
  W  W1  1  0.24247400  0.24247400  0.51711000  1
  W  W2  1  0.15556700  0.84443300  0.50000000  1
  W  W3  1  0.84443300  0.15556700  0.50000000  1
  O  O0  1  0.66974000  0.89716800  0.64896200  1
  O  O1  1  0.33026000  0.10283200  0.35103800  1
  O  O2  1  0.10283200  0.33026000  0.35103800  1
  O  O3  1  0.89716800  0.66974000  0.64896200  1
  O  O4  1  0.31484000  0.81912100  0.26534500  1
  O  O5  1  0.68516000  0.18087900  0.73465500  1
  O  O6  1  0.18087900  0.68516000  0.73465500  1
  O  O7  1  0.81912100  0.31484000  0.26534500  1
  O  O8  1  0.32252000  0.10974300  0.72171800  1
  O  O9  1  0.67748000  0.89025700  0.27828200  1
  O  O10  1  0.89025700  0.67748000  0.27828200  1
  O  O11  1  0.10974300  0.32252000  0.72171800  1
  O  O12  1  0.01981100  0.01981100  0.29646300  1
  O  O13  1  0.98018900  0.98018900  0.70353700  1
  O  O14  1  0.46239500  0.46239500  0.27759300  1
  O  O15  1  0.53760500  0.53760500  0.72240700  1
loop_
_geom_bond_atom_site_label_1
_geom_bond_atom_site_label_2
_geom_bond_distance
_geom_bond_site_symmetry_2
Ce0 O8 2.291659 1_555
Ce0 O11 2.291659 1_555
Ce0 O12 2.312982 1_556
Ce0 O15 2.349357 1_555
Ce1 O9 2.291659 1_555
Ce1 O10 2.291659 1_555
Ce1 O13 2.312982 1_554
Ce1 O14 2.349357 1_555
O0 W3 1.948107 1_565
O0 W0 2.018158 1_555
O0 Tl0 2.736562 1_556
O1 W2 1.948107 1_545
O1 W1 2.018158 1_555
O1 Tl1 2.736562 1_555
O2 W3 1.948107 1_455
O2 W1 2.018158 1_555
O2 Tl0 2.736562 1_555
O3 W2 1.948107 1_655
O3 W0 2.018158 1_555
O3 Tl1 2.736562 1_556
O4 W2 1.786751 1_555
O4 Tl0 2.644609 1_555
O5 W3 1.786751 1_555
O5 Tl1 2.644609 1_556
O6 W2 1.786751 1_555
O6 Tl0 2.644609 1_556
O7 W3 1.786751 1_555
O7 Tl1 2.644609 1_555
O8 W1 1.882512 1_555
O8 Tl0 2.793833 1_546
O9 W0 1.882512 1_555
O9 Tl1 2.793833 1_565
O10 W0 1.882512 1_555
O10 Tl0 2.793833 1_655
O11 W1 1.882512 1_555
O11 Tl1 2.793833 1_456
O12 W0 2.268233 1_445
O12 W2 2.340659 1_545
O12 W3 2.340659 1_455
O13 W1 2.268233 1_665
O13 W2 2.340659 1_655
O13 W3 2.340659 1_565
O14 W1 1.844218 1_555
O15 W0 1.844218 1_555
