# generated using pymatgen
data_Zn5FeN4
_symmetry_space_group_name_H-M   'P 1'
_cell_length_a   8.93374900
_cell_length_b   6.03521800
_cell_length_c   4.76883100
_cell_angle_alpha   90.00000000
_cell_angle_beta   90.00000000
_cell_angle_gamma   90.00000000
_symmetry_Int_Tables_number   1
_chemical_formula_structural   Zn5FeN4
_chemical_formula_sum   'Zn10 Fe2 N8'
_cell_volume   257.12164651
_cell_formula_units_Z   2
loop_
 _symmetry_equiv_pos_site_id
 _symmetry_equiv_pos_as_xyz
  1  'x, y, z'
loop_
 _atom_site_type_symbol
 _atom_site_label
 _atom_site_symmetry_multiplicity
 _atom_site_fract_x
 _atom_site_fract_y
 _atom_site_fract_z
 _atom_site_occupancy
  Zn  Zn0  1  0.59807100  0.52156600  0.30151500  1
  Zn  Zn1  1  0.90192900  0.52156600  0.30151500  1
  Zn  Zn2  1  0.59807100  0.97843400  0.30151500  1
  Zn  Zn3  1  0.90192900  0.97843400  0.30151500  1
  Zn  Zn4  1  0.40192900  0.47843400  0.69848500  1
  Zn  Zn5  1  0.09807100  0.47843400  0.69848500  1
  Zn  Zn6  1  0.40192900  0.02156600  0.69848500  1
  Zn  Zn7  1  0.09807100  0.02156600  0.69848500  1
  Zn  Zn8  1  0.75000000  0.75000000  0.73644600  1
  Zn  Zn9  1  0.25000000  0.25000000  0.26355400  1
  Fe  Fe0  1  0.75000000  0.25000000  0.78253800  1
  Fe  Fe1  1  0.25000000  0.75000000  0.21746200  1
  N  N0  1  0.75000000  0.00956900  0.99735600  1
  N  N1  1  0.75000000  0.49043100  0.99735600  1
  N  N2  1  0.25000000  0.99043100  0.00264400  1
  N  N3  1  0.25000000  0.50956900  0.00264400  1
  N  N4  1  0.42585900  0.75000000  0.41766600  1
  N  N5  1  0.07414100  0.75000000  0.41766600  1
  N  N6  1  0.57414100  0.25000000  0.58233400  1
  N  N7  1  0.92585900  0.25000000  0.58233400  1
loop_
_geom_bond_atom_site_label_1
_geom_bond_atom_site_label_2
_geom_bond_distance
_geom_bond_site_symmetry_2
Fe0 N0 1.776236 1_555
Fe0 N1 1.776236 1_555
Fe0 N6 1.838429 1_555
Fe0 N7 1.838429 1_555
Fe1 N3 1.776236 1_555
Fe1 N2 1.776236 1_555
Fe1 N5 1.838429 1_555
Fe1 N4 1.838429 1_555
N0 Zn3 1.995360 1_546
N0 Zn2 1.995360 1_546
N0 Zn8 2.000555 1_545
N1 Zn1 1.995360 1_556
N1 Zn0 1.995360 1_556
N1 Zn8 2.000555 1_555
N2 Zn7 1.995360 1_564
N2 Zn6 1.995360 1_564
N2 Zn9 2.000555 1_565
N3 Zn5 1.995360 1_554
N3 Zn4 1.995360 1_554
N3 Zn9 2.000555 1_555
N4 Zn6 2.127273 1_565
N4 Zn4 2.127273 1_555
N4 Zn2 2.138799 1_555
N4 Zn0 2.138799 1_555
N5 Zn7 2.127273 1_565
N5 Zn5 2.127273 1_555
N5 Zn3 2.138799 1_455
N5 Zn1 2.138799 1_455
N6 Zn2 2.127273 1_545
N6 Zn0 2.127273 1_555
N6 Zn4 2.138799 1_555
N6 Zn6 2.138799 1_555
N7 Zn3 2.127273 1_545
N7 Zn1 2.127273 1_555
N7 Zn7 2.138799 1_655
N7 Zn5 2.138799 1_655
