# generated using pymatgen
data_Lu4FeGe8
_symmetry_space_group_name_H-M   'P 1'
_cell_length_a   3.94336400
_cell_length_b   4.08989400
_cell_length_c   15.73642500
_cell_angle_alpha   90.00000000
_cell_angle_beta   90.00000000
_cell_angle_gamma   90.00000000
_symmetry_Int_Tables_number   1
_chemical_formula_structural   Lu4FeGe8
_chemical_formula_sum   'Lu4 Fe1 Ge8'
_cell_volume   253.79613023
_cell_formula_units_Z   1
loop_
 _symmetry_equiv_pos_site_id
 _symmetry_equiv_pos_as_xyz
  1  'x, y, z'
loop_
 _atom_site_type_symbol
 _atom_site_label
 _atom_site_symmetry_multiplicity
 _atom_site_fract_x
 _atom_site_fract_y
 _atom_site_fract_z
 _atom_site_occupancy
  Lu  Lu0  1  0.25000000  0.00000000  0.10108900  1
  Lu  Lu1  1  0.25000000  0.50000000  0.60676900  1
  Lu  Lu2  1  0.75000000  0.50000000  0.39655400  1
  Lu  Lu3  1  0.75000000  0.00000000  0.89460200  1
  Fe  Fe0  1  0.25000000  0.00000000  0.30977400  1
  Ge  Ge0  1  0.25000000  0.00000000  0.45544300  1
  Ge  Ge1  1  0.25000000  0.50000000  0.94576000  1
  Ge  Ge2  1  0.75000000  0.50000000  0.05624300  1
  Ge  Ge3  1  0.75000000  0.00000000  0.56140000  1
  Ge  Ge4  1  0.25000000  0.50000000  0.23733200  1
  Ge  Ge5  1  0.25000000  0.00000000  0.74939400  1
  Ge  Ge6  1  0.75000000  0.00000000  0.23626800  1
  Ge  Ge7  1  0.75000000  0.50000000  0.75237300  1
loop_
_geom_bond_atom_site_label_1
_geom_bond_atom_site_label_2
_geom_bond_distance
_geom_bond_site_symmetry_2
Fe0 Ge6 2.285943 1_455
Fe0 Ge6 2.285943 1_555
Fe0 Ge0 2.292309 1_555
Fe0 Ge4 2.341230 1_555
Fe0 Ge4 2.341230 1_545
Fe0 Lu2 3.151860 1_545
Fe0 Lu2 3.151860 1_445
Fe0 Lu2 3.151860 1_455
Fe0 Lu2 3.151860 1_555
Ge0 Ge3 2.582189 1_555
Ge0 Ge3 2.582189 1_455
Ge0 Lu2 2.987995 1_555
Ge0 Lu2 2.987995 1_545
Ge0 Lu2 2.987995 1_445
Ge0 Lu2 2.987995 1_455
Ge0 Lu1 3.138876 1_545
Ge0 Lu1 3.138876 1_555
Ge1 Ge2 2.628742 1_456
Ge1 Ge2 2.628742 1_556
Ge1 Lu3 2.952530 1_455
Ge1 Lu3 2.952530 1_555
Ge1 Lu3 2.952530 1_565
Ge1 Lu3 2.952530 1_465
Ge1 Lu0 3.186930 1_556
Ge1 Lu0 3.186930 1_566
Ge2 Lu0 2.927007 1_555
Ge2 Lu0 2.927007 1_655
Ge2 Lu0 2.927007 1_565
Ge2 Lu0 2.927007 1_665
Ge2 Lu3 3.263736 1_564
Ge2 Lu3 3.263736 1_554
Ge3 Lu1 2.929003 1_555
Ge3 Lu1 2.929003 1_545
Ge3 Lu1 2.929003 1_655
Ge3 Lu1 2.929003 1_645
Ge3 Lu2 3.303195 1_545
Ge3 Lu2 3.303195 1_555
Ge4 Ge6 2.840707 1_455
Ge4 Ge6 2.840707 1_555
Ge4 Ge6 2.840707 1_565
Ge4 Ge6 2.840707 1_465
Ge4 Lu0 2.962845 1_555
Ge4 Lu0 2.962845 1_565
Ge4 Lu2 3.188336 1_455
Ge4 Lu2 3.188336 1_555
Ge5 Ge7 2.841045 1_555
Ge5 Ge7 2.841045 1_445
Ge5 Ge7 2.841045 1_545
Ge5 Ge7 2.841045 1_455
Ge5 Lu3 3.018113 1_455
Ge5 Lu3 3.018113 1_555
Ge5 Lu1 3.036309 1_555
Ge5 Lu1 3.036309 1_545
Ge6 Lu0 2.900458 1_555
Ge6 Lu0 2.900458 1_655
Ge6 Lu2 3.247145 1_545
Ge6 Lu2 3.247145 1_555
Ge7 Lu1 3.022834 1_655
Ge7 Lu1 3.022834 1_555
Ge7 Lu3 3.031706 1_555
Ge7 Lu3 3.031706 1_565
