# generated using pymatgen
data_RbVO3
_symmetry_space_group_name_H-M   'P 1'
_cell_length_a   5.31955200
_cell_length_b   5.70559893
_cell_length_c   11.31629318
_cell_angle_alpha   90.00000000
_cell_angle_beta   90.00000000
_cell_angle_gamma   90.00000000
_symmetry_Int_Tables_number   1
_chemical_formula_structural   RbVO3
_chemical_formula_sum   'Rb4 V4 O12'
_cell_volume   343.46341931
_cell_formula_units_Z   4
loop_
 _symmetry_equiv_pos_site_id
 _symmetry_equiv_pos_as_xyz
  1  'x, y, z'
loop_
 _atom_site_type_symbol
 _atom_site_label
 _atom_site_symmetry_multiplicity
 _atom_site_fract_x
 _atom_site_fract_y
 _atom_site_fract_z
 _atom_site_occupancy
  Rb  Rb0  1  0.93297370  0.75000000  0.10124343  1
  Rb  Rb1  1  0.93297370  0.25000000  0.39875657  1
  Rb  Rb2  1  0.06702630  0.25000000  0.89875657  1
  Rb  Rb3  1  0.06702630  0.75000000  0.60124343  1
  V  V0  1  0.46695241  0.75000000  0.33494665  1
  V  V1  1  0.46695241  0.25000000  0.16505335  1
  V  V2  1  0.53304759  0.25000000  0.66505335  1
  V  V3  1  0.53304759  0.75000000  0.83494665  1
  O  O0  1  0.42897170  0.50000000  0.75000000  1
  O  O1  1  0.57102830  -0.00000000  0.25000000  1
  O  O2  1  0.57102830  0.50000000  0.25000000  1
  O  O3  1  0.42897170  0.00000000  0.75000000  1
  O  O4  1  0.60070133  0.75000000  0.46628750  1
  O  O5  1  0.60070133  0.25000000  0.03371250  1
  O  O6  1  0.39929867  0.25000000  0.53371250  1
  O  O7  1  0.39929867  0.75000000  0.96628750  1
  O  O8  1  0.84370322  0.75000000  0.84855440  1
  O  O9  1  0.84370322  0.25000000  0.65144560  1
  O  O10  1  0.15629678  0.25000000  0.15144560  1
  O  O11  1  0.15629678  0.75000000  0.34855440  1
loop_
_geom_bond_atom_site_label_1
_geom_bond_atom_site_label_2
_geom_bond_distance
_geom_bond_site_symmetry_2
O0 V3 1.806984 1_555
O0 V2 1.806984 1_555
O0 Rb3 2.928392 1_555
O0 Rb2 2.928392 1_555
O1 V0 1.806984 1_545
O1 V1 1.806984 1_555
O1 Rb1 2.928392 1_555
O1 Rb0 2.928392 1_545
O2 V1 1.806984 1_555
O2 V0 1.806984 1_555
O2 Rb0 2.928392 1_555
O2 Rb1 2.928392 1_555
O3 V3 1.806984 1_545
O3 V2 1.806984 1_555
O3 Rb2 2.928392 1_555
O3 Rb3 2.928392 1_545
O4 V0 1.647808 1_555
O4 Rb3 2.913060 1_655
O4 Rb3 3.223626 1_555
O4 Rb1 3.441898 1_565
O4 Rb1 3.441898 1_555
O5 V1 1.647808 1_555
O5 Rb2 2.913060 1_654
O5 Rb2 3.223626 1_554
O5 Rb0 3.441898 1_555
O5 Rb0 3.441898 1_545
O6 V2 1.647808 1_555
O6 Rb1 2.913060 1_455
O6 Rb1 3.223626 1_555
O6 Rb3 3.441898 1_545
O6 Rb3 3.441898 1_555
O7 V3 1.647808 1_555
O7 Rb0 2.913060 1_456
O7 Rb0 3.223626 1_556
O7 Rb2 3.441898 1_565
O7 Rb2 3.441898 1_555
O8 V3 1.659708 1_555
O8 Rb0 2.898667 1_556
O8 Rb3 3.040345 1_655
O8 Rb2 3.142053 1_655
O8 Rb2 3.142053 1_665
O9 V2 1.659708 1_555
O9 Rb1 2.898667 1_555
O9 Rb2 3.040345 1_655
O9 Rb3 3.142053 1_645
O9 Rb3 3.142053 1_655
O10 V1 1.659708 1_555
O10 Rb2 2.898667 1_554
O10 Rb1 3.040345 1_455
O10 Rb0 3.142053 1_455
O10 Rb0 3.142053 1_445
O11 V0 1.659708 1_555
O11 Rb3 2.898667 1_555
O11 Rb0 3.040345 1_455
O11 Rb1 3.142053 1_465
O11 Rb1 3.142053 1_455
