# generated using pymatgen
data_Na3GaS3
_symmetry_space_group_name_H-M   'P 1'
_cell_length_a   6.89427240
_cell_length_b   7.15216244
_cell_length_c   14.44955343
_cell_angle_alpha   60.98063745
_cell_angle_beta   90.00000000
_cell_angle_gamma   90.00000000
_symmetry_Int_Tables_number   1
_chemical_formula_structural   Na3GaS3
_chemical_formula_sum   'Na12 Ga4 S12'
_cell_volume   623.04312261
_cell_formula_units_Z   4
loop_
 _symmetry_equiv_pos_site_id
 _symmetry_equiv_pos_as_xyz
  1  'x, y, z'
loop_
 _atom_site_type_symbol
 _atom_site_label
 _atom_site_symmetry_multiplicity
 _atom_site_fract_x
 _atom_site_fract_y
 _atom_site_fract_z
 _atom_site_occupancy
  Na  Na0  1  0.03496408  0.93522798  0.28972801  1
  Na  Na1  1  0.53496408  0.06477202  0.21027199  1
  Na  Na2  1  0.96503592  0.06477202  0.71027199  1
  Na  Na3  1  0.46503592  0.93522798  0.78972801  1
  Na  Na4  1  0.99860877  0.72705605  0.11070370  1
  Na  Na5  1  0.49860877  0.27294395  0.38929630  1
  Na  Na6  1  0.00139123  0.27294395  0.88929630  1
  Na  Na7  1  0.50139123  0.72705605  0.61070370  1
  Na  Na8  1  0.99949213  0.30861247  0.39722490  1
  Na  Na9  1  0.49949213  0.69138753  0.10277510  1
  Na  Na10  1  0.00050787  0.69138753  0.60277510  1
  Na  Na11  1  0.50050787  0.30861247  0.89722490  1
  Ga  Ga0  1  0.85654220  0.66779973  0.91751830  1
  Ga  Ga1  1  0.14345780  0.33220027  0.08248170  1
  Ga  Ga2  1  0.64345780  0.66779973  0.41751830  1
  Ga  Ga3  1  0.35654220  0.33220027  0.58248170  1
  S  S0  1  0.24341231  0.04919722  0.57300321  1
  S  S1  1  0.25658769  0.04919722  0.07300321  1
  S  S2  1  0.74341231  0.95080278  0.92699679  1
  S  S3  1  0.75658769  0.95080278  0.42699679  1
  S  S4  1  0.80391479  0.35215463  0.07107635  1
  S  S5  1  0.30391479  0.64784537  0.42892365  1
  S  S6  1  0.19608521  0.64784537  0.92892365  1
  S  S7  1  0.69608521  0.35215463  0.57107635  1
  S  S8  1  0.24474284  0.34317776  0.22705514  1
  S  S9  1  0.74474284  0.65682224  0.27294486  1
  S  S10  1  0.75525716  0.65682224  0.77294486  1
  S  S11  1  0.25525716  0.34317776  0.72705514  1
loop_
_geom_bond_atom_site_label_1
_geom_bond_atom_site_label_2
_geom_bond_distance
_geom_bond_site_symmetry_2
Na0 S5 2.774400 1_555
Na0 S3 2.800763 1_455
Na0 S9 2.914731 1_455
Na0 S8 2.976802 1_565
Na0 S1 3.213906 1_565
Na1 S4 2.774400 1_555
Na1 S1 2.800763 1_555
Na1 S8 2.914731 1_555
Na1 S9 2.976802 1_545
Na1 S3 3.213906 1_545
Na2 S7 2.774400 1_555
Na2 S0 2.800763 1_655
Na2 S11 2.914731 1_655
Na2 S10 2.976802 1_545
Na2 S2 3.213906 1_545
Na3 S6 2.774400 1_555
Na3 S2 2.800763 1_555
Na3 S10 2.914731 1_555
Na3 S11 2.976802 1_565
Na3 S0 3.213906 1_565
Na4 S1 2.747873 1_665
Na4 S9 2.769274 1_555
Na4 S2 2.929380 1_554
Na4 S8 2.960699 1_655
Na5 S3 2.747873 1_545
Na5 S8 2.769274 1_555
Na5 S0 2.929380 1_555
Na5 S9 2.960699 1_555
Na6 S2 2.747873 1_445
Na6 S11 2.769274 1_555
Na6 S1 2.929380 1_556
Na6 S10 2.960699 1_455
Na7 S0 2.747873 1_565
Na7 S10 2.769274 1_555
Na7 S3 2.929380 1_555
Na7 S11 2.960699 1_555
Na8 S0 2.854723 1_655
Na8 S9 2.858801 1_555
Na8 S8 2.894186 1_655
Na8 S3 2.910406 1_545
Na9 S2 2.854723 1_554
Na9 S8 2.858801 1_555
Na9 S9 2.894186 1_555
Na9 S1 2.910406 1_565
Na10 S3 2.854723 1_455
Na10 S11 2.858801 1_555
Na10 S10 2.894186 1_455
Na10 S0 2.910406 1_565
Na11 S1 2.854723 1_556
Na11 S10 2.858801 1_555
Na11 S11 2.894186 1_555
Na11 S2 2.910406 1_545
Ga0 S2 2.234492 1_555
Ga0 S10 2.239846 1_555
Ga0 S4 2.300327 1_556
Ga0 S6 2.346174 1_655
Ga0 Na2 3.056021 1_565
Ga1 S1 2.234492 1_555
Ga1 S8 2.239846 1_555
Ga1 S6 2.300327 1_554
Ga1 S4 2.346174 1_455
Ga1 Na0 3.056021 1_545
Ga2 S3 2.234492 1_555
Ga2 S9 2.239846 1_555
Ga2 S7 2.300327 1_555
Ga2 S5 2.346174 1_555
Ga2 Na1 3.056021 1_565
Ga3 S0 2.234492 1_555
Ga3 S11 2.239846 1_555
Ga3 S5 2.300327 1_555
Ga3 S7 2.346174 1_555
Ga3 Na3 3.056021 1_545
