# generated using pymatgen
data_Co5P4H12(O8F)2
_symmetry_space_group_name_H-M   'P 1'
_cell_length_a   8.64218700
_cell_length_b   9.97801500
_cell_length_c   10.26868921
_cell_angle_alpha   90.00000000
_cell_angle_beta   114.88528708
_cell_angle_gamma   90.00000000
_symmetry_Int_Tables_number   1
_chemical_formula_structural   Co5P4H12(O8F)2
_chemical_formula_sum   'Co10 P8 H24 O32 F4'
_cell_volume   803.27256218
_cell_formula_units_Z   2
loop_
 _symmetry_equiv_pos_site_id
 _symmetry_equiv_pos_as_xyz
  1  'x, y, z'
loop_
 _atom_site_type_symbol
 _atom_site_label
 _atom_site_symmetry_multiplicity
 _atom_site_fract_x
 _atom_site_fract_y
 _atom_site_fract_z
 _atom_site_occupancy
  Co  Co0  1  0.05247300  0.41992300  0.36083000  1
  Co  Co1  1  0.69164300  0.58007700  0.63917000  1
  Co  Co2  1  0.55247300  0.08007700  0.36083000  1
  Co  Co3  1  0.19164300  0.91992300  0.63917000  1
  Co  Co4  1  0.06759000  0.57456700  0.64781800  1
  Co  Co5  1  0.41977200  0.42543300  0.35218200  1
  Co  Co6  1  0.56759000  0.92543300  0.64781800  1
  Co  Co7  1  0.91977200  0.07456700  0.35218200  1
  Co  Co8  1  0.04786700  0.50000000  0.00000000  1
  Co  Co9  1  0.54786700  0.00000000  0.00000000  1
  P  P0  1  0.82469800  0.31449100  0.54070400  1
  P  P1  1  0.28399400  0.68550900  0.45929600  1
  P  P2  1  0.32469800  0.18550900  0.54070400  1
  P  P3  1  0.78399400  0.81449100  0.45929600  1
  P  P4  1  0.79382700  0.27078600  0.07219100  1
  P  P5  1  0.72163600  0.72921400  0.92780900  1
  P  P6  1  0.29382700  0.22921400  0.07219100  1
  P  P7  1  0.22163600  0.77078600  0.92780900  1
  H  H0  1  0.85509600  0.58636400  0.15641300  1
  H  H1  1  0.69868400  0.41363600  0.84358700  1
  H  H2  1  0.35509600  0.91363600  0.15641300  1
  H  H3  1  0.19868400  0.08636400  0.84358700  1
  H  H4  1  0.76656100  0.57627400  0.26978400  1
  H  H5  1  0.49677700  0.42372600  0.73021600  1
  H  H6  1  0.26656100  0.92372600  0.26978400  1
  H  H7  1  0.99677700  0.07627400  0.73021600  1
  H  H8  1  0.02890900  0.02885300  0.16199400  1
  H  H9  1  0.86691500  0.97114700  0.83800600  1
  H  H10  1  0.52890900  0.47114700  0.16199400  1
  H  H11  1  0.36691500  0.52885300  0.83800600  1
  H  H12  1  0.90047900  0.91133100  0.14148600  1
  H  H13  1  0.75899300  0.08866900  0.85851400  1
  H  H14  1  0.40047900  0.58866900  0.14148600  1
  H  H15  1  0.25899300  0.41133100  0.85851400  1
  H  H16  1  0.65201000  0.33649500  0.07798400  1
  H  H17  1  0.57402600  0.66350500  0.92201600  1
  H  H18  1  0.15201000  0.16350500  0.07798400  1
  H  H19  1  0.07402600  0.83649500  0.92201600  1
  H  H20  1  0.88436800  0.27589300  0.68574400  1
  H  H21  1  0.19862500  0.72410700  0.31425600  1
  H  H22  1  0.38436800  0.22410700  0.68574400  1
  H  H23  1  0.69862500  0.77589300  0.31425600  1
  O  O0  1  0.96872200  0.39425000  0.52602000  1
  O  O1  1  0.44270200  0.60575000  0.47398000  1
  O  O2  1  0.46872200  0.10575000  0.52602000  1
  O  O3  1  0.94270200  0.89425000  0.47398000  1
  O  O4  1  0.84710000  0.53468700  0.23804400  1
  O  O5  1  0.60905600  0.46531300  0.76195600  1
  O  O6  1  0.34710000  0.96531200  0.23804400  1
  O  O7  1  0.10905600  0.03468700  0.76195600  1
  O  O8  1  0.92555700  0.24962600  0.23074100  1
  O  O9  1  0.69481500  0.75037400  0.76925900  1
  O  O10  1  0.42555700  0.25037400  0.23074100  1
  O  O11  1  0.19481500  0.74962600  0.76925900  1
  O  O12  1  0.15700100  0.59711400  0.49094400  1
  O  O13  1  0.66605800  0.40288600  0.50905600  1
  O  O14  1  0.65700100  0.90288600  0.49094400  1
  O  O15  1  0.16605800  0.09711400  0.50905600  1
  O  O16  1  0.28150400  0.31545500  0.44987100  1
  O  O17  1  0.83163400  0.68454500  0.55012900  1
  O  O18  1  0.78150400  0.18454500  0.44987100  1
  O  O19  1  0.33163400  0.81545500  0.55012900  1
  O  O20  1  0.86073500  0.35906500  0.98494400  1
  O  O21  1  0.87579200  0.64093500  0.01505600  1
  O  O22  1  0.36073500  0.14093500  0.98494400  1
  O  O23  1  0.37579200  0.85906500  0.01505600  1
  O  O24  1  0.72488900  0.13854300  0.99207800  1
  O  O25  1  0.73281100  0.86145700  0.00792200  1
  O  O26  1  0.22488900  0.36145700  0.99207800  1
  O  O27  1  0.23281100  0.63854300  0.00792200  1
  O  O28  1  0.00128300  0.96094900  0.21723300  1
  O  O29  1  0.78405100  0.03905100  0.78276700  1
  O  O30  1  0.50128300  0.53905100  0.21723300  1
  O  O31  1  0.28405100  0.46094900  0.78276700  1
  F  F0  1  0.16747500  0.47825700  0.22332400  1
  F  F1  1  0.94415100  0.52174300  0.77667600  1
  F  F2  1  0.66747500  0.02174300  0.22332400  1
  F  F3  1  0.44415100  0.97825700  0.77667600  1
loop_
_geom_bond_atom_site_label_1
_geom_bond_atom_site_label_2
_geom_bond_distance
_geom_bond_site_symmetry_2
Co0 O4 2.041524 1_455
Co0 O16 2.077788 1_555
Co0 O0 2.121359 1_455
Co0 F0 2.121649 1_555
Co0 O8 2.154477 1_455
Co0 O12 2.170551 1_555
Co1 O5 2.041524 1_555
Co1 O17 2.077794 1_555
Co1 O1 2.121359 1_555
Co1 F1 2.121649 1_555
Co1 O9 2.154479 1_555
Co1 O13 2.170552 1_555
Co2 O6 2.041530 1_545
Co2 O18 2.077788 1_555
Co2 O2 2.121359 1_555
Co2 F2 2.121649 1_555
Co2 O10 2.154477 1_555
Co2 O14 2.170551 1_545
Co3 O7 2.041524 1_565
Co3 O19 2.077794 1_555
Co3 O3 2.121359 1_455
Co3 F3 2.121649 1_555
Co3 O11 2.154479 1_555
Co3 O15 2.170552 1_565
Co4 O12 2.071290 1_555
Co4 F1 2.086789 1_455
Co4 O31 2.126813 1_555
Co4 O0 2.152228 1_455
Co4 O17 2.155727 1_455
Co4 O11 2.158975 1_555
Co5 O13 2.071296 1_555
Co5 F0 2.086789 1_555
Co5 O30 2.126808 1_555
Co5 O1 2.152228 1_555
Co5 O16 2.155734 1_555
Co5 O10 2.158978 1_555
Co6 O14 2.071290 1_555
Co6 F3 2.086789 1_555
Co6 O29 2.126813 1_565
Co6 O2 2.152228 1_565
Co6 O19 2.155727 1_555
Co6 O9 2.158975 1_555
Co7 O15 2.071296 1_655
Co7 F2 2.086789 1_555
Co7 O28 2.126808 1_645
Co7 O3 2.152228 1_545
Co7 O18 2.155734 1_555
Co7 O8 2.158978 1_555
Co8 O27 2.088733 1_555
Co8 O26 2.088733 1_554
Co8 F0 2.092731 1_555
Co8 F1 2.092731 1_454
Co8 O21 2.099148 1_455
Co8 O20 2.099154 1_454
Co9 O25 2.088733 1_545
Co9 O24 2.088733 1_554
Co9 F2 2.092731 1_555
Co9 F3 2.092731 1_544
Co9 O23 2.099148 1_545
Co9 O22 2.099154 1_554
H0 O4 1.010968 1_555
H0 O21 1.629105 1_555
H1 O5 1.010971 1_555
H1 O20 1.629096 1_555
H2 O6 1.010963 1_555
H2 O23 1.629105 1_555
H3 O7 1.010971 1_555
H3 O22 1.629096 1_555
H4 O4 0.976629 1_555
H5 O5 0.976629 1_555
H6 O6 0.976624 1_555
H7 O7 0.976629 1_655
H8 O28 0.975602 1_545
H9 O29 0.975598 1_565
H10 O30 0.975602 1_555
H11 O31 0.975598 1_555
H12 O28 1.019201 1_655
H12 O25 1.598690 1_555
H13 O29 1.019205 1_555
H13 O24 1.598690 1_555
H14 O30 1.019201 1_555
H14 O27 1.598690 1_555
H15 O31 1.019205 1_555
H15 O26 1.598690 1_555
H16 P4 1.413112 1_555
H17 P5 1.413112 1_555
H18 P6 1.413112 1_555
H19 P7 1.413112 1_555
H20 P0 1.409288 1_555
H21 P1 1.409287 1_555
H22 P2 1.409288 1_555
H23 P3 1.409287 1_555
O0 P0 1.537296 1_555
O1 P1 1.537296 1_555
O2 P2 1.537296 1_555
O3 P3 1.537296 1_555
O8 P4 1.559301 1_555
O9 P5 1.559298 1_555
O10 P6 1.559301 1_555
O11 P7 1.559298 1_555
O12 P1 1.545388 1_555
O13 P0 1.545381 1_555
O14 P3 1.545388 1_555
O15 P2 1.545381 1_555
O16 P2 1.548383 1_555
O17 P3 1.548383 1_555
O18 P0 1.548383 1_555
O19 P1 1.548383 1_555
O20 P4 1.532611 1_556
O21 P5 1.532616 1_554
O22 P6 1.532611 1_556
O23 P7 1.532616 1_554
O24 P4 1.536348 1_556
O25 P5 1.536348 1_554
O26 P6 1.536348 1_556
O27 P7 1.536348 1_554
