# generated using pymatgen
data_Li3CrCo3O8
_symmetry_space_group_name_H-M   'P 1'
_cell_length_a   5.89818441
_cell_length_b   5.84748528
_cell_length_c   10.39747916
_cell_angle_alpha   73.40056638
_cell_angle_beta   106.23801815
_cell_angle_gamma   119.81199547
_symmetry_Int_Tables_number   1
_chemical_formula_structural   Li3CrCo3O8
_chemical_formula_sum   'Li6 Cr2 Co6 O16'
_cell_volume   294.06897381
_cell_formula_units_Z   2
loop_
 _symmetry_equiv_pos_site_id
 _symmetry_equiv_pos_as_xyz
  1  'x, y, z'
loop_
 _atom_site_type_symbol
 _atom_site_label
 _atom_site_symmetry_multiplicity
 _atom_site_fract_x
 _atom_site_fract_y
 _atom_site_fract_z
 _atom_site_occupancy
  Li  Li0  1  0.25250100  0.25159700  0.25080600  1
  Li  Li1  1  0.74751800  0.74851900  0.74918200  1
  Li  Li2  1  0.74621600  0.74862400  0.24958100  1
  Li  Li3  1  0.25370500  0.25138200  0.75039200  1
  Li  Li4  1  0.24766900  0.74385500  0.24982200  1
  Li  Li5  1  0.75232700  0.25608300  0.75017300  1
  Cr  Cr0  1  0.00022800  0.00016100  0.00026100  1
  Cr  Cr1  1  0.50008900  0.49981700  0.49991400  1
  Co  Co0  1  0.00004500  0.99994500  0.50000500  1
  Co  Co1  1  0.00005900  0.49995000  0.49998600  1
  Co  Co2  1  0.50000800  0.99979200  0.49997100  1
  Co  Co3  1  0.50000200  0.50018300  0.99996400  1
  Co  Co4  1  0.49990400  0.99999400  0.99991500  1
  Co  Co5  1  0.99997000  0.50015900  0.99996200  1
  O  O0  1  0.37401900  0.63347800  0.11587000  1
  O  O1  1  0.87455300  0.14265600  0.61316900  1
  O  O2  1  0.12544000  0.85730400  0.38680800  1
  O  O3  1  0.62583900  0.36656500  0.88414500  1
  O  O4  1  0.34950800  0.11581000  0.10783200  1
  O  O5  1  0.85987300  0.63920200  0.60716100  1
  O  O6  1  0.86743300  0.63186100  0.10605300  1
  O  O7  1  0.38756800  0.14462600  0.60884700  1
  O  O8  1  0.87892700  0.11922400  0.10812200  1
  O  O9  1  0.37979600  0.61563300  0.60929400  1
  O  O10  1  0.62011100  0.38423200  0.39062900  1
  O  O11  1  0.12083900  0.88094000  0.89184500  1
  O  O12  1  0.61282800  0.85536300  0.39113000  1
  O  O13  1  0.13250600  0.36813400  0.89411400  1
  O  O14  1  0.14016500  0.36068700  0.39281600  1
  O  O15  1  0.65035200  0.88422600  0.89222800  1
loop_
_geom_bond_atom_site_label_1
_geom_bond_atom_site_label_2
_geom_bond_distance
_geom_bond_site_symmetry_2
Li0 O14 2.128771 1_555
Li0 O10 2.150717 1_555
Li0 O0 2.156277 1_555
Li0 O4 2.183925 1_555
Li0 O8 2.187973 1_455
Li0 O2 2.211095 1_545
Li1 O5 2.129810 1_555
Li1 O9 2.151553 1_555
Li1 O3 2.156694 1_555
Li1 O15 2.184839 1_555
Li1 O11 2.186920 1_655
Li1 O1 2.210515 1_565
Li2 O10 2.119661 1_555
Li2 O0 2.136286 1_555
Li2 O8 2.146702 1_565
Li2 O2 2.182324 1_655
Li2 O12 2.198924 1_555
Li2 O6 2.206498 1_555
Li3 O9 2.119397 1_555
Li3 O3 2.136227 1_555
Li3 O11 2.146136 1_545
Li3 O1 2.182001 1_455
Li3 O7 2.200876 1_555
Li3 O13 2.208110 1_555
Li4 O0 2.117566 1_555
Li4 O2 2.139659 1_555
Li4 O12 2.145663 1_555
Li4 O4 2.152505 1_565
Li4 O14 2.200910 1_555
Li4 O6 2.217476 1_455
Li5 O3 2.118711 1_555
Li5 O1 2.139720 1_555
Li5 O7 2.144196 1_555
Li5 O15 2.152414 1_545
Li5 O5 2.200795 1_555
Li5 O13 2.218095 1_655
Cr0 O8 1.909044 1_455
Cr0 O11 1.911380 1_544
Cr0 O4 1.926310 1_555
Cr0 O15 1.930697 1_444
Cr0 O13 1.977920 1_554
Cr0 O6 1.978035 1_445
Cr1 O10 1.900924 1_555
Cr1 O9 1.903824 1_555
Cr1 O7 1.934644 1_555
Cr1 O12 1.935557 1_555
Cr1 O14 1.971509 1_555
Cr1 O5 1.971571 1_555
Co0 O5 1.952652 1_455
Co0 O14 1.952764 1_565
Co0 O2 2.071008 1_555
Co0 O1 2.071453 1_465
Co0 O12 2.096036 1_455
Co0 O7 2.097257 1_565
Co1 O1 1.960239 1_455
Co1 O2 1.960455 1_555
Co1 O9 2.067603 1_555
Co1 O10 2.068719 1_455
Co1 O14 2.071291 1_555
Co1 O5 2.071635 1_455
Co2 O12 1.990668 1_555
Co2 O7 1.991159 1_565
Co2 O2 2.058055 1_555
Co2 O1 2.058177 1_565
Co2 O9 2.061326 1_555
Co2 O10 2.062672 1_565
Co3 O13 1.998258 1_555
Co3 O6 1.998856 1_556
Co3 O15 2.054858 1_555
Co3 O0 2.055580 1_556
Co3 O3 2.055618 1_555
Co3 O4 2.056772 1_556
Co4 O3 2.009488 1_565
Co4 O0 2.010022 1_556
Co4 O15 2.021231 1_555
Co4 O4 2.023045 1_566
Co4 O11 2.059210 1_555
Co4 O8 2.059456 1_566
Co5 O13 1.996239 1_655
Co5 O6 1.996798 1_556
Co5 O11 2.041927 1_655
Co5 O8 2.042721 1_556
Co5 O3 2.065717 1_555
Co5 O0 2.065720 1_656
