# generated using pymatgen
data_Y2Ga3Fe14
_symmetry_space_group_name_H-M   'P 1'
_cell_length_a   8.56322578
_cell_length_b   8.56322578
_cell_length_c   8.23820500
_cell_angle_alpha   90.00000000
_cell_angle_beta   90.00000000
_cell_angle_gamma   119.99999830
_symmetry_Int_Tables_number   1
_chemical_formula_structural   Y2Ga3Fe14
_chemical_formula_sum   'Y4 Ga6 Fe28'
_cell_volume   523.16420720
_cell_formula_units_Z   2
loop_
 _symmetry_equiv_pos_site_id
 _symmetry_equiv_pos_as_xyz
  1  'x, y, z'
loop_
 _atom_site_type_symbol
 _atom_site_label
 _atom_site_symmetry_multiplicity
 _atom_site_fract_x
 _atom_site_fract_y
 _atom_site_fract_z
 _atom_site_occupancy
  Y  Y0  1  0.00000000  0.00000000  0.25000000  1
  Y  Y1  1  0.00000000  0.00000000  0.75000000  1
  Y  Y2  1  0.33333300  0.66666700  0.75000000  1
  Y  Y3  1  0.66666700  0.33333300  0.25000000  1
  Ga  Ga0  1  0.50000000  0.50000000  0.50000000  1
  Ga  Ga1  1  0.50000000  0.00000000  0.50000000  1
  Ga  Ga2  1  0.00000000  0.50000000  0.50000000  1
  Ga  Ga3  1  0.50000000  0.50000000  0.00000000  1
  Ga  Ga4  1  0.50000000  0.00000000  0.00000000  1
  Ga  Ga5  1  0.00000000  0.50000000  0.00000000  1
  Fe  Fe0  1  0.33333300  0.66666700  0.38844700  1
  Fe  Fe1  1  0.66666700  0.33333300  0.61155300  1
  Fe  Fe2  1  0.66666700  0.33333300  0.88844700  1
  Fe  Fe3  1  0.33333300  0.66666700  0.11155300  1
  Fe  Fe4  1  0.32193300  0.35150000  0.25000000  1
  Fe  Fe5  1  0.64850000  0.97043300  0.25000000  1
  Fe  Fe6  1  0.02956700  0.67806700  0.25000000  1
  Fe  Fe7  1  0.64850000  0.67806700  0.25000000  1
  Fe  Fe8  1  0.02956700  0.35150000  0.25000000  1
  Fe  Fe9  1  0.32193300  0.97043300  0.25000000  1
  Fe  Fe10  1  0.67806700  0.64850000  0.75000000  1
  Fe  Fe11  1  0.35150000  0.02956700  0.75000000  1
  Fe  Fe12  1  0.97043300  0.32193300  0.75000000  1
  Fe  Fe13  1  0.35150000  0.32193300  0.75000000  1
  Fe  Fe14  1  0.97043300  0.64850000  0.75000000  1
  Fe  Fe15  1  0.67806700  0.02956700  0.75000000  1
  Fe  Fe16  1  0.16552100  0.83447900  0.51350400  1
  Fe  Fe17  1  0.16552100  0.33104100  0.51350400  1
  Fe  Fe18  1  0.66895900  0.83447900  0.51350400  1
  Fe  Fe19  1  0.83447900  0.16552100  0.48649600  1
  Fe  Fe20  1  0.83447900  0.66895900  0.48649600  1
  Fe  Fe21  1  0.33104100  0.16552100  0.48649600  1
  Fe  Fe22  1  0.83447900  0.16552100  0.01350400  1
  Fe  Fe23  1  0.83447900  0.66895900  0.01350400  1
  Fe  Fe24  1  0.33104100  0.16552100  0.01350400  1
  Fe  Fe25  1  0.16552100  0.83447900  0.98649600  1
  Fe  Fe26  1  0.16552100  0.33104100  0.98649600  1
  Fe  Fe27  1  0.66895900  0.83447900  0.98649600  1
loop_
_geom_bond_atom_site_label_1
_geom_bond_atom_site_label_2
_geom_bond_distance
_geom_bond_site_symmetry_2
Ga0 Y2 3.217532 1_555
Ga0 Y3 3.217532 1_555
Ga1 Y2 3.217526 1_545
Ga1 Y3 3.217526 1_555
Ga2 Y3 3.217526 1_455
Ga2 Y2 3.217526 1_555
Ga3 Y2 3.217532 1_554
Ga3 Y3 3.217532 1_555
Ga4 Y2 3.217526 1_544
Ga4 Y3 3.217526 1_555
Ga5 Y3 3.217526 1_455
Ga5 Y2 3.217526 1_554
Fe0 Fe3 2.281110 1_555
Fe0 Ga1 2.637286 1_565
Fe0 Ga2 2.637286 1_555
Fe0 Ga0 2.637293 1_555
Fe0 Fe16 2.693774 1_555
Fe0 Fe18 2.693787 1_555
Fe0 Fe17 2.693787 1_555
Fe0 Fe6 2.886288 1_555
Fe0 Fe9 2.886288 1_555
Fe0 Fe8 2.886292 1_555
Fe0 Fe5 2.886292 1_555
Fe0 Fe4 2.886296 1_555
Fe0 Fe7 2.886296 1_555
Fe0 Y2 2.978548 1_555
Fe1 Fe2 2.281110 1_555
Fe1 Ga1 2.637286 1_555
Fe1 Ga2 2.637286 1_655
Fe1 Ga0 2.637293 1_555
Fe1 Fe19 2.693774 1_555
Fe1 Fe20 2.693787 1_555
Fe1 Fe21 2.693787 1_555
Fe1 Fe15 2.886288 1_555
Fe1 Fe12 2.886288 1_555
Fe1 Fe14 2.886292 1_555
Fe1 Fe11 2.886292 1_555
Fe1 Fe13 2.886296 1_555
Fe1 Fe10 2.886296 1_555
Fe1 Y3 2.978548 1_555
Fe2 Ga5 2.637286 1_656
Fe2 Ga4 2.637286 1_556
Fe2 Ga3 2.637293 1_556
Fe2 Fe22 2.693774 1_556
Fe2 Fe23 2.693787 1_556
Fe2 Fe24 2.693787 1_556
Fe2 Y3 2.978548 1_556
Fe3 Ga4 2.637286 1_565
Fe3 Ga5 2.637286 1_555
Fe3 Ga3 2.637293 1_555
Fe3 Fe6 2.886288 1_555
Fe3 Fe9 2.886288 1_555
Fe3 Fe8 2.886292 1_555
Fe3 Fe5 2.886292 1_555
Fe3 Fe4 2.886296 1_555
Fe3 Fe7 2.886296 1_555
Fe3 Y2 2.978548 1_554
Fe4 Ga0 2.498977 1_555
Fe4 Ga3 2.498977 1_555
Fe4 Fe8 2.503596 1_555
Fe4 Y0 2.891705 1_555
Fe4 Y3 3.032813 1_555
Fe5 Ga4 2.498977 1_565
Fe5 Ga1 2.498977 1_565
Fe5 Fe7 2.503596 1_555
Fe5 Y0 2.891705 1_665
Fe5 Y3 3.032805 1_565
Fe6 Ga2 2.498977 1_555
Fe6 Ga5 2.498977 1_555
Fe6 Fe9 2.503596 1_555
Fe6 Y0 2.891705 1_565
Fe6 Y3 3.032809 1_455
Fe7 Ga0 2.498977 1_555
Fe7 Ga3 2.498977 1_555
Fe7 Y0 2.891705 1_665
Fe7 Y3 3.032813 1_555
Fe8 Ga5 2.498977 1_555
Fe8 Ga2 2.498977 1_555
Fe8 Y0 2.891705 1_555
Fe8 Y3 3.032805 1_455
Fe9 Ga1 2.498977 1_565
Fe9 Ga4 2.498977 1_565
Fe9 Y0 2.891705 1_565
Fe9 Y3 3.032809 1_565
Fe10 Ga3 2.498977 1_556
Fe10 Ga0 2.498977 1_555
Fe10 Fe14 2.503596 1_555
Fe10 Fe23 2.510454 1_556
Fe10 Fe20 2.510454 1_555
Fe10 Fe27 2.542143 1_555
Fe10 Fe18 2.542143 1_555
Fe10 Fe2 2.886296 1_555
Fe10 Y1 2.891705 1_665
Fe10 Y2 3.032813 1_555
Fe11 Ga1 2.498977 1_555
Fe11 Ga4 2.498977 1_556
Fe11 Fe13 2.503596 1_555
Fe11 Fe24 2.510458 1_556
Fe11 Fe21 2.510458 1_555
Fe11 Fe25 2.542146 1_545
Fe11 Fe16 2.542146 1_545
Fe11 Fe2 2.886292 1_555
Fe11 Y1 2.891705 1_555
Fe11 Y2 3.032805 1_545
Fe12 Ga2 2.498977 1_655
Fe12 Ga5 2.498977 1_656
Fe12 Fe15 2.503596 1_555
Fe12 Fe22 2.510456 1_556
Fe12 Fe19 2.510456 1_555
Fe12 Fe26 2.542148 1_655
Fe12 Fe17 2.542148 1_655
Fe12 Fe2 2.886288 1_555
Fe12 Y1 2.891705 1_655
Fe12 Y2 3.032809 1_655
Fe13 Ga0 2.498977 1_555
Fe13 Ga3 2.498977 1_556
Fe13 Fe24 2.510454 1_556
Fe13 Fe21 2.510454 1_555
Fe13 Fe26 2.542143 1_555
Fe13 Fe17 2.542143 1_555
Fe13 Fe2 2.886296 1_555
Fe13 Y1 2.891705 1_555
Fe13 Y2 3.032813 1_555
Fe14 Ga2 2.498977 1_655
Fe14 Ga5 2.498977 1_656
Fe14 Fe23 2.510458 1_556
Fe14 Fe20 2.510458 1_555
Fe14 Fe25 2.542146 1_655
Fe14 Fe16 2.542146 1_655
Fe14 Fe2 2.886292 1_555
Fe14 Y1 2.891705 1_665
Fe14 Y2 3.032805 1_655
Fe15 Ga1 2.498977 1_555
Fe15 Ga4 2.498977 1_556
Fe15 Fe22 2.510456 1_556
Fe15 Fe19 2.510456 1_555
Fe15 Fe27 2.542148 1_545
Fe15 Fe18 2.542148 1_545
Fe15 Fe2 2.886288 1_555
Fe15 Y1 2.891705 1_655
Fe15 Y2 3.032809 1_545
Fe16 Fe20 2.465060 1_455
Fe16 Fe21 2.465060 1_565
Fe16 Ga2 2.483024 1_555
Fe16 Ga1 2.483024 1_565
Fe16 Fe9 2.510456 1_555
Fe16 Fe6 2.510456 1_555
Fe16 Y1 3.134150 1_565
Fe16 Y2 3.160837 1_555
Fe16 Y0 3.277100 1_565
Fe17 Fe21 2.465045 1_555
Fe17 Fe19 2.465060 1_455
Fe17 Ga0 2.483024 1_555
Fe17 Ga2 2.483031 1_555
Fe17 Fe4 2.510454 1_555
Fe17 Fe8 2.510458 1_555
Fe17 Y1 3.134144 1_555
Fe17 Y2 3.160849 1_555
Fe17 Y0 3.277095 1_555
Fe18 Fe20 2.465045 1_555
Fe18 Fe19 2.465060 1_565
Fe18 Ga0 2.483024 1_555
Fe18 Ga1 2.483031 1_565
Fe18 Fe7 2.510454 1_555
Fe18 Fe5 2.510458 1_555
Fe18 Y1 3.134144 1_665
Fe18 Y2 3.160849 1_555
Fe18 Y0 3.277095 1_665
Fe19 Ga2 2.483024 1_655
Fe19 Ga1 2.483024 1_555
Fe19 Fe5 2.542146 1_545
Fe19 Fe8 2.542146 1_655
Fe19 Y0 3.134150 1_655
Fe19 Y3 3.160837 1_555
Fe19 Y1 3.277100 1_655
Fe20 Ga0 2.483024 1_555
Fe20 Ga2 2.483031 1_655
Fe20 Fe7 2.542143 1_555
Fe20 Fe6 2.542148 1_655
Fe20 Y0 3.134144 1_665
Fe20 Y3 3.160849 1_555
Fe20 Y1 3.277095 1_665
Fe21 Ga0 2.483024 1_555
Fe21 Ga1 2.483031 1_555
Fe21 Fe4 2.542143 1_555
Fe21 Fe9 2.542148 1_545
Fe21 Y0 3.134144 1_555
Fe21 Y3 3.160849 1_555
Fe21 Y1 3.277095 1_555
Fe22 Fe27 2.465060 1_544
Fe22 Fe26 2.465060 1_654
Fe22 Ga5 2.483024 1_655
Fe22 Ga4 2.483024 1_555
Fe22 Fe8 2.542146 1_655
Fe22 Fe5 2.542146 1_545
Fe22 Y0 3.134150 1_655
Fe22 Y3 3.160837 1_555
Fe22 Y1 3.277100 1_654
Fe23 Fe27 2.465045 1_554
Fe23 Fe25 2.465060 1_654
Fe23 Ga3 2.483024 1_555
Fe23 Ga5 2.483031 1_655
Fe23 Fe7 2.542143 1_555
Fe23 Fe6 2.542148 1_655
Fe23 Y0 3.134144 1_665
Fe23 Y3 3.160849 1_555
Fe23 Y1 3.277095 1_664
Fe24 Fe26 2.465045 1_554
Fe24 Fe25 2.465060 1_544
Fe24 Ga3 2.483024 1_555
Fe24 Ga4 2.483031 1_555
Fe24 Fe4 2.542143 1_555
Fe24 Fe9 2.542148 1_545
Fe24 Y0 3.134144 1_555
Fe24 Y3 3.160849 1_555
Fe24 Y1 3.277095 1_554
Fe25 Ga5 2.483024 1_556
Fe25 Ga4 2.483024 1_566
Fe25 Fe9 2.510456 1_556
Fe25 Fe6 2.510456 1_556
Fe25 Fe3 2.693774 1_556
Fe25 Y1 3.134150 1_565
Fe25 Y2 3.160837 1_555
Fe25 Y0 3.277100 1_566
Fe26 Ga3 2.483024 1_556
Fe26 Ga5 2.483031 1_556
Fe26 Fe4 2.510454 1_556
Fe26 Fe8 2.510458 1_556
Fe26 Fe3 2.693787 1_556
Fe26 Y1 3.134144 1_555
Fe26 Y2 3.160849 1_555
Fe26 Y0 3.277095 1_556
Fe27 Ga3 2.483024 1_556
Fe27 Ga4 2.483031 1_566
Fe27 Fe7 2.510454 1_556
Fe27 Fe5 2.510458 1_556
Fe27 Fe3 2.693787 1_556
Fe27 Y1 3.134144 1_665
Fe27 Y2 3.160849 1_555
Fe27 Y0 3.277095 1_666
