# generated using pymatgen
data_NaSbO12
_symmetry_space_group_name_H-M   'P 1'
_cell_length_a   9.40249400
_cell_length_b   9.40249400
_cell_length_c   6.71052200
_cell_angle_alpha   90.00000000
_cell_angle_beta   90.00000000
_cell_angle_gamma   90.00000000
_symmetry_Int_Tables_number   1
_chemical_formula_structural   NaSbO12
_chemical_formula_sum   'Na2 Sb2 O24'
_cell_volume   593.25640325
_cell_formula_units_Z   2
loop_
 _symmetry_equiv_pos_site_id
 _symmetry_equiv_pos_as_xyz
  1  'x, y, z'
loop_
 _atom_site_type_symbol
 _atom_site_label
 _atom_site_symmetry_multiplicity
 _atom_site_fract_x
 _atom_site_fract_y
 _atom_site_fract_z
 _atom_site_occupancy
  Na  Na0  1  0.00000000  0.00000000  0.00000000  1
  Na  Na1  1  0.50000000  0.50000000  0.50000000  1
  Sb  Sb0  1  0.00000000  0.00000000  0.50000000  1
  Sb  Sb1  1  0.50000000  0.50000000  0.00000000  1
  O  O0  1  0.58553900  0.12589600  0.14920800  1
  O  O1  1  0.41446100  0.87410400  0.14920800  1
  O  O2  1  0.62589600  0.91446100  0.64920800  1
  O  O3  1  0.91446100  0.37410400  0.35079200  1
  O  O4  1  0.37410400  0.08553900  0.64920800  1
  O  O5  1  0.08553900  0.62589600  0.35079200  1
  O  O6  1  0.87410400  0.58553900  0.85079200  1
  O  O7  1  0.12589600  0.41446100  0.85079200  1
  O  O8  1  0.31143700  0.91348200  0.05175700  1
  O  O9  1  0.68856300  0.08651800  0.05175700  1
  O  O10  1  0.41348200  0.18856300  0.55175700  1
  O  O11  1  0.18856300  0.58651800  0.44824300  1
  O  O12  1  0.58651800  0.81143700  0.55175700  1
  O  O13  1  0.81143700  0.41348200  0.44824300  1
  O  O14  1  0.08651800  0.31143700  0.94824300  1
  O  O15  1  0.91348200  0.68856300  0.94824300  1
  O  O16  1  0.13310600  0.05210000  0.70329600  1
  O  O17  1  0.86689400  0.94790000  0.70329600  1
  O  O18  1  0.55210000  0.36689400  0.20329600  1
  O  O19  1  0.36689400  0.44790000  0.79670400  1
  O  O20  1  0.44790000  0.63310600  0.20329600  1
  O  O21  1  0.63310600  0.55210000  0.79670400  1
  O  O22  1  0.94790000  0.13310600  0.29670400  1
  O  O23  1  0.05210000  0.86689400  0.29670400  1
loop_
_geom_bond_atom_site_label_1
_geom_bond_atom_site_label_2
_geom_bond_distance
_geom_bond_site_symmetry_2
Na0 O22 2.402193 1_455
Na0 O23 2.402193 1_545
Na0 O16 2.402193 1_554
Na0 O17 2.402193 1_444
Na1 O20 2.402193 1_555
Na1 O21 2.402193 1_555
Na1 O19 2.402193 1_555
Na1 O18 2.402193 1_555
O0 O9 1.226001 1_555
O1 O8 1.226001 1_555
O10 O4 1.226001 1_555
O11 O5 1.226001 1_555
O12 O2 1.226001 1_555
O13 O3 1.226001 1_555
O14 O7 1.226001 1_555
O15 O6 1.226001 1_555
O16 Sb0 1.915045 1_555
O17 Sb0 1.915045 1_665
O18 Sb1 1.915045 1_555
O19 Sb1 1.915045 1_556
O20 Sb1 1.915045 1_555
O21 Sb1 1.915045 1_556
O22 Sb0 1.915045 1_655
O23 Sb0 1.915045 1_565
