# generated using pymatgen
data_Cr5NiAs3
_symmetry_space_group_name_H-M   'P 1'
_cell_length_a   3.64821500
_cell_length_b   6.39354649
_cell_length_c   6.39354667
_cell_angle_alpha   58.84905404
_cell_angle_beta   90.00000000
_cell_angle_gamma   90.00000000
_symmetry_Int_Tables_number   1
_chemical_formula_structural   Cr5NiAs3
_chemical_formula_sum   'Cr5 Ni1 As3'
_cell_volume   127.62629392
_cell_formula_units_Z   1
loop_
 _symmetry_equiv_pos_site_id
 _symmetry_equiv_pos_as_xyz
  1  'x, y, z'
loop_
 _atom_site_type_symbol
 _atom_site_label
 _atom_site_symmetry_multiplicity
 _atom_site_fract_x
 _atom_site_fract_y
 _atom_site_fract_z
 _atom_site_occupancy
  Cr  Cr0  1  0.50000000  0.59829200  0.40170800  1
  Cr  Cr1  1  0.50000000  0.40535800  0.00848500  1
  Cr  Cr2  1  0.50000000  0.99151500  0.59464200  1
  Cr  Cr3  1  0.00000000  0.75036000  0.00263400  1
  Cr  Cr4  1  0.00000000  0.99736600  0.24964000  1
  Ni  Ni0  1  0.00000000  0.25479300  0.74520700  1
  As  As0  1  0.00000000  0.32874700  0.34014000  1
  As  As1  1  0.00000000  0.65986000  0.67125300  1
  As  As2  1  0.50000000  0.01360900  0.98639100  1
loop_
_geom_bond_atom_site_label_1
_geom_bond_atom_site_label_2
_geom_bond_distance
_geom_bond_site_symmetry_2
Cr0 Ni0 2.825550 1_555
Cr0 Ni0 2.825550 1_655
As0 Ni0 2.379877 1_555
As0 Cr3 2.429960 1_555
As0 Cr4 2.468198 1_545
As0 Cr1 2.643681 1_455
As0 Cr1 2.643681 1_555
As0 Cr2 2.644645 1_545
As0 Cr2 2.644645 1_445
As0 Cr0 2.674713 1_455
As0 Cr0 2.674713 1_555
As1 Ni0 2.379877 1_555
As1 Cr4 2.429960 1_555
As1 Cr3 2.468198 1_556
As1 Cr2 2.643681 1_455
As1 Cr2 2.643681 1_555
As1 Cr1 2.644645 1_456
As1 Cr1 2.644645 1_556
As1 Cr0 2.674713 1_455
As1 Cr0 2.674713 1_555
As2 Ni0 2.371276 1_555
As2 Ni0 2.371276 1_655
As2 Cr3 2.447473 1_646
As2 Cr3 2.447473 1_546
As2 Cr4 2.447473 1_646
As2 Cr4 2.447473 1_546
As2 Cr1 2.580571 1_556
As2 Cr2 2.580571 1_545
As2 Cr0 2.609022 1_546
