# generated using pymatgen
data_Ta6Mn2Zn3O20
_symmetry_space_group_name_H-M   'P 1'
_cell_length_a   7.23988100
_cell_length_b   7.28407216
_cell_length_c   7.74530611
_cell_angle_alpha   75.66370277
_cell_angle_beta   75.97500838
_cell_angle_gamma   86.14591833
_symmetry_Int_Tables_number   1
_chemical_formula_structural   Ta6Mn2Zn3O20
_chemical_formula_sum   'Ta6 Mn2 Zn3 O20'
_cell_volume   383.92724698
_cell_formula_units_Z   1
loop_
 _symmetry_equiv_pos_site_id
 _symmetry_equiv_pos_as_xyz
  1  'x, y, z'
loop_
 _atom_site_type_symbol
 _atom_site_label
 _atom_site_symmetry_multiplicity
 _atom_site_fract_x
 _atom_site_fract_y
 _atom_site_fract_z
 _atom_site_occupancy
  Ta  Ta0  1  0.65877900  0.14293200  0.38208900  1
  Ta  Ta1  1  0.16643000  0.63347200  0.38513400  1
  Ta  Ta2  1  0.84632800  0.33250100  0.62440100  1
  Ta  Ta3  1  0.36071800  0.82835300  0.61709400  1
  Ta  Ta4  1  0.50686600  0.49780200  0.99861200  1
  Ta  Ta5  1  0.02742100  0.98002400  0.99828100  1
  Mn  Mn0  1  0.18621500  0.19244000  0.23840000  1
  Mn  Mn1  1  0.71119100  0.66207400  0.24199900  1
  Zn  Zn0  1  0.83740900  0.77885900  0.74999900  1
  Zn  Zn1  1  0.30437700  0.30975600  0.76535100  1
  Zn  Zn2  1  0.59100500  0.01336100  0.99682300  1
  O  O0  1  0.24917100  0.97929100  0.79452200  1
  O  O1  1  0.74426500  0.49103600  0.79879600  1
  O  O2  1  0.63996100  0.38275100  0.20227400  1
  O  O3  1  0.14399900  0.87491700  0.20464200  1
  O  O4  1  0.89183200  0.57615600  0.41838100  1
  O  O5  1  0.38912200  0.07518300  0.41364100  1
  O  O6  1  0.58848400  0.28805000  0.59057000  1
  O  O7  1  0.10022400  0.78360800  0.58434100  1
  O  O8  1  0.55517200  0.75204600  0.00370500  1
  O  O9  1  0.07520500  0.23670000  0.99437900  1
  O  O10  1  0.92416100  0.74594500  0.98751700  1
  O  O11  1  0.44142100  0.23598300  0.99516600  1
  O  O12  1  0.63283300  0.89284400  0.59146200  1
  O  O13  1  0.12647700  0.38888500  0.58953200  1
  O  O14  1  0.91280600  0.18792100  0.41855400  1
  O  O15  1  0.42364600  0.68607500  0.41215400  1
  O  O16  1  0.26746200  0.48940100  0.19994200  1
  O  O17  1  0.75503900  0.99546700  0.19411000  1
  O  O18  1  0.84830400  0.09545200  0.80955000  1
  O  O19  1  0.36602800  0.58756300  0.79857900  1
loop_
_geom_bond_atom_site_label_1
_geom_bond_atom_site_label_2
_geom_bond_distance
_geom_bond_site_symmetry_2
Mn0 O14 2.124520 1_455
Mn0 O9 2.172946 1_554
Mn0 O16 2.209232 1_555
Mn0 O5 2.225629 1_555
Mn0 O11 2.271420 1_554
Mn0 O3 2.438103 1_545
Mn1 O4 2.073865 1_555
Mn1 O10 2.166309 1_554
Mn1 O15 2.199242 1_555
Mn1 O2 2.242369 1_555
Mn1 O8 2.328907 1_555
Mn1 O17 2.395048 1_555
O0 Ta3 1.959706 1_555
O0 Ta5 1.960380 1_555
O0 Zn1 2.412738 1_565
O1 Ta2 1.969267 1_555
O1 Ta4 2.022076 1_555
O1 Zn0 2.160353 1_555
O2 Ta0 1.965934 1_555
O2 Ta4 2.023017 1_554
O3 Ta5 1.952983 1_554
O3 Ta1 1.981866 1_555
O4 Ta1 2.000796 1_655
O4 Ta2 2.055719 1_555
O5 Ta0 1.988269 1_555
O5 Ta3 2.060963 1_545
O6 Ta2 2.004656 1_555
O6 Ta0 2.087685 1_555
O6 Zn1 2.191139 1_555
O7 Zn0 2.017793 1_455
O7 Ta3 2.020604 1_555
O7 Ta1 2.052560 1_555
O8 Ta4 1.919232 1_554
O8 Zn2 1.924228 1_564
O8 Zn0 2.447907 1_554
O9 Ta5 1.915744 1_545
O9 Zn1 2.099385 1_555
O10 Ta5 1.935199 1_655
O10 Zn0 2.039027 1_555
O11 Zn2 1.887567 1_555
O11 Ta4 2.003768 1_555
O11 Zn1 2.179950 1_555
O12 Ta3 2.007475 1_555
O12 Ta0 2.102119 1_565
O12 Zn0 2.145252 1_555
O13 Ta2 2.036406 1_455
O13 Zn1 2.051129 1_555
O13 Ta1 2.052941 1_555
O14 Ta0 1.986997 1_555
O14 Ta2 2.067395 1_555
O15 Ta1 1.995740 1_555
O15 Ta3 2.049851 1_555
O16 Ta1 1.956390 1_555
O16 Ta4 2.023988 1_554
O17 Ta0 1.985279 1_565
O17 Zn2 2.126594 1_564
O17 Ta5 2.192481 1_654
O18 Ta2 1.954092 1_555
O18 Zn2 2.083778 1_555
O18 Ta5 2.165394 1_645
O18 Zn0 2.470999 1_545
O19 Ta3 1.962094 1_555
O19 Ta4 2.010466 1_555
O19 Zn1 2.189814 1_555
