# generated using pymatgen
data_Mn3Pd5
_symmetry_space_group_name_H-M   'P 1'
_cell_length_a   4.09911628
_cell_length_b   5.43394299
_cell_length_c   5.43394369
_cell_angle_alpha   97.45188444
_cell_angle_beta   90.00000000
_cell_angle_gamma   90.00000000
_symmetry_Int_Tables_number   1
_chemical_formula_structural   Mn3Pd5
_chemical_formula_sum   'Mn3 Pd5'
_cell_volume   120.01537171
_cell_formula_units_Z   1
loop_
 _symmetry_equiv_pos_site_id
 _symmetry_equiv_pos_as_xyz
  1  'x, y, z'
loop_
 _atom_site_type_symbol
 _atom_site_label
 _atom_site_symmetry_multiplicity
 _atom_site_fract_x
 _atom_site_fract_y
 _atom_site_fract_z
 _atom_site_occupancy
  Mn  Mn0  1  0.00000000  0.00000000  0.00000000  1
  Mn  Mn1  1  0.50000000  0.72434142  0.27565858  1
  Mn  Mn2  1  0.50000000  0.27565858  0.72434142  1
  Pd  Pd0  1  0.00000000  0.50000000  0.50000000  1
  Pd  Pd1  1  0.00000000  0.00000000  0.50000000  1
  Pd  Pd2  1  -0.00000000  0.50000000  0.00000000  1
  Pd  Pd3  1  0.50000000  0.22350080  0.22350080  1
  Pd  Pd4  1  0.50000000  0.77649920  0.77649920  1
loop_
_geom_bond_atom_site_label_1
_geom_bond_atom_site_label_2
_geom_bond_distance
_geom_bond_site_symmetry_2
Mn0 Pd3 2.601552 1_555
Mn0 Pd3 2.601552 1_455
Mn0 Pd4 2.601552 1_444
Mn0 Pd4 2.601552 1_544
Mn0 Pd2 2.716971 1_555
Mn0 Pd2 2.716971 1_545
Mn0 Pd1 2.716972 1_555
Mn0 Pd1 2.716972 1_554
Mn1 Pd3 2.699450 1_555
Mn1 Pd4 2.699450 1_555
Mn1 Pd1 2.730730 1_665
Mn1 Pd1 2.730730 1_565
Mn1 Pd2 2.730730 1_655
Mn1 Pd2 2.730730 1_555
Mn1 Pd0 2.749249 1_555
Mn1 Pd0 2.749249 1_655
Mn1 Pd3 2.763488 1_565
Mn1 Pd4 2.763489 1_554
Mn2 Pd4 2.699450 1_555
Mn2 Pd3 2.699450 1_555
Mn2 Pd1 2.730730 1_655
Mn2 Pd1 2.730730 1_555
Mn2 Pd2 2.730730 1_556
Mn2 Pd2 2.730730 1_656
Mn2 Pd0 2.749249 1_655
Mn2 Pd0 2.749249 1_555
Mn2 Pd4 2.763488 1_545
Mn2 Pd3 2.763489 1_556
