# generated using pymatgen
data_TbGe5
_symmetry_space_group_name_H-M   'P 1'
_cell_length_a   3.98756600
_cell_length_b   6.15135729
_cell_length_c   6.15135729
_cell_angle_alpha   60.23977996
_cell_angle_beta   71.08768103
_cell_angle_gamma   71.08768103
_symmetry_Int_Tables_number   1
_chemical_formula_structural   TbGe5
_chemical_formula_sum   'Tb1 Ge5'
_cell_volume   121.44226102
_cell_formula_units_Z   1
loop_
 _symmetry_equiv_pos_site_id
 _symmetry_equiv_pos_as_xyz
  1  'x, y, z'
loop_
 _atom_site_type_symbol
 _atom_site_label
 _atom_site_symmetry_multiplicity
 _atom_site_fract_x
 _atom_site_fract_y
 _atom_site_fract_z
 _atom_site_occupancy
  Tb  Tb0  1  0.00000000  0.00000000  0.00000000  1
  Ge  Ge0  1  0.33142400  0.46033200  0.87682100  1
  Ge  Ge1  1  0.66857600  0.53966800  0.12317900  1
  Ge  Ge2  1  0.66857700  0.12317900  0.53966700  1
  Ge  Ge3  1  0.33142300  0.87682100  0.46033300  1
  Ge  Ge4  1  0.00000000  0.50000000  0.50000000  1
loop_
_geom_bond_atom_site_label_1
_geom_bond_atom_site_label_2
_geom_bond_distance
_geom_bond_site_symmetry_2
Ge0 Ge3 2.571249 1_555
Ge0 Ge1 2.611972 1_556
Ge0 Ge1 2.611978 1_456
Ge0 Ge4 2.897287 1_655
Ge0 Ge4 2.897290 1_555
Ge0 Tb0 3.160021 1_656
Ge0 Tb0 3.160024 1_556
Ge0 Tb0 3.513554 1_566
Ge1 Ge2 2.571249 1_555
Ge1 Ge4 2.897287 1_555
Ge1 Ge4 2.897290 1_655
Ge1 Tb0 3.160021 1_565
Ge1 Tb0 3.160024 1_665
Ge1 Tb0 3.513554 1_655
Ge2 Ge3 2.611970 1_645
Ge2 Ge3 2.611970 1_545
Ge2 Ge4 2.897290 1_555
Ge2 Ge4 2.897290 1_655
Ge2 Tb0 3.160027 1_556
Ge2 Tb0 3.160027 1_656
Ge2 Tb0 3.513548 1_655
Ge3 Ge4 2.897290 1_555
Ge3 Ge4 2.897290 1_655
Ge3 Tb0 3.160027 1_565
Ge3 Tb0 3.160027 1_665
Ge3 Tb0 3.513548 1_566
Ge4 Tb0 3.086819 1_565
Ge4 Tb0 3.086819 1_556
