# generated using pymatgen
data_BaYb2F8
_symmetry_space_group_name_H-M   'P 1'
_cell_length_a   4.23586051
_cell_length_b   6.39993315
_cell_length_c   6.39993315
_cell_angle_alpha   113.39063304
_cell_angle_beta   92.45756143
_cell_angle_gamma   92.45756143
_symmetry_Int_Tables_number   1
_chemical_formula_structural   BaYb2F8
_chemical_formula_sum   'Ba1 Yb2 F8'
_cell_volume   158.75285443
_cell_formula_units_Z   1
loop_
 _symmetry_equiv_pos_site_id
 _symmetry_equiv_pos_as_xyz
  1  'x, y, z'
loop_
 _atom_site_type_symbol
 _atom_site_label
 _atom_site_symmetry_multiplicity
 _atom_site_fract_x
 _atom_site_fract_y
 _atom_site_fract_z
 _atom_site_occupancy
  Ba  Ba0  1  0.00000000  0.00000000  0.00000000  1
  Yb  Yb0  1  0.50000000  0.68570900  0.31429100  1
  Yb  Yb1  1  0.50000000  0.31429100  0.68570900  1
  F  F0  1  0.45893300  0.67714800  0.93931500  1
  F  F1  1  0.54106700  0.32285200  0.06068500  1
  F  F2  1  0.54106700  0.06068500  0.32285200  1
  F  F3  1  0.45893300  0.93931500  0.67714800  1
  F  F4  1  0.81198700  0.58060100  0.58060100  1
  F  F5  1  0.18801300  0.41939900  0.41939900  1
  F  F6  1  0.00000000  0.75043100  0.24956900  1
  F  F7  1  0.00000000  0.24956900  0.75043100  1
loop_
_geom_bond_atom_site_label_1
_geom_bond_atom_site_label_2
_geom_bond_distance
_geom_bond_site_symmetry_2
Ba0 F7 2.669801 1_554
Ba0 F6 2.669801 1_545
Ba0 F0 2.823339 1_544
Ba0 F1 2.823339 1_455
Ba0 F2 2.823339 1_455
Ba0 F3 2.823339 1_544
Ba0 F3 2.924596 1_444
Ba0 F0 2.924596 1_444
Ba0 F1 2.924596 1_555
Ba0 F2 2.924596 1_555
Ba0 F4 2.992708 1_444
Ba0 F5 2.992708 1_555
F0 Yb1 2.263544 1_555
F0 Yb0 2.377265 1_556
F1 Yb0 2.263544 1_555
F1 Yb1 2.377265 1_554
F2 Yb1 2.263544 1_555
F2 Yb0 2.377265 1_545
F3 Yb0 2.263544 1_555
F3 Yb1 2.377265 1_565
F4 Yb1 2.428417 1_555
F4 Yb0 2.428417 1_555
F5 Yb0 2.428417 1_555
F5 Yb1 2.428417 1_555
F6 Yb0 2.228230 1_555
F6 Yb0 2.228230 1_455
F7 Yb1 2.228230 1_555
F7 Yb1 2.228230 1_455
