# generated using pymatgen
data_Li9Mn12Ni3O32
_symmetry_space_group_name_H-M   'P 1'
_cell_length_a   8.29042820
_cell_length_b   8.29042820
_cell_length_c   8.29042800
_cell_angle_alpha   90.00032253
_cell_angle_beta   90.00032253
_cell_angle_gamma   90.00031276
_symmetry_Int_Tables_number   1
_chemical_formula_structural   Li9Mn12Ni3O32
_chemical_formula_sum   'Li9 Mn12 Ni3 O32'
_cell_volume   569.81106295
_cell_formula_units_Z   1
loop_
 _symmetry_equiv_pos_site_id
 _symmetry_equiv_pos_as_xyz
  1  'x, y, z'
loop_
 _atom_site_type_symbol
 _atom_site_label
 _atom_site_symmetry_multiplicity
 _atom_site_fract_x
 _atom_site_fract_y
 _atom_site_fract_z
 _atom_site_occupancy
  Li  Li0  1  0.87172400  0.88158200  0.37048800  1
  Li  Li1  1  0.62951200  0.11841800  0.12827600  1
  Li  Li2  1  0.62077700  0.62077700  0.62077700  1
  Li  Li3  1  0.37922300  0.37922300  0.37922300  1
  Li  Li4  1  0.37048800  0.87172400  0.88158200  1
  Li  Li5  1  0.12827600  0.62951200  0.11841800  1
  Li  Li6  1  0.11841800  0.12827600  0.62951200  1
  Li  Li7  1  0.00000000  0.00000000  0.00000000  1
  Li  Li8  1  0.88158200  0.37048800  0.87172400  1
  Mn  Mn0  1  0.75432500  0.50000000  0.24567500  1
  Mn  Mn1  1  0.75227000  0.74844100  0.99553300  1
  Mn  Mn2  1  0.74844100  0.99553300  0.75227000  1
  Mn  Mn3  1  0.50396300  0.49603700  0.00000000  1
  Mn  Mn4  1  0.50000000  0.24567500  0.75432500  1
  Mn  Mn5  1  0.49603700  0.00000000  0.50396300  1
  Mn  Mn6  1  0.25155900  0.24773000  0.00446700  1
  Mn  Mn7  1  0.24773000  0.00446700  0.25155900  1
  Mn  Mn8  1  0.24567500  0.75432500  0.50000000  1
  Mn  Mn9  1  0.00446700  0.25155900  0.24773000  1
  Mn  Mn10  1  0.00000000  0.50396300  0.49603700  1
  Mn  Mn11  1  0.99553300  0.75227000  0.74844100  1
  Ni  Ni0  1  0.75070200  0.24929800  0.50000000  1
  Ni  Ni1  1  0.50000000  0.75070200  0.24929800  1
  Ni  Ni2  1  0.24929800  0.50000000  0.75070200  1
  O  O0  1  0.77276800  0.26680700  0.25094800  1
  O  O1  1  0.76691800  0.49763200  0.47697000  1
  O  O2  1  0.75981100  0.75981100  0.75981100  1
  O  O3  1  0.74749300  0.97488000  0.98115600  1
  O  O4  1  0.74905200  0.73319300  0.22723200  1
  O  O5  1  0.73982500  0.50894500  0.01060300  1
  O  O6  1  0.73319300  0.22723200  0.74905200  1
  O  O7  1  0.72644300  0.00215600  0.51660500  1
  O  O8  1  0.52303000  0.50236800  0.23308200  1
  O  O9  1  0.51660500  0.72644300  0.00215600  1
  O  O10  1  0.50894500  0.01060300  0.73982500  1
  O  O11  1  0.50236800  0.23308200  0.52303000  1
  O  O12  1  0.49763200  0.47697000  0.76691800  1
  O  O13  1  0.49105500  0.26017500  0.98939700  1
  O  O14  1  0.48339500  0.99784400  0.27355700  1
  O  O15  1  0.47697000  0.76691800  0.49763200  1
  O  O16  1  0.27355700  0.48339500  0.99784400  1
  O  O17  1  0.26680700  0.25094800  0.77276800  1
  O  O18  1  0.26017500  0.98939700  0.49105500  1
  O  O19  1  0.25094800  0.77276800  0.26680700  1
  O  O20  1  0.25250700  0.01884400  0.02512000  1
  O  O21  1  0.24018900  0.24018900  0.24018900  1
  O  O22  1  0.23308200  0.52303000  0.50236800  1
  O  O23  1  0.22723200  0.74905200  0.73319300  1
  O  O24  1  0.02512000  0.25250700  0.01884400  1
  O  O25  1  0.01884400  0.02512000  0.25250700  1
  O  O26  1  0.01060300  0.73982500  0.50894500  1
  O  O27  1  0.00215600  0.51660500  0.72644300  1
  O  O28  1  0.99784400  0.27355700  0.48339500  1
  O  O29  1  0.98939700  0.49105500  0.26017500  1
  O  O30  1  0.98115600  0.74749300  0.97488000  1
  O  O31  1  0.97488000  0.98115600  0.74749300  1
loop_
_geom_bond_atom_site_label_1
_geom_bond_atom_site_label_2
_geom_bond_distance
_geom_bond_site_symmetry_2
Li0 O25 1.964799 1_665
Li0 O7 1.979227 1_565
Li0 O4 1.989519 1_555
Li0 O26 2.006095 1_655
Li1 O3 1.964798 1_544
Li1 O14 1.979227 1_545
Li1 O0 1.989519 1_555
Li1 O13 2.006095 1_554
Li2 O15 1.982827 1_555
Li2 O1 1.982827 1_555
Li2 O12 1.982827 1_555
Li2 O2 1.996440 1_555
Li3 O22 1.982827 1_555
Li3 O11 1.982827 1_555
Li3 O8 1.982827 1_555
Li3 O21 1.996440 1_555
Li4 O20 1.964798 1_566
Li4 O9 1.979227 1_556
Li4 O23 1.989519 1_555
Li4 O10 2.006095 1_565
Li5 O30 1.964798 1_454
Li5 O16 1.979227 1_554
Li5 O19 1.989519 1_555
Li5 O29 2.006095 1_455
Li6 O31 1.964799 1_445
Li6 O28 1.979227 1_455
Li6 O17 1.989519 1_555
Li6 O18 2.006095 1_545
Li7 O25 2.109515 1_555
Li7 O31 2.109515 1_444
Li7 O20 2.109515 1_555
Li7 O30 2.109515 1_444
Li7 O24 2.109515 1_555
Li7 O3 2.109515 1_444
Li8 O24 1.964798 1_656
Li8 O27 1.979227 1_655
Li8 O6 1.989519 1_555
Li8 O5 2.006095 1_556
Mn0 O1 1.920474 1_555
Mn0 O8 1.920474 1_555
Mn0 O0 1.939800 1_555
Mn0 O4 1.939800 1_555
Mn0 O5 1.953959 1_555
Mn0 O29 1.953959 1_555
Mn1 O3 1.881474 1_555
Mn1 O30 1.905289 1_555
Mn1 O4 1.925225 1_556
Mn1 O2 1.957508 1_555
Mn1 O9 1.963024 1_556
Mn1 O5 1.992125 1_556
Mn2 O31 1.881474 1_555
Mn2 O3 1.905289 1_555
Mn2 O6 1.925225 1_565
Mn2 O2 1.957508 1_555
Mn2 O7 1.963024 1_565
Mn2 O10 1.992125 1_565
Mn3 O16 1.913120 1_554
Mn3 O9 1.913120 1_555
Mn3 O8 1.939513 1_555
Mn3 O12 1.939513 1_554
Mn3 O13 1.960294 1_554
Mn3 O5 1.960294 1_555
Mn4 O11 1.920474 1_555
Mn4 O12 1.920474 1_555
Mn4 O6 1.939800 1_555
Mn4 O17 1.939800 1_555
Mn4 O13 1.953959 1_555
Mn4 O10 1.953959 1_555
Mn5 O14 1.913120 1_545
Mn5 O7 1.913120 1_555
Mn5 O11 1.939513 1_555
Mn5 O15 1.939513 1_545
Mn5 O10 1.960294 1_555
Mn5 O18 1.960294 1_545
Mn6 O24 1.881474 1_555
Mn6 O20 1.905289 1_555
Mn6 O17 1.925225 1_554
Mn6 O21 1.957508 1_555
Mn6 O16 1.963024 1_554
Mn6 O13 1.992125 1_554
Mn7 O20 1.881474 1_555
Mn7 O25 1.905289 1_555
Mn7 O19 1.925225 1_545
Mn7 O21 1.957508 1_555
Mn7 O14 1.963024 1_545
Mn7 O18 1.992125 1_545
Mn8 O22 1.920474 1_555
Mn8 O15 1.920474 1_555
Mn8 O23 1.939800 1_555
Mn8 O19 1.939800 1_555
Mn8 O26 1.953959 1_555
Mn8 O18 1.953959 1_555
Mn9 O25 1.881474 1_555
Mn9 O24 1.905289 1_555
Mn9 O0 1.925225 1_455
Mn9 O21 1.957508 1_555
Mn9 O28 1.963024 1_455
Mn9 O29 1.992125 1_455
Mn10 O27 1.913120 1_555
Mn10 O28 1.913120 1_455
Mn10 O1 1.939513 1_455
Mn10 O22 1.939513 1_555
Mn10 O29 1.960294 1_455
Mn10 O26 1.960294 1_555
Mn11 O30 1.881474 1_555
Mn11 O31 1.905289 1_555
Mn11 O23 1.925225 1_655
Mn11 O2 1.957508 1_555
Mn11 O27 1.963024 1_655
Mn11 O26 1.992125 1_655
Ni0 O7 2.063357 1_555
Ni0 O28 2.063357 1_555
Ni0 O1 2.071996 1_555
Ni0 O11 2.071996 1_555
Ni0 O6 2.077914 1_555
Ni0 O0 2.077914 1_555
Ni1 O9 2.063357 1_555
Ni1 O14 2.063357 1_555
Ni1 O15 2.071996 1_555
Ni1 O8 2.071996 1_555
Ni1 O19 2.077914 1_555
Ni1 O4 2.077914 1_555
Ni2 O16 2.063357 1_555
Ni2 O27 2.063357 1_555
Ni2 O22 2.071996 1_555
Ni2 O12 2.071996 1_555
Ni2 O23 2.077914 1_555
Ni2 O17 2.077914 1_555
