# generated using pymatgen
data_CsC15
_symmetry_space_group_name_H-M   'P 1'
_cell_length_a   10.35379441
_cell_length_b   10.35379441
_cell_length_c   10.35379441
_cell_angle_alpha   112.37054236
_cell_angle_beta   108.97068752
_cell_angle_gamma   107.11680375
_symmetry_Int_Tables_number   1
_chemical_formula_structural   CsC15
_chemical_formula_sum   'Cs4 C60'
_cell_volume   852.56876195
_cell_formula_units_Z   4
loop_
 _symmetry_equiv_pos_site_id
 _symmetry_equiv_pos_as_xyz
  1  'x, y, z'
loop_
 _atom_site_type_symbol
 _atom_site_label
 _atom_site_symmetry_multiplicity
 _atom_site_fract_x
 _atom_site_fract_y
 _atom_site_fract_z
 _atom_site_occupancy
  Cs  Cs0  1  0.70767400  0.50000000  0.20767400  1
  Cs  Cs1  1  0.29232600  0.50000000  0.79232600  1
  Cs  Cs2  1  0.25952700  0.75952700  0.50000000  1
  Cs  Cs3  1  0.74047300  0.24047300  0.50000000  1
  C  C0  1  0.34959300  0.05783300  0.29176000  1
  C  C1  1  0.65040700  0.94216700  0.70824000  1
  C  C2  1  0.76607300  0.05783300  0.70824000  1
  C  C3  1  0.23392700  0.94216700  0.29176000  1
  C  C4  1  0.28318600  0.34414800  0.06096100  1
  C  C5  1  0.71681400  0.65585200  0.93903900  1
  C  C6  1  0.28318600  0.22222500  0.93903900  1
  C  C7  1  0.71681400  0.77777500  0.06096100  1
  C  C8  1  0.40564600  0.27498700  0.25564800  1
  C  C9  1  0.59435400  0.72501300  0.74435200  1
  C  C10  1  0.01933900  0.14999900  0.74435200  1
  C  C11  1  0.98066100  0.72501300  0.13066000  1
  C  C12  1  0.98066100  0.85000100  0.25564800  1
  C  C13  1  0.01933900  0.27498700  0.86934000  1
  C  C14  1  0.59435400  0.85000100  0.86934000  1
  C  C15  1  0.40564600  0.14999900  0.13066000  1
  C  C16  1  0.27608500  0.25979900  0.41733700  1
  C  C17  1  0.72391500  0.74020100  0.58266300  1
  C  C18  1  0.84246200  0.85874900  0.58266300  1
  C  C19  1  0.15753800  0.74020100  0.01628600  1
  C  C20  1  0.15753800  0.14125100  0.41733700  1
  C  C21  1  0.84246200  0.25979900  0.98371400  1
  C  C22  1  0.72391500  0.14125100  0.98371400  1
  C  C23  1  0.27608500  0.85874900  0.01628600  1
  C  C24  1  0.05931900  0.30230800  0.36162700  1
  C  C25  1  0.94068100  0.69769200  0.63837300  1
  C  C26  1  0.05931900  0.69769200  0.75701200  1
  C  C27  1  0.94068100  0.30230800  0.24298800  1
  C  C28  1  0.34572800  0.37228700  0.22266100  1
  C  C29  1  0.65427200  0.62771300  0.77733900  1
  C  C30  1  0.14962600  0.12306600  0.77733900  1
  C  C31  1  0.85037400  0.62771300  0.97344100  1
  C  C32  1  0.85037400  0.87693400  0.22266100  1
  C  C33  1  0.14962600  0.37228700  0.02655900  1
  C  C34  1  0.65427200  0.87693400  0.02655900  1
  C  C35  1  0.34572800  0.12306600  0.97344100  1
  C  C36  1  0.21513500  0.35945600  0.38343700  1
  C  C37  1  0.78486500  0.64054400  0.61656300  1
  C  C38  1  0.97601900  0.83169800  0.61656300  1
  C  C39  1  0.02398100  0.64054400  0.85567900  1
  C  C40  1  0.02398100  0.16830200  0.38343700  1
  C  C41  1  0.97601900  0.35945600  0.14432100  1
  C  C42  1  0.78486500  0.16830200  0.14432100  1
  C  C43  1  0.21513500  0.83169800  0.85567900  1
  C  C44  1  0.24943300  0.41436400  0.28551100  1
  C  C45  1  0.75056700  0.58563600  0.71448900  1
  C  C46  1  0.12885300  0.96392100  0.71448900  1
  C  C47  1  0.87114700  0.58563600  0.83506900  1
  C  C48  1  0.87114700  0.03607900  0.28551100  1
  C  C49  1  0.12885300  0.41436400  0.16493100  1
  C  C50  1  0.75056700  0.03607900  0.16493100  1
  C  C51  1  0.24943300  0.96392100  0.83506900  1
  C  C52  1  0.36941300  0.21746700  0.35446800  1
  C  C53  1  0.63058700  0.78253300  0.64553200  1
  C  C54  1  0.86299800  0.01494400  0.64553200  1
  C  C55  1  0.13700200  0.78253300  0.15194600  1
  C  C56  1  0.13700200  0.98505600  0.35446800  1
  C  C57  1  0.86299800  0.21746700  0.84805400  1
  C  C58  1  0.63058700  0.98505600  0.84805400  1
  C  C59  1  0.36941300  0.01494400  0.15194600  1
loop_
_geom_bond_atom_site_label_1
_geom_bond_atom_site_label_2
_geom_bond_distance
_geom_bond_site_symmetry_2
C0 C3 1.422735 1_545
C0 C59 1.446491 1_555
C0 C52 1.446491 1_555
C0 Cs3 3.364795 1_555
C1 C2 1.422735 1_565
C1 C58 1.446491 1_555
C1 C53 1.446491 1_555
C1 Cs2 3.364795 1_555
C2 C54 1.446485 1_555
C2 C57 1.446491 1_555
C2 Cs3 3.364795 1_555
C3 C56 1.446485 1_555
C3 C55 1.446491 1_555
C3 Cs2 3.364795 1_555
C4 C6 1.405031 1_554
C4 Cs1 3.721105 1_554
C4 Cs0 3.721113 1_555
C5 C7 1.405031 1_556
C5 Cs0 3.721105 1_556
C5 Cs1 3.721113 1_555
C6 Cs1 3.721112 1_555
C6 Cs0 3.721112 1_556
C7 Cs0 3.721112 1_555
C7 Cs1 3.721112 1_554
C8 Cs0 3.613260 1_555
C8 Cs3 3.776457 1_555
C9 Cs1 3.613260 1_555
C9 Cs2 3.776457 1_555
C10 C30 1.417214 1_555
C10 C13 1.440357 1_555
C10 C54 1.457460 1_455
C10 Cs1 3.613253 1_555
C10 Cs3 3.776450 1_455
C11 C31 1.417208 1_554
C11 C12 1.440357 1_555
C11 C55 1.457460 1_655
C11 Cs0 3.613253 1_555
C11 Cs2 3.776450 1_655
C12 C32 1.417214 1_555
C12 C56 1.457460 1_655
C12 Cs0 3.613253 1_555
C12 Cs2 3.776450 1_655
C13 C33 1.417208 1_556
C13 C57 1.457460 1_455
C13 Cs1 3.613253 1_555
C13 Cs3 3.776450 1_455
C14 C34 1.417204 1_556
C14 C9 1.440357 1_555
C14 C58 1.457459 1_555
C14 Cs1 3.613258 1_555
C14 Cs2 3.776455 1_555
C15 C35 1.417204 1_554
C15 C8 1.440357 1_555
C15 C59 1.457459 1_555
C15 Cs0 3.613258 1_555
C15 Cs3 3.776455 1_555
C16 C52 1.410901 1_555
C16 C36 1.449505 1_555
C16 C20 1.458178 1_555
C16 Cs1 3.642396 1_555
C17 C53 1.410901 1_555
C17 C37 1.449505 1_555
C17 C18 1.458178 1_555
C17 Cs0 3.642396 1_555
C18 C54 1.410885 1_565
C18 C38 1.449511 1_555
C18 Cs0 3.642401 1_555
C19 C55 1.410895 1_555
C19 C39 1.449505 1_554
C19 C23 1.458178 1_555
C19 Cs1 3.642396 1_554
C20 C56 1.410885 1_545
C20 C40 1.449511 1_555
C20 Cs1 3.642401 1_555
C21 C57 1.410895 1_555
C21 C41 1.449505 1_556
C21 C22 1.458178 1_555
C21 Cs0 3.642396 1_556
C22 C58 1.410889 1_545
C22 C42 1.449501 1_556
C22 Cs0 3.642404 1_556
C23 C59 1.410889 1_565
C23 C43 1.449501 1_554
C23 Cs1 3.642404 1_554
C24 C27 1.427135 1_455
C24 C36 1.450284 1_555
C24 C40 1.450284 1_555
C24 Cs1 3.611986 1_555
C25 C26 1.427135 1_655
C25 C37 1.450284 1_555
C25 C38 1.450284 1_555
C25 Cs0 3.611986 1_555
C26 C39 1.450274 1_555
C26 C43 1.450284 1_555
C26 Cs1 3.611985 1_555
C27 C41 1.450274 1_555
C27 C42 1.450284 1_555
C27 Cs0 3.611985 1_555
C28 C8 1.417202 1_555
C28 C44 1.438406 1_555
C28 C4 1.456010 1_555
C28 Cs0 3.665212 1_555
C29 C9 1.417202 1_555
C29 C45 1.438406 1_555
C29 C5 1.456010 1_555
C29 Cs1 3.665212 1_555
C30 C46 1.438406 1_545
C30 C6 1.456006 1_555
C30 Cs1 3.665221 1_555
C31 C47 1.438406 1_555
C31 C5 1.456001 1_555
C31 Cs0 3.665212 1_556
C32 C48 1.438406 1_565
C32 C7 1.456006 1_555
C32 Cs0 3.665221 1_555
C33 C49 1.438406 1_555
C33 C4 1.456001 1_555
C33 Cs1 3.665212 1_554
C34 C50 1.438406 1_565
C34 C7 1.456016 1_555
C34 Cs1 3.665217 1_554
C35 C51 1.438406 1_545
C35 C6 1.456016 1_555
C35 Cs0 3.665217 1_556
C36 C44 1.425246 1_555
C36 Cs1 3.620144 1_555
C36 Cs2 3.679590 1_555
C37 C45 1.425246 1_555
C37 Cs0 3.620144 1_555
C37 Cs3 3.679590 1_555
C38 C46 1.425242 1_655
C38 Cs0 3.620144 1_555
C38 Cs2 3.679590 1_655
C39 C47 1.425246 1_455
C39 Cs1 3.620144 1_555
C39 Cs3 3.679590 1_455
C40 C48 1.425242 1_455
C40 Cs1 3.620144 1_555
C40 Cs3 3.679590 1_455
C41 C49 1.425246 1_655
C41 Cs0 3.620144 1_555
C41 Cs2 3.679590 1_655
C42 C50 1.425236 1_555
C42 Cs0 3.620144 1_555
C42 Cs3 3.679590 1_555
C43 C51 1.425236 1_555
C43 Cs1 3.620144 1_555
C43 Cs2 3.679590 1_555
C44 C49 1.450489 1_555
C44 Cs2 3.361919 1_555
C45 C47 1.450489 1_555
C45 Cs3 3.361919 1_555
C46 C51 1.450489 1_555
C46 Cs2 3.361914 1_555
C47 Cs3 3.361919 1_555
C48 C50 1.450489 1_555
C48 Cs3 3.361914 1_555
C49 Cs2 3.361919 1_555
C50 Cs3 3.361916 1_555
C51 Cs2 3.361916 1_555
C52 C8 1.457446 1_555
C52 Cs3 3.537166 1_555
C53 C9 1.457446 1_555
C53 Cs2 3.537166 1_555
C54 Cs3 3.537171 1_555
C55 Cs2 3.537165 1_555
C56 Cs2 3.537171 1_555
C57 Cs3 3.537165 1_555
C58 Cs2 3.537165 1_555
C59 Cs3 3.537165 1_555
