# generated using pymatgen
data_B2Ru
_symmetry_space_group_name_H-M   'P 1'
_cell_length_a   2.86717823
_cell_length_b   4.03963817
_cell_length_c   4.65162011
_cell_angle_alpha   90.00000000
_cell_angle_beta   90.00000000
_cell_angle_gamma   90.00000000
_symmetry_Int_Tables_number   1
_chemical_formula_structural   B2Ru
_chemical_formula_sum   'B4 Ru2'
_cell_volume   53.87675088
_cell_formula_units_Z   2
loop_
 _symmetry_equiv_pos_site_id
 _symmetry_equiv_pos_as_xyz
  1  'x, y, z'
loop_
 _atom_site_type_symbol
 _atom_site_label
 _atom_site_symmetry_multiplicity
 _atom_site_fract_x
 _atom_site_fract_y
 _atom_site_fract_z
 _atom_site_occupancy
  B  B0  1  0.25000000  0.63732294  0.05443127  1
  B  B1  1  0.75000000  0.36267706  0.94556873  1
  B  B2  1  0.25000000  0.63732294  0.44556873  1
  B  B3  1  0.75000000  0.36267706  0.55443127  1
  Ru  Ru0  1  0.25000000  0.15328772  0.25000000  1
  Ru  Ru1  1  0.75000000  0.84671228  0.75000000  1
loop_
_geom_bond_atom_site_label_1
_geom_bond_atom_site_label_2
_geom_bond_distance
_geom_bond_site_symmetry_2
B0 B2 1.819423 1_555
B0 B1 1.882161 1_454
B0 B1 1.882161 1_554
B0 Ru0 2.156590 1_555
B0 Ru1 2.185403 1_554
B0 Ru1 2.185403 1_454
B0 Ru0 2.274187 1_565
B1 B3 1.819423 1_555
B1 Ru1 2.156590 1_555
B1 Ru0 2.185403 1_556
B1 Ru0 2.185403 1_656
B1 Ru1 2.274187 1_545
B2 B3 1.882161 1_455
B2 B3 1.882161 1_555
B2 Ru0 2.156590 1_555
B2 Ru1 2.185403 1_555
B2 Ru1 2.185403 1_455
B2 Ru0 2.274187 1_565
B3 Ru1 2.156590 1_555
B3 Ru0 2.185403 1_655
B3 Ru0 2.185403 1_555
B3 Ru1 2.274187 1_545
