# generated using pymatgen
data_Ti4CrC5
_symmetry_space_group_name_H-M   'P 1'
_cell_length_a   12.46633817
_cell_length_b   12.46633817
_cell_length_c   12.46633824
_cell_angle_alpha   13.93429863
_cell_angle_beta   13.93429863
_cell_angle_gamma   13.93429985
_symmetry_Int_Tables_number   1
_chemical_formula_structural   Ti4CrC5
_chemical_formula_sum   'Ti4 Cr1 C5'
_cell_volume   97.77510809
_cell_formula_units_Z   1
loop_
 _symmetry_equiv_pos_site_id
 _symmetry_equiv_pos_as_xyz
  1  'x, y, z'
loop_
 _atom_site_type_symbol
 _atom_site_label
 _atom_site_symmetry_multiplicity
 _atom_site_fract_x
 _atom_site_fract_y
 _atom_site_fract_z
 _atom_site_occupancy
  Ti  Ti0  1  0.60201000  0.60201000  0.60201000  1
  Ti  Ti1  1  0.20060200  0.20060200  0.20060200  1
  Ti  Ti2  1  0.79939800  0.79939800  0.79939800  1
  Ti  Ti3  1  0.39799000  0.39799000  0.39799000  1
  Cr  Cr0  1  0.00000000  0.00000000  0.00000000  1
  C  C0  1  0.09839900  0.09839900  0.09839900  1
  C  C1  1  0.90160100  0.90160100  0.90160100  1
  C  C2  1  0.50000000  0.50000000  0.50000000  1
  C  C3  1  0.69699500  0.69699500  0.69699500  1
  C  C4  1  0.30300500  0.30300500  0.30300500  1
loop_
_geom_bond_atom_site_label_1
_geom_bond_atom_site_label_2
_geom_bond_distance
_geom_bond_site_symmetry_2
C0 Ti3 2.147115 1_554
C0 Ti3 2.147115 1_455
C0 Ti3 2.147115 1_545
C0 Ti2 2.159902 1_445
C0 Ti2 2.159902 1_544
C0 Ti2 2.159902 1_454
C1 Ti0 2.147115 1_556
C1 Ti0 2.147115 1_565
C1 Ti0 2.147115 1_655
C1 Ti1 2.159902 1_665
C1 Ti1 2.159902 1_656
C1 Ti1 2.159902 1_566
C2 Ti1 2.151282 1_556
C2 Ti2 2.151282 1_554
C2 Ti1 2.151282 1_565
C2 Ti1 2.151282 1_655
C2 Ti2 2.151282 1_545
C2 Ti2 2.151282 1_455
C3 Cr0 2.076092 1_665
C3 Cr0 2.076093 1_656
C3 Cr0 2.076093 1_566
C3 Ti3 2.159815 1_556
C3 Ti3 2.159815 1_655
C3 Ti3 2.159815 1_565
C4 Cr0 2.076092 1_556
C4 Cr0 2.076093 1_565
C4 Cr0 2.076093 1_655
C4 Ti0 2.159815 1_554
C4 Ti0 2.159815 1_545
C4 Ti0 2.159815 1_455
