# generated using pymatgen
data_GdWO5
_symmetry_space_group_name_H-M   'P 1'
_cell_length_a   5.32577831
_cell_length_b   6.67845337
_cell_length_c   12.89241000
_cell_angle_alpha   90.00000000
_cell_angle_beta   90.00000000
_cell_angle_gamma   109.21230278
_symmetry_Int_Tables_number   1
_chemical_formula_structural   GdWO5
_chemical_formula_sum   'Gd4 W4 O20'
_cell_volume   433.01776860
_cell_formula_units_Z   4
loop_
 _symmetry_equiv_pos_site_id
 _symmetry_equiv_pos_as_xyz
  1  'x, y, z'
loop_
 _atom_site_type_symbol
 _atom_site_label
 _atom_site_symmetry_multiplicity
 _atom_site_fract_x
 _atom_site_fract_y
 _atom_site_fract_z
 _atom_site_occupancy
  Gd  Gd0  1  0.15020800  0.78492300  0.44344600  1
  Gd  Gd1  1  0.84979200  0.21507700  0.55655400  1
  Gd  Gd2  1  0.34979200  0.71507700  0.94344600  1
  Gd  Gd3  1  0.65020800  0.28492300  0.05655400  1
  W  W0  1  0.95608300  0.84591400  0.13927900  1
  W  W1  1  0.04391700  0.15408600  0.86072100  1
  W  W2  1  0.54391700  0.65408600  0.63927900  1
  W  W3  1  0.45608300  0.34591400  0.36072100  1
  O  O0  1  0.04300900  0.56953000  0.09140800  1
  O  O1  1  0.95699100  0.43047000  0.90859200  1
  O  O2  1  0.45699100  0.93047000  0.59140800  1
  O  O3  1  0.54300900  0.06953000  0.40859200  1
  O  O4  1  0.85049700  0.84201000  0.57091200  1
  O  O5  1  0.14950300  0.15799000  0.42908800  1
  O  O6  1  0.64950300  0.65799000  0.07091200  1
  O  O7  1  0.35049700  0.34201000  0.92908800  1
  O  O8  1  0.26970400  0.97329400  0.06545600  1
  O  O9  1  0.73029600  0.02670600  0.93454400  1
  O  O10  1  0.23029600  0.52670600  0.56545600  1
  O  O11  1  0.76970400  0.47329400  0.43454400  1
  O  O12  1  0.99908900  0.79357100  0.27413100  1
  O  O13  1  0.00091100  0.20642900  0.72586900  1
  O  O14  1  0.50091100  0.70642900  0.77413100  1
  O  O15  1  0.49908900  0.29357100  0.22586900  1
  O  O16  1  0.15863500  0.92678600  0.85163600  1
  O  O17  1  0.84136500  0.07321400  0.14836400  1
  O  O18  1  0.34136500  0.57321400  0.35163600  1
  O  O19  1  0.65863500  0.42678600  0.64836400  1
loop_
_geom_bond_atom_site_label_1
_geom_bond_atom_site_label_2
_geom_bond_distance
_geom_bond_site_symmetry_2
Gd0 O18 2.320323 1_555
Gd0 O12 2.333802 1_455
Gd0 O3 2.360955 1_565
Gd0 O11 2.382326 1_455
Gd0 O4 2.407132 1_455
Gd0 O10 2.472696 1_555
Gd0 O2 2.491584 1_555
Gd0 O5 2.499612 1_565
Gd1 O19 2.320323 1_555
Gd1 O13 2.333802 1_655
Gd1 O2 2.360955 1_545
Gd1 O10 2.382326 1_655
Gd1 O5 2.407132 1_655
Gd1 O11 2.472696 1_555
Gd1 O3 2.491584 1_555
Gd1 O4 2.499612 1_545
Gd2 O16 2.320323 1_555
Gd2 O14 2.333802 1_555
Gd2 O1 2.360955 1_455
Gd2 O9 2.382326 1_565
Gd2 O6 2.407132 1_556
Gd2 O8 2.472696 1_556
Gd2 O0 2.491584 1_556
Gd2 O7 2.499612 1_555
Gd3 O17 2.320323 1_555
Gd3 O15 2.333802 1_555
Gd3 O0 2.360955 1_655
Gd3 O8 2.382326 1_545
Gd3 O7 2.407132 1_554
Gd3 O9 2.472696 1_554
Gd3 O1 2.491584 1_554
Gd3 O6 2.499612 1_555
O0 W0 2.136506 1_455
O1 W1 2.136506 1_655
O2 W2 2.136506 1_555
O3 W3 2.136506 1_555
O4 W2 1.915548 1_555
O5 W3 1.915548 1_555
O6 W0 1.915548 1_555
O7 W1 1.915548 1_555
O8 W0 1.866602 1_455
O9 W1 1.866602 1_655
O10 W2 1.866602 1_555
O11 W3 1.866602 1_555
O12 W0 1.802767 1_555
O13 W1 1.802767 1_555
O14 W2 1.802767 1_555
O15 W3 1.802767 1_555
O16 W1 1.817071 1_565
O17 W0 1.817071 1_545
O18 W3 1.817071 1_555
O19 W2 1.817071 1_555
