# generated using pymatgen
data_Li4MnCo2O7
_symmetry_space_group_name_H-M   'P 1'
_cell_length_a   5.12255800
_cell_length_b   5.12528180
_cell_length_c   10.11364908
_cell_angle_alpha   100.54870322
_cell_angle_beta   100.72168463
_cell_angle_gamma   98.04804437
_symmetry_Int_Tables_number   1
_chemical_formula_structural   Li4MnCo2O7
_chemical_formula_sum   'Li8 Mn2 Co4 O14'
_cell_volume   252.28600187
_cell_formula_units_Z   2
loop_
 _symmetry_equiv_pos_site_id
 _symmetry_equiv_pos_as_xyz
  1  'x, y, z'
loop_
 _atom_site_type_symbol
 _atom_site_label
 _atom_site_symmetry_multiplicity
 _atom_site_fract_x
 _atom_site_fract_y
 _atom_site_fract_z
 _atom_site_occupancy
  Li  Li0  1  0.42874100  0.70793500  0.92562500  1
  Li  Li1  1  0.57513600  0.29614000  0.07363300  1
  Li  Li2  1  0.28445600  0.13710500  0.78435600  1
  Li  Li3  1  0.15181100  0.58363300  0.63785700  1
  Li  Li4  1  0.99312800  0.99216600  0.49446700  1
  Li  Li5  1  0.86241200  0.43447600  0.36097500  1
  Li  Li6  1  0.70534800  0.84925500  0.22373400  1
  Li  Li7  1  0.42883900  0.71322500  0.42943300  1
  Mn  Mn0  1  0.99726700  0.99791500  0.99664400  1
  Mn  Mn1  1  0.14558400  0.57026900  0.14321800  1
  Co  Co0  1  0.29402100  0.14176800  0.29623300  1
  Co  Co1  1  0.56366700  0.28447500  0.56808100  1
  Co  Co2  1  0.71389900  0.85669000  0.71295400  1
  Co  Co3  1  0.85502300  0.42409100  0.85529300  1
  O  O0  1  0.65656500  0.04942600  0.88594500  1
  O  O1  1  0.80417400  0.61544500  0.02740400  1
  O  O2  1  0.53540500  0.52265400  0.75119100  1
  O  O3  1  0.40261500  0.94791300  0.61770900  1
  O  O4  1  0.21851200  0.33966000  0.46791900  1
  O  O5  1  0.07443200  0.78595400  0.30505400  1
  O  O6  1  0.95505600  0.22864800  0.16816300  1
  O  O7  1  0.19765000  0.37626700  0.96494400  1
  O  O8  1  0.32474800  0.90426100  0.10552400  1
  O  O9  1  0.04631700  0.80270300  0.82053100  1
  O  O10  1  0.90514200  0.20127100  0.69354100  1
  O  O11  1  0.77696200  0.64637000  0.55566300  1
  O  O12  1  0.63557400  0.09811700  0.39235100  1
  O  O13  1  0.46751500  0.49216900  0.24155900  1
loop_
_geom_bond_atom_site_label_1
_geom_bond_atom_site_label_2
_geom_bond_distance
_geom_bond_site_symmetry_2
Li0 O2 2.050157 1_555
Li0 O7 2.075643 1_555
Li0 O0 2.108521 1_565
Li0 O8 2.108795 1_556
Li0 O1 2.163389 1_556
Li0 O9 2.209977 1_555
Li1 O13 2.019018 1_555
Li1 O1 2.054260 1_555
Li1 O6 2.106780 1_555
Li1 O7 2.170926 1_554
Li1 O0 2.222513 1_554
Li1 O8 2.335160 1_545
Li2 O3 2.023052 1_545
Li2 O10 2.086317 1_455
Li2 O9 2.090372 1_545
Li2 O0 2.138032 1_555
Li2 O7 2.161272 1_555
Li2 O2 2.315517 1_555
Li3 O11 2.039208 1_455
Li3 O4 2.045845 1_555
Li3 O2 2.176637 1_555
Li3 O3 2.177845 1_555
Li3 O9 2.178949 1_555
Li3 O10 2.393691 1_455
Li4 O4 2.071642 1_665
Li4 O12 2.120430 1_565
Li4 O5 2.153840 1_655
Li4 O11 2.203946 1_555
Li4 O10 2.255707 1_565
Li4 O3 2.295420 1_655
Li5 O12 2.049257 1_555
Li5 O4 2.107145 1_655
Li5 O5 2.190507 1_655
Li5 O6 2.207267 1_555
Li5 O11 2.217851 1_555
Li5 O13 2.242170 1_555
Li6 O5 2.011749 1_655
Li6 O12 2.054462 1_565
Li6 O13 2.108194 1_555
Li6 O8 2.172544 1_555
Li6 O1 2.303828 1_555
Li6 O6 2.388372 1_565
Li7 O13 2.085170 1_555
Li7 O3 2.095828 1_555
Li7 O11 2.100359 1_555
Li7 O5 2.128076 1_555
Li7 O4 2.197590 1_555
Li7 O12 2.233231 1_565
Mn0 O9 1.954754 1_655
Mn0 O0 1.969597 1_565
Mn0 O6 1.978488 1_566
Mn0 O8 1.997199 1_656
Mn0 O7 2.170139 1_665
Mn0 O1 2.170866 1_556
Mn1 O13 1.894551 1_555
Mn1 O5 1.925130 1_555
Mn1 O8 1.961410 1_555
Mn1 O6 1.963855 1_455
Mn1 O7 1.976711 1_554
Mn1 O1 1.983602 1_455
Co0 O12 1.900690 1_555
Co0 O4 1.976926 1_555
Co0 O5 2.030140 1_545
Co0 O13 2.102477 1_555
Co0 O6 2.117024 1_455
Co0 O8 2.129238 1_545
Co1 O4 1.952123 1_555
Co1 O12 1.981720 1_555
Co1 O3 1.995165 1_545
Co1 O11 2.053973 1_555
Co1 O2 2.064517 1_555
Co1 O10 2.105422 1_555
Co2 O11 1.859513 1_555
Co2 O3 1.868499 1_555
Co2 O9 1.926850 1_655
Co2 O0 1.939764 1_565
Co2 O10 1.957386 1_565
Co2 O2 1.962721 1_555
Co3 O10 1.897531 1_555
Co3 O1 1.916979 1_556
Co3 O2 1.956848 1_555
Co3 O7 1.966252 1_655
Co3 O0 2.146071 1_555
Co3 O9 2.166768 1_655
