# generated using pymatgen
data_Ce5(Sn5Rh2)2
_symmetry_space_group_name_H-M   'P 1'
_cell_length_a   14.11509200
_cell_length_b   14.11509200
_cell_length_c   4.62242200
_cell_angle_alpha   90.00000000
_cell_angle_beta   90.00000000
_cell_angle_gamma   90.00000000
_symmetry_Int_Tables_number   1
_chemical_formula_structural   Ce5(Sn5Rh2)2
_chemical_formula_sum   'Ce10 Sn20 Rh8'
_cell_volume   920.95204758
_cell_formula_units_Z   2
loop_
 _symmetry_equiv_pos_site_id
 _symmetry_equiv_pos_as_xyz
  1  'x, y, z'
loop_
 _atom_site_type_symbol
 _atom_site_label
 _atom_site_symmetry_multiplicity
 _atom_site_fract_x
 _atom_site_fract_y
 _atom_site_fract_z
 _atom_site_occupancy
  Ce  Ce0  1  0.50000000  0.50000000  0.00000000  1
  Ce  Ce1  1  0.00000000  0.00000000  0.00000000  1
  Ce  Ce2  1  0.67635400  0.17635400  0.50000000  1
  Ce  Ce3  1  0.32364600  0.82364600  0.50000000  1
  Ce  Ce4  1  0.17635400  0.32364600  0.50000000  1
  Ce  Ce5  1  0.82364600  0.67635400  0.50000000  1
  Ce  Ce6  1  0.88928900  0.38928900  0.50000000  1
  Ce  Ce7  1  0.11071100  0.61071100  0.50000000  1
  Ce  Ce8  1  0.38928900  0.11071100  0.50000000  1
  Ce  Ce9  1  0.61071100  0.88928900  0.50000000  1
  Sn  Sn0  1  0.56861400  0.06861400  0.00000000  1
  Sn  Sn1  1  0.43138600  0.93138600  0.00000000  1
  Sn  Sn2  1  0.06861400  0.43138600  0.00000000  1
  Sn  Sn3  1  0.93138600  0.56861400  0.00000000  1
  Sn  Sn4  1  0.65433100  0.69952000  0.00000000  1
  Sn  Sn5  1  0.34566900  0.30048000  0.00000000  1
  Sn  Sn6  1  0.15433100  0.80048000  0.00000000  1
  Sn  Sn7  1  0.84566900  0.19952000  0.00000000  1
  Sn  Sn8  1  0.30048000  0.65433100  0.00000000  1
  Sn  Sn9  1  0.69952000  0.34566900  0.00000000  1
  Sn  Sn10  1  0.19952000  0.15433100  0.00000000  1
  Sn  Sn11  1  0.80048000  0.84566900  0.00000000  1
  Sn  Sn12  1  0.66116300  0.50403300  0.50000000  1
  Sn  Sn13  1  0.33883700  0.49596700  0.50000000  1
  Sn  Sn14  1  0.16116300  0.99596700  0.50000000  1
  Sn  Sn15  1  0.83883700  0.00403300  0.50000000  1
  Sn  Sn16  1  0.49596700  0.66116300  0.50000000  1
  Sn  Sn17  1  0.50403300  0.33883700  0.50000000  1
  Sn  Sn18  1  0.00403300  0.16116300  0.50000000  1
  Sn  Sn19  1  0.99596700  0.83883700  0.50000000  1
  Rh  Rh0  1  0.74665600  0.52915500  0.00000000  1
  Rh  Rh1  1  0.25334400  0.47084500  0.00000000  1
  Rh  Rh2  1  0.24665600  0.97084500  0.00000000  1
  Rh  Rh3  1  0.75334400  0.02915500  0.00000000  1
  Rh  Rh4  1  0.47084500  0.74665600  0.00000000  1
  Rh  Rh5  1  0.52915500  0.25334400  0.00000000  1
  Rh  Rh6  1  0.02915500  0.24665600  0.00000000  1
  Rh  Rh7  1  0.97084500  0.75334400  0.00000000  1
loop_
_geom_bond_atom_site_label_1
_geom_bond_atom_site_label_2
_geom_bond_distance
_geom_bond_site_symmetry_2
Ce0 Sn16 3.243423 1_555
Ce0 Sn12 3.243423 1_554
Ce0 Sn16 3.243423 1_554
Ce0 Sn12 3.243423 1_555
Ce0 Sn17 3.243423 1_554
Ce0 Sn17 3.243423 1_555
Ce0 Sn13 3.243423 1_555
Ce0 Sn13 3.243423 1_554
Ce0 Rh5 3.505809 1_555
Ce0 Rh0 3.505809 1_555
Ce0 Rh1 3.505809 1_555
Ce0 Rh4 3.505809 1_555
Ce0 Sn5 3.560426 1_555
Ce0 Sn8 3.560426 1_555
Ce0 Sn9 3.560426 1_555
Ce0 Sn4 3.560426 1_555
Ce1 Sn18 3.243423 1_555
Ce1 Sn18 3.243423 1_554
Ce1 Sn14 3.243423 1_544
Ce1 Sn14 3.243423 1_545
Ce1 Sn15 3.243423 1_454
Ce1 Sn15 3.243423 1_455
Ce1 Sn19 3.243423 1_444
Ce1 Sn19 3.243423 1_445
Ce1 Rh2 3.505809 1_545
Ce1 Rh6 3.505809 1_555
Ce1 Rh7 3.505809 1_445
Ce1 Rh3 3.505809 1_455
Ce1 Sn6 3.560426 1_545
Ce1 Sn11 3.560426 1_445
Ce1 Sn10 3.560426 1_555
Ce1 Sn7 3.560426 1_455
Ce2 Sn0 3.157074 1_555
Ce2 Sn0 3.157074 1_556
Ce2 Rh3 3.292356 1_555
Ce2 Rh3 3.292356 1_556
Ce2 Rh5 3.292356 1_556
Ce2 Rh5 3.292356 1_555
Ce2 Sn7 3.340692 1_556
Ce2 Sn7 3.340692 1_555
Ce2 Sn9 3.340692 1_555
Ce2 Sn9 3.340692 1_556
Ce2 Sn15 3.343080 1_555
Ce2 Sn17 3.343080 1_555
Ce3 Sn1 3.157074 1_555
Ce3 Sn1 3.157074 1_556
Ce3 Rh4 3.292356 1_556
Ce3 Rh4 3.292356 1_555
Ce3 Rh2 3.292356 1_555
Ce3 Rh2 3.292356 1_556
Ce3 Sn6 3.340692 1_555
Ce3 Sn6 3.340692 1_556
Ce3 Sn8 3.340692 1_556
Ce3 Sn8 3.340692 1_555
Ce3 Sn14 3.343080 1_555
Ce3 Sn16 3.343080 1_555
Ce4 Sn2 3.157074 1_555
Ce4 Sn2 3.157074 1_556
Ce4 Rh6 3.292356 1_555
Ce4 Rh6 3.292356 1_556
Ce4 Rh1 3.292356 1_555
Ce4 Rh1 3.292356 1_556
Ce4 Sn10 3.340692 1_556
Ce4 Sn10 3.340692 1_555
Ce4 Sn5 3.340692 1_556
Ce4 Sn5 3.340692 1_555
Ce4 Sn18 3.343080 1_555
Ce4 Sn13 3.343080 1_555
Ce5 Sn3 3.157074 1_555
Ce5 Sn3 3.157074 1_556
Ce5 Rh7 3.292356 1_556
Ce5 Rh7 3.292356 1_555
Ce5 Rh0 3.292356 1_556
Ce5 Rh0 3.292356 1_555
Ce5 Sn11 3.340692 1_556
Ce5 Sn11 3.340692 1_555
Ce5 Sn4 3.340692 1_555
Ce5 Sn4 3.340692 1_556
Ce5 Sn19 3.343080 1_555
Ce5 Sn12 3.343080 1_555
Ce6 Sn3 3.478748 1_555
Ce6 Sn3 3.478748 1_556
Ce6 Sn2 3.478748 1_655
Ce6 Sn2 3.478748 1_656
Ce6 Sn9 3.591061 1_556
Ce6 Sn9 3.591061 1_555
Ce6 Sn7 3.591061 1_556
Ce6 Sn7 3.591061 1_555
Ce6 Sn18 3.604400 1_655
Ce6 Sn12 3.604400 1_555
Ce6 Rh0 3.645893 1_556
Ce6 Rh0 3.645893 1_555
Ce6 Rh6 3.645893 1_655
Ce6 Rh6 3.645893 1_656
Ce7 Sn2 3.478748 1_556
Ce7 Sn2 3.478748 1_555
Ce7 Sn3 3.478748 1_455
Ce7 Sn3 3.478748 1_456
Ce7 Sn6 3.591061 1_555
Ce7 Sn6 3.591061 1_556
Ce7 Sn8 3.591061 1_556
Ce7 Sn8 3.591061 1_555
Ce7 Sn19 3.604400 1_455
Ce7 Sn13 3.604400 1_555
Ce7 Rh7 3.645893 1_456
Ce7 Rh7 3.645893 1_455
Ce7 Rh1 3.645893 1_555
Ce7 Rh1 3.645893 1_556
Ce8 Sn0 3.478748 1_556
Ce8 Sn0 3.478748 1_555
Ce8 Sn1 3.478748 1_545
Ce8 Sn1 3.478748 1_546
Ce8 Sn10 3.591061 1_556
Ce8 Sn10 3.591061 1_555
Ce8 Sn5 3.591061 1_556
Ce8 Sn5 3.591061 1_555
Ce8 Sn14 3.604400 1_545
Ce8 Sn17 3.604400 1_555
Ce8 Rh2 3.645893 1_545
Ce8 Rh2 3.645893 1_546
Ce8 Rh5 3.645893 1_556
Ce8 Rh5 3.645893 1_555
Ce9 Sn1 3.478748 1_555
Ce9 Sn1 3.478748 1_556
Ce9 Sn0 3.478748 1_565
Ce9 Sn0 3.478748 1_566
Ce9 Sn4 3.591061 1_556
Ce9 Sn4 3.591061 1_555
Ce9 Sn11 3.591061 1_555
Ce9 Sn11 3.591061 1_556
Ce9 Sn15 3.604400 1_565
Ce9 Sn16 3.604400 1_555
Ce9 Rh3 3.645893 1_565
Ce9 Rh3 3.645893 1_566
Ce9 Rh4 3.645893 1_556
Ce9 Rh4 3.645893 1_555
Sn0 Sn1 2.739312 1_545
Sn2 Sn3 2.739312 1_455
Sn6 Sn8 2.917390 1_555
Sn7 Sn9 2.917390 1_555
Sn10 Sn5 2.917390 1_555
Sn11 Sn4 2.917390 1_555
Rh0 Sn12 2.631285 1_554
Rh0 Sn12 2.631285 1_555
Rh0 Sn3 2.666303 1_555
Rh0 Sn9 2.674015 1_555
Rh0 Sn4 2.735130 1_555
Rh1 Sn13 2.631285 1_554
Rh1 Sn13 2.631285 1_555
Rh1 Sn2 2.666303 1_555
Rh1 Sn8 2.674015 1_555
Rh1 Sn5 2.735130 1_555
Rh2 Sn14 2.631285 1_554
Rh2 Sn14 2.631285 1_555
Rh2 Sn1 2.666303 1_555
Rh2 Sn10 2.674015 1_565
Rh2 Sn6 2.735130 1_555
Rh3 Sn15 2.631285 1_555
Rh3 Sn15 2.631285 1_554
Rh3 Sn0 2.666303 1_555
Rh3 Sn11 2.674015 1_545
Rh3 Sn7 2.735130 1_555
Rh4 Sn16 2.631285 1_555
Rh4 Sn16 2.631285 1_554
Rh4 Sn1 2.666303 1_555
Rh4 Sn4 2.674015 1_555
Rh4 Sn8 2.735130 1_555
Rh5 Sn17 2.631285 1_555
Rh5 Sn17 2.631285 1_554
Rh5 Sn0 2.666303 1_555
Rh5 Sn5 2.674015 1_555
Rh5 Sn9 2.735130 1_555
Rh6 Sn18 2.631285 1_555
Rh6 Sn18 2.631285 1_554
Rh6 Sn2 2.666303 1_555
Rh6 Sn7 2.674015 1_455
Rh6 Sn10 2.735130 1_555
Rh7 Sn19 2.631285 1_554
Rh7 Sn19 2.631285 1_555
Rh7 Sn3 2.666303 1_555
Rh7 Sn6 2.674015 1_655
Rh7 Sn11 2.735130 1_555
