# generated using pymatgen
data_H12RuC4S2N(ClO)3
_symmetry_space_group_name_H-M   'P 1'
_cell_length_a   9.43004800
_cell_length_b   12.45074500
_cell_length_c   14.43319610
_cell_angle_alpha   90.00000000
_cell_angle_beta   115.69902370
_cell_angle_gamma   90.00000000
_symmetry_Int_Tables_number   1
_chemical_formula_structural   H12RuC4S2N(ClO)3
_chemical_formula_sum   'H48 Ru4 C16 S8 N4 Cl12 O12'
_cell_volume   1526.99364750
_cell_formula_units_Z   4
loop_
 _symmetry_equiv_pos_site_id
 _symmetry_equiv_pos_as_xyz
  1  'x, y, z'
loop_
 _atom_site_type_symbol
 _atom_site_label
 _atom_site_symmetry_multiplicity
 _atom_site_fract_x
 _atom_site_fract_y
 _atom_site_fract_z
 _atom_site_occupancy
  H  H0  1  0.10197700  0.95712300  0.37416100  1
  H  H1  1  0.10197700  0.54287700  0.87416100  1
  H  H2  1  0.89802300  0.04287700  0.62583900  1
  H  H3  1  0.89802300  0.45712300  0.12583900  1
  H  H4  1  0.26924000  0.87319200  0.39617800  1
  H  H5  1  0.26924000  0.62680800  0.89617800  1
  H  H6  1  0.73076000  0.12680800  0.60382200  1
  H  H7  1  0.73076000  0.37319200  0.10382200  1
  H  H8  1  0.27698800  0.01412200  0.37051500  1
  H  H9  1  0.27698800  0.48587800  0.87051500  1
  H  H10  1  0.72301200  0.98587800  0.62948500  1
  H  H11  1  0.72301200  0.51412200  0.12948500  1
  H  H12  1  0.23963600  0.11622700  0.62226500  1
  H  H13  1  0.23963600  0.38377300  0.12226500  1
  H  H14  1  0.76036400  0.88377300  0.37773500  1
  H  H15  1  0.76036400  0.61622700  0.87773500  1
  H  H16  1  0.08084200  0.08518300  0.49718100  1
  H  H17  1  0.08084200  0.41481700  0.99718100  1
  H  H18  1  0.91915800  0.91481700  0.50281900  1
  H  H19  1  0.91915800  0.58518300  0.00281900  1
  H  H20  1  0.24902600  0.16126000  0.50651100  1
  H  H21  1  0.24902600  0.33874000  0.00651100  1
  H  H22  1  0.75097400  0.83874000  0.49348900  1
  H  H23  1  0.75097400  0.66126000  0.99348900  1
  H  H24  1  0.96624200  0.67684000  0.30240100  1
  H  H25  1  0.96624200  0.82316000  0.80240100  1
  H  H26  1  0.03375800  0.32316000  0.69759900  1
  H  H27  1  0.03375800  0.17684000  0.19759900  1
  H  H28  1  0.89512200  0.67524500  0.40056200  1
  H  H29  1  0.89512200  0.82475500  0.90056200  1
  H  H30  1  0.10487800  0.32475500  0.59943800  1
  H  H31  1  0.10487800  0.17524500  0.09943800  1
  H  H32  1  0.87856400  0.55618600  0.32685600  1
  H  H33  1  0.87856400  0.94381400  0.82685600  1
  H  H34  1  0.12143600  0.44381400  0.67314400  1
  H  H35  1  0.12143600  0.05618600  0.17314400  1
  H  H36  1  0.33332000  0.49916600  0.42391700  1
  H  H37  1  0.33332000  0.00083400  0.92391700  1
  H  H38  1  0.66668000  0.50083400  0.57608300  1
  H  H39  1  0.66668000  0.99916600  0.07608300  1
  H  H40  1  0.20490500  0.57928300  0.31515900  1
  H  H41  1  0.20490500  0.92071700  0.81515900  1
  H  H42  1  0.79509500  0.42071700  0.68484100  1
  H  H43  1  0.79509500  0.07928300  0.18484100  1
  H  H44  1  0.13993700  0.45098600  0.34244800  1
  H  H45  1  0.13993700  0.04901400  0.84244800  1
  H  H46  1  0.86006300  0.54901400  0.65755200  1
  H  H47  1  0.86006300  0.95098600  0.15755200  1
  Ru  Ru0  1  0.33930800  0.74268500  0.64405400  1
  Ru  Ru1  1  0.33930800  0.75731500  0.14405400  1
  Ru  Ru2  1  0.66069200  0.25731500  0.35594600  1
  Ru  Ru3  1  0.66069200  0.24268500  0.85594600  1
  C  C0  1  0.23060800  0.95367200  0.40562800  1
  C  C1  1  0.23060800  0.54632800  0.90562800  1
  C  C2  1  0.76939200  0.04632800  0.59437200  1
  C  C3  1  0.76939200  0.45367200  0.09437200  1
  C  C4  1  0.20799000  0.09733700  0.54148100  1
  C  C5  1  0.20799000  0.40266300  0.04148100  1
  C  C6  1  0.79201000  0.90266300  0.45851900  1
  C  C7  1  0.79201000  0.59733700  0.95851900  1
  C  C8  1  0.94954000  0.62834000  0.36040600  1
  C  C9  1  0.94954000  0.87166000  0.86040600  1
  C  C10  1  0.05046000  0.37166000  0.63959400  1
  C  C11  1  0.05046000  0.12834000  0.13959400  1
  C  C12  1  0.21165900  0.52299200  0.37541400  1
  C  C13  1  0.21165900  0.97700800  0.87541400  1
  C  C14  1  0.78834100  0.47700800  0.62458600  1
  C  C15  1  0.78834100  0.02299200  0.12458600  1
  S  S0  1  0.13621600  0.58489100  0.45707000  1
  S  S1  1  0.13621600  0.91510900  0.95707000  1
  S  S2  1  0.86378400  0.41510900  0.54293000  1
  S  S3  1  0.86378400  0.08489100  0.04293000  1
  S  S4  1  0.31408800  0.97801400  0.54143800  1
  S  S5  1  0.31408800  0.52198600  0.04143800  1
  S  S6  1  0.68591200  0.02198600  0.45856200  1
  S  S7  1  0.68591200  0.47801400  0.95856200  1
  N  N0  1  0.43468300  0.78423600  0.77042100  1
  N  N1  1  0.43468300  0.71576400  0.27042100  1
  N  N2  1  0.56531700  0.21576400  0.22957900  1
  N  N3  1  0.56531700  0.28423600  0.72957900  1
  Cl  Cl0  1  0.56423500  0.77562600  0.61207400  1
  Cl  Cl1  1  0.56423500  0.72437400  0.11207400  1
  Cl  Cl2  1  0.43576500  0.22437400  0.38792600  1
  Cl  Cl3  1  0.43576500  0.27562600  0.88792600  1
  Cl  Cl4  1  0.42238500  0.56412200  0.69201200  1
  Cl  Cl5  1  0.42238500  0.93587800  0.19201200  1
  Cl  Cl6  1  0.57761500  0.43587800  0.30798800  1
  Cl  Cl7  1  0.57761500  0.06412200  0.80798800  1
  Cl  Cl8  1  0.09620700  0.70579400  0.65399000  1
  Cl  Cl9  1  0.09620700  0.79420600  0.15399000  1
  Cl  Cl10  1  0.90379300  0.29420600  0.34601000  1
  Cl  Cl11  1  0.90379300  0.20579400  0.84601000  1
  O  O0  1  0.23181600  0.69135800  0.49143900  1
  O  O1  1  0.23181600  0.80864200  0.99143900  1
  O  O2  1  0.76818400  0.30864200  0.50856100  1
  O  O3  1  0.76818400  0.19135800  0.00856100  1
  O  O4  1  0.23239300  0.89290500  0.58197600  1
  O  O5  1  0.23239300  0.60709500  0.08197600  1
  O  O6  1  0.76760700  0.10709500  0.41802400  1
  O  O7  1  0.76760700  0.39290500  0.91802400  1
  O  O8  1  0.50159600  0.80284300  0.85827800  1
  O  O9  1  0.50159600  0.69715700  0.35827800  1
  O  O10  1  0.49840400  0.19715700  0.14172200  1
  O  O11  1  0.49840400  0.30284300  0.64172200  1
loop_
_geom_bond_atom_site_label_1
_geom_bond_atom_site_label_2
_geom_bond_distance
_geom_bond_site_symmetry_2
C0 H4 1.094755 1_555
C0 H0 1.096213 1_555
C0 H8 1.098564 1_565
C0 S4 1.793194 1_555
C1 H5 1.094755 1_555
C1 H1 1.096213 1_555
C1 H9 1.098564 1_555
C1 S5 1.793194 1_556
C2 H6 1.094755 1_555
C2 H2 1.096213 1_555
C2 H10 1.098564 1_545
C2 S6 1.793194 1_555
C3 H7 1.094755 1_555
C3 H3 1.096213 1_555
C3 H11 1.098564 1_555
C3 S7 1.793194 1_554
C4 H12 1.096397 1_555
C4 H16 1.097476 1_555
C4 H20 1.098787 1_555
C4 S4 1.791297 1_545
C5 H13 1.096397 1_555
C5 H17 1.097476 1_554
C5 H21 1.098787 1_555
C5 S5 1.791297 1_555
C6 H14 1.096397 1_555
C6 H18 1.097476 1_555
C6 H22 1.098787 1_555
C6 S6 1.791297 1_565
C7 H15 1.096397 1_555
C7 H19 1.097476 1_556
C7 H23 1.098787 1_555
C7 S7 1.791297 1_555
C8 H28 1.094649 1_555
C8 H24 1.097595 1_555
C8 H32 1.099289 1_555
C8 S0 1.791080 1_655
C9 H29 1.094649 1_555
C9 H25 1.097595 1_555
C9 H33 1.099289 1_555
C9 S1 1.791080 1_655
C10 H30 1.094649 1_555
C10 H26 1.097595 1_555
C10 H34 1.099289 1_555
C10 S2 1.791080 1_455
C11 H31 1.094649 1_555
C11 H27 1.097595 1_555
C11 H35 1.099289 1_555
C11 S3 1.791080 1_455
C12 H36 1.094414 1_555
C12 H40 1.097068 1_555
C12 H44 1.099315 1_555
C12 S0 1.793399 1_555
C13 H37 1.094414 1_565
C13 H41 1.097068 1_555
C13 H45 1.099315 1_565
C13 S1 1.793399 1_555
C14 H38 1.094414 1_555
C14 H42 1.097068 1_555
C14 H46 1.099315 1_555
C14 S2 1.793399 1_555
C15 H39 1.094414 1_545
C15 H43 1.097068 1_555
C15 H47 1.099315 1_545
C15 S3 1.793399 1_555
N0 O8 1.168694 1_555
N0 Ru0 1.726384 1_555
N1 O9 1.168694 1_555
N1 Ru1 1.726384 1_555
N2 O10 1.168694 1_555
N2 Ru2 1.726384 1_555
N3 O11 1.168694 1_555
N3 Ru3 1.726384 1_555
Cl0 Ru0 2.393599 1_555
Cl1 Ru1 2.393599 1_555
Cl2 Ru2 2.393599 1_555
Cl3 Ru3 2.393599 1_555
Cl4 Ru0 2.359104 1_555
Cl5 Ru1 2.359104 1_555
Cl6 Ru2 2.359104 1_555
Cl7 Ru3 2.359104 1_555
Cl8 Ru0 2.402502 1_555
Cl9 Ru1 2.402502 1_555
Cl10 Ru2 2.402502 1_555
Cl11 Ru3 2.402502 1_555
O0 S0 1.558250 1_555
O0 Ru0 2.086001 1_555
O1 S1 1.558250 1_555
O1 Ru1 2.086001 1_556
O2 S2 1.558250 1_555
O2 Ru2 2.086001 1_555
O3 S3 1.558250 1_555
O3 Ru3 2.086001 1_554
O4 S4 1.565139 1_555
O4 Ru0 2.129328 1_555
O5 S5 1.565139 1_555
O5 Ru1 2.129328 1_555
O6 S6 1.565139 1_555
O6 Ru2 2.129328 1_555
O7 S7 1.565139 1_555
O7 Ru3 2.129328 1_555
