# generated using pymatgen
data_TeMoWSe2S
_symmetry_space_group_name_H-M   'P 1'
_cell_length_a   3.34368152
_cell_length_b   3.34368152
_cell_length_c   38.05601700
_cell_angle_alpha   90.00000000
_cell_angle_beta   90.00000000
_cell_angle_gamma   119.99999050
_symmetry_Int_Tables_number   1
_chemical_formula_structural   TeMoWSe2S
_chemical_formula_sum   'Te2 Mo2 W2 Se4 S2'
_cell_volume   368.47142637
_cell_formula_units_Z   2
loop_
 _symmetry_equiv_pos_site_id
 _symmetry_equiv_pos_as_xyz
  1  'x, y, z'
loop_
 _atom_site_type_symbol
 _atom_site_label
 _atom_site_symmetry_multiplicity
 _atom_site_fract_x
 _atom_site_fract_y
 _atom_site_fract_z
 _atom_site_occupancy
  Te  Te0  1  0.33333300  0.66666700  0.70764900  1
  Te  Te1  1  0.33333300  0.66666700  0.60747000  1
  Mo  Mo0  1  0.33333300  0.66666700  0.09392000  1
  Mo  Mo1  1  0.33333300  0.66666700  0.46962200  1
  W  W0  1  0.66666700  0.33333300  0.28182100  1
  W  W1  1  0.66666700  0.33333300  0.65756800  1
  Se  Se0  1  0.66666700  0.33333300  0.05015900  1
  Se  Se1  1  0.66666700  0.33333300  0.42587400  1
  Se  Se2  1  0.66666700  0.33333300  0.13767300  1
  Se  Se3  1  0.66666700  0.33333300  0.51339700  1
  S  S0  1  0.33333300  0.66666700  0.32179000  1
  S  S1  1  0.33333300  0.66666700  0.24180400  1
loop_
_geom_bond_atom_site_label_1
_geom_bond_atom_site_label_2
_geom_bond_distance
_geom_bond_site_symmetry_2
Te0 W1 2.712770 1_455
Te0 W1 2.712770 1_565
Te0 W1 2.712774 1_555
Te1 W1 2.713224 1_455
Te1 W1 2.713224 1_565
Te1 W1 2.713228 1_555
Mo0 Se2 2.549347 1_565
Mo0 Se2 2.549347 1_455
Mo0 Se2 2.549351 1_555
Mo0 Se0 2.549546 1_565
Mo0 Se0 2.549546 1_455
Mo0 Se0 2.549550 1_555
Mo1 Se1 2.549223 1_565
Mo1 Se1 2.549223 1_455
Mo1 Se1 2.549227 1_555
Mo1 Se3 2.549894 1_565
Mo1 Se3 2.549894 1_455
Mo1 Se3 2.549898 1_555
S0 W0 2.457713 1_455
S0 W0 2.457713 1_565
S0 W0 2.457718 1_555
S1 W0 2.458844 1_455
S1 W0 2.458844 1_565
S1 W0 2.458849 1_555
