# generated using pymatgen
data_TiVO4
_symmetry_space_group_name_H-M   'P 1'
_cell_length_a   5.54719598
_cell_length_b   7.72181493
_cell_length_c   7.59149286
_cell_angle_alpha   75.80600974
_cell_angle_beta   69.94014512
_cell_angle_gamma   102.32520691
_symmetry_Int_Tables_number   1
_chemical_formula_structural   TiVO4
_chemical_formula_sum   'Ti4 V4 O16'
_cell_volume   279.87014556
_cell_formula_units_Z   4
loop_
 _symmetry_equiv_pos_site_id
 _symmetry_equiv_pos_as_xyz
  1  'x, y, z'
loop_
 _atom_site_type_symbol
 _atom_site_label
 _atom_site_symmetry_multiplicity
 _atom_site_fract_x
 _atom_site_fract_y
 _atom_site_fract_z
 _atom_site_occupancy
  Ti  Ti0  1  0.62537000  0.12546700  0.30753900  1
  Ti  Ti1  1  0.62217800  0.12580900  0.81851400  1
  Ti  Ti2  1  0.13663900  0.63398400  0.56260200  1
  Ti  Ti3  1  0.11762000  0.61520200  0.06207300  1
  V  V0  1  0.99042200  0.99999600  0.50270100  1
  V  V1  1  0.49453700  0.50260700  0.25084100  1
  V  V2  1  0.00677700  0.99804900  0.99804700  1
  V  V3  1  0.50632700  0.49621900  0.74875400  1
  O  O0  1  0.31076500  0.23049800  0.36523900  1
  O  O1  1  0.31608400  0.22806300  0.86300300  1
  O  O2  1  0.82165000  0.74177500  0.60835500  1
  O  O3  1  0.79826100  0.71795800  0.12146100  1
  O  O4  1  0.93818200  0.02136400  0.25177200  1
  O  O5  1  0.93912700  0.02022500  0.76820900  1
  O  O6  1  0.43871800  0.52163500  0.51794800  1
  O  O7  1  0.43841700  0.52019400  0.00197300  1
  O  O8  1  0.81381100  0.39249700  0.20141300  1
  O  O9  1  0.80606400  0.40273200  0.69505400  1
  O  O10  1  0.31799000  0.89712400  0.44632200  1
  O  O11  1  0.29949600  0.89568300  0.95171200  1
  O  O12  1  0.19866600  0.59926300  0.30063400  1
  O  O13  1  0.18026500  0.60501100  0.80368700  1
  O  O14  1  0.69993800  0.10126100  0.55138500  1
  O  O15  1  0.68269500  0.10738500  0.05076300  1
loop_
_geom_bond_atom_site_label_1
_geom_bond_atom_site_label_2
_geom_bond_distance
_geom_bond_site_symmetry_2
O0 V1 1.947226 1_555
O0 V0 1.970141 1_445
O0 Ti0 2.036995 1_555
O1 V3 1.926653 1_555
O1 V2 1.936203 1_545
O1 Ti1 1.982509 1_555
O2 V0 1.843693 1_555
O2 V3 2.026061 1_555
O2 Ti2 2.052523 1_655
O3 V1 1.853715 1_555
O3 V2 2.021946 1_654
O3 Ti3 2.049111 1_655
O4 V2 1.893088 1_644
O4 V0 1.996222 1_545
O4 Ti0 2.023586 1_555
O5 V2 1.882713 1_645
O5 V0 1.986946 1_545
O5 Ti1 2.050805 1_555
O6 V3 1.887544 1_555
O6 V1 1.990983 1_555
O6 Ti2 2.012622 1_555
O7 V3 1.891822 1_554
O7 V1 1.995101 1_555
O7 Ti3 2.019312 1_555
O8 Ti3 1.887892 1_655
O8 Ti0 1.918551 1_555
O8 V1 2.084197 1_555
O9 V3 1.908833 1_555
O9 Ti1 1.980290 1_555
O9 Ti2 2.004746 1_655
O10 Ti2 1.886387 1_555
O10 Ti0 1.923385 1_565
O10 V0 2.089360 1_455
O11 V2 1.917723 1_555
O11 Ti1 1.975705 1_565
O11 Ti3 2.001999 1_556
O12 V1 1.905093 1_555
O12 Ti3 1.992478 1_555
O12 Ti2 1.994183 1_555
O13 Ti2 1.893246 1_555
O13 Ti3 1.895874 1_556
O13 V3 2.110495 1_555
O14 V0 1.901491 1_545
O14 Ti1 1.989410 1_555
O14 Ti0 2.005348 1_555
O15 Ti1 1.882796 1_554
O15 Ti0 1.909879 1_555
O15 V2 2.103562 1_644
