# generated using pymatgen
data_CaThNb2O8
_symmetry_space_group_name_H-M   'P 1'
_cell_length_a   6.74136002
_cell_length_b   6.74136002
_cell_length_c   5.21441793
_cell_angle_alpha   69.03903220
_cell_angle_beta   69.03903220
_cell_angle_gamma   114.54196680
_symmetry_Int_Tables_number   1
_chemical_formula_structural   CaThNb2O8
_chemical_formula_sum   'Ca1 Th1 Nb2 O8'
_cell_volume   161.63358492
_cell_formula_units_Z   1
loop_
 _symmetry_equiv_pos_site_id
 _symmetry_equiv_pos_as_xyz
  1  'x, y, z'
loop_
 _atom_site_type_symbol
 _atom_site_label
 _atom_site_symmetry_multiplicity
 _atom_site_fract_x
 _atom_site_fract_y
 _atom_site_fract_z
 _atom_site_occupancy
  Ca  Ca0  1  0.62915700  0.37084300  0.00000000  1
  Th  Th0  1  0.37154800  0.62845200  0.50000000  1
  Nb  Nb0  1  0.10701100  0.89298900  0.00000000  1
  Nb  Nb1  1  0.89468500  0.10531500  0.50000000  1
  O  O0  1  0.78882700  0.72832400  0.44155600  1
  O  O1  1  0.71993900  0.78991500  0.94971400  1
  O  O2  1  0.21008500  0.28006100  0.05028600  1
  O  O3  1  0.27167600  0.21117300  0.55844400  1
  O  O4  1  0.05886600  0.63817800  0.90651900  1
  O  O5  1  0.63307800  0.04669300  0.41654100  1
  O  O6  1  0.95330700  0.36692200  0.58345900  1
  O  O7  1  0.36182200  0.94113400  0.09348100  1
loop_
_geom_bond_atom_site_label_1
_geom_bond_atom_site_label_2
_geom_bond_distance
_geom_bond_site_symmetry_2
Ca0 O4 2.429285 1_654
Ca0 O7 2.429285 1_545
Ca0 O3 2.455103 1_555
Ca0 O0 2.455103 1_554
Ca0 O5 2.487319 1_555
Ca0 O6 2.487319 1_554
Ca0 O1 2.518627 1_554
Ca0 O2 2.518627 1_555
Nb0 O4 1.882236 1_554
Nb0 O7 1.882236 1_555
Nb0 O0 1.947922 1_455
Nb0 O3 1.947922 1_564
Nb0 O1 2.544439 1_454
Nb0 O2 2.544439 1_565
Nb1 O6 1.883878 1_555
Nb1 O5 1.883878 1_555
Nb1 O2 1.945020 1_655
Nb1 O1 1.945020 1_545
Nb1 O0 2.502823 1_545
Nb1 O3 2.502823 1_655
O0 Th0 2.475039 1_555
O1 Th0 2.398848 1_556
O2 Th0 2.398848 1_554
O3 Th0 2.475039 1_555
O4 Th0 2.440966 1_555
O5 Th0 2.385604 1_545
O6 Th0 2.385604 1_655
O7 Th0 2.440966 1_555
