# generated using pymatgen
data_Ca2TaCrO6
_symmetry_space_group_name_H-M   'P 1'
_cell_length_a   5.47048558
_cell_length_b   9.59803422
_cell_length_c   9.59684319
_cell_angle_alpha   71.23605376
_cell_angle_beta   89.89733532
_cell_angle_gamma   89.88637973
_symmetry_Int_Tables_number   1
_chemical_formula_structural   Ca2TaCrO6
_chemical_formula_sum   'Ca8 Ta4 Cr4 O24'
_cell_volume   477.10880441
_cell_formula_units_Z   4
loop_
 _symmetry_equiv_pos_site_id
 _symmetry_equiv_pos_as_xyz
  1  'x, y, z'
loop_
 _atom_site_type_symbol
 _atom_site_label
 _atom_site_symmetry_multiplicity
 _atom_site_fract_x
 _atom_site_fract_y
 _atom_site_fract_z
 _atom_site_occupancy
  Ca  Ca0  1  0.01045500  0.35325100  0.89834000  1
  Ca  Ca1  1  0.01045200  0.85324300  0.39835100  1
  Ca  Ca2  1  0.98955200  0.64675800  0.10165700  1
  Ca  Ca3  1  0.98955400  0.14674900  0.60165500  1
  Ca  Ca4  1  0.48953300  0.60167300  0.64674400  1
  Ca  Ca5  1  0.48953900  0.10166300  0.14674600  1
  Ca  Ca6  1  0.51047600  0.39833200  0.35326400  1
  Ca  Ca7  1  0.51047100  0.89832100  0.85327000  1
  Ta  Ta0  1  0.00000300  0.99999200  0.00000900  1
  Ta  Ta1  1  0.00000300  0.49999700  0.50000200  1
  Ta  Ta2  1  0.49999900  0.50001000  0.99999300  1
  Ta  Ta3  1  0.50000600  0.00000000  0.50000000  1
  Cr  Cr0  1  0.00000600  0.75001000  0.74999800  1
  Cr  Cr1  1  0.49995400  0.75003400  0.24991900  1
  Cr  Cr2  1  0.99990700  0.25000000  0.24998400  1
  Cr  Cr3  1  0.50005200  0.24997600  0.74999800  1
  O  O0  1  0.91347600  0.13696700  0.11174100  1
  O  O1  1  0.91348600  0.63697000  0.61174500  1
  O  O2  1  0.08652400  0.86303600  0.88827100  1
  O  O3  1  0.08652700  0.36302400  0.38825700  1
  O  O4  1  0.58652400  0.38827100  0.86301000  1
  O  O5  1  0.58653500  0.88828100  0.36301500  1
  O  O6  1  0.41347800  0.61171800  0.13698900  1
  O  O7  1  0.41346400  0.11171000  0.63699100  1
  O  O8  1  0.20458500  0.37824200  0.66845200  1
  O  O9  1  0.20457400  0.87825000  0.16843900  1
  O  O10  1  0.79541900  0.62175800  0.33155600  1
  O  O11  1  0.79542200  0.12175700  0.83155500  1
  O  O12  1  0.29545500  0.33158800  0.12175000  1
  O  O13  1  0.29545400  0.83159000  0.62175000  1
  O  O14  1  0.70455100  0.66841100  0.87825600  1
  O  O15  1  0.70457100  0.16841500  0.37825200  1
  O  O16  1  0.29247900  0.12477800  0.91893000  1
  O  O17  1  0.29246500  0.62477400  0.41893800  1
  O  O18  1  0.70753500  0.87521600  0.08108100  1
  O  O19  1  0.70752400  0.37521600  0.58108000  1
  O  O20  1  0.20750300  0.58106900  0.87519400  1
  O  O21  1  0.20749000  0.08108600  0.37518000  1
  O  O22  1  0.79249900  0.41893300  0.12481900  1
  O  O23  1  0.79249800  0.91892700  0.62481900  1
loop_
_geom_bond_atom_site_label_1
_geom_bond_atom_site_label_2
_geom_bond_distance
_geom_bond_site_symmetry_2
Ca0 O4 2.352150 1_455
Ca0 O20 2.385072 1_555
Ca0 O8 2.388478 1_555
Ca0 O0 2.459757 1_456
Ca0 O12 2.606675 1_556
Ca0 O16 2.633815 1_555
Ca0 O22 2.722560 1_456
Ca0 O11 2.767771 1_455
Ca1 O5 2.352097 1_455
Ca1 O21 2.385212 1_565
Ca1 O9 2.388634 1_555
Ca1 O1 2.459644 1_455
Ca1 O13 2.606615 1_555
Ca1 O17 2.633755 1_555
Ca1 O23 2.722473 1_455
Ca1 O10 2.767742 1_455
Ca2 O6 2.352143 1_655
Ca2 O22 2.385113 1_555
Ca2 O10 2.388563 1_555
Ca2 O2 2.459635 1_654
Ca2 O14 2.606627 1_554
Ca2 O18 2.633702 1_555
Ca2 O20 2.722447 1_654
Ca2 O9 2.767714 1_655
Ca3 O7 2.352060 1_655
Ca3 O23 2.385091 1_545
Ca3 O11 2.388584 1_555
Ca3 O3 2.459684 1_655
Ca3 O15 2.606560 1_555
Ca3 O19 2.633816 1_555
Ca3 O21 2.722390 1_655
Ca3 O8 2.767815 1_655
Ca4 O1 2.352346 1_555
Ca4 O17 2.384653 1_555
Ca4 O13 2.388639 1_555
Ca4 O4 2.459501 1_555
Ca4 O8 2.607071 1_555
Ca4 O20 2.633674 1_555
Ca4 O19 2.722443 1_555
Ca4 O14 2.767335 1_555
Ca5 O0 2.352271 1_555
Ca5 O16 2.384691 1_554
Ca5 O12 2.388715 1_555
Ca5 O5 2.459416 1_545
Ca5 O9 2.607016 1_545
Ca5 O21 2.633660 1_555
Ca5 O18 2.722376 1_545
Ca5 O15 2.767383 1_555
Ca6 O3 2.352329 1_555
Ca6 O19 2.384659 1_555
Ca6 O15 2.388689 1_555
Ca6 O6 2.459473 1_555
Ca6 O10 2.607016 1_555
Ca6 O22 2.633618 1_555
Ca6 O17 2.722412 1_555
Ca6 O12 2.767387 1_555
Ca7 O2 2.352303 1_555
Ca7 O18 2.384678 1_556
Ca7 O14 2.388596 1_555
Ca7 O7 2.459522 1_565
Ca7 O11 2.607107 1_565
Ca7 O23 2.633668 1_555
Ca7 O16 2.722427 1_565
Ca7 O13 2.767367 1_555
Cr0 O1 2.022851 1_455
Cr0 O2 2.022907 1_555
Cr0 O23 2.026051 1_455
Cr0 O20 2.026212 1_555
Cr0 O13 2.029299 1_555
Cr0 O14 2.029411 1_455
Cr1 O6 2.022553 1_555
Cr1 O5 2.023331 1_555
Cr1 O18 2.026053 1_555
Cr1 O17 2.027080 1_555
Cr1 O9 2.028419 1_555
Cr1 O10 2.029356 1_555
Cr2 O0 2.022606 1_555
Cr2 O3 2.023025 1_655
Cr2 O22 2.025793 1_555
Cr2 O21 2.026318 1_655
Cr2 O15 2.028913 1_555
Cr2 O12 2.029685 1_655
Cr3 O7 2.022852 1_555
Cr3 O4 2.022969 1_555
Cr3 O19 2.026374 1_555
Cr3 O16 2.026629 1_555
Cr3 O11 2.028531 1_555
Cr3 O8 2.029150 1_555
O0 Ta0 2.001218 1_645
O1 Ta1 2.001268 1_655
O2 Ta0 2.001102 1_556
O3 Ta1 2.001292 1_555
O4 Ta2 2.001305 1_555
O5 Ta3 2.001182 1_565
O6 Ta2 2.001181 1_554
O7 Ta3 2.001182 1_555
O8 Ta1 2.004359 1_555
O9 Ta0 2.004166 1_555
O10 Ta1 2.004360 1_655
O11 Ta0 2.004411 1_646
O12 Ta2 2.004457 1_554
O13 Ta3 2.004389 1_565
O14 Ta2 2.004295 1_555
O15 Ta3 2.004452 1_555
O16 Ta0 2.000868 1_546
O17 Ta1 2.000738 1_555
O18 Ta0 2.000774 1_655
O19 Ta1 2.000856 1_655
O20 Ta2 2.000623 1_555
O21 Ta3 2.000857 1_555
O22 Ta2 2.000798 1_554
O23 Ta3 2.000723 1_565
