# generated using pymatgen
data_Mn2Pb3N4
_symmetry_space_group_name_H-M   'P 1'
_cell_length_a   7.07315100
_cell_length_b   8.78935700
_cell_length_c   10.94722600
_cell_angle_alpha   90.00000000
_cell_angle_beta   90.00000000
_cell_angle_gamma   90.00000000
_symmetry_Int_Tables_number   1
_chemical_formula_structural   Mn2Pb3N4
_chemical_formula_sum   'Mn8 Pb12 N16'
_cell_volume   680.57206405
_cell_formula_units_Z   4
loop_
 _symmetry_equiv_pos_site_id
 _symmetry_equiv_pos_as_xyz
  1  'x, y, z'
loop_
 _atom_site_type_symbol
 _atom_site_label
 _atom_site_symmetry_multiplicity
 _atom_site_fract_x
 _atom_site_fract_y
 _atom_site_fract_z
 _atom_site_occupancy
  Mn  Mn0  1  0.75000000  0.50000000  0.69818600  1
  Mn  Mn1  1  0.75000000  0.00000000  0.80181400  1
  Mn  Mn2  1  0.25000000  0.50000000  0.30181400  1
  Mn  Mn3  1  0.25000000  0.00000000  0.19818600  1
  Mn  Mn4  1  0.65770400  0.25000000  0.75000000  1
  Mn  Mn5  1  0.84229600  0.75000000  0.75000000  1
  Mn  Mn6  1  0.34229600  0.75000000  0.25000000  1
  Mn  Mn7  1  0.15770400  0.25000000  0.25000000  1
  Pb  Pb0  1  0.56745700  0.16653400  0.44359100  1
  Pb  Pb1  1  0.93254300  0.83346600  0.44359100  1
  Pb  Pb2  1  0.56745700  0.33346600  0.05640900  1
  Pb  Pb3  1  0.93254300  0.66653400  0.05640900  1
  Pb  Pb4  1  0.43254300  0.83346600  0.55640900  1
  Pb  Pb5  1  0.06745700  0.16653400  0.55640900  1
  Pb  Pb6  1  0.43254300  0.66653400  0.94359100  1
  Pb  Pb7  1  0.06745700  0.33346600  0.94359100  1
  Pb  Pb8  1  0.75000000  0.50000000  0.30914600  1
  Pb  Pb9  1  0.75000000  0.00000000  0.19085400  1
  Pb  Pb10  1  0.25000000  0.50000000  0.69085400  1
  Pb  Pb11  1  0.25000000  0.00000000  0.80914600  1
  N  N0  1  0.80854600  0.31732300  0.63178600  1
  N  N1  1  0.69145400  0.68267700  0.63178600  1
  N  N2  1  0.80854600  0.18267700  0.86821400  1
  N  N3  1  0.69145400  0.81732300  0.86821400  1
  N  N4  1  0.19145400  0.68267700  0.36821400  1
  N  N5  1  0.30854600  0.31732300  0.36821400  1
  N  N6  1  0.19145400  0.81732300  0.13178600  1
  N  N7  1  0.30854600  0.18267700  0.13178600  1
  N  N8  1  0.56250000  0.43807400  0.79403200  1
  N  N9  1  0.93750000  0.56192600  0.79403200  1
  N  N10  1  0.56250000  0.06192600  0.70596800  1
  N  N11  1  0.93750000  0.93807400  0.70596800  1
  N  N12  1  0.43750000  0.56192600  0.20596800  1
  N  N13  1  0.06250000  0.43807400  0.20596800  1
  N  N14  1  0.43750000  0.93807400  0.29403200  1
  N  N15  1  0.06250000  0.06192600  0.29403200  1
loop_
_geom_bond_atom_site_label_1
_geom_bond_atom_site_label_2
_geom_bond_distance
_geom_bond_site_symmetry_2
Mn0 N9 1.776519 1_555
Mn0 N8 1.776519 1_555
Mn0 N1 1.810485 1_555
Mn0 N0 1.810485 1_555
Mn1 N10 1.776519 1_555
Mn1 N11 1.776519 1_545
Mn1 N2 1.810485 1_555
Mn1 N3 1.810485 1_545
Mn2 N12 1.776519 1_555
Mn2 N13 1.776519 1_555
Mn2 N4 1.810485 1_555
Mn2 N5 1.810485 1_555
Mn3 N15 1.776519 1_555
Mn3 N14 1.776519 1_545
Mn3 N7 1.810485 1_555
Mn3 N6 1.810485 1_545
Mn4 N2 1.778542 1_555
Mn4 N0 1.778542 1_555
Mn4 N8 1.848886 1_555
Mn4 N10 1.848886 1_555
Mn5 N3 1.778542 1_555
Mn5 N1 1.778542 1_555
Mn5 N11 1.848886 1_555
Mn5 N9 1.848886 1_555
Mn6 N6 1.778542 1_555
Mn6 N4 1.778542 1_555
Mn6 N14 1.848886 1_555
Mn6 N12 1.848886 1_555
Mn7 N5 1.778542 1_555
Mn7 N7 1.778542 1_555
Mn7 N13 1.848886 1_555
Mn7 N15 1.848886 1_555
N0 Pb5 2.406480 1_655
N1 Pb4 2.406480 1_555
N2 Pb7 2.406480 1_655
N3 Pb6 2.406480 1_555
N4 Pb1 2.406480 1_455
N5 Pb0 2.406480 1_555
N6 Pb3 2.406480 1_455
N7 Pb2 2.406480 1_555
N8 Pb10 2.541208 1_555
N8 Pb6 2.749123 1_555
N9 Pb10 2.541208 1_655
N9 Pb7 2.749123 1_655
N10 Pb11 2.541208 1_555
N10 Pb4 2.749123 1_545
N11 Pb11 2.541208 1_665
N11 Pb5 2.749123 1_665
N12 Pb8 2.541208 1_555
N12 Pb2 2.749123 1_555
N13 Pb8 2.541208 1_455
N13 Pb3 2.749123 1_455
N14 Pb9 2.541208 1_565
N14 Pb0 2.749123 1_565
N15 Pb9 2.541208 1_455
N15 Pb1 2.749123 1_445
