# generated using pymatgen
data_Li9Mn2Co5O16
_symmetry_space_group_name_H-M   'P 1'
_cell_length_a   5.81240900
_cell_length_b   5.92480367
_cell_length_c   10.04091161
_cell_angle_alpha   87.63485861
_cell_angle_beta   106.80385225
_cell_angle_gamma   119.12359152
_symmetry_Int_Tables_number   1
_chemical_formula_structural   Li9Mn2Co5O16
_chemical_formula_sum   'Li9 Mn2 Co5 O16'
_cell_volume   287.11651251
_cell_formula_units_Z   1
loop_
 _symmetry_equiv_pos_site_id
 _symmetry_equiv_pos_as_xyz
  1  'x, y, z'
loop_
 _atom_site_type_symbol
 _atom_site_label
 _atom_site_symmetry_multiplicity
 _atom_site_fract_x
 _atom_site_fract_y
 _atom_site_fract_z
 _atom_site_occupancy
  Li  Li0  1  0.49532600  0.50046200  0.99614200  1
  Li  Li1  1  0.51068800  0.25560400  0.25641300  1
  Li  Li2  1  0.50117800  0.99881900  0.50355400  1
  Li  Li3  1  0.48829000  0.98660600  0.99117500  1
  Li  Li4  1  0.52988100  0.78051800  0.26704400  1
  Li  Li5  1  0.51566000  0.51878500  0.51013100  1
  Li  Li6  1  0.47072100  0.21823800  0.73229100  1
  Li  Li7  1  0.48658400  0.73855600  0.74327900  1
  Li  Li8  1  0.00086800  0.99960500  0.50126500  1
  Mn  Mn0  1  0.00308300  0.00468100  0.99963400  1
  Mn  Mn1  1  0.00799800  0.75762000  0.25258600  1
  Co  Co0  1  0.99835700  0.49750700  0.50186700  1
  Co  Co1  1  0.98900800  0.23881400  0.74026800  1
  Co  Co2  1  0.00121600  0.50334700  0.00006200  1
  Co  Co3  1  0.00455600  0.25098600  0.25358800  1
  Co  Co4  1  0.99471200  0.74914200  0.74730100  1
  O  O0  1  0.24283100  0.13449600  0.88557200  1
  O  O1  1  0.23371400  0.88198900  0.12406800  1
  O  O2  1  0.24676900  0.64351400  0.37144400  1
  O  O3  1  0.20875500  0.60885300  0.87135600  1
  O  O4  1  0.20448000  0.34296700  0.11455200  1
  O  O5  1  0.21292000  0.09715500  0.35499800  1
  O  O6  1  0.21648500  0.84380200  0.62976100  1
  O  O7  1  0.23248100  0.37508600  0.62756000  1
  O  O8  1  0.76650300  0.86418800  0.12077600  1
  O  O9  1  0.77109000  0.62201000  0.36800000  1
  O  O10  1  0.74327800  0.35976000  0.62322300  1
  O  O11  1  0.80269200  0.41286800  0.13528700  1
  O  O12  1  0.78285800  0.15044700  0.36881900  1
  O  O13  1  0.77203900  0.87657900  0.63857500  1
  O  O14  1  0.79741800  0.66357100  0.88811100  1
  O  O15  1  0.76756000  0.12342600  0.88129900  1
loop_
_geom_bond_atom_site_label_1
_geom_bond_atom_site_label_2
_geom_bond_distance
_geom_bond_site_symmetry_2
Li0 O0 2.060821 1_555
Li0 O8 2.114311 1_556
Li0 O3 2.127180 1_555
Li0 O14 2.134642 1_555
Li0 O4 2.162690 1_556
Li0 O11 2.193745 1_556
Li1 O12 2.008393 1_555
Li1 O5 2.046704 1_555
Li1 O9 2.069028 1_555
Li1 O11 2.188296 1_555
Li1 O1 2.189670 1_545
Li1 O4 2.198781 1_555
Li2 O10 2.074230 1_565
Li2 O2 2.108085 1_555
Li2 O13 2.153111 1_555
Li2 O5 2.192051 1_565
Li2 O6 2.196509 1_555
Li2 O12 2.250891 1_565
Li3 O15 2.046945 1_565
Li3 O0 2.047697 1_565
Li3 O1 2.129515 1_556
Li3 O3 2.156113 1_555
Li3 O8 2.163679 1_556
Li3 O11 2.468177 1_566
Li4 O2 2.023016 1_555
Li4 O12 2.046763 1_565
Li4 O9 2.063123 1_555
Li4 O8 2.176797 1_555
Li4 O1 2.212020 1_555
Li4 O4 2.553965 1_555
Li5 O10 2.045472 1_555
Li5 O13 2.101731 1_555
Li5 O7 2.121200 1_555
Li5 O2 2.169997 1_555
Li5 O9 2.210011 1_555
Li5 O5 2.494131 1_555
Li6 O10 2.011584 1_555
Li6 O7 2.053520 1_555
Li6 O6 2.069528 1_545
Li6 O0 2.201243 1_555
Li6 O15 2.216396 1_555
Li6 O14 2.600276 1_555
Li7 O6 2.003070 1_555
Li7 O13 2.035630 1_555
Li7 O7 2.070576 1_555
Li7 O3 2.182512 1_555
Li7 O14 2.187510 1_555
Li7 O15 2.261566 1_565
Li8 O6 2.044579 1_555
Li8 O12 2.050094 1_465
Li8 O13 2.057871 1_455
Li8 O5 2.072024 1_565
Li8 O7 2.167970 1_565
Li8 O9 2.210113 1_455
Mn0 O0 1.911001 1_555
Mn0 O15 1.925831 1_455
Mn0 O1 1.947218 1_546
Mn0 O14 1.956677 1_445
Mn0 O8 1.957734 1_446
Mn0 O4 1.960866 1_556
Mn1 O5 1.911333 1_565
Mn1 O9 1.911422 1_455
Mn1 O2 1.922622 1_555
Mn1 O8 1.959631 1_455
Mn1 O1 1.972006 1_555
Mn1 O11 1.999171 1_455
Co0 O7 1.965440 1_655
Co0 O9 1.983899 1_555
Co0 O10 2.033155 1_555
Co0 O6 2.051867 1_655
Co0 O2 2.081353 1_655
Co0 O12 2.081821 1_555
Co1 O7 1.916686 1_655
Co1 O10 1.972528 1_555
Co1 O13 2.010191 1_545
Co1 O15 2.060784 1_555
Co1 O0 2.062966 1_655
Co1 O3 2.170463 1_655
Co2 O3 1.901766 1_554
Co2 O11 1.925131 1_455
Co2 O14 1.950519 1_454
Co2 O4 1.958983 1_555
Co2 O15 2.154703 1_454
Co2 O1 2.171636 1_555
Co3 O12 1.847167 1_455
Co3 O5 1.902391 1_555
Co3 O4 1.963426 1_555
Co3 O11 1.975626 1_455
Co3 O2 2.206335 1_555
Co3 O8 2.245793 1_445
Co4 O6 1.868243 1_655
Co4 O13 1.871700 1_555
Co4 O3 1.953290 1_655
Co4 O14 1.970648 1_555
Co4 O10 2.216508 1_555
Co4 O0 2.262530 1_665
