# generated using pymatgen
data_SmGe3Rh5
_symmetry_space_group_name_H-M   'P 1'
_cell_length_a   3.95772457
_cell_length_b   22.77114909
_cell_length_c   22.77114909
_cell_angle_alpha   120.00000038
_cell_angle_beta   90.00000000
_cell_angle_gamma   90.00000000
_symmetry_Int_Tables_number   1
_chemical_formula_structural   SmGe3Rh5
_chemical_formula_sum   'Sm12 Ge36 Rh60'
_cell_volume   1777.24004677
_cell_formula_units_Z   12
loop_
 _symmetry_equiv_pos_site_id
 _symmetry_equiv_pos_as_xyz
  1  'x, y, z'
loop_
 _atom_site_type_symbol
 _atom_site_label
 _atom_site_symmetry_multiplicity
 _atom_site_fract_x
 _atom_site_fract_y
 _atom_site_fract_z
 _atom_site_occupancy
  Sm  Sm0  1  0.75000000  0.73493184  0.77028712  1
  Sm  Sm1  1  0.25000000  0.26506816  0.22971288  1
  Sm  Sm2  1  0.75000000  0.03535528  0.26506816  1
  Sm  Sm3  1  0.25000000  0.96464472  0.73493184  1
  Sm  Sm4  1  0.75000000  0.22971288  0.96464472  1
  Sm  Sm5  1  0.25000000  0.77028712  0.03535528  1
  Sm  Sm6  1  0.75000000  0.38498156  0.52431063  1
  Sm  Sm7  1  0.25000000  0.61501844  0.47568937  1
  Sm  Sm8  1  0.75000000  0.13932907  0.61501844  1
  Sm  Sm9  1  0.25000000  0.86067093  0.38498156  1
  Sm  Sm10  1  0.75000000  0.47568937  0.86067093  1
  Sm  Sm11  1  0.25000000  0.52431063  0.13932907  1
  Ge  Ge0  1  0.75000000  0.88963679  0.06305844  1
  Ge  Ge1  1  0.25000000  0.11036321  0.93694156  1
  Ge  Ge2  1  0.75000000  0.17342165  0.11036321  1
  Ge  Ge3  1  0.25000000  0.82657835  0.88963679  1
  Ge  Ge4  1  0.75000000  0.93694156  0.82657835  1
  Ge  Ge5  1  0.25000000  0.06305844  0.17342165  1
  Ge  Ge6  1  0.75000000  0.63941153  0.16518251  1
  Ge  Ge7  1  0.25000000  0.36058847  0.83481749  1
  Ge  Ge8  1  0.75000000  0.52577098  0.36058847  1
  Ge  Ge9  1  0.25000000  0.47422902  0.63941153  1
  Ge  Ge10  1  0.75000000  0.83481749  0.47422902  1
  Ge  Ge11  1  0.25000000  0.16518251  0.52577098  1
  Ge  Ge12  1  0.75000000  0.77894352  0.26706338  1
  Ge  Ge13  1  0.25000000  0.22105648  0.73293662  1
  Ge  Ge14  1  0.75000000  0.48811986  0.22105648  1
  Ge  Ge15  1  0.25000000  0.51188014  0.77894352  1
  Ge  Ge16  1  0.75000000  0.73293662  0.51188014  1
  Ge  Ge17  1  0.25000000  0.26706338  0.48811986  1
  Ge  Ge18  1  0.75000000  0.73945698  0.12418119  1
  Ge  Ge19  1  0.25000000  0.26054302  0.87581881  1
  Ge  Ge20  1  0.75000000  0.38472421  0.26054302  1
  Ge  Ge21  1  0.25000000  0.61527579  0.73945698  1
  Ge  Ge22  1  0.75000000  0.87581881  0.61527579  1
  Ge  Ge23  1  0.25000000  0.12418119  0.38472421  1
  Ge  Ge24  1  0.75000000  0.98489889  0.41495479  1
  Ge  Ge25  1  0.25000000  0.01510111  0.58504521  1
  Ge  Ge26  1  0.75000000  0.43005590  0.01510111  1
  Ge  Ge27  1  0.25000000  0.56994410  0.98489889  1
  Ge  Ge28  1  0.75000000  0.58504521  0.56994410  1
  Ge  Ge29  1  0.25000000  0.41495479  0.43005590  1
  Ge  Ge30  1  0.75000000  0.68289786  0.91711398  1
  Ge  Ge31  1  0.25000000  0.31710214  0.08288602  1
  Ge  Ge32  1  0.75000000  0.23421612  0.31710214  1
  Ge  Ge33  1  0.25000000  0.76578388  0.68289786  1
  Ge  Ge34  1  0.75000000  0.08288602  0.76578388  1
  Ge  Ge35  1  0.25000000  0.91711398  0.23421612  1
  Rh  Rh0  1  0.75000000  0.74397952  0.35391242  1
  Rh  Rh1  1  0.25000000  0.25602048  0.64608758  1
  Rh  Rh2  1  0.75000000  0.60993290  0.25602048  1
  Rh  Rh3  1  0.25000000  0.39006710  0.74397952  1
  Rh  Rh4  1  0.75000000  0.64608758  0.39006710  1
  Rh  Rh5  1  0.25000000  0.35391242  0.60993290  1
  Rh  Rh6  1  0.75000000  0.44663575  0.69662728  1
  Rh  Rh7  1  0.25000000  0.55336425  0.30337272  1
  Rh  Rh8  1  0.75000000  0.24999152  0.55336425  1
  Rh  Rh9  1  0.25000000  0.75000848  0.44663575  1
  Rh  Rh10  1  0.75000000  0.30337272  0.75000848  1
  Rh  Rh11  1  0.25000000  0.69662728  0.24999152  1
  Rh  Rh12  1  0.75000000  0.86041831  0.15497249  1
  Rh  Rh13  1  0.25000000  0.13958169  0.84502751  1
  Rh  Rh14  1  0.75000000  0.29455418  0.13958169  1
  Rh  Rh15  1  0.25000000  0.70544582  0.86041831  1
  Rh  Rh16  1  0.75000000  0.84502751  0.70544582  1
  Rh  Rh17  1  0.25000000  0.15497249  0.29455418  1
  Rh  Rh18  1  0.75000000  0.95808679  0.50680432  1
  Rh  Rh19  1  0.25000000  0.04191321  0.49319568  1
  Rh  Rh20  1  0.75000000  0.54871754  0.04191321  1
  Rh  Rh21  1  0.25000000  0.45128246  0.95808679  1
  Rh  Rh22  1  0.75000000  0.49319568  0.45128246  1
  Rh  Rh23  1  0.25000000  0.50680432  0.54871754  1
  Rh  Rh24  1  0.75000000  0.59131607  0.79845938  1
  Rh  Rh25  1  0.25000000  0.40868393  0.20154062  1
  Rh  Rh26  1  0.75000000  0.20714330  0.40868393  1
  Rh  Rh27  1  0.25000000  0.79285670  0.59131607  1
  Rh  Rh28  1  0.75000000  0.20154062  0.79285670  1
  Rh  Rh29  1  0.25000000  0.79845938  0.20714330  1
  Rh  Rh30  1  0.75000000  0.80260429  0.94303963  1
  Rh  Rh31  1  0.25000000  0.19739571  0.05696037  1
  Rh  Rh32  1  0.75000000  0.14043535  0.19739571  1
  Rh  Rh33  1  0.25000000  0.85956465  0.80260429  1
  Rh  Rh34  1  0.75000000  0.05696037  0.85956465  1
  Rh  Rh35  1  0.25000000  0.94303963  0.14043535  1
  Rh  Rh36  1  0.75000000  0.89928711  0.29369892  1
  Rh  Rh37  1  0.25000000  0.10071289  0.70630108  1
  Rh  Rh38  1  0.75000000  0.39441181  0.10071289  1
  Rh  Rh39  1  0.25000000  0.60558819  0.89928711  1
  Rh  Rh40  1  0.75000000  0.70630108  0.60558819  1
  Rh  Rh41  1  0.25000000  0.29369892  0.39441181  1
  Rh  Rh42  1  0.75000000  0.91105967  0.91801621  1
  Rh  Rh43  1  0.25000000  0.08894033  0.08198379  1
  Rh  Rh44  1  0.75000000  0.00695654  0.08894033  1
  Rh  Rh45  1  0.25000000  0.99304346  0.91105967  1
  Rh  Rh46  1  0.75000000  0.08198379  0.99304346  1
  Rh  Rh47  1  0.25000000  0.91801621  0.00695654  1
  Rh  Rh48  1  0.75000000  0.55233798  0.65790429  1
  Rh  Rh49  1  0.25000000  0.44766202  0.34209571  1
  Rh  Rh50  1  0.75000000  0.10556630  0.44766202  1
  Rh  Rh51  1  0.25000000  0.89443370  0.55233798  1
  Rh  Rh52  1  0.75000000  0.34209571  0.89443370  1
  Rh  Rh53  1  0.25000000  0.65790429  0.10556630  1
  Rh  Rh54  1  0.75000000  0.64794435  0.00400481  1
  Rh  Rh55  1  0.25000000  0.35205565  0.99599519  1
  Rh  Rh56  1  0.75000000  0.35606046  0.35205565  1
  Rh  Rh57  1  0.25000000  0.64393954  0.64794435  1
  Rh  Rh58  1  0.75000000  0.99599519  0.64393954  1
  Rh  Rh59  1  0.25000000  0.00400481  0.35606046  1
loop_
_geom_bond_atom_site_label_1
_geom_bond_atom_site_label_2
_geom_bond_distance
_geom_bond_site_symmetry_2
Ge0 Rh44 2.431010 1_565
Ge0 Rh30 2.445502 1_554
Ge0 Rh12 2.493155 1_555
Ge0 Rh35 2.521219 1_655
Ge0 Rh35 2.521219 1_555
Ge0 Rh47 2.605973 1_555
Ge0 Rh47 2.605973 1_655
Ge0 Sm5 3.159979 1_555
Ge0 Sm5 3.159979 1_655
Ge1 Rh45 2.431010 1_545
Ge1 Rh31 2.445502 1_556
Ge1 Rh13 2.493155 1_555
Ge1 Rh34 2.521219 1_455
Ge1 Rh34 2.521219 1_555
Ge1 Rh46 2.605973 1_455
Ge1 Rh46 2.605973 1_555
Ge1 Sm4 3.159979 1_455
Ge1 Sm4 3.159979 1_555
Ge2 Rh46 2.431010 1_554
Ge2 Rh32 2.445502 1_555
Ge2 Rh14 2.493155 1_555
Ge2 Rh31 2.521219 1_555
Ge2 Rh31 2.521219 1_655
Ge2 Rh43 2.605973 1_555
Ge2 Rh43 2.605973 1_655
Ge2 Sm1 3.159979 1_655
Ge2 Sm1 3.159979 1_555
Ge3 Rh47 2.431010 1_556
Ge3 Rh33 2.445502 1_555
Ge3 Rh15 2.493155 1_555
Ge3 Rh30 2.521219 1_555
Ge3 Rh30 2.521219 1_455
Ge3 Rh42 2.605973 1_455
Ge3 Rh42 2.605973 1_555
Ge3 Sm0 3.159979 1_455
Ge3 Sm0 3.159979 1_555
Ge4 Rh42 2.431010 1_555
Ge4 Rh34 2.445502 1_565
Ge4 Rh16 2.493155 1_555
Ge4 Rh33 2.521219 1_655
Ge4 Rh33 2.521219 1_555
Ge4 Rh45 2.605973 1_655
Ge4 Rh45 2.605973 1_555
Ge4 Sm3 3.159979 1_555
Ge4 Sm3 3.159979 1_655
Ge5 Rh43 2.431010 1_555
Ge5 Rh35 2.445502 1_545
Ge5 Rh17 2.493155 1_555
Ge5 Rh32 2.521219 1_455
Ge5 Rh32 2.521219 1_555
Ge5 Rh44 2.605973 1_455
Ge5 Rh44 2.605973 1_555
Ge5 Sm2 3.159979 1_455
Ge5 Sm2 3.159979 1_555
Ge6 Rh2 2.473402 1_555
Ge6 Rh20 2.519372 1_555
Ge6 Rh53 2.551032 1_555
Ge6 Rh53 2.551032 1_655
Ge6 Rh11 2.612813 1_555
Ge6 Rh11 2.612813 1_655
Ge6 Sm11 3.096613 1_555
Ge6 Sm11 3.096613 1_655
Ge7 Rh3 2.473402 1_555
Ge7 Rh21 2.519372 1_555
Ge7 Rh52 2.551032 1_555
Ge7 Rh52 2.551032 1_455
Ge7 Rh10 2.612813 1_555
Ge7 Rh10 2.612813 1_455
Ge7 Sm10 3.096613 1_455
Ge7 Sm10 3.096613 1_555
Ge8 Rh4 2.473402 1_555
Ge8 Rh22 2.519372 1_555
Ge8 Rh49 2.551032 1_655
Ge8 Rh49 2.551032 1_555
Ge8 Rh7 2.612813 1_655
Ge8 Rh7 2.612813 1_555
Ge8 Sm7 3.096613 1_555
Ge8 Sm7 3.096613 1_655
Ge9 Rh5 2.473402 1_555
Ge9 Rh23 2.519372 1_555
Ge9 Rh48 2.551032 1_455
Ge9 Rh48 2.551032 1_555
Ge9 Rh6 2.612813 1_455
Ge9 Rh6 2.612813 1_555
Ge9 Sm6 3.096613 1_455
Ge9 Sm6 3.096613 1_555
Ge10 Rh0 2.473402 1_555
Ge10 Rh18 2.519372 1_555
Ge10 Rh51 2.551032 1_555
Ge10 Rh51 2.551032 1_655
Ge10 Rh9 2.612813 1_555
Ge10 Rh9 2.612813 1_655
Ge10 Sm9 3.096613 1_655
Ge10 Sm9 3.096613 1_555
Ge11 Rh1 2.473402 1_555
Ge11 Rh19 2.519372 1_555
Ge11 Rh50 2.551032 1_555
Ge11 Rh50 2.551032 1_455
Ge11 Rh8 2.612813 1_455
Ge11 Rh8 2.612813 1_555
Ge11 Sm8 3.096613 1_555
Ge11 Sm8 3.096613 1_455
Ge12 Rh0 2.473771 1_555
Ge12 Rh36 2.493063 1_555
Ge12 Rh29 2.565437 1_555
Ge12 Rh29 2.565437 1_655
Ge12 Rh11 2.617604 1_555
Ge12 Rh11 2.617604 1_655
Ge12 Sm9 3.097120 1_555
Ge12 Sm9 3.097120 1_655
Ge13 Rh1 2.473771 1_555
Ge13 Rh37 2.493063 1_555
Ge13 Rh28 2.565437 1_555
Ge13 Rh28 2.565437 1_455
Ge13 Rh10 2.617604 1_555
Ge13 Rh10 2.617604 1_455
Ge13 Sm8 3.097120 1_455
Ge13 Sm8 3.097120 1_555
Ge14 Rh2 2.473771 1_555
Ge14 Rh38 2.493063 1_555
Ge14 Rh25 2.565437 1_555
Ge14 Rh25 2.565437 1_655
Ge14 Rh7 2.617604 1_655
Ge14 Rh7 2.617604 1_555
Ge14 Sm11 3.097120 1_655
Ge14 Sm11 3.097120 1_555
Ge15 Rh3 2.473771 1_555
Ge15 Rh39 2.493063 1_555
Ge15 Rh24 2.565437 1_555
Ge15 Rh24 2.565437 1_455
Ge15 Rh6 2.617604 1_555
Ge15 Rh6 2.617604 1_455
Ge15 Sm10 3.097120 1_555
Ge15 Sm10 3.097120 1_455
Ge16 Rh4 2.473771 1_555
Ge16 Rh40 2.493063 1_555
Ge16 Rh27 2.565437 1_655
Ge16 Rh27 2.565437 1_555
Ge16 Rh9 2.617604 1_555
Ge16 Rh9 2.617604 1_655
Ge16 Sm7 3.097120 1_555
Ge16 Sm7 3.097120 1_655
Ge17 Rh5 2.473771 1_555
Ge17 Rh41 2.493063 1_555
Ge17 Rh26 2.565437 1_555
Ge17 Rh26 2.565437 1_455
Ge17 Rh8 2.617604 1_555
Ge17 Rh8 2.617604 1_455
Ge17 Sm6 3.097120 1_455
Ge17 Sm6 3.097120 1_555
Ge18 Rh54 2.475599 1_555
Ge18 Rh12 2.479358 1_555
Ge18 Rh29 2.598408 1_555
Ge18 Rh29 2.598408 1_655
Ge18 Rh53 2.599429 1_555
Ge18 Rh53 2.599429 1_655
Ge18 Sm5 3.149592 1_655
Ge18 Sm5 3.149592 1_555
Ge19 Rh55 2.475599 1_555
Ge19 Rh13 2.479358 1_555
Ge19 Rh28 2.598408 1_455
Ge19 Rh28 2.598408 1_555
Ge19 Rh52 2.599429 1_555
Ge19 Rh52 2.599429 1_455
Ge19 Sm4 3.149592 1_555
Ge19 Sm4 3.149592 1_455
Ge20 Rh56 2.475599 1_555
Ge20 Rh14 2.479358 1_555
Ge20 Rh25 2.598409 1_655
Ge20 Rh25 2.598409 1_555
Ge20 Rh49 2.599429 1_555
Ge20 Rh49 2.599429 1_655
Ge20 Sm1 3.149592 1_555
Ge20 Sm1 3.149592 1_655
Ge21 Rh57 2.475599 1_555
Ge21 Rh15 2.479358 1_555
Ge21 Rh24 2.598409 1_455
Ge21 Rh24 2.598409 1_555
Ge21 Rh48 2.599429 1_455
Ge21 Rh48 2.599429 1_555
Ge21 Sm0 3.149592 1_455
Ge21 Sm0 3.149592 1_555
Ge22 Rh58 2.475599 1_555
Ge22 Rh16 2.479358 1_555
Ge22 Rh27 2.598408 1_555
Ge22 Rh27 2.598408 1_655
Ge22 Rh51 2.599429 1_555
Ge22 Rh51 2.599429 1_655
Ge22 Sm3 3.149592 1_655
Ge22 Sm3 3.149592 1_555
Ge23 Rh59 2.475599 1_555
Ge23 Rh17 2.479358 1_555
Ge23 Rh26 2.598408 1_455
Ge23 Rh26 2.598408 1_555
Ge23 Rh50 2.599429 1_455
Ge23 Rh50 2.599429 1_555
Ge23 Sm2 3.149592 1_455
Ge23 Sm2 3.149592 1_555
Ge24 Rh18 2.454420 1_555
Ge24 Rh36 2.457959 1_555
Ge24 Rh50 2.461359 1_565
Ge24 Rh19 2.542163 1_665
Ge24 Rh19 2.542163 1_565
Ge24 Rh59 2.546991 1_565
Ge24 Rh59 2.546991 1_665
Ge24 Sm9 3.233139 1_655
Ge24 Sm9 3.233139 1_555
Ge25 Rh19 2.454420 1_555
Ge25 Rh37 2.457959 1_555
Ge25 Rh51 2.461359 1_545
Ge25 Rh18 2.542163 1_445
Ge25 Rh18 2.542163 1_545
Ge25 Rh58 2.546991 1_545
Ge25 Rh58 2.546991 1_445
Ge25 Sm8 3.233139 1_555
Ge25 Sm8 3.233139 1_455
Ge26 Rh20 2.454420 1_555
Ge26 Rh38 2.457959 1_555
Ge26 Rh52 2.461359 1_554
Ge26 Rh21 2.542162 1_654
Ge26 Rh21 2.542162 1_554
Ge26 Rh55 2.546991 1_654
Ge26 Rh55 2.546991 1_554
Ge26 Sm11 3.233139 1_655
Ge26 Sm11 3.233139 1_555
Ge27 Rh21 2.454420 1_555
Ge27 Rh39 2.457959 1_555
Ge27 Rh53 2.461359 1_556
Ge27 Rh20 2.542162 1_456
Ge27 Rh20 2.542162 1_556
Ge27 Rh54 2.546991 1_456
Ge27 Rh54 2.546991 1_556
Ge27 Sm10 3.233139 1_555
Ge27 Sm10 3.233139 1_455
Ge28 Rh22 2.454420 1_555
Ge28 Rh40 2.457959 1_555
Ge28 Rh48 2.461359 1_555
Ge28 Rh23 2.542163 1_555
Ge28 Rh23 2.542163 1_655
Ge28 Rh57 2.546991 1_655
Ge28 Rh57 2.546991 1_555
Ge28 Sm7 3.233139 1_555
Ge28 Sm7 3.233139 1_655
Ge29 Rh23 2.454420 1_555
Ge29 Rh41 2.457959 1_555
Ge29 Rh49 2.461359 1_555
Ge29 Rh22 2.542163 1_555
Ge29 Rh22 2.542163 1_455
Ge29 Rh56 2.546991 1_455
Ge29 Rh56 2.546991 1_555
Ge29 Sm6 3.233139 1_455
Ge29 Sm6 3.233139 1_555
Ge30 Rh24 2.452479 1_555
Ge30 Rh54 2.474513 1_556
Ge30 Rh30 2.483862 1_555
Ge30 Rh39 2.542670 1_555
Ge30 Rh39 2.542670 1_655
Ge30 Rh15 2.551301 1_555
Ge30 Rh15 2.551301 1_655
Ge30 Sm5 3.125282 1_556
Ge30 Sm5 3.125282 1_656
Ge31 Rh25 2.452479 1_555
Ge31 Rh55 2.474513 1_554
Ge31 Rh31 2.483862 1_555
Ge31 Rh38 2.542670 1_455
Ge31 Rh38 2.542670 1_555
Ge31 Rh14 2.551301 1_455
Ge31 Rh14 2.551301 1_555
Ge31 Sm4 3.125282 1_454
Ge31 Sm4 3.125282 1_554
Ge32 Rh26 2.452479 1_555
Ge32 Rh56 2.474513 1_555
Ge32 Rh32 2.483862 1_555
Ge32 Rh41 2.542670 1_655
Ge32 Rh41 2.542670 1_555
Ge32 Rh17 2.551301 1_655
Ge32 Rh17 2.551301 1_555
Ge32 Sm1 3.125282 1_655
Ge32 Sm1 3.125282 1_555
Ge33 Rh27 2.452479 1_555
Ge33 Rh57 2.474513 1_555
Ge33 Rh33 2.483862 1_555
Ge33 Rh40 2.542670 1_455
Ge33 Rh40 2.542670 1_555
Ge33 Rh16 2.551301 1_455
Ge33 Rh16 2.551301 1_555
Ge33 Sm0 3.125282 1_455
Ge33 Sm0 3.125282 1_555
Ge34 Rh28 2.452479 1_555
Ge34 Rh58 2.474513 1_545
Ge34 Rh34 2.483862 1_555
Ge34 Rh37 2.542670 1_555
Ge34 Rh37 2.542670 1_655
Ge34 Rh13 2.551301 1_555
Ge34 Rh13 2.551301 1_655
Ge34 Sm3 3.125282 1_545
Ge34 Sm3 3.125282 1_645
Ge35 Rh29 2.452479 1_555
Ge35 Rh59 2.474513 1_565
Ge35 Rh35 2.483862 1_555
Ge35 Rh36 2.542670 1_555
Ge35 Rh36 2.542670 1_455
Ge35 Rh12 2.551301 1_455
Ge35 Rh12 2.551301 1_555
Ge35 Sm2 3.125282 1_565
Ge35 Sm2 3.125282 1_465
Rh0 Rh2 2.735311 1_555
Rh0 Rh4 2.735311 1_555
Rh0 Rh9 2.846569 1_555
Rh0 Rh9 2.846569 1_655
Rh0 Rh11 2.850752 1_555
Rh0 Rh11 2.850752 1_655
Rh0 Sm9 3.097936 1_655
Rh0 Sm9 3.097936 1_555
Rh1 Rh3 2.735311 1_555
Rh1 Rh5 2.735311 1_555
Rh1 Rh8 2.846569 1_455
Rh1 Rh8 2.846569 1_555
Rh1 Rh10 2.850752 1_555
Rh1 Rh10 2.850752 1_455
Rh1 Sm8 3.097936 1_555
Rh1 Sm8 3.097936 1_455
Rh2 Rh4 2.735311 1_555
Rh2 Rh7 2.850752 1_655
Rh2 Rh7 2.850752 1_555
Rh2 Sm11 3.097936 1_655
Rh2 Sm11 3.097936 1_555
Rh3 Rh5 2.735311 1_555
Rh3 Rh6 2.850752 1_555
Rh3 Rh6 2.850752 1_455
Rh3 Sm10 3.097936 1_555
Rh3 Sm10 3.097936 1_455
Rh4 Rh7 2.846569 1_555
Rh4 Rh7 2.846569 1_655
Rh4 Rh9 2.850752 1_655
Rh4 Rh9 2.850752 1_555
Rh4 Sm7 3.097936 1_555
Rh4 Sm7 3.097936 1_655
Rh5 Rh6 2.846569 1_555
Rh5 Rh6 2.846569 1_455
Rh5 Rh8 2.850752 1_555
Rh5 Rh8 2.850752 1_455
Rh5 Sm6 3.097936 1_455
Rh5 Sm6 3.097936 1_555
Rh10 Rh3 2.846569 1_655
Rh10 Rh3 2.846569 1_555
Rh11 Rh2 2.846569 1_455
Rh11 Rh2 2.846569 1_555
Rh12 Sm5 3.155481 1_555
Rh12 Sm5 3.155481 1_655
Rh13 Sm4 3.155481 1_455
Rh13 Sm4 3.155481 1_555
Rh14 Sm1 3.155481 1_655
Rh14 Sm1 3.155481 1_555
Rh15 Sm0 3.155481 1_555
Rh15 Sm0 3.155481 1_455
Rh16 Sm3 3.155481 1_555
Rh16 Sm3 3.155481 1_655
Rh17 Sm2 3.155481 1_555
Rh17 Sm2 3.155481 1_455
Rh18 Sm9 3.221546 1_655
Rh18 Sm9 3.221546 1_555
Rh19 Sm8 3.221546 1_455
Rh19 Sm8 3.221546 1_555
Rh20 Sm11 3.221547 1_555
Rh20 Sm11 3.221547 1_655
Rh21 Sm10 3.221547 1_555
Rh21 Sm10 3.221547 1_455
Rh22 Sm7 3.221546 1_655
Rh22 Sm7 3.221546 1_555
Rh23 Sm6 3.221546 1_455
Rh23 Sm6 3.221546 1_555
Rh30 Sm5 3.228524 1_556
Rh30 Sm5 3.228524 1_656
Rh31 Sm4 3.228524 1_454
Rh31 Sm4 3.228524 1_554
Rh32 Sm1 3.228524 1_655
Rh32 Sm1 3.228524 1_555
Rh33 Sm0 3.228524 1_555
Rh33 Sm0 3.228524 1_455
Rh34 Sm3 3.228524 1_645
Rh34 Sm3 3.228524 1_545
Rh35 Sm2 3.228524 1_465
Rh35 Sm2 3.228524 1_565
Rh36 Sm9 3.292042 1_655
Rh36 Sm9 3.292042 1_555
Rh37 Sm8 3.292042 1_455
Rh37 Sm8 3.292042 1_555
Rh38 Sm11 3.292042 1_555
Rh38 Sm11 3.292042 1_655
Rh39 Sm10 3.292042 1_555
Rh39 Sm10 3.292042 1_455
Rh40 Sm7 3.292042 1_555
Rh40 Sm7 3.292042 1_655
Rh41 Sm6 3.292042 1_455
Rh41 Sm6 3.292042 1_555
Rh54 Sm5 3.193412 1_655
Rh54 Sm5 3.193412 1_555
Rh55 Sm4 3.193412 1_555
Rh55 Sm4 3.193412 1_455
Rh56 Sm1 3.193412 1_555
Rh56 Sm1 3.193412 1_655
Rh57 Sm0 3.193412 1_455
Rh57 Sm0 3.193412 1_555
Rh58 Sm3 3.193412 1_555
Rh58 Sm3 3.193412 1_655
Rh59 Sm2 3.193412 1_555
Rh59 Sm2 3.193412 1_455
