# generated using pymatgen
data_Te3Pd5
_symmetry_space_group_name_H-M   'P 1'
_cell_length_a   8.44927125
_cell_length_b   8.44927125
_cell_length_c   8.44927125
_cell_angle_alpha   60.00000000
_cell_angle_beta   60.00000000
_cell_angle_gamma   60.00000000
_symmetry_Int_Tables_number   1
_chemical_formula_structural   Te3Pd5
_chemical_formula_sum   'Te6 Pd10'
_cell_volume   426.52330010
_cell_formula_units_Z   2
loop_
 _symmetry_equiv_pos_site_id
 _symmetry_equiv_pos_as_xyz
  1  'x, y, z'
loop_
 _atom_site_type_symbol
 _atom_site_label
 _atom_site_symmetry_multiplicity
 _atom_site_fract_x
 _atom_site_fract_y
 _atom_site_fract_z
 _atom_site_occupancy
  Te  Te0  1  0.12500000  0.12500000  0.12500000  1
  Te  Te1  1  0.12500000  0.12500000  0.62500000  1
  Te  Te2  1  0.12500000  0.62500000  0.12500000  1
  Te  Te3  1  0.62500000  0.12500000  0.12500000  1
  Te  Te4  1  0.50000000  0.50000000  0.50000000  1
  Te  Te5  1  0.75000000  0.75000000  0.75000000  1
  Pd  Pd0  1  0.87361300  0.37546200  0.37546200  1
  Pd  Pd1  1  0.37546200  0.87361300  0.37546200  1
  Pd  Pd2  1  0.37546200  0.37546200  0.87361300  1
  Pd  Pd3  1  0.37638700  0.87453800  0.87453800  1
  Pd  Pd4  1  0.37546200  0.37546200  0.37546200  1
  Pd  Pd5  1  0.87453800  0.37638700  0.87453800  1
  Pd  Pd6  1  0.87453800  0.87453800  0.87453800  1
  Pd  Pd7  1  0.87453800  0.87453800  0.37638700  1
  Pd  Pd8  1  0.00000000  0.00000000  0.00000000  1
  Pd  Pd9  1  0.25000000  0.25000000  0.25000000  1
loop_
_geom_bond_atom_site_label_1
_geom_bond_atom_site_label_2
_geom_bond_distance
_geom_bond_site_symmetry_2
Pd0 Te4 2.577482 1_555
Pd0 Pd9 2.596619 1_655
Pd0 Te0 2.992799 1_655
Pd0 Te2 2.992805 1_655
Pd0 Te1 2.992805 1_655
Pd1 Te4 2.577482 1_555
Pd1 Pd9 2.596619 1_565
Pd1 Te0 2.992799 1_565
Pd1 Te1 2.992805 1_565
Pd1 Te3 2.992805 1_565
Pd2 Te4 2.577482 1_555
Pd2 Pd9 2.596619 1_556
Pd2 Te0 2.992799 1_556
Pd2 Te2 2.992805 1_556
Pd2 Te3 2.992805 1_556
Pd3 Te5 2.577482 1_555
Pd3 Pd8 2.596619 1_566
Pd3 Te0 2.992799 1_566
Pd3 Te2 2.992805 1_556
Pd3 Te1 2.992805 1_565
Pd4 Te4 2.577489 1_555
Pd4 Pd9 2.596612 1_555
Pd4 Te1 2.992799 1_555
Pd4 Te2 2.992799 1_555
Pd4 Te3 2.992799 1_555
Pd5 Te5 2.577482 1_555
Pd5 Pd8 2.596619 1_656
Pd5 Te0 2.992799 1_656
Pd5 Te3 2.992805 1_556
Pd5 Te1 2.992805 1_655
Pd6 Te5 2.577489 1_555
Pd6 Pd8 2.596612 1_666
Pd6 Te3 2.992799 1_566
Pd6 Te1 2.992799 1_665
Pd6 Te2 2.992799 1_656
Pd7 Te5 2.577482 1_555
Pd7 Pd8 2.596619 1_665
Pd7 Te0 2.992799 1_665
Pd7 Te2 2.992805 1_655
Pd7 Te3 2.992805 1_565
Pd8 Te2 2.587050 1_545
Pd8 Te3 2.587050 1_455
Pd8 Te1 2.587050 1_554
Pd8 Te0 2.587050 1_555
Pd9 Te0 2.587050 1_555
Pd9 Te3 2.587050 1_555
Pd9 Te2 2.587050 1_555
Pd9 Te1 2.587050 1_555
