# generated using pymatgen
data_Li6V3P8O29
_symmetry_space_group_name_H-M   'P 1'
_cell_length_a   9.83939591
_cell_length_b   9.83939591
_cell_length_c   13.94091325
_cell_angle_alpha   89.87932909
_cell_angle_beta   89.87932909
_cell_angle_gamma   60.06339055
_symmetry_Int_Tables_number   1
_chemical_formula_structural   Li6V3P8O29
_chemical_formula_sum   'Li12 V6 P16 O58'
_cell_volume   1169.59230097
_cell_formula_units_Z   2
loop_
 _symmetry_equiv_pos_site_id
 _symmetry_equiv_pos_as_xyz
  1  'x, y, z'
loop_
 _atom_site_type_symbol
 _atom_site_label
 _atom_site_symmetry_multiplicity
 _atom_site_fract_x
 _atom_site_fract_y
 _atom_site_fract_z
 _atom_site_occupancy
  Li  Li0  1  0.22471300  0.68958300  0.68895500  1
  Li  Li1  1  0.67804900  0.22589000  0.19087000  1
  Li  Li2  1  0.32890700  0.33219300  0.86591400  1
  Li  Li3  1  0.68318100  0.09187600  0.68746600  1
  Li  Li4  1  0.09288400  0.22390500  0.68943200  1
  Li  Li5  1  0.77609500  0.90711600  0.31056800  1
  Li  Li6  1  0.22774300  0.09216700  0.18935200  1
  Li  Li7  1  0.90783300  0.77225700  0.81064800  1
  Li  Li8  1  0.66780700  0.67109300  0.13408600  1
  Li  Li9  1  0.31041700  0.77528700  0.31104500  1
  Li  Li10  1  0.90812400  0.31681900  0.31253400  1
  Li  Li11  1  0.77411000  0.32195100  0.80913000  1
  V  V0  1  0.56674800  0.99987700  0.50225400  1
  V  V1  1  0.43350300  0.99579900  0.99527000  1
  V  V2  1  0.00420100  0.56649700  0.00473000  1
  V  V3  1  0.00012300  0.43325200  0.49774600  1
  V  V4  1  0.43064000  0.56936000  0.50000000  1
  V  V5  1  0.56375300  0.43624700  0.00000000  1
  P  P0  1  0.22981200  0.68219200  0.90695700  1
  P  P1  1  0.08504600  0.68327900  0.40861800  1
  P  P2  1  0.67799600  0.23275500  0.40908100  1
  P  P3  1  0.33304300  0.33407100  0.62391100  1
  P  P4  1  0.33550400  0.32764700  0.12289600  1
  P  P5  1  0.67904200  0.09104300  0.90782700  1
  P  P6  1  0.76852800  0.91073700  0.09290000  1
  P  P7  1  0.08926300  0.23147200  0.90710000  1
  P  P8  1  0.91262800  0.76601200  0.59334600  1
  P  P9  1  0.23398800  0.08737200  0.40665400  1
  P  P10  1  0.31672100  0.91495400  0.59138200  1
  P  P11  1  0.66592900  0.66695700  0.37608900  1
  P  P12  1  0.67235300  0.66449600  0.87710400  1
  P  P13  1  0.31780800  0.77018800  0.09304300  1
  P  P14  1  0.90895700  0.32095800  0.09217300  1
  P  P15  1  0.76724500  0.32200400  0.59091900  1
  O  O0  1  0.24686900  0.75627400  0.18368100  1
  O  O1  1  0.25297700  0.66079700  0.41021200  1
  O  O2  1  0.99906700  0.75739800  0.68415300  1
  O  O3  1  0.08166900  0.66515500  0.90999400  1
  O  O4  1  0.37499800  0.51429100  0.92524400  1
  O  O5  1  0.32572200  0.48806000  0.58500100  1
  O  O6  1  0.51944200  0.38087700  0.42648600  1
  O  O7  1  0.75941700  0.24267500  0.68145400  1
  O  O8  1  0.66650700  0.25375800  0.90729800  1
  O  O9  1  0.18651200  0.47328500  0.07677700  1
  O  O10  1  0.09546100  0.52169200  0.42592900  1
  O  O11  1  0.48461000  0.33246300  0.08188800  1
  O  O12  1  0.33571000  0.33403000  0.73215400  1
  O  O13  1  0.33429300  0.32622700  0.22902100  1
  O  O14  1  0.48874900  0.18667800  0.58631900  1
  O  O15  1  0.10720500  0.37832000  0.92163100  1
  O  O16  1  0.18730900  0.32675800  0.58570800  1
  O  O17  1  0.66170800  0.08403000  0.41137500  1
  O  O18  1  0.78280800  0.00310700  0.00037200  1
  O  O19  1  0.75427500  0.00376600  0.18141700  1
  O  O20  1  0.75725800  0.99880900  0.81888900  1
  O  O21  1  0.51204100  0.11449600  0.92238100  1
  O  O22  1  0.33713500  0.17845300  0.07986500  1
  O  O23  1  0.74908800  0.91709500  0.59101900  1
  O  O24  1  0.37922900  0.10160400  0.42611700  1
  O  O25  1  0.08290500  0.25091200  0.40898100  1
  O  O26  1  0.00660600  0.78579300  0.50467200  1
  O  O27  1  0.99271200  0.76815200  0.32314700  1
  O  O28  1  0.00119100  0.24274200  0.18111100  1
  O  O29  1  0.91411500  0.74815900  0.09006900  1
  O  O30  1  0.62168000  0.89279500  0.07836900  1
  O  O31  1  0.25184100  0.08588500  0.90993100  1
  O  O32  1  0.67324200  0.81269100  0.41429200  1
  O  O33  1  0.47830800  0.90453900  0.57407100  1
  O  O34  1  0.23184800  0.00728800  0.67685300  1
  O  O35  1  0.24260200  0.00093300  0.31584700  1
  O  O36  1  0.21420700  0.99339400  0.49532800  1
  O  O37  1  0.33484500  0.91833100  0.09000600  1
  O  O38  1  0.82154700  0.66286500  0.92013500  1
  O  O39  1  0.89839600  0.62077100  0.57388300  1
  O  O40  1  0.52671500  0.81348800  0.92322300  1
  O  O41  1  0.67377300  0.66570700  0.77097900  1
  O  O42  1  0.66597000  0.66429000  0.26784600  1
  O  O43  1  0.51194000  0.67427800  0.41499900  1
  O  O44  1  0.88550400  0.48795900  0.07761900  1
  O  O45  1  0.81332200  0.51125100  0.41368100  1
  O  O46  1  0.33920300  0.74702300  0.58978800  1
  O  O47  1  0.21387900  0.78612100  0.00000000  1
  O  O48  1  0.24372600  0.75313100  0.81631900  1
  O  O49  1  0.48570900  0.62500200  0.07475600  1
  O  O50  1  0.66753700  0.51539000  0.91811200  1
  O  O51  1  0.61912300  0.48055800  0.57351400  1
  O  O52  1  0.91597000  0.33829200  0.58862500  1
  O  O53  1  0.99623400  0.24572500  0.81858300  1
  O  O54  1  0.99689300  0.21719200  0.99962800  1
  O  O55  1  0.74624200  0.33349300  0.09270200  1
  O  O56  1  0.75732500  0.24058300  0.31854600  1
  O  O57  1  0.78918600  0.21081400  0.50000000  1
loop_
_geom_bond_atom_site_label_1
_geom_bond_atom_site_label_2
_geom_bond_distance
_geom_bond_site_symmetry_2
Li0 O48 1.923913 1_555
Li0 O2 1.975072 1_455
Li0 O46 2.031085 1_555
Li0 O5 2.249190 1_555
Li1 O19 1.929072 1_555
Li1 O56 1.979127 1_555
Li1 O55 2.035475 1_555
Li1 O11 2.245879 1_555
Li2 O12 1.866170 1_555
Li2 O15 2.138709 1_555
Li2 O21 2.145077 1_555
Li2 O4 2.217866 1_555
Li3 O7 1.970115 1_555
Li3 O20 2.014695 1_545
Li3 O23 2.019618 1_545
Li3 O14 2.177862 1_555
Li4 O34 1.880152 1_555
Li4 O53 1.995702 1_455
Li4 O52 2.078479 1_455
Li4 O16 2.214706 1_555
Li5 O27 1.880152 1_555
Li5 O19 1.995702 1_565
Li5 O17 2.078479 1_565
Li5 O32 2.214706 1_555
Li6 O35 1.949466 1_555
Li6 O28 1.970117 1_555
Li6 O37 2.039384 1_545
Li6 O22 2.260259 1_555
Li7 O2 1.949466 1_555
Li7 O20 1.970117 1_555
Li7 O3 2.039384 1_655
Li7 O38 2.260259 1_555
Li8 O42 1.866170 1_555
Li8 O30 2.138709 1_555
Li8 O44 2.145077 1_555
Li8 O49 2.217866 1_555
Li9 O0 1.923913 1_555
Li9 O35 1.975072 1_565
Li9 O1 2.031085 1_555
Li9 O43 2.249190 1_555
Li10 O56 1.970115 1_555
Li10 O28 2.014695 1_655
Li10 O25 2.019618 1_655
Li10 O45 2.177862 1_555
Li11 O53 1.929072 1_555
Li11 O7 1.979127 1_555
Li11 O8 2.035475 1_555
Li11 O50 2.245879 1_555
O0 P13 1.481047 1_555
O1 P1 1.554019 1_555
O1 V4 1.966430 1_555
O2 P8 1.505080 1_555
O3 P0 1.548610 1_555
O3 V2 1.999118 1_556
O4 P0 1.574562 1_555
O4 V5 1.925214 1_556
O5 P3 1.575724 1_555
O5 V4 1.981135 1_555
O6 P2 1.532112 1_555
O6 V4 1.907896 1_555
O7 P15 1.504538 1_555
O8 P5 1.543176 1_555
O8 V5 2.027025 1_556
O9 P4 1.587240 1_555
O9 V2 1.851881 1_555
O10 P1 1.559632 1_555
O10 V3 1.856534 1_555
O11 P4 1.596006 1_555
O11 V5 1.933251 1_555
O12 P3 1.509285 1_555
O13 P4 1.479595 1_555
O14 P3 1.583442 1_555
O14 V0 1.984468 1_545
O15 P7 1.554317 1_555
O15 V2 1.982075 1_556
O16 P3 1.565679 1_555
O16 V3 2.017874 1_555
O17 P2 1.549838 1_555
O17 V0 1.981542 1_545
O18 P5 1.604594 1_554
O18 P6 1.622171 1_545
O19 P6 1.502069 1_545
O20 P5 1.502268 1_565
O21 P5 1.553969 1_555
O21 V1 1.971344 1_545
O22 P4 1.579634 1_555
O22 V1 1.955307 1_544
O23 P8 1.553307 1_555
O23 V0 1.990019 1_555
O24 P9 1.528738 1_555
O24 V0 1.921794 1_545
O25 P9 1.553307 1_555
O25 V3 1.990019 1_555
O26 P8 1.610873 1_455
O26 P1 1.621904 1_555
O27 P1 1.478406 1_655
O28 P14 1.502268 1_455
O29 P6 1.524938 1_555
O29 V2 1.954282 1_655
O30 P6 1.554317 1_555
O30 V1 1.982075 1_554
O31 P7 1.524938 1_555
O31 V1 1.954282 1_545
O32 P11 1.565679 1_555
O32 V0 2.017874 1_555
O33 P10 1.559632 1_555
O33 V0 1.856534 1_555
O34 P10 1.478406 1_545
O35 P9 1.505080 1_555
O36 P9 1.610873 1_565
O36 P10 1.621904 1_555
O37 P13 1.548610 1_555
O37 V1 1.999118 1_554
O38 P12 1.579634 1_555
O38 V2 1.955307 1_656
O39 P8 1.528738 1_555
O39 V3 1.921794 1_655
O40 P12 1.587240 1_555
O40 V1 1.851881 1_555
O41 P12 1.479595 1_555
O42 P11 1.509285 1_555
O43 P11 1.575724 1_555
O43 V4 1.981135 1_555
O44 P14 1.553969 1_555
O44 V2 1.971344 1_655
O45 P11 1.583442 1_555
O45 V3 1.984468 1_655
O46 P10 1.554019 1_555
O46 V4 1.966430 1_555
O47 P0 1.611673 1_554
O47 P13 1.611673 1_555
O48 P0 1.481047 1_555
O49 P13 1.574562 1_555
O49 V5 1.925214 1_555
O50 P12 1.596006 1_555
O50 V5 1.933251 1_556
O51 P15 1.532112 1_555
O51 V4 1.907896 1_555
O52 P15 1.549838 1_555
O52 V3 1.981542 1_655
O53 P7 1.502069 1_655
O54 P14 1.604594 1_556
O54 P7 1.622171 1_655
O55 P14 1.543176 1_555
O55 V5 2.027025 1_555
O56 P2 1.504538 1_555
O57 P15 1.618341 1_555
O57 P2 1.618341 1_555
