# generated using pymatgen
data_Ca4TiMn3O10
_symmetry_space_group_name_H-M   'P 1'
_cell_length_a   7.83420246
_cell_length_b   7.76582900
_cell_length_c   8.03857112
_cell_angle_alpha   89.70756664
_cell_angle_beta   90.86174454
_cell_angle_gamma   89.95525156
_symmetry_Int_Tables_number   1
_chemical_formula_structural   Ca4TiMn3O10
_chemical_formula_sum   'Ca8 Ti2 Mn6 O20'
_cell_volume   488.99738150
_cell_formula_units_Z   2
loop_
 _symmetry_equiv_pos_site_id
 _symmetry_equiv_pos_as_xyz
  1  'x, y, z'
loop_
 _atom_site_type_symbol
 _atom_site_label
 _atom_site_symmetry_multiplicity
 _atom_site_fract_x
 _atom_site_fract_y
 _atom_site_fract_z
 _atom_site_occupancy
  Ca  Ca0  1  0.23704000  0.26920600  0.23087100  1
  Ca  Ca1  1  0.21937600  0.29693600  0.70276100  1
  Ca  Ca2  1  0.24807700  0.72812200  0.25463600  1
  Ca  Ca3  1  0.22956200  0.73216600  0.68957100  1
  Ca  Ca4  1  0.74116200  0.25229300  0.29625800  1
  Ca  Ca5  1  0.75223700  0.29800200  0.71511300  1
  Ca  Ca6  1  0.74198800  0.74680000  0.29576000  1
  Ca  Ca7  1  0.76377300  0.73054200  0.71839400  1
  Ti  Ti0  1  0.99107600  0.01514600  0.99335700  1
  Ti  Ti1  1  0.56039900  0.00142800  0.02043700  1
  Mn  Mn0  1  0.00110400  0.99762200  0.51987000  1
  Mn  Mn1  1  0.98347600  0.49707000  0.98219800  1
  Mn  Mn2  1  0.99151300  0.50332400  0.46933200  1
  Mn  Mn3  1  0.49801100  0.00314200  0.53476800  1
  Mn  Mn4  1  0.48641700  0.51899000  0.98499600  1
  Mn  Mn5  1  0.48498800  0.50300600  0.50126000  1
  O  O0  1  0.99949200  0.88029900  0.81181200  1
  O  O1  1  0.92182400  0.48896400  0.21899600  1
  O  O2  1  0.01969400  0.52408400  0.73151300  1
  O  O3  1  0.78438100  0.99821800  0.11453500  1
  O  O4  1  0.58310100  0.00944200  0.79906500  1
  O  O5  1  0.42744800  0.50807300  0.74439900  1
  O  O6  1  0.15732200  0.99040100  0.14898900  1
  O  O7  1  0.25239700  0.02635200  0.57980200  1
  O  O8  1  0.23276900  0.50983300  0.05195900  1
  O  O9  1  0.24914300  0.46976200  0.43767800  1
  O  O10  1  0.74502300  0.96670600  0.48998700  1
  O  O11  1  0.73805300  0.51411900  0.92386500  1
  O  O12  1  0.72944100  0.53064100  0.50662200  1
  O  O13  1  0.00646100  0.23068700  0.91621600  1
  O  O14  1  0.96617700  0.25019900  0.49995200  1
  O  O15  1  0.02430500  0.75393600  0.44927300  1
  O  O16  1  0.49447400  0.21038200  0.10648500  1
  O  O17  1  0.53094200  0.25320400  0.49474400  1
  O  O18  1  0.49979700  0.78505100  0.09406200  1
  O  O19  1  0.45755800  0.75585300  0.47046200  1
loop_
_geom_bond_atom_site_label_1
_geom_bond_atom_site_label_2
_geom_bond_distance
_geom_bond_site_symmetry_2
Ca0 O9 2.284808 1_555
Ca0 O16 2.310796 1_555
Ca0 O6 2.348501 1_545
Ca0 O8 2.352121 1_555
Ca1 O5 2.334741 1_555
Ca1 O7 2.342526 1_555
Ca1 O2 2.371287 1_555
Ca1 O13 2.463659 1_555
Ca1 O9 2.526389 1_555
Ca1 O14 2.575695 1_455
Ca2 O6 2.310253 1_555
Ca2 O8 2.359047 1_555
Ca2 O15 2.376258 1_555
Ca2 O19 2.380831 1_555
Ca2 O18 2.413000 1_555
Ca2 O9 2.481956 1_555
Ca3 O2 2.333107 1_555
Ca3 O5 2.365069 1_555
Ca3 O0 2.366268 1_455
Ca3 O7 2.452510 1_565
Ca3 O15 2.499684 1_555
Ca3 O19 2.533441 1_555
Ca4 O17 2.310248 1_555
Ca4 O14 2.387832 1_555
Ca4 O1 2.405375 1_555
Ca4 O16 2.466865 1_555
Ca4 O3 2.486956 1_545
Ca4 O10 2.703342 1_545
Ca4 O12 2.753580 1_555
Ca5 O11 2.383088 1_555
Ca5 O14 2.455851 1_555
Ca5 O12 2.462576 1_555
Ca5 O17 2.485868 1_555
Ca5 O13 2.597335 1_655
Ca5 O4 2.692385 1_555
Ca5 O2 2.736795 1_655
Ca6 O10 2.319661 1_555
Ca6 O12 2.382622 1_555
Ca6 O3 2.455851 1_555
Ca6 O18 2.493743 1_555
Ca6 O15 2.517226 1_655
Ca6 O1 2.531660 1_555
Ca6 O19 2.652788 1_555
Ca7 O0 2.301567 1_555
Ca7 O12 2.322522 1_555
Ca7 O11 2.361284 1_555
Ca7 O2 2.566791 1_655
Ca7 O10 2.591023 1_555
Ca7 O4 2.674356 1_565
Mn0 O14 1.985575 1_465
Mn0 O15 1.987433 1_555
Mn0 O10 2.031500 1_455
Mn0 O7 2.032446 1_565
Mn0 O0 2.513328 1_455
Mn1 O1 1.971574 1_556
Mn1 O11 1.976363 1_555
Mn1 O8 2.026445 1_656
Mn1 O2 2.048980 1_655
Mn1 O13 2.146322 1_655
Mn2 O15 1.969404 1_655
Mn2 O14 1.990276 1_555
Mn2 O9 2.054658 1_655
Mn2 O1 2.080714 1_555
Mn2 O12 2.090134 1_555
Mn2 O2 2.122751 1_655
Mn3 O7 1.971579 1_555
Mn3 O17 1.984464 1_555
Mn3 O10 1.993880 1_545
Mn3 O19 2.015381 1_545
Mn3 O4 2.217899 1_555
Mn4 O5 1.983946 1_555
Mn4 O11 2.039219 1_555
Mn4 O8 2.067728 1_556
Mn4 O18 2.250519 1_556
Mn4 O16 2.583684 1_556
Mn5 O12 1.927110 1_555
Mn5 O9 1.927539 1_555
Mn5 O17 1.973868 1_555
Mn5 O19 1.988930 1_555
Mn5 O5 2.012968 1_555
O0 Ti0 1.802525 1_565
O3 Ti1 1.900432 1_565
O3 Ti0 1.906495 1_564
O4 Ti1 1.791810 1_556
O6 Ti0 1.801799 1_464
O13 Ti0 1.786844 1_455
O16 Ti1 1.843705 1_555
O18 Ti1 1.843581 1_565
