# generated using pymatgen
data_Na2PrN5O16
_symmetry_space_group_name_H-M   'P 1'
_cell_length_a   8.03126236
_cell_length_b   15.26044268
_cell_length_c   21.42884315
_cell_angle_alpha   90.55072167
_cell_angle_beta   90.00000000
_cell_angle_gamma   90.00000000
_symmetry_Int_Tables_number   1
_chemical_formula_structural   Na2PrN5O16
_chemical_formula_sum   'Na16 Pr8 N40 O128'
_cell_volume   2626.21095665
_cell_formula_units_Z   8
loop_
 _symmetry_equiv_pos_site_id
 _symmetry_equiv_pos_as_xyz
  1  'x, y, z'
loop_
 _atom_site_type_symbol
 _atom_site_label
 _atom_site_symmetry_multiplicity
 _atom_site_fract_x
 _atom_site_fract_y
 _atom_site_fract_z
 _atom_site_occupancy
  Na  Na0  1  0.33185144  0.65881843  0.12697251  1
  Na  Na1  1  0.33185144  0.84118157  0.87302749  1
  Na  Na2  1  0.66814856  0.34118157  0.87302749  1
  Na  Na3  1  0.66814856  0.15881843  0.12697251  1
  Na  Na4  1  0.23520767  0.96869172  0.11923666  1
  Na  Na5  1  0.23520767  0.53130828  0.88076334  1
  Na  Na6  1  0.76479233  0.03130828  0.88076334  1
  Na  Na7  1  0.76479233  0.46869172  0.11923666  1
  Na  Na8  1  0.18581732  0.53839049  0.37093240  1
  Na  Na9  1  0.18581732  0.96160951  0.62906760  1
  Na  Na10  1  0.81418268  0.46160951  0.62906760  1
  Na  Na11  1  0.81418268  0.03839049  0.37093240  1
  Na  Na12  1  0.32979410  0.88051340  0.39161524  1
  Na  Na13  1  0.32979410  0.61948660  0.60838476  1
  Na  Na14  1  0.67020590  0.11948660  0.60838476  1
  Na  Na15  1  0.67020590  0.38051340  0.39161524  1
  Pr  Pr0  1  0.82519643  0.75000000  0.00000000  1
  Pr  Pr1  1  0.17480357  0.25000000  0.00000000  1
  Pr  Pr2  1  0.85291051  0.75000000  0.50000000  1
  Pr  Pr3  1  0.14708949  0.25000000  0.50000000  1
  Pr  Pr4  1  0.83119575  0.75473202  0.24850899  1
  Pr  Pr5  1  0.83119575  0.74526798  0.75149101  1
  Pr  Pr6  1  0.16880425  0.24526798  0.75149101  1
  Pr  Pr7  1  0.16880425  0.25473202  0.24850899  1
  N  N0  1  0.50886107  0.81457019  0.18159609  1
  N  N1  1  0.50886107  0.68542981  0.81840391  1
  N  N2  1  0.49113893  0.18542981  0.81840391  1
  N  N3  1  0.49113893  0.31457019  0.18159609  1
  N  N4  1  0.15913788  0.70887921  0.42230869  1
  N  N5  1  0.15913788  0.79112079  0.57769131  1
  N  N6  1  0.84086212  0.29112079  0.57769131  1
  N  N7  1  0.84086212  0.20887921  0.42230869  1
  N  N8  1  0.51976424  0.87103224  0.00404605  1
  N  N9  1  0.51976424  0.62896776  0.99595395  1
  N  N10  1  0.48023576  0.12896776  0.99595395  1
  N  N11  1  0.48023576  0.37103224  0.00404605  1
  N  N12  1  0.01868016  0.60781017  0.07052775  1
  N  N13  1  0.01868016  0.89218983  0.92947225  1
  N  N14  1  0.98131984  0.39218983  0.92947225  1
  N  N15  1  0.98131984  0.10781017  0.07052775  1
  N  N16  1  0.70683130  0.56630588  0.24630126  1
  N  N17  1  0.70683130  0.93369412  0.75369874  1
  N  N18  1  0.29316870  0.43369412  0.75369874  1
  N  N19  1  0.29316870  0.06630588  0.24630126  1
  N  N20  1  0.14652436  0.64219952  0.24923260  1
  N  N21  1  0.14652436  0.85780048  0.75076740  1
  N  N22  1  0.85347564  0.35780048  0.75076740  1
  N  N23  1  0.85347564  0.14219952  0.24923260  1
  N  N24  1  0.02094952  0.60032294  0.67955200  1
  N  N25  1  0.02094952  0.89967706  0.32044800  1
  N  N26  1  0.97905048  0.39967706  0.32044800  1
  N  N27  1  0.97905048  0.10032294  0.67955200  1
  N  N28  1  0.64872249  0.78244434  0.37848553  1
  N  N29  1  0.64872249  0.71755566  0.62151447  1
  N  N30  1  0.35127751  0.21755566  0.62151447  1
  N  N31  1  0.35127751  0.28244434  0.37848553  1
  N  N32  1  0.74344428  0.94562038  0.50397887  1
  N  N33  1  0.74344428  0.55437962  0.49602113  1
  N  N34  1  0.25655572  0.05437962  0.49602113  1
  N  N35  1  0.25655572  0.44562038  0.50397887  1
  N  N36  1  0.95393751  0.83786314  0.12454577  1
  N  N37  1  0.95393751  0.66213686  0.87545423  1
  N  N38  1  0.04606249  0.16213686  0.87545423  1
  N  N39  1  0.04606249  0.33786314  0.12454577  1
  O  O0  1  0.60981203  0.87299181  0.20096933  1
  O  O1  1  0.60981203  0.62700819  0.79903067  1
  O  O2  1  0.39018797  0.12700819  0.79903067  1
  O  O3  1  0.39018797  0.37299181  0.20096933  1
  O  O4  1  0.54703546  0.73422254  0.19373972  1
  O  O5  1  0.54703546  0.76577746  0.80626028  1
  O  O6  1  0.45296454  0.26577746  0.80626028  1
  O  O7  1  0.45296454  0.23422254  0.19373972  1
  O  O8  1  0.37993975  0.83077105  0.15190782  1
  O  O9  1  0.37993975  0.66922895  0.84809218  1
  O  O10  1  0.62006025  0.16922895  0.84809218  1
  O  O11  1  0.62006025  0.33077105  0.15190782  1
  O  O12  1  0.05177980  0.65023209  0.43605364  1
  O  O13  1  0.05177980  0.84976791  0.56394636  1
  O  O14  1  0.94822020  0.34976791  0.56394636  1
  O  O15  1  0.94822020  0.15023209  0.43605364  1
  O  O16  1  0.28765751  0.69084207  0.39302553  1
  O  O17  1  0.28765751  0.80915793  0.60697447  1
  O  O18  1  0.71234249  0.30915793  0.60697447  1
  O  O19  1  0.71234249  0.19084207  0.39302553  1
  O  O20  1  0.12630802  0.78776848  0.44021013  1
  O  O21  1  0.12630802  0.71223152  0.55978987  1
  O  O22  1  0.87369198  0.21223152  0.55978987  1
  O  O23  1  0.87369198  0.28776848  0.44021013  1
  O  O24  1  0.54734418  0.82132970  0.95578793  1
  O  O25  1  0.54734418  0.67867030  0.04421207  1
  O  O26  1  0.45265582  0.17867030  0.04421207  1
  O  O27  1  0.45265582  0.32132970  0.95578793  1
  O  O28  1  0.63123584  0.87017876  0.04662053  1
  O  O29  1  0.63123584  0.62982124  0.95337947  1
  O  O30  1  0.36876416  0.12982124  0.95337947  1
  O  O31  1  0.36876416  0.37017876  0.04662053  1
  O  O32  1  0.39223517  0.91606364  0.00805757  1
  O  O33  1  0.39223517  0.58393636  0.99194243  1
  O  O34  1  0.60776483  0.08393636  0.99194243  1
  O  O35  1  0.60776483  0.41606364  0.00805757  1
  O  O36  1  0.86690099  0.59689538  0.05342120  1
  O  O37  1  0.86690099  0.90310462  0.94657880  1
  O  O38  1  0.13309901  0.40310462  0.94657880  1
  O  O39  1  0.13309901  0.09689538  0.05342120  1
  O  O40  1  0.09305843  0.55215521  0.10182463  1
  O  O41  1  0.09305843  0.94784479  0.89817537  1
  O  O42  1  0.90694157  0.44784479  0.89817537  1
  O  O43  1  0.90694157  0.05215521  0.10182463  1
  O  O44  1  0.08919579  0.67969498  0.05468661  1
  O  O45  1  0.08919579  0.82030502  0.94531339  1
  O  O46  1  0.91080421  0.32030502  0.94531339  1
  O  O47  1  0.91080421  0.17969498  0.05468661  1
  O  O48  1  0.78966309  0.59834845  0.19998492  1
  O  O49  1  0.78966309  0.90165155  0.80001508  1
  O  O50  1  0.21033691  0.40165155  0.80001508  1
  O  O51  1  0.21033691  0.09834845  0.19998492  1
  O  O52  1  0.67633616  0.61837164  0.29185015  1
  O  O53  1  0.67633616  0.88162836  0.70814985  1
  O  O54  1  0.32366384  0.38162836  0.70814985  1
  O  O55  1  0.32366384  0.11837164  0.29185015  1
  O  O56  1  0.33910672  0.98901637  0.24552744  1
  O  O57  1  0.33910672  0.51098363  0.75447256  1
  O  O58  1  0.66089328  0.01098363  0.75447256  1
  O  O59  1  0.66089328  0.48901637  0.24552744  1
  O  O60  1  0.04143876  0.64033428  0.29440212  1
  O  O61  1  0.04143876  0.85966572  0.70559788  1
  O  O62  1  0.95856124  0.35966572  0.70559788  1
  O  O63  1  0.95856124  0.14033428  0.29440212  1
  O  O64  1  0.27300251  0.59600197  0.24880012  1
  O  O65  1  0.27300251  0.90399803  0.75119988  1
  O  O66  1  0.72699749  0.40399803  0.75119988  1
  O  O67  1  0.72699749  0.09600197  0.24880012  1
  O  O68  1  0.11253160  0.69457952  0.20430639  1
  O  O69  1  0.11253160  0.80542048  0.79569361  1
  O  O70  1  0.88746840  0.30542048  0.79569361  1
  O  O71  1  0.88746840  0.19457952  0.20430639  1
  O  O72  1  0.86865879  0.59142851  0.69676726  1
  O  O73  1  0.86865879  0.90857149  0.30323274  1
  O  O74  1  0.13134121  0.40857149  0.30323274  1
  O  O75  1  0.13134121  0.09142851  0.69676726  1
  O  O76  1  0.08923515  0.54271642  0.64649905  1
  O  O77  1  0.08923515  0.95728358  0.35350095  1
  O  O78  1  0.91076485  0.45728358  0.35350095  1
  O  O79  1  0.91076485  0.04271642  0.64649905  1
  O  O80  1  0.09733497  0.66946532  0.69638374  1
  O  O81  1  0.09733497  0.83053468  0.30361626  1
  O  O82  1  0.90266503  0.33053468  0.30361626  1
  O  O83  1  0.90266503  0.16946532  0.69638374  1
  O  O84  1  0.79852738  0.75333402  0.37557622  1
  O  O85  1  0.79852738  0.74666598  0.62442378  1
  O  O86  1  0.20147262  0.24666598  0.62442378  1
  O  O87  1  0.20147262  0.25333402  0.37557622  1
  O  O88  1  0.58343332  0.79410407  0.43159029  1
  O  O89  1  0.58343332  0.70589593  0.56840971  1
  O  O90  1  0.41656668  0.20589593  0.56840971  1
  O  O91  1  0.41656668  0.29410407  0.43159029  1
  O  O92  1  0.57297915  0.80010888  0.32897285  1
  O  O93  1  0.57297915  0.69989112  0.67102715  1
  O  O94  1  0.42702085  0.19989112  0.67102715  1
  O  O95  1  0.42702085  0.30010888  0.32897285  1
  O  O96  1  0.69466257  0.89151376  0.54500886  1
  O  O97  1  0.69466257  0.60848624  0.45499114  1
  O  O98  1  0.30533743  0.10848624  0.45499114  1
  O  O99  1  0.30533743  0.39151376  0.54500886  1
  O  O100  1  0.83692735  0.91494423  0.45993169  1
  O  O101  1  0.83692735  0.58505577  0.54006831  1
  O  O102  1  0.16307265  0.08505577  0.54006831  1
  O  O103  1  0.16307265  0.41494423  0.45993169  1
  O  O104  1  0.29678503  0.52426525  0.50525197  1
  O  O105  1  0.29678503  0.97573475  0.49474803  1
  O  O106  1  0.70321497  0.47573475  0.49474803  1
  O  O107  1  0.70321497  0.02426525  0.50525197  1
  O  O108  1  0.00929067  0.86290447  0.07291883  1
  O  O109  1  0.00929067  0.63709553  0.92708117  1
  O  O110  1  0.99070933  0.13709553  0.92708117  1
  O  O111  1  0.99070933  0.36290447  0.07291883  1
  O  O112  1  0.99766075  0.87205950  0.17543044  1
  O  O113  1  0.99766075  0.62794050  0.82456956  1
  O  O114  1  0.00233925  0.12794050  0.82456956  1
  O  O115  1  0.00233925  0.37205950  0.17543044  1
  O  O116  1  0.84948683  0.77349651  0.12534403  1
  O  O117  1  0.84948683  0.72650349  0.87465597  1
  O  O118  1  0.15051317  0.22650349  0.87465597  1
  O  O119  1  0.15051317  0.27349651  0.12534403  1
  O  O120  1  0.50745221  0.00541894  0.36980859  1
  O  O121  1  0.50745221  0.49458106  0.63019141  1
  O  O122  1  0.49254779  0.99458106  0.63019141  1
  O  O123  1  0.49254779  0.50541894  0.36980859  1
  O  O124  1  0.52537223  0.01410662  0.12848900  1
  O  O125  1  0.52537223  0.48589338  0.87151100  1
  O  O126  1  0.47462777  0.98589338  0.87151100  1
  O  O127  1  0.47462777  0.51410662  0.12848900  1
loop_
_geom_bond_atom_site_label_1
_geom_bond_atom_site_label_2
_geom_bond_distance
_geom_bond_site_symmetry_2
Na0 O68 2.475732 1_555
Na0 O127 2.488811 1_555
Na0 O25 2.498503 1_555
Na0 O44 2.511640 1_555
Na0 O4 2.515187 1_555
Na0 O40 2.569247 1_555
Na0 O8 2.700644 1_555
Na0 O64 2.829448 1_555
Na1 O69 2.475732 1_555
Na1 O126 2.488811 1_555
Na1 O24 2.498503 1_555
Na1 O45 2.511640 1_555
Na1 O5 2.515187 1_555
Na1 O41 2.569247 1_555
Na1 O9 2.700644 1_555
Na1 O65 2.829448 1_555
Na2 O70 2.475732 1_555
Na2 O125 2.488811 1_555
Na2 O27 2.498503 1_555
Na2 O46 2.511640 1_555
Na2 O6 2.515187 1_555
Na2 O42 2.569247 1_555
Na2 O10 2.700644 1_555
Na2 O66 2.829448 1_555
Na3 O71 2.475732 1_555
Na3 O124 2.488811 1_555
Na3 O26 2.498503 1_555
Na3 O47 2.511640 1_555
Na3 O7 2.515187 1_555
Na3 O43 2.569247 1_555
Na3 O11 2.700644 1_555
Na3 O67 2.829448 1_555
Na4 O124 2.438790 1_565
Na4 O8 2.509879 1_555
Na4 O39 2.557793 1_565
Na4 O108 2.617734 1_555
Na4 O51 2.623566 1_565
Na4 O112 2.701566 1_455
Na4 O32 2.806189 1_555
Na4 O56 2.846090 1_555
Na4 O43 2.953167 1_465
Na5 O125 2.438790 1_555
Na5 O9 2.509879 1_555
Na5 O38 2.557793 1_555
Na5 O109 2.617734 1_555
Na5 O50 2.623566 1_555
Na5 O113 2.701566 1_455
Na5 O33 2.806189 1_555
Na5 O57 2.846090 1_555
Na5 O42 2.953167 1_455
Na6 O126 2.438790 1_545
Na6 O10 2.509879 1_555
Na6 O37 2.557793 1_545
Na6 O110 2.617734 1_555
Na6 O49 2.623566 1_545
Na6 O114 2.701566 1_655
Na6 O34 2.806189 1_555
Na6 O58 2.846090 1_555
Na6 O41 2.953167 1_645
Na7 O127 2.438790 1_555
Na7 O11 2.509879 1_555
Na7 O36 2.557793 1_555
Na7 O111 2.617734 1_555
Na7 O48 2.623566 1_555
Na7 O115 2.701566 1_655
Na7 O35 2.806189 1_555
Na7 O59 2.846090 1_555
Na7 O40 2.953167 1_655
Na8 O12 2.444053 1_555
Na8 O74 2.483045 1_555
Na8 O16 2.506877 1_555
Na8 O123 2.514363 1_555
Na8 O60 2.550149 1_555
Na8 O78 2.557806 1_455
Na8 O103 2.699728 1_555
Na8 O64 2.856040 1_555
Na9 O13 2.444053 1_555
Na9 O75 2.483045 1_565
Na9 O17 2.506877 1_555
Na9 O122 2.514363 1_555
Na9 O61 2.550149 1_555
Na9 O79 2.557806 1_465
Na9 O102 2.699728 1_565
Na9 O65 2.856040 1_555
Na10 O14 2.444053 1_555
Na10 O72 2.483045 1_555
Na10 O18 2.506877 1_555
Na10 O121 2.514363 1_555
Na10 O62 2.550149 1_555
Na10 O76 2.557806 1_655
Na10 O101 2.699728 1_555
Na10 O66 2.856040 1_555
Na11 O15 2.444053 1_555
Na11 O73 2.483045 1_545
Na11 O19 2.506877 1_555
Na11 O120 2.514363 1_555
Na11 O63 2.550149 1_555
Na11 O77 2.557806 1_645
Na11 O100 2.699728 1_545
Na11 O67 2.856040 1_555
Na12 O20 2.405542 1_555
Na12 O77 2.406363 1_555
Na12 O120 2.429931 1_565
Na12 O88 2.577572 1_555
Na12 O105 2.646559 1_555
Na12 O92 2.662768 1_555
Na12 O81 2.755985 1_555
Na12 O16 2.914629 1_555
Na13 O21 2.405542 1_555
Na13 O76 2.406363 1_555
Na13 O121 2.429931 1_555
Na13 O89 2.577572 1_555
Na13 O104 2.646559 1_555
Na13 O93 2.662768 1_555
Na13 O80 2.755985 1_555
Na13 O17 2.914629 1_555
Na14 O22 2.405542 1_555
Na14 O79 2.406363 1_555
Na14 O122 2.429931 1_545
Na14 O90 2.577572 1_555
Na14 O107 2.646559 1_555
Na14 O94 2.662768 1_555
Na14 O83 2.755985 1_555
Na14 O18 2.914629 1_555
Na15 O23 2.405542 1_555
Na15 O78 2.406363 1_555
Na15 O123 2.429931 1_555
Na15 O91 2.577572 1_555
Na15 O106 2.646559 1_555
Na15 O95 2.662768 1_555
Na15 O82 2.755985 1_555
Na15 O19 2.914629 1_555
N0 O8 1.241344 1_555
N0 O0 1.271775 1_555
N0 O4 1.292775 1_555
N1 O9 1.241344 1_555
N1 O1 1.271775 1_555
N1 O5 1.292775 1_555
N2 O10 1.241344 1_555
N2 O2 1.271775 1_555
N2 O6 1.292775 1_555
N3 O11 1.241344 1_555
N3 O3 1.271775 1_555
N3 O7 1.292775 1_555
N4 O16 1.237575 1_555
N4 O12 1.279154 1_555
N4 O20 1.287298 1_555
N5 O17 1.237575 1_555
N5 O13 1.279154 1_555
N5 O21 1.287298 1_555
N6 O18 1.237575 1_555
N6 O14 1.279154 1_555
N6 O22 1.287298 1_555
N7 O19 1.237575 1_555
N7 O15 1.279154 1_555
N7 O23 1.287298 1_555
N8 O32 1.235930 1_555
N8 O28 1.278364 1_555
N8 O24 1.295637 1_554
N9 O33 1.235930 1_555
N9 O29 1.278364 1_555
N9 O25 1.295637 1_556
N10 O34 1.235930 1_555
N10 O30 1.278364 1_555
N10 O26 1.295637 1_556
N11 O35 1.235930 1_555
N11 O31 1.278364 1_555
N11 O27 1.295637 1_554
N12 O40 1.240525 1_555
N12 O44 1.283166 1_555
N12 O36 1.283298 1_455
N13 O41 1.240525 1_555
N13 O45 1.283166 1_555
N13 O37 1.283298 1_455
N14 O42 1.240525 1_555
N14 O46 1.283166 1_555
N14 O38 1.283298 1_655
N15 O43 1.240525 1_555
N15 O47 1.283166 1_555
N15 O39 1.283298 1_655
N16 O59 1.235787 1_555
N16 O52 1.276351 1_555
N16 O48 1.294624 1_555
N17 O58 1.235787 1_565
N17 O53 1.276351 1_555
N17 O49 1.294624 1_555
N18 O57 1.235787 1_555
N18 O54 1.276351 1_555
N18 O50 1.294624 1_555
N19 O56 1.235787 1_545
N19 O55 1.276351 1_555
N19 O51 1.294624 1_555
N20 O64 1.236441 1_555
N20 O60 1.284724 1_555
N20 O68 1.286505 1_555
N21 O65 1.236441 1_555
N21 O61 1.284724 1_555
N21 O69 1.286505 1_555
N22 O66 1.236441 1_555
N22 O62 1.284724 1_555
N22 O70 1.286505 1_555
N23 O67 1.236441 1_555
N23 O63 1.284724 1_555
N23 O71 1.286505 1_555
N24 O76 1.250313 1_555
N24 O80 1.269824 1_555
N24 O72 1.285075 1_455
N25 O77 1.250313 1_555
N25 O81 1.269824 1_555
N25 O73 1.285075 1_455
N26 O78 1.250313 1_555
N26 O82 1.269824 1_555
N26 O74 1.285075 1_655
N27 O79 1.250313 1_555
N27 O83 1.269824 1_555
N27 O75 1.285075 1_655
N28 O92 1.254564 1_555
N28 O88 1.264001 1_555
N28 O84 1.283824 1_555
N29 O93 1.254564 1_555
N29 O89 1.264001 1_555
N29 O85 1.283824 1_555
N30 O94 1.254564 1_555
N30 O90 1.264001 1_555
N30 O86 1.283824 1_555
N31 O95 1.254564 1_555
N31 O91 1.264001 1_555
N31 O87 1.283824 1_555
N32 O107 1.242931 1_565
N32 O96 1.273675 1_555
N32 O100 1.290443 1_555
N33 O106 1.242931 1_555
N33 O97 1.273675 1_555
N33 O101 1.290443 1_555
N34 O105 1.242931 1_545
N34 O98 1.273675 1_555
N34 O102 1.290443 1_555
N35 O104 1.242931 1_555
N35 O99 1.273675 1_555
N35 O103 1.290443 1_555
N36 O112 1.254460 1_555
N36 O108 1.255269 1_655
N36 O116 1.291960 1_555
N37 O113 1.254460 1_555
N37 O109 1.255269 1_655
N37 O117 1.291960 1_555
N38 O114 1.254460 1_555
N38 O110 1.255269 1_455
N38 O118 1.291960 1_555
N39 O115 1.254460 1_555
N39 O111 1.255269 1_455
N39 O119 1.291960 1_555
O0 Pr4 2.737026 1_555
O1 Pr5 2.737026 1_555
O2 Pr6 2.737026 1_555
O3 Pr7 2.737026 1_555
O4 Pr4 2.583914 1_555
O5 Pr5 2.583914 1_555
O6 Pr6 2.583914 1_555
O7 Pr7 2.583914 1_555
O12 Pr2 2.589706 1_455
O13 Pr2 2.589706 1_455
O14 Pr3 2.589706 1_655
O15 Pr3 2.589706 1_655
O20 Pr2 2.609435 1_455
O21 Pr2 2.609435 1_455
O22 Pr3 2.609435 1_655
O23 Pr3 2.609435 1_655
O24 Pr0 2.661186 1_556
O25 Pr0 2.661186 1_555
O26 Pr1 2.661186 1_555
O27 Pr1 2.661186 1_556
O28 Pr0 2.598633 1_555
O29 Pr0 2.598633 1_556
O30 Pr1 2.598633 1_556
O31 Pr1 2.598633 1_555
O36 Pr0 2.633066 1_555
O37 Pr0 2.633066 1_556
O38 Pr1 2.633066 1_556
O39 Pr1 2.633066 1_555
O44 Pr0 2.654051 1_455
O45 Pr0 2.654051 1_456
O46 Pr1 2.654051 1_656
O47 Pr1 2.654051 1_655
O48 Pr4 2.615353 1_555
O49 Pr5 2.615353 1_555
O50 Pr6 2.615353 1_555
O51 Pr7 2.615353 1_555
O52 Pr4 2.603227 1_555
O53 Pr5 2.603227 1_555
O54 Pr6 2.603227 1_555
O55 Pr7 2.603227 1_555
O60 Pr4 2.626579 1_455
O61 Pr5 2.626579 1_455
O62 Pr6 2.626579 1_655
O63 Pr7 2.626579 1_655
O68 Pr4 2.613119 1_455
O69 Pr5 2.613119 1_455
O70 Pr6 2.613119 1_655
O71 Pr7 2.613119 1_655
O72 Pr5 2.631397 1_555
O73 Pr4 2.631397 1_555
O74 Pr7 2.631397 1_555
O75 Pr6 2.631397 1_555
O80 Pr5 2.697220 1_455
O81 Pr4 2.697220 1_455
O82 Pr7 2.697220 1_655
O83 Pr6 2.697220 1_655
O84 Pr2 2.702756 1_555
O84 Pr4 2.735802 1_555
O85 Pr2 2.702756 1_555
O85 Pr5 2.735802 1_555
O86 Pr3 2.702756 1_555
O86 Pr6 2.735802 1_555
O87 Pr3 2.702756 1_555
O87 Pr7 2.735802 1_555
O88 Pr2 2.702755 1_555
O89 Pr2 2.702755 1_555
O90 Pr3 2.702755 1_555
O91 Pr3 2.702755 1_555
O92 Pr4 2.780335 1_555
O93 Pr5 2.780335 1_555
O94 Pr6 2.780335 1_555
O95 Pr7 2.780335 1_555
O96 Pr2 2.677531 1_555
O97 Pr2 2.677531 1_555
O98 Pr3 2.677531 1_555
O99 Pr3 2.677531 1_555
O100 Pr2 2.670422 1_555
O101 Pr2 2.670422 1_555
O102 Pr3 2.670422 1_555
O103 Pr3 2.670422 1_555
O108 Pr0 2.746722 1_455
O109 Pr0 2.746722 1_456
O110 Pr1 2.746722 1_656
O111 Pr1 2.746722 1_655
O112 Pr4 2.738497 1_555
O113 Pr5 2.738497 1_555
O114 Pr6 2.738497 1_555
O115 Pr7 2.738497 1_555
O116 Pr4 2.661563 1_555
O116 Pr0 2.713409 1_555
O117 Pr5 2.661563 1_555
O117 Pr0 2.713409 1_556
O118 Pr6 2.661563 1_555
O118 Pr1 2.713409 1_556
O119 Pr7 2.661563 1_555
O119 Pr1 2.713409 1_555
