# generated using pymatgen
data_NaCoO2
_symmetry_space_group_name_H-M   'P 1'
_cell_length_a   2.96504172
_cell_length_b   7.93069361
_cell_length_c   7.90715599
_cell_angle_alpha   110.85990956
_cell_angle_beta   87.46435752
_cell_angle_gamma   92.13106952
_symmetry_Int_Tables_number   1
_chemical_formula_structural   NaCoO2
_chemical_formula_sum   'Na4 Co4 O8'
_cell_volume   173.53226654
_cell_formula_units_Z   4
loop_
 _symmetry_equiv_pos_site_id
 _symmetry_equiv_pos_as_xyz
  1  'x, y, z'
loop_
 _atom_site_type_symbol
 _atom_site_label
 _atom_site_symmetry_multiplicity
 _atom_site_fract_x
 _atom_site_fract_y
 _atom_site_fract_z
 _atom_site_occupancy
  Na  Na0  1  0.23475600  0.18644400  0.06354700  1
  Na  Na1  1  0.23413300  0.68469600  0.56529500  1
  Na  Na2  1  0.76492000  0.81706000  0.93603100  1
  Na  Na3  1  0.76679700  0.31437900  0.43838500  1
  Co  Co0  1  0.25713600  0.94081700  0.31759600  1
  Co  Co1  1  0.74231700  0.06219900  0.68337400  1
  Co  Co2  1  0.25484600  0.44520500  0.82353600  1
  Co  Co3  1  0.74110400  0.56506800  0.18868500  1
  O  O0  1  0.23543300  0.66639600  0.07831600  1
  O  O1  1  0.23438400  0.16164400  0.57350700  1
  O  O2  1  0.76777100  0.32913000  0.91637000  1
  O  O3  1  0.76627000  0.82582100  0.41412100  1
  O  O4  1  0.29612600  0.46136000  0.28882200  1
  O  O5  1  0.29679900  0.96157400  0.78686200  1
  O  O6  1  0.70211400  0.53973700  0.71401000  1
  O  O7  1  0.70509500  0.03847000  0.21154400  1
loop_
_geom_bond_atom_site_label_1
_geom_bond_atom_site_label_2
_geom_bond_distance
_geom_bond_site_symmetry_2
Na0 O4 2.278819 1_555
Na0 O5 2.282729 1_544
Na0 O2 2.397706 1_454
Na0 O2 2.403050 1_554
Na0 O7 2.427212 1_455
Na0 O7 2.436313 1_555
Na1 O4 2.276217 1_555
Na1 O5 2.276911 1_555
Na1 O3 2.412659 1_455
Na1 O3 2.413624 1_555
Na1 O6 2.419826 1_555
Na1 O6 2.420028 1_455
Na2 O7 2.263939 1_566
Na2 O6 2.280913 1_555
Na2 O0 2.412431 1_556
Na2 O5 2.419824 1_655
Na2 O5 2.420164 1_555
Na2 O0 2.420744 1_656
Na3 O6 2.279335 1_555
Na3 O7 2.289726 1_555
Na3 O1 2.389260 1_655
Na3 O1 2.393965 1_555
Na3 O4 2.429420 1_655
Na3 O4 2.440020 1_555
Co0 O7 1.831556 1_565
Co0 O3 1.957367 1_455
Co0 O3 2.096004 1_555
Co0 O1 2.153883 1_565
Co0 O7 2.158798 1_465
Co0 O0 2.321260 1_555
Co1 O5 1.828239 1_545
Co1 O1 1.948227 1_655
Co1 O1 2.082523 1_555
Co1 O5 2.165887 1_645
Co1 O2 2.259256 1_555
Co1 O3 2.281714 1_545
Co2 O6 1.832384 1_555
Co2 O2 1.939208 1_455
Co2 O2 2.093648 1_555
Co2 O0 2.149311 1_556
Co2 O6 2.162716 1_455
Co2 O1 2.409090 1_555
Co3 O4 1.826149 1_555
Co3 O0 1.963251 1_655
Co3 O0 2.088116 1_555
Co3 O4 2.165957 1_655
Co3 O3 2.198766 1_555
Co3 O2 2.295753 1_554
