# generated using pymatgen
data_LiMoP2O7
_symmetry_space_group_name_H-M   'P 1'
_cell_length_a   8.64343800
_cell_length_b   7.23670100
_cell_length_c   9.96923122
_cell_angle_alpha   69.25465409
_cell_angle_beta   90.00000000
_cell_angle_gamma   90.00000000
_symmetry_Int_Tables_number   1
_chemical_formula_structural   LiMoP2O7
_chemical_formula_sum   'Li4 Mo4 P8 O28'
_cell_volume   583.14504845
_cell_formula_units_Z   4
loop_
 _symmetry_equiv_pos_site_id
 _symmetry_equiv_pos_as_xyz
  1  'x, y, z'
loop_
 _atom_site_type_symbol
 _atom_site_label
 _atom_site_symmetry_multiplicity
 _atom_site_fract_x
 _atom_site_fract_y
 _atom_site_fract_z
 _atom_site_occupancy
  Li  Li0  1  0.87717600  0.67757800  0.74691800  1
  Li  Li1  1  0.62282400  0.67757800  0.24691800  1
  Li  Li2  1  0.37717600  0.32242200  0.75308200  1
  Li  Li3  1  0.12282400  0.32242200  0.25308200  1
  Mo  Mo0  1  0.49967000  0.73129400  0.75138600  1
  Mo  Mo1  1  0.00033000  0.73129400  0.25138600  1
  Mo  Mo2  1  0.99967000  0.26870600  0.74861400  1
  Mo  Mo3  1  0.50033000  0.26870600  0.24861400  1
  P  P0  1  0.22705200  0.09910300  0.05171100  1
  P  P1  1  0.27294800  0.09910300  0.55171100  1
  P  P2  1  0.81057600  0.30960900  0.44055000  1
  P  P3  1  0.31057600  0.69039100  0.05945000  1
  P  P4  1  0.77294800  0.90089700  0.94828900  1
  P  P5  1  0.72705200  0.90089700  0.44828900  1
  P  P6  1  0.68942400  0.30960900  0.94055000  1
  P  P7  1  0.18942400  0.69039100  0.55945000  1
  O  O0  1  0.33313400  0.91143100  0.06079400  1
  O  O1  1  0.32646300  0.22147100  0.11438000  1
  O  O2  1  0.83313400  0.08856900  0.43920600  1
  O  O3  1  0.42141800  0.02948700  0.63882100  1
  O  O4  1  0.92141800  0.97051300  0.86117900  1
  O  O5  1  0.67353700  0.77852900  0.88562000  1
  O  O6  1  0.16686600  0.91143100  0.56079400  1
  O  O7  1  0.57858200  0.97051300  0.36117900  1
  O  O8  1  0.31884100  0.69620000  0.90588700  1
  O  O9  1  0.69816300  0.78451600  0.60821500  1
  O  O10  1  0.82646300  0.77852900  0.38562000  1
  O  O11  1  0.07858200  0.02948700  0.13882100  1
  O  O12  1  0.34789100  0.61408000  0.62742100  1
  O  O13  1  0.18115900  0.69620000  0.40588700  1
  O  O14  1  0.80183700  0.78451600  0.10821500  1
  O  O15  1  0.55456000  0.41915600  0.84396300  1
  O  O16  1  0.05456000  0.58084400  0.65603700  1
  O  O17  1  0.84789100  0.38592000  0.87257900  1
  O  O18  1  0.68115900  0.30380000  0.09411300  1
  O  O19  1  0.94544000  0.41915600  0.34396300  1
  O  O20  1  0.44544000  0.58084400  0.15603700  1
  O  O21  1  0.19816300  0.21548400  0.89178500  1
  O  O22  1  0.81884100  0.30380000  0.59411300  1
  O  O23  1  0.65210900  0.38592000  0.37257900  1
  O  O24  1  0.66686600  0.08856900  0.93920600  1
  O  O25  1  0.17353700  0.22147100  0.61438000  1
  O  O26  1  0.30183700  0.21548400  0.39178500  1
  O  O27  1  0.15210900  0.61408000  0.12742100  1
loop_
_geom_bond_atom_site_label_1
_geom_bond_atom_site_label_2
_geom_bond_distance
_geom_bond_site_symmetry_2
Li0 O16 2.027548 1_655
Li0 O9 2.036402 1_555
Li0 O17 2.053069 1_555
Li0 O5 2.501888 1_555
Li1 O20 2.027548 1_555
Li1 O14 2.036402 1_555
Li1 O23 2.053069 1_555
Li1 O10 2.501888 1_555
Li2 O15 2.027548 1_555
Li2 O21 2.036402 1_555
Li2 O12 2.053069 1_555
Li2 O25 2.501888 1_555
Li3 O19 2.027548 1_455
Li3 O26 2.036402 1_555
Li3 O27 2.053069 1_555
Li3 O1 2.501888 1_555
Mo0 O5 2.118996 1_555
Mo0 O8 2.145388 1_555
Mo0 O3 2.158220 1_565
Mo0 O15 2.168498 1_555
Mo0 O12 2.170370 1_555
Mo0 O9 2.177060 1_555
Mo1 O10 2.118996 1_455
Mo1 O13 2.145388 1_555
Mo1 O11 2.158220 1_565
Mo1 O19 2.168498 1_455
Mo1 O27 2.170370 1_555
Mo1 O14 2.177060 1_455
Mo2 O25 2.118996 1_655
Mo2 O22 2.145388 1_555
Mo2 O4 2.158220 1_545
Mo2 O16 2.168498 1_655
Mo2 O17 2.170370 1_555
Mo2 O21 2.177060 1_655
Mo3 O1 2.118996 1_555
Mo3 O18 2.145388 1_555
Mo3 O7 2.158220 1_545
Mo3 O20 2.168498 1_555
Mo3 O23 2.170370 1_555
Mo3 O26 2.177060 1_555
O0 P0 1.614408 1_565
O0 P3 1.616200 1_555
O1 P0 1.518145 1_555
O2 P5 1.614408 1_545
O2 P2 1.616200 1_555
O3 P1 1.531292 1_555
O4 P4 1.531292 1_555
O5 P4 1.518145 1_555
O6 P1 1.614408 1_565
O6 P7 1.616200 1_555
O7 P5 1.531292 1_555
O8 P3 1.518206 1_556
O9 P5 1.536987 1_555
O10 P5 1.518145 1_555
O11 P0 1.531292 1_555
O12 P7 1.541140 1_555
O13 P7 1.518206 1_555
O14 P4 1.536987 1_554
O15 P6 1.540679 1_555
O16 P7 1.540679 1_555
O17 P6 1.541140 1_555
O18 P6 1.518206 1_554
O19 P2 1.540679 1_555
O20 P3 1.540679 1_555
O21 P0 1.536987 1_556
O22 P2 1.518206 1_555
O23 P2 1.541140 1_555
O24 P4 1.614408 1_545
O24 P6 1.616200 1_555
O25 P1 1.518145 1_555
O26 P1 1.536987 1_555
O27 P3 1.541140 1_555
