# generated using pymatgen
data_ZnBi6P2(O7F)2
_symmetry_space_group_name_H-M   'P 1'
_cell_length_a   8.90963125
_cell_length_b   8.90963125
_cell_length_c   16.81807798
_cell_angle_alpha   70.23812646
_cell_angle_beta   70.23812646
_cell_angle_gamma   36.89849396
_symmetry_Int_Tables_number   1
_chemical_formula_structural   ZnBi6P2(O7F)2
_chemical_formula_sum   'Zn2 Bi12 P4 O28 F4'
_cell_volume   748.91475692
_cell_formula_units_Z   2
loop_
 _symmetry_equiv_pos_site_id
 _symmetry_equiv_pos_as_xyz
  1  'x, y, z'
loop_
 _atom_site_type_symbol
 _atom_site_label
 _atom_site_symmetry_multiplicity
 _atom_site_fract_x
 _atom_site_fract_y
 _atom_site_fract_z
 _atom_site_occupancy
  Zn  Zn0  1  0.00000000  0.00000000  0.50000000  1
  Zn  Zn1  1  0.00000000  0.00000000  0.00000000  1
  Bi  Bi0  1  0.82863400  0.77230800  0.66432900  1
  Bi  Bi1  1  0.22769200  0.17136600  0.83567100  1
  Bi  Bi2  1  0.17136600  0.22769200  0.33567100  1
  Bi  Bi3  1  0.77230800  0.82863400  0.16432900  1
  Bi  Bi4  1  0.54404900  0.57455700  0.82817400  1
  Bi  Bi5  1  0.42544300  0.45595100  0.67182600  1
  Bi  Bi6  1  0.45595100  0.42544300  0.17182600  1
  Bi  Bi7  1  0.57455700  0.54404900  0.32817400  1
  Bi  Bi8  1  0.87928700  0.89646100  0.82674800  1
  Bi  Bi9  1  0.10353900  0.12071300  0.67325200  1
  Bi  Bi10  1  0.12071300  0.10353900  0.17325200  1
  Bi  Bi11  1  0.89646100  0.87928700  0.32674800  1
  P  P0  1  0.34364900  0.35985700  0.50355800  1
  P  P1  1  0.64014300  0.65635100  0.99644200  1
  P  P2  1  0.65635100  0.64014300  0.49644200  1
  P  P3  1  0.35985700  0.34364900  0.00355800  1
  O  O0  1  0.27841900  0.72158100  0.75000000  1
  O  O1  1  0.72158100  0.27841900  0.25000000  1
  O  O2  1  0.77590100  0.22409900  0.75000000  1
  O  O3  1  0.22409900  0.77590100  0.25000000  1
  O  O4  1  0.59257600  0.07458000  0.75414800  1
  O  O5  1  0.92542000  0.40742400  0.74585200  1
  O  O6  1  0.40742400  0.92542000  0.24585200  1
  O  O7  1  0.07458000  0.59257600  0.25414800  1
  O  O8  1  0.09092400  0.57169000  0.75740400  1
  O  O9  1  0.42831000  0.90907600  0.74259600  1
  O  O10  1  0.90907600  0.42831000  0.24259600  1
  O  O11  1  0.57169000  0.09092400  0.25740400  1
  O  O12  1  0.05144900  0.82903900  0.60966100  1
  O  O13  1  0.17096100  0.94855100  0.89033900  1
  O  O14  1  0.94855100  0.17096100  0.39033900  1
  O  O15  1  0.82903900  0.05144900  0.10966100  1
  O  O16  1  0.22203700  0.60143200  0.44429100  1
  O  O17  1  0.39856800  0.77796300  0.05570900  1
  O  O18  1  0.77796300  0.39856800  0.55570900  1
  O  O19  1  0.60143200  0.22203700  0.94429100  1
  O  O20  1  0.17837100  0.39148800  0.58430700  1
  O  O21  1  0.60851200  0.82162900  0.91569300  1
  O  O22  1  0.82162900  0.60851200  0.41569300  1
  O  O23  1  0.39148800  0.17837100  0.08430700  1
  O  O24  1  0.60803500  0.18050600  0.52127800  1
  O  O25  1  0.81949400  0.39196500  0.97872200  1
  O  O26  1  0.39196500  0.81949400  0.47872200  1
  O  O27  1  0.18050600  0.60803500  0.02127800  1
  F  F0  1  0.38050900  0.21507000  0.44628500  1
  F  F1  1  0.78493000  0.61949100  0.05371500  1
  F  F2  1  0.61949100  0.78493000  0.55371500  1
  F  F3  1  0.21507000  0.38050900  0.94628500  1
loop_
_geom_bond_atom_site_label_1
_geom_bond_atom_site_label_2
_geom_bond_distance
_geom_bond_site_symmetry_2
Bi0 O8 2.237673 1_655
Bi0 O12 2.257916 1_655
Bi0 O4 2.345544 1_565
Bi0 O20 2.524938 1_655
Bi0 O5 2.548312 1_555
Bi0 O9 2.626325 1_555
Bi1 O9 2.237673 1_545
Bi1 O13 2.257916 1_545
Bi1 O5 2.345544 1_455
Bi1 O21 2.524938 1_545
Bi1 O4 2.548312 1_555
Bi1 O8 2.626325 1_555
Bi2 O10 2.237673 1_455
Bi2 O14 2.257916 1_455
Bi2 O6 2.345544 1_545
Bi2 O22 2.524938 1_455
Bi2 O7 2.548312 1_555
Bi2 O11 2.626325 1_555
Bi3 O11 2.237673 1_565
Bi3 O15 2.257916 1_565
Bi3 O7 2.345544 1_655
Bi3 O23 2.524938 1_565
Bi3 O6 2.548312 1_555
Bi3 O10 2.626325 1_555
Bi4 O0 2.242018 1_555
Bi4 O9 2.281472 1_555
Bi4 O13 2.352870 1_555
Bi4 O5 2.408351 1_555
Bi4 O2 2.523613 1_555
Bi4 O19 2.810520 1_555
Bi5 O0 2.242018 1_555
Bi5 O8 2.281472 1_555
Bi5 O12 2.352870 1_555
Bi5 O4 2.408351 1_555
Bi5 O2 2.523613 1_555
Bi5 O18 2.810520 1_555
Bi6 O1 2.242018 1_555
Bi6 O11 2.281472 1_555
Bi6 O15 2.352870 1_555
Bi6 O7 2.408351 1_555
Bi6 O3 2.523613 1_555
Bi6 O17 2.810520 1_555
Bi7 O1 2.242018 1_555
Bi7 O10 2.281472 1_555
Bi7 O14 2.352870 1_555
Bi7 O6 2.408351 1_555
Bi7 O3 2.523613 1_555
Bi7 O16 2.810520 1_555
Bi8 O4 2.202213 1_565
Bi8 O2 2.234122 1_565
Bi8 O8 2.314475 1_655
Bi8 O0 2.476648 1_655
Bi8 O19 2.744778 1_565
Bi8 O21 2.821378 1_555
Bi9 O5 2.202213 1_455
Bi9 O2 2.234122 1_455
Bi9 O9 2.314475 1_545
Bi9 O0 2.476648 1_545
Bi9 O18 2.744778 1_455
Bi9 O20 2.821378 1_555
Bi10 O6 2.202213 1_545
Bi10 O3 2.234122 1_545
Bi10 O10 2.314475 1_455
Bi10 O1 2.476648 1_455
Bi10 O17 2.744778 1_545
Bi10 O23 2.821378 1_555
Bi11 O7 2.202213 1_655
Bi11 O3 2.234122 1_655
Bi11 O11 2.314475 1_565
Bi11 O1 2.476648 1_565
Bi11 O16 2.744778 1_655
Bi11 O22 2.821378 1_555
O12 Zn0 1.867336 1_565
O13 Zn1 1.867336 1_566
O14 Zn0 1.867336 1_655
O15 Zn1 1.867336 1_655
O16 P0 1.532883 1_555
O17 P1 1.532883 1_554
O18 P2 1.532883 1_555
O19 P3 1.532883 1_556
O20 P0 1.528036 1_555
O21 P1 1.528036 1_555
O22 P2 1.528036 1_555
O23 P3 1.528036 1_555
O24 P0 1.524269 1_555
O24 Zn0 2.339147 1_655
O25 P1 1.524269 1_555
O25 Zn1 2.339147 1_656
O26 P2 1.524269 1_555
O26 Zn0 2.339147 1_565
O27 P3 1.524269 1_555
O27 Zn1 2.339147 1_565
F0 P0 1.627421 1_555
F1 P1 1.627421 1_554
F2 P2 1.627421 1_555
F3 P3 1.627421 1_556
