# generated using pymatgen
data_KAgTeS3
_symmetry_space_group_name_H-M   'P 1'
_cell_length_a   16.48008000
_cell_length_b   6.38252400
_cell_length_c   8.65934361
_cell_angle_alpha   48.27878305
_cell_angle_beta   90.00000000
_cell_angle_gamma   90.00000000
_symmetry_Int_Tables_number   1
_chemical_formula_structural   KAgTeS3
_chemical_formula_sum   'K4 Ag4 Te4 S12'
_cell_volume   679.83512659
_cell_formula_units_Z   4
loop_
 _symmetry_equiv_pos_site_id
 _symmetry_equiv_pos_as_xyz
  1  'x, y, z'
loop_
 _atom_site_type_symbol
 _atom_site_label
 _atom_site_symmetry_multiplicity
 _atom_site_fract_x
 _atom_site_fract_y
 _atom_site_fract_z
 _atom_site_occupancy
  K  K0  1  0.60291000  0.75444700  0.22545600  1
  K  K1  1  0.39709000  0.24555300  0.77454400  1
  K  K2  1  0.10291000  0.24555300  0.27454400  1
  K  K3  1  0.89709000  0.75444700  0.72545600  1
  Ag  Ag0  1  0.75748000  0.27651900  0.20561400  1
  Ag  Ag1  1  0.24252000  0.72348100  0.79438600  1
  Ag  Ag2  1  0.25748000  0.72348100  0.29438600  1
  Ag  Ag3  1  0.74252000  0.27651900  0.70561400  1
  Te  Te0  1  0.91117700  0.75756600  0.22771900  1
  Te  Te1  1  0.08882300  0.24243400  0.77228100  1
  Te  Te2  1  0.41117700  0.24243400  0.27228100  1
  Te  Te3  1  0.58882300  0.75756600  0.72771900  1
  S  S0  1  0.78640800  0.78302500  0.07694700  1
  S  S1  1  0.21359200  0.21697500  0.92305300  1
  S  S2  1  0.28640800  0.21697500  0.42305300  1
  S  S3  1  0.71359200  0.78302500  0.57694700  1
  S  S4  1  0.61087300  0.36964900  0.08705000  1
  S  S5  1  0.38912700  0.63035100  0.91295000  1
  S  S6  1  0.11087300  0.63035100  0.41295000  1
  S  S7  1  0.88912700  0.36964900  0.58705000  1
  S  S8  1  0.40346200  0.84910600  0.29327800  1
  S  S9  1  0.59653800  0.15089400  0.70672200  1
  S  S10  1  0.90346200  0.15089400  0.20672200  1
  S  S11  1  0.09653800  0.84910600  0.79327800  1
loop_
_geom_bond_atom_site_label_1
_geom_bond_atom_site_label_2
_geom_bond_distance
_geom_bond_site_symmetry_2
K0 S0 3.243421 1_555
K0 S4 3.256937 1_565
K0 S9 3.293963 1_555
K0 S4 3.376882 1_555
K0 S9 3.385624 1_564
K0 S8 3.462086 1_555
K0 S3 3.655592 1_555
K1 S1 3.243421 1_555
K1 S5 3.256937 1_545
K1 S8 3.293963 1_555
K1 S5 3.376882 1_555
K1 S8 3.385624 1_546
K1 S9 3.462086 1_555
K1 S2 3.655592 1_555
K2 S2 3.243421 1_555
K2 S6 3.256937 1_545
K2 S11 3.293963 1_554
K2 S6 3.376882 1_555
K2 S11 3.385624 1_545
K2 S10 3.462086 1_455
K2 S1 3.655592 1_554
K3 S3 3.243421 1_555
K3 S7 3.256937 1_565
K3 S10 3.293963 1_556
K3 S7 3.376882 1_555
K3 S10 3.385624 1_565
K3 S11 3.462086 1_655
K3 S0 3.655592 1_556
Ag0 S10 2.533889 1_555
Ag0 S4 2.536266 1_555
Ag0 S0 2.669347 1_555
Ag0 S3 2.702395 1_545
Ag1 S11 2.533889 1_555
Ag1 S5 2.536266 1_555
Ag1 S1 2.669347 1_555
Ag1 S2 2.702395 1_565
Ag2 S8 2.533889 1_555
Ag2 S6 2.536266 1_555
Ag2 S2 2.669347 1_555
Ag2 S1 2.702395 1_564
Ag3 S9 2.533889 1_555
Ag3 S7 2.536266 1_555
Ag3 S3 2.669347 1_555
Ag3 S0 2.702395 1_546
S0 Te0 2.382553 1_555
S1 Te1 2.382553 1_555
S2 Te2 2.382553 1_555
S3 Te3 2.382553 1_555
S4 Te3 2.385361 1_554
S5 Te2 2.385361 1_556
S6 Te1 2.385361 1_555
S7 Te0 2.385361 1_555
S8 Te2 2.396648 1_565
S9 Te3 2.396648 1_545
S10 Te0 2.396648 1_545
S11 Te1 2.396648 1_565
