# generated using pymatgen
data_Mn5H4(SO5)3
_symmetry_space_group_name_H-M   'P 1'
_cell_length_a   7.75853783
_cell_length_b   8.30977200
_cell_length_c   10.81071915
_cell_angle_alpha   90.00000000
_cell_angle_beta   101.69799733
_cell_angle_gamma   90.00000000
_symmetry_Int_Tables_number   1
_chemical_formula_structural   Mn5H4(SO5)3
_chemical_formula_sum   'Mn10 H8 S6 O30'
_cell_volume   682.50877613
_cell_formula_units_Z   2
loop_
 _symmetry_equiv_pos_site_id
 _symmetry_equiv_pos_as_xyz
  1  'x, y, z'
loop_
 _atom_site_type_symbol
 _atom_site_label
 _atom_site_symmetry_multiplicity
 _atom_site_fract_x
 _atom_site_fract_y
 _atom_site_fract_z
 _atom_site_occupancy
  Mn  Mn0  1  0.56383300  0.54325700  0.36066000  1
  Mn  Mn1  1  0.43616700  0.04325700  0.63934000  1
  Mn  Mn2  1  0.43616700  0.45674200  0.63934000  1
  Mn  Mn3  1  0.56383300  0.95674300  0.36066000  1
  Mn  Mn4  1  0.19059600  0.45294800  0.10998700  1
  Mn  Mn5  1  0.80940400  0.95294800  0.89001300  1
  Mn  Mn6  1  0.80940400  0.54705200  0.89001300  1
  Mn  Mn7  1  0.19059600  0.04705200  0.10998700  1
  Mn  Mn8  1  0.55716700  0.75000000  0.11106500  1
  Mn  Mn9  1  0.44283300  0.25000000  0.88893500  1
  H  H0  1  0.53421000  0.42790600  0.13813600  1
  H  H1  1  0.46579000  0.92790600  0.86186400  1
  H  H2  1  0.46579000  0.57209400  0.86186400  1
  H  H3  1  0.53421000  0.07209400  0.13813600  1
  H  H4  1  0.12222800  0.25000000  0.92048700  1
  H  H5  1  0.87777200  0.75000000  0.07951300  1
  H  H6  1  0.82685300  0.75000000  0.32757900  1
  H  H7  1  0.17314700  0.25000000  0.67242100  1
  S  S0  1  0.26209800  0.25000000  0.38995300  1
  S  S1  1  0.73790200  0.75000000  0.61004700  1
  S  S2  1  0.82778000  0.25000000  0.11859800  1
  S  S3  1  0.17222000  0.75000000  0.88140200  1
  S  S4  1  0.17934700  0.75000000  0.32445600  1
  S  S5  1  0.82065300  0.25000000  0.67554400  1
  O  O0  1  0.24073400  0.25000000  0.24434300  1
  O  O1  1  0.75926600  0.75000000  0.75565700  1
  O  O2  1  0.38205600  0.39859600  0.43308500  1
  O  O3  1  0.61794400  0.89859600  0.56691500  1
  O  O4  1  0.61794400  0.60140400  0.56691500  1
  O  O5  1  0.38205600  0.10140400  0.43308500  1
  O  O6  1  0.89563700  0.39747100  0.05353300  1
  O  O7  1  0.10436300  0.89747100  0.94646700  1
  O  O8  1  0.10436300  0.60252900  0.94646700  1
  O  O9  1  0.89563700  0.10252900  0.05353300  1
  O  O10  1  0.62639000  0.25000000  0.06928600  1
  O  O11  1  0.37361000  0.75000000  0.93071400  1
  O  O12  1  0.38692200  0.75000000  0.33761800  1
  O  O13  1  0.61307800  0.25000000  0.66238200  1
  O  O14  1  0.11594500  0.60259500  0.24530300  1
  O  O15  1  0.88405500  0.10259500  0.75469700  1
  O  O16  1  0.88405500  0.39740500  0.75469700  1
  O  O17  1  0.11594500  0.89740500  0.24530300  1
  O  O18  1  0.46595600  0.51896600  0.16228300  1
  O  O19  1  0.53404400  0.01896600  0.83771700  1
  O  O20  1  0.53404400  0.48103400  0.83771700  1
  O  O21  1  0.46595600  0.98103400  0.16228300  1
  O  O22  1  0.22929000  0.25000000  0.98653700  1
  O  O23  1  0.77071000  0.75000000  0.01346300  1
  O  O24  1  0.69842500  0.75000000  0.30900300  1
  O  O25  1  0.30157500  0.25000000  0.69099700  1
  O  O26  1  0.73518000  0.40792300  0.36657100  1
  O  O27  1  0.26482000  0.90792300  0.63342900  1
  O  O28  1  0.26482000  0.59207700  0.63342900  1
  O  O29  1  0.73518000  0.09207700  0.36657100  1
loop_
_geom_bond_atom_site_label_1
_geom_bond_atom_site_label_2
_geom_bond_distance
_geom_bond_site_symmetry_2
Mn0 O26 1.732529 1_555
Mn0 O2 2.120110 1_555
Mn0 O18 2.134552 1_555
Mn0 O24 2.142487 1_555
Mn0 O12 2.181476 1_555
Mn0 O4 2.236510 1_555
Mn1 O27 1.732529 1_545
Mn1 O3 2.120110 1_545
Mn1 O19 2.134552 1_555
Mn1 O25 2.142487 1_555
Mn1 O13 2.181476 1_555
Mn1 O5 2.236510 1_555
Mn2 O28 1.732535 1_555
Mn2 O4 2.120115 1_555
Mn2 O20 2.134553 1_555
Mn2 O25 2.142480 1_555
Mn2 O13 2.181469 1_555
Mn2 O2 2.236508 1_555
Mn3 O29 1.732529 1_565
Mn3 O5 2.120110 1_565
Mn3 O21 2.134552 1_555
Mn3 O24 2.142487 1_555
Mn3 O12 2.181476 1_555
Mn3 O3 2.236510 1_555
Mn4 O14 2.089346 1_555
Mn4 O8 2.153610 1_554
Mn4 O18 2.166788 1_555
Mn4 O0 2.208174 1_555
Mn4 O22 2.208580 1_554
Mn4 O6 2.292520 1_455
Mn5 O15 2.089346 1_565
Mn5 O9 2.153610 1_566
Mn5 O19 2.166788 1_565
Mn5 O1 2.208174 1_555
Mn5 O23 2.208580 1_556
Mn5 O7 2.292520 1_655
Mn6 O16 2.089346 1_555
Mn6 O6 2.153610 1_556
Mn6 O20 2.166788 1_555
Mn6 O1 2.208174 1_555
Mn6 O23 2.208580 1_556
Mn6 O8 2.292520 1_655
Mn7 O17 2.089346 1_545
Mn7 O7 2.153610 1_544
Mn7 O21 2.166788 1_545
Mn7 O0 2.208174 1_555
Mn7 O22 2.208580 1_554
Mn7 O9 2.292520 1_455
Mn8 O23 2.137088 1_555
Mn8 O21 2.156862 1_555
Mn8 O18 2.156862 1_555
Mn8 O11 2.168784 1_554
Mn8 O24 2.197521 1_555
Mn9 O22 2.137088 1_555
Mn9 O20 2.156862 1_555
Mn9 O19 2.156862 1_555
Mn9 O10 2.168784 1_556
Mn9 O25 2.197521 1_555
H0 O18 0.988535 1_555
H1 O19 0.988535 1_565
H2 O20 0.988535 1_555
H3 O21 0.988535 1_545
H4 O22 0.979449 1_555
H5 O23 0.979449 1_555
H6 O24 0.975719 1_555
H7 O25 0.975719 1_555
O0 S0 1.549069 1_555
O1 S1 1.549069 1_555
O2 S0 1.559607 1_555
O3 S1 1.559607 1_555
O4 S1 1.559607 1_555
O5 S0 1.559607 1_555
O6 S2 1.556868 1_555
O7 S3 1.556868 1_555
O8 S3 1.556868 1_555
O9 S2 1.556868 1_555
O10 S2 1.545252 1_555
O11 S3 1.545252 1_555
O12 S4 1.587754 1_555
O13 S5 1.587754 1_555
O14 S4 1.517858 1_555
O15 S5 1.517858 1_555
O16 S5 1.517858 1_555
O17 S4 1.517858 1_555
