# generated using pymatgen
data_Tm4Ge6Os7
_symmetry_space_group_name_H-M   'P 1'
_cell_length_a   7.16753236
_cell_length_b   7.16753354
_cell_length_c   7.16753354
_cell_angle_alpha   109.47123395
_cell_angle_beta   109.47121731
_cell_angle_gamma   109.47121731
_symmetry_Int_Tables_number   1
_chemical_formula_structural   Tm4Ge6Os7
_chemical_formula_sum   'Tm4 Ge6 Os7'
_cell_volume   283.45701163
_cell_formula_units_Z   1
loop_
 _symmetry_equiv_pos_site_id
 _symmetry_equiv_pos_as_xyz
  1  'x, y, z'
loop_
 _atom_site_type_symbol
 _atom_site_label
 _atom_site_symmetry_multiplicity
 _atom_site_fract_x
 _atom_site_fract_y
 _atom_site_fract_z
 _atom_site_occupancy
  Tm  Tm0  1  0.00000000  -0.00000000  0.50000000  1
  Tm  Tm1  1  0.00000000  0.50000000  -0.00000000  1
  Tm  Tm2  1  0.50000000  -0.00000000  -0.00000000  1
  Tm  Tm3  1  0.50000000  0.50000000  0.50000000  1
  Ge  Ge0  1  0.68921399  0.68921399  0.00000000  1
  Ge  Ge1  1  0.31078601  -0.00000000  0.31078601  1
  Ge  Ge2  1  -0.00000000  0.31078601  0.31078601  1
  Ge  Ge3  1  0.31078601  0.31078601  -0.00000000  1
  Ge  Ge4  1  0.68921399  0.00000000  0.68921399  1
  Ge  Ge5  1  0.00000000  0.68921399  0.68921399  1
  Os  Os0  1  0.75000000  0.25000000  0.50000000  1
  Os  Os1  1  0.75000000  0.50000000  0.25000000  1
  Os  Os2  1  0.50000000  0.25000000  0.75000000  1
  Os  Os3  1  0.25000000  0.50000000  0.75000000  1
  Os  Os4  1  0.25000000  0.75000000  0.50000000  1
  Os  Os5  1  0.50000000  0.75000000  0.25000000  1
  Os  Os6  1  0.00000000  -0.00000000  -0.00000000  1
loop_
_geom_bond_atom_site_label_1
_geom_bond_atom_site_label_2
_geom_bond_distance
_geom_bond_site_symmetry_2
Ge0 Os6 2.572175 1_665
Ge0 Os3 2.594897 1_554
Ge0 Os5 2.594897 1_555
Ge0 Os2 2.594897 1_554
Ge0 Os1 2.594897 1_555
Ge0 Tm1 2.969066 1_655
Ge0 Tm0 2.969066 1_665
Ge0 Tm3 2.969066 1_554
Ge0 Tm2 2.969066 1_565
Ge1 Os6 2.572175 1_555
Ge1 Os0 2.594897 1_555
Ge1 Os5 2.594897 1_545
Ge1 Os2 2.594897 1_555
Ge1 Os4 2.594897 1_545
Ge1 Tm0 2.969066 1_555
Ge1 Tm1 2.969066 1_545
Ge1 Tm2 2.969066 1_555
Ge1 Tm3 2.969066 1_555
Ge2 Os6 2.572175 1_555
Ge2 Os1 2.594897 1_455
Ge2 Os3 2.594897 1_555
Ge2 Os4 2.594897 1_555
Ge2 Os0 2.594897 1_455
Ge2 Tm2 2.969065 1_455
Ge2 Tm3 2.969065 1_555
Ge2 Tm1 2.969066 1_555
Ge2 Tm0 2.969066 1_555
Ge3 Os6 2.572175 1_555
Ge3 Os1 2.594897 1_555
Ge3 Os5 2.594897 1_555
Ge3 Os2 2.594897 1_554
Ge3 Os3 2.594897 1_554
Ge3 Tm1 2.969066 1_555
Ge3 Tm0 2.969066 1_554
Ge3 Tm2 2.969066 1_555
Ge3 Tm3 2.969066 1_555
Ge4 Os6 2.572175 1_656
Ge4 Os4 2.594897 1_545
Ge4 Os2 2.594897 1_555
Ge4 Os5 2.594897 1_545
Ge4 Os0 2.594897 1_555
Ge4 Tm1 2.969066 1_656
Ge4 Tm0 2.969066 1_655
Ge4 Tm3 2.969066 1_545
Ge4 Tm2 2.969066 1_556
Ge5 Os6 2.572175 1_566
Ge5 Os1 2.594897 1_455
Ge5 Os3 2.594897 1_555
Ge5 Os4 2.594897 1_555
Ge5 Os0 2.594897 1_455
Ge5 Tm3 2.969065 1_455
Ge5 Tm2 2.969065 1_566
Ge5 Tm0 2.969066 1_565
Ge5 Tm1 2.969066 1_556
Os0 Tm2 2.926133 1_555
Os0 Tm0 2.926133 1_655
Os0 Tm3 2.926133 1_555
Os0 Tm1 2.926133 1_656
Os1 Tm2 2.926133 1_555
Os1 Tm0 2.926133 1_665
Os1 Tm3 2.926133 1_555
Os1 Tm1 2.926133 1_655
Os2 Tm1 2.926133 1_656
Os2 Tm0 2.926133 1_555
Os2 Tm3 2.926134 1_555
Os2 Tm2 2.926134 1_556
Os3 Tm0 2.926133 1_555
Os3 Tm2 2.926133 1_566
Os3 Tm1 2.926133 1_556
Os3 Tm3 2.926133 1_555
Os4 Tm0 2.926133 1_565
Os4 Tm2 2.926133 1_566
Os4 Tm3 2.926133 1_555
Os4 Tm1 2.926133 1_555
Os5 Tm1 2.926133 1_555
Os5 Tm0 2.926133 1_665
Os5 Tm3 2.926134 1_555
Os5 Tm2 2.926134 1_565
