# generated using pymatgen
data_SrCaDySbO6
_symmetry_space_group_name_H-M   'P 1'
_cell_length_a   5.90812160
_cell_length_b   5.90812160
_cell_length_c   5.90812160
_cell_angle_alpha   60.00000000
_cell_angle_beta   60.00000000
_cell_angle_gamma   60.00000000
_symmetry_Int_Tables_number   1
_chemical_formula_structural   SrCaDySbO6
_chemical_formula_sum   'Sr1 Ca1 Dy1 Sb1 O6'
_cell_volume   145.82543442
_cell_formula_units_Z   1
loop_
 _symmetry_equiv_pos_site_id
 _symmetry_equiv_pos_as_xyz
  1  'x, y, z'
loop_
 _atom_site_type_symbol
 _atom_site_label
 _atom_site_symmetry_multiplicity
 _atom_site_fract_x
 _atom_site_fract_y
 _atom_site_fract_z
 _atom_site_occupancy
  Sr  Sr0  1  0.75000000  0.75000000  0.75000000  1
  Ca  Ca0  1  0.25000000  0.25000000  0.25000000  1
  Dy  Dy0  1  0.00000000  0.00000000  0.00000000  1
  Sb  Sb0  1  0.50000000  0.50000000  0.50000000  1
  O  O0  1  0.73762239  0.26237761  0.26237761  1
  O  O1  1  0.26237761  0.73762239  0.73762239  1
  O  O2  1  0.73762239  0.26237761  0.73762239  1
  O  O3  1  0.26237761  0.73762239  0.26237761  1
  O  O4  1  0.73762239  0.73762239  0.26237761  1
  O  O5  1  0.26237761  0.26237761  0.73762239  1
loop_
_geom_bond_atom_site_label_1
_geom_bond_atom_site_label_2
_geom_bond_distance
_geom_bond_site_symmetry_2
Ca0 O5 2.955871 1_555
Ca0 O2 2.955871 1_455
Ca0 O4 2.955871 1_545
Ca0 O1 2.955871 1_545
Ca0 O0 2.955871 1_455
Ca0 O0 2.955871 1_555
Ca0 O3 2.955871 1_555
Ca0 O4 2.955871 1_455
Ca0 O1 2.955871 1_554
Ca0 O3 2.955871 1_545
Ca0 O2 2.955871 1_554
Ca0 O5 2.955871 1_554
Dy0 O0 2.192256 1_455
Dy0 O3 2.192256 1_545
Dy0 O5 2.192256 1_554
Dy0 O2 2.192256 1_454
Dy0 O4 2.192256 1_445
Dy0 O1 2.192256 1_544
O0 Sb0 1.985417 1_555
O0 Sr0 2.955871 1_545
O0 Sr0 2.955871 1_554
O1 Sb0 1.985417 1_555
O1 Sr0 2.955871 1_455
O1 Sr0 2.955871 1_555
O2 Sb0 1.985417 1_555
O2 Sr0 2.955871 1_545
O2 Sr0 2.955871 1_555
O3 Sb0 1.985417 1_555
O3 Sr0 2.955871 1_455
O3 Sr0 2.955871 1_554
O4 Sb0 1.985417 1_555
O4 Sr0 2.955871 1_554
O4 Sr0 2.955871 1_555
O5 Sb0 1.985417 1_555
O5 Sr0 2.955871 1_545
O5 Sr0 2.955871 1_455
