# generated using pymatgen
data_Li5V3P8O29
_symmetry_space_group_name_H-M   'P 1'
_cell_length_a   9.77777600
_cell_length_b   9.78119461
_cell_length_c   14.12854129
_cell_angle_alpha   89.26408444
_cell_angle_beta   89.61599061
_cell_angle_gamma   60.15227710
_symmetry_Int_Tables_number   1
_chemical_formula_structural   Li5V3P8O29
_chemical_formula_sum   'Li10 V6 P16 O58'
_cell_volume   1171.89431279
_cell_formula_units_Z   2
loop_
 _symmetry_equiv_pos_site_id
 _symmetry_equiv_pos_as_xyz
  1  'x, y, z'
loop_
 _atom_site_type_symbol
 _atom_site_label
 _atom_site_symmetry_multiplicity
 _atom_site_fract_x
 _atom_site_fract_y
 _atom_site_fract_z
 _atom_site_occupancy
  Li  Li0  1  0.89652300  0.76579500  0.44398600  1
  Li  Li1  1  0.32726600  0.90870100  0.43715600  1
  Li  Li2  1  0.33238000  0.76542700  0.94140600  1
  Li  Li3  1  0.90049600  0.33442400  0.93913200  1
  Li  Li4  1  0.23323200  0.66884400  0.55925300  1
  Li  Li5  1  0.76053400  0.34019600  0.43984400  1
  Li  Li6  1  0.68280400  0.22883300  0.06027000  1
  Li  Li7  1  0.32909900  0.32449600  0.89376000  1
  Li  Li8  1  0.00970500  0.94001400  0.00615900  1
  Li  Li9  1  0.97742700  0.04572300  0.50313200  1
  V  V0  1  0.43342400  0.56858300  0.75041600  1
  V  V1  1  0.56551000  0.43329700  0.24954100  1
  V  V2  1  0.99868900  0.56654400  0.24529600  1
  V  V3  1  0.00035400  0.43447000  0.74806100  1
  V  V4  1  0.56411300  0.99901000  0.74966600  1
  V  V5  1  0.43768100  0.00037000  0.25094800  1
  P  P0  1  0.77949700  0.91774100  0.15805000  1
  P  P1  1  0.91543400  0.77658000  0.65987000  1
  P  P2  1  0.30997700  0.91755300  0.65289000  1
  P  P3  1  0.66691000  0.66537900  0.86959300  1
  P  P4  1  0.67111300  0.66296300  0.36956500  1
  P  P5  1  0.31517000  0.77569100  0.15999500  1
  P  P6  1  0.22433300  0.68327000  0.34050500  1
  P  P7  1  0.91416200  0.31456400  0.15326900  1
  P  P8  1  0.08869400  0.68912500  0.84369100  1
  P  P9  1  0.77522900  0.31426900  0.65889300  1
  P  P10  1  0.68342900  0.22384800  0.84017100  1
  P  P11  1  0.33232400  0.33537500  0.63119000  1
  P  P12  1  0.33335200  0.33336000  0.13187200  1
  P  P13  1  0.69520600  0.08175900  0.34327700  1
  P  P14  1  0.08330400  0.22229500  0.33697700  1
  P  P15  1  0.21796500  0.08578000  0.83763800  1
  O  O0  1  0.79548700  0.99630500  0.42720800  1
  O  O1  1  0.74952100  0.91498100  0.66481200  1
  O  O2  1  0.00109200  0.78705500  0.92563700  1
  O  O3  1  0.91895000  0.74420500  0.16644200  1
  O  O4  1  0.62229400  0.92173100  0.16652400  1
  O  O5  1  0.66054600  0.81456800  0.82323900  1
  O  O6  1  0.46691800  0.91360700  0.66524300  1
  O  O7  1  0.20686000  0.98870700  0.91649700  1
  O  O8  1  0.34961600  0.91197700  0.17166600  1
  O  O9  1  0.81313100  0.67350800  0.32089800  1
  O  O10  1  0.91505700  0.61831100  0.67821100  1
  O  O11  1  0.51455100  0.80999300  0.33548600  1
  O  O12  1  0.67216400  0.65497200  0.97476100  1
  O  O13  1  0.69211400  0.65645600  0.47471500  1
  O  O14  1  0.51431200  0.66773100  0.83194700  1
  O  O15  1  0.90950300  0.47395000  0.17228900  1
  O  O16  1  0.81612500  0.51676200  0.82681100  1
  O  O17  1  0.33507500  0.74653400  0.66612100  1
  O  O18  1  0.20184300  0.79234500  0.24806300  1
  O  O19  1  0.22147100  0.77156200  0.42826300  1
  O  O20  1  0.23375000  0.78632600  0.06867400  1
  O  O21  1  0.47104800  0.61752100  0.17450500  1
  O  O22  1  0.67637500  0.51057000  0.33159100  1
  O  O23  1  0.26194000  0.65637200  0.84275100  1
  O  O24  1  0.62028500  0.46826200  0.67074500  1
  O  O25  1  0.91719400  0.34411600  0.67075100  1
  O  O26  1  0.01605400  0.78671600  0.74569100  1
  O  O27  1  0.00023600  0.76876700  0.56857100  1
  O  O28  1  0.98714100  0.21126000  0.41667500  1
  O  O29  1  0.07808900  0.65977400  0.33919500  1
  O  O30  1  0.37643800  0.52656200  0.32789000  1
  O  O31  1  0.74583800  0.33745000  0.16192500  1
  O  O32  1  0.32545600  0.48916600  0.66709400  1
  O  O33  1  0.51988800  0.37690700  0.82502800  1
  O  O34  1  0.76416900  0.23611300  0.92774600  1
  O  O35  1  0.79382100  0.23007300  0.56806100  1
  O  O36  1  0.79278100  0.20335800  0.74882900  1
  O  O37  1  0.65702100  0.25668600  0.33923300  1
  O  O38  1  0.18624000  0.48232700  0.17801900  1
  O  O39  1  0.09521100  0.52718100  0.83314300  1
  O  O40  1  0.48824200  0.32914100  0.16558400  1
  O  O41  1  0.32595200  0.34261900  0.02587400  1
  O  O42  1  0.31939300  0.33454700  0.52684400  1
  O  O43  1  0.47566300  0.19006500  0.67895700  1
  O  O44  1  0.07699400  0.38323400  0.32653300  1
  O  O45  1  0.18423500  0.33683600  0.68303700  1
  O  O46  1  0.65566000  0.08448900  0.84111000  1
  O  O47  1  0.79907600  0.00326600  0.24998100  1
  O  O48  1  0.80315600  0.00002100  0.07443100  1
  O  O49  1  0.54086500  0.07649400  0.33154800  1
  O  O50  1  0.32906000  0.19180700  0.17710500  1
  O  O51  1  0.36943600  0.09863600  0.83259000  1
  O  O52  1  0.07626000  0.25932600  0.84064800  1
  O  O53  1  0.98610600  0.24355500  0.06058500  1
  O  O54  1  0.01308300  0.19858200  0.23854800  1
  O  O55  1  0.25494700  0.08409400  0.34092100  1
  O  O56  1  0.22445500  0.98269200  0.56110700  1
  O  O57  1  0.19531200  0.01863700  0.73833100  1
loop_
_geom_bond_atom_site_label_1
_geom_bond_atom_site_label_2
_geom_bond_distance
_geom_bond_site_symmetry_2
Li0 O0 1.971784 1_555
Li0 O27 2.045021 1_655
Li0 O29 2.142616 1_655
Li0 O9 2.301297 1_555
Li1 O56 1.971287 1_555
Li1 O55 2.009297 1_565
Li1 O19 2.066984 1_555
Li1 O11 2.142297 1_555
Li2 O7 1.928153 1_555
Li2 O20 1.998748 1_556
Li2 O23 2.082636 1_555
Li2 O14 2.185927 1_555
Li3 O53 1.916944 1_556
Li3 O34 2.002524 1_555
Li3 O52 2.041277 1_655
Li3 O16 2.204551 1_555
Li4 O27 1.986358 1_555
Li4 O19 2.070706 1_555
Li4 O32 2.143698 1_555
Li4 O17 2.156775 1_555
Li5 O28 1.956130 1_555
Li5 O35 2.038767 1_555
Li5 O22 2.092817 1_555
Li5 O37 2.141090 1_555
Li6 O48 1.950338 1_555
Li6 O34 2.043715 1_554
Li6 O31 2.067410 1_555
Li6 O40 2.222003 1_555
Li7 O41 1.875842 1_556
Li7 O51 2.227134 1_555
Li7 O39 2.315912 1_555
Li7 O33 2.366584 1_555
Li8 O2 1.926178 1_554
Li8 O48 2.040141 1_465
Li8 O20 2.133723 1_555
Li8 O7 2.532479 1_554
Li9 O35 2.028317 1_555
Li9 O28 2.055110 1_555
Li9 O56 2.327313 1_645
Li9 O0 2.333212 1_545
O0 P13 1.496855 1_565
O1 P1 1.511327 1_555
O1 V4 1.977968 1_555
O2 P8 1.479918 1_555
O3 P0 1.564491 1_555
O3 V2 1.866041 1_555
O4 P0 1.521993 1_555
O4 V5 1.971151 1_565
O5 P3 1.564544 1_555
O5 V4 1.869752 1_555
O6 P2 1.526829 1_555
O6 V4 1.963333 1_555
O7 P15 1.492818 1_565
O8 P5 1.539779 1_555
O8 V5 1.876843 1_565
O9 P4 1.593623 1_555
O9 V2 1.908044 1_555
O10 P1 1.568125 1_555
O10 V3 1.837287 1_655
O11 P4 1.563389 1_555
O11 V5 2.005178 1_565
O12 P3 1.487530 1_555
O13 P4 1.497305 1_555
O14 P3 1.576659 1_555
O14 V0 1.922837 1_555
O15 P7 1.563531 1_555
O15 V2 1.861954 1_555
O16 P3 1.583278 1_555
O16 V3 1.919261 1_655
O17 P2 1.573944 1_555
O17 V0 1.915399 1_555
O18 P5 1.615443 1_555
O18 P6 1.620785 1_555
O19 P6 1.512253 1_555
O20 P5 1.495726 1_555
O21 P5 1.551593 1_555
O21 V1 1.879193 1_555
O22 P4 1.567220 1_555
O22 V1 1.986228 1_555
O23 P8 1.559467 1_555
O23 V0 1.953701 1_555
O24 P9 1.524358 1_555
O24 V0 1.945349 1_555
O25 P9 1.564568 1_555
O25 V3 1.840458 1_655
O26 P1 1.601299 1_455
O26 P8 1.623923 1_555
O27 P1 1.510758 1_455
O28 P14 1.499119 1_655
O29 P6 1.557392 1_555
O29 V2 1.985922 1_455
O30 P6 1.525598 1_555
O30 V1 1.948091 1_555
O31 P7 1.550844 1_555
O31 V1 1.968586 1_555
O32 P11 1.563082 1_555
O32 V0 1.990012 1_555
O33 P10 1.567648 1_555
O33 V0 1.929872 1_555
O34 P10 1.509882 1_555
O35 P9 1.494383 1_555
O36 P9 1.613417 1_555
O36 P10 1.619786 1_555
O37 P13 1.559507 1_555
O37 V1 1.952177 1_555
O38 P12 1.594623 1_555
O38 V2 1.854209 1_455
O39 P8 1.562309 1_555
O39 V3 2.001929 1_555
O40 P12 1.571359 1_555
O40 V1 1.955743 1_555
O41 P12 1.499227 1_555
O42 P11 1.480983 1_555
O43 P11 1.563675 1_555
O43 V4 1.895546 1_545
O44 P14 1.549545 1_555
O44 V2 1.926351 1_455
O45 P11 1.612109 1_555
O45 V3 1.811050 1_555
O46 P10 1.516517 1_555
O46 V4 1.989393 1_545
O47 P13 1.609444 1_555
O47 P0 1.616820 1_545
O48 P0 1.501394 1_545
O49 P13 1.545465 1_555
O49 V5 1.911549 1_555
O50 P12 1.536856 1_555
O50 V5 1.925557 1_555
O51 P15 1.548593 1_555
O51 V4 2.024509 1_545
O52 P15 1.569387 1_555
O52 V3 1.971457 1_555
O53 P7 1.488857 1_555
O54 P7 1.600780 1_455
O54 P14 1.624425 1_555
O55 P14 1.545363 1_555
O55 V5 2.004696 1_555
O56 P2 1.499923 1_555
O57 P2 1.612736 1_545
O57 P15 1.619130 1_555
