# generated using pymatgen
data_K6CoS4
_symmetry_space_group_name_H-M   'P 1'
_cell_length_a   9.80833811
_cell_length_b   9.80833811
_cell_length_c   7.71733100
_cell_angle_alpha   90.00000000
_cell_angle_beta   90.00000000
_cell_angle_gamma   120.00000072
_symmetry_Int_Tables_number   1
_chemical_formula_structural   K6CoS4
_chemical_formula_sum   'K12 Co2 S8'
_cell_volume   642.96689499
_cell_formula_units_Z   2
loop_
 _symmetry_equiv_pos_site_id
 _symmetry_equiv_pos_as_xyz
  1  'x, y, z'
loop_
 _atom_site_type_symbol
 _atom_site_label
 _atom_site_symmetry_multiplicity
 _atom_site_fract_x
 _atom_site_fract_y
 _atom_site_fract_z
 _atom_site_occupancy
  K  K0  1  0.52934500  0.05868900  0.36640700  1
  K  K1  1  0.47065500  0.52934500  0.86640700  1
  K  K2  1  0.94131100  0.47065500  0.36640700  1
  K  K3  1  0.52934500  0.47065500  0.36640700  1
  K  K4  1  0.14661800  0.85338200  0.54243500  1
  K  K5  1  0.29323500  0.14661800  0.04243500  1
  K  K6  1  0.05868900  0.52934500  0.86640700  1
  K  K7  1  0.85338200  0.70676500  0.04243500  1
  K  K8  1  0.85338200  0.14661800  0.04243500  1
  K  K9  1  0.70676500  0.85338200  0.54243500  1
  K  K10  1  0.14661800  0.29323500  0.54243500  1
  K  K11  1  0.47065500  0.94131100  0.86640700  1
  Co  Co0  1  0.66666700  0.33333300  0.75269400  1
  Co  Co1  1  0.33333300  0.66666700  0.25269400  1
  S  S0  1  0.79961600  0.20038400  0.65611000  1
  S  S1  1  0.59923300  0.79961600  0.15611000  1
  S  S2  1  0.20038400  0.40076700  0.15611000  1
  S  S3  1  0.79961600  0.59923300  0.65611000  1
  S  S4  1  0.40076700  0.20038400  0.65611000  1
  S  S5  1  0.20038400  0.79961600  0.15611000  1
  S  S6  1  0.66666700  0.33333300  0.05955000  1
  S  S7  1  0.33333300  0.66666700  0.55955000  1
loop_
_geom_bond_atom_site_label_1
_geom_bond_atom_site_label_2
_geom_bond_distance
_geom_bond_site_symmetry_2
K0 S0 3.205173 1_555
K0 S4 3.205185 1_555
K0 S6 3.324214 1_555
K0 S5 3.361953 1_545
K0 S1 3.361954 1_545
K1 S1 3.205173 1_556
K1 S2 3.205173 1_556
K1 S7 3.324215 1_555
K1 S3 3.361953 1_555
K1 S4 3.361953 1_555
K2 S0 3.205173 1_555
K2 S3 3.205185 1_555
K2 S6 3.324214 1_555
K2 S5 3.361953 1_655
K2 S2 3.361954 1_655
K3 S3 3.205173 1_555
K3 S4 3.205173 1_555
K3 S6 3.324215 1_555
K3 S1 3.361953 1_555
K3 S2 3.361953 1_555
K4 S5 3.118180 1_555
K4 S7 3.174764 1_555
K4 S4 3.175412 1_565
K4 S3 3.175412 1_455
K5 S4 3.118180 1_554
K5 S6 3.174781 1_555
K5 S2 3.175399 1_555
K5 S5 3.175417 1_545
K6 S5 3.205173 1_556
K6 S2 3.205185 1_556
K6 S7 3.324214 1_555
K6 S0 3.361953 1_455
K6 S3 3.361954 1_455
K7 S3 3.118180 1_554
K7 S6 3.174781 1_555
K7 S1 3.175399 1_555
K7 S5 3.175417 1_655
K8 S0 3.118180 1_554
K8 S6 3.174764 1_555
K8 S2 3.175412 1_655
K8 S1 3.175412 1_545
K9 S1 3.118180 1_555
K9 S7 3.174781 1_555
K9 S3 3.175399 1_555
K9 S0 3.175417 1_565
K10 S2 3.118180 1_555
K10 S7 3.174781 1_555
K10 S4 3.175399 1_555
K10 S0 3.175417 1_455
K11 S5 3.205173 1_556
K11 S1 3.205185 1_556
K11 S7 3.324214 1_555
K11 S0 3.361953 1_565
K11 S4 3.361954 1_565
Co0 S6 2.368109 1_556
Co0 S0 2.378423 1_555
Co0 S4 2.378439 1_555
Co0 S3 2.378439 1_555
Co1 S7 2.368109 1_555
Co1 S5 2.378423 1_555
Co1 S2 2.378439 1_555
Co1 S1 2.378439 1_555
