# generated using pymatgen
data_Ho3GaS6
_symmetry_space_group_name_H-M   'P 1'
_cell_length_a   8.47305192
_cell_length_b   8.47305192
_cell_length_c   6.41691965
_cell_angle_alpha   90.00000000
_cell_angle_beta   90.00000000
_cell_angle_gamma   102.39817191
_symmetry_Int_Tables_number   1
_chemical_formula_structural   Ho3GaS6
_chemical_formula_sum   'Ho6 Ga2 S12'
_cell_volume   449.94377094
_cell_formula_units_Z   2
loop_
 _symmetry_equiv_pos_site_id
 _symmetry_equiv_pos_as_xyz
  1  'x, y, z'
loop_
 _atom_site_type_symbol
 _atom_site_label
 _atom_site_symmetry_multiplicity
 _atom_site_fract_x
 _atom_site_fract_y
 _atom_site_fract_z
 _atom_site_occupancy
  Ho  Ho0  1  0.28449006  0.08570374  0.22635992  1
  Ho  Ho1  1  0.91429626  0.71550994  0.22635992  1
  Ho  Ho2  1  0.71550994  0.91429626  0.72635992  1
  Ho  Ho3  1  0.08570374  0.28449006  0.72635992  1
  Ho  Ho4  1  0.40216425  0.59783575  0.13675177  1
  Ho  Ho5  1  0.59783575  0.40216425  0.63675177  1
  Ga  Ga0  1  0.20108105  0.79891895  0.76235168  1
  Ga  Ga1  1  0.79891895  0.20108105  0.26235168  1
  S  S0  1  0.56668823  0.10192978  0.44170219  1
  S  S1  1  0.89807022  0.43331177  0.44170219  1
  S  S2  1  0.43331177  0.89807022  0.94170219  1
  S  S3  1  0.10192978  0.56668823  0.94170219  1
  S  S4  1  0.63188426  0.69329632  0.43053997  1
  S  S5  1  0.30670368  0.36811574  0.43053997  1
  S  S6  1  0.36811574  0.30670368  0.93053997  1
  S  S7  1  0.69329732  0.63188426  0.93053997  1
  S  S8  1  0.21710275  0.78289725  0.41126910  1
  S  S9  1  0.78289725  0.21710275  0.91126910  1
  S  S10  1  0.95934885  0.04065115  0.40742429  1
  S  S11  1  0.04065115  0.95934885  0.90742429  1
loop_
_geom_bond_atom_site_label_1
_geom_bond_atom_site_label_2
_geom_bond_distance
_geom_bond_site_symmetry_2
Ho0 S6 2.653696 1_554
Ho0 S5 2.699000 1_555
Ho0 S0 2.739428 1_555
Ho0 S8 2.772659 1_545
Ho0 S2 2.883578 1_544
Ho0 S10 2.938328 1_455
Ho0 S11 2.941682 1_544
Ho1 S7 2.653690 1_554
Ho1 S4 2.699000 1_555
Ho1 S1 2.739428 1_555
Ho1 S8 2.772659 1_655
Ho1 S3 2.883578 1_654
Ho1 S10 2.938328 1_565
Ho1 S11 2.941682 1_654
Ho2 S4 2.653696 1_555
Ho2 S7 2.699001 1_555
Ho2 S2 2.739428 1_555
Ho2 S9 2.772659 1_565
Ho2 S0 2.883578 1_565
Ho2 S11 2.938328 1_655
Ho2 S10 2.941682 1_565
Ho3 S5 2.653696 1_555
Ho3 S6 2.699000 1_555
Ho3 S3 2.739428 1_555
Ho3 S9 2.772659 1_455
Ho3 S1 2.883578 1_455
Ho3 S11 2.938328 1_545
Ho3 S10 2.941682 1_455
Ho4 S4 2.705699 1_555
Ho4 S5 2.705699 1_555
Ho4 S6 2.759276 1_554
Ho4 S7 2.759284 1_554
Ho4 S2 2.796309 1_554
Ho4 S3 2.796309 1_554
Ho4 S8 3.012698 1_555
Ho5 S6 2.705699 1_555
Ho5 S7 2.705701 1_555
Ho5 S4 2.759276 1_555
Ho5 S5 2.759276 1_555
Ho5 S1 2.796309 1_555
Ho5 S0 2.796309 1_555
Ho5 S9 3.012698 1_555
Ga0 S8 2.262783 1_555
Ga0 S3 2.278665 1_555
Ga0 S2 2.278665 1_555
Ga0 S11 2.314222 1_555
Ga1 S9 2.262783 1_554
Ga1 S0 2.278665 1_555
Ga1 S1 2.278665 1_555
Ga1 S10 2.314222 1_555
