# generated using pymatgen
data_TmGa3Ru
_symmetry_space_group_name_H-M   'P 1'
_cell_length_a   6.33372150
_cell_length_b   6.33372150
_cell_length_c   6.33372150
_cell_angle_alpha   90.00000000
_cell_angle_beta   90.00000000
_cell_angle_gamma   90.00000000
_symmetry_Int_Tables_number   1
_chemical_formula_structural   TmGa3Ru
_chemical_formula_sum   'Tm3 Ga9 Ru3'
_cell_volume   254.08374929
_cell_formula_units_Z   3
loop_
 _symmetry_equiv_pos_site_id
 _symmetry_equiv_pos_as_xyz
  1  'x, y, z'
loop_
 _atom_site_type_symbol
 _atom_site_label
 _atom_site_symmetry_multiplicity
 _atom_site_fract_x
 _atom_site_fract_y
 _atom_site_fract_z
 _atom_site_occupancy
  Tm  Tm0  1  0.00000000  0.50000000  0.50000000  1
  Tm  Tm1  1  0.50000000  0.50000000  0.00000000  1
  Tm  Tm2  1  0.50000000  -0.00000000  0.50000000  1
  Ga  Ga0  1  0.50000000  0.50000000  0.50000000  1
  Ga  Ga1  1  0.21097386  0.21097386  0.21097386  1
  Ga  Ga2  1  0.21097386  0.78902614  0.21097386  1
  Ga  Ga3  1  0.21097386  0.21097386  0.78902614  1
  Ga  Ga4  1  0.78902614  0.21097386  0.21097386  1
  Ga  Ga5  1  0.78902614  0.78902614  0.21097386  1
  Ga  Ga6  1  0.21097386  0.78902614  0.78902614  1
  Ga  Ga7  1  0.78902614  0.21097386  0.78902614  1
  Ga  Ga8  1  0.78902614  0.78902614  0.78902614  1
  Ru  Ru0  1  0.50000000  -0.00000000  0.00000000  1
  Ru  Ru1  1  0.00000000  -0.00000000  0.50000000  1
  Ru  Ru2  1  0.00000000  0.50000000  0.00000000  1
loop_
_geom_bond_atom_site_label_1
_geom_bond_atom_site_label_2
_geom_bond_distance
_geom_bond_site_symmetry_2
Ga0 Tm1 3.166861 1_556
Ga0 Tm1 3.166861 1_555
Ga0 Tm2 3.166861 1_555
Ga0 Tm2 3.166861 1_565
Ga0 Tm0 3.166861 1_555
Ga0 Tm0 3.166861 1_655
Ga0 Ga1 3.170711 1_555
Ga0 Ga4 3.170711 1_555
Ga0 Ga5 3.170711 1_555
Ga0 Ga3 3.170711 1_555
Ga0 Ga2 3.170711 1_555
Ga0 Ga6 3.170711 1_555
Ga0 Ga7 3.170711 1_555
Ga0 Ga8 3.170711 1_555
Ga1 Ru1 2.631019 1_555
Ga1 Ru2 2.631019 1_555
Ga1 Ru0 2.631019 1_555
Ga1 Ga3 2.672499 1_554
Ga1 Ga2 2.672499 1_545
Ga1 Ga4 2.672499 1_455
Ga1 Tm2 2.913389 1_555
Ga1 Tm1 2.913389 1_555
Ga1 Tm0 2.913389 1_555
Ga2 Ru0 2.631019 1_565
Ga2 Ru1 2.631019 1_565
Ga2 Ru2 2.631019 1_555
Ga2 Ga6 2.672499 1_554
Ga2 Ga5 2.672499 1_455
Ga2 Tm2 2.913389 1_565
Ga2 Tm1 2.913389 1_555
Ga2 Tm0 2.913389 1_555
Ga3 Ru0 2.631019 1_556
Ga3 Ru2 2.631019 1_556
Ga3 Ru1 2.631019 1_555
Ga3 Ga7 2.672499 1_455
Ga3 Ga6 2.672499 1_545
Ga3 Tm1 2.913389 1_556
Ga3 Tm0 2.913389 1_555
Ga3 Tm2 2.913389 1_555
Ga4 Ru1 2.631019 1_655
Ga4 Ru2 2.631019 1_655
Ga4 Ru0 2.631019 1_555
Ga4 Ga7 2.672499 1_554
Ga4 Ga5 2.672499 1_545
Ga4 Tm0 2.913389 1_655
Ga4 Tm1 2.913389 1_555
Ga4 Tm2 2.913389 1_555
Ga5 Ru1 2.631019 1_665
Ga5 Ru2 2.631019 1_655
Ga5 Ru0 2.631019 1_565
Ga5 Ga8 2.672499 1_554
Ga5 Tm0 2.913389 1_655
Ga5 Tm2 2.913389 1_565
Ga5 Tm1 2.913389 1_555
Ga6 Ru0 2.631019 1_566
Ga6 Ru2 2.631019 1_556
Ga6 Ru1 2.631019 1_565
Ga6 Ga8 2.672499 1_455
Ga6 Tm2 2.913389 1_565
Ga6 Tm1 2.913389 1_556
Ga6 Tm0 2.913389 1_555
Ga7 Ru2 2.631019 1_656
Ga7 Ru1 2.631019 1_655
Ga7 Ru0 2.631019 1_556
Ga7 Ga8 2.672499 1_545
Ga7 Tm0 2.913389 1_655
Ga7 Tm1 2.913389 1_556
Ga7 Tm2 2.913389 1_555
Ga8 Ru0 2.631019 1_566
Ga8 Ru1 2.631019 1_665
Ga8 Ru2 2.631019 1_656
Ga8 Tm2 2.913389 1_565
Ga8 Tm0 2.913389 1_655
Ga8 Tm1 2.913389 1_556
Ru0 Tm1 3.166861 1_555
Ru0 Tm1 3.166861 1_545
Ru0 Tm2 3.166861 1_554
Ru0 Tm2 3.166861 1_555
Ru1 Tm0 3.166861 1_545
Ru1 Tm2 3.166861 1_455
Ru1 Tm2 3.166861 1_555
Ru1 Tm0 3.166861 1_555
Ru2 Tm1 3.166861 1_455
Ru2 Tm1 3.166861 1_555
Ru2 Tm0 3.166861 1_555
Ru2 Tm0 3.166861 1_554
