# generated using pymatgen
data_Pr3GePO9
_symmetry_space_group_name_H-M   'P 1'
_cell_length_a   12.61508300
_cell_length_b   7.13440900
_cell_length_c   9.86479018
_cell_angle_alpha   64.07152277
_cell_angle_beta   90.00000000
_cell_angle_gamma   90.00000000
_symmetry_Int_Tables_number   1
_chemical_formula_structural   Pr3GePO9
_chemical_formula_sum   'Pr12 Ge4 P4 O36'
_cell_volume   798.47284630
_cell_formula_units_Z   4
loop_
 _symmetry_equiv_pos_site_id
 _symmetry_equiv_pos_as_xyz
  1  'x, y, z'
loop_
 _atom_site_type_symbol
 _atom_site_label
 _atom_site_symmetry_multiplicity
 _atom_site_fract_x
 _atom_site_fract_y
 _atom_site_fract_z
 _atom_site_occupancy
  Pr  Pr0  1  0.39028600  0.63542700  0.37518200  1
  Pr  Pr1  1  0.89028600  0.36457300  0.12481800  1
  Pr  Pr2  1  0.60971400  0.36457300  0.62481800  1
  Pr  Pr3  1  0.10971400  0.63542700  0.87518200  1
  Pr  Pr4  1  0.12900500  0.38793300  0.35588500  1
  Pr  Pr5  1  0.62900500  0.61206700  0.14411500  1
  Pr  Pr6  1  0.87099500  0.61206700  0.64411500  1
  Pr  Pr7  1  0.37099500  0.38793300  0.85588500  1
  Pr  Pr8  1  0.36656100  0.03838600  0.62933400  1
  Pr  Pr9  1  0.86656100  0.96161400  0.87066600  1
  Pr  Pr10  1  0.63343900  0.96161400  0.37066600  1
  Pr  Pr11  1  0.13343900  0.03838600  0.12933300  1
  Ge  Ge0  1  0.60257500  0.80444500  0.73547400  1
  Ge  Ge1  1  0.10257500  0.19555500  0.76452600  1
  Ge  Ge2  1  0.39742500  0.19555500  0.26452600  1
  Ge  Ge3  1  0.89742500  0.80444500  0.23547400  1
  P  P0  1  0.33662100  0.77873200  0.02286200  1
  P  P1  1  0.83662100  0.22126800  0.47713800  1
  P  P2  1  0.66337900  0.22126800  0.97713800  1
  P  P3  1  0.16337900  0.77873200  0.52286200  1
  O  O0  1  0.17436100  0.17662700  0.61943800  1
  O  O1  1  0.67436100  0.82337300  0.88056200  1
  O  O2  1  0.82563900  0.82337300  0.38056200  1
  O  O3  1  0.32563900  0.17662700  0.11943800  1
  O  O4  1  0.42501900  0.93784900  0.41155700  1
  O  O5  1  0.92501900  0.06215100  0.08844300  1
  O  O6  1  0.57498100  0.06215100  0.58844300  1
  O  O7  1  0.07498100  0.93784900  0.91155700  1
  O  O8  1  0.42152200  0.37105400  0.62350400  1
  O  O9  1  0.92152200  0.62894600  0.87649600  1
  O  O10  1  0.57847800  0.62894600  0.37649600  1
  O  O11  1  0.07847800  0.37105400  0.12350400  1
  O  O12  1  0.32602300  0.31261000  0.36599100  1
  O  O13  1  0.82602300  0.68739000  0.13400900  1
  O  O14  1  0.67397700  0.68739000  0.63400900  1
  O  O15  1  0.17397700  0.31261000  0.86599100  1
  O  O16  1  0.34342700  0.00143400  0.89210100  1
  O  O17  1  0.84342700  0.99856600  0.60789900  1
  O  O18  1  0.65657300  0.99856600  0.10789900  1
  O  O19  1  0.15657300  0.00143400  0.39210100  1
  O  O20  1  0.05564400  0.71321600  0.60664700  1
  O  O21  1  0.55564400  0.28678400  0.89335300  1
  O  O22  1  0.94435600  0.28678400  0.39335300  1
  O  O23  1  0.44435600  0.71321600  0.10664700  1
  O  O24  1  0.25655100  0.76081600  0.15011100  1
  O  O25  1  0.75655100  0.23918400  0.34988900  1
  O  O26  1  0.74344900  0.23918400  0.84988900  1
  O  O27  1  0.24344900  0.76081600  0.65011100  1
  O  O28  1  0.29619500  0.62848400  0.95901100  1
  O  O29  1  0.79619500  0.37151600  0.54098900  1
  O  O30  1  0.70380500  0.37151600  0.04098900  1
  O  O31  1  0.20380500  0.62848400  0.45901100  1
  O  O32  1  0.02884800  0.71022600  0.27286200  1
  O  O33  1  0.52884800  0.28977400  0.22713800  1
  O  O34  1  0.97115200  0.28977400  0.72713800  1
  O  O35  1  0.47115200  0.71022600  0.77286200  1
loop_
_geom_bond_atom_site_label_1
_geom_bond_atom_site_label_2
_geom_bond_distance
_geom_bond_site_symmetry_2
Ge0 O1 1.748101 1_555
Ge0 O35 1.766280 1_555
Ge0 O14 1.800447 1_555
Ge0 O6 1.809212 1_565
Ge1 O0 1.748101 1_555
Ge1 O34 1.766280 1_455
Ge1 O15 1.800447 1_555
Ge1 O7 1.809212 1_545
Ge2 O3 1.748101 1_555
Ge2 O33 1.766280 1_555
Ge2 O12 1.800447 1_555
Ge2 O4 1.809212 1_545
Ge3 O2 1.748101 1_555
Ge3 O32 1.766280 1_655
Ge3 O13 1.800447 1_555
Ge3 O5 1.809212 1_565
O0 Pr4 2.435563 1_555
O0 Pr8 2.603235 1_555
O1 Pr5 2.435563 1_556
O1 Pr9 2.603235 1_555
O2 Pr6 2.435563 1_555
O2 Pr10 2.603235 1_555
O3 Pr7 2.435563 1_554
O3 Pr11 2.603236 1_555
O4 Pr0 2.377613 1_555
O4 Pr8 2.649746 1_565
O4 Pr10 2.654154 1_555
O5 Pr1 2.377613 1_555
O5 Pr9 2.649746 1_544
O5 Pr11 2.654153 1_655
O6 Pr2 2.377613 1_555
O6 Pr10 2.649746 1_545
O6 Pr8 2.654154 1_555
O7 Pr3 2.377613 1_555
O7 Pr11 2.649737 1_566
O7 Pr9 2.654154 1_455
O8 Pr2 2.374433 1_555
O8 Pr0 2.381818 1_555
O8 Pr7 2.432538 1_555
O8 Pr8 2.449007 1_555
O9 Pr3 2.374433 1_655
O9 Pr1 2.381818 1_556
O9 Pr6 2.432538 1_555
O9 Pr9 2.449007 1_555
O10 Pr0 2.374433 1_555
O10 Pr2 2.381818 1_555
O10 Pr5 2.432538 1_555
O10 Pr10 2.449007 1_555
O11 Pr1 2.374433 1_455
O11 Pr3 2.381818 1_554
O11 Pr4 2.432538 1_555
O11 Pr11 2.449011 1_555
O12 Pr0 2.480392 1_555
O12 Pr8 2.528482 1_555
O12 Pr4 2.535562 1_555
O13 Pr1 2.480392 1_555
O13 Pr9 2.528482 1_554
O13 Pr5 2.535562 1_555
O14 Pr2 2.480392 1_555
O14 Pr10 2.528482 1_555
O14 Pr6 2.535562 1_555
O15 Pr3 2.480392 1_555
O15 Pr11 2.528475 1_556
O15 Pr7 2.535562 1_555
O16 P0 1.550304 1_546
O16 Pr8 2.505247 1_555
O16 Pr7 2.643969 1_555
O17 P1 1.550304 1_565
O17 Pr9 2.505247 1_555
O17 Pr6 2.643969 1_555
O18 P2 1.550304 1_564
O18 Pr10 2.505247 1_555
O18 Pr5 2.643969 1_555
O19 P3 1.550304 1_545
O19 Pr11 2.505257 1_555
O19 Pr4 2.643969 1_555
O20 P3 1.552703 1_555
O20 Pr6 2.418688 1_455
O20 Pr3 2.550495 1_555
O21 P2 1.552703 1_555
O21 Pr7 2.418688 1_555
O21 Pr2 2.550495 1_555
O22 P1 1.552703 1_555
O22 Pr4 2.418688 1_655
O22 Pr1 2.550495 1_555
O23 P0 1.552703 1_555
O23 Pr5 2.418688 1_555
O23 Pr0 2.550495 1_555
O24 P0 1.572274 1_555
O24 Pr11 2.453702 1_565
O24 Pr0 2.615186 1_555
O24 Pr4 3.010681 1_555
O25 P1 1.572274 1_555
O25 Pr10 2.453704 1_545
O25 Pr1 2.615186 1_555
O25 Pr5 3.010681 1_555
O26 P2 1.572274 1_555
O26 Pr9 2.453704 1_545
O26 Pr2 2.615186 1_555
O26 Pr6 3.010681 1_555
O27 P3 1.572274 1_555
O27 Pr8 2.453704 1_565
O27 Pr3 2.615186 1_555
O27 Pr7 3.010681 1_555
O28 P0 1.548000 1_556
O28 Pr3 2.486889 1_555
O28 Pr7 2.529313 1_555
O29 P1 1.548000 1_555
O29 Pr2 2.486889 1_555
O29 Pr6 2.529313 1_555
O30 P2 1.548000 1_554
O30 Pr1 2.486889 1_555
O30 Pr5 2.529313 1_555
O31 P3 1.548000 1_555
O31 Pr0 2.486889 1_555
O31 Pr4 2.529313 1_555
O32 Pr4 2.430520 1_555
O32 Pr11 2.515567 1_565
O33 Pr5 2.430520 1_555
O33 Pr10 2.515565 1_545
O34 Pr6 2.430520 1_555
O34 Pr9 2.515565 1_545
O35 Pr7 2.430520 1_555
O35 Pr8 2.515565 1_565
