# generated using pymatgen
data_CaLaCrWO6
_symmetry_space_group_name_H-M   'P 1'
_cell_length_a   5.57817602
_cell_length_b   5.70745600
_cell_length_c   7.88699239
_cell_angle_alpha   90.00161050
_cell_angle_beta   89.21354985
_cell_angle_gamma   89.99709202
_symmetry_Int_Tables_number   1
_chemical_formula_structural   CaLaCrWO6
_chemical_formula_sum   'Ca2 La2 Cr2 W2 O12'
_cell_volume   251.07605372
_cell_formula_units_Z   2
loop_
 _symmetry_equiv_pos_site_id
 _symmetry_equiv_pos_as_xyz
  1  'x, y, z'
loop_
 _atom_site_type_symbol
 _atom_site_label
 _atom_site_symmetry_multiplicity
 _atom_site_fract_x
 _atom_site_fract_y
 _atom_site_fract_z
 _atom_site_occupancy
  Ca  Ca0  1  0.48466600  0.45070000  0.74827600  1
  Ca  Ca1  1  0.98464900  0.04937800  0.24828200  1
  La  La0  1  0.01341800  0.95704800  0.75257700  1
  La  La1  1  0.51351400  0.54296700  0.25256200  1
  Cr  Cr0  1  0.50022900  0.00031700  0.49951400  1
  Cr  Cr1  1  0.00025000  0.49968300  0.99945800  1
  W  W0  1  0.49992300  0.00052500  0.00059100  1
  W  W1  1  0.99996500  0.49946700  0.50053800  1
  O  O0  1  0.08726900  0.47208500  0.24760200  1
  O  O1  1  0.58706500  0.02778100  0.74757200  1
  O  O2  1  0.20012800  0.21623600  0.94887400  1
  O  O3  1  0.70012200  0.28374700  0.44889100  1
  O  O4  1  0.20889600  0.20944300  0.54526900  1
  O  O5  1  0.70892500  0.29055300  0.04525200  1
  O  O6  1  0.29599400  0.70601400  0.95257100  1
  O  O7  1  0.79594200  0.79402400  0.45257200  1
  O  O8  1  0.30407500  0.71248500  0.55249100  1
  O  O9  1  0.80418100  0.78755500  0.05245600  1
  O  O10  1  0.40538500  0.97644400  0.25232000  1
  O  O11  1  0.90540400  0.52354900  0.75233000  1
loop_
_geom_bond_atom_site_label_1
_geom_bond_atom_site_label_2
_geom_bond_distance
_geom_bond_site_symmetry_2
Ca0 O8 2.382078 1_555
Ca0 O11 2.384163 1_555
Ca0 O6 2.404250 1_555
Ca0 O1 2.480416 1_555
Ca0 O2 2.597010 1_555
Ca0 O4 2.625576 1_555
Ca0 O3 2.801743 1_555
Ca0 O5 2.822571 1_556
Ca1 O9 2.382139 1_545
Ca1 O10 2.384192 1_645
Ca1 O7 2.404565 1_545
Ca1 O0 2.479579 1_655
Ca1 O3 2.596617 1_555
Ca1 O5 2.625255 1_555
Ca1 O2 2.801851 1_654
Ca1 O4 2.822460 1_655
La0 O2 2.390452 1_565
La0 O1 2.413130 1_465
La0 O4 2.426690 1_565
La0 O11 2.546521 1_455
La0 O8 2.645149 1_555
La0 O6 2.663381 1_555
La0 O9 2.795790 1_456
La0 O7 2.831041 1_455
La1 O3 2.390465 1_555
La1 O0 2.412708 1_555
La1 O5 2.426481 1_555
La1 O10 2.546491 1_555
La1 O9 2.645485 1_555
La1 O7 2.663070 1_555
La1 O8 2.796541 1_555
La1 O6 2.831102 1_554
Cr0 O3 2.001888 1_555
Cr0 O8 2.014507 1_545
Cr0 O1 2.028011 1_555
Cr0 O10 2.031694 1_545
Cr0 O4 2.044384 1_555
Cr0 O7 2.056053 1_545
Cr1 O2 2.001752 1_555
Cr1 O9 2.014361 1_456
Cr1 O0 2.028989 1_556
Cr1 O11 2.031197 1_455
Cr1 O5 2.044521 1_456
Cr1 O6 2.056350 1_555
O0 W1 2.052934 1_455
O1 W0 2.053324 1_556
O2 W0 2.120683 1_556
O3 W1 2.120898 1_555
O4 W1 2.057641 1_455
O5 W0 2.057865 1_555
O6 W0 2.067584 1_566
O7 W1 2.067929 1_555
O8 W1 2.131434 1_455
O9 W0 2.131711 1_565
O10 W0 2.051834 1_565
O11 W1 2.052333 1_555
