# generated using pymatgen
data_Cu2N5Cl8
_symmetry_space_group_name_H-M   'P 1'
_cell_length_a   6.54049500
_cell_length_b   6.54049500
_cell_length_c   14.10169071
_cell_angle_alpha   103.40922972
_cell_angle_beta   103.40922972
_cell_angle_gamma   90.00000000
_symmetry_Int_Tables_number   1
_chemical_formula_structural   Cu2N5Cl8
_chemical_formula_sum   'Cu4 N10 Cl16'
_cell_volume   569.87821967
_cell_formula_units_Z   2
loop_
 _symmetry_equiv_pos_site_id
 _symmetry_equiv_pos_as_xyz
  1  'x, y, z'
loop_
 _atom_site_type_symbol
 _atom_site_label
 _atom_site_symmetry_multiplicity
 _atom_site_fract_x
 _atom_site_fract_y
 _atom_site_fract_z
 _atom_site_occupancy
  Cu  Cu0  1  0.50000000  0.50000000  0.00000000  1
  Cu  Cu1  1  0.00000000  0.00000000  0.00000000  1
  Cu  Cu2  1  0.25000000  0.75000000  0.50000000  1
  Cu  Cu3  1  0.75000000  0.25000000  0.50000000  1
  N  N0  1  0.67956800  0.57095900  0.75052600  1
  N  N1  1  0.07095900  0.17956800  0.75052600  1
  N  N2  1  0.57095900  0.07095900  0.75052600  1
  N  N3  1  0.17956800  0.67956800  0.75052600  1
  N  N4  1  0.32043200  0.42904100  0.24947400  1
  N  N5  1  0.92904100  0.82043200  0.24947400  1
  N  N6  1  0.42904100  0.92904100  0.24947400  1
  N  N7  1  0.82043200  0.32043200  0.24947400  1
  N  N8  1  0.25000000  0.25000000  0.50000000  1
  N  N9  1  0.75000000  0.75000000  0.50000000  1
  Cl  Cl0  1  0.38981900  0.38981900  0.77963800  1
  Cl  Cl1  1  0.88981900  0.88981900  0.77963800  1
  Cl  Cl2  1  0.61018100  0.61018100  0.22036200  1
  Cl  Cl3  1  0.11018100  0.11018100  0.22036200  1
  Cl  Cl4  1  0.38088500  0.49319900  0.37408500  1
  Cl  Cl5  1  0.99319900  0.88088500  0.37408500  1
  Cl  Cl6  1  0.49319900  0.99319900  0.37408500  1
  Cl  Cl7  1  0.88088500  0.38088500  0.37408500  1
  Cl  Cl8  1  0.61911500  0.50680100  0.62591500  1
  Cl  Cl9  1  0.00680100  0.11911500  0.62591500  1
  Cl  Cl10  1  0.50680100  0.00680100  0.62591500  1
  Cl  Cl11  1  0.11911500  0.61911500  0.62591500  1
  Cl  Cl12  1  0.24782900  0.25217100  0.00000000  1
  Cl  Cl13  1  0.75217100  0.74782900  0.00000000  1
  Cl  Cl14  1  0.25217100  0.75217100  0.00000000  1
  Cl  Cl15  1  0.74782900  0.24782900  0.00000000  1
loop_
_geom_bond_atom_site_label_1
_geom_bond_atom_site_label_2
_geom_bond_distance
_geom_bond_site_symmetry_2
Cl0 N1 2.397905 1_555
Cl0 N2 2.397908 1_555
Cl0 N3 2.397910 1_555
Cl0 N0 2.397914 1_555
Cl0 Cu0 2.935604 1_556
Cl1 N0 2.397905 1_555
Cl1 N2 2.397908 1_565
Cl1 N3 2.397910 1_655
Cl1 N1 2.397914 1_665
Cl1 Cu1 2.935604 1_666
Cl2 N5 2.397905 1_555
Cl2 N6 2.397908 1_555
Cl2 N7 2.397910 1_555
Cl2 N4 2.397914 1_555
Cl2 Cu0 2.935604 1_555
Cl3 N4 2.397905 1_555
Cl3 N6 2.397908 1_545
Cl3 N7 2.397910 1_455
Cl3 N5 2.397914 1_445
Cl3 Cu1 2.935604 1_555
Cl4 N4 1.660123 1_555
Cl4 Cu2 2.455295 1_555
Cl5 N5 1.660123 1_555
Cl5 Cu2 2.455295 1_655
Cl6 N6 1.660123 1_555
Cl6 Cu3 2.455298 1_565
Cl7 N7 1.660123 1_555
Cl7 Cu3 2.455292 1_555
Cl8 N0 1.660123 1_555
Cl8 Cu3 2.455295 1_555
Cl9 N1 1.660123 1_555
Cl9 Cu3 2.455295 1_455
Cl10 N2 1.660123 1_555
Cl10 Cu2 2.455298 1_545
Cl11 N3 1.660123 1_555
Cl11 Cu2 2.455292 1_555
Cl12 Cu1 2.312501 1_555
Cl12 Cu0 2.312501 1_555
Cl13 Cu0 2.312501 1_555
Cl13 Cu1 2.312501 1_665
Cl14 Cu0 2.312501 1_555
Cl14 Cu1 2.312501 1_565
Cl15 Cu1 2.312501 1_655
Cl15 Cu0 2.312501 1_555
