# generated using pymatgen
data_Ba2AsSe4O3
_symmetry_space_group_name_H-M   'P 1'
_cell_length_a   6.44674995
_cell_length_b   6.44674995
_cell_length_c   6.79546601
_cell_angle_alpha   73.81162731
_cell_angle_beta   73.81162731
_cell_angle_gamma   87.24738795
_symmetry_Int_Tables_number   1
_chemical_formula_structural   Ba2AsSe4O3
_chemical_formula_sum   'Ba2 As1 Se4 O3'
_cell_volume   260.33638513
_cell_formula_units_Z   1
loop_
 _symmetry_equiv_pos_site_id
 _symmetry_equiv_pos_as_xyz
  1  'x, y, z'
loop_
 _atom_site_type_symbol
 _atom_site_label
 _atom_site_symmetry_multiplicity
 _atom_site_fract_x
 _atom_site_fract_y
 _atom_site_fract_z
 _atom_site_occupancy
  Ba  Ba0  1  0.25907800  0.78489600  0.02227700  1
  Ba  Ba1  1  0.78489600  0.25907800  0.02227700  1
  As  As0  1  0.69719500  0.69719500  0.55053900  1
  Se  Se0  1  0.72262700  0.72262700  0.18029500  1
  Se  Se1  1  0.65350400  0.07255200  0.57790200  1
  Se  Se2  1  0.07255200  0.65350400  0.57790200  1
  Se  Se3  1  0.28646100  0.28646100  0.56991200  1
  O  O0  1  0.10373600  0.10373600  0.78364100  1
  O  O1  1  0.33683700  0.18551400  0.09077700  1
  O  O2  1  0.18551400  0.33683700  0.09077700  1
loop_
_geom_bond_atom_site_label_1
_geom_bond_atom_site_label_2
_geom_bond_distance
_geom_bond_site_symmetry_2
Ba0 O0 2.589759 1_564
Ba0 O2 2.836180 1_555
Ba0 O1 2.839549 1_565
Ba0 Se0 3.331186 1_455
Ba0 Se0 3.417361 1_555
Ba0 Se1 3.474534 1_564
Ba0 Se2 3.493210 1_555
Ba0 Se2 3.851114 1_554
Ba1 O0 2.589759 1_654
Ba1 O1 2.836180 1_555
Ba1 O2 2.839549 1_655
Ba1 Se0 3.331186 1_545
Ba1 Se0 3.417361 1_555
Ba1 Se2 3.474534 1_654
Ba1 Se1 3.493210 1_555
Ba1 Se1 3.851114 1_554
As0 Se0 2.434437 1_555
As0 Se2 2.475020 1_655
As0 Se1 2.475020 1_565
Se1 Se3 2.687040 1_555
Se2 Se3 2.687040 1_555
O0 Se3 1.763530 1_555
O1 O2 1.346089 1_555
