# generated using pymatgen
data_CsAg5Se3
_symmetry_space_group_name_H-M   'P 1'
_cell_length_a   14.34091000
_cell_length_b   14.34091000
_cell_length_c   4.47240900
_cell_angle_alpha   90.00000000
_cell_angle_beta   90.00000000
_cell_angle_gamma   90.00000000
_symmetry_Int_Tables_number   1
_chemical_formula_structural   CsAg5Se3
_chemical_formula_sum   'Cs4 Ag20 Se12'
_cell_volume   919.80323637
_cell_formula_units_Z   4
loop_
 _symmetry_equiv_pos_site_id
 _symmetry_equiv_pos_as_xyz
  1  'x, y, z'
loop_
 _atom_site_type_symbol
 _atom_site_label
 _atom_site_symmetry_multiplicity
 _atom_site_fract_x
 _atom_site_fract_y
 _atom_site_fract_z
 _atom_site_occupancy
  Cs  Cs0  1  0.61474500  0.61474500  0.00000000  1
  Cs  Cs1  1  0.11474500  0.88525500  0.50000000  1
  Cs  Cs2  1  0.88525500  0.11474500  0.50000000  1
  Cs  Cs3  1  0.38525500  0.38525500  0.00000000  1
  Ag  Ag0  1  0.17470900  0.17470900  0.50000000  1
  Ag  Ag1  1  0.67470900  0.32529100  0.00000000  1
  Ag  Ag2  1  0.32529100  0.67470900  0.00000000  1
  Ag  Ag3  1  0.82529100  0.82529100  0.50000000  1
  Ag  Ag4  1  0.48321000  0.10821200  0.00000000  1
  Ag  Ag5  1  0.60821200  0.01679000  0.50000000  1
  Ag  Ag6  1  0.39178800  0.98321000  0.50000000  1
  Ag  Ag7  1  0.51679000  0.89178800  0.00000000  1
  Ag  Ag8  1  0.01679000  0.60821200  0.50000000  1
  Ag  Ag9  1  0.98321000  0.39178800  0.50000000  1
  Ag  Ag10  1  0.10821200  0.48321000  0.00000000  1
  Ag  Ag11  1  0.89178800  0.51679000  0.00000000  1
  Ag  Ag12  1  0.28224100  0.07551800  0.00000000  1
  Ag  Ag13  1  0.57551800  0.21775900  0.50000000  1
  Ag  Ag14  1  0.42448200  0.78224100  0.50000000  1
  Ag  Ag15  1  0.71775900  0.92448200  0.00000000  1
  Ag  Ag16  1  0.21775900  0.57551800  0.50000000  1
  Ag  Ag17  1  0.78224100  0.42448200  0.50000000  1
  Ag  Ag18  1  0.07551800  0.28224100  0.00000000  1
  Ag  Ag19  1  0.92448200  0.71775900  0.00000000  1
  Se  Se0  1  0.89953000  0.89953000  0.00000000  1
  Se  Se1  1  0.39953000  0.60047000  0.50000000  1
  Se  Se2  1  0.60047000  0.39953000  0.50000000  1
  Se  Se3  1  0.10047000  0.10047000  0.00000000  1
  Se  Se4  1  0.38260100  0.16932000  0.50000000  1
  Se  Se5  1  0.66932000  0.11739900  0.00000000  1
  Se  Se6  1  0.33068000  0.88260100  0.00000000  1
  Se  Se7  1  0.61739900  0.83068000  0.50000000  1
  Se  Se8  1  0.11739900  0.66932000  0.00000000  1
  Se  Se9  1  0.88260100  0.33068000  0.00000000  1
  Se  Se10  1  0.16932000  0.38260100  0.50000000  1
  Se  Se11  1  0.83068000  0.61739900  0.50000000  1
loop_
_geom_bond_atom_site_label_1
_geom_bond_atom_site_label_2
_geom_bond_distance
_geom_bond_site_symmetry_2
Cs0 Se1 3.816838 1_555
Cs0 Se2 3.816838 1_554
Cs0 Se2 3.816838 1_555
Cs0 Se1 3.816838 1_554
Cs0 Se7 3.819900 1_554
Cs0 Se11 3.819900 1_554
Cs0 Se7 3.819900 1_555
Cs0 Se11 3.819900 1_555
Cs1 Se0 3.816838 1_456
Cs1 Se0 3.816838 1_455
Cs1 Se3 3.816838 1_565
Cs1 Se3 3.816838 1_566
Cs1 Se6 3.819900 1_555
Cs1 Se6 3.819900 1_556
Cs1 Se8 3.819900 1_556
Cs1 Se8 3.819900 1_555
Cs2 Se0 3.816838 1_545
Cs2 Se0 3.816838 1_546
Cs2 Se3 3.816838 1_656
Cs2 Se3 3.816838 1_655
Cs2 Se5 3.819900 1_556
Cs2 Se9 3.819900 1_555
Cs2 Se9 3.819900 1_556
Cs2 Se5 3.819900 1_555
Cs3 Se2 3.816838 1_555
Cs3 Se1 3.816838 1_554
Cs3 Se2 3.816838 1_554
Cs3 Se1 3.816838 1_555
Cs3 Se10 3.819900 1_554
Cs3 Se4 3.819900 1_555
Cs3 Se10 3.819900 1_555
Cs3 Se4 3.819900 1_554
Ag0 Se3 2.695847 1_556
Ag0 Se3 2.695847 1_555
Ag0 Se4 2.982362 1_555
Ag0 Se10 2.982362 1_555
Ag1 Se2 2.695847 1_554
Ag1 Se2 2.695847 1_555
Ag1 Se9 2.982362 1_555
Ag1 Se5 2.982362 1_555
Ag2 Se1 2.695847 1_555
Ag2 Se1 2.695847 1_554
Ag2 Se6 2.982362 1_555
Ag2 Se8 2.982362 1_555
Ag3 Se0 2.695847 1_556
Ag3 Se0 2.695847 1_555
Ag3 Se7 2.982362 1_555
Ag3 Se11 2.982362 1_555
Ag4 Se5 2.672237 1_555
Ag4 Se4 2.801845 1_554
Ag4 Se4 2.801845 1_555
Ag5 Se7 2.672237 1_545
Ag5 Se5 2.801845 1_555
Ag5 Se5 2.801845 1_556
Ag6 Se4 2.672237 1_565
Ag6 Se6 2.801845 1_556
Ag6 Se6 2.801845 1_555
Ag7 Se6 2.672237 1_555
Ag7 Se7 2.801845 1_555
Ag7 Se7 2.801845 1_554
Ag8 Se11 2.672237 1_455
Ag8 Se8 2.801845 1_555
Ag8 Se8 2.801845 1_556
Ag9 Se10 2.672237 1_655
Ag9 Se9 2.801845 1_556
Ag9 Se9 2.801845 1_555
Ag10 Se8 2.672237 1_555
Ag10 Se10 2.801845 1_555
Ag10 Se10 2.801845 1_554
Ag11 Se9 2.672237 1_555
Ag11 Se11 2.801845 1_555
Ag11 Se11 2.801845 1_554
Ag12 Se3 2.631207 1_555
Ag12 Se6 2.852483 1_545
Ag12 Se4 2.980208 1_555
Ag12 Se4 2.980208 1_554
Ag13 Se2 2.631207 1_555
Ag13 Se4 2.852483 1_555
Ag13 Se5 2.980208 1_556
Ag13 Se5 2.980208 1_555
Ag14 Se1 2.631207 1_555
Ag14 Se7 2.852483 1_555
Ag14 Se6 2.980208 1_555
Ag14 Se6 2.980208 1_556
Ag15 Se0 2.631207 1_555
Ag15 Se5 2.852483 1_565
Ag15 Se7 2.980208 1_554
Ag15 Se7 2.980208 1_555
Ag16 Se1 2.631207 1_555
Ag16 Se10 2.852483 1_555
Ag16 Se8 2.980208 1_555
Ag16 Se8 2.980208 1_556
Ag17 Se2 2.631207 1_555
Ag17 Se11 2.852483 1_555
Ag17 Se9 2.980208 1_556
Ag17 Se9 2.980208 1_555
Ag18 Se3 2.631207 1_555
Ag18 Se9 2.852483 1_455
Ag18 Se10 2.980208 1_554
Ag18 Se10 2.980208 1_555
Ag19 Se0 2.631207 1_555
Ag19 Se8 2.852483 1_655
Ag19 Se11 2.980208 1_554
Ag19 Se11 2.980208 1_555
