# generated using pymatgen
data_NaPr9Si6(SO12)2
_symmetry_space_group_name_H-M   'P 1'
_cell_length_a   9.96158777
_cell_length_b   9.96158777
_cell_length_c   6.96634100
_cell_angle_alpha   90.00000000
_cell_angle_beta   90.00000000
_cell_angle_gamma   119.99999845
_symmetry_Int_Tables_number   1
_chemical_formula_structural   NaPr9Si6(SO12)2
_chemical_formula_sum   'Na1 Pr9 Si6 S2 O24'
_cell_volume   598.67689698
_cell_formula_units_Z   1
loop_
 _symmetry_equiv_pos_site_id
 _symmetry_equiv_pos_as_xyz
  1  'x, y, z'
loop_
 _atom_site_type_symbol
 _atom_site_label
 _atom_site_symmetry_multiplicity
 _atom_site_fract_x
 _atom_site_fract_y
 _atom_site_fract_z
 _atom_site_occupancy
  Na  Na0  1  0.33333300  0.66666700  0.50735700  1
  Pr  Pr0  1  0.66857800  0.58238700  0.74875500  1
  Pr  Pr1  1  0.41761300  0.08619100  0.74875500  1
  Pr  Pr2  1  0.91380900  0.33142200  0.74875500  1
  Pr  Pr3  1  0.65556400  0.08206900  0.25259200  1
  Pr  Pr4  1  0.91793100  0.57349500  0.25259200  1
  Pr  Pr5  1  0.42650500  0.34443600  0.25259200  1
  Pr  Pr6  1  0.00000000  0.00000000  0.00228500  1
  Pr  Pr7  1  0.00000000  0.00000000  0.49791900  1
  Pr  Pr8  1  0.33333300  0.66666700  0.99538000  1
  Si  Si0  1  0.04287300  0.74179500  0.75236600  1
  Si  Si1  1  0.25820500  0.30107800  0.75236600  1
  Si  Si2  1  0.69892200  0.95712700  0.75236600  1
  Si  Si3  1  0.28637900  0.92173600  0.24935800  1
  Si  Si4  1  0.07826400  0.36464300  0.24935800  1
  Si  Si5  1  0.63535700  0.71362100  0.24935800  1
  S  S0  1  0.66666700  0.33333300  0.50868200  1
  S  S1  1  0.66666700  0.33333300  0.99828300  1
  O  O0  1  0.13921200  0.93520100  0.75000900  1
  O  O1  1  0.06479900  0.20401100  0.75000900  1
  O  O2  1  0.79598900  0.86078800  0.75000900  1
  O  O3  1  0.18948200  0.73171800  0.24339000  1
  O  O4  1  0.26828200  0.45776400  0.24339000  1
  O  O5  1  0.54223600  0.81051800  0.24339000  1
  O  O6  1  0.93009200  0.69702800  0.56057300  1
  O  O7  1  0.30297200  0.23306400  0.56057300  1
  O  O8  1  0.76693600  0.06990800  0.56057300  1
  O  O9  1  0.40168500  0.97302500  0.05974300  1
  O  O10  1  0.02697500  0.42866000  0.05974300  1
  O  O11  1  0.57134000  0.59831500  0.05974300  1
  O  O12  1  0.40660200  0.98993000  0.43087900  1
  O  O13  1  0.01007000  0.41667200  0.43087900  1
  O  O14  1  0.58332800  0.59339800  0.43087900  1
  O  O15  1  0.92600100  0.69782600  0.94041000  1
  O  O16  1  0.30217400  0.22817500  0.94041000  1
  O  O17  1  0.77182500  0.07399900  0.94041000  1
  O  O18  1  0.14945900  0.66246700  0.75891500  1
  O  O19  1  0.33753300  0.48699200  0.75891500  1
  O  O20  1  0.51300800  0.85054100  0.75891500  1
  O  O21  1  0.16955900  0.99407200  0.24971200  1
  O  O22  1  0.00592800  0.17548700  0.24971200  1
  O  O23  1  0.82451300  0.83044100  0.24971200  1
loop_
_geom_bond_atom_site_label_1
_geom_bond_atom_site_label_2
_geom_bond_distance
_geom_bond_site_symmetry_2
Na0 O18 2.520158 1_555
Na0 O20 2.520162 1_555
Na0 O19 2.520165 1_555
Na0 O3 2.604505 1_555
Na0 O5 2.604510 1_555
Na0 O4 2.604512 1_555
Pr0 S0 2.984189 1_555
Pr0 S1 3.021595 1_555
Pr1 S0 2.984185 1_555
Pr1 S1 3.021591 1_555
Pr2 S0 2.984181 1_555
Pr2 S1 3.021587 1_555
Pr3 S1 3.023065 1_554
Pr3 S0 3.030353 1_555
Pr4 S1 3.023069 1_554
Pr4 S0 3.030356 1_555
Pr5 S1 3.023073 1_554
Pr5 S0 3.030361 1_555
O0 Si0 1.668596 1_555
O0 Pr1 2.404648 1_565
O0 Pr7 2.513766 1_565
O0 Pr6 2.514671 1_566
O1 Si1 1.668596 1_555
O1 Pr2 2.404648 1_455
O1 Pr7 2.513766 1_555
O1 Pr6 2.514671 1_556
O2 Si2 1.668596 1_555
O2 Pr0 2.404648 1_555
O2 Pr7 2.513766 1_665
O2 Pr6 2.514671 1_666
O3 Si3 1.639918 1_555
O3 Pr4 2.354188 1_455
O3 Pr8 2.527247 1_554
O4 Si4 1.639918 1_555
O4 Pr5 2.354188 1_555
O4 Pr8 2.527254 1_554
O5 Si5 1.639918 1_555
O5 Pr3 2.354188 1_565
O5 Pr8 2.527252 1_554
O6 Si0 1.656867 1_655
O6 Pr4 2.446040 1_555
O6 Pr0 2.614235 1_555
O6 Pr7 2.771735 1_665
O7 Si1 1.656867 1_555
O7 Pr5 2.446040 1_555
O7 Pr1 2.614235 1_555
O7 Pr7 2.771735 1_555
O8 Si2 1.656867 1_545
O8 Pr3 2.446040 1_555
O8 Pr2 2.614235 1_555
O8 Pr7 2.771735 1_655
O9 Si3 1.654802 1_555
O9 Pr1 2.410527 1_564
O9 Pr3 2.575591 1_565
O9 Pr8 2.810739 1_554
O10 Si4 1.654802 1_555
O10 Pr2 2.410527 1_454
O10 Pr4 2.575591 1_455
O10 Pr8 2.810742 1_554
O11 Si5 1.654802 1_555
O11 Pr0 2.410527 1_554
O11 Pr5 2.575591 1_555
O11 Pr8 2.810748 1_554
O12 Si3 1.637450 1_555
O12 Pr1 2.393758 1_565
O12 Pr3 2.501878 1_565
O13 Si4 1.637450 1_555
O13 Pr2 2.393758 1_455
O13 Pr4 2.501878 1_455
O14 Si5 1.637450 1_555
O14 Pr0 2.393758 1_555
O14 Pr5 2.501878 1_555
O15 Si0 1.659334 1_655
O15 Pr4 2.484043 1_556
O15 Pr0 2.594600 1_555
O15 Pr6 2.751576 1_666
O16 Si1 1.659334 1_555
O16 Pr5 2.484043 1_556
O16 Pr1 2.594600 1_555
O16 Pr6 2.751576 1_556
O17 Si2 1.659334 1_545
O17 Pr3 2.484043 1_556
O17 Pr2 2.594600 1_555
O17 Pr6 2.751576 1_656
O18 Si0 1.610260 1_555
O18 Pr8 2.448212 1_555
O18 Pr2 2.940971 1_455
O19 Si1 1.610260 1_555
O19 Pr8 2.448219 1_555
O19 Pr0 2.940971 1_555
O20 Si2 1.610260 1_555
O20 Pr8 2.448215 1_555
O20 Pr1 2.940971 1_565
O21 Si3 1.646821 1_555
O21 Pr6 2.434588 1_565
O21 Pr7 2.438438 1_565
O21 Pr5 3.130469 1_565
O22 Si4 1.646821 1_555
O22 Pr6 2.434588 1_555
O22 Pr7 2.438438 1_555
O22 Pr3 3.130469 1_455
O23 Si5 1.646821 1_555
O23 Pr6 2.434588 1_665
O23 Pr7 2.438438 1_665
O23 Pr4 3.130469 1_555
