# generated using pymatgen
data_Eu3YMn4O12
_symmetry_space_group_name_H-M   'P 1'
_cell_length_a   7.71702500
_cell_length_b   5.42149300
_cell_length_c   5.63637568
_cell_angle_alpha   89.43228593
_cell_angle_beta   90.00000000
_cell_angle_gamma   90.00000000
_symmetry_Int_Tables_number   1
_chemical_formula_structural   Eu3YMn4O12
_chemical_formula_sum   'Eu3 Y1 Mn4 O12'
_cell_volume   235.80196594
_cell_formula_units_Z   1
loop_
 _symmetry_equiv_pos_site_id
 _symmetry_equiv_pos_as_xyz
  1  'x, y, z'
loop_
 _atom_site_type_symbol
 _atom_site_label
 _atom_site_symmetry_multiplicity
 _atom_site_fract_x
 _atom_site_fract_y
 _atom_site_fract_z
 _atom_site_occupancy
  Eu  Eu0  1  0.00000000  0.01170700  0.94789900  1
  Eu  Eu1  1  0.50000000  0.51033600  0.55046300  1
  Eu  Eu2  1  0.50000000  0.98664800  0.05423300  1
  Y  Y0  1  0.00000000  0.48600700  0.43561200  1
  Mn  Mn0  1  0.24804600  0.99861100  0.50058700  1
  Mn  Mn1  1  0.75087200  0.50121700  0.99781400  1
  Mn  Mn2  1  0.75195400  0.99861100  0.50058700  1
  Mn  Mn3  1  0.24912800  0.50121700  0.99781400  1
  O  O0  1  0.20176100  0.21031700  0.21049700  1
  O  O1  1  0.80071800  0.29711400  0.69431700  1
  O  O2  1  0.70959400  0.79967700  0.79765900  1
  O  O3  1  0.28740900  0.70623200  0.30043400  1
  O  O4  1  0.29040600  0.79967700  0.79765900  1
  O  O5  1  0.71259100  0.70623200  0.30043400  1
  O  O6  1  0.79823900  0.21031700  0.21049700  1
  O  O7  1  0.19928200  0.29711400  0.69431700  1
  O  O8  1  0.00000000  0.57971900  0.02994600  1
  O  O9  1  0.00000000  0.89959700  0.51966000  1
  O  O10  1  0.50000000  0.42070400  0.97911800  1
  O  O11  1  0.50000000  0.07894600  0.48045100  1
loop_
_geom_bond_atom_site_label_1
_geom_bond_atom_site_label_2
_geom_bond_distance
_geom_bond_site_symmetry_2
Eu0 O8 2.382741 1_546
Eu0 O0 2.409550 1_556
Eu0 O6 2.409550 1_456
Eu0 O9 2.494899 1_545
Eu0 O7 2.599671 1_555
Eu0 O1 2.599671 1_455
Eu0 O2 2.660858 1_445
Eu0 O4 2.660858 1_545
Eu1 O11 2.375688 1_555
Eu1 O5 2.403282 1_555
Eu1 O3 2.403282 1_555
Eu1 O10 2.459719 1_555
Eu1 O4 2.657326 1_555
Eu1 O2 2.657326 1_555
Eu1 O1 2.713033 1_555
Eu1 O7 2.713033 1_555
Eu2 O10 2.386881 1_564
Eu2 O2 2.400838 1_554
Eu2 O4 2.400838 1_554
Eu2 O11 2.458735 1_565
Eu2 O5 2.624225 1_555
Eu2 O3 2.624225 1_555
Eu2 O6 2.750334 1_565
Eu2 O0 2.750334 1_565
Mn0 O3 1.978142 1_555
Mn0 O9 1.990640 1_555
Mn0 O11 1.995503 1_565
Mn0 O7 1.996985 1_565
Mn0 O4 2.009458 1_555
Mn0 O0 2.020188 1_565
Mn1 O8 1.977769 1_656
Mn1 O10 1.987609 1_555
Mn1 O2 1.989035 1_555
Mn1 O6 2.005109 1_556
Mn1 O5 2.066298 1_556
Mn1 O1 2.082341 1_555
Mn2 O5 1.978142 1_555
Mn2 O9 1.990640 1_655
Mn2 O11 1.995503 1_565
Mn2 O1 1.996985 1_565
Mn2 O2 2.009458 1_555
Mn2 O6 2.020188 1_565
Mn3 O8 1.977769 1_556
Mn3 O10 1.987609 1_555
Mn3 O4 1.989035 1_555
Mn3 O0 2.005109 1_556
Mn3 O3 2.066298 1_556
Mn3 O7 2.082341 1_555
O0 Y0 2.511122 1_555
O1 Y0 2.347425 1_655
O3 Y0 2.628168 1_555
O5 Y0 2.628168 1_655
O6 Y0 2.511122 1_655
O7 Y0 2.347425 1_555
O8 Y0 2.337332 1_555
O9 Y0 2.296359 1_555
