# generated using pymatgen
data_MgBi2
_symmetry_space_group_name_H-M   'P 1'
_cell_length_a   11.98721199
_cell_length_b   11.98721199
_cell_length_c   19.38493940
_cell_angle_alpha   65.81228758
_cell_angle_beta   65.81228758
_cell_angle_gamma   34.02581522
_symmetry_Int_Tables_number   1
_chemical_formula_structural   MgBi2
_chemical_formula_sum   'Mg16 Bi32'
_cell_volume   1408.33399586
_cell_formula_units_Z   16
loop_
 _symmetry_equiv_pos_site_id
 _symmetry_equiv_pos_as_xyz
  1  'x, y, z'
loop_
 _atom_site_type_symbol
 _atom_site_label
 _atom_site_symmetry_multiplicity
 _atom_site_fract_x
 _atom_site_fract_y
 _atom_site_fract_z
 _atom_site_occupancy
  Mg  Mg0_0  1  0.40506500  0.40506500  0.31317500  1
  Mg  Mg0_1  1  0.40506500  0.40506500  0.81317500  1
  Mg  Mg0_2  1  0.40506500  0.90506500  0.31317500  1
  Mg  Mg0_3  1  0.40506500  0.90506500  0.81317500  1
  Mg  Mg0_4  1  0.90506500  0.40506500  0.31317500  1
  Mg  Mg0_5  1  0.90506500  0.40506500  0.81317500  1
  Mg  Mg0_6  1  0.90506500  0.90506500  0.31317500  1
  Mg  Mg0_7  1  0.90506500  0.90506500  0.81317500  1
  Mg  Mg1_0  1  0.09493500  0.09493500  0.18682500  1
  Mg  Mg1_1  1  0.09493500  0.09493500  0.68682500  1
  Mg  Mg1_2  1  0.09493500  0.59493500  0.18682500  1
  Mg  Mg1_3  1  0.09493500  0.59493500  0.68682500  1
  Mg  Mg1_4  1  0.59493500  0.09493500  0.18682500  1
  Mg  Mg1_5  1  0.59493500  0.09493500  0.68682500  1
  Mg  Mg1_6  1  0.59493500  0.59493500  0.18682500  1
  Mg  Mg1_7  1  0.59493500  0.59493500  0.68682500  1
  Bi  Bi0_0  1  0.07813900  0.07813900  0.46442900  1
  Bi  Bi0_1  1  0.07813900  0.07813900  0.96442900  1
  Bi  Bi0_2  1  0.07813900  0.57813900  0.46442900  1
  Bi  Bi0_3  1  0.07813900  0.57813900  0.96442900  1
  Bi  Bi0_4  1  0.57813900  0.07813900  0.46442900  1
  Bi  Bi0_5  1  0.57813900  0.07813900  0.96442900  1
  Bi  Bi0_6  1  0.57813900  0.57813900  0.46442900  1
  Bi  Bi0_7  1  0.57813900  0.57813900  0.96442900  1
  Bi  Bi1_0  1  0.26452750  0.26452750  0.33261850  1
  Bi  Bi1_1  1  0.26452750  0.26452750  0.83261850  1
  Bi  Bi1_2  1  0.26452750  0.76452750  0.33261850  1
  Bi  Bi1_3  1  0.26452750  0.76452750  0.83261850  1
  Bi  Bi1_4  1  0.76452750  0.26452750  0.33261850  1
  Bi  Bi1_5  1  0.76452750  0.26452750  0.83261850  1
  Bi  Bi1_6  1  0.76452750  0.76452750  0.33261850  1
  Bi  Bi1_7  1  0.76452750  0.76452750  0.83261850  1
  Bi  Bi2_0  1  0.23547250  0.23547250  0.16738150  1
  Bi  Bi2_1  1  0.23547250  0.23547250  0.66738150  1
  Bi  Bi2_2  1  0.23547250  0.73547250  0.16738150  1
  Bi  Bi2_3  1  0.23547250  0.73547250  0.66738150  1
  Bi  Bi2_4  1  0.73547250  0.23547250  0.16738150  1
  Bi  Bi2_5  1  0.73547250  0.23547250  0.66738150  1
  Bi  Bi2_6  1  0.73547250  0.73547250  0.16738150  1
  Bi  Bi2_7  1  0.73547250  0.73547250  0.66738150  1
  Bi  Bi3_0  1  0.42186100  0.42186100  0.03557100  1
  Bi  Bi3_1  1  0.42186100  0.42186100  0.53557100  1
  Bi  Bi3_2  1  0.42186100  0.92186100  0.03557100  1
  Bi  Bi3_3  1  0.42186100  0.92186100  0.53557100  1
  Bi  Bi3_4  1  0.92186100  0.42186100  0.03557100  1
  Bi  Bi3_5  1  0.92186100  0.42186100  0.53557100  1
  Bi  Bi3_6  1  0.92186100  0.92186100  0.03557100  1
  Bi  Bi3_7  1  0.92186100  0.92186100  0.53557100  1
loop_
_geom_bond_atom_site_label_1
_geom_bond_atom_site_label_2
_geom_bond_distance
_geom_bond_site_symmetry_2
Bi0_0 Mg0_2 3.217321 1_545
Bi0_0 Mg0_4 3.217321 1_455
Bi0_0 Bi3_7 3.240929 1_445
Bi0_0 Bi3_5 3.483233 1_455
Bi0_0 Bi3_3 3.483233 1_545
Bi0_0 Bi0_6 3.507304 1_545
Bi0_0 Bi0_6 3.507304 1_455
Bi0_1 Mg0_3 3.217321 1_545
Bi0_1 Mg0_5 3.217321 1_455
Bi0_1 Bi3_6 3.240929 1_446
Bi0_1 Bi3_4 3.483233 1_456
Bi0_1 Bi3_2 3.483233 1_546
Bi0_1 Bi0_7 3.507304 1_545
Bi0_1 Bi0_7 3.507304 1_455
Bi0_2 Mg0_0 3.217321 1_555
Bi0_2 Mg0_6 3.217321 1_455
Bi0_2 Bi3_5 3.240929 1_455
Bi0_2 Bi3_7 3.483233 1_455
Bi0_2 Bi3_1 3.483233 1_555
Bi0_2 Bi0_4 3.507304 1_465
Bi0_2 Bi0_4 3.507304 1_555
Bi0_3 Mg0_7 3.217321 1_455
Bi0_3 Mg0_1 3.217321 1_555
Bi0_3 Bi3_4 3.240929 1_456
Bi0_3 Bi3_0 3.483233 1_556
Bi0_3 Bi3_6 3.483233 1_456
Bi0_3 Bi0_5 3.507304 1_465
Bi0_3 Bi0_5 3.507304 1_555
Bi0_4 Mg0_0 3.217321 1_555
Bi0_4 Mg0_6 3.217321 1_545
Bi0_4 Bi3_3 3.240929 1_545
Bi0_4 Bi3_7 3.483233 1_545
Bi0_4 Bi3_1 3.483233 1_555
Bi0_5 Mg0_7 3.217321 1_545
Bi0_5 Mg0_1 3.217321 1_555
Bi0_5 Bi3_2 3.240929 1_546
Bi0_5 Bi3_0 3.483233 1_556
Bi0_5 Bi3_6 3.483233 1_546
Bi0_6 Mg0_2 3.217321 1_555
Bi0_6 Mg0_4 3.217321 1_555
Bi0_6 Bi3_1 3.240929 1_555
Bi0_6 Bi3_3 3.483233 1_555
Bi0_6 Bi3_5 3.483233 1_555
Bi0_7 Mg0_5 3.217321 1_555
Bi0_7 Mg0_3 3.217321 1_555
Bi0_7 Bi3_0 3.240929 1_556
Bi0_7 Bi3_4 3.483233 1_556
Bi0_7 Bi3_2 3.483233 1_556
Bi1_0 Mg0_0 3.079253 1_555
Bi1_0 Mg1_4 3.161675 1_555
Bi1_0 Mg1_2 3.161675 1_555
Bi1_0 Mg0_4 3.213298 1_455
Bi1_0 Mg0_2 3.213298 1_545
Bi1_0 Bi1_6 3.507304 1_455
Bi1_0 Bi1_6 3.507304 1_545
Bi1_0 Bi2_0 3.540052 1_555
Bi1_1 Mg0_1 3.079253 1_555
Bi1_1 Mg1_3 3.161675 1_555
Bi1_1 Mg1_5 3.161675 1_555
Bi1_1 Mg0_5 3.213298 1_455
Bi1_1 Mg0_3 3.213298 1_545
Bi1_1 Bi1_7 3.507304 1_455
Bi1_1 Bi1_7 3.507304 1_545
Bi1_1 Bi2_1 3.540052 1_555
Bi1_2 Mg0_2 3.079253 1_555
Bi1_2 Mg1_0 3.161675 1_565
Bi1_2 Mg1_6 3.161675 1_555
Bi1_2 Mg0_6 3.213298 1_455
Bi1_2 Mg0_0 3.213298 1_555
Bi1_2 Bi1_4 3.507304 1_465
Bi1_2 Bi1_4 3.507304 1_555
Bi1_2 Bi2_2 3.540052 1_555
Bi1_3 Mg0_3 3.079253 1_555
Bi1_3 Mg1_7 3.161675 1_555
Bi1_3 Mg1_1 3.161675 1_565
Bi1_3 Mg0_1 3.213298 1_555
Bi1_3 Mg0_7 3.213298 1_455
Bi1_3 Bi1_5 3.507304 1_555
Bi1_3 Bi1_5 3.507304 1_465
Bi1_3 Bi2_3 3.540052 1_555
Bi1_4 Mg0_4 3.079253 1_555
Bi1_4 Mg1_0 3.161675 1_655
Bi1_4 Mg1_6 3.161675 1_555
Bi1_4 Mg0_0 3.213298 1_555
Bi1_4 Mg0_6 3.213298 1_545
Bi1_4 Bi2_4 3.540052 1_555
Bi1_5 Mg0_5 3.079253 1_555
Bi1_5 Mg1_1 3.161675 1_655
Bi1_5 Mg1_7 3.161675 1_555
Bi1_5 Mg0_1 3.213298 1_555
Bi1_5 Mg0_7 3.213298 1_545
Bi1_5 Bi2_5 3.540052 1_555
Bi1_6 Mg0_6 3.079253 1_555
Bi1_6 Mg1_2 3.161675 1_655
Bi1_6 Mg1_4 3.161675 1_565
Bi1_6 Mg0_4 3.213298 1_555
Bi1_6 Mg0_2 3.213298 1_555
Bi1_6 Bi2_6 3.540052 1_555
Bi1_7 Mg0_7 3.079253 1_555
Bi1_7 Mg1_5 3.161675 1_565
Bi1_7 Mg1_3 3.161675 1_655
Bi1_7 Mg0_3 3.213298 1_555
Bi1_7 Mg0_5 3.213298 1_555
Bi1_7 Bi2_7 3.540052 1_555
Bi2_0 Mg1_0 3.079253 1_555
Bi2_0 Mg0_4 3.161675 1_455
Bi2_0 Mg0_2 3.161675 1_545
Bi2_0 Mg1_2 3.213298 1_555
Bi2_0 Mg1_4 3.213298 1_555
Bi2_0 Bi2_6 3.507304 1_455
Bi2_0 Bi2_6 3.507304 1_545
Bi2_1 Mg1_1 3.079253 1_555
Bi2_1 Mg0_3 3.161675 1_545
Bi2_1 Mg0_5 3.161675 1_455
Bi2_1 Mg1_5 3.213298 1_555
Bi2_1 Mg1_3 3.213298 1_555
Bi2_1 Bi2_7 3.507304 1_545
Bi2_1 Bi2_7 3.507304 1_455
Bi2_2 Mg1_2 3.079253 1_555
Bi2_2 Mg0_6 3.161675 1_455
Bi2_2 Mg0_0 3.161675 1_555
Bi2_2 Mg1_0 3.213298 1_565
Bi2_2 Mg1_6 3.213298 1_555
Bi2_2 Bi2_4 3.507304 1_555
Bi2_2 Bi2_4 3.507304 1_465
Bi2_3 Mg1_3 3.079253 1_555
Bi2_3 Mg0_7 3.161675 1_455
Bi2_3 Mg0_1 3.161675 1_555
Bi2_3 Mg1_1 3.213298 1_565
Bi2_3 Mg1_7 3.213298 1_555
Bi2_3 Bi2_5 3.507304 1_555
Bi2_3 Bi2_5 3.507304 1_465
Bi2_4 Mg1_4 3.079253 1_555
Bi2_4 Mg0_0 3.161675 1_555
Bi2_4 Mg0_6 3.161675 1_545
Bi2_4 Mg1_0 3.213298 1_655
Bi2_4 Mg1_6 3.213298 1_555
Bi2_5 Mg1_5 3.079253 1_555
Bi2_5 Mg0_7 3.161675 1_545
Bi2_5 Mg0_1 3.161675 1_555
Bi2_5 Mg1_1 3.213298 1_655
Bi2_5 Mg1_7 3.213298 1_555
Bi2_6 Mg1_6 3.079253 1_555
Bi2_6 Mg0_4 3.161675 1_555
Bi2_6 Mg0_2 3.161675 1_555
Bi2_6 Mg1_2 3.213298 1_655
Bi2_6 Mg1_4 3.213298 1_565
Bi2_7 Mg1_7 3.079253 1_555
Bi2_7 Mg0_3 3.161675 1_555
Bi2_7 Mg0_5 3.161675 1_555
Bi2_7 Mg1_3 3.213298 1_655
Bi2_7 Mg1_5 3.213298 1_565
Bi3_0 Mg1_4 3.217321 1_555
Bi3_0 Mg1_2 3.217321 1_555
Bi3_0 Bi3_6 3.507304 1_545
Bi3_0 Bi3_6 3.507304 1_455
Bi3_1 Mg1_5 3.217321 1_555
Bi3_1 Mg1_3 3.217321 1_555
Bi3_1 Bi3_7 3.507304 1_545
Bi3_1 Bi3_7 3.507304 1_455
Bi3_2 Mg1_0 3.217321 1_565
Bi3_2 Mg1_6 3.217321 1_555
Bi3_2 Bi3_4 3.507304 1_465
Bi3_2 Bi3_4 3.507304 1_555
Bi3_3 Mg1_7 3.217321 1_555
Bi3_3 Mg1_1 3.217321 1_565
Bi3_3 Bi3_5 3.507304 1_555
Bi3_3 Bi3_5 3.507304 1_465
Bi3_4 Mg1_6 3.217321 1_555
Bi3_4 Mg1_0 3.217321 1_655
Bi3_5 Mg1_7 3.217321 1_555
Bi3_5 Mg1_1 3.217321 1_655
Bi3_6 Mg1_2 3.217321 1_655
Bi3_6 Mg1_4 3.217321 1_565
Bi3_7 Mg1_5 3.217321 1_565
Bi3_7 Mg1_3 3.217321 1_655
