# generated using pymatgen
data_Sm2Co17H3
_symmetry_space_group_name_H-M   'P 1'
_cell_length_a   6.33823694
_cell_length_b   6.33823694
_cell_length_c   6.33823677
_cell_angle_alpha   83.55733709
_cell_angle_beta   83.55733709
_cell_angle_gamma   83.55732989
_symmetry_Int_Tables_number   1
_chemical_formula_structural   Sm2Co17H3
_chemical_formula_sum   'Sm2 Co17 H3'
_cell_volume   250.13876582
_cell_formula_units_Z   1
loop_
 _symmetry_equiv_pos_site_id
 _symmetry_equiv_pos_as_xyz
  1  'x, y, z'
loop_
 _atom_site_type_symbol
 _atom_site_label
 _atom_site_symmetry_multiplicity
 _atom_site_fract_x
 _atom_site_fract_y
 _atom_site_fract_z
 _atom_site_occupancy
  Sm  Sm0  1  0.65507100  0.65507100  0.65507100  1
  Sm  Sm1  1  0.34492900  0.34492900  0.34492900  1
  Co  Co0  1  0.00000000  0.00000000  0.50000000  1
  Co  Co1  1  0.00000000  0.50000000  0.00000000  1
  Co  Co2  1  0.50000000  0.00000000  0.00000000  1
  Co  Co3  1  0.28261200  0.71738800  0.00000000  1
  Co  Co4  1  0.71738800  0.00000000  0.28261200  1
  Co  Co5  1  0.00000000  0.28261200  0.71738800  1
  Co  Co6  1  0.28261200  0.00000000  0.71738800  1
  Co  Co7  1  0.00000000  0.71738800  0.28261200  1
  Co  Co8  1  0.71738800  0.28261200  0.00000000  1
  Co  Co9  1  0.34455300  0.34455300  0.85634500  1
  Co  Co10  1  0.34455300  0.85634500  0.34455300  1
  Co  Co11  1  0.85634500  0.34455300  0.34455300  1
  Co  Co12  1  0.65544700  0.65544700  0.14365500  1
  Co  Co13  1  0.65544700  0.14365500  0.65544700  1
  Co  Co14  1  0.14365500  0.65544700  0.65544700  1
  Co  Co15  1  0.90378200  0.90378200  0.90378200  1
  Co  Co16  1  0.09621800  0.09621800  0.09621800  1
  H  H0  1  0.50000000  0.50000000  0.00000000  1
  H  H1  1  0.50000000  0.00000000  0.50000000  1
  H  H2  1  0.00000000  0.50000000  0.50000000  1
loop_
_geom_bond_atom_site_label_1
_geom_bond_atom_site_label_2
_geom_bond_distance
_geom_bond_site_symmetry_2
Co0 Co6 2.379284 1_555
Co0 Co5 2.379284 1_555
Co0 Co4 2.379284 1_455
Co0 Co7 2.379284 1_545
Co0 Co14 2.416864 1_545
Co0 Co13 2.416864 1_455
Co0 Co11 2.416864 1_455
Co0 Co10 2.416864 1_545
Co0 Co15 2.583915 1_445
Co0 Co16 2.583915 1_555
Co0 Sm1 3.260910 1_555
Co0 Sm0 3.260910 1_445
Co1 Co7 2.379284 1_555
Co1 Co5 2.379284 1_554
Co1 Co3 2.379284 1_555
Co1 Co8 2.379284 1_455
Co1 Co12 2.416864 1_455
Co1 Co9 2.416864 1_554
Co1 Co14 2.416864 1_554
Co1 Co11 2.416864 1_455
Co1 Co16 2.583915 1_555
Co1 Co15 2.583915 1_454
Co1 Sm1 3.260909 1_555
Co1 Sm0 3.260909 1_454
Co2 Co4 2.379284 1_555
Co2 Co6 2.379284 1_554
Co2 Co8 2.379284 1_555
Co2 Co3 2.379284 1_545
Co2 Co9 2.416864 1_554
Co2 Sm1 3.260909 1_555
Co2 Sm0 3.260909 1_544
Co3 H0 1.836007 1_555
Co4 H1 1.836007 1_555
Co5 H2 1.836007 1_555
Co6 H1 1.836007 1_555
Co7 H2 1.836007 1_555
Co8 H0 1.836007 1_555
Co9 H0 1.841472 1_556
Co10 H1 1.841472 1_565
Co10 Co2 2.416864 1_565
Co10 Co16 2.597772 1_565
Co11 H2 1.841472 1_655
Co11 Co16 2.597772 1_655
Co12 H0 1.841472 1_555
Co12 Co2 2.416864 1_565
Co12 Co15 2.597772 1_554
Co13 H1 1.841472 1_555
Co13 Co2 2.416864 1_556
Co13 Co15 2.597772 1_545
Co14 H2 1.841472 1_555
Co14 Co15 2.597772 1_455
Co15 Co16 2.337654 1_666
Co15 Co2 2.583915 1_566
Co15 Co3 2.657691 1_656
Co15 Co8 2.657691 1_566
Co15 Co7 2.657691 1_656
Co15 Co4 2.657691 1_566
Co15 Co5 2.657691 1_665
Co15 Co6 2.657691 1_665
Co15 Sm0 3.021266 1_555
Co16 Co2 2.583915 1_555
Co16 Co9 2.597772 1_554
Co16 Co3 2.657691 1_545
Co16 Co8 2.657691 1_455
Co16 Co6 2.657691 1_554
Co16 Co5 2.657691 1_554
Co16 Co7 2.657691 1_545
Co16 Co4 2.657691 1_455
Co16 Sm1 3.021266 1_555
H0 Sm1 2.442147 1_555
H0 Sm0 2.442147 1_554
H1 Sm1 2.442147 1_555
H1 Sm0 2.442147 1_545
H2 Sm1 2.442147 1_555
H2 Sm0 2.442147 1_455
