# generated using pymatgen
data_V2CoO6
_symmetry_space_group_name_H-M   'P 1'
_cell_length_a   5.02859003
_cell_length_b   5.02859003
_cell_length_c   6.73244601
_cell_angle_alpha   70.13849721
_cell_angle_beta   70.13849721
_cell_angle_gamma   41.22289924
_symmetry_Int_Tables_number   1
_chemical_formula_structural   V2CoO6
_chemical_formula_sum   'V2 Co1 O6'
_cell_volume   104.53580527
_cell_formula_units_Z   1
loop_
 _symmetry_equiv_pos_site_id
 _symmetry_equiv_pos_as_xyz
  1  'x, y, z'
loop_
 _atom_site_type_symbol
 _atom_site_label
 _atom_site_symmetry_multiplicity
 _atom_site_fract_x
 _atom_site_fract_y
 _atom_site_fract_z
 _atom_site_occupancy
  V  V0  1  0.79308700  0.81986900  0.65577800  1
  V  V1  1  0.18013100  0.20691300  0.34422200  1
  Co  Co0  1  0.99931400  0.00068600  0.00000000  1
  O  O0  1  0.67982100  0.70578400  0.43508700  1
  O  O1  1  0.02240800  0.04880800  0.27542500  1
  O  O2  1  0.95119200  0.97759200  0.72457500  1
  O  O3  1  0.29421600  0.32017900  0.56491300  1
  O  O4  1  0.33039400  0.36356300  0.11092100  1
  O  O5  1  0.63643700  0.66960600  0.88907900  1
loop_
_geom_bond_atom_site_label_1
_geom_bond_atom_site_label_2
_geom_bond_distance
_geom_bond_site_symmetry_2
Co0 O1 2.000976 1_655
Co0 O2 2.000976 1_544
Co0 O5 2.188421 1_644
Co0 O4 2.188421 1_645
Co0 O4 2.277663 1_555
Co0 O5 2.277663 1_554
O0 V1 1.870768 1_655
O0 V1 1.873510 1_565
O0 V0 2.122934 1_555
O1 V1 1.709992 1_555
O2 V0 1.709992 1_555
O3 V0 1.870768 1_545
O3 V0 1.873510 1_455
O3 V1 2.122934 1_555
O4 V1 1.704916 1_555
O5 V0 1.704916 1_555
