# generated using pymatgen
data_Pu2IO10
_symmetry_space_group_name_H-M   'P 1'
_cell_length_a   11.10319200
_cell_length_b   6.88034300
_cell_length_c   13.28684854
_cell_angle_alpha   58.97609526
_cell_angle_beta   90.00000000
_cell_angle_gamma   90.00000000
_symmetry_Int_Tables_number   1
_chemical_formula_structural   Pu2IO10
_chemical_formula_sum   'Pu8 I4 O40'
_cell_volume   869.83443105
_cell_formula_units_Z   4
loop_
 _symmetry_equiv_pos_site_id
 _symmetry_equiv_pos_as_xyz
  1  'x, y, z'
loop_
 _atom_site_type_symbol
 _atom_site_label
 _atom_site_symmetry_multiplicity
 _atom_site_fract_x
 _atom_site_fract_y
 _atom_site_fract_z
 _atom_site_occupancy
  Pu  Pu0  1  0.70510000  0.90774000  0.68228700  1
  Pu  Pu1  1  0.79490000  0.90774000  0.18228700  1
  Pu  Pu2  1  0.29490000  0.09226000  0.31771300  1
  Pu  Pu3  1  0.20510000  0.09226000  0.81771300  1
  Pu  Pu4  1  0.75432000  0.54768000  0.53902200  1
  Pu  Pu5  1  0.74568000  0.54768000  0.03902200  1
  Pu  Pu6  1  0.24568000  0.45232000  0.46097800  1
  Pu  Pu7  1  0.25432000  0.45232000  0.96097800  1
  I  I0  1  0.79751600  0.22588700  0.36621400  1
  I  I1  1  0.70248400  0.22588700  0.86621400  1
  I  I2  1  0.20248400  0.77411300  0.63378600  1
  I  I3  1  0.29751600  0.77411300  0.13378600  1
  O  O0  1  0.76744400  0.52522500  0.23571700  1
  O  O1  1  0.73255600  0.52522500  0.73571700  1
  O  O2  1  0.23255600  0.47477500  0.76428300  1
  O  O3  1  0.26744400  0.47477500  0.26428300  1
  O  O4  1  0.55427600  0.88211300  0.64642300  1
  O  O5  1  0.94572400  0.88211300  0.14642300  1
  O  O6  1  0.44572400  0.11788700  0.35357700  1
  O  O7  1  0.05427600  0.11788700  0.85357700  1
  O  O8  1  0.77881000  0.85649600  0.53202800  1
  O  O9  1  0.72119000  0.85649600  0.03202800  1
  O  O10  1  0.22119000  0.14350400  0.46797200  1
  O  O11  1  0.27881000  0.14350400  0.96797200  1
  O  O12  1  0.89609600  0.42290000  0.59683000  1
  O  O13  1  0.60390400  0.42290000  0.09683000  1
  O  O14  1  0.10390400  0.57710000  0.40317000  1
  O  O15  1  0.39609600  0.57710000  0.90317000  1
  O  O16  1  0.67079200  0.19439000  0.68776300  1
  O  O17  1  0.82920800  0.19439000  0.18776300  1
  O  O18  1  0.32920800  0.80561000  0.31223700  1
  O  O19  1  0.17079200  0.80561000  0.81223700  1
  O  O20  1  0.85786800  0.92701900  0.71312200  1
  O  O21  1  0.64213200  0.92701900  0.21312200  1
  O  O22  1  0.14213200  0.07298100  0.28687800  1
  O  O23  1  0.35786800  0.07298100  0.78687800  1
  O  O24  1  0.95307000  0.24755600  0.38685000  1
  O  O25  1  0.54693000  0.24755600  0.88685000  1
  O  O26  1  0.04693000  0.75244400  0.61315000  1
  O  O27  1  0.45307000  0.75244400  0.11315000  1
  O  O28  1  0.72792900  0.27658500  0.48183700  1
  O  O29  1  0.77207100  0.27658500  0.98183700  1
  O  O30  1  0.27207100  0.72341500  0.51816300  1
  O  O31  1  0.22792900  0.72341500  0.01816300  1
  O  O32  1  0.60511700  0.63927900  0.49172100  1
  O  O33  1  0.89488300  0.63927900  0.99172100  1
  O  O34  1  0.39488300  0.36072100  0.50827900  1
  O  O35  1  0.10511700  0.36072100  0.00827900  1
  O  O36  1  0.82226400  0.72778600  0.37042600  1
  O  O37  1  0.67773600  0.72778600  0.87042600  1
  O  O38  1  0.17773600  0.27221400  0.62957400  1
  O  O39  1  0.32226400  0.27221400  0.12957400  1
loop_
_geom_bond_atom_site_label_1
_geom_bond_atom_site_label_2
_geom_bond_distance
_geom_bond_site_symmetry_2
I0 O24 1.767081 1_555
I0 O28 1.905554 1_555
I0 O0 1.917972 1_555
I0 O8 2.363178 1_545
I0 O17 2.514423 1_555
I1 O25 1.767081 1_555
I1 O29 1.905554 1_555
I1 O1 1.917972 1_555
I1 O9 2.363178 1_546
I1 O16 2.514423 1_555
I2 O26 1.767081 1_555
I2 O30 1.905554 1_555
I2 O2 1.917972 1_555
I2 O10 2.363178 1_565
I2 O19 2.514423 1_555
I3 O27 1.767081 1_555
I3 O31 1.905554 1_555
I3 O3 1.917972 1_555
I3 O11 2.363178 1_564
I3 O18 2.514423 1_555
O0 Pu1 2.365915 1_555
O0 Pu5 2.548767 1_555
O1 Pu0 2.365915 1_555
O1 Pu4 2.548767 1_555
O2 Pu3 2.365915 1_555
O2 Pu7 2.548767 1_555
O3 Pu2 2.365915 1_555
O3 Pu6 2.548767 1_555
O4 Pu0 1.774584 1_555
O5 Pu1 1.774584 1_555
O6 Pu2 1.774584 1_555
O7 Pu3 1.774584 1_555
O8 Pu4 2.096103 1_555
O8 Pu0 2.346398 1_555
O9 Pu5 2.096103 1_555
O9 Pu1 2.346398 1_555
O10 Pu6 2.096103 1_555
O10 Pu2 2.346398 1_555
O11 Pu7 2.096103 1_555
O11 Pu3 2.346398 1_555
O12 Pu4 1.767851 1_555
O13 Pu5 1.767851 1_555
O14 Pu6 1.767851 1_555
O15 Pu7 1.767851 1_555
O16 Pu0 2.046482 1_545
O16 Pu4 2.392203 1_555
O17 Pu1 2.046482 1_545
O17 Pu5 2.392203 1_555
O18 Pu2 2.046482 1_565
O18 Pu6 2.392203 1_555
O19 Pu3 2.046482 1_565
O19 Pu7 2.392203 1_555
O20 Pu0 1.765957 1_555
O21 Pu1 1.765957 1_555
O22 Pu2 1.765957 1_555
O23 Pu3 1.765957 1_555
O28 Pu4 2.367086 1_555
O28 Pu0 2.575052 1_545
O29 Pu5 2.367086 1_556
O29 Pu1 2.575052 1_546
O30 Pu6 2.367086 1_555
O30 Pu2 2.575052 1_565
O31 Pu7 2.367086 1_554
O31 Pu3 2.575052 1_564
O32 Pu4 1.768705 1_555
O33 Pu5 1.768705 1_556
O34 Pu6 1.768705 1_555
O35 Pu7 1.768705 1_554
O36 Pu4 2.064316 1_555
O36 Pu1 2.164209 1_555
O37 Pu5 2.064316 1_556
O37 Pu0 2.164209 1_555
O38 Pu6 2.064316 1_555
O38 Pu3 2.164209 1_555
O39 Pu7 2.064316 1_554
O39 Pu2 2.164209 1_555
