# generated using pymatgen
data_Ca2FeH6
_symmetry_space_group_name_H-M   'P 1'
_cell_length_a   4.94420029
_cell_length_b   4.94420029
_cell_length_c   4.94420029
_cell_angle_alpha   60.00000000
_cell_angle_beta   60.00000000
_cell_angle_gamma   60.00000000
_symmetry_Int_Tables_number   1
_chemical_formula_structural   Ca2FeH6
_chemical_formula_sum   'Ca2 Fe1 H6'
_cell_volume   85.46202290
_cell_formula_units_Z   1
loop_
 _symmetry_equiv_pos_site_id
 _symmetry_equiv_pos_as_xyz
  1  'x, y, z'
loop_
 _atom_site_type_symbol
 _atom_site_label
 _atom_site_symmetry_multiplicity
 _atom_site_fract_x
 _atom_site_fract_y
 _atom_site_fract_z
 _atom_site_occupancy
  Ca  Ca0  1  0.25000000  0.25000000  0.25000000  1
  Ca  Ca1  1  0.75000000  0.75000000  0.75000000  1
  Fe  Fe0  1  -0.00000000  0.00000000  0.00000000  1
  H  H0  1  0.77196735  0.22803265  0.22803265  1
  H  H1  1  0.22803265  0.77196735  0.77196735  1
  H  H2  1  0.22803265  0.77196735  0.22803265  1
  H  H3  1  0.77196735  0.22803265  0.77196735  1
  H  H4  1  0.22803265  0.22803265  0.77196735  1
  H  H5  1  0.77196735  0.77196735  0.22803265  1
loop_
_geom_bond_atom_site_label_1
_geom_bond_atom_site_label_2
_geom_bond_distance
_geom_bond_site_symmetry_2
Ca0 H0 2.476867 1_455
Ca0 H4 2.476867 1_554
Ca0 H2 2.476867 1_545
Ca0 H3 2.476867 1_455
Ca0 H1 2.476867 1_545
Ca0 H1 2.476867 1_554
Ca0 H3 2.476867 1_554
Ca0 H5 2.476867 1_455
Ca0 H5 2.476867 1_545
Ca0 H2 2.476867 1_555
Ca0 H0 2.476867 1_555
Ca0 H4 2.476867 1_555
Ca1 H5 2.476867 1_555
Ca1 H3 2.476867 1_555
Ca1 H1 2.476867 1_555
Ca1 H4 2.476867 1_655
Ca1 H0 2.476867 1_565
Ca1 H4 2.476867 1_565
Ca1 H0 2.476867 1_556
Ca1 H2 2.476867 1_556
Ca1 H2 2.476867 1_655
Ca1 H5 2.476867 1_556
Ca1 H1 2.476867 1_655
Ca1 H3 2.476867 1_565
Fe0 H1 1.594440 1_544
Fe0 H5 1.594440 1_445
Fe0 H3 1.594440 1_454
Fe0 H0 1.594440 1_455
Fe0 H4 1.594440 1_554
Fe0 H2 1.594440 1_545
