# generated using pymatgen
data_InRhO3
_symmetry_space_group_name_H-M   'P 1'
_cell_length_a   5.34112900
_cell_length_b   5.52984700
_cell_length_c   8.24457900
_cell_angle_alpha   90.00000000
_cell_angle_beta   90.00000000
_cell_angle_gamma   90.00000000
_symmetry_Int_Tables_number   1
_chemical_formula_structural   InRhO3
_chemical_formula_sum   'In4 Rh4 O12'
_cell_volume   243.50880333
_cell_formula_units_Z   4
loop_
 _symmetry_equiv_pos_site_id
 _symmetry_equiv_pos_as_xyz
  1  'x, y, z'
loop_
 _atom_site_type_symbol
 _atom_site_label
 _atom_site_symmetry_multiplicity
 _atom_site_fract_x
 _atom_site_fract_y
 _atom_site_fract_z
 _atom_site_occupancy
  In  In0  1  0.00000000  0.00000000  0.00000000  1
  In  In1  1  0.50000000  0.50000000  0.00000000  1
  In  In2  1  0.00000000  0.00000000  0.50000000  1
  In  In3  1  0.50000000  0.50000000  0.50000000  1
  Rh  Rh0  1  0.00639500  0.44905300  0.25000000  1
  Rh  Rh1  1  0.99360500  0.55094700  0.75000000  1
  Rh  Rh2  1  0.50639500  0.05094700  0.75000000  1
  Rh  Rh3  1  0.49360500  0.94905300  0.25000000  1
  O  O0  1  0.32681800  0.18123000  0.09734400  1
  O  O1  1  0.67318200  0.81877000  0.90265600  1
  O  O2  1  0.82681800  0.31877000  0.90265600  1
  O  O3  1  0.67318200  0.81877000  0.59734400  1
  O  O4  1  0.17318200  0.68123000  0.09734400  1
  O  O5  1  0.32681800  0.18123000  0.40265600  1
  O  O6  1  0.17318200  0.68123000  0.40265600  1
  O  O7  1  0.82681800  0.31877000  0.59734400  1
  O  O8  1  0.66606400  0.61794100  0.25000000  1
  O  O9  1  0.33393600  0.38205900  0.75000000  1
  O  O10  1  0.16606400  0.88205900  0.75000000  1
  O  O11  1  0.83393600  0.11794100  0.25000000  1
loop_
_geom_bond_atom_site_label_1
_geom_bond_atom_site_label_2
_geom_bond_distance
_geom_bond_site_symmetry_2
In0 O2 2.146390 1_454
In0 O4 2.146390 1_545
In0 O0 2.166909 1_555
In0 O1 2.166909 1_444
In0 O11 2.336748 1_455
In0 O10 2.336748 1_544
In1 O1 2.146390 1_554
In1 O0 2.146390 1_555
In1 O4 2.166909 1_555
In1 O2 2.166909 1_554
In1 O8 2.336748 1_555
In1 O9 2.336748 1_554
In2 O7 2.146390 1_455
In2 O6 2.146390 1_545
In2 O5 2.166909 1_555
In2 O3 2.166909 1_445
In2 O11 2.336748 1_455
In2 O10 2.336748 1_545
In3 O5 2.146390 1_555
In3 O3 2.146390 1_555
In3 O6 2.166909 1_555
In3 O7 2.166909 1_555
In3 O9 2.336748 1_555
In3 O8 2.336748 1_555
O0 Rh3 2.006495 1_545
O0 Rh0 2.589675 1_555
O1 Rh2 2.006495 1_565
O1 Rh1 2.589675 1_555
O2 Rh1 2.006495 1_555
O2 Rh2 2.589675 1_555
O3 Rh2 2.006495 1_565
O3 Rh1 2.589675 1_555
O4 Rh0 2.006495 1_555
O4 Rh3 2.589675 1_555
O5 Rh3 2.006495 1_545
O5 Rh0 2.589675 1_555
O6 Rh0 2.006495 1_555
O6 Rh3 2.589675 1_555
O7 Rh1 2.006495 1_555
O7 Rh2 2.589675 1_555
O8 Rh0 2.043633 1_655
O8 Rh3 2.049641 1_555
O9 Rh1 2.043633 1_455
O9 Rh2 2.049641 1_555
O10 Rh2 2.043633 1_565
O10 Rh1 2.049641 1_455
O11 Rh3 2.043633 1_545
O11 Rh0 2.049641 1_655
