# generated using pymatgen
data_Zr3Si6N11
_symmetry_space_group_name_H-M   'P 1'
_cell_length_a   9.86541041
_cell_length_b   9.86541041
_cell_length_c   4.85272896
_cell_angle_alpha   90.00000000
_cell_angle_beta   90.00000000
_cell_angle_gamma   90.00000000
_symmetry_Int_Tables_number   1
_chemical_formula_structural   Zr3Si6N11
_chemical_formula_sum   'Zr6 Si12 N22'
_cell_volume   472.29826405
_cell_formula_units_Z   2
loop_
 _symmetry_equiv_pos_site_id
 _symmetry_equiv_pos_as_xyz
  1  'x, y, z'
loop_
 _atom_site_type_symbol
 _atom_site_label
 _atom_site_symmetry_multiplicity
 _atom_site_fract_x
 _atom_site_fract_y
 _atom_site_fract_z
 _atom_site_occupancy
  Zr  Zr0  1  0.31310291  0.81310291  0.96269587  1
  Zr  Zr1  1  0.68689709  0.18689709  0.96269587  1
  Zr  Zr2  1  0.18689709  0.31310291  0.96269587  1
  Zr  Zr3  1  0.81310291  0.68689709  0.96269587  1
  Zr  Zr4  1  0.50000000  0.50000000  0.98062786  1
  Zr  Zr5  1  0.00000000  0.00000000  0.98062786  1
  Si  Si0  1  0.41510143  0.29944214  0.52959539  1
  Si  Si1  1  0.58489857  0.70055786  0.52959539  1
  Si  Si2  1  0.08489857  0.79944214  0.52959539  1
  Si  Si3  1  0.91510143  0.20055786  0.52959539  1
  Si  Si4  1  0.29944214  0.58489857  0.52959539  1
  Si  Si5  1  0.70055786  0.41510143  0.52959539  1
  Si  Si6  1  0.79944214  0.91510143  0.52959539  1
  Si  Si7  1  0.20055786  0.08489857  0.52959539  1
  Si  Si8  1  0.87995438  0.37995438  0.04051745  1
  Si  Si9  1  0.12004562  0.62004562  0.04051745  1
  Si  Si10  1  0.62004562  0.87995438  0.04051745  1
  Si  Si11  1  0.37995438  0.12004562  0.04051745  1
  N  N0  1  0.31856855  0.42789329  0.67481606  1
  N  N1  1  0.68143145  0.57210671  0.67481606  1
  N  N2  1  0.18143145  0.92789329  0.67481606  1
  N  N3  1  0.81856855  0.07210671  0.67481606  1
  N  N4  1  0.42789329  0.68143145  0.67481606  1
  N  N5  1  0.57210671  0.31856855  0.67481606  1
  N  N6  1  0.92789329  0.81856855  0.67481606  1
  N  N7  1  0.07210671  0.18143145  0.67481606  1
  N  N8  1  0.41639812  0.28175979  0.17523442  1
  N  N9  1  0.58360188  0.71824021  0.17523442  1
  N  N10  1  0.08360188  0.78175979  0.17523442  1
  N  N11  1  0.91639812  0.21824021  0.17523442  1
  N  N12  1  0.28175979  0.58360188  0.17523442  1
  N  N13  1  0.71824021  0.41639812  0.17523442  1
  N  N14  1  0.78175979  0.91639812  0.17523442  1
  N  N15  1  0.21824021  0.08360188  0.17523442  1
  N  N16  1  0.83829971  0.33829971  0.69836505  1
  N  N17  1  0.16170029  0.66170029  0.69836505  1
  N  N18  1  0.66170029  0.83829971  0.69836505  1
  N  N19  1  0.33829971  0.16170029  0.69836505  1
  N  N20  1  0.50000000  0.00000000  0.06617294  1
  N  N21  1  0.00000000  0.50000000  0.06617294  1
loop_
_geom_bond_atom_site_label_1
_geom_bond_atom_site_label_2
_geom_bond_distance
_geom_bond_site_symmetry_2
N0 Si4 1.712129 1_555
N0 Si0 1.734769 1_555
N0 Zr2 2.218435 1_555
N0 Zr4 2.431478 1_555
N1 Si5 1.712129 1_555
N1 Si1 1.734769 1_555
N1 Zr3 2.218435 1_555
N1 Zr4 2.431478 1_555
N2 Si7 1.712129 1_565
N2 Si2 1.734769 1_555
N2 Zr0 2.218435 1_555
N2 Zr5 2.431478 1_565
N3 Si6 1.712129 1_545
N3 Si3 1.734769 1_555
N3 Zr1 2.218435 1_555
N3 Zr5 2.431478 1_655
N4 Si1 1.712129 1_555
N4 Si4 1.734769 1_555
N4 Zr0 2.218435 1_555
N4 Zr4 2.431478 1_555
N5 Si0 1.712129 1_555
N5 Si5 1.734769 1_555
N5 Zr1 2.218435 1_555
N5 Zr4 2.431478 1_555
N6 Si2 1.712129 1_655
N6 Si6 1.734769 1_555
N6 Zr3 2.218435 1_555
N6 Zr5 2.431478 1_665
N7 Si3 1.712129 1_455
N7 Si7 1.734769 1_555
N7 Zr2 2.218435 1_555
N7 Zr5 2.431478 1_555
N8 Si0 1.728490 1_555
N8 Si11 1.761213 1_555
N8 Zr4 2.491509 1_554
N8 Zr2 2.507116 1_554
N9 Si1 1.728490 1_555
N9 Si10 1.761213 1_555
N9 Zr4 2.491509 1_554
N9 Zr3 2.507116 1_554
N10 Si2 1.728490 1_555
N10 Si9 1.761213 1_555
N10 Zr5 2.491509 1_564
N10 Zr0 2.507116 1_554
N11 Si3 1.728490 1_555
N11 Si8 1.761213 1_555
N11 Zr5 2.491509 1_654
N11 Zr1 2.507116 1_554
N12 Si4 1.728490 1_555
N12 Si9 1.761213 1_555
N12 Zr4 2.491509 1_554
N12 Zr0 2.507116 1_554
N13 Si5 1.728490 1_555
N13 Si8 1.761213 1_555
N13 Zr4 2.491509 1_554
N13 Zr1 2.507116 1_554
N14 Si6 1.728490 1_555
N14 Si10 1.761213 1_555
N14 Zr5 2.491509 1_664
N14 Zr3 2.507116 1_554
N15 Si7 1.728490 1_555
N15 Si11 1.761213 1_555
N15 Zr5 2.491509 1_554
N15 Zr2 2.507116 1_554
N16 Si3 1.758233 1_555
N16 Si5 1.758233 1_555
N16 Si8 1.759142 1_556
N16 Zr1 2.471307 1_555
N17 Si4 1.758233 1_555
N17 Si2 1.758233 1_555
N17 Si9 1.759142 1_556
N17 Zr0 2.471307 1_555
N18 Si6 1.758233 1_555
N18 Si1 1.758233 1_555
N18 Si10 1.759142 1_556
N18 Zr3 2.471307 1_555
N19 Si7 1.758233 1_555
N19 Si0 1.758233 1_555
N19 Si11 1.759142 1_556
N19 Zr2 2.471307 1_555
N20 Si10 1.679473 1_545
N20 Si11 1.679473 1_555
N20 Zr0 2.655460 1_544
N20 Zr1 2.655460 1_554
N21 Si9 1.679473 1_555
N21 Si8 1.679473 1_455
N21 Zr3 2.655460 1_454
N21 Zr2 2.655460 1_554
