# generated using pymatgen
data_Cu2As(HO3)2
_symmetry_space_group_name_H-M   'P 1'
_cell_length_a   5.41032200
_cell_length_b   9.06408348
_cell_length_c   9.94258793
_cell_angle_alpha   74.59639578
_cell_angle_beta   82.22515558
_cell_angle_gamma   79.42552586
_symmetry_Int_Tables_number   1
_chemical_formula_structural   Cu2As(HO3)2
_chemical_formula_sum   'Cu8 As4 H8 O24'
_cell_volume   460.15266579
_cell_formula_units_Z   4
loop_
 _symmetry_equiv_pos_site_id
 _symmetry_equiv_pos_as_xyz
  1  'x, y, z'
loop_
 _atom_site_type_symbol
 _atom_site_label
 _atom_site_symmetry_multiplicity
 _atom_site_fract_x
 _atom_site_fract_y
 _atom_site_fract_z
 _atom_site_occupancy
  Cu  Cu0  1  0.76672300  0.49185300  0.74667500  1
  Cu  Cu1  1  0.23327700  0.50814700  0.25332500  1
  Cu  Cu2  1  0.00000000  0.50000000  0.00000000  1
  Cu  Cu3  1  0.50000000  0.50000000  0.50000000  1
  Cu  Cu4  1  0.13634400  0.10429500  0.87164600  1
  Cu  Cu5  1  0.86365600  0.89570500  0.12835400  1
  Cu  Cu6  1  0.41320800  0.00189500  0.36373600  1
  Cu  Cu7  1  0.58679200  0.99810500  0.63626400  1
  As  As0  1  0.58977700  0.24713200  0.04133200  1
  As  As1  1  0.41022300  0.75286800  0.95866800  1
  As  As2  1  0.06987100  0.24691200  0.54100400  1
  As  As3  1  0.93012900  0.75308800  0.45899600  1
  H  H0  1  0.48062500  0.31444700  0.72973100  1
  H  H1  1  0.51937500  0.68555300  0.27026900  1
  H  H2  1  0.19147800  0.53211800  0.75799200  1
  H  H3  1  0.80852200  0.46788200  0.24200800  1
  H  H4  1  0.60402500  0.06956700  0.84727500  1
  H  H5  1  0.39597500  0.93043300  0.15272500  1
  H  H6  1  0.16070000  0.15429700  0.19206500  1
  H  H7  1  0.83930000  0.84570300  0.80793500  1
  O  O0  1  0.29690100  0.25337200  0.99306300  1
  O  O1  1  0.70309900  0.74662800  0.00693700  1
  O  O2  1  0.59938700  0.23548400  0.21138200  1
  O  O3  1  0.40061300  0.76451600  0.78861800  1
  O  O4  1  0.72975300  0.41048400  0.94375400  1
  O  O5  1  0.27024700  0.58951600  0.05624600  1
  O  O6  1  0.79844000  0.09161500  0.98139600  1
  O  O7  1  0.20156000  0.90838500  0.01860400  1
  O  O8  1  0.04151600  0.26702700  0.71227400  1
  O  O9  1  0.95848400  0.73297300  0.28772600  1
  O  O10  1  0.78355800  0.25811000  0.49018900  1
  O  O11  1  0.21644200  0.74189000  0.50981100  1
  O  O12  1  0.29586900  0.08032500  0.52917700  1
  O  O13  1  0.70413100  0.91967500  0.47082300  1
  O  O14  1  0.22256100  0.40615900  0.44779400  1
  O  O15  1  0.77743900  0.59384100  0.55220600  1
  O  O16  1  0.47892700  0.42829600  0.70081100  1
  O  O17  1  0.52107300  0.57170400  0.29918900  1
  O  O18  1  0.02253800  0.57364000  0.79972500  1
  O  O19  1  0.97746200  0.42636000  0.20027500  1
  O  O20  1  0.47175200  0.09664700  0.78029900  1
  O  O21  1  0.52824800  0.90335300  0.21970100  1
  O  O22  1  0.12518000  0.07192600  0.27659700  1
  O  O23  1  0.87482000  0.92807400  0.72340300  1
loop_
_geom_bond_atom_site_label_1
_geom_bond_atom_site_label_2
_geom_bond_distance
_geom_bond_site_symmetry_2
Cu0 O18 1.877539 1_655
Cu0 O4 1.898390 1_555
Cu0 O16 1.903988 1_555
Cu0 O15 1.906898 1_555
Cu0 O8 2.366608 1_655
Cu1 O19 1.877539 1_455
Cu1 O5 1.898390 1_555
Cu1 O17 1.903988 1_555
Cu1 O14 1.906898 1_555
Cu1 O9 2.366608 1_455
Cu2 O19 1.919267 1_455
Cu2 O18 1.919267 1_554
Cu2 O5 2.001643 1_555
Cu2 O4 2.001643 1_454
Cu2 O0 2.513225 1_554
Cu2 O1 2.513225 1_455
Cu3 O17 1.923019 1_555
Cu3 O16 1.923019 1_555
Cu3 O15 2.039600 1_555
Cu3 O14 2.039600 1_555
Cu3 O11 2.451284 1_555
Cu3 O10 2.451284 1_555
Cu4 O8 1.910583 1_555
Cu4 O20 1.914170 1_555
Cu4 O7 1.985921 1_546
Cu4 O6 2.004216 1_455
Cu4 O0 2.370416 1_555
Cu5 O9 1.910583 1_555
Cu5 O21 1.914170 1_555
Cu5 O6 1.985921 1_564
Cu5 O7 2.004216 1_655
Cu5 O1 2.370416 1_555
Cu6 O22 1.814390 1_555
Cu6 O21 1.862887 1_545
Cu6 O13 1.941091 1_545
Cu6 O12 1.946062 1_555
Cu7 O23 1.814390 1_555
Cu7 O20 1.862887 1_565
Cu7 O12 1.941091 1_565
Cu7 O13 1.946062 1_555
As0 O2 1.673136 1_555
As0 O0 1.703751 1_554
As0 O4 1.776713 1_554
As0 O6 1.815706 1_554
As1 O3 1.673136 1_555
As1 O1 1.703751 1_556
As1 O5 1.776713 1_556
As1 O7 1.815706 1_556
As2 O10 1.670899 1_455
As2 O8 1.743709 1_555
As2 O14 1.773323 1_555
As2 O12 1.779508 1_555
As3 O11 1.670899 1_655
As3 O9 1.743709 1_555
As3 O15 1.773323 1_555
As3 O13 1.779508 1_555
H0 O16 0.993611 1_555
H1 O17 0.993611 1_555
H2 O18 1.001668 1_555
H3 O19 1.001668 1_555
H4 O20 0.996727 1_555
H5 O21 0.996727 1_555
H6 O22 0.988110 1_555
H7 O23 0.988110 1_555
