# generated using pymatgen
data_Mg14MnCrO16
_symmetry_space_group_name_H-M   'P 1'
_cell_length_a   4.28415100
_cell_length_b   8.52436600
_cell_length_c   8.65639600
_cell_angle_alpha   90.00000000
_cell_angle_beta   90.00000000
_cell_angle_gamma   90.00000000
_symmetry_Int_Tables_number   1
_chemical_formula_structural   Mg14MnCrO16
_chemical_formula_sum   'Mg14 Mn1 Cr1 O16'
_cell_volume   316.12873503
_cell_formula_units_Z   1
loop_
 _symmetry_equiv_pos_site_id
 _symmetry_equiv_pos_as_xyz
  1  'x, y, z'
loop_
 _atom_site_type_symbol
 _atom_site_label
 _atom_site_symmetry_multiplicity
 _atom_site_fract_x
 _atom_site_fract_y
 _atom_site_fract_z
 _atom_site_occupancy
  Mg  Mg0  1  0.00000000  0.00000000  0.50000000  1
  Mg  Mg1  1  0.00000000  0.50000000  0.50000000  1
  Mg  Mg2  1  0.50000000  0.74866700  0.00000000  1
  Mg  Mg3  1  0.50000000  0.25133300  0.00000000  1
  Mg  Mg4  1  0.50000000  0.74958000  0.50000000  1
  Mg  Mg5  1  0.50000000  0.25042000  0.50000000  1
  Mg  Mg6  1  0.50000000  0.00000000  0.74751600  1
  Mg  Mg7  1  0.50000000  0.50000000  0.74705700  1
  Mg  Mg8  1  0.50000000  0.00000000  0.25248400  1
  Mg  Mg9  1  0.50000000  0.50000000  0.25294300  1
  Mg  Mg10  1  0.00000000  0.74833000  0.74683500  1
  Mg  Mg11  1  0.00000000  0.25167000  0.74683500  1
  Mg  Mg12  1  0.00000000  0.74833000  0.25316500  1
  Mg  Mg13  1  0.00000000  0.25167000  0.25316500  1
  Mn  Mn0  1  0.00000000  0.00000000  0.00000000  1
  Cr  Cr0  1  0.00000000  0.50000000  0.00000000  1
  O  O0  1  0.00000000  0.00000000  0.74361100  1
  O  O1  1  0.00000000  0.50000000  0.73573500  1
  O  O2  1  0.00000000  0.00000000  0.25638900  1
  O  O3  1  0.00000000  0.50000000  0.26426500  1
  O  O4  1  0.50000000  0.75017300  0.75136900  1
  O  O5  1  0.50000000  0.24982700  0.75136900  1
  O  O6  1  0.50000000  0.75017300  0.24863100  1
  O  O7  1  0.50000000  0.24982700  0.24863100  1
  O  O8  1  0.50000000  0.00000000  0.00000000  1
  O  O9  1  0.50000000  0.50000000  0.00000000  1
  O  O10  1  0.50000000  0.00000000  0.50000000  1
  O  O11  1  0.50000000  0.50000000  0.50000000  1
  O  O12  1  0.00000000  0.74393100  0.00000000  1
  O  O13  1  0.00000000  0.25606900  0.00000000  1
  O  O14  1  0.00000000  0.75169300  0.50000000  1
  O  O15  1  0.00000000  0.24830700  0.50000000  1
loop_
_geom_bond_atom_site_label_1
_geom_bond_atom_site_label_2
_geom_bond_distance
_geom_bond_site_symmetry_2
Mg0 O2 2.108793 1_555
Mg0 O0 2.108793 1_555
Mg0 O15 2.116660 1_555
Mg0 O14 2.116660 1_545
Mg0 O10 2.142075 1_555
Mg0 O10 2.142075 1_455
Mg1 O3 2.040616 1_555
Mg1 O1 2.040616 1_555
Mg1 O11 2.142075 1_555
Mg1 O11 2.142075 1_455
Mg1 O14 2.145523 1_555
Mg1 O15 2.145523 1_555
Mg2 O9 2.119729 1_555
Mg2 O8 2.142454 1_565
Mg2 O12 2.142456 1_655
Mg2 O12 2.142456 1_555
Mg2 O6 2.152287 1_555
Mg2 O4 2.152287 1_554
Mg3 O9 2.119729 1_555
Mg3 O8 2.142454 1_555
Mg3 O13 2.142456 1_555
Mg3 O13 2.142456 1_655
Mg3 O7 2.152287 1_555
Mg3 O5 2.152287 1_554
Mg4 O11 2.127511 1_555
Mg4 O10 2.134672 1_565
Mg4 O14 2.142151 1_555
Mg4 O14 2.142151 1_655
Mg4 O4 2.175955 1_555
Mg4 O6 2.175955 1_555
Mg5 O11 2.127511 1_555
Mg5 O10 2.134672 1_555
Mg5 O15 2.142151 1_655
Mg5 O15 2.142151 1_555
Mg5 O5 2.175955 1_555
Mg5 O7 2.175955 1_555
Mg6 O5 2.129878 1_555
Mg6 O4 2.129878 1_545
Mg6 O0 2.142342 1_555
Mg6 O0 2.142342 1_655
Mg6 O10 2.142597 1_555
Mg6 O8 2.185601 1_556
Mg7 O5 2.132893 1_555
Mg7 O4 2.132893 1_555
Mg7 O11 2.138623 1_555
Mg7 O1 2.144316 1_655
Mg7 O1 2.144316 1_555
Mg7 O9 2.189575 1_556
Mg8 O6 2.129878 1_545
Mg8 O7 2.129878 1_555
Mg8 O2 2.142342 1_655
Mg8 O2 2.142342 1_555
Mg8 O10 2.142597 1_555
Mg8 O8 2.185601 1_555
Mg9 O7 2.132893 1_555
Mg9 O6 2.132893 1_555
Mg9 O11 2.138623 1_555
Mg9 O3 2.144316 1_655
Mg9 O3 2.144316 1_555
Mg9 O9 2.189575 1_555
Mg10 O1 2.119035 1_555
Mg10 O14 2.136894 1_555
Mg10 O4 2.142493 1_455
Mg10 O4 2.142493 1_555
Mg10 O0 2.145509 1_565
Mg10 O12 2.191817 1_556
Mg11 O1 2.119035 1_555
Mg11 O15 2.136894 1_555
Mg11 O5 2.142493 1_455
Mg11 O5 2.142493 1_555
Mg11 O0 2.145509 1_555
Mg11 O13 2.191817 1_556
Mg12 O3 2.119035 1_555
Mg12 O14 2.136894 1_555
Mg12 O6 2.142493 1_555
Mg12 O6 2.142493 1_455
Mg12 O2 2.145509 1_565
Mg12 O12 2.191817 1_555
Mg13 O3 2.119035 1_555
Mg13 O15 2.136894 1_555
Mg13 O7 2.142493 1_555
Mg13 O7 2.142493 1_455
Mg13 O2 2.145509 1_555
Mg13 O13 2.191817 1_555
Mn0 O8 2.142075 1_555
Mn0 O8 2.142075 1_455
Mn0 O12 2.182826 1_545
Mn0 O13 2.182826 1_555
Mn0 O2 2.219405 1_555
Mn0 O0 2.219405 1_554
Cr0 O12 2.079357 1_555
Cr0 O13 2.079357 1_555
Cr0 O9 2.142075 1_455
Cr0 O9 2.142075 1_555
Cr0 O1 2.287582 1_554
Cr0 O3 2.287582 1_555
