# generated using pymatgen
data_Li5Ce5(SiN3)4
_symmetry_space_group_name_H-M   'P 1'
_cell_length_a   10.92372100
_cell_length_b   10.92372100
_cell_length_c   5.55789900
_cell_angle_alpha   90.00000000
_cell_angle_beta   90.00000000
_cell_angle_gamma   90.00000000
_symmetry_Int_Tables_number   1
_chemical_formula_structural   Li5Ce5(SiN3)4
_chemical_formula_sum   'Li10 Ce10 Si8 N24'
_cell_volume   663.21119604
_cell_formula_units_Z   2
loop_
 _symmetry_equiv_pos_site_id
 _symmetry_equiv_pos_as_xyz
  1  'x, y, z'
loop_
 _atom_site_type_symbol
 _atom_site_label
 _atom_site_symmetry_multiplicity
 _atom_site_fract_x
 _atom_site_fract_y
 _atom_site_fract_z
 _atom_site_occupancy
  Li  Li0  1  0.29259400  0.88812100  0.85228300  1
  Li  Li1  1  0.20740600  0.38812100  0.85228300  1
  Li  Li2  1  0.70740600  0.11187900  0.85228300  1
  Li  Li3  1  0.79259400  0.61187900  0.85228300  1
  Li  Li4  1  0.88812100  0.70740600  0.14771700  1
  Li  Li5  1  0.61187900  0.20740600  0.14771700  1
  Li  Li6  1  0.11187900  0.29259400  0.14771700  1
  Li  Li7  1  0.38812100  0.79259400  0.14771700  1
  Li  Li8  1  0.50000000  0.00000000  0.00000000  1
  Li  Li9  1  0.00000000  0.50000000  0.00000000  1
  Ce  Ce0  1  0.37942600  0.61722600  0.72932100  1
  Ce  Ce1  1  0.12057400  0.11722600  0.72932100  1
  Ce  Ce2  1  0.62057400  0.38277400  0.72932100  1
  Ce  Ce3  1  0.87942600  0.88277400  0.72932100  1
  Ce  Ce4  1  0.61722600  0.62057400  0.27067900  1
  Ce  Ce5  1  0.88277400  0.12057400  0.27067900  1
  Ce  Ce6  1  0.38277400  0.37942600  0.27067900  1
  Ce  Ce7  1  0.11722600  0.87942600  0.27067900  1
  Ce  Ce8  1  0.50000000  0.00000000  0.50000000  1
  Ce  Ce9  1  0.00000000  0.50000000  0.50000000  1
  Si  Si0  1  0.60970700  0.76673000  0.76224800  1
  Si  Si1  1  0.89029300  0.26673000  0.76224800  1
  Si  Si2  1  0.39029300  0.23327000  0.76224800  1
  Si  Si3  1  0.10970700  0.73327000  0.76224800  1
  Si  Si4  1  0.76673000  0.39029300  0.23775200  1
  Si  Si5  1  0.73327000  0.89029300  0.23775200  1
  Si  Si6  1  0.23327000  0.60970700  0.23775200  1
  Si  Si7  1  0.26673000  0.10970700  0.23775200  1
  N  N0  1  0.46743900  0.83376500  0.79594900  1
  N  N1  1  0.03256100  0.33376500  0.79594900  1
  N  N2  1  0.53256100  0.16623500  0.79594900  1
  N  N3  1  0.96743900  0.66623500  0.79594900  1
  N  N4  1  0.83376500  0.53256100  0.20405100  1
  N  N5  1  0.66623500  0.03256100  0.20405100  1
  N  N6  1  0.16623500  0.46743900  0.20405100  1
  N  N7  1  0.33376500  0.96743900  0.20405100  1
  N  N8  1  0.60356400  0.60524600  0.73690000  1
  N  N9  1  0.89643600  0.10524600  0.73690000  1
  N  N10  1  0.39643600  0.39475400  0.73690000  1
  N  N11  1  0.10356400  0.89475400  0.73690000  1
  N  N12  1  0.60524600  0.39643600  0.26310000  1
  N  N13  1  0.89475400  0.89643600  0.26310000  1
  N  N14  1  0.39475400  0.60356400  0.26310000  1
  N  N15  1  0.10524600  0.10356400  0.26310000  1
  N  N16  1  0.21388300  0.71388300  0.00000000  1
  N  N17  1  0.28611700  0.21388300  0.00000000  1
  N  N18  1  0.78611700  0.28611700  0.00000000  1
  N  N19  1  0.71388300  0.78611700  0.00000000  1
  N  N20  1  0.67602800  0.82397200  0.50000000  1
  N  N21  1  0.82397200  0.32397200  0.50000000  1
  N  N22  1  0.32397200  0.17602800  0.50000000  1
  N  N23  1  0.17602800  0.67602800  0.50000000  1
loop_
_geom_bond_atom_site_label_1
_geom_bond_atom_site_label_2
_geom_bond_distance
_geom_bond_site_symmetry_2
Li0 N0 2.024483 1_555
Li0 N11 2.163413 1_555
Li0 N7 2.185264 1_556
Li0 N16 2.244098 1_556
Li1 N1 2.024483 1_555
Li1 N10 2.163413 1_555
Li1 N6 2.185264 1_556
Li1 N17 2.244098 1_556
Li2 N2 2.024483 1_555
Li2 N9 2.163413 1_555
Li2 N5 2.185264 1_556
Li2 N18 2.244098 1_556
Li3 N3 2.024483 1_555
Li3 N8 2.163413 1_555
Li3 N4 2.185264 1_556
Li3 N19 2.244098 1_556
Li4 N4 2.024483 1_555
Li4 N13 2.163413 1_555
Li4 N3 2.185264 1_554
Li4 N19 2.244098 1_555
Li5 N5 2.024483 1_555
Li5 N12 2.163413 1_555
Li5 N2 2.185264 1_554
Li5 N18 2.244098 1_555
Li6 N6 2.024483 1_555
Li6 N15 2.163413 1_555
Li6 N1 2.185264 1_554
Li6 N17 2.244098 1_555
Li7 N7 2.024483 1_555
Li7 N14 2.163413 1_555
Li7 N0 2.185264 1_554
Li7 N16 2.244098 1_555
Li8 N0 2.170298 1_544
Li8 N2 2.170298 1_554
Li8 N7 2.170298 1_545
Li8 N5 2.170298 1_555
Li9 N1 2.170298 1_554
Li9 N3 2.170298 1_454
Li9 N4 2.170298 1_455
Li9 N6 2.170298 1_555
Ce0 N10 2.437679 1_555
Ce0 N8 2.452278 1_555
Ce0 N16 2.578407 1_556
Ce0 N0 2.580048 1_555
Ce0 N14 2.600899 1_555
Ce0 N23 2.640782 1_555
Ce0 N14 2.975157 1_556
Ce1 N11 2.437679 1_545
Ce1 N9 2.452278 1_455
Ce1 N17 2.578407 1_556
Ce1 N1 2.580048 1_555
Ce1 N15 2.600899 1_555
Ce1 N22 2.640782 1_555
Ce1 N15 2.975157 1_556
Ce2 N8 2.437679 1_555
Ce2 N10 2.452278 1_555
Ce2 N18 2.578407 1_556
Ce2 N2 2.580048 1_555
Ce2 N12 2.600899 1_555
Ce2 N21 2.640782 1_555
Ce2 N12 2.975157 1_556
Ce3 N9 2.437679 1_565
Ce3 N11 2.452278 1_655
Ce3 N19 2.578407 1_556
Ce3 N3 2.580048 1_555
Ce3 N13 2.600899 1_555
Ce3 N20 2.640782 1_555
Ce3 N13 2.975157 1_556
Ce4 N14 2.437679 1_555
Ce4 N12 2.452278 1_555
Ce4 N19 2.578407 1_555
Ce4 N4 2.580048 1_555
Ce4 N8 2.600899 1_555
Ce4 N20 2.640782 1_555
Ce4 N8 2.975157 1_554
Ce5 N15 2.437679 1_655
Ce5 N13 2.452278 1_545
Ce5 N18 2.578407 1_555
Ce5 N5 2.580048 1_555
Ce5 N9 2.600899 1_555
Ce5 N21 2.640782 1_555
Ce5 N9 2.975157 1_554
Ce6 N12 2.437679 1_555
Ce6 N14 2.452278 1_555
Ce6 N17 2.578407 1_555
Ce6 N6 2.580048 1_555
Ce6 N10 2.600899 1_555
Ce6 N22 2.640782 1_555
Ce6 N10 2.975157 1_554
Ce7 N13 2.437679 1_455
Ce7 N15 2.452278 1_565
Ce7 N16 2.578407 1_555
Ce7 N7 2.580048 1_555
Ce7 N11 2.600899 1_555
Ce7 N23 2.640782 1_555
Ce7 N11 2.975157 1_554
Ce8 N7 2.475797 1_545
Ce8 N2 2.475797 1_555
Ce8 N5 2.475797 1_555
Ce8 N0 2.475797 1_545
Ce8 N20 2.719364 1_545
Ce8 N22 2.719364 1_555
Ce9 N1 2.475797 1_555
Ce9 N4 2.475797 1_455
Ce9 N6 2.475797 1_555
Ce9 N3 2.475797 1_455
Ce9 N23 2.719364 1_555
Ce9 N21 2.719364 1_455
N0 Si0 1.728155 1_555
N1 Si1 1.728155 1_455
N2 Si2 1.728155 1_555
N3 Si3 1.728155 1_655
N4 Si4 1.728155 1_555
N5 Si5 1.728155 1_545
N6 Si6 1.728155 1_555
N7 Si7 1.728155 1_565
N8 Si0 1.770895 1_555
N9 Si1 1.770895 1_555
N10 Si2 1.770895 1_555
N11 Si3 1.770895 1_555
N12 Si4 1.770895 1_555
N13 Si5 1.770895 1_555
N14 Si6 1.770895 1_555
N15 Si7 1.770895 1_555
N16 Si3 1.756694 1_554
N16 Si6 1.756694 1_555
N17 Si2 1.756694 1_554
N17 Si7 1.756694 1_555
N18 Si4 1.756694 1_555
N18 Si1 1.756694 1_554
N19 Si0 1.756694 1_554
N19 Si5 1.756694 1_555
N20 Si5 1.743646 1_555
N20 Si0 1.743646 1_555
N21 Si1 1.743646 1_555
N21 Si4 1.743646 1_555
N22 Si7 1.743646 1_555
N22 Si2 1.743646 1_555
N23 Si6 1.743646 1_555
N23 Si3 1.743646 1_555
