# generated using pymatgen
data_Sr7SiN6
_symmetry_space_group_name_H-M   'P 1'
_cell_length_a   11.61159100
_cell_length_b   6.60050500
_cell_length_c   13.74547000
_cell_angle_alpha   90.00000000
_cell_angle_beta   90.00000000
_cell_angle_gamma   90.00000000
_symmetry_Int_Tables_number   1
_chemical_formula_structural   Sr7SiN6
_chemical_formula_sum   'Sr28 Si4 N24'
_cell_volume   1053.48532132
_cell_formula_units_Z   4
loop_
 _symmetry_equiv_pos_site_id
 _symmetry_equiv_pos_as_xyz
  1  'x, y, z'
loop_
 _atom_site_type_symbol
 _atom_site_label
 _atom_site_symmetry_multiplicity
 _atom_site_fract_x
 _atom_site_fract_y
 _atom_site_fract_z
 _atom_site_occupancy
  Sr  Sr0  1  0.03875500  0.73948700  0.98058600  1
  Sr  Sr1  1  0.46124500  0.76051300  0.48058600  1
  Sr  Sr2  1  0.53875500  0.76051300  0.01941400  1
  Sr  Sr3  1  0.96124500  0.73948700  0.51941400  1
  Sr  Sr4  1  0.96124500  0.26051300  0.01941400  1
  Sr  Sr5  1  0.53875500  0.23948700  0.51941400  1
  Sr  Sr6  1  0.46124500  0.23948700  0.98058600  1
  Sr  Sr7  1  0.03875500  0.26051300  0.48058600  1
  Sr  Sr8  1  0.22095300  0.85757700  0.62466600  1
  Sr  Sr9  1  0.27904700  0.64242300  0.12466600  1
  Sr  Sr10  1  0.72095300  0.64242300  0.37533400  1
  Sr  Sr11  1  0.77904700  0.85757700  0.87533400  1
  Sr  Sr12  1  0.77904700  0.14242300  0.37533400  1
  Sr  Sr13  1  0.72095300  0.35757700  0.87533400  1
  Sr  Sr14  1  0.27904700  0.35757700  0.62466600  1
  Sr  Sr15  1  0.22095300  0.14242300  0.12466600  1
  Sr  Sr16  1  0.29332800  0.61327700  0.87263100  1
  Sr  Sr17  1  0.20667200  0.88672300  0.37263100  1
  Sr  Sr18  1  0.79332800  0.88672300  0.12736900  1
  Sr  Sr19  1  0.70667200  0.61327700  0.62736900  1
  Sr  Sr20  1  0.70667200  0.38672300  0.12736900  1
  Sr  Sr21  1  0.79332800  0.11327700  0.62736900  1
  Sr  Sr22  1  0.20667200  0.11327700  0.87263100  1
  Sr  Sr23  1  0.29332800  0.38672300  0.37263100  1
  Sr  Sr24  1  0.00000000  0.44168900  0.75000000  1
  Sr  Sr25  1  0.50000000  0.05831100  0.25000000  1
  Sr  Sr26  1  0.00000000  0.55831100  0.25000000  1
  Sr  Sr27  1  0.50000000  0.94168900  0.75000000  1
  Si  Si0  1  0.00000000  0.92888100  0.75000000  1
  Si  Si1  1  0.50000000  0.57111900  0.25000000  1
  Si  Si2  1  0.00000000  0.07111900  0.25000000  1
  Si  Si3  1  0.50000000  0.42888100  0.75000000  1
  N  N0  1  0.11929200  0.76901400  0.78895300  1
  N  N1  1  0.38070800  0.73098600  0.28895300  1
  N  N2  1  0.61929200  0.73098600  0.21104700  1
  N  N3  1  0.88070800  0.76901400  0.71104700  1
  N  N4  1  0.88070800  0.23098600  0.21104700  1
  N  N5  1  0.61929200  0.26901400  0.71104700  1
  N  N6  1  0.38070800  0.26901400  0.78895300  1
  N  N7  1  0.11929200  0.23098600  0.28895300  1
  N  N8  1  0.16600600  0.59356600  0.49993400  1
  N  N9  1  0.33399400  0.90643400  0.99993400  1
  N  N10  1  0.66600600  0.90643400  0.50006600  1
  N  N11  1  0.83399400  0.59356600  0.00006600  1
  N  N12  1  0.83399400  0.40643400  0.50006600  1
  N  N13  1  0.66600600  0.09356600  0.00006600  1
  N  N14  1  0.33399400  0.09356600  0.49993400  1
  N  N15  1  0.16600600  0.40643400  0.99993400  1
  N  N16  1  0.45857200  0.58655500  0.64864000  1
  N  N17  1  0.04142800  0.91344500  0.14864000  1
  N  N18  1  0.95857200  0.91344500  0.35136000  1
  N  N19  1  0.54142800  0.58655500  0.85136000  1
  N  N20  1  0.54142800  0.41344500  0.35136000  1
  N  N21  1  0.95857200  0.08655500  0.85136000  1
  N  N22  1  0.04142800  0.08655500  0.64864000  1
  N  N23  1  0.45857200  0.41344500  0.14864000  1
loop_
_geom_bond_atom_site_label_1
_geom_bond_atom_site_label_2
_geom_bond_distance
_geom_bond_site_symmetry_2
N0 Si0 1.821766 1_555
N0 Sr16 2.542319 1_555
N0 Sr8 2.614314 1_555
N0 Sr24 2.621676 1_555
N0 Sr22 2.741494 1_565
N0 Sr0 2.801949 1_555
N1 Si1 1.821766 1_555
N1 Sr17 2.542319 1_555
N1 Sr9 2.614314 1_555
N1 Sr25 2.621676 1_565
N1 Sr23 2.741494 1_555
N1 Sr1 2.801949 1_555
N2 Si1 1.821766 1_555
N2 Sr18 2.542319 1_555
N2 Sr10 2.614314 1_555
N2 Sr25 2.621676 1_565
N2 Sr20 2.741494 1_555
N2 Sr2 2.801949 1_555
N3 Si0 1.821766 1_655
N3 Sr19 2.542319 1_555
N3 Sr11 2.614314 1_555
N3 Sr24 2.621676 1_655
N3 Sr21 2.741494 1_565
N3 Sr3 2.801949 1_555
N4 Si2 1.821766 1_655
N4 Sr20 2.542319 1_555
N4 Sr12 2.614314 1_555
N4 Sr26 2.621676 1_655
N4 Sr18 2.741494 1_545
N4 Sr4 2.801949 1_555
N5 Si3 1.821766 1_555
N5 Sr21 2.542319 1_555
N5 Sr13 2.614314 1_555
N5 Sr27 2.621676 1_545
N5 Sr19 2.741494 1_555
N5 Sr5 2.801949 1_555
N6 Si3 1.821766 1_555
N6 Sr22 2.542319 1_555
N6 Sr14 2.614314 1_555
N6 Sr27 2.621676 1_545
N6 Sr16 2.741494 1_555
N6 Sr6 2.801949 1_555
N7 Si2 1.821766 1_555
N7 Sr23 2.542319 1_555
N7 Sr15 2.614314 1_555
N7 Sr26 2.621676 1_555
N7 Sr17 2.741494 1_545
N7 Sr7 2.801949 1_555
N8 Sr8 2.526511 1_555
N8 Sr3 2.579214 1_455
N8 Sr17 2.651240 1_555
N8 Sr7 2.662065 1_555
N8 Sr14 2.662453 1_555
N8 Sr23 2.666757 1_555
N9 Sr9 2.526511 1_556
N9 Sr2 2.579214 1_556
N9 Sr16 2.651240 1_555
N9 Sr6 2.662065 1_565
N9 Sr15 2.662453 1_566
N9 Sr22 2.666757 1_565
N10 Sr10 2.526511 1_555
N10 Sr1 2.579214 1_555
N10 Sr19 2.651240 1_555
N10 Sr5 2.662065 1_565
N10 Sr12 2.662453 1_565
N10 Sr21 2.666757 1_565
N11 Sr11 2.526511 1_554
N11 Sr0 2.579214 1_654
N11 Sr18 2.651240 1_555
N11 Sr4 2.662065 1_555
N11 Sr13 2.662453 1_554
N11 Sr20 2.666757 1_555
N12 Sr12 2.526511 1_555
N12 Sr7 2.579214 1_655
N12 Sr21 2.651240 1_555
N12 Sr3 2.662065 1_555
N12 Sr10 2.662453 1_555
N12 Sr19 2.666757 1_555
N13 Sr13 2.526511 1_554
N13 Sr6 2.579214 1_554
N13 Sr20 2.651240 1_555
N13 Sr2 2.662065 1_545
N13 Sr11 2.662453 1_544
N13 Sr18 2.666757 1_545
N14 Sr14 2.526511 1_555
N14 Sr5 2.579214 1_555
N14 Sr23 2.651240 1_555
N14 Sr1 2.662065 1_545
N14 Sr8 2.662453 1_545
N14 Sr17 2.666757 1_545
N15 Sr15 2.526511 1_556
N15 Sr4 2.579214 1_456
N15 Sr22 2.651240 1_555
N15 Sr0 2.662065 1_555
N15 Sr9 2.662453 1_556
N15 Sr16 2.666757 1_555
N16 Si3 1.804339 1_555
N16 Sr1 2.579799 1_555
N16 Sr14 2.595818 1_555
N16 Sr27 2.768964 1_555
N16 Sr19 2.901002 1_555
N16 Sr5 3.044647 1_555
N17 Si2 1.804339 1_565
N17 Sr0 2.579799 1_554
N17 Sr15 2.595818 1_565
N17 Sr26 2.768964 1_555
N17 Sr18 2.901002 1_455
N17 Sr4 3.044647 1_465
N18 Si2 1.804339 1_665
N18 Sr3 2.579799 1_555
N18 Sr12 2.595818 1_565
N18 Sr26 2.768964 1_655
N18 Sr17 2.901002 1_655
N18 Sr7 3.044647 1_665
N19 Si3 1.804339 1_555
N19 Sr2 2.579799 1_556
N19 Sr13 2.595818 1_555
N19 Sr27 2.768964 1_555
N19 Sr16 2.901002 1_555
N19 Sr6 3.044647 1_555
N20 Si1 1.804339 1_555
N20 Sr5 2.579799 1_555
N20 Sr10 2.595818 1_555
N20 Sr25 2.768964 1_555
N20 Sr23 2.901002 1_555
N20 Sr1 3.044647 1_555
N21 Si0 1.804339 1_645
N21 Sr4 2.579799 1_556
N21 Sr11 2.595818 1_545
N21 Sr24 2.768964 1_655
N21 Sr22 2.901002 1_655
N21 Sr0 3.044647 1_645
N22 Si0 1.804339 1_545
N22 Sr7 2.579799 1_555
N22 Sr8 2.595818 1_545
N22 Sr24 2.768964 1_555
N22 Sr21 2.901002 1_455
N22 Sr3 3.044647 1_445
N23 Si1 1.804339 1_555
N23 Sr6 2.579799 1_554
N23 Sr9 2.595818 1_555
N23 Sr25 2.768964 1_555
N23 Sr20 2.901002 1_555
N23 Sr2 3.044647 1_555
