# generated using pymatgen
data_Sm2Mn12P7
_symmetry_space_group_name_H-M   'P 1'
_cell_length_a   9.32432447
_cell_length_b   9.32432447
_cell_length_c   3.62999900
_cell_angle_alpha   90.00000000
_cell_angle_beta   90.00000000
_cell_angle_gamma   120.00000334
_symmetry_Int_Tables_number   1
_chemical_formula_structural   Sm2Mn12P7
_chemical_formula_sum   'Sm2 Mn12 P7'
_cell_volume   273.32029330
_cell_formula_units_Z   1
loop_
 _symmetry_equiv_pos_site_id
 _symmetry_equiv_pos_as_xyz
  1  'x, y, z'
loop_
 _atom_site_type_symbol
 _atom_site_label
 _atom_site_symmetry_multiplicity
 _atom_site_fract_x
 _atom_site_fract_y
 _atom_site_fract_z
 _atom_site_occupancy
  Sm  Sm0  1  0.66666700  0.33333300  0.00000000  1
  Sm  Sm1  1  0.33333300  0.66666700  0.50000000  1
  Mn  Mn0  1  0.42547800  0.04746600  0.50000000  1
  Mn  Mn1  1  0.95253400  0.37801300  0.50000000  1
  Mn  Mn2  1  0.62198700  0.57452200  0.50000000  1
  Mn  Mn3  1  0.15435300  0.27374100  0.50000000  1
  Mn  Mn4  1  0.72625900  0.88061200  0.50000000  1
  Mn  Mn5  1  0.11938800  0.84564700  0.50000000  1
  Mn  Mn6  1  0.39027300  0.43468200  0.00000000  1
  Mn  Mn7  1  0.56531800  0.95559100  0.00000000  1
  Mn  Mn8  1  0.04440900  0.60972700  0.00000000  1
  Mn  Mn9  1  0.22186300  0.10084600  0.00000000  1
  Mn  Mn10  1  0.89915400  0.12101700  0.00000000  1
  Mn  Mn11  1  0.87898300  0.77813700  0.00000000  1
  P  P0  1  0.12243200  0.40410800  0.00000000  1
  P  P1  1  0.59589200  0.71832300  0.00000000  1
  P  P2  1  0.28167700  0.87756800  0.00000000  1
  P  P3  1  0.00000000  0.00000000  0.50000000  1
  P  P4  1  0.40665300  0.28843500  0.50000000  1
  P  P5  1  0.71156500  0.11821800  0.50000000  1
  P  P6  1  0.88178200  0.59334700  0.50000000  1
loop_
_geom_bond_atom_site_label_1
_geom_bond_atom_site_label_2
_geom_bond_distance
_geom_bond_site_symmetry_2
Mn0 P4 2.339582 1_555
Mn0 P2 2.340424 1_545
Mn0 P2 2.340424 1_546
Mn0 P5 2.406514 1_555
Mn1 P5 2.339587 1_555
Mn1 P0 2.340428 1_655
Mn1 P0 2.340428 1_656
Mn1 P6 2.406505 1_555
Mn2 P6 2.339591 1_555
Mn2 P1 2.340417 1_555
Mn2 P1 2.340417 1_556
Mn2 P4 2.406511 1_555
Mn3 P3 2.216489 1_555
Mn3 P0 2.285228 1_556
Mn3 P0 2.285228 1_555
Mn3 P4 2.287101 1_555
Mn4 P3 2.216489 1_665
Mn4 P1 2.285232 1_555
Mn4 P1 2.285232 1_556
Mn4 P5 2.287101 1_565
Mn5 P3 2.216489 1_565
Mn5 P2 2.285234 1_555
Mn5 P2 2.285234 1_556
Mn5 P6 2.287101 1_455
Mn6 P4 2.320642 1_554
Mn6 P4 2.320642 1_555
Mn6 P1 2.366421 1_555
Mn6 P0 2.367802 1_555
Mn7 P5 2.320642 1_565
Mn7 P5 2.320642 1_564
Mn7 P2 2.366419 1_555
Mn7 P1 2.367811 1_555
Mn8 P6 2.320642 1_454
Mn8 P6 2.320642 1_455
Mn8 P0 2.366428 1_555
Mn8 P2 2.367806 1_555
Mn9 P2 2.409683 1_545
Mn9 P4 2.511722 1_554
Mn9 P4 2.511722 1_555
Mn9 P3 2.552014 1_555
Mn9 P3 2.552014 1_554
Mn10 P0 2.409676 1_655
Mn10 P5 2.511722 1_555
Mn10 P5 2.511722 1_554
Mn10 P3 2.552014 1_655
Mn10 P3 2.552014 1_654
Mn11 P1 2.409674 1_555
Mn11 P6 2.511722 1_555
Mn11 P6 2.511722 1_554
Mn11 P3 2.552014 1_665
Mn11 P3 2.552014 1_664
P0 Sm1 2.888012 1_554
P0 Sm1 2.888012 1_555
P1 Sm1 2.888017 1_554
P1 Sm1 2.888017 1_555
P2 Sm1 2.888003 1_555
P2 Sm1 2.888003 1_554
P4 Sm0 2.886604 1_556
P4 Sm0 2.886604 1_555
P5 Sm0 2.886597 1_556
P5 Sm0 2.886597 1_555
P6 Sm0 2.886602 1_556
P6 Sm0 2.886602 1_555
