# generated using pymatgen
data_Dy3Pd2
_symmetry_space_group_name_H-M   'P 1'
_cell_length_a   3.96733816
_cell_length_b   7.72192161
_cell_length_c   7.72192161
_cell_angle_alpha   90.00000000
_cell_angle_beta   90.00000000
_cell_angle_gamma   90.00000000
_symmetry_Int_Tables_number   1
_chemical_formula_structural   Dy3Pd2
_chemical_formula_sum   'Dy6 Pd4'
_cell_volume   236.56473081
_cell_formula_units_Z   2
loop_
 _symmetry_equiv_pos_site_id
 _symmetry_equiv_pos_as_xyz
  1  'x, y, z'
loop_
 _atom_site_type_symbol
 _atom_site_label
 _atom_site_symmetry_multiplicity
 _atom_site_fract_x
 _atom_site_fract_y
 _atom_site_fract_z
 _atom_site_occupancy
  Dy  Dy0  1  0.50000000  0.66493377  0.83506623  1
  Dy  Dy1  1  0.50000000  0.83506623  0.33506623  1
  Dy  Dy2  1  0.50000000  0.33506623  0.16493377  1
  Dy  Dy3  1  0.50000000  0.16493377  0.66493377  1
  Dy  Dy4  1  -0.00000000  0.50000000  0.50000000  1
  Dy  Dy5  1  -0.00000000  0.00000000  0.00000000  1
  Pd  Pd0  1  -0.00000000  0.63290485  0.13290485  1
  Pd  Pd1  1  0.00000000  0.86709515  0.63290485  1
  Pd  Pd2  1  -0.00000000  0.13290485  0.36709515  1
  Pd  Pd3  1  0.00000000  0.36709515  0.86709515  1
loop_
_geom_bond_atom_site_label_1
_geom_bond_atom_site_label_2
_geom_bond_distance
_geom_bond_site_symmetry_2
Dy0 Pd1 2.967971 1_555
Dy0 Pd1 2.967971 1_655
Dy0 Pd3 3.047227 1_655
Dy0 Pd3 3.047227 1_555
Dy0 Pd0 3.047227 1_556
Dy0 Pd0 3.047227 1_656
Dy1 Pd0 2.967971 1_555
Dy1 Pd0 2.967971 1_655
Dy1 Pd1 3.047227 1_555
Dy1 Pd1 3.047227 1_655
Dy1 Pd2 3.047227 1_565
Dy1 Pd2 3.047227 1_665
Dy2 Pd2 2.967971 1_555
Dy2 Pd2 2.967971 1_655
Dy2 Pd3 3.047227 1_554
Dy2 Pd3 3.047227 1_654
Dy2 Pd0 3.047227 1_655
Dy2 Pd0 3.047227 1_555
Dy3 Pd3 2.967971 1_655
Dy3 Pd3 2.967971 1_555
Dy3 Pd1 3.047227 1_645
Dy3 Pd1 3.047227 1_545
Dy3 Pd2 3.047227 1_555
Dy3 Pd2 3.047227 1_655
Dy4 Pd2 3.014741 1_555
Dy4 Pd1 3.014741 1_555
Dy4 Pd0 3.014741 1_555
Dy4 Pd3 3.014741 1_555
Dy5 Pd3 3.014741 1_554
Dy5 Pd2 3.014741 1_555
Dy5 Pd1 3.014741 1_544
Dy5 Pd0 3.014741 1_545
Pd0 Pd3 2.902761 1_554
Pd1 Pd2 2.902761 1_565
