# generated using pymatgen
data_RbCdN3
_symmetry_space_group_name_H-M   'P 1'
_cell_length_a   4.58767000
_cell_length_b   4.58767000
_cell_length_c   4.58767000
_cell_angle_alpha   90.00000000
_cell_angle_beta   90.00000000
_cell_angle_gamma   90.00000000
_symmetry_Int_Tables_number   1
_chemical_formula_structural   RbCdN3
_chemical_formula_sum   'Rb1 Cd1 N3'
_cell_volume   96.55538772
_cell_formula_units_Z   1
loop_
 _symmetry_equiv_pos_site_id
 _symmetry_equiv_pos_as_xyz
  1  'x, y, z'
loop_
 _atom_site_type_symbol
 _atom_site_label
 _atom_site_symmetry_multiplicity
 _atom_site_fract_x
 _atom_site_fract_y
 _atom_site_fract_z
 _atom_site_occupancy
  Rb  Rb0  1  0.50000000  0.50000000  0.50000000  1
  Cd  Cd0  1  0.00000000  0.00000000  0.00000000  1
  N  N0  1  0.50000000  0.00000000  0.00000000  1
  N  N1  1  0.00000000  0.50000000  0.00000000  1
  N  N2  1  0.00000000  0.00000000  0.50000000  1
loop_
_geom_bond_atom_site_label_1
_geom_bond_atom_site_label_2
_geom_bond_distance
_geom_bond_site_symmetry_2
Cd0 N0 2.293835 1_555
Cd0 N2 2.293835 1_555
Cd0 N0 2.293835 1_455
Cd0 N2 2.293835 1_554
Cd0 N1 2.293835 1_555
Cd0 N1 2.293835 1_545
N0 Rb0 3.243973 1_554
N0 Rb0 3.243973 1_555
N0 Rb0 3.243973 1_545
N0 Rb0 3.243973 1_544
N1 Rb0 3.243973 1_554
N1 Rb0 3.243973 1_455
N1 Rb0 3.243973 1_555
N1 Rb0 3.243973 1_454
N2 Rb0 3.243973 1_445
N2 Rb0 3.243973 1_455
N2 Rb0 3.243973 1_555
N2 Rb0 3.243973 1_545
