# generated using pymatgen
data_Ti4Zn(CuO4)3
_symmetry_space_group_name_H-M   'P 1'
_cell_length_a   6.43526677
_cell_length_b   6.43526677
_cell_length_c   6.43526677
_cell_angle_alpha   109.47122063
_cell_angle_beta   109.47122063
_cell_angle_gamma   109.47122063
_symmetry_Int_Tables_number   1
_chemical_formula_structural   Ti4Zn(CuO4)3
_chemical_formula_sum   'Ti4 Zn1 Cu3 O12'
_cell_volume   205.15295346
_cell_formula_units_Z   1
loop_
 _symmetry_equiv_pos_site_id
 _symmetry_equiv_pos_as_xyz
  1  'x, y, z'
loop_
 _atom_site_type_symbol
 _atom_site_label
 _atom_site_symmetry_multiplicity
 _atom_site_fract_x
 _atom_site_fract_y
 _atom_site_fract_z
 _atom_site_occupancy
  Ti  Ti0  1  0.50000000  0.50000000  0.50000000  1
  Ti  Ti1  1  0.00000000  0.50000000  0.00000000  1
  Ti  Ti2  1  0.00000000  0.00000000  0.50000000  1
  Ti  Ti3  1  0.50000000  0.00000000  0.00000000  1
  Zn  Zn0  1  0.00000000  0.00000000  0.00000000  1
  Cu  Cu0  1  0.50000000  0.50000000  0.00000000  1
  Cu  Cu1  1  0.50000000  0.00000000  0.50000000  1
  Cu  Cu2  1  0.00000000  0.50000000  0.50000000  1
  O  O0  1  0.30301200  0.82340700  0.12641900  1
  O  O1  1  0.69698800  0.17659300  0.87358100  1
  O  O2  1  0.69698800  0.82340700  0.52039400  1
  O  O3  1  0.87358100  0.69698800  0.17659300  1
  O  O4  1  0.82340700  0.12641900  0.30301200  1
  O  O5  1  0.17659300  0.47960600  0.30301200  1
  O  O6  1  0.47960600  0.30301200  0.17659300  1
  O  O7  1  0.17659300  0.87358100  0.69698800  1
  O  O8  1  0.30301200  0.17659300  0.47960600  1
  O  O9  1  0.12641900  0.30301200  0.82340700  1
  O  O10  1  0.82340700  0.52039400  0.69698800  1
  O  O11  1  0.52039400  0.69698800  0.82340700  1
loop_
_geom_bond_atom_site_label_1
_geom_bond_atom_site_label_2
_geom_bond_distance
_geom_bond_site_symmetry_2
Cu0 O6 1.965857 1_555
Cu0 O11 1.965857 1_554
Cu0 O9 1.965857 1_554
Cu0 O3 1.965857 1_555
Cu1 O8 1.965857 1_555
Cu1 O2 1.965857 1_545
Cu1 O0 1.965857 1_545
Cu1 O1 1.965857 1_555
Cu2 O5 1.965857 1_555
Cu2 O10 1.965857 1_455
Cu2 O4 1.965857 1_455
Cu2 O7 1.965857 1_555
O0 Ti3 1.975796 1_565
O0 Ti1 1.975796 1_555
O0 Zn0 2.606099 1_565
O1 Ti1 1.975796 1_656
O1 Ti3 1.975796 1_556
O1 Zn0 2.606099 1_656
O2 Ti2 1.975792 1_665
O2 Ti0 1.975799 1_555
O2 Zn0 2.606104 1_666
O3 Ti2 1.975796 1_665
O3 Ti1 1.975796 1_655
O3 Zn0 2.606099 1_665
O4 Ti3 1.975796 1_555
O4 Ti2 1.975796 1_655
O4 Zn0 2.606099 1_655
O5 Ti1 1.975792 1_555
O5 Ti0 1.975799 1_555
O5 Zn0 2.606104 1_555
O6 Ti3 1.975792 1_555
O6 Ti0 1.975799 1_555
O6 Zn0 2.606104 1_555
O7 Ti2 1.975796 1_565
O7 Ti3 1.975796 1_566
O7 Zn0 2.606099 1_566
O8 Ti2 1.975792 1_555
O8 Ti0 1.975799 1_555
O8 Zn0 2.606104 1_555
O9 Ti1 1.975796 1_556
O9 Ti2 1.975796 1_555
O9 Zn0 2.606099 1_556
O10 Ti1 1.975792 1_656
O10 Ti0 1.975799 1_555
O10 Zn0 2.606104 1_666
O11 Ti3 1.975792 1_566
O11 Ti0 1.975799 1_555
O11 Zn0 2.606104 1_666
