# generated using pymatgen
data_LiSc4(Si2O7)2
_symmetry_space_group_name_H-M   'P 1'
_cell_length_a   6.71475062
_cell_length_b   6.71475081
_cell_length_c   6.71310100
_cell_angle_alpha   60.00812239
_cell_angle_beta   60.00812147
_cell_angle_gamma   60.10736800
_symmetry_Int_Tables_number   1
_chemical_formula_structural   LiSc4(Si2O7)2
_chemical_formula_sum   'Li1 Sc4 Si4 O14'
_cell_volume   214.22617060
_cell_formula_units_Z   1
loop_
 _symmetry_equiv_pos_site_id
 _symmetry_equiv_pos_as_xyz
  1  'x, y, z'
loop_
 _atom_site_type_symbol
 _atom_site_label
 _atom_site_symmetry_multiplicity
 _atom_site_fract_x
 _atom_site_fract_y
 _atom_site_fract_z
 _atom_site_occupancy
  Li  Li0  1  0.62638700  0.62638700  0.62361300  1
  Sc  Sc0  1  0.99997700  0.49973700  0.00014300  1
  Sc  Sc1  1  0.49973700  0.99997700  0.00014300  1
  Sc  Sc2  1  0.99997000  0.99997000  0.49958100  1
  Sc  Sc3  1  0.99997000  0.99997000  0.00047900  1
  Si  Si0  1  0.49327300  0.01986900  0.49342900  1
  Si  Si1  1  0.01986900  0.49327300  0.49342900  1
  Si  Si2  1  0.49383800  0.49383800  0.01854500  1
  Si  Si3  1  0.49383800  0.49383800  0.49378000  1
  O  O0  1  0.42777100  0.82277300  0.82222300  1
  O  O1  1  0.17965000  0.57054500  0.57078000  1
  O  O2  1  0.82277300  0.42777100  0.82222300  1
  O  O3  1  0.82348000  0.82348000  0.42652000  1
  O  O4  1  0.42781600  0.42781600  0.82218400  1
  O  O5  1  0.42777100  0.82277300  0.42723200  1
  O  O6  1  0.17965000  0.57054500  0.17902400  1
  O  O7  1  0.57054500  0.17965000  0.57078000  1
  O  O8  1  0.12546200  0.12546200  0.12453800  1
  O  O9  1  0.87480000  0.87480000  0.87520000  1
  O  O10  1  0.82277300  0.42777100  0.42723200  1
  O  O11  1  0.57097800  0.57097800  0.17902200  1
  O  O12  1  0.17912600  0.17912600  0.57087400  1
  O  O13  1  0.57054500  0.17965000  0.17902400  1
loop_
_geom_bond_atom_site_label_1
_geom_bond_atom_site_label_2
_geom_bond_distance
_geom_bond_site_symmetry_2
Li0 O3 1.870323 1_555
Li0 O0 1.876781 1_555
Li0 O2 1.876781 1_555
Li0 O5 1.876786 1_555
Li0 O10 1.876786 1_555
Li0 O4 1.884349 1_555
O0 Si0 1.872437 1_565
O0 Si2 1.873450 1_556
O0 Sc1 2.376321 1_556
O0 Sc3 2.383154 1_456
O1 Si1 1.752472 1_555
O1 Si3 1.753886 1_555
O1 Sc0 2.390533 1_456
O1 Sc2 2.393657 1_455
O2 Si1 1.872437 1_655
O2 Si2 1.873450 1_556
O2 Sc0 2.376321 1_556
O2 Sc3 2.383154 1_546
O3 Si0 1.881236 1_565
O3 Si1 1.881236 1_655
O3 Sc3 2.368858 1_555
O3 Sc2 2.368858 1_555
O4 Si3 1.869504 1_555
O4 Si2 1.869510 1_556
O4 Sc0 2.382500 1_456
O4 Sc1 2.382500 1_546
O5 Si0 1.872442 1_565
O5 Si3 1.873447 1_555
O5 Sc1 2.376315 1_555
O5 Sc2 2.383153 1_455
O6 Si1 1.752477 1_555
O6 Si2 1.753884 1_555
O6 Sc0 2.390528 1_455
O6 Sc3 2.393656 1_455
O7 Si0 1.752472 1_555
O7 Si3 1.753887 1_555
O7 Sc1 2.390533 1_546
O7 Sc2 2.393657 1_545
O8 Sc1 2.053752 1_545
O8 Sc0 2.053752 1_455
O8 Sc2 2.055396 1_445
O8 Sc3 2.055396 1_445
O9 Sc1 2.058065 1_556
O9 Sc0 2.058065 1_556
O9 Sc2 2.058547 1_555
O9 Sc3 2.058548 1_556
O10 Si1 1.872442 1_655
O10 Si3 1.873447 1_555
O10 Sc0 2.376315 1_555
O10 Sc2 2.383153 1_545
O11 Si2 1.755093 1_555
O11 Si3 1.755099 1_555
O11 Sc0 2.389832 1_555
O11 Sc1 2.389832 1_555
O12 Si0 1.753421 1_555
O12 Si1 1.753421 1_555
O12 Sc3 2.391047 1_446
O12 Sc2 2.391047 1_445
O13 Si0 1.752477 1_555
O13 Si2 1.753884 1_555
O13 Sc1 2.390528 1_545
O13 Sc3 2.393656 1_545
