# generated using pymatgen
data_Li3Ni
_symmetry_space_group_name_H-M   'P 1'
_cell_length_a   5.43662444
_cell_length_b   5.43662444
_cell_length_c   4.46532100
_cell_angle_alpha   90.00000000
_cell_angle_beta   90.00000000
_cell_angle_gamma   120.00000532
_symmetry_Int_Tables_number   1
_chemical_formula_structural   Li3Ni
_chemical_formula_sum   'Li6 Ni2'
_cell_volume   114.29887581
_cell_formula_units_Z   2
loop_
 _symmetry_equiv_pos_site_id
 _symmetry_equiv_pos_as_xyz
  1  'x, y, z'
loop_
 _atom_site_type_symbol
 _atom_site_label
 _atom_site_symmetry_multiplicity
 _atom_site_fract_x
 _atom_site_fract_y
 _atom_site_fract_z
 _atom_site_occupancy
  Li  Li0  1  0.17459400  0.34918800  0.25000000  1
  Li  Li1  1  0.65081200  0.82540600  0.25000000  1
  Li  Li2  1  0.17459400  0.82540600  0.25000000  1
  Li  Li3  1  0.82540600  0.65081200  0.75000000  1
  Li  Li4  1  0.34918800  0.17459400  0.75000000  1
  Li  Li5  1  0.82540600  0.17459400  0.75000000  1
  Ni  Ni0  1  0.33333300  0.66666700  0.75000000  1
  Ni  Ni1  1  0.66666700  0.33333300  0.25000000  1
loop_
_geom_bond_atom_site_label_1
_geom_bond_atom_site_label_2
_geom_bond_distance
_geom_bond_site_symmetry_2
Li0 Li1 2.589018 1_555
Li0 Li2 2.589018 1_555
Li0 Ni0 2.686841 1_554
Li0 Ni0 2.686841 1_555
Li0 Ni1 2.719334 1_455
Li0 Ni1 2.719340 1_555
Li0 Li5 2.772675 1_455
Li0 Li5 2.772675 1_454
Li0 Li4 2.772675 1_555
Li0 Li4 2.772675 1_554
Li0 Li1 2.847606 1_445
Li0 Li2 2.847606 1_545
Li1 Li2 2.589018 1_555
Li1 Ni0 2.686841 1_554
Li1 Ni0 2.686841 1_555
Li1 Ni1 2.719334 1_565
Li1 Ni1 2.719340 1_555
Li1 Li5 2.772675 1_564
Li1 Li5 2.772675 1_565
Li1 Li3 2.772675 1_555
Li1 Li3 2.772675 1_554
Li1 Li2 2.847606 1_655
Li2 Ni0 2.686839 1_555
Li2 Ni0 2.686839 1_554
Li2 Ni1 2.719337 1_455
Li2 Ni1 2.719337 1_565
Li2 Li4 2.772675 1_564
Li2 Li3 2.772675 1_455
Li2 Li4 2.772675 1_565
Li2 Li3 2.772675 1_454
Li3 Li4 2.589018 1_555
Li3 Li5 2.589018 1_555
Li3 Ni1 2.686841 1_555
Li3 Ni1 2.686841 1_556
Li3 Ni0 2.719334 1_655
Li3 Ni0 2.719340 1_555
Li3 Li4 2.847606 1_665
Li3 Li5 2.847606 1_565
Li4 Li5 2.589018 1_555
Li4 Ni1 2.686841 1_555
Li4 Ni1 2.686841 1_556
Li4 Ni0 2.719334 1_545
Li4 Ni0 2.719340 1_555
Li4 Li5 2.847606 1_455
Li5 Ni1 2.686839 1_556
Li5 Ni1 2.686839 1_555
Li5 Ni0 2.719337 1_545
Li5 Ni0 2.719337 1_655
