# generated using pymatgen
data_YbSi3
_symmetry_space_group_name_H-M   'P 1'
_cell_length_a   7.30624365
_cell_length_b   7.30624365
_cell_length_c   7.30624365
_cell_angle_alpha   121.42600112
_cell_angle_beta   121.42600112
_cell_angle_gamma   87.54734415
_symmetry_Int_Tables_number   1
_chemical_formula_structural   YbSi3
_chemical_formula_sum   'Yb4 Si12'
_cell_volume   269.57037692
_cell_formula_units_Z   4
loop_
 _symmetry_equiv_pos_site_id
 _symmetry_equiv_pos_as_xyz
  1  'x, y, z'
loop_
 _atom_site_type_symbol
 _atom_site_label
 _atom_site_symmetry_multiplicity
 _atom_site_fract_x
 _atom_site_fract_y
 _atom_site_fract_z
 _atom_site_occupancy
  Yb  Yb0  1  0.83110563  0.83110563  0.00000000  1
  Yb  Yb1  1  0.16889437  0.16889437  0.00000000  1
  Yb  Yb2  1  0.75000000  0.25000000  0.50000000  1
  Yb  Yb3  1  0.25000000  0.75000000  0.50000000  1
  Si  Si0  1  0.19783031  0.19783031  0.62536529  1
  Si  Si1  1  0.57246402  0.57246402  0.37463471  1
  Si  Si2  1  0.19783031  0.57246402  0.00000000  1
  Si  Si3  1  0.57246402  0.19783031  0.00000000  1
  Si  Si4  1  0.80216969  0.80216969  0.37463471  1
  Si  Si5  1  0.42753598  0.42753598  0.62536529  1
  Si  Si6  1  0.80216969  0.42753598  0.00000000  1
  Si  Si7  1  0.42753598  0.80216969  0.00000000  1
  Si  Si8  1  0.32651188  0.00000000  0.32651188  1
  Si  Si9  1  0.67348812  0.00000000  0.67348812  1
  Si  Si10  1  0.00000000  0.67348812  0.67348812  1
  Si  Si11  1  0.00000000  0.32651188  0.32651188  1
loop_
_geom_bond_atom_site_label_1
_geom_bond_atom_site_label_2
_geom_bond_distance
_geom_bond_site_symmetry_2
Si0 Si5 2.423707 1_555
Si0 Si11 2.544426 1_555
Si0 Si8 2.544426 1_555
Si0 Si2 2.677961 1_556
Si0 Si3 2.677961 1_556
Si0 Yb1 2.965165 1_556
Si0 Yb3 2.970199 1_545
Si0 Yb2 2.970199 1_455
Si0 Yb0 3.211956 1_445
Si1 Si4 2.423707 1_555
Si1 Si9 2.544431 1_565
Si1 Si10 2.544431 1_655
Si1 Si2 2.677961 1_555
Si1 Si3 2.677961 1_555
Si1 Yb1 2.965157 1_555
Si1 Yb3 2.970194 1_555
Si1 Yb2 2.970194 1_555
Si1 Yb0 3.211954 1_556
Si2 Si7 2.423707 1_555
Si2 Si8 2.544432 1_565
Si2 Yb1 2.965158 1_555
Si2 Yb3 2.970198 1_555
Si2 Yb2 2.970198 1_454
Si2 Yb0 3.211960 1_455
Si3 Si6 2.423707 1_555
Si3 Si9 2.544432 1_554
Si3 Yb1 2.965158 1_555
Si3 Yb3 2.970198 1_544
Si3 Yb2 2.970198 1_555
Si3 Yb0 3.211960 1_545
Si4 Si9 2.544426 1_565
Si4 Si7 2.677961 1_555
Si4 Si6 2.677961 1_555
Si4 Yb0 2.965165 1_555
Si4 Yb3 2.970199 1_655
Si4 Yb2 2.970199 1_565
Si4 Yb1 3.211956 1_666
Si5 Si8 2.544431 1_555
Si5 Si7 2.677961 1_556
Si5 Si6 2.677961 1_556
Si5 Yb0 2.965157 1_556
Si5 Yb2 2.970194 1_555
Si5 Yb3 2.970194 1_555
Si5 Yb1 3.211954 1_555
Si6 Si9 2.544432 1_554
Si6 Yb0 2.965158 1_555
Si6 Yb3 2.970198 1_655
Si6 Yb2 2.970198 1_554
Si6 Yb1 3.211960 1_655
Si7 Si8 2.544432 1_565
Si7 Yb0 2.965158 1_555
Si7 Yb2 2.970198 1_565
Si7 Yb3 2.970198 1_554
Si7 Yb1 3.211960 1_565
Si8 Si9 2.480257 1_555
Si8 Yb2 2.914810 1_555
Si8 Yb3 2.914810 1_545
Si8 Yb1 2.936526 1_555
Si8 Yb0 2.936526 1_445
Si9 Yb3 2.914810 1_545
Si9 Yb2 2.914810 1_555
Si9 Yb1 2.936526 1_656
Si9 Yb0 2.936526 1_546
Si10 Si11 2.480257 1_555
Si10 Si4 2.544426 1_455
Si10 Si7 2.544432 1_556
Si10 Si2 2.544432 1_556
Si10 Yb3 2.914810 1_555
Si10 Yb2 2.914810 1_455
Si10 Yb1 2.936526 1_566
Si10 Yb0 2.936526 1_456
Si11 Si5 2.544431 1_555
Si11 Si6 2.544432 1_455
Si11 Si3 2.544432 1_455
Si11 Yb3 2.914810 1_555
Si11 Yb2 2.914810 1_455
Si11 Yb1 2.936526 1_555
Si11 Yb0 2.936526 1_445
