# generated using pymatgen
data_SrPH7CO6
_symmetry_space_group_name_H-M   'P 1'
_cell_length_a   8.22151600
_cell_length_b   9.35857000
_cell_length_c   20.57443800
_cell_angle_alpha   90.00000000
_cell_angle_beta   90.00000000
_cell_angle_gamma   90.00000000
_symmetry_Int_Tables_number   1
_chemical_formula_structural   SrPH7CO6
_chemical_formula_sum   'Sr8 P8 H56 C8 O48'
_cell_volume   1583.03085762
_cell_formula_units_Z   8
loop_
 _symmetry_equiv_pos_site_id
 _symmetry_equiv_pos_as_xyz
  1  'x, y, z'
loop_
 _atom_site_type_symbol
 _atom_site_label
 _atom_site_symmetry_multiplicity
 _atom_site_fract_x
 _atom_site_fract_y
 _atom_site_fract_z
 _atom_site_occupancy
  Sr  Sr0  1  0.23943400  0.33790800  0.23344100  1
  Sr  Sr1  1  0.73943400  0.16209200  0.76655900  1
  Sr  Sr2  1  0.76056600  0.83790800  0.26655900  1
  Sr  Sr3  1  0.26056600  0.66209200  0.73344100  1
  Sr  Sr4  1  0.76056600  0.66209200  0.76655900  1
  Sr  Sr5  1  0.26056600  0.83790800  0.23344100  1
  Sr  Sr6  1  0.23943400  0.16209200  0.73344100  1
  Sr  Sr7  1  0.73943400  0.33790800  0.26655900  1
  P  P0  1  0.09376400  0.57790100  0.32949300  1
  P  P1  1  0.59376400  0.92209900  0.67050700  1
  P  P2  1  0.90623600  0.07790100  0.17050700  1
  P  P3  1  0.40623600  0.42209900  0.82949300  1
  P  P4  1  0.90623600  0.42209900  0.67050700  1
  P  P5  1  0.40623600  0.07790100  0.32949300  1
  P  P6  1  0.09376400  0.92209900  0.82949300  1
  P  P7  1  0.59376400  0.57790100  0.17050700  1
  H  H0  1  0.54206500  0.30357700  0.40834100  1
  H  H1  1  0.04206500  0.19642300  0.59165900  1
  H  H2  1  0.45793500  0.80357700  0.09165900  1
  H  H3  1  0.95793500  0.69642300  0.90834100  1
  H  H4  1  0.45793500  0.69642300  0.59165900  1
  H  H5  1  0.95793500  0.80357700  0.40834100  1
  H  H6  1  0.54206500  0.19642300  0.90834100  1
  H  H7  1  0.04206500  0.30357700  0.09165900  1
  H  H8  1  0.95667700  0.15519500  0.48782200  1
  H  H9  1  0.45667700  0.34480500  0.51217800  1
  H  H10  1  0.04332300  0.65519500  0.01217800  1
  H  H11  1  0.54332300  0.84480500  0.98782200  1
  H  H12  1  0.04332300  0.84480500  0.51217800  1
  H  H13  1  0.54332300  0.65519500  0.48782200  1
  H  H14  1  0.95667700  0.34480500  0.98782200  1
  H  H15  1  0.45667700  0.15519500  0.01217800  1
  H  H16  1  0.89099100  0.19262300  0.41641400  1
  H  H17  1  0.39099100  0.30737700  0.58358600  1
  H  H18  1  0.10900900  0.69262300  0.08358600  1
  H  H19  1  0.60900900  0.80737700  0.91641400  1
  H  H20  1  0.10900900  0.80737700  0.58358600  1
  H  H21  1  0.60900900  0.69262300  0.41641400  1
  H  H22  1  0.89099100  0.30737700  0.91641400  1
  H  H23  1  0.39099100  0.19262300  0.08358600  1
  H  H24  1  0.59563400  0.44777400  0.44390600  1
  H  H25  1  0.09563400  0.05222600  0.55609400  1
  H  H26  1  0.40436600  0.94777400  0.05609400  1
  H  H27  1  0.90436600  0.55222600  0.94390600  1
  H  H28  1  0.40436600  0.55222600  0.55609400  1
  H  H29  1  0.90436600  0.94777400  0.44390600  1
  H  H30  1  0.59563400  0.05222600  0.94390600  1
  H  H31  1  0.09563400  0.44777400  0.05609400  1
  H  H32  1  0.22886000  0.44813300  0.41458600  1
  H  H33  1  0.72886000  0.05186700  0.58541400  1
  H  H34  1  0.77114000  0.94813300  0.08541400  1
  H  H35  1  0.27114000  0.55186700  0.91458600  1
  H  H36  1  0.77114000  0.55186700  0.58541400  1
  H  H37  1  0.27114000  0.94813300  0.41458600  1
  H  H38  1  0.22886000  0.05186700  0.91458600  1
  H  H39  1  0.72886000  0.44813300  0.08541400  1
  H  H40  1  0.22202900  0.63396900  0.43388300  1
  H  H41  1  0.72202900  0.86603100  0.56611700  1
  H  H42  1  0.77797100  0.13396900  0.06611700  1
  H  H43  1  0.27797100  0.36603100  0.93388300  1
  H  H44  1  0.77797100  0.36603100  0.56611700  1
  H  H45  1  0.27797100  0.13396900  0.43388300  1
  H  H46  1  0.22202900  0.86603100  0.93388300  1
  H  H47  1  0.72202900  0.63396900  0.06611700  1
  H  H48  1  0.04189300  0.52770800  0.44021400  1
  H  H49  1  0.54189300  0.97229200  0.55978600  1
  H  H50  1  0.95810700  0.02770800  0.05978600  1
  H  H51  1  0.45810700  0.47229200  0.94021400  1
  H  H52  1  0.95810700  0.47229200  0.55978600  1
  H  H53  1  0.45810700  0.02770800  0.44021400  1
  H  H54  1  0.04189300  0.97229200  0.94021400  1
  H  H55  1  0.54189300  0.52770800  0.05978600  1
  C  C0  1  0.15400900  0.54503900  0.41233700  1
  C  C1  1  0.65400900  0.95496100  0.58766300  1
  C  C2  1  0.84599100  0.04503900  0.08766300  1
  C  C3  1  0.34599100  0.45496100  0.91233700  1
  C  C4  1  0.84599100  0.45496100  0.58766300  1
  C  C5  1  0.34599100  0.04503900  0.41233700  1
  C  C6  1  0.15400900  0.95496100  0.91233700  1
  C  C7  1  0.65400900  0.54503900  0.08766300  1
  O  O0  1  0.35184400  0.09049900  0.18824000  1
  O  O1  1  0.85184400  0.40950100  0.81176000  1
  O  O2  1  0.64815600  0.59049900  0.31176000  1
  O  O3  1  0.14815600  0.90950100  0.68824000  1
  O  O4  1  0.64815600  0.90950100  0.81176000  1
  O  O5  1  0.14815600  0.59049900  0.18824000  1
  O  O6  1  0.35184400  0.40950100  0.68824000  1
  O  O7  1  0.85184400  0.09049900  0.31176000  1
  O  O8  1  0.00500500  0.44278400  0.30511500  1
  O  O9  1  0.50500500  0.05721600  0.69488500  1
  O  O10  1  0.99499500  0.94278400  0.19488500  1
  O  O11  1  0.49499500  0.55721600  0.80511500  1
  O  O12  1  0.99499500  0.55721600  0.69488500  1
  O  O13  1  0.49499500  0.94278400  0.30511500  1
  O  O14  1  0.00500500  0.05721600  0.80511500  1
  O  O15  1  0.50500500  0.44278400  0.19488500  1
  O  O16  1  0.99949500  0.71979900  0.32447500  1
  O  O17  1  0.49949500  0.78020100  0.67552500  1
  O  O18  1  0.00050500  0.21979900  0.17552500  1
  O  O19  1  0.50050500  0.28020100  0.82447500  1
  O  O20  1  0.00050500  0.28020100  0.67552500  1
  O  O21  1  0.50050500  0.21979900  0.32447500  1
  O  O22  1  0.99949500  0.78020100  0.82447500  1
  O  O23  1  0.49949500  0.71979900  0.17552500  1
  O  O24  1  0.25784800  0.59162100  0.28966500  1
  O  O25  1  0.75784800  0.90837900  0.71033500  1
  O  O26  1  0.74215200  0.09162100  0.21033500  1
  O  O27  1  0.24215200  0.40837900  0.78966500  1
  O  O28  1  0.74215200  0.40837900  0.71033500  1
  O  O29  1  0.24215200  0.09162100  0.28966500  1
  O  O30  1  0.25784800  0.90837900  0.78966500  1
  O  O31  1  0.75784800  0.59162100  0.21033500  1
  O  O32  1  0.58409500  0.34174700  0.44942500  1
  O  O33  1  0.08409500  0.15825300  0.55057500  1
  O  O34  1  0.41590500  0.84174700  0.05057500  1
  O  O35  1  0.91590500  0.65825300  0.94942500  1
  O  O36  1  0.41590500  0.65825300  0.55057500  1
  O  O37  1  0.91590500  0.84174700  0.44942500  1
  O  O38  1  0.58409500  0.15825300  0.94942500  1
  O  O39  1  0.08409500  0.34174700  0.05057500  1
  O  O40  1  0.88113800  0.12477900  0.45186400  1
  O  O41  1  0.38113800  0.37522100  0.54813600  1
  O  O42  1  0.11886200  0.62477900  0.04813600  1
  O  O43  1  0.61886200  0.87522100  0.95186400  1
  O  O44  1  0.11886200  0.87522100  0.54813600  1
  O  O45  1  0.61886200  0.62477900  0.45186400  1
  O  O46  1  0.88113800  0.37522100  0.95186400  1
  O  O47  1  0.38113800  0.12477900  0.04813600  1
loop_
_geom_bond_atom_site_label_1
_geom_bond_atom_site_label_2
_geom_bond_distance
_geom_bond_site_symmetry_2
H0 O32 0.980565 1_555
H1 O33 0.980565 1_555
H2 O34 0.980565 1_555
H3 O35 0.980565 1_555
H4 O36 0.980565 1_555
H5 O37 0.980565 1_555
H6 O38 0.980565 1_555
H7 O39 0.980565 1_555
H8 O40 1.007000 1_555
H9 O41 1.007000 1_555
H10 O42 1.007000 1_555
H11 O43 1.007000 1_555
H12 O44 1.007000 1_555
H13 O45 1.007000 1_555
H14 O46 1.007000 1_555
H15 O47 1.007000 1_555
H16 O40 0.970392 1_555
H17 O41 0.970392 1_555
H18 O42 0.970392 1_555
H19 O43 0.970392 1_555
H20 O44 0.970392 1_555
H21 O45 0.970392 1_555
H22 O46 0.970392 1_555
H23 O47 0.970392 1_555
H24 O32 1.003233 1_555
H25 O33 1.003233 1_555
H26 O34 1.003233 1_555
H27 O35 1.003233 1_555
H28 O36 1.003233 1_555
H29 O37 1.003233 1_555
H30 O38 1.003233 1_555
H31 O39 1.003233 1_555
C0 H40 1.096312 1_555
C0 H32 1.096957 1_555
C0 H48 1.097688 1_555
C0 P0 1.801422 1_555
C1 H41 1.096312 1_555
C1 H33 1.096957 1_565
C1 H49 1.097688 1_555
C1 P1 1.801422 1_555
C2 H42 1.096312 1_555
C2 H34 1.096957 1_545
C2 H50 1.097688 1_555
C2 P2 1.801422 1_555
C3 H43 1.096312 1_555
C3 H35 1.096957 1_555
C3 H51 1.097688 1_555
C3 P3 1.801422 1_555
C4 H44 1.096312 1_555
C4 H36 1.096957 1_555
C4 H52 1.097688 1_555
C4 P4 1.801422 1_555
C5 H45 1.096312 1_555
C5 H37 1.096957 1_545
C5 H53 1.097688 1_555
C5 P5 1.801422 1_555
C6 H46 1.096312 1_555
C6 H38 1.096957 1_565
C6 H54 1.097688 1_555
C6 P6 1.801422 1_555
C7 H47 1.096312 1_555
C7 H39 1.096957 1_555
C7 H55 1.097688 1_555
C7 P7 1.801422 1_555
O0 Sr5 2.648776 1_545
O0 Sr0 2.660833 1_555
O1 Sr4 2.648776 1_555
O1 Sr1 2.660833 1_555
O2 Sr7 2.648776 1_555
O2 Sr2 2.660833 1_555
O3 Sr6 2.648776 1_565
O3 Sr3 2.660833 1_555
O4 Sr1 2.648776 1_565
O4 Sr4 2.660833 1_555
O5 Sr0 2.648776 1_555
O5 Sr5 2.660833 1_555
O6 Sr3 2.648776 1_555
O6 Sr6 2.660833 1_555
O7 Sr2 2.648776 1_545
O7 Sr7 2.660833 1_555
O8 P0 1.543711 1_555
O8 Sr7 2.521867 1_455
O8 Sr0 2.617756 1_555
O9 P1 1.543711 1_545
O9 Sr6 2.521867 1_555
O9 Sr1 2.617756 1_555
O10 P2 1.543711 1_565
O10 Sr5 2.521867 1_655
O10 Sr2 2.617756 1_555
O11 P3 1.543711 1_555
O11 Sr4 2.521867 1_555
O11 Sr3 2.617756 1_555
O12 P4 1.543711 1_555
O12 Sr3 2.521867 1_655
O12 Sr4 2.617756 1_555
O13 P5 1.543711 1_565
O13 Sr2 2.521867 1_555
O13 Sr5 2.617756 1_555
O14 P6 1.543711 1_545
O14 Sr1 2.521867 1_455
O14 Sr6 2.617756 1_555
O15 P7 1.543711 1_555
O15 Sr0 2.521867 1_555
O15 Sr7 2.617756 1_555
O16 P0 1.541045 1_655
O16 Sr2 2.549578 1_555
O16 Sr5 3.055621 1_655
O17 P1 1.541045 1_555
O17 Sr3 2.549578 1_555
O17 Sr4 3.055621 1_555
O18 P2 1.541045 1_455
O18 Sr0 2.549578 1_555
O18 Sr7 3.055621 1_455
O19 P3 1.541045 1_555
O19 Sr1 2.549578 1_555
O19 Sr6 3.055621 1_555
O20 P4 1.541045 1_455
O20 Sr6 2.549578 1_555
O20 Sr1 3.055621 1_455
O21 P5 1.541045 1_555
O21 Sr7 2.549578 1_555
O21 Sr0 3.055621 1_555
O22 P6 1.541045 1_655
O22 Sr4 2.549578 1_555
O22 Sr3 3.055621 1_655
O23 P7 1.541045 1_555
O23 Sr5 2.549578 1_555
O23 Sr2 3.055621 1_555
O24 P0 1.583610 1_555
O24 Sr5 2.578986 1_555
O24 Sr0 2.645522 1_555
O25 P1 1.583610 1_555
O25 Sr4 2.578986 1_555
O25 Sr1 2.645522 1_565
O26 P2 1.583610 1_555
O26 Sr7 2.578986 1_555
O26 Sr2 2.645522 1_545
O27 P3 1.583610 1_555
O27 Sr6 2.578986 1_555
O27 Sr3 2.645522 1_555
O28 P4 1.583610 1_555
O28 Sr1 2.578986 1_555
O28 Sr4 2.645522 1_555
O29 P5 1.583610 1_555
O29 Sr0 2.578986 1_555
O29 Sr5 2.645522 1_545
O30 P6 1.583610 1_555
O30 Sr3 2.578986 1_555
O30 Sr6 2.645522 1_565
O31 P7 1.583610 1_555
O31 Sr2 2.578986 1_555
O31 Sr7 2.645522 1_555
