# generated using pymatgen
data_VCo3
_symmetry_space_group_name_H-M   'P 1'
_cell_length_a   16.71516625
_cell_length_b   16.71516625
_cell_length_c   16.71516572
_cell_angle_alpha   17.41176670
_cell_angle_beta   17.41176670
_cell_angle_gamma   17.41176412
_symmetry_Int_Tables_number   1
_chemical_formula_structural   VCo3
_chemical_formula_sum   'V8 Co24'
_cell_volume   364.94004340
_cell_formula_units_Z   8
loop_
 _symmetry_equiv_pos_site_id
 _symmetry_equiv_pos_as_xyz
  1  'x, y, z'
loop_
 _atom_site_type_symbol
 _atom_site_label
 _atom_site_symmetry_multiplicity
 _atom_site_fract_x
 _atom_site_fract_y
 _atom_site_fract_z
 _atom_site_occupancy
  V  V0_0  1  0.00000000  0.00000000  0.00000000  1
  V  V0_1  1  0.00000000  0.00000000  0.50000000  1
  V  V0_2  1  0.00000000  0.50000000  0.00000000  1
  V  V0_3  1  0.00000000  0.50000000  0.50000000  1
  V  V0_4  1  0.50000000  0.00000000  0.00000000  1
  V  V0_5  1  0.50000000  0.00000000  0.50000000  1
  V  V0_6  1  0.50000000  0.50000000  0.00000000  1
  V  V0_7  1  0.50000000  0.50000000  0.50000000  1
  Co  Co0_0  1  0.12390050  0.12390050  0.12390050  1
  Co  Co0_1  1  0.12390050  0.12390050  0.62390050  1
  Co  Co0_2  1  0.12390050  0.62390050  0.12390050  1
  Co  Co0_3  1  0.12390050  0.62390050  0.62390050  1
  Co  Co0_4  1  0.62390050  0.12390050  0.12390050  1
  Co  Co0_5  1  0.62390050  0.12390050  0.62390050  1
  Co  Co0_6  1  0.62390050  0.62390050  0.12390050  1
  Co  Co0_7  1  0.62390050  0.62390050  0.62390050  1
  Co  Co1_0  1  0.25000000  0.25000000  0.25000000  1
  Co  Co1_1  1  0.25000000  0.25000000  0.75000000  1
  Co  Co1_2  1  0.25000000  0.75000000  0.25000000  1
  Co  Co1_3  1  0.25000000  0.75000000  0.75000000  1
  Co  Co1_4  1  0.75000000  0.25000000  0.25000000  1
  Co  Co1_5  1  0.75000000  0.25000000  0.75000000  1
  Co  Co1_6  1  0.75000000  0.75000000  0.25000000  1
  Co  Co1_7  1  0.75000000  0.75000000  0.75000000  1
  Co  Co2_0  1  0.37609950  0.37609950  0.37609950  1
  Co  Co2_1  1  0.37609950  0.37609950  0.87609950  1
  Co  Co2_2  1  0.37609950  0.87609950  0.37609950  1
  Co  Co2_3  1  0.37609950  0.87609950  0.87609950  1
  Co  Co2_4  1  0.87609950  0.37609950  0.37609950  1
  Co  Co2_5  1  0.87609950  0.37609950  0.87609950  1
  Co  Co2_6  1  0.87609950  0.87609950  0.37609950  1
  Co  Co2_7  1  0.87609950  0.87609950  0.87609950  1
loop_
_geom_bond_atom_site_label_1
_geom_bond_atom_site_label_2
_geom_bond_distance
_geom_bond_site_symmetry_2
V0_0 V0_6 2.530046 1_545
V0_0 V0_6 2.530046 1_455
V0_0 V0_3 2.530046 1_554
V0_0 V0_5 2.530046 1_554
V0_0 V0_3 2.530046 1_545
V0_0 V0_5 2.530046 1_455
V0_1 V0_7 2.530046 1_455
V0_1 V0_7 2.530046 1_545
V0_1 V0_4 2.530046 1_555
V0_1 V0_2 2.530046 1_555
V0_1 V0_2 2.530046 1_546
V0_1 V0_4 2.530046 1_456
V0_2 V0_4 2.530046 1_555
V0_2 V0_4 2.530046 1_465
V0_2 V0_7 2.530046 1_455
V0_2 V0_7 2.530046 1_554
V0_3 V0_5 2.530046 1_555
V0_3 V0_5 2.530046 1_465
V0_3 V0_6 2.530046 1_555
V0_3 V0_6 2.530046 1_456
V0_4 V0_7 2.530046 1_545
V0_4 V0_7 2.530046 1_554
V0_5 V0_6 2.530046 1_555
V0_5 V0_6 2.530046 1_546
Co0_0 Co1_1 2.479015 1_554
Co0_0 Co1_2 2.479015 1_545
Co0_0 Co1_4 2.479015 1_455
Co0_0 Co0_6 2.530046 1_455
Co0_0 Co0_6 2.530046 1_545
Co0_0 Co0_5 2.530046 1_455
Co0_0 Co0_3 2.530046 1_545
Co0_0 Co0_3 2.530046 1_554
Co0_0 Co0_5 2.530046 1_554
Co0_0 V0_1 2.567535 1_555
Co0_0 V0_2 2.567535 1_555
Co0_0 V0_4 2.567535 1_555
Co0_1 Co1_0 2.479015 1_555
Co0_1 Co1_5 2.479015 1_455
Co0_1 Co1_3 2.479015 1_545
Co0_1 Co0_7 2.530046 1_455
Co0_1 Co0_7 2.530046 1_545
Co0_1 Co0_2 2.530046 1_555
Co0_1 Co0_4 2.530046 1_555
Co0_1 Co0_4 2.530046 1_456
Co0_1 Co0_2 2.530046 1_546
Co0_1 V0_0 2.567535 1_556
Co0_1 V0_3 2.567535 1_555
Co0_1 V0_5 2.567535 1_555
Co0_2 Co1_3 2.479015 1_554
Co0_2 Co1_0 2.479015 1_555
Co0_2 Co1_6 2.479015 1_455
Co0_2 Co0_4 2.530046 1_555
Co0_2 Co0_4 2.530046 1_465
Co0_2 Co0_7 2.530046 1_455
Co0_2 Co0_7 2.530046 1_554
Co0_2 V0_3 2.567535 1_555
Co0_2 V0_6 2.567535 1_555
Co0_2 V0_0 2.567535 1_565
Co0_3 Co1_2 2.479015 1_555
Co0_3 Co1_7 2.479015 1_455
Co0_3 Co1_1 2.479015 1_555
Co0_3 Co0_5 2.530046 1_465
Co0_3 Co0_5 2.530046 1_555
Co0_3 Co0_6 2.530046 1_555
Co0_3 Co0_6 2.530046 1_456
Co0_3 V0_2 2.567535 1_556
Co0_3 V0_1 2.567535 1_565
Co0_3 V0_7 2.567535 1_555
Co0_4 Co1_5 2.479015 1_554
Co0_4 Co1_0 2.479015 1_555
Co0_4 Co1_6 2.479015 1_545
Co0_4 Co0_7 2.530046 1_545
Co0_4 Co0_7 2.530046 1_554
Co0_4 V0_5 2.567535 1_555
Co0_4 V0_0 2.567535 1_655
Co0_4 V0_6 2.567535 1_555
Co0_5 Co1_4 2.479015 1_555
Co0_5 Co1_7 2.479015 1_545
Co0_5 Co1_1 2.479015 1_555
Co0_5 Co0_6 2.530046 1_555
Co0_5 Co0_6 2.530046 1_546
Co0_5 V0_4 2.567535 1_556
Co0_5 V0_1 2.567535 1_655
Co0_5 V0_7 2.567535 1_555
Co0_6 Co1_7 2.479015 1_554
Co0_6 Co1_4 2.479015 1_555
Co0_6 Co1_2 2.479015 1_555
Co0_6 V0_7 2.567535 1_555
Co0_6 V0_2 2.567535 1_655
Co0_6 V0_4 2.567535 1_565
Co0_7 Co1_6 2.479015 1_555
Co0_7 Co1_5 2.479015 1_555
Co0_7 Co1_3 2.479015 1_555
Co0_7 V0_6 2.567535 1_556
Co0_7 V0_3 2.567535 1_655
Co0_7 V0_5 2.567535 1_565
Co1_0 Co2_1 2.479015 1_554
Co1_0 Co2_2 2.479015 1_545
Co1_0 Co2_4 2.479015 1_455
Co1_0 Co1_6 2.530046 1_545
Co1_0 Co1_6 2.530046 1_455
Co1_0 Co1_3 2.530046 1_554
Co1_0 Co1_5 2.530046 1_554
Co1_0 Co1_3 2.530046 1_545
Co1_0 Co1_5 2.530046 1_455
Co1_1 Co2_0 2.479015 1_555
Co1_1 Co2_3 2.479015 1_545
Co1_1 Co2_5 2.479015 1_455
Co1_1 Co1_7 2.530046 1_545
Co1_1 Co1_7 2.530046 1_455
Co1_1 Co1_4 2.530046 1_555
Co1_1 Co1_2 2.530046 1_555
Co1_1 Co1_2 2.530046 1_546
Co1_1 Co1_4 2.530046 1_456
Co1_2 Co2_3 2.479015 1_554
Co1_2 Co2_0 2.479015 1_555
Co1_2 Co2_6 2.479015 1_455
Co1_2 Co1_4 2.530046 1_555
Co1_2 Co1_4 2.530046 1_465
Co1_2 Co1_7 2.530046 1_455
Co1_2 Co1_7 2.530046 1_554
Co1_3 Co2_2 2.479015 1_555
Co1_3 Co2_7 2.479015 1_455
Co1_3 Co2_1 2.479015 1_555
Co1_3 Co1_5 2.530046 1_465
Co1_3 Co1_5 2.530046 1_555
Co1_3 Co1_6 2.530046 1_456
Co1_3 Co1_6 2.530046 1_555
Co1_4 Co2_5 2.479015 1_554
Co1_4 Co2_0 2.479015 1_555
Co1_4 Co2_6 2.479015 1_545
Co1_4 Co1_7 2.530046 1_545
Co1_4 Co1_7 2.530046 1_554
Co1_5 Co2_4 2.479015 1_555
Co1_5 Co2_7 2.479015 1_545
Co1_5 Co2_1 2.479015 1_555
Co1_5 Co1_6 2.530046 1_546
Co1_5 Co1_6 2.530046 1_555
Co1_6 Co2_7 2.479015 1_554
Co1_6 Co2_4 2.479015 1_555
Co1_6 Co2_2 2.479015 1_555
Co1_7 Co2_6 2.479015 1_555
Co1_7 Co2_5 2.479015 1_555
Co1_7 Co2_3 2.479015 1_555
Co2_0 Co2_6 2.530046 1_545
Co2_0 Co2_6 2.530046 1_455
Co2_0 Co2_5 2.530046 1_455
Co2_0 Co2_3 2.530046 1_545
Co2_0 Co2_3 2.530046 1_554
Co2_0 Co2_5 2.530046 1_554
Co2_0 V0_6 2.567535 1_555
Co2_0 V0_3 2.567535 1_555
Co2_0 V0_5 2.567535 1_555
Co2_1 Co2_7 2.530046 1_455
Co2_1 Co2_7 2.530046 1_545
Co2_1 Co2_4 2.530046 1_555
Co2_1 Co2_2 2.530046 1_555
Co2_1 Co2_4 2.530046 1_456
Co2_1 Co2_2 2.530046 1_546
Co2_1 V0_7 2.567535 1_555
Co2_1 V0_2 2.567535 1_556
Co2_1 V0_4 2.567535 1_556
Co2_2 Co2_4 2.530046 1_555
Co2_2 Co2_4 2.530046 1_465
Co2_2 Co2_7 2.530046 1_455
Co2_2 Co2_7 2.530046 1_554
Co2_2 V0_4 2.567535 1_565
Co2_2 V0_7 2.567535 1_555
Co2_2 V0_1 2.567535 1_565
Co2_3 Co2_5 2.530046 1_465
Co2_3 Co2_5 2.530046 1_555
Co2_3 Co2_6 2.530046 1_555
Co2_3 Co2_6 2.530046 1_456
Co2_3 V0_5 2.567535 1_565
Co2_3 V0_0 2.567535 1_566
Co2_3 V0_6 2.567535 1_556
Co2_4 Co2_7 2.530046 1_545
Co2_4 Co2_7 2.530046 1_554
Co2_4 V0_2 2.567535 1_655
Co2_4 V0_7 2.567535 1_555
Co2_4 V0_1 2.567535 1_655
Co2_5 Co2_6 2.530046 1_555
Co2_5 Co2_6 2.530046 1_546
Co2_5 V0_3 2.567535 1_655
Co2_5 V0_6 2.567535 1_556
Co2_5 V0_0 2.567535 1_656
Co2_6 V0_0 2.567535 1_665
Co2_6 V0_5 2.567535 1_565
Co2_6 V0_3 2.567535 1_655
Co2_7 V0_1 2.567535 1_665
Co2_7 V0_4 2.567535 1_566
Co2_7 V0_2 2.567535 1_656
