# generated using pymatgen
data_Nd3Se3N
_symmetry_space_group_name_H-M   'P 1'
_cell_length_a   4.12623011
_cell_length_b   12.87252530
_cell_length_c   13.52119705
_cell_angle_alpha   90.00000000
_cell_angle_beta   90.00000000
_cell_angle_gamma   90.00000000
_symmetry_Int_Tables_number   1
_chemical_formula_structural   Nd3Se3N
_chemical_formula_sum   'Nd12 Se12 N4'
_cell_volume   718.17840138
_cell_formula_units_Z   4
loop_
 _symmetry_equiv_pos_site_id
 _symmetry_equiv_pos_as_xyz
  1  'x, y, z'
loop_
 _atom_site_type_symbol
 _atom_site_label
 _atom_site_symmetry_multiplicity
 _atom_site_fract_x
 _atom_site_fract_y
 _atom_site_fract_z
 _atom_site_occupancy
  Nd  Nd0  1  0.25000000  0.70992279  0.86237476  1
  Nd  Nd1  1  0.75000000  0.29007721  0.13762524  1
  Nd  Nd2  1  0.75000000  0.79007721  0.36237476  1
  Nd  Nd3  1  0.25000000  0.20992279  0.63762524  1
  Nd  Nd4  1  0.25000000  0.57070347  0.63158098  1
  Nd  Nd5  1  0.75000000  0.42929653  0.36841902  1
  Nd  Nd6  1  0.75000000  0.92929653  0.13158098  1
  Nd  Nd7  1  0.25000000  0.07070347  0.86841902  1
  Nd  Nd8  1  0.25000000  0.54074234  0.15212187  1
  Nd  Nd9  1  0.75000000  0.45925766  0.84787813  1
  Nd  Nd10  1  0.75000000  0.95925766  0.65212187  1
  Nd  Nd11  1  0.25000000  0.04074234  0.34787813  1
  Se  Se0  1  0.25000000  0.77411533  0.19045251  1
  Se  Se1  1  0.75000000  0.22588467  0.80954749  1
  Se  Se2  1  0.75000000  0.72588467  0.69045251  1
  Se  Se3  1  0.25000000  0.27411533  0.30954749  1
  Se  Se4  1  0.25000000  0.09155079  0.10740075  1
  Se  Se5  1  0.75000000  0.90844921  0.89259925  1
  Se  Se6  1  0.75000000  0.40844921  0.60740075  1
  Se  Se7  1  0.25000000  0.59155079  0.39259925  1
  Se  Se8  1  0.25000000  0.86812589  0.49621545  1
  Se  Se9  1  0.75000000  0.13187411  0.50378455  1
  Se  Se10  1  0.75000000  0.63187411  -0.00378455  1
  Se  Se11  1  0.25000000  0.36812589  0.00378455  1
  N  N0  1  0.25000000  0.54203519  0.79694567  1
  N  N1  1  0.75000000  0.45796481  0.20305433  1
  N  N2  1  0.75000000  0.95796481  0.29694567  1
  N  N3  1  0.25000000  0.04203519  0.70305433  1
loop_
_geom_bond_atom_site_label_1
_geom_bond_atom_site_label_2
_geom_bond_distance
_geom_bond_site_symmetry_2
Nd0 Se10 2.922464 1_456
Nd0 Se10 2.922464 1_556
Nd0 Se2 3.114868 1_555
Nd0 Se2 3.114868 1_455
Nd0 Se5 3.309716 1_455
Nd0 Se5 3.309716 1_555
Nd1 Se11 2.922464 1_555
Nd1 Se11 2.922464 1_655
Nd1 Se3 3.114868 1_655
Nd1 Se3 3.114868 1_555
Nd1 Se4 3.309716 1_655
Nd1 Se4 3.309716 1_555
Nd2 Se8 2.922464 1_655
Nd2 Se8 2.922464 1_555
Nd2 Se0 3.114868 1_555
Nd2 Se0 3.114868 1_655
Nd2 Se7 3.309716 1_655
Nd2 Se7 3.309716 1_555
Nd3 Se9 2.922464 1_455
Nd3 Se9 2.922464 1_555
Nd3 Se1 3.114868 1_555
Nd3 Se1 3.114868 1_455
Nd3 Se6 3.309716 1_455
Nd3 Se6 3.309716 1_555
Nd4 Se6 2.953926 1_555
Nd4 Se6 2.953926 1_455
Nd4 Se2 2.979997 1_555
Nd4 Se2 2.979997 1_455
Nd4 Se7 3.242443 1_555
Nd5 Se7 2.953926 1_555
Nd5 Se7 2.953926 1_655
Nd5 Se3 2.979997 1_555
Nd5 Se3 2.979997 1_655
Nd5 Se6 3.242443 1_555
Nd6 Se4 2.953926 1_665
Nd6 Se4 2.953926 1_565
Nd6 Se0 2.979997 1_655
Nd6 Se0 2.979997 1_555
Nd6 Se5 3.242443 1_554
Nd7 Se5 2.953926 1_545
Nd7 Se5 2.953926 1_445
Nd7 Se1 2.979997 1_455
Nd7 Se1 2.979997 1_555
Nd7 Se4 3.242443 1_556
Nd8 Se11 2.993351 1_555
Nd8 Se0 3.048479 1_555
Nd8 Se10 3.174340 1_455
Nd8 Se10 3.174340 1_555
Nd8 Se7 3.316668 1_555
Nd9 Se10 2.993351 1_556
Nd9 Se1 3.048479 1_555
Nd9 Se11 3.174340 1_556
Nd9 Se11 3.174340 1_656
Nd9 Se6 3.316668 1_555
Nd10 Se9 2.993351 1_565
Nd10 Se2 3.048479 1_555
Nd10 Se8 3.174340 1_555
Nd10 Se8 3.174340 1_655
Nd10 Se5 3.316668 1_555
Nd11 Se8 2.993351 1_545
Nd11 Se3 3.048479 1_555
Nd11 Se9 3.174340 1_555
Nd11 Se9 3.174340 1_455
Nd11 Se4 3.316668 1_555
N0 Nd4 2.266178 1_555
N0 Nd0 2.335203 1_555
N0 Nd9 2.422007 1_555
N0 Nd9 2.422007 1_455
N1 Nd5 2.266178 1_555
N1 Nd1 2.335203 1_555
N1 Nd8 2.422007 1_655
N1 Nd8 2.422007 1_555
N2 Nd6 2.266178 1_555
N2 Nd2 2.335203 1_555
N2 Nd11 2.422007 1_665
N2 Nd11 2.422007 1_565
N3 Nd7 2.266178 1_555
N3 Nd3 2.335203 1_555
N3 Nd10 2.422007 1_445
N3 Nd10 2.422007 1_545
