# generated using pymatgen
data_Cs2U(PO5)2
_symmetry_space_group_name_H-M   'P 1'
_cell_length_a   9.34191500
_cell_length_b   6.39276500
_cell_length_c   10.04484811
_cell_angle_alpha   82.24389287
_cell_angle_beta   90.00000000
_cell_angle_gamma   90.00000000
_symmetry_Int_Tables_number   1
_chemical_formula_structural   Cs2U(PO5)2
_chemical_formula_sum   'Cs4 U2 P4 O20'
_cell_volume   594.39699422
_cell_formula_units_Z   2
loop_
 _symmetry_equiv_pos_site_id
 _symmetry_equiv_pos_as_xyz
  1  'x, y, z'
loop_
 _atom_site_type_symbol
 _atom_site_label
 _atom_site_symmetry_multiplicity
 _atom_site_fract_x
 _atom_site_fract_y
 _atom_site_fract_z
 _atom_site_occupancy
  Cs  Cs0  1  0.69192900  0.49982200  0.14677600  1
  Cs  Cs1  1  0.19192900  0.50017800  0.35322400  1
  Cs  Cs2  1  0.30807100  0.50017800  0.85322400  1
  Cs  Cs3  1  0.80807100  0.49982200  0.64677600  1
  U  U0  1  0.50000000  0.00000000  0.50000000  1
  U  U1  1  0.00000000  0.00000000  0.00000000  1
  P  P0  1  0.65019400  0.97532500  0.84022900  1
  P  P1  1  0.15019400  0.02467500  0.65977100  1
  P  P2  1  0.34980600  0.02467500  0.15977100  1
  P  P3  1  0.84980600  0.97532500  0.34022900  1
  O  O0  1  0.64359200  0.99966300  0.68292600  1
  O  O1  1  0.14359200  0.00033700  0.81707400  1
  O  O2  1  0.35640800  0.00033700  0.31707400  1
  O  O3  1  0.85640800  0.99966300  0.18292600  1
  O  O4  1  0.69240800  0.90906400  0.38262700  1
  O  O5  1  0.19240800  0.09093600  0.11737300  1
  O  O6  1  0.30759200  0.09093600  0.61737300  1
  O  O7  1  0.80759200  0.90906400  0.88262700  1
  O  O8  1  0.44813500  0.20566900  0.10202500  1
  O  O9  1  0.94813500  0.79433100  0.39797500  1
  O  O10  1  0.55186500  0.79433100  0.89797500  1
  O  O11  1  0.05186500  0.20566900  0.60202500  1
  O  O12  1  0.61492100  0.18880800  0.88476500  1
  O  O13  1  0.11492100  0.81119200  0.61523500  1
  O  O14  1  0.38507900  0.81119200  0.11523500  1
  O  O15  1  0.88507900  0.18880800  0.38476500  1
  O  O16  1  0.53950100  0.27786400  0.44371600  1
  O  O17  1  0.03950100  0.72213600  0.05628400  1
  O  O18  1  0.46049900  0.72213600  0.55628400  1
  O  O19  1  0.96049900  0.27786400  0.94371600  1
loop_
_geom_bond_atom_site_label_1
_geom_bond_atom_site_label_2
_geom_bond_distance
_geom_bond_site_symmetry_2
Cs0 O8 3.025448 1_555
Cs0 O10 3.198840 1_554
Cs0 O15 3.411864 1_555
Cs0 O16 3.434429 1_555
Cs0 O14 3.479873 1_555
Cs0 O3 3.521764 1_545
Cs0 O12 3.579067 1_554
Cs0 O3 3.607823 1_555
Cs0 O17 3.611136 1_655
Cs0 O7 3.630222 1_554
Cs0 O19 3.640028 1_554
Cs0 O4 3.758983 1_555
Cs1 O9 3.025448 1_455
Cs1 O11 3.198840 1_555
Cs1 O14 3.411864 1_555
Cs1 O17 3.434429 1_555
Cs1 O15 3.479873 1_455
Cs1 O2 3.521764 1_565
Cs1 O13 3.579067 1_555
Cs1 O2 3.607823 1_555
Cs1 O16 3.611136 1_555
Cs1 O6 3.630222 1_555
Cs1 O18 3.640028 1_555
Cs1 O5 3.758983 1_555
Cs2 O10 3.025448 1_555
Cs2 O8 3.198840 1_556
Cs2 O13 3.411864 1_555
Cs2 O18 3.434429 1_555
Cs2 O12 3.479873 1_555
Cs2 O1 3.521764 1_565
Cs2 O14 3.579067 1_556
Cs2 O1 3.607823 1_555
Cs2 O19 3.611136 1_455
Cs2 O5 3.630222 1_556
Cs2 O17 3.640028 1_556
Cs2 O6 3.758983 1_555
Cs3 O11 3.025448 1_655
Cs3 O9 3.198840 1_555
Cs3 O12 3.411864 1_555
Cs3 O19 3.434429 1_555
Cs3 O13 3.479873 1_655
Cs3 O0 3.521764 1_545
Cs3 O15 3.579067 1_555
Cs3 O0 3.607823 1_555
Cs3 O18 3.611136 1_555
Cs3 O4 3.630222 1_555
Cs3 O16 3.640028 1_555
Cs3 O7 3.758983 1_555
O0 P0 1.567904 1_555
O0 U0 2.274781 1_565
O1 P1 1.567904 1_555
O1 U1 2.274781 1_556
O2 P2 1.567904 1_555
O2 U0 2.274781 1_555
O3 P3 1.567904 1_555
O3 U1 2.274781 1_665
O4 P3 1.572954 1_555
O4 U0 2.268001 1_565
O5 P2 1.572954 1_555
O5 U1 2.268001 1_555
O6 P1 1.572954 1_555
O6 U0 2.268001 1_555
O7 P0 1.572954 1_555
O7 U1 2.268001 1_666
O8 P2 1.529009 1_555
O9 P3 1.529009 1_555
O10 P0 1.529009 1_555
O11 P1 1.529009 1_555
O12 P0 1.528409 1_545
O13 P1 1.528409 1_565
O14 P2 1.528409 1_565
O15 P3 1.528409 1_545
O16 U0 1.827581 1_555
O17 U1 1.827581 1_565
O18 U0 1.827581 1_565
O19 U1 1.827581 1_656
