# generated using pymatgen
data_BaYAgTe3
_symmetry_space_group_name_H-M   'P 1'
_cell_length_a   7.92681292
_cell_length_b   7.92681292
_cell_length_c   11.53464700
_cell_angle_alpha   90.00000000
_cell_angle_beta   90.00000000
_cell_angle_gamma   146.72434546
_symmetry_Int_Tables_number   1
_chemical_formula_structural   BaYAgTe3
_chemical_formula_sum   'Ba2 Y2 Ag2 Te6'
_cell_volume   397.65904184
_cell_formula_units_Z   2
loop_
 _symmetry_equiv_pos_site_id
 _symmetry_equiv_pos_as_xyz
  1  'x, y, z'
loop_
 _atom_site_type_symbol
 _atom_site_label
 _atom_site_symmetry_multiplicity
 _atom_site_fract_x
 _atom_site_fract_y
 _atom_site_fract_z
 _atom_site_occupancy
  Ba  Ba0  1  0.75623000  0.24377000  0.25000000  1
  Ba  Ba1  1  0.24377000  0.75623000  0.75000000  1
  Y  Y0  1  0.00000000  0.00000000  0.00000000  1
  Y  Y1  1  0.00000000  0.00000000  0.50000000  1
  Ag  Ag0  1  0.46869000  0.53131000  0.25000000  1
  Ag  Ag1  1  0.53131000  0.46869000  0.75000000  1
  Te  Te0  1  0.63811300  0.36188700  0.94928300  1
  Te  Te1  1  0.08009600  0.91990400  0.25000000  1
  Te  Te2  1  0.36188700  0.63811300  0.44928300  1
  Te  Te3  1  0.36188700  0.63811300  0.05071700  1
  Te  Te4  1  0.63811300  0.36188700  0.55071700  1
  Te  Te5  1  0.91990400  0.08009600  0.75000000  1
loop_
_geom_bond_atom_site_label_1
_geom_bond_atom_site_label_2
_geom_bond_distance
_geom_bond_site_symmetry_2
Ba0 Te1 3.508449 1_655
Ba0 Te1 3.508449 1_545
Ba0 Te3 3.607040 1_545
Ba0 Te2 3.607040 1_545
Ba0 Te3 3.607040 1_655
Ba0 Te2 3.607040 1_655
Ba0 Te0 3.905219 1_554
Ba0 Te4 3.905219 1_555
Ba1 Te5 3.508449 1_565
Ba1 Te5 3.508449 1_455
Ba1 Te4 3.607040 1_455
Ba1 Te0 3.607040 1_455
Ba1 Te4 3.607040 1_565
Ba1 Te0 3.607040 1_565
Ba1 Te3 3.905219 1_556
Ba1 Te2 3.905219 1_555
Ag0 Te2 2.813499 1_555
Ag0 Te3 2.813499 1_555
Ag0 Te1 2.831049 1_655
Ag0 Te1 2.831049 1_545
Ag0 Ba0 3.945409 1_565
Ag0 Ba0 3.945409 1_455
Ag1 Te0 2.813499 1_555
Ag1 Te4 2.813499 1_555
Ag1 Te5 2.831049 1_565
Ag1 Te5 2.831049 1_455
Ag1 Ba1 3.945409 1_655
Ag1 Ba1 3.945409 1_545
Te0 Y0 3.145576 1_666
Te0 Y0 3.145576 1_556
Te1 Y0 3.129815 1_565
Te1 Y1 3.129815 1_565
Te2 Y1 3.145576 1_665
Te2 Y1 3.145576 1_555
Te3 Y0 3.145576 1_665
Te3 Y0 3.145576 1_555
Te4 Y1 3.145576 1_555
Te4 Y1 3.145576 1_665
Te5 Y0 3.129815 1_656
Te5 Y1 3.129815 1_655
