# generated using pymatgen
data_Pr3Pt2
_symmetry_space_group_name_H-M   'P 1'
_cell_length_a   7.76309164
_cell_length_b   7.76364115
_cell_length_c   7.76331029
_cell_angle_alpha   71.35124759
_cell_angle_beta   71.35201790
_cell_angle_gamma   71.35266591
_symmetry_Int_Tables_number   1
_chemical_formula_structural   Pr3Pt2
_chemical_formula_sum   'Pr9 Pt6'
_cell_volume   407.53980761
_cell_formula_units_Z   3
loop_
 _symmetry_equiv_pos_site_id
 _symmetry_equiv_pos_as_xyz
  1  'x, y, z'
loop_
 _atom_site_type_symbol
 _atom_site_label
 _atom_site_symmetry_multiplicity
 _atom_site_fract_x
 _atom_site_fract_y
 _atom_site_fract_z
 _atom_site_occupancy
  Pr  Pr0  1  0.00000000  -0.00000000  0.00000000  1
  Pr  Pr1  1  0.80095207  0.80110868  0.80096872  1
  Pr  Pr2  1  0.19904793  0.19889132  0.19903128  1
  Pr  Pr3  1  0.60447402  0.33263044  0.83818490  1
  Pr  Pr4  1  0.33269920  0.83825207  0.60442016  1
  Pr  Pr5  1  0.83814521  0.60452026  0.33272071  1
  Pr  Pr6  1  0.39552598  0.66736956  0.16181510  1
  Pr  Pr7  1  0.66730080  0.16174793  0.39557984  1
  Pr  Pr8  1  0.16185479  0.39547974  0.66727929  1
  Pt  Pt0  1  0.95773641  0.16545279  0.58834954  1
  Pt  Pt1  1  0.16550379  0.58837108  0.95771704  1
  Pt  Pt2  1  0.58832479  0.95774529  0.16547823  1
  Pt  Pt3  1  0.04226359  0.83454721  0.41165046  1
  Pt  Pt4  1  0.83449621  0.41162892  0.04228296  1
  Pt  Pt5  1  0.41167521  0.04225471  0.83452177  1
loop_
_geom_bond_atom_site_label_1
_geom_bond_atom_site_label_2
_geom_bond_distance
_geom_bond_site_symmetry_2
Pr0 Pt3 3.121909 1_545
Pr0 Pt0 3.121909 1_454
Pr0 Pt1 3.121977 1_544
Pr0 Pt4 3.121977 1_455
Pr0 Pt2 3.122007 1_445
Pr0 Pt5 3.122007 1_554
Pr1 Pt5 2.982580 1_565
Pr1 Pt3 2.983285 1_655
Pr1 Pt4 2.984350 1_556
Pr1 Pt0 3.184026 1_565
Pr1 Pt2 3.184531 1_556
Pr1 Pt1 3.185245 1_655
Pr2 Pt2 2.982580 1_545
Pr2 Pt0 2.983285 1_455
Pr2 Pt1 2.984350 1_554
Pr2 Pt3 3.184026 1_545
Pr2 Pt5 3.184531 1_554
Pr2 Pt4 3.185245 1_455
Pr3 Pt0 2.983189 1_555
Pr3 Pt4 3.034243 1_556
Pr3 Pt5 3.090162 1_555
Pr3 Pt2 3.200442 1_546
Pr3 Pt1 3.353407 1_555
Pr4 Pt1 2.983564 1_555
Pr4 Pt5 3.034155 1_565
Pr4 Pt3 3.090441 1_555
Pr4 Pt0 3.200416 1_465
Pr4 Pt2 3.352865 1_555
Pr5 Pt2 2.983186 1_555
Pr5 Pt3 3.034147 1_655
Pr5 Pt4 3.091079 1_555
Pr5 Pt1 3.201221 1_654
Pr5 Pt0 3.353821 1_555
Pr6 Pt3 2.983189 1_555
Pr6 Pt1 3.034243 1_554
Pr6 Pt2 3.090162 1_555
Pr6 Pt5 3.200442 1_564
Pr6 Pt4 3.353407 1_555
Pr7 Pt4 2.983564 1_555
Pr7 Pt2 3.034155 1_545
Pr7 Pt0 3.090441 1_555
Pr7 Pt3 3.200416 1_645
Pr7 Pt5 3.352865 1_555
Pr8 Pt5 2.983186 1_555
Pr8 Pt0 3.034147 1_455
Pr8 Pt1 3.091079 1_555
Pr8 Pt4 3.201221 1_456
Pr8 Pt3 3.353821 1_555
