# generated using pymatgen
data_LaSiOs2C
_symmetry_space_group_name_H-M   'P 1'
_cell_length_a   5.93739060
_cell_length_b   5.93739060
_cell_length_c   7.24474400
_cell_angle_alpha   90.00000000
_cell_angle_beta   90.00000000
_cell_angle_gamma   140.35218842
_symmetry_Int_Tables_number   1
_chemical_formula_structural   LaSiOs2C
_chemical_formula_sum   'La2 Si2 Os4 C2'
_cell_volume   162.95976546
_cell_formula_units_Z   2
loop_
 _symmetry_equiv_pos_site_id
 _symmetry_equiv_pos_as_xyz
  1  'x, y, z'
loop_
 _atom_site_type_symbol
 _atom_site_label
 _atom_site_symmetry_multiplicity
 _atom_site_fract_x
 _atom_site_fract_y
 _atom_site_fract_z
 _atom_site_occupancy
  La  La0  1  0.54909000  0.45091000  0.25000000  1
  La  La1  1  0.45091000  0.54909000  0.75000000  1
  Si  Si0  1  0.26994900  0.73005100  0.25000000  1
  Si  Si1  1  0.73005100  0.26994900  0.75000000  1
  Os  Os0  1  0.83401200  0.16598800  0.05963200  1
  Os  Os1  1  0.16598800  0.83401200  0.94036800  1
  Os  Os2  1  0.16598800  0.83401200  0.55963200  1
  Os  Os3  1  0.83401200  0.16598800  0.44036800  1
  C  C0  1  0.00000000  0.00000000  0.00000000  1
  C  C1  1  0.00000000  0.00000000  0.50000000  1
loop_
_geom_bond_atom_site_label_1
_geom_bond_atom_site_label_2
_geom_bond_distance
_geom_bond_site_symmetry_2
La0 Si0 3.118305 1_555
La0 Si0 3.184591 1_545
La0 Si0 3.184591 1_655
La1 Si1 3.118305 1_555
La1 Si1 3.184591 1_455
La1 Si1 3.184591 1_565
Os0 Si1 2.526008 1_554
Os0 Si0 2.543353 1_545
Os0 Si0 2.543353 1_655
Os1 Si0 2.526008 1_556
Os1 Si1 2.543353 1_565
Os1 Si1 2.543353 1_455
Os2 Si0 2.526008 1_555
Os2 Si1 2.543353 1_565
Os2 Si1 2.543353 1_455
Os3 Si1 2.526008 1_555
Os3 Si0 2.543353 1_545
Os3 Si0 2.543353 1_655
C0 Os0 1.903926 1_455
C0 Os1 1.903926 1_544
C0 La1 2.763242 1_554
C0 La0 2.763242 1_555
C0 La0 2.763242 1_445
C0 La1 2.763242 1_444
C1 Os3 1.903926 1_455
C1 Os2 1.903926 1_545
C1 La1 2.763242 1_445
C1 La0 2.763242 1_555
C1 La1 2.763242 1_555
C1 La0 2.763242 1_445
