# generated using pymatgen
data_MnCrCoO4
_symmetry_space_group_name_H-M   'P 1'
_cell_length_a   6.07246101
_cell_length_b   6.07246101
_cell_length_c   6.07246101
_cell_angle_alpha   119.32659967
_cell_angle_beta   119.26991853
_cell_angle_gamma   91.21981681
_symmetry_Int_Tables_number   1
_chemical_formula_structural   MnCrCoO4
_chemical_formula_sum   'Mn2 Cr2 Co2 O8'
_cell_volume   159.97598077
_cell_formula_units_Z   2
loop_
 _symmetry_equiv_pos_site_id
 _symmetry_equiv_pos_as_xyz
  1  'x, y, z'
loop_
 _atom_site_type_symbol
 _atom_site_label
 _atom_site_symmetry_multiplicity
 _atom_site_fract_x
 _atom_site_fract_y
 _atom_site_fract_z
 _atom_site_occupancy
  Mn  Mn0  1  0.12514800  0.87514800  0.25000000  1
  Mn  Mn1  1  0.87485200  0.12485200  0.75000000  1
  Cr  Cr0  1  0.50000000  0.50000000  0.00000000  1
  Cr  Cr1  1  0.00000000  0.50000000  0.50000000  1
  Co  Co0  1  0.50000000  0.50000000  0.50000000  1
  Co  Co1  1  0.50000000  0.00000000  0.00000000  1
  O  O0  1  0.73340000  0.26215300  0.02875300  1
  O  O1  1  0.73340000  0.70464700  0.47124700  1
  O  O2  1  0.73503600  0.26242100  0.47261500  1
  O  O3  1  0.28980700  0.26242100  0.02738500  1
  O  O4  1  0.26660000  0.73784700  0.97124700  1
  O  O5  1  0.26660000  0.29535300  0.52875300  1
  O  O6  1  0.26496400  0.73757900  0.52738500  1
  O  O7  1  0.71019300  0.73757900  0.97261500  1
loop_
_geom_bond_atom_site_label_1
_geom_bond_atom_site_label_2
_geom_bond_distance
_geom_bond_site_symmetry_2
Mn0 O6 2.065453 1_555
Mn0 O7 2.065458 1_454
Mn0 O5 2.089984 1_565
Mn0 O4 2.089984 1_554
Mn1 O2 2.065453 1_555
Mn1 O3 2.065458 1_656
Mn1 O0 2.089984 1_556
Mn1 O1 2.089984 1_545
Cr0 O7 2.025423 1_554
Cr0 O3 2.025423 1_555
Cr0 O5 2.053658 1_554
Cr0 O4 2.053658 1_554
Cr0 O1 2.053658 1_555
Cr0 O0 2.053658 1_555
Cr1 O2 2.025427 1_455
Cr1 O6 2.025427 1_555
Cr1 O1 2.053658 1_455
Cr1 O0 2.053658 1_455
Cr1 O5 2.053658 1_555
Cr1 O4 2.053658 1_555
Co0 O1 1.990761 1_555
Co0 O5 1.990761 1_555
Co0 O2 2.056887 1_555
Co0 O6 2.056887 1_555
Co0 O3 2.056887 1_555
Co0 O7 2.056887 1_555
Co1 O4 1.990761 1_544
Co1 O0 1.990761 1_555
Co1 O7 2.056883 1_544
Co1 O3 2.056883 1_555
Co1 O6 2.056887 1_544
Co1 O2 2.056887 1_555
