# generated using pymatgen
data_CeSe2
_symmetry_space_group_name_H-M   'P 1'
_cell_length_a   13.00683750
_cell_length_b   19.59953588
_cell_length_c   19.59953641
_cell_angle_alpha   71.45710426
_cell_angle_beta   80.42632616
_cell_angle_gamma   80.42632590
_symmetry_Int_Tables_number   1
_chemical_formula_structural   CeSe2
_chemical_formula_sum   'Ce16 Se32'
_cell_volume   4636.60069464
_cell_formula_units_Z   16
loop_
 _symmetry_equiv_pos_site_id
 _symmetry_equiv_pos_as_xyz
  1  'x, y, z'
loop_
 _atom_site_type_symbol
 _atom_site_label
 _atom_site_symmetry_multiplicity
 _atom_site_fract_x
 _atom_site_fract_y
 _atom_site_fract_z
 _atom_site_occupancy
  Ce  Ce0  1  0.30098467  0.60147036  0.37380497  1
  Ce  Ce1  1  0.30098467  0.37380497  0.60147036  1
  Ce  Ce2  1  0.69901533  0.39852964  0.62619503  1
  Ce  Ce3  1  0.69901533  0.62619503  0.39852964  1
  Ce  Ce4  1  0.09921104  0.76196507  0.53287255  1
  Ce  Ce5  1  0.09921104  0.53287255  0.76196507  1
  Ce  Ce6  1  0.90078896  0.23803493  0.46712745  1
  Ce  Ce7  1  0.90078896  0.46712745  0.23803493  1
  Ce  Ce8  1  0.62150301  0.36393608  0.13830749  1
  Ce  Ce9  1  0.62150301  0.13830749  0.36393608  1
  Ce  Ce10  1  0.37849699  0.63606392  0.86169251  1
  Ce  Ce11  1  0.37849699  0.86169251  0.63606392  1
  Ce  Ce12  1  0.27217786  0.54228542  0.13529598  1
  Ce  Ce13  1  0.27217786  0.13529598  0.54228542  1
  Ce  Ce14  1  0.72782214  0.45771458  0.86470402  1
  Ce  Ce15  1  0.72782214  0.86470402  0.45771458  1
  Se  Se0  1  0.17115059  0.70567624  0.42102640  1
  Se  Se1  1  0.17115059  0.42102640  0.70567624  1
  Se  Se2  1  0.82884941  0.29432376  0.57897360  1
  Se  Se3  1  0.82884941  0.57897360  0.29432376  1
  Se  Se4  1  0.26545591  0.60969501  0.23802371  1
  Se  Se5  1  0.26545591  0.23802371  0.60969501  1
  Se  Se6  1  0.73454409  0.39030499  0.76197629  1
  Se  Se7  1  0.73454409  0.76197629  0.39030499  1
  Se  Se8  1  0.92114228  0.85468579  0.49841921  1
  Se  Se9  1  0.92114228  0.49841921  0.85468579  1
  Se  Se10  1  0.07885772  0.14531421  0.50158079  1
  Se  Se11  1  0.07885772  0.50158079  0.14531421  1
  Se  Se12  1  0.50000000  0.62557764  0.37442236  1
  Se  Se13  1  0.50000000  0.37442236  0.62557764  1
  Se  Se14  1  0.41846560  0.42370694  0.15713132  1
  Se  Se15  1  0.41846560  0.15713132  0.42370694  1
  Se  Se16  1  0.58153440  0.57629306  0.84286868  1
  Se  Se17  1  0.58153440  0.84286868  0.57629306  1
  Se  Se18  1  0.24863774  0.83050398  0.55674538  1
  Se  Se19  1  0.24863774  0.55674538  0.83050398  1
  Se  Se20  1  0.75136226  0.16949602  0.44325462  1
  Se  Se21  1  0.75136226  0.44325462  0.16949602  1
  Se  Se22  1  0.27545102  0.46887699  0.46887699  1
  Se  Se23  1  0.72454898  0.53112301  0.53112301  1
  Se  Se24  1  0.67891807  0.36273661  0.99899649  1
  Se  Se25  1  0.67891807  0.99899649  0.36273661  1
  Se  Se26  1  0.32108193  0.63726339  0.00100351  1
  Se  Se27  1  0.32108193  0.00100351  0.63726339  1
  Se  Se28  1  0.04458547  0.65560635  0.65560635  1
  Se  Se29  1  0.95541453  0.34439365  0.34439365  1
  Se  Se30  1  0.64540747  0.22272196  0.22272196  1
  Se  Se31  1  0.35459253  0.77727804  0.77727804  1
loop_
_geom_bond_atom_site_label_1
_geom_bond_atom_site_label_2
_geom_bond_distance
_geom_bond_site_symmetry_2
Ce0 Se22 2.708750 1_555
Ce0 Se12 2.710152 1_555
Ce0 Se0 2.723024 1_555
Ce0 Se4 2.726395 1_555
Ce1 Se22 2.708750 1_555
Ce1 Se13 2.710152 1_555
Ce1 Se1 2.723024 1_555
Ce1 Se5 2.726395 1_555
Ce2 Se23 2.708750 1_555
Ce2 Se13 2.710152 1_555
Ce2 Se2 2.723024 1_555
Ce2 Se6 2.726395 1_555
Ce3 Se23 2.708750 1_555
Ce3 Se12 2.710152 1_555
Ce3 Se3 2.723024 1_555
Ce3 Se7 2.726395 1_555
Ce4 Se28 2.715074 1_555
Ce4 Se18 2.715076 1_555
Ce4 Se0 2.722251 1_555
Ce4 Se8 2.731767 1_455
Ce5 Se28 2.715074 1_555
Ce5 Se19 2.715076 1_555
Ce5 Se1 2.722251 1_555
Ce5 Se9 2.731767 1_455
Ce6 Se29 2.715074 1_555
Ce6 Se20 2.715076 1_555
Ce6 Se2 2.722251 1_555
Ce6 Se10 2.731767 1_655
Ce7 Se29 2.715074 1_555
Ce7 Se21 2.715076 1_555
Ce7 Se3 2.722251 1_555
Ce7 Se11 2.731767 1_655
Ce8 Se24 2.714817 1_554
Ce8 Se14 2.721109 1_555
Ce8 Se21 2.732155 1_555
Ce8 Se30 2.732528 1_555
Ce9 Se25 2.714817 1_545
Ce9 Se15 2.721109 1_555
Ce9 Se20 2.732155 1_555
Ce9 Se30 2.732528 1_555
Ce10 Se26 2.714817 1_556
Ce10 Se16 2.721109 1_555
Ce10 Se19 2.732155 1_555
Ce10 Se31 2.732528 1_555
Ce11 Se27 2.714817 1_565
Ce11 Se17 2.721109 1_555
Ce11 Se18 2.732155 1_555
Ce11 Se31 2.732528 1_555
Ce12 Se14 2.715189 1_555
Ce12 Se11 2.720489 1_555
Ce12 Se4 2.720658 1_555
Ce12 Se26 2.741954 1_555
Ce13 Se15 2.715189 1_555
Ce13 Se10 2.720489 1_555
Ce13 Se5 2.720658 1_555
Ce13 Se27 2.741954 1_555
Ce14 Se16 2.715189 1_555
Ce14 Se9 2.720489 1_555
Ce14 Se6 2.720658 1_555
Ce14 Se24 2.741954 1_555
Ce15 Se17 2.715189 1_555
Ce15 Se8 2.720489 1_555
Ce15 Se7 2.720658 1_555
Ce15 Se25 2.741954 1_555
