# generated using pymatgen
data_OsRh2(NCl)10
_symmetry_space_group_name_H-M   'P 1'
_cell_length_a   6.79179191
_cell_length_b   6.79179191
_cell_length_c   12.93908170
_cell_angle_alpha   79.36800494
_cell_angle_beta   79.36800494
_cell_angle_gamma   80.48305423
_symmetry_Int_Tables_number   1
_chemical_formula_structural   OsRh2(NCl)10
_chemical_formula_sum   'Os1 Rh2 N10 Cl10'
_cell_volume   571.19143289
_cell_formula_units_Z   1
loop_
 _symmetry_equiv_pos_site_id
 _symmetry_equiv_pos_as_xyz
  1  'x, y, z'
loop_
 _atom_site_type_symbol
 _atom_site_label
 _atom_site_symmetry_multiplicity
 _atom_site_fract_x
 _atom_site_fract_y
 _atom_site_fract_z
 _atom_site_occupancy
  Os  Os0  1  0.00000000  0.00000000  0.50000000  1
  Rh  Rh0  1  0.33414800  0.33414800  0.73827300  1
  Rh  Rh1  1  0.66585200  0.66585200  0.26172700  1
  N  N0  1  0.15175200  0.48628300  0.66711000  1
  N  N1  1  0.48628300  0.15175200  0.66711000  1
  N  N2  1  0.84824800  0.51371700  0.33289000  1
  N  N3  1  0.51371700  0.84824800  0.33289000  1
  N  N4  1  0.12045300  0.41285500  0.88402900  1
  N  N5  1  0.41285500  0.12045300  0.88402900  1
  N  N6  1  0.87954700  0.58714500  0.11597100  1
  N  N7  1  0.58714500  0.87954700  0.11597100  1
  N  N8  1  0.53194200  0.53194200  0.72599900  1
  N  N9  1  0.46805800  0.46805800  0.27400100  1
  Cl  Cl0  1  0.22261300  0.22261300  0.48970900  1
  Cl  Cl1  1  0.77738700  0.77738700  0.51029100  1
  Cl  Cl2  1  0.95942000  0.95942000  0.68319500  1
  Cl  Cl3  1  0.04058000  0.04058000  0.31680500  1
  Cl  Cl4  1  0.26448200  0.73551800  0.50000000  1
  Cl  Cl5  1  0.73551800  0.26448200  0.50000000  1
  Cl  Cl6  1  0.23400800  0.23400800  0.95204200  1
  Cl  Cl7  1  0.76599200  0.76599200  0.04795800  1
  Cl  Cl8  1  0.58041900  0.58041900  0.83779700  1
  Cl  Cl9  1  0.41958100  0.41958100  0.16220300  1
loop_
_geom_bond_atom_site_label_1
_geom_bond_atom_site_label_2
_geom_bond_distance
_geom_bond_site_symmetry_2
N0 Rh0 1.759734 1_555
N1 Rh0 1.759734 1_555
N2 Rh1 1.759734 1_555
N3 Rh1 1.759734 1_555
N4 Rh0 2.248213 1_555
N5 Rh0 2.248213 1_555
N6 Rh1 2.248213 1_555
N7 Rh1 2.248213 1_555
N8 Rh0 2.018378 1_555
N9 Rh1 2.018378 1_555
Cl0 Os0 2.279694 1_555
Cl1 Os0 2.279694 1_665
Cl2 Os0 2.305121 1_665
Cl3 Os0 2.305121 1_555
Cl4 Os0 2.320868 1_565
Cl5 Os0 2.320868 1_655
Cl6 N4 1.546269 1_555
Cl6 N5 1.546269 1_555
Cl7 N7 1.546269 1_555
Cl7 N6 1.546269 1_555
Cl8 N8 1.642160 1_555
Cl9 N9 1.642160 1_555
