# generated using pymatgen
data_KNb3CuO9
_symmetry_space_group_name_H-M   'P 1'
_cell_length_a   7.83953200
_cell_length_b   8.98022100
_cell_length_c   10.27011700
_cell_angle_alpha   90.00000000
_cell_angle_beta   90.00000000
_cell_angle_gamma   90.00000000
_symmetry_Int_Tables_number   1
_chemical_formula_structural   KNb3CuO9
_chemical_formula_sum   'K4 Nb12 Cu4 O36'
_cell_volume   723.02373292
_cell_formula_units_Z   4
loop_
 _symmetry_equiv_pos_site_id
 _symmetry_equiv_pos_as_xyz
  1  'x, y, z'
loop_
 _atom_site_type_symbol
 _atom_site_label
 _atom_site_symmetry_multiplicity
 _atom_site_fract_x
 _atom_site_fract_y
 _atom_site_fract_z
 _atom_site_occupancy
  K  K0  1  0.31172300  0.08375300  0.74685000  1
  K  K1  1  0.31172300  0.91624700  0.25315000  1
  K  K2  1  0.81172300  0.08375300  0.75315000  1
  K  K3  1  0.81172300  0.91624700  0.24685000  1
  Nb  Nb0  1  0.06808800  0.20482100  0.43766800  1
  Nb  Nb1  1  0.06808800  0.79517900  0.56233200  1
  Nb  Nb2  1  0.56808800  0.20482100  0.06233200  1
  Nb  Nb3  1  0.56808800  0.79517900  0.93766800  1
  Nb  Nb4  1  0.07680900  0.19672300  0.06164500  1
  Nb  Nb5  1  0.07680900  0.80327700  0.93835500  1
  Nb  Nb6  1  0.57680900  0.19672300  0.43835500  1
  Nb  Nb7  1  0.57680900  0.80327700  0.56164500  1
  Nb  Nb8  1  0.06428300  0.56915400  0.25323800  1
  Nb  Nb9  1  0.06428300  0.43084600  0.74676200  1
  Nb  Nb10  1  0.56428300  0.56915400  0.24676200  1
  Nb  Nb11  1  0.56428300  0.43084600  0.75323800  1
  Cu  Cu0  1  0.81059200  0.50000000  0.00000000  1
  Cu  Cu1  1  0.31059200  0.50000000  0.50000000  1
  Cu  Cu2  1  0.30407400  0.50000000  0.00000000  1
  Cu  Cu3  1  0.80407400  0.50000000  0.50000000  1
  O  O0  1  0.08951300  0.72512400  0.12284800  1
  O  O1  1  0.08951300  0.27487600  0.87715200  1
  O  O2  1  0.58951300  0.72512400  0.37715200  1
  O  O3  1  0.58951300  0.27487600  0.62284800  1
  O  O4  1  0.30548100  0.14659100  0.05811900  1
  O  O5  1  0.30548100  0.85340900  0.94188100  1
  O  O6  1  0.80548100  0.14659100  0.44188100  1
  O  O7  1  0.80548100  0.85340900  0.55811900  1
  O  O8  1  0.05469600  0.14816800  0.25129800  1
  O  O9  1  0.05469600  0.85183200  0.74870200  1
  O  O10  1  0.55469600  0.14816800  0.24870200  1
  O  O11  1  0.55469600  0.85183200  0.75129800  1
  O  O12  1  0.12344800  0.41598700  0.11330600  1
  O  O13  1  0.12344800  0.58401300  0.88669400  1
  O  O14  1  0.62344800  0.41598700  0.38669400  1
  O  O15  1  0.62344800  0.58401300  0.61330600  1
  O  O16  1  0.01491200  0.27506700  0.61878300  1
  O  O17  1  0.01491200  0.72493300  0.38121700  1
  O  O18  1  0.51491200  0.27506700  0.88121700  1
  O  O19  1  0.51491200  0.72493300  0.11878300  1
  O  O20  1  0.30147400  0.27784700  0.44795900  1
  O  O21  1  0.30147400  0.72215300  0.55204100  1
  O  O22  1  0.80147400  0.27784700  0.05204100  1
  O  O23  1  0.80147400  0.72215300  0.94795900  1
  O  O24  1  0.48164800  0.41599600  0.11507200  1
  O  O25  1  0.48164800  0.58400400  0.88492800  1
  O  O26  1  0.98164800  0.41599600  0.38492800  1
  O  O27  1  0.98164800  0.58400400  0.61507200  1
  O  O28  1  0.30352600  0.55708600  0.31590600  1
  O  O29  1  0.30352600  0.44291400  0.68409400  1
  O  O30  1  0.80352600  0.55708600  0.18409400  1
  O  O31  1  0.80352600  0.44291400  0.81590600  1
  O  O32  1  0.99333700  0.00000000  0.00000000  1
  O  O33  1  0.49333700  0.00000000  0.50000000  1
  O  O34  1  0.61659500  0.00000000  0.00000000  1
  O  O35  1  0.11659500  0.00000000  0.50000000  1
loop_
_geom_bond_atom_site_label_1
_geom_bond_atom_site_label_2
_geom_bond_distance
_geom_bond_site_symmetry_2
K0 O18 2.719067 1_555
K0 O1 2.787695 1_555
K0 O11 2.822760 1_545
K0 O5 2.879796 1_545
K0 O9 2.897951 1_545
K0 O33 3.003320 1_555
K0 O3 3.051260 1_555
K0 O35 3.054969 1_555
K0 O16 3.177398 1_555
K0 O4 3.246561 1_556
K0 O29 3.289738 1_555
K1 O19 2.719067 1_555
K1 O0 2.787695 1_555
K1 O10 2.822760 1_565
K1 O4 2.879796 1_565
K1 O8 2.897951 1_565
K1 O33 3.003320 1_565
K1 O2 3.051260 1_555
K1 O35 3.054969 1_565
K1 O17 3.177398 1_555
K1 O5 3.246561 1_554
K1 O28 3.289738 1_555
K2 O16 2.719067 1_655
K2 O3 2.787695 1_555
K2 O9 2.822760 1_645
K2 O7 2.879796 1_545
K2 O11 2.897951 1_545
K2 O32 3.003320 1_556
K2 O1 3.051260 1_655
K2 O34 3.054969 1_556
K2 O18 3.177398 1_555
K2 O6 3.246561 1_555
K2 O31 3.289738 1_555
K3 O17 2.719067 1_655
K3 O2 2.787695 1_555
K3 O8 2.822760 1_665
K3 O6 2.879796 1_565
K3 O10 2.897951 1_565
K3 O32 3.003320 1_565
K3 O0 3.051260 1_655
K3 O34 3.054969 1_565
K3 O19 3.177398 1_555
K3 O7 3.246561 1_555
K3 O30 3.289738 1_555
Nb0 O20 1.946485 1_555
Nb0 O8 1.983283 1_555
Nb0 O35 1.984332 1_555
Nb0 O16 2.007883 1_555
Nb0 O26 2.085405 1_455
Nb0 O6 2.124530 1_455
Nb1 O21 1.946485 1_555
Nb1 O9 1.983283 1_555
Nb1 O35 1.984332 1_565
Nb1 O17 2.007883 1_555
Nb1 O27 2.085405 1_455
Nb1 O7 2.124530 1_455
Nb2 O22 1.946485 1_555
Nb2 O10 1.983283 1_555
Nb2 O34 1.984332 1_555
Nb2 O18 2.007883 1_554
Nb2 O24 2.085405 1_555
Nb2 O4 2.124530 1_555
Nb3 O23 1.946485 1_555
Nb3 O11 1.983283 1_555
Nb3 O34 1.984332 1_566
Nb3 O19 2.007883 1_556
Nb3 O25 2.085405 1_555
Nb3 O5 2.124530 1_555
Nb4 O4 1.848701 1_555
Nb4 O32 1.987452 1_455
Nb4 O8 2.003482 1_555
Nb4 O1 2.023022 1_554
Nb4 O12 2.071786 1_555
Nb4 O22 2.280256 1_455
Nb5 O5 1.848701 1_555
Nb5 O32 1.987452 1_466
Nb5 O9 2.003482 1_555
Nb5 O0 2.023022 1_556
Nb5 O13 2.071786 1_555
Nb5 O23 2.280256 1_455
Nb6 O6 1.848701 1_555
Nb6 O33 1.987452 1_555
Nb6 O10 2.003482 1_555
Nb6 O3 2.023022 1_555
Nb6 O14 2.071786 1_555
Nb6 O20 2.280256 1_555
Nb7 O7 1.848701 1_555
Nb7 O33 1.987452 1_565
Nb7 O11 2.003482 1_555
Nb7 O2 2.023022 1_555
Nb7 O15 2.071786 1_555
Nb7 O21 2.280256 1_555
Nb8 O0 1.947863 1_555
Nb8 O17 1.958149 1_555
Nb8 O28 1.985869 1_555
Nb8 O26 2.034835 1_455
Nb8 O12 2.042638 1_555
Nb8 O30 2.166753 1_455
Nb9 O1 1.947863 1_555
Nb9 O16 1.958149 1_555
Nb9 O29 1.985869 1_555
Nb9 O27 2.034835 1_455
Nb9 O13 2.042638 1_555
Nb9 O31 2.166753 1_455
Nb10 O2 1.947863 1_555
Nb10 O19 1.958149 1_555
Nb10 O30 1.985869 1_555
Nb10 O24 2.034835 1_555
Nb10 O14 2.042638 1_555
Nb10 O28 2.166753 1_555
Nb11 O3 1.947863 1_555
Nb11 O18 1.958149 1_555
Nb11 O31 1.985869 1_555
Nb11 O25 2.034835 1_555
Nb11 O15 2.042638 1_555
Nb11 O29 2.166753 1_555
Cu0 O30 1.959718 1_555
Cu0 O31 1.959718 1_554
Cu0 O23 2.066573 1_554
Cu0 O22 2.066573 1_555
Cu1 O29 1.959718 1_555
Cu1 O28 1.959718 1_555
Cu1 O21 2.066573 1_555
Cu1 O20 2.066573 1_555
Cu2 O24 1.975772 1_555
Cu2 O25 1.975772 1_554
Cu2 O12 1.982030 1_555
Cu2 O13 1.982030 1_554
Cu3 O27 1.975772 1_555
Cu3 O26 1.975772 1_555
Cu3 O15 1.982030 1_555
Cu3 O14 1.982030 1_555
