# generated using pymatgen
data_Mo3Os2
_symmetry_space_group_name_H-M   'P 1'
_cell_length_a   4.97792700
_cell_length_b   9.67435461
_cell_length_c   9.67435461
_cell_angle_alpha   90.12336444
_cell_angle_beta   90.00000000
_cell_angle_gamma   90.00000000
_symmetry_Int_Tables_number   1
_chemical_formula_structural   Mo3Os2
_chemical_formula_sum   'Mo18 Os12'
_cell_volume   465.89872398
_cell_formula_units_Z   6
loop_
 _symmetry_equiv_pos_site_id
 _symmetry_equiv_pos_as_xyz
  1  'x, y, z'
loop_
 _atom_site_type_symbol
 _atom_site_label
 _atom_site_symmetry_multiplicity
 _atom_site_fract_x
 _atom_site_fract_y
 _atom_site_fract_z
 _atom_site_occupancy
  Mo  Mo0  1  0.49944500  0.10385300  0.89614700  1
  Mo  Mo1  1  0.49944500  0.89614700  0.10385300  1
  Mo  Mo2  1  0.99913800  0.39696000  0.39696000  1
  Mo  Mo3  1  0.99913800  0.60304000  0.60304000  1
  Mo  Mo4  1  0.49976700  0.36925300  0.96180500  1
  Mo  Mo5  1  0.49976700  0.63074700  0.03819500  1
  Mo  Mo6  1  0.00086600  0.13210400  0.46498600  1
  Mo  Mo7  1  0.00086600  0.86789600  0.53501400  1
  Mo  Mo8  1  0.49976700  0.96180500  0.36925300  1
  Mo  Mo9  1  0.49976700  0.03819500  0.63074700  1
  Mo  Mo10  1  0.00086600  0.46498600  0.13210400  1
  Mo  Mo11  1  0.00086600  0.53501400  0.86789600  1
  Mo  Mo12  1  0.74839000  0.18093300  0.18093300  1
  Mo  Mo13  1  0.74839000  0.81906700  0.81906700  1
  Mo  Mo14  1  0.75087600  0.68097600  0.31902400  1
  Mo  Mo15  1  0.75087600  0.31902400  0.68097600  1
  Mo  Mo16  1  0.25034400  0.81780000  0.81780000  1
  Mo  Mo17  1  0.25034400  0.18220000  0.18220000  1
  Os  Os0  1  0.49852600  0.50000000  0.50000000  1
  Os  Os1  1  0.00154500  0.00000000  0.00000000  1
  Os  Os2  1  0.49833200  0.43395900  0.23593300  1
  Os  Os3  1  0.49833200  0.56604100  0.76406700  1
  Os  Os4  1  0.00168000  0.06835600  0.73635700  1
  Os  Os5  1  0.00168000  0.93164400  0.26364300  1
  Os  Os6  1  0.49833200  0.23593300  0.43395900  1
  Os  Os7  1  0.49833200  0.76406700  0.56604100  1
  Os  Os8  1  0.00168000  0.73635700  0.06835600  1
  Os  Os9  1  0.00168000  0.26364300  0.93164400  1
  Os  Os10  1  0.25048100  0.31890100  0.68109900  1
  Os  Os11  1  0.25048100  0.68109900  0.31890100  1
loop_
_geom_bond_atom_site_label_1
_geom_bond_atom_site_label_2
_geom_bond_distance
_geom_bond_site_symmetry_2
Mo0 Mo4 2.643651 1_555
Mo0 Mo9 2.643651 1_555
Mo0 Mo1 2.844809 1_546
Mo0 Os1 2.857664 1_556
Mo0 Os1 2.875816 1_656
Mo0 Os4 2.940242 1_555
Mo0 Os9 2.940242 1_555
Mo0 Os4 2.959018 1_655
Mo0 Os9 2.959018 1_655
Mo0 Mo13 3.110241 1_545
Mo0 Mo12 3.110241 1_556
Mo0 Mo17 3.124334 1_556
Mo0 Mo16 3.124334 1_545
Mo0 Os10 3.195483 1_555
Mo0 Mo15 3.201817 1_555
Mo1 Mo8 2.643651 1_555
Mo1 Mo5 2.643651 1_555
Mo1 Os1 2.857664 1_565
Mo1 Os1 2.875816 1_665
Mo1 Os8 2.940242 1_555
Mo1 Os5 2.940242 1_555
Mo1 Os8 2.959018 1_655
Mo1 Os5 2.959018 1_655
Mo1 Mo12 3.110241 1_565
Mo1 Mo13 3.110241 1_554
Mo1 Mo17 3.124334 1_565
Mo1 Mo16 3.124334 1_554
Mo1 Os11 3.195483 1_555
Mo1 Mo14 3.201817 1_555
Mo2 Mo6 2.646862 1_655
Mo2 Mo3 2.816468 1_555
Mo2 Os0 2.857080 1_655
Mo2 Os0 2.862383 1_555
Mo2 Os6 2.955055 1_655
Mo2 Os2 2.955055 1_655
Mo2 Os2 2.961806 1_555
Mo2 Os6 2.961806 1_555
Mo2 Os10 3.114624 1_655
Mo2 Os11 3.114624 1_655
Mo3 Mo7 2.646862 1_655
Mo3 Os0 2.857080 1_655
Mo3 Os0 2.862383 1_555
Mo3 Os3 2.955055 1_655
Mo3 Os7 2.955055 1_655
Mo3 Os7 2.961806 1_555
Mo3 Os3 2.961806 1_555
Mo3 Os10 3.114624 1_655
Mo3 Os11 3.114624 1_655
Mo4 Mo5 2.633993 1_556
Mo4 Os9 2.697290 1_555
Mo4 Os3 2.701795 1_555
Mo4 Os9 2.714807 1_655
Mo4 Os2 2.723588 1_556
Mo4 Os10 3.024276 1_555
Mo5 Os8 2.697290 1_555
Mo5 Os2 2.701795 1_555
Mo5 Os8 2.714807 1_655
Mo5 Os3 2.723588 1_554
Mo5 Os11 3.024276 1_555
Mo6 Mo7 2.645710 1_545
Mo6 Os6 2.689365 1_555
Mo6 Os4 2.698099 1_555
Mo6 Os6 2.712612 1_455
Mo6 Os5 2.745704 1_545
Mo6 Os10 3.027327 1_555
Mo6 Mo9 3.093708 1_555
Mo6 Mo9 3.102498 1_455
Mo6 Mo8 3.119823 1_545
Mo6 Mo8 3.128539 1_445
Mo7 Os7 2.689365 1_555
Mo7 Os5 2.698099 1_555
Mo7 Os7 2.712612 1_455
Mo7 Os4 2.745704 1_565
Mo7 Os11 3.027327 1_555
Mo7 Mo8 3.093708 1_555
Mo7 Mo8 3.102498 1_455
Mo7 Mo9 3.119823 1_565
Mo7 Mo9 3.128539 1_465
Mo8 Mo9 2.633993 1_565
Mo8 Os5 2.697290 1_555
Mo8 Os7 2.701795 1_555
Mo8 Os5 2.714807 1_655
Mo8 Os6 2.723588 1_565
Mo8 Os11 3.024276 1_555
Mo9 Os4 2.697290 1_555
Mo9 Os6 2.701795 1_555
Mo9 Os4 2.714807 1_655
Mo9 Os7 2.723588 1_545
Mo9 Os10 3.024276 1_555
Mo10 Mo11 2.645710 1_554
Mo10 Mo2 2.646862 1_455
Mo10 Os2 2.689365 1_555
Mo10 Os8 2.698099 1_555
Mo10 Os2 2.712612 1_455
Mo10 Os9 2.745704 1_554
Mo10 Os11 3.027327 1_555
Mo10 Mo14 3.027982 1_455
Mo10 Mo17 3.044226 1_555
Mo10 Mo12 3.059407 1_455
Mo10 Mo5 3.093708 1_555
Mo10 Mo5 3.102498 1_455
Mo10 Mo4 3.119823 1_554
Mo10 Mo4 3.128539 1_454
Mo11 Mo3 2.646862 1_455
Mo11 Os3 2.689365 1_555
Mo11 Os9 2.698099 1_555
Mo11 Os3 2.712612 1_455
Mo11 Os8 2.745704 1_556
Mo11 Os10 3.027327 1_555
Mo11 Mo15 3.027982 1_455
Mo11 Mo16 3.044226 1_555
Mo11 Mo13 3.059407 1_455
Mo11 Mo4 3.093708 1_555
Mo11 Mo4 3.102498 1_455
Mo11 Mo5 3.119823 1_556
Mo11 Mo5 3.128539 1_456
Mo12 Mo17 2.479297 1_555
Mo12 Mo17 2.498750 1_655
Mo12 Os1 2.775382 1_655
Mo12 Os2 2.796247 1_555
Mo12 Os6 2.796247 1_555
Mo12 Os5 2.838078 1_645
Mo12 Os9 2.838078 1_654
Mo12 Mo6 3.059407 1_655
Mo12 Mo8 3.059681 1_545
Mo12 Mo4 3.059681 1_554
Mo12 Mo2 3.205426 1_555
Mo13 Mo16 2.479297 1_555
Mo13 Mo16 2.498750 1_655
Mo13 Os1 2.775382 1_666
Mo13 Os3 2.796247 1_555
Mo13 Os7 2.796247 1_555
Mo13 Os4 2.838078 1_665
Mo13 Os8 2.838078 1_656
Mo13 Mo7 3.059407 1_655
Mo13 Mo9 3.059681 1_565
Mo13 Mo5 3.059681 1_556
Mo13 Mo3 3.205426 1_555
Mo14 Os11 2.486998 1_655
Mo14 Os11 2.490930 1_555
Mo14 Os0 2.778844 1_555
Mo14 Os8 2.780690 1_655
Mo14 Os5 2.780690 1_655
Mo14 Os2 2.815871 1_555
Mo14 Os7 2.815871 1_555
Mo14 Mo7 3.027982 1_655
Mo14 Mo5 3.028889 1_555
Mo14 Mo8 3.028889 1_555
Mo14 Mo3 3.107150 1_555
Mo14 Mo2 3.107150 1_555
Mo15 Os10 2.486998 1_655
Mo15 Os10 2.490930 1_555
Mo15 Os0 2.778844 1_555
Mo15 Os9 2.780690 1_655
Mo15 Os4 2.780690 1_655
Mo15 Os3 2.815871 1_555
Mo15 Os6 2.815871 1_555
Mo15 Mo6 3.027982 1_655
Mo15 Mo4 3.028889 1_555
Mo15 Mo9 3.028889 1_555
Mo15 Mo2 3.107150 1_555
Mo15 Mo3 3.107150 1_555
Mo16 Os3 2.778643 1_555
Mo16 Os7 2.778643 1_555
Mo16 Os1 2.781098 1_566
Mo16 Os4 2.834937 1_565
Mo16 Os8 2.834937 1_556
Mo16 Mo7 3.044226 1_555
Mo16 Mo5 3.062534 1_556
Mo16 Mo9 3.062534 1_565
Mo16 Mo3 3.190377 1_455
Mo17 Os2 2.778643 1_555
Mo17 Os6 2.778643 1_555
Mo17 Os1 2.781098 1_555
Mo17 Os9 2.834937 1_554
Mo17 Os5 2.834937 1_545
Mo17 Mo6 3.044226 1_555
Mo17 Mo4 3.062534 1_554
Mo17 Mo8 3.062534 1_545
Mo17 Mo2 3.190377 1_455
Os0 Os6 2.632024 1_555
Os0 Os2 2.632024 1_555
Os0 Os3 2.632024 1_555
Os0 Os7 2.632024 1_555
Os0 Os11 2.770730 1_555
Os0 Os10 2.770730 1_555
Os1 Os8 2.636289 1_545
Os1 Os4 2.636289 1_554
Os1 Os5 2.636289 1_545
Os1 Os9 2.636289 1_554
Os2 Os6 2.712228 1_555
Os3 Os7 2.712228 1_555
Os4 Os9 2.668961 1_555
Os5 Os8 2.668961 1_555
Os10 Os9 2.774956 1_555
Os10 Os4 2.774956 1_555
Os10 Os6 2.806194 1_555
Os10 Os3 2.806194 1_555
Os11 Os5 2.774956 1_555
Os11 Os8 2.774956 1_555
Os11 Os2 2.806194 1_555
Os11 Os7 2.806194 1_555
