# generated using pymatgen
data_Zn(BiO2)2
_symmetry_space_group_name_H-M   'P 1'
_cell_length_a   6.76508900
_cell_length_b   6.78808106
_cell_length_c   16.53310112
_cell_angle_alpha   87.53097666
_cell_angle_beta   87.63424266
_cell_angle_gamma   62.72913184
_symmetry_Int_Tables_number   1
_chemical_formula_structural   Zn(BiO2)2
_chemical_formula_sum   'Zn6 Bi12 O24'
_cell_volume   674.01930023
_cell_formula_units_Z   6
loop_
 _symmetry_equiv_pos_site_id
 _symmetry_equiv_pos_as_xyz
  1  'x, y, z'
loop_
 _atom_site_type_symbol
 _atom_site_label
 _atom_site_symmetry_multiplicity
 _atom_site_fract_x
 _atom_site_fract_y
 _atom_site_fract_z
 _atom_site_occupancy
  Zn  Zn0  1  0.84799300  0.34735500  0.04144900  1
  Zn  Zn1  1  0.14386500  0.65056900  0.33873300  1
  Zn  Zn2  1  0.32116400  0.82185600  0.19682800  1
  Zn  Zn3  1  0.83764800  0.34039900  0.66361000  1
  Zn  Zn4  1  0.99917000  0.50341900  0.50357500  1
  Zn  Zn5  1  0.64936500  0.15225900  0.80954200  1
  Bi  Bi0  1  0.84276600  0.83390500  0.16532900  1
  Bi  Bi1  1  0.51792200  0.02200500  0.37303900  1
  Bi  Bi2  1  0.50809900  0.00659800  0.99855800  1
  Bi  Bi3  1  0.33498800  0.34406600  0.16479800  1
  Bi  Bi4  1  0.49978300  0.50598700  0.49970200  1
  Bi  Bi5  1  0.16899700  0.67168900  0.71719200  1
  Bi  Bi6  1  0.00096400  0.00354300  0.50015200  1
  Bi  Bi7  1  0.14374800  0.15914900  0.83387100  1
  Bi  Bi8  1  0.82646600  0.32671500  0.28610600  1
  Bi  Bi9  1  0.65739000  0.64512700  0.83425000  1
  Bi  Bi10  1  0.48713600  0.98726000  0.61662200  1
  Bi  Bi11  1  0.13775600  0.63490500  0.96372100  1
  O  O0  1  0.71912300  0.66623000  0.07758600  1
  O  O1  1  0.48073400  0.97697100  0.23991800  1
  O  O2  1  0.16779600  0.21770900  0.07731900  1
  O  O3  1  0.67110800  0.17281100  0.07331900  1
  O  O4  1  0.27838900  0.38999200  0.42514100  1
  O  O5  1  0.01644900  0.51816000  0.25201500  1
  O  O6  1  0.16940200  0.66850900  0.58596900  1
  O  O7  1  0.45126700  0.52713700  0.26229500  1
  O  O8  1  0.86839400  0.78988500  0.42266900  1
  O  O9  1  0.19893200  0.69738200  0.10483500  1
  O  O10  1  0.34511600  0.84870500  0.42314200  1
  O  O11  1  0.02737300  0.94992800  0.26291900  1
  O  O12  1  0.95005500  0.05696500  0.74587700  1
  O  O13  1  0.66984900  0.17407600  0.58013400  1
  O  O14  1  0.11043500  0.21020700  0.57914300  1
  O  O15  1  0.54852700  0.45681300  0.74577500  1
  O  O16  1  0.85713900  0.35962100  0.91845400  1
  O  O17  1  0.82722000  0.32621300  0.41824900  1
  O  O18  1  0.98289100  0.47951800  0.74896100  1
  O  O19  1  0.71518800  0.61184700  0.58030900  1
  O  O20  1  0.31401900  0.80984700  0.91456100  1
  O  O21  1  0.80623600  0.87200600  0.89971100  1
  O  O22  1  0.49789600  0.00220200  0.74721600  1
  O  O23  1  0.37444200  0.30358800  0.89892600  1
loop_
_geom_bond_atom_site_label_1
_geom_bond_atom_site_label_2
_geom_bond_distance
_geom_bond_site_symmetry_2
Bi0 O0 2.283517 1_555
Bi0 O9 2.345089 1_655
Bi0 O5 2.365360 1_655
Bi0 O11 2.441402 1_655
Bi0 O1 2.477203 1_555
Bi0 O3 2.520155 1_565
Bi1 O10 2.129099 1_545
Bi1 O1 2.274835 1_545
Bi1 O8 2.324479 1_545
Bi1 O4 2.443015 1_555
Bi2 O3 2.321582 1_556
Bi2 O21 2.396106 1_545
Bi2 O23 2.400321 1_555
Bi2 O2 2.437059 1_556
Bi2 O0 2.440207 1_546
Bi2 O20 2.711727 1_545
Bi3 O2 2.288613 1_555
Bi3 O9 2.330144 1_555
Bi3 O5 2.382474 1_555
Bi3 O7 2.436086 1_555
Bi3 O3 2.500913 1_555
Bi3 O1 2.511371 1_545
Bi4 O19 2.370313 1_555
Bi4 O17 2.372274 1_555
Bi4 O13 2.379273 1_555
Bi4 O4 2.387384 1_555
Bi4 O10 2.394593 1_555
Bi4 O6 2.420656 1_555
Bi5 O6 2.170436 1_555
Bi5 O18 2.225779 1_455
Bi5 O15 2.356271 1_555
Bi5 O12 2.399487 1_465
Bi6 O14 2.326320 1_555
Bi6 O17 2.351435 1_455
Bi6 O13 2.370112 1_455
Bi6 O10 2.403012 1_545
Bi6 O6 2.442192 1_545
Bi6 O8 2.448619 1_445
Bi7 O16 2.255890 1_455
Bi7 O12 2.322039 1_455
Bi7 O18 2.361912 1_455
Bi7 O20 2.465779 1_545
Bi7 O23 2.487067 1_555
Bi7 O22 2.537066 1_555
Bi8 O17 2.184802 1_555
Bi8 O5 2.250790 1_655
Bi8 O7 2.306606 1_555
Bi8 O11 2.322009 1_645
Bi9 O16 2.245672 1_555
Bi9 O15 2.329989 1_555
Bi9 O18 2.390153 1_555
Bi9 O20 2.429476 1_555
Bi9 O21 2.492351 1_555
Bi9 O22 2.557510 1_565
Bi10 O22 2.171638 1_565
Bi10 O13 2.192918 1_565
Bi10 O14 2.384112 1_565
Bi10 O19 2.384774 1_555
Bi11 O20 2.151088 1_555
Bi11 O21 2.341293 1_455
Bi11 O23 2.352744 1_555
Bi11 O9 2.473879 1_556
O0 Zn0 2.035041 1_555
O1 Zn2 1.987780 1_555
O2 Zn0 2.030531 1_455
O3 Zn0 2.075286 1_555
O4 Zn4 2.096069 1_455
O4 Zn1 2.100541 1_555
O5 Zn1 2.128247 1_555
O6 Zn4 2.425178 1_455
O7 Zn2 2.055964 1_555
O7 Zn1 2.213900 1_555
O8 Zn1 2.139530 1_655
O8 Zn4 2.156457 1_555
O9 Zn2 2.136763 1_555
O11 Zn2 2.054054 1_555
O11 Zn1 2.171648 1_555
O12 Zn5 2.083354 1_555
O12 Zn3 2.156170 1_555
O13 Zn3 2.430244 1_555
O14 Zn3 2.129756 1_455
O14 Zn4 2.139970 1_455
O15 Zn5 2.104741 1_555
O15 Zn3 2.179957 1_555
O16 Zn0 2.031153 1_556
O17 Zn4 2.520745 1_555
O18 Zn3 2.219938 1_555
O19 Zn4 2.103689 1_555
O19 Zn3 2.110676 1_555
O21 Zn5 2.236931 1_565
O22 Zn5 2.069654 1_555
O23 Zn5 2.202570 1_555
