# generated using pymatgen
data_Ca16Mn14Al2O47
_symmetry_space_group_name_H-M   'P 1'
_cell_length_a   10.81638751
_cell_length_b   15.08097539
_cell_length_c   10.67103402
_cell_angle_alpha   89.99489958
_cell_angle_beta   90.39370699
_cell_angle_gamma   89.99424543
_symmetry_Int_Tables_number   1
_chemical_formula_structural   Ca16Mn14Al2O47
_chemical_formula_sum   'Ca32 Mn28 Al4 O94'
_cell_volume   1740.63582161
_cell_formula_units_Z   2
loop_
 _symmetry_equiv_pos_site_id
 _symmetry_equiv_pos_as_xyz
  1  'x, y, z'
loop_
 _atom_site_type_symbol
 _atom_site_label
 _atom_site_symmetry_multiplicity
 _atom_site_fract_x
 _atom_site_fract_y
 _atom_site_fract_z
 _atom_site_occupancy
  Ca  Ca0  1  0.02227248  0.12528791  0.49733314  1
  Ca  Ca1  1  0.02061720  0.12036982  0.99254945  1
  Ca  Ca2  1  0.02396634  0.62520436  0.49492566  1
  Ca  Ca3  1  0.02353019  0.62507969  0.99634388  1
  Ca  Ca4  1  0.52540744  0.12838986  0.49707023  1
  Ca  Ca5  1  0.52501721  0.12537253  0.99597579  1
  Ca  Ca6  1  0.52309059  0.62445179  0.49543236  1
  Ca  Ca7  1  0.52191140  0.62496307  0.99679810  1
  Ca  Ca8  1  0.47755149  0.37615437  0.00558062  1
  Ca  Ca9  1  0.47647957  0.37453245  0.50450991  1
  Ca  Ca10  1  0.47612107  0.87430514  0.00226300  1
  Ca  Ca11  1  0.47946568  0.87077758  0.50674484  1
  Ca  Ca12  1  0.97430126  0.37820115  0.00212534  1
  Ca  Ca13  1  0.97856794  0.37538653  0.50331130  1
  Ca  Ca14  1  0.97706166  0.87467255  0.00531344  1
  Ca  Ca15  1  0.97458914  0.87496145  0.50381648  1
  Ca  Ca16  1  0.23434226  0.37839608  0.25101221  1
  Ca  Ca17  1  0.22754399  0.37518224  0.74721616  1
  Ca  Ca18  1  0.22824392  0.87568069  0.24597079  1
  Ca  Ca19  1  0.22901816  0.87593669  0.74792210  1
  Ca  Ca20  1  0.72628412  0.37311606  0.24396298  1
  Ca  Ca21  1  0.72723959  0.37463771  0.74570183  1
  Ca  Ca22  1  0.72977164  0.87374754  0.24563124  1
  Ca  Ca23  1  0.72676210  0.87542736  0.74497239  1
  Ca  Ca24  1  0.26497579  0.12826946  0.24936798  1
  Ca  Ca25  1  0.27093810  0.12593478  0.75045064  1
  Ca  Ca26  1  0.27312031  0.62530887  0.25413173  1
  Ca  Ca27  1  0.27254190  0.62517551  0.75439632  1
  Ca  Ca28  1  0.77069754  0.12188449  0.25580298  1
  Ca  Ca29  1  0.77304497  0.12494832  0.75477534  1
  Ca  Ca30  1  0.77325482  0.62493744  0.25468370  1
  Ca  Ca31  1  0.77282031  0.62520891  0.75458612  1
  Mn  Mn0  1  0.00382365  0.00292688  0.24984921  1
  Mn  Mn1  1  0.99727431  0.99872197  0.75096485  1
  Mn  Mn2  1  0.00041114  0.49828028  0.24929700  1
  Mn  Mn3  1  0.00006379  0.50011618  0.74928146  1
  Mn  Mn4  1  0.49828398  0.00021620  0.74809233  1
  Mn  Mn5  1  0.50066068  0.50051070  0.25005665  1
  Mn  Mn6  1  0.50015998  0.49953620  0.74998967  1
  Mn  Mn7  1  0.25054026  0.00234439  0.00338607  1
  Mn  Mn8  1  0.24926541  0.49813403  0.99973911  1
  Mn  Mn9  1  0.25037592  0.50040024  0.50073711  1
  Mn  Mn10  1  0.75093294  0.99916012  0.99745906  1
  Mn  Mn11  1  0.74766638  0.00021639  0.49865959  1
  Mn  Mn12  1  0.74953635  0.50038773  0.99975527  1
  Mn  Mn13  1  0.75040477  0.49936474  0.49967720  1
  Mn  Mn14  1  0.24939938  0.24805515  0.49769229  1
  Mn  Mn15  1  0.24981423  0.75010002  0.00025075  1
  Mn  Mn16  1  0.25066748  0.75245162  0.49905868  1
  Mn  Mn17  1  0.75225759  0.24961913  0.00166808  1
  Mn  Mn18  1  0.74939268  0.24982431  0.50269356  1
  Mn  Mn19  1  0.74978447  0.75008307  0.00003048  1
  Mn  Mn20  1  0.75043139  0.74959573  0.50013286  1
  Mn  Mn21  1  0.00146178  0.24949219  0.75210285  1
  Mn  Mn22  1  0.00063947  0.75051264  0.24993857  1
  Mn  Mn23  1  0.00011553  0.75028273  0.74994547  1
  Mn  Mn24  1  0.49651235  0.24835657  0.24950103  1
  Mn  Mn25  1  0.50259718  0.24926180  0.74903377  1
  Mn  Mn26  1  0.49945822  0.75292433  0.25104419  1
  Mn  Mn27  1  0.50002954  0.74959349  0.75051805  1
  Al  Al0  1  0.51386933  0.99883178  0.23003584  1
  Al  Al1  1  0.23019832  0.99615119  0.51331207  1
  Al  Al2  1  0.26955872  0.24652489  0.98560688  1
  Al  Al3  1  0.98507731  0.24899980  0.26955701  1
  O  O0  1  0.10519583  0.26758649  0.60395911  1
  O  O1  1  0.10384350  0.77028101  0.10288645  1
  O  O2  1  0.10446554  0.77160060  0.60265512  1
  O  O3  1  0.60395794  0.26862157  0.10403772  1
  O  O4  1  0.60298213  0.26966309  0.60185121  1
  O  O5  1  0.60417981  0.77173195  0.10387731  1
  O  O6  1  0.60535479  0.76898306  0.60459836  1
  O  O7  1  0.39494379  0.22944108  0.39609906  1
  O  O8  1  0.40169641  0.22966841  0.89071454  1
  O  O9  1  0.39625356  0.73076830  0.39720816  1
  O  O10  1  0.39586900  0.72980057  0.89705229  1
  O  O11  1  0.89049207  0.22958317  0.40274567  1
  O  O12  1  0.89757314  0.22974549  0.89852966  1
  O  O13  1  0.89581118  0.72971157  0.39675179  1
  O  O14  1  0.89587815  0.72924070  0.89697547  1
  O  O15  1  0.14118876  0.23306657  0.34979441  1
  O  O16  1  0.14151481  0.23139664  0.86511697  1
  O  O17  1  0.14647294  0.73021928  0.35277085  1
  O  O18  1  0.14643061  0.72977432  0.85295871  1
  O  O19  1  0.64565813  0.22935028  0.35229370  1
  O  O20  1  0.64914576  0.22952012  0.85259342  1
  O  O21  1  0.64577820  0.73058173  0.35374157  1
  O  O22  1  0.64576362  0.72929262  0.85358201  1
  O  O23  1  0.34898504  0.26819474  0.14246392  1
  O  O24  1  0.35323074  0.26942580  0.64658023  1
  O  O25  1  0.35360349  0.77080629  0.14729197  1
  O  O26  1  0.35444440  0.77121816  0.64700277  1
  O  O27  1  0.86727705  0.27032402  0.14145385  1
  O  O28  1  0.85401341  0.27105932  0.64915393  1
  O  O29  1  0.85396764  0.77048801  0.14692525  1
  O  O30  1  0.85434429  0.77078463  0.64703755  1
  O  O31  1  0.35496119  0.48015091  0.14615752  1
  O  O32  1  0.35384002  0.47944512  0.64762472  1
  O  O33  1  0.35745696  0.98328816  0.15131305  1
  O  O34  1  0.35817754  0.98163552  0.63428979  1
  O  O35  1  0.85332314  0.47913390  0.14690166  1
  O  O36  1  0.85387594  0.47922311  0.64688066  1
  O  O37  1  0.85532455  0.98082350  0.14702946  1
  O  O38  1  0.85113481  0.97952088  0.64689788  1
  O  O39  1  0.15043528  0.01904615  0.35705278  1
  O  O40  1  0.14602778  0.02054508  0.85377549  1
  O  O41  1  0.14636065  0.51976095  0.35324352  1
  O  O42  1  0.14608832  0.52015362  0.85261819  1
  O  O43  1  0.63249064  0.02047978  0.35853549  1
  O  O44  1  0.64562392  0.02086573  0.85073649  1
  O  O45  1  0.64628658  0.52050403  0.35285845  1
  O  O46  1  0.64607768  0.52097339  0.85309543  1
  O  O47  1  0.39501872  0.02126602  0.89627731  1
  O  O48  1  0.39562709  0.52006720  0.39665434  1
  O  O49  1  0.39526372  0.51800719  0.89721742  1
  O  O50  1  0.89462180  0.02213661  0.39521375  1
  O  O51  1  0.89498586  0.01927743  0.89583490  1
  O  O52  1  0.89726104  0.51811206  0.39677084  1
  O  O53  1  0.89665681  0.51934227  0.89776571  1
  O  O54  1  0.10383170  0.47920732  0.10289497  1
  O  O55  1  0.10416421  0.47959554  0.60313301  1
  O  O56  1  0.10495914  0.98093266  0.10378544  1
  O  O57  1  0.09836258  0.97993940  0.60919945  1
  O  O58  1  0.60430517  0.47956477  0.10334627  1
  O  O59  1  0.60404872  0.47960212  0.60297624  1
  O  O60  1  0.60957993  0.97977335  0.09740293  1
  O  O61  1  0.60244891  0.97934592  0.60146172  1
  O  O62  1  0.01509293  0.37071624  0.27693886  1
  O  O63  1  0.01012014  0.37525135  0.78891113  1
  O  O64  1  0.01019103  0.87601961  0.28948694  1
  O  O65  1  0.00992445  0.87435664  0.79154299  1
  O  O66  1  0.50812508  0.37439454  0.28874329  1
  O  O67  1  0.51019938  0.37483726  0.78987494  1
  O  O68  1  0.50587096  0.88030096  0.28822794  1
  O  O69  1  0.50926149  0.87504176  0.78869470  1
  O  O70  1  0.48440221  0.12076691  0.22243569  1
  O  O71  1  0.49043503  0.12482901  0.70892974  1
  O  O72  1  0.49058623  0.62613217  0.21137149  1
  O  O73  1  0.48952032  0.62474014  0.71059492  1
  O  O74  1  0.99593488  0.13042034  0.21183735  1
  O  O75  1  0.99067081  0.12487468  0.71152620  1
  O  O76  1  0.99033960  0.62434803  0.21100078  1
  O  O77  1  0.98976776  0.62505655  0.70998150  1
  O  O78  1  0.23751411  0.12987735  0.03666613  1
  O  O79  1  0.25069833  0.12033982  0.52778778  1
  O  O80  1  0.24044901  0.62429145  0.03901826  1
  O  O81  1  0.24077173  0.62603554  0.53919741  1
  O  O82  1  0.74060234  0.12506724  0.04032555  1
  O  O83  1  0.73876025  0.12489082  0.54126719  1
  O  O84  1  0.73991953  0.62526338  0.03987546  1
  O  O85  1  0.74080513  0.62481341  0.53930848  1
  O  O86  1  0.25978848  0.37463021  0.46264141  1
  O  O87  1  0.24823985  0.37040047  0.97068105  1
  O  O88  1  0.26185005  0.87958913  0.46202285  1
  O  O89  1  0.26002373  0.87603590  0.96251111  1
  O  O90  1  0.76011229  0.37496011  0.46006479  1
  O  O91  1  0.75890239  0.37526543  0.96080920  1
  O  O92  1  0.75935482  0.87526610  0.45972578  1
  O  O93  1  0.76158686  0.87454330  0.95862809  1
loop_
_geom_bond_atom_site_label_1
_geom_bond_atom_site_label_2
_geom_bond_distance
_geom_bond_site_symmetry_2
Ca0 O75 2.313409 1_455
Ca0 O50 2.343905 1_455
Ca0 O11 2.346048 1_455
Ca0 O79 2.490918 1_555
Ca0 O0 2.586738 1_555
Ca0 O39 2.599648 1_555
Ca0 O15 2.608232 1_555
Ca0 O57 2.625428 1_545
Ca1 O51 2.284164 1_455
Ca1 O12 2.340854 1_455
Ca1 O74 2.361911 1_456
Ca1 O78 2.393949 1_556
Ca1 O40 2.515353 1_555
Ca1 O16 2.527298 1_555
Ca1 O56 2.578271 1_546
Ca2 O77 2.326998 1_455
Ca2 O13 2.341430 1_455
Ca2 O52 2.358973 1_455
Ca2 O81 2.389014 1_555
Ca2 O17 2.567635 1_555
Ca2 O41 2.568007 1_555
Ca2 O55 2.625499 1_555
Ca2 O2 2.634604 1_555
Ca3 O76 2.321034 1_456
Ca3 O14 2.340409 1_455
Ca3 O53 2.348089 1_455
Ca3 O80 2.387015 1_556
Ca3 O18 2.574706 1_555
Ca3 O42 2.577102 1_555
Ca3 O1 2.613351 1_556
Ca3 O54 2.621518 1_556
Ca4 O71 2.295375 1_555
Ca4 O7 2.335182 1_555
Ca4 O83 2.352815 1_555
Ca4 O43 2.489764 1_555
Ca4 O19 2.534635 1_555
Ca4 O4 2.545846 1_555
Ca4 O61 2.640838 1_545
Ca4 O70 2.963235 1_555
Ca4 O79 2.994097 1_555
Ca5 O8 2.343836 1_555
Ca5 O47 2.356731 1_555
Ca5 O82 2.376207 1_556
Ca5 O70 2.460112 1_556
Ca5 O44 2.572086 1_555
Ca5 O20 2.576589 1_555
Ca5 O3 2.590967 1_556
Ca5 O60 2.610567 1_546
Ca6 O73 2.327010 1_555
Ca6 O48 2.338970 1_555
Ca6 O9 2.351816 1_555
Ca6 O85 2.397828 1_555
Ca6 O45 2.564310 1_555
Ca6 O21 2.576129 1_555
Ca6 O59 2.615547 1_555
Ca6 O6 2.624184 1_555
Ca7 O72 2.317024 1_556
Ca7 O10 2.338937 1_555
Ca7 O49 2.363945 1_555
Ca7 O84 2.399350 1_556
Ca7 O22 2.575636 1_555
Ca7 O46 2.577399 1_555
Ca7 O58 2.623042 1_556
Ca7 O5 2.642642 1_556
Ca8 O58 2.319758 1_555
Ca8 O67 2.331216 1_554
Ca8 O3 2.362766 1_555
Ca8 O87 2.507106 1_554
Ca8 O31 2.548658 1_555
Ca8 O49 2.586675 1_554
Ca8 O23 2.597348 1_555
Ca8 O8 2.653864 1_554
Ca9 O66 2.330083 1_555
Ca9 O4 2.330707 1_555
Ca9 O59 2.345127 1_555
Ca9 O86 2.383000 1_555
Ca9 O24 2.572137 1_555
Ca9 O32 2.573537 1_555
Ca9 O7 2.625031 1_555
Ca9 O48 2.625253 1_555
Ca10 O69 2.309471 1_554
Ca10 O5 2.337928 1_555
Ca10 O60 2.371715 1_555
Ca10 O89 2.372843 1_554
Ca10 O25 2.572102 1_555
Ca10 O10 2.598192 1_554
Ca10 O33 2.628038 1_555
Ca10 O47 2.635569 1_564
Ca11 O6 2.298033 1_555
Ca11 O61 2.335413 1_555
Ca11 O68 2.355546 1_555
Ca11 O88 2.402153 1_555
Ca11 O26 2.520108 1_555
Ca11 O34 2.528453 1_555
Ca11 O9 2.573140 1_555
Ca12 O63 2.311021 1_654
Ca12 O54 2.328008 1_655
Ca12 O91 2.368627 1_554
Ca12 O27 2.494186 1_555
Ca12 O35 2.538471 1_555
Ca12 O53 2.542155 1_554
Ca12 O12 2.628977 1_554
Ca12 O62 2.964689 1_655
Ca12 O87 2.986562 1_654
Ca13 O55 2.330419 1_655
Ca13 O0 2.377287 1_655
Ca13 O90 2.404439 1_555
Ca13 O62 2.451416 1_655
Ca13 O36 2.578136 1_555
Ca13 O52 2.585421 1_555
Ca13 O28 2.596406 1_555
Ca13 O11 2.623158 1_555
Ca14 O65 2.311097 1_654
Ca14 O1 2.328688 1_655
Ca14 O56 2.359393 1_655
Ca14 O93 2.379959 1_554
Ca14 O29 2.559805 1_555
Ca14 O37 2.571165 1_555
Ca14 O51 2.625576 1_564
Ca14 O14 2.627708 1_554
Ca15 O64 2.321971 1_655
Ca15 O2 2.344049 1_655
Ca15 O57 2.354446 1_655
Ca15 O92 2.371958 1_555
Ca15 O30 2.554011 1_555
Ca15 O38 2.574648 1_555
Ca15 O13 2.610962 1_555
Ca15 O50 2.646312 1_565
Ca16 O86 2.273839 1_555
Ca16 O31 2.308492 1_555
Ca16 O23 2.379304 1_555
Ca16 O62 2.392273 1_555
Ca16 O41 2.579743 1_555
Ca16 O54 2.602082 1_555
Ca16 O15 2.635260 1_555
Ca17 O32 2.342658 1_555
Ca17 O24 2.359044 1_555
Ca17 O87 2.394633 1_555
Ca17 O63 2.396461 1_555
Ca17 O55 2.568150 1_555
Ca17 O0 2.587331 1_555
Ca17 O42 2.614372 1_555
Ca17 O16 2.677095 1_555
Ca18 O88 2.332261 1_555
Ca18 O25 2.338452 1_555
Ca18 O33 2.372079 1_555
Ca18 O64 2.406957 1_555
Ca18 O56 2.563430 1_555
Ca18 O1 2.577027 1_555
Ca18 O39 2.608030 1_565
Ca18 O17 2.628163 1_555
Ca19 O89 2.312034 1_555
Ca19 O26 2.348249 1_555
Ca19 O65 2.418341 1_555
Ca19 O34 2.446713 1_555
Ca19 O57 2.572740 1_555
Ca19 O2 2.581853 1_555
Ca19 O40 2.617581 1_565
Ca19 O18 2.631884 1_555
Ca20 O90 2.332562 1_555
Ca20 O35 2.353075 1_555
Ca20 O66 2.410882 1_555
Ca20 O27 2.438890 1_555
Ca20 O3 2.537171 1_555
Ca20 O58 2.557617 1_555
Ca20 O19 2.609872 1_555
Ca20 O45 2.655853 1_555
Ca21 O91 2.318518 1_555
Ca21 O28 2.324015 1_555
Ca21 O36 2.344341 1_555
Ca21 O67 2.397622 1_555
Ca21 O59 2.563622 1_555
Ca21 O4 2.577108 1_555
Ca21 O20 2.611004 1_555
Ca21 O46 2.639738 1_555
Ca22 O92 2.304847 1_555
Ca22 O29 2.314818 1_555
Ca22 O37 2.361931 1_555
Ca22 O68 2.469124 1_555
Ca22 O5 2.544227 1_555
Ca22 O60 2.592223 1_555
Ca22 O21 2.613861 1_555
Ca22 O43 2.733668 1_565
Ca23 O93 2.308316 1_555
Ca23 O38 2.321393 1_555
Ca23 O30 2.346620 1_555
Ca23 O69 2.401539 1_555
Ca23 O6 2.553239 1_555
Ca23 O61 2.565181 1_555
Ca23 O44 2.620772 1_565
Ca23 O22 2.642283 1_555
Ca24 O78 2.287204 1_555
Ca24 O15 2.336357 1_555
Ca24 O39 2.363947 1_555
Ca24 O70 2.395362 1_555
Ca24 O23 2.567928 1_555
Ca24 O7 2.593539 1_555
Ca24 O33 2.624962 1_545
Ca25 O40 2.363857 1_555
Ca25 O79 2.386109 1_555
Ca25 O71 2.418201 1_555
Ca25 O16 2.451519 1_555
Ca25 O8 2.580651 1_555
Ca25 O47 2.585513 1_555
Ca25 O24 2.591757 1_555
Ca25 O34 2.679325 1_545
Ca26 O80 2.320176 1_555
Ca26 O17 2.346773 1_555
Ca26 O41 2.356315 1_555
Ca26 O72 2.399154 1_555
Ca26 O48 2.561123 1_555
Ca26 O9 2.570460 1_555
Ca26 O25 2.624104 1_555
Ca26 O31 2.630117 1_555
Ca27 O81 2.319662 1_555
Ca27 O18 2.339834 1_555
Ca27 O42 2.344726 1_555
Ca27 O73 2.396170 1_555
Ca27 O10 2.561120 1_555
Ca27 O49 2.582281 1_555
Ca27 O32 2.629709 1_555
Ca27 O26 2.638724 1_555
Ca28 O82 2.320570 1_555
Ca28 O19 2.352659 1_555
Ca28 O43 2.407883 1_555
Ca28 O74 2.487524 1_555
Ca28 O50 2.498905 1_555
Ca28 O37 2.593334 1_545
Ca28 O11 2.597817 1_555
Ca28 O27 2.758462 1_555
Ca29 O83 2.305819 1_555
Ca29 O20 2.322004 1_555
Ca29 O44 2.330562 1_555
Ca29 O75 2.401851 1_555
Ca29 O51 2.552827 1_555
Ca29 O12 2.576374 1_555
Ca29 O38 2.619566 1_545
Ca29 O28 2.627973 1_555
Ca30 O84 2.317967 1_555
Ca30 O45 2.341790 1_555
Ca30 O21 2.361521 1_555
Ca30 O76 2.397051 1_555
Ca30 O13 2.554504 1_555
Ca30 O52 2.581589 1_555
Ca30 O29 2.629900 1_555
Ca30 O35 2.630897 1_555
Ca31 O85 2.320843 1_555
Ca31 O46 2.339961 1_555
Ca31 O22 2.342726 1_555
Ca31 O77 2.397578 1_555
Ca31 O14 2.552425 1_555
Ca31 O53 2.578491 1_555
Ca31 O30 2.632187 1_555
Ca31 O36 2.636399 1_555
Mn0 O56 1.938951 1_545
Mn0 O64 1.961132 1_545
Mn0 O39 1.964116 1_555
Mn0 O74 1.966733 1_455
Mn0 O37 1.967449 1_445
Mn0 O50 1.977491 1_455
Mn1 O57 1.893948 1_655
Mn1 O65 1.929482 1_655
Mn1 O51 1.932245 1_565
Mn1 O38 1.947231 1_555
Mn1 O75 1.949657 1_565
Mn1 O40 1.968921 1_665
Mn2 O35 1.945431 1_455
Mn2 O76 1.947494 1_455
Mn2 O54 1.949045 1_555
Mn2 O41 1.950265 1_555
Mn2 O62 1.952533 1_555
Mn2 O52 1.958299 1_455
Mn3 O63 1.932836 1_555
Mn3 O77 1.933325 1_455
Mn3 O36 1.941651 1_455
Mn3 O42 1.943757 1_555
Mn3 O55 1.954479 1_555
Mn3 O53 1.967242 1_455
Mn4 O71 1.926888 1_555
Mn4 O69 1.940240 1_545
Mn4 O44 1.952616 1_555
Mn4 O34 1.955683 1_545
Mn4 O61 1.959852 1_545
Mn4 O47 1.968027 1_555
Mn5 O45 1.936961 1_555
Mn5 O72 1.941802 1_555
Mn5 O31 1.945059 1_555
Mn5 O66 1.947754 1_555
Mn5 O58 1.957459 1_555
Mn5 O48 1.961963 1_555
Mn6 O67 1.930987 1_555
Mn6 O73 1.937629 1_555
Mn6 O32 1.940670 1_555
Mn6 O46 1.944839 1_555
Mn6 O59 1.959186 1_555
Mn6 O49 1.964100 1_555
Mn7 O56 1.937751 1_545
Mn7 O89 1.957031 1_544
Mn7 O78 1.961094 1_555
Mn7 O47 1.963290 1_554
Mn7 O40 1.969041 1_554
Mn7 O33 1.971423 1_545
Mn8 O54 1.947193 1_556
Mn8 O42 1.948379 1_555
Mn8 O31 1.948611 1_556
Mn8 O49 1.950451 1_555
Mn8 O80 1.950701 1_556
Mn8 O87 1.951191 1_555
Mn9 O81 1.941601 1_555
Mn9 O86 1.942651 1_555
Mn9 O32 1.945478 1_555
Mn9 O41 1.950318 1_555
Mn9 O48 1.952923 1_555
Mn9 O55 1.953777 1_555
Mn10 O60 1.892876 1_556
Mn10 O93 1.928124 1_555
Mn10 O51 1.928491 1_565
Mn10 O82 1.956525 1_566
Mn10 O44 1.957371 1_565
Mn10 O37 1.968238 1_556
Mn11 O92 1.933977 1_545
Mn11 O83 1.936987 1_555
Mn11 O61 1.947663 1_545
Mn11 O38 1.956451 1_545
Mn11 O43 1.963527 1_555
Mn11 O50 1.969408 1_555
Mn12 O84 1.934281 1_556
Mn12 O91 1.935020 1_555
Mn12 O46 1.942599 1_555
Mn12 O35 1.950415 1_556
Mn12 O58 1.952468 1_556
Mn12 O53 1.955069 1_555
Mn13 O90 1.926222 1_555
Mn13 O85 1.941540 1_555
Mn13 O36 1.946274 1_555
Mn13 O45 1.949381 1_555
Mn13 O52 1.957802 1_555
Mn13 O59 1.958049 1_555
Mn14 O7 1.937993 1_555
Mn14 O86 1.948544 1_555
Mn14 O79 1.952667 1_555
Mn14 O0 1.956986 1_555
Mn14 O24 1.965978 1_555
Mn14 O15 1.971437 1_555
Mn15 O80 1.944655 1_555
Mn15 O89 1.944735 1_554
Mn15 O18 1.947008 1_554
Mn15 O25 1.948273 1_555
Mn15 O1 1.951597 1_555
Mn15 O10 1.956024 1_554
Mn16 O9 1.947148 1_555
Mn16 O17 1.948181 1_555
Mn16 O26 1.951466 1_555
Mn16 O81 1.957064 1_555
Mn16 O2 1.957097 1_555
Mn16 O88 1.961543 1_555
Mn17 O82 1.927417 1_555
Mn17 O91 1.945792 1_554
Mn17 O12 1.948177 1_554
Mn17 O20 1.960133 1_554
Mn17 O27 1.960861 1_555
Mn17 O3 1.967871 1_555
Mn18 O11 1.892692 1_555
Mn18 O83 1.932128 1_555
Mn18 O4 1.933909 1_555
Mn18 O90 1.944839 1_555
Mn18 O28 1.949764 1_555
Mn18 O19 1.976229 1_555
Mn19 O93 1.932673 1_554
Mn19 O84 1.932907 1_555
Mn19 O22 1.944846 1_554
Mn19 O29 1.948734 1_555
Mn19 O14 1.956794 1_554
Mn19 O5 1.959312 1_555
Mn20 O85 1.930652 1_555
Mn20 O21 1.944152 1_555
Mn20 O92 1.946177 1_555
Mn20 O30 1.949050 1_555
Mn20 O13 1.950243 1_555
Mn20 O6 1.953093 1_555
Mn21 O75 1.931987 1_455
Mn21 O63 1.938993 1_555
Mn21 O16 1.948957 1_555
Mn21 O12 1.953711 1_455
Mn21 O28 1.957544 1_455
Mn21 O0 1.963886 1_555
Mn22 O17 1.939590 1_555
Mn22 O64 1.941888 1_555
Mn22 O29 1.947268 1_455
Mn22 O76 1.950594 1_455
Mn22 O1 1.954849 1_555
Mn22 O13 1.965411 1_455
Mn23 O65 1.925891 1_555
Mn23 O77 1.939196 1_455
Mn23 O30 1.939996 1_455
Mn23 O18 1.945401 1_555
Mn23 O14 1.964136 1_455
Mn23 O2 1.967748 1_555
Mn24 O7 1.938842 1_555
Mn24 O70 1.950040 1_555
Mn24 O66 1.950269 1_555
Mn24 O19 1.965544 1_555
Mn24 O3 1.969337 1_555
Mn24 O23 1.978690 1_555
Mn25 O8 1.893904 1_555
Mn25 O71 1.929086 1_555
Mn25 O4 1.940051 1_555
Mn25 O67 1.944959 1_555
Mn25 O20 1.948912 1_555
Mn25 O24 1.968119 1_555
Mn26 O25 1.939907 1_555
Mn26 O21 1.948150 1_555
Mn26 O9 1.953052 1_555
Mn26 O72 1.960707 1_555
Mn26 O68 1.962687 1_555
Mn26 O5 1.963196 1_555
Mn27 O73 1.933724 1_555
Mn27 O69 1.937722 1_555
Mn27 O22 1.940124 1_555
Mn27 O26 1.944776 1_555
Mn27 O10 1.956447 1_555
Mn27 O6 1.957636 1_555
Al0 O60 1.782595 1_555
Al0 O70 1.867946 1_565
Al0 O68 1.894474 1_555
Al0 O33 1.898280 1_555
Al0 O43 1.899751 1_565
Al1 O57 1.777713 1_555
Al1 O88 1.873362 1_555
Al1 O79 1.892193 1_565
Al1 O34 1.898956 1_555
Al1 O39 1.903681 1_565
Al2 O8 1.775558 1_555
Al2 O78 1.874617 1_556
Al2 O87 1.888898 1_555
Al2 O16 1.897104 1_555
Al2 O23 1.904455 1_556
Al3 O11 1.781115 1_555
Al3 O62 1.865701 1_655
Al3 O27 1.889844 1_555
Al3 O74 1.895337 1_555
Al3 O15 1.903181 1_655
