# generated using pymatgen
data_La11(MnC6)3
_symmetry_space_group_name_H-M   'P 1'
_cell_length_a   10.28214942
_cell_length_b   10.28214942
_cell_length_c   10.28214949
_cell_angle_alpha   95.54260543
_cell_angle_beta   95.54260543
_cell_angle_gamma   95.54260090
_symmetry_Int_Tables_number   1
_chemical_formula_structural   La11(MnC6)3
_chemical_formula_sum   'La22 Mn6 C36'
_cell_volume   1070.74222485
_cell_formula_units_Z   2
loop_
 _symmetry_equiv_pos_site_id
 _symmetry_equiv_pos_as_xyz
  1  'x, y, z'
loop_
 _atom_site_type_symbol
 _atom_site_label
 _atom_site_symmetry_multiplicity
 _atom_site_fract_x
 _atom_site_fract_y
 _atom_site_fract_z
 _atom_site_occupancy
  La  La0  1  0.16453200  0.82683900  0.76774100  1
  La  La1  1  0.76774100  0.16453200  0.82683900  1
  La  La2  1  0.82683900  0.76774100  0.16453200  1
  La  La3  1  0.83546800  0.17316100  0.23225900  1
  La  La4  1  0.23225900  0.83546800  0.17316100  1
  La  La5  1  0.17316100  0.23225900  0.83546800  1
  La  La6  1  0.82357100  0.49539900  0.42327300  1
  La  La7  1  0.42327300  0.82357100  0.49539900  1
  La  La8  1  0.49539900  0.42327300  0.82357100  1
  La  La9  1  0.17642900  0.50460100  0.57672700  1
  La  La10  1  0.57672700  0.17642900  0.50460100  1
  La  La11  1  0.50460100  0.57672700  0.17642900  1
  La  La12  1  0.84143800  0.90242400  0.50920000  1
  La  La13  1  0.50920000  0.84143800  0.90242400  1
  La  La14  1  0.90242400  0.50920000  0.84143800  1
  La  La15  1  0.15856200  0.09757600  0.49080000  1
  La  La16  1  0.49080000  0.15856200  0.09757600  1
  La  La17  1  0.09757600  0.49080000  0.15856200  1
  La  La18  1  0.86325400  0.86325400  0.86325400  1
  La  La19  1  0.13674600  0.13674600  0.13674700  1
  La  La20  1  0.63935900  0.63935900  0.63935900  1
  La  La21  1  0.36064100  0.36064100  0.36064100  1
  Mn  Mn0  1  0.92064000  0.25336200  0.57439600  1
  Mn  Mn1  1  0.57439600  0.92064000  0.25336200  1
  Mn  Mn2  1  0.25336200  0.57439600  0.92064000  1
  Mn  Mn3  1  0.07936000  0.74663800  0.42560400  1
  Mn  Mn4  1  0.42560400  0.07936000  0.74663800  1
  Mn  Mn5  1  0.74663800  0.42560400  0.07936000  1
  C  C0  1  0.33728400  0.62991200  0.78731700  1
  C  C1  1  0.78731700  0.33728400  0.62991200  1
  C  C2  1  0.62991200  0.78731700  0.33728400  1
  C  C3  1  0.66271600  0.37008800  0.21268300  1
  C  C4  1  0.21268300  0.66271600  0.37008800  1
  C  C5  1  0.37008800  0.21268300  0.66271600  1
  C  C6  1  0.98923000  0.70301100  0.56032800  1
  C  C7  1  0.56032800  0.98923000  0.70301100  1
  C  C8  1  0.70301100  0.56032800  0.98923000  1
  C  C9  1  0.01077000  0.29698900  0.43967200  1
  C  C10  1  0.43967200  0.01077000  0.29698900  1
  C  C11  1  0.29698900  0.43967200  0.01077000  1
  C  C12  1  0.96546400  0.11899000  0.66337900  1
  C  C13  1  0.66337900  0.96546400  0.11899000  1
  C  C14  1  0.11899000  0.66337900  0.96546400  1
  C  C15  1  0.03453600  0.88101000  0.33662100  1
  C  C16  1  0.33662100  0.03453600  0.88101000  1
  C  C17  1  0.88101000  0.33662100  0.03453600  1
  C  C18  1  0.91134700  0.68483000  0.65733600  1
  C  C19  1  0.65733600  0.91134700  0.68483000  1
  C  C20  1  0.68483000  0.65733600  0.91134700  1
  C  C21  1  0.08865300  0.31517000  0.34266400  1
  C  C22  1  0.34266400  0.08865300  0.31517000  1
  C  C23  1  0.31517000  0.34266400  0.08865300  1
  C  C24  1  0.67184600  0.68630300  0.39744200  1
  C  C25  1  0.39744200  0.67184600  0.68630300  1
  C  C26  1  0.68630300  0.39744200  0.67184600  1
  C  C27  1  0.32815400  0.31369700  0.60255800  1
  C  C28  1  0.60255800  0.32815400  0.31369700  1
  C  C29  1  0.31369700  0.60255800  0.32815400  1
  C  C30  1  0.00013500  0.01826700  0.72850800  1
  C  C31  1  0.72850800  0.00013500  0.01826700  1
  C  C32  1  0.01826700  0.72850800  0.00013500  1
  C  C33  1  0.99986500  0.98173300  0.27149200  1
  C  C34  1  0.27149200  0.99986500  0.98173300  1
  C  C35  1  0.98173300  0.27149200  0.99986500  1
loop_
_geom_bond_atom_site_label_1
_geom_bond_atom_site_label_2
_geom_bond_distance
_geom_bond_site_symmetry_2
C0 C25 1.344019 1_555
C0 Mn2 1.798379 1_555
C0 La9 2.727975 1_555
C0 La13 2.758940 1_555
C0 La8 2.828351 1_555
C0 La0 2.828427 1_555
C1 C26 1.344019 1_555
C1 Mn0 1.798379 1_555
C1 La10 2.727975 1_555
C1 La14 2.758939 1_555
C1 La6 2.828351 1_555
C1 La1 2.828428 1_555
C2 C24 1.344019 1_555
C2 Mn1 1.798379 1_555
C2 La11 2.727975 1_555
C2 La12 2.758939 1_555
C2 La7 2.828351 1_555
C2 La2 2.828428 1_555
C3 Mn5 1.798379 1_555
C3 La6 2.727975 1_555
C3 La16 2.758940 1_555
C3 La11 2.828351 1_555
C3 La3 2.828427 1_555
C4 Mn3 1.798379 1_555
C4 La7 2.727975 1_555
C4 La17 2.758939 1_555
C4 La9 2.828351 1_555
C4 La4 2.828428 1_555
C5 Mn4 1.798379 1_555
C5 La8 2.727975 1_555
C5 La15 2.758939 1_555
C5 La10 2.828351 1_555
C5 La5 2.828428 1_555
C6 Mn3 1.807400 1_655
C6 La12 2.728647 1_555
C6 La6 2.774344 1_555
C6 La0 2.776295 1_655
C6 La9 2.942370 1_655
C7 Mn4 1.807400 1_565
C7 La13 2.728647 1_555
C7 La7 2.774344 1_555
C7 La1 2.776295 1_565
C7 La10 2.942371 1_565
C8 Mn5 1.807400 1_556
C8 La14 2.728647 1_555
C8 La8 2.774344 1_555
C8 La2 2.776295 1_556
C8 La11 2.942371 1_556
C9 Mn0 1.807400 1_455
C9 La15 2.728647 1_555
C9 La9 2.774344 1_555
C9 La3 2.776295 1_455
C9 La6 2.942370 1_455
C10 C22 1.353714 1_555
C10 Mn1 1.807400 1_545
C10 La16 2.728647 1_555
C10 La10 2.774344 1_555
C10 La4 2.776295 1_545
C10 La7 2.942371 1_545
C11 C23 1.353714 1_555
C11 Mn2 1.807400 1_554
C11 La17 2.728647 1_555
C11 La11 2.774344 1_555
C11 La5 2.776295 1_554
C11 La8 2.942371 1_554
C12 C30 1.344352 1_655
C12 Mn0 1.801159 1_555
C12 La5 2.727547 1_655
C12 La12 2.734395 1_545
C12 La15 2.798014 1_655
C12 La1 2.805206 1_555
C13 C31 1.344352 1_565
C13 Mn1 1.801159 1_555
C13 La3 2.727547 1_565
C13 La13 2.734395 1_554
C13 La16 2.798014 1_565
C13 La2 2.805206 1_555
C14 C32 1.344352 1_556
C14 Mn2 1.801159 1_555
C14 La4 2.727547 1_556
C14 La14 2.734395 1_455
C14 La17 2.798014 1_556
C14 La0 2.805206 1_555
C15 C33 1.344352 1_455
C15 Mn3 1.801159 1_555
C15 La2 2.727547 1_455
C15 La15 2.734395 1_565
C15 La12 2.798014 1_455
C15 La4 2.805206 1_555
C16 C34 1.344352 1_545
C16 Mn4 1.801159 1_555
C16 La0 2.727547 1_545
C16 La16 2.734395 1_556
C16 La13 2.798014 1_545
C16 La5 2.805206 1_555
C17 C35 1.344352 1_554
C17 Mn5 1.801159 1_555
C17 La1 2.727547 1_554
C17 La17 2.734395 1_655
C17 La14 2.798014 1_554
C17 La3 2.805206 1_555
C18 C6 1.353714 1_555
C18 La14 2.741300 1_555
C18 La20 2.775738 1_555
C18 La18 2.778533 1_555
C18 La0 2.927881 1_655
C18 La12 2.932546 1_555
C18 La6 2.955622 1_555
C19 C7 1.353714 1_555
C19 La12 2.741300 1_555
C19 La20 2.775738 1_555
C19 La18 2.778533 1_555
C19 La1 2.927881 1_565
C19 La13 2.932546 1_555
C19 La7 2.955622 1_555
C20 C8 1.353714 1_555
C20 La13 2.741300 1_555
C20 La20 2.775738 1_555
C20 La18 2.778534 1_555
C20 La2 2.927881 1_556
C20 La14 2.932546 1_555
C20 La8 2.955622 1_555
C21 C9 1.353714 1_555
C21 La17 2.741300 1_555
C21 La21 2.775738 1_555
C21 La19 2.778526 1_555
C21 La3 2.927881 1_455
C21 La15 2.932546 1_555
C21 La9 2.955622 1_555
C22 La15 2.741300 1_555
C22 La21 2.775738 1_555
C22 La19 2.778527 1_555
C22 La4 2.927881 1_545
C22 La16 2.932546 1_555
C22 La10 2.955622 1_555
C23 La16 2.741300 1_555
C23 La21 2.775738 1_555
C23 La19 2.778537 1_555
C23 La5 2.927881 1_554
C23 La17 2.932546 1_555
C23 La11 2.955622 1_555
C24 La20 2.625480 1_555
C24 La6 2.639986 1_555
C24 La12 2.769554 1_555
C24 La11 2.786937 1_555
C25 La20 2.625480 1_555
C25 La7 2.639986 1_555
C25 La13 2.769554 1_555
C25 La9 2.786937 1_555
C26 La20 2.625480 1_555
C26 La8 2.639986 1_555
C26 La14 2.769554 1_555
C26 La10 2.786937 1_555
C27 C5 1.344019 1_555
C27 La21 2.625480 1_555
C27 La9 2.639986 1_555
C27 La15 2.769554 1_555
C27 La8 2.786937 1_555
C28 C3 1.344019 1_555
C28 La21 2.625480 1_555
C28 La10 2.639986 1_555
C28 La16 2.769554 1_555
C28 La6 2.786937 1_555
C29 C4 1.344019 1_555
C29 La21 2.625480 1_555
C29 La11 2.639986 1_555
C29 La17 2.769554 1_555
C29 La7 2.786937 1_555
C30 La18 2.609740 1_445
C30 La0 2.749284 1_545
C30 La12 2.749748 1_445
C30 La5 2.759415 1_555
C30 La15 3.192164 1_555
C31 La18 2.609740 1_544
C31 La1 2.749284 1_554
C31 La13 2.749748 1_544
C31 La3 2.759415 1_555
C31 La16 3.192164 1_555
C32 La18 2.609740 1_454
C32 La2 2.749284 1_455
C32 La14 2.749748 1_454
C32 La4 2.759415 1_555
C32 La17 3.192164 1_555
C33 La19 2.609734 1_665
C33 La3 2.749284 1_565
C33 La15 2.749748 1_665
C33 La2 2.759415 1_555
C33 La12 3.192164 1_555
C34 La19 2.609746 1_566
C34 La4 2.749284 1_556
C34 La16 2.749748 1_566
C34 La0 2.759415 1_555
C34 La13 3.192164 1_555
C35 La19 2.609745 1_656
C35 La5 2.749284 1_655
C35 La17 2.749748 1_656
C35 La1 2.759415 1_555
C35 La14 3.192164 1_555
