# generated using pymatgen
data_Nd6Cd(GeS7)2
_symmetry_space_group_name_H-M   'P 1'
_cell_length_a   10.24594651
_cell_length_b   10.24594650
_cell_length_c   5.79704607
_cell_angle_alpha   90.00000000
_cell_angle_beta   90.00000000
_cell_angle_gamma   120.00000231
_symmetry_Int_Tables_number   1
_chemical_formula_structural   Nd6Cd(GeS7)2
_chemical_formula_sum   'Nd6 Cd1 Ge2 S14'
_cell_volume   527.03752950
_cell_formula_units_Z   1
loop_
 _symmetry_equiv_pos_site_id
 _symmetry_equiv_pos_as_xyz
  1  'x, y, z'
loop_
 _atom_site_type_symbol
 _atom_site_label
 _atom_site_symmetry_multiplicity
 _atom_site_fract_x
 _atom_site_fract_y
 _atom_site_fract_z
 _atom_site_occupancy
  Nd  Nd0  1  0.46005063  0.02453844  0.75555166  1
  Nd  Nd1  1  0.56448881  0.53994937  0.75555166  1
  Nd  Nd2  1  0.97546156  0.43551119  0.75555166  1
  Nd  Nd3  1  0.20615459  0.30865749  0.24987955  1
  Nd  Nd4  1  0.10250390  0.79384541  0.24987955  1
  Nd  Nd5  1  0.69134251  0.89749610  0.24987955  1
  Cd  Cd0  1  0.33333300  0.66666700  0.51498785  1
  Ge  Ge0  1  0.66666700  0.33333300  0.17244161  1
  Ge  Ge1  1  0.00000000  0.00000000  0.66451083  1
  S  S0  1  0.42581355  0.92308461  0.27744340  1
  S  S1  1  0.49727006  0.57418645  0.27744340  1
  S  S2  1  0.07691539  0.50272994  0.27744340  1
  S  S3  1  0.24328300  0.41100315  0.76581629  1
  S  S4  1  0.16772015  0.75671700  0.76581629  1
  S  S5  1  0.58899685  0.83227985  0.76581629  1
  S  S6  1  0.66666700  0.33333300  0.54763695  1
  S  S7  1  0.00000000  0.00000000  0.04061619  1
  S  S8  1  0.74718943  0.18710099  0.01778728  1
  S  S9  1  0.43991257  0.25281057  0.01778728  1
  S  S10  1  0.81289901  0.56008743  0.01778728  1
  S  S11  1  0.91913724  0.14628606  0.51248436  1
  S  S12  1  0.22714781  0.08086276  0.51248436  1
  S  S13  1  0.85371394  0.77285219  0.51248436  1
loop_
_geom_bond_atom_site_label_1
_geom_bond_atom_site_label_2
_geom_bond_distance
_geom_bond_site_symmetry_2
Nd0 S5 2.869144 1_545
Nd0 S4 2.878487 1_545
Nd0 S9 2.882087 1_556
Nd0 S0 2.919042 1_545
Nd0 S8 2.973284 1_556
Nd0 S6 3.040830 1_555
Nd0 S12 3.064332 1_555
Nd0 S0 3.161041 1_546
Nd1 S3 2.869153 1_555
Nd1 S5 2.878492 1_555
Nd1 S10 2.882088 1_556
Nd1 S1 2.919048 1_555
Nd1 S9 2.973284 1_556
Nd1 S6 3.040831 1_555
Nd1 S13 3.064320 1_555
Nd1 S1 3.161047 1_556
Nd2 S4 2.869152 1_655
Nd2 S3 2.878481 1_655
Nd2 S8 2.882087 1_556
Nd2 S2 2.919043 1_655
Nd2 S10 2.973284 1_556
Nd2 S6 3.040830 1_555
Nd2 S11 3.064314 1_555
Nd2 S2 3.161042 1_656
Nd3 S1 2.865157 1_555
Nd3 S12 2.883265 1_555
Nd3 S2 2.892405 1_555
Nd3 S3 2.952935 1_554
Nd3 S11 2.973368 1_455
Nd3 S9 3.040476 1_555
Nd3 S7 3.042137 1_555
Nd3 S3 3.129051 1_555
Nd4 S2 2.865148 1_555
Nd4 S13 2.883282 1_455
Nd4 S0 2.892386 1_555
Nd4 S4 2.952932 1_554
Nd4 S12 2.973370 1_565
Nd4 S10 3.040476 1_455
Nd4 S7 3.042144 1_565
Nd4 S4 3.129048 1_555
Nd5 S0 2.865169 1_555
Nd5 S11 2.883275 1_565
Nd5 S1 2.892388 1_555
Nd5 S5 2.952935 1_554
Nd5 S13 2.973354 1_555
Nd5 S8 3.040476 1_565
Nd5 S7 3.042135 1_665
Nd5 S5 3.129050 1_555
Cd0 S2 2.684602 1_555
Cd0 S0 2.684602 1_555
Cd0 S1 2.684602 1_555
Cd0 S4 2.722227 1_555
Cd0 S5 2.722234 1_555
Cd0 S3 2.722235 1_555
Ge0 S6 2.175025 1_555
Ge0 S10 2.228327 1_555
Ge0 S9 2.228327 1_555
Ge0 S8 2.228327 1_555
Ge1 S7 2.180300 1_556
Ge1 S12 2.225180 1_555
Ge1 S13 2.225182 1_445
Ge1 S11 2.225189 1_455
