# generated using pymatgen
data_La3AsBr3
_symmetry_space_group_name_H-M   'P 1'
_cell_length_a   10.55963915
_cell_length_b   10.55960311
_cell_length_c   10.55980315
_cell_angle_alpha   109.47106726
_cell_angle_beta   109.47066779
_cell_angle_gamma   109.47085020
_symmetry_Int_Tables_number   1
_chemical_formula_structural   La3AsBr3
_chemical_formula_sum   'La12 As4 Br12'
_cell_volume   906.43439166
_cell_formula_units_Z   4
loop_
 _symmetry_equiv_pos_site_id
 _symmetry_equiv_pos_as_xyz
  1  'x, y, z'
loop_
 _atom_site_type_symbol
 _atom_site_label
 _atom_site_symmetry_multiplicity
 _atom_site_fract_x
 _atom_site_fract_y
 _atom_site_fract_z
 _atom_site_occupancy
  La  La0  1  0.48082985  0.49041662  0.24041090  1
  La  La1  1  0.75000137  0.24043408  0.25954860  1
  La  La2  1  0.74999522  0.00953094  0.49043387  1
  La  La3  1  0.24044282  0.48084233  0.49042432  1
  La  La4  1  0.25956733  0.74998568  0.24043410  1
  La  La5  1  0.01917601  0.25957866  0.00959755  1
  La  La6  1  0.00960406  0.01915847  0.25957264  1
  La  La7  1  0.49040720  0.74998430  0.00954369  1
  La  La8  1  0.49036079  0.24040360  0.48079023  1
  La  La9  1  0.00959537  0.49046126  0.75002669  1
  La  La10  1  0.25957314  0.00957819  0.01914671  1
  La  La11  1  0.24046268  0.25959636  0.75002966  1
  As  As0  1  0.24999163  0.24999187  0.24998340  1
  As  As1  1  0.49996960  -0.00001956  0.24996792  1
  As  As2  1  0.00002071  0.25001027  0.50000989  1
  As  As3  1  0.25001476  0.50001181  0.00001168  1
  Br  Br0  1  0.25001597  0.75649355  0.74357635  1
  Br  Br1  1  0.51291412  0.50644645  0.75645319  1
  Br  Br2  1  0.98710108  0.74356111  0.99354228  1
  Br  Br3  1  0.74351078  0.25000777  0.75646102  1
  Br  Br4  1  0.99357991  0.98708563  0.74358039  1
  Br  Br5  1  0.25002616  0.99355885  0.50647674  1
  Br  Br6  1  0.75644614  0.51292336  0.50647632  1
  Br  Br7  1  0.50642404  0.24997245  0.99352228  1
  Br  Br8  1  0.75645057  0.74352462  0.24998335  1
  Br  Br9  1  0.74351935  0.99352385  0.98706021  1
  Br  Br10  1  0.99355157  0.50647841  0.25000366  1
  Br  Br11  1  0.50644777  0.75645907  0.51293235  1
loop_
_geom_bond_atom_site_label_1
_geom_bond_atom_site_label_2
_geom_bond_distance
_geom_bond_site_symmetry_2
As0 La8 2.933396 1_555
As0 La5 2.933547 1_555
As0 La6 2.933643 1_555
As0 La10 2.933791 1_555
As0 La0 2.933800 1_555
As0 La3 2.933840 1_555
As1 La10 2.933713 1_555
As1 La8 2.933939 1_555
As1 La7 2.933947 1_545
As1 La4 2.933962 1_545
As1 La1 2.934224 1_555
As1 La2 2.934468 1_555
As2 La3 2.933831 1_555
As2 La6 2.934043 1_555
As2 La11 2.934085 1_555
As2 La9 2.934166 1_555
As2 La1 2.934250 1_455
As2 La2 2.934362 1_455
As3 La0 2.933681 1_555
As3 La7 2.933774 1_555
As3 La4 2.933853 1_555
As3 La11 2.933870 1_554
As3 La9 2.933940 1_554
As3 La5 2.933941 1_555
Br0 La7 3.135072 1_556
Br0 La9 3.135260 1_555
Br0 La10 3.171771 1_566
Br0 La3 3.172579 1_555
Br1 La11 3.135098 1_555
Br1 La3 3.135253 1_555
Br1 La7 3.172001 1_556
Br1 La8 3.172154 1_555
Br2 La10 3.135147 1_666
Br2 La4 3.135453 1_656
Br2 La9 3.171843 1_655
Br2 La6 3.171943 1_666
Br3 La9 3.135691 1_655
Br3 La2 3.135766 1_555
Br3 La8 3.172544 1_555
Br3 La5 3.172621 1_656
Br4 La5 3.135341 1_666
Br4 La11 3.135519 1_665
Br4 La10 3.171613 1_666
Br4 La2 3.172241 1_565
Br5 La8 3.135087 1_565
Br5 La6 3.135427 1_565
Br5 La11 3.172102 1_565
Br5 La4 3.172115 1_555
Br6 La8 3.135401 1_555
Br6 La1 3.135662 1_555
Br6 La9 3.172166 1_655
Br6 La0 3.172269 1_555
Br7 La10 3.135064 1_556
Br7 La0 3.135406 1_556
Br7 La11 3.171666 1_555
Br7 La1 3.172033 1_556
Br8 La2 3.135292 1_565
Br8 La7 3.135529 1_555
Br8 La0 3.172124 1_555
Br8 La6 3.172363 1_665
Br9 La1 3.135348 1_566
Br9 La6 3.135675 1_666
Br9 La7 3.171978 1_556
Br9 La5 3.172253 1_666
Br10 La5 3.135450 1_655
Br10 La3 3.135581 1_655
Br10 La4 3.171733 1_655
Br10 La1 3.172003 1_555
Br11 La4 3.135322 1_555
Br11 La0 3.135551 1_555
Br11 La2 3.171869 1_565
Br11 La3 3.171871 1_555
