# generated using pymatgen
data_La3Mg
_symmetry_space_group_name_H-M   'P 1'
_cell_length_a   6.33341510
_cell_length_b   6.33341510
_cell_length_c   6.33341510
_cell_angle_alpha   132.98090456
_cell_angle_beta   132.98090456
_cell_angle_gamma   68.68413763
_symmetry_Int_Tables_number   1
_chemical_formula_structural   La3Mg
_chemical_formula_sum   'La3 Mg1'
_cell_volume   133.51192322
_cell_formula_units_Z   1
loop_
 _symmetry_equiv_pos_site_id
 _symmetry_equiv_pos_as_xyz
  1  'x, y, z'
loop_
 _atom_site_type_symbol
 _atom_site_label
 _atom_site_symmetry_multiplicity
 _atom_site_fract_x
 _atom_site_fract_y
 _atom_site_fract_z
 _atom_site_occupancy
  La  La0  1  0.50000000  0.50000000  -0.00000000  1
  La  La1  1  0.25000000  0.75000000  0.50000000  1
  La  La2  1  0.75000000  0.25000000  0.50000000  1
  Mg  Mg0  1  -0.00000000  -0.00000000  -0.00000000  1
loop_
_geom_bond_atom_site_label_1
_geom_bond_atom_site_label_2
_geom_bond_distance
_geom_bond_site_symmetry_2
La0 Mg0 3.572885 1_666
La0 Mg0 3.572885 1_655
La0 Mg0 3.572885 1_554
La0 Mg0 3.572885 1_565
La0 La1 3.635851 1_555
La0 La1 3.635851 1_655
La0 La1 3.635851 1_544
La0 La2 3.635851 1_454
La0 La2 3.635851 1_555
La0 La1 3.635851 1_554
La0 La2 3.635851 1_565
La0 La2 3.635851 1_554
La1 La2 3.572885 1_566
La1 La2 3.572885 1_555
La1 La2 3.572885 1_454
La1 La2 3.572885 1_465
La1 Mg0 3.635851 1_666
La1 Mg0 3.635851 1_565
La1 Mg0 3.635851 1_555
La1 Mg0 3.635851 1_566
La2 Mg0 3.635851 1_656
La2 Mg0 3.635851 1_555
La2 Mg0 3.635851 1_666
La2 Mg0 3.635851 1_655
