# generated using pymatgen
data_Rb3LuCl6
_symmetry_space_group_name_H-M   'P 1'
_cell_length_a   13.42884897
_cell_length_b   13.42880885
_cell_length_c   12.68389735
_cell_angle_alpha   80.88146379
_cell_angle_beta   80.88129830
_cell_angle_gamma   34.03940874
_symmetry_Int_Tables_number   1
_chemical_formula_structural   Rb3LuCl6
_chemical_formula_sum   'Rb12 Lu4 Cl24'
_cell_volume   1262.65564586
_cell_formula_units_Z   4
loop_
 _symmetry_equiv_pos_site_id
 _symmetry_equiv_pos_as_xyz
  1  'x, y, z'
loop_
 _atom_site_type_symbol
 _atom_site_label
 _atom_site_symmetry_multiplicity
 _atom_site_fract_x
 _atom_site_fract_y
 _atom_site_fract_z
 _atom_site_occupancy
  Rb  Rb0  1  0.29411799  0.80902680  0.56402076  1
  Rb  Rb1  1  0.70581252  0.19104486  0.43596725  1
  Rb  Rb2  1  0.19108306  0.70578302  0.93596376  1
  Rb  Rb3  1  0.80904476  0.29411161  0.06401636  1
  Rb  Rb4  1  0.47134967  0.83654700  0.85481106  1
  Rb  Rb5  1  0.52862597  0.16346529  0.14519886  1
  Rb  Rb6  1  0.16346414  0.52862613  0.64519604  1
  Rb  Rb7  1  0.83653480  0.47135344  0.35481289  1
  Rb  Rb8  1  0.65318218  0.02224144  0.80176341  1
  Rb  Rb9  1  0.34680964  0.97775044  0.19823045  1
  Rb  Rb10  1  0.97775087  0.34681035  0.69822563  1
  Rb  Rb11  1  0.02225043  0.65317863  0.30176668  1
  Lu  Lu0  1  0.78948734  0.21049079  0.75001750  1
  Lu  Lu1  1  0.21048366  0.78949499  0.25001142  1
  Lu  Lu2  1  0.50000047  0.00001160  0.49998928  1
  Lu  Lu3  1  0.00001048  0.50001581  -0.00000497  1
  Cl  Cl0  1  0.62131235  0.72410236  0.57722382  1
  Cl  Cl1  1  0.37869720  0.27592651  0.42274968  1
  Cl  Cl2  1  0.27592177  0.37870324  0.92275793  1
  Cl  Cl3  1  0.72408854  0.62134375  0.07723886  1
  Cl  Cl4  1  0.50571385  0.37656327  0.68106659  1
  Cl  Cl5  1  0.49428432  0.62338318  0.31893420  1
  Cl  Cl6  1  0.62338258  0.49429267  0.81894010  1
  Cl  Cl7  1  0.37655668  0.50571310  0.18107172  1
  Cl  Cl8  1  0.78476665  0.85740090  0.53316117  1
  Cl  Cl9  1  0.21522742  0.14265190  0.46680521  1
  Cl  Cl10  1  0.14264555  0.21524006  0.96682343  1
  Cl  Cl11  1  0.85739612  0.78478240  0.03316823  1
  Cl  Cl12  1  0.90742140  0.97409785  0.19860603  1
  Cl  Cl13  1  0.09253314  0.02591628  0.80141562  1
  Cl  Cl14  1  0.02591275  0.09253561  0.30141008  1
  Cl  Cl15  1  0.97410122  0.90741692  0.69863088  1
  Cl  Cl16  1  0.72689871  0.16000489  0.93554588  1
  Cl  Cl17  1  0.27308546  0.83999105  0.06446956  1
  Cl  Cl18  1  0.84001833  0.27305533  0.56447145  1
  Cl  Cl19  1  0.15998250  0.72691823  0.43554823  1
  Cl  Cl20  1  0.36746145  0.13280049  0.68678958  1
  Cl  Cl21  1  0.63257071  0.86718447  0.31319301  1
  Cl  Cl22  1  0.86719743  0.63255985  0.81319772  1
  Cl  Cl23  1  0.13281592  0.36745848  0.18679663  1
loop_
_geom_bond_atom_site_label_1
_geom_bond_atom_site_label_2
_geom_bond_distance
_geom_bond_site_symmetry_2
Cl0 Lu2 2.587192 1_565
Cl0 Rb10 3.257088 1_555
Cl0 Rb7 3.467628 1_555
Cl0 Rb0 3.535904 1_555
Cl0 Rb4 3.623574 1_555
Cl1 Lu2 2.587331 1_555
Cl1 Rb11 3.256866 1_555
Cl1 Rb6 3.467712 1_555
Cl1 Rb1 3.535307 1_555
Cl1 Rb5 3.623135 1_555
Cl2 Lu3 2.587226 1_556
Cl2 Rb8 3.257001 1_555
Cl2 Rb5 3.467693 1_556
Cl2 Rb2 3.535205 1_555
Cl2 Rb6 3.623268 1_555
Cl3 Lu3 2.587266 1_655
Cl3 Rb9 3.256860 1_555
Cl3 Rb4 3.467797 1_554
Cl3 Rb3 3.536129 1_555
Cl3 Rb7 3.623449 1_555
Cl4 Lu0 2.571715 1_555
Cl4 Rb6 3.211615 1_555
Cl4 Rb1 3.435724 1_555
Cl4 Rb8 3.455580 1_555
Cl5 Lu1 2.571638 1_555
Cl5 Rb7 3.211907 1_555
Cl5 Rb0 3.435984 1_555
Cl5 Rb9 3.456073 1_555
Cl6 Lu0 2.571672 1_555
Cl6 Rb4 3.211885 1_555
Cl6 Rb3 3.435944 1_556
Cl6 Rb10 3.456083 1_555
Cl7 Lu1 2.571724 1_555
Cl7 Rb5 3.211531 1_555
Cl7 Rb2 3.435689 1_554
Cl7 Rb11 3.455424 1_555
Cl8 Lu2 2.566237 1_565
Cl8 Rb6 3.234997 1_655
Cl8 Rb11 3.375693 1_655
Cl8 Rb1 3.675454 1_565
Cl8 Rb8 3.691778 1_565
Cl9 Lu2 2.566159 1_555
Cl9 Rb7 3.234716 1_455
Cl9 Rb10 3.375816 1_455
Cl9 Rb0 3.675841 1_545
Cl9 Rb9 3.691740 1_545
Cl10 Lu3 2.566167 1_556
Cl10 Rb4 3.234819 1_545
Cl10 Rb9 3.375723 1_546
Cl10 Rb3 3.675665 1_456
Cl10 Rb10 3.692024 1_455
Cl11 Lu3 2.566206 1_655
Cl11 Rb5 3.234852 1_565
Cl11 Rb8 3.375756 1_564
Cl11 Rb2 3.675617 1_654
Cl11 Rb11 3.691768 1_655
Cl12 Lu1 2.596520 1_655
Cl12 Rb11 3.240523 1_655
Cl12 Rb5 3.450941 1_565
Cl12 Rb1 3.464971 1_565
Cl12 Rb3 3.479638 1_565
Cl13 Lu0 2.596453 1_455
Cl13 Rb10 3.240682 1_455
Cl13 Rb4 3.451135 1_545
Cl13 Rb0 3.465107 1_545
Cl13 Rb2 3.479486 1_545
Cl14 Lu1 2.596400 1_545
Cl14 Rb9 3.240664 1_545
Cl14 Rb7 3.451099 1_455
Cl14 Rb3 3.465023 1_455
Cl14 Rb1 3.479467 1_455
Cl15 Lu0 2.596490 1_565
Cl15 Rb8 3.240466 1_565
Cl15 Rb6 3.451005 1_655
Cl15 Rb2 3.464810 1_655
Cl15 Rb0 3.479667 1_655
Cl16 Lu0 2.552552 1_555
Cl16 Rb5 3.428238 1_556
Cl16 Rb8 3.441573 1_555
Cl16 Rb3 3.450754 1_556
Cl16 Rb2 3.612213 1_645
Cl17 Lu1 2.552818 1_555
Cl17 Rb4 3.428321 1_554
Cl17 Rb9 3.441439 1_555
Cl17 Rb2 3.450602 1_554
Cl17 Rb3 3.611235 1_465
Cl18 Lu0 2.552845 1_555
Cl18 Rb7 3.428346 1_555
Cl18 Rb10 3.441417 1_555
Cl18 Rb1 3.450657 1_555
Cl18 Rb0 3.611107 1_645
Cl19 Lu1 2.552657 1_555
Cl19 Rb6 3.428218 1_555
Cl19 Rb11 3.441460 1_555
Cl19 Rb0 3.450689 1_555
Cl19 Rb1 3.611778 1_465
Cl20 Lu2 2.589208 1_555
Cl20 Rb10 3.260954 1_455
Cl20 Rb8 3.270948 1_555
Cl20 Rb4 3.372248 1_545
Cl20 Rb6 3.387268 1_555
Cl21 Lu2 2.589285 1_565
Cl21 Rb11 3.260627 1_655
Cl21 Rb9 3.271283 1_555
Cl21 Rb5 3.371990 1_565
Cl21 Rb7 3.387551 1_555
Cl22 Lu3 2.589268 1_656
Cl22 Rb8 3.260570 1_565
Cl22 Rb10 3.271296 1_555
Cl22 Rb6 3.371969 1_655
Cl22 Rb4 3.387614 1_555
Cl23 Lu3 2.589286 1_555
Cl23 Rb9 3.261006 1_545
Cl23 Rb11 3.270844 1_555
Cl23 Rb7 3.372447 1_455
Cl23 Rb5 3.387127 1_555
