# generated using pymatgen
data_TiCrAgS4
_symmetry_space_group_name_H-M   'P 1'
_cell_length_a   3.47493700
_cell_length_b   11.26612500
_cell_length_c   12.87459200
_cell_angle_alpha   90.00000000
_cell_angle_beta   90.00000000
_cell_angle_gamma   90.00000000
_symmetry_Int_Tables_number   1
_chemical_formula_structural   TiCrAgS4
_chemical_formula_sum   'Ti4 Cr4 Ag4 S16'
_cell_volume   504.02836277
_cell_formula_units_Z   4
loop_
 _symmetry_equiv_pos_site_id
 _symmetry_equiv_pos_as_xyz
  1  'x, y, z'
loop_
 _atom_site_type_symbol
 _atom_site_label
 _atom_site_symmetry_multiplicity
 _atom_site_fract_x
 _atom_site_fract_y
 _atom_site_fract_z
 _atom_site_occupancy
  Ti  Ti0  1  0.00000000  0.80034900  0.11687600  1
  Ti  Ti1  1  0.50000000  0.19965100  0.61687600  1
  Ti  Ti2  1  0.00000000  0.82153100  0.58768300  1
  Ti  Ti3  1  0.50000000  0.17846900  0.08768300  1
  Cr  Cr0  1  0.50000000  0.69098800  0.88779400  1
  Cr  Cr1  1  0.00000000  0.30901200  0.38779400  1
  Cr  Cr2  1  0.50000000  0.66324300  0.40929300  1
  Cr  Cr3  1  0.00000000  0.33675700  0.90929300  1
  Ag  Ag0  1  0.50000000  0.49637800  0.68847700  1
  Ag  Ag1  1  0.00000000  0.00114100  0.31914200  1
  Ag  Ag2  1  0.00000000  0.50362200  0.18847700  1
  Ag  Ag3  1  0.50000000  0.99885900  0.81914200  1
  S  S0  1  0.00000000  0.71542500  0.29088500  1
  S  S1  1  0.50000000  0.78633200  0.71363200  1
  S  S2  1  0.50000000  0.28457500  0.79088500  1
  S  S3  1  0.00000000  0.21366800  0.21363200  1
  S  S4  1  0.50000000  0.65754300  0.06852900  1
  S  S5  1  0.00000000  0.83298800  0.92909300  1
  S  S6  1  0.00000000  0.34245700  0.56852900  1
  S  S7  1  0.50000000  0.16701200  0.42909300  1
  S  S8  1  0.00000000  0.62264600  0.53251600  1
  S  S9  1  0.50000000  0.86929900  0.46189500  1
  S  S10  1  0.50000000  0.37735400  0.03251600  1
  S  S11  1  0.00000000  0.13070100  0.96189500  1
  S  S12  1  0.00000000  0.54801800  0.84788700  1
  S  S13  1  0.50000000  0.95021600  0.14629800  1
  S  S14  1  0.50000000  0.45198200  0.34788700  1
  S  S15  1  0.00000000  0.04978400  0.64629800  1
loop_
_geom_bond_atom_site_label_1
_geom_bond_atom_site_label_2
_geom_bond_distance
_geom_bond_site_symmetry_2
Cr0 S4 2.357199 1_556
Cr0 S5 2.420917 1_555
Cr0 S5 2.420917 1_655
Cr0 S12 2.424291 1_555
Cr0 S12 2.424291 1_655
Cr0 S1 2.486275 1_555
Cr1 S6 2.357199 1_555
Cr1 S7 2.420917 1_555
Cr1 S7 2.420917 1_455
Cr1 S14 2.424291 1_555
Cr1 S14 2.424291 1_455
Cr1 S3 2.486275 1_555
Cr2 S0 2.385031 1_555
Cr2 S0 2.385031 1_655
Cr2 S8 2.396830 1_655
Cr2 S8 2.396830 1_555
Cr2 S9 2.418219 1_555
Cr2 S14 2.507958 1_555
Cr3 S2 2.385031 1_555
Cr3 S2 2.385031 1_455
Cr3 S10 2.396830 1_456
Cr3 S10 2.396830 1_556
Cr3 S11 2.418219 1_555
Cr3 S12 2.507958 1_555
Ag0 S2 2.726222 1_555
Ag0 S12 2.751247 1_655
Ag0 S12 2.751247 1_555
Ag0 S6 2.900118 1_655
Ag0 S6 2.900118 1_555
Ag0 S8 3.012349 1_655
Ag0 S8 3.012349 1_555
Ag1 S3 2.752850 1_555
Ag1 S13 2.880955 1_545
Ag1 S13 2.880955 1_445
Ag1 S7 2.918009 1_555
Ag1 S7 2.918009 1_455
Ag1 S9 2.933067 1_545
Ag1 S9 2.933067 1_445
Ag2 S0 2.726222 1_555
Ag2 S14 2.751247 1_555
Ag2 S14 2.751247 1_455
Ag2 S4 2.900118 1_455
Ag2 S4 2.900118 1_555
Ag2 S10 3.012349 1_555
Ag2 S10 3.012349 1_455
Ag3 S1 2.752850 1_555
Ag3 S15 2.880955 1_565
Ag3 S15 2.880955 1_665
Ag3 S5 2.918009 1_555
Ag3 S5 2.918009 1_655
Ag3 S11 2.933067 1_565
Ag3 S11 2.933067 1_665
S0 Ti0 2.436046 1_555
S1 Ti2 2.409451 1_655
S1 Ti2 2.409451 1_555
S2 Ti1 2.436046 1_555
S3 Ti3 2.409451 1_455
S3 Ti3 2.409451 1_555
S4 Ti0 2.448408 1_555
S4 Ti0 2.448408 1_655
S5 Ti0 2.445434 1_556
S6 Ti1 2.448408 1_455
S6 Ti1 2.448408 1_555
S7 Ti1 2.445434 1_555
S8 Ti2 2.350538 1_555
S9 Ti2 2.435384 1_655
S9 Ti2 2.435384 1_555
S10 Ti3 2.350538 1_555
S11 Ti3 2.435384 1_556
S11 Ti3 2.435384 1_456
S13 Ti0 2.452151 1_555
S13 Ti0 2.452151 1_655
S13 Ti3 2.679970 1_565
S15 Ti1 2.452151 1_455
S15 Ti1 2.452151 1_555
S15 Ti2 2.679970 1_545
