# generated using pymatgen
data_Li4MnCo2O7
_symmetry_space_group_name_H-M   'P 1'
_cell_length_a   2.92375400
_cell_length_b   10.62896636
_cell_length_c   8.36510573
_cell_angle_alpha   78.47314435
_cell_angle_beta   90.00000000
_cell_angle_gamma   82.09464734
_symmetry_Int_Tables_number   1
_chemical_formula_structural   Li4MnCo2O7
_chemical_formula_sum   'Li8 Mn2 Co4 O14'
_cell_volume   252.19317365
_cell_formula_units_Z   2
loop_
 _symmetry_equiv_pos_site_id
 _symmetry_equiv_pos_as_xyz
  1  'x, y, z'
loop_
 _atom_site_type_symbol
 _atom_site_label
 _atom_site_symmetry_multiplicity
 _atom_site_fract_x
 _atom_site_fract_y
 _atom_site_fract_z
 _atom_site_occupancy
  Li  Li0  1  0.42857100  0.14285700  0.21428600  1
  Li  Li1  1  0.28898000  0.42204000  0.64434100  1
  Li  Li2  1  0.14397500  0.71205000  0.06923200  1
  Li  Li3  1  0.99939800  0.00120400  0.51574500  1
  Li  Li4  1  0.85774500  0.28451000  0.91282600  1
  Li  Li5  1  0.71316800  0.57366500  0.35934000  1
  Li  Li6  1  0.56816300  0.86367400  0.78423000  1
  Li  Li7  1  0.42857100  0.14285700  0.71428600  1
  Mn  Mn0  1  0.99850200  0.00299700  0.98818100  1
  Mn  Mn1  1  0.85864100  0.28271700  0.44039000  1
  Co  Co0  1  0.71518400  0.56963300  0.85680100  1
  Co  Co1  1  0.57061500  0.85877000  0.28460200  1
  Co  Co2  1  0.28652800  0.42694400  0.14396900  1
  Co  Co3  1  0.14195900  0.71608200  0.57177100  1
  O  O0  1  0.43634600  0.12730700  0.97056000  1
  O  O1  1  0.29331000  0.41338100  0.39449800  1
  O  O2  1  0.14936100  0.70128000  0.82160500  1
  O  O3  1  0.00487700  0.99024600  0.23647100  1
  O  O4  1  0.85623900  0.28752000  0.65669500  1
  O  O5  1  0.71946900  0.56106000  0.10747900  1
  O  O6  1  0.57398800  0.85202400  0.53214600  1
  O  O7  1  0.42079700  0.15840700  0.45801100  1
  O  O8  1  0.28315500  0.43369100  0.89642600  1
  O  O9  1  0.13767400  0.72465400  0.32109200  1
  O  O10  1  0.00090300  0.99819400  0.77187700  1
  O  O11  1  0.85226600  0.29546800  0.19210000  1
  O  O12  1  0.70778200  0.58443500  0.60696700  1
  O  O13  1  0.56383300  0.87233300  0.03407300  1
loop_
_geom_bond_atom_site_label_1
_geom_bond_atom_site_label_2
_geom_bond_distance
_geom_bond_site_symmetry_2
Li0 O7 2.078008 1_555
Li0 O0 2.078017 1_554
Li0 O11 2.152356 1_455
Li0 O3 2.152357 1_545
Li0 O11 2.152358 1_555
Li0 O3 2.152359 1_645
Li1 O4 2.023458 1_555
Li1 O4 2.023462 1_455
Li1 O1 2.110244 1_555
Li1 O8 2.136844 1_555
Li1 O12 2.223102 1_555
Li1 O12 2.223104 1_455
Li2 O2 2.097243 1_554
Li2 O5 2.135675 1_555
Li2 O5 2.135679 1_455
Li2 O9 2.137561 1_555
Li2 O13 2.206995 1_555
Li2 O13 2.206997 1_455
Li3 O6 2.129701 1_645
Li3 O6 2.129701 1_545
Li3 O10 2.136404 1_645
Li3 O7 2.187904 1_555
Li3 O7 2.187906 1_655
Li3 O3 2.362135 1_645
Li4 O8 2.129708 1_555
Li4 O8 2.129710 1_655
Li4 O4 2.136395 1_555
Li4 O0 2.187904 1_655
Li4 O0 2.187906 1_555
Li4 O11 2.362135 1_556
Li5 O12 2.097243 1_555
Li5 O9 2.135669 1_555
Li5 O9 2.135671 1_655
Li5 O5 2.137572 1_555
Li5 O1 2.207004 1_555
Li5 O1 2.207004 1_655
Li6 O10 2.023461 1_655
Li6 O10 2.023461 1_555
Li6 O13 2.110244 1_556
Li6 O6 2.136833 1_555
Li6 O2 2.223093 1_555
Li6 O2 2.223097 1_655
Li7 O10 2.095869 1_545
Li7 O4 2.095869 1_555
Li7 O10 2.095871 1_645
Li7 O4 2.095871 1_455
Li7 O0 2.116813 1_555
Li7 O7 2.116821 1_555
Mn0 O10 1.820281 1_645
Mn0 O0 1.947753 1_655
Mn0 O0 1.947757 1_555
Mn0 O13 1.990908 1_646
Mn0 O13 1.990912 1_546
Mn0 O3 2.054102 1_646
Mn1 O4 1.820289 1_555
Mn1 O7 1.947753 1_555
Mn1 O7 1.947757 1_655
Mn1 O1 1.990908 1_555
Mn1 O1 1.990912 1_655
Mn1 O11 2.054102 1_555
Co0 O2 1.995004 1_555
Co0 O2 1.995006 1_655
Co0 O8 2.025796 1_555
Co0 O8 2.025796 1_655
Co0 O12 2.064100 1_555
Co0 O5 2.080618 1_556
Co1 O3 1.997564 1_655
Co1 O3 1.997564 1_555
Co1 O9 2.012461 1_555
Co1 O9 2.012465 1_655
Co1 O6 2.057580 1_555
Co1 O13 2.071621 1_555
Co2 O11 1.997564 1_455
Co2 O11 1.997564 1_555
Co2 O5 2.012461 1_555
Co2 O5 2.012465 1_455
Co2 O8 2.057570 1_554
Co2 O1 2.071621 1_555
Co3 O12 1.995004 1_555
Co3 O12 1.995006 1_455
Co3 O6 2.025796 1_555
Co3 O6 2.025796 1_455
Co3 O2 2.064100 1_555
Co3 O9 2.080628 1_555
