# generated using pymatgen
data_NiP4N2O19
_symmetry_space_group_name_H-M   'P 1'
_cell_length_a   6.75391300
_cell_length_b   9.91840407
_cell_length_c   13.85461701
_cell_angle_alpha   100.93369255
_cell_angle_beta   101.79271033
_cell_angle_gamma   98.80737513
_symmetry_Int_Tables_number   1
_chemical_formula_structural   NiP4N2O19
_chemical_formula_sum   'Ni2 P8 N4 O38'
_cell_volume   874.05648574
_cell_formula_units_Z   2
loop_
 _symmetry_equiv_pos_site_id
 _symmetry_equiv_pos_as_xyz
  1  'x, y, z'
loop_
 _atom_site_type_symbol
 _atom_site_label
 _atom_site_symmetry_multiplicity
 _atom_site_fract_x
 _atom_site_fract_y
 _atom_site_fract_z
 _atom_site_occupancy
  Ni  Ni0  1  0.00000000  0.00000000  0.00000000  1
  Ni  Ni1  1  0.50000000  0.50000000  0.50000000  1
  P  P0  1  0.81762700  0.28230400  0.03919800  1
  P  P1  1  0.18237300  0.71769600  0.96080200  1
  P  P2  1  0.68247700  0.07262100  0.14746900  1
  P  P3  1  0.31752300  0.92737900  0.85253100  1
  P  P4  1  0.96965300  0.52151900  0.22659900  1
  P  P5  1  0.03034700  0.47848100  0.77340100  1
  P  P6  1  0.95868800  0.27800700  0.32417400  1
  P  P7  1  0.04131200  0.72199300  0.67582600  1
  N  N0  1  0.35250900  0.42192900  0.25131400  1
  N  N1  1  0.64749100  0.57807100  0.74868600  1
  N  N2  1  0.52113300  0.61457000  0.02955900  1
  N  N3  1  0.47886700  0.38543000  0.97044100  1
  O  O0  1  0.92550800  0.19864300  0.97605100  1
  O  O1  1  0.07449200  0.80135700  0.02394900  1
  O  O2  1  0.36206200  0.65123200  0.04783100  1
  O  O3  1  0.63793800  0.34876800  0.95216900  1
  O  O4  1  0.66489800  0.21328500  0.09380600  1
  O  O5  1  0.33510200  0.78671500  0.90619400  1
  O  O6  1  0.84585800  0.00540300  0.11206100  1
  O  O7  1  0.15414200  0.99459700  0.88793900  1
  O  O8  1  0.46722900  0.98933600  0.12529900  1
  O  O9  1  0.53277100  0.01066400  0.87470100  1
  O  O10  1  0.75547700  0.15388100  0.26369900  1
  O  O11  1  0.24452300  0.84611900  0.73630100  1
  O  O12  1  0.14130900  0.25405700  0.27931800  1
  O  O13  1  0.85869100  0.74594300  0.72068200  1
  O  O14  1  0.96869300  0.30047500  0.43349300  1
  O  O15  1  0.03130700  0.69952500  0.56650700  1
  O  O16  1  0.87535400  0.41032200  0.28227800  1
  O  O17  1  0.12464600  0.58967800  0.71772200  1
  O  O18  1  0.84849100  0.63091600  0.21741600  1
  O  O19  1  0.15150900  0.36908400  0.78258400  1
  O  O20  1  0.20588600  0.56251300  0.26771000  1
  O  O21  1  0.79411400  0.43748700  0.73229000  1
  O  O22  1  0.95002700  0.42148800  0.10875000  1
  O  O23  1  0.04997300  0.57851200  0.89125000  1
  O  O24  1  0.48708800  0.44631800  0.32227600  1
  O  O25  1  0.51291200  0.55368200  0.67772400  1
  O  O26  1  0.42584500  0.67687000  0.48918300  1
  O  O27  1  0.57415500  0.32313000  0.51081700  1
  O  O28  1  0.61856400  0.68185200  0.48575100  1
  O  O29  1  0.38143600  0.31814800  0.51424900  1
  O  O30  1  0.24325900  0.12389700  0.09844100  1
  O  O31  1  0.75674100  0.87610300  0.90155900  1
  O  O32  1  0.29997200  0.92271300  0.31525100  1
  O  O33  1  0.70002800  0.07728700  0.68474900  1
  O  O34  1  0.48546600  0.95224600  0.36991800  1
  O  O35  1  0.51453400  0.04775400  0.63008200  1
  O  O36  1  0.61069400  0.87278400  0.34660700  1
  O  O37  1  0.38930600  0.12721600  0.65339300  1
loop_
_geom_bond_atom_site_label_1
_geom_bond_atom_site_label_2
_geom_bond_distance
_geom_bond_site_symmetry_2
Ni0 O30 1.974733 1_555
Ni0 O31 1.974733 1_444
Ni0 O7 2.035512 1_544
Ni0 O6 2.035512 1_455
Ni0 O0 2.174463 1_454
Ni0 O1 2.174463 1_545
Ni1 O26 1.920640 1_555
Ni1 O27 1.920640 1_555
Ni1 O29 1.921164 1_555
Ni1 O28 1.921164 1_555
Ni1 O24 2.398893 1_555
Ni1 O25 2.398893 1_555
N0 O24 1.152586 1_555
N0 O20 1.836070 1_555
N1 O25 1.152586 1_555
N1 O21 1.836070 1_555
N2 O2 1.243552 1_555
N3 O3 1.243552 1_555
O0 P0 1.468041 1_556
O1 P1 1.468041 1_554
O2 P1 1.819241 1_554
O3 P0 1.819241 1_556
O4 P0 1.550573 1_555
O4 P2 1.709230 1_555
O5 P1 1.550573 1_555
O5 P3 1.709230 1_555
O6 P2 1.491723 1_555
O7 P3 1.491723 1_555
O8 P2 1.497877 1_565
O9 P3 1.497877 1_545
O10 P2 1.596014 1_555
O10 P6 1.650033 1_555
O11 P3 1.596014 1_555
O11 P7 1.650033 1_555
O12 P6 1.520185 1_455
O13 P7 1.520185 1_655
O14 P6 1.474340 1_555
O15 P7 1.474340 1_555
O16 P4 1.589195 1_555
O16 P6 1.660602 1_555
O17 P5 1.589195 1_555
O17 P7 1.660602 1_555
O18 P4 1.464535 1_555
O19 P5 1.464535 1_555
O20 P4 1.541880 1_455
O21 P5 1.541880 1_655
O22 P0 1.548890 1_555
O22 P4 1.710135 1_555
O23 P1 1.548890 1_555
O23 P5 1.710135 1_555
O26 O28 1.305901 1_555
O27 O29 1.305901 1_555
O32 O34 1.282418 1_555
O33 O35 1.282418 1_555
O34 O36 1.288420 1_555
O35 O37 1.288420 1_555
