# generated using pymatgen
data_Na2CoNiF7
_symmetry_space_group_name_H-M   'P 1'
_cell_length_a   7.35737785
_cell_length_b   7.35737785
_cell_length_c   7.35737785
_cell_angle_alpha   119.92727393
_cell_angle_beta   119.84485746
_cell_angle_gamma   90.19746831
_symmetry_Int_Tables_number   1
_chemical_formula_structural   Na2CoNiF7
_chemical_formula_sum   'Na4 Co2 Ni2 F14'
_cell_volume   282.09693885
_cell_formula_units_Z   2
loop_
 _symmetry_equiv_pos_site_id
 _symmetry_equiv_pos_as_xyz
  1  'x, y, z'
loop_
 _atom_site_type_symbol
 _atom_site_label
 _atom_site_symmetry_multiplicity
 _atom_site_fract_x
 _atom_site_fract_y
 _atom_site_fract_z
 _atom_site_occupancy
  Na  Na0  1  0.50000000  0.50000000  0.00000000  1
  Na  Na1  1  0.00000000  0.00000000  0.00000000  1
  Na  Na2  1  0.00000000  0.50000000  0.00000000  1
  Na  Na3  1  0.00000000  0.00000000  0.50000000  1
  Co  Co0  1  0.50000000  0.50000000  0.50000000  1
  Co  Co1  1  0.50000000  0.00000000  0.00000000  1
  Ni  Ni0  1  0.00000000  0.50000000  0.50000000  1
  Ni  Ni1  1  0.50000000  0.00000000  0.50000000  1
  F  F0  1  0.86650700  0.59925900  0.26724700  1
  F  F1  1  0.16798800  0.90074100  0.26724700  1
  F  F2  1  0.19248700  0.82986000  0.78293700  1
  F  F3  1  0.45307700  0.67014000  0.36262700  1
  F  F4  1  0.45307700  0.09045000  0.78293700  1
  F  F5  1  0.19248700  0.40955000  0.36262700  1
  F  F6  1  0.80751300  0.59045000  0.63737300  1
  F  F7  1  0.54692300  0.90955000  0.21706300  1
  F  F8  1  0.54692300  0.32986000  0.63737300  1
  F  F9  1  0.80751300  0.17014000  0.21706300  1
  F  F10  1  0.41004300  0.25000000  0.16004300  1
  F  F11  1  0.13349300  0.40074100  0.73275300  1
  F  F12  1  0.83201200  0.09925900  0.73275300  1
  F  F13  1  0.58995700  0.75000000  0.83995700  1
loop_
_geom_bond_atom_site_label_1
_geom_bond_atom_site_label_2
_geom_bond_distance
_geom_bond_site_symmetry_2
Co0 F8 1.904144 1_555
Co0 F3 1.904144 1_555
Co0 F6 1.904144 1_555
Co0 F5 1.904144 1_555
Co0 F13 1.957224 1_555
Co0 F10 1.957224 1_555
Co1 F9 1.904144 1_555
Co1 F4 1.904144 1_554
Co1 F2 1.904144 1_544
Co1 F7 1.904144 1_545
Co1 F13 1.957224 1_544
Co1 F10 1.957224 1_555
F0 Ni0 2.002302 1_655
F0 Na0 2.224234 1_555
F0 Na2 2.420397 1_655
F0 Na3 2.420402 1_665
F1 Ni1 2.002302 1_565
F1 Na1 2.224229 1_565
F1 Na3 2.420403 1_565
F1 Na2 2.420403 1_555
F2 Ni0 2.056702 1_555
F2 Na1 2.528164 1_566
F2 Na3 2.753910 1_565
F3 Ni1 2.056702 1_565
F3 Na0 2.528164 1_555
F3 Na2 2.753910 1_555
F4 Ni1 2.056702 1_555
F4 Na0 2.528164 1_556
F4 Na3 2.753910 1_555
F5 Ni0 2.056702 1_555
F5 Na1 2.528164 1_555
F5 Na2 2.753910 1_555
F6 Ni0 2.056702 1_655
F6 Na1 2.528164 1_666
F6 Na2 2.753910 1_656
F7 Ni1 2.056702 1_565
F7 Na0 2.528164 1_555
F7 Na3 2.753910 1_665
F8 Ni1 2.056702 1_555
F8 Na0 2.528164 1_556
F8 Na2 2.753910 1_656
F9 Ni0 2.056702 1_655
F9 Na1 2.528164 1_655
F9 Na3 2.753910 1_655
F10 Na0 2.852378 1_555
F10 Na1 2.852378 1_555
F11 Ni0 2.002302 1_555
F11 Na0 2.224234 1_556
F11 Na2 2.420397 1_556
F11 Na3 2.420402 1_555
F12 Ni1 2.002302 1_555
F12 Na1 2.224229 1_656
F12 Na2 2.420403 1_656
F12 Na3 2.420403 1_655
F13 Na1 2.852378 1_666
F13 Na0 2.852378 1_556
