# generated using pymatgen
data_ZnAg
_symmetry_space_group_name_H-M   'P 1'
_cell_length_a   5.79957400
_cell_length_b   15.31993803
_cell_length_c   26.53911855
_cell_angle_alpha   90.62636106
_cell_angle_beta   90.31220267
_cell_angle_gamma   90.66826915
_symmetry_Int_Tables_number   1
_chemical_formula_structural   ZnAg
_chemical_formula_sum   'Zn72 Ag72'
_cell_volume   2357.63923498
_cell_formula_units_Z   72
loop_
 _symmetry_equiv_pos_site_id
 _symmetry_equiv_pos_as_xyz
  1  'x, y, z'
loop_
 _atom_site_type_symbol
 _atom_site_label
 _atom_site_symmetry_multiplicity
 _atom_site_fract_x
 _atom_site_fract_y
 _atom_site_fract_z
 _atom_site_occupancy
  Zn  Zn0_0  1  0.38189900  0.00204550  0.16575050  1
  Zn  Zn0_1  1  0.38189900  0.00204550  0.66575050  1
  Zn  Zn0_2  1  0.38189900  0.50204550  0.16575050  1
  Zn  Zn0_3  1  0.38189900  0.50204550  0.66575050  1
  Zn  Zn0_4  1  0.88189900  0.00204550  0.16575050  1
  Zn  Zn0_5  1  0.88189900  0.00204550  0.66575050  1
  Zn  Zn0_6  1  0.88189900  0.50204550  0.16575050  1
  Zn  Zn0_7  1  0.88189900  0.50204550  0.66575050  1
  Zn  Zn1_0  1  0.37888600  0.24768050  0.41502300  1
  Zn  Zn1_1  1  0.37888600  0.24768050  0.91502300  1
  Zn  Zn1_2  1  0.37888600  0.74768050  0.41502300  1
  Zn  Zn1_3  1  0.37888600  0.74768050  0.91502300  1
  Zn  Zn1_4  1  0.87888600  0.24768050  0.41502300  1
  Zn  Zn1_5  1  0.87888600  0.24768050  0.91502300  1
  Zn  Zn1_6  1  0.87888600  0.74768050  0.41502300  1
  Zn  Zn1_7  1  0.87888600  0.74768050  0.91502300  1
  Zn  Zn2_0  1  0.12366150  0.24895800  0.08499550  1
  Zn  Zn2_1  1  0.12366150  0.24895800  0.58499550  1
  Zn  Zn2_2  1  0.12366150  0.74895800  0.08499550  1
  Zn  Zn2_3  1  0.12366150  0.74895800  0.58499550  1
  Zn  Zn2_4  1  0.62366150  0.24895800  0.08499550  1
  Zn  Zn2_5  1  0.62366150  0.24895800  0.58499550  1
  Zn  Zn2_6  1  0.62366150  0.74895800  0.08499550  1
  Zn  Zn2_7  1  0.62366150  0.74895800  0.58499550  1
  Zn  Zn3_0  1  0.12344950  0.49993000  0.33315500  1
  Zn  Zn3_1  1  0.12344950  0.49993000  0.83315500  1
  Zn  Zn3_2  1  0.12344950  0.99993000  0.33315500  1
  Zn  Zn3_3  1  0.12344950  0.99993000  0.83315500  1
  Zn  Zn3_4  1  0.62344950  0.49993000  0.33315500  1
  Zn  Zn3_5  1  0.62344950  0.49993000  0.83315500  1
  Zn  Zn3_6  1  0.62344950  0.99993000  0.33315500  1
  Zn  Zn3_7  1  0.62344950  0.99993000  0.83315500  1
  Zn  Zn4_0  1  0.37581250  0.33111800  0.00845100  1
  Zn  Zn4_1  1  0.37581250  0.33111800  0.50845100  1
  Zn  Zn4_2  1  0.37581250  0.83111800  0.00845100  1
  Zn  Zn4_3  1  0.37581250  0.83111800  0.50845100  1
  Zn  Zn4_4  1  0.87581250  0.33111800  0.00845100  1
  Zn  Zn4_5  1  0.87581250  0.33111800  0.50845100  1
  Zn  Zn4_6  1  0.87581250  0.83111800  0.00845100  1
  Zn  Zn4_7  1  0.87581250  0.83111800  0.50845100  1
  Zn  Zn5_0  1  0.37580550  0.07973950  0.25709200  1
  Zn  Zn5_1  1  0.37580550  0.07973950  0.75709200  1
  Zn  Zn5_2  1  0.37580550  0.57973950  0.25709200  1
  Zn  Zn5_3  1  0.37580550  0.57973950  0.75709200  1
  Zn  Zn5_4  1  0.87580550  0.07973950  0.25709200  1
  Zn  Zn5_5  1  0.87580550  0.07973950  0.75709200  1
  Zn  Zn5_6  1  0.87580550  0.57973950  0.25709200  1
  Zn  Zn5_7  1  0.87580550  0.57973950  0.75709200  1
  Zn  Zn6_0  1  0.37589900  0.32403400  0.16156250  1
  Zn  Zn6_1  1  0.37589900  0.32403400  0.66156250  1
  Zn  Zn6_2  1  0.37589900  0.82403400  0.16156250  1
  Zn  Zn6_3  1  0.37589900  0.82403400  0.66156250  1
  Zn  Zn6_4  1  0.87589900  0.32403400  0.16156250  1
  Zn  Zn6_5  1  0.87589900  0.32403400  0.66156250  1
  Zn  Zn6_6  1  0.87589900  0.82403400  0.16156250  1
  Zn  Zn6_7  1  0.87589900  0.82403400  0.66156250  1
  Zn  Zn7_0  1  0.49105200  0.00161150  0.00088150  1
  Zn  Zn7_1  1  0.49105200  0.00161150  0.50088150  1
  Zn  Zn7_2  1  0.49105200  0.50161150  0.00088150  1
  Zn  Zn7_3  1  0.49105200  0.50161150  0.50088150  1
  Zn  Zn7_4  1  0.99105200  0.00161150  0.00088150  1
  Zn  Zn7_5  1  0.99105200  0.00161150  0.50088150  1
  Zn  Zn7_6  1  0.99105200  0.50161150  0.00088150  1
  Zn  Zn7_7  1  0.99105200  0.50161150  0.50088150  1
  Zn  Zn8_0  1  0.46220200  0.25162150  0.24922850  1
  Zn  Zn8_1  1  0.46220200  0.25162150  0.74922850  1
  Zn  Zn8_2  1  0.46220200  0.75162150  0.24922850  1
  Zn  Zn8_3  1  0.46220200  0.75162150  0.74922850  1
  Zn  Zn8_4  1  0.96220200  0.25162150  0.24922850  1
  Zn  Zn8_5  1  0.96220200  0.25162150  0.74922850  1
  Zn  Zn8_6  1  0.96220200  0.75162150  0.24922850  1
  Zn  Zn8_7  1  0.96220200  0.75162150  0.74922850  1
  Ag  Ag0_0  1  0.37413500  0.07101700  0.41223400  1
  Ag  Ag0_1  1  0.37413500  0.07101700  0.91223400  1
  Ag  Ag0_2  1  0.37413500  0.57101700  0.41223400  1
  Ag  Ag0_3  1  0.37413500  0.57101700  0.91223400  1
  Ag  Ag0_4  1  0.87413500  0.07101700  0.41223400  1
  Ag  Ag0_5  1  0.87413500  0.07101700  0.91223400  1
  Ag  Ag0_6  1  0.87413500  0.57101700  0.41223400  1
  Ag  Ag0_7  1  0.87413500  0.57101700  0.91223400  1
  Ag  Ag1_0  1  0.36773550  0.09513850  0.08086050  1
  Ag  Ag1_1  1  0.36773550  0.09513850  0.58086050  1
  Ag  Ag1_2  1  0.36773550  0.59513850  0.08086050  1
  Ag  Ag1_3  1  0.36773550  0.59513850  0.58086050  1
  Ag  Ag1_4  1  0.86773550  0.09513850  0.08086050  1
  Ag  Ag1_5  1  0.86773550  0.09513850  0.58086050  1
  Ag  Ag1_6  1  0.86773550  0.59513850  0.08086050  1
  Ag  Ag1_7  1  0.86773550  0.59513850  0.58086050  1
  Ag  Ag2_0  1  0.37000650  0.34705700  0.33029850  1
  Ag  Ag2_1  1  0.37000650  0.34705700  0.83029850  1
  Ag  Ag2_2  1  0.37000650  0.84705700  0.33029850  1
  Ag  Ag2_3  1  0.37000650  0.84705700  0.83029850  1
  Ag  Ag2_4  1  0.87000650  0.34705700  0.33029850  1
  Ag  Ag2_5  1  0.87000650  0.34705700  0.83029850  1
  Ag  Ag2_6  1  0.87000650  0.84705700  0.33029850  1
  Ag  Ag2_7  1  0.87000650  0.84705700  0.83029850  1
  Ag  Ag3_0  1  0.13521400  0.41809750  0.23992050  1
  Ag  Ag3_1  1  0.13521400  0.41809750  0.73992050  1
  Ag  Ag3_2  1  0.13521400  0.91809750  0.23992050  1
  Ag  Ag3_3  1  0.13521400  0.91809750  0.73992050  1
  Ag  Ag3_4  1  0.63521400  0.41809750  0.23992050  1
  Ag  Ag3_5  1  0.63521400  0.41809750  0.73992050  1
  Ag  Ag3_6  1  0.63521400  0.91809750  0.23992050  1
  Ag  Ag3_7  1  0.63521400  0.91809750  0.73992050  1
  Ag  Ag4_0  1  0.13215750  0.17211050  0.49273100  1
  Ag  Ag4_1  1  0.13215750  0.17211050  0.99273100  1
  Ag  Ag4_2  1  0.13215750  0.67211050  0.49273100  1
  Ag  Ag4_3  1  0.13215750  0.67211050  0.99273100  1
  Ag  Ag4_4  1  0.63215750  0.17211050  0.49273100  1
  Ag  Ag4_5  1  0.63215750  0.17211050  0.99273100  1
  Ag  Ag4_6  1  0.63215750  0.67211050  0.49273100  1
  Ag  Ag4_7  1  0.63215750  0.67211050  0.99273100  1
  Ag  Ag5_0  1  0.12855400  0.42353750  0.08705150  1
  Ag  Ag5_1  1  0.12855400  0.42353750  0.58705150  1
  Ag  Ag5_2  1  0.12855400  0.92353750  0.08705150  1
  Ag  Ag5_3  1  0.12855400  0.92353750  0.58705150  1
  Ag  Ag5_4  1  0.62855400  0.42353750  0.08705150  1
  Ag  Ag5_5  1  0.62855400  0.42353750  0.58705150  1
  Ag  Ag5_6  1  0.62855400  0.92353750  0.08705150  1
  Ag  Ag5_7  1  0.62855400  0.92353750  0.58705150  1
  Ag  Ag6_0  1  0.12970950  0.17626850  0.33340600  1
  Ag  Ag6_1  1  0.12970950  0.17626850  0.83340600  1
  Ag  Ag6_2  1  0.12970950  0.67626850  0.33340600  1
  Ag  Ag6_3  1  0.12970950  0.67626850  0.83340600  1
  Ag  Ag6_4  1  0.62970950  0.17626850  0.33340600  1
  Ag  Ag6_5  1  0.62970950  0.17626850  0.83340600  1
  Ag  Ag6_6  1  0.62970950  0.67626850  0.33340600  1
  Ag  Ag6_7  1  0.62970950  0.67626850  0.83340600  1
  Ag  Ag7_0  1  0.14000450  0.15803450  0.17371300  1
  Ag  Ag7_1  1  0.14000450  0.15803450  0.67371300  1
  Ag  Ag7_2  1  0.14000450  0.65803450  0.17371300  1
  Ag  Ag7_3  1  0.14000450  0.65803450  0.67371300  1
  Ag  Ag7_4  1  0.64000450  0.15803450  0.17371300  1
  Ag  Ag7_5  1  0.64000450  0.15803450  0.67371300  1
  Ag  Ag7_6  1  0.64000450  0.65803450  0.17371300  1
  Ag  Ag7_7  1  0.64000450  0.65803450  0.67371300  1
  Ag  Ag8_0  1  0.13381650  0.40200100  0.42364600  1
  Ag  Ag8_1  1  0.13381650  0.40200100  0.92364600  1
  Ag  Ag8_2  1  0.13381650  0.90200100  0.42364600  1
  Ag  Ag8_3  1  0.13381650  0.90200100  0.92364600  1
  Ag  Ag8_4  1  0.63381650  0.40200100  0.42364600  1
  Ag  Ag8_5  1  0.63381650  0.40200100  0.92364600  1
  Ag  Ag8_6  1  0.63381650  0.90200100  0.42364600  1
  Ag  Ag8_7  1  0.63381650  0.90200100  0.92364600  1
loop_
_geom_bond_atom_site_label_1
_geom_bond_atom_site_label_2
_geom_bond_distance
_geom_bond_site_symmetry_2
Zn0_0 Zn5_0 2.689459 1_555
Zn0_0 Zn6_2 2.727983 1_545
Zn0_0 Zn0_4 2.899787 1_555
Zn0_0 Zn0_4 2.899787 1_455
Zn0_1 Zn5_1 2.689459 1_555
Zn0_1 Zn6_3 2.727983 1_545
Zn0_1 Zn0_5 2.899787 1_555
Zn0_1 Zn0_5 2.899787 1_455
Zn0_2 Zn5_2 2.689459 1_555
Zn0_2 Zn6_0 2.727983 1_555
Zn0_2 Zn0_6 2.899787 1_455
Zn0_2 Zn0_6 2.899787 1_555
Zn0_3 Zn5_3 2.689459 1_555
Zn0_3 Zn6_1 2.727983 1_555
Zn0_3 Zn0_7 2.899787 1_455
Zn0_3 Zn0_7 2.899787 1_555
Zn0_4 Zn5_4 2.689459 1_555
Zn0_4 Zn6_6 2.727983 1_545
Zn0_5 Zn5_5 2.689459 1_555
Zn0_5 Zn6_7 2.727983 1_545
Zn0_6 Zn5_6 2.689459 1_555
Zn0_6 Zn6_4 2.727983 1_555
Zn0_7 Zn5_7 2.689459 1_555
Zn0_7 Zn6_5 2.727983 1_555
Zn1_0 Zn4_1 2.777388 1_555
Zn1_0 Zn1_4 2.899787 1_455
Zn1_0 Zn1_4 2.899787 1_555
Zn1_1 Zn4_0 2.777388 1_556
Zn1_1 Zn1_5 2.899787 1_455
Zn1_1 Zn1_5 2.899787 1_555
Zn1_2 Zn4_3 2.777388 1_555
Zn1_2 Zn1_6 2.899787 1_455
Zn1_2 Zn1_6 2.899787 1_555
Zn1_3 Zn4_2 2.777388 1_556
Zn1_3 Zn1_7 2.899787 1_455
Zn1_3 Zn1_7 2.899787 1_555
Zn1_4 Zn4_5 2.777388 1_555
Zn1_5 Zn4_4 2.777388 1_556
Zn1_6 Zn4_7 2.777388 1_555
Zn1_7 Zn4_6 2.777388 1_556
Zn2_0 Zn6_0 2.732988 1_555
Zn2_0 Zn6_4 2.745174 1_455
Zn2_0 Zn4_4 2.800612 1_455
Zn2_0 Zn4_0 2.809775 1_555
Zn2_0 Zn2_4 2.899787 1_455
Zn2_0 Zn2_4 2.899787 1_555
Zn2_1 Zn6_1 2.732988 1_555
Zn2_1 Zn6_5 2.745174 1_455
Zn2_1 Zn4_5 2.800612 1_455
Zn2_1 Zn4_1 2.809775 1_555
Zn2_1 Zn2_5 2.899787 1_455
Zn2_1 Zn2_5 2.899787 1_555
Zn2_2 Zn6_2 2.732988 1_555
Zn2_2 Zn6_6 2.745174 1_455
Zn2_2 Zn4_6 2.800612 1_455
Zn2_2 Zn4_2 2.809775 1_555
Zn2_2 Zn2_6 2.899787 1_555
Zn2_2 Zn2_6 2.899787 1_455
Zn2_3 Zn6_3 2.732988 1_555
Zn2_3 Zn6_7 2.745174 1_455
Zn2_3 Zn4_7 2.800612 1_455
Zn2_3 Zn4_3 2.809775 1_555
Zn2_3 Zn2_7 2.899787 1_555
Zn2_3 Zn2_7 2.899787 1_455
Zn2_4 Zn6_4 2.732988 1_555
Zn2_4 Zn6_0 2.745174 1_555
Zn2_4 Zn4_0 2.800612 1_555
Zn2_4 Zn4_4 2.809775 1_555
Zn2_5 Zn6_5 2.732988 1_555
Zn2_5 Zn6_1 2.745174 1_555
Zn2_5 Zn4_1 2.800612 1_555
Zn2_5 Zn4_5 2.809775 1_555
Zn2_6 Zn6_6 2.732988 1_555
Zn2_6 Zn6_2 2.745174 1_555
Zn2_6 Zn4_2 2.800612 1_555
Zn2_6 Zn4_6 2.809775 1_555
Zn2_7 Zn6_7 2.732988 1_555
Zn2_7 Zn6_3 2.745174 1_555
Zn2_7 Zn4_3 2.800612 1_555
Zn2_7 Zn4_7 2.809775 1_555
Zn3_0 Zn5_6 2.774158 1_455
Zn3_0 Zn5_2 2.785010 1_555
Zn3_0 Zn3_4 2.899787 1_455
Zn3_0 Zn3_4 2.899787 1_555
Zn3_1 Zn5_7 2.774158 1_455
Zn3_1 Zn5_3 2.785010 1_555
Zn3_1 Zn3_5 2.899787 1_455
Zn3_1 Zn3_5 2.899787 1_555
Zn3_2 Zn5_4 2.774158 1_465
Zn3_2 Zn5_0 2.785010 1_565
Zn3_2 Zn3_6 2.899787 1_455
Zn3_2 Zn3_6 2.899787 1_555
Zn3_3 Zn5_5 2.774158 1_465
Zn3_3 Zn5_1 2.785010 1_565
Zn3_3 Zn3_7 2.899787 1_455
Zn3_3 Zn3_7 2.899787 1_555
Zn3_4 Zn5_2 2.774158 1_555
Zn3_4 Zn5_6 2.785010 1_555
Zn3_5 Zn5_3 2.774158 1_555
Zn3_5 Zn5_7 2.785010 1_555
Zn3_6 Zn5_0 2.774158 1_565
Zn3_6 Zn5_4 2.785010 1_565
Zn3_7 Zn5_1 2.774158 1_565
Zn3_7 Zn5_5 2.785010 1_565
Zn4_0 Zn7_2 2.698431 1_555
Zn4_0 Zn4_4 2.899787 1_555
Zn4_0 Zn4_4 2.899787 1_455
Zn4_1 Zn7_3 2.698431 1_555
Zn4_1 Zn4_5 2.899787 1_555
Zn4_1 Zn4_5 2.899787 1_455
Zn4_2 Zn7_0 2.698431 1_565
Zn4_2 Zn4_6 2.899787 1_555
Zn4_2 Zn4_6 2.899787 1_455
Zn4_3 Zn7_1 2.698431 1_565
Zn4_3 Zn4_7 2.899787 1_455
Zn4_3 Zn4_7 2.899787 1_555
Zn4_4 Zn7_6 2.698431 1_555
Zn4_5 Zn7_7 2.698431 1_555
Zn4_6 Zn7_4 2.698431 1_565
Zn4_7 Zn7_5 2.698431 1_565
Zn5_0 Zn8_0 2.685302 1_555
Zn5_0 Zn5_4 2.899787 1_455
Zn5_0 Zn5_4 2.899787 1_555
Zn5_1 Zn8_1 2.685302 1_555
Zn5_1 Zn5_5 2.899787 1_455
Zn5_1 Zn5_5 2.899787 1_555
Zn5_2 Zn8_2 2.685302 1_555
Zn5_2 Zn5_6 2.899787 1_555
Zn5_2 Zn5_6 2.899787 1_455
Zn5_3 Zn8_3 2.685302 1_555
Zn5_3 Zn5_7 2.899787 1_455
Zn5_3 Zn5_7 2.899787 1_555
Zn5_4 Zn8_4 2.685302 1_555
Zn5_5 Zn8_5 2.685302 1_555
Zn5_6 Zn8_6 2.685302 1_555
Zn5_7 Zn8_7 2.685302 1_555
Zn6_0 Zn8_0 2.636446 1_555
Zn6_0 Zn6_4 2.899787 1_455
Zn6_0 Zn6_4 2.899787 1_555
Zn6_1 Zn8_1 2.636446 1_555
Zn6_1 Zn6_5 2.899787 1_455
Zn6_1 Zn6_5 2.899787 1_555
Zn6_2 Zn8_2 2.636446 1_555
Zn6_2 Zn6_6 2.899787 1_555
Zn6_2 Zn6_6 2.899787 1_455
Zn6_3 Zn8_3 2.636446 1_555
Zn6_3 Zn6_7 2.899787 1_455
Zn6_3 Zn6_7 2.899787 1_555
Zn6_4 Zn8_4 2.636446 1_555
Zn6_5 Zn8_5 2.636446 1_555
Zn6_6 Zn8_6 2.636446 1_555
Zn6_7 Zn8_7 2.636446 1_555
Zn8_0 Zn8_4 2.899787 1_455
Zn8_0 Zn8_4 2.899787 1_555
Zn8_1 Zn8_5 2.899787 1_455
Zn8_1 Zn8_5 2.899787 1_555
Zn8_2 Zn8_6 2.899787 1_455
Zn8_2 Zn8_6 2.899787 1_555
Zn8_3 Zn8_7 2.899787 1_455
Zn8_3 Zn8_7 2.899787 1_555
Ag0_0 Zn7_1 2.679428 1_555
Ag0_0 Zn1_0 2.706492 1_555
Ag0_0 Zn3_2 2.753923 1_545
Ag0_0 Zn3_6 2.775072 1_545
Ag0_0 Ag8_2 2.945567 1_545
Ag0_0 Ag6_0 3.013436 1_555
Ag0_0 Ag8_6 3.027801 1_545
Ag0_0 Ag6_4 3.037324 1_555
Ag0_1 Zn7_0 2.679428 1_556
Ag0_1 Zn1_1 2.706492 1_555
Ag0_1 Zn3_3 2.753923 1_545
Ag0_1 Zn3_7 2.775072 1_545
Ag0_1 Ag8_3 2.945567 1_545
Ag0_1 Ag6_1 3.013436 1_555
Ag0_1 Ag8_7 3.027801 1_545
Ag0_1 Ag6_5 3.037324 1_555
Ag0_2 Zn7_3 2.679428 1_555
Ag0_2 Zn1_2 2.706492 1_555
Ag0_2 Zn3_0 2.753923 1_555
Ag0_2 Zn3_4 2.775072 1_555
Ag0_2 Ag8_0 2.945567 1_555
Ag0_2 Ag6_2 3.013436 1_555
Ag0_2 Ag8_4 3.027801 1_555
Ag0_2 Ag6_6 3.037324 1_555
Ag0_3 Zn7_2 2.679428 1_556
Ag0_3 Zn1_3 2.706492 1_555
Ag0_3 Zn3_1 2.753923 1_555
Ag0_3 Zn3_5 2.775072 1_555
Ag0_3 Ag8_1 2.945567 1_555
Ag0_3 Ag6_3 3.013436 1_555
Ag0_3 Ag8_5 3.027801 1_555
Ag0_3 Ag6_7 3.037324 1_555
Ag0_4 Zn7_5 2.679428 1_555
Ag0_4 Zn1_4 2.706492 1_555
Ag0_4 Zn3_6 2.753923 1_545
Ag0_4 Zn3_2 2.775072 1_645
Ag0_4 Ag8_6 2.945567 1_545
Ag0_4 Ag6_4 3.013436 1_555
Ag0_4 Ag8_2 3.027801 1_645
Ag0_4 Ag6_0 3.037324 1_655
Ag0_5 Zn7_4 2.679428 1_556
Ag0_5 Zn1_5 2.706492 1_555
Ag0_5 Zn3_7 2.753923 1_545
Ag0_5 Zn3_3 2.775072 1_645
Ag0_5 Ag8_7 2.945567 1_545
Ag0_5 Ag6_5 3.013436 1_555
Ag0_5 Ag8_3 3.027801 1_645
Ag0_5 Ag6_1 3.037324 1_655
Ag0_6 Zn7_7 2.679428 1_555
Ag0_6 Zn1_6 2.706492 1_555
Ag0_6 Zn3_4 2.753923 1_555
Ag0_6 Zn3_0 2.775072 1_655
Ag0_6 Ag8_4 2.945567 1_555
Ag0_6 Ag6_6 3.013436 1_555
Ag0_6 Ag8_0 3.027801 1_655
Ag0_6 Ag6_2 3.037324 1_655
Ag0_7 Zn7_6 2.679428 1_556
Ag0_7 Zn1_7 2.706492 1_555
Ag0_7 Zn3_5 2.753923 1_555
Ag0_7 Zn3_1 2.775072 1_655
Ag0_7 Ag8_5 2.945567 1_555
Ag0_7 Ag6_7 3.013436 1_555
Ag0_7 Ag8_1 3.027801 1_655
Ag0_7 Ag6_3 3.037324 1_655
Ag1_0 Zn7_0 2.654006 1_555
Ag1_0 Zn0_0 2.680911 1_555
Ag1_0 Zn2_0 2.764547 1_555
Ag1_0 Zn2_4 2.771132 1_555
Ag1_0 Ag7_0 2.959468 1_555
Ag1_0 Ag7_4 3.060134 1_555
Ag1_1 Zn7_1 2.654006 1_555
Ag1_1 Zn0_1 2.680911 1_555
Ag1_1 Zn2_1 2.764547 1_555
Ag1_1 Zn2_5 2.771132 1_555
Ag1_1 Ag7_1 2.959468 1_555
Ag1_1 Ag7_5 3.060134 1_555
Ag1_2 Zn7_2 2.654006 1_555
Ag1_2 Zn0_2 2.680911 1_555
Ag1_2 Zn2_2 2.764547 1_555
Ag1_2 Zn2_6 2.771132 1_555
Ag1_2 Ag7_2 2.959468 1_555
Ag1_2 Ag7_6 3.060134 1_555
Ag1_3 Zn7_3 2.654006 1_555
Ag1_3 Zn0_3 2.680911 1_555
Ag1_3 Zn2_3 2.764547 1_555
Ag1_3 Zn2_7 2.771132 1_555
Ag1_3 Ag7_3 2.959468 1_555
Ag1_3 Ag7_7 3.060134 1_555
Ag1_4 Zn7_4 2.654006 1_555
Ag1_4 Zn0_4 2.680911 1_555
Ag1_4 Zn2_4 2.764547 1_555
Ag1_4 Zn2_0 2.771132 1_655
Ag1_4 Ag7_4 2.959468 1_555
Ag1_4 Ag7_0 3.060134 1_655
Ag1_5 Zn7_5 2.654006 1_555
Ag1_5 Zn0_5 2.680911 1_555
Ag1_5 Zn2_5 2.764547 1_555
Ag1_5 Zn2_1 2.771132 1_655
Ag1_5 Ag7_5 2.959468 1_555
Ag1_5 Ag7_1 3.060134 1_655
Ag1_6 Zn7_6 2.654006 1_555
Ag1_6 Zn0_6 2.680911 1_555
Ag1_6 Zn2_6 2.764547 1_555
Ag1_6 Zn2_2 2.771132 1_655
Ag1_6 Ag7_6 2.959468 1_555
Ag1_6 Ag7_2 3.060134 1_655
Ag1_7 Zn7_7 2.654006 1_555
Ag1_7 Zn0_7 2.680911 1_555
Ag1_7 Zn2_7 2.764547 1_555
Ag1_7 Zn2_3 2.771132 1_655
Ag1_7 Ag7_7 2.959468 1_555
Ag1_7 Ag7_3 3.060134 1_655
Ag2_0 Zn8_0 2.648509 1_555
Ag2_0 Zn1_0 2.729781 1_555
Ag2_0 Zn3_4 2.750606 1_555
Ag2_0 Zn3_0 2.758775 1_555
Ag2_0 Ag6_0 2.952254 1_555
Ag2_0 Ag8_0 2.956430 1_555
Ag2_0 Ag3_0 2.974525 1_555
Ag2_0 Ag8_4 3.011603 1_555
Ag2_0 Ag6_4 3.035876 1_555
Ag2_0 Ag3_4 3.059654 1_555
Ag2_1 Zn8_1 2.648509 1_555
Ag2_1 Zn1_1 2.729781 1_555
Ag2_1 Zn3_5 2.750606 1_555
Ag2_1 Zn3_1 2.758775 1_555
Ag2_1 Ag6_1 2.952254 1_555
Ag2_1 Ag8_1 2.956430 1_555
Ag2_1 Ag3_1 2.974525 1_555
Ag2_1 Ag8_5 3.011603 1_555
Ag2_1 Ag6_5 3.035876 1_555
Ag2_1 Ag3_5 3.059654 1_555
Ag2_2 Zn8_2 2.648509 1_555
Ag2_2 Zn1_2 2.729781 1_555
Ag2_2 Zn3_6 2.750606 1_555
Ag2_2 Zn3_2 2.758775 1_555
Ag2_2 Ag6_2 2.952254 1_555
Ag2_2 Ag8_2 2.956430 1_555
Ag2_2 Ag3_2 2.974525 1_555
Ag2_2 Ag8_6 3.011603 1_555
Ag2_2 Ag6_6 3.035876 1_555
Ag2_2 Ag3_6 3.059654 1_555
Ag2_3 Zn8_3 2.648509 1_555
Ag2_3 Zn1_3 2.729781 1_555
Ag2_3 Zn3_7 2.750606 1_555
Ag2_3 Zn3_3 2.758775 1_555
Ag2_3 Ag6_3 2.952254 1_555
Ag2_3 Ag8_3 2.956430 1_555
Ag2_3 Ag3_3 2.974525 1_555
Ag2_3 Ag8_7 3.011603 1_555
Ag2_3 Ag6_7 3.035876 1_555
Ag2_3 Ag3_7 3.059654 1_555
Ag2_4 Zn8_4 2.648509 1_555
Ag2_4 Zn1_4 2.729781 1_555
Ag2_4 Zn3_0 2.750606 1_655
Ag2_4 Zn3_4 2.758775 1_555
Ag2_4 Ag6_4 2.952254 1_555
Ag2_4 Ag8_4 2.956430 1_555
Ag2_4 Ag3_4 2.974525 1_555
Ag2_4 Ag8_0 3.011603 1_655
Ag2_4 Ag6_0 3.035876 1_655
Ag2_4 Ag3_0 3.059654 1_655
Ag2_5 Zn8_5 2.648509 1_555
Ag2_5 Zn1_5 2.729781 1_555
Ag2_5 Zn3_1 2.750606 1_655
Ag2_5 Zn3_5 2.758775 1_555
Ag2_5 Ag6_5 2.952254 1_555
Ag2_5 Ag8_5 2.956430 1_555
Ag2_5 Ag3_5 2.974525 1_555
Ag2_5 Ag8_1 3.011603 1_655
Ag2_5 Ag6_1 3.035876 1_655
Ag2_5 Ag3_1 3.059654 1_655
Ag2_6 Zn8_6 2.648509 1_555
Ag2_6 Zn1_6 2.729781 1_555
Ag2_6 Zn3_2 2.750606 1_655
Ag2_6 Zn3_6 2.758775 1_555
Ag2_6 Ag6_6 2.952254 1_555
Ag2_6 Ag8_6 2.956430 1_555
Ag2_6 Ag3_6 2.974525 1_555
Ag2_6 Ag8_2 3.011603 1_655
Ag2_6 Ag6_2 3.035876 1_655
Ag2_6 Ag3_2 3.059654 1_655
Ag2_7 Zn8_7 2.648509 1_555
Ag2_7 Zn1_7 2.729781 1_555
Ag2_7 Zn3_3 2.750606 1_655
Ag2_7 Zn3_7 2.758775 1_555
Ag2_7 Ag6_7 2.952254 1_555
Ag2_7 Ag8_7 2.956430 1_555
Ag2_7 Ag3_7 2.974525 1_555
Ag2_7 Ag8_3 3.011603 1_655
Ag2_7 Ag6_3 3.035876 1_655
Ag2_7 Ag3_3 3.059654 1_655
Ag3_0 Zn8_4 2.743931 1_455
Ag3_0 Zn0_2 2.760172 1_555
Ag3_0 Zn3_0 2.763118 1_555
Ag3_0 Zn0_6 2.784751 1_455
Ag3_0 Zn5_2 2.859144 1_555
Ag3_0 Zn6_0 2.891824 1_555
Ag3_0 Ag3_4 2.899787 1_455
Ag3_0 Ag3_4 2.899787 1_555
Ag3_0 Zn6_4 2.917664 1_455
Ag3_0 Zn5_6 2.945006 1_455
Ag3_0 Zn8_0 3.206768 1_555
Ag3_1 Zn8_5 2.743931 1_455
Ag3_1 Zn0_3 2.760172 1_555
Ag3_1 Zn3_1 2.763118 1_555
Ag3_1 Zn0_7 2.784751 1_455
Ag3_1 Zn5_3 2.859144 1_555
Ag3_1 Zn6_1 2.891824 1_555
Ag3_1 Ag3_5 2.899787 1_455
Ag3_1 Ag3_5 2.899787 1_555
Ag3_1 Zn6_5 2.917664 1_455
Ag3_1 Zn5_7 2.945006 1_455
Ag3_1 Zn8_1 3.206768 1_555
Ag3_2 Zn8_6 2.743931 1_455
Ag3_2 Zn0_0 2.760172 1_565
Ag3_2 Zn3_2 2.763118 1_555
Ag3_2 Zn0_4 2.784751 1_465
Ag3_2 Zn5_0 2.859144 1_565
Ag3_2 Zn6_2 2.891824 1_555
Ag3_2 Ag3_6 2.899787 1_455
Ag3_2 Ag3_6 2.899787 1_555
Ag3_2 Zn6_6 2.917664 1_455
Ag3_2 Zn5_4 2.945006 1_465
Ag3_2 Zn8_2 3.206768 1_555
Ag3_3 Zn8_7 2.743931 1_455
Ag3_3 Zn0_1 2.760172 1_565
Ag3_3 Zn3_3 2.763118 1_555
Ag3_3 Zn0_5 2.784751 1_465
Ag3_3 Zn5_1 2.859144 1_565
Ag3_3 Zn6_3 2.891824 1_555
Ag3_3 Ag3_7 2.899787 1_455
Ag3_3 Ag3_7 2.899787 1_555
Ag3_3 Zn6_7 2.917664 1_455
Ag3_3 Zn5_5 2.945006 1_465
Ag3_3 Zn8_3 3.206768 1_555
Ag3_4 Zn8_0 2.743931 1_555
Ag3_4 Zn0_6 2.760172 1_555
Ag3_4 Zn3_4 2.763118 1_555
Ag3_4 Zn0_2 2.784751 1_555
Ag3_4 Zn5_6 2.859144 1_555
Ag3_4 Zn6_4 2.891824 1_555
Ag3_4 Zn6_0 2.917664 1_555
Ag3_4 Zn5_2 2.945006 1_555
Ag3_4 Zn8_4 3.206768 1_555
Ag3_5 Zn8_1 2.743931 1_555
Ag3_5 Zn0_7 2.760172 1_555
Ag3_5 Zn3_5 2.763118 1_555
Ag3_5 Zn0_3 2.784751 1_555
Ag3_5 Zn5_7 2.859144 1_555
Ag3_5 Zn6_5 2.891824 1_555
Ag3_5 Zn6_1 2.917664 1_555
Ag3_5 Zn5_3 2.945006 1_555
Ag3_5 Zn8_5 3.206768 1_555
Ag3_6 Zn8_2 2.743931 1_555
Ag3_6 Zn0_4 2.760172 1_565
Ag3_6 Zn3_6 2.763118 1_555
Ag3_6 Zn0_0 2.784751 1_565
Ag3_6 Zn5_4 2.859144 1_565
Ag3_6 Zn6_6 2.891824 1_555
Ag3_6 Zn6_2 2.917664 1_555
Ag3_6 Zn5_0 2.945006 1_565
Ag3_6 Zn8_6 3.206768 1_555
Ag3_7 Zn8_3 2.743931 1_555
Ag3_7 Zn0_5 2.760172 1_565
Ag3_7 Zn3_7 2.763118 1_555
Ag3_7 Zn0_1 2.784751 1_565
Ag3_7 Zn5_5 2.859144 1_565
Ag3_7 Zn6_7 2.891824 1_555
Ag3_7 Zn6_3 2.917664 1_555
Ag3_7 Zn5_1 2.945006 1_565
Ag3_7 Zn8_7 3.206768 1_555
Ag4_0 Zn2_1 2.706258 1_555
Ag4_0 Zn7_5 2.739276 1_455
Ag4_0 Zn1_0 2.772485 1_555
Ag4_0 Zn1_4 2.794611 1_455
Ag4_0 Zn4_1 2.827715 1_555
Ag4_0 Zn4_5 2.896091 1_455
Ag4_1 Zn2_0 2.706258 1_556
Ag4_1 Zn7_4 2.739276 1_456
Ag4_1 Zn1_1 2.772485 1_555
Ag4_1 Zn1_5 2.794611 1_455
Ag4_1 Zn4_0 2.827715 1_556
Ag4_1 Zn4_4 2.896091 1_456
Ag4_2 Zn2_3 2.706258 1_555
Ag4_2 Zn7_7 2.739276 1_455
Ag4_2 Zn1_2 2.772485 1_555
Ag4_2 Zn1_6 2.794611 1_455
Ag4_2 Zn4_3 2.827715 1_555
Ag4_2 Zn4_7 2.896091 1_455
Ag4_3 Zn2_2 2.706258 1_556
Ag4_3 Zn7_6 2.739276 1_456
Ag4_3 Zn1_3 2.772485 1_555
Ag4_3 Zn1_7 2.794611 1_455
Ag4_3 Zn4_2 2.827715 1_556
Ag4_3 Zn4_6 2.896091 1_456
Ag4_4 Zn2_5 2.706258 1_555
Ag4_4 Zn7_1 2.739276 1_555
Ag4_4 Zn1_4 2.772485 1_555
Ag4_4 Zn1_0 2.794611 1_555
Ag4_4 Zn4_5 2.827715 1_555
Ag4_4 Zn4_1 2.896091 1_555
Ag4_5 Zn2_4 2.706258 1_556
Ag4_5 Zn7_0 2.739276 1_556
Ag4_5 Zn1_5 2.772485 1_555
Ag4_5 Zn1_1 2.794611 1_555
Ag4_5 Zn4_4 2.827715 1_556
Ag4_5 Zn4_0 2.896091 1_556
Ag4_6 Zn2_7 2.706258 1_555
Ag4_6 Zn7_3 2.739276 1_555
Ag4_6 Zn1_6 2.772485 1_555
Ag4_6 Zn1_2 2.794611 1_555
Ag4_6 Zn4_7 2.827715 1_555
Ag4_6 Zn4_3 2.896091 1_555
Ag4_7 Zn2_6 2.706258 1_556
Ag4_7 Zn7_2 2.739276 1_556
Ag4_7 Zn1_7 2.772485 1_555
Ag4_7 Zn1_3 2.794611 1_555
Ag4_7 Zn4_6 2.827715 1_556
Ag4_7 Zn4_2 2.896091 1_556
Ag5_0 Zn2_0 2.674324 1_555
Ag5_0 Zn7_6 2.712663 1_455
Ag5_0 Zn0_2 2.799656 1_555
Ag5_0 Zn0_6 2.805872 1_455
Ag5_0 Zn4_4 2.891064 1_455
Ag5_0 Zn6_0 2.894455 1_555
Ag5_0 Zn6_4 2.902852 1_455
Ag5_0 Zn4_0 2.903056 1_555
Ag5_1 Zn2_1 2.674324 1_555
Ag5_1 Zn7_7 2.712663 1_455
Ag5_1 Zn0_3 2.799656 1_555
Ag5_1 Zn0_7 2.805872 1_455
Ag5_1 Zn4_5 2.891064 1_455
Ag5_1 Zn6_1 2.894455 1_555
Ag5_1 Zn6_5 2.902852 1_455
Ag5_1 Zn4_1 2.903056 1_555
Ag5_2 Zn2_2 2.674324 1_555
Ag5_2 Zn7_4 2.712663 1_465
Ag5_2 Zn0_0 2.799656 1_565
Ag5_2 Zn0_4 2.805872 1_465
Ag5_2 Zn4_6 2.891064 1_455
Ag5_2 Zn6_2 2.894455 1_555
Ag5_2 Zn6_6 2.902852 1_455
Ag5_2 Zn4_2 2.903056 1_555
Ag5_3 Zn2_3 2.674324 1_555
Ag5_3 Zn7_5 2.712663 1_465
Ag5_3 Zn0_1 2.799656 1_565
Ag5_3 Zn0_5 2.805872 1_465
Ag5_3 Zn4_7 2.891064 1_455
Ag5_3 Zn6_3 2.894455 1_555
Ag5_3 Zn6_7 2.902852 1_455
Ag5_3 Zn4_3 2.903056 1_555
Ag5_4 Zn2_4 2.674324 1_555
Ag5_4 Zn7_2 2.712663 1_555
Ag5_4 Zn0_6 2.799656 1_555
Ag5_4 Zn0_2 2.805872 1_555
Ag5_4 Zn4_0 2.891064 1_555
Ag5_4 Zn6_4 2.894455 1_555
Ag5_4 Zn6_0 2.902852 1_555
Ag5_4 Zn4_4 2.903056 1_555
Ag5_5 Zn2_5 2.674324 1_555
Ag5_5 Zn7_3 2.712663 1_555
Ag5_5 Zn0_7 2.799656 1_555
Ag5_5 Zn0_3 2.805872 1_555
Ag5_5 Zn4_1 2.891064 1_555
Ag5_5 Zn6_5 2.894455 1_555
Ag5_5 Zn6_1 2.902852 1_555
Ag5_5 Zn4_5 2.903056 1_555
Ag5_6 Zn2_6 2.674324 1_555
Ag5_6 Zn7_0 2.712663 1_565
Ag5_6 Zn0_4 2.799656 1_565
Ag5_6 Zn0_0 2.805872 1_565
Ag5_6 Zn4_2 2.891064 1_555
Ag5_6 Zn6_6 2.894455 1_555
Ag5_6 Zn6_2 2.902852 1_555
Ag5_6 Zn4_6 2.903056 1_555
Ag5_7 Zn2_7 2.674324 1_555
Ag5_7 Zn7_1 2.712663 1_565
Ag5_7 Zn0_5 2.799656 1_565
Ag5_7 Zn0_1 2.805872 1_565
Ag5_7 Zn4_3 2.891064 1_555
Ag5_7 Zn6_7 2.894455 1_555
Ag5_7 Zn6_3 2.902852 1_555
Ag5_7 Zn4_7 2.903056 1_555
Ag6_0 Zn3_2 2.701250 1_545
Ag6_0 Zn8_4 2.706666 1_455
Ag6_0 Zn1_0 2.802535 1_555
Ag6_0 Zn1_4 2.832729 1_455
Ag6_0 Zn5_4 2.882421 1_455
Ag6_0 Zn5_0 2.888091 1_555
Ag6_0 Ag6_4 2.899787 1_555
Ag6_0 Ag6_4 2.899787 1_455
Ag6_0 Zn8_0 3.176978 1_555
Ag6_1 Zn3_3 2.701250 1_545
Ag6_1 Zn8_5 2.706666 1_455
Ag6_1 Zn1_1 2.802535 1_555
Ag6_1 Zn1_5 2.832729 1_455
Ag6_1 Zn5_5 2.882421 1_455
Ag6_1 Zn5_1 2.888091 1_555
Ag6_1 Ag6_5 2.899787 1_555
Ag6_1 Ag6_5 2.899787 1_455
Ag6_1 Zn8_1 3.176978 1_555
Ag6_2 Zn3_0 2.701250 1_555
Ag6_2 Zn8_6 2.706666 1_455
Ag6_2 Zn1_2 2.802535 1_555
Ag6_2 Zn1_6 2.832729 1_455
Ag6_2 Zn5_6 2.882421 1_455
Ag6_2 Zn5_2 2.888091 1_555
Ag6_2 Ag6_6 2.899787 1_455
Ag6_2 Ag6_6 2.899787 1_555
Ag6_2 Zn8_2 3.176978 1_555
Ag6_3 Zn3_1 2.701250 1_555
Ag6_3 Zn8_7 2.706666 1_455
Ag6_3 Zn1_3 2.802535 1_555
Ag6_3 Zn1_7 2.832729 1_455
Ag6_3 Zn5_7 2.882421 1_455
Ag6_3 Zn5_3 2.888091 1_555
Ag6_3 Ag6_7 2.899787 1_555
Ag6_3 Ag6_7 2.899787 1_455
Ag6_3 Zn8_3 3.176978 1_555
Ag6_4 Zn3_6 2.701250 1_545
Ag6_4 Zn8_0 2.706666 1_555
Ag6_4 Zn1_4 2.802535 1_555
Ag6_4 Zn1_0 2.832729 1_555
Ag6_4 Zn5_0 2.882421 1_555
Ag6_4 Zn5_4 2.888091 1_555
Ag6_4 Zn8_4 3.176978 1_555
Ag6_5 Zn3_7 2.701250 1_545
Ag6_5 Zn8_1 2.706666 1_555
Ag6_5 Zn1_5 2.802535 1_555
Ag6_5 Zn1_1 2.832729 1_555
Ag6_5 Zn5_1 2.882421 1_555
Ag6_5 Zn5_5 2.888091 1_555
Ag6_5 Zn8_5 3.176978 1_555
Ag6_6 Zn3_4 2.701250 1_555
Ag6_6 Zn8_2 2.706666 1_555
Ag6_6 Zn1_6 2.802535 1_555
Ag6_6 Zn1_2 2.832729 1_555
Ag6_6 Zn5_2 2.882421 1_555
Ag6_6 Zn5_6 2.888091 1_555
Ag6_6 Zn8_6 3.176978 1_555
Ag6_7 Zn3_5 2.701250 1_555
Ag6_7 Zn8_3 2.706666 1_555
Ag6_7 Zn1_7 2.802535 1_555
Ag6_7 Zn1_3 2.832729 1_555
Ag6_7 Zn5_3 2.882421 1_555
Ag6_7 Zn5_7 2.888091 1_555
Ag6_7 Zn8_7 3.176978 1_555
Ag7_0 Zn8_4 2.670135 1_455
Ag7_0 Zn2_0 2.750495 1_555
Ag7_0 Zn0_0 2.791774 1_555
Ag7_0 Zn0_4 2.810392 1_455
Ag7_0 Zn5_0 2.875542 1_555
Ag7_0 Zn6_0 2.895616 1_555
Ag7_0 Ag7_4 2.899787 1_455
Ag7_0 Ag7_4 2.899787 1_555
Ag7_0 Zn5_4 2.955524 1_455
Ag7_0 Zn6_4 3.003475 1_455
Ag7_0 Zn8_0 3.065563 1_555
Ag7_1 Zn8_5 2.670135 1_455
Ag7_1 Zn2_1 2.750495 1_555
Ag7_1 Zn0_1 2.791774 1_555
Ag7_1 Zn0_5 2.810392 1_455
Ag7_1 Zn5_1 2.875542 1_555
Ag7_1 Zn6_1 2.895616 1_555
Ag7_1 Ag7_5 2.899787 1_455
Ag7_1 Ag7_5 2.899787 1_555
Ag7_1 Zn5_5 2.955524 1_455
Ag7_1 Zn6_5 3.003475 1_455
Ag7_1 Zn8_1 3.065563 1_555
Ag7_2 Zn8_6 2.670135 1_455
Ag7_2 Zn2_2 2.750495 1_555
Ag7_2 Zn0_2 2.791774 1_555
Ag7_2 Zn0_6 2.810392 1_455
Ag7_2 Zn5_2 2.875542 1_555
Ag7_2 Zn6_2 2.895616 1_555
Ag7_2 Ag7_6 2.899787 1_455
Ag7_2 Ag7_6 2.899787 1_555
Ag7_2 Zn5_6 2.955524 1_455
Ag7_2 Zn6_6 3.003475 1_455
Ag7_2 Zn8_2 3.065563 1_555
Ag7_3 Zn8_7 2.670135 1_455
Ag7_3 Zn2_3 2.750495 1_555
Ag7_3 Zn0_3 2.791774 1_555
Ag7_3 Zn0_7 2.810392 1_455
Ag7_3 Zn5_3 2.875542 1_555
Ag7_3 Zn6_3 2.895616 1_555
Ag7_3 Ag7_7 2.899787 1_455
Ag7_3 Ag7_7 2.899787 1_555
Ag7_3 Zn5_7 2.955524 1_455
Ag7_3 Zn6_7 3.003475 1_455
Ag7_3 Zn8_3 3.065563 1_555
Ag7_4 Zn8_0 2.670135 1_555
Ag7_4 Zn2_4 2.750495 1_555
Ag7_4 Zn0_4 2.791774 1_555
Ag7_4 Zn0_0 2.810392 1_555
Ag7_4 Zn5_4 2.875542 1_555
Ag7_4 Zn6_4 2.895616 1_555
Ag7_4 Zn5_0 2.955524 1_555
Ag7_4 Zn6_0 3.003475 1_555
Ag7_4 Zn8_4 3.065563 1_555
Ag7_5 Zn8_1 2.670135 1_555
Ag7_5 Zn2_5 2.750495 1_555
Ag7_5 Zn0_5 2.791774 1_555
Ag7_5 Zn0_1 2.810392 1_555
Ag7_5 Zn5_5 2.875542 1_555
Ag7_5 Zn6_5 2.895616 1_555
Ag7_5 Zn5_1 2.955524 1_555
Ag7_5 Zn6_1 3.003475 1_555
Ag7_5 Zn8_5 3.065563 1_555
Ag7_6 Zn8_2 2.670135 1_555
Ag7_6 Zn2_6 2.750495 1_555
Ag7_6 Zn0_6 2.791774 1_555
Ag7_6 Zn0_2 2.810392 1_555
Ag7_6 Zn5_6 2.875542 1_555
Ag7_6 Zn6_6 2.895616 1_555
Ag7_6 Zn5_2 2.955524 1_555
Ag7_6 Zn6_2 3.003475 1_555
Ag7_6 Zn8_6 3.065563 1_555
Ag7_7 Zn8_3 2.670135 1_555
Ag7_7 Zn2_7 2.750495 1_555
Ag7_7 Zn0_7 2.791774 1_555
Ag7_7 Zn0_3 2.810392 1_555
Ag7_7 Zn5_7 2.875542 1_555
Ag7_7 Zn6_7 2.895616 1_555
Ag7_7 Zn5_3 2.955524 1_555
Ag7_7 Zn6_3 3.003475 1_555
Ag7_7 Zn8_7 3.065563 1_555
Ag8_0 Zn7_7 2.682424 1_455
Ag8_0 Zn1_4 2.780395 1_455
Ag8_0 Zn1_0 2.780631 1_555
Ag8_0 Zn3_0 2.846255 1_555
Ag8_0 Zn4_1 2.875579 1_555
Ag8_0 Ag8_4 2.899787 1_455
Ag8_0 Ag8_4 2.899787 1_555
Ag8_0 Zn4_5 2.921616 1_455
Ag8_0 Zn7_3 3.261024 1_555
Ag8_1 Zn7_6 2.682424 1_456
Ag8_1 Zn1_5 2.780395 1_455
Ag8_1 Zn1_1 2.780631 1_555
Ag8_1 Zn3_1 2.846255 1_555
Ag8_1 Zn4_0 2.875579 1_556
Ag8_1 Ag8_5 2.899787 1_455
Ag8_1 Ag8_5 2.899787 1_555
Ag8_1 Zn4_4 2.921616 1_456
Ag8_1 Zn7_2 3.261024 1_556
Ag8_2 Zn7_5 2.682424 1_465
Ag8_2 Zn1_6 2.780395 1_455
Ag8_2 Zn1_2 2.780631 1_555
Ag8_2 Zn3_2 2.846255 1_555
Ag8_2 Zn4_3 2.875579 1_555
Ag8_2 Ag8_6 2.899787 1_455
Ag8_2 Ag8_6 2.899787 1_555
Ag8_2 Zn4_7 2.921616 1_455
Ag8_2 Zn7_1 3.261024 1_565
Ag8_3 Zn7_4 2.682424 1_466
Ag8_3 Zn1_7 2.780395 1_455
Ag8_3 Zn1_3 2.780631 1_555
Ag8_3 Zn3_3 2.846255 1_555
Ag8_3 Zn4_2 2.875579 1_556
Ag8_3 Ag8_7 2.899787 1_555
Ag8_3 Ag8_7 2.899787 1_455
Ag8_3 Zn4_6 2.921616 1_456
Ag8_3 Zn7_0 3.261024 1_566
Ag8_4 Zn7_3 2.682424 1_555
Ag8_4 Zn1_0 2.780395 1_555
Ag8_4 Zn1_4 2.780631 1_555
Ag8_4 Zn3_4 2.846255 1_555
Ag8_4 Zn4_5 2.875579 1_555
Ag8_4 Zn4_1 2.921616 1_555
Ag8_4 Zn7_7 3.261024 1_555
Ag8_5 Zn7_2 2.682424 1_556
Ag8_5 Zn1_1 2.780395 1_555
Ag8_5 Zn1_5 2.780631 1_555
Ag8_5 Zn3_5 2.846255 1_555
Ag8_5 Zn4_4 2.875579 1_556
Ag8_5 Zn4_0 2.921616 1_556
Ag8_5 Zn7_6 3.261024 1_556
Ag8_6 Zn7_1 2.682424 1_565
Ag8_6 Zn1_2 2.780395 1_555
Ag8_6 Zn1_6 2.780631 1_555
Ag8_6 Zn3_6 2.846255 1_555
Ag8_6 Zn4_7 2.875579 1_555
Ag8_6 Zn4_3 2.921616 1_555
Ag8_6 Zn7_5 3.261024 1_565
Ag8_7 Zn7_0 2.682424 1_566
Ag8_7 Zn1_3 2.780395 1_555
Ag8_7 Zn1_7 2.780631 1_555
Ag8_7 Zn3_7 2.846255 1_555
Ag8_7 Zn4_6 2.875579 1_556
Ag8_7 Zn4_2 2.921616 1_556
Ag8_7 Zn7_4 3.261024 1_566
