# generated using pymatgen
data_SrAc3
_symmetry_space_group_name_H-M   'P 1'
_cell_length_a   8.14554397
_cell_length_b   8.14554397
_cell_length_c   6.54981700
_cell_angle_alpha   90.00000000
_cell_angle_beta   90.00000000
_cell_angle_gamma   119.99999978
_symmetry_Int_Tables_number   1
_chemical_formula_structural   SrAc3
_chemical_formula_sum   'Sr2 Ac6'
_cell_volume   376.35698763
_cell_formula_units_Z   2
loop_
 _symmetry_equiv_pos_site_id
 _symmetry_equiv_pos_as_xyz
  1  'x, y, z'
loop_
 _atom_site_type_symbol
 _atom_site_label
 _atom_site_symmetry_multiplicity
 _atom_site_fract_x
 _atom_site_fract_y
 _atom_site_fract_z
 _atom_site_occupancy
  Sr  Sr0  1  0.33333300  0.66666700  0.75000000  1
  Sr  Sr1  1  0.66666700  0.33333300  0.25000000  1
  Ac  Ac0  1  0.16406900  0.32813800  0.25000000  1
  Ac  Ac1  1  0.67186200  0.83593100  0.25000000  1
  Ac  Ac2  1  0.16406900  0.83593100  0.25000000  1
  Ac  Ac3  1  0.83593100  0.67186200  0.75000000  1
  Ac  Ac4  1  0.32813800  0.16406900  0.75000000  1
  Ac  Ac5  1  0.83593100  0.16406900  0.75000000  1
loop_
_geom_bond_atom_site_label_1
_geom_bond_atom_site_label_2
_geom_bond_distance
_geom_bond_site_symmetry_2
Ac0 Ac2 4.009294 1_545
Ac0 Ac1 4.009294 1_445
Ac0 Ac4 4.010383 1_555
Ac0 Ac4 4.010383 1_554
Ac0 Ac5 4.010383 1_455
Ac0 Ac5 4.010383 1_454
Ac0 Sr0 4.053134 1_554
Ac0 Sr0 4.053134 1_555
Ac0 Sr1 4.072933 1_455
Ac0 Sr1 4.072941 1_555
Ac0 Ac2 4.136250 1_555
Ac0 Ac1 4.136250 1_555
Ac1 Ac2 4.009294 1_655
Ac1 Ac3 4.010383 1_554
Ac1 Ac3 4.010383 1_555
Ac1 Ac5 4.010383 1_565
Ac1 Ac5 4.010383 1_564
Ac1 Sr0 4.053134 1_554
Ac1 Sr0 4.053134 1_555
Ac1 Sr1 4.072933 1_565
Ac1 Sr1 4.072941 1_555
Ac1 Ac2 4.136250 1_555
Ac2 Ac4 4.010383 1_564
Ac2 Ac3 4.010383 1_454
Ac2 Ac3 4.010383 1_455
Ac2 Ac4 4.010383 1_565
Ac2 Sr0 4.053129 1_555
Ac2 Sr0 4.053129 1_554
Ac2 Sr1 4.072937 1_455
Ac2 Sr1 4.072937 1_565
Ac3 Ac5 4.009294 1_565
Ac3 Ac4 4.009294 1_665
Ac3 Sr1 4.053134 1_555
Ac3 Sr1 4.053134 1_556
Ac3 Sr0 4.072933 1_655
Ac3 Sr0 4.072941 1_555
Ac3 Ac5 4.136250 1_555
Ac3 Ac4 4.136250 1_555
Ac4 Ac5 4.009294 1_455
Ac4 Sr1 4.053134 1_555
Ac4 Sr1 4.053134 1_556
Ac4 Sr0 4.072933 1_545
Ac4 Sr0 4.072941 1_555
Ac4 Ac5 4.136250 1_555
Ac5 Sr1 4.053129 1_555
Ac5 Sr1 4.053129 1_556
Ac5 Sr0 4.072937 1_655
Ac5 Sr0 4.072937 1_545
