# generated using pymatgen
data_Ta2TiW
_symmetry_space_group_name_H-M   'P 1'
_cell_length_a   4.59116342
_cell_length_b   4.59116342
_cell_length_c   4.59116342
_cell_angle_alpha   60.00000000
_cell_angle_beta   60.00000000
_cell_angle_gamma   60.00000000
_symmetry_Int_Tables_number   1
_chemical_formula_structural   Ta2TiW
_chemical_formula_sum   'Ta2 Ti1 W1'
_cell_volume   68.43105847
_cell_formula_units_Z   1
loop_
 _symmetry_equiv_pos_site_id
 _symmetry_equiv_pos_as_xyz
  1  'x, y, z'
loop_
 _atom_site_type_symbol
 _atom_site_label
 _atom_site_symmetry_multiplicity
 _atom_site_fract_x
 _atom_site_fract_y
 _atom_site_fract_z
 _atom_site_occupancy
  Ta  Ta0  1  0.25000000  0.25000000  0.25000000  1
  Ta  Ta1  1  0.75000000  0.75000000  0.75000000  1
  Ti  Ti0  1  0.50000000  0.50000000  0.50000000  1
  W  W0  1  0.00000000  -0.00000000  0.00000000  1
loop_
_geom_bond_atom_site_label_1
_geom_bond_atom_site_label_2
_geom_bond_distance
_geom_bond_site_symmetry_2
Ta0 W0 2.811502 1_556
Ta0 Ti0 2.811502 1_554
Ta0 W0 2.811502 1_555
Ta0 Ti0 2.811502 1_555
Ta0 Ti0 2.811502 1_455
Ta0 W0 2.811502 1_655
Ta0 W0 2.811502 1_565
Ta0 Ti0 2.811502 1_545
Ta1 W0 2.811502 1_666
Ta1 W0 2.811502 1_665
Ta1 Ti0 2.811502 1_555
Ta1 Ti0 2.811502 1_556
Ta1 W0 2.811502 1_656
Ta1 W0 2.811502 1_566
Ta1 Ti0 2.811502 1_565
Ta1 Ti0 2.811502 1_655
