# generated using pymatgen
data_GaN
_symmetry_space_group_name_H-M   'P 1'
_cell_length_a   10.72271763
_cell_length_b   11.37390667
_cell_length_c   12.68283556
_cell_angle_alpha   87.97467676
_cell_angle_beta   91.96468240
_cell_angle_gamma   92.19852469
_symmetry_Int_Tables_number   1
_chemical_formula_structural   GaN
_chemical_formula_sum   'Ga50 N50'
_cell_volume   1543.84429150
_cell_formula_units_Z   50
loop_
 _symmetry_equiv_pos_site_id
 _symmetry_equiv_pos_as_xyz
  1  'x, y, z'
loop_
 _atom_site_type_symbol
 _atom_site_label
 _atom_site_symmetry_multiplicity
 _atom_site_fract_x
 _atom_site_fract_y
 _atom_site_fract_z
 _atom_site_occupancy
  Ga  Ga0  1  0.78579233  0.82168929  0.43837194  1
  Ga  Ga1  1  0.29265824  0.29800892  0.40672599  1
  Ga  Ga2  1  0.04269014  0.34429160  0.82898996  1
  Ga  Ga3  1  0.64885734  0.52959733  0.30852544  1
  Ga  Ga4  1  0.44263177  0.29905516  0.20857859  1
  Ga  Ga5  1  0.73343453  0.71940579  0.65564273  1
  Ga  Ga6  1  0.72130293  0.78989572  0.86250661  1
  Ga  Ga7  1  0.97696608  0.68469620  0.44982592  1
  Ga  Ga8  1  0.62856678  0.20167440  0.13288368  1
  Ga  Ga9  1  0.06213816  0.47476644  0.99789783  1
  Ga  Ga10  1  0.89509564  0.72442497  0.01932764  1
  Ga  Ga11  1  0.07132834  0.96939947  0.09985646  1
  Ga  Ga12  1  0.52386980  0.54113046  0.60738554  1
  Ga  Ga13  1  0.79847648  0.22355099  0.91874374  1
  Ga  Ga14  1  0.09656727  0.49417556  0.40941742  1
  Ga  Ga15  1  0.39377921  0.68519603  0.72784433  1
  Ga  Ga16  1  0.74887352  0.08086184  0.31062506  1
  Ga  Ga17  1  0.75067536  0.45034389  0.06493454  1
  Ga  Ga18  1  0.93957761  0.56354558  0.18951600  1
  Ga  Ga19  1  0.95224148  0.97356859  0.88124700  1
  Ga  Ga20  1  0.95738254  0.97470182  0.51481297  1
  Ga  Ga21  1  0.32142702  0.53592421  0.07800990  1
  Ga  Ga22  1  0.88374454  0.35192141  0.29005812  1
  Ga  Ga23  1  0.39868718  0.67471423  0.24682452  1
  Ga  Ga24  1  0.20024270  0.61040868  0.59624008  1
  Ga  Ga25  1  0.45982496  0.14483126  0.37853063  1
  Ga  Ga26  1  0.18614833  0.10682732  0.29883440  1
  Ga  Ga27  1  0.34236631  0.58090340  0.42055638  1
  Ga  Ga28  1  0.95329384  0.76556604  0.71060890  1
  Ga  Ga29  1  0.84905270  0.16216641  0.67467994  1
  Ga  Ga30  1  0.16867451  0.38803126  0.17818725  1
  Ga  Ga31  1  0.47906389  0.75719355  0.49350824  1
  Ga  Ga32  1  0.17044790  0.89921519  0.93514205  1
  Ga  Ga33  1  0.20190564  0.68352814  0.85703529  1
  Ga  Ga34  1  0.50750597  0.91728208  0.34015369  1
  Ga  Ga35  1  0.18293717  0.14865440  0.94300804  1
  Ga  Ga36  1  0.68595408  0.00176965  0.55074028  1
  Ga  Ga37  1  0.55606378  0.56922862  0.07477150  1
  Ga  Ga38  1  0.19360555  0.84013640  0.52125382  1
  Ga  Ga39  1  0.95727659  0.83392086  0.27755772  1
  Ga  Ga40  1  0.75659183  0.97306458  0.03754936  1
  Ga  Ga41  1  0.66235919  0.80479689  0.18283789  1
  Ga  Ga42  1  0.04609045  0.17477569  0.43703400  1
  Ga  Ga43  1  0.13389153  0.38824179  0.62965107  1
  Ga  Ga44  1  0.36096817  0.96407996  0.14725999  1
  Ga  Ga45  1  0.15622815  0.74670194  0.09575300  1
  Ga  Ga46  1  0.84300314  0.30386508  0.51275933  1
  Ga  Ga47  1  0.22710835  0.86968105  0.32329800  1
  Ga  Ga48  1  0.78186094  0.54242905  0.47825179  1
  Ga  Ga49  1  0.83438369  0.43847530  0.69054443  1
  N  N0  1  0.49627028  0.41442420  0.31784354  1
  N  N1  1  0.02760835  0.61668371  0.78093735  1
  N  N2  1  0.55553783  0.32900582  0.55279665  1
  N  N3  1  0.13827066  0.33272008  0.48248987  1
  N  N4  1  0.06959549  0.72833517  0.58182065  1
  N  N5  1  0.18573836  0.61347055  0.00016057  1
  N  N6  1  0.03951503  0.44629332  0.26779689  1
  N  N7  1  0.70965924  0.54659860  0.62641247  1
  N  N8  1  0.44567156  0.00622315  0.60861781  1
  N  N9  1  0.58505959  0.45432364  0.83257786  1
  N  N10  1  0.78064953  0.46748772  0.22274097  1
  N  N11  1  0.57504317  0.65585642  0.21155827  1
  N  N12  1  0.55473810  0.02509500  0.81253312  1
  N  N13  1  0.73804400  0.80504586  0.04161424  1
  N  N14  1  0.41779183  0.84231457  0.96488819  1
  N  N15  1  0.48574269  0.06690747  0.86164249  1
  N  N16  1  0.62302664  0.03151748  0.11635803  1
  N  N17  1  0.93662556  0.01965888  0.72958378  1
  N  N18  1  0.26294074  0.26684509  0.24643658  1
  N  N19  1  0.90368695  0.54469119  0.03276043  1
  N  N20  1  0.35377247  0.30343718  0.93733118  1
  N  N21  1  0.32656518  0.39741682  0.91986687  1
  N  N22  1  0.40167174  0.25781009  0.70559222  1
  N  N23  1  0.98880415  0.72555940  0.16175064  1
  N  N24  1  0.22540035  0.07749075  0.74964369  1
  N  N25  1  0.29576830  0.80134979  0.19177240  1
  N  N26  1  0.64769717  0.81460840  0.54272491  1
  N  N27  1  0.60736036  0.04791468  0.40559992  1
  N  N28  1  0.16919884  0.10198320  0.67642482  1
  N  N29  1  0.99259116  0.16115284  0.08308755  1
  N  N30  1  0.96360334  0.93872771  0.66701939  1
  N  N31  1  0.90778275  0.80124618  0.87566970  1
  N  N32  1  0.36981350  0.04319650  0.55528147  1
  N  N33  1  0.87146923  0.21704359  0.38027424  1
  N  N34  1  0.34722951  0.01844156  0.29851539  1
  N  N35  1  0.08611176  0.96123695  0.25188629  1
  N  N36  1  0.59130709  0.35632956  0.83224998  1
  N  N37  1  0.98653624  0.21803236  0.15475681  1
  N  N38  1  0.98285166  0.51620475  0.77530941  1
  N  N39  1  0.81486982  0.06122921  0.92528143  1
  N  N40  1  0.77997906  0.88322649  0.28896057  1
  N  N41  1  0.41210351  0.43065617  0.38630882  1
  N  N42  1  0.63556455  0.29973486  0.50437591  1
  N  N43  1  0.24222923  0.02963451  0.04452943  1
  N  N44  1  0.72796678  0.28885856  0.03362077  1
  N  N45  1  0.33870343  0.76376135  0.59427657  1
  N  N46  1  0.47261489  0.76498338  0.94188015  1
  N  N47  1  0.54551145  0.94387220  0.15983331  1
  N  N48  1  0.34133641  0.33037116  0.67444786  1
  N  N49  1  0.86083784  0.29026746  0.78679750  1
loop_
_geom_bond_atom_site_label_1
_geom_bond_atom_site_label_2
_geom_bond_distance
_geom_bond_site_symmetry_2
Ga0 N40 1.996533 1_555
Ga0 N26 2.017038 1_555
Ga1 N41 1.957178 1_555
Ga1 N3 2.001439 1_555
Ga1 N18 2.087536 1_555
Ga2 N49 2.079903 1_455
Ga2 N38 2.161183 1_455
Ga3 N10 1.978928 1_555
Ga3 N11 2.024057 1_555
Ga3 N0 2.060300 1_555
Ga4 N0 1.997260 1_555
Ga4 N18 2.018431 1_555
Ga5 N26 1.986240 1_555
Ga5 N7 2.017961 1_555
Ga6 N31 2.000412 1_555
Ga6 N13 2.284597 1_556
Ga7 N4 1.985518 1_655
Ga8 N44 1.904448 1_555
Ga8 N16 1.952442 1_555
Ga9 N19 1.973517 1_456
Ga9 N5 2.021470 1_556
Ga10 N13 1.981438 1_555
Ga10 N31 1.999239 1_554
Ga10 N23 2.036868 1_555
Ga10 N19 2.050690 1_555
Ga11 N35 1.928498 1_555
Ga11 N43 2.068275 1_565
Ga11 N29 2.368736 1_465
Ga12 N7 1.997355 1_555
Ga12 N2 2.571525 1_555
Ga13 N44 1.855058 1_556
Ga13 N39 1.859954 1_555
Ga13 N49 1.942019 1_555
Ga14 N6 1.966020 1_555
Ga14 N3 2.084573 1_555
Ga15 N45 1.970246 1_555
Ga16 N27 1.985871 1_555
Ga16 N33 2.183664 1_555
Ga16 N40 2.312401 1_545
Ga17 N44 1.897675 1_555
Ga17 N19 1.972262 1_555
Ga17 N10 2.031188 1_555
Ga18 N23 1.921075 1_555
Ga18 N6 1.963586 1_655
Ga18 N19 2.029285 1_555
Ga18 N10 2.036954 1_555
Ga19 N39 1.919418 1_565
Ga19 N17 1.978928 1_565
Ga19 N31 2.002394 1_555
Ga20 N30 1.958515 1_555
Ga21 N5 1.951430 1_555
Ga21 N21 2.597160 1_554
Ga22 N33 1.884330 1_555
Ga22 N10 1.909494 1_555
Ga22 N6 1.973590 1_655
Ga22 N37 2.630922 1_555
Ga23 N25 1.943706 1_555
Ga23 N11 1.979367 1_555
Ga24 N4 1.975918 1_555
Ga24 N45 2.246767 1_555
Ga25 N27 1.976219 1_555
Ga25 N34 2.107126 1_555
Ga26 N34 2.031731 1_555
Ga26 N35 2.033931 1_545
Ga26 N18 2.066205 1_555
Ga27 N41 1.959832 1_555
Ga28 N30 2.026673 1_555
Ga28 N1 2.060612 1_655
Ga28 N4 2.152109 1_655
Ga28 N31 2.220499 1_555
Ga29 N17 1.996501 1_555
Ga29 N49 2.069018 1_555
Ga30 N18 1.906148 1_555
Ga30 N6 1.969873 1_555
Ga30 N37 2.711511 1_455
Ga31 N26 1.986585 1_555
Ga31 N45 2.012799 1_555
Ga32 N43 2.168454 1_566
Ga33 N5 1.966928 1_556
Ga33 N1 2.195820 1_555
Ga34 N27 1.986751 1_565
Ga34 N34 2.145421 1_565
Ga34 N47 2.343789 1_555
Ga35 N43 1.944564 1_556
Ga35 N20 2.492530 1_555
Ga35 N24 2.668691 1_555
Ga36 N27 2.057539 1_555
Ga36 N26 2.157695 1_545
Ga37 N11 2.025620 1_555
Ga38 N4 1.961251 1_555
Ga38 N45 1.995248 1_555
Ga39 N35 1.988823 1_655
Ga39 N23 1.996134 1_555
Ga39 N40 2.013955 1_555
Ga40 N39 1.826332 1_564
Ga40 N13 1.912805 1_555
Ga40 N16 1.926231 1_565
Ga41 N11 1.933160 1_555
Ga41 N13 1.991443 1_555
Ga41 N40 2.019923 1_555
Ga41 N47 2.061918 1_555
Ga42 N33 2.051209 1_455
Ga42 N3 2.105814 1_555
Ga43 N3 1.994020 1_555
Ga43 N48 2.388121 1_555
Ga44 N43 1.940360 1_565
Ga44 N47 2.001148 1_555
Ga44 N25 2.021671 1_555
Ga44 N34 2.047990 1_565
Ga45 N25 1.991317 1_555
Ga45 N23 2.009236 1_455
Ga45 N5 2.014764 1_555
Ga46 N33 2.016745 1_555
Ga46 N42 2.221974 1_555
Ga47 N25 2.036765 1_555
Ga47 N35 2.037323 1_555
Ga47 N34 2.107982 1_565
Ga48 N7 2.059492 1_555
Ga49 N7 1.985811 1_555
Ga49 N49 2.068769 1_555
Ga49 N38 2.076923 1_555
N0 N41 1.296317 1_555
N1 N38 1.225899 1_455
N2 N42 1.138779 1_555
N12 N15 1.113985 1_555
N14 N46 1.128679 1_555
N16 N47 1.384785 1_545
N17 N30 1.283914 1_545
N20 N21 1.131155 1_555
N22 N48 1.120761 1_555
N24 N28 1.122201 1_555
N29 N37 1.139214 1_555
N32 N8 1.124489 1_555
N36 N9 1.119312 1_555
