# generated using pymatgen
data_Eu(AlS2)2
_symmetry_space_group_name_H-M   'P 1'
_cell_length_a   5.99375662
_cell_length_b   5.99375611
_cell_length_c   10.46121469
_cell_angle_alpha   90.00000000
_cell_angle_beta   90.00000000
_cell_angle_gamma   120.67021396
_symmetry_Int_Tables_number   1
_chemical_formula_structural   Eu(AlS2)2
_chemical_formula_sum   'Eu2 Al4 S8'
_cell_volume   323.24968070
_cell_formula_units_Z   2
loop_
 _symmetry_equiv_pos_site_id
 _symmetry_equiv_pos_as_xyz
  1  'x, y, z'
loop_
 _atom_site_type_symbol
 _atom_site_label
 _atom_site_symmetry_multiplicity
 _atom_site_fract_x
 _atom_site_fract_y
 _atom_site_fract_z
 _atom_site_occupancy
  Eu  Eu0  1  0.50000000  0.50000000  0.75000000  1
  Eu  Eu1  1  0.50000000  0.50000000  0.25000000  1
  Al  Al0  1  0.76203682  0.24023063  0.50000000  1
  Al  Al1  1  0.23796318  0.75976937  0.50000000  1
  Al  Al2  1  0.75976937  0.23796318  0.00000000  1
  Al  Al3  1  0.24023063  0.76203682  0.00000000  1
  S  S0  1  0.35400340  0.17946772  0.50000000  1
  S  S1  1  0.64599660  0.82053228  0.50000000  1
  S  S2  1  0.82053228  0.64599660  0.00000000  1
  S  S3  1  0.17946772  0.35400340  0.00000000  1
  S  S4  1  0.50000000  0.00000000  0.83681739  1
  S  S5  1  -0.00000000  0.50000000  0.66318261  1
  S  S6  1  0.50000000  0.00000000  0.16318261  1
  S  S7  1  -0.00000000  0.50000000  0.33681739  1
loop_
_geom_bond_atom_site_label_1
_geom_bond_atom_site_label_2
_geom_bond_distance
_geom_bond_site_symmetry_2
Eu0 S0 3.095386 1_555
Eu0 S1 3.095386 1_555
Eu0 S3 3.095387 1_556
Eu0 S2 3.095387 1_556
Eu0 S4 3.131475 1_565
Eu0 S4 3.131475 1_555
Eu0 S5 3.131475 1_555
Eu0 S5 3.131475 1_655
Eu1 S0 3.095386 1_555
Eu1 S1 3.095386 1_555
Eu1 S3 3.095387 1_555
Eu1 S2 3.095387 1_555
Eu1 S6 3.131475 1_555
Eu1 S6 3.131475 1_565
Eu1 S7 3.131475 1_555
Eu1 S7 3.131475 1_655
Al0 S1 2.242072 1_545
Al0 S7 2.259895 1_655
Al0 S5 2.259895 1_655
Al0 S0 2.281485 1_555
Al1 S0 2.242072 1_565
Al1 S5 2.259895 1_555
Al1 S7 2.259895 1_555
Al1 S1 2.281485 1_555
Al2 S3 2.242072 1_655
Al2 S4 2.259895 1_554
Al2 S6 2.259895 1_555
Al2 S2 2.281484 1_555
Al3 S2 2.242072 1_455
Al3 S6 2.259895 1_565
Al3 S4 2.259895 1_564
Al3 S3 2.281484 1_555
