# generated using pymatgen
data_Li4TiV4(Fe2O9)2
_symmetry_space_group_name_H-M   'P 1'
_cell_length_a   2.95085300
_cell_length_b   8.99040800
_cell_length_c   25.60867300
_cell_angle_alpha   90.00000000
_cell_angle_beta   90.00000000
_cell_angle_gamma   90.00000000
_symmetry_Int_Tables_number   1
_chemical_formula_structural   Li4TiV4(Fe2O9)2
_chemical_formula_sum   'Li8 Ti2 V8 Fe8 O36'
_cell_volume   679.38202315
_cell_formula_units_Z   2
loop_
 _symmetry_equiv_pos_site_id
 _symmetry_equiv_pos_as_xyz
  1  'x, y, z'
loop_
 _atom_site_type_symbol
 _atom_site_label
 _atom_site_symmetry_multiplicity
 _atom_site_fract_x
 _atom_site_fract_y
 _atom_site_fract_z
 _atom_site_occupancy
  Li  Li0  1  0.00000000  0.93839400  0.99190400  1
  Li  Li1  1  0.00000000  0.95369600  0.18774800  1
  Li  Li2  1  0.00000000  0.04630400  0.68774800  1
  Li  Li3  1  0.00000000  0.06160600  0.49190400  1
  Li  Li4  1  0.00000000  0.44354400  0.51520900  1
  Li  Li5  1  0.00000000  0.45234600  0.31426400  1
  Li  Li6  1  0.00000000  0.54765400  0.81426400  1
  Li  Li7  1  0.00000000  0.55645600  0.01520900  1
  Ti  Ti0  1  0.00000000  0.24428900  0.39759400  1
  Ti  Ti1  1  0.00000000  0.75571100  0.89759400  1
  V  V0  1  0.00000000  0.74804700  0.50077500  1
  V  V1  1  0.00000000  0.74535700  0.10217800  1
  V  V2  1  0.50000000  0.89326600  0.80404900  1
  V  V3  1  0.50000000  0.10673400  0.30404900  1
  V  V4  1  0.00000000  0.25464300  0.60217800  1
  V  V5  1  0.00000000  0.25195300  0.00077500  1
  V  V6  1  0.50000000  0.39622100  0.69262800  1
  V  V7  1  0.50000000  0.60377900  0.19262800  1
  Fe  Fe0  1  0.00000000  0.76212300  0.30614600  1
  Fe  Fe1  1  0.50000000  0.89718300  0.58810900  1
  Fe  Fe2  1  0.50000000  0.10281700  0.08810900  1
  Fe  Fe3  1  0.00000000  0.23787700  0.80614600  1
  Fe  Fe4  1  0.00000000  0.26306000  0.19086100  1
  Fe  Fe5  1  0.50000000  0.40032100  0.91330600  1
  Fe  Fe6  1  0.50000000  0.59967900  0.41330600  1
  Fe  Fe7  1  0.00000000  0.73694000  0.69086100  1
  O  O0  1  0.00000000  0.74128200  0.42605800  1
  O  O1  1  0.00000000  0.75271700  0.57549400  1
  O  O2  1  0.50000000  0.80793900  0.94124500  1
  O  O3  1  0.50000000  0.79567800  0.15952400  1
  O  O4  1  0.50000000  0.86600600  0.66660100  1
  O  O5  1  0.00000000  0.83439400  0.75855900  1
  O  O6  1  0.50000000  0.90115500  0.50478800  1
  O  O7  1  0.50000000  0.90515400  0.28563300  1
  O  O8  1  0.00000000  0.93278900  0.85460600  1
  O  O9  1  0.00000000  0.94918000  0.08685900  1
  O  O10  1  0.00000000  0.05082000  0.58685900  1
  O  O11  1  0.00000000  0.06721100  0.35460600  1
  O  O12  1  0.50000000  0.09484600  0.78563300  1
  O  O13  1  0.50000000  0.09884500  0.00478800  1
  O  O14  1  0.00000000  0.16560600  0.25855900  1
  O  O15  1  0.50000000  0.13399400  0.16660100  1
  O  O16  1  0.50000000  0.20432200  0.65952400  1
  O  O17  1  0.50000000  0.19206100  0.44124500  1
  O  O18  1  0.00000000  0.24728300  0.07549400  1
  O  O19  1  0.00000000  0.25871800  0.92605800  1
  O  O20  1  0.50000000  0.30964200  0.55775800  1
  O  O21  1  0.50000000  0.29981800  0.34153300  1
  O  O22  1  0.50000000  0.35973500  0.83485900  1
  O  O23  1  0.00000000  0.34995700  0.74007700  1
  O  O24  1  0.50000000  0.39947800  0.99887600  1
  O  O25  1  0.50000000  0.39568100  0.20772100  1
  O  O26  1  0.00000000  0.43303600  0.64184400  1
  O  O27  1  0.00000000  0.45708900  0.41319200  1
  O  O28  1  0.00000000  0.54291100  0.91319200  1
  O  O29  1  0.00000000  0.56696400  0.14184400  1
  O  O30  1  0.50000000  0.60431900  0.70772100  1
  O  O31  1  0.50000000  0.60052200  0.49887600  1
  O  O32  1  0.00000000  0.65004300  0.24007700  1
  O  O33  1  0.50000000  0.64026500  0.33485900  1
  O  O34  1  0.50000000  0.70018200  0.84153300  1
  O  O35  1  0.50000000  0.69035800  0.05775800  1
loop_
_geom_bond_atom_site_label_1
_geom_bond_atom_site_label_2
_geom_bond_distance
_geom_bond_site_symmetry_2
Li0 O13 2.089643 1_566
Li0 O13 2.089643 1_466
Li0 O2 2.288112 1_555
Li0 O2 2.288112 1_455
Li0 O9 2.433604 1_556
Li1 O3 2.171987 1_455
Li1 O3 2.171987 1_555
Li1 O15 2.257796 1_565
Li1 O15 2.257796 1_465
Li1 O9 2.583952 1_555
Li2 O16 2.171987 1_555
Li2 O16 2.171987 1_455
Li2 O4 2.257796 1_445
Li2 O4 2.257796 1_545
Li2 O10 2.583952 1_555
Li3 O6 2.089643 1_545
Li3 O6 2.089643 1_445
Li3 O17 2.288112 1_455
Li3 O17 2.288112 1_555
Li3 O10 2.433604 1_555
Li4 O31 2.084127 1_455
Li4 O31 2.084127 1_555
Li4 O20 2.193941 1_455
Li4 O20 2.193941 1_555
Li5 O21 2.131894 1_555
Li5 O21 2.131894 1_455
Li5 O33 2.304202 1_455
Li5 O33 2.304202 1_555
Li5 O27 2.533774 1_555
Li5 O32 2.601620 1_555
Li6 O34 2.131894 1_455
Li6 O34 2.131894 1_555
Li6 O22 2.304202 1_455
Li6 O22 2.304202 1_555
Li6 O28 2.533774 1_555
Li6 O23 2.601620 1_555
Li7 O24 2.084127 1_554
Li7 O24 2.084127 1_454
Li7 O35 2.193941 1_555
Li7 O35 2.193941 1_455
Fe0 O32 1.969266 1_555
Fe0 O33 1.979340 1_455
Fe0 O33 1.979340 1_555
Fe0 O7 2.026423 1_455
Fe0 O7 2.026423 1_555
Fe1 O1 1.992022 1_555
Fe1 O1 1.992022 1_655
Fe1 O10 2.021333 1_665
Fe1 O10 2.021333 1_565
Fe1 O4 2.029525 1_555
Fe1 O6 2.134039 1_555
Fe2 O18 1.992022 1_655
Fe2 O18 1.992022 1_555
Fe2 O9 2.021333 1_645
Fe2 O9 2.021333 1_545
Fe2 O15 2.029525 1_555
Fe2 O13 2.134039 1_555
Fe3 O23 1.969266 1_555
Fe3 O22 1.979340 1_455
Fe3 O22 1.979340 1_555
Fe3 O12 2.026423 1_555
Fe3 O12 2.026423 1_455
Fe4 O14 1.942474 1_555
Fe4 O25 1.945487 1_455
Fe4 O25 1.945487 1_555
Fe4 O15 1.977190 1_455
Fe4 O15 1.977190 1_555
Fe5 O28 1.954551 1_555
Fe5 O28 1.954551 1_655
Fe5 O19 1.975912 1_655
Fe5 O19 1.975912 1_555
Fe5 O22 2.041792 1_555
Fe5 O24 2.191347 1_555
Fe6 O27 1.954551 1_555
Fe6 O27 1.954551 1_655
Fe6 O0 1.975912 1_555
Fe6 O0 1.975912 1_655
Fe6 O33 2.041792 1_555
Fe6 O31 2.191347 1_555
Fe7 O5 1.942474 1_555
Fe7 O30 1.945487 1_455
Fe7 O30 1.945487 1_555
Fe7 O4 1.977190 1_555
Fe7 O4 1.977190 1_455
O0 V0 1.914370 1_555
O1 V0 1.913915 1_555
O2 Ti1 1.909696 1_555
O2 Ti1 1.909696 1_655
O3 V7 1.922282 1_555
O3 V1 2.130307 1_655
O3 V1 2.130307 1_555
O5 V2 1.952974 1_555
O5 V2 1.952974 1_455
O6 V0 2.020447 1_655
O6 V0 2.020447 1_555
O7 V3 1.872645 1_565
O8 Ti1 1.935557 1_555
O8 V2 1.994839 1_555
O8 V2 1.994839 1_455
O9 V1 1.873974 1_555
O10 V4 1.873974 1_555
O11 Ti0 1.935557 1_555
O11 V3 1.994839 1_455
O11 V3 1.994839 1_555
O12 V2 1.872645 1_545
O13 V5 2.020447 1_655
O13 V5 2.020447 1_555
O14 V3 1.952974 1_455
O14 V3 1.952974 1_555
O16 V6 1.922282 1_555
O16 V4 2.130307 1_555
O16 V4 2.130307 1_655
O17 Ti0 1.909696 1_555
O17 Ti0 1.909696 1_655
O18 V5 1.913915 1_555
O19 V5 1.914370 1_556
O20 V4 1.927529 1_555
O20 V4 1.927529 1_655
O21 V3 1.983633 1_555
O21 Ti0 2.118300 1_555
O21 Ti0 2.118300 1_655
O23 V6 1.956110 1_555
O23 V6 1.956110 1_455
O24 V5 1.984527 1_556
O24 V5 1.984527 1_656
O25 V7 1.910394 1_555
O26 V4 1.898445 1_555
O26 V6 1.994432 1_555
O26 V6 1.994432 1_455
O27 Ti0 1.954414 1_555
O28 Ti1 1.954414 1_555
O29 V1 1.898445 1_555
O29 V7 1.994432 1_555
O29 V7 1.994432 1_455
O30 V6 1.910394 1_555
O31 V0 1.984527 1_655
O31 V0 1.984527 1_555
O32 V7 1.956110 1_555
O32 V7 1.956110 1_455
O34 V2 1.983633 1_555
O34 Ti1 2.118300 1_655
O34 Ti1 2.118300 1_555
O35 V1 1.927529 1_655
O35 V1 1.927529 1_555
