# generated using pymatgen
data_ScVTc2
_symmetry_space_group_name_H-M   'P 1'
_cell_length_a   10.66488082
_cell_length_b   10.66488082
_cell_length_c   10.66488082
_cell_angle_alpha   128.51505309
_cell_angle_beta   115.30648248
_cell_angle_gamma   87.12366826
_symmetry_Int_Tables_number   1
_chemical_formula_structural   ScVTc2
_chemical_formula_sum   'Sc1 V1 Tc2'
_cell_volume   817.05179429
_cell_formula_units_Z   1
loop_
 _symmetry_equiv_pos_site_id
 _symmetry_equiv_pos_as_xyz
  1  'x, y, z'
loop_
 _atom_site_type_symbol
 _atom_site_label
 _atom_site_symmetry_multiplicity
 _atom_site_fract_x
 _atom_site_fract_y
 _atom_site_fract_z
 _atom_site_occupancy
  Sc  Sc0  1  0.00000000  0.00000000  0.00000000  1
  V  V0  1  0.00000000  0.50000000  0.50000000  1
  Tc  Tc0  1  0.00000000  0.26752500  0.26752500  1
  Tc  Tc1  1  0.00000000  0.73247500  0.73247500  1
loop_
_geom_bond_atom_site_label_1
_geom_bond_atom_site_label_2
_geom_bond_distance
_geom_bond_site_symmetry_2
Sc0 Tc0 2.478376 1_555
Sc0 Tc1 2.478376 1_544
Tc0 V0 2.153669 1_555
Tc1 V0 2.153669 1_555
