# generated using pymatgen
data_PrZn(SbO3)2
_symmetry_space_group_name_H-M   'P 1'
_cell_length_a   5.68183000
_cell_length_b   6.37227000
_cell_length_c   8.19735600
_cell_angle_alpha   90.00000000
_cell_angle_beta   90.00000000
_cell_angle_gamma   90.00000000
_symmetry_Int_Tables_number   1
_chemical_formula_structural   PrZn(SbO3)2
_chemical_formula_sum   'Pr2 Zn2 Sb4 O12'
_cell_volume   296.79474073
_cell_formula_units_Z   2
loop_
 _symmetry_equiv_pos_site_id
 _symmetry_equiv_pos_as_xyz
  1  'x, y, z'
loop_
 _atom_site_type_symbol
 _atom_site_label
 _atom_site_symmetry_multiplicity
 _atom_site_fract_x
 _atom_site_fract_y
 _atom_site_fract_z
 _atom_site_occupancy
  Pr  Pr0  1  0.03139900  0.65823500  0.00000000  1
  Pr  Pr1  1  0.53139900  0.34176500  0.50000000  1
  Zn  Zn0  1  0.51831100  0.34449300  0.00000000  1
  Zn  Zn1  1  0.01831100  0.65550700  0.50000000  1
  Sb  Sb0  1  0.01544400  0.20700600  0.75466100  1
  Sb  Sb1  1  0.01544400  0.20700600  0.24533900  1
  Sb  Sb2  1  0.51544400  0.79299400  0.25466100  1
  Sb  Sb3  1  0.51544400  0.79299400  0.74533900  1
  O  O0  1  0.13524000  0.22882700  0.50000000  1
  O  O1  1  0.16301100  0.92982400  0.81390000  1
  O  O2  1  0.16301100  0.92982400  0.18610000  1
  O  O3  1  0.30223000  0.41702800  0.18106100  1
  O  O4  1  0.30223000  0.41702800  0.81893900  1
  O  O5  1  0.35500700  0.70351900  0.50000000  1
  O  O6  1  0.63524000  0.77117300  0.00000000  1
  O  O7  1  0.66301100  0.07017600  0.68610000  1
  O  O8  1  0.66301100  0.07017600  0.31390000  1
  O  O9  1  0.80223000  0.58297200  0.68106100  1
  O  O10  1  0.80223000  0.58297200  0.31893900  1
  O  O11  1  0.85500700  0.29648100  0.00000000  1
loop_
_geom_bond_atom_site_label_1
_geom_bond_atom_site_label_2
_geom_bond_distance
_geom_bond_site_symmetry_2
O0 Sb0 2.200110 1_555
O0 Sb1 2.200110 1_555
O0 Pr1 2.363158 1_555
O1 Sb0 2.014584 1_565
O1 Sb3 2.255209 1_555
O1 Pr0 2.425190 1_556
O2 Sb1 2.014584 1_565
O2 Sb2 2.255209 1_555
O2 Pr0 2.425190 1_555
O3 Zn0 1.980881 1_555
O3 Sb1 2.173453 1_555
O3 Pr0 2.633125 1_555
O3 Sb2 2.751591 1_555
O3 Pr1 2.959875 1_555
O4 Zn0 1.980881 1_556
O4 Sb0 2.173453 1_555
O4 Pr0 2.633125 1_556
O4 Sb3 2.751591 1_555
O4 Pr1 2.959875 1_555
O5 Zn1 1.937359 1_555
O5 Sb3 2.280504 1_555
O5 Sb2 2.280504 1_555
O5 Pr1 2.513640 1_555
O6 Sb2 2.200110 1_555
O6 Sb3 2.200110 1_554
O6 Pr0 2.363158 1_655
O7 Sb3 2.014584 1_545
O7 Sb0 2.255209 1_655
O7 Pr1 2.425190 1_555
O8 Sb2 2.014584 1_545
O8 Sb1 2.255209 1_655
O8 Pr1 2.425190 1_555
O9 Zn1 1.980881 1_655
O9 Sb3 2.173453 1_555
O9 Pr1 2.633125 1_555
O9 Sb0 2.751591 1_655
O9 Pr0 2.959875 1_656
O10 Zn1 1.980881 1_655
O10 Sb2 2.173453 1_555
O10 Pr1 2.633125 1_555
O10 Sb1 2.751591 1_655
O10 Pr0 2.959875 1_655
O11 Zn0 1.937359 1_555
O11 Sb1 2.280504 1_655
O11 Sb0 2.280504 1_654
O11 Pr0 2.513640 1_655
