# generated using pymatgen
data_Na3DyTi2Nb2O12
_symmetry_space_group_name_H-M   'P 1'
_cell_length_a   5.44187900
_cell_length_b   5.58962323
_cell_length_c   7.76308357
_cell_angle_alpha   89.87243552
_cell_angle_beta   89.96477266
_cell_angle_gamma   89.21379144
_symmetry_Int_Tables_number   1
_chemical_formula_structural   Na3DyTi2Nb2O12
_chemical_formula_sum   'Na3 Dy1 Ti2 Nb2 O12'
_cell_volume   236.11503297
_cell_formula_units_Z   1
loop_
 _symmetry_equiv_pos_site_id
 _symmetry_equiv_pos_as_xyz
  1  'x, y, z'
loop_
 _atom_site_type_symbol
 _atom_site_label
 _atom_site_symmetry_multiplicity
 _atom_site_fract_x
 _atom_site_fract_y
 _atom_site_fract_z
 _atom_site_occupancy
  Na  Na0  1  0.49031100  0.52908700  0.74869200  1
  Na  Na1  1  0.00373700  0.02054900  0.74974800  1
  Na  Na2  1  0.50870700  0.46395200  0.25004600  1
  Dy  Dy0  1  0.99046100  0.93649400  0.25018800  1
  Ti  Ti0  1  0.48880000  0.98229900  0.00725400  1
  Ti  Ti1  1  0.00385700  0.47630700  0.49302900  1
  Nb  Nb0  1  0.49386000  0.99217700  0.51185200  1
  Nb  Nb1  1  0.00312500  0.47761000  0.98849200  1
  O  O0  1  0.20559100  0.80297500  0.97526700  1
  O  O1  1  0.29112700  0.30119400  0.53756600  1
  O  O2  1  0.80473300  0.21115000  0.44666500  1
  O  O3  1  0.72002100  0.73522900  0.05265200  1
  O  O4  1  0.80255200  0.20869100  0.05429800  1
  O  O5  1  0.72408200  0.73221600  0.44786600  1
  O  O6  1  0.20330100  0.80134800  0.52623600  1
  O  O7  1  0.29811900  0.29673300  0.96007900  1
  O  O8  1  0.56989300  0.98440900  0.75327400  1
  O  O9  1  0.91846400  0.48841800  0.74718100  1
  O  O10  1  0.40164500  0.02819300  0.24634700  1
  O  O11  1  0.07761700  0.53097000  0.25326800  1
loop_
_geom_bond_atom_site_label_1
_geom_bond_atom_site_label_2
_geom_bond_distance
_geom_bond_site_symmetry_2
Na0 O9 2.337938 1_555
Na0 O7 2.345057 1_555
Na0 O1 2.352282 1_555
Na0 O8 2.587840 1_555
Na0 O6 2.768421 1_555
Na0 O0 2.789583 1_555
Na0 O5 2.895776 1_555
Na0 O3 2.917811 1_556
Na1 O8 2.372449 1_445
Na1 O6 2.379495 1_545
Na1 O0 2.388915 1_545
Na1 O9 2.649819 1_455
Na1 O1 2.769948 1_555
Na1 O7 2.774525 1_555
Na1 O2 2.793581 1_455
Na1 O4 2.805450 1_456
Na2 O11 2.370705 1_555
Na2 O3 2.450550 1_555
Na2 O5 2.457890 1_555
Na2 O10 2.512433 1_555
Na2 O4 2.616501 1_555
Na2 O2 2.617754 1_555
Na2 O1 2.688661 1_555
Na2 O7 2.701122 1_554
Dy0 O10 2.302574 1_665
Dy0 O11 2.309511 1_655
Dy0 O4 2.371083 1_565
Dy0 O2 2.381351 1_565
Dy0 O5 2.407279 1_555
Dy0 O3 2.416403 1_555
Dy0 O0 2.542157 1_654
Dy0 O6 2.544878 1_655
Nb0 O8 1.919826 1_555
Nb0 O6 1.922479 1_555
Nb0 O5 1.969845 1_555
Nb0 O1 2.046827 1_565
Nb0 O10 2.130092 1_565
Nb0 O2 2.160829 1_565
Nb1 O7 1.898398 1_555
Nb1 O9 1.930031 1_455
Nb1 O4 1.937197 1_456
Nb1 O11 2.117865 1_556
Nb1 O0 2.141510 1_555
Nb1 O3 2.153261 1_456
O0 Ti0 1.866979 1_556
O1 Ti1 1.865115 1_555
O2 Ti1 1.883451 1_655
O3 Ti0 1.888225 1_555
O4 Ti0 2.170729 1_545
O5 Ti1 2.103743 1_655
O6 Ti1 2.145216 1_555
O7 Ti0 2.060937 1_546
O8 Ti0 2.020229 1_556
O9 Ti1 2.027775 1_655
O10 Ti0 1.932242 1_545
O11 Ti1 1.928411 1_555
