# generated using pymatgen
data_Tb4CeS7
_symmetry_space_group_name_H-M   'P 1'
_cell_length_a   6.76658908
_cell_length_b   6.76658908
_cell_length_c   11.69083319
_cell_angle_alpha   75.91892118
_cell_angle_beta   75.91892118
_cell_angle_gamma   32.82586944
_symmetry_Int_Tables_number   1
_chemical_formula_structural   Tb4CeS7
_chemical_formula_sum   'Tb4 Ce1 S7'
_cell_volume   280.68316921
_cell_formula_units_Z   1
loop_
 _symmetry_equiv_pos_site_id
 _symmetry_equiv_pos_as_xyz
  1  'x, y, z'
loop_
 _atom_site_type_symbol
 _atom_site_label
 _atom_site_symmetry_multiplicity
 _atom_site_fract_x
 _atom_site_fract_y
 _atom_site_fract_z
 _atom_site_occupancy
  Tb  Tb0  1  0.69923600  0.69923600  0.18630300  1
  Tb  Tb1  1  0.30119600  0.30119600  0.81269900  1
  Tb  Tb2  1  0.00003900  0.00003900  0.99835300  1
  Tb  Tb3  1  0.11337900  0.11337900  0.58126300  1
  Ce  Ce0  1  0.88751800  0.88751800  0.42037800  1
  S  S0  1  0.73815300  0.73815300  0.65349700  1
  S  S1  1  0.25377000  0.25377000  0.34943000  1
  S  S2  1  0.34172200  0.34172200  0.05043500  1
  S  S3  1  0.65939500  0.65939500  0.94903600  1
  S  S4  1  0.04420400  0.04420400  0.21015100  1
  S  S5  1  0.95757100  0.95757100  0.78534700  1
  S  S6  1  0.50381700  0.50381700  0.50310900  1
loop_
_geom_bond_atom_site_label_1
_geom_bond_atom_site_label_2
_geom_bond_distance
_geom_bond_site_symmetry_2
Ce0 S6 2.758826 1_655
Ce0 S6 2.758826 1_565
Ce0 S4 2.764404 1_665
Ce0 S1 2.844068 1_565
Ce0 S1 2.844068 1_655
Ce0 S0 2.916627 1_555
S0 Tb3 2.772410 1_655
S0 Tb3 2.772410 1_565
S0 Tb1 2.926107 1_655
S0 Tb1 2.926107 1_565
S1 Tb3 2.856875 1_555
S1 Tb0 2.911805 1_455
S1 Tb0 2.911805 1_545
S2 Tb2 2.759615 1_654
S2 Tb2 2.759615 1_564
S2 Tb0 2.847747 1_455
S2 Tb0 2.847747 1_545
S2 Tb1 2.956886 1_554
S3 Tb2 2.768128 1_655
S3 Tb2 2.768128 1_565
S3 Tb1 2.845407 1_565
S3 Tb1 2.845407 1_655
S3 Tb0 2.947792 1_556
S4 Tb2 2.679531 1_554
S4 Tb0 2.738457 1_545
S4 Tb0 2.738457 1_455
S5 Tb2 2.683566 1_665
S5 Tb3 2.708455 1_665
S5 Tb1 2.747635 1_565
S5 Tb1 2.747635 1_655
S6 Tb3 2.678159 1_655
S6 Tb3 2.678159 1_565
