# generated using pymatgen
data_Ba3P6(N4O3)2
_symmetry_space_group_name_H-M   'P 1'
_cell_length_a   7.41218842
_cell_length_b   7.41218843
_cell_length_c   6.36484959
_cell_angle_alpha   90.00000000
_cell_angle_beta   90.00000000
_cell_angle_gamma   120.00000468
_symmetry_Int_Tables_number   1
_chemical_formula_structural   Ba3P6(N4O3)2
_chemical_formula_sum   'Ba3 P6 N8 O6'
_cell_volume   302.83889877
_cell_formula_units_Z   1
loop_
 _symmetry_equiv_pos_site_id
 _symmetry_equiv_pos_as_xyz
  1  'x, y, z'
loop_
 _atom_site_type_symbol
 _atom_site_label
 _atom_site_symmetry_multiplicity
 _atom_site_fract_x
 _atom_site_fract_y
 _atom_site_fract_z
 _atom_site_occupancy
  Ba  Ba0  1  0.33333300  0.66666700  0.61446773  1
  Ba  Ba1  1  0.66666700  0.33333300  0.38553227  1
  Ba  Ba2  1  -0.00000000  0.00000000  0.50000000  1
  P  P0  1  0.59950196  0.77588373  0.10184421  1
  P  P1  1  0.17638176  0.40049804  0.10184421  1
  P  P2  1  0.22411627  0.82361824  0.10184421  1
  P  P3  1  0.40049804  0.22411627  0.89815579  1
  P  P4  1  0.82361824  0.59950196  0.89815579  1
  P  P5  1  0.77588373  0.17638176  0.89815579  1
  N  N0  1  0.33333300  0.66666700  0.07186404  1
  N  N1  1  0.66666700  0.33333300  0.92813596  1
  N  N2  1  0.67188851  0.69405136  0.90342799  1
  N  N3  1  0.02216285  0.32811149  0.90342799  1
  N  N4  1  0.30594864  0.97783715  0.90342799  1
  N  N5  1  0.32811149  0.30594864  0.09657201  1
  N  N6  1  0.97783715  0.67188851  0.09657201  1
  N  N7  1  0.69405136  0.02216285  0.09657201  1
  O  O0  1  0.63169880  0.70929172  0.31903107  1
  O  O1  1  0.07759193  0.36830120  0.31903107  1
  O  O2  1  0.29070828  0.92240807  0.31903107  1
  O  O3  1  0.36830120  0.29070828  0.68096893  1
  O  O4  1  0.92240807  0.63169880  0.68096893  1
  O  O5  1  0.70929172  0.07759193  0.68096893  1
loop_
_geom_bond_atom_site_label_1
_geom_bond_atom_site_label_2
_geom_bond_distance
_geom_bond_site_symmetry_2
Ba0 O1 2.797850 1_555
Ba0 O2 2.797850 1_555
Ba0 O0 2.797850 1_555
Ba0 N0 2.911259 1_556
Ba0 O4 2.955351 1_455
Ba0 O5 2.955357 1_565
Ba0 O3 2.955366 1_555
Ba0 N4 3.035077 1_555
Ba0 N3 3.035080 1_555
Ba0 N2 3.035083 1_555
Ba1 O4 2.797850 1_555
Ba1 O5 2.797850 1_555
Ba1 O3 2.797850 1_555
Ba1 N1 2.911259 1_554
Ba1 O1 2.955351 1_655
Ba1 O2 2.955357 1_545
Ba1 O0 2.955366 1_555
Ba1 N7 3.035077 1_555
Ba1 N6 3.035080 1_555
Ba1 N5 3.035083 1_555
Ba2 O2 2.745883 1_545
Ba2 O5 2.745883 1_455
Ba2 O3 2.745887 1_555
Ba2 O0 2.745887 1_445
Ba2 O4 2.745890 1_445
Ba2 O1 2.745890 1_555
N0 P2 1.728271 1_555
N0 P1 1.728277 1_555
N0 P0 1.728278 1_555
N1 P5 1.728271 1_555
N1 P4 1.728277 1_555
N1 P3 1.728278 1_555
N2 P4 1.595394 1_555
N2 P0 1.605030 1_556
N3 P5 1.595394 1_455
N3 P1 1.605030 1_556
N4 P3 1.595394 1_565
N4 P2 1.605030 1_556
N5 P1 1.595394 1_555
N5 P3 1.605030 1_554
N6 P2 1.595394 1_655
N6 P4 1.605030 1_554
N7 P0 1.595394 1_545
N7 P5 1.605030 1_554
O0 P0 1.526206 1_555
O1 P1 1.526209 1_555
O2 P2 1.526209 1_555
O3 P3 1.526206 1_555
O4 P4 1.526209 1_555
O5 P5 1.526209 1_555
