# generated using pymatgen
data_BaSrEuSbO6
_symmetry_space_group_name_H-M   'P 1'
_cell_length_a   8.52761042
_cell_length_b   8.53205114
_cell_length_c   8.52873603
_cell_angle_alpha   90.00000000
_cell_angle_beta   90.00000000
_cell_angle_gamma   90.00000000
_symmetry_Int_Tables_number   1
_chemical_formula_structural   BaSrEuSbO6
_chemical_formula_sum   'Ba4 Sr4 Eu4 Sb4 O24'
_cell_volume   620.53384605
_cell_formula_units_Z   4
loop_
 _symmetry_equiv_pos_site_id
 _symmetry_equiv_pos_as_xyz
  1  'x, y, z'
loop_
 _atom_site_type_symbol
 _atom_site_label
 _atom_site_symmetry_multiplicity
 _atom_site_fract_x
 _atom_site_fract_y
 _atom_site_fract_z
 _atom_site_occupancy
  Ba  Ba0  1  -0.00000000  -0.00000000  -0.00000000  1
  Ba  Ba1  1  0.50000000  0.50000000  0.50000000  1
  Ba  Ba2  1  0.50000000  -0.00000000  0.50000000  1
  Ba  Ba3  1  -0.00000000  -0.00000000  0.50000000  1
  Sr  Sr0  1  -0.00000000  0.50000000  0.50000000  1
  Sr  Sr1  1  0.50000000  0.50000000  -0.00000000  1
  Sr  Sr2  1  0.50000000  -0.00000000  -0.00000000  1
  Sr  Sr3  1  0.00000000  0.50000000  -0.00000000  1
  Eu  Eu0  1  0.74976707  0.74834914  0.75163213  1
  Eu  Eu1  1  0.25023293  0.25165086  0.75163213  1
  Eu  Eu2  1  0.25023293  0.74834914  0.24836787  1
  Eu  Eu3  1  0.74976707  0.25165086  0.24836787  1
  Sb  Sb0  1  0.24892967  0.25418643  0.24689626  1
  Sb  Sb1  1  0.75107033  0.74581357  0.24689626  1
  Sb  Sb2  1  0.75107033  0.25418643  0.75310374  1
  Sb  Sb3  1  0.24892967  0.74581357  0.75310374  1
  O  O0  1  0.01590226  0.22446767  0.26981659  1
  O  O1  1  0.98409774  0.77553233  0.26981659  1
  O  O2  1  0.98409774  0.22446767  0.73018341  1
  O  O3  1  0.01590226  0.77553233  0.73018341  1
  O  O4  1  0.27975502  0.01999237  0.21576275  1
  O  O5  1  0.27975502  0.98000763  0.78423725  1
  O  O6  1  0.72024498  0.98000763  0.21576275  1
  O  O7  1  0.72024498  0.01999237  0.78423725  1
  O  O8  1  0.21831743  0.28667994  0.01535148  1
  O  O9  1  0.78168257  0.28667994  0.98464852  1
  O  O10  1  0.21831743  0.71332006  0.98464852  1
  O  O11  1  0.78168257  0.71332006  0.01535148  1
  O  O12  1  0.48194012  0.28513632  0.21737771  1
  O  O13  1  0.51805988  0.71486368  0.21737771  1
  O  O14  1  0.51805988  0.28513632  0.78262229  1
  O  O15  1  0.48194012  0.71486368  0.78262229  1
  O  O16  1  0.21832404  0.48552335  0.28231435  1
  O  O17  1  0.21832404  0.51447665  0.71768565  1
  O  O18  1  0.78167596  0.51447665  0.28231435  1
  O  O19  1  0.78167596  0.48552335  0.71768565  1
  O  O20  1  0.27411599  0.22841065  0.48136452  1
  O  O21  1  0.72588401  0.22841065  0.51863548  1
  O  O22  1  0.27411599  0.77158935  0.51863548  1
  O  O23  1  0.72588401  0.77158935  0.48136452  1
loop_
_geom_bond_atom_site_label_1
_geom_bond_atom_site_label_2
_geom_bond_distance
_geom_bond_site_symmetry_2
Ba0 O0 2.996959 1_555
Ba0 O2 2.996959 1_454
Ba0 O3 2.996959 1_544
Ba0 O1 2.996959 1_445
Ba0 O6 3.017724 1_445
Ba0 O5 3.017724 1_544
Ba0 O7 3.017724 1_454
Ba0 O4 3.017724 1_555
Ba0 O10 3.076674 1_544
Ba0 O11 3.076674 1_445
Ba0 O9 3.076674 1_454
Ba0 O8 3.076674 1_555
Ba1 O20 3.017480 1_555
Ba1 O21 3.017480 1_555
Ba1 O22 3.017480 1_555
Ba1 O23 3.017480 1_555
Ba1 O12 3.032247 1_555
Ba1 O13 3.032247 1_555
Ba1 O14 3.032247 1_555
Ba1 O15 3.032247 1_555
Ba1 O17 3.038400 1_555
Ba1 O16 3.038400 1_555
Ba1 O18 3.038400 1_555
Ba1 O19 3.038400 1_555
Ba2 O22 2.744735 1_545
Ba2 O20 2.744735 1_555
Ba2 O23 2.744735 1_545
Ba2 O21 2.744735 1_555
Ba2 O4 3.071362 1_555
Ba2 O5 3.071362 1_545
Ba2 O6 3.071362 1_545
Ba2 O7 3.071362 1_555
Ba3 O0 2.745963 1_555
Ba3 O2 2.745963 1_455
Ba3 O3 2.745963 1_545
Ba3 O1 2.745963 1_445
Ba3 O23 3.047505 1_445
Ba3 O20 3.047505 1_555
Ba3 O22 3.047505 1_545
Ba3 O21 3.047505 1_455
Eu0 O19 2.277370 1_555
Eu0 O11 2.285227 1_556
Eu0 O3 2.288640 1_655
Eu0 O15 2.316849 1_555
Eu0 O23 2.322501 1_555
Eu0 O7 2.347833 1_565
Eu1 O17 2.277370 1_555
Eu1 O8 2.285227 1_556
Eu1 O2 2.288640 1_455
Eu1 O14 2.316849 1_555
Eu1 O20 2.322501 1_555
Eu1 O5 2.347833 1_545
Eu2 O16 2.277370 1_555
Eu2 O10 2.285227 1_554
Eu2 O1 2.288640 1_455
Eu2 O13 2.316849 1_555
Eu2 O22 2.322501 1_555
Eu2 O4 2.347833 1_565
Eu3 O18 2.277370 1_555
Eu3 O9 2.285227 1_554
Eu3 O0 2.288640 1_655
Eu3 O12 2.316849 1_555
Eu3 O21 2.322501 1_555
Eu3 O6 2.347833 1_545
O0 Sb0 2.012794 1_555
O1 Sb1 2.012794 1_555
O2 Sb2 2.012794 1_555
O3 Sb3 2.012794 1_555
O4 Sb0 2.032789 1_555
O4 Sr2 2.634933 1_555
O5 Sb3 2.032789 1_555
O5 Sr2 2.634933 1_566
O6 Sb1 2.032789 1_555
O6 Sr2 2.634933 1_565
O7 Sb2 2.032789 1_555
O7 Sr2 2.634933 1_556
O8 Sb0 2.011164 1_555
O8 Sr3 2.606871 1_555
O8 Sr1 3.016577 1_555
O9 Sb2 2.011164 1_555
O9 Sr3 2.606871 1_656
O9 Sr1 3.016577 1_556
O10 Sb3 2.011164 1_555
O10 Sr3 2.606871 1_556
O10 Sr1 3.016577 1_556
O11 Sb1 2.011164 1_555
O11 Sr3 2.606871 1_655
O11 Sr1 3.016577 1_555
O12 Sb0 2.020240 1_555
O12 Sr1 2.611819 1_555
O12 Sr2 3.062577 1_555
O13 Sb1 2.020240 1_555
O13 Sr1 2.611819 1_555
O13 Sr2 3.062577 1_565
O14 Sb2 2.020240 1_555
O14 Sr1 2.611819 1_556
O14 Sr2 3.062577 1_556
O15 Sb3 2.020240 1_555
O15 Sr1 2.611819 1_556
O15 Sr2 3.062577 1_566
O16 Sb0 2.013744 1_555
O16 Sr0 2.632184 1_555
O16 Sr3 3.046131 1_555
O17 Sb3 2.013744 1_555
O17 Sr0 2.632184 1_555
O17 Sr3 3.046131 1_556
O18 Sb1 2.013744 1_555
O18 Sr0 2.632184 1_655
O18 Sr3 3.046131 1_655
O19 Sb2 2.013744 1_555
O19 Sr0 2.632184 1_655
O19 Sr3 3.046131 1_656
O20 Sb0 2.023207 1_555
O21 Sb2 2.023207 1_555
O22 Sb3 2.023207 1_555
O23 Sb1 2.023207 1_555
