# generated using pymatgen
data_Tb4MgRh
_symmetry_space_group_name_H-M   'P 1'
_cell_length_a   9.70155198
_cell_length_b   9.70157115
_cell_length_c   9.70153436
_cell_angle_alpha   59.99859074
_cell_angle_beta   59.99853567
_cell_angle_gamma   59.99866177
_symmetry_Int_Tables_number   1
_chemical_formula_structural   Tb4MgRh
_chemical_formula_sum   'Tb16 Mg4 Rh4'
_cell_volume   645.64663542
_cell_formula_units_Z   4
loop_
 _symmetry_equiv_pos_site_id
 _symmetry_equiv_pos_as_xyz
  1  'x, y, z'
loop_
 _atom_site_type_symbol
 _atom_site_label
 _atom_site_symmetry_multiplicity
 _atom_site_fract_x
 _atom_site_fract_y
 _atom_site_fract_z
 _atom_site_occupancy
  Tb  Tb0  1  0.34635830  0.34635905  0.34635744  1
  Tb  Tb1  1  0.34635797  0.34635790  0.96092617  1
  Tb  Tb2  1  0.34636032  0.96091934  0.34635960  1
  Tb  Tb3  1  0.96092282  0.34635992  0.34635817  1
  Tb  Tb4  1  0.81266419  0.18733637  0.18733332  1
  Tb  Tb5  1  0.18733451  0.81266207  0.81266921  1
  Tb  Tb6  1  0.18733463  0.81266327  0.18733311  1
  Tb  Tb7  1  0.81266304  0.18733642  0.81266711  1
  Tb  Tb8  1  0.18733459  0.18733624  0.81266574  1
  Tb  Tb9  1  0.81266821  0.81266464  0.18733298  1
  Tb  Tb10  1  0.93582948  0.56417296  0.56416753  1
  Tb  Tb11  1  0.56417122  0.93582957  0.93582866  1
  Tb  Tb12  1  0.56417176  0.93582963  0.56416903  1
  Tb  Tb13  1  0.93582978  0.56417198  0.93582926  1
  Tb  Tb14  1  0.56416816  0.56417114  0.93582986  1
  Tb  Tb15  1  0.93582866  0.93582919  0.56417007  1
  Mg  Mg0  1  0.57919161  0.57919511  0.57918917  1
  Mg  Mg1  1  0.57919937  0.57920302  0.26240789  1
  Mg  Mg2  1  0.57920149  0.26240879  0.57919906  1
  Mg  Mg3  1  0.26240830  0.57920317  0.57919793  1
  Rh  Rh0  1  0.14185724  0.14185445  0.14186064  1
  Rh  Rh1  1  0.14185814  0.14185542  0.57442686  1
  Rh  Rh2  1  0.14185679  0.57442588  0.14185931  1
  Rh  Rh3  1  0.57442645  0.14185446  0.14186090  1
loop_
_geom_bond_atom_site_label_1
_geom_bond_atom_site_label_2
_geom_bond_distance
_geom_bond_site_symmetry_2
Tb0 Tb14 3.524975 1_554
Tb0 Tb10 3.524994 1_455
Tb0 Tb12 3.525006 1_545
Tb1 Tb13 3.525023 1_455
Tb1 Tb11 3.525032 1_545
Tb1 Tb14 3.525081 1_555
Tb10 Tb3 3.525085 1_555
Tb10 Tb12 3.605582 1_555
Tb10 Tb14 3.605613 1_555
Tb10 Tb15 3.605658 1_555
Tb10 Tb13 3.605686 1_555
Tb10 Tb6 3.643987 1_655
Tb10 Tb9 3.644016 1_555
Tb10 Tb8 3.644041 1_655
Tb10 Tb7 3.644065 1_555
Tb11 Tb2 3.525012 1_556
Tb11 Tb15 3.605576 1_555
Tb11 Tb13 3.605591 1_555
Tb11 Tb12 3.605666 1_555
Tb11 Tb14 3.605680 1_555
Tb11 Tb8 3.644046 1_565
Tb11 Tb6 3.644057 1_556
Tb11 Tb7 3.644088 1_565
Tb11 Tb9 3.644093 1_556
Tb12 Tb2 3.525088 1_555
Tb12 Tb14 3.605599 1_555
Tb12 Tb15 3.605652 1_555
Tb12 Tb4 3.644010 1_565
Tb12 Tb8 3.644039 1_565
Tb12 Tb9 3.644044 1_555
Tb12 Tb5 3.644070 1_555
Tb13 Tb3 3.525008 1_556
Tb13 Tb15 3.605585 1_555
Tb13 Tb14 3.605696 1_555
Tb13 Tb8 3.644046 1_655
Tb13 Tb4 3.644052 1_556
Tb13 Tb5 3.644061 1_655
Tb13 Tb9 3.644067 1_556
Tb14 Tb6 3.643988 1_556
Tb14 Tb5 3.644012 1_555
Tb14 Tb4 3.644016 1_556
Tb14 Tb7 3.644035 1_555
Tb15 Tb2 3.525025 1_655
Tb15 Tb3 3.525039 1_565
Tb15 Tb4 3.644048 1_565
Tb15 Tb6 3.644055 1_655
Tb15 Tb5 3.644116 1_655
Tb15 Tb7 3.644118 1_565
Mg0 Mg1 3.073188 1_555
Mg0 Mg3 3.073208 1_555
Mg0 Mg2 3.073229 1_555
Mg0 Tb12 3.320593 1_555
Mg0 Tb10 3.320601 1_555
Mg0 Tb14 3.320606 1_555
Mg0 Tb2 3.505799 1_555
Mg0 Tb3 3.505845 1_555
Mg0 Tb1 3.505883 1_555
Mg0 Tb9 3.552659 1_555
Mg0 Tb5 3.552672 1_555
Mg0 Tb7 3.552693 1_555
Mg1 Mg3 3.073289 1_555
Mg1 Mg2 3.073316 1_555
Mg1 Tb11 3.320413 1_554
Mg1 Tb13 3.320424 1_554
Mg1 Tb14 3.320554 1_554
Mg1 Tb2 3.505828 1_555
Mg1 Tb3 3.505875 1_555
Mg1 Tb0 3.506024 1_555
Mg1 Tb9 3.552683 1_555
Mg1 Tb6 3.552703 1_555
Mg1 Tb4 3.552723 1_555
Mg2 Mg3 3.073332 1_555
Mg2 Tb15 3.320423 1_545
Mg2 Tb11 3.320427 1_545
Mg2 Tb12 3.320559 1_545
Mg2 Tb3 3.505857 1_555
Mg2 Tb1 3.505891 1_555
Mg2 Tb0 3.506014 1_555
Mg2 Tb7 3.552682 1_555
Mg2 Tb4 3.552692 1_555
Mg2 Tb8 3.552707 1_555
Mg3 Tb15 3.320418 1_455
Mg3 Tb13 3.320427 1_455
Mg3 Tb10 3.320554 1_455
Mg3 Tb2 3.505825 1_555
Mg3 Tb1 3.505905 1_555
Mg3 Tb0 3.506016 1_555
Mg3 Tb5 3.552683 1_555
Mg3 Tb6 3.552692 1_555
Mg3 Tb8 3.552719 1_555
Rh0 Tb2 2.815043 1_545
Rh0 Tb3 2.815052 1_455
Rh0 Tb1 2.815061 1_554
Rh0 Tb8 2.822295 1_554
Rh0 Tb4 2.822298 1_455
Rh0 Tb6 2.822303 1_545
Rh0 Tb15 3.520290 1_445
Rh0 Tb11 3.520331 1_544
Rh0 Tb13 3.520363 1_454
Rh1 Tb0 2.815043 1_555
Rh1 Tb2 2.815045 1_545
Rh1 Tb3 2.815050 1_455
Rh1 Tb7 2.822275 1_455
Rh1 Tb5 2.822277 1_545
Rh1 Tb8 2.822352 1_555
Rh1 Tb12 3.520352 1_545
Rh1 Tb10 3.520388 1_455
Rh1 Tb15 3.520422 1_445
Rh2 Tb0 2.815015 1_555
Rh2 Tb3 2.815023 1_455
Rh2 Tb1 2.815033 1_554
Rh2 Tb5 2.822231 1_554
Rh2 Tb9 2.822236 1_455
Rh2 Tb6 2.822310 1_555
Rh2 Tb10 3.520309 1_455
Rh2 Tb14 3.520337 1_554
Rh2 Tb13 3.520413 1_454
Rh3 Tb0 2.815026 1_555
Rh3 Tb2 2.815030 1_545
Rh3 Tb1 2.815046 1_554
Rh3 Tb7 2.822252 1_554
Rh3 Tb9 2.822257 1_545
Rh3 Tb4 2.822326 1_555
Rh3 Tb12 3.520305 1_545
Rh3 Tb14 3.520381 1_554
Rh3 Tb11 3.520423 1_544
