# generated using pymatgen
data_Li4MnCo2O7
_symmetry_space_group_name_H-M   'P 1'
_cell_length_a   3.02181500
_cell_length_b   8.04661501
_cell_length_c   10.70372005
_cell_angle_alpha   78.39087105
_cell_angle_beta   86.76489806
_cell_angle_gamma   89.04616022
_symmetry_Int_Tables_number   1
_chemical_formula_structural   Li4MnCo2O7
_chemical_formula_sum   'Li8 Mn2 Co4 O14'
_cell_volume   254.53084737
_cell_formula_units_Z   2
loop_
 _symmetry_equiv_pos_site_id
 _symmetry_equiv_pos_as_xyz
  1  'x, y, z'
loop_
 _atom_site_type_symbol
 _atom_site_label
 _atom_site_symmetry_multiplicity
 _atom_site_fract_x
 _atom_site_fract_y
 _atom_site_fract_z
 _atom_site_occupancy
  Li  Li0  1  0.93064500  0.71124300  0.63826700  1
  Li  Li1  1  0.63775200  0.57470300  0.21624600  1
  Li  Li2  1  0.36224800  0.42529700  0.78375400  1
  Li  Li3  1  0.50000000  0.00000000  0.50000000  1
  Li  Li4  1  0.21239200  0.85844000  0.07312100  1
  Li  Li5  1  0.06935500  0.28875700  0.36173300  1
  Li  Li6  1  0.78760800  0.14156000  0.92687900  1
  Li  Li7  1  0.50000000  0.50000000  0.50000000  1
  Mn  Mn0  1  0.78673900  0.64610000  0.92549700  1
  Mn  Mn1  1  0.21326100  0.35390000  0.07450300  1
  Co  Co0  1  0.93374600  0.22533900  0.63671600  1
  Co  Co1  1  0.64060500  0.06675100  0.21701200  1
  Co  Co2  1  0.35939500  0.93324900  0.78298800  1
  Co  Co3  1  0.06625400  0.77466100  0.36328400  1
  O  O0  1  0.37994200  0.69204700  0.78576700  1
  O  O1  1  0.07800100  0.56119900  0.35427000  1
  O  O2  1  0.81003100  0.39978200  0.93344100  1
  O  O3  1  0.94647000  0.98276800  0.65093500  1
  O  O4  1  0.66119400  0.83107500  0.22347600  1
  O  O5  1  0.51682800  0.24575100  0.51081100  1
  O  O6  1  0.23527600  0.11076400  0.08014000  1
  O  O7  1  0.48317200  0.75424900  0.48918900  1
  O  O8  1  0.18996900  0.60021800  0.06655900  1
  O  O9  1  0.92199900  0.43880100  0.64573000  1
  O  O10  1  0.05353000  0.01723200  0.34906500  1
  O  O11  1  0.76472400  0.88923600  0.91986000  1
  O  O12  1  0.62005800  0.30795300  0.21423300  1
  O  O13  1  0.33880600  0.16892500  0.77652400  1
loop_
_geom_bond_atom_site_label_1
_geom_bond_atom_site_label_2
_geom_bond_distance
_geom_bond_site_symmetry_2
Li0 O0 2.120517 1_655
Li0 O7 2.121339 1_555
Li0 O9 2.178108 1_555
Li0 O0 2.213514 1_555
Li0 O3 2.217593 1_555
Li0 O7 2.224849 1_655
Li1 O1 2.028958 1_655
Li1 O4 2.082405 1_555
Li1 O8 2.131478 1_555
Li1 O12 2.152456 1_555
Li1 O1 2.171393 1_555
Li1 O8 2.229580 1_655
Li2 O9 2.028958 1_455
Li2 O13 2.082405 1_555
Li2 O2 2.131478 1_555
Li2 O0 2.152456 1_555
Li2 O9 2.171393 1_555
Li2 O2 2.229580 1_455
Li3 O5 2.005604 1_555
Li3 O7 2.005604 1_545
Li3 O3 2.144553 1_545
Li3 O10 2.144553 1_555
Li3 O3 2.244917 1_445
Li3 O10 2.244917 1_655
Li4 O6 2.049248 1_565
Li4 O8 2.095422 1_555
Li4 O4 2.138122 1_555
Li4 O11 2.158289 1_454
Li4 O4 2.231556 1_455
Li4 O11 2.253746 1_554
Li5 O12 2.120517 1_455
Li5 O5 2.121339 1_555
Li5 O1 2.178108 1_555
Li5 O12 2.213514 1_555
Li5 O10 2.217593 1_555
Li5 O5 2.224849 1_455
Li6 O11 2.049248 1_545
Li6 O2 2.095422 1_555
Li6 O13 2.138122 1_555
Li6 O6 2.158289 1_656
Li6 O13 2.231556 1_655
Li6 O6 2.253746 1_556
Li7 O7 2.025678 1_555
Li7 O5 2.025678 1_555
Li7 O1 2.048471 1_555
Li7 O9 2.048471 1_555
Li7 O1 2.266778 1_655
Li7 O9 2.266778 1_455
Mn0 O11 1.945318 1_555
Mn0 O0 1.963294 1_555
Mn0 O2 1.966930 1_555
Mn0 O8 1.967002 1_656
Mn0 O0 2.254719 1_655
Mn0 O8 2.271246 1_556
Mn1 O6 1.945318 1_555
Mn1 O12 1.963294 1_555
Mn1 O8 1.966930 1_555
Mn1 O2 1.967002 1_454
Mn1 O12 2.254719 1_455
Mn1 O2 2.271246 1_554
Co0 O9 1.739299 1_555
Co0 O5 1.877769 1_555
Co0 O3 1.926931 1_545
Co0 O13 1.964313 1_655
Co0 O5 2.144811 1_655
Co0 O13 2.264437 1_555
Co1 O4 1.883804 1_545
Co1 O10 1.915576 1_655
Co1 O12 1.935106 1_555
Co1 O6 1.936812 1_555
Co1 O10 2.194920 1_555
Co1 O6 2.239677 1_655
Co2 O13 1.883804 1_565
Co2 O3 1.915576 1_455
Co2 O0 1.935106 1_555
Co2 O11 1.936812 1_555
Co2 O3 2.194920 1_555
Co2 O11 2.239677 1_455
Co3 O1 1.739299 1_555
Co3 O7 1.877769 1_555
Co3 O10 1.926931 1_565
Co3 O4 1.964313 1_455
Co3 O7 2.144811 1_455
Co3 O4 2.264437 1_555
