# generated using pymatgen
data_Na4TiO4
_symmetry_space_group_name_H-M   'P 1'
_cell_length_a   5.72045048
_cell_length_b   5.73191480
_cell_length_c   8.63477050
_cell_angle_alpha   81.65322077
_cell_angle_beta   71.49410538
_cell_angle_gamma   68.26384628
_symmetry_Int_Tables_number   1
_chemical_formula_structural   Na4TiO4
_chemical_formula_sum   'Na8 Ti2 O8'
_cell_volume   249.27419846
_cell_formula_units_Z   2
loop_
 _symmetry_equiv_pos_site_id
 _symmetry_equiv_pos_as_xyz
  1  'x, y, z'
loop_
 _atom_site_type_symbol
 _atom_site_label
 _atom_site_symmetry_multiplicity
 _atom_site_fract_x
 _atom_site_fract_y
 _atom_site_fract_z
 _atom_site_occupancy
  Na  Na0  1  0.74261068  0.25822162  0.48829508  1
  Na  Na1  1  0.25738932  0.74177838  0.51170492  1
  Na  Na2  1  0.44326033  0.74225652  0.10147991  1
  Na  Na3  1  0.55673967  0.25774348  0.89852009  1
  Na  Na4  1  0.97991256  0.23381939  0.06454606  1
  Na  Na5  1  0.02008744  0.76618061  0.93545394  1
  Na  Na6  1  0.89080933  0.77270078  0.31492446  1
  Na  Na7  1  0.10919067  0.22729922  0.68507554  1
  Ti  Ti0  1  0.65767880  0.78058109  0.74190960  1
  Ti  Ti1  1  0.34232120  0.21941891  0.25809040  1
  O  O0  1  0.86511308  0.97517035  0.69537514  1
  O  O1  1  0.13488692  0.02482965  0.30462486  1
  O  O2  1  0.66778842  0.02683386  0.13490388  1
  O  O3  1  0.33221158  0.97316614  0.86509612  1
  O  O4  1  0.20509504  0.47669333  0.12252837  1
  O  O5  1  0.79490496  0.52330667  0.87747163  1
  O  O6  1  0.35000524  0.34218002  0.43835862  1
  O  O7  1  0.64999476  0.65781998  0.56164138  1
loop_
_geom_bond_atom_site_label_1
_geom_bond_atom_site_label_2
_geom_bond_distance
_geom_bond_site_symmetry_2
Na0 O6 2.283741 1_555
Na0 O7 2.288532 1_555
Na0 O0 2.330598 1_545
Na0 O1 2.339605 1_655
Na1 O7 2.283741 1_555
Na1 O6 2.288532 1_555
Na1 O1 2.330598 1_565
Na1 O0 2.339605 1_455
Na2 O4 2.346224 1_555
Na2 O1 2.357213 1_565
Na2 O5 2.393278 1_554
Na2 O3 2.395315 1_554
Na2 O2 2.513455 1_565
Na3 O5 2.346224 1_555
Na3 O0 2.357213 1_545
Na3 O4 2.393278 1_556
Na3 O2 2.395315 1_556
Na3 O3 2.513455 1_545
Na4 O5 2.342882 1_554
Na4 O3 2.360778 1_644
Na4 O2 2.373984 1_555
Na4 O4 2.405824 1_655
Na4 O1 2.485446 1_655
Na5 O4 2.342882 1_556
Na5 O2 2.360778 1_466
Na5 O3 2.373984 1_555
Na5 O5 2.405824 1_455
Na5 O0 2.485446 1_455
Na6 O7 2.295931 1_555
Na6 O2 2.321816 1_565
Na6 O1 2.329015 1_665
Na6 O4 2.352435 1_655
Na7 O6 2.295931 1_555
Na7 O3 2.321816 1_545
Na7 O0 2.329015 1_445
Na7 O5 2.352435 1_455
O0 Ti0 1.833318 1_555
O1 Ti1 1.833318 1_555
O2 Ti1 1.837894 1_555
O3 Ti0 1.837894 1_555
O4 Ti1 1.840056 1_555
O5 Ti0 1.840056 1_555
O6 Ti1 1.817781 1_555
O7 Ti0 1.817781 1_555
