# generated using pymatgen
data_Lu2ZnS4
_symmetry_space_group_name_H-M   'P 1'
_cell_length_a   6.22192107
_cell_length_b   7.67312108
_cell_length_c   13.19955691
_cell_angle_alpha   90.00000000
_cell_angle_beta   90.00000000
_cell_angle_gamma   90.00000000
_symmetry_Int_Tables_number   1
_chemical_formula_structural   Lu2ZnS4
_chemical_formula_sum   'Lu8 Zn4 S16'
_cell_volume   630.16735530
_cell_formula_units_Z   4
loop_
 _symmetry_equiv_pos_site_id
 _symmetry_equiv_pos_as_xyz
  1  'x, y, z'
loop_
 _atom_site_type_symbol
 _atom_site_label
 _atom_site_symmetry_multiplicity
 _atom_site_fract_x
 _atom_site_fract_y
 _atom_site_fract_z
 _atom_site_occupancy
  Lu  Lu0  1  0.50000000  0.50000000  0.50000000  1
  Lu  Lu1  1  0.00000000  0.50000000  0.00000000  1
  Lu  Lu2  1  0.50000000  -0.00000000  0.50000000  1
  Lu  Lu3  1  0.00000000  -0.00000000  0.00000000  1
  Lu  Lu4  1  0.00283871  0.75000000  0.26507068  1
  Lu  Lu5  1  0.50283871  0.25000000  0.23492932  1
  Lu  Lu6  1  0.99716129  0.25000000  0.73492932  1
  Lu  Lu7  1  0.49716129  0.75000000  0.76507068  1
  Zn  Zn0  1  0.58696658  0.75000000  0.09178854  1
  Zn  Zn1  1  0.08696658  0.25000000  0.40821146  1
  Zn  Zn2  1  0.41303342  0.25000000  0.90821146  1
  Zn  Zn3  1  0.91303342  0.75000000  0.59178854  1
  S  S0  1  0.25755474  0.48985017  0.33174262  1
  S  S1  1  0.75755474  0.51014983  0.16825738  1
  S  S2  1  0.74244526  0.98985017  0.66825738  1
  S  S3  1  0.24244526  0.01014983  0.83174262  1
  S  S4  1  0.74244526  0.51014983  0.66825738  1
  S  S5  1  0.24244526  0.48985017  0.83174262  1
  S  S6  1  0.25755474  0.01014983  0.33174262  1
  S  S7  1  0.75755474  0.98985017  0.16825738  1
  S  S8  1  0.74500634  0.75000000  0.92840311  1
  S  S9  1  0.24500634  0.25000000  0.57159689  1
  S  S10  1  0.25499366  0.25000000  0.07159689  1
  S  S11  1  0.75499366  0.75000000  0.42840311  1
  S  S12  1  0.22189565  0.75000000  0.08994923  1
  S  S13  1  0.72189565  0.25000000  0.41005077  1
  S  S14  1  0.77810435  0.25000000  0.91005077  1
  S  S15  1  0.27810435  0.75000000  0.58994923  1
loop_
_geom_bond_atom_site_label_1
_geom_bond_atom_site_label_2
_geom_bond_distance
_geom_bond_site_symmetry_2
Lu0 S13 2.644912 1_555
Lu0 S15 2.644912 1_555
Lu0 S11 2.662716 1_555
Lu0 S9 2.662716 1_555
Lu0 S0 2.685900 1_555
Lu0 S4 2.685900 1_555
Lu1 S14 2.644912 1_454
Lu1 S12 2.644912 1_555
Lu1 S8 2.662716 1_454
Lu1 S10 2.662716 1_555
Lu1 S5 2.685900 1_554
Lu1 S1 2.685900 1_455
Lu2 S15 2.644912 1_545
Lu2 S13 2.644912 1_555
Lu2 S11 2.662716 1_545
Lu2 S9 2.662716 1_555
Lu2 S6 2.685900 1_555
Lu2 S2 2.685900 1_545
Lu3 S14 2.644912 1_454
Lu3 S12 2.644912 1_545
Lu3 S8 2.662716 1_444
Lu3 S10 2.662716 1_555
Lu3 S7 2.685900 1_445
Lu3 S3 2.685900 1_554
Lu4 S11 2.650653 1_455
Lu4 S12 2.683430 1_555
Lu4 S0 2.696441 1_555
Lu4 S6 2.696441 1_565
Lu4 S7 2.710936 1_455
Lu4 S1 2.710936 1_455
Lu5 S10 2.650653 1_555
Lu5 S13 2.683430 1_555
Lu5 S1 2.696441 1_555
Lu5 S7 2.696441 1_545
Lu5 S6 2.710936 1_555
Lu5 S0 2.710936 1_555
Lu6 S9 2.650653 1_655
Lu6 S14 2.683430 1_555
Lu6 S4 2.696441 1_555
Lu6 S2 2.696441 1_545
Lu6 S3 2.710936 1_655
Lu6 S5 2.710936 1_655
Lu7 S8 2.650653 1_555
Lu7 S15 2.683430 1_555
Lu7 S5 2.696441 1_555
Lu7 S3 2.696441 1_565
Lu7 S4 2.710936 1_555
Lu7 S2 2.710936 1_555
S0 Zn1 2.352107 1_555
S1 Zn0 2.352107 1_555
S2 Zn3 2.352107 1_555
S3 Zn2 2.352107 1_555
S4 Zn3 2.352107 1_555
S5 Zn2 2.352107 1_555
S6 Zn1 2.352107 1_555
S7 Zn0 2.352107 1_555
S8 Zn0 2.370209 1_556
S9 Zn1 2.370209 1_555
S10 Zn2 2.370209 1_554
S11 Zn3 2.370209 1_555
S12 Zn0 2.271572 1_555
S13 Zn1 2.271572 1_655
S14 Zn2 2.271572 1_555
S15 Zn3 2.271572 1_455
