# generated using pymatgen
data_Mg3V2(Si2O7)2
_symmetry_space_group_name_H-M   'P 1'
_cell_length_a   9.24822154
_cell_length_b   9.24822154
_cell_length_c   9.86774303
_cell_angle_alpha   59.47306694
_cell_angle_beta   59.47306694
_cell_angle_gamma   49.11116426
_symmetry_Int_Tables_number   1
_chemical_formula_structural   Mg3V2(Si2O7)2
_chemical_formula_sum   'Mg6 V4 Si8 O28'
_cell_volume   529.27505071
_cell_formula_units_Z   2
loop_
 _symmetry_equiv_pos_site_id
 _symmetry_equiv_pos_as_xyz
  1  'x, y, z'
loop_
 _atom_site_type_symbol
 _atom_site_label
 _atom_site_symmetry_multiplicity
 _atom_site_fract_x
 _atom_site_fract_y
 _atom_site_fract_z
 _atom_site_occupancy
  Mg  Mg0  1  0.08178300  0.27156500  0.09518100  1
  Mg  Mg1  1  0.72843500  0.91821700  0.40481900  1
  Mg  Mg2  1  0.27156500  0.08178300  0.59518100  1
  Mg  Mg3  1  0.38857800  0.61142200  0.75000000  1
  Mg  Mg4  1  0.91821700  0.72843500  0.90481900  1
  Mg  Mg5  1  0.61142200  0.38857800  0.25000000  1
  V  V0  1  0.79776700  0.20223300  0.75000000  1
  V  V1  1  0.20223300  0.79776700  0.25000000  1
  V  V2  1  0.00000000  0.00000000  0.00000000  1
  V  V3  1  0.00000000  0.00000000  0.50000000  1
  Si  Si0  1  0.53410100  0.10004900  0.70894400  1
  Si  Si1  1  0.10004900  0.53410100  0.20894400  1
  Si  Si2  1  0.51990600  0.23826800  0.10396600  1
  Si  Si3  1  0.23826800  0.51990600  0.60396600  1
  Si  Si4  1  0.89995100  0.46589900  0.79105600  1
  Si  Si5  1  0.48009400  0.76173200  0.89603400  1
  Si  Si6  1  0.76173200  0.48009400  0.39603400  1
  Si  Si7  1  0.46589900  0.89995100  0.29105600  1
  O  O0  1  0.84729200  0.29888200  0.32572100  1
  O  O1  1  0.95772400  0.87916700  0.42264400  1
  O  O2  1  0.46669000  0.63086200  0.08502900  1
  O  O3  1  0.87916700  0.95772400  0.92264400  1
  O  O4  1  0.25260300  0.94757600  0.31311000  1
  O  O5  1  0.06637400  0.49637100  0.62278100  1
  O  O6  1  0.63086200  0.46669000  0.58502900  1
  O  O7  1  0.05242400  0.74739700  0.18689000  1
  O  O8  1  0.93362600  0.50362900  0.37721900  1
  O  O9  1  0.64097600  0.67873100  0.25881000  1
  O  O10  1  0.04227600  0.12083300  0.57735600  1
  O  O11  1  0.74739700  0.05242400  0.68689000  1
  O  O12  1  0.50362900  0.93362600  0.87721900  1
  O  O13  1  0.29888200  0.84729200  0.82572100  1
  O  O14  1  0.67873100  0.64097600  0.75881000  1
  O  O15  1  0.94757600  0.25260300  0.81311000  1
  O  O16  1  0.90875200  0.49170500  0.93769000  1
  O  O17  1  0.35902400  0.32126900  0.74119000  1
  O  O18  1  0.50829500  0.09124800  0.56231000  1
  O  O19  1  0.32126900  0.35902400  0.24119000  1
  O  O20  1  0.49637100  0.06637400  0.12278100  1
  O  O21  1  0.12083300  0.04227600  0.07735600  1
  O  O22  1  0.49170500  0.90875200  0.43769000  1
  O  O23  1  0.53331000  0.36913800  0.91497100  1
  O  O24  1  0.09124800  0.50829500  0.06231000  1
  O  O25  1  0.36913800  0.53331000  0.41497100  1
  O  O26  1  0.70111800  0.15270800  0.17427900  1
  O  O27  1  0.15270800  0.70111800  0.67427900  1
loop_
_geom_bond_atom_site_label_1
_geom_bond_atom_site_label_2
_geom_bond_distance
_geom_bond_site_symmetry_2
Mg0 O21 1.992420 1_555
Mg0 O16 2.041509 1_454
Mg0 O24 2.099209 1_555
Mg0 O0 2.190150 1_455
Mg0 O4 2.608920 1_545
Mg1 O1 1.992420 1_555
Mg1 O18 2.041509 1_565
Mg1 O22 2.099209 1_555
Mg1 O26 2.190150 1_565
Mg1 O7 2.608920 1_655
Mg2 O10 1.992420 1_555
Mg2 O22 2.041509 1_545
Mg2 O18 2.099209 1_555
Mg2 O13 2.190150 1_545
Mg2 O15 2.608920 1_455
Mg3 O23 2.010936 1_555
Mg3 O6 2.010936 1_555
Mg3 O27 2.159161 1_555
Mg3 O13 2.159161 1_555
Mg4 O3 1.992420 1_555
Mg4 O24 2.041509 1_656
Mg4 O16 2.099209 1_555
Mg4 O27 2.190150 1_655
Mg4 O11 2.608920 1_565
Mg5 O25 2.010936 1_555
Mg5 O2 2.010936 1_555
Mg5 O26 2.159161 1_555
Mg5 O0 2.159161 1_555
O0 Si6 1.674378 1_555
O0 V3 2.262736 1_655
O1 V3 1.930304 1_665
O1 V1 1.934699 1_655
O2 Si5 1.620743 1_554
O2 V1 2.140079 1_555
O3 V2 1.930304 1_666
O3 V0 1.934699 1_565
O4 Si7 1.629831 1_555
O4 V3 2.035283 1_565
O4 V1 2.130846 1_555
O5 Si4 1.643688 1_455
O5 Si3 1.649588 1_555
O6 Si6 1.620743 1_555
O6 V0 2.140079 1_555
O7 Si1 1.629831 1_555
O7 V2 2.035283 1_565
O7 V1 2.130846 1_555
O8 Si1 1.643688 1_655
O8 Si6 1.649588 1_555
O9 Si7 1.646114 1_555
O9 Si6 1.666971 1_555
O10 V3 1.930304 1_555
O10 V0 1.934699 1_455
O11 Si0 1.629831 1_555
O11 V3 2.035283 1_655
O11 V0 2.130846 1_555
O12 Si0 1.643688 1_565
O12 Si5 1.649588 1_555
O13 Si5 1.674378 1_555
O13 V2 2.262736 1_566
O14 Si4 1.646114 1_555
O14 Si5 1.666971 1_555
O15 Si4 1.629831 1_555
O15 V2 2.035283 1_656
O15 V0 2.130846 1_555
O16 Si4 1.628842 1_555
O17 Si0 1.646114 1_555
O17 Si3 1.666971 1_555
O18 Si0 1.628842 1_555
O19 Si1 1.646114 1_555
O19 Si2 1.666971 1_555
O20 Si7 1.643688 1_545
O20 Si2 1.649588 1_555
O21 V2 1.930304 1_555
O21 V1 1.934699 1_545
O22 Si7 1.628842 1_555
O23 Si2 1.620743 1_556
O23 V0 2.140079 1_555
O24 Si1 1.628842 1_555
O25 Si3 1.620743 1_555
O25 V1 2.140079 1_555
O26 Si2 1.674378 1_555
O26 V2 2.262736 1_655
O27 Si3 1.674378 1_555
O27 V3 2.262736 1_565
