# generated using pymatgen
data_NaB(SO4)2
_symmetry_space_group_name_H-M   'P 1'
_cell_length_a   7.68753200
_cell_length_b   5.55282600
_cell_length_c   7.88599105
_cell_angle_alpha   71.33482153
_cell_angle_beta   90.00000000
_cell_angle_gamma   90.00000000
_symmetry_Int_Tables_number   1
_chemical_formula_structural   NaB(SO4)2
_chemical_formula_sum   'Na2 B2 S4 O16'
_cell_volume   318.92820851
_cell_formula_units_Z   2
loop_
 _symmetry_equiv_pos_site_id
 _symmetry_equiv_pos_as_xyz
  1  'x, y, z'
loop_
 _atom_site_type_symbol
 _atom_site_label
 _atom_site_symmetry_multiplicity
 _atom_site_fract_x
 _atom_site_fract_y
 _atom_site_fract_z
 _atom_site_occupancy
  Na  Na0  1  0.56704800  0.50000000  0.75000000  1
  Na  Na1  1  0.43295200  0.50000000  0.25000000  1
  B  B0  1  0.95806400  0.00000000  0.25000000  1
  B  B1  1  0.04193600  0.00000000  0.75000000  1
  S  S0  1  0.22319500  0.87023100  0.49615900  1
  S  S1  1  0.22319500  0.12976900  0.00384100  1
  S  S2  1  0.77680500  0.12976900  0.50384100  1
  S  S3  1  0.77680500  0.87023100  0.99615900  1
  O  O0  1  0.28497000  0.12682000  0.41758800  1
  O  O1  1  0.28497000  0.87318000  0.08241200  1
  O  O2  1  0.71503000  0.87318000  0.58241200  1
  O  O3  1  0.71503000  0.12682000  0.91758800  1
  O  O4  1  0.06088000  0.82120800  0.39404000  1
  O  O5  1  0.06088000  0.17879200  0.10596000  1
  O  O6  1  0.93912000  0.17879200  0.60596000  1
  O  O7  1  0.93912000  0.82120800  0.89404000  1
  O  O8  1  0.15378200  0.82640900  0.68772100  1
  O  O9  1  0.15378200  0.17359100  0.81227900  1
  O  O10  1  0.84621800  0.17359100  0.31227900  1
  O  O11  1  0.84621800  0.82640900  0.18772100  1
  O  O12  1  0.34344500  0.66509600  0.51070000  1
  O  O13  1  0.34344500  0.33490400  0.98930000  1
  O  O14  1  0.65655500  0.33490400  0.48930000  1
  O  O15  1  0.65655500  0.66509600  0.01070000  1
loop_
_geom_bond_atom_site_label_1
_geom_bond_atom_site_label_2
_geom_bond_distance
_geom_bond_site_symmetry_2
Na0 O2 2.362604 1_555
Na0 O3 2.362604 1_555
Na0 O12 2.499822 1_555
Na0 O13 2.499822 1_555
Na0 O15 2.597478 1_556
Na0 O14 2.597478 1_555
Na1 O1 2.362604 1_555
Na1 O0 2.362604 1_555
Na1 O14 2.499822 1_555
Na1 O15 2.499822 1_555
Na1 O12 2.597478 1_555
Na1 O13 2.597478 1_554
B0 O4 1.476085 1_645
B0 O5 1.476085 1_655
B0 O10 1.487502 1_555
B0 O11 1.487502 1_545
B1 O7 1.476085 1_445
B1 O6 1.476085 1_455
B1 O8 1.487502 1_545
B1 O9 1.487502 1_555
O0 S0 1.440283 1_545
O1 S1 1.440283 1_565
O2 S2 1.440283 1_565
O3 S3 1.440283 1_545
O4 S0 1.555619 1_555
O5 S1 1.555619 1_555
O6 S2 1.555619 1_555
O7 S3 1.555619 1_555
O8 S0 1.546205 1_555
O9 S1 1.546205 1_556
O10 S2 1.546205 1_555
O11 S3 1.546205 1_554
O12 S0 1.442778 1_555
O13 S1 1.442778 1_556
O14 S2 1.442778 1_555
O15 S3 1.442778 1_554
