# generated using pymatgen
data_MgS2O9
_symmetry_space_group_name_H-M   'P 1'
_cell_length_a   6.76177500
_cell_length_b   8.27460700
_cell_length_c   12.57332900
_cell_angle_alpha   90.00000000
_cell_angle_beta   90.00000000
_cell_angle_gamma   90.00000000
_symmetry_Int_Tables_number   1
_chemical_formula_structural   MgS2O9
_chemical_formula_sum   'Mg4 S8 O36'
_cell_volume   703.49071748
_cell_formula_units_Z   4
loop_
 _symmetry_equiv_pos_site_id
 _symmetry_equiv_pos_as_xyz
  1  'x, y, z'
loop_
 _atom_site_type_symbol
 _atom_site_label
 _atom_site_symmetry_multiplicity
 _atom_site_fract_x
 _atom_site_fract_y
 _atom_site_fract_z
 _atom_site_occupancy
  Mg  Mg0  1  0.50000000  0.50000000  0.00000000  1
  Mg  Mg1  1  0.00000000  0.00000000  0.50000000  1
  Mg  Mg2  1  0.50000000  0.50000000  0.50000000  1
  Mg  Mg3  1  0.00000000  0.00000000  0.00000000  1
  S  S0  1  0.68554400  0.61560400  0.25000000  1
  S  S1  1  0.81445600  0.11560400  0.25000000  1
  S  S2  1  0.31445600  0.38439600  0.75000000  1
  S  S3  1  0.18554400  0.88439600  0.75000000  1
  S  S4  1  0.05900000  0.50245700  0.25000000  1
  S  S5  1  0.44100000  0.00245700  0.25000000  1
  S  S6  1  0.94100000  0.49754300  0.75000000  1
  S  S7  1  0.55900000  0.99754300  0.75000000  1
  O  O0  1  0.02814700  0.41712400  0.15056100  1
  O  O1  1  0.47185300  0.91712400  0.34943900  1
  O  O2  1  0.97185300  0.58287600  0.65056100  1
  O  O3  1  0.52814700  0.08287600  0.84943900  1
  O  O4  1  0.97185300  0.58287600  0.84943900  1
  O  O5  1  0.52814700  0.08287600  0.65056100  1
  O  O6  1  0.02814700  0.41712400  0.34943900  1
  O  O7  1  0.47185300  0.91712400  0.15056100  1
  O  O8  1  0.19979900  0.63400400  0.25000000  1
  O  O9  1  0.30020100  0.13400400  0.25000000  1
  O  O10  1  0.80020100  0.36599600  0.75000000  1
  O  O11  1  0.69979900  0.86599600  0.75000000  1
  O  O12  1  0.34839500  0.28248700  0.05380500  1
  O  O13  1  0.15160500  0.78248700  0.44619500  1
  O  O14  1  0.65160500  0.71751300  0.55380500  1
  O  O15  1  0.84839500  0.21751300  0.94619500  1
  O  O16  1  0.65160500  0.71751300  0.94619500  1
  O  O17  1  0.84839500  0.21751300  0.55380500  1
  O  O18  1  0.34839500  0.28248700  0.44619500  1
  O  O19  1  0.15160500  0.78248700  0.05380500  1
  O  O20  1  0.60516800  0.53901900  0.15165600  1
  O  O21  1  0.89483200  0.03901900  0.34834400  1
  O  O22  1  0.39483200  0.46098100  0.65165600  1
  O  O23  1  0.10516800  0.96098100  0.84834400  1
  O  O24  1  0.39483200  0.46098100  0.84834400  1
  O  O25  1  0.10516800  0.96098100  0.65165600  1
  O  O26  1  0.60516800  0.53901900  0.34834400  1
  O  O27  1  0.89483200  0.03901900  0.15165600  1
  O  O28  1  0.74584400  0.31066600  0.00523300  1
  O  O29  1  0.75415600  0.81066600  0.49476700  1
  O  O30  1  0.25415600  0.68933400  0.50523300  1
  O  O31  1  0.24584400  0.18933400  0.99476700  1
  O  O32  1  0.25415600  0.68933400  0.99476700  1
  O  O33  1  0.24584400  0.18933400  0.50523300  1
  O  O34  1  0.74584400  0.31066600  0.49476700  1
  O  O35  1  0.75415600  0.81066600  0.00523300  1
loop_
_geom_bond_atom_site_label_1
_geom_bond_atom_site_label_2
_geom_bond_distance
_geom_bond_site_symmetry_2
Mg0 O20 2.060559 1_555
Mg0 O24 2.060559 1_554
Mg0 O16 2.178976 1_554
Mg0 O12 2.178976 1_555
Mg0 O28 2.285202 1_555
Mg0 O32 2.285202 1_554
Mg1 O21 2.060559 1_455
Mg1 O25 2.060559 1_545
Mg1 O13 2.178976 1_545
Mg1 O17 2.178976 1_455
Mg1 O29 2.285202 1_445
Mg1 O33 2.285202 1_555
Mg2 O26 2.060559 1_555
Mg2 O22 2.060559 1_555
Mg2 O14 2.178976 1_555
Mg2 O18 2.178976 1_555
Mg2 O34 2.285202 1_555
Mg2 O30 2.285202 1_555
Mg3 O27 2.060559 1_455
Mg3 O23 2.060559 1_544
Mg3 O19 2.178976 1_545
Mg3 O15 2.178976 1_454
Mg3 O35 2.285202 1_445
Mg3 O31 2.285202 1_554
O0 S4 1.450963 1_555
O1 S5 1.450963 1_565
O2 S6 1.450963 1_555
O3 S7 1.450963 1_545
O4 S6 1.450963 1_555
O5 S7 1.450963 1_545
O6 S4 1.450963 1_555
O7 S5 1.450963 1_565
O8 S4 1.446110 1_555
O9 S5 1.446110 1_555
O10 S6 1.446110 1_555
O11 S7 1.446110 1_555
O12 O31 1.275145 1_554
O13 O30 1.275145 1_555
O14 O29 1.275145 1_555
O15 O28 1.275145 1_556
O16 O35 1.275145 1_556
O17 O34 1.275145 1_555
O18 O33 1.275145 1_555
O19 O32 1.275145 1_554
O20 S0 1.491954 1_555
O21 S1 1.491954 1_555
O22 S2 1.491954 1_555
O23 S3 1.491954 1_555
O24 S2 1.491954 1_555
O25 S3 1.491954 1_555
O26 S0 1.491954 1_555
O27 S1 1.491954 1_555
