# generated using pymatgen
data_CuH7C3NO6
_symmetry_space_group_name_H-M   'P 1'
_cell_length_a   7.18507100
_cell_length_b   8.19301500
_cell_length_c   13.64532400
_cell_angle_alpha   90.00000000
_cell_angle_beta   90.00000000
_cell_angle_gamma   90.00000000
_symmetry_Int_Tables_number   1
_chemical_formula_structural   CuH7C3NO6
_chemical_formula_sum   'Cu4 H28 C12 N4 O24'
_cell_volume   803.26467070
_cell_formula_units_Z   4
loop_
 _symmetry_equiv_pos_site_id
 _symmetry_equiv_pos_as_xyz
  1  'x, y, z'
loop_
 _atom_site_type_symbol
 _atom_site_label
 _atom_site_symmetry_multiplicity
 _atom_site_fract_x
 _atom_site_fract_y
 _atom_site_fract_z
 _atom_site_occupancy
  Cu  Cu0  1  0.99959000  0.01553400  0.08588000  1
  Cu  Cu1  1  0.00041000  0.51553400  0.41412000  1
  Cu  Cu2  1  0.49959000  0.48446600  0.91412000  1
  Cu  Cu3  1  0.50041000  0.98446600  0.58588000  1
  H  H0  1  0.05758800  0.92206800  0.83125900  1
  H  H1  1  0.94241200  0.42206800  0.66874100  1
  H  H2  1  0.55758800  0.57793200  0.16874100  1
  H  H3  1  0.44241200  0.07793200  0.33125900  1
  H  H4  1  0.94552400  0.09486400  0.81193500  1
  H  H5  1  0.05447600  0.59486400  0.68806500  1
  H  H6  1  0.44552400  0.40513600  0.18806500  1
  H  H7  1  0.55447600  0.90513600  0.31193500  1
  H  H8  1  0.10985800  0.03738100  0.72966300  1
  H  H9  1  0.89014200  0.53738100  0.77033700  1
  H  H10  1  0.60985800  0.46261900  0.27033700  1
  H  H11  1  0.39014200  0.96261900  0.22966300  1
  H  H12  1  0.89822800  0.93596400  0.73802000  1
  H  H13  1  0.10177200  0.43596400  0.76198000  1
  H  H14  1  0.39822800  0.56403600  0.26198000  1
  H  H15  1  0.60177200  0.06403600  0.23802000  1
  H  H16  1  0.26882700  0.70402100  0.03756900  1
  H  H17  1  0.73117300  0.20402100  0.46243100  1
  H  H18  1  0.76882700  0.79597900  0.96243100  1
  H  H19  1  0.23117300  0.29597900  0.53756900  1
  H  H20  1  0.71893800  0.28092700  0.05236900  1
  H  H21  1  0.28106200  0.78092700  0.44763100  1
  H  H22  1  0.21893800  0.21907300  0.94763100  1
  H  H23  1  0.78106200  0.71907300  0.55236900  1
  H  H24  1  0.93571500  0.76268600  0.24086200  1
  H  H25  1  0.06428500  0.26268600  0.25913800  1
  H  H26  1  0.43571500  0.73731400  0.75913800  1
  H  H27  1  0.56428500  0.23731400  0.74086200  1
  C  C0  1  0.22431500  0.72807100  0.96113600  1
  C  C1  1  0.77568500  0.22807100  0.53886400  1
  C  C2  1  0.72431500  0.77192900  0.03886400  1
  C  C3  1  0.27568500  0.27192900  0.46113600  1
  C  C4  1  0.76958900  0.24709300  0.97873200  1
  C  C5  1  0.23041100  0.74709300  0.52126800  1
  C  C6  1  0.26958900  0.25290700  0.02126800  1
  C  C7  1  0.73041100  0.75290700  0.47873200  1
  C  C8  1  0.08901300  0.77601400  0.23990300  1
  C  C9  1  0.91098700  0.27601400  0.26009700  1
  C  C10  1  0.58901300  0.72398600  0.76009700  1
  C  C11  1  0.41098700  0.22398600  0.73990300  1
  N  N0  1  0.00295400  0.99735300  0.77544800  1
  N  N1  1  0.99704600  0.49735300  0.72455200  1
  N  N2  1  0.50295400  0.50264700  0.22455200  1
  N  N3  1  0.49704600  0.00264700  0.27544800  1
  O  O0  1  0.11793300  0.84744000  0.94534100  1
  O  O1  1  0.88206700  0.34744000  0.55465900  1
  O  O2  1  0.61793300  0.65256000  0.05465900  1
  O  O3  1  0.38206700  0.15256000  0.44534100  1
  O  O4  1  0.28499600  0.63217000  0.89390200  1
  O  O5  1  0.71500400  0.13217000  0.60609800  1
  O  O6  1  0.78499600  0.86783000  0.10609800  1
  O  O7  1  0.21500400  0.36783000  0.39390200  1
  O  O8  1  0.89010300  0.13338100  0.97123100  1
  O  O9  1  0.10989700  0.63338100  0.52876900  1
  O  O10  1  0.39010300  0.36661900  0.02876900  1
  O  O11  1  0.60989700  0.86661900  0.47123100  1
  O  O12  1  0.70686900  0.32184300  0.90399200  1
  O  O13  1  0.29313100  0.82184300  0.59600800  1
  O  O14  1  0.20686900  0.17815700  0.09600800  1
  O  O15  1  0.79313100  0.67815700  0.40399200  1
  O  O16  1  0.15645100  0.88653000  0.18235500  1
  O  O17  1  0.84354900  0.38653000  0.31764500  1
  O  O18  1  0.65645100  0.61347000  0.81764500  1
  O  O19  1  0.34354900  0.11347000  0.68235500  1
  O  O20  1  0.18673400  0.68571800  0.29372600  1
  O  O21  1  0.81326600  0.18571800  0.20627400  1
  O  O22  1  0.68673400  0.81428200  0.70627400  1
  O  O23  1  0.31326600  0.31428200  0.79372600  1
loop_
_geom_bond_atom_site_label_1
_geom_bond_atom_site_label_2
_geom_bond_distance
_geom_bond_site_symmetry_2
Cu0 O6 1.979375 1_545
Cu0 O8 1.999626 1_554
Cu0 O14 2.003091 1_655
Cu0 O16 2.029866 1_645
Cu0 O0 2.509434 1_644
Cu0 O21 2.536774 1_555
Cu1 O7 1.979375 1_555
Cu1 O9 1.999626 1_555
Cu1 O15 2.003091 1_455
Cu1 O17 2.029866 1_455
Cu1 O1 2.509434 1_455
Cu1 O20 2.536774 1_555
Cu2 O4 1.979375 1_555
Cu2 O10 1.999626 1_556
Cu2 O12 2.003091 1_555
Cu2 O18 2.029866 1_555
Cu2 O2 2.509434 1_556
Cu2 O23 2.536774 1_555
Cu3 O5 1.979375 1_565
Cu3 O11 1.999626 1_555
Cu3 O13 2.003091 1_555
Cu3 O19 2.029866 1_565
Cu3 O3 2.509434 1_565
Cu3 O22 2.536774 1_555
H0 N0 1.055710 1_555
H0 O0 1.727747 1_555
H1 N1 1.055710 1_555
H1 O1 1.727747 1_555
H2 N2 1.055710 1_555
H2 O2 1.727747 1_555
H3 N3 1.055710 1_555
H3 O3 1.727747 1_555
H4 N0 1.027817 1_645
H5 N1 1.027817 1_455
H6 N2 1.027817 1_555
H7 N3 1.027817 1_565
H8 N0 1.043006 1_545
H9 N1 1.043006 1_555
H10 N2 1.043006 1_555
H11 N3 1.043006 1_565
H12 N0 1.039232 1_655
H13 N1 1.039232 1_455
H14 N2 1.039232 1_555
H15 N3 1.039232 1_555
C0 H16 1.108541 1_556
C0 O0 1.259829 1_555
C0 O4 1.284182 1_555
C1 H17 1.108541 1_555
C1 O1 1.259829 1_555
C1 O5 1.284182 1_555
C2 H18 1.108541 1_554
C2 O2 1.259829 1_555
C2 O6 1.284182 1_555
C3 H19 1.108541 1_555
C3 O3 1.259829 1_555
C3 O7 1.284182 1_555
C4 H20 1.104043 1_556
C4 O12 1.272104 1_555
C4 O8 1.276018 1_555
C5 H21 1.104043 1_555
C5 O13 1.272104 1_555
C5 O9 1.276018 1_555
C6 H22 1.104043 1_554
C6 O14 1.272104 1_555
C6 O10 1.276018 1_555
C7 H23 1.104043 1_555
C7 O15 1.272104 1_555
C7 O11 1.276018 1_555
C8 H24 1.106934 1_455
C8 O20 1.256853 1_555
C8 O16 1.292779 1_555
C9 H25 1.106934 1_655
C9 O21 1.256853 1_555
C9 O17 1.292779 1_555
C10 H26 1.106934 1_555
C10 O22 1.256853 1_555
C10 O18 1.292779 1_555
C11 H27 1.106934 1_555
C11 O23 1.256853 1_555
C11 O19 1.292779 1_555
