# generated using pymatgen
data_LaH16C4Cl3O4
_symmetry_space_group_name_H-M   'P 1'
_cell_length_a   18.85469200
_cell_length_b   8.60568200
_cell_length_c   9.03314277
_cell_angle_alpha   70.99787091
_cell_angle_beta   90.00000000
_cell_angle_gamma   90.00000000
_symmetry_Int_Tables_number   1
_chemical_formula_structural   LaH16C4Cl3O4
_chemical_formula_sum   'La4 H64 C16 Cl12 O16'
_cell_volume   1385.82413005
_cell_formula_units_Z   4
loop_
 _symmetry_equiv_pos_site_id
 _symmetry_equiv_pos_as_xyz
  1  'x, y, z'
loop_
 _atom_site_type_symbol
 _atom_site_label
 _atom_site_symmetry_multiplicity
 _atom_site_fract_x
 _atom_site_fract_y
 _atom_site_fract_z
 _atom_site_occupancy
  La  La0  1  0.91177900  0.37017600  0.17681400  1
  La  La1  1  0.41177900  0.12982400  0.82318600  1
  La  La2  1  0.08822100  0.62982400  0.82318600  1
  La  La3  1  0.58822100  0.87017600  0.17681400  1
  H  H0  1  0.82377500  0.06884100  0.16442900  1
  H  H1  1  0.32377500  0.43115900  0.83557100  1
  H  H2  1  0.17622500  0.93115900  0.83557100  1
  H  H3  1  0.67622500  0.56884100  0.16442900  1
  H  H4  1  0.82744400  0.62394700  0.28878800  1
  H  H5  1  0.32744400  0.87605300  0.71121200  1
  H  H6  1  0.17255600  0.37605300  0.71121200  1
  H  H7  1  0.67255600  0.12394700  0.28878800  1
  H  H8  1  0.90240500  0.68544100  0.89495700  1
  H  H9  1  0.40240500  0.81455900  0.10504300  1
  H  H10  1  0.09759500  0.31455900  0.10504300  1
  H  H11  1  0.59759500  0.18544100  0.89495700  1
  H  H12  1  0.93519700  0.11413400  0.51239100  1
  H  H13  1  0.43519700  0.38586600  0.48760900  1
  H  H14  1  0.06480300  0.88586600  0.48760900  1
  H  H15  1  0.56480300  0.61413400  0.51239100  1
  H  H16  1  0.82190400  0.07814400  0.62317400  1
  H  H17  1  0.32190400  0.42185600  0.37682600  1
  H  H18  1  0.17809600  0.92185600  0.37682600  1
  H  H19  1  0.67809600  0.57814400  0.62317400  1
  H  H20  1  0.87414900  0.21669500  0.69087600  1
  H  H21  1  0.37414900  0.28330500  0.30912400  1
  H  H22  1  0.12585100  0.78330500  0.30912400  1
  H  H23  1  0.62585100  0.71669500  0.69087600  1
  H  H24  1  0.81027900  0.29518200  0.53670800  1
  H  H25  1  0.31027900  0.20481800  0.46329200  1
  H  H26  1  0.18972100  0.70481800  0.46329200  1
  H  H27  1  0.68972100  0.79518200  0.53670800  1
  H  H28  1  0.94316000  0.92752200  0.14620900  1
  H  H29  1  0.44316000  0.57247800  0.85379100  1
  H  H30  1  0.05684000  0.07247800  0.85379100  1
  H  H31  1  0.55684000  0.42752200  0.14620900  1
  H  H32  1  0.86488300  0.91647400  0.03706300  1
  H  H33  1  0.36488300  0.58352600  0.96293700  1
  H  H34  1  0.13511700  0.08352600  0.96293700  1
  H  H35  1  0.63511700  0.41647400  0.03706300  1
  H  H36  1  0.93246100  0.06580700  0.95138500  1
  H  H37  1  0.43246100  0.43419300  0.04861500  1
  H  H38  1  0.06753900  0.93419300  0.04861500  1
  H  H39  1  0.56753900  0.56580700  0.95138500  1
  H  H40  1  0.95909800  0.67443400  0.39460000  1
  H  H41  1  0.45909800  0.82556600  0.60540000  1
  H  H42  1  0.04090200  0.32556600  0.60540000  1
  H  H43  1  0.54090200  0.17443400  0.39460000  1
  H  H44  1  0.87396200  0.73528800  0.44363000  1
  H  H45  1  0.37396200  0.76471200  0.55637000  1
  H  H46  1  0.12603800  0.26471200  0.55637000  1
  H  H47  1  0.62603800  0.23528800  0.44363000  1
  H  H48  1  0.90856100  0.53701600  0.55087100  1
  H  H49  1  0.40856100  0.96298400  0.44912900  1
  H  H50  1  0.09143900  0.46298400  0.44912900  1
  H  H51  1  0.59143900  0.03701600  0.55087100  1
  H  H52  1  0.75567900  0.66723500  0.93186800  1
  H  H53  1  0.25567900  0.83276500  0.06813200  1
  H  H54  1  0.24432100  0.33276500  0.06813200  1
  H  H55  1  0.74432100  0.16723500  0.93186800  1
  H  H56  1  0.80938000  0.75262800  0.76046300  1
  H  H57  1  0.30938000  0.74737200  0.23953700  1
  H  H58  1  0.19062000  0.24737200  0.23953700  1
  H  H59  1  0.69062000  0.25262800  0.76046300  1
  H  H60  1  0.79136100  0.53655500  0.83009700  1
  H  H61  1  0.29136100  0.96344500  0.16990300  1
  H  H62  1  0.20863900  0.46344500  0.16990300  1
  H  H63  1  0.70863900  0.03655500  0.83009700  1
  C  C0  1  0.84898400  0.19786100  0.58821400  1
  C  C1  1  0.34898400  0.30213900  0.41178600  1
  C  C2  1  0.15101600  0.80213900  0.41178600  1
  C  C3  1  0.65101600  0.69786100  0.58821400  1
  C  C4  1  0.90462100  0.99882000  0.05960300  1
  C  C5  1  0.40462100  0.50118000  0.94039700  1
  C  C6  1  0.09537900  0.00118000  0.94039700  1
  C  C7  1  0.59537900  0.49882000  0.05960300  1
  C  C8  1  0.90535000  0.63169300  0.43492400  1
  C  C9  1  0.40535000  0.86830700  0.56507600  1
  C  C10  1  0.09465000  0.36830700  0.56507600  1
  C  C11  1  0.59465000  0.13169300  0.43492400  1
  C  C12  1  0.80123900  0.64573500  0.86542100  1
  C  C13  1  0.30123900  0.85426500  0.13457900  1
  C  C14  1  0.19876100  0.35426500  0.13457900  1
  C  C15  1  0.69876100  0.14573500  0.86542100  1
  Cl  Cl0  1  0.02258500  0.61106700  0.12470400  1
  Cl  Cl1  1  0.52258500  0.88893300  0.87529600  1
  Cl  Cl2  1  0.97741500  0.38893300  0.87529600  1
  Cl  Cl3  1  0.47741500  0.11106700  0.12470400  1
  Cl  Cl4  1  0.03211000  0.15668600  0.28692000  1
  Cl  Cl5  1  0.53211000  0.34331400  0.71308000  1
  Cl  Cl6  1  0.96789000  0.84331400  0.71308000  1
  Cl  Cl7  1  0.46789000  0.65668600  0.28692000  1
  Cl  Cl8  1  0.76014300  0.33262800  0.21926400  1
  Cl  Cl9  1  0.26014300  0.16737200  0.78073600  1
  Cl  Cl10  1  0.23985700  0.66737200  0.78073600  1
  Cl  Cl11  1  0.73985700  0.83262800  0.21926400  1
  O  O0  1  0.90144400  0.20546100  0.47014000  1
  O  O1  1  0.40144400  0.29453900  0.52986000  1
  O  O2  1  0.09855600  0.79453900  0.52986000  1
  O  O3  1  0.59855600  0.70546100  0.47014000  1
  O  O4  1  0.86907200  0.11716100  0.11736100  1
  O  O5  1  0.36907200  0.38283900  0.88263900  1
  O  O6  1  0.13092800  0.88283900  0.88263900  1
  O  O7  1  0.63092800  0.61716100  0.11736100  1
  O  O8  1  0.87230800  0.56486700  0.32432000  1
  O  O9  1  0.37230800  0.93513300  0.67568000  1
  O  O10  1  0.12769200  0.43513300  0.67568000  1
  O  O11  1  0.62769200  0.06486700  0.32432000  1
  O  O12  1  0.86340600  0.62303900  0.96280100  1
  O  O13  1  0.36340600  0.87696100  0.03719900  1
  O  O14  1  0.13659400  0.37696100  0.03719900  1
  O  O15  1  0.63659400  0.12303900  0.96280100  1
loop_
_geom_bond_atom_site_label_1
_geom_bond_atom_site_label_2
_geom_bond_distance
_geom_bond_site_symmetry_2
La0 O4 2.537563 1_555
La0 O12 2.562206 1_554
La0 O8 2.567132 1_555
La0 O0 2.573340 1_555
La1 O5 2.537563 1_555
La1 O13 2.562206 1_546
La1 O9 2.567132 1_545
La1 O1 2.573340 1_555
La2 O6 2.537563 1_555
La2 O14 2.562206 1_556
La2 O10 2.567132 1_555
La2 O2 2.573340 1_555
La3 O7 2.537563 1_555
La3 O15 2.562206 1_564
La3 O11 2.567132 1_565
La3 O3 2.573340 1_555
H0 O4 0.983855 1_555
H1 O5 0.983855 1_555
H2 O6 0.983855 1_555
H3 O7 0.983855 1_555
H4 O8 0.985285 1_555
H5 O9 0.985285 1_555
H6 O10 0.985285 1_555
H7 O11 0.985285 1_555
H8 O12 0.995154 1_555
H9 O13 0.995154 1_555
H10 O14 0.995154 1_555
H11 O15 0.995154 1_555
H12 O0 0.986420 1_555
H13 O1 0.986420 1_555
H14 O2 0.986420 1_555
H15 O3 0.986420 1_555
C0 H24 1.093943 1_555
C0 H20 1.099671 1_555
C0 H16 1.099983 1_555
C0 O0 1.440415 1_555
C1 H25 1.093943 1_555
C1 H21 1.099671 1_555
C1 H17 1.099983 1_555
C1 O1 1.440415 1_555
C2 H26 1.093943 1_555
C2 H22 1.099671 1_555
C2 H18 1.099983 1_555
C2 O2 1.440415 1_555
C3 H27 1.093943 1_555
C3 H23 1.099671 1_555
C3 H19 1.099983 1_555
C3 O3 1.440415 1_555
C4 H36 1.093838 1_564
C4 H32 1.094972 1_555
C4 H28 1.097232 1_555
C4 O4 1.450732 1_565
C5 H37 1.093838 1_556
C5 H33 1.094972 1_555
C5 H29 1.097232 1_555
C5 O5 1.450732 1_555
C6 H38 1.093838 1_546
C6 H34 1.094972 1_555
C6 H30 1.097232 1_555
C6 O6 1.450732 1_545
C7 H39 1.093838 1_554
C7 H35 1.094972 1_555
C7 H31 1.097232 1_555
C7 O7 1.450732 1_555
C8 H44 1.094013 1_555
C8 H40 1.098956 1_555
C8 H48 1.099439 1_555
C8 O8 1.446102 1_555
C9 H45 1.094013 1_555
C9 H41 1.098956 1_555
C9 H49 1.099439 1_555
C9 O9 1.446102 1_555
C10 H46 1.094013 1_555
C10 H42 1.098956 1_555
C10 H50 1.099439 1_555
C10 O10 1.446102 1_555
C11 H47 1.094013 1_555
C11 H43 1.098956 1_555
C11 H51 1.099439 1_555
C11 O11 1.446102 1_555
C12 H56 1.095765 1_555
C12 H52 1.097606 1_555
C12 H60 1.102056 1_555
C12 O12 1.440124 1_555
C13 H57 1.095765 1_555
C13 H53 1.097606 1_555
C13 H61 1.102056 1_555
C13 O13 1.440124 1_555
C14 H58 1.095765 1_555
C14 H54 1.097606 1_555
C14 H62 1.102056 1_555
C14 O14 1.440124 1_555
C15 H59 1.095765 1_555
C15 H55 1.097606 1_555
C15 H63 1.102056 1_555
C15 O15 1.440124 1_555
Cl0 La0 2.872001 1_455
Cl0 La2 2.947809 1_554
Cl1 La1 2.872001 1_565
Cl1 La3 2.947809 1_556
Cl2 La2 2.872001 1_655
Cl2 La0 2.947809 1_556
Cl3 La3 2.872001 1_545
Cl3 La1 2.947809 1_554
Cl4 H10 2.148472 1_555
Cl4 La0 2.884814 1_455
Cl5 H11 2.148472 1_555
Cl5 La1 2.884814 1_555
Cl6 H8 2.148472 1_555
Cl6 La2 2.884814 1_655
Cl7 H9 2.148472 1_555
Cl7 La3 2.884814 1_555
Cl8 La0 2.888759 1_555
Cl9 La1 2.888759 1_555
Cl10 La2 2.888759 1_555
Cl11 La3 2.888759 1_555
