# generated using pymatgen
data_NaMg14Ni
_symmetry_space_group_name_H-M   'P 1'
_cell_length_a   6.42418379
_cell_length_b   6.42418327
_cell_length_c   9.87419215
_cell_angle_alpha   90.00000000
_cell_angle_beta   90.00000000
_cell_angle_gamma   120.00000272
_symmetry_Int_Tables_number   1
_chemical_formula_structural   NaMg14Ni
_chemical_formula_sum   'Na1 Mg14 Ni1'
_cell_volume   352.91333890
_cell_formula_units_Z   1
loop_
 _symmetry_equiv_pos_site_id
 _symmetry_equiv_pos_as_xyz
  1  'x, y, z'
loop_
 _atom_site_type_symbol
 _atom_site_label
 _atom_site_symmetry_multiplicity
 _atom_site_fract_x
 _atom_site_fract_y
 _atom_site_fract_z
 _atom_site_occupancy
  Na  Na0  1  0.16666700  0.33333300  0.62500000  1
  Mg  Mg0  1  0.15763771  0.82881836  0.12500000  1
  Mg  Mg1  1  0.17500017  0.83749959  0.62500000  1
  Mg  Mg2  1  0.67118164  0.34236229  0.12500000  1
  Mg  Mg3  1  0.66250041  0.32499983  0.62500000  1
  Mg  Mg4  1  0.67118164  0.82881836  0.12500000  1
  Mg  Mg5  1  0.66250041  0.83749959  0.62500000  1
  Mg  Mg6  1  0.32709858  0.17290142  0.35665775  1
  Mg  Mg7  1  0.32709858  0.17290142  0.89334225  1
  Mg  Mg8  1  0.32709858  0.65419815  0.35665775  1
  Mg  Mg9  1  0.32709858  0.65419815  0.89334225  1
  Mg  Mg10  1  0.84580185  0.17290142  0.35665775  1
  Mg  Mg11  1  0.84580185  0.17290142  0.89334225  1
  Mg  Mg12  1  0.83333300  0.66666700  0.38034173  1
  Mg  Mg13  1  0.83333300  0.66666700  0.86965827  1
  Ni  Ni0  1  0.16666700  0.33333300  0.12500000  1
loop_
_geom_bond_atom_site_label_1
_geom_bond_atom_site_label_2
_geom_bond_distance
_geom_bond_site_symmetry_2
Mg0 Mg9 2.982811 1_554
Mg0 Mg8 2.982811 1_555
Mg0 Mg6 2.982818 1_565
Mg0 Mg7 2.982818 1_564
Mg0 Mg12 3.100373 1_455
Mg0 Mg13 3.100373 1_454
Mg0 Mg2 3.125083 1_455
Mg0 Mg4 3.125083 1_455
Mg0 Ni0 3.212484 1_565
Mg0 Ni0 3.212484 1_555
Mg0 Mg2 3.299100 1_565
Mg0 Mg4 3.299101 1_555
Mg1 Mg12 3.073988 1_455
Mg1 Mg13 3.073988 1_455
Mg1 Mg3 3.131791 1_565
Mg1 Mg5 3.131791 1_555
Mg1 Na0 3.212426 1_565
Mg1 Na0 3.212426 1_555
Mg1 Mg8 3.242331 1_555
Mg1 Mg9 3.242331 1_555
Mg1 Mg7 3.242338 1_565
Mg1 Mg6 3.242338 1_565
Mg1 Mg3 3.292392 1_455
Mg1 Mg5 3.292393 1_455
Mg2 Mg7 2.982818 1_554
Mg2 Mg6 2.982818 1_555
Mg2 Mg4 3.125083 1_555
Mg2 Ni0 3.212485 1_555
Mg2 Ni0 3.212485 1_655
Mg2 Mg4 3.299100 1_545
Mg3 Mg5 3.131791 1_545
Mg3 Na0 3.212426 1_555
Mg3 Na0 3.212426 1_655
Mg3 Mg6 3.242338 1_555
Mg3 Mg7 3.242338 1_555
Mg3 Mg5 3.292392 1_555
Mg4 Mg9 2.982818 1_554
Mg4 Mg8 2.982818 1_555
Mg4 Ni0 3.212484 1_665
Mg4 Ni0 3.212484 1_555
Mg5 Na0 3.212426 1_555
Mg5 Na0 3.212426 1_665
Mg5 Mg8 3.242337 1_555
Mg5 Mg9 3.242337 1_555
Mg6 Ni0 2.901555 1_555
Mg6 Mg8 3.091938 1_555
Mg6 Na0 3.194899 1_555
Mg6 Mg8 3.332245 1_545
Mg7 Ni0 2.901555 1_556
Mg7 Mg9 3.091938 1_555
Mg7 Na0 3.194899 1_555
Mg7 Mg9 3.332245 1_545
Mg8 Ni0 2.901561 1_555
Mg8 Na0 3.194905 1_555
Mg9 Ni0 2.901561 1_556
Mg9 Na0 3.194905 1_555
Mg10 Ni0 2.901561 1_655
Mg10 Mg2 2.982811 1_555
Mg10 Mg4 2.982817 1_545
Mg10 Mg8 3.091938 1_655
Mg10 Mg6 3.091939 1_655
Mg10 Na0 3.194906 1_655
Mg10 Mg12 3.221341 1_545
Mg10 Mg12 3.221341 1_555
Mg10 Mg3 3.242331 1_555
Mg10 Mg5 3.242337 1_545
Mg10 Mg8 3.332245 1_545
Mg10 Mg6 3.332245 1_555
Mg11 Ni0 2.901561 1_656
Mg11 Mg2 2.982811 1_556
Mg11 Mg4 2.982817 1_546
Mg11 Mg9 3.091938 1_655
Mg11 Mg7 3.091939 1_655
Mg11 Na0 3.194906 1_655
Mg11 Mg13 3.221341 1_545
Mg11 Mg13 3.221341 1_555
Mg11 Mg3 3.242331 1_555
Mg11 Mg5 3.242337 1_545
Mg11 Mg9 3.332245 1_545
Mg11 Mg7 3.332245 1_555
Mg12 Mg5 3.073981 1_555
Mg12 Mg3 3.073988 1_555
Mg12 Mg4 3.100367 1_555
Mg12 Mg2 3.100373 1_555
Mg12 Mg6 3.221341 1_665
Mg12 Mg6 3.221341 1_555
Mg12 Mg8 3.221341 1_555
Mg12 Mg8 3.221341 1_655
Mg13 Mg5 3.073981 1_555
Mg13 Mg3 3.073988 1_555
Mg13 Mg4 3.100367 1_556
Mg13 Mg2 3.100373 1_556
Mg13 Mg7 3.221341 1_665
Mg13 Mg7 3.221341 1_555
Mg13 Mg9 3.221341 1_555
Mg13 Mg9 3.221341 1_655
