# generated using pymatgen
data_Nd3HoZr4O14
_symmetry_space_group_name_H-M   'P 1'
_cell_length_a   7.58322669
_cell_length_b   7.58322669
_cell_length_c   7.58322730
_cell_angle_alpha   60.04903847
_cell_angle_beta   60.04903847
_cell_angle_gamma   60.04903143
_symmetry_Int_Tables_number   1
_chemical_formula_structural   Nd3HoZr4O14
_chemical_formula_sum   'Nd3 Ho1 Zr4 O14'
_cell_volume   308.69498366
_cell_formula_units_Z   1
loop_
 _symmetry_equiv_pos_site_id
 _symmetry_equiv_pos_as_xyz
  1  'x, y, z'
loop_
 _atom_site_type_symbol
 _atom_site_label
 _atom_site_symmetry_multiplicity
 _atom_site_fract_x
 _atom_site_fract_y
 _atom_site_fract_z
 _atom_site_occupancy
  Nd  Nd0  1  0.00000000  0.50000000  0.50000000  1
  Nd  Nd1  1  0.50000000  0.50000000  0.00000000  1
  Nd  Nd2  1  0.50000000  0.00000000  0.50000000  1
  Ho  Ho0  1  0.50000000  0.50000000  0.50000000  1
  Zr  Zr0  1  0.00000000  0.00000000  0.00000000  1
  Zr  Zr1  1  0.50000000  0.00000000  0.00000000  1
  Zr  Zr2  1  0.00000000  0.00000000  0.50000000  1
  Zr  Zr3  1  0.00000000  0.50000000  0.00000000  1
  O  O0  1  0.37945100  0.37945100  0.37945100  1
  O  O1  1  0.62054900  0.62054900  0.62054900  1
  O  O2  1  0.91062100  0.33697200  0.33697200  1
  O  O3  1  0.33675000  0.91318900  0.91318900  1
  O  O4  1  0.33697200  0.33697200  0.91062100  1
  O  O5  1  0.91318900  0.91318900  0.33675000  1
  O  O6  1  0.91318900  0.33675000  0.91318900  1
  O  O7  1  0.33697200  0.91062100  0.33697200  1
  O  O8  1  0.08937900  0.66302800  0.66302800  1
  O  O9  1  0.66325000  0.08681100  0.08681100  1
  O  O10  1  0.66302800  0.66302800  0.08937900  1
  O  O11  1  0.08681100  0.08681100  0.66325000  1
  O  O12  1  0.08681100  0.66325000  0.08681100  1
  O  O13  1  0.66302800  0.08937900  0.66302800  1
loop_
_geom_bond_atom_site_label_1
_geom_bond_atom_site_label_2
_geom_bond_distance
_geom_bond_site_symmetry_2
Nd0 O0 2.352127 1_555
Nd0 O1 2.352127 1_455
Nd0 O5 2.581568 1_455
Nd0 O11 2.581568 1_555
Nd0 O6 2.581568 1_455
Nd0 O12 2.581568 1_555
Nd0 O8 2.591455 1_555
Nd0 O2 2.591455 1_455
Nd1 O0 2.352127 1_555
Nd1 O1 2.352127 1_554
Nd1 O6 2.581568 1_554
Nd1 O3 2.581568 1_554
Nd1 O12 2.581568 1_555
Nd1 O9 2.581568 1_555
Nd1 O10 2.591455 1_555
Nd1 O4 2.591455 1_554
Nd2 O1 2.352127 1_545
Nd2 O0 2.352127 1_555
Nd2 O5 2.581568 1_545
Nd2 O11 2.581568 1_555
Nd2 O3 2.581568 1_545
Nd2 O9 2.581568 1_555
Nd2 O13 2.591455 1_555
Nd2 O7 2.591455 1_545
Ho0 O0 2.238372 1_555
Ho0 O1 2.238372 1_555
Ho0 O13 2.567319 1_555
Ho0 O7 2.567319 1_555
Ho0 O8 2.567319 1_555
Ho0 O2 2.567319 1_555
Ho0 O4 2.567319 1_555
Ho0 O10 2.567319 1_555
O2 Zr2 2.114328 1_655
O2 Zr3 2.114328 1_655
O3 Zr1 2.111756 1_566
O3 Zr0 2.112678 1_566
O4 Zr3 2.114328 1_556
O4 Zr1 2.114328 1_556
O5 Zr2 2.111757 1_665
O5 Zr0 2.112679 1_665
O6 Zr3 2.111756 1_656
O6 Zr0 2.112678 1_656
O7 Zr2 2.114328 1_565
O7 Zr1 2.114328 1_565
O8 Zr2 2.114328 1_565
O8 Zr3 2.114328 1_556
O9 Zr1 2.111756 1_555
O9 Zr0 2.112678 1_655
O10 Zr3 2.114328 1_655
O10 Zr1 2.114328 1_565
O11 Zr2 2.111757 1_555
O11 Zr0 2.112679 1_556
O12 Zr3 2.111756 1_555
O12 Zr0 2.112678 1_565
O13 Zr2 2.114328 1_655
O13 Zr1 2.114328 1_556
