# generated using pymatgen
data_Li7Mn2(CoO4)3
_symmetry_space_group_name_H-M   'P 1'
_cell_length_a   2.86106300
_cell_length_b   5.23047600
_cell_length_c   14.56820181
_cell_angle_alpha   87.15246903
_cell_angle_beta   90.00000000
_cell_angle_gamma   90.00000000
_symmetry_Int_Tables_number   1
_chemical_formula_structural   Li7Mn2(CoO4)3
_chemical_formula_sum   'Li7 Mn2 Co3 O12'
_cell_volume   217.73989818
_cell_formula_units_Z   1
loop_
 _symmetry_equiv_pos_site_id
 _symmetry_equiv_pos_as_xyz
  1  'x, y, z'
loop_
 _atom_site_type_symbol
 _atom_site_label
 _atom_site_symmetry_multiplicity
 _atom_site_fract_x
 _atom_site_fract_y
 _atom_site_fract_z
 _atom_site_occupancy
  Li  Li0  1  0.50000000  0.49745600  0.99407200  1
  Li  Li1  1  0.00000000  0.32534700  0.82648500  1
  Li  Li2  1  0.50000000  0.15899000  0.66207800  1
  Li  Li3  1  0.00000000  0.99842400  0.49750400  1
  Li  Li4  1  0.00000000  0.66631400  0.17344800  1
  Li  Li5  1  0.50000000  0.85377300  0.34480300  1
  Li  Li6  1  0.50000000  0.50095900  0.50149000  1
  Mn  Mn0  1  0.00000000  0.00251600  0.99707000  1
  Mn  Mn1  1  0.50000000  0.17779200  0.16950200  1
  Co  Co0  1  0.50000000  0.81655600  0.82937000  1
  Co  Co1  1  0.00000000  0.63169700  0.65643700  1
  Co  Co2  1  0.00000000  0.36927700  0.34934500  1
  O  O0  1  0.50000000  0.87699500  0.08143900  1
  O  O1  1  0.00000000  0.67399300  0.90784500  1
  O  O2  1  0.50000000  0.51383400  0.74166400  1
  O  O3  1  0.00000000  0.35189900  0.59026500  1
  O  O4  1  0.00000000  0.01339900  0.23744500  1
  O  O5  1  0.50000000  0.17540400  0.41151600  1
  O  O6  1  0.50000000  0.15712300  0.92322000  1
  O  O7  1  0.00000000  0.96875500  0.75898800  1
  O  O8  1  0.50000000  0.81831100  0.59473200  1
  O  O9  1  0.00000000  0.65744700  0.40907100  1
  O  O10  1  0.00000000  0.33514300  0.09424000  1
  O  O11  1  0.50000000  0.45859500  0.24797200  1
loop_
_geom_bond_atom_site_label_1
_geom_bond_atom_site_label_2
_geom_bond_distance
_geom_bond_site_symmetry_2
Li0 O1 2.088483 1_655
Li0 O1 2.088483 1_555
Li0 O6 2.101603 1_555
Li0 O10 2.184845 1_656
Li0 O10 2.184845 1_556
Li0 O0 2.410790 1_556
Li1 O2 2.103393 1_455
Li1 O2 2.103393 1_555
Li1 O7 2.151253 1_545
Li1 O6 2.164123 1_555
Li1 O6 2.164123 1_455
Li1 O1 2.223753 1_555
Li2 O3 2.013489 1_655
Li2 O3 2.013489 1_555
Li2 O8 2.076413 1_545
Li2 O7 2.211358 1_545
Li2 O7 2.211358 1_645
Li2 O2 2.236698 1_555
Li3 O5 2.087424 1_565
Li3 O5 2.087424 1_465
Li3 O8 2.192634 1_455
Li3 O8 2.192634 1_555
Li3 O9 2.251400 1_555
Li3 O3 2.343637 1_565
Li4 O11 2.070831 1_455
Li4 O11 2.070831 1_555
Li4 O4 2.081619 1_565
Li4 O10 2.128515 1_555
Li4 O0 2.216003 1_455
Li4 O0 2.216003 1_555
Li5 O9 1.970273 1_555
Li5 O9 1.970273 1_655
Li5 O5 1.984211 1_565
Li5 O4 2.249423 1_565
Li5 O4 2.249423 1_665
Li5 O11 2.559689 1_555
Li6 O3 2.055895 1_555
Li6 O3 2.055895 1_655
Li6 O9 2.102288 1_555
Li6 O9 2.102288 1_655
Li6 O8 2.196466 1_555
Li6 O5 2.199865 1_555
Mn0 O6 1.942010 1_555
Mn0 O6 1.942010 1_455
Mn0 O0 1.976861 1_546
Mn0 O0 1.976861 1_446
Mn0 O1 2.205490 1_545
Mn0 O10 2.296845 1_556
Mn1 O11 1.905473 1_555
Mn1 O4 1.918574 1_555
Mn1 O4 1.918574 1_655
Mn1 O10 1.958645 1_655
Mn1 O10 1.958645 1_555
Mn1 O0 2.078879 1_545
Co0 O7 1.910595 1_655
Co0 O7 1.910595 1_555
Co0 O1 1.955695 1_655
Co0 O1 1.955695 1_555
Co0 O2 2.083427 1_555
Co0 O6 2.298786 1_565
Co1 O3 1.791995 1_555
Co1 O8 1.928743 1_455
Co1 O8 1.928743 1_555
Co1 O2 1.972815 1_455
Co1 O2 1.972815 1_555
Co1 O7 2.366803 1_555
Co2 O9 1.777422 1_555
Co2 O5 1.950330 1_455
Co2 O5 1.950330 1_555
Co2 O11 2.092159 1_555
Co2 O11 2.092159 1_455
Co2 O4 2.534529 1_555
