# generated using pymatgen
data_Yb2PbS4
_symmetry_space_group_name_H-M   'P 1'
_cell_length_a   4.35561600
_cell_length_b   10.74195400
_cell_length_c   14.92065000
_cell_angle_alpha   90.00000000
_cell_angle_beta   90.00000000
_cell_angle_gamma   90.00000000
_symmetry_Int_Tables_number   1
_chemical_formula_structural   Yb2PbS4
_chemical_formula_sum   'Yb8 Pb4 S16'
_cell_volume   698.10478666
_cell_formula_units_Z   4
loop_
 _symmetry_equiv_pos_site_id
 _symmetry_equiv_pos_as_xyz
  1  'x, y, z'
loop_
 _atom_site_type_symbol
 _atom_site_label
 _atom_site_symmetry_multiplicity
 _atom_site_fract_x
 _atom_site_fract_y
 _atom_site_fract_z
 _atom_site_occupancy
  Yb  Yb0  1  0.25000000  0.44932800  0.38810400  1
  Yb  Yb1  1  0.25000000  0.94932800  0.11189600  1
  Yb  Yb2  1  0.75000000  0.55067200  0.61189600  1
  Yb  Yb3  1  0.75000000  0.05067200  0.88810400  1
  Yb  Yb4  1  0.25000000  0.39886800  0.89566500  1
  Yb  Yb5  1  0.25000000  0.89886800  0.60433500  1
  Yb  Yb6  1  0.75000000  0.60113200  0.10433500  1
  Yb  Yb7  1  0.75000000  0.10113200  0.39566500  1
  Pb  Pb0  1  0.25000000  0.76696300  0.30407500  1
  Pb  Pb1  1  0.25000000  0.26696300  0.19592500  1
  Pb  Pb2  1  0.75000000  0.23303700  0.69592500  1
  Pb  Pb3  1  0.75000000  0.73303700  0.80407500  1
  S  S0  1  0.25000000  0.17459100  0.81765800  1
  S  S1  1  0.25000000  0.67459100  0.68234200  1
  S  S2  1  0.75000000  0.82540900  0.18234200  1
  S  S3  1  0.75000000  0.32540900  0.31765800  1
  S  S4  1  0.25000000  0.19584900  0.50620100  1
  S  S5  1  0.25000000  0.69584900  0.99379900  1
  S  S6  1  0.75000000  0.80415100  0.49379900  1
  S  S7  1  0.75000000  0.30415100  0.00620100  1
  S  S8  1  0.25000000  0.03937700  0.29502300  1
  S  S9  1  0.25000000  0.53937700  0.20497700  1
  S  S10  1  0.75000000  0.96062300  0.70497700  1
  S  S11  1  0.75000000  0.46062300  0.79502300  1
  S  S12  1  0.25000000  0.37299400  0.57142000  1
  S  S13  1  0.25000000  0.87299400  0.92858000  1
  S  S14  1  0.75000000  0.62700600  0.42858000  1
  S  S15  1  0.75000000  0.12700600  0.07142000  1
loop_
_geom_bond_atom_site_label_1
_geom_bond_atom_site_label_2
_geom_bond_distance
_geom_bond_site_symmetry_2
Pb0 S9 2.857083 1_555
Pb0 S2 2.904494 1_455
Pb0 S2 2.904494 1_555
Pb0 S8 2.929374 1_565
Pb1 S8 2.857083 1_555
Pb1 S3 2.904494 1_455
Pb1 S3 2.904494 1_555
Pb1 S9 2.929374 1_555
Pb2 S11 2.857083 1_555
Pb2 S0 2.904494 1_555
Pb2 S0 2.904494 1_655
Pb2 S10 2.929374 1_545
Pb3 S10 2.857083 1_555
Pb3 S1 2.904494 1_655
Pb3 S1 2.904494 1_555
Pb3 S11 2.929374 1_555
S0 Yb4 2.675596 1_555
S0 Yb3 2.760357 1_555
S0 Yb3 2.760357 1_455
S1 Yb5 2.675596 1_555
S1 Yb2 2.760357 1_555
S1 Yb2 2.760357 1_455
S2 Yb6 2.675596 1_555
S2 Yb1 2.760357 1_555
S2 Yb1 2.760357 1_655
S3 Yb7 2.675596 1_555
S3 Yb0 2.760357 1_555
S3 Yb0 2.760357 1_655
S4 Yb7 2.915155 1_555
S4 Yb7 2.915155 1_455
S4 Yb0 3.243286 1_555
S4 Yb5 3.510135 1_545
S5 Yb6 2.915155 1_456
S5 Yb6 2.915155 1_556
S5 Yb1 3.243286 1_556
S5 Yb4 3.510135 1_555
S6 Yb5 2.915155 1_555
S6 Yb5 2.915155 1_655
S6 Yb2 3.243286 1_555
S6 Yb7 3.510135 1_565
S7 Yb4 2.915155 1_654
S7 Yb4 2.915155 1_554
S7 Yb3 3.243286 1_554
S7 Yb6 3.510135 1_555
S8 Yb7 2.727241 1_455
S8 Yb7 2.727241 1_555
S8 Yb1 2.898541 1_545
S9 Yb6 2.727241 1_455
S9 Yb6 2.727241 1_555
S9 Yb0 2.898541 1_555
S10 Yb5 2.727241 1_555
S10 Yb5 2.727241 1_655
S10 Yb3 2.898541 1_565
S11 Yb4 2.727241 1_655
S11 Yb4 2.727241 1_555
S11 Yb2 2.898541 1_555
S12 S4 2.137267 1_555
S12 Yb0 2.855459 1_555
S12 Yb2 2.958102 1_555
S12 Yb2 2.958102 1_455
S13 S5 2.137267 1_555
S13 Yb1 2.855459 1_556
S13 Yb3 2.958102 1_465
S13 Yb3 2.958102 1_565
S14 S6 2.137267 1_555
S14 Yb2 2.855459 1_555
S14 Yb0 2.958102 1_555
S14 Yb0 2.958102 1_655
S15 S7 2.137267 1_555
S15 Yb3 2.855459 1_554
S15 Yb1 2.958102 1_645
S15 Yb1 2.958102 1_545
