# generated using pymatgen
data_Dy3(GeRh)2
_symmetry_space_group_name_H-M   'P 1'
_cell_length_a   5.54190858
_cell_length_b   7.77260566
_cell_length_c   13.21889854
_cell_angle_alpha   90.00000000
_cell_angle_beta   90.00000000
_cell_angle_gamma   90.00000000
_symmetry_Int_Tables_number   1
_chemical_formula_structural   Dy3(GeRh)2
_chemical_formula_sum   'Dy12 Ge8 Rh8'
_cell_volume   569.40497988
_cell_formula_units_Z   4
loop_
 _symmetry_equiv_pos_site_id
 _symmetry_equiv_pos_as_xyz
  1  'x, y, z'
loop_
 _atom_site_type_symbol
 _atom_site_label
 _atom_site_symmetry_multiplicity
 _atom_site_fract_x
 _atom_site_fract_y
 _atom_site_fract_z
 _atom_site_occupancy
  Dy  Dy0  1  0.63044600  0.26152651  0.25000000  1
  Dy  Dy1  1  0.36955400  0.73847349  0.75000000  1
  Dy  Dy2  1  0.36955400  0.76152651  0.25000000  1
  Dy  Dy3  1  0.63044600  0.23847349  0.75000000  1
  Dy  Dy4  1  0.14630316  0.39668371  0.09991231  1
  Dy  Dy5  1  0.85369684  0.60331629  0.90008769  1
  Dy  Dy6  1  0.85369684  0.60331629  0.59991231  1
  Dy  Dy7  1  0.85369684  0.89668371  0.40008769  1
  Dy  Dy8  1  0.14630316  0.39668371  0.40008769  1
  Dy  Dy9  1  0.14630316  0.10331629  0.59991231  1
  Dy  Dy10  1  0.14630316  0.10331629  0.90008769  1
  Dy  Dy11  1  0.85369684  0.89668371  0.09991231  1
  Ge  Ge0  1  0.12989477  0.11346306  0.25000000  1
  Ge  Ge1  1  0.87010523  0.88653694  0.75000000  1
  Ge  Ge2  1  0.87010523  0.61346306  0.25000000  1
  Ge  Ge3  1  0.12989477  0.38653694  0.75000000  1
  Ge  Ge4  1  0.66242413  0.25000000  -0.00000000  1
  Ge  Ge5  1  0.33757587  0.75000000  -0.00000000  1
  Ge  Ge6  1  0.33757587  0.75000000  0.50000000  1
  Ge  Ge7  1  0.66242413  0.25000000  0.50000000  1
  Rh  Rh0  1  0.37357960  0.04312832  0.09232810  1
  Rh  Rh1  1  0.62642040  0.95687168  0.90767190  1
  Rh  Rh2  1  0.62642040  0.95687168  0.59232810  1
  Rh  Rh3  1  0.62642040  0.54312832  0.40767190  1
  Rh  Rh4  1  0.37357960  0.04312832  0.40767190  1
  Rh  Rh5  1  0.37357960  0.45687168  0.59232810  1
  Rh  Rh6  1  0.37357960  0.45687168  0.90767190  1
  Rh  Rh7  1  0.62642040  0.54312832  0.09232810  1
loop_
_geom_bond_atom_site_label_1
_geom_bond_atom_site_label_2
_geom_bond_distance
_geom_bond_site_symmetry_2
Dy0 Ge0 2.997615 1_655
Dy0 Ge0 3.003258 1_555
Dy0 Rh7 3.022474 1_555
Dy0 Rh3 3.022474 1_555
Dy0 Ge2 3.040855 1_555
Dy0 Rh0 3.041729 1_555
Dy0 Rh4 3.041729 1_555
Dy0 Ge7 3.310685 1_555
Dy0 Ge4 3.310685 1_555
Dy1 Ge1 2.997615 1_455
Dy1 Ge1 3.003258 1_555
Dy1 Rh5 3.022474 1_555
Dy1 Rh6 3.022474 1_555
Dy1 Ge3 3.040855 1_555
Dy1 Rh1 3.041729 1_555
Dy1 Rh2 3.041729 1_555
Dy1 Ge6 3.310685 1_555
Dy1 Ge5 3.310685 1_556
Dy2 Ge2 2.997615 1_455
Dy2 Ge2 3.003258 1_555
Dy2 Rh0 3.022474 1_565
Dy2 Rh4 3.022474 1_565
Dy2 Ge0 3.040855 1_565
Dy2 Rh3 3.041729 1_555
Dy2 Rh7 3.041729 1_555
Dy2 Ge6 3.310685 1_555
Dy2 Ge5 3.310685 1_555
Dy3 Ge3 2.997615 1_655
Dy3 Ge3 3.003258 1_555
Dy3 Rh1 3.022474 1_545
Dy3 Rh2 3.022474 1_545
Dy3 Ge1 3.040855 1_545
Dy3 Rh5 3.041729 1_555
Dy3 Rh6 3.041729 1_555
Dy3 Ge7 3.310685 1_555
Dy3 Ge4 3.310685 1_556
Dy4 Rh6 2.874550 1_554
Dy4 Rh7 2.895747 1_555
Dy4 Ge0 2.964877 1_555
Dy4 Ge2 3.019634 1_455
Dy4 Rh0 3.024610 1_555
Dy4 Rh7 3.099462 1_455
Dy4 Ge4 3.199256 1_455
Dy4 Ge5 3.226378 1_555
Dy4 Ge4 3.350445 1_555
Dy5 Rh7 2.874550 1_556
Dy5 Rh6 2.895747 1_555
Dy5 Ge1 2.964877 1_555
Dy5 Ge3 3.019634 1_655
Dy5 Rh1 3.024610 1_555
Dy5 Rh6 3.099462 1_655
Dy5 Ge5 3.199256 1_656
Dy5 Ge4 3.226378 1_556
Dy5 Ge5 3.350445 1_556
Dy6 Rh3 2.874550 1_555
Dy6 Rh5 2.895747 1_555
Dy6 Ge1 2.964877 1_555
Dy6 Ge3 3.019634 1_655
Dy6 Rh2 3.024610 1_555
Dy6 Rh5 3.099462 1_655
Dy6 Ge6 3.199256 1_655
Dy6 Ge7 3.226378 1_555
Dy6 Ge6 3.350445 1_555
Dy7 Rh2 2.874550 1_555
Dy7 Rh4 2.895747 1_565
Dy7 Ge2 2.964877 1_555
Dy7 Ge0 3.019634 1_665
Dy7 Rh3 3.024610 1_555
Dy7 Rh4 3.099462 1_665
Dy7 Ge6 3.199256 1_655
Dy7 Ge7 3.226378 1_565
Dy7 Ge6 3.350445 1_555
Dy8 Rh5 2.874550 1_555
Dy8 Rh3 2.895747 1_555
Dy8 Ge0 2.964877 1_555
Dy8 Ge2 3.019634 1_455
Dy8 Rh4 3.024610 1_555
Dy8 Rh3 3.099462 1_455
Dy8 Ge7 3.199256 1_455
Dy8 Ge6 3.226378 1_555
Dy8 Ge7 3.350445 1_555
Dy9 Rh4 2.874550 1_555
Dy9 Rh2 2.895747 1_545
Dy9 Ge3 2.964877 1_555
Dy9 Ge1 3.019634 1_445
Dy9 Rh5 3.024610 1_555
Dy9 Rh2 3.099462 1_445
Dy9 Ge7 3.199256 1_455
Dy9 Ge6 3.226378 1_545
Dy9 Ge7 3.350445 1_555
Dy10 Rh0 2.874550 1_556
Dy10 Rh1 2.895747 1_545
Dy10 Ge3 2.964877 1_555
Dy10 Ge1 3.019634 1_445
Dy10 Rh6 3.024610 1_555
Dy10 Rh1 3.099462 1_445
Dy10 Ge4 3.199256 1_456
Dy10 Ge5 3.226378 1_546
Dy10 Ge4 3.350445 1_556
Dy11 Rh1 2.874550 1_554
Dy11 Rh0 2.895747 1_565
Dy11 Ge2 2.964877 1_555
Dy11 Ge0 3.019634 1_665
Dy11 Rh7 3.024610 1_555
Dy11 Rh0 3.099462 1_665
Dy11 Ge5 3.199256 1_655
Dy11 Ge4 3.226378 1_565
Dy11 Ge5 3.350445 1_555
Ge0 Rh4 2.542981 1_555
Ge0 Rh0 2.542981 1_555
Ge1 Rh1 2.542981 1_555
Ge1 Rh2 2.542981 1_555
Ge2 Rh3 2.542981 1_555
Ge2 Rh7 2.542981 1_555
Ge3 Rh5 2.542981 1_555
Ge3 Rh6 2.542981 1_555
Ge4 Rh0 2.576317 1_555
Ge4 Rh6 2.576317 1_554
Ge4 Rh1 2.592363 1_544
Ge4 Rh7 2.592363 1_555
Ge5 Rh1 2.576317 1_554
Ge5 Rh7 2.576317 1_555
Ge5 Rh6 2.592363 1_554
Ge5 Rh0 2.592363 1_565
Ge6 Rh3 2.576317 1_555
Ge6 Rh2 2.576317 1_555
Ge6 Rh5 2.592363 1_555
Ge6 Rh4 2.592363 1_565
Ge7 Rh4 2.576317 1_555
Ge7 Rh5 2.576317 1_555
Ge7 Rh3 2.592363 1_555
Ge7 Rh2 2.592363 1_545
