# generated using pymatgen
data_Mn4Te3N2
_symmetry_space_group_name_H-M   'P 1'
_cell_length_a   6.42331400
_cell_length_b   10.67982100
_cell_length_c   9.72626600
_cell_angle_alpha   90.00000000
_cell_angle_beta   90.00000000
_cell_angle_gamma   90.00000000
_symmetry_Int_Tables_number   1
_chemical_formula_structural   Mn4Te3N2
_chemical_formula_sum   'Mn16 Te12 N8'
_cell_volume   667.22032784
_cell_formula_units_Z   4
loop_
 _symmetry_equiv_pos_site_id
 _symmetry_equiv_pos_as_xyz
  1  'x, y, z'
loop_
 _atom_site_type_symbol
 _atom_site_label
 _atom_site_symmetry_multiplicity
 _atom_site_fract_x
 _atom_site_fract_y
 _atom_site_fract_z
 _atom_site_occupancy
  Mn  Mn0  1  0.65509800  0.25000000  0.94159700  1
  Mn  Mn1  1  0.15509800  0.25000000  0.55840300  1
  Mn  Mn2  1  0.34490200  0.75000000  0.05840300  1
  Mn  Mn3  1  0.84490200  0.75000000  0.44159700  1
  Mn  Mn4  1  0.80839200  0.25000000  0.42696300  1
  Mn  Mn5  1  0.30839200  0.25000000  0.07303700  1
  Mn  Mn6  1  0.19160800  0.75000000  0.57303700  1
  Mn  Mn7  1  0.69160800  0.75000000  0.92696300  1
  Mn  Mn8  1  0.69603800  0.49177900  0.06048100  1
  Mn  Mn9  1  0.19603800  0.00822100  0.43951900  1
  Mn  Mn10  1  0.30396200  0.99177900  0.93951900  1
  Mn  Mn11  1  0.80396200  0.50822100  0.56048100  1
  Mn  Mn12  1  0.30396200  0.50822100  0.93951900  1
  Mn  Mn13  1  0.80396200  0.99177900  0.56048100  1
  Mn  Mn14  1  0.69603800  0.00822100  0.06048100  1
  Mn  Mn15  1  0.19603800  0.49177900  0.43951900  1
  Te  Te0  1  0.90964200  0.25000000  0.15598200  1
  Te  Te1  1  0.40964200  0.25000000  0.34401800  1
  Te  Te2  1  0.09035800  0.75000000  0.84401800  1
  Te  Te3  1  0.59035800  0.75000000  0.65598200  1
  Te  Te4  1  0.57441700  0.57080500  0.33042700  1
  Te  Te5  1  0.07441700  0.92919500  0.16957300  1
  Te  Te6  1  0.42558300  0.07080500  0.66957300  1
  Te  Te7  1  0.92558300  0.42919500  0.83042700  1
  Te  Te8  1  0.42558300  0.42919500  0.66957300  1
  Te  Te9  1  0.92558300  0.07080500  0.83042700  1
  Te  Te10  1  0.57441700  0.92919500  0.33042700  1
  Te  Te11  1  0.07441700  0.57080500  0.16957300  1
  N  N0  1  0.52711900  0.61981900  0.98424500  1
  N  N1  1  0.02711900  0.88018100  0.51575500  1
  N  N2  1  0.47288100  0.11981900  0.01575500  1
  N  N3  1  0.97288100  0.38018100  0.48424500  1
  N  N4  1  0.47288100  0.38018100  0.01575500  1
  N  N5  1  0.97288100  0.11981900  0.48424500  1
  N  N6  1  0.52711900  0.88018100  0.98424500  1
  N  N7  1  0.02711900  0.61981900  0.51575500  1
loop_
_geom_bond_atom_site_label_1
_geom_bond_atom_site_label_2
_geom_bond_distance
_geom_bond_site_symmetry_2
Mn0 N2 1.955282 1_556
Mn0 N4 1.955282 1_556
Mn0 Te0 2.649753 1_556
Mn0 Te7 2.801830 1_555
Mn0 Te9 2.801830 1_555
Mn1 N5 1.955282 1_455
Mn1 N3 1.955282 1_455
Mn1 Te1 2.649753 1_555
Mn1 Te8 2.801830 1_555
Mn1 Te6 2.801830 1_555
Mn2 N0 1.955282 1_554
Mn2 N6 1.955282 1_554
Mn2 Te2 2.649753 1_554
Mn2 Te5 2.801830 1_555
Mn2 Te11 2.801830 1_555
Mn3 N7 1.955282 1_655
Mn3 N1 1.955282 1_655
Mn3 Te3 2.649753 1_555
Mn3 Te4 2.801830 1_555
Mn3 Te10 2.801830 1_555
Mn4 N3 1.832947 1_555
Mn4 N5 1.832947 1_555
Mn4 Te1 2.685345 1_555
Mn4 Te0 2.714688 1_555
Mn5 N2 1.832947 1_555
Mn5 N4 1.832947 1_555
Mn5 Te0 2.685345 1_455
Mn5 Te1 2.714688 1_555
Mn6 N1 1.832947 1_555
Mn6 N7 1.832947 1_555
Mn6 Te3 2.685345 1_555
Mn6 Te2 2.714688 1_555
Mn7 N0 1.832947 1_555
Mn7 N6 1.832947 1_555
Mn7 Te2 2.685345 1_655
Mn7 Te3 2.714688 1_555
Mn8 N0 1.896571 1_554
Mn8 N4 1.914261 1_555
Mn8 Te7 2.761778 1_554
Mn8 Te11 2.783024 1_655
Mn8 Te4 2.866391 1_555
Mn8 Te0 3.068035 1_555
Mn9 N1 1.896571 1_545
Mn9 N5 1.914261 1_455
Mn9 Te6 2.761778 1_555
Mn9 Te10 2.783024 1_545
Mn9 Te5 2.866391 1_545
Mn9 Te1 3.068035 1_555
Mn10 N2 1.896571 1_566
Mn10 N6 1.914261 1_555
Mn10 Te5 2.761778 1_556
Mn10 Te9 2.783024 1_465
Mn10 Te6 2.866391 1_565
Mn10 Te2 3.068035 1_555
Mn11 N3 1.896571 1_555
Mn11 N7 1.914261 1_655
Mn11 Te4 2.761778 1_555
Mn11 Te8 2.783024 1_555
Mn11 Te7 2.866391 1_555
Mn11 Te3 3.068035 1_555
Mn12 N4 1.896571 1_556
Mn12 N0 1.914261 1_555
Mn12 Te11 2.761778 1_556
Mn12 Te7 2.783024 1_455
Mn12 Te8 2.866391 1_555
Mn12 Te2 3.068035 1_555
Mn13 N5 1.896571 1_565
Mn13 N1 1.914261 1_655
Mn13 Te10 2.761778 1_555
Mn13 Te6 2.783024 1_565
Mn13 Te9 2.866391 1_565
Mn13 Te3 3.068035 1_555
Mn14 N6 1.896571 1_544
Mn14 N2 1.914261 1_555
Mn14 Te9 2.761778 1_554
Mn14 Te5 2.783024 1_645
Mn14 Te10 2.866391 1_545
Mn14 Te0 3.068035 1_555
Mn15 N7 1.896571 1_555
Mn15 N3 1.914261 1_455
Mn15 Te8 2.761778 1_555
Mn15 Te4 2.783024 1_555
Mn15 Te11 2.866391 1_555
Mn15 Te1 3.068035 1_555
