# generated using pymatgen
data_CoH14C2N10(ClO3)2
_symmetry_space_group_name_H-M   'P 1'
_cell_length_a   7.93560100
_cell_length_b   13.27262200
_cell_length_c   8.11901812
_cell_angle_alpha   90.00000000
_cell_angle_beta   119.23266254
_cell_angle_gamma   90.00000000
_symmetry_Int_Tables_number   1
_chemical_formula_structural   CoH14C2N10(ClO3)2
_chemical_formula_sum   'Co2 H28 C4 N20 Cl4 O12'
_cell_volume   746.23751525
_cell_formula_units_Z   2
loop_
 _symmetry_equiv_pos_site_id
 _symmetry_equiv_pos_as_xyz
  1  'x, y, z'
loop_
 _atom_site_type_symbol
 _atom_site_label
 _atom_site_symmetry_multiplicity
 _atom_site_fract_x
 _atom_site_fract_y
 _atom_site_fract_z
 _atom_site_occupancy
  Co  Co0  1  0.50000000  0.00000000  0.50000000  1
  Co  Co1  1  0.50000000  0.50000000  0.00000000  1
  H  H0  1  0.39521000  0.81612400  0.53770500  1
  H  H1  1  0.39521000  0.68387600  0.03770500  1
  H  H2  1  0.60479000  0.18387600  0.46229500  1
  H  H3  1  0.60479000  0.31612400  0.96229500  1
  H  H4  1  0.21598200  0.86791100  0.34943700  1
  H  H5  1  0.21598200  0.63208900  0.84943700  1
  H  H6  1  0.78401800  0.13208900  0.65056300  1
  H  H7  1  0.78401800  0.36791100  0.15056300  1
  H  H8  1  0.24267100  0.05632900  0.90627700  1
  H  H9  1  0.24267100  0.44367100  0.40627700  1
  H  H10  1  0.75732900  0.94367100  0.09372300  1
  H  H11  1  0.75732900  0.55632900  0.59372300  1
  H  H12  1  0.13617600  0.84561400  0.60196800  1
  H  H13  1  0.13617600  0.65438600  0.10196800  1
  H  H14  1  0.86382400  0.15438600  0.39803200  1
  H  H15  1  0.86382400  0.34561400  0.89803200  1
  H  H16  1  0.08189200  0.95333000  0.80546400  1
  H  H17  1  0.08189200  0.54667000  0.30546400  1
  H  H18  1  0.91810800  0.04667000  0.19453600  1
  H  H19  1  0.91810800  0.45333000  0.69453600  1
  H  H20  1  0.07862600  0.20982200  0.98603600  1
  H  H21  1  0.07862600  0.29017800  0.48603600  1
  H  H22  1  0.92137400  0.79017800  0.01396400  1
  H  H23  1  0.92137400  0.70982200  0.51396400  1
  H  H24  1  0.10314500  0.28725600  0.85122000  1
  H  H25  1  0.10314500  0.21274400  0.35122000  1
  H  H26  1  0.89685500  0.71274400  0.14878000  1
  H  H27  1  0.89685500  0.78725600  0.64878000  1
  C  C0  1  0.27610000  0.98189600  0.70895400  1
  C  C1  1  0.27610000  0.51810400  0.20895400  1
  C  C2  1  0.72390000  0.01810400  0.29104600  1
  C  C3  1  0.72390000  0.48189600  0.79104600  1
  N  N0  1  0.31721900  0.88182700  0.48712000  1
  N  N1  1  0.31721900  0.61817300  0.98712000  1
  N  N2  1  0.68278100  0.11817300  0.51288000  1
  N  N3  1  0.68278100  0.38182700  0.01288000  1
  N  N4  1  0.22164400  0.90244000  0.59130200  1
  N  N5  1  0.22164400  0.59756000  0.09130200  1
  N  N6  1  0.77835600  0.09756000  0.40869800  1
  N  N7  1  0.77835600  0.40244000  0.90869800  1
  N  N8  1  0.19716200  0.99531100  0.81881200  1
  N  N9  1  0.19716200  0.50468900  0.31881200  1
  N  N10  1  0.80283800  0.00468900  0.18118800  1
  N  N11  1  0.80283800  0.49531100  0.68118800  1
  N  N12  1  0.41077300  0.04305600  0.69980500  1
  N  N13  1  0.41077300  0.45694400  0.19980500  1
  N  N14  1  0.58922700  0.95694400  0.30019500  1
  N  N15  1  0.58922700  0.54305600  0.80019500  1
  N  N16  1  0.47453700  0.12722500  0.80731800  1
  N  N17  1  0.47453700  0.37277500  0.30731800  1
  N  N18  1  0.52546300  0.87277500  0.19268200  1
  N  N19  1  0.52546300  0.62722500  0.69268200  1
  Cl  Cl0  1  0.21062800  0.09560400  0.24054700  1
  Cl  Cl1  1  0.21062800  0.40439600  0.74054700  1
  Cl  Cl2  1  0.78937200  0.90439600  0.75945300  1
  Cl  Cl3  1  0.78937200  0.59560400  0.25945300  1
  O  O0  1  0.59131200  0.17974300  0.78315700  1
  O  O1  1  0.59131200  0.32025700  0.28315700  1
  O  O2  1  0.40868800  0.82025700  0.21684300  1
  O  O3  1  0.40868800  0.67974300  0.71684300  1
  O  O4  1  0.42233300  0.15141500  0.92549200  1
  O  O5  1  0.42233300  0.34858500  0.42549200  1
  O  O6  1  0.57766700  0.84858500  0.07450800  1
  O  O7  1  0.57766700  0.65141500  0.57450800  1
  O  O8  1  0.00603800  0.25207600  0.87356200  1
  O  O9  1  0.00603800  0.24792400  0.37356200  1
  O  O10  1  0.99396200  0.74792400  0.12643800  1
  O  O11  1  0.99396200  0.75207600  0.62643800  1
loop_
_geom_bond_atom_site_label_1
_geom_bond_atom_site_label_2
_geom_bond_distance
_geom_bond_site_symmetry_2
Co0 N2 2.103985 1_555
Co0 N0 2.103985 1_545
Co0 N12 2.140428 1_555
Co0 N14 2.140428 1_545
Co1 N1 2.103985 1_554
Co1 N3 2.103985 1_555
Co1 N13 2.140428 1_555
Co1 N15 2.140428 1_554
H0 N0 1.031468 1_555
H1 N1 1.031468 1_554
H2 N2 1.031468 1_555
H3 N3 1.031468 1_556
H4 N0 1.025659 1_555
H5 N1 1.025659 1_555
H6 N2 1.025659 1_555
H7 N3 1.025659 1_555
H8 N8 1.019858 1_545
H9 N9 1.019858 1_555
H10 N10 1.019858 1_565
H11 N11 1.019858 1_555
H12 N4 1.045819 1_555
H13 N5 1.045819 1_555
H14 N6 1.045819 1_555
H15 N7 1.045819 1_555
H16 N8 1.030599 1_555
H17 N9 1.030599 1_555
H18 N10 1.030599 1_555
H19 N11 1.030599 1_555
H20 O8 0.983085 1_555
H21 O9 0.983085 1_555
H22 O10 0.983085 1_555
H23 O11 0.983085 1_555
H24 O8 0.990598 1_555
H25 O9 0.990598 1_555
H26 O10 0.990598 1_555
H27 O11 0.990598 1_555
C0 N8 1.328676 1_555
C0 N4 1.344682 1_555
C0 N12 1.372640 1_565
C1 N9 1.328676 1_555
C1 N5 1.344682 1_555
C1 N13 1.372640 1_555
C2 N10 1.328676 1_555
C2 N6 1.344682 1_555
C2 N14 1.372640 1_545
C3 N11 1.328676 1_555
C3 N7 1.344682 1_555
C3 N15 1.372640 1_555
N0 N4 1.411438 1_555
N1 N5 1.411438 1_556
N2 N6 1.411438 1_555
N3 N7 1.411438 1_554
N12 N16 1.354473 1_555
N13 N17 1.354473 1_555
N14 N18 1.354473 1_555
N15 N19 1.354473 1_555
N16 O0 1.249258 1_555
N16 O4 1.258363 1_555
N17 O1 1.249258 1_555
N17 O5 1.258363 1_555
N18 O2 1.249258 1_555
N18 O6 1.258363 1_555
N19 O3 1.249258 1_555
N19 O7 1.258363 1_555
Cl0 Co0 2.568282 1_555
Cl1 Co1 2.568282 1_556
Cl2 Co0 2.568282 1_565
Cl3 Co1 2.568282 1_555
