# generated using pymatgen
data_LaCoO3
_symmetry_space_group_name_H-M   'P 1'
_cell_length_a   5.46744700
_cell_length_b   5.55013600
_cell_length_c   7.80973500
_cell_angle_alpha   90.00000000
_cell_angle_beta   90.00000000
_cell_angle_gamma   90.00000000
_symmetry_Int_Tables_number   1
_chemical_formula_structural   LaCoO3
_chemical_formula_sum   'La4 Co4 O12'
_cell_volume   236.98698980
_cell_formula_units_Z   4
loop_
 _symmetry_equiv_pos_site_id
 _symmetry_equiv_pos_as_xyz
  1  'x, y, z'
loop_
 _atom_site_type_symbol
 _atom_site_label
 _atom_site_symmetry_multiplicity
 _atom_site_fract_x
 _atom_site_fract_y
 _atom_site_fract_z
 _atom_site_occupancy
  La  La0  1  0.51031300  0.99391800  0.75000000  1
  La  La1  1  0.98968700  0.49391800  0.25000000  1
  La  La2  1  0.01031300  0.50608200  0.75000000  1
  La  La3  1  0.48968700  0.00608200  0.25000000  1
  Co  Co0  1  0.50000000  0.50000000  0.50000000  1
  Co  Co1  1  0.00000000  0.00000000  0.50000000  1
  Co  Co2  1  0.00000000  0.00000000  0.00000000  1
  Co  Co3  1  0.50000000  0.50000000  0.00000000  1
  O  O0  1  0.23645200  0.25473300  0.45762900  1
  O  O1  1  0.26354800  0.75473300  0.54237100  1
  O  O2  1  0.73645200  0.24526700  0.04237100  1
  O  O3  1  0.76354800  0.74526700  0.95762900  1
  O  O4  1  0.76354800  0.74526700  0.54237100  1
  O  O5  1  0.73645200  0.24526700  0.45762900  1
  O  O6  1  0.26354800  0.75473300  0.95762900  1
  O  O7  1  0.23645200  0.25473300  0.04237100  1
  O  O8  1  0.99825400  0.07322700  0.75000000  1
  O  O9  1  0.50174600  0.57322700  0.25000000  1
  O  O10  1  0.49825400  0.42677300  0.75000000  1
  O  O11  1  0.00174600  0.92677300  0.25000000  1
loop_
_geom_bond_atom_site_label_1
_geom_bond_atom_site_label_2
_geom_bond_distance
_geom_bond_site_symmetry_2
La0 O10 2.403309 1_565
La0 O6 2.492369 1_555
La0 O1 2.492369 1_555
La0 O3 2.539854 1_555
La0 O4 2.539854 1_555
La0 O8 2.703861 1_565
La0 O8 2.834048 1_465
La0 O2 2.947612 1_566
La0 O5 2.947612 1_565
La0 O7 3.090475 1_566
La0 O0 3.090475 1_565
La0 O10 3.148422 1_555
La1 O11 2.403309 1_655
La1 O0 2.492369 1_655
La1 O7 2.492369 1_655
La1 O5 2.539854 1_555
La1 O2 2.539854 1_555
La1 O9 2.703861 1_555
La1 O9 2.834048 1_655
La1 O4 2.947612 1_555
La1 O3 2.947612 1_554
La1 O1 3.090475 1_655
La1 O6 3.090475 1_654
La1 O11 3.148422 1_645
La2 O8 2.403309 1_455
La2 O3 2.492369 1_455
La2 O4 2.492369 1_455
La2 O6 2.539854 1_555
La2 O1 2.539854 1_555
La2 O10 2.703861 1_555
La2 O10 2.834048 1_455
La2 O7 2.947612 1_556
La2 O0 2.947612 1_555
La2 O2 3.090475 1_456
La2 O5 3.090475 1_455
La2 O8 3.148422 1_465
La3 O9 2.403309 1_545
La3 O5 2.492369 1_555
La3 O2 2.492369 1_555
La3 O0 2.539854 1_555
La3 O7 2.539854 1_555
La3 O11 2.703861 1_545
La3 O11 2.834048 1_645
La3 O1 2.947612 1_545
La3 O6 2.947612 1_544
La3 O4 3.090475 1_545
La3 O3 3.090475 1_544
La3 O9 3.148422 1_555
Co0 O1 1.944130 1_555
Co0 O5 1.944130 1_555
Co0 O9 1.994308 1_555
Co0 O10 1.994308 1_555
Co0 O4 2.009685 1_555
Co0 O0 2.009685 1_555
Co1 O4 1.944130 1_445
Co1 O0 1.944130 1_555
Co1 O8 1.994308 1_455
Co1 O11 1.994308 1_545
Co1 O5 2.009685 1_455
Co1 O1 2.009685 1_545
Co2 O3 1.944130 1_444
Co2 O7 1.944130 1_555
Co2 O8 1.994308 1_454
Co2 O11 1.994308 1_545
Co2 O2 2.009685 1_455
Co2 O6 2.009685 1_544
Co3 O6 1.944130 1_554
Co3 O2 1.944130 1_555
Co3 O9 1.994308 1_555
Co3 O10 1.994308 1_554
Co3 O7 2.009685 1_555
Co3 O3 2.009685 1_554
