# generated using pymatgen
data_TaTe4Rh
_symmetry_space_group_name_H-M   'P 1'
_cell_length_a   3.78241200
_cell_length_b   12.79070300
_cell_length_c   13.56975900
_cell_angle_alpha   90.00000000
_cell_angle_beta   90.00000000
_cell_angle_gamma   90.00000000
_symmetry_Int_Tables_number   1
_chemical_formula_structural   TaTe4Rh
_chemical_formula_sum   'Ta4 Te16 Rh4'
_cell_volume   656.50098505
_cell_formula_units_Z   4
loop_
 _symmetry_equiv_pos_site_id
 _symmetry_equiv_pos_as_xyz
  1  'x, y, z'
loop_
 _atom_site_type_symbol
 _atom_site_label
 _atom_site_symmetry_multiplicity
 _atom_site_fract_x
 _atom_site_fract_y
 _atom_site_fract_z
 _atom_site_occupancy
  Ta  Ta0  1  0.50000000  0.94698400  0.50372800  1
  Ta  Ta1  1  0.00000000  0.05301600  0.00372800  1
  Ta  Ta2  1  0.50000000  0.73157100  0.99174300  1
  Ta  Ta3  1  0.00000000  0.26842900  0.49174300  1
  Te  Te0  1  0.50000000  0.93354800  0.89262800  1
  Te  Te1  1  0.00000000  0.06645200  0.39262800  1
  Te  Te2  1  0.50000000  0.80843800  0.35630400  1
  Te  Te3  1  0.00000000  0.19156200  0.85630400  1
  Te  Te4  1  0.50000000  0.65284400  0.59147400  1
  Te  Te5  1  0.00000000  0.34715600  0.09147400  1
  Te  Te6  1  0.50000000  0.58937600  0.13576000  1
  Te  Te7  1  0.00000000  0.41062400  0.63576000  1
  Te  Te8  1  0.50000000  0.43469200  0.89992700  1
  Te  Te9  1  0.00000000  0.56530800  0.39992700  1
  Te  Te10  1  0.50000000  0.32428700  0.35016100  1
  Te  Te11  1  0.00000000  0.67571300  0.85016100  1
  Te  Te12  1  0.50000000  0.15020700  0.60571300  1
  Te  Te13  1  0.00000000  0.84979300  0.10571300  1
  Te  Te14  1  0.50000000  0.10922200  0.14476700  1
  Te  Te15  1  0.00000000  0.89077800  0.64476700  1
  Rh  Rh0  1  0.50000000  0.46461100  0.49938300  1
  Rh  Rh1  1  0.00000000  0.53538900  0.99938300  1
  Rh  Rh2  1  0.50000000  0.24624500  0.99241200  1
  Rh  Rh3  1  0.00000000  0.75375500  0.49241200  1
loop_
_geom_bond_atom_site_label_1
_geom_bond_atom_site_label_2
_geom_bond_distance
_geom_bond_site_symmetry_2
Ta0 Te2 2.672522 1_555
Ta0 Te15 2.785027 1_555
Ta0 Te15 2.785027 1_655
Ta0 Te1 2.860865 1_665
Ta0 Te1 2.860865 1_565
Ta0 Te12 2.944811 1_565
Ta1 Te3 2.672522 1_554
Ta1 Te14 2.785027 1_555
Ta1 Te14 2.785027 1_455
Ta1 Te0 2.860865 1_444
Ta1 Te0 2.860865 1_544
Ta1 Te13 2.944811 1_545
Ta2 Te6 2.669669 1_556
Ta2 Te11 2.788953 1_555
Ta2 Te11 2.788953 1_655
Ta2 Te13 2.873158 1_556
Ta2 Te13 2.873158 1_656
Ta2 Te0 2.912565 1_555
Ta3 Te7 2.669669 1_555
Ta3 Te10 2.788953 1_455
Ta3 Te10 2.788953 1_555
Ta3 Te12 2.873158 1_455
Ta3 Te12 2.873158 1_555
Ta3 Te1 2.912565 1_555
Rh0 Te9 2.656496 1_555
Rh0 Te9 2.656496 1_655
Rh0 Te10 2.705865 1_555
Rh0 Te4 2.712623 1_555
Rh0 Te7 2.734634 1_655
Rh0 Te7 2.734634 1_555
Rh0 Ta3 3.143887 1_655
Rh0 Ta3 3.143887 1_555
Rh1 Te8 2.656496 1_555
Rh1 Te8 2.656496 1_455
Rh1 Te11 2.705865 1_555
Rh1 Te5 2.712623 1_556
Rh1 Te6 2.734634 1_556
Rh1 Te6 2.734634 1_456
Rh1 Ta2 3.143887 1_555
Rh1 Ta2 3.143887 1_455
Rh2 Te5 2.655113 1_556
Rh2 Te5 2.655113 1_656
Rh2 Te14 2.710333 1_556
Rh2 Te8 2.717518 1_555
Rh2 Te3 2.734429 1_555
Rh2 Te3 2.734429 1_655
Rh2 Ta1 3.115882 1_656
Rh2 Ta1 3.115882 1_556
Rh3 Te4 2.655113 1_555
Rh3 Te4 2.655113 1_455
Rh3 Te15 2.710333 1_555
Rh3 Te9 2.717518 1_555
Rh3 Te2 2.734429 1_555
Rh3 Te2 2.734429 1_455
Rh3 Ta0 3.115882 1_555
Rh3 Ta0 3.115882 1_455
