# generated using pymatgen
data_Zn8Fe3N8
_symmetry_space_group_name_H-M   'P 1'
_cell_length_a   10.73372366
_cell_length_b   3.44577065
_cell_length_c   8.03672664
_cell_angle_alpha   90.00000120
_cell_angle_beta   69.95190912
_cell_angle_gamma   80.76341985
_symmetry_Int_Tables_number   1
_chemical_formula_structural   Zn8Fe3N8
_chemical_formula_sum   'Zn8 Fe3 N8'
_cell_volume   275.12812227
_cell_formula_units_Z   1
loop_
 _symmetry_equiv_pos_site_id
 _symmetry_equiv_pos_as_xyz
  1  'x, y, z'
loop_
 _atom_site_type_symbol
 _atom_site_label
 _atom_site_symmetry_multiplicity
 _atom_site_fract_x
 _atom_site_fract_y
 _atom_site_fract_z
 _atom_site_occupancy
  Zn  Zn0  1  0.10512000  0.94744000  0.69408300  1
  Zn  Zn1  1  0.89488000  0.05256000  0.30591700  1
  Zn  Zn2  1  0.64517700  0.67741200  0.51430600  1
  Zn  Zn3  1  0.35482300  0.32258800  0.48569400  1
  Zn  Zn4  1  0.83230400  0.58384700  0.90671800  1
  Zn  Zn5  1  0.16769600  0.41615300  0.09328200  1
  Zn  Zn6  1  0.60385700  0.19807100  0.85032600  1
  Zn  Zn7  1  0.39614300  0.80192900  0.14967400  1
  Fe  Fe0  1  0.00000000  0.50000000  0.50000000  1
  Fe  Fe1  1  0.37013300  0.81493400  0.79140000  1
  Fe  Fe2  1  0.62986700  0.18506600  0.20860000  1
  N  N0  1  0.26391400  0.86804300  0.02338900  1
  N  N1  1  0.73608600  0.13195700  0.97661100  1
  N  N2  1  0.30732200  0.84633900  0.60717800  1
  N  N3  1  0.69267800  0.15366100  0.39282200  1
  N  N4  1  0.54713800  0.72643100  0.77821800  1
  N  N5  1  0.45286200  0.27356900  0.22178200  1
  N  N6  1  0.01064500  0.49467800  0.72704800  1
  N  N7  1  0.98935500  0.50532200  0.27295200  1
loop_
_geom_bond_atom_site_label_1
_geom_bond_atom_site_label_2
_geom_bond_distance
_geom_bond_site_symmetry_2
Fe0 N6 1.866890 1_555
Fe0 N7 1.866890 1_455
Fe1 N0 1.812483 1_556
Fe1 N2 1.821867 1_555
Fe1 N4 1.841176 1_555
Fe2 N1 1.812483 1_554
Fe2 N3 1.821867 1_555
Fe2 N5 1.841176 1_555
N0 Zn5 1.981224 1_555
N0 Zn5 1.981230 1_565
N0 Zn7 1.995049 1_555
N1 Zn4 1.981224 1_555
N1 Zn4 1.981230 1_545
N1 Zn6 1.995049 1_555
N2 Zn3 1.957938 1_565
N2 Zn3 1.957941 1_555
N2 Zn0 2.009401 1_555
N3 Zn2 1.957938 1_545
N3 Zn2 1.957941 1_555
N3 Zn1 2.009401 1_555
N4 Zn6 1.976651 1_565
N4 Zn6 1.976655 1_555
N4 Zn2 2.011758 1_555
N5 Zn7 1.976651 1_545
N5 Zn7 1.976655 1_555
N5 Zn3 2.011758 1_555
N6 Zn4 1.939042 1_455
N6 Zn0 1.963711 1_555
N6 Zn0 1.963714 1_545
N7 Zn5 1.939042 1_655
N7 Zn1 1.963711 1_555
N7 Zn1 1.963714 1_565
