# generated using pymatgen
data_Re3Se4O8F
_symmetry_space_group_name_H-M   'P 1'
_cell_length_a   9.47306572
_cell_length_b   9.47306572
_cell_length_c   9.44864827
_cell_angle_alpha   76.02894038
_cell_angle_beta   76.02894038
_cell_angle_gamma   105.47301936
_symmetry_Int_Tables_number   1
_chemical_formula_structural   Re3Se4O8F
_chemical_formula_sum   'Re6 Se8 O16 F2'
_cell_volume   749.40553664
_cell_formula_units_Z   2
loop_
 _symmetry_equiv_pos_site_id
 _symmetry_equiv_pos_as_xyz
  1  'x, y, z'
loop_
 _atom_site_type_symbol
 _atom_site_label
 _atom_site_symmetry_multiplicity
 _atom_site_fract_x
 _atom_site_fract_y
 _atom_site_fract_z
 _atom_site_occupancy
  Re  Re0  1  0.20264500  0.04808300  0.95909000  1
  Re  Re1  1  0.06548000  0.27048100  0.92792100  1
  Re  Re2  1  0.05528200  0.06070800  0.74631400  1
  Re  Re3  1  0.72951900  0.93452000  0.07207900  1
  Re  Re4  1  0.95191700  0.79735500  0.04091000  1
  Re  Re5  1  0.93929200  0.94471800  0.25368600  1
  Se  Se0  1  0.29902400  0.28376300  0.71958800  1
  Se  Se1  1  0.71623700  0.70097600  0.28041200  1
  Se  Se2  1  0.17712700  0.19960100  0.14222500  1
  Se  Se3  1  0.85407800  0.18103900  0.82147600  1
  Se  Se4  1  0.18251700  0.86075400  0.80353800  1
  Se  Se5  1  0.80039900  0.82287300  0.85777500  1
  Se  Se6  1  0.13924600  0.81748300  0.19646200  1
  Se  Se7  1  0.81896100  0.14592200  0.17852400  1
  O  O0  1  0.56187200  0.47114600  0.87846100  1
  O  O1  1  0.17247600  0.56554900  0.51006600  1
  O  O2  1  0.49172700  0.17978900  0.42592900  1
  O  O3  1  0.17500900  0.47895600  0.43145500  1
  O  O4  1  0.57457400  0.17082100  0.50789700  1
  O  O5  1  0.48151900  0.55545100  0.87959300  1
  O  O6  1  0.44454900  0.51848100  0.12040700  1
  O  O7  1  0.82917900  0.42542600  0.49210300  1
  O  O8  1  0.52104400  0.82499100  0.56854500  1
  O  O9  1  0.82021100  0.50827300  0.57407100  1
  O  O10  1  0.43445100  0.82752400  0.48993400  1
  O  O11  1  0.52885400  0.43812800  0.12153900  1
  O  O12  1  0.13212500  0.47031500  0.87347800  1
  O  O13  1  0.12609600  0.10310600  0.54706900  1
  O  O14  1  0.52968500  0.86787500  0.12652200  1
  O  O15  1  0.89689400  0.87390400  0.45293100  1
  F  F0  1  0.42712700  0.07911500  0.91843700  1
  F  F1  1  0.92088500  0.57287300  0.08156300  1
loop_
_geom_bond_atom_site_label_1
_geom_bond_atom_site_label_2
_geom_bond_distance
_geom_bond_site_symmetry_2
Re0 Se2 2.509039 1_556
Re0 Se0 2.532650 1_555
Re0 Se6 2.539059 1_546
Re0 Se4 2.561222 1_545
Re1 Se3 2.493722 1_455
Re1 Se0 2.532650 1_555
Re1 Se2 2.534977 1_556
Re1 Se7 2.638787 1_456
Re2 Se3 2.516585 1_455
Re2 Se4 2.524151 1_545
Re2 Se0 2.591828 1_555
Re2 Se5 2.595956 1_445
Re3 Se7 2.493722 1_565
Re3 Se1 2.532650 1_555
Re3 Se5 2.534977 1_554
Re3 Se3 2.638787 1_564
Re4 Se5 2.509039 1_554
Re4 Se1 2.532650 1_555
Re4 Se4 2.539059 1_654
Re4 Se6 2.561222 1_655
Re5 Se7 2.516585 1_565
Re5 Se6 2.524151 1_655
Re5 Se1 2.591828 1_555
Re5 Se2 2.595956 1_665
O0 O5 1.241725 1_555
O1 O3 1.233400 1_555
O2 O4 1.232998 1_555
O7 O9 1.232998 1_555
O10 O8 1.233400 1_555
O11 O6 1.241725 1_555
O12 Re1 1.726871 1_555
O13 Re2 1.742647 1_555
O14 Re3 1.726871 1_555
O15 Re5 1.742647 1_555
F0 Re0 1.993391 1_555
F1 Re4 1.993391 1_555
