# generated using pymatgen
data_Cs3Cu3Cl8O
_symmetry_space_group_name_H-M   'P 1'
_cell_length_a   9.80334800
_cell_length_b   13.81870200
_cell_length_c   13.82655738
_cell_angle_alpha   65.91013895
_cell_angle_beta   90.00000000
_cell_angle_gamma   90.00000000
_symmetry_Int_Tables_number   1
_chemical_formula_structural   Cs3Cu3Cl8O
_chemical_formula_sum   'Cs12 Cu12 Cl32 O4'
_cell_volume   1709.94441287
_cell_formula_units_Z   4
loop_
 _symmetry_equiv_pos_site_id
 _symmetry_equiv_pos_as_xyz
  1  'x, y, z'
loop_
 _atom_site_type_symbol
 _atom_site_label
 _atom_site_symmetry_multiplicity
 _atom_site_fract_x
 _atom_site_fract_y
 _atom_site_fract_z
 _atom_site_occupancy
  Cs  Cs0  1  0.90223100  0.07439000  0.30847700  1
  Cs  Cs1  1  0.40223100  0.42561000  0.69152300  1
  Cs  Cs2  1  0.09776900  0.92561000  0.69152300  1
  Cs  Cs3  1  0.59776900  0.57439000  0.30847700  1
  Cs  Cs4  1  0.88096200  0.30185600  0.56552100  1
  Cs  Cs5  1  0.38096200  0.19814400  0.43447900  1
  Cs  Cs6  1  0.11903800  0.69814400  0.43447900  1
  Cs  Cs7  1  0.61903800  0.80185600  0.56552100  1
  Cs  Cs8  1  0.59497800  0.31163400  0.06745600  1
  Cs  Cs9  1  0.09497800  0.18836600  0.93254400  1
  Cs  Cs10  1  0.40502200  0.68836600  0.93254400  1
  Cs  Cs11  1  0.90502200  0.81163400  0.06745600  1
  Cu  Cu0  1  0.89210000  0.41100000  0.22552400  1
  Cu  Cu1  1  0.39210000  0.08900000  0.77447600  1
  Cu  Cu2  1  0.10790000  0.58900000  0.77447600  1
  Cu  Cu3  1  0.60790000  0.91100000  0.22552400  1
  Cu  Cu4  1  0.15447700  0.49006300  0.26955500  1
  Cu  Cu5  1  0.65447700  0.00993700  0.73044500  1
  Cu  Cu6  1  0.84552300  0.50993700  0.73044500  1
  Cu  Cu7  1  0.34552300  0.99006300  0.26955500  1
  Cu  Cu8  1  0.15295800  0.36517700  0.13459900  1
  Cu  Cu9  1  0.65295800  0.13482300  0.86540100  1
  Cu  Cu10  1  0.84704200  0.63482300  0.86540100  1
  Cu  Cu11  1  0.34704200  0.86517700  0.13459900  1
  Cl  Cl0  1  0.03415300  0.28189000  0.35233300  1
  Cl  Cl1  1  0.53415300  0.21811000  0.64766700  1
  Cl  Cl2  1  0.96584700  0.71811000  0.64766700  1
  Cl  Cl3  1  0.46584700  0.78189000  0.35233300  1
  Cl  Cl4  1  0.95798000  0.30978900  0.08500500  1
  Cl  Cl5  1  0.45798000  0.19021100  0.91499500  1
  Cl  Cl6  1  0.04202000  0.69021100  0.91499500  1
  Cl  Cl7  1  0.54202000  0.80978900  0.08500500  1
  Cl  Cl8  1  0.70585400  0.32497600  0.31396000  1
  Cl  Cl9  1  0.20585400  0.17502400  0.68604000  1
  Cl  Cl10  1  0.29414600  0.67502400  0.68604000  1
  Cl  Cl11  1  0.79414600  0.82497600  0.31396000  1
  Cl  Cl12  1  0.23562600  0.71818200  0.14872500  1
  Cl  Cl13  1  0.73562600  0.78181800  0.85127500  1
  Cl  Cl14  1  0.76437400  0.28181800  0.85127500  1
  Cl  Cl15  1  0.26437400  0.21818200  0.14872500  1
  Cl  Cl16  1  0.33745000  0.43582100  0.18417200  1
  Cl  Cl17  1  0.83745000  0.06417900  0.81582800  1
  Cl  Cl18  1  0.66255000  0.56417900  0.81582800  1
  Cl  Cl19  1  0.16255000  0.93582100  0.18417200  1
  Cl  Cl20  1  0.76423700  0.53565700  0.09630100  1
  Cl  Cl21  1  0.26423700  0.96434300  0.90369900  1
  Cl  Cl22  1  0.23576300  0.46434300  0.90369900  1
  Cl  Cl23  1  0.73576300  0.03565700  0.09630100  1
  Cl  Cl24  1  0.28110400  0.47272900  0.41335100  1
  Cl  Cl25  1  0.78110400  0.02727100  0.58664900  1
  Cl  Cl26  1  0.71889600  0.52727100  0.58664900  1
  Cl  Cl27  1  0.21889600  0.97272900  0.41335100  1
  Cl  Cl28  1  0.95777500  0.55069900  0.32150900  1
  Cl  Cl29  1  0.45777500  0.94930100  0.67849100  1
  Cl  Cl30  1  0.04222500  0.44930100  0.67849100  1
  Cl  Cl31  1  0.54222500  0.05069900  0.32150900  1
  O  O0  1  0.05607300  0.47468500  0.15571600  1
  O  O1  1  0.55607300  0.02531500  0.84428400  1
  O  O2  1  0.94392700  0.52531500  0.84428400  1
  O  O3  1  0.44392700  0.97468500  0.15571600  1
loop_
_geom_bond_atom_site_label_1
_geom_bond_atom_site_label_2
_geom_bond_distance
_geom_bond_site_symmetry_2
Cu0 O0 1.896493 1_655
Cu1 O1 1.896493 1_555
Cu2 O2 1.896493 1_455
Cu3 O3 1.896493 1_555
Cu4 O0 1.930366 1_555
Cu5 O1 1.930366 1_555
Cu6 O2 1.930366 1_555
Cu7 O3 1.930366 1_555
Cu8 O0 1.907355 1_555
Cu9 O1 1.907355 1_555
Cu10 O2 1.907355 1_555
Cu11 O3 1.907355 1_555
Cl0 Cu0 2.375494 1_455
Cl0 Cu4 2.879044 1_555
Cl0 Cu8 2.985933 1_555
Cl0 Cs0 3.417822 1_455
Cl0 Cs4 3.418196 1_455
Cl0 Cs5 3.621537 1_555
Cl1 Cu1 2.375494 1_555
Cl1 Cu5 2.879044 1_555
Cl1 Cu9 2.985933 1_555
Cl1 Cs1 3.417822 1_555
Cl1 Cs5 3.418196 1_555
Cl1 Cs4 3.621537 1_555
Cl2 Cu2 2.375494 1_655
Cl2 Cu6 2.879044 1_555
Cl2 Cu10 2.985933 1_555
Cl2 Cs2 3.417822 1_655
Cl2 Cs6 3.418196 1_655
Cl2 Cs7 3.621537 1_555
Cl3 Cu3 2.375494 1_555
Cl3 Cu7 2.879044 1_555
Cl3 Cu11 2.985933 1_555
Cl3 Cs3 3.417822 1_555
Cl3 Cs7 3.418196 1_555
Cl3 Cs6 3.621537 1_555
Cl4 Cu8 2.266730 1_655
Cl4 Cu0 2.892458 1_555
Cl4 Cs9 3.456916 1_654
Cl4 Cs0 3.496035 1_555
Cl4 Cs8 3.566281 1_555
Cl5 Cu9 2.266730 1_555
Cl5 Cu1 2.892458 1_555
Cl5 Cs8 3.456916 1_556
Cl5 Cs1 3.496035 1_555
Cl5 Cs9 3.566281 1_555
Cl6 Cu10 2.266730 1_455
Cl6 Cu2 2.892458 1_555
Cl6 Cs11 3.456916 1_456
Cl6 Cs2 3.496035 1_555
Cl6 Cs10 3.566281 1_555
Cl7 Cu11 2.266730 1_555
Cl7 Cu3 2.892458 1_555
Cl7 Cs10 3.456916 1_554
Cl7 Cs3 3.496035 1_555
Cl7 Cs11 3.566281 1_555
Cl8 Cu0 2.248409 1_555
Cl8 Cs3 3.576882 1_555
Cl8 Cs8 3.653076 1_555
Cl8 Cs5 3.689012 1_555
Cl8 Cs4 3.773568 1_555
Cl8 Cs0 3.989619 1_555
Cl9 Cu1 2.248409 1_555
Cl9 Cs2 3.576882 1_545
Cl9 Cs9 3.653076 1_555
Cl9 Cs4 3.689012 1_455
Cl9 Cs5 3.773568 1_555
Cl9 Cs1 3.989619 1_555
Cl10 Cu2 2.248409 1_555
Cl10 Cs1 3.576882 1_555
Cl10 Cs10 3.653076 1_555
Cl10 Cs7 3.689012 1_555
Cl10 Cs6 3.773568 1_555
Cl10 Cs2 3.989619 1_555
Cl11 Cu3 2.248409 1_555
Cl11 Cs0 3.576882 1_565
Cl11 Cs11 3.653076 1_555
Cl11 Cs6 3.689012 1_655
Cl11 Cs7 3.773568 1_555
Cl11 Cs3 3.989619 1_555
Cl12 Cu11 2.243521 1_555
Cl12 Cu4 3.010288 1_555
Cl12 Cs11 3.499997 1_455
Cl12 Cs10 3.587090 1_554
Cl12 Cs6 4.012515 1_555
Cl13 Cu10 2.243521 1_555
Cl13 Cu5 3.010288 1_565
Cl13 Cs10 3.499997 1_555
Cl13 Cs11 3.587090 1_556
Cl13 Cs7 4.012515 1_555
Cl14 Cu9 2.243521 1_555
Cl14 Cu6 3.010288 1_555
Cl14 Cs9 3.499997 1_655
Cl14 Cs8 3.587090 1_556
Cl14 Cs4 4.012515 1_555
Cl15 Cu8 2.243521 1_555
Cl15 Cu7 3.010288 1_545
Cl15 Cs8 3.499997 1_555
Cl15 Cs9 3.587090 1_554
Cl15 Cs5 4.012515 1_555
Cl16 Cu8 2.289146 1_555
Cl16 Cu4 2.428052 1_555
Cl16 Cs5 3.696980 1_555
Cl16 Cs8 3.766147 1_555
Cl16 Cs10 3.848452 1_554
Cl16 Cs3 3.977424 1_555
Cl17 Cu9 2.289146 1_555
Cl17 Cu5 2.428052 1_555
Cl17 Cs4 3.696980 1_555
Cl17 Cs9 3.766147 1_655
Cl17 Cs11 3.848452 1_546
Cl17 Cs2 3.977424 1_645
Cl18 Cu10 2.289146 1_555
Cl18 Cu6 2.428052 1_555
Cl18 Cs7 3.696980 1_555
Cl18 Cs10 3.766147 1_555
Cl18 Cs8 3.848452 1_556
Cl18 Cs1 3.977424 1_555
Cl19 Cu11 2.289146 1_555
Cl19 Cu7 2.428052 1_555
Cl19 Cs6 3.696980 1_555
Cl19 Cs11 3.766147 1_455
Cl19 Cs9 3.848452 1_564
Cl19 Cs0 3.977424 1_465
Cl20 Cu0 2.284380 1_555
Cl20 Cs3 3.583006 1_555
Cl20 Cs8 3.674731 1_555
Cl20 Cs11 3.919969 1_555
Cl21 Cu1 2.284380 1_565
Cl21 Cs2 3.583006 1_555
Cl21 Cs9 3.674731 1_565
Cl21 Cs10 3.919969 1_555
Cl22 Cu2 2.284380 1_555
Cl22 Cs1 3.583006 1_555
Cl22 Cs10 3.674731 1_555
Cl22 Cs9 3.919969 1_555
Cl23 Cu3 2.284380 1_545
Cl23 Cs0 3.583006 1_555
Cl23 Cs11 3.674731 1_545
Cl23 Cs8 3.919969 1_555
Cl24 Cu4 2.272125 1_555
Cl24 Cs3 3.471367 1_555
Cl24 Cs6 3.613211 1_555
Cl24 Cs5 3.812654 1_555
Cl24 Cs1 3.818714 1_555
Cl25 Cu5 2.272125 1_555
Cl25 Cs2 3.471367 1_645
Cl25 Cs7 3.613211 1_545
Cl25 Cs4 3.812654 1_555
Cl25 Cs0 3.818714 1_555
Cl26 Cu6 2.272125 1_555
Cl26 Cs1 3.471367 1_555
Cl26 Cs4 3.613211 1_555
Cl26 Cs7 3.812654 1_555
Cl26 Cs3 3.818714 1_555
Cl27 Cu7 2.272125 1_555
Cl27 Cs0 3.471367 1_465
Cl27 Cs5 3.613211 1_565
Cl27 Cs6 3.812654 1_555
Cl27 Cs2 3.818714 1_555
Cl28 Cu4 2.329799 1_655
Cl28 Cu0 2.827358 1_555
Cl28 Cs6 3.418850 1_655
Cl28 Cs3 3.542202 1_555
Cl28 Cs4 3.782014 1_555
Cl28 Cs11 3.907471 1_555
Cl29 Cu5 2.329799 1_565
Cl29 Cu1 2.827358 1_565
Cl29 Cs7 3.418850 1_555
Cl29 Cs2 3.542202 1_555
Cl29 Cs5 3.782014 1_565
Cl29 Cs10 3.907471 1_555
Cl30 Cu6 2.329799 1_455
Cl30 Cu2 2.827358 1_555
Cl30 Cs4 3.418850 1_455
Cl30 Cs1 3.542202 1_555
Cl30 Cs6 3.782014 1_555
Cl30 Cs9 3.907471 1_555
Cl31 Cu7 2.329799 1_545
Cl31 Cu3 2.827358 1_545
Cl31 Cs5 3.418850 1_555
Cl31 Cs0 3.542202 1_555
Cl31 Cs7 3.782014 1_545
Cl31 Cs8 3.907471 1_555
