# generated using pymatgen
data_UCo2
_symmetry_space_group_name_H-M   'P 1'
_cell_length_a   4.86625479
_cell_length_b   4.86622486
_cell_length_c   4.86623745
_cell_angle_alpha   59.99999570
_cell_angle_beta   60.00020873
_cell_angle_gamma   60.00010807
_symmetry_Int_Tables_number   1
_chemical_formula_structural   UCo2
_chemical_formula_sum   'U2 Co4'
_cell_volume   81.48287468
_cell_formula_units_Z   2
loop_
 _symmetry_equiv_pos_site_id
 _symmetry_equiv_pos_as_xyz
  1  'x, y, z'
loop_
 _atom_site_type_symbol
 _atom_site_label
 _atom_site_symmetry_multiplicity
 _atom_site_fract_x
 _atom_site_fract_y
 _atom_site_fract_z
 _atom_site_occupancy
  U  U0  1  0.87500363  0.87499812  0.87500012  1
  U  U1  1  0.12499637  0.12500188  0.12499988  1
  Co  Co0  1  0.50000000  0.50000000  0.50000000  1
  Co  Co1  1  0.50000000  0.50000000  -0.00000000  1
  Co  Co2  1  -0.00000000  0.50000000  0.50000000  1
  Co  Co3  1  0.50000000  0.00000000  0.50000000  1
loop_
_geom_bond_atom_site_label_1
_geom_bond_atom_site_label_2
_geom_bond_distance
_geom_bond_site_symmetry_2
U0 U1 2.979928 1_656
U0 U1 2.979933 1_666
U0 U1 2.979954 1_665
U0 U1 2.979996 1_566
Co0 Co3 2.433112 1_565
Co0 Co3 2.433112 1_555
Co0 Co1 2.433119 1_556
Co0 Co1 2.433119 1_555
Co0 Co2 2.433127 1_655
Co0 Co2 2.433127 1_555
Co0 U0 2.853085 1_455
Co0 U1 2.853085 1_655
Co0 U1 2.853093 1_556
Co0 U0 2.853093 1_554
Co0 U0 2.853095 1_545
Co0 U1 2.853095 1_565
Co1 Co3 2.433115 1_564
Co1 Co3 2.433115 1_555
Co1 Co2 2.433131 1_555
Co1 Co2 2.433131 1_654
Co1 U0 2.853080 1_454
Co1 U1 2.853080 1_655
Co1 U0 2.853090 1_544
Co1 U1 2.853090 1_565
Co1 U1 2.853093 1_555
Co1 U0 2.853093 1_554
Co2 Co3 2.433124 1_465
Co2 Co3 2.433124 1_555
Co2 U0 2.853076 1_454
Co2 U1 2.853076 1_556
Co2 U0 2.853079 1_445
Co2 U1 2.853079 1_565
Co2 U1 2.853082 1_555
Co2 U0 2.853082 1_455
Co3 U0 2.853087 1_445
Co3 U1 2.853087 1_655
Co3 U1 2.853094 1_556
Co3 U0 2.853094 1_544
Co3 U1 2.853099 1_555
Co3 U0 2.853099 1_545
