# generated using pymatgen
data_Mg149Re
_symmetry_space_group_name_H-M   'P 1'
_cell_length_a   15.94618138
_cell_length_b   15.94618786
_cell_length_c   15.65275020
_cell_angle_alpha   90.00000000
_cell_angle_beta   90.00000000
_cell_angle_gamma   120.00001148
_symmetry_Int_Tables_number   1
_chemical_formula_structural   Mg149Re
_chemical_formula_sum   'Mg149 Re1'
_cell_volume   3446.94863569
_cell_formula_units_Z   1
loop_
 _symmetry_equiv_pos_site_id
 _symmetry_equiv_pos_as_xyz
  1  'x, y, z'
loop_
 _atom_site_type_symbol
 _atom_site_label
 _atom_site_symmetry_multiplicity
 _atom_site_fract_x
 _atom_site_fract_y
 _atom_site_fract_z
 _atom_site_occupancy
  Mg  Mg0  1  0.60340007  0.00055469  0.00000000  1
  Mg  Mg1  1  0.39715562  0.00055569  0.00000000  1
  Mg  Mg2  1  0.81277042  0.00165009  -0.00000000  1
  Mg  Mg3  1  0.18887968  0.00165009  0.00000000  1
  Mg  Mg4  1  0.99834991  0.18722858  -0.00000000  1
  Mg  Mg5  1  0.18887968  0.18722858  -0.00000000  1
  Mg  Mg6  1  0.80088480  0.19911520  -0.00000000  1
  Mg  Mg7  1  0.39823141  0.19911520  -0.00000000  1
  Mg  Mg8  1  0.59969505  0.19939011  -0.00000000  1
  Mg  Mg9  1  0.19829410  0.39658720  0.00000000  1
  Mg  Mg10  1  0.99944531  0.39659993  -0.00000000  1
  Mg  Mg11  1  0.39715562  0.39659993  0.00000000  1
  Mg  Mg12  1  0.59969505  0.40030395  0.00000000  1
  Mg  Mg13  1  0.80060989  0.40030495  -0.00000000  1
  Mg  Mg14  1  0.19947778  0.59973839  0.00000000  1
  Mg  Mg15  1  0.40026161  0.59973839  0.00000000  1
  Mg  Mg16  1  0.80088480  0.60176959  -0.00000000  1
  Mg  Mg17  1  0.99944531  0.60284538  0.00000000  1
  Mg  Mg18  1  0.60340007  0.60284538  0.00000000  1
  Mg  Mg19  1  0.40026161  0.80052322  0.00000000  1
  Mg  Mg20  1  0.60341280  0.80170590  0.00000000  1
  Mg  Mg21  1  0.19829410  0.80170690  0.00000000  1
  Mg  Mg22  1  0.81277042  0.81112032  -0.00000000  1
  Mg  Mg23  1  0.99834991  0.81112032  0.00000000  1
  Mg  Mg24  1  0.06279593  0.12559186  0.15600362  1
  Mg  Mg25  1  0.87440814  0.93720407  0.15600362  1
  Mg  Mg26  1  0.06279593  0.93720407  0.15600362  1
  Mg  Mg27  1  0.06608847  0.33094923  0.16538283  1
  Mg  Mg28  1  0.26486076  0.33095023  0.16538283  1
  Mg  Mg29  1  0.06608847  0.73513824  0.16538283  1
  Mg  Mg30  1  0.66905077  0.73513924  0.16538283  1
  Mg  Mg31  1  0.26486076  0.93391153  0.16538283  1
  Mg  Mg32  1  0.66905077  0.93391153  0.16538283  1
  Mg  Mg33  1  0.06656949  0.53328525  0.16585220  1
  Mg  Mg34  1  0.46671575  0.53328525  0.16585220  1
  Mg  Mg35  1  0.46671575  0.93343051  0.16585220  1
  Mg  Mg36  1  0.26641208  0.53282416  0.16617460  1
  Mg  Mg37  1  0.46717584  0.73358792  0.16617460  1
  Mg  Mg38  1  0.26641208  0.73358792  0.16617460  1
  Mg  Mg39  1  0.46717465  0.13369456  0.16679083  1
  Mg  Mg40  1  0.66651992  0.13369456  0.16679083  1
  Mg  Mg41  1  0.46717465  0.33348008  0.16679083  1
  Mg  Mg42  1  0.86630544  0.33348008  0.16679083  1
  Mg  Mg43  1  0.86630544  0.53282535  0.16679083  1
  Mg  Mg44  1  0.66651992  0.53282535  0.16679083  1
  Mg  Mg45  1  0.66666700  0.33333300  0.16679662  1
  Mg  Mg46  1  0.26913396  0.13456698  0.16694074  1
  Mg  Mg47  1  0.86543302  0.13456698  0.16694074  1
  Mg  Mg48  1  0.86543302  0.73086604  0.16694074  1
  Mg  Mg49  1  0.00033783  0.19883707  0.33067794  1
  Mg  Mg50  1  0.19850024  0.19883807  0.33067794  1
  Mg  Mg51  1  0.80116193  0.80149976  0.33067794  1
  Mg  Mg52  1  0.00033783  0.80149976  0.33067794  1
  Mg  Mg53  1  0.80116193  0.99966217  0.33067794  1
  Mg  Mg54  1  0.19850024  0.99966217  0.33067794  1
  Mg  Mg55  1  0.00000000  0.00000000  0.33236672  1
  Mg  Mg56  1  0.39916411  0.99975249  0.33257729  1
  Mg  Mg57  1  0.60058838  0.99975249  0.33257729  1
  Mg  Mg58  1  0.00024851  0.39941162  0.33257729  1
  Mg  Mg59  1  0.39916411  0.39941162  0.33257729  1
  Mg  Mg60  1  0.00024851  0.60083589  0.33257729  1
  Mg  Mg61  1  0.60058838  0.60083689  0.33257729  1
  Mg  Mg62  1  0.19995575  0.39991149  0.33298745  1
  Mg  Mg63  1  0.60008851  0.80004425  0.33298745  1
  Mg  Mg64  1  0.19995575  0.80004425  0.33298745  1
  Mg  Mg65  1  0.20005261  0.60002581  0.33324649  1
  Mg  Mg66  1  0.39997319  0.60002581  0.33324649  1
  Mg  Mg67  1  0.39997319  0.79994739  0.33324649  1
  Mg  Mg68  1  0.59981335  0.19962570  0.33354464  1
  Mg  Mg69  1  0.59981335  0.40018665  0.33354464  1
  Mg  Mg70  1  0.80037330  0.40018665  0.33354464  1
  Mg  Mg71  1  0.39991595  0.19995748  0.33378244  1
  Mg  Mg72  1  0.80004152  0.19995848  0.33378244  1
  Mg  Mg73  1  0.80004152  0.60008305  0.33378244  1
  Mg  Mg74  1  0.86712029  0.13287971  0.50000000  1
  Mg  Mg75  1  0.26575942  0.13287971  0.50000000  1
  Mg  Mg76  1  0.06648460  0.13296921  0.50000000  1
  Mg  Mg77  1  0.46671398  0.13346323  0.50000000  1
  Mg  Mg78  1  0.66674926  0.13346323  0.50000000  1
  Mg  Mg79  1  0.26632535  0.33252260  0.50000000  1
  Mg  Mg80  1  0.06619725  0.33252260  0.50000000  1
  Mg  Mg81  1  0.46671398  0.33325074  0.50000000  1
  Mg  Mg82  1  0.86653677  0.33325074  0.50000000  1
  Mg  Mg83  1  0.66666700  0.33333300  0.50000000  1
  Mg  Mg84  1  0.26636519  0.53273037  0.50000000  1
  Mg  Mg85  1  0.06593732  0.53296816  0.50000000  1
  Mg  Mg86  1  0.46703084  0.53296916  0.50000000  1
  Mg  Mg87  1  0.86653677  0.53328602  0.50000000  1
  Mg  Mg88  1  0.66674926  0.53328602  0.50000000  1
  Mg  Mg89  1  0.46726963  0.73363481  0.50000000  1
  Mg  Mg90  1  0.26636519  0.73363481  0.50000000  1
  Mg  Mg91  1  0.06619725  0.73367465  0.50000000  1
  Mg  Mg92  1  0.66747740  0.73367465  0.50000000  1
  Mg  Mg93  1  0.86712029  0.73424158  0.50000000  1
  Mg  Mg94  1  0.06648460  0.93351540  0.50000000  1
  Mg  Mg95  1  0.86703079  0.93351540  0.50000000  1
  Mg  Mg96  1  0.46703084  0.93406268  0.50000000  1
  Mg  Mg97  1  0.26632535  0.93380275  0.50000000  1
  Mg  Mg98  1  0.66747740  0.93380275  0.50000000  1
  Mg  Mg99  1  0.39991595  0.19995748  0.66621756  1
  Mg  Mg100  1  0.80004152  0.19995848  0.66621756  1
  Mg  Mg101  1  0.80004152  0.60008305  0.66621756  1
  Mg  Mg102  1  0.59981335  0.19962570  0.66645536  1
  Mg  Mg103  1  0.59981335  0.40018665  0.66645536  1
  Mg  Mg104  1  0.80037330  0.40018665  0.66645536  1
  Mg  Mg105  1  0.20005261  0.60002581  0.66675351  1
  Mg  Mg106  1  0.39997319  0.60002581  0.66675351  1
  Mg  Mg107  1  0.39997319  0.79994739  0.66675351  1
  Mg  Mg108  1  0.19995575  0.39991149  0.66701255  1
  Mg  Mg109  1  0.60008851  0.80004425  0.66701255  1
  Mg  Mg110  1  0.19995575  0.80004425  0.66701255  1
  Mg  Mg111  1  0.39916411  0.99975249  0.66742371  1
  Mg  Mg112  1  0.60058838  0.99975249  0.66742371  1
  Mg  Mg113  1  0.00024851  0.39941162  0.66742371  1
  Mg  Mg114  1  0.39916411  0.39941162  0.66742371  1
  Mg  Mg115  1  0.00024851  0.60083589  0.66742371  1
  Mg  Mg116  1  0.60058838  0.60083689  0.66742371  1
  Mg  Mg117  1  0.00000000  0.00000000  0.66763428  1
  Mg  Mg118  1  0.00033783  0.19883707  0.66932206  1
  Mg  Mg119  1  0.19850024  0.19883807  0.66932206  1
  Mg  Mg120  1  0.80116193  0.80149976  0.66932206  1
  Mg  Mg121  1  0.00033783  0.80149976  0.66932206  1
  Mg  Mg122  1  0.80116193  0.99966217  0.66932206  1
  Mg  Mg123  1  0.19850024  0.99966217  0.66932206  1
  Mg  Mg124  1  0.26913396  0.13456698  0.83305826  1
  Mg  Mg125  1  0.86543302  0.13456698  0.83305826  1
  Mg  Mg126  1  0.86543302  0.73086604  0.83305826  1
  Mg  Mg127  1  0.66666700  0.33333300  0.83320338  1
  Mg  Mg128  1  0.46717465  0.13369456  0.83320917  1
  Mg  Mg129  1  0.66651992  0.13369456  0.83320917  1
  Mg  Mg130  1  0.46717465  0.33348008  0.83320917  1
  Mg  Mg131  1  0.86630544  0.33348008  0.83320917  1
  Mg  Mg132  1  0.86630544  0.53282535  0.83320917  1
  Mg  Mg133  1  0.66651992  0.53282535  0.83320917  1
  Mg  Mg134  1  0.26641208  0.53282416  0.83382540  1
  Mg  Mg135  1  0.46717584  0.73358792  0.83382540  1
  Mg  Mg136  1  0.26641208  0.73358792  0.83382540  1
  Mg  Mg137  1  0.06656949  0.53328525  0.83414780  1
  Mg  Mg138  1  0.46671575  0.53328525  0.83414780  1
  Mg  Mg139  1  0.46671575  0.93343051  0.83414780  1
  Mg  Mg140  1  0.06608847  0.33094923  0.83461817  1
  Mg  Mg141  1  0.26486076  0.33095023  0.83461817  1
  Mg  Mg142  1  0.06608847  0.73513824  0.83461817  1
  Mg  Mg143  1  0.66905077  0.73513924  0.83461817  1
  Mg  Mg144  1  0.26486076  0.93391153  0.83461817  1
  Mg  Mg145  1  0.66905077  0.93391153  0.83461817  1
  Mg  Mg146  1  0.06279593  0.12559186  0.84399738  1
  Mg  Mg147  1  0.87440814  0.93720407  0.84399738  1
  Mg  Mg148  1  0.06279593  0.93720407  0.84399738  1
  Re  Re0  1  0.00000000  0.00000000  -0.00000000  1
loop_
_geom_bond_atom_site_label_1
_geom_bond_atom_site_label_2
_geom_bond_distance
_geom_bond_site_symmetry_2
Mg0 Mg6 3.157740 1_555
Mg0 Mg145 3.168451 1_544
Mg0 Mg32 3.168464 1_545
Mg0 Mg20 3.170982 1_545
Mg0 Mg129 3.193673 1_554
Mg0 Mg40 3.193673 1_555
Mg0 Mg8 3.200616 1_555
Mg0 Mg139 3.209795 1_544
Mg0 Mg35 3.209795 1_545
Mg0 Mg19 3.214797 1_545
Mg0 Mg1 3.288819 1_555
Mg0 Mg2 3.329958 1_555
Mg1 Mg7 3.157725 1_555
Mg1 Mg144 3.168459 1_544
Mg1 Mg31 3.168472 1_545
Mg1 Mg21 3.170980 1_545
Mg1 Mg128 3.193664 1_554
Mg1 Mg39 3.193664 1_555
Mg1 Mg8 3.200599 1_555
Mg1 Mg35 3.209804 1_545
Mg1 Mg139 3.209804 1_544
Mg1 Mg19 3.214806 1_545
Mg1 Mg3 3.329966 1_555
Mg2 Mg4 2.959276 1_555
Mg2 Re0 2.998840 1_655
Mg2 Mg25 2.999176 1_545
Mg2 Mg22 3.038224 1_545
Mg2 Mg47 3.200915 1_555
Mg2 Mg6 3.247731 1_555
Mg2 Mg32 3.262646 1_545
Mg2 Mg20 3.265989 1_545
Mg3 Mg5 2.959269 1_555
Mg3 Re0 2.998840 1_555
Mg3 Mg46 3.200915 1_555
Mg3 Mg7 3.247739 1_555
Mg3 Mg31 3.262646 1_545
Mg4 Re0 2.998825 1_655
Mg4 Mg5 3.038222 1_655
Mg4 Mg47 3.200916 1_555
Mg4 Mg6 3.247739 1_555
Mg4 Mg9 3.265997 1_655
Mg5 Re0 2.998832 1_555
Mg5 Mg7 3.247739 1_555
Mg5 Mg9 3.265999 1_555
Mg6 Mg8 3.210402 1_555
Mg7 Mg8 3.210386 1_555
Mg10 Mg6 3.157740 1_555
Mg10 Mg140 3.168451 1_654
Mg10 Mg27 3.168464 1_655
Mg10 Mg9 3.170980 1_655
Mg10 Mg131 3.193672 1_554
Mg10 Mg42 3.193672 1_555
Mg10 Mg13 3.200615 1_555
Mg10 Mg137 3.209804 1_654
Mg10 Mg33 3.209804 1_655
Mg10 Mg14 3.214805 1_655
Mg10 Mg17 3.288829 1_555
Mg10 Mg4 3.329976 1_555
Mg11 Mg7 3.157741 1_555
Mg11 Mg141 3.168459 1_554
Mg11 Mg28 3.168472 1_555
Mg11 Mg9 3.170980 1_555
Mg11 Mg130 3.193665 1_554
Mg11 Mg41 3.193665 1_555
Mg11 Mg12 3.200607 1_555
Mg11 Mg138 3.209804 1_554
Mg11 Mg34 3.209804 1_555
Mg11 Mg15 3.214806 1_555
Mg11 Mg18 3.288819 1_555
Mg11 Mg5 3.329974 1_555
Mg12 Mg130 3.188293 1_554
Mg12 Mg41 3.188293 1_555
Mg12 Mg133 3.188301 1_554
Mg12 Mg44 3.188301 1_555
Mg12 Mg127 3.199671 1_554
Mg12 Mg45 3.199671 1_555
Mg12 Mg18 3.200632 1_555
Mg12 Mg8 3.203810 1_555
Mg12 Mg13 3.203817 1_555
Mg12 Mg7 3.210386 1_555
Mg12 Mg16 3.210410 1_555
Mg13 Mg132 3.188293 1_554
Mg13 Mg43 3.188293 1_555
Mg13 Mg131 3.188293 1_554
Mg13 Mg42 3.188293 1_555
Mg13 Mg45 3.199670 1_555
Mg13 Mg17 3.200615 1_555
Mg13 Mg8 3.203825 1_555
Mg13 Mg16 3.210403 1_555
Mg13 Mg6 3.210404 1_555
Mg14 Mg33 3.179350 1_555
Mg14 Mg36 3.190976 1_555
Mg14 Mg38 3.190984 1_555
Mg14 Mg15 3.201735 1_555
Mg14 Mg19 3.201743 1_555
Mg14 Mg17 3.214813 1_455
Mg14 Mg9 3.230091 1_555
Mg14 Mg21 3.230107 1_555
Mg15 Mg34 3.179342 1_555
Mg15 Mg36 3.190984 1_555
Mg15 Mg37 3.190984 1_555
Mg15 Mg19 3.201753 1_555
Mg15 Mg18 3.214797 1_555
Mg15 Mg20 3.230090 1_555
Mg15 Mg9 3.230090 1_555
Mg16 Mg17 3.157739 1_555
Mg16 Mg18 3.157740 1_555
Mg16 Mg48 3.163315 1_555
Mg16 Mg44 3.203092 1_555
Mg16 Mg43 3.203093 1_555
Mg16 Mg23 3.247730 1_555
Mg16 Mg22 3.247731 1_555
Mg17 Mg29 3.168456 1_655
Mg17 Mg21 3.170980 1_655
Mg17 Mg43 3.193672 1_555
Mg17 Mg33 3.209796 1_655
Mg17 Mg23 3.329959 1_555
Mg18 Mg30 3.168464 1_555
Mg18 Mg20 3.170966 1_555
Mg18 Mg44 3.193673 1_555
Mg18 Mg34 3.209795 1_555
Mg18 Mg22 3.329958 1_555
Mg19 Mg35 3.179342 1_555
Mg19 Mg38 3.190984 1_555
Mg19 Mg37 3.190984 1_555
Mg19 Mg21 3.230090 1_555
Mg19 Mg20 3.230097 1_555
Mg20 Mg30 3.167752 1_555
Mg20 Mg32 3.167760 1_555
Mg20 Mg37 3.210195 1_555
Mg20 Mg22 3.265981 1_555
Mg21 Mg31 3.167752 1_555
Mg21 Mg29 3.167760 1_555
Mg21 Mg38 3.210195 1_555
Mg21 Mg3 3.265982 1_565
Mg21 Mg23 3.265989 1_455
Mg22 Mg23 2.959284 1_555
Mg22 Re0 2.998840 1_665
Mg22 Mg25 2.999176 1_555
Mg22 Mg48 3.200915 1_555
Mg22 Mg30 3.262646 1_555
Mg23 Re0 2.998841 1_665
Mg23 Mg26 2.999176 1_655
Mg23 Mg3 3.038222 1_665
Mg23 Mg48 3.200915 1_555
Mg23 Mg29 3.262654 1_655
Mg24 Re0 2.995154 1_555
Mg24 Mg4 2.999168 1_455
Mg24 Mg5 2.999176 1_555
Mg24 Mg46 3.225676 1_555
Mg24 Mg47 3.225676 1_455
Mg24 Mg27 3.252049 1_555
Mg24 Mg28 3.252056 1_555
Mg24 Mg55 3.260195 1_555
Mg24 Mg49 3.315855 1_555
Mg24 Mg50 3.315862 1_555
Mg25 Re0 2.995153 1_665
Mg25 Mg47 3.225677 1_565
Mg25 Mg48 3.225677 1_555
Mg25 Mg32 3.252048 1_555
Mg25 Mg30 3.252048 1_555
Mg25 Mg55 3.260195 1_665
Mg25 Mg53 3.315863 1_555
Mg25 Mg51 3.315863 1_555
Mg26 Re0 2.995154 1_565
Mg26 Mg3 2.999175 1_565
Mg26 Mg46 3.225676 1_565
Mg26 Mg48 3.225676 1_455
Mg26 Mg31 3.252048 1_555
Mg26 Mg29 3.252065 1_555
Mg26 Mg55 3.260195 1_565
Mg26 Mg54 3.315862 1_555
Mg26 Mg52 3.315863 1_555
Mg27 Mg49 3.165889 1_555
Mg27 Mg47 3.166262 1_455
Mg27 Mg9 3.167760 1_555
Mg27 Mg28 3.169651 1_555
Mg27 Mg42 3.206221 1_455
Mg27 Mg36 3.206861 1_555
Mg27 Mg58 3.207690 1_555
Mg27 Mg62 3.209560 1_555
Mg27 Mg33 3.222668 1_555
Mg27 Mg4 3.262655 1_455
Mg28 Mg50 3.165889 1_555
Mg28 Mg46 3.166279 1_555
Mg28 Mg9 3.167744 1_555
Mg28 Mg41 3.206229 1_555
Mg28 Mg36 3.206846 1_555
Mg28 Mg59 3.207697 1_555
Mg28 Mg62 3.209552 1_555
Mg28 Mg34 3.222659 1_555
Mg28 Mg5 3.262662 1_555
Mg29 Mg52 3.165889 1_555
Mg29 Mg48 3.166269 1_455
Mg29 Mg31 3.169667 1_555
Mg29 Mg43 3.206213 1_455
Mg29 Mg38 3.206853 1_555
Mg29 Mg60 3.207690 1_555
Mg29 Mg64 3.209560 1_555
Mg29 Mg33 3.222636 1_555
Mg30 Mg51 3.165881 1_555
Mg30 Mg48 3.166262 1_555
Mg30 Mg32 3.169660 1_555
Mg30 Mg44 3.206223 1_555
Mg30 Mg37 3.206861 1_555
Mg30 Mg61 3.207690 1_555
Mg30 Mg63 3.209560 1_555
Mg30 Mg34 3.222651 1_555
Mg31 Mg54 3.165881 1_555
Mg31 Mg46 3.166263 1_565
Mg31 Mg39 3.206222 1_565
Mg31 Mg38 3.206862 1_555
Mg31 Mg56 3.207697 1_555
Mg31 Mg64 3.209560 1_555
Mg31 Mg35 3.222667 1_555
Mg32 Mg53 3.165881 1_555
Mg32 Mg47 3.166262 1_565
Mg32 Mg40 3.206223 1_565
Mg32 Mg37 3.206861 1_555
Mg32 Mg57 3.207698 1_555
Mg32 Mg63 3.209560 1_555
Mg32 Mg35 3.222651 1_555
Mg33 Mg43 3.189820 1_455
Mg33 Mg42 3.189828 1_455
Mg33 Mg38 3.190405 1_555
Mg33 Mg36 3.190413 1_555
Mg33 Mg60 3.198203 1_555
Mg33 Mg58 3.198219 1_555
Mg33 Mg65 3.203651 1_555
Mg34 Mg44 3.189821 1_555
Mg34 Mg41 3.189830 1_555
Mg34 Mg37 3.190406 1_555
Mg34 Mg36 3.190413 1_555
Mg34 Mg61 3.198211 1_555
Mg34 Mg59 3.198219 1_555
Mg34 Mg66 3.203651 1_555
Mg35 Mg40 3.189820 1_565
Mg35 Mg39 3.189829 1_565
Mg35 Mg37 3.190406 1_555
Mg35 Mg38 3.190413 1_555
Mg35 Mg57 3.198211 1_555
Mg35 Mg56 3.198219 1_555
Mg35 Mg67 3.203651 1_555
Mg36 Mg62 3.191675 1_555
Mg36 Mg66 3.200153 1_555
Mg36 Mg65 3.200153 1_555
Mg36 Mg37 3.201415 1_555
Mg36 Mg38 3.201417 1_555
Mg36 Mg9 3.210195 1_555
Mg37 Mg63 3.191675 1_555
Mg37 Mg66 3.200161 1_555
Mg37 Mg67 3.200161 1_555
Mg37 Mg38 3.201415 1_555
Mg38 Mg64 3.191675 1_555
Mg38 Mg67 3.200153 1_555
Mg38 Mg65 3.200161 1_555
Mg39 Mg46 3.164972 1_555
Mg39 Mg40 3.178796 1_555
Mg39 Mg45 3.182307 1_555
Mg39 Mg41 3.185817 1_555
Mg39 Mg56 3.186819 1_545
Mg39 Mg8 3.188293 1_555
Mg39 Mg68 3.188750 1_555
Mg39 Mg71 3.198815 1_555
Mg39 Mg7 3.203085 1_555
Mg40 Mg47 3.164972 1_555
Mg40 Mg45 3.182300 1_555
Mg40 Mg42 3.185816 1_555
Mg40 Mg57 3.186819 1_545
Mg40 Mg8 3.188293 1_555
Mg40 Mg68 3.188742 1_555
Mg40 Mg72 3.198814 1_555
Mg40 Mg6 3.203092 1_555
Mg41 Mg46 3.164972 1_555
Mg41 Mg44 3.178796 1_555
Mg41 Mg45 3.182315 1_555
Mg41 Mg59 3.186819 1_555
Mg41 Mg69 3.188750 1_555
Mg41 Mg71 3.198822 1_555
Mg41 Mg7 3.203092 1_555
Mg42 Mg47 3.164974 1_555
Mg42 Mg43 3.178797 1_555
Mg42 Mg45 3.182299 1_555
Mg42 Mg58 3.186826 1_655
Mg42 Mg70 3.188750 1_555
Mg42 Mg72 3.198814 1_555
Mg42 Mg6 3.203093 1_555
Mg43 Mg48 3.164974 1_555
Mg43 Mg45 3.182307 1_555
Mg43 Mg44 3.185816 1_555
Mg43 Mg60 3.186826 1_655
Mg43 Mg70 3.188750 1_555
Mg43 Mg73 3.198814 1_555
Mg44 Mg48 3.164972 1_555
Mg44 Mg45 3.182316 1_555
Mg44 Mg61 3.186827 1_555
Mg44 Mg69 3.188750 1_555
Mg44 Mg73 3.198814 1_555
Mg45 Mg70 3.197162 1_555
Mg45 Mg69 3.197170 1_555
Mg45 Mg68 3.197170 1_555
Mg45 Mg8 3.199671 1_555
Mg46 Mg7 3.163322 1_555
Mg46 Mg50 3.168915 1_555
Mg46 Mg54 3.168915 1_545
Mg46 Mg71 3.175216 1_555
Mg46 Mg5 3.200908 1_555
Mg47 Mg6 3.163314 1_555
Mg47 Mg49 3.168915 1_655
Mg47 Mg53 3.168915 1_545
Mg47 Mg72 3.175224 1_555
Mg48 Mg52 3.168915 1_655
Mg48 Mg51 3.168915 1_555
Mg48 Mg73 3.175224 1_555
Mg49 Mg50 3.159926 1_555
Mg49 Mg55 3.168113 1_555
Mg49 Mg53 3.176087 1_445
Mg49 Mg62 3.195024 1_555
Mg49 Mg58 3.199250 1_555
Mg49 Mg72 3.203308 1_455
Mg49 Mg76 3.216842 1_555
Mg49 Mg74 3.226301 1_455
Mg49 Mg80 3.230012 1_555
Mg50 Mg55 3.168128 1_555
Mg50 Mg54 3.176096 1_545
Mg50 Mg62 3.195017 1_555
Mg50 Mg59 3.199241 1_555
Mg50 Mg71 3.203292 1_555
Mg50 Mg76 3.216849 1_555
Mg50 Mg75 3.226301 1_555
Mg50 Mg79 3.230004 1_555
Mg51 Mg53 3.159935 1_555
Mg51 Mg55 3.168128 1_665
Mg51 Mg52 3.176095 1_655
Mg51 Mg63 3.195016 1_555
Mg51 Mg61 3.199233 1_555
Mg51 Mg73 3.203302 1_555
Mg51 Mg95 3.216850 1_555
Mg51 Mg93 3.226293 1_555
Mg51 Mg92 3.230004 1_555
Mg52 Mg54 3.159934 1_555
Mg52 Mg55 3.168129 1_565
Mg52 Mg64 3.195016 1_555
Mg52 Mg60 3.199250 1_555
Mg52 Mg73 3.203300 1_455
Mg52 Mg94 3.216850 1_555
Mg52 Mg93 3.226301 1_455
Mg52 Mg91 3.230004 1_555
Mg53 Mg55 3.168128 1_665
Mg53 Mg63 3.195016 1_555
Mg53 Mg57 3.199241 1_555
Mg53 Mg72 3.203302 1_565
Mg53 Mg95 3.216849 1_555
Mg53 Mg74 3.226301 1_565
Mg53 Mg98 3.230004 1_555
Mg54 Mg55 3.168128 1_565
Mg54 Mg64 3.195018 1_555
Mg54 Mg56 3.199241 1_555
Mg54 Mg71 3.203284 1_565
Mg54 Mg94 3.216849 1_555
Mg54 Mg75 3.226301 1_565
Mg54 Mg97 3.230004 1_555
Mg55 Mg95 3.202637 1_445
Mg55 Mg94 3.202637 1_545
Mg55 Mg76 3.202637 1_555
Mg56 Mg64 3.180612 1_555
Mg56 Mg71 3.186585 1_565
Mg56 Mg67 3.192617 1_555
Mg56 Mg68 3.193456 1_565
Mg56 Mg97 3.198912 1_555
Mg56 Mg96 3.204646 1_555
Mg56 Mg77 3.205844 1_565
Mg56 Mg57 3.211948 1_555
Mg57 Mg63 3.180614 1_555
Mg57 Mg72 3.186591 1_565
Mg57 Mg67 3.192624 1_555
Mg57 Mg68 3.193449 1_565
Mg57 Mg98 3.198913 1_555
Mg57 Mg96 3.204653 1_555
Mg57 Mg78 3.205844 1_565
Mg58 Mg62 3.180596 1_555
Mg58 Mg72 3.186599 1_455
Mg58 Mg65 3.192608 1_555
Mg58 Mg70 3.193480 1_455
Mg58 Mg80 3.198905 1_555
Mg58 Mg85 3.204646 1_555
Mg58 Mg82 3.205851 1_455
Mg58 Mg60 3.211949 1_555
Mg59 Mg62 3.180612 1_555
Mg59 Mg71 3.186600 1_555
Mg59 Mg66 3.192617 1_555
Mg59 Mg69 3.193464 1_555
Mg59 Mg79 3.198912 1_555
Mg59 Mg86 3.204653 1_555
Mg59 Mg81 3.205844 1_555
Mg59 Mg61 3.211956 1_555
Mg60 Mg64 3.180604 1_555
Mg60 Mg73 3.186607 1_455
Mg60 Mg65 3.192608 1_555
Mg60 Mg70 3.193472 1_455
Mg60 Mg91 3.198913 1_555
Mg60 Mg85 3.204646 1_555
Mg60 Mg87 3.205851 1_455
Mg61 Mg63 3.180597 1_555
Mg61 Mg73 3.186599 1_555
Mg61 Mg66 3.192616 1_555
Mg61 Mg69 3.193481 1_555
Mg61 Mg92 3.198905 1_555
Mg61 Mg86 3.204653 1_555
Mg61 Mg88 3.205852 1_555
Mg62 Mg66 3.190290 1_555
Mg62 Mg65 3.190291 1_555
Mg62 Mg84 3.193489 1_555
Mg62 Mg80 3.200969 1_555
Mg62 Mg79 3.200969 1_555
Mg63 Mg66 3.190306 1_555
Mg63 Mg67 3.190306 1_555
Mg63 Mg89 3.193488 1_555
Mg63 Mg92 3.200969 1_555
Mg63 Mg98 3.200970 1_555
Mg64 Mg67 3.190290 1_555
Mg64 Mg65 3.190307 1_555
Mg64 Mg90 3.193489 1_555
Mg64 Mg91 3.200969 1_555
Mg64 Mg97 3.200970 1_555
Mg65 Mg66 3.187970 1_555
Mg65 Mg67 3.187978 1_555
Mg65 Mg84 3.196458 1_555
Mg65 Mg90 3.196466 1_555
Mg65 Mg85 3.200497 1_555
Mg66 Mg67 3.187987 1_555
Mg66 Mg84 3.196458 1_555
Mg66 Mg89 3.196466 1_555
Mg66 Mg86 3.200489 1_555
Mg67 Mg90 3.196458 1_555
Mg67 Mg89 3.196466 1_555
Mg67 Mg96 3.200497 1_555
Mg68 Mg78 3.188583 1_555
Mg68 Mg77 3.188590 1_555
Mg68 Mg72 3.190227 1_555
Mg68 Mg71 3.190251 1_555
Mg68 Mg83 3.193431 1_555
Mg68 Mg70 3.198173 1_555
Mg68 Mg69 3.198183 1_555
Mg69 Mg81 3.188590 1_555
Mg69 Mg88 3.188590 1_555
Mg69 Mg73 3.190235 1_555
Mg69 Mg71 3.190251 1_555
Mg69 Mg83 3.193431 1_555
Mg69 Mg70 3.198165 1_555
Mg70 Mg87 3.188590 1_555
Mg70 Mg82 3.188590 1_555
Mg70 Mg72 3.190236 1_555
Mg70 Mg73 3.190236 1_555
Mg70 Mg83 3.193423 1_555
Mg71 Mg77 3.187082 1_555
Mg71 Mg81 3.187090 1_555
Mg71 Mg75 3.193989 1_555
Mg72 Mg78 3.187082 1_555
Mg72 Mg82 3.187082 1_555
Mg72 Mg74 3.193998 1_555
Mg73 Mg88 3.187082 1_555
Mg73 Mg87 3.187082 1_555
Mg73 Mg93 3.194006 1_555
Mg74 Mg76 3.178386 1_655
Mg74 Mg95 3.178387 1_545
Mg74 Mg98 3.179039 1_545
Mg74 Mg80 3.179039 1_655
Mg74 Mg78 3.199815 1_555
Mg74 Mg82 3.199817 1_555
Mg75 Mg76 3.178386 1_555
Mg75 Mg94 3.178386 1_545
Mg75 Mg97 3.179040 1_545
Mg75 Mg79 3.179040 1_555
Mg75 Mg99 3.193989 1_555
Mg75 Mg77 3.199816 1_555
Mg75 Mg81 3.199816 1_555
Mg76 Mg95 3.180527 1_445
Mg76 Mg94 3.180528 1_545
Mg76 Mg79 3.184408 1_555
Mg76 Mg80 3.184409 1_555
Mg77 Mg96 3.182208 1_545
Mg77 Mg81 3.185849 1_555
Mg77 Mg99 3.187082 1_555
Mg77 Mg83 3.187824 1_555
Mg77 Mg97 3.189644 1_545
Mg77 Mg78 3.189799 1_555
Mg78 Mg96 3.182215 1_545
Mg78 Mg82 3.185848 1_555
Mg78 Mg83 3.187817 1_555
Mg78 Mg98 3.189645 1_545
Mg79 Mg81 3.189644 1_555
Mg79 Mg80 3.191279 1_555
Mg79 Mg84 3.192233 1_555
Mg79 Mg86 3.198424 1_555
Mg80 Mg82 3.189644 1_455
Mg80 Mg84 3.192232 1_555
Mg80 Mg85 3.198417 1_555
Mg81 Mg86 3.182224 1_555
Mg81 Mg99 3.187090 1_555
Mg81 Mg83 3.187831 1_555
Mg81 Mg88 3.189799 1_555
Mg82 Mg85 3.182207 1_655
Mg82 Mg83 3.187816 1_555
Mg82 Mg87 3.189800 1_555
Mg83 Mg87 3.187824 1_555
Mg83 Mg88 3.187833 1_555
Mg84 Mg86 3.197949 1_555
Mg84 Mg85 3.197957 1_555
Mg84 Mg89 3.203659 1_555
Mg84 Mg90 3.203660 1_555
Mg85 Mg87 3.182215 1_455
Mg85 Mg90 3.197965 1_555
Mg85 Mg91 3.198433 1_555
Mg86 Mg88 3.182223 1_555
Mg86 Mg89 3.197950 1_555
Mg86 Mg92 3.198424 1_555
Mg87 Mg88 3.185848 1_555
Mg87 Mg91 3.189644 1_655
Mg87 Mg93 3.199833 1_555
Mg88 Mg92 3.189645 1_555
Mg88 Mg93 3.199824 1_555
Mg89 Mg92 3.192232 1_555
Mg89 Mg98 3.192232 1_555
Mg89 Mg96 3.197966 1_555
Mg89 Mg90 3.203659 1_555
Mg90 Mg91 3.192232 1_555
Mg90 Mg97 3.192233 1_555
Mg90 Mg96 3.197957 1_555
Mg91 Mg93 3.179047 1_455
Mg91 Mg94 3.184410 1_555
Mg91 Mg97 3.191279 1_555
Mg92 Mg93 3.179031 1_555
Mg92 Mg95 3.184408 1_555
Mg92 Mg98 3.191280 1_555
Mg93 Mg95 3.178372 1_555
Mg93 Mg94 3.178378 1_655
Mg94 Mg95 3.180527 1_455
Mg94 Mg97 3.184408 1_555
Mg95 Mg98 3.184408 1_555
Mg96 Mg97 3.198416 1_555
Mg96 Mg98 3.198432 1_555
Mg100 Mg125 3.175211 1_555
Mg100 Mg112 3.186591 1_545
Mg100 Mg113 3.186599 1_655
Mg100 Mg78 3.187082 1_555
Mg100 Mg82 3.187082 1_555
Mg100 Mg102 3.190227 1_555
Mg100 Mg104 3.190236 1_555
Mg100 Mg74 3.193998 1_555
Mg100 Mg129 3.198814 1_555
Mg100 Mg131 3.198814 1_555
Mg100 Mg122 3.203302 1_545
Mg100 Mg118 3.203308 1_655
Mg101 Mg126 3.175211 1_555
Mg101 Mg116 3.186599 1_555
Mg101 Mg115 3.186607 1_655
Mg101 Mg88 3.187082 1_555
Mg101 Mg87 3.187082 1_555
Mg101 Mg103 3.190235 1_555
Mg101 Mg104 3.190236 1_555
Mg101 Mg93 3.194006 1_555
Mg101 Mg133 3.198814 1_555
Mg101 Mg132 3.198814 1_555
Mg101 Mg121 3.203300 1_655
Mg101 Mg120 3.203302 1_555
Mg102 Mg78 3.188583 1_555
Mg102 Mg77 3.188590 1_555
Mg102 Mg129 3.188742 1_555
Mg102 Mg128 3.188750 1_555
Mg102 Mg99 3.190251 1_555
Mg102 Mg83 3.193431 1_555
Mg102 Mg112 3.193449 1_545
Mg102 Mg111 3.193456 1_545
Mg102 Mg127 3.197170 1_555
Mg102 Mg104 3.198173 1_555
Mg102 Mg103 3.198183 1_555
Mg103 Mg81 3.188590 1_555
Mg103 Mg88 3.188590 1_555
Mg103 Mg130 3.188750 1_555
Mg103 Mg133 3.188750 1_555
Mg103 Mg99 3.190251 1_555
Mg103 Mg83 3.193431 1_555
Mg103 Mg114 3.193464 1_555
Mg103 Mg116 3.193481 1_555
Mg103 Mg127 3.197170 1_555
Mg103 Mg104 3.198165 1_555
Mg104 Mg87 3.188590 1_555
Mg104 Mg82 3.188590 1_555
Mg104 Mg132 3.188750 1_555
Mg104 Mg131 3.188750 1_555
Mg104 Mg83 3.193423 1_555
Mg104 Mg115 3.193472 1_655
Mg104 Mg113 3.193480 1_655
Mg104 Mg127 3.197162 1_555
Mg105 Mg106 3.187970 1_555
Mg105 Mg107 3.187978 1_555
Mg105 Mg108 3.190291 1_555
Mg105 Mg110 3.190307 1_555
Mg105 Mg115 3.192608 1_555
Mg105 Mg113 3.192608 1_555
Mg105 Mg84 3.196458 1_555
Mg105 Mg90 3.196466 1_555
Mg105 Mg134 3.200153 1_555
Mg105 Mg136 3.200161 1_555
Mg105 Mg85 3.200497 1_555
Mg105 Mg137 3.203651 1_555
Mg106 Mg107 3.187987 1_555
Mg106 Mg108 3.190290 1_555
Mg106 Mg109 3.190306 1_555
Mg106 Mg116 3.192616 1_555
Mg106 Mg114 3.192617 1_555
Mg106 Mg84 3.196458 1_555
Mg106 Mg89 3.196466 1_555
Mg106 Mg134 3.200153 1_555
Mg106 Mg135 3.200161 1_555
Mg106 Mg86 3.200489 1_555
Mg106 Mg138 3.203651 1_555
Mg107 Mg110 3.190290 1_555
Mg107 Mg109 3.190306 1_555
Mg107 Mg111 3.192617 1_555
Mg107 Mg112 3.192624 1_555
Mg107 Mg90 3.196458 1_555
Mg107 Mg89 3.196466 1_555
Mg107 Mg136 3.200153 1_555
Mg107 Mg135 3.200161 1_555
Mg107 Mg96 3.200497 1_555
Mg107 Mg139 3.203651 1_555
Mg108 Mg113 3.180596 1_555
Mg108 Mg114 3.180612 1_555
Mg108 Mg134 3.191675 1_555
Mg108 Mg84 3.193489 1_555
Mg108 Mg119 3.195017 1_555
Mg108 Mg118 3.195024 1_555
Mg108 Mg80 3.200969 1_555
Mg108 Mg79 3.200969 1_555
Mg108 Mg141 3.209565 1_555
Mg108 Mg140 3.209573 1_555
Mg109 Mg116 3.180597 1_555
Mg109 Mg112 3.180614 1_555
Mg109 Mg135 3.191675 1_555
Mg109 Mg89 3.193488 1_555
Mg109 Mg120 3.195016 1_555
Mg109 Mg122 3.195016 1_555
Mg109 Mg92 3.200969 1_555
Mg109 Mg98 3.200970 1_555
Mg109 Mg143 3.209573 1_555
Mg109 Mg145 3.209573 1_555
Mg110 Mg115 3.180604 1_555
Mg110 Mg111 3.180612 1_555
Mg110 Mg136 3.191675 1_555
Mg110 Mg90 3.193489 1_555
Mg110 Mg121 3.195016 1_555
Mg110 Mg123 3.195018 1_555
Mg110 Mg91 3.200969 1_555
Mg110 Mg97 3.200970 1_555
Mg110 Mg142 3.209573 1_555
Mg110 Mg144 3.209573 1_555
Mg111 Mg99 3.186585 1_565
Mg111 Mg128 3.186806 1_565
Mg111 Mg139 3.198206 1_555
Mg111 Mg97 3.198925 1_555
Mg111 Mg123 3.199241 1_555
Mg111 Mg96 3.204658 1_555
Mg111 Mg77 3.205857 1_565
Mg111 Mg144 3.207697 1_555
Mg111 Mg112 3.211948 1_555
Mg112 Mg129 3.186806 1_565
Mg112 Mg139 3.198198 1_555
Mg112 Mg98 3.198925 1_555
Mg112 Mg122 3.199241 1_555
Mg112 Mg96 3.204666 1_555
Mg112 Mg78 3.205857 1_565
Mg112 Mg145 3.207698 1_555
Mg113 Mg131 3.186813 1_455
Mg113 Mg137 3.198207 1_555
Mg113 Mg80 3.198917 1_555
Mg113 Mg118 3.199250 1_555
Mg113 Mg85 3.204658 1_555
Mg113 Mg82 3.205864 1_455
Mg113 Mg140 3.207690 1_555
Mg113 Mg115 3.211949 1_555
Mg114 Mg99 3.186601 1_555
Mg114 Mg130 3.186806 1_555
Mg114 Mg138 3.198207 1_555
Mg114 Mg79 3.198925 1_555
Mg114 Mg119 3.199241 1_555
Mg114 Mg86 3.204666 1_555
Mg114 Mg81 3.205857 1_555
Mg114 Mg141 3.207697 1_555
Mg114 Mg116 3.211956 1_555
Mg115 Mg132 3.186813 1_455
Mg115 Mg137 3.198190 1_555
Mg115 Mg91 3.198925 1_555
Mg115 Mg121 3.199250 1_555
Mg115 Mg85 3.204658 1_555
Mg115 Mg87 3.205864 1_455
Mg115 Mg142 3.207690 1_555
Mg116 Mg133 3.186814 1_555
Mg116 Mg138 3.198198 1_555
Mg116 Mg92 3.198918 1_555
Mg116 Mg120 3.199233 1_555
Mg116 Mg86 3.204666 1_555
Mg116 Mg88 3.205865 1_555
Mg116 Mg143 3.207690 1_555
Mg117 Mg118 3.168113 1_555
Mg117 Mg122 3.168128 1_445
Mg117 Mg123 3.168128 1_545
Mg117 Mg120 3.168128 1_445
Mg117 Mg119 3.168128 1_555
Mg117 Mg121 3.168129 1_545
Mg117 Mg95 3.202650 1_445
Mg117 Mg94 3.202650 1_545
Mg117 Mg76 3.202650 1_555
Mg117 Mg147 3.260195 1_445
Mg117 Mg148 3.260195 1_545
Mg117 Mg146 3.260195 1_555
Mg118 Mg119 3.159926 1_555
Mg118 Mg140 3.165902 1_555
Mg118 Mg125 3.168902 1_455
Mg118 Mg122 3.176087 1_445
Mg118 Mg76 3.216842 1_555
Mg118 Mg74 3.226301 1_455
Mg118 Mg80 3.230012 1_555
Mg118 Mg146 3.315868 1_555
Mg119 Mg141 3.165902 1_555
Mg119 Mg124 3.168903 1_555
Mg119 Mg123 3.176096 1_545
Mg119 Mg99 3.203292 1_555
Mg119 Mg76 3.216849 1_555
Mg119 Mg75 3.226301 1_555
Mg119 Mg79 3.230004 1_555
Mg119 Mg146 3.315875 1_555
Mg120 Mg122 3.159935 1_555
Mg120 Mg143 3.165894 1_555
Mg120 Mg126 3.168903 1_555
Mg120 Mg121 3.176095 1_655
Mg120 Mg95 3.216850 1_555
Mg120 Mg93 3.226293 1_555
Mg120 Mg92 3.230004 1_555
Mg120 Mg147 3.315876 1_555
Mg121 Mg123 3.159934 1_555
Mg121 Mg142 3.165902 1_555
Mg121 Mg126 3.168902 1_455
Mg121 Mg94 3.216850 1_555
Mg121 Mg93 3.226301 1_455
Mg121 Mg91 3.230004 1_555
Mg121 Mg148 3.315876 1_555
Mg122 Mg145 3.165894 1_555
Mg122 Mg125 3.168903 1_565
Mg122 Mg95 3.216849 1_555
Mg122 Mg74 3.226301 1_565
Mg122 Mg98 3.230004 1_555
Mg122 Mg147 3.315876 1_555
Mg123 Mg144 3.165894 1_555
Mg123 Mg124 3.168903 1_565
Mg123 Mg99 3.203284 1_565
Mg123 Mg94 3.216849 1_555
Mg123 Mg75 3.226301 1_565
Mg123 Mg97 3.230004 1_555
Mg123 Mg148 3.315875 1_555
Mg124 Mg7 3.163335 1_556
Mg124 Mg128 3.164972 1_555
Mg124 Mg130 3.164972 1_555
Mg124 Mg144 3.166263 1_545
Mg124 Mg141 3.166279 1_555
Mg124 Mg99 3.175203 1_555
Mg124 Mg5 3.200920 1_556
Mg124 Mg3 3.200928 1_556
Mg124 Mg146 3.225677 1_555
Mg124 Mg148 3.225678 1_545
Mg125 Mg6 3.163327 1_556
Mg125 Mg129 3.164972 1_555
Mg125 Mg131 3.164974 1_555
Mg125 Mg140 3.166262 1_655
Mg125 Mg145 3.166262 1_545
Mg125 Mg2 3.200928 1_556
Mg125 Mg4 3.200929 1_556
Mg125 Mg146 3.225678 1_655
Mg125 Mg147 3.225679 1_545
Mg126 Mg16 3.163328 1_556
Mg126 Mg133 3.164972 1_555
Mg126 Mg132 3.164974 1_555
Mg126 Mg143 3.166262 1_555
Mg126 Mg142 3.166269 1_655
Mg126 Mg23 3.200927 1_556
Mg126 Mg22 3.200928 1_556
Mg126 Mg148 3.225678 1_655
Mg126 Mg147 3.225679 1_555
Mg127 Mg131 3.182299 1_555
Mg127 Mg129 3.182300 1_555
Mg127 Mg132 3.182307 1_555
Mg127 Mg128 3.182307 1_555
Mg127 Mg130 3.182315 1_555
Mg127 Mg133 3.182316 1_555
Mg127 Mg13 3.199670 1_556
Mg127 Mg8 3.199671 1_556
Mg128 Mg129 3.178796 1_555
Mg128 Mg130 3.185817 1_555
Mg128 Mg8 3.188293 1_556
Mg128 Mg139 3.189829 1_545
Mg128 Mg99 3.198815 1_555
Mg128 Mg7 3.203085 1_556
Mg128 Mg144 3.206222 1_545
Mg129 Mg131 3.185816 1_555
Mg129 Mg8 3.188293 1_556
Mg129 Mg139 3.189820 1_545
Mg129 Mg6 3.203092 1_556
Mg129 Mg145 3.206223 1_545
Mg130 Mg133 3.178796 1_555
Mg130 Mg138 3.189830 1_555
Mg130 Mg99 3.198822 1_555
Mg130 Mg7 3.203092 1_556
Mg130 Mg141 3.206229 1_555
Mg131 Mg132 3.178797 1_555
Mg131 Mg137 3.189828 1_655
Mg131 Mg6 3.203093 1_556
Mg131 Mg140 3.206222 1_655
Mg132 Mg133 3.185816 1_555
Mg132 Mg137 3.189820 1_655
Mg132 Mg17 3.193672 1_556
Mg132 Mg16 3.203093 1_556
Mg132 Mg142 3.206214 1_655
Mg133 Mg138 3.189821 1_555
Mg133 Mg18 3.193673 1_556
Mg133 Mg16 3.203092 1_556
Mg133 Mg143 3.206223 1_555
Mg134 Mg138 3.190413 1_555
Mg134 Mg137 3.190413 1_555
Mg134 Mg14 3.190976 1_556
Mg134 Mg15 3.190984 1_556
Mg134 Mg135 3.201415 1_555
Mg134 Mg136 3.201417 1_555
Mg134 Mg141 3.206846 1_555
Mg134 Mg140 3.206861 1_555
Mg134 Mg9 3.210195 1_556
Mg135 Mg138 3.190406 1_555
Mg135 Mg139 3.190406 1_555
Mg135 Mg19 3.190984 1_556
Mg135 Mg15 3.190984 1_556
Mg135 Mg136 3.201415 1_555
Mg135 Mg143 3.206861 1_555
Mg135 Mg145 3.206861 1_555
Mg135 Mg20 3.210195 1_556
Mg136 Mg137 3.190405 1_555
Mg136 Mg139 3.190413 1_555
Mg136 Mg19 3.190984 1_556
Mg136 Mg14 3.190984 1_556
Mg136 Mg142 3.206853 1_555
Mg136 Mg144 3.206862 1_555
Mg136 Mg21 3.210195 1_556
Mg137 Mg14 3.179350 1_556
Mg137 Mg17 3.209796 1_456
Mg137 Mg142 3.222636 1_555
Mg137 Mg140 3.222668 1_555
Mg138 Mg15 3.179342 1_556
Mg138 Mg18 3.209795 1_556
Mg138 Mg143 3.222651 1_555
Mg138 Mg141 3.222659 1_555
Mg139 Mg19 3.179342 1_556
Mg139 Mg145 3.222651 1_555
Mg139 Mg144 3.222667 1_555
Mg140 Mg9 3.167747 1_556
Mg140 Mg141 3.169651 1_555
Mg140 Mg146 3.252049 1_555
Mg140 Mg4 3.262642 1_456
Mg141 Mg9 3.167732 1_556
Mg141 Mg146 3.252056 1_555
Mg141 Mg5 3.262650 1_556
Mg142 Mg21 3.167747 1_556
Mg142 Mg17 3.168443 1_456
Mg142 Mg144 3.169667 1_555
Mg142 Mg148 3.252065 1_555
Mg142 Mg23 3.262642 1_456
Mg143 Mg20 3.167740 1_556
Mg143 Mg18 3.168451 1_556
Mg143 Mg145 3.169660 1_555
Mg143 Mg147 3.252048 1_555
Mg143 Mg22 3.262633 1_556
Mg144 Mg21 3.167740 1_556
Mg144 Mg148 3.252048 1_555
Mg144 Mg3 3.262633 1_566
Mg145 Mg20 3.167748 1_556
Mg145 Mg147 3.252048 1_555
Mg145 Mg2 3.262633 1_566
Mg146 Re0 2.995141 1_556
Mg146 Mg4 2.999155 1_456
Mg146 Mg5 2.999163 1_556
Mg147 Re0 2.995140 1_666
Mg147 Mg2 2.999163 1_566
Mg147 Mg22 2.999163 1_556
Mg148 Re0 2.995141 1_566
Mg148 Mg3 2.999163 1_566
Mg148 Mg23 2.999163 1_456
