# generated using pymatgen
data_Li7Mn4CoO12
_symmetry_space_group_name_H-M   'P 1'
_cell_length_a   5.19577794
_cell_length_b   10.02249430
_cell_length_c   9.68485866
_cell_angle_alpha   63.36782805
_cell_angle_beta   82.25758796
_cell_angle_gamma   101.19315427
_symmetry_Int_Tables_number   1
_chemical_formula_structural   Li7Mn4CoO12
_chemical_formula_sum   'Li14 Mn8 Co2 O24'
_cell_volume   427.87935143
_cell_formula_units_Z   2
loop_
 _symmetry_equiv_pos_site_id
 _symmetry_equiv_pos_as_xyz
  1  'x, y, z'
loop_
 _atom_site_type_symbol
 _atom_site_label
 _atom_site_symmetry_multiplicity
 _atom_site_fract_x
 _atom_site_fract_y
 _atom_site_fract_z
 _atom_site_occupancy
  Li  Li0  1  0.83328400  0.16666200  0.16667400  1
  Li  Li1  1  0.33329300  0.16667400  0.66665800  1
  Li  Li2  1  0.58322000  0.66668200  0.91669100  1
  Li  Li3  1  0.08342400  0.66664500  0.41663100  1
  Li  Li4  1  0.08330300  0.16663900  0.41670100  1
  Li  Li5  1  0.58332000  0.16671200  0.91667000  1
  Li  Li6  1  0.41319500  0.32651300  0.08677500  1
  Li  Li7  1  0.91319800  0.32656000  0.58671800  1
  Li  Li8  1  0.25332500  0.00680500  0.24662300  1
  Li  Li9  1  0.75342500  0.00680900  0.74660100  1
  Li  Li10  1  0.99944100  0.49892300  0.00054800  1
  Li  Li11  1  0.49944100  0.49891900  0.50053500  1
  Li  Li12  1  0.16720600  0.83437400  0.83279400  1
  Li  Li13  1  0.66720900  0.83438000  0.33278000  1
  Mn  Mn0  1  0.99962200  0.99946900  0.00022400  1
  Mn  Mn1  1  0.49985000  0.99942700  0.50030500  1
  Mn  Mn2  1  0.66687900  0.33389400  0.33304400  1
  Mn  Mn3  1  0.16686600  0.33381500  0.83309700  1
  Mn  Mn4  1  0.24820100  0.49617000  0.25187100  1
  Mn  Mn5  1  0.74800600  0.49614100  0.75189300  1
  Mn  Mn6  1  0.41856500  0.83732600  0.08134100  1
  Mn  Mn7  1  0.91865000  0.83725600  0.58144000  1
  Co  Co0  1  0.83336500  0.66666200  0.16666600  1
  Co  Co1  1  0.33335400  0.66662700  0.66670500  1
  O  O0  1  0.48051700  0.16661600  0.29949400  1
  O  O1  1  0.98051600  0.16668500  0.79946400  1
  O  O2  1  0.18616100  0.16666100  0.03390600  1
  O  O3  1  0.68615000  0.16661400  0.53392100  1
  O  O4  1  0.18716900  0.66671800  0.06220300  1
  O  O5  1  0.68710000  0.66665400  0.56224700  1
  O  O6  1  0.97956500  0.66668400  0.77108400  1
  O  O7  1  0.47953100  0.66669900  0.27105700  1
  O  O8  1  0.01648300  0.33992200  0.22311500  1
  O  O9  1  0.51645200  0.33994800  0.72314300  1
  O  O10  1  0.34316200  0.99345300  0.89630800  1
  O  O11  1  0.84319400  0.99335500  0.39639100  1
  O  O12  1  0.82350800  0.33997700  0.93694000  1
  O  O13  1  0.32353600  0.33995500  0.43691400  1
  O  O14  1  0.15028500  0.99332600  0.61023300  1
  O  O15  1  0.65027300  0.99342900  0.11017000  1
  O  O16  1  0.64382700  0.49961500  0.13166500  1
  O  O17  1  0.14381500  0.49962500  0.63169500  1
  O  O18  1  0.81082900  0.83373100  0.96461700  1
  O  O19  1  0.31084100  0.83366100  0.46467700  1
  O  O20  1  0.35583900  0.49961700  0.86874300  1
  O  O21  1  0.85581800  0.49959000  0.36870800  1
  O  O22  1  0.52290800  0.83366700  0.70168600  1
  O  O23  1  0.02288900  0.83371200  0.20163600  1
loop_
_geom_bond_atom_site_label_1
_geom_bond_atom_site_label_2
_geom_bond_distance
_geom_bond_site_symmetry_2
Li0 O0 2.092384 1_555
Li0 O2 2.092797 1_655
Li0 O15 2.137564 1_545
Li0 O8 2.137691 1_655
Li0 O12 2.137774 1_554
Li0 O11 2.137859 1_545
Li1 O1 2.092612 1_455
Li1 O3 2.092829 1_555
Li1 O10 2.137047 1_545
Li1 O13 2.137689 1_555
Li1 O14 2.138008 1_545
Li1 O9 2.138032 1_555
Li2 O22 2.119010 1_555
Li2 O20 2.119421 1_555
Li2 O18 2.119671 1_555
Li2 O16 2.119791 1_556
Li2 O4 2.332362 1_556
Li2 O6 2.333864 1_555
Li3 O17 2.119691 1_555
Li3 O21 2.119693 1_455
Li3 O19 2.119734 1_555
Li3 O23 2.119761 1_555
Li3 O7 2.332488 1_555
Li3 O5 2.333867 1_455
Li4 O8 2.035222 1_555
Li4 O11 2.035324 1_445
Li4 O13 2.035343 1_555
Li4 O14 2.035459 1_545
Li4 O3 2.217041 1_455
Li4 O0 2.217463 1_555
Li5 O9 2.034793 1_555
Li5 O15 2.035073 1_546
Li5 O12 2.035148 1_555
Li5 O10 2.035530 1_545
Li5 O2 2.217021 1_556
Li5 O1 2.217395 1_555
Li6 O2 2.094019 1_555
Li6 O0 2.094445 1_555
Li6 O20 2.154894 1_554
Li6 O16 2.155074 1_555
Li6 O8 2.354478 1_555
Li6 O12 2.355455 1_554
Li7 O3 2.094310 1_555
Li7 O1 2.094531 1_555
Li7 O21 2.154520 1_555
Li7 O17 2.155286 1_655
Li7 O9 2.354906 1_555
Li7 O13 2.355693 1_655
Li8 O2 2.093918 1_555
Li8 O0 2.094085 1_555
Li8 O23 2.155167 1_545
Li8 O19 2.155542 1_545
Li8 O11 2.354440 1_445
Li8 O15 2.355827 1_545
Li9 O3 2.093757 1_555
Li9 O1 2.094297 1_555
Li9 O18 2.154799 1_545
Li9 O22 2.155289 1_545
Li9 O10 2.355091 1_545
Li9 O14 2.355583 1_645
Li10 O12 2.054032 1_554
Li10 O8 2.054337 1_655
Li10 O16 2.099337 1_555
Li10 O20 2.099692 1_654
Li10 O6 2.134425 1_554
Li10 O4 2.134599 1_655
Li11 O13 2.054221 1_555
Li11 O9 2.054470 1_555
Li11 O17 2.099653 1_555
Li11 O21 2.099810 1_555
Li11 O5 2.134364 1_555
Li11 O7 2.134643 1_555
Li12 O14 2.053932 1_555
Li12 O10 2.054526 1_555
Li12 O22 2.099727 1_555
Li12 O18 2.099914 1_455
Li12 O4 2.133862 1_556
Li12 O6 2.133947 1_455
Li13 O11 2.054383 1_555
Li13 O15 2.054598 1_555
Li13 O23 2.099632 1_655
Li13 O19 2.099891 1_555
Li13 O7 2.134025 1_555
Li13 O5 2.134356 1_555
Mn0 O1 1.947878 1_564
Mn0 O2 1.948950 1_665
Mn0 O15 1.952179 1_555
Mn0 O18 1.952567 1_554
Mn0 O10 1.953136 1_654
Mn0 O23 1.953403 1_655
Mn1 O3 1.948074 1_565
Mn1 O0 1.948486 1_565
Mn1 O11 1.952508 1_555
Mn1 O14 1.952822 1_555
Mn1 O22 1.952835 1_555
Mn1 O19 1.953333 1_555
Mn2 O0 1.948556 1_555
Mn2 O3 1.949154 1_555
Mn2 O13 1.952282 1_555
Mn2 O16 1.952650 1_555
Mn2 O21 1.952836 1_555
Mn2 O8 1.953287 1_655
Mn3 O1 1.947788 1_455
Mn3 O2 1.948256 1_556
Mn3 O12 1.952687 1_455
Mn3 O9 1.952891 1_555
Mn3 O17 1.953157 1_555
Mn3 O20 1.953675 1_555
Mn4 O13 1.930704 1_555
Mn4 O8 1.931004 1_555
Mn4 O7 1.986870 1_555
Mn4 O4 1.987206 1_555
Mn4 O16 2.207613 1_555
Mn4 O21 2.208698 1_455
Mn5 O9 1.930140 1_555
Mn5 O12 1.930926 1_555
Mn5 O5 1.986624 1_555
Mn5 O6 1.987544 1_555
Mn5 O20 2.208024 1_555
Mn5 O17 2.208240 1_655
Mn6 O15 1.930301 1_555
Mn6 O10 1.930435 1_554
Mn6 O4 1.987385 1_555
Mn6 O7 1.987689 1_555
Mn6 O23 2.207496 1_555
Mn6 O18 2.208480 1_554
Mn7 O14 1.929661 1_655
Mn7 O11 1.930539 1_555
Mn7 O6 1.986916 1_555
Mn7 O5 1.987997 1_555
Mn7 O22 2.207703 1_555
Mn7 O19 2.208304 1_655
Co0 O23 1.961038 1_655
Co0 O21 1.961176 1_555
Co0 O16 1.961226 1_555
Co0 O18 1.961361 1_554
Co0 O4 1.975054 1_655
Co0 O7 1.975301 1_555
Co1 O17 1.960907 1_555
Co1 O20 1.960952 1_555
Co1 O19 1.961045 1_555
Co1 O22 1.961077 1_555
Co1 O5 1.974895 1_555
Co1 O6 1.975137 1_455
