# generated using pymatgen
data_Mn6Ni16Ge7
_symmetry_space_group_name_H-M   'P 1'
_cell_length_a   7.93069894
_cell_length_b   7.93069894
_cell_length_c   7.93069894
_cell_angle_alpha   60.00000000
_cell_angle_beta   60.00000000
_cell_angle_gamma   60.00000000
_symmetry_Int_Tables_number   1
_chemical_formula_structural   Mn6Ni16Ge7
_chemical_formula_sum   'Mn6 Ni16 Ge7'
_cell_volume   352.71131617
_cell_formula_units_Z   1
loop_
 _symmetry_equiv_pos_site_id
 _symmetry_equiv_pos_as_xyz
  1  'x, y, z'
loop_
 _atom_site_type_symbol
 _atom_site_label
 _atom_site_symmetry_multiplicity
 _atom_site_fract_x
 _atom_site_fract_y
 _atom_site_fract_z
 _atom_site_occupancy
  Mn  Mn0  1  0.64698000  0.64698000  0.35302000  1
  Mn  Mn1  1  0.35302000  0.64698000  0.35302000  1
  Mn  Mn2  1  0.64698000  0.35302000  0.35302000  1
  Mn  Mn3  1  0.35302000  0.35302000  0.64698000  1
  Mn  Mn4  1  0.64698000  0.35302000  0.64698000  1
  Mn  Mn5  1  0.35302000  0.64698000  0.64698000  1
  Ni  Ni0  1  0.88189300  0.88189300  0.35432200  1
  Ni  Ni1  1  0.88189300  0.35432200  0.88189300  1
  Ni  Ni2  1  0.35432200  0.88189300  0.88189300  1
  Ni  Ni3  1  0.88189300  0.88189300  0.88189300  1
  Ni  Ni4  1  0.11810700  0.11810700  0.64567800  1
  Ni  Ni5  1  0.11810700  0.64567800  0.11810700  1
  Ni  Ni6  1  0.64567800  0.11810700  0.11810700  1
  Ni  Ni7  1  0.11810700  0.11810700  0.11810700  1
  Ni  Ni8  1  0.66454900  0.66454900  0.00635400  1
  Ni  Ni9  1  0.66454900  0.00635400  0.66454900  1
  Ni  Ni10  1  0.00635400  0.66454900  0.66454900  1
  Ni  Ni11  1  0.66454900  0.66454900  0.66454900  1
  Ni  Ni12  1  0.33545100  0.33545100  0.99364600  1
  Ni  Ni13  1  0.33545100  0.99364600  0.33545100  1
  Ni  Ni14  1  0.99364600  0.33545100  0.33545100  1
  Ni  Ni15  1  0.33545100  0.33545100  0.33545100  1
  Ge  Ge0  1  0.00000000  0.00000000  0.00000000  1
  Ge  Ge1  1  0.00000000  0.00000000  0.50000000  1
  Ge  Ge2  1  0.50000000  0.00000000  0.50000000  1
  Ge  Ge3  1  0.00000000  0.50000000  0.50000000  1
  Ge  Ge4  1  0.50000000  0.50000000  0.00000000  1
  Ge  Ge5  1  0.00000000  0.50000000  0.00000000  1
  Ge  Ge6  1  0.50000000  0.00000000  0.00000000  1
loop_
_geom_bond_atom_site_label_1
_geom_bond_atom_site_label_2
_geom_bond_distance
_geom_bond_site_symmetry_2
Mn0 Mn5 2.331308 1_555
Mn0 Mn2 2.331308 1_555
Mn0 Mn1 2.331308 1_555
Mn0 Mn4 2.331308 1_555
Mn0 Ni8 2.617397 1_555
Mn0 Ni13 2.617401 1_555
Mn0 Ni14 2.617401 1_555
Mn0 Ni11 2.617405 1_555
Mn0 Ni5 3.232818 1_655
Mn0 Ni6 3.232818 1_565
Mn0 Ni3 3.232821 1_554
Mn0 Ni0 3.232825 1_555
Mn1 Mn5 2.331308 1_555
Mn1 Mn2 2.331308 1_555
Mn1 Mn3 2.331308 1_555
Mn1 Ni13 2.617397 1_555
Mn1 Ni10 2.617401 1_555
Mn1 Ni8 2.617401 1_555
Mn1 Ni15 2.617405 1_555
Mn1 Ni2 3.232818 1_554
Mn1 Ni0 3.232818 1_455
Mn1 Ni7 3.232821 1_565
Mn1 Ni5 3.232825 1_555
Mn2 Mn3 2.331308 1_555
Mn2 Mn4 2.331308 1_555
Mn2 Ni14 2.617397 1_555
Mn2 Ni9 2.617401 1_555
Mn2 Ni8 2.617401 1_555
Mn2 Ni15 2.617405 1_555
Mn2 Ni0 3.232818 1_545
Mn2 Ni1 3.232818 1_554
Mn2 Ni7 3.232821 1_655
Mn2 Ni6 3.232825 1_555
Mn3 Mn5 2.331308 1_555
Mn3 Mn4 2.331308 1_555
Mn3 Ni12 2.617397 1_555
Mn3 Ni9 2.617401 1_555
Mn3 Ni10 2.617401 1_555
Mn3 Ni15 2.617405 1_555
Mn3 Ni1 3.232818 1_455
Mn3 Ni2 3.232818 1_545
Mn3 Ni7 3.232821 1_556
Mn3 Ni4 3.232825 1_555
Mn4 Mn5 2.331308 1_555
Mn4 Ni9 2.617397 1_555
Mn4 Ni14 2.617401 1_555
Mn4 Ni12 2.617401 1_555
Mn4 Ni11 2.617405 1_555
Mn4 Ni6 3.232818 1_556
Mn4 Ni4 3.232818 1_655
Mn4 Ni3 3.232821 1_545
Mn4 Ni1 3.232825 1_555
Mn5 Ni10 2.617397 1_555
Mn5 Ni13 2.617401 1_555
Mn5 Ni12 2.617401 1_555
Mn5 Ni11 2.617405 1_555
Mn5 Ni5 3.232818 1_556
Mn5 Ni4 3.232818 1_565
Mn5 Ni3 3.232821 1_455
Mn5 Ni2 3.232825 1_555
Ge0 Ni7 2.294366 1_555
Ge0 Ni3 2.294366 1_444
Ge0 Ni1 2.294373 1_454
Ge0 Ni0 2.294373 1_445
Ge0 Ni2 2.294373 1_544
Ge0 Ni5 2.294373 1_545
Ge0 Ni6 2.294373 1_455
Ge0 Ni4 2.294373 1_554
Ge1 Ni14 2.289763 1_455
Ge1 Ni13 2.289763 1_545
Ge1 Ni10 2.289763 1_545
Ge1 Ni9 2.289763 1_455
Ge1 Ni4 2.476119 1_555
Ge1 Ni0 2.476119 1_445
Ge1 Ni3 2.476126 1_445
Ge1 Ni7 2.476126 1_555
Ge1 Mn5 3.032663 1_545
Ge1 Mn4 3.032663 1_455
Ge1 Mn1 3.032663 1_545
Ge1 Mn2 3.032663 1_455
Ge2 Ni11 2.289765 1_545
Ge2 Ni15 2.289765 1_555
Ge2 Ni9 2.289770 1_555
Ge2 Ni13 2.289770 1_545
Ge2 Ni0 2.476126 1_545
Ge2 Ni2 2.476126 1_545
Ge2 Ni6 2.476126 1_555
Ge2 Ni4 2.476126 1_555
Ge2 Mn2 3.032663 1_555
Ge2 Mn3 3.032663 1_555
Ge2 Mn0 3.032663 1_545
Ge2 Mn5 3.032663 1_545
Ge3 Ni15 2.289765 1_555
Ge3 Ni11 2.289765 1_455
Ge3 Ni10 2.289770 1_555
Ge3 Ni14 2.289770 1_455
Ge3 Ni1 2.476126 1_455
Ge3 Ni0 2.476126 1_455
Ge3 Ni5 2.476126 1_555
Ge3 Ni4 2.476126 1_555
Ge3 Mn1 3.032663 1_555
Ge3 Mn0 3.032663 1_455
Ge3 Mn3 3.032663 1_555
Ge3 Mn4 3.032663 1_455
Ge4 Ni15 2.289765 1_555
Ge4 Ni11 2.289765 1_554
Ge4 Ni8 2.289770 1_555
Ge4 Ni12 2.289770 1_554
Ge4 Ni2 2.476126 1_554
Ge4 Ni1 2.476126 1_554
Ge4 Ni6 2.476126 1_555
Ge4 Ni5 2.476126 1_555
Ge4 Mn1 3.032663 1_555
Ge4 Mn2 3.032663 1_555
Ge4 Mn4 3.032663 1_554
Ge4 Mn5 3.032663 1_554
Ge5 Ni14 2.289763 1_455
Ge5 Ni12 2.289763 1_554
Ge5 Ni8 2.289763 1_455
Ge5 Ni10 2.289763 1_554
Ge5 Ni5 2.476119 1_555
Ge5 Ni1 2.476119 1_454
Ge5 Ni3 2.476126 1_454
Ge5 Ni7 2.476126 1_555
Ge5 Mn0 3.032663 1_455
Ge5 Mn5 3.032663 1_554
Ge5 Mn3 3.032663 1_554
Ge5 Mn2 3.032663 1_455
Ge6 Ni13 2.289763 1_545
Ge6 Ni12 2.289763 1_554
Ge6 Ni9 2.289763 1_554
Ge6 Ni8 2.289763 1_545
Ge6 Ni6 2.476119 1_555
Ge6 Ni2 2.476119 1_544
Ge6 Ni3 2.476126 1_544
Ge6 Ni7 2.476126 1_555
Ge6 Mn4 3.032663 1_554
Ge6 Mn1 3.032663 1_545
Ge6 Mn0 3.032663 1_545
Ge6 Mn3 3.032663 1_554
