# generated using pymatgen
data_Tc
_symmetry_space_group_name_H-M   'P 1'
_cell_length_a   5.47316198
_cell_length_b   5.47315964
_cell_length_c   8.78980560
_cell_angle_alpha   90.00000000
_cell_angle_beta   90.00000000
_cell_angle_gamma   119.99998941
_symmetry_Int_Tables_number   1
_chemical_formula_structural   Tc
_chemical_formula_sum   Tc16
_cell_volume   228.02704802
_cell_formula_units_Z   16
loop_
 _symmetry_equiv_pos_site_id
 _symmetry_equiv_pos_as_xyz
  1  'x, y, z'
loop_
 _atom_site_type_symbol
 _atom_site_label
 _atom_site_symmetry_multiplicity
 _atom_site_fract_x
 _atom_site_fract_y
 _atom_site_fract_z
 _atom_site_occupancy
  Tc  Tc0_0  1  0.16666650  0.33333350  0.12500000  1
  Tc  Tc0_1  1  0.16666650  0.33333350  0.62500000  1
  Tc  Tc0_2  1  0.16666650  0.83333350  0.12500000  1
  Tc  Tc0_3  1  0.16666650  0.83333350  0.62500000  1
  Tc  Tc0_4  1  0.66666650  0.33333350  0.12500000  1
  Tc  Tc0_5  1  0.66666650  0.33333350  0.62500000  1
  Tc  Tc0_6  1  0.66666650  0.83333350  0.12500000  1
  Tc  Tc0_7  1  0.66666650  0.83333350  0.62500000  1
  Tc  Tc1_0  1  0.33333350  0.16666650  0.37500000  1
  Tc  Tc1_1  1  0.33333350  0.16666650  0.87500000  1
  Tc  Tc1_2  1  0.33333350  0.66666650  0.37500000  1
  Tc  Tc1_3  1  0.33333350  0.66666650  0.87500000  1
  Tc  Tc1_4  1  0.83333350  0.16666650  0.37500000  1
  Tc  Tc1_5  1  0.83333350  0.16666650  0.87500000  1
  Tc  Tc1_6  1  0.83333350  0.66666650  0.37500000  1
  Tc  Tc1_7  1  0.83333350  0.66666650  0.87500000  1
loop_
_geom_bond_atom_site_label_1
_geom_bond_atom_site_label_2
_geom_bond_distance
_geom_bond_site_symmetry_2
Tc0_0 Tc1_3 2.706488 1_554
Tc0_0 Tc1_2 2.706488 1_555
Tc0_0 Tc1_5 2.706489 1_454
Tc0_0 Tc1_4 2.706489 1_455
Tc0_0 Tc1_1 2.706491 1_554
Tc0_0 Tc1_0 2.706491 1_555
Tc0_0 Tc0_2 2.736580 1_555
Tc0_0 Tc0_2 2.736580 1_545
Tc0_0 Tc0_6 2.736581 1_555
Tc0_0 Tc0_6 2.736581 1_445
Tc0_0 Tc0_4 2.736581 1_455
Tc0_0 Tc0_4 2.736581 1_555
Tc0_1 Tc1_3 2.706488 1_555
Tc0_1 Tc1_2 2.706488 1_555
Tc0_1 Tc1_4 2.706489 1_455
Tc0_1 Tc1_5 2.706489 1_455
Tc0_1 Tc1_1 2.706491 1_555
Tc0_1 Tc1_0 2.706491 1_555
Tc0_1 Tc0_3 2.736580 1_555
Tc0_1 Tc0_3 2.736580 1_545
Tc0_1 Tc0_7 2.736581 1_555
Tc0_1 Tc0_7 2.736581 1_445
Tc0_1 Tc0_5 2.736581 1_455
Tc0_1 Tc0_5 2.736581 1_555
Tc0_2 Tc1_0 2.706488 1_565
Tc0_2 Tc1_1 2.706488 1_564
Tc0_2 Tc1_7 2.706489 1_454
Tc0_2 Tc1_6 2.706489 1_455
Tc0_2 Tc1_2 2.706491 1_555
Tc0_2 Tc1_3 2.706491 1_554
Tc0_2 Tc0_4 2.736581 1_455
Tc0_2 Tc0_4 2.736581 1_565
Tc0_2 Tc0_6 2.736581 1_455
Tc0_2 Tc0_6 2.736581 1_555
Tc0_3 Tc1_0 2.706488 1_565
Tc0_3 Tc1_1 2.706488 1_565
Tc0_3 Tc1_7 2.706489 1_455
Tc0_3 Tc1_6 2.706489 1_455
Tc0_3 Tc1_2 2.706491 1_555
Tc0_3 Tc1_3 2.706491 1_555
Tc0_3 Tc0_5 2.736581 1_455
Tc0_3 Tc0_5 2.736581 1_565
Tc0_3 Tc0_7 2.736581 1_555
Tc0_3 Tc0_7 2.736581 1_455
Tc0_4 Tc1_7 2.706488 1_554
Tc0_4 Tc1_6 2.706488 1_555
Tc0_4 Tc1_1 2.706489 1_554
Tc0_4 Tc1_0 2.706489 1_555
Tc0_4 Tc1_4 2.706491 1_555
Tc0_4 Tc1_5 2.706491 1_554
Tc0_4 Tc0_6 2.736580 1_555
Tc0_4 Tc0_6 2.736580 1_545
Tc0_5 Tc1_6 2.706488 1_555
Tc0_5 Tc1_7 2.706488 1_555
Tc0_5 Tc1_1 2.706489 1_555
Tc0_5 Tc1_0 2.706489 1_555
Tc0_5 Tc1_4 2.706491 1_555
Tc0_5 Tc1_5 2.706491 1_555
Tc0_5 Tc0_7 2.736580 1_555
Tc0_5 Tc0_7 2.736580 1_545
Tc0_6 Tc1_4 2.706488 1_565
Tc0_6 Tc1_5 2.706488 1_564
Tc0_6 Tc1_2 2.706489 1_555
Tc0_6 Tc1_3 2.706489 1_554
Tc0_6 Tc1_7 2.706491 1_554
Tc0_6 Tc1_6 2.706491 1_555
Tc0_7 Tc1_4 2.706488 1_565
Tc0_7 Tc1_5 2.706488 1_565
Tc0_7 Tc1_2 2.706489 1_555
Tc0_7 Tc1_3 2.706489 1_555
Tc0_7 Tc1_7 2.706491 1_555
Tc0_7 Tc1_6 2.706491 1_555
Tc1_0 Tc1_2 2.736580 1_555
Tc1_0 Tc1_2 2.736580 1_545
Tc1_0 Tc1_6 2.736581 1_555
Tc1_0 Tc1_6 2.736581 1_445
Tc1_0 Tc1_4 2.736581 1_555
Tc1_0 Tc1_4 2.736581 1_455
Tc1_1 Tc1_3 2.736580 1_555
Tc1_1 Tc1_3 2.736580 1_545
Tc1_1 Tc1_7 2.736581 1_555
Tc1_1 Tc1_7 2.736581 1_445
Tc1_1 Tc1_5 2.736581 1_555
Tc1_1 Tc1_5 2.736581 1_455
Tc1_2 Tc1_4 2.736581 1_455
Tc1_2 Tc1_4 2.736581 1_565
Tc1_2 Tc1_6 2.736581 1_455
Tc1_2 Tc1_6 2.736581 1_555
Tc1_3 Tc1_5 2.736581 1_455
Tc1_3 Tc1_5 2.736581 1_565
Tc1_3 Tc1_7 2.736581 1_455
Tc1_3 Tc1_7 2.736581 1_555
Tc1_4 Tc1_6 2.736580 1_555
Tc1_4 Tc1_6 2.736580 1_545
Tc1_5 Tc1_7 2.736580 1_555
Tc1_5 Tc1_7 2.736580 1_545
