# generated using pymatgen
data_La2TiO5
_symmetry_space_group_name_H-M   'P 1'
_cell_length_a   3.92346982
_cell_length_b   11.01649247
_cell_length_c   11.44093194
_cell_angle_alpha   90.00169505
_cell_angle_beta   89.99997463
_cell_angle_gamma   89.99991578
_symmetry_Int_Tables_number   1
_chemical_formula_structural   La2TiO5
_chemical_formula_sum   'La8 Ti4 O20'
_cell_volume   494.50997935
_cell_formula_units_Z   4
loop_
 _symmetry_equiv_pos_site_id
 _symmetry_equiv_pos_as_xyz
  1  'x, y, z'
loop_
 _atom_site_type_symbol
 _atom_site_label
 _atom_site_symmetry_multiplicity
 _atom_site_fract_x
 _atom_site_fract_y
 _atom_site_fract_z
 _atom_site_occupancy
  La  La0  1  0.74999821  0.09680087  0.71580135  1
  La  La1  1  0.25001575  0.90309054  0.28411016  1
  La  La2  1  0.74999943  0.59683062  0.78423025  1
  La  La3  1  0.24999890  0.40318839  0.21584396  1
  La  La4  1  0.24999990  0.36379441  0.56071290  1
  La  La5  1  0.74999937  0.63620686  0.43932470  1
  La  La6  1  0.24999914  0.86381697  0.93929789  1
  La  La7  1  0.74999905  0.13622868  0.06068721  1
  Ti  Ti0  1  0.25000449  0.30768247  0.87288594  1
  Ti  Ti1  1  0.75000274  0.69230653  0.12710416  1
  Ti  Ti2  1  0.25000346  0.80768472  0.62710589  1
  Ti  Ti3  1  0.75000449  0.19231573  0.37289393  1
  O  O0  1  0.25000037  0.46414055  0.83135121  1
  O  O1  1  0.75000038  0.53587433  0.16865448  1
  O  O2  1  0.24999931  0.96413006  0.66864682  1
  O  O3  1  0.75000078  0.03586342  0.33135162  1
  O  O4  1  0.24999766  0.22047001  0.72990100  1
  O  O5  1  0.74999875  0.77951334  0.27009226  1
  O  O6  1  0.24999885  0.72048103  0.77010431  1
  O  O7  1  0.74999815  0.27955209  0.22990836  1
  O  O8  1  0.74999785  0.26283156  0.87641306  1
  O  O9  1  0.24999830  0.73715772  0.12357593  1
  O  O10  1  0.74999614  0.76283868  0.62358385  1
  O  O11  1  0.24999868  0.23717655  0.37643007  1
  O  O12  1  0.24999942  0.00810298  0.10199740  1
  O  O13  1  0.74999834  0.99188139  0.89798034  1
  O  O14  1  0.24999902  0.50813111  0.39799056  1
  O  O15  1  0.74999903  0.49190691  0.60201515  1
  O  O16  1  0.24999834  0.27331062  0.03456986  1
  O  O17  1  0.74999863  0.72669265  0.96542986  1
  O  O18  1  0.24999894  0.77330061  0.46543433  1
  O  O19  1  0.74999814  0.22669858  0.53457120  1
loop_
_geom_bond_atom_site_label_1
_geom_bond_atom_site_label_2
_geom_bond_distance
_geom_bond_site_symmetry_2
La0 O13 2.383362 1_545
La0 O4 2.393856 1_655
La0 O4 2.393856 1_555
La0 O2 2.505111 1_545
La0 O2 2.505114 1_645
La0 O19 2.519354 1_555
La0 O8 2.592663 1_555
La1 O12 2.383197 1_565
La1 O5 2.393161 1_555
La1 O5 2.393273 1_455
La1 O3 2.505938 1_565
La1 O3 2.506027 1_465
La1 O18 2.519566 1_555
La1 O9 2.591274 1_555
La2 O15 2.383686 1_555
La2 O6 2.393764 1_655
La2 O6 2.393765 1_555
La2 O0 2.505170 1_555
La2 O0 2.505173 1_655
La2 O17 2.518774 1_555
La2 O10 2.592845 1_555
La3 O14 2.383102 1_555
La3 O7 2.393624 1_555
La3 O7 2.393632 1_455
La3 O1 2.505308 1_455
La3 O1 2.505320 1_555
La3 O16 2.519574 1_555
La3 O11 2.592386 1_555
La4 O14 2.448357 1_555
La4 O15 2.462430 1_555
La4 O15 2.462432 1_455
La4 O19 2.493761 1_555
La4 O19 2.493776 1_455
La4 O4 2.498004 1_555
La4 O11 2.527992 1_555
La5 O15 2.447817 1_555
La5 O14 2.462266 1_655
La5 O14 2.462272 1_555
La5 O18 2.493710 1_555
La5 O18 2.493711 1_655
La5 O5 2.498272 1_555
La5 O10 2.527851 1_555
La6 O12 2.447724 1_566
La6 O13 2.462176 1_555
La6 O13 2.462178 1_455
La6 O17 2.493953 1_555
La6 O17 2.493959 1_455
La6 O6 2.498061 1_555
La6 O9 2.528266 1_556
La7 O13 2.448227 1_544
La7 O12 2.462547 1_655
La7 O12 2.462548 1_555
La7 O16 2.493653 1_655
La7 O16 2.493654 1_555
La7 O7 2.498218 1_555
La7 O8 2.527887 1_554
O0 Ti0 1.787938 1_555
O1 Ti1 1.787711 1_555
O2 Ti2 1.787795 1_555
O3 Ti3 1.787873 1_555
O4 Ti0 1.897130 1_555
O5 Ti1 1.897130 1_555
O6 Ti2 1.897263 1_555
O7 Ti3 1.897319 1_555
O8 Ti0 2.023379 1_555
O8 Ti0 2.023431 1_655
O9 Ti1 2.023390 1_455
O9 Ti1 2.023422 1_555
O10 Ti2 2.023362 1_555
O10 Ti2 2.023419 1_655
O11 Ti3 2.023412 1_455
O11 Ti3 2.023455 1_555
O16 Ti0 1.888184 1_554
O17 Ti1 1.888107 1_556
O18 Ti2 1.888050 1_555
O19 Ti3 1.888111 1_555
