# generated using pymatgen
data_Cs3BN2
_symmetry_space_group_name_H-M   'P 1'
_cell_length_a   10.03632936
_cell_length_b   9.46795684
_cell_length_c   14.95417222
_cell_angle_alpha   90.00000326
_cell_angle_beta   138.15927359
_cell_angle_gamma   118.14367517
_symmetry_Int_Tables_number   1
_chemical_formula_structural   Cs3BN2
_chemical_formula_sum   'Cs12 B4 N8'
_cell_volume   670.26242391
_cell_formula_units_Z   4
loop_
 _symmetry_equiv_pos_site_id
 _symmetry_equiv_pos_as_xyz
  1  'x, y, z'
loop_
 _atom_site_type_symbol
 _atom_site_label
 _atom_site_symmetry_multiplicity
 _atom_site_fract_x
 _atom_site_fract_y
 _atom_site_fract_z
 _atom_site_occupancy
  Cs  Cs0  1  0.00000000  0.50000000  0.37647300  1
  Cs  Cs1  1  0.00000000  0.00000000  0.87352700  1
  Cs  Cs2  1  0.00000000  0.50000000  0.12352700  1
  Cs  Cs3  1  0.00000000  0.00000000  0.12647300  1
  Cs  Cs4  1  0.60359400  0.50000000  0.55179600  1
  Cs  Cs5  1  0.39640600  0.50000000  0.94820400  1
  Cs  Cs6  1  0.60359400  0.00000000  0.30179600  1
  Cs  Cs7  1  0.39640600  0.00000000  0.69820400  1
  Cs  Cs8  1  0.39640600  0.89640600  0.94820400  1
  Cs  Cs9  1  0.60359400  0.10359400  0.55179600  1
  Cs  Cs10  1  0.39640600  0.39640600  0.69820400  1
  Cs  Cs11  1  0.60359400  0.60359400  0.30179600  1
  B  B0  1  0.00000000  0.50000000  0.58043900  1
  B  B1  1  0.00000000  0.00000000  0.66956100  1
  B  B2  1  0.00000000  0.50000000  0.91956100  1
  B  B3  1  0.00000000  0.00000000  0.33043900  1
  N  N0  1  0.28813000  0.64406500  0.72067000  1
  N  N1  1  0.71187000  0.35593500  0.43254000  1
  N  N2  1  0.28813000  0.14406500  0.81746000  1
  N  N3  1  0.71187000  0.85593500  0.52933000  1
  N  N4  1  0.00000000  0.35593500  0.92339500  1
  N  N5  1  0.00000000  0.64406500  0.92339500  1
  N  N6  1  0.00000000  0.85593500  0.32660500  1
  N  N7  1  0.00000000  0.14406500  0.32660500  1
loop_
_geom_bond_atom_site_label_1
_geom_bond_atom_site_label_2
_geom_bond_distance
_geom_bond_site_symmetry_2
Cs0 N1 3.288982 1_455
Cs0 N0 3.288982 1_555
Cs0 N7 3.451502 1_555
Cs0 N6 3.451502 1_555
Cs1 N2 3.288982 1_555
Cs1 N3 3.288982 1_445
Cs1 N4 3.451502 1_555
Cs1 N5 3.451502 1_545
Cs2 N4 3.288982 1_554
Cs2 N5 3.288982 1_554
Cs2 N2 3.451502 1_454
Cs2 N3 3.451502 1_555
Cs3 N7 3.288982 1_555
Cs3 N6 3.288982 1_545
Cs3 N1 3.451502 1_555
Cs3 N0 3.451502 1_444
Cs4 N3 3.120859 1_555
Cs4 N7 3.120869 1_555
Cs4 N1 3.241564 1_555
Cs4 N5 3.241588 1_655
Cs5 N6 3.120858 1_656
Cs5 N2 3.120870 1_555
Cs5 N4 3.241564 1_555
Cs5 N0 3.241588 1_555
Cs6 N5 3.120858 1_544
Cs6 N1 3.120870 1_555
Cs6 N7 3.241564 1_655
Cs6 N3 3.241588 1_545
Cs7 N0 3.120859 1_545
Cs7 N4 3.120869 1_655
Cs7 N2 3.241564 1_555
Cs7 N6 3.241588 1_545
Cs8 N7 3.120858 1_666
Cs8 N2 3.120870 1_565
Cs8 N5 3.241564 1_555
Cs8 N0 3.241588 1_555
Cs9 N3 3.120858 1_545
Cs9 N6 3.120869 1_545
Cs9 N1 3.241564 1_555
Cs9 N4 3.241588 1_655
Cs10 N0 3.120858 1_555
Cs10 N5 3.120869 1_655
Cs10 N2 3.241564 1_555
Cs10 N7 3.241588 1_555
Cs11 N4 3.120858 1_554
Cs11 N1 3.120870 1_555
Cs11 N6 3.241564 1_655
Cs11 N3 3.241588 1_555
B0 N0 1.365206 1_555
B0 N1 1.365206 1_455
B0 Cs0 3.050143 1_555
B1 N3 1.365206 1_445
B1 N2 1.365206 1_555
B1 Cs1 3.050143 1_555
B2 N5 1.365206 1_555
B2 N4 1.365206 1_555
B2 Cs2 3.050143 1_556
B3 N6 1.365206 1_545
B3 N7 1.365206 1_555
B3 Cs3 3.050143 1_555
