# generated using pymatgen
data_Zn2Co4P4O23
_symmetry_space_group_name_H-M   'P 1'
_cell_length_a   12.70582800
_cell_length_b   7.95681200
_cell_length_c   17.63842873
_cell_angle_alpha   77.72494473
_cell_angle_beta   90.00000000
_cell_angle_gamma   90.00000000
_symmetry_Int_Tables_number   1
_chemical_formula_structural   Zn2Co4P4O23
_chemical_formula_sum   'Zn8 Co16 P16 O92'
_cell_volume   1742.44054372
_cell_formula_units_Z   4
loop_
 _symmetry_equiv_pos_site_id
 _symmetry_equiv_pos_as_xyz
  1  'x, y, z'
loop_
 _atom_site_type_symbol
 _atom_site_label
 _atom_site_symmetry_multiplicity
 _atom_site_fract_x
 _atom_site_fract_y
 _atom_site_fract_z
 _atom_site_occupancy
  Zn  Zn0  1  0.28241000  0.76955100  0.54438200  1
  Zn  Zn1  1  0.21759000  0.76955100  0.04438200  1
  Zn  Zn2  1  0.71759000  0.23044900  0.45561800  1
  Zn  Zn3  1  0.78241000  0.23044900  0.95561800  1
  Zn  Zn4  1  0.47866500  0.74913600  0.44752000  1
  Zn  Zn5  1  0.02133500  0.74913600  0.94752000  1
  Zn  Zn6  1  0.52133500  0.25086400  0.55248000  1
  Zn  Zn7  1  0.97866500  0.25086400  0.05248000  1
  Co  Co0  1  0.45089400  0.18797900  0.25987600  1
  Co  Co1  1  0.04910600  0.18797900  0.75987600  1
  Co  Co2  1  0.54910600  0.81202100  0.74012400  1
  Co  Co3  1  0.95089400  0.81202100  0.24012400  1
  Co  Co4  1  0.04202200  0.81122300  0.75368400  1
  Co  Co5  1  0.45797800  0.81122300  0.25368400  1
  Co  Co6  1  0.95797800  0.18877700  0.24631600  1
  Co  Co7  1  0.54202200  0.18877700  0.74631600  1
  Co  Co8  1  0.21945000  0.30658100  0.24653200  1
  Co  Co9  1  0.28055000  0.30658100  0.74653200  1
  Co  Co10  1  0.78055000  0.69341900  0.75346800  1
  Co  Co11  1  0.71945000  0.69341900  0.25346800  1
  Co  Co12  1  0.28722400  0.68538800  0.74917100  1
  Co  Co13  1  0.21277600  0.68538800  0.24917100  1
  Co  Co14  1  0.71277600  0.31461200  0.25082900  1
  Co  Co15  1  0.78722400  0.31461200  0.75082900  1
  P  P0  1  0.27163600  0.94015400  0.36184700  1
  P  P1  1  0.22836400  0.94015400  0.86184700  1
  P  P2  1  0.72836400  0.05984600  0.63815300  1
  P  P3  1  0.77163600  0.05984600  0.13815300  1
  P  P4  1  0.45897400  0.55527800  0.63425100  1
  P  P5  1  0.04102600  0.55527800  0.13425100  1
  P  P6  1  0.54102600  0.44472200  0.36574900  1
  P  P7  1  0.95897400  0.44472200  0.86574900  1
  P  P8  1  0.36358100  0.05483500  0.63425500  1
  P  P9  1  0.13641900  0.05483500  0.13425500  1
  P  P10  1  0.63641900  0.94516500  0.36574500  1
  P  P11  1  0.86358100  0.94516500  0.86574500  1
  P  P12  1  0.10482500  0.55371800  0.64384400  1
  P  P13  1  0.39517500  0.55371800  0.14384400  1
  P  P14  1  0.89517500  0.44628200  0.35615600  1
  P  P15  1  0.60482500  0.44628200  0.85615600  1
  O  O0  1  0.31522600  0.12031700  0.31740200  1
  O  O1  1  0.18477400  0.12031700  0.81740200  1
  O  O2  1  0.68477400  0.87968300  0.68259800  1
  O  O3  1  0.81522600  0.87968300  0.18259800  1
  O  O4  1  0.19827800  0.81398700  0.80669100  1
  O  O5  1  0.30172200  0.81398700  0.30669100  1
  O  O6  1  0.80172200  0.18601300  0.19330900  1
  O  O7  1  0.69827800  0.18601300  0.69330900  1
  O  O8  1  0.33764000  0.87367200  0.43861200  1
  O  O9  1  0.16236000  0.87367200  0.93861200  1
  O  O10  1  0.66236000  0.12632800  0.56138800  1
  O  O11  1  0.83764000  0.12632800  0.06138800  1
  O  O12  1  0.15670000  0.94862000  0.37843500  1
  O  O13  1  0.34330000  0.94862000  0.87843500  1
  O  O14  1  0.84330000  0.05138000  0.62156500  1
  O  O15  1  0.65670000  0.05138000  0.12156500  1
  O  O16  1  0.35318300  0.53013600  0.67930400  1
  O  O17  1  0.14681700  0.53013600  0.17930400  1
  O  O18  1  0.64681700  0.46986400  0.32069600  1
  O  O19  1  0.85318300  0.46986400  0.82069600  1
  O  O20  1  0.42577300  0.62542000  0.54830100  1
  O  O21  1  0.07422700  0.62542000  0.04830100  1
  O  O22  1  0.57422700  0.37458000  0.45169900  1
  O  O23  1  0.92577300  0.37458000  0.95169900  1
  O  O24  1  0.53269800  0.68179900  0.66212200  1
  O  O25  1  0.96730200  0.68179900  0.16212200  1
  O  O26  1  0.46730200  0.31820100  0.33787800  1
  O  O27  1  0.03269800  0.31820100  0.83787800  1
  O  O28  1  0.48421900  0.62059000  0.35994000  1
  O  O29  1  0.01578100  0.62059000  0.85994000  1
  O  O30  1  0.51578100  0.37941000  0.64006000  1
  O  O31  1  0.98421900  0.37941000  0.14006000  1
  O  O32  1  0.47433700  0.03352400  0.67521200  1
  O  O33  1  0.02566300  0.03352400  0.17521200  1
  O  O34  1  0.52566300  0.96647600  0.32478800  1
  O  O35  1  0.97433700  0.96647600  0.82478800  1
  O  O36  1  0.31016100  0.87594200  0.63876800  1
  O  O37  1  0.18983900  0.87594200  0.13876800  1
  O  O38  1  0.68983900  0.12405800  0.36123200  1
  O  O39  1  0.81016100  0.12405800  0.86123200  1
  O  O40  1  0.29034400  0.16488500  0.67376500  1
  O  O41  1  0.20965600  0.16488500  0.17376500  1
  O  O42  1  0.70965600  0.83511500  0.32623500  1
  O  O43  1  0.79034400  0.83511500  0.82623500  1
  O  O44  1  0.61402000  0.86090200  0.45083300  1
  O  O45  1  0.88598000  0.86090200  0.95083300  1
  O  O46  1  0.38598000  0.13909800  0.54916700  1
  O  O47  1  0.11402000  0.13909800  0.04916700  1
  O  O48  1  0.16926800  0.61129200  0.56983700  1
  O  O49  1  0.33073200  0.61129200  0.06983700  1
  O  O50  1  0.83073200  0.38870800  0.43016300  1
  O  O51  1  0.66926800  0.38870800  0.93016300  1
  O  O52  1  0.14311000  0.37288900  0.69312800  1
  O  O53  1  0.35689000  0.37288900  0.19312800  1
  O  O54  1  0.85689000  0.62711100  0.30687200  1
  O  O55  1  0.64311000  0.62711100  0.80687200  1
  O  O56  1  0.98724300  0.54356100  0.63106000  1
  O  O57  1  0.51275700  0.54356100  0.13106000  1
  O  O58  1  0.01275700  0.45643900  0.36894000  1
  O  O59  1  0.48724300  0.45643900  0.86894000  1
  O  O60  1  0.13183500  0.68170000  0.69974300  1
  O  O61  1  0.36816500  0.68170000  0.19974300  1
  O  O62  1  0.86816500  0.31830000  0.30025700  1
  O  O63  1  0.63183500  0.31830000  0.80025700  1
  O  O64  1  0.26166000  0.45188000  0.80676200  1
  O  O65  1  0.23834000  0.45188000  0.30676200  1
  O  O66  1  0.73834000  0.54812000  0.19323800  1
  O  O67  1  0.76166000  0.54812000  0.69323800  1
  O  O68  1  0.41937100  0.72971800  0.77918800  1
  O  O69  1  0.08062900  0.72971800  0.27918800  1
  O  O70  1  0.58062900  0.27028200  0.22081200  1
  O  O71  1  0.91937100  0.27028200  0.72081200  1
  O  O72  1  0.43063000  0.04455000  0.19879400  1
  O  O73  1  0.06937000  0.04455000  0.69879400  1
  O  O74  1  0.56937000  0.95545000  0.80120600  1
  O  O75  1  0.93063000  0.95545000  0.30120600  1
  O  O76  1  0.91382100  0.76660100  0.71908600  1
  O  O77  1  0.58617900  0.76660100  0.21908600  1
  O  O78  1  0.08617900  0.23339900  0.28091400  1
  O  O79  1  0.41382100  0.23339900  0.78091400  1
  O  O80  1  0.15094800  0.15749400  0.50131900  1
  O  O81  1  0.34905200  0.15749400  0.00131900  1
  O  O82  1  0.84905200  0.84250600  0.49868100  1
  O  O83  1  0.65094800  0.84250600  0.99868100  1
  O  O84  1  0.69880500  0.69720000  0.01441000  1
  O  O85  1  0.80119500  0.69720000  0.51441000  1
  O  O86  1  0.30119500  0.30280000  0.98559000  1
  O  O87  1  0.19880500  0.30280000  0.48559000  1
  O  O88  1  0.44073500  0.15072200  0.03242200  1
  O  O89  1  0.05926500  0.15072200  0.53242200  1
  O  O90  1  0.55926500  0.84927800  0.96757800  1
  O  O91  1  0.94073500  0.84927800  0.46757800  1
loop_
_geom_bond_atom_site_label_1
_geom_bond_atom_site_label_2
_geom_bond_distance
_geom_bond_site_symmetry_2
Co0 O72 1.747085 1_555
Co0 O70 1.851740 1_555
Co0 O26 1.901619 1_555
Co0 O0 2.014576 1_555
Co0 O53 2.059333 1_555
Co0 O34 2.112255 1_545
Co1 O73 1.747085 1_555
Co1 O71 1.851740 1_455
Co1 O27 1.901619 1_555
Co1 O1 2.014576 1_555
Co1 O52 2.059333 1_555
Co1 O35 2.112255 1_445
Co2 O74 1.747085 1_555
Co2 O68 1.851740 1_555
Co2 O24 1.901619 1_555
Co2 O2 2.014576 1_555
Co2 O55 2.059333 1_555
Co2 O32 2.112255 1_565
Co3 O75 1.747085 1_555
Co3 O69 1.851740 1_655
Co3 O25 1.901619 1_555
Co3 O3 2.014576 1_555
Co3 O54 2.059333 1_555
Co3 O33 2.112255 1_665
Co4 O76 1.801087 1_455
Co4 O60 1.920026 1_555
Co4 O73 1.934049 1_565
Co4 O35 2.120684 1_455
Co4 O29 2.171572 1_555
Co4 O4 2.196597 1_555
Co5 O77 1.801087 1_555
Co5 O61 1.920026 1_555
Co5 O72 1.934049 1_565
Co5 O34 2.120684 1_555
Co5 O28 2.171572 1_555
Co5 O5 2.196597 1_555
Co6 O78 1.801087 1_655
Co6 O62 1.920026 1_555
Co6 O75 1.934049 1_545
Co6 O33 2.120684 1_655
Co6 O31 2.171572 1_555
Co6 O6 2.196597 1_555
Co7 O79 1.801087 1_555
Co7 O63 1.920026 1_555
Co7 O74 1.934049 1_545
Co7 O32 2.120684 1_555
Co7 O30 2.171572 1_555
Co7 O7 2.196597 1_555
Co8 O65 1.745015 1_555
Co8 O78 1.850410 1_555
Co8 O41 1.883958 1_555
Co8 O53 2.000965 1_555
Co8 O0 2.110031 1_555
Co8 O17 2.127200 1_555
Co9 O64 1.745015 1_555
Co9 O79 1.850410 1_555
Co9 O40 1.883958 1_555
Co9 O52 2.000965 1_555
Co9 O1 2.110031 1_555
Co9 O16 2.127200 1_555
Co10 O67 1.745015 1_555
Co10 O76 1.850410 1_555
Co10 O43 1.883958 1_555
Co10 O55 2.000965 1_555
Co10 O2 2.110031 1_555
Co10 O19 2.127200 1_555
Co11 O66 1.745015 1_555
Co11 O77 1.850410 1_555
Co11 O42 1.883958 1_555
Co11 O54 2.000965 1_555
Co11 O3 2.110031 1_555
Co11 O18 2.127200 1_555
Co12 O68 1.817501 1_555
Co12 O64 1.946007 1_555
Co12 O4 1.948071 1_555
Co12 O16 2.096265 1_555
Co12 O60 2.160989 1_555
Co12 O36 2.218212 1_555
Co13 O69 1.817501 1_555
Co13 O65 1.946007 1_555
Co13 O5 1.948071 1_555
Co13 O17 2.096265 1_555
Co13 O61 2.160989 1_555
Co13 O37 2.218212 1_555
Co14 O70 1.817501 1_555
Co14 O66 1.946007 1_555
Co14 O6 1.948071 1_555
Co14 O18 2.096265 1_555
Co14 O62 2.160989 1_555
Co14 O38 2.218212 1_555
Co15 O71 1.817501 1_555
Co15 O67 1.946007 1_555
Co15 O7 1.948071 1_555
Co15 O19 2.096265 1_555
Co15 O63 2.160989 1_555
Co15 O39 2.218212 1_555
O0 P0 1.580648 1_545
O1 P1 1.580648 1_545
O2 P2 1.580648 1_565
O3 P3 1.580648 1_565
O4 P1 1.586085 1_555
O5 P0 1.586085 1_555
O6 P3 1.586085 1_555
O7 P2 1.586085 1_555
O8 P0 1.584907 1_555
O8 Zn0 2.000531 1_555
O8 Zn4 2.037419 1_555
O9 P1 1.584907 1_555
O9 Zn1 2.000531 1_556
O9 Zn5 2.037419 1_555
O10 P2 1.584907 1_555
O10 Zn2 2.000531 1_555
O10 Zn6 2.037419 1_555
O11 P3 1.584907 1_555
O11 Zn3 2.000531 1_554
O11 Zn7 2.037419 1_555
O12 P0 1.493709 1_555
O13 P1 1.493709 1_555
O14 P2 1.493709 1_555
O15 P3 1.493709 1_555
O16 P4 1.552639 1_555
O17 P5 1.552639 1_555
O18 P6 1.552639 1_555
O19 P7 1.552639 1_555
O20 P4 1.558201 1_555
O20 Zn4 1.958703 1_555
O20 Zn0 2.145764 1_555
O21 P5 1.558201 1_555
O21 Zn5 1.958703 1_554
O21 Zn1 2.145764 1_555
O22 P6 1.558201 1_555
O22 Zn6 1.958703 1_555
O22 Zn2 2.145764 1_555
O23 P7 1.558201 1_555
O23 Zn7 1.958703 1_556
O23 Zn3 2.145764 1_555
O24 P4 1.530690 1_555
O25 P5 1.530690 1_655
O26 P6 1.530690 1_555
O27 P7 1.530690 1_455
O28 P6 1.558421 1_555
O28 Zn4 2.027141 1_555
O29 P7 1.558421 1_455
O29 Zn5 2.027141 1_555
O30 P4 1.558421 1_555
O30 Zn6 2.027141 1_555
O31 P5 1.558421 1_655
O31 Zn7 2.027141 1_555
O32 P8 1.574451 1_555
O33 P9 1.574451 1_555
O34 P10 1.574451 1_555
O35 P11 1.574451 1_555
O36 P8 1.563640 1_565
O36 Zn0 2.052275 1_555
O37 P9 1.563640 1_565
O37 Zn1 2.052275 1_555
O38 P10 1.563640 1_545
O38 Zn2 2.052275 1_555
O39 P11 1.563640 1_545
O39 Zn3 2.052275 1_555
O40 P8 1.542010 1_555
O41 P9 1.542010 1_555
O42 P10 1.542010 1_555
O43 P11 1.542010 1_555
O44 P10 1.534637 1_555
O44 Zn4 1.942697 1_555
O45 P11 1.534637 1_555
O45 Zn5 1.942697 1_655
O46 P8 1.534637 1_555
O46 Zn6 1.942697 1_555
O47 P9 1.534637 1_555
O47 Zn7 1.942697 1_455
O48 P12 1.526436 1_555
O48 Zn0 1.900907 1_555
O49 P13 1.526436 1_555
O49 Zn1 1.900907 1_555
O50 P14 1.526436 1_555
O50 Zn2 1.900907 1_555
O51 P15 1.526436 1_555
O51 Zn3 1.900907 1_555
O52 P12 1.590808 1_555
O53 P13 1.590808 1_555
O54 P14 1.590808 1_555
O55 P15 1.590808 1_555
O56 P12 1.515616 1_655
O57 P13 1.515616 1_555
O58 P14 1.515616 1_455
O59 P15 1.515616 1_555
O60 P12 1.598072 1_555
O61 P13 1.598072 1_555
O62 P14 1.598072 1_555
O63 P15 1.598072 1_555
O80 O87 1.283376 1_555
O80 O89 1.283868 1_555
O81 O86 1.283376 1_554
O81 O88 1.283868 1_555
O82 O85 1.283376 1_555
O82 O91 1.283868 1_555
O83 O84 1.283376 1_556
O83 O90 1.283868 1_555
