# generated using pymatgen
data_Y2Ti3O9
_symmetry_space_group_name_H-M   'P 1'
_cell_length_a   5.30592900
_cell_length_b   7.67988500
_cell_length_c   16.55254400
_cell_angle_alpha   90.00000000
_cell_angle_beta   90.00000000
_cell_angle_gamma   90.00000000
_symmetry_Int_Tables_number   1
_chemical_formula_structural   Y2Ti3O9
_chemical_formula_sum   'Y8 Ti12 O36'
_cell_volume   674.49836637
_cell_formula_units_Z   4
loop_
 _symmetry_equiv_pos_site_id
 _symmetry_equiv_pos_as_xyz
  1  'x, y, z'
loop_
 _atom_site_type_symbol
 _atom_site_label
 _atom_site_symmetry_multiplicity
 _atom_site_fract_x
 _atom_site_fract_y
 _atom_site_fract_z
 _atom_site_occupancy
  Y  Y0  1  0.98978200  0.25000000  0.98171700  1
  Y  Y1  1  0.97864100  0.25000000  0.31488600  1
  Y  Y2  1  0.47864100  0.75000000  0.18511400  1
  Y  Y3  1  0.48978200  0.75000000  0.51828300  1
  Y  Y4  1  0.52135900  0.25000000  0.81488600  1
  Y  Y5  1  0.51021800  0.25000000  0.48171700  1
  Y  Y6  1  0.02135900  0.75000000  0.68511400  1
  Y  Y7  1  0.01021800  0.75000000  0.01828300  1
  Ti  Ti0  1  0.00836500  0.50901600  0.83332400  1
  Ti  Ti1  1  0.99163500  0.49098400  0.16667600  1
  Ti  Ti2  1  0.00000000  0.50000000  0.50000000  1
  Ti  Ti3  1  0.50836500  0.49098400  0.66667600  1
  Ti  Ti4  1  0.50000000  0.50000000  0.00000000  1
  Ti  Ti5  1  0.49163500  0.50901600  0.33332400  1
  Ti  Ti6  1  0.50836500  0.00901600  0.66667600  1
  Ti  Ti7  1  0.50000000  0.00000000  0.00000000  1
  Ti  Ti8  1  0.49163500  0.99098400  0.33332400  1
  Ti  Ti9  1  0.00836500  0.99098400  0.83332400  1
  Ti  Ti10  1  0.99163500  0.00901600  0.16667600  1
  Ti  Ti11  1  0.00000000  0.00000000  0.50000000  1
  O  O0  1  0.27362700  0.53651800  0.75767300  1
  O  O1  1  0.29031400  0.56467600  0.09564700  1
  O  O2  1  0.31290400  0.53371900  0.43762400  1
  O  O3  1  0.77362700  0.46348200  0.74232700  1
  O  O4  1  0.81290400  0.46628100  0.06237600  1
  O  O5  1  0.79031400  0.43532400  0.40435300  1
  O  O6  1  0.18709600  0.96628100  0.93762400  1
  O  O7  1  0.22637300  0.96348200  0.25767300  1
  O  O8  1  0.20968600  0.93532400  0.59564700  1
  O  O9  1  0.70968600  0.06467600  0.90435300  1
  O  O10  1  0.72637300  0.03651800  0.24232700  1
  O  O11  1  0.68709600  0.03371900  0.56237600  1
  O  O12  1  0.70968600  0.43532400  0.90435300  1
  O  O13  1  0.72637300  0.46348200  0.24232700  1
  O  O14  1  0.68709600  0.46628100  0.56237600  1
  O  O15  1  0.18709600  0.53371900  0.93762400  1
  O  O16  1  0.22637300  0.53651800  0.25767300  1
  O  O17  1  0.20968600  0.56467600  0.59564700  1
  O  O18  1  0.77362700  0.03651800  0.74232700  1
  O  O19  1  0.81290400  0.03371900  0.06237600  1
  O  O20  1  0.79031400  0.06467600  0.40435300  1
  O  O21  1  0.27362700  0.96348200  0.75767300  1
  O  O22  1  0.29031400  0.93532400  0.09564700  1
  O  O23  1  0.31290400  0.96628100  0.43762400  1
  O  O24  1  0.93629200  0.75000000  0.82769300  1
  O  O25  1  0.89321500  0.75000000  0.15483200  1
  O  O26  1  0.91147300  0.75000000  0.49365400  1
  O  O27  1  0.43629200  0.25000000  0.67230700  1
  O  O28  1  0.41147300  0.25000000  0.00634600  1
  O  O29  1  0.39321500  0.25000000  0.34516800  1
  O  O30  1  0.58852700  0.75000000  0.99365400  1
  O  O31  1  0.56370800  0.75000000  0.32769300  1
  O  O32  1  0.60678500  0.75000000  0.65483200  1
  O  O33  1  0.10678500  0.25000000  0.84516800  1
  O  O34  1  0.06370800  0.25000000  0.17230700  1
  O  O35  1  0.08852700  0.25000000  0.50634600  1
loop_
_geom_bond_atom_site_label_1
_geom_bond_atom_site_label_2
_geom_bond_distance
_geom_bond_site_symmetry_2
O0 Ti0 1.895680 1_555
O0 Ti3 1.985523 1_555
O0 Y6 2.433543 1_555
O0 Y4 2.732489 1_555
O1 Ti4 1.997767 1_555
O1 Ti1 2.052824 1_455
O1 Y2 2.284135 1_555
O1 Y7 2.423685 1_555
O2 Ti2 1.972180 1_555
O2 Ti5 1.978861 1_555
O2 Y3 2.328578 1_555
O2 Y5 2.525171 1_555
O3 Ti3 1.895680 1_555
O3 Ti0 1.985523 1_655
O3 Y4 2.433543 1_555
O3 Y6 2.732489 1_655
O4 Ti4 1.972180 1_555
O4 Ti1 1.978861 1_555
O4 Y0 2.328578 1_554
O4 Y7 2.525171 1_655
O5 Ti2 1.997767 1_655
O5 Ti5 2.052824 1_555
O5 Y1 2.284135 1_555
O5 Y5 2.423685 1_555
O6 Ti7 1.972180 1_566
O6 Ti9 1.978861 1_555
O6 Y7 2.328578 1_556
O6 Y0 2.525171 1_465
O7 Ti8 1.895680 1_555
O7 Ti10 1.985523 1_465
O7 Y2 2.433543 1_555
O7 Y1 2.732489 1_465
O8 Ti11 1.997767 1_565
O8 Ti6 2.052824 1_565
O8 Y6 2.284135 1_555
O8 Y3 2.423685 1_555
O9 Ti7 1.997767 1_556
O9 Ti9 2.052824 1_645
O9 Y4 2.284135 1_555
O9 Y0 2.423685 1_555
O10 Ti10 1.895680 1_555
O10 Ti8 1.985523 1_545
O10 Y1 2.433543 1_555
O10 Y2 2.732489 1_545
O11 Ti11 1.972180 1_655
O11 Ti6 1.978861 1_555
O11 Y5 2.328578 1_555
O11 Y3 2.525171 1_545
O12 Ti4 1.997767 1_556
O12 Ti0 2.052824 1_655
O12 Y4 2.284135 1_555
O12 Y0 2.423685 1_555
O13 Ti1 1.895680 1_555
O13 Ti5 1.985523 1_555
O13 Y1 2.433543 1_555
O13 Y2 2.732489 1_555
O14 Ti2 1.972180 1_655
O14 Ti3 1.978861 1_555
O14 Y5 2.328578 1_555
O14 Y3 2.525171 1_555
O15 Ti4 1.972180 1_556
O15 Ti0 1.978861 1_555
O15 Y7 2.328578 1_556
O15 Y0 2.525171 1_455
O16 Ti5 1.895680 1_555
O16 Ti1 1.985523 1_455
O16 Y2 2.433543 1_555
O16 Y1 2.732489 1_455
O17 Ti2 1.997767 1_555
O17 Ti3 2.052824 1_555
O17 Y6 2.284135 1_555
O17 Y3 2.423685 1_555
O18 Ti6 1.895680 1_555
O18 Ti9 1.985523 1_645
O18 Y4 2.433543 1_555
O18 Y6 2.732489 1_645
O19 Ti7 1.972180 1_555
O19 Ti10 1.978861 1_555
O19 Y0 2.328578 1_554
O19 Y7 2.525171 1_645
O20 Ti11 1.997767 1_655
O20 Ti8 2.052824 1_545
O20 Y1 2.284135 1_555
O20 Y5 2.423685 1_555
O21 Ti9 1.895680 1_555
O21 Ti6 1.985523 1_565
O21 Y6 2.433543 1_555
O21 Y4 2.732489 1_565
O22 Ti7 1.997767 1_565
O22 Ti10 2.052824 1_465
O22 Y2 2.284135 1_555
O22 Y7 2.423685 1_555
O23 Ti11 1.972180 1_565
O23 Ti8 1.978861 1_555
O23 Y3 2.328578 1_555
O23 Y5 2.525171 1_565
O24 Ti0 1.892123 1_655
O24 Ti9 1.892123 1_655
O24 Y6 2.402819 1_655
O25 Ti10 2.065940 1_565
O25 Ti1 2.065940 1_555
O25 Y2 2.256087 1_555
O25 Y7 2.343941 1_655
O26 Ti2 1.979383 1_655
O26 Ti11 1.979383 1_665
O26 Y3 2.274299 1_555
O27 Ti3 1.892123 1_555
O27 Ti6 1.892123 1_555
O27 Y4 2.402819 1_555
O28 Ti7 1.979383 1_555
O28 Ti4 1.979383 1_555
O28 Y0 2.274299 1_454
O29 Ti8 2.065940 1_545
O29 Ti5 2.065940 1_555
O29 Y1 2.256087 1_455
O29 Y5 2.343941 1_555
O30 Ti4 1.979383 1_556
O30 Ti7 1.979383 1_566
O30 Y7 2.274299 1_656
O31 Ti5 1.892123 1_555
O31 Ti8 1.892123 1_555
O31 Y2 2.402819 1_555
O32 Ti6 2.065940 1_565
O32 Ti3 2.065940 1_555
O32 Y6 2.256087 1_655
O32 Y3 2.343941 1_555
O33 Ti0 2.065940 1_555
O33 Ti9 2.065940 1_545
O33 Y4 2.256087 1_555
O33 Y0 2.343941 1_455
O34 Ti1 1.892123 1_455
O34 Ti10 1.892123 1_455
O34 Y1 2.402819 1_455
O35 Ti2 1.979383 1_555
O35 Ti11 1.979383 1_555
O35 Y5 2.274299 1_555
