# generated using pymatgen
data_ZnH12C3SeS3(N3O2)2
_symmetry_space_group_name_H-M   'P 1'
_cell_length_a   7.98573000
_cell_length_b   11.45337800
_cell_length_c   15.98483700
_cell_angle_alpha   90.00000000
_cell_angle_beta   90.00000000
_cell_angle_gamma   90.00000000
_symmetry_Int_Tables_number   1
_chemical_formula_structural   ZnH12C3SeS3(N3O2)2
_chemical_formula_sum   'Zn4 H48 C12 Se4 S12 N24 O16'
_cell_volume   1462.03048641
_cell_formula_units_Z   4
loop_
 _symmetry_equiv_pos_site_id
 _symmetry_equiv_pos_as_xyz
  1  'x, y, z'
loop_
 _atom_site_type_symbol
 _atom_site_label
 _atom_site_symmetry_multiplicity
 _atom_site_fract_x
 _atom_site_fract_y
 _atom_site_fract_z
 _atom_site_occupancy
  Zn  Zn0  1  0.66109500  0.93738000  0.92122600  1
  Zn  Zn1  1  0.33890500  0.06262000  0.42122600  1
  Zn  Zn2  1  0.66109500  0.56262000  0.42122600  1
  Zn  Zn3  1  0.33890500  0.43738000  0.92122600  1
  H  H0  1  0.30604800  0.14966900  0.72145200  1
  H  H1  1  0.69395200  0.85033100  0.22145200  1
  H  H2  1  0.30604800  0.35033100  0.22145200  1
  H  H3  1  0.69395200  0.64966900  0.72145200  1
  H  H4  1  0.16370600  0.03480100  0.70898300  1
  H  H5  1  0.83629400  0.96519900  0.20898300  1
  H  H6  1  0.16370600  0.46519900  0.20898300  1
  H  H7  1  0.83629400  0.53480100  0.70898300  1
  H  H8  1  0.20305600  0.85770000  0.77826000  1
  H  H9  1  0.79694400  0.14230000  0.27826000  1
  H  H10  1  0.20305600  0.64230000  0.27826000  1
  H  H11  1  0.79694400  0.35770000  0.77826000  1
  H  H12  1  0.35121100  0.85394400  0.86097500  1
  H  H13  1  0.64878900  0.14605600  0.36097500  1
  H  H14  1  0.35121100  0.64605600  0.36097500  1
  H  H15  1  0.64878900  0.35394400  0.86097500  1
  H  H16  1  0.92080100  0.08722600  0.85673200  1
  H  H17  1  0.07919900  0.91277400  0.35673200  1
  H  H18  1  0.92080100  0.41277400  0.35673200  1
  H  H19  1  0.07919900  0.58722600  0.85673200  1
  H  H20  1  0.02480800  0.21866100  0.87626200  1
  H  H21  1  0.97519200  0.78133900  0.37626200  1
  H  H22  1  0.02480800  0.28133900  0.37626200  1
  H  H23  1  0.97519200  0.71866100  0.87626200  1
  H  H24  1  0.97717400  0.21534900  0.09579300  1
  H  H25  1  0.02282600  0.78465100  0.59579300  1
  H  H26  1  0.97717400  0.28465100  0.59579300  1
  H  H27  1  0.02282600  0.71534900  0.09579300  1
  H  H28  1  0.06140600  0.28877900  0.00969100  1
  H  H29  1  0.93859400  0.71122100  0.50969100  1
  H  H30  1  0.06140600  0.21122100  0.50969100  1
  H  H31  1  0.93859400  0.78877900  0.00969100  1
  H  H32  1  0.28140300  0.88054400  0.18388400  1
  H  H33  1  0.71859700  0.11945600  0.68388400  1
  H  H34  1  0.28140300  0.61945600  0.68388400  1
  H  H35  1  0.71859700  0.38054400  0.18388400  1
  H  H36  1  0.39823000  0.75514200  0.15563700  1
  H  H37  1  0.60177000  0.24485800  0.65563700  1
  H  H38  1  0.39823000  0.74485800  0.65563700  1
  H  H39  1  0.60177000  0.25514200  0.15563700  1
  H  H40  1  0.40075000  0.03527600  0.00227100  1
  H  H41  1  0.59925000  0.96472400  0.50227100  1
  H  H42  1  0.40075000  0.46472400  0.50227100  1
  H  H43  1  0.59925000  0.53527600  0.00227100  1
  H  H44  1  0.31481400  0.04864700  0.10172700  1
  H  H45  1  0.68518600  0.95135300  0.60172700  1
  H  H46  1  0.31481400  0.45135300  0.60172700  1
  H  H47  1  0.68518600  0.54864700  0.10172700  1
  C  C0  1  0.34913200  0.00535700  0.79475700  1
  C  C1  1  0.65086800  0.99464300  0.29475700  1
  C  C2  1  0.34913200  0.49464300  0.29475700  1
  C  C3  1  0.65086800  0.50535700  0.79475700  1
  C  C4  1  0.93275600  0.13822300  0.98089200  1
  C  C5  1  0.06724400  0.86177700  0.48089200  1
  C  C6  1  0.93275600  0.36177700  0.48089200  1
  C  C7  1  0.06724400  0.63822300  0.98089200  1
  C  C8  1  0.39898100  0.88462400  0.06929600  1
  C  C9  1  0.60101900  0.11537600  0.56929600  1
  C  C10  1  0.39898100  0.61537600  0.56929600  1
  C  C11  1  0.60101900  0.38462400  0.06929600  1
  Se  Se0  1  0.85131100  0.87353300  0.74735100  1
  Se  Se1  1  0.14868900  0.12646700  0.24735100  1
  Se  Se2  1  0.85131100  0.62646700  0.24735100  1
  Se  Se3  1  0.14868900  0.37353300  0.74735100  1
  S  S0  1  0.50325800  0.07718100  0.85134700  1
  S  S1  1  0.49674200  0.92281900  0.35134700  1
  S  S2  1  0.50325800  0.42281900  0.35134700  1
  S  S3  1  0.49674200  0.57718100  0.85134700  1
  S  S4  1  0.82747500  0.02157800  0.02518200  1
  S  S5  1  0.17252500  0.97842200  0.52518200  1
  S  S6  1  0.82747500  0.47842200  0.52518200  1
  S  S7  1  0.17252500  0.52157800  0.02518200  1
  S  S8  1  0.50957600  0.79950500  0.99837600  1
  S  S9  1  0.49042400  0.20049500  0.49837600  1
  S  S10  1  0.50957600  0.70049500  0.49837600  1
  S  S11  1  0.49042400  0.29950500  0.99837600  1
  N  N0  1  0.27339000  0.06512400  0.73386800  1
  N  N1  1  0.72661000  0.93487600  0.23386800  1
  N  N2  1  0.27339000  0.43487600  0.23386800  1
  N  N3  1  0.72661000  0.56512400  0.73386800  1
  N  N4  1  0.30177600  0.89594900  0.81054700  1
  N  N5  1  0.69822400  0.10405100  0.31054700  1
  N  N6  1  0.30177600  0.60405100  0.31054700  1
  N  N7  1  0.69822400  0.39594900  0.81054700  1
  N  N8  1  0.95407500  0.15041800  0.89873700  1
  N  N9  1  0.04592500  0.84958200  0.39873700  1
  N  N10  1  0.95407500  0.34958200  0.39873700  1
  N  N11  1  0.04592500  0.65041800  0.89873700  1
  N  N12  1  0.99516800  0.21970200  0.03242200  1
  N  N13  1  0.00483200  0.78029800  0.53242200  1
  N  N14  1  0.99516800  0.28029800  0.53242200  1
  N  N15  1  0.00483200  0.71970200  0.03242200  1
  N  N16  1  0.35194600  0.83480000  0.14097500  1
  N  N17  1  0.64805400  0.16520000  0.64097500  1
  N  N18  1  0.35194600  0.66520000  0.64097500  1
  N  N19  1  0.64805400  0.33480000  0.14097500  1
  N  N20  1  0.35411100  0.99490000  0.05396000  1
  N  N21  1  0.64588900  0.00510000  0.55396000  1
  N  N22  1  0.35411100  0.50510000  0.55396000  1
  N  N23  1  0.64588900  0.49490000  0.05396000  1
  O  O0  1  0.82007500  0.84100800  0.85118500  1
  O  O1  1  0.17992500  0.15899200  0.35118500  1
  O  O2  1  0.82007500  0.65899200  0.35118500  1
  O  O3  1  0.17992500  0.34100800  0.85118500  1
  O  O4  1  0.02468200  0.80099500  0.71962700  1
  O  O5  1  0.97531800  0.19900500  0.21962700  1
  O  O6  1  0.02468200  0.69900500  0.21962700  1
  O  O7  1  0.97531800  0.30099500  0.71962700  1
  O  O8  1  0.88189600  0.01737000  0.73908500  1
  O  O9  1  0.11810400  0.98263000  0.23908500  1
  O  O10  1  0.88189600  0.48263000  0.23908500  1
  O  O11  1  0.11810400  0.51737000  0.73908500  1
  O  O12  1  0.68708600  0.82881300  0.69167100  1
  O  O13  1  0.31291400  0.17118700  0.19167100  1
  O  O14  1  0.68708600  0.67118700  0.19167100  1
  O  O15  1  0.31291400  0.32881300  0.69167100  1
loop_
_geom_bond_atom_site_label_1
_geom_bond_atom_site_label_2
_geom_bond_distance
_geom_bond_site_symmetry_2
H0 N0 1.022282 1_555
H1 N1 1.022282 1_555
H2 N2 1.022282 1_555
H3 N3 1.022282 1_555
H4 N0 1.022772 1_555
H5 N1 1.022772 1_555
H6 N2 1.022772 1_555
H7 N3 1.022772 1_555
H8 N4 1.039122 1_555
H9 N5 1.039122 1_555
H10 N6 1.039122 1_555
H11 N7 1.039122 1_555
H12 N4 1.018368 1_555
H13 N5 1.018368 1_555
H14 N6 1.018368 1_555
H15 N7 1.018368 1_555
H16 N8 1.022386 1_555
H17 N9 1.022386 1_555
H18 N10 1.022386 1_555
H19 N11 1.022386 1_555
H20 N8 1.029100 1_455
H21 N9 1.029100 1_655
H22 N10 1.029100 1_455
H23 N11 1.029100 1_655
H24 N12 1.024330 1_555
H25 N13 1.024330 1_555
H26 N14 1.024330 1_555
H27 N15 1.024330 1_555
H28 N12 1.018707 1_455
H29 N13 1.018707 1_655
H30 N14 1.018707 1_455
H31 N15 1.018707 1_655
H32 N16 1.030677 1_555
H33 N17 1.030677 1_555
H34 N18 1.030677 1_555
H35 N19 1.030677 1_555
H36 N16 1.011894 1_555
H37 N17 1.011894 1_555
H38 N18 1.011894 1_555
H39 N19 1.011894 1_555
H40 N20 1.017468 1_545
H41 N21 1.017468 1_565
H42 N22 1.017468 1_555
H43 N23 1.017468 1_555
H44 N20 1.029772 1_545
H45 N21 1.029772 1_565
H46 N22 1.029772 1_555
H47 N23 1.029772 1_555
C0 N4 1.333026 1_545
C0 N0 1.334822 1_555
C0 S0 1.734899 1_555
C1 N5 1.333026 1_565
C1 N1 1.334822 1_555
C1 S1 1.734899 1_555
C2 N6 1.333026 1_555
C2 N2 1.334822 1_555
C2 S2 1.734899 1_555
C3 N7 1.333026 1_555
C3 N3 1.334822 1_555
C3 S3 1.734899 1_555
C4 N8 1.331570 1_555
C4 N12 1.340809 1_556
C4 S4 1.730004 1_556
C5 N9 1.331570 1_555
C5 N13 1.340809 1_555
C5 S5 1.730004 1_555
C6 N10 1.331570 1_555
C6 N14 1.340809 1_555
C6 S6 1.730004 1_555
C7 N11 1.331570 1_555
C7 N15 1.340809 1_556
C7 S7 1.730004 1_556
C8 N16 1.333991 1_555
C8 N20 1.335567 1_555
C8 S8 1.736546 1_554
C9 N17 1.333991 1_555
C9 N21 1.335567 1_555
C9 S9 1.736546 1_555
C10 N18 1.333991 1_555
C10 N22 1.335567 1_555
C10 S10 1.736546 1_555
C11 N19 1.333991 1_555
C11 N23 1.335567 1_555
C11 S11 1.736546 1_554
S0 Zn0 2.323841 1_545
S1 Zn1 2.323841 1_565
S2 Zn2 2.323841 1_555
S3 Zn3 2.323841 1_555
S4 Zn0 2.335945 1_544
S5 Zn1 2.335945 1_565
S6 Zn2 2.335945 1_555
S7 Zn3 2.335945 1_554
S8 Zn0 2.340640 1_555
S9 Zn1 2.340640 1_555
S10 Zn2 2.340640 1_555
S11 Zn3 2.340640 1_555
O0 Se0 1.719252 1_555
O0 Zn0 2.020803 1_555
O1 Se1 1.719252 1_555
O1 Zn1 2.020803 1_555
O2 Se2 1.719252 1_555
O2 Zn2 2.020803 1_555
O3 Se3 1.719252 1_555
O3 Zn3 2.020803 1_555
O4 Se0 1.674352 1_455
O5 Se1 1.674352 1_655
O6 Se2 1.674352 1_455
O7 Se3 1.674352 1_655
O8 Se0 1.670660 1_545
O9 Se1 1.670660 1_565
O10 Se2 1.670660 1_555
O11 Se3 1.670660 1_555
O12 Se0 1.665661 1_555
O13 Se1 1.665661 1_555
O14 Se2 1.665661 1_555
O15 Se3 1.665661 1_555
