# generated using pymatgen
data_Mg3Si
_symmetry_space_group_name_H-M   'P 1'
_cell_length_a   6.25450200
_cell_length_b   9.87038400
_cell_length_c   10.39267400
_cell_angle_alpha   90.00000000
_cell_angle_beta   90.00000000
_cell_angle_gamma   90.00000000
_symmetry_Int_Tables_number   1
_chemical_formula_structural   Mg3Si
_chemical_formula_sum   'Mg24 Si8'
_cell_volume   641.58483353
_cell_formula_units_Z   8
loop_
 _symmetry_equiv_pos_site_id
 _symmetry_equiv_pos_as_xyz
  1  'x, y, z'
loop_
 _atom_site_type_symbol
 _atom_site_label
 _atom_site_symmetry_multiplicity
 _atom_site_fract_x
 _atom_site_fract_y
 _atom_site_fract_z
 _atom_site_occupancy
  Mg  Mg0_0  1  0.00000000  0.00000000  0.33388750  1
  Mg  Mg0_1  1  0.00000000  0.00000000  0.83388750  1
  Mg  Mg0_2  1  0.00000000  0.50000000  0.33388750  1
  Mg  Mg0_3  1  0.00000000  0.50000000  0.83388750  1
  Mg  Mg0_4  1  0.50000000  0.00000000  0.33388750  1
  Mg  Mg0_5  1  0.50000000  0.00000000  0.83388750  1
  Mg  Mg0_6  1  0.50000000  0.50000000  0.33388750  1
  Mg  Mg0_7  1  0.50000000  0.50000000  0.83388750  1
  Mg  Mg1_0  1  0.00000000  0.25000000  0.16323800  1
  Mg  Mg1_1  1  0.00000000  0.25000000  0.66323800  1
  Mg  Mg1_2  1  0.00000000  0.75000000  0.16323800  1
  Mg  Mg1_3  1  0.00000000  0.75000000  0.66323800  1
  Mg  Mg1_4  1  0.50000000  0.25000000  0.16323800  1
  Mg  Mg1_5  1  0.50000000  0.25000000  0.66323800  1
  Mg  Mg1_6  1  0.50000000  0.75000000  0.16323800  1
  Mg  Mg1_7  1  0.50000000  0.75000000  0.66323800  1
  Mg  Mg2_0  1  0.25000000  0.25000000  0.42069100  1
  Mg  Mg2_1  1  0.25000000  0.25000000  0.92069100  1
  Mg  Mg2_2  1  0.25000000  0.75000000  0.42069100  1
  Mg  Mg2_3  1  0.25000000  0.75000000  0.92069100  1
  Mg  Mg2_4  1  0.75000000  0.25000000  0.42069100  1
  Mg  Mg2_5  1  0.75000000  0.25000000  0.92069100  1
  Mg  Mg2_6  1  0.75000000  0.75000000  0.42069100  1
  Mg  Mg2_7  1  0.75000000  0.75000000  0.92069100  1
  Si  Si0_0  1  0.25000000  0.00000000  0.08218350  1
  Si  Si0_1  1  0.25000000  0.00000000  0.58218350  1
  Si  Si0_2  1  0.25000000  0.50000000  0.08218350  1
  Si  Si0_3  1  0.25000000  0.50000000  0.58218350  1
  Si  Si0_4  1  0.75000000  0.00000000  0.08218350  1
  Si  Si0_5  1  0.75000000  0.00000000  0.58218350  1
  Si  Si0_6  1  0.75000000  0.50000000  0.08218350  1
  Si  Si0_7  1  0.75000000  0.50000000  0.58218350  1
loop_
_geom_bond_atom_site_label_1
_geom_bond_atom_site_label_2
_geom_bond_distance
_geom_bond_site_symmetry_2
Mg0_0 Si0_1 3.017233 1_555
Mg0_0 Si0_5 3.017233 1_455
Mg0_0 Mg1_2 3.038807 1_545
Mg0_0 Mg1_0 3.038807 1_555
Mg0_0 Si0_0 3.047579 1_555
Mg0_0 Si0_4 3.047579 1_455
Mg0_0 Mg2_2 3.057413 1_545
Mg0_0 Mg2_0 3.057413 1_555
Mg0_0 Mg2_6 3.057413 1_445
Mg0_0 Mg2_4 3.057413 1_455
Mg0_0 Mg0_4 3.127251 1_455
Mg0_0 Mg0_4 3.127251 1_555
Mg0_1 Si0_0 3.017233 1_556
Mg0_1 Si0_4 3.017233 1_456
Mg0_1 Mg1_3 3.038807 1_545
Mg0_1 Mg1_1 3.038807 1_555
Mg0_1 Si0_1 3.047579 1_555
Mg0_1 Si0_5 3.047579 1_455
Mg0_1 Mg2_3 3.057413 1_545
Mg0_1 Mg2_1 3.057413 1_555
Mg0_1 Mg2_7 3.057413 1_445
Mg0_1 Mg2_5 3.057413 1_455
Mg0_1 Mg0_5 3.127251 1_455
Mg0_1 Mg0_5 3.127251 1_555
Mg0_2 Si0_3 3.017233 1_555
Mg0_2 Si0_7 3.017233 1_455
Mg0_2 Mg1_2 3.038807 1_555
Mg0_2 Mg1_0 3.038807 1_555
Mg0_2 Si0_2 3.047579 1_555
Mg0_2 Si0_6 3.047579 1_455
Mg0_2 Mg2_0 3.057413 1_555
Mg0_2 Mg2_2 3.057413 1_555
Mg0_2 Mg2_4 3.057413 1_455
Mg0_2 Mg2_6 3.057413 1_455
Mg0_2 Mg0_6 3.127251 1_455
Mg0_2 Mg0_6 3.127251 1_555
Mg0_3 Si0_2 3.017233 1_556
Mg0_3 Si0_6 3.017233 1_456
Mg0_3 Mg1_3 3.038807 1_555
Mg0_3 Mg1_1 3.038807 1_555
Mg0_3 Si0_3 3.047579 1_555
Mg0_3 Si0_7 3.047579 1_455
Mg0_3 Mg2_3 3.057413 1_555
Mg0_3 Mg2_1 3.057413 1_555
Mg0_3 Mg2_7 3.057413 1_455
Mg0_3 Mg2_5 3.057413 1_455
Mg0_3 Mg0_7 3.127251 1_555
Mg0_3 Mg0_7 3.127251 1_455
Mg0_4 Si0_5 3.017233 1_555
Mg0_4 Si0_1 3.017233 1_555
Mg0_4 Mg1_4 3.038807 1_555
Mg0_4 Mg1_6 3.038807 1_545
Mg0_4 Si0_4 3.047579 1_555
Mg0_4 Si0_0 3.047579 1_555
Mg0_4 Mg2_4 3.057413 1_555
Mg0_4 Mg2_6 3.057413 1_545
Mg0_4 Mg2_2 3.057413 1_545
Mg0_4 Mg2_0 3.057413 1_555
Mg0_5 Si0_4 3.017233 1_556
Mg0_5 Si0_0 3.017233 1_556
Mg0_5 Mg1_5 3.038807 1_555
Mg0_5 Mg1_7 3.038807 1_545
Mg0_5 Si0_5 3.047579 1_555
Mg0_5 Si0_1 3.047579 1_555
Mg0_5 Mg2_7 3.057413 1_545
Mg0_5 Mg2_5 3.057413 1_555
Mg0_5 Mg2_3 3.057413 1_545
Mg0_5 Mg2_1 3.057413 1_555
Mg0_6 Si0_7 3.017233 1_555
Mg0_6 Si0_3 3.017233 1_555
Mg0_6 Mg1_6 3.038807 1_555
Mg0_6 Mg1_4 3.038807 1_555
Mg0_6 Si0_6 3.047579 1_555
Mg0_6 Si0_2 3.047579 1_555
Mg0_6 Mg2_4 3.057413 1_555
Mg0_6 Mg2_6 3.057413 1_555
Mg0_6 Mg2_0 3.057413 1_555
Mg0_6 Mg2_2 3.057413 1_555
Mg0_7 Si0_6 3.017233 1_556
Mg0_7 Si0_2 3.017233 1_556
Mg0_7 Mg1_5 3.038807 1_555
Mg0_7 Mg1_7 3.038807 1_555
Mg0_7 Si0_7 3.047579 1_555
Mg0_7 Si0_3 3.047579 1_555
Mg0_7 Mg2_7 3.057413 1_555
Mg0_7 Mg2_5 3.057413 1_555
Mg0_7 Mg2_3 3.057413 1_555
Mg0_7 Mg2_1 3.057413 1_555
Mg1_0 Mg2_1 2.966296 1_554
Mg1_0 Mg2_5 2.966296 1_454
Mg1_0 Si0_2 3.040320 1_555
Mg1_0 Si0_0 3.040320 1_555
Mg1_0 Si0_4 3.040320 1_455
Mg1_0 Si0_6 3.040320 1_455
Mg1_0 Mg2_0 3.099015 1_555
Mg1_0 Mg2_4 3.099015 1_455
Mg1_0 Mg1_4 3.127251 1_555
Mg1_0 Mg1_4 3.127251 1_455
Mg1_1 Mg2_0 2.966296 1_555
Mg1_1 Mg2_4 2.966296 1_455
Mg1_1 Si0_1 3.040320 1_555
Mg1_1 Si0_3 3.040320 1_555
Mg1_1 Si0_7 3.040320 1_455
Mg1_1 Si0_5 3.040320 1_455
Mg1_1 Mg2_1 3.099015 1_555
Mg1_1 Mg2_5 3.099015 1_455
Mg1_1 Mg1_5 3.127251 1_555
Mg1_1 Mg1_5 3.127251 1_455
Mg1_2 Mg2_3 2.966296 1_554
Mg1_2 Mg2_7 2.966296 1_454
Mg1_2 Si0_0 3.040320 1_565
Mg1_2 Si0_2 3.040320 1_555
Mg1_2 Si0_4 3.040320 1_465
Mg1_2 Si0_6 3.040320 1_455
Mg1_2 Mg2_2 3.099015 1_555
Mg1_2 Mg2_6 3.099015 1_455
Mg1_2 Mg1_6 3.127251 1_455
Mg1_2 Mg1_6 3.127251 1_555
Mg1_3 Mg2_2 2.966296 1_555
Mg1_3 Mg2_6 2.966296 1_455
Mg1_3 Si0_1 3.040320 1_565
Mg1_3 Si0_3 3.040320 1_555
Mg1_3 Si0_5 3.040320 1_465
Mg1_3 Si0_7 3.040320 1_455
Mg1_3 Mg2_3 3.099015 1_555
Mg1_3 Mg2_7 3.099015 1_455
Mg1_3 Mg1_7 3.127251 1_455
Mg1_3 Mg1_7 3.127251 1_555
Mg1_4 Mg2_5 2.966296 1_554
Mg1_4 Mg2_1 2.966296 1_554
Mg1_4 Si0_4 3.040320 1_555
Mg1_4 Si0_2 3.040320 1_555
Mg1_4 Si0_0 3.040320 1_555
Mg1_4 Si0_6 3.040320 1_555
Mg1_4 Mg2_0 3.099015 1_555
Mg1_4 Mg2_4 3.099015 1_555
Mg1_5 Mg2_4 2.966296 1_555
Mg1_5 Mg2_0 2.966296 1_555
Mg1_5 Si0_7 3.040320 1_555
Mg1_5 Si0_1 3.040320 1_555
Mg1_5 Si0_5 3.040320 1_555
Mg1_5 Si0_3 3.040320 1_555
Mg1_5 Mg2_1 3.099015 1_555
Mg1_5 Mg2_5 3.099015 1_555
Mg1_6 Mg2_7 2.966296 1_554
Mg1_6 Mg2_3 2.966296 1_554
Mg1_6 Si0_0 3.040320 1_565
Mg1_6 Si0_2 3.040320 1_555
Mg1_6 Si0_4 3.040320 1_565
Mg1_6 Si0_6 3.040320 1_555
Mg1_6 Mg2_6 3.099015 1_555
Mg1_6 Mg2_2 3.099015 1_555
Mg1_7 Mg2_6 2.966296 1_555
Mg1_7 Mg2_2 2.966296 1_555
Mg1_7 Si0_7 3.040320 1_555
Mg1_7 Si0_1 3.040320 1_565
Mg1_7 Si0_5 3.040320 1_565
Mg1_7 Si0_3 3.040320 1_555
Mg1_7 Mg2_7 3.099015 1_555
Mg1_7 Mg2_3 3.099015 1_555
Mg2_0 Si0_3 2.984267 1_555
Mg2_0 Si0_1 2.984267 1_555
Mg2_0 Mg2_4 3.127251 1_555
Mg2_0 Mg2_4 3.127251 1_455
Mg2_1 Si0_2 2.984267 1_556
Mg2_1 Si0_0 2.984267 1_556
Mg2_1 Mg2_5 3.127251 1_555
Mg2_1 Mg2_5 3.127251 1_455
Mg2_2 Si0_3 2.984267 1_555
Mg2_2 Si0_1 2.984267 1_565
Mg2_2 Mg2_6 3.127251 1_555
Mg2_2 Mg2_6 3.127251 1_455
Mg2_3 Si0_0 2.984267 1_566
Mg2_3 Si0_2 2.984267 1_556
Mg2_3 Mg2_7 3.127251 1_555
Mg2_3 Mg2_7 3.127251 1_455
Mg2_4 Si0_5 2.984267 1_555
Mg2_4 Si0_7 2.984267 1_555
Mg2_5 Si0_4 2.984267 1_556
Mg2_5 Si0_6 2.984267 1_556
Mg2_6 Si0_5 2.984267 1_565
Mg2_6 Si0_7 2.984267 1_555
Mg2_7 Si0_4 2.984267 1_566
Mg2_7 Si0_6 2.984267 1_556
