# generated using pymatgen
data_B4Mo
_symmetry_space_group_name_H-M   'P 1'
_cell_length_a   5.32145730
_cell_length_b   5.32145730
_cell_length_c   6.54085300
_cell_angle_alpha   90.00000000
_cell_angle_beta   90.00000000
_cell_angle_gamma   119.99999124
_symmetry_Int_Tables_number   1
_chemical_formula_structural   B4Mo
_chemical_formula_sum   'B16 Mo4'
_cell_volume   160.40807296
_cell_formula_units_Z   4
loop_
 _symmetry_equiv_pos_site_id
 _symmetry_equiv_pos_as_xyz
  1  'x, y, z'
loop_
 _atom_site_type_symbol
 _atom_site_label
 _atom_site_symmetry_multiplicity
 _atom_site_fract_x
 _atom_site_fract_y
 _atom_site_fract_z
 _atom_site_occupancy
  B  B0  1  0.33644700  0.33644700  0.50000000  1
  B  B1  1  0.66355300  0.00000000  0.50000000  1
  B  B2  1  0.00000000  0.66355300  0.50000000  1
  B  B3  1  0.66355300  0.66355300  0.50000000  1
  B  B4  1  0.00000000  0.33644700  0.50000000  1
  B  B5  1  0.33644700  0.00000000  0.50000000  1
  B  B6  1  0.66355300  0.66355300  0.00000000  1
  B  B7  1  0.33644700  0.00000000  0.00000000  1
  B  B8  1  0.00000000  0.33644700  0.00000000  1
  B  B9  1  0.33644700  0.33644700  0.00000000  1
  B  B10  1  0.00000000  0.66355300  0.00000000  1
  B  B11  1  0.66355300  0.00000000  0.00000000  1
  B  B12  1  0.33333300  0.66666700  0.87945600  1
  B  B13  1  0.66666700  0.33333300  0.12054400  1
  B  B14  1  0.66666700  0.33333300  0.37945600  1
  B  B15  1  0.33333300  0.66666700  0.62054400  1
  Mo  Mo0  1  0.33333300  0.66666700  0.25000000  1
  Mo  Mo1  1  0.66666700  0.33333300  0.75000000  1
  Mo  Mo2  1  0.00000000  0.00000000  0.25000000  1
  Mo  Mo3  1  0.00000000  0.00000000  0.75000000  1
loop_
_geom_bond_atom_site_label_1
_geom_bond_atom_site_label_2
_geom_bond_distance
_geom_bond_site_symmetry_2
B0 B3 1.740681 1_555
B0 B4 1.790388 1_555
B0 B5 1.790388 1_555
B0 B14 1.933649 1_555
B0 B15 1.933649 1_555
B0 Mo0 2.406502 1_555
B0 Mo1 2.406502 1_555
B0 Mo2 2.424750 1_555
B0 Mo3 2.424750 1_555
B1 B5 1.740681 1_555
B1 B3 1.790388 1_545
B1 B4 1.790389 1_655
B1 B14 1.933644 1_555
B1 B15 1.933646 1_545
B1 Mo1 2.406498 1_555
B1 Mo0 2.406500 1_545
B1 Mo2 2.424750 1_655
B1 Mo3 2.424750 1_655
B2 B4 1.740681 1_555
B2 B3 1.790388 1_455
B2 B5 1.790389 1_565
B2 Mo0 2.406498 1_555
B2 Mo1 2.406500 1_455
B2 Mo2 2.424750 1_565
B2 Mo3 2.424750 1_565
B3 Mo0 2.406502 1_555
B3 Mo1 2.406502 1_555
B3 Mo3 2.424750 1_665
B3 Mo2 2.424750 1_665
B4 Mo1 2.406498 1_455
B4 Mo0 2.406500 1_555
B4 Mo3 2.424750 1_555
B4 Mo2 2.424750 1_555
B5 Mo0 2.406498 1_545
B5 Mo1 2.406500 1_555
B5 Mo3 2.424750 1_555
B5 Mo2 2.424750 1_555
B6 B9 1.740681 1_555
B6 Mo0 2.406502 1_555
B6 Mo1 2.406502 1_554
B6 Mo2 2.424750 1_665
B6 Mo3 2.424750 1_664
B7 B9 1.790388 1_555
B7 Mo0 2.406498 1_545
B7 Mo1 2.406500 1_554
B7 Mo3 2.424750 1_554
B7 Mo2 2.424750 1_555
B8 B9 1.790388 1_555
B8 Mo1 2.406498 1_454
B8 Mo0 2.406500 1_555
B8 Mo3 2.424750 1_554
B8 Mo2 2.424750 1_555
B9 Mo1 2.406502 1_554
B9 Mo0 2.406502 1_555
B9 Mo2 2.424750 1_555
B9 Mo3 2.424750 1_554
B10 B8 1.740681 1_555
B10 B6 1.790388 1_455
B10 B7 1.790389 1_565
B10 B12 1.933644 1_554
B10 B13 1.933646 1_455
B10 Mo0 2.406498 1_555
B10 Mo1 2.406500 1_454
B10 Mo3 2.424750 1_564
B10 Mo2 2.424750 1_565
B11 B7 1.740681 1_555
B11 B6 1.790388 1_545
B11 B8 1.790389 1_655
B11 B13 1.933644 1_555
B11 B12 1.933646 1_544
B11 Mo1 2.406498 1_554
B11 Mo0 2.406500 1_545
B11 Mo3 2.424750 1_654
B11 Mo2 2.424750 1_655
B12 B15 1.693505 1_555
B12 B7 1.933644 1_566
B12 B8 1.933646 1_556
B12 B6 1.933649 1_556
B12 B9 1.933649 1_556
B12 Mo0 2.423674 1_556
B13 B14 1.693505 1_555
B13 B8 1.933644 1_655
B13 B7 1.933646 1_555
B13 B6 1.933649 1_555
B13 B9 1.933649 1_555
B13 Mo1 2.423674 1_554
B14 B4 1.933644 1_655
B14 B2 1.933646 1_655
B14 B5 1.933646 1_555
B14 B3 1.933649 1_555
B14 Mo1 2.423674 1_555
B15 B2 1.933644 1_555
B15 B5 1.933644 1_565
B15 B4 1.933646 1_555
B15 B3 1.933649 1_555
B15 Mo0 2.423674 1_555
