# generated using pymatgen
data_Te2Mo3W(Se2S)2
_symmetry_space_group_name_H-M   'P 1'
_cell_length_a   3.34365150
_cell_length_b   3.34365150
_cell_length_c   38.09537600
_cell_angle_alpha   90.00000000
_cell_angle_beta   90.00000000
_cell_angle_gamma   119.99999017
_symmetry_Int_Tables_number   1
_chemical_formula_structural   Te2Mo3W(Se2S)2
_chemical_formula_sum   'Te2 Mo3 W1 Se4 S2'
_cell_volume   368.84589251
_cell_formula_units_Z   1
loop_
 _symmetry_equiv_pos_site_id
 _symmetry_equiv_pos_as_xyz
  1  'x, y, z'
loop_
 _atom_site_type_symbol
 _atom_site_label
 _atom_site_symmetry_multiplicity
 _atom_site_fract_x
 _atom_site_fract_y
 _atom_site_fract_z
 _atom_site_occupancy
  Te  Te0  1  0.66666700  0.33333300  0.41991500  1
  Te  Te1  1  0.66666700  0.33333300  0.51942100  1
  Mo  Mo0  1  0.33333300  0.66666700  0.09393800  1
  Mo  Mo1  1  0.33333300  0.66666700  0.46965700  1
  Mo  Mo2  1  0.66666700  0.33333300  0.65757400  1
  W  W0  1  0.66666700  0.33333300  0.28174200  1
  Se  Se0  1  0.33333300  0.66666700  0.32574000  1
  Se  Se1  1  0.33333300  0.66666700  0.70136300  1
  Se  Se2  1  0.33333300  0.66666700  0.23775400  1
  Se  Se3  1  0.33333300  0.66666700  0.61377500  1
  S  S0  1  0.66666700  0.33333300  0.05412300  1
  S  S1  1  0.66666700  0.33333300  0.13374600  1
loop_
_geom_bond_atom_site_label_1
_geom_bond_atom_site_label_2
_geom_bond_distance
_geom_bond_site_symmetry_2
Mo0 S1 2.454880 1_455
Mo0 S1 2.454880 1_565
Mo0 S1 2.454884 1_555
Mo0 S0 2.455045 1_455
Mo0 S0 2.455045 1_565
Mo0 S0 2.455049 1_555
Mo1 Te0 2.705080 1_455
Mo1 Te0 2.705080 1_565
Mo1 Te0 2.705084 1_555
Mo1 Te1 2.705668 1_455
Mo1 Te1 2.705668 1_565
Mo1 Te1 2.705672 1_555
Mo2 Se1 2.551355 1_545
Mo2 Se1 2.551355 1_655
Mo2 Se1 2.551360 1_555
Mo2 Se3 2.551604 1_545
Mo2 Se3 2.551604 1_655
Mo2 Se3 2.551609 1_555
Se0 W0 2.556568 1_455
Se0 W0 2.556568 1_565
Se0 W0 2.556572 1_555
Se2 W0 2.556319 1_565
Se2 W0 2.556319 1_455
Se2 W0 2.556323 1_555
