# generated using pymatgen
data_Sr3C3N5
_symmetry_space_group_name_H-M   'P 1'
_cell_length_a   7.75455480
_cell_length_b   5.98771708
_cell_length_c   10.70303679
_cell_angle_alpha   95.40811003
_cell_angle_beta   137.03405572
_cell_angle_gamma   93.54073173
_symmetry_Int_Tables_number   1
_chemical_formula_structural   Sr3C3N5
_chemical_formula_sum   'Sr6 C6 N10'
_cell_volume   330.88761379
_cell_formula_units_Z   2
loop_
 _symmetry_equiv_pos_site_id
 _symmetry_equiv_pos_as_xyz
  1  'x, y, z'
loop_
 _atom_site_type_symbol
 _atom_site_label
 _atom_site_symmetry_multiplicity
 _atom_site_fract_x
 _atom_site_fract_y
 _atom_site_fract_z
 _atom_site_occupancy
  Sr  Sr0  1  0.75578600  0.32222400  0.67138800  1
  Sr  Sr1  1  0.24421400  0.67777600  0.32861200  1
  Sr  Sr2  1  0.70495200  0.91855400  0.92427300  1
  Sr  Sr3  1  0.29504800  0.08144600  0.07572700  1
  Sr  Sr4  1  0.64849900  0.65715900  0.22660300  1
  Sr  Sr5  1  0.35150100  0.34284100  0.77339700  1
  C  C0  1  0.98640100  0.33870400  0.01824300  1
  C  C1  1  0.01359900  0.66129600  0.98175700  1
  C  C2  1  0.79594300  0.90445900  0.54086700  1
  C  C3  1  0.20405700  0.09554100  0.45913300  1
  C  C4  1  0.10946600  0.79514200  0.74451400  1
  C  C5  1  0.89053400  0.20485800  0.25548700  1
  N  N0  1  0.04218500  0.02251500  0.72193200  1
  N  N1  1  0.95781500  0.97748500  0.27806800  1
  N  N2  1  0.85510500  0.67833800  0.56511900  1
  N  N3  1  0.14489500  0.32166200  0.43488100  1
  N  N4  1  0.82861300  0.51054800  0.95389900  1
  N  N5  1  0.17138700  0.48945200  0.04610100  1
  N  N6  1  0.40508500  0.02371500  0.60039800  1
  N  N7  1  0.59491500  0.97628500  0.39960200  1
  N  N8  1  0.32213000  0.72973200  0.87595500  1
  N  N9  1  0.67787000  0.27026800  0.12404500  1
loop_
_geom_bond_atom_site_label_1
_geom_bond_atom_site_label_2
_geom_bond_distance
_geom_bond_site_symmetry_2
C0 N4 1.444302 1_554
C0 N5 1.457659 1_655
C0 Sr3 2.637935 1_655
C0 Sr0 2.680050 1_554
C0 Sr1 2.767973 1_655
C0 Sr2 2.781399 1_544
C1 N5 1.444302 1_556
C1 N4 1.457659 1_455
C1 Sr2 2.637935 1_455
C1 Sr1 2.680050 1_556
C1 Sr0 2.767973 1_455
C1 Sr3 2.781399 1_566
C2 N7 1.287254 1_555
C2 N0 1.435550 1_665
C2 N2 1.442122 1_555
C3 N6 1.287254 1_555
C3 N1 1.435550 1_445
C3 N3 1.442122 1_555
C4 N8 1.280774 1_555
C4 N2 1.449194 1_455
C4 N0 1.466072 1_565
C5 N9 1.280776 1_555
C5 N3 1.449191 1_655
C5 N1 1.466072 1_545
N0 Sr5 2.652264 1_555
N0 Sr3 2.665389 1_556
N0 Sr0 2.713386 1_455
N1 Sr4 2.652264 1_555
N1 Sr2 2.665389 1_554
N1 Sr1 2.713386 1_655
N2 Sr4 2.665151 1_555
N2 Sr0 2.823110 1_555
N3 Sr5 2.665151 1_555
N3 Sr1 2.823110 1_555
N4 Sr2 2.641751 1_555
N4 Sr5 2.672785 1_555
N4 Sr1 2.720626 1_656
N4 Sr0 2.740966 1_555
N5 Sr3 2.641751 1_555
N5 Sr4 2.672785 1_555
N5 Sr0 2.720626 1_454
N5 Sr1 2.740966 1_555
N6 Sr2 2.572025 1_545
N6 Sr0 2.699522 1_555
N6 Sr1 2.746434 1_545
N6 Sr5 2.794561 1_555
N7 Sr3 2.572025 1_565
N7 Sr1 2.699522 1_555
N7 Sr0 2.746434 1_565
N7 Sr4 2.794561 1_555
N8 Sr5 2.564199 1_555
N8 Sr4 2.687264 1_556
N8 Sr2 2.754415 1_555
N8 Sr3 2.985624 1_566
N9 Sr4 2.564199 1_555
N9 Sr5 2.687264 1_554
N9 Sr3 2.754415 1_555
N9 Sr2 2.985624 1_544
