# generated using pymatgen
data_Na2FeAgF6
_symmetry_space_group_name_H-M   'P 1'
_cell_length_a   6.08925400
_cell_length_b   6.08925430
_cell_length_c   6.08925388
_cell_angle_alpha   60.00000194
_cell_angle_beta   59.99999934
_cell_angle_gamma   60.00000163
_symmetry_Int_Tables_number   1
_chemical_formula_structural   Na2FeAgF6
_chemical_formula_sum   'Na2 Fe1 Ag1 F6'
_cell_volume   159.65307756
_cell_formula_units_Z   1
loop_
 _symmetry_equiv_pos_site_id
 _symmetry_equiv_pos_as_xyz
  1  'x, y, z'
loop_
 _atom_site_type_symbol
 _atom_site_label
 _atom_site_symmetry_multiplicity
 _atom_site_fract_x
 _atom_site_fract_y
 _atom_site_fract_z
 _atom_site_occupancy
  Na  Na0  1  0.25000000  0.25000000  0.25000000  1
  Na  Na1  1  0.75000000  0.75000000  0.75000000  1
  Fe  Fe0  1  0.00000000  0.00000000  0.00000000  1
  Ag  Ag0  1  0.50000000  0.50000000  0.50000000  1
  F  F0  1  0.22693900  0.77306100  0.22693900  1
  F  F1  1  0.77306100  0.77306100  0.22693900  1
  F  F2  1  0.77306100  0.22693900  0.77306100  1
  F  F3  1  0.77306100  0.22693900  0.22693900  1
  F  F4  1  0.22693900  0.77306100  0.77306100  1
  F  F5  1  0.22693900  0.22693900  0.77306100  1
loop_
_geom_bond_atom_site_label_1
_geom_bond_atom_site_label_2
_geom_bond_distance
_geom_bond_site_symmetry_2
Ag0 F4 2.351466 1_555
Ag0 F3 2.351466 1_555
Ag0 F0 2.351466 1_555
Ag0 F1 2.351466 1_555
Ag0 F5 2.351466 1_555
Ag0 F2 2.351466 1_555
F0 Fe0 1.954287 1_565
F1 Fe0 1.954287 1_665
F2 Fe0 1.954287 1_656
F3 Fe0 1.954286 1_655
F4 Fe0 1.954286 1_566
F5 Fe0 1.954287 1_556
