# generated using pymatgen
data_K3Al
_symmetry_space_group_name_H-M   'P 1'
_cell_length_a   6.91314645
_cell_length_b   6.91314645
_cell_length_c   6.91314645
_cell_angle_alpha   130.40258697
_cell_angle_beta   130.40258697
_cell_angle_gamma   72.76397848
_symmetry_Int_Tables_number   1
_chemical_formula_structural   K3Al
_chemical_formula_sum   'K3 Al1'
_cell_volume   187.17538392
_cell_formula_units_Z   1
loop_
 _symmetry_equiv_pos_site_id
 _symmetry_equiv_pos_as_xyz
  1  'x, y, z'
loop_
 _atom_site_type_symbol
 _atom_site_label
 _atom_site_symmetry_multiplicity
 _atom_site_fract_x
 _atom_site_fract_y
 _atom_site_fract_z
 _atom_site_occupancy
  K  K0  1  0.75000000  0.25000000  0.50000000  1
  K  K1  1  0.25000000  0.75000000  0.50000000  1
  K  K2  1  0.50000000  0.50000000  0.00000000  1
  Al  Al0  1  0.00000000  0.00000000  0.00000000  1
loop_
_geom_bond_atom_site_label_1
_geom_bond_atom_site_label_2
_geom_bond_distance
_geom_bond_site_symmetry_2
K0 K2 4.018920 1_556
K0 K2 4.018920 1_555
K0 K2 4.018920 1_545
K0 K2 4.018920 1_656
K0 K1 4.100642 1_656
K0 K1 4.100642 1_645
K0 K1 4.100642 1_555
K0 K1 4.100642 1_544
K1 K2 4.018920 1_556
K1 K2 4.018920 1_555
K1 K2 4.018920 1_566
K1 K2 4.018920 1_455
Al0 K1 4.018920 1_545
Al0 K0 4.018920 1_444
Al0 K0 4.018920 1_555
Al0 K0 4.018920 1_455
Al0 K0 4.018920 1_454
Al0 K1 4.018920 1_555
Al0 K1 4.018920 1_444
Al0 K1 4.018920 1_544
