# generated using pymatgen
data_K2FeO4
_symmetry_space_group_name_H-M   'P 1'
_cell_length_a   5.99232047
_cell_length_b   8.62812700
_cell_length_c   11.77559718
_cell_angle_alpha   90.00000000
_cell_angle_beta   121.06385612
_cell_angle_gamma   90.00000000
_symmetry_Int_Tables_number   1
_chemical_formula_structural   K2FeO4
_chemical_formula_sum   'K8 Fe4 O16'
_cell_volume   521.51751683
_cell_formula_units_Z   4
loop_
 _symmetry_equiv_pos_site_id
 _symmetry_equiv_pos_as_xyz
  1  'x, y, z'
loop_
 _atom_site_type_symbol
 _atom_site_label
 _atom_site_symmetry_multiplicity
 _atom_site_fract_x
 _atom_site_fract_y
 _atom_site_fract_z
 _atom_site_occupancy
  K  K0  1  0.21572000  0.71502200  0.90670600  1
  K  K1  1  0.43130600  0.49112500  0.70973500  1
  K  K2  1  0.21572000  0.78497800  0.40670600  1
  K  K3  1  0.56869400  0.99112500  0.79026500  1
  K  K4  1  0.43130600  0.00887500  0.20973500  1
  K  K5  1  0.78428000  0.21502200  0.59329400  1
  K  K6  1  0.56869400  0.50887500  0.29026500  1
  K  K7  1  0.78428000  0.28497800  0.09329400  1
  Fe  Fe0  1  0.12432100  0.27181300  0.93515700  1
  Fe  Fe1  1  0.12432100  0.22818700  0.43515700  1
  Fe  Fe2  1  0.87567900  0.77181300  0.56484300  1
  Fe  Fe3  1  0.87567900  0.72818700  0.06484300  1
  O  O0  1  0.21518800  0.09743700  0.91440900  1
  O  O1  1  0.23588400  0.40591700  0.87600100  1
  O  O2  1  0.24857100  0.20236700  0.59707700  1
  O  O3  1  0.20002500  0.77757300  0.64262200  1
  O  O4  1  0.21518800  0.40256300  0.41440900  1
  O  O5  1  0.23588400  0.09408300  0.37600100  1
  O  O6  1  0.79997500  0.27757300  0.85737800  1
  O  O7  1  0.75142900  0.70236700  0.90292300  1
  O  O8  1  0.24857100  0.29763300  0.09707700  1
  O  O9  1  0.20002500  0.72242700  0.14262200  1
  O  O10  1  0.76411600  0.90591700  0.62399900  1
  O  O11  1  0.78481200  0.59743700  0.58559100  1
  O  O12  1  0.79997500  0.22242700  0.35737800  1
  O  O13  1  0.75142900  0.79763300  0.40292300  1
  O  O14  1  0.76411600  0.59408300  0.12399900  1
  O  O15  1  0.78481200  0.90256300  0.08559100  1
loop_
_geom_bond_atom_site_label_1
_geom_bond_atom_site_label_2
_geom_bond_distance
_geom_bond_site_symmetry_2
K0 O1 2.702460 1_555
K0 O7 2.761618 1_455
K0 O9 2.828450 1_556
K1 O6 2.708222 1_555
K1 O3 2.742875 1_555
K1 O2 2.768954 1_555
K1 O7 2.770100 1_555
K1 O1 2.848015 1_555
K1 O4 3.115646 1_555
K1 O11 3.265195 1_555
K2 O5 2.702460 1_565
K2 O13 2.761618 1_455
K2 O3 2.828450 1_555
K3 O3 2.708222 1_555
K3 O6 2.742875 1_565
K3 O7 2.768954 1_555
K3 O2 2.770100 1_565
K3 O10 2.848015 1_555
K3 O15 3.115646 1_556
K3 O0 3.265195 1_565
K4 O12 2.708222 1_555
K4 O9 2.742875 1_545
K4 O8 2.768954 1_555
K4 O13 2.770100 1_545
K4 O5 2.848015 1_555
K4 O0 3.115646 1_554
K4 O15 3.265195 1_545
K5 O10 2.702460 1_545
K5 O2 2.761618 1_655
K5 O12 2.828450 1_555
K6 O9 2.708222 1_555
K6 O12 2.742875 1_555
K6 O13 2.768954 1_555
K6 O8 2.770100 1_555
K6 O14 2.848015 1_555
K6 O11 3.115646 1_555
K6 O4 3.265195 1_555
K7 O14 2.702460 1_555
K7 O8 2.761618 1_655
K7 O6 2.828450 1_554
Fe0 O1 1.658782 1_555
Fe0 O0 1.660452 1_555
Fe0 O8 1.665672 1_556
Fe0 O6 1.667872 1_455
Fe1 O5 1.658782 1_555
Fe1 O4 1.660452 1_555
Fe1 O2 1.665672 1_555
Fe1 O12 1.667872 1_455
Fe2 O10 1.658782 1_555
Fe2 O11 1.660452 1_555
Fe2 O13 1.665672 1_555
Fe2 O3 1.667872 1_655
Fe3 O14 1.658782 1_555
Fe3 O15 1.660452 1_555
Fe3 O7 1.665672 1_554
Fe3 O9 1.667872 1_655
