# generated using pymatgen
data_Ca6Te3N2
_symmetry_space_group_name_H-M   'P 1'
_cell_length_a   8.22544708
_cell_length_b   8.22544708
_cell_length_c   8.22544599
_cell_angle_alpha   94.31363348
_cell_angle_beta   94.31363348
_cell_angle_gamma   94.31362108
_symmetry_Int_Tables_number   1
_chemical_formula_structural   Ca6Te3N2
_chemical_formula_sum   'Ca12 Te6 N4'
_cell_volume   551.53525560
_cell_formula_units_Z   2
loop_
 _symmetry_equiv_pos_site_id
 _symmetry_equiv_pos_as_xyz
  1  'x, y, z'
loop_
 _atom_site_type_symbol
 _atom_site_label
 _atom_site_symmetry_multiplicity
 _atom_site_fract_x
 _atom_site_fract_y
 _atom_site_fract_z
 _atom_site_occupancy
  Ca  Ca0  1  0.40375024  0.22182754  0.51819680  1
  Ca  Ca1  1  0.51819680  0.40375024  0.22182754  1
  Ca  Ca2  1  0.22182754  0.51819680  0.40375024  1
  Ca  Ca3  1  0.72182754  0.90375024  0.01819680  1
  Ca  Ca4  1  0.01819680  0.72182754  0.90375024  1
  Ca  Ca5  1  0.90375024  0.01819680  0.72182754  1
  Ca  Ca6  1  0.59624976  0.77817246  0.48180320  1
  Ca  Ca7  1  0.48180320  0.59624976  0.77817246  1
  Ca  Ca8  1  0.77817246  0.48180320  0.59624976  1
  Ca  Ca9  1  0.27817246  0.09624976  0.98180320  1
  Ca  Ca10  1  0.98180320  0.27817246  0.09624976  1
  Ca  Ca11  1  0.09624976  0.98180320  0.27817246  1
  Te  Te0  1  0.75000000  0.12458868  0.37541132  1
  Te  Te1  1  0.37541132  0.75000000  0.12458868  1
  Te  Te2  1  0.12458868  0.37541132  0.75000000  1
  Te  Te3  1  0.62458868  0.25000000  0.87541132  1
  Te  Te4  1  0.87541132  0.62458868  0.25000000  1
  Te  Te5  1  0.25000000  0.87541132  0.62458868  1
  N  N0  1  0.50000000  0.50000000  0.50000000  1
  N  N1  1  -0.00000000  -0.00000000  -0.00000000  1
  N  N2  1  0.25000000  0.25000000  0.25000000  1
  N  N3  1  0.75000000  0.75000000  0.75000000  1
loop_
_geom_bond_atom_site_label_1
_geom_bond_atom_site_label_2
_geom_bond_distance
_geom_bond_site_symmetry_2
Ca0 N0 2.383568 1_555
Ca0 N2 2.494189 1_555
Ca0 Te5 3.237896 1_545
Ca0 Te0 3.291674 1_555
Ca0 Te3 3.319338 1_555
Ca0 Te2 3.352115 1_555
Ca1 N0 2.383568 1_555
Ca1 N2 2.494189 1_555
Ca1 Te3 3.237895 1_554
Ca1 Te1 3.291674 1_555
Ca1 Te4 3.319339 1_555
Ca1 Te0 3.352115 1_555
Ca2 N0 2.383568 1_555
Ca2 N2 2.494189 1_555
Ca2 Te4 3.237895 1_455
Ca2 Te2 3.291674 1_555
Ca2 Te5 3.319339 1_555
Ca2 Te1 3.352115 1_555
Ca3 N1 2.383568 1_665
Ca3 N3 2.494189 1_554
Ca3 Te1 3.237896 1_555
Ca3 Te3 3.291674 1_564
Ca3 Te0 3.319338 1_565
Ca3 Te4 3.352115 1_555
Ca4 N1 2.383568 1_566
Ca4 N3 2.494189 1_455
Ca4 Te2 3.237895 1_555
Ca4 Te4 3.291674 1_456
Ca4 Te1 3.319339 1_556
Ca4 Te5 3.352115 1_555
Ca5 N1 2.383568 1_656
Ca5 N3 2.494189 1_545
Ca5 Te0 3.237895 1_555
Ca5 Te5 3.291674 1_645
Ca5 Te2 3.319339 1_655
Ca5 Te3 3.352115 1_555
Ca6 N0 2.383568 1_555
Ca6 N3 2.494189 1_555
Ca6 Te0 3.237896 1_565
Ca6 Te5 3.291674 1_555
Ca6 Te1 3.319338 1_555
Ca6 Te4 3.352115 1_555
Ca7 N0 2.383568 1_555
Ca7 N3 2.494189 1_555
Ca7 Te1 3.237895 1_556
Ca7 Te3 3.291674 1_555
Ca7 Te2 3.319339 1_555
Ca7 Te5 3.352115 1_555
Ca8 N0 2.383568 1_555
Ca8 N3 2.494189 1_555
Ca8 Te2 3.237895 1_655
Ca8 Te4 3.291674 1_555
Ca8 Te0 3.319339 1_555
Ca8 Te3 3.352115 1_555
Ca9 N1 2.383568 1_556
Ca9 N2 2.494189 1_556
Ca9 Te3 3.237896 1_555
Ca9 Te1 3.291674 1_546
Ca9 Te5 3.319338 1_545
Ca9 Te2 3.352115 1_555
Ca10 N1 2.383568 1_655
Ca10 N2 2.494189 1_655
Ca10 Te4 3.237895 1_555
Ca10 Te2 3.291674 1_654
Ca10 Te3 3.319339 1_554
Ca10 Te0 3.352115 1_555
Ca11 N1 2.383568 1_565
Ca11 N2 2.494189 1_565
Ca11 Te5 3.237895 1_555
Ca11 Te0 3.291674 1_465
Ca11 Te4 3.319339 1_455
Ca11 Te1 3.352115 1_555
