# generated using pymatgen
data_Rb(Zr3Te4)4
_symmetry_space_group_name_H-M   'P 1'
_cell_length_a   11.18852262
_cell_length_b   11.18852262
_cell_length_c   15.86440100
_cell_angle_alpha   90.00000000
_cell_angle_beta   90.00000000
_cell_angle_gamma   120.00000367
_symmetry_Int_Tables_number   1
_chemical_formula_structural   Rb(Zr3Te4)4
_chemical_formula_sum   'Rb2 Zr24 Te32'
_cell_volume   1719.88648204
_cell_formula_units_Z   2
loop_
 _symmetry_equiv_pos_site_id
 _symmetry_equiv_pos_as_xyz
  1  'x, y, z'
loop_
 _atom_site_type_symbol
 _atom_site_label
 _atom_site_symmetry_multiplicity
 _atom_site_fract_x
 _atom_site_fract_y
 _atom_site_fract_z
 _atom_site_occupancy
  Rb  Rb0  1  0.33333300  0.66666700  0.36129300  1
  Rb  Rb1  1  0.33333300  0.66666700  0.63870700  1
  Zr  Zr0  1  0.45686200  0.29568400  0.75200000  1
  Zr  Zr1  1  0.45665900  0.29877800  0.00000000  1
  Zr  Zr2  1  0.45686200  0.29568400  0.24800000  1
  Zr  Zr3  1  0.45654100  0.29050200  0.50000000  1
  Zr  Zr4  1  0.83882200  0.54313800  0.75200000  1
  Zr  Zr5  1  0.83396100  0.54345900  0.50000000  1
  Zr  Zr6  1  0.84211900  0.54334100  0.00000000  1
  Zr  Zr7  1  0.83882200  0.54313800  0.24800000  1
  Zr  Zr8  1  0.70431600  0.16117800  0.75200000  1
  Zr  Zr9  1  0.70949800  0.16603900  0.50000000  1
  Zr  Zr10  1  0.70122200  0.15788100  0.00000000  1
  Zr  Zr11  1  0.70431600  0.16117800  0.24800000  1
  Zr  Zr12  1  0.96894900  0.17780600  0.87564800  1
  Zr  Zr13  1  0.96894900  0.17780600  0.12435200  1
  Zr  Zr14  1  0.97159400  0.18149200  0.37576600  1
  Zr  Zr15  1  0.97159400  0.18149200  0.62423400  1
  Zr  Zr16  1  0.82219400  0.79114300  0.87564800  1
  Zr  Zr17  1  0.82219400  0.79114300  0.12435200  1
  Zr  Zr18  1  0.81850800  0.79010200  0.37576600  1
  Zr  Zr19  1  0.81850800  0.79010200  0.62423400  1
  Zr  Zr20  1  0.20885700  0.03105100  0.87564800  1
  Zr  Zr21  1  0.20885700  0.03105100  0.12435200  1
  Zr  Zr22  1  0.20989800  0.02840600  0.37576600  1
  Zr  Zr23  1  0.20989800  0.02840600  0.62423400  1
  Te  Te0  1  0.61839300  0.61116600  0.75193300  1
  Te  Te1  1  0.62147900  0.61193900  0.00000000  1
  Te  Te2  1  0.61839300  0.61116600  0.24806700  1
  Te  Te3  1  0.61243400  0.61053400  0.50000000  1
  Te  Te4  1  0.38883400  0.00722700  0.75193300  1
  Te  Te5  1  0.38806100  0.00954000  0.00000000  1
  Te  Te6  1  0.38883400  0.00722700  0.24806700  1
  Te  Te7  1  0.38946600  0.00190000  0.50000000  1
  Te  Te8  1  0.66666700  0.33333300  0.87641500  1
  Te  Te9  1  0.66666700  0.33333300  0.37478300  1
  Te  Te10  1  0.66666700  0.33333300  0.12358500  1
  Te  Te11  1  0.66666700  0.33333300  0.62521700  1
  Te  Te12  1  0.67930300  0.95818800  0.87553400  1
  Te  Te13  1  0.67930300  0.95818800  0.12446600  1
  Te  Te14  1  0.68373000  0.96450300  0.37582200  1
  Te  Te15  1  0.68373000  0.96450300  0.62417800  1
  Te  Te16  1  0.99277300  0.38160700  0.75193300  1
  Te  Te17  1  0.99277300  0.38160700  0.24806700  1
  Te  Te18  1  0.99046000  0.37852100  0.00000000  1
  Te  Te19  1  0.99810000  0.38756600  0.50000000  1
  Te  Te20  1  0.00000000  0.00000000  0.00000000  1
  Te  Te21  1  0.00000000  0.00000000  0.74981700  1
  Te  Te22  1  0.00000000  0.00000000  0.50000000  1
  Te  Te23  1  0.00000000  0.00000000  0.25018300  1
  Te  Te24  1  0.27888400  0.32069700  0.87553400  1
  Te  Te25  1  0.27888400  0.32069700  0.12446600  1
  Te  Te26  1  0.28077200  0.31627000  0.37582200  1
  Te  Te27  1  0.28077200  0.31627000  0.62417800  1
  Te  Te28  1  0.04181200  0.72111600  0.87553400  1
  Te  Te29  1  0.04181200  0.72111600  0.12446600  1
  Te  Te30  1  0.03549700  0.71922800  0.37582200  1
  Te  Te31  1  0.03549700  0.71922800  0.62417800  1
loop_
_geom_bond_atom_site_label_1
_geom_bond_atom_site_label_2
_geom_bond_distance
_geom_bond_site_symmetry_2
Rb0 Te14 3.669219 1_555
Rb0 Te26 3.669220 1_555
Rb0 Te30 3.669220 1_555
Rb0 Te6 3.970504 1_565
Rb0 Te17 3.970507 1_455
Rb0 Te2 3.970514 1_555
Rb0 Te7 4.116943 1_565
Rb0 Te19 4.116947 1_455
Rb0 Te3 4.116953 1_555
Rb1 Te15 3.669219 1_555
Rb1 Te27 3.669220 1_555
Rb1 Te31 3.669220 1_555
Rb1 Te4 3.970504 1_565
Rb1 Te16 3.970507 1_455
Rb1 Te0 3.970514 1_555
Rb1 Te7 4.116943 1_565
Rb1 Te19 4.116947 1_455
Rb1 Te3 4.116953 1_555
Te0 Zr16 2.918005 1_555
Te0 Zr4 2.922157 1_555
Te0 Zr19 2.939867 1_555
Te0 Zr0 3.057171 1_555
Te1 Zr17 2.907309 1_555
Te1 Zr16 2.907309 1_554
Te1 Zr6 2.928812 1_555
Te1 Zr1 3.035787 1_555
Te2 Zr17 2.918005 1_555
Te2 Zr7 2.922157 1_555
Te2 Zr18 2.939867 1_555
Te2 Zr2 3.057171 1_555
Te3 Zr5 2.926867 1_555
Te3 Zr19 2.933377 1_555
Te3 Zr18 2.933377 1_555
Te3 Zr3 3.101307 1_555
Te4 Zr20 2.918005 1_555
Te4 Zr0 2.922156 1_555
Te4 Zr23 2.939867 1_555
Te4 Zr8 3.057171 1_555
Te5 Zr21 2.907309 1_555
Te5 Zr20 2.907309 1_554
Te5 Zr1 2.928812 1_555
Te5 Zr10 3.035787 1_555
Te6 Zr21 2.918005 1_555
Te6 Zr2 2.922156 1_555
Te6 Zr22 2.939867 1_555
Te6 Zr11 3.057171 1_555
Te7 Zr3 2.926867 1_555
Te7 Zr23 2.933377 1_555
Te7 Zr22 2.933377 1_555
Te7 Zr9 3.101307 1_555
Te8 Zr8 2.931666 1_555
Te8 Zr4 2.931672 1_555
Te8 Zr0 2.931675 1_555
Te8 Zr10 2.933590 1_556
Te8 Zr6 2.933595 1_556
Te8 Zr1 2.933598 1_556
Te9 Zr9 2.928535 1_555
Te9 Zr5 2.928540 1_555
Te9 Zr3 2.928543 1_555
Te9 Zr11 2.957089 1_555
Te9 Zr7 2.957094 1_555
Te9 Zr2 2.957097 1_555
Te10 Zr11 2.931666 1_555
Te10 Zr7 2.931672 1_555
Te10 Zr2 2.931675 1_555
Te10 Zr10 2.933590 1_555
Te10 Zr6 2.933595 1_555
Te10 Zr1 2.933598 1_555
Te11 Zr9 2.928535 1_555
Te11 Zr5 2.928540 1_555
Te11 Zr3 2.928543 1_555
Te11 Zr8 2.957089 1_555
Te11 Zr4 2.957094 1_555
Te11 Zr0 2.957097 1_555
Te12 Zr10 2.898815 1_566
Te12 Zr8 2.905454 1_565
Te12 Zr12 2.928646 1_565
Te12 Zr16 3.006178 1_555
Te13 Zr10 2.898815 1_565
Te13 Zr11 2.905454 1_565
Te13 Zr13 2.928646 1_565
Te13 Zr17 3.006178 1_555
Te14 Zr9 2.898015 1_565
Te14 Zr14 2.906575 1_565
Te14 Zr11 2.915558 1_565
Te14 Zr18 3.003993 1_555
Te15 Zr9 2.898015 1_565
Te15 Zr15 2.906575 1_565
Te15 Zr8 2.915558 1_565
Te15 Zr19 3.003993 1_555
Te16 Zr12 2.918005 1_555
Te16 Zr8 2.922156 1_555
Te16 Zr15 2.939867 1_555
Te16 Zr4 3.057171 1_555
Te17 Zr13 2.918005 1_555
Te17 Zr11 2.922156 1_555
Te17 Zr14 2.939867 1_555
Te17 Zr7 3.057171 1_555
Te18 Zr13 2.907309 1_555
Te18 Zr12 2.907309 1_554
Te18 Zr10 2.928811 1_555
Te18 Zr6 3.035788 1_555
Te19 Zr9 2.926867 1_555
Te19 Zr15 2.933377 1_555
Te19 Zr14 2.933377 1_555
Te19 Zr5 3.101308 1_555
Te20 Zr17 2.943012 1_445
Te20 Zr16 2.943012 1_444
Te20 Zr21 2.943012 1_555
Te20 Zr20 2.943012 1_554
Te20 Zr13 2.943012 1_455
Te20 Zr12 2.943012 1_454
Te21 Zr16 2.958791 1_445
Te21 Zr20 2.958791 1_555
Te21 Zr12 2.958791 1_455
Te21 Zr19 2.973061 1_445
Te21 Zr23 2.973061 1_555
Te21 Zr15 2.973061 1_455
Te22 Zr19 2.958762 1_445
Te22 Zr18 2.958762 1_445
Te22 Zr23 2.958762 1_555
Te22 Zr22 2.958762 1_555
Te22 Zr15 2.958762 1_455
Te22 Zr14 2.958762 1_455
Te23 Zr17 2.958791 1_445
Te23 Zr21 2.958791 1_555
Te23 Zr13 2.958791 1_455
Te23 Zr18 2.973061 1_445
Te23 Zr22 2.973061 1_555
Te23 Zr14 2.973061 1_455
Te24 Zr1 2.898823 1_556
Te24 Zr0 2.905463 1_555
Te24 Zr20 2.928649 1_555
Te24 Zr12 3.006168 1_455
Te25 Zr1 2.898823 1_555
Te25 Zr2 2.905463 1_555
Te25 Zr21 2.928649 1_555
Te25 Zr13 3.006168 1_455
Te26 Zr3 2.898023 1_555
Te26 Zr22 2.906578 1_555
Te26 Zr2 2.915566 1_555
Te26 Zr14 3.003983 1_455
Te27 Zr3 2.898023 1_555
Te27 Zr23 2.906578 1_555
Te27 Zr0 2.915566 1_555
Te27 Zr15 3.003983 1_455
Te28 Zr6 2.898818 1_456
Te28 Zr4 2.905458 1_455
Te28 Zr16 2.928639 1_455
Te28 Zr20 3.006168 1_565
Te29 Zr6 2.898818 1_455
Te29 Zr7 2.905458 1_455
Te29 Zr17 2.928639 1_455
Te29 Zr21 3.006168 1_565
Te30 Zr5 2.898018 1_455
Te30 Zr18 2.906567 1_455
Te30 Zr7 2.915561 1_455
Te30 Zr22 3.003984 1_565
Te31 Zr5 2.898018 1_455
Te31 Zr19 2.906567 1_455
Te31 Zr4 2.915561 1_455
Te31 Zr23 3.003984 1_565
