# generated using pymatgen
data_TeW2Se2S
_symmetry_space_group_name_H-M   'P 1'
_cell_length_a   3.34193422
_cell_length_b   3.34193422
_cell_length_c   38.14508700
_cell_angle_alpha   90.00000000
_cell_angle_beta   90.00000000
_cell_angle_gamma   120.00000443
_symmetry_Int_Tables_number   1
_chemical_formula_structural   TeW2Se2S
_chemical_formula_sum   'Te2 W4 Se4 S2'
_cell_volume   368.94787871
_cell_formula_units_Z   2
loop_
 _symmetry_equiv_pos_site_id
 _symmetry_equiv_pos_as_xyz
  1  'x, y, z'
loop_
 _atom_site_type_symbol
 _atom_site_label
 _atom_site_symmetry_multiplicity
 _atom_site_fract_x
 _atom_site_fract_y
 _atom_site_fract_z
 _atom_site_occupancy
  Te  Te0  1  0.33333300  0.66666700  0.33177300  1
  Te  Te1  1  0.33333300  0.66666700  0.23176700  1
  W  W0  1  0.33333300  0.66666700  0.09391000  1
  W  W1  1  0.33333300  0.66666700  0.46969700  1
  W  W2  1  0.66666700  0.33333300  0.28176900  1
  W  W3  1  0.66666700  0.33333300  0.65753400  1
  Se  Se0  1  0.33333300  0.66666700  0.70142600  1
  Se  Se1  1  0.66666700  0.33333300  0.42580700  1
  Se  Se2  1  0.66666700  0.33333300  0.51358500  1
  Se  Se3  1  0.33333300  0.66666700  0.61364900  1
  S  S0  1  0.66666700  0.33333300  0.05398700  1
  S  S1  1  0.66666700  0.33333300  0.13384500  1
loop_
_geom_bond_atom_site_label_1
_geom_bond_atom_site_label_2
_geom_bond_distance
_geom_bond_site_symmetry_2
Te0 W2 2.713123 1_455
Te0 W2 2.713123 1_565
Te0 W2 2.713127 1_555
Te1 W2 2.713069 1_455
Te1 W2 2.713069 1_565
Te1 W2 2.713073 1_555
Se0 W3 2.554603 1_455
Se0 W3 2.554603 1_565
Se0 W3 2.554607 1_555
Se1 W1 2.554553 1_545
Se1 W1 2.554553 1_655
Se1 W1 2.554557 1_555
Se2 W1 2.554503 1_545
Se2 W1 2.554503 1_655
Se2 W1 2.554507 1_555
Se3 W3 2.554428 1_455
Se3 W3 2.554428 1_565
Se3 W3 2.554432 1_555
S0 W0 2.458039 1_545
S0 W0 2.458039 1_655
S0 W0 2.458044 1_555
S1 W0 2.458323 1_545
S1 W0 2.458323 1_655
S1 W0 2.458327 1_555
