# generated using pymatgen
data_Tb6IrI10
_symmetry_space_group_name_H-M   'P 1'
_cell_length_a   7.72216954
_cell_length_b   9.75019396
_cell_length_c   9.63837245
_cell_angle_alpha   107.47731688
_cell_angle_beta   104.85306454
_cell_angle_gamma   97.14202564
_symmetry_Int_Tables_number   1
_chemical_formula_structural   Tb6IrI10
_chemical_formula_sum   'Tb6 Ir1 I10'
_cell_volume   652.92354808
_cell_formula_units_Z   1
loop_
 _symmetry_equiv_pos_site_id
 _symmetry_equiv_pos_as_xyz
  1  'x, y, z'
loop_
 _atom_site_type_symbol
 _atom_site_label
 _atom_site_symmetry_multiplicity
 _atom_site_fract_x
 _atom_site_fract_y
 _atom_site_fract_z
 _atom_site_occupancy
  Tb  Tb0  1  0.64655730  0.83138267  0.87254161  1
  Tb  Tb1  1  0.35344270  0.16861733  0.12745839  1
  Tb  Tb2  1  0.02991118  0.91715104  0.72056659  1
  Tb  Tb3  1  0.97008882  0.08284896  0.27943341  1
  Tb  Tb4  1  0.11543112  0.75631478  0.04169169  1
  Tb  Tb5  1  0.88456888  0.24368522  0.95830831  1
  Ir  Ir0  1  -0.00000000  -0.00000000  -0.00000000  1
  I  I0  1  0.64507888  0.72580224  0.54400118  1
  I  I1  1  0.35492112  0.27419776  0.45599882  1
  I  I2  1  0.21245605  0.64944071  0.73718509  1
  I  I3  1  0.78754395  0.35055929  0.26281491  1
  I  I4  1  0.45169551  0.09081081  0.81331064  1
  I  I5  1  0.54830449  0.90918919  0.18668936  1
  I  I6  1  0.26448802  0.46470648  0.08992616  1
  I  I7  1  0.73551198  0.53529352  0.91007384  1
  I  I8  1  0.08512127  0.81894886  0.37139904  1
  I  I9  1  0.91487873  0.18105114  0.62860096  1
loop_
_geom_bond_atom_site_label_1
_geom_bond_atom_site_label_2
_geom_bond_distance
_geom_bond_site_symmetry_2
Ir0 Tb3 2.649187 1_455
Ir0 Tb2 2.649187 1_544
Ir0 Tb5 2.741858 1_454
Ir0 Tb4 2.741858 1_545
Ir0 Tb1 2.759254 1_555
Ir0 Tb0 2.759254 1_444
I0 Tb0 3.017898 1_555
I0 Tb2 3.054442 1_655
I1 Tb1 3.017898 1_555
I1 Tb3 3.054442 1_455
I2 Tb4 3.121802 1_556
I2 Tb2 3.142665 1_555
I2 Tb0 3.312899 1_555
I3 Tb5 3.121802 1_554
I3 Tb3 3.142665 1_555
I3 Tb1 3.312899 1_555
I4 Tb1 3.203185 1_556
I4 Tb0 3.218985 1_545
I4 Tb5 3.234725 1_555
I4 Tb2 3.240605 1_545
I5 Tb0 3.203185 1_554
I5 Tb1 3.218985 1_565
I5 Tb4 3.234725 1_555
I5 Tb3 3.240605 1_565
I6 Tb5 3.120617 1_454
I6 Tb1 3.151203 1_555
I6 Tb4 3.310352 1_555
I7 Tb4 3.120617 1_656
I7 Tb0 3.151203 1_555
I7 Tb5 3.310352 1_555
I8 Tb3 3.119317 1_465
I8 Tb4 3.126915 1_555
I8 Tb2 3.365428 1_555
I9 Tb2 3.119317 1_645
I9 Tb5 3.126915 1_555
I9 Tb3 3.365428 1_555
