# generated using pymatgen
data_Mg3Si2
_symmetry_space_group_name_H-M   'P 1'
_cell_length_a   5.20902200
_cell_length_b   5.39263404
_cell_length_c   14.11572774
_cell_angle_alpha   82.89934884
_cell_angle_beta   88.50486303
_cell_angle_gamma   79.59758770
_symmetry_Int_Tables_number   1
_chemical_formula_structural   Mg3Si2
_chemical_formula_sum   'Mg12 Si8'
_cell_volume   387.00456740
_cell_formula_units_Z   4
loop_
 _symmetry_equiv_pos_site_id
 _symmetry_equiv_pos_as_xyz
  1  'x, y, z'
loop_
 _atom_site_type_symbol
 _atom_site_label
 _atom_site_symmetry_multiplicity
 _atom_site_fract_x
 _atom_site_fract_y
 _atom_site_fract_z
 _atom_site_occupancy
  Mg  Mg0  1  0.58488600  0.43942200  0.75451000  1
  Mg  Mg1  1  0.14991300  0.03495500  0.75823700  1
  Mg  Mg2  1  0.67633100  0.87474200  0.87075900  1
  Mg  Mg3  1  0.06267400  0.59982800  0.62970900  1
  Mg  Mg4  1  0.93732600  0.40017200  0.37029100  1
  Mg  Mg5  1  0.79246700  0.28831900  0.00107900  1
  Mg  Mg6  1  0.85008700  0.96504500  0.24176300  1
  Mg  Mg7  1  0.41511400  0.56057800  0.24549000  1
  Mg  Mg8  1  0.76665400  0.89008200  0.46719100  1
  Mg  Mg9  1  0.32366900  0.12525800  0.12924100  1
  Mg  Mg10  1  0.20753300  0.71168100  0.99892100  1
  Mg  Mg11  1  0.23334600  0.10991800  0.53280900  1
  Si  Si0  1  0.30500100  0.21758400  0.93182900  1
  Si  Si1  1  0.69985100  0.37466300  0.54598900  1
  Si  Si2  1  0.06130900  0.53229200  0.81981700  1
  Si  Si3  1  0.63586000  0.00232000  0.66346600  1
  Si  Si4  1  0.30014900  0.62533700  0.45401100  1
  Si  Si5  1  0.69499900  0.78241600  0.06817100  1
  Si  Si6  1  0.36414000  0.99768000  0.33653400  1
  Si  Si7  1  0.93869100  0.46770800  0.18018300  1
loop_
_geom_bond_atom_site_label_1
_geom_bond_atom_site_label_2
_geom_bond_distance
_geom_bond_site_symmetry_2
Mg0 Si3 2.789852 1_555
Mg0 Si2 2.818121 1_655
Mg0 Si2 2.833482 1_555
Mg0 Si1 3.038249 1_555
Mg0 Si0 3.085570 1_555
Mg0 Si3 3.200813 1_565
Mg1 Si3 2.819348 1_555
Mg1 Si2 2.857397 1_545
Mg1 Si2 2.875745 1_555
Mg1 Si0 2.934987 1_555
Mg1 Si3 3.066927 1_455
Mg1 Mg11 3.186093 1_555
Mg2 Si2 2.620034 1_655
Mg2 Si0 2.630257 1_565
Mg2 Si5 2.770598 1_556
Mg2 Si3 2.926072 1_565
Mg3 Si2 2.663128 1_555
Mg3 Si4 2.741724 1_555
Mg3 Si1 2.782604 1_455
Mg3 Si3 2.887708 1_465
Mg3 Mg8 2.918157 1_455
Mg4 Si7 2.663128 1_555
Mg4 Si1 2.741724 1_555
Mg4 Si4 2.782604 1_655
Mg4 Si6 2.887708 1_645
Mg4 Mg8 3.102048 1_555
Mg4 Mg8 3.180768 1_545
Mg5 Si0 2.795909 1_654
Mg5 Si0 2.849591 1_554
Mg5 Si5 2.892126 1_555
Mg5 Si5 2.904105 1_545
Mg5 Si7 2.979751 1_555
Mg5 Si2 3.144023 1_654
Mg6 Si6 2.819348 1_555
Mg6 Si7 2.857397 1_565
Mg6 Si7 2.875745 1_555
Mg6 Si5 2.934987 1_555
Mg6 Si6 3.066927 1_655
Mg6 Mg8 3.186093 1_555
Mg7 Si6 2.789852 1_555
Mg7 Si7 2.818121 1_455
Mg7 Si7 2.833482 1_555
Mg7 Si4 3.038249 1_555
Mg7 Si5 3.085570 1_555
Mg7 Si6 3.200813 1_545
Mg8 Si6 2.762653 1_555
Mg8 Si4 2.898547 1_655
Mg8 Si1 2.925225 1_565
Mg8 Si1 2.940828 1_555
Mg8 Si3 2.945115 1_565
Mg8 Si4 3.052872 1_555
Mg9 Si7 2.620034 1_455
Mg9 Si5 2.630257 1_545
Mg9 Si0 2.770598 1_554
Mg9 Si6 2.926072 1_545
Mg10 Si5 2.795909 1_456
Mg10 Si5 2.849591 1_556
Mg10 Si0 2.892126 1_555
Mg10 Si0 2.904105 1_565
Mg10 Si2 2.979751 1_555
Mg10 Si7 3.144023 1_456
Mg11 Si3 2.762653 1_555
Mg11 Si1 2.898547 1_455
Mg11 Mg4 2.918157 1_455
Mg11 Si4 2.925225 1_545
Mg11 Si4 2.940828 1_555
Mg11 Si6 2.945115 1_545
Mg11 Mg8 2.988075 1_545
Mg11 Si1 3.052872 1_555
Mg11 Mg8 3.098845 1_445
Mg11 Mg3 3.102048 1_555
Mg11 Mg3 3.180768 1_545
Si0 Si2 2.378002 1_555
Si1 Si3 2.506463 1_555
Si1 Si4 2.557101 1_555
Si4 Si6 2.506463 1_555
Si5 Si7 2.378002 1_555
