# generated using pymatgen
data_Li5Ni3(SbO5)2
_symmetry_space_group_name_H-M   'P 1'
_cell_length_a   5.23986000
_cell_length_b   5.36264358
_cell_length_c   7.92272192
_cell_angle_alpha   106.90686584
_cell_angle_beta   102.75707066
_cell_angle_gamma   101.80098846
_symmetry_Int_Tables_number   1
_chemical_formula_structural   Li5Ni3(SbO5)2
_chemical_formula_sum   'Li5 Ni3 Sb2 O10'
_cell_volume   198.94375467
_cell_formula_units_Z   1
loop_
 _symmetry_equiv_pos_site_id
 _symmetry_equiv_pos_as_xyz
  1  'x, y, z'
loop_
 _atom_site_type_symbol
 _atom_site_label
 _atom_site_symmetry_multiplicity
 _atom_site_fract_x
 _atom_site_fract_y
 _atom_site_fract_z
 _atom_site_occupancy
  Li  Li0  1  0.84280100  0.49964800  0.38450000  1
  Li  Li1  1  0.61118800  0.49223700  0.80818800  1
  Li  Li2  1  0.00000000  0.00000000  0.50000000  1
  Li  Li3  1  0.38881200  0.50776300  0.19181200  1
  Li  Li4  1  0.15719900  0.50035200  0.61550000  1
  Ni  Ni0  1  0.00000000  0.50000000  0.00000000  1
  Ni  Ni1  1  0.80730600  0.99693800  0.89779100  1
  Ni  Ni2  1  0.19269400  0.00306200  0.10220900  1
  Sb  Sb0  1  0.40473200  0.00312000  0.70234600  1
  Sb  Sb1  1  0.59526800  0.99688000  0.29765400  1
  O  O0  1  0.21741000  0.22375400  0.83536000  1
  O  O1  1  0.40919100  0.76643000  0.93863600  1
  O  O2  1  0.58031100  0.77851500  0.55290000  1
  O  O3  1  0.98204900  0.23493100  0.24573900  1
  O  O4  1  0.78479500  0.23595300  0.65623300  1
  O  O5  1  0.21520500  0.76404700  0.34376700  1
  O  O6  1  0.01795100  0.76506900  0.75426100  1
  O  O7  1  0.41968900  0.22148500  0.44710000  1
  O  O8  1  0.59080900  0.23357000  0.06136400  1
  O  O9  1  0.78259000  0.77624600  0.16464000  1
loop_
_geom_bond_atom_site_label_1
_geom_bond_atom_site_label_2
_geom_bond_distance
_geom_bond_site_symmetry_2
Li0 O3 1.904308 1_555
Li0 O5 2.309727 1_655
Li0 O8 2.438325 1_555
Li1 O4 2.049003 1_555
Li1 O1 2.141561 1_555
Li1 Ni0 2.241204 1_656
Li2 O5 2.166530 1_545
Li2 O4 2.166530 1_455
Li2 Sb0 2.352923 1_555
Li2 Sb1 2.352923 1_445
Li2 O9 2.459032 1_445
Li2 O0 2.459032 1_555
Li2 O7 2.459816 1_555
Li2 O2 2.459816 1_445
Li3 O5 2.049003 1_555
Li3 O8 2.141561 1_555
Li3 Ni0 2.241204 1_555
Li4 O6 1.904308 1_555
Li4 O4 2.309727 1_455
Li4 O1 2.438325 1_555
Ni0 O9 2.327319 1_455
Ni0 O0 2.327319 1_554
Ni0 O8 2.546817 1_455
Ni0 O1 2.546817 1_554
Ni1 O6 2.085846 1_655
Ni1 O8 2.204138 1_566
Ni1 O1 2.336766 1_555
Ni2 O3 2.085846 1_455
Ni2 O1 2.204138 1_544
Ni2 O8 2.336766 1_555
O0 Sb0 1.918468 1_555
O1 Sb0 2.547766 1_565
O1 Sb1 2.608893 1_556
O2 Sb0 1.950367 1_565
O4 Sb0 2.286489 1_555
O5 Sb1 2.286489 1_555
O7 Sb1 1.950367 1_545
O8 Sb1 2.547766 1_545
O8 Sb0 2.608893 1_554
O9 Sb1 1.918468 1_555
