# generated using pymatgen
data_Eu4Bi2O
_symmetry_space_group_name_H-M   'P 1'
_cell_length_a   9.25456425
_cell_length_b   9.25456425
_cell_length_c   9.25456425
_cell_angle_alpha   149.07801545
_cell_angle_beta   149.07801545
_cell_angle_gamma   44.29648403
_symmetry_Int_Tables_number   1
_chemical_formula_structural   Eu4Bi2O
_chemical_formula_sum   'Eu4 Bi2 O1'
_cell_volume   208.68949837
_cell_formula_units_Z   1
loop_
 _symmetry_equiv_pos_site_id
 _symmetry_equiv_pos_as_xyz
  1  'x, y, z'
loop_
 _atom_site_type_symbol
 _atom_site_label
 _atom_site_symmetry_multiplicity
 _atom_site_fract_x
 _atom_site_fract_y
 _atom_site_fract_z
 _atom_site_occupancy
  Eu  Eu0  1  -0.00000000  0.50000000  0.50000000  1
  Eu  Eu1  1  0.50000000  -0.00000000  0.50000000  1
  Eu  Eu2  1  0.83585341  0.83585341  0.00000000  1
  Eu  Eu3  1  0.16414659  0.16414659  -0.00000000  1
  Bi  Bi0  1  0.63973925  0.63973925  0.00000000  1
  Bi  Bi1  1  0.36026075  0.36026075  -0.00000000  1
  O  O0  1  -0.00000000  -0.00000000  0.00000000  1
loop_
_geom_bond_atom_site_label_1
_geom_bond_atom_site_label_2
_geom_bond_distance
_geom_bond_site_symmetry_2
Eu0 O0 2.467103 1_566
Eu0 O0 2.467103 1_555
Eu1 O0 2.467103 1_656
Eu1 O0 2.467103 1_555
Eu2 O0 2.814025 1_665
Eu3 O0 2.814025 1_555
Bi0 Eu2 3.362057 1_555
Bi0 Eu1 3.438823 1_554
Bi0 Eu0 3.438823 1_655
Bi0 Eu1 3.438823 1_565
Bi0 Eu0 3.438823 1_554
Bi0 Eu3 3.514011 1_655
Bi0 Eu3 3.514011 1_554
Bi0 Eu3 3.514011 1_666
Bi0 Eu3 3.514011 1_565
Bi1 Eu3 3.362057 1_555
Bi1 Eu1 3.438823 1_554
Bi1 Eu0 3.438823 1_554
Bi1 Eu1 3.438823 1_565
Bi1 Eu0 3.438823 1_655
Bi1 Eu2 3.514011 1_545
Bi1 Eu2 3.514011 1_444
Bi1 Eu2 3.514011 1_455
Bi1 Eu2 3.514011 1_556
