# generated using pymatgen
data_Na5Zr2Si6ClO20
_symmetry_space_group_name_H-M   'P 1'
_cell_length_a   9.18307920
_cell_length_b   9.18307920
_cell_length_c   6.66568292
_cell_angle_alpha   76.86236638
_cell_angle_beta   76.86236638
_cell_angle_gamma   107.81236729
_symmetry_Int_Tables_number   1
_chemical_formula_structural   Na5Zr2Si6ClO20
_chemical_formula_sum   'Na5 Zr2 Si6 Cl1 O20'
_cell_volume   493.72841329
_cell_formula_units_Z   1
loop_
 _symmetry_equiv_pos_site_id
 _symmetry_equiv_pos_as_xyz
  1  'x, y, z'
loop_
 _atom_site_type_symbol
 _atom_site_label
 _atom_site_symmetry_multiplicity
 _atom_site_fract_x
 _atom_site_fract_y
 _atom_site_fract_z
 _atom_site_occupancy
  Na  Na0  1  0.08046000  0.35082600  0.44426500  1
  Na  Na1  1  0.35082600  0.08046000  0.44426500  1
  Na  Na2  1  0.91954000  0.64917400  0.55573500  1
  Na  Na3  1  0.64917400  0.91954000  0.55573500  1
  Na  Na4  1  0.00000000  0.00000000  0.00000000  1
  Zr  Zr0  1  0.76555300  0.23444700  0.00000000  1
  Zr  Zr1  1  0.23444700  0.76555300  0.00000000  1
  Si  Si0  1  0.69783300  0.30216700  0.50000000  1
  Si  Si1  1  0.30216700  0.69783300  0.50000000  1
  Si  Si2  1  0.81633700  0.60013000  0.09858100  1
  Si  Si3  1  0.60013000  0.81633700  0.09858100  1
  Si  Si4  1  0.18366300  0.39987000  0.90141900  1
  Si  Si5  1  0.39987000  0.18366300  0.90141900  1
  Cl  Cl0  1  0.00000000  0.00000000  0.50000000  1
  O  O0  1  0.82182700  0.48409700  0.94813800  1
  O  O1  1  0.48409700  0.82182700  0.94813800  1
  O  O2  1  0.17817300  0.51590300  0.05186200  1
  O  O3  1  0.51590300  0.17817300  0.05186200  1
  O  O4  1  0.68602700  0.68602700  0.06409100  1
  O  O5  1  0.31397300  0.31397300  0.93590900  1
  O  O6  1  0.80716500  0.28964000  0.65922800  1
  O  O7  1  0.28964000  0.80716500  0.65922800  1
  O  O8  1  0.19283500  0.71036000  0.34077200  1
  O  O9  1  0.71036000  0.19283500  0.34077200  1
  O  O10  1  0.00891800  0.26099100  0.94881200  1
  O  O11  1  0.26099100  0.00891800  0.94881200  1
  O  O12  1  0.99108200  0.73900900  0.05118800  1
  O  O13  1  0.73900900  0.99108200  0.05118800  1
  O  O14  1  0.75890500  0.49503200  0.35958800  1
  O  O15  1  0.49503200  0.75890500  0.35958800  1
  O  O16  1  0.24109500  0.50496800  0.64041200  1
  O  O17  1  0.50496800  0.24109500  0.64041200  1
  O  O18  1  0.65193200  0.65193200  0.67127600  1
  O  O19  1  0.34806800  0.34806800  0.32872400  1
loop_
_geom_bond_atom_site_label_1
_geom_bond_atom_site_label_2
_geom_bond_distance
_geom_bond_site_symmetry_2
Na0 O6 2.409142 1_455
Na0 O19 2.412366 1_555
Na0 O2 2.498626 1_555
Na0 O16 2.515874 1_555
Na1 O7 2.409142 1_545
Na1 O19 2.412366 1_555
Na1 O3 2.498626 1_555
Na1 O17 2.515874 1_555
Na2 O8 2.409142 1_655
Na2 O18 2.412366 1_555
Na2 O0 2.498626 1_555
Na2 O14 2.515874 1_555
Na3 O9 2.409142 1_565
Na3 O18 2.412366 1_555
Na3 O1 2.498626 1_555
Na3 O15 2.515874 1_555
Na4 O10 2.315767 1_554
Na4 O11 2.315767 1_554
Na4 O12 2.315767 1_445
Na4 O13 2.315767 1_445
Cl0 Na1 2.989627 1_555
Cl0 Na0 2.989627 1_555
Cl0 Na3 2.989627 1_445
Cl0 Na2 2.989627 1_445
Cl0 Na4 3.332841 1_555
Cl0 Na4 3.332841 1_556
O0 Si2 1.624547 1_556
O0 Zr0 2.115674 1_556
O1 Si3 1.624547 1_556
O1 Zr1 2.115674 1_556
O2 Si4 1.624547 1_554
O2 Zr1 2.115674 1_555
O3 Si5 1.624547 1_554
O3 Zr0 2.115674 1_555
O4 Si2 1.651403 1_555
O4 Si3 1.651403 1_555
O5 Si5 1.651403 1_555
O5 Si4 1.651403 1_555
O6 Si0 1.627058 1_555
O6 Zr0 2.127464 1_556
O7 Si1 1.627058 1_555
O7 Zr1 2.127464 1_556
O8 Si1 1.627058 1_555
O8 Zr1 2.127464 1_555
O9 Si0 1.627058 1_555
O9 Zr0 2.127464 1_555
O10 Si4 1.623476 1_555
O10 Zr0 2.110124 1_456
O11 Si5 1.623476 1_555
O11 Zr1 2.110124 1_546
O12 Si2 1.623476 1_555
O12 Zr1 2.110124 1_655
O13 Si3 1.623476 1_555
O13 Zr0 2.110124 1_565
O14 Si0 1.651501 1_555
O14 Si2 1.656704 1_555
O15 Si1 1.651501 1_555
O15 Si3 1.656704 1_555
O16 Si1 1.651501 1_555
O16 Si4 1.656704 1_555
O17 Si0 1.651501 1_555
O17 Si5 1.656704 1_555
