# generated using pymatgen
data_Ca3(GeAs2)2
_symmetry_space_group_name_H-M   'P 1'
_cell_length_a   17.95018276
_cell_length_b   7.27504696
_cell_length_c   7.32143004
_cell_angle_alpha   68.35772352
_cell_angle_beta   90.00000000
_cell_angle_gamma   90.00000000
_symmetry_Int_Tables_number   1
_chemical_formula_structural   Ca3(GeAs2)2
_chemical_formula_sum   'Ca12 Ge8 As16'
_cell_volume   888.69377739
_cell_formula_units_Z   4
loop_
 _symmetry_equiv_pos_site_id
 _symmetry_equiv_pos_as_xyz
  1  'x, y, z'
loop_
 _atom_site_type_symbol
 _atom_site_label
 _atom_site_symmetry_multiplicity
 _atom_site_fract_x
 _atom_site_fract_y
 _atom_site_fract_z
 _atom_site_occupancy
  Ca  Ca0  1  0.05844866  0.01185865  0.74460559  1
  Ca  Ca1  1  0.55844866  0.48814135  0.25539441  1
  Ca  Ca2  1  0.94155134  0.98814135  0.25539441  1
  Ca  Ca3  1  0.44155134  0.51185865  0.74460559  1
  Ca  Ca4  1  0.06178252  0.49781696  0.26324522  1
  Ca  Ca5  1  0.56178252  0.00218304  0.73675478  1
  Ca  Ca6  1  0.93821748  0.50218304  0.73675478  1
  Ca  Ca7  1  0.43821748  0.99781696  0.26324522  1
  Ca  Ca8  1  0.18330713  0.51303503  0.78292107  1
  Ca  Ca9  1  0.68330713  0.98696497  0.21707893  1
  Ca  Ca10  1  0.81669287  0.48696497  0.21707893  1
  Ca  Ca11  1  0.31669287  0.01303503  0.78292107  1
  Ge  Ge0  1  0.25913861  0.57969130  0.31880763  1
  Ge  Ge1  1  0.75913861  0.92030870  0.68119237  1
  Ge  Ge2  1  0.74086139  0.42030870  0.68119237  1
  Ge  Ge3  1  0.24086139  0.07969130  0.31880763  1
  Ge  Ge4  1  0.62711142  0.53094186  0.78997881  1
  Ge  Ge5  1  0.12711142  0.96905814  0.21002119  1
  Ge  Ge6  1  0.37288858  0.46905814  0.21002119  1
  Ge  Ge7  1  0.87288858  0.03094186  0.78997881  1
  As  As0  1  0.19550914  0.26852368  0.51480994  1
  As  As1  1  0.69550914  0.23147632  0.48519006  1
  As  As2  1  0.80449086  0.73147632  0.48519006  1
  As  As3  1  0.30449086  0.76852368  0.51480994  1
  As  As4  1  0.31363152  0.27632338  0.03056955  1
  As  As5  1  0.81363152  0.22367662  0.96943045  1
  As  As6  1  0.68636848  0.72367662  0.96943045  1
  As  As7  1  0.18636848  0.77632338  0.03056955  1
  As  As8  1  0.05938870  0.25506828  0.00338290  1
  As  As9  1  0.55938870  0.24493172  0.99661710  1
  As  As10  1  0.94061130  0.74493172  0.99661710  1
  As  As11  1  0.44061130  0.75506828  0.00338290  1
  As  As12  1  0.06597178  0.75305169  0.50580976  1
  As  As13  1  0.56597178  0.74694831  0.49419024  1
  As  As14  1  0.93402822  0.24694831  0.49419024  1
  As  As15  1  0.43402822  0.25305169  0.50580976  1
loop_
_geom_bond_atom_site_label_1
_geom_bond_atom_site_label_2
_geom_bond_distance
_geom_bond_site_symmetry_2
Ca0 Ge7 3.355313 1_455
Ca0 Ge5 3.527678 1_546
Ca1 Ge6 3.355313 1_555
Ca1 Ge4 3.527678 1_554
Ca2 Ge5 3.355313 1_655
Ca2 Ge7 3.527678 1_564
Ca3 Ge4 3.355313 1_555
Ca3 Ge6 3.527678 1_556
Ca4 Ge5 3.506399 1_555
Ca5 Ge4 3.506399 1_545
Ca6 Ge7 3.506399 1_555
Ca7 Ge6 3.506399 1_565
Ge0 Ge6 2.433948 1_555
Ge1 Ge7 2.433948 1_565
Ge2 Ge4 2.433948 1_555
Ge3 Ge5 2.433948 1_545
As0 Ge3 2.462389 1_555
As0 Ge0 2.468243 1_555
As0 Ca11 3.057532 1_555
As0 Ca8 3.104999 1_555
As0 Ca4 3.109769 1_555
As0 Ca0 3.170620 1_555
As1 Ge2 2.462389 1_555
As1 Ge1 2.468243 1_545
As1 Ca10 3.057532 1_555
As1 Ca9 3.104999 1_545
As1 Ca5 3.109769 1_555
As1 Ca1 3.170620 1_555
As2 Ge1 2.462389 1_555
As2 Ge2 2.468243 1_555
As2 Ca9 3.057532 1_555
As2 Ca10 3.104999 1_555
As2 Ca6 3.109769 1_555
As2 Ca2 3.170620 1_555
As3 Ge0 2.462389 1_555
As3 Ge3 2.468243 1_565
As3 Ca8 3.057532 1_555
As3 Ca11 3.104999 1_565
As3 Ca7 3.109769 1_555
As3 Ca3 3.170620 1_555
As4 Ge3 2.445259 1_555
As4 Ge6 2.486459 1_555
As4 Ca8 3.069604 1_554
As4 Ca7 3.076119 1_545
As4 Ca11 3.085630 1_554
As4 Ca3 3.153700 1_554
As5 Ge2 2.445259 1_555
As5 Ge7 2.486459 1_555
As5 Ca9 3.069604 1_546
As5 Ca6 3.076119 1_555
As5 Ca10 3.085630 1_556
As5 Ca2 3.153700 1_546
As6 Ge1 2.445259 1_555
As6 Ge4 2.486459 1_555
As6 Ca10 3.069604 1_556
As6 Ca5 3.076119 1_565
As6 Ca9 3.085630 1_556
As6 Ca1 3.153700 1_556
As7 Ge0 2.445259 1_555
As7 Ge5 2.486459 1_555
As7 Ca11 3.069604 1_564
As7 Ca4 3.076119 1_555
As7 Ca8 3.085630 1_554
As7 Ca0 3.153700 1_564
As8 Ge5 2.402934 1_545
As8 Ca8 2.973340 1_554
As8 Ca2 3.001089 1_445
As8 Ca6 3.030655 1_454
As8 Ca0 3.032031 1_554
As8 Ca4 3.036239 1_555
As9 Ge4 2.402934 1_555
As9 Ca9 2.973340 1_546
As9 Ca3 3.001089 1_555
As9 Ca7 3.030655 1_546
As9 Ca1 3.032031 1_556
As9 Ca5 3.036239 1_555
As10 Ge7 2.402934 1_565
As10 Ca10 2.973340 1_556
As10 Ca0 3.001089 1_665
As10 Ca4 3.030655 1_656
As10 Ca2 3.032031 1_556
As10 Ca6 3.036239 1_555
As11 Ge6 2.402934 1_555
As11 Ca11 2.973340 1_564
As11 Ca1 3.001089 1_555
As11 Ca5 3.030655 1_564
As11 Ca3 3.032031 1_554
As11 Ca7 3.036239 1_555
As12 Ge5 2.419398 1_555
As12 Ca2 2.993570 1_455
As12 Ca8 2.998021 1_555
As12 Ca4 3.006626 1_555
As12 Ca0 3.007997 1_565
As12 Ca6 3.028608 1_455
As13 Ge4 2.419398 1_555
As13 Ca3 2.993570 1_555
As13 Ca9 2.998021 1_555
As13 Ca5 3.006626 1_565
As13 Ca1 3.007997 1_555
As13 Ca7 3.028608 1_555
As14 Ge7 2.419398 1_555
As14 Ca0 2.993570 1_655
As14 Ca10 2.998021 1_555
As14 Ca6 3.006626 1_555
As14 Ca2 3.007997 1_545
As14 Ca4 3.028608 1_655
As15 Ge6 2.419398 1_555
As15 Ca1 2.993570 1_555
As15 Ca11 2.998021 1_555
As15 Ca7 3.006626 1_545
As15 Ca3 3.007997 1_555
As15 Ca5 3.028608 1_555
