# generated using pymatgen
data_Ho5Ge3C
_symmetry_space_group_name_H-M   'P 1'
_cell_length_a   8.40969865
_cell_length_b   8.40970003
_cell_length_c   6.43304165
_cell_angle_alpha   90.00000000
_cell_angle_beta   90.00000000
_cell_angle_gamma   120.00000042
_symmetry_Int_Tables_number   1
_chemical_formula_structural   Ho5Ge3C
_chemical_formula_sum   'Ho10 Ge6 C2'
_cell_volume   394.01062395
_cell_formula_units_Z   2
loop_
 _symmetry_equiv_pos_site_id
 _symmetry_equiv_pos_as_xyz
  1  'x, y, z'
loop_
 _atom_site_type_symbol
 _atom_site_label
 _atom_site_symmetry_multiplicity
 _atom_site_fract_x
 _atom_site_fract_y
 _atom_site_fract_z
 _atom_site_occupancy
  Ho  Ho0  1  0.66666700  0.33333300  0.00000000  1
  Ho  Ho1  1  0.33333300  0.66666700  0.00000000  1
  Ho  Ho2  1  0.33333300  0.66666700  0.50000000  1
  Ho  Ho3  1  0.66666700  0.33333300  0.50000000  1
  Ho  Ho4  1  0.77988309  0.77988309  0.75000000  1
  Ho  Ho5  1  0.22011691  0.00000000  0.75000000  1
  Ho  Ho6  1  -0.00000000  0.22011691  0.75000000  1
  Ho  Ho7  1  0.22011691  0.22011691  0.25000000  1
  Ho  Ho8  1  0.77988309  -0.00000000  0.25000000  1
  Ho  Ho9  1  0.00000000  0.77988309  0.25000000  1
  Ge  Ge0  1  0.40924995  0.40924995  0.75000000  1
  Ge  Ge1  1  0.59075005  -0.00000000  0.75000000  1
  Ge  Ge2  1  0.00000000  0.59075005  0.75000000  1
  Ge  Ge3  1  0.59075005  0.59075005  0.25000000  1
  Ge  Ge4  1  0.40924995  0.00000000  0.25000000  1
  Ge  Ge5  1  -0.00000000  0.40924995  0.25000000  1
  C  C0  1  0.00000000  -0.00000000  0.00000000  1
  C  C1  1  0.00000000  -0.00000000  0.50000000  1
loop_
_geom_bond_atom_site_label_1
_geom_bond_atom_site_label_2
_geom_bond_distance
_geom_bond_site_symmetry_2
Ge0 Ho6 2.983419 1_555
Ge0 Ho5 2.983419 1_555
Ge0 Ho0 3.010408 1_556
Ge0 Ho3 3.010408 1_555
Ge0 Ho1 3.010408 1_556
Ge0 Ho2 3.010408 1_555
Ge0 Ho4 3.116913 1_555
Ge0 Ho7 3.588295 1_556
Ge0 Ho7 3.588295 1_555
Ge1 Ho6 2.983419 1_655
Ge1 Ho4 2.983419 1_545
Ge1 Ho0 3.010401 1_556
Ge1 Ho3 3.010401 1_555
Ge1 Ho1 3.010403 1_546
Ge1 Ho2 3.010403 1_545
Ge1 Ho5 3.116913 1_555
Ge1 Ho8 3.588295 1_556
Ge1 Ho8 3.588295 1_555
Ge2 Ho4 2.983419 1_455
Ge2 Ho5 2.983419 1_565
Ge2 Ho2 3.010401 1_555
Ge2 Ho1 3.010401 1_556
Ge2 Ho0 3.010403 1_456
Ge2 Ho3 3.010403 1_455
Ge2 Ho6 3.116914 1_555
Ge2 Ho9 3.588295 1_556
Ge2 Ho9 3.588295 1_555
Ge3 Ho9 2.983419 1_655
Ge3 Ho8 2.983419 1_565
Ge3 Ho2 3.010408 1_555
Ge3 Ho1 3.010408 1_555
Ge3 Ho0 3.010408 1_555
Ge3 Ho3 3.010408 1_555
Ge3 Ho7 3.116913 1_555
Ge3 Ho4 3.588295 1_554
Ge3 Ho4 3.588295 1_555
Ge4 Ho9 2.983419 1_545
Ge4 Ho7 2.983419 1_555
Ge4 Ho2 3.010401 1_545
Ge4 Ho1 3.010401 1_545
Ge4 Ho0 3.010403 1_555
Ge4 Ho3 3.010403 1_555
Ge4 Ho8 3.116913 1_555
Ge4 Ho5 3.588295 1_555
Ge4 Ho5 3.588295 1_554
Ge5 Ho7 2.983419 1_555
Ge5 Ho8 2.983419 1_455
Ge5 Ho3 3.010401 1_455
Ge5 Ho0 3.010401 1_455
Ge5 Ho2 3.010403 1_555
Ge5 Ho1 3.010403 1_555
Ge5 Ho9 3.116914 1_555
Ge5 Ho6 3.588295 1_555
Ge5 Ho6 3.588295 1_554
C0 Ho8 2.452170 1_455
C0 Ho5 2.452170 1_554
C0 Ho7 2.452170 1_555
C0 Ho4 2.452170 1_444
C0 Ho6 2.452170 1_554
C0 Ho9 2.452170 1_545
C1 Ho8 2.452170 1_455
C1 Ho5 2.452170 1_555
C1 Ho7 2.452170 1_555
C1 Ho4 2.452170 1_445
C1 Ho9 2.452170 1_545
C1 Ho6 2.452170 1_555
