# generated using pymatgen
data_LaTiZnFeO6
_symmetry_space_group_name_H-M   'P 1'
_cell_length_a   5.71697900
_cell_length_b   5.40173600
_cell_length_c   9.41414666
_cell_angle_alpha   55.14483997
_cell_angle_beta   90.00000000
_cell_angle_gamma   90.00000000
_symmetry_Int_Tables_number   1
_chemical_formula_structural   LaTiZnFeO6
_chemical_formula_sum   'La2 Ti2 Zn2 Fe2 O12'
_cell_volume   238.56795134
_cell_formula_units_Z   2
loop_
 _symmetry_equiv_pos_site_id
 _symmetry_equiv_pos_as_xyz
  1  'x, y, z'
loop_
 _atom_site_type_symbol
 _atom_site_label
 _atom_site_symmetry_multiplicity
 _atom_site_fract_x
 _atom_site_fract_y
 _atom_site_fract_z
 _atom_site_occupancy
  La  La0  1  0.30383300  0.23507100  0.74940300  1
  La  La1  1  0.69616700  0.23507100  0.24940300  1
  Ti  Ti0  1  0.78367300  0.49549900  0.50003600  1
  Ti  Ti1  1  0.21632700  0.49549900  0.00003600  1
  Zn  Zn0  1  0.66319800  0.73564800  0.74907100  1
  Zn  Zn1  1  0.33680200  0.73564800  0.24907100  1
  Fe  Fe0  1  0.76685600  0.99741700  0.99578800  1
  Fe  Fe1  1  0.23314400  0.99741700  0.49578800  1
  O  O0  1  0.27574800  0.37760800  0.24723900  1
  O  O1  1  0.44396700  0.14965300  0.05309900  1
  O  O2  1  0.44130800  0.75132500  0.44734700  1
  O  O3  1  0.55869200  0.75132500  0.94734700  1
  O  O4  1  0.55603300  0.14965300  0.55309900  1
  O  O5  1  0.72425200  0.37760800  0.74723900  1
  O  O6  1  0.74696400  0.67095100  0.25547500  1
  O  O7  1  0.95011000  0.83466000  0.45748000  1
  O  O8  1  0.96361000  0.25216800  0.04506200  1
  O  O9  1  0.03639000  0.25216800  0.54506200  1
  O  O10  1  0.04989000  0.83466000  0.95748000  1
  O  O11  1  0.25303600  0.67095100  0.75547500  1
loop_
_geom_bond_atom_site_label_1
_geom_bond_atom_site_label_2
_geom_bond_distance
_geom_bond_site_symmetry_2
La0 O10 2.404221 1_545
La0 O11 2.405234 1_555
La0 O9 2.417397 1_555
La0 O5 2.520366 1_555
La0 O4 2.584882 1_555
La0 O3 2.618747 1_545
La0 O2 2.723334 1_555
La0 O1 2.742444 1_556
La1 O7 2.404221 1_545
La1 O6 2.405234 1_555
La1 O8 2.417397 1_555
La1 O0 2.520366 1_555
La1 O1 2.584882 1_555
La1 O2 2.618747 1_545
La1 O3 2.723334 1_554
La1 O4 2.742444 1_555
Fe0 O10 1.970698 1_655
Fe0 O3 2.020949 1_555
Fe0 O8 2.025760 1_566
Fe0 O6 2.042482 1_556
Fe0 O5 2.063832 1_565
Fe0 O1 2.209524 1_566
Fe1 O7 1.970698 1_455
Fe1 O2 2.020949 1_555
Fe1 O9 2.025760 1_565
Fe1 O11 2.042482 1_555
Fe1 O0 2.063832 1_565
Fe1 O4 2.209524 1_565
O0 Zn1 1.975033 1_555
O0 Ti1 2.059826 1_555
O1 Zn1 2.016036 1_545
O1 Ti1 2.089637 1_555
O2 Zn1 2.007236 1_555
O2 Ti0 2.281056 1_555
O3 Zn0 2.007236 1_555
O3 Ti1 2.281056 1_556
O4 Zn0 2.016036 1_545
O4 Ti0 2.089637 1_555
O5 Zn0 1.975033 1_555
O5 Ti0 2.059826 1_555
O6 Ti0 1.936215 1_555
O6 Zn1 2.366471 1_555
O7 Ti0 1.892983 1_555
O8 Ti1 1.832457 1_655
O9 Ti0 1.832457 1_455
O10 Ti1 1.892983 1_556
O11 Ti1 1.936215 1_556
O11 Zn0 2.366471 1_555
