# generated using pymatgen
data_LiCd4(TcO3)4
_symmetry_space_group_name_H-M   'P 1'
_cell_length_a   5.43466099
_cell_length_b   5.68990488
_cell_length_c   7.90955381
_cell_angle_alpha   87.87914085
_cell_angle_beta   90.26521142
_cell_angle_gamma   89.84540930
_symmetry_Int_Tables_number   1
_chemical_formula_structural   LiCd4(TcO3)4
_chemical_formula_sum   'Li1 Cd4 Tc4 O12'
_cell_volume   244.41362225
_cell_formula_units_Z   1
loop_
 _symmetry_equiv_pos_site_id
 _symmetry_equiv_pos_as_xyz
  1  'x, y, z'
loop_
 _atom_site_type_symbol
 _atom_site_label
 _atom_site_symmetry_multiplicity
 _atom_site_fract_x
 _atom_site_fract_y
 _atom_site_fract_z
 _atom_site_occupancy
  Li  Li0  1  0.13832800  0.78006600  0.14934000  1
  Cd  Cd0  1  0.53637200  0.54413000  0.24617000  1
  Cd  Cd1  1  0.96955000  0.10287200  0.28532200  1
  Cd  Cd2  1  0.48104200  0.44620700  0.74554700  1
  Cd  Cd3  1  0.01752300  0.94767700  0.75115400  1
  Tc  Tc0  1  0.99773200  0.47222900  0.98684500  1
  Tc  Tc1  1  0.49500500  0.99956300  0.50157600  1
  Tc  Tc2  1  0.00162000  0.51270200  0.50432200  1
  Tc  Tc3  1  0.50974800  0.99313000  0.99573600  1
  O  O0  1  0.80320900  0.77392400  0.05641800  1
  O  O1  1  0.69362500  0.30705300  0.45121400  1
  O  O2  1  0.19992600  0.20720500  0.55683000  1
  O  O3  1  0.29531400  0.69770900  0.93869300  1
  O  O4  1  0.20992300  0.19618300  0.93686200  1
  O  O5  1  0.29844500  0.70990800  0.55712200  1
  O  O6  1  0.79568500  0.80441300  0.44373400  1
  O  O7  1  0.71321400  0.26958100  0.05995700  1
  O  O8  1  0.37853800  0.96736200  0.24873600  1
  O  O9  1  0.12012400  0.47870900  0.24804700  1
  O  O10  1  0.61106100  0.02669700  0.74741200  1
  O  O11  1  0.88877800  0.52459000  0.74729600  1
loop_
_geom_bond_atom_site_label_1
_geom_bond_atom_site_label_2
_geom_bond_distance
_geom_bond_site_symmetry_2
Li0 O9 1.860656 1_555
Li0 O8 1.875641 1_555
Li0 O3 1.947367 1_554
Li0 O0 1.961693 1_455
Cd0 O1 2.235912 1_555
Cd0 O9 2.293606 1_555
Cd0 O7 2.389273 1_555
Cd0 O0 2.439315 1_555
Cd0 O8 2.554996 1_555
Cd0 O6 2.604496 1_555
Cd1 O6 2.282276 1_545
Cd1 O9 2.301014 1_655
Cd1 O1 2.332749 1_555
Cd1 Li0 2.349049 1_645
Cd1 O8 2.373164 1_645
Cd1 O7 2.421293 1_555
Cd1 O2 2.570063 1_655
Cd2 O11 2.261603 1_555
Cd2 O5 2.295647 1_555
Cd2 O3 2.359831 1_555
Cd2 O10 2.487035 1_555
Cd2 O4 2.521368 1_555
Cd2 O2 2.559649 1_555
Cd2 O1 2.745512 1_555
Cd3 O10 2.252929 1_465
Cd3 O2 2.319422 1_565
Cd3 O4 2.323300 1_565
Cd3 O11 2.509986 1_455
Cd3 O3 2.512761 1_555
Cd3 O5 2.584705 1_555
O0 Tc3 2.065788 1_554
O0 Tc0 2.105398 1_554
O1 Tc1 2.085066 1_545
O1 Tc2 2.094719 1_655
O2 Tc1 2.047692 1_545
O2 Tc2 2.070701 1_555
O3 Tc0 2.094587 1_455
O3 Tc3 2.109263 1_555
O4 Tc0 1.998390 1_455
O4 Tc3 2.037101 1_545
O5 Tc1 2.002666 1_555
O5 Tc2 2.018397 1_555
O6 Tc1 2.036482 1_555
O6 Tc2 2.040425 1_655
O7 Tc3 2.004579 1_544
O7 Tc0 2.005840 1_554
O8 Tc1 2.109417 1_555
O8 Tc3 2.127560 1_554
O9 Tc2 2.145094 1_555
O9 Tc0 2.169139 1_454
O10 Tc3 2.044571 1_545
O10 Tc1 2.052788 1_545
O11 Tc0 1.994052 1_555
O11 Tc2 2.023449 1_655
