# generated using pymatgen
data_K6V6P6O31
_symmetry_space_group_name_H-M   'P 1'
_cell_length_a   7.07723900
_cell_length_b   13.57275900
_cell_length_c   14.47196800
_cell_angle_alpha   90.00000000
_cell_angle_beta   90.00000000
_cell_angle_gamma   90.00000000
_symmetry_Int_Tables_number   1
_chemical_formula_structural   K6V6P6O31
_chemical_formula_sum   'K12 V12 P12 O62'
_cell_volume   1390.14337201
_cell_formula_units_Z   2
loop_
 _symmetry_equiv_pos_site_id
 _symmetry_equiv_pos_as_xyz
  1  'x, y, z'
loop_
 _atom_site_type_symbol
 _atom_site_label
 _atom_site_symmetry_multiplicity
 _atom_site_fract_x
 _atom_site_fract_y
 _atom_site_fract_z
 _atom_site_occupancy
  K  K0  1  0.37215600  0.00000000  0.49022400  1
  K  K1  1  0.87072800  0.00000000  0.01122100  1
  K  K2  1  0.12927200  0.50000000  0.51122100  1
  K  K3  1  0.62784400  0.50000000  0.99022400  1
  K  K4  1  0.35103400  0.75925000  0.66378500  1
  K  K5  1  0.85004900  0.24318000  0.83763800  1
  K  K6  1  0.14995100  0.25682000  0.33763800  1
  K  K7  1  0.64896600  0.74075000  0.16378500  1
  K  K8  1  0.14995100  0.74318000  0.33763800  1
  K  K9  1  0.64896600  0.25925000  0.16378500  1
  K  K10  1  0.35103400  0.24075000  0.66378500  1
  K  K11  1  0.85004900  0.75682000  0.83763800  1
  V  V0  1  0.40909400  0.87528800  0.92146200  1
  V  V1  1  0.91072300  0.12503200  0.57760700  1
  V  V2  1  0.08927700  0.37496800  0.07760700  1
  V  V3  1  0.59090600  0.62471200  0.42146200  1
  V  V4  1  0.08927700  0.62503200  0.07760700  1
  V  V5  1  0.59090600  0.37528800  0.42146200  1
  V  V6  1  0.40909400  0.12471200  0.92146200  1
  V  V7  1  0.91072300  0.87496800  0.57760700  1
  V  V8  1  0.51328400  0.50000000  0.74234300  1
  V  V9  1  0.01307500  0.50000000  0.75756900  1
  V  V10  1  0.98692500  0.00000000  0.25756900  1
  V  V11  1  0.48671600  0.00000000  0.24234300  1
  P  P0  1  0.28793500  0.65128300  0.88107100  1
  P  P1  1  0.78790500  0.34855700  0.61889000  1
  P  P2  1  0.21209500  0.15144300  0.11889000  1
  P  P3  1  0.71206500  0.84871700  0.38107100  1
  P  P4  1  0.21209500  0.84855700  0.11889000  1
  P  P5  1  0.71206500  0.15128300  0.38107100  1
  P  P6  1  0.28793500  0.34871700  0.88107100  1
  P  P7  1  0.78790500  0.65144300  0.61889000  1
  P  P8  1  0.61395900  0.00000000  0.76036900  1
  P  P9  1  0.38604100  0.50000000  0.26036900  1
  P  P10  1  0.02543400  0.00000000  0.76286000  1
  P  P11  1  0.97456600  0.50000000  0.26286000  1
  O  O0  1  0.46948800  0.39402000  0.83927500  1
  O  O1  1  0.96908900  0.60615600  0.66110100  1
  O  O2  1  0.03091100  0.89384400  0.16110100  1
  O  O3  1  0.53051200  0.10598000  0.33927500  1
  O  O4  1  0.03091100  0.10615600  0.16110100  1
  O  O5  1  0.53051200  0.89402000  0.33927500  1
  O  O6  1  0.46948800  0.60598000  0.83927500  1
  O  O7  1  0.96908900  0.39384400  0.66110100  1
  O  O8  1  0.28501100  0.50000000  0.70277200  1
  O  O9  1  0.78497200  0.50000000  0.79753700  1
  O  O10  1  0.21502800  0.00000000  0.29753700  1
  O  O11  1  0.71498900  0.00000000  0.20277200  1
  O  O12  1  0.65158900  0.00000000  0.65740800  1
  O  O13  1  0.16277000  0.00000000  0.84246500  1
  O  O14  1  0.83723000  0.50000000  0.34246500  1
  O  O15  1  0.34841100  0.50000000  0.15740800  1
  O  O16  1  0.27918200  0.76322000  0.85668200  1
  O  O17  1  0.77995100  0.23644100  0.64313600  1
  O  O18  1  0.22004900  0.26355900  0.14313600  1
  O  O19  1  0.72081800  0.73678000  0.35668200  1
  O  O20  1  0.22004900  0.73644100  0.14313600  1
  O  O21  1  0.72081800  0.26322000  0.35668200  1
  O  O22  1  0.27918200  0.23678000  0.85668200  1
  O  O23  1  0.77995100  0.76355900  0.64313600  1
  O  O24  1  0.20262600  0.86554100  0.01289600  1
  O  O25  1  0.70307300  0.13437200  0.48713800  1
  O  O26  1  0.29692700  0.36562800  0.98713800  1
  O  O27  1  0.79737400  0.63445900  0.51289600  1
  O  O28  1  0.29692700  0.63437200  0.98713800  1
  O  O29  1  0.79737400  0.36554100  0.51289600  1
  O  O30  1  0.20262600  0.13445900  0.01289600  1
  O  O31  1  0.70307300  0.86562800  0.48713800  1
  O  O32  1  0.51799000  0.90388100  0.79372000  1
  O  O33  1  0.02735600  0.09552100  0.70448600  1
  O  O34  1  0.97264400  0.40447900  0.20448600  1
  O  O35  1  0.48201000  0.59611900  0.29372000  1
  O  O36  1  0.97264400  0.59552100  0.20448600  1
  O  O37  1  0.48201000  0.40388100  0.29372000  1
  O  O38  1  0.51799000  0.09611900  0.79372000  1
  O  O39  1  0.02735600  0.90447900  0.70448600  1
  O  O40  1  0.60665500  0.39330700  0.66026700  1
  O  O41  1  0.10670500  0.60638300  0.83986500  1
  O  O42  1  0.89329500  0.89361700  0.33986500  1
  O  O43  1  0.39334500  0.10669300  0.16026700  1
  O  O44  1  0.89329500  0.10638300  0.33986500  1
  O  O45  1  0.39334500  0.89330700  0.16026700  1
  O  O46  1  0.60665500  0.60669300  0.66026700  1
  O  O47  1  0.10670500  0.39361700  0.83986500  1
  O  O48  1  0.58577600  0.81511800  0.96900000  1
  O  O49  1  0.08796300  0.18503800  0.53037300  1
  O  O50  1  0.91203700  0.31496200  0.03037300  1
  O  O51  1  0.41422400  0.68488200  0.46900000  1
  O  O52  1  0.91203700  0.68503800  0.03037300  1
  O  O53  1  0.41422400  0.31511800  0.46900000  1
  O  O54  1  0.58577600  0.18488200  0.96900000  1
  O  O55  1  0.08796300  0.81496200  0.53037300  1
  O  O56  1  0.47025000  0.00000000  0.95523000  1
  O  O57  1  0.96968800  0.00000000  0.54424500  1
  O  O58  1  0.03031200  0.50000000  0.04424500  1
  O  O59  1  0.52975000  0.50000000  0.45523000  1
  O  O60  1  0.81819400  0.00000000  0.81544600  1
  O  O61  1  0.18180600  0.50000000  0.31544600  1
loop_
_geom_bond_atom_site_label_1
_geom_bond_atom_site_label_2
_geom_bond_distance
_geom_bond_site_symmetry_2
K0 O5 2.845576 1_545
K0 O3 2.845576 1_555
K0 O57 2.953703 1_455
K0 O25 2.968687 1_555
K0 O31 2.968687 1_545
K0 O10 3.002113 1_555
K0 O12 3.124876 1_555
K0 O49 3.269625 1_555
K0 O55 3.269625 1_545
K1 O2 2.840066 1_645
K1 O4 2.840066 1_655
K1 O60 2.857540 1_554
K1 O56 2.947833 1_554
K1 O24 2.974655 1_645
K1 O30 2.974655 1_655
K1 O11 2.983203 1_555
K1 O13 3.199432 1_654
K1 O54 3.276767 1_554
K1 O48 3.276767 1_544
K2 O7 2.840066 1_455
K2 O1 2.840066 1_455
K2 O61 2.857540 1_555
K2 O59 2.947833 1_555
K2 O27 2.974655 1_455
K2 O29 2.974655 1_455
K2 O8 2.983203 1_555
K2 O14 3.199432 1_455
K2 O51 3.276767 1_555
K2 O53 3.276767 1_555
K3 O6 2.845576 1_555
K3 O0 2.845576 1_555
K3 O58 2.953703 1_656
K3 O26 2.968687 1_555
K3 O28 2.968687 1_555
K3 O9 3.002113 1_555
K3 O15 3.124876 1_556
K3 O50 3.269625 1_556
K3 O52 3.269625 1_556
K4 O46 2.750067 1_555
K4 O55 2.786733 1_555
K4 O16 2.838048 1_555
K4 O32 2.964059 1_555
K4 O51 3.027403 1_555
K4 O23 3.050782 1_555
K4 O39 3.078950 1_555
K5 O47 2.733045 1_655
K5 O54 2.781773 1_555
K5 O17 2.859673 1_555
K5 O50 2.986909 1_556
K5 O33 3.050316 1_655
K5 O22 3.050793 1_655
K5 O38 3.148152 1_555
K6 O44 2.733045 1_455
K6 O53 2.781773 1_555
K6 O18 2.859673 1_555
K6 O49 2.986909 1_555
K6 O34 3.050316 1_455
K6 O21 3.050793 1_455
K6 O37 3.148152 1_555
K7 O45 2.750067 1_555
K7 O52 2.786733 1_555
K7 O19 2.838048 1_555
K7 O35 2.964059 1_555
K7 O48 3.027403 1_554
K7 O20 3.050782 1_555
K7 O36 3.078950 1_555
K8 O42 2.733045 1_455
K8 O51 2.781773 1_555
K8 O20 2.859673 1_555
K8 O55 2.986909 1_555
K8 O36 3.050316 1_455
K8 O19 3.050793 1_455
K8 O35 3.148152 1_555
K9 O43 2.750067 1_555
K9 O50 2.786733 1_555
K9 O21 2.838048 1_555
K9 O37 2.964059 1_555
K9 O54 3.027403 1_554
K9 O18 3.050782 1_555
K9 O34 3.078950 1_555
K10 O40 2.750067 1_555
K10 O49 2.786733 1_555
K10 O22 2.838048 1_555
K10 O38 2.964059 1_555
K10 O53 3.027403 1_555
K10 O17 3.050782 1_555
K10 O33 3.078950 1_555
K11 O41 2.733045 1_655
K11 O48 2.781773 1_555
K11 O23 2.859673 1_555
K11 O52 2.986909 1_556
K11 O39 3.050316 1_655
K11 O16 3.050793 1_655
K11 O32 3.148152 1_555
O0 P6 1.547548 1_555
O0 V8 2.032984 1_555
O1 P7 1.547655 1_555
O1 V9 2.030257 1_655
O2 P4 1.547655 1_555
O2 V10 2.030257 1_465
O3 P5 1.547548 1_555
O3 V11 2.032984 1_555
O4 P2 1.547655 1_555
O4 V10 2.030257 1_455
O5 P3 1.547548 1_555
O5 V11 2.032984 1_565
O6 P0 1.547548 1_555
O6 V8 2.032984 1_555
O7 P1 1.547655 1_555
O7 V9 2.030257 1_655
O8 V8 1.714039 1_555
O8 V9 2.081537 1_555
O9 V9 1.714834 1_655
O9 V8 2.082112 1_555
O10 V10 1.714834 1_455
O10 V11 2.082112 1_555
O11 V11 1.714039 1_555
O11 V10 2.081537 1_555
O12 P8 1.513661 1_555
O13 P10 1.507284 1_555
O14 P11 1.507284 1_555
O15 P9 1.513661 1_555
O16 P0 1.560984 1_555
O16 V0 2.009449 1_555
O17 P1 1.562669 1_555
O17 V1 2.010578 1_555
O18 P2 1.562669 1_555
O18 V2 2.010578 1_555
O19 P3 1.560984 1_555
O19 V3 2.009449 1_555
O20 P4 1.562669 1_555
O20 V4 2.010578 1_555
O21 P5 1.560984 1_555
O21 V5 2.009449 1_555
O22 P6 1.560984 1_555
O22 V6 2.009449 1_555
O23 P7 1.562669 1_555
O23 V7 2.010578 1_555
O24 P4 1.552613 1_555
O24 V0 1.975756 1_554
O25 P5 1.553368 1_555
O25 V1 1.972292 1_555
O26 P6 1.553368 1_555
O26 V2 1.972292 1_556
O27 P7 1.552613 1_555
O27 V3 1.975756 1_555
O28 P0 1.553368 1_555
O28 V4 1.972292 1_556
O29 P1 1.552613 1_555
O29 V5 1.975756 1_555
O30 P2 1.552613 1_555
O30 V6 1.975756 1_554
O31 P3 1.553368 1_555
O31 V7 1.972292 1_555
O32 P8 1.547980 1_565
O32 V0 2.040141 1_555
O33 P10 1.547488 1_555
O33 V1 2.052651 1_455
O34 P11 1.547488 1_555
O34 V2 2.052651 1_655
O35 P9 1.547980 1_555
O35 V3 2.040141 1_555
O36 P11 1.547488 1_555
O36 V4 2.052651 1_655
O37 P9 1.547980 1_555
O37 V5 2.040141 1_555
O38 P8 1.547980 1_555
O38 V6 2.040141 1_555
O39 P10 1.547488 1_565
O39 V7 2.052651 1_455
O40 P1 1.540431 1_555
O40 V8 1.986098 1_555
O41 P0 1.540157 1_555
O41 V9 1.985552 1_555
O42 P3 1.540157 1_555
O42 V10 1.985552 1_565
O43 P2 1.540431 1_555
O43 V11 1.986098 1_555
O44 P5 1.540157 1_555
O44 V10 1.985552 1_555
O45 P4 1.540431 1_555
O45 V11 1.986098 1_565
O46 P7 1.540431 1_555
O46 V8 1.986098 1_555
O47 P6 1.540157 1_555
O47 V9 1.985552 1_555
O48 V0 1.644326 1_555
O49 V1 1.644395 1_455
O50 V2 1.644395 1_655
O51 V3 1.644326 1_555
O52 V4 1.644395 1_655
O53 V5 1.644326 1_555
O54 V6 1.644326 1_555
O55 V7 1.644395 1_455
O56 V6 1.814203 1_555
O56 V0 1.814203 1_545
O57 V1 1.813054 1_555
O57 V7 1.813054 1_545
O58 V2 1.813054 1_555
O58 V4 1.813054 1_555
O59 V5 1.814203 1_555
O59 V3 1.814203 1_555
O60 P8 1.650625 1_555
O60 P10 1.652370 1_655
O61 P9 1.650625 1_555
O61 P11 1.652370 1_455
