# generated using pymatgen
data_Co(MoS2)2
_symmetry_space_group_name_H-M   'P 1'
_cell_length_a   6.43469900
_cell_length_b   6.75321223
_cell_length_c   11.70020272
_cell_angle_alpha   79.35060341
_cell_angle_beta   74.03903379
_cell_angle_gamma   61.54830190
_symmetry_Int_Tables_number   1
_chemical_formula_structural   Co(MoS2)2
_chemical_formula_sum   'Co4 Mo8 S16'
_cell_volume   428.91810514
_cell_formula_units_Z   4
loop_
 _symmetry_equiv_pos_site_id
 _symmetry_equiv_pos_as_xyz
  1  'x, y, z'
loop_
 _atom_site_type_symbol
 _atom_site_label
 _atom_site_symmetry_multiplicity
 _atom_site_fract_x
 _atom_site_fract_y
 _atom_site_fract_z
 _atom_site_occupancy
  Co  Co0  1  0.53884300  0.71699400  0.45278900  1
  Co  Co1  1  0.29137400  0.21699400  0.95278900  1
  Co  Co2  1  0.79358700  0.20925800  0.95307100  1
  Co  Co3  1  0.04408400  0.70925800  0.45307100  1
  Mo  Mo0  1  0.88062600  0.77044400  0.70992100  1
  Mo  Mo1  1  0.63900900  0.27044400  0.20992100  1
  Mo  Mo2  1  0.45879500  0.16160900  0.68995000  1
  Mo  Mo3  1  0.68964600  0.66160900  0.18995000  1
  Mo  Mo4  1  0.94186400  0.15860400  0.68929300  1
  Mo  Mo5  1  0.21024000  0.65860400  0.18929300  1
  Mo  Mo6  1  0.38546500  0.77695900  0.71101200  1
  Mo  Mo7  1  0.12656400  0.27695900  0.21101200  1
  S  S0  1  0.82986400  0.04262100  0.54617700  1
  S  S1  1  0.58133900  0.54262100  0.04617700  1
  S  S2  1  0.50564300  0.88924600  0.85297800  1
  S  S3  1  0.75213200  0.38924600  0.35297800  1
  S  S4  1  0.03226800  0.36931500  0.81600000  1
  S  S5  1  0.78241700  0.86931500  0.31600000  1
  S  S6  1  0.30476500  0.56188500  0.58305500  1
  S  S7  1  0.55029500  0.06188500  0.08305500  1
  S  S8  1  0.53032700  0.37288800  0.81957300  1
  S  S9  1  0.27721200  0.87288800  0.31957300  1
  S  S10  1  0.80132800  0.55931000  0.58152500  1
  S  S11  1  0.05783600  0.05931000  0.08152500  1
  S  S12  1  0.32407000  0.05207800  0.55097500  1
  S  S13  1  0.07287700  0.55207800  0.05097500  1
  S  S14  1  0.00652600  0.88338800  0.85108200  1
  S  S15  1  0.25900300  0.38338800  0.35108200  1
loop_
_geom_bond_atom_site_label_1
_geom_bond_atom_site_label_2
_geom_bond_distance
_geom_bond_site_symmetry_2
Co0 S3 2.307757 1_555
Co0 S6 2.310766 1_555
Co0 S10 2.312582 1_555
Co0 S12 2.336276 1_565
Co0 S9 2.349433 1_555
Co0 S5 2.371556 1_555
Co1 S2 2.307757 1_545
Co1 S7 2.310766 1_556
Co1 S11 2.312587 1_556
Co1 S13 2.336276 1_556
Co1 S8 2.349433 1_555
Co1 S4 2.371556 1_555
Co2 S1 2.297547 1_556
Co2 S14 2.311398 1_645
Co2 S7 2.317332 1_556
Co2 S11 2.319010 1_656
Co2 S8 2.358822 1_555
Co2 S4 2.384461 1_655
Co3 S0 2.297547 1_465
Co3 S15 2.311398 1_555
Co3 S6 2.317332 1_555
Co3 S10 2.319014 1_455
Co3 S9 2.358822 1_555
Co3 S5 2.384461 1_455
Mo0 S0 2.371962 1_565
Mo0 S2 2.387047 1_555
Mo0 S14 2.399193 1_655
Mo0 S10 2.540986 1_555
Mo0 S6 2.552976 1_655
Mo0 S4 2.595296 1_655
Mo1 S1 2.371962 1_555
Mo1 S3 2.387043 1_555
Mo1 S15 2.399197 1_555
Mo1 S11 2.540982 1_655
Mo1 S7 2.552976 1_555
Mo1 S5 2.595296 1_545
Mo2 S2 2.367193 1_545
Mo2 S0 2.374671 1_555
Mo2 S12 2.402801 1_555
Mo2 S8 2.521358 1_555
Mo2 S4 2.558427 1_555
Mo2 S6 2.594797 1_555
Mo3 S3 2.367193 1_555
Mo3 S1 2.374667 1_555
Mo3 S13 2.402801 1_655
Mo3 S9 2.521358 1_555
Mo3 S5 2.558427 1_555
Mo3 S7 2.594797 1_565
Mo4 S14 2.367864 1_645
Mo4 S0 2.371303 1_555
Mo4 S12 2.395971 1_655
Mo4 S8 2.524695 1_555
Mo4 S4 2.569781 1_655
Mo4 S10 2.600902 1_555
Mo5 S15 2.367865 1_555
Mo5 S1 2.371303 1_555
Mo5 S13 2.395976 1_555
Mo5 S9 2.524692 1_555
Mo5 S5 2.569785 1_455
Mo5 S11 2.600903 1_565
Mo6 S12 2.352824 1_565
Mo6 S2 2.379652 1_555
Mo6 S14 2.390764 1_555
Mo6 S10 2.542073 1_555
Mo6 S6 2.563299 1_555
Mo6 S8 2.622014 1_555
Mo7 S13 2.352824 1_555
Mo7 S3 2.379656 1_455
Mo7 S15 2.390759 1_555
Mo7 S11 2.542077 1_555
Mo7 S7 2.563299 1_555
Mo7 S9 2.622014 1_545
