# generated using pymatgen
data_MgNb2
_symmetry_space_group_name_H-M   'P 1'
_cell_length_a   15.94281756
_cell_length_b   15.94281756
_cell_length_c   15.94281766
_cell_angle_alpha   21.09326359
_cell_angle_beta   21.09326359
_cell_angle_gamma   21.09325621
_symmetry_Int_Tables_number   1
_chemical_formula_structural   MgNb2
_chemical_formula_sum   'Mg8 Nb16'
_cell_volume   459.65741878
_cell_formula_units_Z   8
loop_
 _symmetry_equiv_pos_site_id
 _symmetry_equiv_pos_as_xyz
  1  'x, y, z'
loop_
 _atom_site_type_symbol
 _atom_site_label
 _atom_site_symmetry_multiplicity
 _atom_site_fract_x
 _atom_site_fract_y
 _atom_site_fract_z
 _atom_site_occupancy
  Mg  Mg0_0  1  0.00000000  0.00000000  0.00000000  1
  Mg  Mg0_1  1  0.00000000  0.00000000  0.50000000  1
  Mg  Mg0_2  1  0.00000000  0.50000000  0.00000000  1
  Mg  Mg0_3  1  0.00000000  0.50000000  0.50000000  1
  Mg  Mg0_4  1  0.50000000  0.00000000  0.00000000  1
  Mg  Mg0_5  1  0.50000000  1.00000000  0.50000000  1
  Mg  Mg0_6  1  0.50000000  0.50000000  0.00000000  1
  Mg  Mg0_7  1  0.50000000  0.50000000  0.50000000  1
  Nb  Nb0_0  1  0.38892750  0.38892750  0.38892750  1
  Nb  Nb0_1  1  0.38892750  0.38892750  0.88892750  1
  Nb  Nb0_2  1  0.38892750  0.88892750  0.38892750  1
  Nb  Nb0_3  1  0.38892750  0.88892750  0.88892750  1
  Nb  Nb0_4  1  0.88892750  0.38892750  0.38892750  1
  Nb  Nb0_5  1  0.88892750  0.38892750  0.88892750  1
  Nb  Nb0_6  1  0.88892750  0.88892750  0.38892750  1
  Nb  Nb0_7  1  0.88892750  0.88892750  0.88892750  1
  Nb  Nb1_0  1  0.11107250  0.11107250  0.11107250  1
  Nb  Nb1_1  1  0.11107250  0.11107250  0.61107250  1
  Nb  Nb1_2  1  0.11107250  0.61107250  0.11107250  1
  Nb  Nb1_3  1  0.11107250  0.61107250  0.61107250  1
  Nb  Nb1_4  1  0.61107250  0.11107250  0.11107250  1
  Nb  Nb1_5  1  0.61107250  0.11107250  0.61107250  1
  Nb  Nb1_6  1  0.61107250  0.61107250  0.11107250  1
  Nb  Nb1_7  1  0.61107250  0.61107250  0.61107250  1
loop_
_geom_bond_atom_site_label_1
_geom_bond_atom_site_label_2
_geom_bond_distance
_geom_bond_site_symmetry_2
Mg0_0 Mg0_6 2.918104 1_455
Mg0_0 Mg0_6 2.918104 1_545
Mg0_0 Mg0_3 2.918105 1_554
Mg0_0 Mg0_5 2.918105 1_544
Mg0_0 Mg0_5 2.918105 1_445
Mg0_0 Mg0_3 2.918105 1_545
Mg0_0 Nb0_3 3.097227 1_544
Mg0_0 Nb0_5 3.097227 1_454
Mg0_0 Nb1_4 3.097227 1_455
Mg0_0 Nb1_2 3.097227 1_545
Mg0_0 Nb0_6 3.097227 1_445
Mg0_0 Nb1_1 3.097227 1_554
Mg0_1 Mg0_7 2.918104 1_545
Mg0_1 Mg0_7 2.918104 1_455
Mg0_1 Mg0_2 2.918105 1_555
Mg0_1 Mg0_4 2.918105 1_555
Mg0_1 Mg0_4 2.918105 1_456
Mg0_1 Mg0_2 2.918105 1_546
Mg0_1 Nb0_2 3.097227 1_545
Mg0_1 Nb0_4 3.097227 1_455
Mg0_1 Nb1_5 3.097227 1_455
Mg0_1 Nb1_3 3.097227 1_545
Mg0_1 Nb0_7 3.097227 1_445
Mg0_1 Nb1_0 3.097227 1_555
Mg0_2 Mg0_4 2.918104 1_555
Mg0_2 Mg0_4 2.918104 1_465
Mg0_2 Mg0_7 2.918105 1_554
Mg0_2 Mg0_7 2.918105 1_455
Mg0_2 Nb0_1 3.097227 1_554
Mg0_2 Nb0_7 3.097227 1_454
Mg0_2 Nb1_0 3.097227 1_555
Mg0_2 Nb1_6 3.097227 1_455
Mg0_2 Nb0_4 3.097227 1_455
Mg0_2 Nb1_3 3.097227 1_554
Mg0_3 Mg0_5 2.918104 1_545
Mg0_3 Mg0_5 2.918104 1_455
Mg0_3 Mg0_6 2.918105 1_555
Mg0_3 Mg0_6 2.918105 1_456
Mg0_3 Nb0_0 3.097227 1_555
Mg0_3 Nb1_1 3.097227 1_555
Mg0_3 Nb0_6 3.097227 1_455
Mg0_3 Nb1_7 3.097227 1_455
Mg0_3 Nb0_5 3.097227 1_455
Mg0_3 Nb1_2 3.097227 1_555
Mg0_4 Mg0_7 2.918105 1_554
Mg0_4 Mg0_7 2.918105 1_545
Mg0_4 Nb0_1 3.097227 1_554
Mg0_4 Nb0_7 3.097227 1_544
Mg0_4 Nb1_0 3.097227 1_555
Mg0_4 Nb1_6 3.097227 1_545
Mg0_4 Nb0_2 3.097227 1_545
Mg0_4 Nb1_5 3.097227 1_554
Mg0_5 Mg0_6 2.918105 1_556
Mg0_5 Mg0_6 2.918105 1_565
Mg0_5 Nb1_1 3.097227 1_565
Mg0_5 Nb0_0 3.097227 1_565
Mg0_5 Nb1_7 3.097227 1_555
Mg0_5 Nb0_6 3.097227 1_555
Mg0_5 Nb1_4 3.097227 1_565
Mg0_5 Nb0_3 3.097227 1_555
Mg0_6 Nb0_5 3.097227 1_554
Mg0_6 Nb0_3 3.097227 1_554
Mg0_6 Nb1_4 3.097227 1_555
Mg0_6 Nb1_2 3.097227 1_555
Mg0_6 Nb0_0 3.097227 1_555
Mg0_6 Nb1_7 3.097227 1_554
Mg0_7 Nb0_4 3.097227 1_555
Mg0_7 Nb0_2 3.097227 1_555
Mg0_7 Nb1_5 3.097227 1_555
Mg0_7 Nb1_3 3.097227 1_555
Mg0_7 Nb0_1 3.097227 1_555
Mg0_7 Nb1_6 3.097227 1_555
Nb0_0 Nb0_6 2.918104 1_545
Nb0_0 Nb0_6 2.918104 1_455
Nb0_0 Nb0_3 2.918105 1_554
Nb0_0 Nb0_5 2.918105 1_554
Nb0_0 Nb0_5 2.918105 1_455
Nb0_0 Nb0_3 2.918105 1_545
Nb0_0 Nb1_5 3.092684 1_555
Nb0_0 Nb1_3 3.092684 1_555
Nb0_0 Nb1_6 3.092685 1_555
Nb0_1 Nb0_7 2.918104 1_545
Nb0_1 Nb0_7 2.918104 1_455
Nb0_1 Nb0_2 2.918105 1_546
Nb0_1 Nb0_4 2.918105 1_456
Nb0_1 Nb0_2 2.918105 1_555
Nb0_1 Nb0_4 2.918105 1_555
Nb0_1 Nb1_2 3.092684 1_556
Nb0_1 Nb1_4 3.092684 1_556
Nb0_1 Nb1_7 3.092685 1_555
Nb0_2 Nb0_4 2.918104 1_555
Nb0_2 Nb0_4 2.918104 1_465
Nb0_2 Nb0_7 2.918105 1_554
Nb0_2 Nb0_7 2.918105 1_455
Nb0_2 Nb1_7 3.092684 1_555
Nb0_2 Nb1_1 3.092684 1_565
Nb0_2 Nb1_4 3.092685 1_565
Nb0_3 Nb0_5 2.918104 1_555
Nb0_3 Nb0_5 2.918104 1_465
Nb0_3 Nb0_6 2.918105 1_456
Nb0_3 Nb0_6 2.918105 1_555
Nb0_3 Nb1_6 3.092684 1_556
Nb0_3 Nb1_0 3.092684 1_566
Nb0_3 Nb1_5 3.092685 1_565
Nb0_4 Nb0_7 2.918105 1_554
Nb0_4 Nb0_7 2.918105 1_545
Nb0_4 Nb1_7 3.092684 1_555
Nb0_4 Nb1_1 3.092684 1_655
Nb0_4 Nb1_2 3.092685 1_655
Nb0_5 Nb0_6 2.918105 1_546
Nb0_5 Nb0_6 2.918105 1_555
Nb0_5 Nb1_0 3.092684 1_656
Nb0_5 Nb1_6 3.092684 1_556
Nb0_5 Nb1_3 3.092685 1_655
Nb0_6 Nb1_3 3.092684 1_655
Nb0_6 Nb1_5 3.092684 1_565
Nb0_6 Nb1_0 3.092685 1_665
Nb0_7 Nb1_2 3.092684 1_656
Nb0_7 Nb1_4 3.092684 1_566
Nb0_7 Nb1_1 3.092685 1_665
Nb1_0 Nb1_6 2.918104 1_455
Nb1_0 Nb1_6 2.918104 1_545
Nb1_0 Nb1_3 2.918105 1_554
Nb1_0 Nb1_5 2.918105 1_554
Nb1_0 Nb1_5 2.918105 1_455
Nb1_0 Nb1_3 2.918105 1_545
Nb1_1 Nb1_7 2.918104 1_455
Nb1_1 Nb1_7 2.918104 1_545
Nb1_1 Nb1_2 2.918105 1_555
Nb1_1 Nb1_4 2.918105 1_555
Nb1_1 Nb1_4 2.918105 1_456
Nb1_1 Nb1_2 2.918105 1_546
Nb1_2 Nb1_4 2.918104 1_465
Nb1_2 Nb1_4 2.918104 1_555
Nb1_2 Nb1_7 2.918105 1_455
Nb1_2 Nb1_7 2.918105 1_554
Nb1_3 Nb1_5 2.918104 1_555
Nb1_3 Nb1_5 2.918104 1_465
Nb1_3 Nb1_6 2.918105 1_456
Nb1_3 Nb1_6 2.918105 1_555
Nb1_4 Nb1_7 2.918105 1_554
Nb1_4 Nb1_7 2.918105 1_545
Nb1_5 Nb1_6 2.918105 1_546
Nb1_5 Nb1_6 2.918105 1_555
