# generated using pymatgen
data_Mg14FeB
_symmetry_space_group_name_H-M   'P 1'
_cell_length_a   6.17382890
_cell_length_b   6.17382844
_cell_length_c   9.83660916
_cell_angle_alpha   90.00000000
_cell_angle_beta   90.00000000
_cell_angle_gamma   120.00000244
_symmetry_Int_Tables_number   1
_chemical_formula_structural   Mg14FeB
_chemical_formula_sum   'Mg14 Fe1 B1'
_cell_volume   324.70216440
_cell_formula_units_Z   1
loop_
 _symmetry_equiv_pos_site_id
 _symmetry_equiv_pos_as_xyz
  1  'x, y, z'
loop_
 _atom_site_type_symbol
 _atom_site_label
 _atom_site_symmetry_multiplicity
 _atom_site_fract_x
 _atom_site_fract_y
 _atom_site_fract_z
 _atom_site_occupancy
  Mg  Mg0  1  0.16884899  0.83442399  0.12500000  1
  Mg  Mg1  1  0.16617208  0.83308554  0.62500000  1
  Mg  Mg2  1  0.66557601  0.33115101  0.12500000  1
  Mg  Mg3  1  0.66691446  0.33382792  0.62500000  1
  Mg  Mg4  1  0.66557601  0.83442399  0.12500000  1
  Mg  Mg5  1  0.66691446  0.83308554  0.62500000  1
  Mg  Mg6  1  0.32521695  0.17478305  0.37726945  1
  Mg  Mg7  1  0.32521695  0.17478305  0.87273055  1
  Mg  Mg8  1  0.32521695  0.65043491  0.37726945  1
  Mg  Mg9  1  0.32521695  0.65043491  0.87273055  1
  Mg  Mg10  1  0.84956509  0.17478305  0.37726945  1
  Mg  Mg11  1  0.84956509  0.17478305  0.87273055  1
  Mg  Mg12  1  0.83333300  0.66666700  0.37174704  1
  Mg  Mg13  1  0.83333300  0.66666700  0.87825296  1
  Fe  Fe0  1  0.16666700  0.33333300  0.12500000  1
  B  B0  1  0.16666700  0.33333300  0.62500000  1
loop_
_geom_bond_atom_site_label_1
_geom_bond_atom_site_label_2
_geom_bond_distance
_geom_bond_site_symmetry_2
Mg0 Mg13 3.018138 1_454
Mg0 Mg12 3.018138 1_455
Mg0 Mg2 3.066707 1_565
Mg0 Mg4 3.066708 1_555
Mg0 Mg8 3.078410 1_555
Mg0 Mg9 3.078410 1_554
Mg0 Mg7 3.078417 1_564
Mg0 Mg6 3.078417 1_565
Mg0 Mg2 3.107121 1_455
Mg0 Mg4 3.107121 1_455
Mg1 Mg9 3.046499 1_555
Mg1 Mg8 3.046499 1_555
Mg1 Mg6 3.046506 1_565
Mg1 Mg7 3.046506 1_565
Mg1 Mg13 3.061497 1_455
Mg1 Mg12 3.061497 1_455
Mg2 Mg4 3.066707 1_545
Mg2 Mg7 3.078417 1_554
Mg2 Mg6 3.078417 1_555
Mg2 Mg4 3.107121 1_555
Mg3 Mg6 3.046506 1_555
Mg3 Mg7 3.046506 1_555
Mg4 Mg8 3.078416 1_555
Mg4 Mg9 3.078416 1_554
Mg5 Mg8 3.046505 1_555
Mg5 Mg9 3.046505 1_555
Mg6 Mg8 2.936593 1_555
Mg6 Mg8 3.237235 1_545
Mg7 Mg9 2.936593 1_555
Mg7 Mg9 3.237235 1_545
Mg10 Mg8 2.936593 1_655
Mg10 Mg6 2.936593 1_655
Mg10 Mg3 3.046499 1_555
Mg10 Mg5 3.046505 1_545
Mg10 Mg2 3.078410 1_555
Mg10 Mg4 3.078416 1_545
Mg10 Mg12 3.088612 1_555
Mg10 Mg12 3.088612 1_545
Mg10 Mg8 3.237235 1_545
Mg10 Mg6 3.237236 1_555
Mg11 Mg9 2.936593 1_655
Mg11 Mg7 2.936593 1_655
Mg11 Mg3 3.046499 1_555
Mg11 Mg5 3.046505 1_545
Mg11 Mg2 3.078410 1_556
Mg11 Mg4 3.078416 1_546
Mg11 Mg13 3.088612 1_555
Mg11 Mg13 3.088612 1_545
Mg11 Mg9 3.237235 1_545
Mg11 Mg7 3.237236 1_555
Mg12 Mg4 3.018132 1_555
Mg12 Mg2 3.018138 1_555
Mg12 Mg5 3.061491 1_555
Mg12 Mg3 3.061497 1_555
Mg12 Mg6 3.088612 1_665
Mg12 Mg6 3.088612 1_555
Mg12 Mg8 3.088612 1_655
Mg12 Mg8 3.088612 1_555
Mg13 Mg4 3.018132 1_556
Mg13 Mg2 3.018138 1_556
Mg13 Mg5 3.061491 1_555
Mg13 Mg3 3.061497 1_555
Mg13 Mg7 3.088612 1_665
Mg13 Mg7 3.088612 1_555
Mg13 Mg9 3.088612 1_655
Mg13 Mg9 3.088612 1_555
Fe0 Mg7 3.005366 1_554
Fe0 Mg6 3.005366 1_555
Fe0 Mg9 3.005372 1_554
Fe0 Mg8 3.005372 1_555
Fe0 Mg11 3.005372 1_454
Fe0 Mg10 3.005372 1_455
Fe0 Mg0 3.086936 1_555
Fe0 Mg4 3.086936 1_555
Fe0 Mg4 3.086936 1_445
Fe0 Mg0 3.086936 1_545
Fe0 Mg2 3.086936 1_455
Fe0 Mg2 3.086937 1_555
B0 Mg7 2.968608 1_555
B0 Mg6 2.968608 1_555
B0 Mg8 2.968614 1_555
B0 Mg9 2.968614 1_555
B0 Mg11 2.968615 1_455
B0 Mg10 2.968615 1_455
