# generated using pymatgen
data_Ba10MgMn6(O12F)2
_symmetry_space_group_name_H-M   'P 1'
_cell_length_a   7.74975347
_cell_length_b   10.55936562
_cell_length_c   10.78521606
_cell_angle_alpha   120.89622302
_cell_angle_beta   87.69445510
_cell_angle_gamma   93.35547391
_symmetry_Int_Tables_number   1
_chemical_formula_structural   Ba10MgMn6(O12F)2
_chemical_formula_sum   'Ba10 Mg1 Mn6 O24 F2'
_cell_volume   755.98994379
_cell_formula_units_Z   1
loop_
 _symmetry_equiv_pos_site_id
 _symmetry_equiv_pos_as_xyz
  1  'x, y, z'
loop_
 _atom_site_type_symbol
 _atom_site_label
 _atom_site_symmetry_multiplicity
 _atom_site_fract_x
 _atom_site_fract_y
 _atom_site_fract_z
 _atom_site_occupancy
  Ba  Ba0  1  0.49386817  0.66023153  0.33392357  1
  Ba  Ba1  1  0.00465248  0.31853971  0.68047574  1
  Ba  Ba2  1  0.50613183  0.33976847  0.66607643  1
  Ba  Ba3  1  0.99534752  0.68146029  0.31952426  1
  Ba  Ba4  1  0.73250106  0.23764770  0.00053357  1
  Ba  Ba5  1  0.77195296  0.01030651  0.24605073  1
  Ba  Ba6  1  0.75327596  0.76635380  0.78020349  1
  Ba  Ba7  1  0.26749894  0.76235230  0.99946643  1
  Ba  Ba8  1  0.22804704  0.98969349  0.75394927  1
  Ba  Ba9  1  0.24672404  0.23364620  0.21979651  1
  Mg  Mg0  1  0.00000000  0.50000000  0.50000000  1
  Mn  Mn0  1  0.72939737  0.96928488  0.60255366  1
  Mn  Mn1  1  0.71785042  0.40171528  0.37620669  1
  Mn  Mn2  1  0.75668425  0.62983223  0.03028758  1
  Mn  Mn3  1  0.27060263  0.03071512  0.39744634  1
  Mn  Mn4  1  0.28214958  0.59828472  0.62379331  1
  Mn  Mn5  1  0.24331575  0.37016877  0.96971242  1
  O  O0  1  0.72389413  0.15794020  0.69096895  1
  O  O1  1  0.79344302  0.36605511  0.51595148  1
  O  O2  1  0.76624313  0.52166242  0.84736936  1
  O  O3  1  0.27610587  0.84205980  0.30903105  1
  O  O4  1  0.20655698  0.63394489  0.48404852  1
  O  O5  1  0.23375687  0.47833758  0.15263064  1
  O  O6  1  0.74645774  0.89076837  0.41752418  1
  O  O7  1  0.77836743  0.59615255  0.47965312  1
  O  O8  1  0.74118396  0.53150600  0.11822137  1
  O  O9  1  0.25354226  0.10923163  0.58247582  1
  O  O10  1  0.22163257  0.40384745  0.52034688  1
  O  O11  1  0.25881604  0.46849400  0.88177863  1
  O  O12  1  0.55113187  0.89001681  0.64072498  1
  O  O13  1  0.54929970  0.36611691  0.25345274  1
  O  O14  1  0.59091109  0.74861524  0.08535242  1
  O  O15  1  0.09521485  0.07782916  0.33941286  1
  O  O16  1  0.08501741  0.65594581  0.72859590  1
  O  O17  1  0.06113045  0.25474510  0.90218208  1
  O  O18  1  0.44886813  0.10998319  0.35927502  1
  O  O19  1  0.45070030  0.63388309  0.74654726  1
  O  O20  1  0.40908891  0.25138476  0.91464758  1
  O  O21  1  0.90478515  0.92217084  0.66058714  1
  O  O22  1  0.91498259  0.34405419  0.27140410  1
  O  O23  1  0.93886955  0.74525490  0.09781792  1
  F  F0  1  0.50000000  -0.00000000  -0.00000000  1
  F  F1  1  0.00000000  -0.00000000  -0.00000000  1
loop_
_geom_bond_atom_site_label_1
_geom_bond_atom_site_label_2
_geom_bond_distance
_geom_bond_site_symmetry_2
Ba0 O3 2.748012 1_555
Ba0 O5 2.753676 1_555
Ba0 O8 2.762600 1_555
Ba0 O4 2.784865 1_555
Ba0 O6 2.810839 1_555
Ba0 O13 2.817982 1_555
Ba0 O12 2.963122 1_555
Ba0 O7 3.055307 1_555
Ba0 O14 3.308912 1_555
Ba1 O1 2.706222 1_455
Ba1 O0 2.714431 1_455
Ba1 O2 2.735964 1_455
Ba1 O11 2.747565 1_555
Ba1 O9 2.767370 1_555
Ba1 O10 2.794336 1_555
Ba1 O17 2.852344 1_555
Ba2 O0 2.748012 1_555
Ba2 O2 2.753676 1_555
Ba2 O11 2.762600 1_555
Ba2 O1 2.784865 1_555
Ba2 O9 2.810839 1_555
Ba2 O19 2.817982 1_555
Ba2 O18 2.963122 1_555
Ba2 O10 3.055307 1_555
Ba2 O20 3.308912 1_555
Ba3 O4 2.706222 1_655
Ba3 O3 2.714431 1_655
Ba3 O5 2.735964 1_655
Ba3 O8 2.747565 1_555
Ba3 O6 2.767370 1_555
Ba3 O7 2.794336 1_555
Ba3 O23 2.852344 1_555
Ba4 O8 2.679856 1_555
Ba4 O13 2.722219 1_555
Ba4 O20 2.743770 1_554
Ba4 O17 2.751260 1_654
Ba4 O22 2.927859 1_555
Ba4 O0 2.997564 1_554
Ba4 F0 3.000075 1_555
Ba4 F1 3.344829 1_655
Ba5 O15 2.656099 1_655
Ba5 O6 2.718684 1_545
Ba5 O14 2.726085 1_545
Ba5 O18 2.758751 1_555
Ba5 O23 2.779325 1_545
Ba5 F1 3.086420 1_655
Ba5 F0 3.409166 1_555
Ba6 O19 2.598074 1_555
Ba6 O21 2.753530 1_555
Ba6 O7 2.789718 1_555
Ba6 O16 2.801412 1_655
Ba6 O12 2.978013 1_555
Ba6 F1 3.027957 1_666
Ba6 O2 3.028072 1_555
Ba6 F0 3.121750 1_566
Ba7 O11 2.679856 1_555
Ba7 O19 2.722219 1_555
Ba7 O14 2.743770 1_556
Ba7 O23 2.751260 1_456
Ba7 O16 2.927859 1_555
Ba7 O3 2.997564 1_556
Ba7 F0 3.000075 1_566
Ba7 F1 3.344829 1_566
Ba8 O21 2.656099 1_455
Ba8 O9 2.718684 1_565
Ba8 O20 2.726085 1_565
Ba8 O12 2.758751 1_555
Ba8 O17 2.779325 1_565
Ba8 F1 3.086420 1_566
Ba8 F0 3.409166 1_566
Ba9 O13 2.598074 1_555
Ba9 O15 2.753530 1_555
Ba9 O10 2.789718 1_555
Ba9 O22 2.801412 1_455
Ba9 O18 2.978013 1_555
Ba9 F1 3.027957 1_555
Ba9 O5 3.028072 1_555
Ba9 F0 3.121750 1_555
Mg0 O10 2.119536 1_555
Mg0 O7 2.119536 1_455
Mg0 O4 2.134291 1_555
Mg0 O1 2.134291 1_455
Mg0 O16 2.249115 1_555
Mg0 O22 2.249115 1_455
Mn0 O0 1.713287 1_565
Mn0 O12 1.717972 1_555
Mn0 O21 1.718749 1_555
Mn0 O6 1.726177 1_555
Mn1 O13 1.780699 1_555
Mn1 O22 1.801517 1_555
Mn1 O7 1.804721 1_555
Mn1 O1 1.853714 1_555
Mn2 O2 1.698861 1_554
Mn2 O14 1.714239 1_555
Mn2 O23 1.725985 1_555
Mn2 O8 1.726069 1_555
Mn3 O3 1.713287 1_545
Mn3 O18 1.717972 1_555
Mn3 O15 1.718749 1_555
Mn3 O9 1.726177 1_555
Mn4 O19 1.780699 1_555
Mn4 O16 1.801517 1_555
Mn4 O10 1.804721 1_555
Mn4 O4 1.853714 1_555
Mn5 O5 1.698860 1_556
Mn5 O20 1.714246 1_555
Mn5 O17 1.725990 1_555
Mn5 O11 1.726060 1_555
