# generated using pymatgen
data_PmPu3
_symmetry_space_group_name_H-M   'P 1'
_cell_length_a   6.95344970
_cell_length_b   6.95344970
_cell_length_c   5.55309400
_cell_angle_alpha   90.00000000
_cell_angle_beta   90.00000000
_cell_angle_gamma   119.99999717
_symmetry_Int_Tables_number   1
_chemical_formula_structural   PmPu3
_chemical_formula_sum   'Pm2 Pu6'
_cell_volume   232.52320701
_cell_formula_units_Z   2
loop_
 _symmetry_equiv_pos_site_id
 _symmetry_equiv_pos_as_xyz
  1  'x, y, z'
loop_
 _atom_site_type_symbol
 _atom_site_label
 _atom_site_symmetry_multiplicity
 _atom_site_fract_x
 _atom_site_fract_y
 _atom_site_fract_z
 _atom_site_occupancy
  Pm  Pm0  1  0.33333300  0.66666700  0.75000000  1
  Pm  Pm1  1  0.66666700  0.33333300  0.25000000  1
  Pu  Pu0  1  0.16230000  0.32460100  0.25000000  1
  Pu  Pu1  1  0.67539900  0.83770000  0.25000000  1
  Pu  Pu2  1  0.16230000  0.83770000  0.25000000  1
  Pu  Pu3  1  0.83770000  0.67539900  0.75000000  1
  Pu  Pu4  1  0.32460100  0.16230000  0.75000000  1
  Pu  Pu5  1  0.83770000  0.16230000  0.75000000  1
loop_
_geom_bond_atom_site_label_1
_geom_bond_atom_site_label_2
_geom_bond_distance
_geom_bond_site_symmetry_2
Pm0 Pu2 3.457210 1_555
Pm0 Pu2 3.457210 1_556
Pm0 Pu1 3.457210 1_556
Pm0 Pu0 3.457210 1_556
Pm0 Pu0 3.457210 1_555
Pm0 Pu1 3.457210 1_555
Pm0 Pu3 3.477116 1_455
Pm0 Pu4 3.477116 1_565
Pm0 Pu5 3.477123 1_455
Pm0 Pu5 3.477123 1_565
Pm0 Pu4 3.477129 1_555
Pm0 Pu3 3.477129 1_555
Pm1 Pu5 3.457210 1_554
Pm1 Pu5 3.457210 1_555
Pm1 Pu4 3.457210 1_555
Pm1 Pu4 3.457210 1_554
Pm1 Pu3 3.457210 1_555
Pm1 Pu3 3.457210 1_554
Pm1 Pu1 3.477116 1_545
Pm1 Pu0 3.477116 1_655
Pm1 Pu2 3.477123 1_545
Pm1 Pu2 3.477123 1_655
Pm1 Pu0 3.477129 1_555
Pm1 Pu1 3.477129 1_555
Pu0 Pu2 3.385642 1_545
Pu0 Pu1 3.385642 1_445
Pu0 Pu5 3.395593 1_455
Pu0 Pu5 3.395593 1_454
Pu0 Pu4 3.395600 1_554
Pu0 Pu4 3.395600 1_555
Pu0 Pu2 3.567808 1_555
Pu0 Pu1 3.567808 1_555
Pu1 Pu2 3.385642 1_655
Pu1 Pu5 3.395593 1_565
Pu1 Pu5 3.395593 1_564
Pu1 Pu3 3.395600 1_555
Pu1 Pu3 3.395600 1_554
Pu1 Pu2 3.567808 1_555
Pu2 Pu3 3.395593 1_454
Pu2 Pu3 3.395593 1_455
Pu2 Pu4 3.395593 1_564
Pu2 Pu4 3.395593 1_565
Pu3 Pu5 3.385642 1_565
Pu3 Pu4 3.385642 1_665
Pu3 Pu5 3.567808 1_555
Pu3 Pu4 3.567808 1_555
Pu4 Pu5 3.385642 1_455
Pu4 Pu5 3.567808 1_555
