# generated using pymatgen
data_K2ScHgI6
_symmetry_space_group_name_H-M   'P 1'
_cell_length_a   8.60969681
_cell_length_b   8.60969681
_cell_length_c   8.60969681
_cell_angle_alpha   60.00000000
_cell_angle_beta   60.00000000
_cell_angle_gamma   60.00000000
_symmetry_Int_Tables_number   1
_chemical_formula_structural   K2ScHgI6
_chemical_formula_sum   'K2 Sc1 Hg1 I6'
_cell_volume   451.28258741
_cell_formula_units_Z   1
loop_
 _symmetry_equiv_pos_site_id
 _symmetry_equiv_pos_as_xyz
  1  'x, y, z'
loop_
 _atom_site_type_symbol
 _atom_site_label
 _atom_site_symmetry_multiplicity
 _atom_site_fract_x
 _atom_site_fract_y
 _atom_site_fract_z
 _atom_site_occupancy
  K  K0  1  0.75000000  0.75000000  0.75000000  1
  K  K1  1  0.25000000  0.25000000  0.25000000  1
  Sc  Sc0  1  0.00000000  0.00000000  0.00000000  1
  Hg  Hg0  1  0.50000000  0.50000000  0.50000000  1
  I  I0  1  0.76187500  0.23812500  0.23812500  1
  I  I1  1  0.23812500  0.23812500  0.76187500  1
  I  I2  1  0.23812500  0.76187500  0.76187500  1
  I  I3  1  0.23812500  0.76187500  0.23812500  1
  I  I4  1  0.76187500  0.23812500  0.76187500  1
  I  I5  1  0.76187500  0.76187500  0.23812500  1
loop_
_geom_bond_atom_site_label_1
_geom_bond_atom_site_label_2
_geom_bond_distance
_geom_bond_site_symmetry_2
Hg0 I2 3.188577 1_555
Hg0 I3 3.188577 1_555
Hg0 I0 3.188577 1_555
Hg0 I1 3.188577 1_555
Hg0 I4 3.188577 1_555
Hg0 I5 3.188577 1_555
I0 Sc0 2.899398 1_655
I1 Sc0 2.899398 1_556
I2 Sc0 2.899398 1_566
I3 Sc0 2.899398 1_565
I4 Sc0 2.899398 1_656
I5 Sc0 2.899398 1_665
