# generated using pymatgen
data_Ce2B4(IrRh)3
_symmetry_space_group_name_H-M   'P 1'
_cell_length_a   6.20363800
_cell_length_b   11.03558828
_cell_length_c   19.10259032
_cell_angle_alpha   89.98650980
_cell_angle_beta   90.00000000
_cell_angle_gamma   90.00000000
_symmetry_Int_Tables_number   1
_chemical_formula_structural   Ce2B4(IrRh)3
_chemical_formula_sum   'Ce16 B32 Ir24 Rh24'
_cell_volume   1307.77847975
_cell_formula_units_Z   8
loop_
 _symmetry_equiv_pos_site_id
 _symmetry_equiv_pos_as_xyz
  1  'x, y, z'
loop_
 _atom_site_type_symbol
 _atom_site_label
 _atom_site_symmetry_multiplicity
 _atom_site_fract_x
 _atom_site_fract_y
 _atom_site_fract_z
 _atom_site_occupancy
  Ce  Ce0_0  1  0.00000000  0.49993400  0.49989400  1
  Ce  Ce0_1  1  0.00000000  0.49993400  0.99989400  1
  Ce  Ce0_2  1  0.00000000  0.99993400  0.49989400  1
  Ce  Ce0_3  1  0.00000000  0.99993400  0.99989400  1
  Ce  Ce0_4  1  0.50000000  0.49993400  0.49989400  1
  Ce  Ce0_5  1  0.50000000  0.49993400  0.99989400  1
  Ce  Ce0_6  1  0.50000000  0.99993400  0.49989400  1
  Ce  Ce0_7  1  0.50000000  0.99993400  0.99989400  1
  Ce  Ce1_0  1  0.00000000  0.25007150  0.25010600  1
  Ce  Ce1_1  1  0.00000000  0.25007150  0.75010600  1
  Ce  Ce1_2  1  0.00000000  0.75007150  0.25010600  1
  Ce  Ce1_3  1  0.00000000  0.75007150  0.75010600  1
  Ce  Ce1_4  1  0.50000000  0.25007150  0.25010600  1
  Ce  Ce1_5  1  0.50000000  0.25007150  0.75010600  1
  Ce  Ce1_6  1  0.50000000  0.75007150  0.25010600  1
  Ce  Ce1_7  1  0.50000000  0.75007150  0.75010600  1
  B  B0_0  1  0.00000000  0.49998550  0.16666100  1
  B  B0_1  1  0.00000000  0.49998550  0.66666100  1
  B  B0_2  1  0.00000000  0.99998550  0.16666100  1
  B  B0_3  1  0.00000000  0.99998550  0.66666100  1
  B  B0_4  1  0.50000000  0.49998550  0.16666100  1
  B  B0_5  1  0.50000000  0.49998550  0.66666100  1
  B  B0_6  1  0.50000000  0.99998550  0.16666100  1
  B  B0_7  1  0.50000000  0.99998550  0.66666100  1
  B  B1_0  1  0.00000000  0.25006400  0.41675300  1
  B  B1_1  1  0.00000000  0.25006400  0.91675300  1
  B  B1_2  1  0.00000000  0.75006400  0.41675300  1
  B  B1_3  1  0.00000000  0.75006400  0.91675300  1
  B  B1_4  1  0.50000000  0.25006400  0.41675300  1
  B  B1_5  1  0.50000000  0.25006400  0.91675300  1
  B  B1_6  1  0.50000000  0.75006400  0.41675300  1
  B  B1_7  1  0.50000000  0.75006400  0.91675300  1
  B  B2_0  1  0.00000000  0.24996900  0.08334300  1
  B  B2_1  1  0.00000000  0.24996900  0.58334300  1
  B  B2_2  1  0.00000000  0.74996900  0.08334300  1
  B  B2_3  1  0.00000000  0.74996900  0.58334300  1
  B  B2_4  1  0.50000000  0.24996900  0.08334300  1
  B  B2_5  1  0.50000000  0.24996900  0.58334300  1
  B  B2_6  1  0.50000000  0.74996900  0.08334300  1
  B  B2_7  1  0.50000000  0.74996900  0.58334300  1
  B  B3_0  1  0.00000000  0.49989400  0.33324400  1
  B  B3_1  1  0.00000000  0.49989400  0.83324400  1
  B  B3_2  1  0.00000000  0.99989400  0.33324400  1
  B  B3_3  1  0.00000000  0.99989400  0.83324400  1
  B  B3_4  1  0.50000000  0.49989400  0.33324400  1
  B  B3_5  1  0.50000000  0.49989400  0.83324400  1
  B  B3_6  1  0.50000000  0.99989400  0.33324400  1
  B  B3_7  1  0.50000000  0.99989400  0.83324400  1
  Ir  Ir0_0  1  0.25000000  0.00000150  0.25017300  1
  Ir  Ir0_1  1  0.25000000  0.00000150  0.75017300  1
  Ir  Ir0_2  1  0.25000000  0.50000150  0.25017300  1
  Ir  Ir0_3  1  0.25000000  0.50000150  0.75017300  1
  Ir  Ir0_4  1  0.75000000  0.00000150  0.25017300  1
  Ir  Ir0_5  1  0.75000000  0.00000150  0.75017300  1
  Ir  Ir0_6  1  0.75000000  0.50000150  0.25017300  1
  Ir  Ir0_7  1  0.75000000  0.50000150  0.75017300  1
  Ir  Ir1_0  1  0.25000000  0.25000650  0.49982200  1
  Ir  Ir1_1  1  0.25000000  0.25000650  0.99982200  1
  Ir  Ir1_2  1  0.25000000  0.75000650  0.49982200  1
  Ir  Ir1_3  1  0.25000000  0.75000650  0.99982200  1
  Ir  Ir1_4  1  0.75000000  0.25000650  0.49982200  1
  Ir  Ir1_5  1  0.75000000  0.25000650  0.99982200  1
  Ir  Ir1_6  1  0.75000000  0.75000650  0.49982200  1
  Ir  Ir1_7  1  0.75000000  0.75000650  0.99982200  1
  Ir  Ir2_0  1  0.25000000  0.12499700  0.12496650  1
  Ir  Ir2_1  1  0.25000000  0.12499700  0.62496650  1
  Ir  Ir2_2  1  0.25000000  0.62499700  0.12496650  1
  Ir  Ir2_3  1  0.25000000  0.62499700  0.62496650  1
  Ir  Ir2_4  1  0.75000000  0.12499700  0.12496650  1
  Ir  Ir2_5  1  0.75000000  0.12499700  0.62496650  1
  Ir  Ir2_6  1  0.75000000  0.62499700  0.12496650  1
  Ir  Ir2_7  1  0.75000000  0.62499700  0.62496650  1
  Rh  Rh0_0  1  0.25000000  0.37499200  0.37504550  1
  Rh  Rh0_1  1  0.25000000  0.37499200  0.87504550  1
  Rh  Rh0_2  1  0.25000000  0.87499200  0.37504550  1
  Rh  Rh0_3  1  0.25000000  0.87499200  0.87504550  1
  Rh  Rh0_4  1  0.75000000  0.37499200  0.37504550  1
  Rh  Rh0_5  1  0.75000000  0.37499200  0.87504550  1
  Rh  Rh0_6  1  0.75000000  0.87499200  0.37504550  1
  Rh  Rh0_7  1  0.75000000  0.87499200  0.87504550  1
  Rh  Rh1_0  1  0.25000000  0.37499800  0.12495200  1
  Rh  Rh1_1  1  0.25000000  0.37499800  0.62495200  1
  Rh  Rh1_2  1  0.25000000  0.87499800  0.12495200  1
  Rh  Rh1_3  1  0.25000000  0.87499800  0.62495200  1
  Rh  Rh1_4  1  0.75000000  0.37499800  0.12495200  1
  Rh  Rh1_5  1  0.75000000  0.37499800  0.62495200  1
  Rh  Rh1_6  1  0.75000000  0.87499800  0.12495200  1
  Rh  Rh1_7  1  0.75000000  0.87499800  0.62495200  1
  Rh  Rh2_0  1  0.25000000  0.12498700  0.37504000  1
  Rh  Rh2_1  1  0.25000000  0.12498700  0.87504000  1
  Rh  Rh2_2  1  0.25000000  0.62498700  0.37504000  1
  Rh  Rh2_3  1  0.25000000  0.62498700  0.87504000  1
  Rh  Rh2_4  1  0.75000000  0.12498700  0.37504000  1
  Rh  Rh2_5  1  0.75000000  0.12498700  0.87504000  1
  Rh  Rh2_6  1  0.75000000  0.62498700  0.37504000  1
  Rh  Rh2_7  1  0.75000000  0.62498700  0.87504000  1
loop_
_geom_bond_atom_site_label_1
_geom_bond_atom_site_label_2
_geom_bond_distance
_geom_bond_site_symmetry_2
Ce0_0 Ce0_4 3.101819 1_455
Ce0_0 Ce0_4 3.101819 1_555
Ce0_0 Rh0_4 3.161625 1_455
Ce0_0 Rh0_0 3.161625 1_555
Ce0_0 Rh2_2 3.161749 1_555
Ce0_0 Rh2_6 3.161749 1_455
Ce0_0 Rh1_1 3.164126 1_555
Ce0_0 Rh1_5 3.164126 1_455
Ce0_0 Ir1_4 3.164241 1_455
Ce0_0 Ir1_0 3.164241 1_555
Ce0_0 Ir2_7 3.165436 1_455
Ce0_0 Ir2_3 3.165436 1_555
Ce0_0 Ir1_6 3.165636 1_455
Ce0_0 Ir1_2 3.165636 1_555
Ce0_1 Ce0_5 3.101819 1_455
Ce0_1 Ce0_5 3.101819 1_555
Ce0_1 Rh0_5 3.161625 1_455
Ce0_1 Rh0_1 3.161625 1_555
Ce0_1 Rh2_7 3.161749 1_455
Ce0_1 Rh2_3 3.161749 1_555
Ce0_1 Rh1_4 3.164126 1_456
Ce0_1 Rh1_0 3.164126 1_556
Ce0_1 Ir1_1 3.164241 1_555
Ce0_1 Ir1_5 3.164241 1_455
Ce0_1 Ir2_6 3.165436 1_456
Ce0_1 Ir2_2 3.165436 1_556
Ce0_1 Ir1_7 3.165636 1_455
Ce0_1 Ir1_3 3.165636 1_555
Ce0_2 Ce0_6 3.101819 1_555
Ce0_2 Ce0_6 3.101819 1_455
Ce0_2 Rh0_6 3.161625 1_455
Ce0_2 Rh0_2 3.161625 1_555
Ce0_2 Rh2_0 3.161749 1_565
Ce0_2 Rh2_4 3.161749 1_465
Ce0_2 Rh1_3 3.164126 1_555
Ce0_2 Rh1_7 3.164126 1_455
Ce0_2 Ir1_2 3.164241 1_555
Ce0_2 Ir1_6 3.164241 1_455
Ce0_2 Ir2_5 3.165436 1_465
Ce0_2 Ir2_1 3.165436 1_565
Ce0_2 Ir1_4 3.165636 1_465
Ce0_2 Ir1_0 3.165636 1_565
Ce0_3 Ce0_7 3.101819 1_455
Ce0_3 Ce0_7 3.101819 1_555
Ce0_3 Rh0_7 3.161625 1_455
Ce0_3 Rh0_3 3.161625 1_555
Ce0_3 Rh2_1 3.161749 1_565
Ce0_3 Rh2_5 3.161749 1_465
Ce0_3 Rh1_6 3.164126 1_456
Ce0_3 Rh1_2 3.164126 1_556
Ce0_3 Ir1_7 3.164241 1_455
Ce0_3 Ir1_3 3.164241 1_555
Ce0_3 Ir2_4 3.165436 1_466
Ce0_3 Ir2_0 3.165436 1_566
Ce0_3 Ir1_5 3.165636 1_465
Ce0_3 Ir1_1 3.165636 1_565
Ce0_4 Rh0_0 3.161625 1_555
Ce0_4 Rh0_4 3.161625 1_555
Ce0_4 Rh2_2 3.161749 1_555
Ce0_4 Rh2_6 3.161749 1_555
Ce0_4 Rh1_1 3.164126 1_555
Ce0_4 Rh1_5 3.164126 1_555
Ce0_4 Ir1_4 3.164241 1_555
Ce0_4 Ir1_0 3.164241 1_555
Ce0_4 Ir2_3 3.165436 1_555
Ce0_4 Ir2_7 3.165436 1_555
Ce0_4 Ir1_6 3.165636 1_555
Ce0_4 Ir1_2 3.165636 1_555
Ce0_5 Rh0_5 3.161625 1_555
Ce0_5 Rh0_1 3.161625 1_555
Ce0_5 Rh2_3 3.161749 1_555
Ce0_5 Rh2_7 3.161749 1_555
Ce0_5 Rh1_4 3.164126 1_556
Ce0_5 Rh1_0 3.164126 1_556
Ce0_5 Ir1_1 3.164241 1_555
Ce0_5 Ir1_5 3.164241 1_555
Ce0_5 Ir2_2 3.165436 1_556
Ce0_5 Ir2_6 3.165436 1_556
Ce0_5 Ir1_3 3.165636 1_555
Ce0_5 Ir1_7 3.165636 1_555
Ce0_6 Rh0_6 3.161625 1_555
Ce0_6 Rh0_2 3.161625 1_555
Ce0_6 Rh2_0 3.161749 1_565
Ce0_6 Rh2_4 3.161749 1_565
Ce0_6 Rh1_3 3.164126 1_555
Ce0_6 Rh1_7 3.164126 1_555
Ce0_6 Ir1_2 3.164241 1_555
Ce0_6 Ir1_6 3.164241 1_555
Ce0_6 Ir2_1 3.165436 1_565
Ce0_6 Ir2_5 3.165436 1_565
Ce0_6 Ir1_4 3.165636 1_565
Ce0_6 Ir1_0 3.165636 1_565
Ce0_7 Rh0_3 3.161625 1_555
Ce0_7 Rh0_7 3.161625 1_555
Ce0_7 Rh2_1 3.161749 1_565
Ce0_7 Rh2_5 3.161749 1_565
Ce0_7 Rh1_2 3.164126 1_556
Ce0_7 Rh1_6 3.164126 1_556
Ce0_7 Ir1_3 3.164241 1_555
Ce0_7 Ir1_7 3.164241 1_555
Ce0_7 Ir2_0 3.165436 1_566
Ce0_7 Ir2_4 3.165436 1_566
Ce0_7 Ir1_1 3.165636 1_565
Ce0_7 Ir1_5 3.165636 1_565
Ce1_0 Ce1_4 3.101819 1_555
Ce1_0 Ce1_4 3.101819 1_455
Ce1_0 Rh0_4 3.162833 1_455
Ce1_0 Rh0_0 3.162833 1_555
Ce1_0 Rh2_4 3.163053 1_455
Ce1_0 Rh2_0 3.163053 1_555
Ce1_0 Ir0_6 3.164265 1_455
Ce1_0 Ir0_2 3.164265 1_555
Ce1_0 Rh1_4 3.165465 1_455
Ce1_0 Rh1_0 3.165465 1_555
Ce1_0 Ir0_4 3.165612 1_455
Ce1_0 Ir0_0 3.165612 1_555
Ce1_0 Ir2_4 3.166458 1_455
Ce1_0 Ir2_0 3.166458 1_555
Ce1_1 Ce1_5 3.101819 1_455
Ce1_1 Ce1_5 3.101819 1_555
Ce1_1 Rh0_5 3.162833 1_455
Ce1_1 Rh0_1 3.162833 1_555
Ce1_1 Rh2_5 3.163053 1_455
Ce1_1 Rh2_1 3.163053 1_555
Ce1_1 Ir0_7 3.164265 1_455
Ce1_1 Ir0_3 3.164265 1_555
Ce1_1 Rh1_5 3.165465 1_455
Ce1_1 Rh1_1 3.165465 1_555
Ce1_1 Ir0_5 3.165612 1_455
Ce1_1 Ir0_1 3.165612 1_555
Ce1_1 Ir2_5 3.166458 1_455
Ce1_1 Ir2_1 3.166458 1_555
Ce1_2 Ce1_6 3.101819 1_455
Ce1_2 Ce1_6 3.101819 1_555
Ce1_2 Rh0_6 3.162833 1_455
Ce1_2 Rh0_2 3.162833 1_555
Ce1_2 Rh2_6 3.163053 1_455
Ce1_2 Rh2_2 3.163053 1_555
Ce1_2 Ir0_4 3.164265 1_465
Ce1_2 Ir0_0 3.164265 1_565
Ce1_2 Rh1_6 3.165465 1_455
Ce1_2 Rh1_2 3.165465 1_555
Ce1_2 Ir0_6 3.165612 1_455
Ce1_2 Ir0_2 3.165612 1_555
Ce1_2 Ir2_6 3.166458 1_455
Ce1_2 Ir2_2 3.166458 1_555
Ce1_3 Ce1_7 3.101819 1_455
Ce1_3 Ce1_7 3.101819 1_555
Ce1_3 Rh0_7 3.162833 1_455
Ce1_3 Rh0_3 3.162833 1_555
Ce1_3 Rh2_7 3.163053 1_455
Ce1_3 Rh2_3 3.163053 1_555
Ce1_3 Ir0_5 3.164265 1_465
Ce1_3 Ir0_1 3.164265 1_565
Ce1_3 Rh1_7 3.165465 1_455
Ce1_3 Rh1_3 3.165465 1_555
Ce1_3 Ir0_7 3.165612 1_455
Ce1_3 Ir0_3 3.165612 1_555
Ce1_3 Ir2_7 3.166458 1_455
Ce1_3 Ir2_3 3.166458 1_555
Ce1_4 Rh0_0 3.162833 1_555
Ce1_4 Rh0_4 3.162833 1_555
Ce1_4 Rh2_4 3.163053 1_555
Ce1_4 Rh2_0 3.163053 1_555
Ce1_4 Ir0_2 3.164265 1_555
Ce1_4 Ir0_6 3.164265 1_555
Ce1_4 Rh1_0 3.165465 1_555
Ce1_4 Rh1_4 3.165465 1_555
Ce1_4 Ir0_4 3.165612 1_555
Ce1_4 Ir0_0 3.165612 1_555
Ce1_4 Ir2_0 3.166458 1_555
Ce1_4 Ir2_4 3.166458 1_555
Ce1_5 Rh0_1 3.162833 1_555
Ce1_5 Rh0_5 3.162833 1_555
Ce1_5 Rh2_1 3.163053 1_555
Ce1_5 Rh2_5 3.163053 1_555
Ce1_5 Ir0_3 3.164265 1_555
Ce1_5 Ir0_7 3.164265 1_555
Ce1_5 Rh1_1 3.165465 1_555
Ce1_5 Rh1_5 3.165465 1_555
Ce1_5 Ir0_1 3.165612 1_555
Ce1_5 Ir0_5 3.165612 1_555
Ce1_5 Ir2_1 3.166458 1_555
Ce1_5 Ir2_5 3.166458 1_555
Ce1_6 Rh0_2 3.162833 1_555
Ce1_6 Rh0_6 3.162833 1_555
Ce1_6 Rh2_2 3.163053 1_555
Ce1_6 Rh2_6 3.163053 1_555
Ce1_6 Ir0_4 3.164265 1_565
Ce1_6 Ir0_0 3.164265 1_565
Ce1_6 Rh1_2 3.165465 1_555
Ce1_6 Rh1_6 3.165465 1_555
Ce1_6 Ir0_2 3.165612 1_555
Ce1_6 Ir0_6 3.165612 1_555
Ce1_6 Ir2_2 3.166458 1_555
Ce1_6 Ir2_6 3.166458 1_555
Ce1_7 Rh0_3 3.162833 1_555
Ce1_7 Rh0_7 3.162833 1_555
Ce1_7 Rh2_3 3.163053 1_555
Ce1_7 Rh2_7 3.163053 1_555
Ce1_7 Ir0_1 3.164265 1_565
Ce1_7 Ir0_5 3.164265 1_565
Ce1_7 Rh1_7 3.165465 1_555
Ce1_7 Rh1_3 3.165465 1_555
Ce1_7 Ir0_7 3.165612 1_555
Ce1_7 Ir0_3 3.165612 1_555
Ce1_7 Ir2_3 3.166458 1_555
Ce1_7 Ir2_7 3.166458 1_555
B0_0 Ir2_6 2.223151 1_455
B0_0 Ir2_2 2.223151 1_555
B0_0 Rh1_4 2.223319 1_455
B0_0 Rh1_0 2.223319 1_555
B0_0 Ir0_6 2.224924 1_455
B0_0 Ir0_2 2.224924 1_555
B0_0 Ce1_0 3.185136 1_555
B0_0 Ce0_1 3.185682 1_554
B0_0 Ce1_2 3.187430 1_555
B0_1 Ir2_7 2.223151 1_455
B0_1 Ir2_3 2.223151 1_555
B0_1 Rh1_5 2.223319 1_455
B0_1 Rh1_1 2.223319 1_555
B0_1 Ir0_7 2.224924 1_455
B0_1 Ir0_3 2.224924 1_555
B0_1 Ce1_1 3.185136 1_555
B0_1 Ce0_0 3.185682 1_555
B0_1 Ce1_3 3.187430 1_555
B0_2 Ir2_4 2.223151 1_465
B0_2 Ir2_0 2.223151 1_565
B0_2 Rh1_6 2.223319 1_455
B0_2 Rh1_2 2.223319 1_555
B0_2 Ir0_4 2.224924 1_465
B0_2 Ir0_0 2.224924 1_565
B0_2 Ce1_2 3.185136 1_555
B0_2 Ce0_3 3.185682 1_554
B0_2 Ce1_0 3.187430 1_565
B0_3 Ir2_5 2.223151 1_465
B0_3 Ir2_1 2.223151 1_565
B0_3 Rh1_7 2.223319 1_455
B0_3 Rh1_3 2.223319 1_555
B0_3 Ir0_5 2.224924 1_465
B0_3 Ir0_1 2.224924 1_565
B0_3 Ce1_3 3.185136 1_555
B0_3 Ce0_2 3.185682 1_555
B0_3 Ce1_1 3.187430 1_565
B0_4 Ir2_2 2.223151 1_555
B0_4 Ir2_6 2.223151 1_555
B0_4 Rh1_0 2.223319 1_555
B0_4 Rh1_4 2.223319 1_555
B0_4 Ir0_2 2.224924 1_555
B0_4 Ir0_6 2.224924 1_555
B0_4 Ce1_4 3.185136 1_555
B0_4 Ce0_5 3.185682 1_554
B0_4 Ce1_6 3.187430 1_555
B0_5 Ir2_3 2.223151 1_555
B0_5 Ir2_7 2.223151 1_555
B0_5 Rh1_1 2.223319 1_555
B0_5 Rh1_5 2.223319 1_555
B0_5 Ir0_3 2.224924 1_555
B0_5 Ir0_7 2.224924 1_555
B0_5 Ce1_5 3.185136 1_555
B0_5 Ce0_4 3.185682 1_555
B0_5 Ce1_7 3.187430 1_555
B0_6 Ir2_0 2.223151 1_565
B0_6 Ir2_4 2.223151 1_565
B0_6 Rh1_2 2.223319 1_555
B0_6 Rh1_6 2.223319 1_555
B0_6 Ir0_0 2.224924 1_565
B0_6 Ir0_4 2.224924 1_565
B0_6 Ce1_6 3.185136 1_555
B0_6 Ce0_7 3.185682 1_554
B0_6 Ce1_4 3.187430 1_565
B0_7 Ir2_1 2.223151 1_565
B0_7 Ir2_5 2.223151 1_565
B0_7 Rh1_3 2.223319 1_555
B0_7 Rh1_7 2.223319 1_555
B0_7 Ir0_1 2.224924 1_565
B0_7 Ir0_5 2.224924 1_565
B0_7 Ce1_7 3.185136 1_555
B0_7 Ce0_6 3.185682 1_555
B0_7 Ce1_5 3.187430 1_565
B1_0 Ir1_4 2.218864 1_455
B1_0 Ir1_0 2.218864 1_555
B1_0 Rh0_4 2.222668 1_455
B1_0 Rh0_0 2.222668 1_555
B1_0 Rh2_4 2.223959 1_455
B1_0 Rh2_0 2.223959 1_555
B1_0 Ce0_0 3.182462 1_555
B1_0 Ce1_0 3.183389 1_555
B1_0 Ce0_2 3.184301 1_545
B1_1 Ir1_5 2.218864 1_455
B1_1 Ir1_1 2.218864 1_555
B1_1 Rh0_5 2.222668 1_455
B1_1 Rh0_1 2.222668 1_555
B1_1 Rh2_5 2.223959 1_455
B1_1 Rh2_1 2.223959 1_555
B1_1 Ce0_1 3.182462 1_555
B1_1 Ce1_1 3.183389 1_555
B1_1 Ce0_3 3.184301 1_545
B1_2 Ir1_6 2.218864 1_455
B1_2 Ir1_2 2.218864 1_555
B1_2 Rh0_6 2.222668 1_455
B1_2 Rh0_2 2.222668 1_555
B1_2 Rh2_6 2.223959 1_455
B1_2 Rh2_2 2.223959 1_555
B1_2 Ce0_2 3.182462 1_555
B1_2 Ce1_2 3.183389 1_555
B1_2 Ce0_0 3.184301 1_555
B1_3 Ir1_7 2.218864 1_455
B1_3 Ir1_3 2.218864 1_555
B1_3 Rh0_7 2.222668 1_455
B1_3 Rh0_3 2.222668 1_555
B1_3 Rh2_7 2.223959 1_455
B1_3 Rh2_3 2.223959 1_555
B1_3 Ce0_3 3.182462 1_555
B1_3 Ce1_3 3.183389 1_555
B1_3 Ce0_1 3.184301 1_555
B1_4 Ir1_0 2.218864 1_555
B1_4 Ir1_4 2.218864 1_555
B1_4 Rh0_0 2.222668 1_555
B1_4 Rh0_4 2.222668 1_555
B1_4 Rh2_0 2.223959 1_555
B1_4 Rh2_4 2.223959 1_555
B1_4 Ce0_4 3.182462 1_555
B1_4 Ce1_4 3.183389 1_555
B1_4 Ce0_6 3.184301 1_545
B1_5 Ir1_1 2.218864 1_555
B1_5 Ir1_5 2.218864 1_555
B1_5 Rh0_1 2.222668 1_555
B1_5 Rh0_5 2.222668 1_555
B1_5 Rh2_1 2.223959 1_555
B1_5 Rh2_5 2.223959 1_555
B1_5 Ce0_5 3.182462 1_555
B1_5 Ce1_5 3.183389 1_555
B1_5 Ce0_7 3.184301 1_545
B1_6 Ir1_2 2.218864 1_555
B1_6 Ir1_6 2.218864 1_555
B1_6 Rh0_2 2.222668 1_555
B1_6 Rh0_6 2.222668 1_555
B1_6 Rh2_2 2.223959 1_555
B1_6 Rh2_6 2.223959 1_555
B1_6 Ce0_6 3.182462 1_555
B1_6 Ce1_6 3.183389 1_555
B1_6 Ce0_4 3.184301 1_555
B1_7 Ir1_3 2.218864 1_555
B1_7 Ir1_7 2.218864 1_555
B1_7 Rh0_3 2.222668 1_555
B1_7 Rh0_7 2.222668 1_555
B1_7 Rh2_3 2.223959 1_555
B1_7 Rh2_7 2.223959 1_555
B1_7 Ce0_7 3.182462 1_555
B1_7 Ce1_7 3.183389 1_555
B1_7 Ce0_5 3.184301 1_555
B2_0 Ir2_4 2.222395 1_455
B2_0 Ir2_0 2.222395 1_555
B2_0 Rh1_4 2.222919 1_455
B2_0 Rh1_0 2.222919 1_555
B2_0 Ir1_5 2.225048 1_454
B2_0 Ir1_1 2.225048 1_554
B2_0 Ce1_0 3.185606 1_555
B2_0 Ce0_1 3.185662 1_554
B2_0 Ce0_3 3.186981 1_544
B2_1 Ir2_5 2.222395 1_455
B2_1 Ir2_1 2.222395 1_555
B2_1 Rh1_5 2.222919 1_455
B2_1 Rh1_1 2.222919 1_555
B2_1 Ir1_4 2.225048 1_455
B2_1 Ir1_0 2.225048 1_555
B2_1 Ce1_1 3.185606 1_555
B2_1 Ce0_0 3.185662 1_555
B2_1 Ce0_2 3.186981 1_545
B2_2 Ir2_6 2.222395 1_455
B2_2 Ir2_2 2.222395 1_555
B2_2 Rh1_6 2.222919 1_455
B2_2 Rh1_2 2.222919 1_555
B2_2 Ir1_7 2.225048 1_454
B2_2 Ir1_3 2.225048 1_554
B2_2 Ce1_2 3.185606 1_555
B2_2 Ce0_3 3.185662 1_554
B2_2 Ce0_1 3.186981 1_554
B2_3 Ir2_7 2.222395 1_455
B2_3 Ir2_3 2.222395 1_555
B2_3 Rh1_3 2.222919 1_555
B2_3 Rh1_7 2.222919 1_455
B2_3 Ir1_6 2.225048 1_455
B2_3 Ir1_2 2.225048 1_555
B2_3 Ce1_3 3.185606 1_555
B2_3 Ce0_2 3.185662 1_555
B2_3 Ce0_0 3.186981 1_555
B2_4 Ir2_0 2.222395 1_555
B2_4 Ir2_4 2.222395 1_555
B2_4 Rh1_0 2.222919 1_555
B2_4 Rh1_4 2.222919 1_555
B2_4 Ir1_1 2.225048 1_554
B2_4 Ir1_5 2.225048 1_554
B2_4 Ce1_4 3.185606 1_555
B2_4 Ce0_5 3.185662 1_554
B2_4 Ce0_7 3.186981 1_544
B2_5 Ir2_5 2.222395 1_555
B2_5 Ir2_1 2.222395 1_555
B2_5 Rh1_1 2.222919 1_555
B2_5 Rh1_5 2.222919 1_555
B2_5 Ir1_0 2.225048 1_555
B2_5 Ir1_4 2.225048 1_555
B2_5 Ce1_5 3.185606 1_555
B2_5 Ce0_4 3.185662 1_555
B2_5 Ce0_6 3.186981 1_545
B2_6 Ir2_2 2.222395 1_555
B2_6 Ir2_6 2.222395 1_555
B2_6 Rh1_2 2.222919 1_555
B2_6 Rh1_6 2.222919 1_555
B2_6 Ir1_3 2.225048 1_554
B2_6 Ir1_7 2.225048 1_554
B2_6 Ce1_6 3.185606 1_555
B2_6 Ce0_7 3.185662 1_554
B2_6 Ce0_5 3.186981 1_554
B2_7 Ir2_3 2.222395 1_555
B2_7 Ir2_7 2.222395 1_555
B2_7 Rh1_3 2.222919 1_555
B2_7 Rh1_7 2.222919 1_555
B2_7 Ir1_2 2.225048 1_555
B2_7 Ir1_6 2.225048 1_555
B2_7 Ce1_7 3.185606 1_555
B2_7 Ce0_6 3.185662 1_555
B2_7 Ce0_4 3.186981 1_555
B3_0 Ir0_6 2.218892 1_455
B3_0 Ir0_2 2.218892 1_555
B3_0 Rh0_4 2.223134 1_455
B3_0 Rh0_0 2.223134 1_555
B3_0 Rh2_6 2.224637 1_455
B3_0 Rh2_2 2.224637 1_555
B3_0 Ce1_0 3.181980 1_555
B3_0 Ce0_0 3.183447 1_555
B3_0 Ce1_2 3.184727 1_555
B3_1 Ir0_7 2.218892 1_455
B3_1 Ir0_3 2.218892 1_555
B3_1 Rh0_5 2.223134 1_455
B3_1 Rh0_1 2.223134 1_555
B3_1 Rh2_7 2.224637 1_455
B3_1 Rh2_3 2.224637 1_555
B3_1 Ce1_1 3.181980 1_555
B3_1 Ce0_1 3.183447 1_555
B3_1 Ce1_3 3.184727 1_555
B3_2 Ir0_4 2.218892 1_465
B3_2 Ir0_0 2.218892 1_565
B3_2 Rh0_6 2.223134 1_455
B3_2 Rh0_2 2.223134 1_555
B3_2 Rh2_4 2.224637 1_465
B3_2 Rh2_0 2.224637 1_565
B3_2 Ce1_2 3.181980 1_555
B3_2 Ce0_2 3.183447 1_555
B3_2 Ce1_0 3.184727 1_565
B3_3 Ir0_5 2.218892 1_465
B3_3 Ir0_1 2.218892 1_565
B3_3 Rh0_7 2.223134 1_455
B3_3 Rh0_3 2.223134 1_555
B3_3 Rh2_5 2.224637 1_465
B3_3 Rh2_1 2.224637 1_565
B3_3 Ce1_3 3.181980 1_555
B3_3 Ce0_3 3.183447 1_555
B3_3 Ce1_1 3.184727 1_565
B3_4 Ir0_2 2.218892 1_555
B3_4 Ir0_6 2.218892 1_555
B3_4 Rh0_0 2.223134 1_555
B3_4 Rh0_4 2.223134 1_555
B3_4 Rh2_2 2.224637 1_555
B3_4 Rh2_6 2.224637 1_555
B3_4 Ce1_4 3.181980 1_555
B3_4 Ce0_4 3.183447 1_555
B3_4 Ce1_6 3.184727 1_555
B3_5 Ir0_3 2.218892 1_555
B3_5 Ir0_7 2.218892 1_555
B3_5 Rh0_1 2.223134 1_555
B3_5 Rh0_5 2.223134 1_555
B3_5 Rh2_3 2.224637 1_555
B3_5 Rh2_7 2.224637 1_555
B3_5 Ce1_5 3.181980 1_555
B3_5 Ce0_5 3.183447 1_555
B3_5 Ce1_7 3.184727 1_555
B3_6 Ir0_0 2.218892 1_565
B3_6 Ir0_4 2.218892 1_565
B3_6 Rh0_2 2.223134 1_555
B3_6 Rh0_6 2.223134 1_555
B3_6 Rh2_0 2.224637 1_565
B3_6 Rh2_4 2.224637 1_565
B3_6 Ce1_6 3.181980 1_555
B3_6 Ce0_6 3.183447 1_555
B3_6 Ce1_4 3.184727 1_565
B3_7 Ir0_1 2.218892 1_565
B3_7 Ir0_5 2.218892 1_565
B3_7 Rh0_3 2.223134 1_555
B3_7 Rh0_7 2.223134 1_555
B3_7 Rh2_1 2.224637 1_565
B3_7 Rh2_5 2.224637 1_565
B3_7 Ce1_7 3.181980 1_555
B3_7 Ce0_7 3.183447 1_555
B3_7 Ce1_5 3.184727 1_565
