# generated using pymatgen
data_TaIr3
_symmetry_space_group_name_H-M   'P 1'
_cell_length_a   5.55212247
_cell_length_b   5.55212247
_cell_length_c   4.46028531
_cell_angle_alpha   90.00000000
_cell_angle_beta   90.00000000
_cell_angle_gamma   120.00000061
_symmetry_Int_Tables_number   1
_chemical_formula_structural   TaIr3
_chemical_formula_sum   'Ta2 Ir6'
_cell_volume   119.07246487
_cell_formula_units_Z   2
loop_
 _symmetry_equiv_pos_site_id
 _symmetry_equiv_pos_as_xyz
  1  'x, y, z'
loop_
 _atom_site_type_symbol
 _atom_site_label
 _atom_site_symmetry_multiplicity
 _atom_site_fract_x
 _atom_site_fract_y
 _atom_site_fract_z
 _atom_site_occupancy
  Ta  Ta0  1  0.33333300  0.66666700  0.75000000  1
  Ta  Ta1  1  0.66666700  0.33333300  0.25000000  1
  Ir  Ir0  1  0.16411129  0.32822357  0.25000000  1
  Ir  Ir1  1  0.67177643  0.83588871  0.25000000  1
  Ir  Ir2  1  0.16411129  0.83588871  0.25000000  1
  Ir  Ir3  1  0.83588871  0.67177643  0.75000000  1
  Ir  Ir4  1  0.32822357  0.16411129  0.75000000  1
  Ir  Ir5  1  0.83588871  0.16411129  0.75000000  1
loop_
_geom_bond_atom_site_label_1
_geom_bond_atom_site_label_2
_geom_bond_distance
_geom_bond_site_symmetry_2
Ir0 Ir5 2.732070 1_455
Ir0 Ir5 2.732070 1_454
Ir0 Ir4 2.732076 1_554
Ir0 Ir4 2.732076 1_555
Ir0 Ir1 2.733503 1_445
Ir0 Ir2 2.733503 1_545
Ir0 Ta0 2.760750 1_555
Ir0 Ta0 2.760750 1_554
Ir0 Ta1 2.776164 1_455
Ir0 Ta1 2.776175 1_555
Ir0 Ir1 2.818619 1_555
Ir0 Ir2 2.818619 1_555
Ir1 Ir5 2.732070 1_564
Ir1 Ir5 2.732070 1_565
Ir1 Ir3 2.732076 1_554
Ir1 Ir3 2.732076 1_555
Ir1 Ir2 2.733503 1_655
Ir1 Ta0 2.760750 1_554
Ir1 Ta0 2.760750 1_555
Ir1 Ta1 2.776164 1_565
Ir1 Ta1 2.776175 1_555
Ir1 Ir2 2.818619 1_555
Ir2 Ir4 2.732070 1_565
Ir2 Ir4 2.732070 1_564
Ir2 Ir3 2.732070 1_455
Ir2 Ir3 2.732070 1_454
Ir2 Ta0 2.760750 1_554
Ir2 Ta0 2.760750 1_555
Ir2 Ta1 2.776170 1_455
Ir2 Ta1 2.776170 1_565
Ir3 Ir4 2.733503 1_665
Ir3 Ir5 2.733503 1_565
Ir3 Ta1 2.760750 1_555
Ir3 Ta1 2.760750 1_556
Ir3 Ta0 2.776164 1_655
Ir3 Ta0 2.776175 1_555
Ir3 Ir4 2.818619 1_555
Ir3 Ir5 2.818619 1_555
Ir4 Ir5 2.733503 1_455
Ir4 Ta1 2.760750 1_555
Ir4 Ta1 2.760750 1_556
Ir4 Ta0 2.776164 1_545
Ir4 Ta0 2.776175 1_555
Ir4 Ir5 2.818619 1_555
Ir5 Ta1 2.760750 1_555
Ir5 Ta1 2.760750 1_556
Ir5 Ta0 2.776170 1_545
Ir5 Ta0 2.776170 1_655
