# generated using pymatgen
data_ZrGa2Ni
_symmetry_space_group_name_H-M   'P 1'
_cell_length_a   9.58233770
_cell_length_b   9.58233770
_cell_length_c   9.58233770
_cell_angle_alpha   100.21591727
_cell_angle_beta   100.21591727
_cell_angle_gamma   130.18694941
_symmetry_Int_Tables_number   1
_chemical_formula_structural   ZrGa2Ni
_chemical_formula_sum   'Zr10 Ga20 Ni10'
_cell_volume   609.65029452
_cell_formula_units_Z   10
loop_
 _symmetry_equiv_pos_site_id
 _symmetry_equiv_pos_as_xyz
  1  'x, y, z'
loop_
 _atom_site_type_symbol
 _atom_site_label
 _atom_site_symmetry_multiplicity
 _atom_site_fract_x
 _atom_site_fract_y
 _atom_site_fract_z
 _atom_site_occupancy
  Zr  Zr0  1  0.87190038  0.15834147  0.28644109  1
  Zr  Zr1  1  0.87190038  0.58545929  0.71355891  1
  Zr  Zr2  1  0.58545929  0.87190038  0.71355891  1
  Zr  Zr3  1  0.15834147  0.87190038  0.28644109  1
  Zr  Zr4  1  0.15992784  0.15992784  0.59312293  1
  Zr  Zr5  1  0.56680391  0.56680391  0.40687707  1
  Zr  Zr6  1  0.15992784  0.56680391  0.00000000  1
  Zr  Zr7  1  0.56680391  0.15992784  0.00000000  1
  Zr  Zr8  1  0.93374081  0.93374081  0.00000000  1
  Zr  Zr9  1  0.49236360  0.49236360  -0.00000000  1
  Ga  Ga0  1  0.47449960  0.96738038  0.21142660  1
  Ga  Ga1  1  0.75595379  0.26307300  0.78857340  1
  Ga  Ga2  1  0.47449960  0.26307300  0.50711922  1
  Ga  Ga3  1  0.75595379  0.96738038  0.49288078  1
  Ga  Ga4  1  0.26307300  0.75595379  0.78857340  1
  Ga  Ga5  1  0.96738038  0.47449960  0.21142660  1
  Ga  Ga6  1  0.96738038  0.75595379  0.49288078  1
  Ga  Ga7  1  0.26307300  0.47449960  0.50711922  1
  Ga  Ga8  1  0.20425690  0.36331333  0.15905644  1
  Ga  Ga9  1  0.20425690  0.04519946  0.84094356  1
  Ga  Ga10  1  0.04519946  0.20425690  0.84094356  1
  Ga  Ga11  1  0.36331333  0.20425690  0.15905644  1
  Ga  Ga12  1  0.35229227  0.73467681  0.38238454  1
  Ga  Ga13  1  0.35229227  0.96990772  0.61761546  1
  Ga  Ga14  1  0.96990772  0.35229227  0.61761546  1
  Ga  Ga15  1  0.73467681  0.35229227  0.38238454  1
  Ga  Ga16  1  0.57683194  0.57683194  0.73243064  1
  Ga  Ga17  1  0.84440130  0.84440130  0.26756936  1
  Ga  Ga18  1  0.57683194  0.84440130  0.00000000  1
  Ga  Ga19  1  0.84440130  0.57683194  0.00000000  1
  Ni  Ni0  1  0.51592711  0.73339302  0.21746590  1
  Ni  Ni1  1  0.51592711  0.29846121  0.78253410  1
  Ni  Ni2  1  0.29846121  0.51592711  0.78253410  1
  Ni  Ni3  1  0.73339302  0.51592711  0.21746590  1
  Ni  Ni4  1  0.86584923  0.86584923  0.67493284  1
  Ni  Ni5  1  0.19091639  0.19091639  0.32506716  1
  Ni  Ni6  1  0.86584923  0.19091639  -0.00000000  1
  Ni  Ni7  1  0.19091639  0.86584923  -0.00000000  1
  Ni  Ni8  1  0.10055910  0.60055910  0.50000000  1
  Ni  Ni9  1  0.60055910  0.10055910  0.50000000  1
loop_
_geom_bond_atom_site_label_1
_geom_bond_atom_site_label_2
_geom_bond_distance
_geom_bond_site_symmetry_2
Ga0 Ni9 2.511587 1_565
Ga0 Ni7 2.524147 1_555
Ga0 Ni0 2.524822 1_555
Ga0 Ga15 2.654022 1_565
Ga0 Ga12 2.762861 1_555
Ga0 Ga18 2.793543 1_555
Ga0 Zr0 2.817050 1_565
Ga0 Zr3 2.821420 1_555
Ga0 Zr6 2.840320 1_555
Ga0 Zr7 2.854210 1_565
Ga1 Ni9 2.511587 1_555
Ga1 Ni6 2.524147 1_556
Ga1 Ni1 2.524822 1_555
Ga1 Ga14 2.654022 1_555
Ga1 Ga13 2.762861 1_545
Ga1 Ga19 2.793543 1_556
Ga1 Zr1 2.817050 1_555
Ga1 Zr2 2.821420 1_545
Ga1 Zr7 2.840320 1_556
Ga1 Zr6 2.854210 1_656
Ga2 Ni9 2.511587 1_555
Ga2 Ni5 2.524147 1_555
Ga2 Ni1 2.524822 1_555
Ga2 Zr1 2.817050 1_555
Ga2 Zr3 2.821420 1_545
Ga2 Zr4 2.840315 1_555
Ga2 Zr5 2.854204 1_555
Ga3 Ni9 2.511587 1_565
Ga3 Ni4 2.524147 1_555
Ga3 Ni0 2.524822 1_555
Ga3 Zr0 2.817050 1_565
Ga3 Zr2 2.821420 1_555
Ga3 Zr5 2.840320 1_555
Ga3 Zr4 2.854210 1_665
Ga4 Ni8 2.511587 1_555
Ga4 Ni7 2.524147 1_556
Ga4 Ni2 2.524822 1_555
Ga4 Zr2 2.817050 1_555
Ga4 Zr1 2.821420 1_455
Ga4 Zr6 2.840320 1_556
Ga4 Zr7 2.854210 1_566
Ga5 Ni8 2.511587 1_655
Ga5 Ni6 2.524147 1_555
Ga5 Ni3 2.524822 1_555
Ga5 Zr3 2.817050 1_655
Ga5 Zr0 2.821420 1_555
Ga5 Zr7 2.840320 1_555
Ga5 Zr6 2.854210 1_655
Ga6 Ni8 2.511587 1_655
Ga6 Ni4 2.524147 1_555
Ga6 Ni3 2.524822 1_555
Ga6 Zr3 2.817050 1_655
Ga6 Zr1 2.821420 1_555
Ga6 Zr5 2.840320 1_555
Ga6 Zr4 2.854210 1_665
Ga7 Ni8 2.511587 1_555
Ga7 Ni5 2.524147 1_555
Ga7 Ni2 2.524822 1_555
Ga7 Zr2 2.817050 1_555
Ga7 Zr0 2.821420 1_455
Ga7 Zr4 2.840315 1_555
Ga7 Zr5 2.854204 1_555
Ga8 Ni5 2.451048 1_555
Ga8 Ni6 2.451048 1_455
Ga8 Ni0 2.615930 1_555
Ga8 Zr6 2.863403 1_555
Ga8 Zr5 2.863407 1_555
Ga8 Zr8 2.930684 1_445
Ga8 Zr9 3.037930 1_555
Ga8 Zr0 3.105953 1_455
Ga9 Ni7 2.451041 1_546
Ga9 Ni4 2.451051 1_445
Ga9 Ni1 2.615932 1_555
Ga9 Zr7 2.863398 1_556
Ga9 Zr4 2.863417 1_555
Ga9 Zr8 2.930685 1_446
Ga9 Zr9 3.037937 1_556
Ga9 Zr1 3.105947 1_445
Ga10 Ni6 2.451041 1_456
Ga10 Ni4 2.451051 1_445
Ga10 Ni2 2.615932 1_555
Ga10 Ga8 2.764764 1_556
Ga10 Ga9 2.764782 1_555
Ga10 Zr6 2.863398 1_556
Ga10 Zr4 2.863417 1_555
Ga10 Zr8 2.930685 1_446
Ga10 Ga14 2.993707 1_455
Ga10 Zr9 3.037937 1_556
Ga10 Zr2 3.105947 1_445
Ga11 Ni5 2.451048 1_555
Ga11 Ni7 2.451048 1_545
Ga11 Ni3 2.615930 1_555
Ga11 Ga8 2.764764 1_555
Ga11 Ga9 2.764764 1_554
Ga11 Zr7 2.863403 1_555
Ga11 Zr5 2.863407 1_555
Ga11 Zr8 2.930684 1_445
Ga11 Ga15 2.993711 1_555
Ga11 Zr9 3.037930 1_555
Ga11 Zr3 3.105953 1_545
Ga12 Ni0 2.419321 1_555
Ga12 Ni9 2.470808 1_565
Ga12 Ni8 2.493550 1_555
Ga12 Ga5 2.654022 1_455
Ga12 Ga7 2.654022 1_555
Ga12 Ga3 2.762861 1_555
Ga12 Ga13 2.891254 1_555
Ga12 Ga8 2.993711 1_555
Ga12 Zr3 3.000813 1_555
Ga12 Zr2 3.000813 1_555
Ga12 Zr6 3.331367 1_555
Ga12 Zr5 3.331368 1_555
Ga13 Ni1 2.419321 1_565
Ga13 Ni9 2.470808 1_565
Ga13 Ni8 2.493550 1_555
Ga13 Ga4 2.654022 1_555
Ga13 Ga6 2.654022 1_455
Ga13 Ga2 2.762861 1_565
Ga13 Ga9 2.993707 1_565
Ga13 Zr2 3.000813 1_555
Ga13 Zr3 3.000814 1_555
Ga13 Zr7 3.331367 1_566
Ga13 Zr4 3.331368 1_565
Ga14 Ni2 2.419321 1_655
Ga14 Ni8 2.470808 1_655
Ga14 Ni9 2.493550 1_555
Ga14 Ga3 2.654022 1_545
Ga14 Ga4 2.762861 1_655
Ga14 Ga7 2.762861 1_655
Ga14 Ga15 2.891254 1_555
Ga14 Zr1 3.000813 1_555
Ga14 Zr0 3.000814 1_555
Ga14 Zr6 3.331367 1_656
Ga14 Zr4 3.331368 1_655
Ga15 Ni3 2.419321 1_555
Ga15 Ni8 2.470808 1_655
Ga15 Ni9 2.493550 1_555
Ga15 Ga2 2.654022 1_555
Ga15 Ga5 2.762861 1_555
Ga15 Ga6 2.762861 1_555
Ga15 Zr0 3.000813 1_555
Ga15 Zr1 3.000813 1_555
Ga15 Zr7 3.331367 1_555
Ga15 Zr5 3.331368 1_555
Ga16 Ni2 2.496183 1_555
Ga16 Ni1 2.496183 1_555
Ga16 Ni4 2.612920 1_555
Ga16 Ga2 2.793543 1_555
Ga16 Ga7 2.793543 1_555
Ga16 Zr1 2.814070 1_555
Ga16 Zr2 2.814070 1_555
Ga16 Zr9 2.917331 1_556
Ga16 Zr8 2.941237 1_556
Ga16 Zr4 3.052994 1_555
Ga16 Zr5 3.086352 1_555
Ga17 Ni3 2.496183 1_555
Ga17 Ni0 2.496183 1_555
Ga17 Ni5 2.612920 1_665
Ga17 Ga6 2.793543 1_555
Ga17 Ga3 2.793543 1_555
Ga17 Zr0 2.814070 1_565
Ga17 Zr3 2.814070 1_655
Ga17 Zr9 2.917331 1_555
Ga17 Zr8 2.941237 1_555
Ga17 Zr5 3.053001 1_555
Ga17 Zr4 3.086355 1_665
Ga18 Ni0 2.496183 1_555
Ga18 Ni2 2.496183 1_554
Ga18 Ni6 2.612920 1_565
Ga18 Ga4 2.793543 1_554
Ga18 Zr2 2.814070 1_554
Ga18 Zr0 2.814070 1_565
Ga18 Zr9 2.917331 1_555
Ga18 Zr8 2.941237 1_555
Ga18 Zr6 3.052994 1_555
Ga18 Zr7 3.086362 1_565
Ga19 Ni3 2.496183 1_555
Ga19 Ni1 2.496183 1_554
Ga19 Ni7 2.612920 1_655
Ga19 Ga5 2.793543 1_555
Ga19 Zr1 2.814070 1_554
Ga19 Zr3 2.814070 1_655
Ga19 Zr9 2.917331 1_555
Ga19 Zr8 2.941237 1_555
Ga19 Zr7 3.052994 1_555
Ga19 Zr6 3.086362 1_655
Ni0 Zr9 2.679659 1_555
Ni0 Zr6 2.792543 1_555
Ni0 Zr5 2.792550 1_555
Ni0 Zr0 2.995530 1_565
Ni1 Zr9 2.679659 1_556
Ni1 Zr7 2.792543 1_556
Ni1 Zr4 2.792547 1_555
Ni1 Zr1 2.995530 1_555
Ni2 Zr9 2.679659 1_556
Ni2 Zr6 2.792543 1_556
Ni2 Zr4 2.792547 1_555
Ni2 Zr2 2.995530 1_555
Ni3 Zr9 2.679659 1_555
Ni3 Zr7 2.792543 1_555
Ni3 Zr5 2.792550 1_555
Ni3 Zr3 2.995530 1_655
Ni4 Zr5 2.683541 1_555
Ni4 Zr4 2.795582 1_665
Ni4 Zr1 2.811654 1_555
Ni4 Zr2 2.811654 1_555
Ni4 Zr8 2.926646 1_556
Ni5 Zr4 2.683537 1_555
Ni5 Zr5 2.795574 1_555
Ni5 Zr0 2.811654 1_455
Ni5 Zr3 2.811654 1_545
Ni5 Zr8 2.926646 1_445
Ni6 Zr7 2.683546 1_555
Ni6 Zr6 2.795576 1_655
Ni6 Zr0 2.811654 1_555
Ni6 Zr2 2.811654 1_544
Ni6 Zr8 2.926646 1_545
Ni7 Zr6 2.683546 1_555
Ni7 Zr7 2.795576 1_565
Ni7 Zr1 2.811654 1_454
Ni7 Zr3 2.811654 1_555
Ni7 Zr8 2.926646 1_455
Ni8 Zr0 3.208719 1_455
Ni8 Zr1 3.208719 1_455
Ni9 Zr3 3.208719 1_545
Ni9 Zr2 3.208719 1_545
