# generated using pymatgen
data_NaMg14CoO16
_symmetry_space_group_name_H-M   'P 1'
_cell_length_a   8.54015782
_cell_length_b   8.45815510
_cell_length_c   4.30383699
_cell_angle_alpha   90.00000000
_cell_angle_beta   90.00000000
_cell_angle_gamma   90.00000000
_symmetry_Int_Tables_number   1
_chemical_formula_structural   NaMg14CoO16
_chemical_formula_sum   'Na1 Mg14 Co1 O16'
_cell_volume   310.88327256
_cell_formula_units_Z   1
loop_
 _symmetry_equiv_pos_site_id
 _symmetry_equiv_pos_as_xyz
  1  'x, y, z'
loop_
 _atom_site_type_symbol
 _atom_site_label
 _atom_site_symmetry_multiplicity
 _atom_site_fract_x
 _atom_site_fract_y
 _atom_site_fract_z
 _atom_site_occupancy
  Na  Na0  1  0.00000000  0.50000000  0.00000000  1
  Mg  Mg0  1  0.50000000  0.00000000  0.00000000  1
  Mg  Mg1  1  0.50000000  0.50000000  0.00000000  1
  Mg  Mg2  1  0.00000000  0.25348363  0.50000000  1
  Mg  Mg3  1  0.00000000  0.74651637  0.50000000  1
  Mg  Mg4  1  0.50000000  0.25098923  0.50000000  1
  Mg  Mg5  1  0.50000000  0.74901077  0.50000000  1
  Mg  Mg6  1  0.24708220  0.00000000  0.50000000  1
  Mg  Mg7  1  0.24759878  0.50000000  0.50000000  1
  Mg  Mg8  1  0.75291780  0.00000000  0.50000000  1
  Mg  Mg9  1  0.75240122  0.50000000  0.50000000  1
  Mg  Mg10  1  0.25125523  0.25298449  0.00000000  1
  Mg  Mg11  1  0.25125523  0.74701551  0.00000000  1
  Mg  Mg12  1  0.74874477  0.25298449  0.00000000  1
  Mg  Mg13  1  0.74874477  0.74701551  0.00000000  1
  Co  Co0  1  0.00000000  0.00000000  0.00000000  1
  O  O0  1  0.24335447  0.00000000  0.00000000  1
  O  O1  1  0.26267159  0.50000000  0.00000000  1
  O  O2  1  0.75664553  0.00000000  0.00000000  1
  O  O3  1  0.73732841  0.50000000  0.00000000  1
  O  O4  1  0.24833982  0.24850374  0.50000000  1
  O  O5  1  0.24833982  0.75149626  0.50000000  1
  O  O6  1  0.75166018  0.24850374  0.50000000  1
  O  O7  1  0.75166018  0.75149626  0.50000000  1
  O  O8  1  0.00000000  0.00000000  0.50000000  1
  O  O9  1  0.00000000  0.50000000  0.50000000  1
  O  O10  1  0.50000000  0.00000000  0.50000000  1
  O  O11  1  0.50000000  0.50000000  0.50000000  1
  O  O12  1  0.00000000  0.22303475  0.00000000  1
  O  O13  1  0.00000000  0.77696525  0.00000000  1
  O  O14  1  0.50000000  0.24408869  0.00000000  1
  O  O15  1  0.50000000  0.75591131  0.00000000  1
loop_
_geom_bond_atom_site_label_1
_geom_bond_atom_site_label_2
_geom_bond_distance
_geom_bond_site_symmetry_2
Na0 O9 2.151918 1_555
Na0 O9 2.151918 1_554
Na0 O3 2.243257 1_455
Na0 O1 2.243257 1_555
Na0 O12 2.342615 1_555
Na0 O13 2.342615 1_555
Mg0 O14 2.064540 1_555
Mg0 O15 2.064540 1_545
Mg0 O10 2.151918 1_555
Mg0 O10 2.151918 1_554
Mg0 O0 2.191793 1_555
Mg0 O2 2.191793 1_555
Mg1 O1 2.026822 1_555
Mg1 O3 2.026822 1_555
Mg1 O11 2.151918 1_554
Mg1 O11 2.151918 1_555
Mg1 O15 2.164538 1_555
Mg1 O14 2.164538 1_555
Mg2 O9 2.085074 1_555
Mg2 O6 2.121279 1_455
Mg2 O4 2.121279 1_555
Mg2 O8 2.144004 1_555
Mg2 O12 2.167275 1_555
Mg2 O12 2.167275 1_556
Mg3 O9 2.085074 1_555
Mg3 O7 2.121279 1_455
Mg3 O5 2.121279 1_555
Mg3 O8 2.144004 1_565
Mg3 O13 2.167275 1_555
Mg3 O13 2.167275 1_556
Mg4 O11 2.106172 1_555
Mg4 O10 2.122906 1_555
Mg4 O4 2.149320 1_555
Mg4 O6 2.149320 1_555
Mg4 O14 2.152710 1_556
Mg4 O14 2.152710 1_555
Mg5 O11 2.106172 1_555
Mg5 O10 2.122906 1_565
Mg5 O5 2.149320 1_555
Mg5 O7 2.149320 1_555
Mg5 O15 2.152710 1_556
Mg5 O15 2.152710 1_555
Mg6 O4 2.101911 1_555
Mg6 O5 2.101911 1_545
Mg6 O8 2.110121 1_555
Mg6 O0 2.152154 1_556
Mg6 O0 2.152154 1_555
Mg6 O10 2.159958 1_555
Mg7 O9 2.114533 1_555
Mg7 O4 2.127204 1_555
Mg7 O5 2.127204 1_555
Mg7 O11 2.155546 1_555
Mg7 O1 2.155765 1_555
Mg7 O1 2.155765 1_556
Mg8 O7 2.101911 1_545
Mg8 O6 2.101911 1_555
Mg8 O8 2.110121 1_655
Mg8 O2 2.152154 1_555
Mg8 O2 2.152154 1_556
Mg8 O10 2.159958 1_555
Mg9 O9 2.114533 1_655
Mg9 O6 2.127204 1_555
Mg9 O7 2.127204 1_555
Mg9 O11 2.155546 1_555
Mg9 O3 2.155765 1_556
Mg9 O3 2.155765 1_555
Mg10 O1 2.091569 1_555
Mg10 O14 2.125652 1_555
Mg10 O0 2.140846 1_555
Mg10 O4 2.152396 1_554
Mg10 O4 2.152396 1_555
Mg10 O12 2.160661 1_555
Mg11 O1 2.091569 1_555
Mg11 O15 2.125652 1_555
Mg11 O0 2.140846 1_565
Mg11 O5 2.152396 1_554
Mg11 O5 2.152396 1_555
Mg11 O13 2.160661 1_555
Mg12 O3 2.091569 1_555
Mg12 O14 2.125652 1_555
Mg12 O2 2.140846 1_555
Mg12 O6 2.152396 1_555
Mg12 O6 2.152396 1_554
Mg12 O12 2.160661 1_655
Mg13 O3 2.091569 1_555
Mg13 O15 2.125652 1_555
Mg13 O2 2.140846 1_565
Mg13 O7 2.152396 1_555
Mg13 O7 2.152396 1_554
Mg13 O13 2.160661 1_655
Co0 O13 1.886463 1_545
Co0 O12 1.886463 1_555
Co0 O2 2.078286 1_455
Co0 O0 2.078286 1_555
Co0 O8 2.151918 1_554
Co0 O8 2.151918 1_555
