# generated using pymatgen
data_La6Zn4Pd13
_symmetry_space_group_name_H-M   'P 1'
_cell_length_a   8.47451064
_cell_length_b   8.47451064
_cell_length_c   8.47451064
_cell_angle_alpha   109.47122063
_cell_angle_beta   109.47122063
_cell_angle_gamma   109.47122063
_symmetry_Int_Tables_number   1
_chemical_formula_structural   La6Zn4Pd13
_chemical_formula_sum   'La6 Zn4 Pd13'
_cell_volume   468.51337911
_cell_formula_units_Z   1
loop_
 _symmetry_equiv_pos_site_id
 _symmetry_equiv_pos_as_xyz
  1  'x, y, z'
loop_
 _atom_site_type_symbol
 _atom_site_label
 _atom_site_symmetry_multiplicity
 _atom_site_fract_x
 _atom_site_fract_y
 _atom_site_fract_z
 _atom_site_occupancy
  La  La0  1  0.69567400  0.69567400  0.00000000  1
  La  La1  1  0.30432600  0.00000000  0.30432600  1
  La  La2  1  0.00000000  0.30432600  0.30432600  1
  La  La3  1  0.30432600  0.30432600  0.00000000  1
  La  La4  1  0.69567400  0.00000000  0.69567400  1
  La  La5  1  0.00000000  0.69567400  0.69567400  1
  Zn  Zn0  1  0.00000000  0.00000000  0.50000000  1
  Zn  Zn1  1  0.00000000  0.50000000  0.00000000  1
  Zn  Zn2  1  0.50000000  0.00000000  0.00000000  1
  Zn  Zn3  1  0.50000000  0.50000000  0.50000000  1
  Pd  Pd0  1  0.32995000  0.32995000  0.65990100  1
  Pd  Pd1  1  0.67005000  0.00000000  0.32995000  1
  Pd  Pd2  1  0.00000000  0.67005000  0.32995000  1
  Pd  Pd3  1  0.67005000  0.32995000  0.00000000  1
  Pd  Pd4  1  0.32995000  0.65990100  0.32995000  1
  Pd  Pd5  1  0.00000000  0.32995000  0.67005000  1
  Pd  Pd6  1  0.32995000  0.67005000  0.00000000  1
  Pd  Pd7  1  0.32995000  0.00000000  0.67005000  1
  Pd  Pd8  1  0.65990100  0.32995000  0.32995000  1
  Pd  Pd9  1  0.67005000  0.67005000  0.34009900  1
  Pd  Pd10  1  0.67005000  0.34009900  0.67005000  1
  Pd  Pd11  1  0.34009900  0.67005000  0.67005000  1
  Pd  Pd12  1  0.00000000  0.00000000  0.00000000  1
loop_
_geom_bond_atom_site_label_1
_geom_bond_atom_site_label_2
_geom_bond_distance
_geom_bond_site_symmetry_2
La0 Pd12 2.977989 1_665
La0 Pd9 3.033856 1_555
La0 Pd0 3.033862 1_554
La0 Pd3 3.033864 1_555
La0 Pd6 3.033864 1_555
La0 Pd2 3.238455 1_655
La0 Pd1 3.238455 1_565
La0 Pd11 3.238460 1_554
La0 Pd10 3.238460 1_554
La0 Zn1 3.500309 1_655
La0 Zn2 3.500309 1_565
La0 Zn0 3.500309 1_665
La0 Zn3 3.500309 1_554
La1 Pd12 2.977989 1_555
La1 Pd4 3.033856 1_545
La1 Pd10 3.033862 1_555
La1 Pd7 3.033864 1_555
La1 Pd1 3.033864 1_555
La1 Pd2 3.238455 1_545
La1 Pd6 3.238455 1_545
La1 Pd8 3.238460 1_555
La1 Pd0 3.238460 1_555
La1 Zn0 3.500309 1_555
La1 Zn2 3.500309 1_555
La1 Zn3 3.500309 1_555
La1 Zn1 3.500309 1_545
La2 Pd12 2.977989 1_555
La2 Pd8 3.033856 1_455
La2 Pd11 3.033862 1_555
La2 Pd2 3.033864 1_555
La2 Pd5 3.033864 1_555
La2 Pd1 3.238455 1_455
La2 Pd3 3.238455 1_455
La2 Pd0 3.238460 1_555
La2 Pd4 3.238460 1_555
La2 Zn0 3.500309 1_555
La2 Zn2 3.500309 1_455
La2 Zn1 3.500309 1_555
La2 Zn3 3.500309 1_555
La3 Pd12 2.977989 1_555
La3 Pd0 3.033856 1_554
La3 Pd9 3.033862 1_555
La3 Pd3 3.033864 1_555
La3 Pd6 3.033864 1_555
La3 Pd7 3.238455 1_554
La3 Pd5 3.238455 1_554
La3 Pd8 3.238460 1_555
La3 Pd4 3.238460 1_555
La3 Zn1 3.500309 1_555
La3 Zn0 3.500309 1_554
La3 Zn2 3.500309 1_555
La3 Zn3 3.500309 1_555
La4 Pd12 2.977989 1_656
La4 Pd10 3.033856 1_555
La4 Pd4 3.033862 1_545
La4 Pd1 3.033864 1_555
La4 Pd7 3.033864 1_555
La4 Pd5 3.238455 1_655
La4 Pd3 3.238455 1_556
La4 Pd11 3.238460 1_545
La4 Pd9 3.238460 1_545
La4 Zn3 3.500309 1_545
La4 Zn2 3.500309 1_556
La4 Zn0 3.500309 1_655
La4 Zn1 3.500309 1_656
La5 Pd12 2.977989 1_566
La5 Pd11 3.033856 1_555
La5 Pd8 3.033862 1_455
La5 Pd2 3.033864 1_555
La5 Pd5 3.033864 1_555
La5 Pd7 3.238455 1_565
La5 Pd6 3.238455 1_556
La5 Pd9 3.238460 1_455
La5 Pd10 3.238460 1_455
La5 Zn0 3.500309 1_565
La5 Zn1 3.500309 1_556
La5 Zn3 3.500309 1_455
La5 Zn2 3.500309 1_566
Pd0 Zn0 2.684943 1_555
Pd0 Zn3 2.684952 1_555
Pd0 Pd5 2.825998 1_555
Pd0 Pd7 2.825998 1_555
Pd0 Pd10 2.826006 1_555
Pd0 Pd11 2.826006 1_555
Pd0 Pd3 3.328051 1_556
Pd0 Pd6 3.328051 1_556
Pd1 Zn0 2.684945 1_655
Pd1 Zn2 2.684945 1_555
Pd1 Pd9 2.825998 1_545
Pd1 Pd8 2.825998 1_555
Pd1 Pd6 2.826001 1_545
Pd1 Pd5 2.826001 1_655
Pd1 Pd10 3.328051 1_555
Pd1 Pd4 3.328051 1_545
Pd2 Zn0 2.684945 1_565
Pd2 Zn1 2.684945 1_555
Pd2 Pd9 2.825998 1_455
Pd2 Pd4 2.825998 1_555
Pd2 Pd3 2.826001 1_455
Pd2 Pd7 2.826001 1_565
Pd2 Pd8 3.328051 1_455
Pd3 Zn1 2.684945 1_655
Pd3 Zn2 2.684945 1_555
Pd3 Pd8 2.825998 1_555
Pd3 Pd7 2.826001 1_554
Pd3 Pd9 3.328051 1_555
Pd4 Zn1 2.684943 1_555
Pd4 Zn3 2.684952 1_555
Pd4 Pd6 2.825998 1_555
Pd4 Pd9 2.826006 1_555
Pd4 Pd7 3.328051 1_565
Pd5 Zn1 2.684945 1_556
Pd5 Zn0 2.684945 1_555
Pd5 Pd6 2.826001 1_556
Pd5 Pd8 3.328051 1_455
Pd6 Zn2 2.684945 1_565
Pd6 Zn1 2.684945 1_555
Pd6 Pd9 3.328051 1_555
Pd7 Zn2 2.684945 1_556
Pd7 Zn0 2.684945 1_555
Pd8 Zn2 2.684943 1_555
Pd8 Zn3 2.684952 1_555
Pd8 Pd9 2.826006 1_555
Pd9 Zn0 2.684943 1_665
Pd9 Zn3 2.684952 1_555
Pd10 Zn1 2.684943 1_656
Pd10 Zn3 2.684952 1_555
Pd10 Pd3 2.825998 1_556
Pd10 Pd5 2.825998 1_655
Pd10 Pd8 2.826006 1_555
Pd10 Pd7 3.328051 1_555
Pd11 Zn2 2.684943 1_566
Pd11 Zn3 2.684952 1_555
Pd11 Pd6 2.825998 1_556
Pd11 Pd7 2.825998 1_565
Pd11 Pd4 2.826006 1_555
Pd11 Pd5 3.328051 1_555
Pd11 Pd2 3.328051 1_555
