# generated using pymatgen
data_KCr12Si8ClO28
_symmetry_space_group_name_H-M   'P 1'
_cell_length_a   9.95710004
_cell_length_b   9.95710004
_cell_length_c   9.95710004
_cell_angle_alpha   115.97090402
_cell_angle_beta   115.97090402
_cell_angle_gamma   97.13286565
_symmetry_Int_Tables_number   1
_chemical_formula_structural   KCr12Si8ClO28
_chemical_formula_sum   'K1 Cr12 Si8 Cl1 O28'
_cell_volume   734.38805861
_cell_formula_units_Z   1
loop_
 _symmetry_equiv_pos_site_id
 _symmetry_equiv_pos_as_xyz
  1  'x, y, z'
loop_
 _atom_site_type_symbol
 _atom_site_label
 _atom_site_symmetry_multiplicity
 _atom_site_fract_x
 _atom_site_fract_y
 _atom_site_fract_z
 _atom_site_occupancy
  K  K0  1  0.04308900  0.04308900  0.00000000  1
  Cr  Cr0  1  0.28317900  0.05685100  0.77367300  1
  Cr  Cr1  1  0.28317900  0.50950600  0.22632700  1
  Cr  Cr2  1  0.50950600  0.28317900  0.22632700  1
  Cr  Cr3  1  0.05685100  0.28317900  0.77367300  1
  Cr  Cr4  1  0.71960600  0.95006100  0.23045500  1
  Cr  Cr5  1  0.71960600  0.48915100  0.76954500  1
  Cr  Cr6  1  0.48915100  0.71960600  0.76954500  1
  Cr  Cr7  1  0.95006100  0.71960600  0.23045500  1
  Cr  Cr8  1  0.49975000  0.18128700  0.68153600  1
  Cr  Cr9  1  0.49975000  0.81821400  0.31846400  1
  Cr  Cr10  1  0.81821400  0.49975000  0.31846400  1
  Cr  Cr11  1  0.18128700  0.49975000  0.68153600  1
  Si  Si0  1  0.88936500  0.88936500  0.55506000  1
  Si  Si1  1  0.33430500  0.33430500  0.44494000  1
  Si  Si2  1  0.33430500  0.88936500  0.00000000  1
  Si  Si3  1  0.88936500  0.33430500  0.00000000  1
  Si  Si4  1  0.10917100  0.10917100  0.44247100  1
  Si  Si5  1  0.66670000  0.66670000  0.55752900  1
  Si  Si6  1  0.66670000  0.10917100  0.00000000  1
  Si  Si7  1  0.10917100  0.66670000  0.00000000  1
  Cl  Cl0  1  0.43108600  0.43108600  0.00000000  1
  O  O0  1  0.25485900  0.07124500  0.56331700  1
  O  O1  1  0.50792800  0.69154200  0.43668300  1
  O  O2  1  0.50792800  0.07124500  0.81638600  1
  O  O3  1  0.25485900  0.69154200  0.18361400  1
  O  O4  1  0.69154200  0.25485900  0.18361400  1
  O  O5  1  0.07124500  0.50792800  0.81638600  1
  O  O6  1  0.07124500  0.25485900  0.56331700  1
  O  O7  1  0.69154200  0.50792800  0.43668300  1
  O  O8  1  0.74352800  0.92627300  0.43325500  1
  O  O9  1  0.49301900  0.31027400  0.56674500  1
  O  O10  1  0.49301900  0.92627300  0.18274500  1
  O  O11  1  0.74352800  0.31027400  0.81725500  1
  O  O12  1  0.31027400  0.74352800  0.81725500  1
  O  O13  1  0.92627300  0.49301900  0.18274500  1
  O  O14  1  0.92627300  0.74352800  0.43325500  1
  O  O15  1  0.31027400  0.49301900  0.56674500  1
  O  O16  1  0.82836400  0.82836400  0.65618100  1
  O  O17  1  0.17218400  0.17218400  0.34381900  1
  O  O18  1  0.17218400  0.82836400  0.00000000  1
  O  O19  1  0.82836400  0.17218400  0.00000000  1
  O  O20  1  0.05460900  0.05460900  0.71094000  1
  O  O21  1  0.34366800  0.34366800  0.28906000  1
  O  O22  1  0.34366800  0.05460900  0.00000000  1
  O  O23  1  0.05460900  0.34366800  0.00000000  1
  O  O24  1  0.94382700  0.94382700  0.28969500  1
  O  O25  1  0.65413200  0.65413200  0.71030500  1
  O  O26  1  0.65413200  0.94382700  0.00000000  1
  O  O27  1  0.94382700  0.65413200  0.00000000  1
loop_
_geom_bond_atom_site_label_1
_geom_bond_atom_site_label_2
_geom_bond_distance
_geom_bond_site_symmetry_2
K0 O17 2.627918 1_555
K0 O16 2.627921 1_444
K0 O18 2.627927 1_545
K0 O19 2.627927 1_455
K0 O23 2.980826 1_555
K0 O22 2.980826 1_555
K0 O21 2.980827 1_555
K0 O20 2.980836 1_554
Cr0 O2 2.059800 1_555
Cr0 O0 2.059807 1_555
Cr0 O22 2.073746 1_556
Cr0 O20 2.073752 1_555
Cr1 O3 2.059801 1_555
Cr1 O1 2.059801 1_555
Cr1 O23 2.073751 1_555
Cr1 O21 2.073757 1_555
Cr2 O4 2.059801 1_555
Cr2 O7 2.059801 1_555
Cr2 O22 2.073751 1_555
Cr2 O21 2.073757 1_555
Cr3 O5 2.059800 1_555
Cr3 O6 2.059807 1_555
Cr3 O23 2.073746 1_556
Cr3 O20 2.073752 1_555
Cr4 O10 2.049883 1_555
Cr4 O8 2.049893 1_555
Cr4 O26 2.061393 1_555
Cr4 O24 2.061393 1_555
Cr5 O11 2.049883 1_555
Cr5 O9 2.049885 1_555
Cr5 O27 2.061393 1_556
Cr5 O25 2.061393 1_555
Cr6 O12 2.049883 1_555
Cr6 O15 2.049885 1_555
Cr6 O26 2.061393 1_556
Cr6 O25 2.061393 1_555
Cr7 O13 2.049883 1_555
Cr7 O14 2.049893 1_555
Cr7 O27 2.061393 1_555
Cr7 O24 2.061393 1_555
Cr8 O11 2.049489 1_555
Cr8 O9 2.049490 1_555
Cr8 O0 2.055473 1_555
Cr8 O2 2.055480 1_555
Cr9 O8 2.049489 1_555
Cr9 O10 2.049491 1_555
Cr9 O1 2.055472 1_555
Cr9 O3 2.055472 1_555
Cr10 O14 2.049489 1_555
Cr10 O13 2.049491 1_555
Cr10 O7 2.055472 1_555
Cr10 O4 2.055472 1_555
Cr11 O12 2.049489 1_555
Cr11 O15 2.049490 1_555
Cr11 O6 2.055473 1_555
Cr11 O5 2.055480 1_555
Cl0 Cr1 3.083560 1_555
Cl0 Cr2 3.083560 1_555
Cl0 Cr0 3.083569 1_554
Cl0 Cr3 3.083569 1_554
O0 Si4 1.643185 1_555
O1 Si5 1.643185 1_555
O2 Si6 1.643185 1_556
O3 Si7 1.643185 1_555
O4 Si6 1.643185 1_555
O5 Si7 1.643185 1_556
O6 Si4 1.643185 1_555
O7 Si5 1.643185 1_555
O8 Si0 1.641660 1_555
O9 Si1 1.641661 1_555
O10 Si2 1.641665 1_555
O11 Si3 1.641665 1_556
O12 Si2 1.641665 1_556
O13 Si3 1.641665 1_555
O14 Si0 1.641660 1_555
O15 Si1 1.641661 1_555
O16 Si0 1.652659 1_555
O16 Si5 1.653477 1_555
O17 Si1 1.652647 1_555
O17 Si4 1.653489 1_555
O18 Si2 1.652649 1_555
O18 Si7 1.653480 1_555
O19 Si3 1.652649 1_555
O19 Si6 1.653480 1_555
O20 Si0 1.636391 1_445
O21 Si1 1.636382 1_555
O22 Si2 1.636392 1_545
O23 Si3 1.636392 1_455
O24 Si4 1.635528 1_665
O25 Si5 1.635528 1_555
O26 Si6 1.635528 1_565
O27 Si7 1.635528 1_655
