# generated using pymatgen
data_Sr3Y2FeCu3BiO12
_symmetry_space_group_name_H-M   'P 1'
_cell_length_a   5.77216500
_cell_length_b   10.61552600
_cell_length_c   11.77581035
_cell_angle_alpha   63.23369576
_cell_angle_beta   90.00000000
_cell_angle_gamma   90.00000000
_symmetry_Int_Tables_number   1
_chemical_formula_structural   Sr3Y2FeCu3BiO12
_chemical_formula_sum   'Sr6 Y4 Fe2 Cu6 Bi2 O24'
_cell_volume   644.24337763
_cell_formula_units_Z   2
loop_
 _symmetry_equiv_pos_site_id
 _symmetry_equiv_pos_as_xyz
  1  'x, y, z'
loop_
 _atom_site_type_symbol
 _atom_site_label
 _atom_site_symmetry_multiplicity
 _atom_site_fract_x
 _atom_site_fract_y
 _atom_site_fract_z
 _atom_site_occupancy
  Sr  Sr0  1  0.75000000  0.48135400  0.41404700  1
  Sr  Sr1  1  0.25000000  0.51864600  0.58595300  1
  Sr  Sr2  1  0.25000000  0.41222200  0.20065400  1
  Sr  Sr3  1  0.25000000  0.07605600  0.75339200  1
  Sr  Sr4  1  0.75000000  0.92394400  0.24660800  1
  Sr  Sr5  1  0.75000000  0.58777800  0.79934600  1
  Y  Y0  1  0.75000000  0.70546300  0.02533900  1
  Y  Y1  1  0.25000000  0.73406400  0.26925700  1
  Y  Y2  1  0.25000000  0.29453700  0.97466100  1
  Y  Y3  1  0.75000000  0.26593600  0.73074300  1
  Fe  Fe0  1  0.75000000  0.30843000  0.22675600  1
  Fe  Fe1  1  0.25000000  0.69157000  0.77324400  1
  Cu  Cu0  1  0.25000000  0.00360200  0.04215200  1
  Cu  Cu1  1  0.25000000  0.76272600  0.98771300  1
  Cu  Cu2  1  0.25000000  0.27607700  0.47734200  1
  Cu  Cu3  1  0.75000000  0.72392300  0.52265800  1
  Cu  Cu4  1  0.75000000  0.23727400  0.01228700  1
  Cu  Cu5  1  0.75000000  0.99639800  0.95784800  1
  Bi  Bi0  1  0.25000000  0.90595700  0.48000100  1
  Bi  Bi1  1  0.75000000  0.09404300  0.51999900  1
  O  O0  1  0.75000000  0.96138200  0.42551700  1
  O  O1  1  0.75000000  0.50359800  0.18730600  1
  O  O2  1  0.02120900  0.29188600  0.59467100  1
  O  O3  1  0.75000000  0.03365000  0.78340500  1
  O  O4  1  0.97418800  0.30237800  0.10012900  1
  O  O5  1  0.98719000  0.17455500  0.92217400  1
  O  O6  1  0.98270100  0.24562900  0.36816900  1
  O  O7  1  0.01729900  0.75437100  0.63183100  1
  O  O8  1  0.25000000  0.49945000  0.35498400  1
  O  O9  1  0.01281000  0.82544500  0.07782600  1
  O  O10  1  0.02581200  0.69762200  0.89987100  1
  O  O11  1  0.25000000  0.96635000  0.21659500  1
  O  O12  1  0.97879100  0.70811400  0.40532900  1
  O  O13  1  0.48270100  0.75437100  0.63183100  1
  O  O14  1  0.25000000  0.49640200  0.81269400  1
  O  O15  1  0.48719000  0.82544500  0.07782600  1
  O  O16  1  0.47418800  0.69762200  0.89987100  1
  O  O17  1  0.25000000  0.03861800  0.57448300  1
  O  O18  1  0.52120900  0.70811400  0.40532900  1
  O  O19  1  0.47879100  0.29188600  0.59467100  1
  O  O20  1  0.52581200  0.30237800  0.10012900  1
  O  O21  1  0.51281000  0.17455500  0.92217400  1
  O  O22  1  0.51729900  0.24562900  0.36816900  1
  O  O23  1  0.75000000  0.50055000  0.64501600  1
loop_
_geom_bond_atom_site_label_1
_geom_bond_atom_site_label_2
_geom_bond_distance
_geom_bond_site_symmetry_2
Fe0 O1 1.908222 1_555
Fe0 O4 1.997114 1_555
Fe0 O20 1.997114 1_555
Fe0 O6 2.005426 1_555
Fe0 O22 2.005426 1_555
Fe1 O14 1.908222 1_555
Fe1 O16 1.997114 1_555
Fe1 O10 1.997114 1_555
Fe1 O13 2.005426 1_555
Fe1 O7 2.005426 1_555
Cu0 O11 1.909051 1_545
Cu0 O15 2.216317 1_545
Cu0 O9 2.216317 1_545
Cu0 O5 2.298112 1_454
Cu0 O21 2.298112 1_554
Cu0 Sr3 3.130257 1_554
Cu1 O16 1.966245 1_555
Cu1 O10 1.966245 1_555
Cu1 O15 2.019931 1_556
Cu1 O9 2.019931 1_556
Cu1 Sr3 3.226543 1_565
Cu2 O19 1.972304 1_555
Cu2 O2 1.972304 1_555
Cu2 O22 2.124155 1_555
Cu2 O6 2.124155 1_455
Cu2 O8 2.149750 1_555
Cu2 O17 2.250672 1_555
Cu3 O12 1.972304 1_555
Cu3 O18 1.972304 1_555
Cu3 O7 2.124155 1_655
Cu3 O13 2.124155 1_555
Cu3 O23 2.149750 1_555
Cu3 O0 2.250672 1_555
Cu4 O4 1.966245 1_555
Cu4 O20 1.966245 1_555
Cu4 O21 2.019931 1_554
Cu4 O5 2.019931 1_554
Cu4 Sr4 3.226543 1_545
Cu5 O3 1.909051 1_565
Cu5 O21 2.216317 1_565
Cu5 O5 2.216317 1_565
Cu5 O9 2.298112 1_656
Cu5 O15 2.298112 1_556
Cu5 Sr4 3.130257 1_556
Bi0 O17 2.152291 1_565
Bi0 O13 2.235810 1_555
Bi0 O7 2.235810 1_555
Bi1 O0 2.152291 1_545
Bi1 O6 2.235810 1_555
Bi1 O22 2.235810 1_555
O0 Sr4 2.313158 1_555
O1 Y0 2.132719 1_555
O1 Sr0 2.572371 1_555
O1 Sr2 3.026179 1_555
O1 Sr2 3.026179 1_655
O2 Y3 2.167149 1_455
O2 Sr3 2.574823 1_555
O2 Sr0 2.677102 1_455
O2 Sr1 2.706749 1_555
O3 Y3 2.255572 1_555
O3 Sr3 2.917829 1_555
O3 Sr3 2.917829 1_655
O4 Y2 2.198916 1_654
O4 Sr2 2.557110 1_655
O5 Y2 2.239320 1_655
O5 Y3 2.434643 1_555
O5 Sr3 3.035910 1_655
O6 Sr2 2.501425 1_655
O6 Sr0 3.094416 1_555
O7 Sr5 2.501425 1_455
O7 Sr1 3.094416 1_555
O8 Y1 2.226515 1_555
O8 Sr2 2.382425 1_555
O8 Sr1 2.817499 1_555
O8 Sr0 2.954619 1_455
O8 Sr0 2.954619 1_555
O9 Y0 2.239320 1_455
O9 Y1 2.434643 1_555
O9 Sr4 3.035910 1_455
O10 Y0 2.198916 1_456
O10 Sr5 2.557110 1_455
O11 Y1 2.255572 1_555
O11 Sr4 2.917829 1_455
O11 Sr4 2.917829 1_555
O12 Y1 2.167149 1_655
O12 Sr4 2.574823 1_555
O12 Sr1 2.677102 1_655
O12 Sr0 2.706749 1_555
O13 Sr5 2.501425 1_555
O13 Sr1 3.094416 1_555
O14 Y2 2.132719 1_555
O14 Sr1 2.572371 1_555
O14 Sr5 3.026179 1_455
O14 Sr5 3.026179 1_555
O15 Y0 2.239320 1_555
O15 Y1 2.434643 1_555
O15 Sr4 3.035910 1_555
O16 Y0 2.198916 1_556
O16 Sr5 2.557110 1_555
O17 Sr3 2.313158 1_555
O18 Y1 2.167149 1_555
O18 Sr4 2.574823 1_555
O18 Sr1 2.677102 1_555
O18 Sr0 2.706749 1_555
O19 Y3 2.167149 1_555
O19 Sr3 2.574823 1_555
O19 Sr0 2.677102 1_555
O19 Sr1 2.706749 1_555
O20 Y2 2.198916 1_554
O20 Sr2 2.557110 1_555
O21 Y2 2.239320 1_555
O21 Y3 2.434643 1_555
O21 Sr3 3.035910 1_555
O22 Sr2 2.501425 1_555
O22 Sr0 3.094416 1_555
O23 Y3 2.226515 1_555
O23 Sr5 2.382425 1_555
O23 Sr0 2.817499 1_555
O23 Sr1 2.954619 1_555
O23 Sr1 2.954619 1_655
