# generated using pymatgen
data_Zn9Si2Te3P4(Pb3O14)3
_symmetry_space_group_name_H-M   'P 1'
_cell_length_a   8.55782091
_cell_length_b   10.05105029
_cell_length_c   13.56051661
_cell_angle_alpha   82.45308842
_cell_angle_beta   108.39352660
_cell_angle_gamma   115.19609805
_symmetry_Int_Tables_number   1
_chemical_formula_structural   Zn9Si2Te3P4(Pb3O14)3
_chemical_formula_sum   'Zn9 Si2 Te3 P4 Pb9 O42'
_cell_volume   1001.50590628
_cell_formula_units_Z   1
loop_
 _symmetry_equiv_pos_site_id
 _symmetry_equiv_pos_as_xyz
  1  'x, y, z'
loop_
 _atom_site_type_symbol
 _atom_site_label
 _atom_site_symmetry_multiplicity
 _atom_site_fract_x
 _atom_site_fract_y
 _atom_site_fract_z
 _atom_site_occupancy
  Zn  Zn0  1  0.99977800  0.66659200  0.08210400  1
  Zn  Zn1  1  0.00045100  0.33156400  0.41732000  1
  Zn  Zn2  1  0.99970900  0.99892000  0.74916900  1
  Zn  Zn3  1  0.74829300  0.16737000  0.83242000  1
  Zn  Zn4  1  0.74912900  0.83333300  0.16666700  1
  Zn  Zn5  1  0.74850300  0.49929700  0.50091300  1
  Zn  Zn6  1  0.25156700  0.33510200  0.91601400  1
  Zn  Zn7  1  0.25108100  0.00007500  0.25122900  1
  Zn  Zn8  1  0.25162000  0.66774700  0.58416400  1
  Si  Si0  1  0.66697300  0.40475500  0.92938300  1
  Si  Si1  1  0.33283500  0.26191200  0.40395000  1
  Te  Te0  1  0.99996600  0.33333300  0.66666700  1
  Te  Te1  1  0.00019400  0.00031100  0.00011000  1
  Te  Te2  1  0.99977300  0.66635600  0.33322300  1
  P  P0  1  0.66639100  0.07050100  0.26272200  1
  P  P1  1  0.66667500  0.73693400  0.59587000  1
  P  P2  1  0.33316700  0.59616600  0.07061100  1
  P  P3  1  0.33387200  0.92973200  0.73746400  1
  Pb  Pb0  1  0.59233000  0.06888400  0.53029700  1
  Pb  Pb1  1  0.59858600  0.72512500  0.86660000  1
  Pb  Pb2  1  0.59642700  0.39702500  0.19870700  1
  Pb  Pb3  1  0.00686100  0.94154100  0.46673400  1
  Pb  Pb4  1  0.99314900  0.59778300  0.80303600  1
  Pb  Pb5  1  0.00069500  0.26964200  0.13462600  1
  Pb  Pb6  1  0.40636500  0.00439500  0.00042500  1
  Pb  Pb7  1  0.40154500  0.66227200  0.33290800  1
  Pb  Pb8  1  0.40414400  0.33333300  0.66666700  1
  O  O0  1  0.66636500  0.63932500  0.69355700  1
  O  O1  1  0.66708900  0.29967800  0.03415800  1
  O  O2  1  0.66613300  0.97297000  0.35997900  1
  O  O3  1  0.33348300  0.02734200  0.63977600  1
  O  O4  1  0.33318500  0.69369700  0.97335400  1
  O  O5  1  0.33325200  0.36698800  0.29917600  1
  O  O6  1  0.47567500  0.73612600  0.53872400  1
  O  O7  1  0.46682000  0.40416400  0.86911800  1
  O  O8  1  0.47552400  0.06973400  0.20467900  1
  O  O9  1  0.80007700  0.90143900  0.62204400  1
  O  O10  1  0.80614000  0.57853400  0.95536400  1
  O  O11  1  0.79866300  0.23590600  0.28815900  1
  O  O12  1  0.72342600  0.68591700  0.51340000  1
  O  O13  1  0.72745300  0.35144100  0.84261500  1
  O  O14  1  0.72538100  0.02024900  0.18059500  1
  O  O15  1  0.20082500  0.93054100  0.79460900  1
  O  O16  1  0.20111000  0.59693200  0.12865500  1
  O  O17  1  0.19353800  0.26250300  0.46421500  1
  O  O18  1  0.52410900  0.98074900  0.81993400  1
  O  O19  1  0.52453700  0.64641800  0.15273800  1
  O  O20  1  0.53339700  0.31522600  0.49071800  1
  O  O21  1  0.27659300  0.76522700  0.71129000  1
  O  O22  1  0.27459700  0.43076100  0.04517400  1
  O  O23  1  0.27224200  0.08813300  0.37796900  1
  O  O24  1  0.12259600  0.20050400  0.70536200  1
  O  O25  1  0.12639100  0.87023700  0.04126600  1
  O  O26  1  0.12208800  0.53350300  0.37239400  1
  O  O27  1  0.78486600  0.17887800  0.69565300  1
  O  O28  1  0.78469000  0.84805500  0.02969800  1
  O  O29  1  0.78317100  0.51405800  0.36250300  1
  O  O30  1  0.09263100  0.73964300  0.47556400  1
  O  O31  1  0.09024800  0.40561300  0.80902600  1
  O  O32  1  0.09286700  0.07432900  0.14250400  1
  O  O33  1  0.21673100  0.46616300  0.62797100  1
  O  O34  1  0.21619100  0.13316300  0.96094000  1
  O  O35  1  0.21488800  0.79643000  0.29206700  1
  O  O36  1  0.87742300  0.92702400  0.85776900  1
  O  O37  1  0.87603400  0.59233800  0.19082900  1
  O  O38  1  0.87560900  0.26105300  0.52430800  1
  O  O39  1  0.91033500  0.48778900  0.63768000  1
  O  O40  1  0.90661000  0.15260900  0.97083000  1
  O  O41  1  0.90693700  0.81861100  0.30363600  1
loop_
_geom_bond_atom_site_label_1
_geom_bond_atom_site_label_2
_geom_bond_distance
_geom_bond_site_symmetry_2
O0 P1 1.541405 1_555
O1 Si0 1.655278 1_554
O2 P0 1.536471 1_565
O3 P3 1.541421 1_545
O4 P2 1.536471 1_556
O5 Si1 1.655262 1_555
O6 P1 1.569490 1_555
O6 Zn8 2.010201 1_555
O7 Si0 1.646526 1_555
O7 Zn6 1.952994 1_555
O7 Pb8 2.755070 1_555
O8 P0 1.570705 1_555
O8 Zn7 2.020391 1_555
O9 P1 1.566663 1_555
O9 Zn2 2.002570 1_555
O10 Si0 1.648948 1_555
O10 Zn0 1.958735 1_556
O10 Pb1 2.681009 1_555
O11 P0 1.570391 1_555
O11 Zn1 2.023392 1_655
O12 P1 1.566818 1_555
O12 Zn5 2.010517 1_555
O13 Si0 1.650925 1_555
O13 Zn3 1.958954 1_555
O13 Pb4 2.686317 1_555
O14 P0 1.571596 1_555
O14 Zn4 2.012216 1_545
O15 P3 1.569492 1_555
O15 Zn2 2.010201 1_455
O16 P2 1.570711 1_555
O16 Zn0 2.020382 1_455
O17 Si1 1.646526 1_555
O17 Zn1 1.952987 1_555
O17 Pb8 2.755080 1_555
O18 P3 1.566812 1_555
O18 Zn3 2.010524 1_565
O19 P2 1.571602 1_555
O19 Zn4 2.012210 1_555
O20 Si1 1.650925 1_555
O20 Zn5 1.958954 1_555
O20 Pb0 2.686317 1_555
O21 P3 1.566660 1_555
O21 Zn8 2.002580 1_555
O22 P2 1.570391 1_555
O22 Zn6 2.023389 1_554
O23 Si1 1.648948 1_555
O23 Zn7 1.958731 1_555
O23 Pb3 2.681020 1_545
O24 Te0 1.954606 1_455
O24 Zn2 1.956511 1_445
O24 Pb8 2.395438 1_555
O25 Te1 1.953763 1_565
O25 Zn0 1.965425 1_455
O25 Pb6 2.399184 1_565
O26 Te2 1.952889 1_455
O26 Zn1 1.962366 1_555
O26 Pb7 2.381589 1_555
O27 Te0 1.953519 1_555
O27 Zn3 1.957077 1_555
O27 Pb0 2.394507 1_555
O28 Te1 1.951108 1_665
O28 Zn4 1.952054 1_555
O28 Pb1 2.402942 1_554
O29 Te2 1.955951 1_555
O29 Zn5 1.968152 1_555
O29 Pb2 2.390983 1_555
O30 Te2 1.951130 1_455
O30 Zn8 1.958386 1_555
O30 Pb3 2.412474 1_555
O31 Te0 1.949519 1_455
O31 Zn6 1.952428 1_555
O31 Pb4 2.389679 1_455
O32 Te1 1.954357 1_555
O32 Zn7 1.968639 1_555
O32 Pb5 2.386950 1_555
O33 Te0 1.954621 1_455
O33 Zn8 1.956512 1_555
O33 Pb8 2.395438 1_555
O34 Te1 1.952880 1_556
O34 Zn6 1.962366 1_555
O34 Pb6 2.381581 1_556
O35 Te2 1.953763 1_455
O35 Zn7 1.965427 1_565
O35 Pb7 2.399183 1_555
O36 Te1 1.951130 1_666
O36 Zn2 1.958392 1_555
O36 Pb1 2.412476 1_555
O37 Te2 1.954357 1_555
O37 Zn0 1.968644 1_555
O37 Pb2 2.386950 1_555
O38 Te0 1.949519 1_555
O38 Zn1 1.952428 1_655
O38 Pb0 2.389672 1_555
O39 Te0 1.953528 1_555
O39 Zn5 1.957077 1_555
O39 Pb4 2.394507 1_555
O40 Te1 1.955951 1_656
O40 Zn3 1.968152 1_555
O40 Pb5 2.390983 1_656
O41 Te2 1.951098 1_555
O41 Zn4 1.952054 1_555
O41 Pb3 2.402942 1_655
