# generated using pymatgen
data_BaCaLaSbO6
_symmetry_space_group_name_H-M   'P 1'
_cell_length_a   8.53864982
_cell_length_b   8.57971089
_cell_length_c   8.58325667
_cell_angle_alpha   90.00000000
_cell_angle_beta   90.00000000
_cell_angle_gamma   90.00000000
_symmetry_Int_Tables_number   1
_chemical_formula_structural   BaCaLaSbO6
_chemical_formula_sum   'Ba4 Ca4 La4 Sb4 O24'
_cell_volume   628.80206081
_cell_formula_units_Z   4
loop_
 _symmetry_equiv_pos_site_id
 _symmetry_equiv_pos_as_xyz
  1  'x, y, z'
loop_
 _atom_site_type_symbol
 _atom_site_label
 _atom_site_symmetry_multiplicity
 _atom_site_fract_x
 _atom_site_fract_y
 _atom_site_fract_z
 _atom_site_occupancy
  Ba  Ba0  1  0.00000000  0.00000000  -0.00000000  1
  Ba  Ba1  1  0.50000000  0.50000000  0.50000000  1
  Ba  Ba2  1  0.50000000  0.50000000  -0.00000000  1
  Ba  Ba3  1  -0.00000000  0.00000000  0.50000000  1
  Ca  Ca0  1  -0.00000000  0.50000000  0.50000000  1
  Ca  Ca1  1  0.50000000  0.00000000  0.50000000  1
  Ca  Ca2  1  0.50000000  0.00000000  -0.00000000  1
  Ca  Ca3  1  0.00000000  0.50000000  -0.00000000  1
  La  La0  1  0.75000000  0.75000000  0.75000000  1
  La  La1  1  0.25000000  0.25000000  0.75000000  1
  La  La2  1  0.25000000  0.75000000  0.25000000  1
  La  La3  1  0.75000000  0.25000000  0.25000000  1
  Sb  Sb0  1  0.25000000  0.25000000  0.25000000  1
  Sb  Sb1  1  0.75000000  0.75000000  0.25000000  1
  Sb  Sb2  1  0.75000000  0.25000000  0.75000000  1
  Sb  Sb3  1  0.25000000  0.75000000  0.75000000  1
  O  O0  1  0.01949656  0.21319043  0.27842337  1
  O  O1  1  0.98050344  0.78680957  0.27842337  1
  O  O2  1  0.98050344  0.21319043  0.72157663  1
  O  O3  1  0.01949656  0.78680957  0.72157663  1
  O  O4  1  0.28857723  0.02206150  0.19222486  1
  O  O5  1  0.28857723  0.97793850  0.80777514  1
  O  O6  1  0.71142277  0.97793850  0.19222486  1
  O  O7  1  0.71142277  0.02206150  0.80777514  1
  O  O8  1  0.20569520  0.30244002  0.02192471  1
  O  O9  1  0.79430480  0.30244002  0.97807529  1
  O  O10  1  0.20569520  0.69755998  0.97807529  1
  O  O11  1  0.79430480  0.69755998  0.02192471  1
  O  O12  1  0.48050344  0.28680957  0.22157663  1
  O  O13  1  0.51949656  0.71319043  0.22157663  1
  O  O14  1  0.51949656  0.28680957  0.77842337  1
  O  O15  1  0.48050344  0.71319043  0.77842337  1
  O  O16  1  0.21142277  0.47793850  0.30777514  1
  O  O17  1  0.21142277  0.52206150  0.69222486  1
  O  O18  1  0.78857723  0.52206150  0.30777514  1
  O  O19  1  0.78857723  0.47793850  0.69222486  1
  O  O20  1  0.29430480  0.19755998  0.47807529  1
  O  O21  1  0.70569520  0.19755998  0.52192471  1
  O  O22  1  0.29430480  0.80244002  0.52192471  1
  O  O23  1  0.70569520  0.80244002  0.47807529  1
loop_
_geom_bond_atom_site_label_1
_geom_bond_atom_site_label_2
_geom_bond_distance
_geom_bond_site_symmetry_2
Ba0 O6 2.971471 1_445
Ba0 O4 2.971471 1_555
Ba0 O5 2.971471 1_544
Ba0 O7 2.971471 1_454
Ba0 O3 3.014036 1_544
Ba0 O0 3.014036 1_555
Ba0 O2 3.014036 1_454
Ba0 O1 3.014036 1_445
Ba0 O9 3.139020 1_454
Ba0 O10 3.139020 1_544
Ba0 O8 3.139020 1_555
Ba0 O11 3.139020 1_445
Ba1 O18 2.971471 1_555
Ba1 O16 2.971471 1_555
Ba1 O17 2.971471 1_555
Ba1 O19 2.971471 1_555
Ba1 O14 3.014036 1_555
Ba1 O15 3.014036 1_555
Ba1 O12 3.014036 1_555
Ba1 O13 3.014036 1_555
Ba1 O21 3.139020 1_555
Ba1 O22 3.139020 1_555
Ba1 O23 3.139020 1_555
Ba1 O20 3.139020 1_555
Ba2 O12 2.643936 1_555
Ba2 O13 2.643936 1_555
Ba2 O14 2.643936 1_554
Ba2 O15 2.643936 1_554
Ba2 O10 3.037015 1_554
Ba2 O11 3.037015 1_555
Ba2 O9 3.037015 1_554
Ba2 O8 3.037015 1_555
Ba3 O0 2.643936 1_555
Ba3 O2 2.643936 1_455
Ba3 O3 2.643936 1_545
Ba3 O1 2.643936 1_445
Ba3 O22 3.037015 1_545
Ba3 O20 3.037015 1_555
Ba3 O21 3.037015 1_455
Ba3 O23 3.037015 1_445
Ca0 O18 2.452963 1_455
Ca0 O19 2.452963 1_455
Ca0 O17 2.452963 1_555
Ca0 O16 2.452963 1_555
Ca1 O23 2.448114 1_545
Ca1 O22 2.448114 1_545
Ca1 O20 2.448114 1_555
Ca1 O21 2.448114 1_555
Ca2 O6 2.452963 1_545
Ca2 O5 2.452963 1_544
Ca2 O4 2.452963 1_555
Ca2 O7 2.452963 1_554
Ca3 O11 2.448114 1_455
Ca3 O8 2.448114 1_555
Ca3 O10 2.448114 1_554
Ca3 O9 2.448114 1_454
La0 O15 2.335485 1_555
La0 O3 2.335485 1_655
La0 O11 2.406885 1_556
La0 O23 2.406885 1_555
La0 O7 2.408931 1_565
La0 O19 2.408931 1_555
La1 O2 2.335485 1_455
La1 O14 2.335485 1_555
La1 O8 2.406885 1_556
La1 O20 2.406885 1_555
La1 O5 2.408931 1_545
La1 O17 2.408931 1_555
La2 O13 2.335485 1_555
La2 O1 2.335485 1_455
La2 O22 2.406885 1_555
La2 O10 2.406885 1_554
La2 O4 2.408931 1_565
La2 O16 2.408931 1_555
La3 O12 2.335485 1_555
La3 O0 2.335485 1_655
La3 O9 2.406885 1_554
La3 O21 2.406885 1_555
La3 O6 2.408931 1_545
La3 O18 2.408931 1_555
O0 Sb0 2.008239 1_555
O1 Sb1 2.008239 1_555
O2 Sb2 2.008239 1_555
O3 Sb3 2.008239 1_555
O4 Sb0 2.044253 1_555
O5 Sb3 2.044253 1_555
O6 Sb1 2.044253 1_555
O7 Sb2 2.044253 1_555
O8 Sb0 2.043979 1_555
O9 Sb2 2.043979 1_555
O10 Sb3 2.043979 1_555
O11 Sb1 2.043979 1_555
O12 Sb0 2.008239 1_555
O13 Sb1 2.008239 1_555
O14 Sb2 2.008239 1_555
O15 Sb3 2.008239 1_555
O16 Sb0 2.044253 1_555
O17 Sb3 2.044253 1_555
O18 Sb1 2.044253 1_555
O19 Sb2 2.044253 1_555
O20 Sb0 2.043979 1_555
O21 Sb2 2.043979 1_555
O22 Sb3 2.043979 1_555
O23 Sb1 2.043979 1_555
