# generated using pymatgen
data_Li5Mn3O8
_symmetry_space_group_name_H-M   'P 1'
_cell_length_a   5.05444100
_cell_length_b   5.77226004
_cell_length_c   5.91479830
_cell_angle_alpha   60.85830385
_cell_angle_beta   74.20782953
_cell_angle_gamma   73.42026435
_symmetry_Int_Tables_number   1
_chemical_formula_structural   Li5Mn3O8
_chemical_formula_sum   'Li5 Mn3 O8'
_cell_volume   142.61674430
_cell_formula_units_Z   1
loop_
 _symmetry_equiv_pos_site_id
 _symmetry_equiv_pos_as_xyz
  1  'x, y, z'
loop_
 _atom_site_type_symbol
 _atom_site_label
 _atom_site_symmetry_multiplicity
 _atom_site_fract_x
 _atom_site_fract_y
 _atom_site_fract_z
 _atom_site_occupancy
  Li  Li0  1  0.50601300  0.75321400  0.25014900  1
  Li  Li1  1  0.49073000  0.76336400  0.73872600  1
  Li  Li2  1  0.49398700  0.24678600  0.74985100  1
  Li  Li3  1  0.50927000  0.23663600  0.26127400  1
  Li  Li4  1  0.00000000  0.00000000  0.50000000  1
  Mn  Mn0  1  0.00000000  0.00000000  0.00000000  1
  Mn  Mn1  1  0.00000000  0.50000000  0.50000000  1
  Mn  Mn2  1  0.00000000  0.50000000  0.00000000  1
  O  O0  1  0.77592800  0.86182700  0.88884700  1
  O  O1  1  0.77971600  0.86734900  0.35259300  1
  O  O2  1  0.78053800  0.39168100  0.35127600  1
  O  O3  1  0.76533300  0.35648400  0.90352200  1
  O  O4  1  0.21946200  0.60831900  0.64872400  1
  O  O5  1  0.23466700  0.64351600  0.09647800  1
  O  O6  1  0.22407200  0.13817300  0.11115300  1
  O  O7  1  0.22028400  0.13265100  0.64740700  1
loop_
_geom_bond_atom_site_label_1
_geom_bond_atom_site_label_2
_geom_bond_distance
_geom_bond_site_symmetry_2
Li0 O1 2.019961 1_555
Li0 O2 2.054653 1_555
Li0 O0 2.101794 1_554
Li0 O6 2.166937 1_565
Li0 O5 2.200639 1_555
Li0 O4 2.295100 1_555
Li1 O5 2.055692 1_556
Li1 O7 2.078873 1_565
Li1 O4 2.127410 1_555
Li1 O0 2.201180 1_555
Li1 O3 2.244760 1_555
Li1 O1 2.249319 1_555
Li2 O7 2.019961 1_555
Li2 O4 2.054653 1_555
Li2 O6 2.101794 1_556
Li2 O0 2.166937 1_545
Li2 O3 2.200639 1_555
Li2 O2 2.295100 1_555
Li3 O3 2.055692 1_554
Li3 O1 2.078873 1_545
Li3 O2 2.127410 1_555
Li3 O6 2.201180 1_555
Li3 O5 2.244760 1_555
Li3 O7 2.249319 1_555
Li4 O7 2.061864 1_555
Li4 O1 2.061864 1_445
Li4 O4 2.068507 1_545
Li4 O2 2.068507 1_455
Li4 O6 2.125963 1_555
Li4 O0 2.125963 1_445
Mn0 O6 1.944874 1_555
Mn0 O0 1.944874 1_444
Mn0 O5 1.948995 1_545
Mn0 O3 1.948995 1_454
Mn0 O1 1.960295 1_445
Mn0 O7 1.960295 1_554
Mn1 O4 1.964133 1_555
Mn1 O2 1.964133 1_455
Mn1 O7 1.968889 1_555
Mn1 O1 1.968889 1_455
Mn1 O3 2.209954 1_455
Mn1 O5 2.209954 1_555
Mn2 O6 1.948079 1_555
Mn2 O0 1.948079 1_454
Mn2 O3 1.951499 1_454
Mn2 O5 1.951499 1_555
Mn2 O4 1.953061 1_554
Mn2 O2 1.953061 1_455
