# generated using pymatgen
data_CaPrZrCrO6
_symmetry_space_group_name_H-M   'P 1'
_cell_length_a   5.68746895
_cell_length_b   5.68746895
_cell_length_c   5.68746895
_cell_angle_alpha   60.00000000
_cell_angle_beta   60.00000000
_cell_angle_gamma   60.00000000
_symmetry_Int_Tables_number   1
_chemical_formula_structural   CaPrZrCrO6
_chemical_formula_sum   'Ca1 Pr1 Zr1 Cr1 O6'
_cell_volume   130.08946197
_cell_formula_units_Z   1
loop_
 _symmetry_equiv_pos_site_id
 _symmetry_equiv_pos_as_xyz
  1  'x, y, z'
loop_
 _atom_site_type_symbol
 _atom_site_label
 _atom_site_symmetry_multiplicity
 _atom_site_fract_x
 _atom_site_fract_y
 _atom_site_fract_z
 _atom_site_occupancy
  Ca  Ca0  1  0.25000000  0.25000000  0.25000000  1
  Pr  Pr0  1  0.75000000  0.75000000  0.75000000  1
  Zr  Zr0  1  0.50000000  0.50000000  0.50000000  1
  Cr  Cr0  1  -0.00000000  -0.00000000  -0.00000000  1
  O  O0  1  0.75625806  0.24374194  0.24374194  1
  O  O1  1  0.24374194  0.75625806  0.75625806  1
  O  O2  1  0.75625806  0.24374194  0.75625806  1
  O  O3  1  0.24374194  0.75625806  0.24374194  1
  O  O4  1  0.75625806  0.75625806  0.24374194  1
  O  O5  1  0.24374194  0.24374194  0.75625806  1
loop_
_geom_bond_atom_site_label_1
_geom_bond_atom_site_label_2
_geom_bond_distance
_geom_bond_site_symmetry_2
Ca0 O3 2.844180 1_545
Ca0 O5 2.844180 1_554
Ca0 O0 2.844180 1_455
Ca0 O4 2.844180 1_545
Ca0 O1 2.844180 1_545
Ca0 O4 2.844180 1_455
Ca0 O2 2.844180 1_455
Ca0 O1 2.844180 1_554
Ca0 O2 2.844180 1_554
Ca0 O3 2.844180 1_555
Ca0 O0 2.844180 1_555
Ca0 O5 2.844180 1_555
Cr0 O2 1.960489 1_454
Cr0 O1 1.960489 1_544
Cr0 O4 1.960489 1_445
Cr0 O3 1.960489 1_545
Cr0 O5 1.960489 1_554
Cr0 O0 1.960489 1_455
O0 Zr0 2.061159 1_555
O0 Pr0 2.844180 1_545
O0 Pr0 2.844180 1_554
O1 Zr0 2.061159 1_555
O1 Pr0 2.844180 1_555
O1 Pr0 2.844180 1_455
O2 Zr0 2.061159 1_555
O2 Pr0 2.844180 1_555
O2 Pr0 2.844180 1_545
O3 Zr0 2.061159 1_555
O3 Pr0 2.844180 1_554
O3 Pr0 2.844180 1_455
O4 Zr0 2.061159 1_555
O4 Pr0 2.844180 1_555
O4 Pr0 2.844180 1_554
O5 Zr0 2.061159 1_555
O5 Pr0 2.844180 1_545
O5 Pr0 2.844180 1_455
