# generated using pymatgen
data_MgMn2O4
_symmetry_space_group_name_H-M   'P 1'
_cell_length_a   6.08274891
_cell_length_b   6.08274891
_cell_length_c   6.08274891
_cell_angle_alpha   60.00000000
_cell_angle_beta   60.00000000
_cell_angle_gamma   60.00000000
_symmetry_Int_Tables_number   1
_chemical_formula_structural   MgMn2O4
_chemical_formula_sum   'Mg2 Mn4 O8'
_cell_volume   159.14194812
_cell_formula_units_Z   2
loop_
 _symmetry_equiv_pos_site_id
 _symmetry_equiv_pos_as_xyz
  1  'x, y, z'
loop_
 _atom_site_type_symbol
 _atom_site_label
 _atom_site_symmetry_multiplicity
 _atom_site_fract_x
 _atom_site_fract_y
 _atom_site_fract_z
 _atom_site_occupancy
  Mg  Mg0  1  0.50000000  0.50000000  0.50000000  1
  Mg  Mg1  1  0.75000000  0.75000000  0.75000000  1
  Mn  Mn0  1  0.12500000  0.12500000  0.62500000  1
  Mn  Mn1  1  0.12500000  0.62500000  0.12500000  1
  Mn  Mn2  1  0.62500000  0.12500000  0.12500000  1
  Mn  Mn3  1  0.12500000  0.12500000  0.12500000  1
  O  O0  1  0.88551700  0.34345000  0.88551700  1
  O  O1  1  0.36448300  0.36448300  0.90655000  1
  O  O2  1  0.36448300  0.36448300  0.36448300  1
  O  O3  1  0.90655000  0.36448300  0.36448300  1
  O  O4  1  0.88551700  0.88551700  0.88551700  1
  O  O5  1  0.34345000  0.88551700  0.88551700  1
  O  O6  1  0.36448300  0.90655000  0.36448300  1
  O  O7  1  0.88551700  0.88551700  0.34345000  1
loop_
_geom_bond_atom_site_label_1
_geom_bond_atom_site_label_2
_geom_bond_distance
_geom_bond_site_symmetry_2
Mg0 O6 2.019148 1_555
Mg0 O3 2.019148 1_555
Mg0 O1 2.019148 1_555
Mg0 O2 2.019153 1_555
Mg1 O5 2.019148 1_555
Mg1 O7 2.019148 1_555
Mg1 O0 2.019148 1_555
Mg1 O4 2.019153 1_555
Mn0 O4 2.064075 1_445
Mn0 O2 2.064075 1_555
Mn0 O5 2.064079 1_545
Mn0 O0 2.064079 1_455
Mn0 O3 2.064079 1_455
Mn0 O6 2.064079 1_545
Mn1 O4 2.064075 1_454
Mn1 O2 2.064075 1_555
Mn1 O5 2.064079 1_554
Mn1 O7 2.064079 1_455
Mn1 O3 2.064079 1_455
Mn1 O1 2.064079 1_554
Mn2 O2 2.064075 1_555
Mn2 O4 2.064075 1_544
Mn2 O0 2.064079 1_554
Mn2 O7 2.064079 1_545
Mn2 O1 2.064079 1_554
Mn2 O6 2.064079 1_545
Mn3 O1 2.064075 1_554
Mn3 O7 2.064075 1_445
Mn3 O3 2.064075 1_455
Mn3 O5 2.064075 1_544
Mn3 O0 2.064075 1_454
Mn3 O6 2.064075 1_545
