# generated using pymatgen
data_SrMg14CO16
_symmetry_space_group_name_H-M   'P 1'
_cell_length_a   8.65182074
_cell_length_b   8.59938625
_cell_length_c   4.37446653
_cell_angle_alpha   90.00000000
_cell_angle_beta   90.00000000
_cell_angle_gamma   90.00000000
_symmetry_Int_Tables_number   1
_chemical_formula_structural   SrMg14CO16
_chemical_formula_sum   'Sr1 Mg14 C1 O16'
_cell_volume   325.46183350
_cell_formula_units_Z   1
loop_
 _symmetry_equiv_pos_site_id
 _symmetry_equiv_pos_as_xyz
  1  'x, y, z'
loop_
 _atom_site_type_symbol
 _atom_site_label
 _atom_site_symmetry_multiplicity
 _atom_site_fract_x
 _atom_site_fract_y
 _atom_site_fract_z
 _atom_site_occupancy
  Sr  Sr0  1  -0.00000000  0.00000000  0.00000000  1
  Mg  Mg0  1  0.50000000  0.00000000  0.00000000  1
  Mg  Mg1  1  0.50000000  0.50000000  0.00000000  1
  Mg  Mg2  1  -0.00000000  0.26210590  0.50000000  1
  Mg  Mg3  1  0.00000000  0.73789410  0.50000000  1
  Mg  Mg4  1  0.50000000  0.25176151  0.50000000  1
  Mg  Mg5  1  0.50000000  0.74823849  0.50000000  1
  Mg  Mg6  1  0.25900388  0.00000000  0.50000000  1
  Mg  Mg7  1  0.24738348  0.50000000  0.50000000  1
  Mg  Mg8  1  0.74099612  0.00000000  0.50000000  1
  Mg  Mg9  1  0.75261652  0.50000000  0.50000000  1
  Mg  Mg10  1  0.25379802  0.25742517  0.00000000  1
  Mg  Mg11  1  0.25379802  0.74257483  0.00000000  1
  Mg  Mg12  1  0.74620198  0.25742517  0.00000000  1
  Mg  Mg13  1  0.74620198  0.74257483  -0.00000000  1
  C  C0  1  -0.00000000  0.50000000  0.00000000  1
  O  O0  1  0.27099879  -0.00000000  0.00000000  1
  O  O1  1  0.25595813  0.50000000  0.00000000  1
  O  O2  1  0.72900121  -0.00000000  0.00000000  1
  O  O3  1  0.74404187  0.50000000  0.00000000  1
  O  O4  1  0.24851528  0.25049289  0.50000000  1
  O  O5  1  0.24851528  0.74950711  0.50000000  1
  O  O6  1  0.75148472  0.25049289  0.50000000  1
  O  O7  1  0.75148472  0.74950711  0.50000000  1
  O  O8  1  -0.00000000  0.00000000  0.50000000  1
  O  O9  1  -0.00000000  0.50000000  0.50000000  1
  O  O10  1  0.50000000  0.00000000  0.50000000  1
  O  O11  1  0.50000000  0.50000000  0.50000000  1
  O  O12  1  -0.00000000  0.27232676  -0.00000000  1
  O  O13  1  0.00000000  0.72767324  0.00000000  1
  O  O14  1  0.50000000  0.25474577  0.00000000  1
  O  O15  1  0.50000000  0.74525423  -0.00000000  1
loop_
_geom_bond_atom_site_label_1
_geom_bond_atom_site_label_2
_geom_bond_distance
_geom_bond_site_symmetry_2
Mg0 O0 1.981277 1_555
Mg0 O2 1.981277 1_555
Mg0 O10 2.187233 1_555
Mg0 O10 2.187233 1_554
Mg0 O14 2.190657 1_555
Mg0 O15 2.190657 1_545
Mg1 O14 2.109036 1_555
Mg1 O15 2.109036 1_555
Mg1 O3 2.111407 1_555
Mg1 O1 2.111407 1_555
Mg1 O11 2.187233 1_554
Mg1 O11 2.187233 1_555
Mg2 O9 2.045743 1_555
Mg2 O4 2.152428 1_555
Mg2 O6 2.152428 1_455
Mg2 O12 2.188999 1_556
Mg2 O12 2.188999 1_555
Mg2 O8 2.253950 1_555
Mg3 O9 2.045743 1_555
Mg3 O7 2.152428 1_455
Mg3 O5 2.152428 1_555
Mg3 O13 2.188999 1_555
Mg3 O13 2.188999 1_556
Mg3 O8 2.253950 1_565
Mg4 O11 2.134699 1_555
Mg4 O10 2.164994 1_555
Mg4 O4 2.175828 1_555
Mg4 O6 2.175828 1_555
Mg4 O14 2.187384 1_555
Mg4 O14 2.187384 1_556
Mg5 O11 2.134699 1_555
Mg5 O10 2.164994 1_565
Mg5 O7 2.175828 1_555
Mg5 O5 2.175828 1_555
Mg5 O15 2.187384 1_555
Mg5 O15 2.187384 1_556
Mg6 O10 2.085055 1_555
Mg6 O5 2.155996 1_545
Mg6 O4 2.155996 1_555
Mg6 O0 2.189694 1_555
Mg6 O0 2.189694 1_556
Mg6 O8 2.240855 1_555
Mg7 O9 2.140318 1_555
Mg7 O4 2.145630 1_555
Mg7 O5 2.145630 1_555
Mg7 O11 2.185593 1_555
Mg7 O1 2.188491 1_555
Mg7 O1 2.188491 1_556
Mg8 O10 2.085055 1_555
Mg8 O7 2.155996 1_545
Mg8 O6 2.155996 1_555
Mg8 O2 2.189694 1_556
Mg8 O2 2.189694 1_555
Mg8 O8 2.240855 1_655
Mg9 O9 2.140318 1_655
Mg9 O6 2.145630 1_555
Mg9 O7 2.145630 1_555
Mg9 O11 2.185593 1_555
Mg9 O3 2.188491 1_556
Mg9 O3 2.188491 1_555
Mg10 O1 2.086078 1_555
Mg10 O14 2.130220 1_555
Mg10 O4 2.188523 1_554
Mg10 O4 2.188523 1_555
Mg10 O12 2.199551 1_555
Mg10 O0 2.218695 1_555
Mg11 O1 2.086078 1_555
Mg11 O15 2.130220 1_555
Mg11 O5 2.188523 1_554
Mg11 O5 2.188523 1_555
Mg11 O13 2.199551 1_555
Mg11 O0 2.218695 1_565
Mg12 O3 2.086078 1_555
Mg12 O14 2.130220 1_555
Mg12 O6 2.188523 1_554
Mg12 O6 2.188523 1_555
Mg12 O12 2.199551 1_655
Mg12 O2 2.218695 1_555
Mg13 O3 2.086078 1_555
Mg13 O15 2.130220 1_555
Mg13 O7 2.188523 1_554
Mg13 O7 2.188523 1_555
Mg13 O13 2.199551 1_655
Mg13 O2 2.218695 1_565
C0 O13 1.957850 1_555
C0 O12 1.957850 1_555
O0 Sr0 2.344633 1_555
O2 Sr0 2.344633 1_655
O8 Sr0 2.187233 1_555
O8 Sr0 2.187233 1_556
O12 Sr0 2.341843 1_555
O13 Sr0 2.341843 1_565
