# generated using pymatgen
data_Ti8BiO7
_symmetry_space_group_name_H-M   'P 1'
_cell_length_a   18.67384130
_cell_length_b   18.67384130
_cell_length_c   6.07344600
_cell_angle_alpha   90.00000000
_cell_angle_beta   90.00000000
_cell_angle_gamma   130.23251189
_symmetry_Int_Tables_number   1
_chemical_formula_structural   Ti8BiO7
_chemical_formula_sum   'Ti64 Bi8 O56'
_cell_volume   1616.85667284
_cell_formula_units_Z   8
loop_
 _symmetry_equiv_pos_site_id
 _symmetry_equiv_pos_as_xyz
  1  'x, y, z'
loop_
 _atom_site_type_symbol
 _atom_site_label
 _atom_site_symmetry_multiplicity
 _atom_site_fract_x
 _atom_site_fract_y
 _atom_site_fract_z
 _atom_site_occupancy
  Ti  Ti0_0  1  0.24419400  0.07326750  0.25000000  1
  Ti  Ti0_1  1  0.24419400  0.07326750  0.75000000  1
  Ti  Ti0_2  1  0.24419400  0.57326750  0.25000000  1
  Ti  Ti0_3  1  0.24419400  0.57326750  0.75000000  1
  Ti  Ti0_4  1  0.74419400  0.07326750  0.25000000  1
  Ti  Ti0_5  1  0.74419400  0.07326750  0.75000000  1
  Ti  Ti0_6  1  0.74419400  0.57326750  0.25000000  1
  Ti  Ti0_7  1  0.74419400  0.57326750  0.75000000  1
  Ti  Ti1_0  1  0.25580600  0.42673250  0.25000000  1
  Ti  Ti1_1  1  0.25580600  0.42673250  0.75000000  1
  Ti  Ti1_2  1  0.25580600  0.92673250  0.25000000  1
  Ti  Ti1_3  1  0.25580600  0.92673250  0.75000000  1
  Ti  Ti1_4  1  0.75580600  0.42673250  0.25000000  1
  Ti  Ti1_5  1  0.75580600  0.42673250  0.75000000  1
  Ti  Ti1_6  1  0.75580600  0.92673250  0.25000000  1
  Ti  Ti1_7  1  0.75580600  0.92673250  0.75000000  1
  Ti  Ti2_0  1  0.07326750  0.24419400  0.25000000  1
  Ti  Ti2_1  1  0.07326750  0.24419400  0.75000000  1
  Ti  Ti2_2  1  0.07326750  0.74419400  0.25000000  1
  Ti  Ti2_3  1  0.07326750  0.74419400  0.75000000  1
  Ti  Ti2_4  1  0.57326750  0.24419400  0.25000000  1
  Ti  Ti2_5  1  0.57326750  0.24419400  0.75000000  1
  Ti  Ti2_6  1  0.57326750  0.74419400  0.25000000  1
  Ti  Ti2_7  1  0.57326750  0.74419400  0.75000000  1
  Ti  Ti3_0  1  0.42673250  0.25580600  0.25000000  1
  Ti  Ti3_1  1  0.42673250  0.25580600  0.75000000  1
  Ti  Ti3_2  1  0.42673250  0.75580600  0.25000000  1
  Ti  Ti3_3  1  0.42673250  0.75580600  0.75000000  1
  Ti  Ti3_4  1  0.92673250  0.25580600  0.25000000  1
  Ti  Ti3_5  1  0.92673250  0.25580600  0.75000000  1
  Ti  Ti3_6  1  0.92673250  0.75580600  0.25000000  1
  Ti  Ti3_7  1  0.92673250  0.75580600  0.75000000  1
  Ti  Ti4_0  1  0.08693300  0.08693300  0.00000000  1
  Ti  Ti4_1  1  0.08693300  0.08693300  0.50000000  1
  Ti  Ti4_2  1  0.08693300  0.58693300  0.00000000  1
  Ti  Ti4_3  1  0.08693300  0.58693300  0.50000000  1
  Ti  Ti4_4  1  0.58693300  0.08693300  0.00000000  1
  Ti  Ti4_5  1  0.58693300  0.08693300  0.50000000  1
  Ti  Ti4_6  1  0.58693300  0.58693300  0.00000000  1
  Ti  Ti4_7  1  0.58693300  0.58693300  0.50000000  1
  Ti  Ti5_0  1  0.41306700  0.41306700  0.00000000  1
  Ti  Ti5_1  1  0.41306700  0.41306700  0.50000000  1
  Ti  Ti5_2  1  0.41306700  0.91306700  0.00000000  1
  Ti  Ti5_3  1  0.41306700  0.91306700  0.50000000  1
  Ti  Ti5_4  1  0.91306700  0.41306700  0.00000000  1
  Ti  Ti5_5  1  0.91306700  0.41306700  0.50000000  1
  Ti  Ti5_6  1  0.91306700  0.91306700  0.00000000  1
  Ti  Ti5_7  1  0.91306700  0.91306700  0.50000000  1
  Ti  Ti6_0  1  0.10172350  0.39827650  0.00000000  1
  Ti  Ti6_1  1  0.10172350  0.39827650  0.50000000  1
  Ti  Ti6_2  1  0.10172350  0.89827650  0.00000000  1
  Ti  Ti6_3  1  0.10172350  0.89827650  0.50000000  1
  Ti  Ti6_4  1  0.60172350  0.39827650  0.00000000  1
  Ti  Ti6_5  1  0.60172350  0.39827650  0.50000000  1
  Ti  Ti6_6  1  0.60172350  0.89827650  0.00000000  1
  Ti  Ti6_7  1  0.60172350  0.89827650  0.50000000  1
  Ti  Ti7_0  1  0.39827650  0.10172350  0.00000000  1
  Ti  Ti7_1  1  0.39827650  0.10172350  0.50000000  1
  Ti  Ti7_2  1  0.39827650  0.60172350  0.00000000  1
  Ti  Ti7_3  1  0.39827650  0.60172350  0.50000000  1
  Ti  Ti7_4  1  0.89827650  0.10172350  0.00000000  1
  Ti  Ti7_5  1  0.89827650  0.10172350  0.50000000  1
  Ti  Ti7_6  1  0.89827650  0.60172350  0.00000000  1
  Ti  Ti7_7  1  0.89827650  0.60172350  0.50000000  1
  Bi  Bi0_0  1  0.25000000  0.25000000  0.25000000  1
  Bi  Bi0_1  1  0.25000000  0.25000000  0.75000000  1
  Bi  Bi0_2  1  0.25000000  0.75000000  0.25000000  1
  Bi  Bi0_3  1  0.25000000  0.75000000  0.75000000  1
  Bi  Bi0_4  1  0.75000000  0.25000000  0.25000000  1
  Bi  Bi0_5  1  0.75000000  0.25000000  0.75000000  1
  Bi  Bi0_6  1  0.75000000  0.75000000  0.25000000  1
  Bi  Bi0_7  1  0.75000000  0.75000000  0.75000000  1
  O  O0_0  1  0.14866800  0.02854950  0.00000000  1
  O  O0_1  1  0.14866800  0.02854950  0.50000000  1
  O  O0_2  1  0.14866800  0.52854950  0.00000000  1
  O  O0_3  1  0.14866800  0.52854950  0.50000000  1
  O  O0_4  1  0.64866800  0.02854950  0.00000000  1
  O  O0_5  1  0.64866800  0.02854950  0.50000000  1
  O  O0_6  1  0.64866800  0.52854950  0.00000000  1
  O  O0_7  1  0.64866800  0.52854950  0.50000000  1
  O  O1_0  1  0.35133200  0.47145050  0.00000000  1
  O  O1_1  1  0.35133200  0.47145050  0.50000000  1
  O  O1_2  1  0.35133200  0.97145050  0.00000000  1
  O  O1_3  1  0.35133200  0.97145050  0.50000000  1
  O  O1_4  1  0.85133200  0.47145050  0.00000000  1
  O  O1_5  1  0.85133200  0.47145050  0.50000000  1
  O  O1_6  1  0.85133200  0.97145050  0.00000000  1
  O  O1_7  1  0.85133200  0.97145050  0.50000000  1
  O  O2_0  1  0.02854950  0.14866800  0.00000000  1
  O  O2_1  1  0.02854950  0.14866800  0.50000000  1
  O  O2_2  1  0.02854950  0.64866800  0.00000000  1
  O  O2_3  1  0.02854950  0.64866800  0.50000000  1
  O  O2_4  1  0.52854950  0.14866800  0.00000000  1
  O  O2_5  1  0.52854950  0.14866800  0.50000000  1
  O  O2_6  1  0.52854950  0.64866800  0.00000000  1
  O  O2_7  1  0.52854950  0.64866800  0.50000000  1
  O  O3_0  1  0.47145050  0.35133200  0.00000000  1
  O  O3_1  1  0.47145050  0.35133200  0.50000000  1
  O  O3_2  1  0.47145050  0.85133200  0.00000000  1
  O  O3_3  1  0.47145050  0.85133200  0.50000000  1
  O  O3_4  1  0.97145050  0.35133200  0.00000000  1
  O  O3_5  1  0.97145050  0.35133200  0.50000000  1
  O  O3_6  1  0.97145050  0.85133200  0.00000000  1
  O  O3_7  1  0.97145050  0.85133200  0.50000000  1
  O  O4_0  1  0.16101950  0.33898050  0.00000000  1
  O  O4_1  1  0.16101950  0.33898050  0.50000000  1
  O  O4_2  1  0.16101950  0.83898050  0.00000000  1
  O  O4_3  1  0.16101950  0.83898050  0.50000000  1
  O  O4_4  1  0.66101950  0.33898050  0.00000000  1
  O  O4_5  1  0.66101950  0.33898050  0.50000000  1
  O  O4_6  1  0.66101950  0.83898050  0.00000000  1
  O  O4_7  1  0.66101950  0.83898050  0.50000000  1
  O  O5_0  1  0.33898050  0.16101950  0.00000000  1
  O  O5_1  1  0.33898050  0.16101950  0.50000000  1
  O  O5_2  1  0.33898050  0.66101950  0.00000000  1
  O  O5_3  1  0.33898050  0.66101950  0.50000000  1
  O  O5_4  1  0.83898050  0.16101950  0.00000000  1
  O  O5_5  1  0.83898050  0.16101950  0.50000000  1
  O  O5_6  1  0.83898050  0.66101950  0.00000000  1
  O  O5_7  1  0.83898050  0.66101950  0.50000000  1
  O  O6_0  1  0.00000000  0.00000000  0.25000000  1
  O  O6_1  1  0.00000000  0.00000000  0.75000000  1
  O  O6_2  1  0.00000000  0.50000000  0.25000000  1
  O  O6_3  1  0.00000000  0.50000000  0.75000000  1
  O  O6_4  1  0.50000000  0.00000000  0.25000000  1
  O  O6_5  1  0.50000000  0.00000000  0.75000000  1
  O  O6_6  1  0.50000000  0.50000000  0.25000000  1
  O  O6_7  1  0.50000000  0.50000000  0.75000000  1
loop_
_geom_bond_atom_site_label_1
_geom_bond_atom_site_label_2
_geom_bond_distance
_geom_bond_site_symmetry_2
Bi0_0 Ti5_0 2.978660 1_555
Bi0_0 Ti5_1 2.978660 1_555
Bi0_0 Ti4_1 2.978660 1_555
Bi0_0 Ti4_0 2.978660 1_555
Bi0_0 Bi0_1 3.036723 1_554
Bi0_0 Bi0_1 3.036723 1_555
Bi0_0 Ti1_0 3.231307 1_555
Bi0_0 Ti3_0 3.231307 1_555
Bi0_0 Ti0_0 3.231307 1_555
Bi0_0 Ti2_0 3.231307 1_555
Bi0_1 Ti5_0 2.978660 1_556
Bi0_1 Ti5_1 2.978660 1_555
Bi0_1 Ti4_0 2.978660 1_556
Bi0_1 Ti4_1 2.978660 1_555
Bi0_1 Ti1_1 3.231307 1_555
Bi0_1 Ti3_1 3.231307 1_555
Bi0_1 Ti0_1 3.231307 1_555
Bi0_1 Ti2_1 3.231307 1_555
Bi0_2 Ti5_2 2.978660 1_555
Bi0_2 Ti5_3 2.978660 1_555
Bi0_2 Ti4_2 2.978660 1_555
Bi0_2 Ti4_3 2.978660 1_555
Bi0_2 Bi0_3 3.036723 1_555
Bi0_2 Bi0_3 3.036723 1_554
Bi0_2 Ti1_2 3.231307 1_555
Bi0_2 Ti3_2 3.231307 1_555
Bi0_2 Ti0_2 3.231307 1_555
Bi0_2 Ti2_2 3.231307 1_555
Bi0_3 Ti5_2 2.978660 1_556
Bi0_3 Ti5_3 2.978660 1_555
Bi0_3 Ti4_3 2.978660 1_555
Bi0_3 Ti4_2 2.978660 1_556
Bi0_3 Ti1_3 3.231307 1_555
Bi0_3 Ti3_3 3.231307 1_555
Bi0_3 Ti0_3 3.231307 1_555
Bi0_3 Ti2_3 3.231307 1_555
Bi0_4 Ti5_5 2.978660 1_555
Bi0_4 Ti5_4 2.978660 1_555
Bi0_4 Ti4_4 2.978660 1_555
Bi0_4 Ti4_5 2.978660 1_555
Bi0_4 Bi0_5 3.036723 1_554
Bi0_4 Bi0_5 3.036723 1_555
Bi0_4 Ti1_4 3.231307 1_555
Bi0_4 Ti3_4 3.231307 1_555
Bi0_4 Ti0_4 3.231307 1_555
Bi0_4 Ti2_4 3.231307 1_555
Bi0_5 Ti5_5 2.978660 1_555
Bi0_5 Ti5_4 2.978660 1_556
Bi0_5 Ti4_4 2.978660 1_556
Bi0_5 Ti4_5 2.978660 1_555
Bi0_5 Ti1_5 3.231307 1_555
Bi0_5 Ti3_5 3.231307 1_555
Bi0_5 Ti2_5 3.231307 1_555
Bi0_5 Ti0_5 3.231307 1_555
Bi0_6 Ti5_6 2.978660 1_555
Bi0_6 Ti5_7 2.978660 1_555
Bi0_6 Ti4_7 2.978660 1_555
Bi0_6 Ti4_6 2.978660 1_555
Bi0_6 Bi0_7 3.036723 1_555
Bi0_6 Bi0_7 3.036723 1_554
Bi0_6 Ti1_6 3.231307 1_555
Bi0_6 Ti3_6 3.231307 1_555
Bi0_6 Ti2_6 3.231307 1_555
Bi0_6 Ti0_6 3.231307 1_555
Bi0_7 Ti5_6 2.978660 1_556
Bi0_7 Ti5_7 2.978660 1_555
Bi0_7 Ti4_7 2.978660 1_555
Bi0_7 Ti4_6 2.978660 1_556
Bi0_7 Ti1_7 3.231307 1_555
Bi0_7 Ti3_7 3.231307 1_555
Bi0_7 Ti2_7 3.231307 1_555
Bi0_7 Ti0_7 3.231307 1_555
O0_0 Ti6_2 1.982843 1_545
O0_0 Ti4_0 2.035005 1_555
O0_0 Ti0_1 2.064115 1_554
O0_0 Ti0_0 2.064115 1_555
O0_1 Ti6_3 1.982843 1_545
O0_1 Ti4_1 2.035005 1_555
O0_1 Ti0_1 2.064115 1_555
O0_1 Ti0_0 2.064115 1_555
O0_2 Ti6_0 1.982843 1_555
O0_2 Ti4_2 2.035005 1_555
O0_2 Ti0_2 2.064115 1_555
O0_2 Ti0_3 2.064115 1_554
O0_3 Ti6_1 1.982843 1_555
O0_3 Ti4_3 2.035005 1_555
O0_3 Ti0_3 2.064115 1_555
O0_3 Ti0_2 2.064115 1_555
O0_4 Ti6_6 1.982843 1_545
O0_4 Ti4_4 2.035005 1_555
O0_4 Ti0_4 2.064115 1_555
O0_4 Ti0_5 2.064115 1_554
O0_5 Ti6_7 1.982843 1_545
O0_5 Ti4_5 2.035005 1_555
O0_5 Ti0_4 2.064115 1_555
O0_5 Ti0_5 2.064115 1_555
O0_6 Ti6_4 1.982843 1_555
O0_6 Ti4_6 2.035005 1_555
O0_6 Ti0_6 2.064115 1_555
O0_6 Ti0_7 2.064115 1_554
O0_7 Ti6_5 1.982843 1_555
O0_7 Ti4_7 2.035005 1_555
O0_7 Ti0_7 2.064115 1_555
O0_7 Ti0_6 2.064115 1_555
O1_0 Ti7_2 1.982843 1_555
O1_0 Ti5_0 2.035005 1_555
O1_0 Ti1_1 2.064115 1_554
O1_0 Ti1_0 2.064115 1_555
O1_1 Ti7_3 1.982843 1_555
O1_1 Ti5_1 2.035005 1_555
O1_1 Ti1_1 2.064115 1_555
O1_1 Ti1_0 2.064115 1_555
O1_2 Ti7_0 1.982843 1_565
O1_2 Ti5_2 2.035005 1_555
O1_2 Ti1_2 2.064115 1_555
O1_2 Ti1_3 2.064115 1_554
O1_3 Ti7_1 1.982843 1_565
O1_3 Ti5_3 2.035005 1_555
O1_3 Ti1_2 2.064115 1_555
O1_3 Ti1_3 2.064115 1_555
O1_4 Ti7_6 1.982843 1_555
O1_4 Ti5_4 2.035005 1_555
O1_4 Ti1_4 2.064115 1_555
O1_4 Ti1_5 2.064115 1_554
O1_5 Ti7_7 1.982843 1_555
O1_5 Ti5_5 2.035005 1_555
O1_5 Ti1_4 2.064115 1_555
O1_5 Ti1_5 2.064115 1_555
O1_6 Ti7_4 1.982843 1_565
O1_6 Ti5_6 2.035005 1_555
O1_6 Ti1_6 2.064115 1_555
O1_6 Ti1_7 2.064115 1_554
O1_7 Ti7_5 1.982843 1_565
O1_7 Ti5_7 2.035005 1_555
O1_7 Ti1_7 2.064115 1_555
O1_7 Ti1_6 2.064115 1_555
O2_0 Ti7_4 1.982843 1_455
O2_0 Ti4_0 2.035005 1_555
O2_0 Ti2_0 2.064115 1_555
O2_0 Ti2_1 2.064115 1_554
O2_1 Ti7_5 1.982843 1_455
O2_1 Ti4_1 2.035005 1_555
O2_1 Ti2_0 2.064115 1_555
O2_1 Ti2_1 2.064115 1_555
O2_2 Ti7_6 1.982843 1_455
O2_2 Ti4_2 2.035005 1_555
O2_2 Ti2_2 2.064115 1_555
O2_2 Ti2_3 2.064115 1_554
O2_3 Ti7_7 1.982843 1_455
O2_3 Ti4_3 2.035005 1_555
O2_3 Ti2_2 2.064115 1_555
O2_3 Ti2_3 2.064115 1_555
O2_4 Ti7_0 1.982843 1_555
O2_4 Ti4_4 2.035005 1_555
O2_4 Ti2_4 2.064115 1_555
O2_4 Ti2_5 2.064115 1_554
O2_5 Ti7_1 1.982843 1_555
O2_5 Ti4_5 2.035005 1_555
O2_5 Ti2_4 2.064115 1_555
O2_5 Ti2_5 2.064115 1_555
O2_6 Ti7_2 1.982843 1_555
O2_6 Ti4_6 2.035005 1_555
O2_6 Ti2_7 2.064115 1_554
O2_6 Ti2_6 2.064115 1_555
O2_7 Ti7_3 1.982843 1_555
O2_7 Ti4_7 2.035005 1_555
O2_7 Ti2_6 2.064115 1_555
O2_7 Ti2_7 2.064115 1_555
O3_0 Ti6_4 1.982843 1_555
O3_0 Ti5_0 2.035005 1_555
O3_0 Ti3_1 2.064115 1_554
O3_0 Ti3_0 2.064115 1_555
O3_1 Ti6_5 1.982843 1_555
O3_1 Ti5_1 2.035005 1_555
O3_1 Ti3_1 2.064115 1_555
O3_1 Ti3_0 2.064115 1_555
O3_2 Ti6_6 1.982843 1_555
O3_2 Ti5_2 2.035005 1_555
O3_2 Ti3_2 2.064115 1_555
O3_2 Ti3_3 2.064115 1_554
O3_3 Ti6_7 1.982843 1_555
O3_3 Ti5_3 2.035005 1_555
O3_3 Ti3_3 2.064115 1_555
O3_3 Ti3_2 2.064115 1_555
O3_4 Ti6_0 1.982843 1_655
O3_4 Ti5_4 2.035005 1_555
O3_4 Ti3_4 2.064115 1_555
O3_4 Ti3_5 2.064115 1_554
O3_5 Ti6_1 1.982843 1_655
O3_5 Ti5_5 2.035005 1_555
O3_5 Ti3_5 2.064115 1_555
O3_5 Ti3_4 2.064115 1_555
O3_6 Ti6_2 1.982843 1_655
O3_6 Ti5_6 2.035005 1_555
O3_6 Ti3_7 2.064115 1_554
O3_6 Ti3_6 2.064115 1_555
O3_7 Ti6_3 1.982843 1_655
O3_7 Ti5_7 2.035005 1_555
O3_7 Ti3_7 2.064115 1_555
O3_7 Ti3_6 2.064115 1_555
O4_0 Ti6_0 2.008975 1_555
O4_0 Ti2_0 2.092093 1_555
O4_0 Ti2_1 2.092093 1_554
O4_0 Ti1_0 2.092093 1_555
O4_0 Ti1_1 2.092093 1_554
O4_1 Ti6_1 2.008975 1_555
O4_1 Ti2_0 2.092093 1_555
O4_1 Ti2_1 2.092093 1_555
O4_1 Ti1_0 2.092093 1_555
O4_1 Ti1_1 2.092093 1_555
O4_2 Ti6_2 2.008975 1_555
O4_2 Ti2_3 2.092093 1_554
O4_2 Ti2_2 2.092093 1_555
O4_2 Ti1_3 2.092093 1_554
O4_2 Ti1_2 2.092093 1_555
O4_3 Ti6_3 2.008975 1_555
O4_3 Ti2_2 2.092093 1_555
O4_3 Ti2_3 2.092093 1_555
O4_3 Ti1_2 2.092093 1_555
O4_3 Ti1_3 2.092093 1_555
O4_4 Ti6_4 2.008975 1_555
O4_4 Ti2_4 2.092093 1_555
O4_4 Ti2_5 2.092093 1_554
O4_4 Ti1_5 2.092093 1_554
O4_4 Ti1_4 2.092093 1_555
O4_5 Ti6_5 2.008975 1_555
O4_5 Ti2_5 2.092093 1_555
O4_5 Ti2_4 2.092093 1_555
O4_5 Ti1_5 2.092093 1_555
O4_5 Ti1_4 2.092093 1_555
O4_6 Ti6_6 2.008975 1_555
O4_6 Ti2_6 2.092093 1_555
O4_6 Ti2_7 2.092093 1_554
O4_6 Ti1_7 2.092093 1_554
O4_6 Ti1_6 2.092093 1_555
O4_7 Ti6_7 2.008975 1_555
O4_7 Ti2_6 2.092093 1_555
O4_7 Ti2_7 2.092093 1_555
O4_7 Ti1_6 2.092093 1_555
O4_7 Ti1_7 2.092093 1_555
O5_0 Ti7_0 2.008975 1_555
O5_0 Ti0_1 2.092093 1_554
O5_0 Ti0_0 2.092093 1_555
O5_0 Ti3_0 2.092093 1_555
O5_0 Ti3_1 2.092093 1_554
O5_1 Ti7_1 2.008975 1_555
O5_1 Ti0_0 2.092093 1_555
O5_1 Ti0_1 2.092093 1_555
O5_1 Ti3_0 2.092093 1_555
O5_1 Ti3_1 2.092093 1_555
O5_2 Ti7_2 2.008975 1_555
O5_2 Ti0_3 2.092093 1_554
O5_2 Ti0_2 2.092093 1_555
O5_2 Ti3_2 2.092093 1_555
O5_2 Ti3_3 2.092093 1_554
O5_3 Ti7_3 2.008975 1_555
O5_3 Ti0_3 2.092093 1_555
O5_3 Ti0_2 2.092093 1_555
O5_3 Ti3_3 2.092093 1_555
O5_3 Ti3_2 2.092093 1_555
O5_4 Ti7_4 2.008975 1_555
O5_4 Ti0_4 2.092093 1_555
O5_4 Ti0_5 2.092093 1_554
O5_4 Ti3_5 2.092093 1_554
O5_4 Ti3_4 2.092093 1_555
O5_5 Ti7_5 2.008975 1_555
O5_5 Ti0_4 2.092093 1_555
O5_5 Ti0_5 2.092093 1_555
O5_5 Ti3_4 2.092093 1_555
O5_5 Ti3_5 2.092093 1_555
O5_6 Ti7_6 2.008975 1_555
O5_6 Ti0_6 2.092093 1_555
O5_6 Ti0_7 2.092093 1_554
O5_6 Ti3_7 2.092093 1_554
O5_6 Ti3_6 2.092093 1_555
O5_7 Ti7_7 2.008975 1_555
O5_7 Ti0_6 2.092093 1_555
O5_7 Ti0_7 2.092093 1_555
O5_7 Ti3_7 2.092093 1_555
O5_7 Ti3_6 2.092093 1_555
O6_0 Ti4_0 2.042503 1_555
O6_0 Ti4_1 2.042503 1_555
O6_0 Ti5_6 2.042503 1_445
O6_0 Ti5_7 2.042503 1_445
O6_1 Ti4_0 2.042503 1_556
O6_1 Ti4_1 2.042503 1_555
O6_1 Ti5_6 2.042503 1_446
O6_1 Ti5_7 2.042503 1_445
O6_2 Ti4_3 2.042503 1_555
O6_2 Ti4_2 2.042503 1_555
O6_2 Ti5_5 2.042503 1_455
O6_2 Ti5_4 2.042503 1_455
O6_3 Ti4_2 2.042503 1_556
O6_3 Ti4_3 2.042503 1_555
O6_3 Ti5_5 2.042503 1_455
O6_3 Ti5_4 2.042503 1_456
O6_4 Ti4_5 2.042503 1_555
O6_4 Ti4_4 2.042503 1_555
O6_4 Ti5_3 2.042503 1_545
O6_4 Ti5_2 2.042503 1_545
O6_5 Ti4_5 2.042503 1_555
O6_5 Ti4_4 2.042503 1_556
O6_5 Ti5_3 2.042503 1_545
O6_5 Ti5_2 2.042503 1_546
O6_6 Ti4_6 2.042503 1_555
O6_6 Ti4_7 2.042503 1_555
O6_6 Ti5_0 2.042503 1_555
O6_6 Ti5_1 2.042503 1_555
O6_7 Ti4_6 2.042503 1_556
O6_7 Ti4_7 2.042503 1_555
O6_7 Ti5_0 2.042503 1_556
O6_7 Ti5_1 2.042503 1_555
