# generated using pymatgen
data_Mn4Hg3Au
_symmetry_space_group_name_H-M   'P 1'
_cell_length_a   3.31672400
_cell_length_b   3.31672400
_cell_length_c   13.06485500
_cell_angle_alpha   90.00000000
_cell_angle_beta   90.00000000
_cell_angle_gamma   90.00000000
_symmetry_Int_Tables_number   1
_chemical_formula_structural   Mn4Hg3Au
_chemical_formula_sum   'Mn4 Hg3 Au1'
_cell_volume   143.72200288
_cell_formula_units_Z   1
loop_
 _symmetry_equiv_pos_site_id
 _symmetry_equiv_pos_as_xyz
  1  'x, y, z'
loop_
 _atom_site_type_symbol
 _atom_site_label
 _atom_site_symmetry_multiplicity
 _atom_site_fract_x
 _atom_site_fract_y
 _atom_site_fract_z
 _atom_site_occupancy
  Mn  Mn0  1  0.50000000  0.50000000  0.11638500  1
  Mn  Mn1  1  0.50000000  0.50000000  0.37432800  1
  Mn  Mn2  1  0.50000000  0.50000000  0.62567200  1
  Mn  Mn3  1  0.50000000  0.50000000  0.88361500  1
  Hg  Hg0  1  0.00000000  0.00000000  0.24825700  1
  Hg  Hg1  1  0.00000000  0.00000000  0.50000000  1
  Hg  Hg2  1  0.00000000  0.00000000  0.75174300  1
  Au  Au0  1  0.00000000  0.00000000  0.00000000  1
loop_
_geom_bond_atom_site_label_1
_geom_bond_atom_site_label_2
_geom_bond_distance
_geom_bond_site_symmetry_2
Hg0 Mn1 2.865879 1_455
Hg0 Mn1 2.865879 1_545
Hg0 Mn1 2.865879 1_555
Hg0 Mn1 2.865879 1_445
Hg0 Mn0 2.910099 1_555
Hg0 Mn0 2.910099 1_455
Hg0 Mn0 2.910099 1_445
Hg0 Mn0 2.910099 1_545
Hg1 Mn2 2.862887 1_455
Hg1 Mn1 2.862887 1_555
Hg1 Mn1 2.862887 1_445
Hg1 Mn1 2.862887 1_545
Hg1 Mn2 2.862887 1_445
Hg1 Mn2 2.862887 1_555
Hg1 Mn2 2.862887 1_545
Hg1 Mn1 2.862887 1_455
Hg2 Mn2 2.865879 1_455
Hg2 Mn2 2.865879 1_555
Hg2 Mn2 2.865879 1_445
Hg2 Mn2 2.865879 1_545
Hg2 Mn3 2.910099 1_555
Hg2 Mn3 2.910099 1_445
Hg2 Mn3 2.910099 1_545
Hg2 Mn3 2.910099 1_455
Au0 Mn0 2.795069 1_555
Au0 Mn0 2.795069 1_455
Au0 Mn3 2.795069 1_444
Au0 Mn3 2.795069 1_544
Au0 Mn0 2.795069 1_445
Au0 Mn0 2.795069 1_545
Au0 Mn3 2.795069 1_554
Au0 Mn3 2.795069 1_454
