# generated using pymatgen
data_Nb3SiNi8
_symmetry_space_group_name_H-M   'P 1'
_cell_length_a   4.79451320
_cell_length_b   4.79451320
_cell_length_c   7.70046200
_cell_angle_alpha   90.00000000
_cell_angle_beta   90.00000000
_cell_angle_gamma   119.99998897
_symmetry_Int_Tables_number   1
_chemical_formula_structural   Nb3SiNi8
_chemical_formula_sum   'Nb3 Si1 Ni8'
_cell_volume   153.29800373
_cell_formula_units_Z   1
loop_
 _symmetry_equiv_pos_site_id
 _symmetry_equiv_pos_as_xyz
  1  'x, y, z'
loop_
 _atom_site_type_symbol
 _atom_site_label
 _atom_site_symmetry_multiplicity
 _atom_site_fract_x
 _atom_site_fract_y
 _atom_site_fract_z
 _atom_site_occupancy
  Nb  Nb0  1  0.33333300  0.66666700  0.44396700  1
  Nb  Nb1  1  0.33333300  0.66666700  0.06164200  1
  Nb  Nb2  1  0.00000000  0.00000000  0.92160300  1
  Si  Si0  1  0.00000000  0.00000000  0.54744600  1
  Ni  Ni0  1  0.66666700  0.33333300  0.50302700  1
  Ni  Ni1  1  0.66666700  0.33333300  0.00618200  1
  Ni  Ni2  1  0.49743200  0.50256800  0.75152300  1
  Ni  Ni3  1  0.00513600  0.50256800  0.75152300  1
  Ni  Ni4  1  0.49743200  0.99486400  0.75152300  1
  Ni  Ni5  1  0.83623300  0.16376700  0.25384600  1
  Ni  Ni6  1  0.32753300  0.16376700  0.25384600  1
  Ni  Ni7  1  0.83623300  0.67246700  0.25384600  1
loop_
_geom_bond_atom_site_label_1
_geom_bond_atom_site_label_2
_geom_bond_distance
_geom_bond_site_symmetry_2
Nb0 Ni4 2.732396 1_555
Nb0 Ni3 2.732396 1_555
Nb0 Ni2 2.732398 1_555
Nb0 Ni0 2.805222 1_455
Nb0 Ni0 2.805222 1_565
Nb0 Ni0 2.805230 1_555
Nb0 Ni7 2.809052 1_455
Nb0 Ni6 2.809052 1_565
Nb0 Ni6 2.809052 1_555
Nb0 Ni7 2.809052 1_555
Nb0 Ni5 2.809052 1_565
Nb0 Ni5 2.809052 1_455
Nb0 Si0 2.880518 1_565
Nb0 Si0 2.880522 1_665
Nb0 Si0 2.880522 1_555
Nb0 Nb1 2.944079 1_555
Nb1 Ni4 2.749520 1_554
Nb1 Ni3 2.749520 1_554
Nb1 Ni2 2.749522 1_554
Nb1 Ni1 2.800862 1_455
Nb1 Ni1 2.800862 1_565
Nb1 Ni1 2.800869 1_555
Nb1 Ni7 2.817445 1_455
Nb1 Ni6 2.817445 1_565
Nb1 Ni6 2.817445 1_555
Nb1 Ni7 2.817445 1_555
Nb1 Ni5 2.817445 1_565
Nb1 Ni5 2.817445 1_455
Nb1 Nb2 2.970742 1_564
Nb1 Nb2 2.970746 1_554
Nb1 Nb2 2.970746 1_664
Nb2 Ni3 2.731775 1_545
Nb2 Ni4 2.731775 1_545
Nb2 Ni4 2.731775 1_445
Nb2 Ni3 2.731775 1_555
Nb2 Ni2 2.731775 1_555
Nb2 Ni2 2.731775 1_445
Nb2 Ni1 2.843699 1_456
Nb2 Ni1 2.843704 1_446
Nb2 Ni1 2.843704 1_556
Nb2 Si0 2.881182 1_555
Nb2 Ni6 2.897423 1_556
Nb2 Ni7 2.897423 1_446
Nb2 Ni5 2.897425 1_456
Ni0 Ni4 2.374175 1_545
Ni0 Ni3 2.374175 1_655
Ni0 Ni2 2.374178 1_555
Ni0 Ni5 2.380056 1_555
Ni0 Ni7 2.380061 1_555
Ni0 Ni6 2.380061 1_555
Ni0 Si0 2.789163 1_655
Ni0 Si0 2.789168 1_555
Ni0 Si0 2.789168 1_665
Ni1 Ni5 2.370649 1_555
Ni1 Ni7 2.370654 1_555
Ni1 Ni6 2.370654 1_555
Ni1 Ni3 2.412589 1_654
Ni1 Ni4 2.412589 1_544
Ni1 Ni2 2.412591 1_554
Ni2 Ni4 2.360320 1_555
Ni2 Ni3 2.360320 1_555
Ni2 Ni4 2.434194 1_545
Ni2 Ni3 2.434194 1_655
Ni2 Si0 2.866508 1_665
Ni2 Si0 2.866508 1_555
Ni3 Ni4 2.360320 1_555
Ni3 Ni4 2.434194 1_445
Ni3 Si0 2.866508 1_565
Ni3 Si0 2.866508 1_555
Ni4 Si0 2.866508 1_565
Ni4 Si0 2.866508 1_665
Ni5 Ni6 2.355544 1_655
Ni5 Ni7 2.355544 1_545
Ni5 Ni7 2.438969 1_555
Ni5 Ni6 2.438969 1_555
Ni5 Si0 2.638372 1_655
Ni6 Ni7 2.355545 1_445
Ni6 Ni7 2.438969 1_555
Ni6 Si0 2.638370 1_555
Ni7 Si0 2.638370 1_665
