# generated using pymatgen
data_Sb
_symmetry_space_group_name_H-M   'P 1'
_cell_length_a   8.69503600
_cell_length_b   6.24480400
_cell_length_c   8.81204771
_cell_angle_alpha   89.49394413
_cell_angle_beta   90.00000000
_cell_angle_gamma   90.00000000
_symmetry_Int_Tables_number   1
_chemical_formula_structural   Sb
_chemical_formula_sum   Sb16
_cell_volume   478.46491432
_cell_formula_units_Z   16
loop_
 _symmetry_equiv_pos_site_id
 _symmetry_equiv_pos_as_xyz
  1  'x, y, z'
loop_
 _atom_site_type_symbol
 _atom_site_label
 _atom_site_symmetry_multiplicity
 _atom_site_fract_x
 _atom_site_fract_y
 _atom_site_fract_z
 _atom_site_occupancy
  Sb  Sb0_0  1  0.37500000  0.00569450  0.37941700  1
  Sb  Sb0_1  1  0.37500000  0.00569450  0.87941700  1
  Sb  Sb0_2  1  0.37500000  0.50569450  0.37941700  1
  Sb  Sb0_3  1  0.37500000  0.50569450  0.87941700  1
  Sb  Sb0_4  1  0.87500000  0.00569450  0.37941700  1
  Sb  Sb0_5  1  0.87500000  0.00569450  0.87941700  1
  Sb  Sb0_6  1  0.87500000  0.50569450  0.37941700  1
  Sb  Sb0_7  1  0.87500000  0.50569450  0.87941700  1
  Sb  Sb1_0  1  0.12500000  0.49430550  0.12058300  1
  Sb  Sb1_1  1  0.12500000  0.49430550  0.62058300  1
  Sb  Sb1_2  1  0.12500000  0.99430550  0.12058300  1
  Sb  Sb1_3  1  0.12500000  0.99430550  0.62058300  1
  Sb  Sb1_4  1  0.62500000  0.49430550  0.12058300  1
  Sb  Sb1_5  1  0.62500000  0.49430550  0.62058300  1
  Sb  Sb1_6  1  0.62500000  0.99430550  0.12058300  1
  Sb  Sb1_7  1  0.62500000  0.99430550  0.62058300  1
loop_
_geom_bond_atom_site_label_1
_geom_bond_atom_site_label_2
_geom_bond_distance
_geom_bond_site_symmetry_2
Sb0_0 Sb1_3 3.040386 1_545
Sb0_0 Sb1_7 3.040386 1_545
Sb0_0 Sb0_2 3.122402 1_545
Sb0_0 Sb0_2 3.122402 1_555
Sb0_0 Sb1_2 3.152057 1_545
Sb0_0 Sb1_6 3.152057 1_545
Sb0_1 Sb1_2 3.040386 1_546
Sb0_1 Sb1_6 3.040386 1_546
Sb0_1 Sb0_3 3.122402 1_555
Sb0_1 Sb0_3 3.122402 1_545
Sb0_1 Sb1_3 3.152057 1_545
Sb0_1 Sb1_7 3.152057 1_545
Sb0_2 Sb1_1 3.040386 1_555
Sb0_2 Sb1_5 3.040386 1_555
Sb0_2 Sb1_0 3.152057 1_555
Sb0_2 Sb1_4 3.152057 1_555
Sb0_3 Sb1_0 3.040386 1_556
Sb0_3 Sb1_4 3.040386 1_556
Sb0_3 Sb1_1 3.152057 1_555
Sb0_3 Sb1_5 3.152057 1_555
Sb0_4 Sb1_7 3.040386 1_545
Sb0_4 Sb1_3 3.040386 1_645
Sb0_4 Sb0_6 3.122402 1_545
Sb0_4 Sb0_6 3.122402 1_555
Sb0_4 Sb1_6 3.152057 1_545
Sb0_4 Sb1_2 3.152057 1_645
Sb0_5 Sb1_6 3.040386 1_546
Sb0_5 Sb1_2 3.040386 1_646
Sb0_5 Sb0_7 3.122402 1_555
Sb0_5 Sb0_7 3.122402 1_545
Sb0_5 Sb1_7 3.152057 1_545
Sb0_5 Sb1_3 3.152057 1_645
Sb0_6 Sb1_5 3.040386 1_555
Sb0_6 Sb1_1 3.040386 1_655
Sb0_6 Sb1_4 3.152057 1_555
Sb0_6 Sb1_0 3.152057 1_655
Sb0_7 Sb1_4 3.040386 1_556
Sb0_7 Sb1_0 3.040386 1_656
Sb0_7 Sb1_5 3.152057 1_555
Sb0_7 Sb1_1 3.152057 1_655
Sb1_0 Sb1_2 3.122402 1_555
Sb1_0 Sb1_2 3.122402 1_545
Sb1_1 Sb1_3 3.122402 1_555
Sb1_1 Sb1_3 3.122402 1_545
Sb1_4 Sb1_6 3.122402 1_555
Sb1_4 Sb1_6 3.122402 1_545
Sb1_5 Sb1_7 3.122402 1_555
Sb1_5 Sb1_7 3.122402 1_545
