# generated using pymatgen
data_Ho3FeB7
_symmetry_space_group_name_H-M   'P 1'
_cell_length_a   7.98501453
_cell_length_b   7.98501453
_cell_length_c   9.25119800
_cell_angle_alpha   90.00000000
_cell_angle_beta   90.00000000
_cell_angle_gamma   155.39507553
_symmetry_Int_Tables_number   1
_chemical_formula_structural   Ho3FeB7
_chemical_formula_sum   'Ho6 Fe2 B14'
_cell_volume   245.59373820
_cell_formula_units_Z   2
loop_
 _symmetry_equiv_pos_site_id
 _symmetry_equiv_pos_as_xyz
  1  'x, y, z'
loop_
 _atom_site_type_symbol
 _atom_site_label
 _atom_site_symmetry_multiplicity
 _atom_site_fract_x
 _atom_site_fract_y
 _atom_site_fract_z
 _atom_site_occupancy
  Ho  Ho0  1  0.89508600  0.10491400  0.43988800  1
  Ho  Ho1  1  0.10491400  0.89508600  0.56011200  1
  Ho  Ho2  1  0.89508600  0.10491400  0.06011200  1
  Ho  Ho3  1  0.10491400  0.89508600  0.93988800  1
  Ho  Ho4  1  0.24324900  0.75675100  0.25000000  1
  Ho  Ho5  1  0.75675100  0.24324900  0.75000000  1
  Fe  Fe0  1  0.05417200  0.94582800  0.25000000  1
  Fe  Fe1  1  0.94582800  0.05417200  0.75000000  1
  B  B0  1  0.72752600  0.27247400  0.46694500  1
  B  B1  1  0.27247400  0.72752600  0.53305500  1
  B  B2  1  0.72752600  0.27247400  0.03305500  1
  B  B3  1  0.27247400  0.72752600  0.96694500  1
  B  B4  1  0.62993800  0.37006200  0.15306000  1
  B  B5  1  0.37006200  0.62993800  0.84694000  1
  B  B6  1  0.62993800  0.37006200  0.34694000  1
  B  B7  1  0.37006200  0.62993800  0.65306000  1
  B  B8  1  0.52148000  0.47852000  0.09847400  1
  B  B9  1  0.47852000  0.52148000  0.90152600  1
  B  B10  1  0.52148000  0.47852000  0.40152600  1
  B  B11  1  0.47852000  0.52148000  0.59847400  1
  B  B12  1  0.45915500  0.54084500  0.25000000  1
  B  B13  1  0.54084500  0.45915500  0.75000000  1
loop_
_geom_bond_atom_site_label_1
_geom_bond_atom_site_label_2
_geom_bond_distance
_geom_bond_site_symmetry_2
B0 B6 1.884442 1_555
B0 B1 1.939237 1_655
B0 B1 1.939237 1_545
B0 Ho0 2.626444 1_555
B0 Ho4 2.642528 1_545
B0 Ho4 2.642528 1_655
B0 Ho5 2.658006 1_555
B0 Ho1 2.701434 1_545
B0 Ho1 2.701434 1_655
B1 B7 1.884442 1_555
B1 Ho1 2.626444 1_555
B1 Ho5 2.642528 1_455
B1 Ho5 2.642528 1_565
B1 Ho4 2.658006 1_555
B1 Ho0 2.701434 1_565
B1 Ho0 2.701434 1_455
B2 B4 1.884442 1_555
B2 B3 1.939237 1_654
B2 B3 1.939237 1_544
B2 Ho2 2.626444 1_555
B2 Ho4 2.642528 1_545
B2 Ho4 2.642528 1_655
B2 Ho5 2.658006 1_554
B2 Ho3 2.701434 1_654
B2 Ho3 2.701434 1_544
B3 B5 1.884442 1_555
B3 Ho3 2.626444 1_555
B3 Ho5 2.642528 1_455
B3 Ho5 2.642528 1_565
B3 Ho4 2.658006 1_556
B3 Ho2 2.701434 1_456
B3 Ho2 2.701434 1_566
B4 B8 1.766041 1_555
B4 B6 1.793622 1_555
B4 Fe0 2.257561 1_545
B4 Fe0 2.257561 1_655
B4 Ho4 2.612451 1_545
B4 Ho4 2.612451 1_655
B4 Ho3 2.633692 1_654
B4 Ho3 2.633692 1_544
B5 B9 1.766041 1_555
B5 B7 1.793622 1_555
B5 Fe1 2.257561 1_455
B5 Fe1 2.257561 1_565
B5 Ho5 2.612451 1_455
B5 Ho5 2.612451 1_565
B5 Ho2 2.633692 1_456
B5 Ho2 2.633692 1_566
B6 Fe0 2.257561 1_545
B6 Fe0 2.257561 1_655
B6 Ho4 2.612451 1_545
B6 Ho4 2.612451 1_655
B6 Ho1 2.633692 1_655
B6 Ho1 2.633692 1_545
B7 Fe1 2.257561 1_455
B7 Fe1 2.257561 1_565
B7 Ho5 2.612451 1_455
B7 Ho5 2.612451 1_565
B7 Ho0 2.633692 1_455
B7 Ho0 2.633692 1_565
B8 B9 1.941398 1_554
B8 Fe0 2.262732 1_655
B8 Fe0 2.262732 1_545
B8 Ho3 2.596523 1_654
B8 Ho3 2.596523 1_544
B8 Ho2 2.628706 1_565
B8 Ho2 2.628706 1_455
B9 Fe1 2.262732 1_565
B9 Fe1 2.262732 1_455
B9 Ho2 2.596523 1_566
B9 Ho2 2.596523 1_456
B9 Ho3 2.628706 1_655
B9 Ho3 2.628706 1_545
B10 B12 1.706090 1_555
B10 B6 1.766041 1_555
B10 B11 1.941398 1_555
B10 Fe0 2.262732 1_655
B10 Fe0 2.262732 1_545
B10 Ho1 2.596523 1_655
B10 Ho1 2.596523 1_545
B10 Ho0 2.628706 1_565
B10 Ho0 2.628706 1_455
B11 B13 1.706090 1_555
B11 B7 1.766041 1_555
B11 Fe1 2.262732 1_565
B11 Fe1 2.262732 1_455
B11 Ho0 2.596523 1_565
B11 Ho0 2.596523 1_455
B11 Ho1 2.628706 1_655
B11 Ho1 2.628706 1_545
B12 B8 1.706090 1_555
B12 Fe0 2.256713 1_655
B12 Fe0 2.256713 1_545
B12 Ho0 2.641979 1_565
B12 Ho2 2.641979 1_455
B12 Ho2 2.641979 1_565
B12 Ho0 2.641979 1_455
B13 B9 1.706090 1_555
B13 Fe1 2.256713 1_565
B13 Fe1 2.256713 1_455
B13 Ho3 2.641979 1_545
B13 Ho1 2.641979 1_545
B13 Ho3 2.641979 1_655
B13 Ho1 2.641979 1_655
