# generated using pymatgen
data_SrCu9Ge4
_symmetry_space_group_name_H-M   'P 1'
_cell_length_a   8.38639317
_cell_length_b   8.38639317
_cell_length_c   8.38639317
_cell_angle_alpha   120.57665762
_cell_angle_beta   120.57665762
_cell_angle_gamma   89.00406830
_symmetry_Int_Tables_number   1
_chemical_formula_structural   SrCu9Ge4
_chemical_formula_sum   'Sr2 Cu18 Ge8'
_cell_volume   413.36864698
_cell_formula_units_Z   2
loop_
 _symmetry_equiv_pos_site_id
 _symmetry_equiv_pos_as_xyz
  1  'x, y, z'
loop_
 _atom_site_type_symbol
 _atom_site_label
 _atom_site_symmetry_multiplicity
 _atom_site_fract_x
 _atom_site_fract_y
 _atom_site_fract_z
 _atom_site_occupancy
  Sr  Sr0  1  0.25000000  0.25000000  0.00000000  1
  Sr  Sr1  1  0.75000000  0.75000000  0.00000000  1
  Cu  Cu0  1  0.06069500  0.56069500  0.26467500  1
  Cu  Cu1  1  0.70397900  0.20397900  0.26467500  1
  Cu  Cu2  1  0.93930500  0.43930500  0.73532500  1
  Cu  Cu3  1  0.43930500  0.70397900  0.50000000  1
  Cu  Cu4  1  0.20397900  0.93930500  0.50000000  1
  Cu  Cu5  1  0.56069500  0.29602100  0.50000000  1
  Cu  Cu6  1  0.79602100  0.06069500  0.50000000  1
  Cu  Cu7  1  0.29602100  0.79602100  0.73532500  1
  Cu  Cu8  1  0.43794600  0.29722900  0.73517600  1
  Cu  Cu9  1  0.79722900  0.93794600  0.73517600  1
  Cu  Cu10  1  0.00000000  0.50000000  0.50000000  1
  Cu  Cu11  1  0.50000000  0.00000000  0.50000000  1
  Cu  Cu12  1  0.56205400  0.70277100  0.26482400  1
  Cu  Cu13  1  0.70277100  0.43794600  0.14071700  1
  Cu  Cu14  1  0.29722900  0.56205400  0.85928300  1
  Cu  Cu15  1  0.93794600  0.20277100  0.14071700  1
  Cu  Cu16  1  0.06205400  0.79722900  0.85928300  1
  Cu  Cu17  1  0.20277100  0.06205400  0.26482400  1
  Ge  Ge0  1  0.80083800  0.30083800  0.85817200  1
  Ge  Ge1  1  0.55733400  0.05733400  0.85817200  1
  Ge  Ge2  1  0.19916200  0.69916200  0.14182800  1
  Ge  Ge3  1  0.69916200  0.55733400  0.50000000  1
  Ge  Ge4  1  0.05733400  0.19916200  0.50000000  1
  Ge  Ge5  1  0.30083800  0.44266600  0.50000000  1
  Ge  Ge6  1  0.94266600  0.80083800  0.50000000  1
  Ge  Ge7  1  0.44266600  0.94266600  0.14182800  1
loop_
_geom_bond_atom_site_label_1
_geom_bond_atom_site_label_2
_geom_bond_distance
_geom_bond_site_symmetry_2
Cu0 Ge0 2.483647 1_454
Cu0 Ge2 2.497906 1_555
Cu0 Cu10 2.542838 1_555
Cu0 Cu3 2.601001 1_555
Cu0 Cu4 2.601001 1_555
Cu0 Ge5 2.608641 1_555
Cu0 Ge6 2.608641 1_455
Cu0 Cu15 2.644719 1_455
Cu0 Cu13 2.644719 1_455
Cu0 Cu7 2.766628 1_555
Cu0 Sr0 3.434212 1_555
Cu0 Sr1 3.434212 1_455
Cu1 Ge1 2.483650 1_554
Cu1 Ge7 2.497894 1_545
Cu1 Cu10 2.542848 1_655
Cu1 Cu6 2.600993 1_555
Cu1 Cu5 2.600993 1_555
Cu1 Ge4 2.608644 1_655
Cu1 Ge3 2.608644 1_555
Cu1 Cu15 2.644729 1_555
Cu1 Cu13 2.644729 1_555
Cu1 Cu2 2.766628 1_555
Cu1 Sr1 3.434209 1_545
Cu1 Sr0 3.434209 1_555
Cu2 Ge2 2.483647 1_656
Cu2 Ge0 2.497906 1_555
Cu2 Cu6 2.601001 1_555
Cu2 Cu5 2.601001 1_555
Cu2 Ge4 2.608641 1_655
Cu2 Ge3 2.608641 1_555
Cu2 Sr1 3.434212 1_556
Cu2 Sr0 3.434212 1_656
Cu3 Ge3 2.483643 1_555
Cu3 Ge5 2.497899 1_555
Cu3 Cu7 2.600993 1_555
Cu3 Ge1 2.608646 1_565
Cu3 Ge2 2.608646 1_555
Cu3 Cu9 2.644721 1_555
Cu3 Cu4 2.766640 1_555
Cu3 Sr0 3.434208 1_555
Cu3 Sr1 3.434208 1_556
Cu4 Ge4 2.483643 1_565
Cu4 Ge6 2.497899 1_455
Cu4 Cu7 2.600993 1_555
Cu4 Ge1 2.608646 1_565
Cu4 Ge2 2.608646 1_555
Cu4 Cu8 2.644721 1_565
Cu4 Sr0 3.434208 1_566
Cu4 Sr1 3.434208 1_455
Cu5 Ge5 2.483643 1_555
Cu5 Ge3 2.497899 1_555
Cu5 Ge0 2.608646 1_555
Cu5 Ge7 2.608646 1_545
Cu5 Cu8 2.644730 1_555
Cu5 Cu6 2.766640 1_555
Cu5 Sr0 3.434208 1_555
Cu5 Sr1 3.434208 1_556
Cu6 Ge6 2.483643 1_545
Cu6 Ge4 2.497899 1_655
Cu6 Ge0 2.608646 1_555
Cu6 Ge7 2.608646 1_545
Cu6 Cu9 2.644730 1_545
Cu6 Sr1 3.434208 1_545
Cu6 Sr0 3.434208 1_656
Cu7 Ge7 2.483650 1_556
Cu7 Ge1 2.497894 1_565
Cu7 Ge6 2.608644 1_455
Cu7 Ge5 2.608644 1_555
Cu7 Sr1 3.434209 1_556
Cu7 Sr0 3.434209 1_566
Cu8 Ge4 2.605962 1_555
Cu8 Ge5 2.605968 1_555
Cu8 Ge1 2.665435 1_555
Cu8 Ge0 2.665442 1_555
Cu8 Sr0 3.471573 1_556
Cu8 Sr1 3.471583 1_556
Cu9 Ge3 2.605962 1_555
Cu9 Ge6 2.605968 1_555
Cu9 Ge1 2.665435 1_565
Cu9 Ge0 2.665442 1_565
Cu9 Sr1 3.471573 1_556
Cu9 Sr0 3.471583 1_666
Cu10 Cu16 2.524197 1_555
Cu10 Cu14 2.524197 1_555
Cu10 Cu15 2.524197 1_455
Cu10 Cu13 2.524197 1_455
Cu10 Cu2 2.542838 1_455
Cu10 Cu7 2.542848 1_555
Cu10 Ge6 2.560132 1_455
Cu10 Ge5 2.560132 1_555
Cu10 Ge3 2.560132 1_455
Cu10 Ge4 2.560132 1_555
Cu11 Cu8 2.524200 1_555
Cu11 Cu9 2.524200 1_545
Cu11 Cu12 2.524200 1_545
Cu11 Cu17 2.524200 1_555
Cu11 Cu5 2.542846 1_555
Cu11 Cu6 2.542846 1_555
Cu11 Cu3 2.542846 1_545
Cu11 Cu4 2.542846 1_545
Cu11 Ge0 2.560132 1_555
Cu11 Ge1 2.560132 1_555
Cu11 Ge2 2.560132 1_545
Cu11 Ge7 2.560132 1_545
Cu12 Cu14 2.493031 1_554
Cu12 Cu13 2.493034 1_555
Cu12 Ge6 2.605962 1_555
Cu12 Ge3 2.605968 1_555
Cu12 Cu6 2.644721 1_565
Cu12 Cu3 2.644730 1_555
Cu12 Ge7 2.665435 1_555
Cu12 Ge2 2.665442 1_555
Cu12 Cu9 2.764876 1_555
Cu12 Sr1 3.471573 1_555
Cu12 Sr0 3.471583 1_555
Cu13 Cu8 2.493031 1_554
Cu13 Ge0 2.605962 1_554
Cu13 Ge1 2.605962 1_554
Cu13 Ge6 2.665440 1_555
Cu13 Ge3 2.665440 1_555
Cu13 Cu15 2.764865 1_555
Cu13 Sr0 3.471581 1_555
Cu13 Sr1 3.471581 1_555
Cu14 Cu8 2.493034 1_555
Cu14 Ge2 2.605962 1_556
Cu14 Ge7 2.605962 1_556
Cu14 Cu2 2.644719 1_455
Cu14 Cu7 2.644729 1_555
Cu14 Ge5 2.665440 1_555
Cu14 Ge4 2.665440 1_555
Cu14 Cu16 2.764865 1_555
Cu14 Sr0 3.471581 1_556
Cu14 Sr1 3.471581 1_556
Cu15 Cu9 2.493031 1_544
Cu15 Cu17 2.493034 1_655
Cu15 Ge1 2.605962 1_554
Cu15 Ge0 2.605962 1_554
Cu15 Ge5 2.665440 1_655
Cu15 Ge4 2.665440 1_655
Cu15 Sr1 3.471581 1_545
Cu15 Sr0 3.471581 1_655
Cu16 Cu17 2.493031 1_566
Cu16 Cu9 2.493034 1_455
Cu16 Ge2 2.605962 1_556
Cu16 Ge7 2.605962 1_556
Cu16 Cu2 2.644719 1_455
Cu16 Cu7 2.644729 1_555
Cu16 Ge6 2.665440 1_455
Cu16 Ge3 2.665440 1_455
Cu16 Sr0 3.471581 1_566
Cu16 Sr1 3.471581 1_456
Cu17 Ge5 2.605962 1_555
Cu17 Ge4 2.605968 1_555
Cu17 Cu5 2.644721 1_555
Cu17 Cu4 2.644730 1_545
Cu17 Ge7 2.665435 1_545
Cu17 Ge2 2.665442 1_545
Cu17 Cu8 2.764876 1_555
Cu17 Sr0 3.471573 1_555
Cu17 Sr1 3.471583 1_445
Ge0 Ge1 2.912985 1_555
Ge0 Sr1 3.418697 1_556
Ge0 Sr0 3.418697 1_656
Ge1 Sr1 3.418697 1_546
Ge1 Sr0 3.418697 1_556
Ge2 Ge7 2.912985 1_555
Ge2 Sr1 3.418697 1_455
Ge2 Sr0 3.418697 1_555
Ge3 Ge6 2.912985 1_555
Ge3 Sr0 3.418697 1_555
Ge3 Sr1 3.418697 1_556
Ge4 Ge5 2.912985 1_555
Ge4 Sr0 3.418697 1_556
Ge4 Sr1 3.418697 1_445
Ge5 Sr0 3.418697 1_555
Ge5 Sr1 3.418697 1_556
Ge6 Sr1 3.418697 1_555
Ge6 Sr0 3.418697 1_666
Ge7 Sr1 3.418697 1_555
Ge7 Sr0 3.418697 1_565
