# generated using pymatgen
data_InGaN2
_symmetry_space_group_name_H-M   'P 1'
_cell_length_a   3.39928821
_cell_length_b   3.39928821
_cell_length_c   5.55161300
_cell_angle_alpha   90.00000000
_cell_angle_beta   90.00000000
_cell_angle_gamma   120.00000400
_symmetry_Int_Tables_number   1
_chemical_formula_structural   InGaN2
_chemical_formula_sum   'In1 Ga1 N2'
_cell_volume   55.55533529
_cell_formula_units_Z   1
loop_
 _symmetry_equiv_pos_site_id
 _symmetry_equiv_pos_as_xyz
  1  'x, y, z'
loop_
 _atom_site_type_symbol
 _atom_site_label
 _atom_site_symmetry_multiplicity
 _atom_site_fract_x
 _atom_site_fract_y
 _atom_site_fract_z
 _atom_site_occupancy
  In  In0  1  0.00000000  0.00000000  0.99840200  1
  Ga  Ga0  1  0.66666700  0.33333300  0.49535600  1
  N  N0  1  0.66666700  0.33333300  0.14561700  1
  N  N1  1  0.00000000  0.00000000  0.60222400  1
loop_
_geom_bond_atom_site_label_1
_geom_bond_atom_site_label_2
_geom_bond_distance
_geom_bond_site_symmetry_2
In0 N0 2.125949 1_456
In0 N0 2.125952 1_446
In0 N0 2.125952 1_556
In0 N1 2.199427 1_555
Ga0 N0 1.941616 1_555
Ga0 N1 2.050294 1_655
Ga0 N1 2.050297 1_555
Ga0 N1 2.050297 1_665
