# generated using pymatgen
data_SrCaLaBiO6
_symmetry_space_group_name_H-M   'P 1'
_cell_length_a   5.97705815
_cell_length_b   5.97705815
_cell_length_c   8.63655261
_cell_angle_alpha   90.00000000
_cell_angle_beta   90.00000000
_cell_angle_gamma   90.00000000
_symmetry_Int_Tables_number   1
_chemical_formula_structural   SrCaLaBiO6
_chemical_formula_sum   'Sr2 Ca2 La2 Bi2 O12'
_cell_volume   308.54277769
_cell_formula_units_Z   2
loop_
 _symmetry_equiv_pos_site_id
 _symmetry_equiv_pos_as_xyz
  1  'x, y, z'
loop_
 _atom_site_type_symbol
 _atom_site_label
 _atom_site_symmetry_multiplicity
 _atom_site_fract_x
 _atom_site_fract_y
 _atom_site_fract_z
 _atom_site_occupancy
  Sr  Sr0  1  0.50000000  0.00000000  0.25000000  1
  Sr  Sr1  1  0.00000000  0.50000000  0.75000000  1
  Ca  Ca0  1  0.00000000  0.00000000  0.50000000  1
  Ca  Ca1  1  0.50000000  0.50000000  -0.00000000  1
  La  La0  1  0.00000000  0.50000000  0.25000000  1
  La  La1  1  0.50000000  0.00000000  0.75000000  1
  Bi  Bi0  1  0.00000000  -0.00000000  -0.00000000  1
  Bi  Bi1  1  0.50000000  0.50000000  0.50000000  1
  O  O0  1  0.00000000  0.00000000  0.24364243  1
  O  O1  1  0.50000000  0.50000000  0.25635757  1
  O  O2  1  0.00000000  0.00000000  0.75635757  1
  O  O3  1  0.50000000  0.50000000  0.74364243  1
  O  O4  1  0.32000683  0.15701790  0.98662289  1
  O  O5  1  0.67999317  0.84298210  0.98662289  1
  O  O6  1  0.84298210  0.32000683  0.01337711  1
  O  O7  1  0.15701790  0.67999317  0.01337711  1
  O  O8  1  0.82000683  0.34298210  0.48662289  1
  O  O9  1  0.17999317  0.65701790  0.48662289  1
  O  O10  1  0.34298210  0.17999317  0.51337711  1
  O  O11  1  0.65701790  0.82000683  0.51337711  1
loop_
_geom_bond_atom_site_label_1
_geom_bond_atom_site_label_2
_geom_bond_distance
_geom_bond_site_symmetry_2
Ca0 O0 2.214046 1_555
Ca0 O2 2.214046 1_555
Ca0 O10 2.318050 1_555
Ca0 O8 2.318050 1_455
Ca0 O9 2.318050 1_545
Ca0 O11 2.318050 1_445
Ca1 O1 2.214046 1_555
Ca1 O3 2.214046 1_554
Ca1 O6 2.318050 1_555
Ca1 O5 2.318050 1_554
Ca1 O4 2.318050 1_554
Ca1 O7 2.318050 1_555
La0 O9 2.492895 1_555
La0 O7 2.492895 1_555
La0 O6 2.492895 1_455
La0 O8 2.492895 1_455
La0 O0 2.989033 1_555
La0 O1 2.989033 1_455
La0 O1 2.989033 1_555
La0 O0 2.989033 1_565
La1 O11 2.492895 1_545
La1 O4 2.492895 1_555
La1 O10 2.492895 1_555
La1 O5 2.492895 1_545
La1 O3 2.989033 1_555
La1 O2 2.989033 1_655
La1 O3 2.989033 1_545
La1 O2 2.989033 1_555
Bi0 O2 2.104231 1_554
Bi0 O0 2.104231 1_555
Bi0 O7 2.133673 1_545
Bi0 O4 2.133673 1_554
Bi0 O5 2.133673 1_444
Bi0 O6 2.133673 1_455
Bi1 O3 2.104231 1_555
Bi1 O1 2.104231 1_555
Bi1 O11 2.133673 1_555
Bi1 O9 2.133673 1_555
Bi1 O8 2.133673 1_555
Bi1 O10 2.133673 1_555
O0 Sr0 2.989033 1_555
O0 Sr0 2.989033 1_455
O1 Sr0 2.989033 1_555
O1 Sr0 2.989033 1_565
O2 Sr1 2.989033 1_545
O2 Sr1 2.989033 1_555
O3 Sr1 2.989033 1_555
O3 Sr1 2.989033 1_655
O4 Sr0 2.685577 1_556
O5 Sr0 2.685577 1_566
O6 Sr1 2.685577 1_654
O7 Sr1 2.685577 1_554
O8 Sr1 2.685577 1_655
O9 Sr1 2.685577 1_555
O10 Sr0 2.685577 1_555
O11 Sr0 2.685577 1_565
