# generated using pymatgen
data_CaGaSi
_symmetry_space_group_name_H-M   'P 1'
_cell_length_a   4.10791825
_cell_length_b   4.10791825
_cell_length_c   4.40848383
_cell_angle_alpha   90.00000000
_cell_angle_beta   90.00000000
_cell_angle_gamma   119.99998886
_symmetry_Int_Tables_number   1
_chemical_formula_structural   CaGaSi
_chemical_formula_sum   'Ca1 Ga1 Si1'
_cell_volume   64.42634841
_cell_formula_units_Z   1
loop_
 _symmetry_equiv_pos_site_id
 _symmetry_equiv_pos_as_xyz
  1  'x, y, z'
loop_
 _atom_site_type_symbol
 _atom_site_label
 _atom_site_symmetry_multiplicity
 _atom_site_fract_x
 _atom_site_fract_y
 _atom_site_fract_z
 _atom_site_occupancy
  Ca  Ca0  1  0.66666700  0.33333300  -0.00000000  1
  Ga  Ga0  1  -0.00000000  -0.00000000  0.50000000  1
  Si  Si0  1  0.33333300  0.66666700  0.50000000  1
loop_
_geom_bond_atom_site_label_1
_geom_bond_atom_site_label_2
_geom_bond_distance
_geom_bond_site_symmetry_2
Ca0 Ga0 3.237849 1_655
Ca0 Ga0 3.237849 1_654
Ca0 Si0 3.237850 1_545
Ca0 Si0 3.237850 1_654
Ca0 Si0 3.237850 1_544
Ca0 Si0 3.237850 1_655
Ca0 Ga0 3.237852 1_554
Ca0 Ga0 3.237852 1_555
Ca0 Ga0 3.237852 1_664
Ca0 Ga0 3.237852 1_665
Ca0 Si0 3.237854 1_554
Ca0 Si0 3.237854 1_555
Ga0 Si0 2.371705 1_545
Ga0 Si0 2.371709 1_555
Ga0 Si0 2.371709 1_445
