# generated using pymatgen
data_Na8(WO3)19
_symmetry_space_group_name_H-M   'P 1'
_cell_length_a   3.90150600
_cell_length_b   3.90150600
_cell_length_c   74.48541500
_cell_angle_alpha   90.00000000
_cell_angle_beta   90.00000000
_cell_angle_gamma   90.00000000
_symmetry_Int_Tables_number   1
_chemical_formula_structural   Na8(WO3)19
_chemical_formula_sum   'Na8 W19 O57'
_cell_volume   1133.79829636
_cell_formula_units_Z   1
loop_
 _symmetry_equiv_pos_site_id
 _symmetry_equiv_pos_as_xyz
  1  'x, y, z'
loop_
 _atom_site_type_symbol
 _atom_site_label
 _atom_site_symmetry_multiplicity
 _atom_site_fract_x
 _atom_site_fract_y
 _atom_site_fract_z
 _atom_site_occupancy
  Na  Na0  1  0.00000000  0.00000000  0.73701300  1
  Na  Na1  1  0.00000000  0.00000000  0.26298700  1
  Na  Na2  1  0.00000000  0.00000000  0.36779100  1
  Na  Na3  1  0.00000000  0.00000000  0.42084600  1
  Na  Na4  1  0.00000000  0.00000000  0.47375700  1
  Na  Na5  1  0.00000000  0.00000000  0.52624300  1
  Na  Na6  1  0.00000000  0.00000000  0.63220900  1
  Na  Na7  1  0.00000000  0.00000000  0.57915400  1
  W  W0  1  0.50000000  0.50000000  0.76450400  1
  W  W1  1  0.50000000  0.50000000  0.71025700  1
  W  W2  1  0.50000000  0.50000000  0.86948500  1
  W  W3  1  0.50000000  0.50000000  0.81712300  1
  W  W4  1  0.50000000  0.50000000  0.97393900  1
  W  W5  1  0.50000000  0.50000000  0.92176300  1
  W  W6  1  0.50000000  0.50000000  0.02606100  1
  W  W7  1  0.50000000  0.50000000  0.07823700  1
  W  W8  1  0.50000000  0.50000000  0.13051500  1
  W  W9  1  0.50000000  0.50000000  0.18287700  1
  W  W10  1  0.50000000  0.50000000  0.23549600  1
  W  W11  1  0.50000000  0.50000000  0.34116000  1
  W  W12  1  0.50000000  0.50000000  0.28974300  1
  W  W13  1  0.50000000  0.50000000  0.44724800  1
  W  W14  1  0.50000000  0.50000000  0.39437800  1
  W  W15  1  0.50000000  0.50000000  0.50000000  1
  W  W16  1  0.50000000  0.50000000  0.55275200  1
  W  W17  1  0.50000000  0.50000000  0.60562200  1
  W  W18  1  0.50000000  0.50000000  0.65884000  1
  O  O0  1  0.00000000  0.50000000  0.71129800  1
  O  O1  1  0.00000000  0.50000000  0.76241400  1
  O  O2  1  0.00000000  0.50000000  0.81554000  1
  O  O3  1  0.00000000  0.50000000  0.86823800  1
  O  O4  1  0.00000000  0.50000000  0.92093900  1
  O  O5  1  0.00000000  0.50000000  0.97364400  1
  O  O6  1  0.00000000  0.50000000  0.02635600  1
  O  O7  1  0.00000000  0.50000000  0.07906100  1
  O  O8  1  0.00000000  0.50000000  0.18446000  1
  O  O9  1  0.00000000  0.50000000  0.23758600  1
  O  O10  1  0.00000000  0.50000000  0.28870200  1
  O  O11  1  0.00000000  0.50000000  0.34256300  1
  O  O12  1  0.00000000  0.50000000  0.39470600  1
  O  O13  1  0.00000000  0.50000000  0.44732600  1
  O  O14  1  0.00000000  0.50000000  0.50000000  1
  O  O15  1  0.00000000  0.50000000  0.55267400  1
  O  O16  1  0.00000000  0.50000000  0.60529400  1
  O  O17  1  0.00000000  0.50000000  0.65743700  1
  O  O18  1  0.50000000  0.50000000  0.68499700  1
  O  O19  1  0.50000000  0.50000000  0.73700200  1
  O  O20  1  0.50000000  0.00000000  0.71129800  1
  O  O21  1  0.50000000  0.50000000  0.78919000  1
  O  O22  1  0.50000000  0.00000000  0.76241400  1
  O  O23  1  0.50000000  0.50000000  0.84195400  1
  O  O24  1  0.50000000  0.00000000  0.81554000  1
  O  O25  1  0.50000000  0.50000000  0.89459400  1
  O  O26  1  0.50000000  0.00000000  0.86823800  1
  O  O27  1  0.50000000  0.50000000  0.94727500  1
  O  O28  1  0.50000000  0.00000000  0.92093900  1
  O  O29  1  0.50000000  0.00000000  0.02635600  1
  O  O30  1  0.50000000  0.50000000  0.00000000  1
  O  O31  1  0.50000000  0.00000000  0.97364400  1
  O  O32  1  0.50000000  0.00000000  0.07906100  1
  O  O33  1  0.50000000  0.50000000  0.05272500  1
  O  O34  1  0.50000000  0.00000000  0.13176200  1
  O  O35  1  0.50000000  0.00000000  0.23758600  1
  O  O36  1  0.50000000  0.50000000  0.10540600  1
  O  O37  1  0.50000000  0.00000000  0.18446000  1
  O  O38  1  0.50000000  0.50000000  0.15804600  1
  O  O39  1  0.50000000  0.00000000  0.34256300  1
  O  O40  1  0.50000000  0.00000000  0.28870200  1
  O  O41  1  0.50000000  0.50000000  0.21081000  1
  O  O42  1  0.50000000  0.00000000  0.44732600  1
  O  O43  1  0.50000000  0.50000000  0.26299800  1
  O  O44  1  0.50000000  0.00000000  0.39470600  1
  O  O45  1  0.50000000  0.00000000  0.50000000  1
  O  O46  1  0.50000000  0.50000000  0.31500300  1
  O  O47  1  0.50000000  0.00000000  0.55267400  1
  O  O48  1  0.50000000  0.50000000  0.36879200  1
  O  O49  1  0.50000000  0.00000000  0.60529400  1
  O  O50  1  0.50000000  0.50000000  0.42017800  1
  O  O51  1  0.50000000  0.00000000  0.65743700  1
  O  O52  1  0.50000000  0.50000000  0.47433900  1
  O  O53  1  0.50000000  0.50000000  0.52566100  1
  O  O54  1  0.50000000  0.50000000  0.57982200  1
  O  O55  1  0.50000000  0.50000000  0.63120800  1
  O  O56  1  0.00000000  0.50000000  0.13176200  1
loop_
_geom_bond_atom_site_label_1
_geom_bond_atom_site_label_2
_geom_bond_distance
_geom_bond_site_symmetry_2
Na0 O1 2.717557 1_545
Na0 O22 2.717557 1_455
Na0 O22 2.717557 1_555
Na0 O1 2.717557 1_555
Na0 O0 2.733892 1_555
Na0 O20 2.733892 1_455
Na0 O20 2.733892 1_555
Na0 O0 2.733892 1_545
Na0 O19 2.758781 1_545
Na0 O19 2.758781 1_555
Na0 O19 2.758781 1_455
Na0 O19 2.758781 1_445
Na1 O9 2.717557 1_555
Na1 O35 2.717557 1_455
Na1 O35 2.717557 1_555
Na1 O9 2.717557 1_545
Na1 O40 2.733892 1_455
Na1 O10 2.733892 1_545
Na1 O40 2.733892 1_555
Na1 O10 2.733892 1_555
Na1 O43 2.758781 1_555
Na1 O43 2.758781 1_445
Na1 O43 2.758781 1_455
Na1 O43 2.758781 1_545
Na2 O11 2.708601 1_555
Na2 O11 2.708601 1_545
Na2 O39 2.708601 1_455
Na2 O39 2.708601 1_555
Na2 O48 2.759789 1_445
Na2 O48 2.759789 1_545
Na2 O48 2.759789 1_455
Na2 O48 2.759789 1_555
Na2 O44 2.797241 1_555
Na2 O44 2.797241 1_455
Na2 O12 2.797241 1_555
Na2 O12 2.797241 1_545
Na3 O44 2.756163 1_455
Na3 O12 2.756163 1_555
Na3 O44 2.756163 1_555
Na3 O12 2.756163 1_545
Na3 O50 2.759230 1_455
Na3 O50 2.759230 1_555
Na3 O50 2.759230 1_445
Na3 O50 2.759230 1_545
Na3 O42 2.774112 1_555
Na3 O42 2.774112 1_455
Na3 O13 2.774112 1_545
Na3 O13 2.774112 1_555
Na4 O52 2.759122 1_545
Na4 O52 2.759122 1_555
Na4 O52 2.759122 1_455
Na4 O52 2.759122 1_445
Na4 O45 2.761588 1_555
Na4 O14 2.761588 1_555
Na4 O14 2.761588 1_545
Na4 O45 2.761588 1_455
Na4 O13 2.771518 1_545
Na4 O13 2.771518 1_555
Na4 O42 2.771518 1_455
Na4 O42 2.771518 1_555
Na5 O53 2.759122 1_455
Na5 O53 2.759122 1_555
Na5 O53 2.759122 1_545
Na5 O53 2.759122 1_445
Na5 O45 2.761588 1_555
Na5 O14 2.761588 1_555
Na5 O14 2.761588 1_545
Na5 O45 2.761588 1_455
Na5 O15 2.771518 1_545
Na5 O47 2.771518 1_455
Na5 O15 2.771518 1_555
Na5 O47 2.771518 1_555
Na6 O17 2.708601 1_545
Na6 O17 2.708601 1_555
Na6 O51 2.708601 1_555
Na6 O51 2.708601 1_455
Na6 O55 2.759789 1_545
Na6 O55 2.759789 1_445
Na6 O55 2.759789 1_455
Na6 O55 2.759789 1_555
Na6 O49 2.797241 1_455
Na6 O16 2.797241 1_555
Na6 O49 2.797241 1_555
Na6 O16 2.797241 1_545
Na7 O16 2.756163 1_545
Na7 O49 2.756163 1_455
Na7 O16 2.756163 1_555
Na7 O49 2.756163 1_555
Na7 O54 2.759230 1_455
Na7 O54 2.759230 1_555
Na7 O54 2.759230 1_545
Na7 O54 2.759230 1_445
Na7 O15 2.774112 1_545
Na7 O15 2.774112 1_555
Na7 O47 2.774112 1_455
Na7 O47 2.774112 1_555
O0 W1 1.952293 1_455
O0 W1 1.952293 1_555
O1 W0 1.956955 1_455
O1 W0 1.956955 1_555
O2 W3 1.954313 1_455
O2 W3 1.954313 1_555
O3 W2 1.952963 1_455
O3 W2 1.952963 1_555
O4 W5 1.951718 1_455
O4 W5 1.951718 1_555
O5 W4 1.950877 1_555
O5 W4 1.950877 1_455
O6 W6 1.950877 1_455
O6 W6 1.950877 1_555
O7 W7 1.951718 1_455
O7 W7 1.951718 1_555
O8 W9 1.954313 1_455
O8 W9 1.954313 1_555
O9 W10 1.956955 1_455
O9 W10 1.956955 1_555
O10 W12 1.952293 1_555
O10 W12 1.952293 1_455
O11 W11 1.953550 1_555
O11 W11 1.953550 1_455
O12 W14 1.950906 1_555
O12 W14 1.950906 1_455
O13 W13 1.950762 1_455
O13 W13 1.950762 1_555
O14 W15 1.950753 1_455
O14 W15 1.950753 1_555
O15 W16 1.950762 1_455
O15 W16 1.950762 1_555
O16 W17 1.950906 1_555
O16 W17 1.950906 1_455
O17 W18 1.953550 1_455
O17 W18 1.953550 1_555
O18 W1 1.881502 1_555
O18 W18 1.948315 1_555
O19 W1 1.992112 1_555
O19 W0 2.048498 1_555
O20 W1 1.952293 1_555
O20 W1 1.952293 1_545
O21 W0 1.838747 1_555
O21 W3 2.080601 1_555
O22 W0 1.956955 1_545
O22 W0 1.956955 1_555
O23 W3 1.849547 1_555
O23 W2 2.050658 1_555
O24 W3 1.954313 1_555
O24 W3 1.954313 1_545
O25 W2 1.870254 1_555
O25 W5 2.023694 1_555
O26 W2 1.952963 1_555
O26 W2 1.952963 1_545
O27 W5 1.900272 1_555
O27 W4 1.986079 1_555
O28 W5 1.951718 1_545
O28 W5 1.951718 1_555
O29 W6 1.950877 1_545
O29 W6 1.950877 1_555
O30 W6 1.941164 1_555
O30 W4 1.941164 1_554
O31 W4 1.950877 1_555
O31 W4 1.950877 1_545
O32 W7 1.951718 1_545
O32 W7 1.951718 1_555
O33 W7 1.900272 1_555
O33 W6 1.986079 1_555
O34 W8 1.952963 1_555
O34 W8 1.952963 1_545
O35 W10 1.956955 1_555
O35 W10 1.956955 1_545
O36 W8 1.870254 1_555
O36 W7 2.023694 1_555
O37 W9 1.954313 1_555
O37 W9 1.954313 1_545
O38 W9 1.849547 1_555
O38 W8 2.050658 1_555
O39 W11 1.953550 1_545
O39 W11 1.953550 1_555
O40 W12 1.952293 1_555
O40 W12 1.952293 1_545
O41 W10 1.838747 1_555
O41 W9 2.080601 1_555
O42 W13 1.950762 1_555
O42 W13 1.950762 1_545
O43 W12 1.992112 1_555
O43 W10 2.048498 1_555
O44 W14 1.950906 1_555
O44 W14 1.950906 1_545
O45 W15 1.950753 1_545
O45 W15 1.950753 1_555
O46 W12 1.881502 1_555
O46 W11 1.948315 1_555
O47 W16 1.950762 1_545
O47 W16 1.950762 1_555
O48 W14 1.905784 1_555
O48 W11 2.058181 1_555
O49 W17 1.950906 1_555
O49 W17 1.950906 1_545
O50 W14 1.921724 1_555
O50 W13 2.016320 1_555
O51 W18 1.953550 1_555
O51 W18 1.953550 1_545
O52 W15 1.911370 1_555
O52 W13 2.017884 1_555
O53 W15 1.911370 1_555
O53 W16 2.017884 1_555
O54 W17 1.921724 1_555
O54 W16 2.016320 1_555
O55 W17 1.905784 1_555
O55 W18 2.058181 1_555
O56 W8 1.952963 1_555
O56 W8 1.952963 1_455
