# generated using pymatgen
data_PrFeCu
_symmetry_space_group_name_H-M   'P 1'
_cell_length_a   5.27776716
_cell_length_b   5.27796283
_cell_length_c   8.77432900
_cell_angle_alpha   90.00000000
_cell_angle_beta   90.00000000
_cell_angle_gamma   59.78920909
_symmetry_Int_Tables_number   1
_chemical_formula_structural   PrFeCu
_chemical_formula_sum   'Pr4 Fe4 Cu4'
_cell_volume   211.21983749
_cell_formula_units_Z   4
loop_
 _symmetry_equiv_pos_site_id
 _symmetry_equiv_pos_as_xyz
  1  'x, y, z'
loop_
 _atom_site_type_symbol
 _atom_site_label
 _atom_site_symmetry_multiplicity
 _atom_site_fract_x
 _atom_site_fract_y
 _atom_site_fract_z
 _atom_site_occupancy
  Pr  Pr0  1  0.33279300  0.33275300  0.56076400  1
  Pr  Pr1  1  0.66701100  0.66702000  0.43759900  1
  Pr  Pr2  1  0.66701100  0.66702000  0.06240100  1
  Pr  Pr3  1  0.33279300  0.33275300  0.93923600  1
  Fe  Fe0  1  0.83812800  0.83814400  0.75000000  1
  Fe  Fe1  1  0.16410500  0.67285200  0.25000000  1
  Fe  Fe2  1  0.67286700  0.16409600  0.25000000  1
  Fe  Fe3  1  0.16408600  0.16412500  0.25000000  1
  Cu  Cu0  1  0.99819100  0.99819900  0.49590800  1
  Cu  Cu1  1  0.99819100  0.99819900  0.00409200  1
  Cu  Cu2  1  0.83732800  0.32749000  0.75000000  1
  Cu  Cu3  1  0.32749600  0.83734900  0.75000000  1
loop_
_geom_bond_atom_site_label_1
_geom_bond_atom_site_label_2
_geom_bond_distance
_geom_bond_site_symmetry_2
Fe0 Pr3 3.110989 1_565
Fe0 Pr0 3.110989 1_565
Fe0 Pr3 3.111241 1_655
Fe0 Pr0 3.111241 1_655
Fe0 Pr2 3.156884 1_556
Fe0 Pr1 3.156884 1_555
Fe1 Fe2 2.584439 1_465
Fe1 Fe3 2.592870 1_565
Fe1 Fe2 2.676602 1_555
Fe1 Fe3 2.685093 1_555
Fe1 Pr1 3.110163 1_555
Fe1 Pr2 3.110163 1_555
Fe1 Pr1 3.110420 1_455
Fe1 Pr2 3.110420 1_455
Fe1 Pr0 3.137136 1_555
Fe1 Pr3 3.137136 1_554
Fe2 Fe3 2.592617 1_655
Fe2 Fe3 2.685151 1_555
Fe2 Pr1 3.110274 1_555
Fe2 Pr2 3.110274 1_555
Fe2 Pr1 3.110476 1_545
Fe2 Pr2 3.110476 1_545
Fe2 Pr0 3.137051 1_555
Fe2 Pr3 3.137051 1_554
Fe3 Pr1 3.103133 1_455
Fe3 Pr2 3.103133 1_455
Fe3 Pr2 3.103265 1_545
Fe3 Pr1 3.103265 1_545
Fe3 Pr3 3.133301 1_554
Fe3 Pr0 3.133301 1_555
Cu0 Fe2 2.618649 1_565
Cu0 Fe1 2.618739 1_655
Cu0 Fe3 2.638325 1_665
Cu0 Fe0 2.667595 1_555
Cu0 Cu2 2.688320 1_565
Cu0 Cu3 2.688325 1_655
Cu0 Pr1 3.073579 1_555
Cu0 Pr0 3.087734 1_565
Cu0 Pr0 3.088060 1_655
Cu0 Pr1 3.093185 1_655
Cu0 Pr1 3.093302 1_565
Cu0 Pr0 3.114233 1_665
Cu1 Fe2 2.618649 1_565
Cu1 Fe1 2.618739 1_655
Cu1 Fe3 2.638325 1_665
Cu1 Fe0 2.667595 1_554
Cu1 Cu2 2.688320 1_564
Cu1 Cu3 2.688325 1_654
Cu1 Pr2 3.073579 1_555
Cu1 Pr3 3.087734 1_564
Cu1 Pr3 3.088060 1_654
Cu1 Pr2 3.093185 1_655
Cu1 Pr2 3.093302 1_565
Cu1 Pr3 3.114233 1_664
Cu2 Cu3 2.578723 1_645
Cu2 Fe0 2.580628 1_545
Cu2 Cu3 2.682318 1_555
Cu2 Fe0 2.697340 1_555
Cu2 Pr3 3.109473 1_655
Cu2 Pr0 3.109473 1_655
Cu2 Pr3 3.126328 1_555
Cu2 Pr0 3.126328 1_555
Cu2 Pr2 3.148326 1_556
Cu2 Pr1 3.148326 1_555
Cu3 Fe0 2.580662 1_455
Cu3 Fe0 2.697111 1_555
Cu3 Pr0 3.109360 1_565
Cu3 Pr3 3.109360 1_565
Cu3 Pr3 3.126609 1_555
Cu3 Pr0 3.126609 1_555
Cu3 Pr2 3.148264 1_556
Cu3 Pr1 3.148264 1_555
