# generated using pymatgen
data_Sm3GaCo3
_symmetry_space_group_name_H-M   'P 1'
_cell_length_a   5.47868879
_cell_length_b   5.47868879
_cell_length_c   13.10500800
_cell_angle_alpha   90.00000000
_cell_angle_beta   90.00000000
_cell_angle_gamma   135.40671881
_symmetry_Int_Tables_number   1
_chemical_formula_structural   Sm3GaCo3
_chemical_formula_sum   'Sm6 Ga2 Co6'
_cell_volume   276.16630725
_cell_formula_units_Z   2
loop_
 _symmetry_equiv_pos_site_id
 _symmetry_equiv_pos_as_xyz
  1  'x, y, z'
loop_
 _atom_site_type_symbol
 _atom_site_label
 _atom_site_symmetry_multiplicity
 _atom_site_fract_x
 _atom_site_fract_y
 _atom_site_fract_z
 _atom_site_occupancy
  Sm  Sm0  1  0.79403200  0.20596800  0.39774900  1
  Sm  Sm1  1  0.20596800  0.79403200  0.60225100  1
  Sm  Sm2  1  0.79403200  0.20596800  0.10225100  1
  Sm  Sm3  1  0.20596800  0.79403200  0.89774900  1
  Sm  Sm4  1  0.50405700  0.49594300  0.25000000  1
  Sm  Sm5  1  0.49594300  0.50405700  0.75000000  1
  Ga  Ga0  1  0.50000000  0.50000000  0.50000000  1
  Ga  Ga1  1  0.50000000  0.50000000  0.00000000  1
  Co  Co0  1  0.08441300  0.91558700  0.40381900  1
  Co  Co1  1  0.91558700  0.08441300  0.59618100  1
  Co  Co2  1  0.08441300  0.91558700  0.09618100  1
  Co  Co3  1  0.91558700  0.08441300  0.90381900  1
  Co  Co4  1  0.20117100  0.79882900  0.25000000  1
  Co  Co5  1  0.79882900  0.20117100  0.75000000  1
loop_
_geom_bond_atom_site_label_1
_geom_bond_atom_site_label_2
_geom_bond_distance
_geom_bond_site_symmetry_2
Ga0 Sm1 3.236751 1_655
Ga0 Sm1 3.236751 1_545
Ga0 Sm0 3.236751 1_565
Ga0 Sm0 3.236751 1_455
Ga0 Sm1 3.268264 1_555
Ga0 Sm0 3.268264 1_555
Ga0 Sm4 3.276510 1_555
Ga0 Sm5 3.276510 1_555
Ga1 Sm2 3.236751 1_565
Ga1 Sm2 3.236751 1_455
Ga1 Sm3 3.236751 1_654
Ga1 Sm3 3.236751 1_544
Ga1 Sm2 3.268264 1_555
Ga1 Sm3 3.268264 1_554
Ga1 Sm5 3.276510 1_554
Ga1 Sm4 3.276510 1_555
Co0 Co4 2.337650 1_555
Co0 Ga0 2.577169 1_455
Co0 Ga0 2.577169 1_565
Co0 Sm1 2.877675 1_555
Co0 Sm0 2.944991 1_465
Co0 Sm0 2.973758 1_455
Co0 Sm0 2.973758 1_565
Co0 Sm4 3.007956 1_455
Co0 Sm4 3.007956 1_565
Co1 Co5 2.337650 1_555
Co1 Ga0 2.577169 1_545
Co1 Ga0 2.577169 1_655
Co1 Sm0 2.877675 1_555
Co1 Sm1 2.944991 1_645
Co1 Sm1 2.973758 1_545
Co1 Sm1 2.973758 1_655
Co1 Sm5 3.007956 1_655
Co1 Sm5 3.007956 1_545
Co2 Co4 2.337650 1_555
Co2 Ga1 2.577169 1_455
Co2 Ga1 2.577169 1_565
Co2 Sm3 2.877675 1_554
Co2 Sm2 2.944991 1_465
Co2 Sm2 2.973758 1_455
Co2 Sm2 2.973758 1_565
Co2 Sm4 3.007956 1_455
Co2 Sm4 3.007956 1_565
Co3 Co5 2.337650 1_555
Co3 Ga1 2.577169 1_546
Co3 Ga1 2.577169 1_656
Co3 Sm2 2.877675 1_556
Co3 Sm3 2.944991 1_645
Co3 Sm3 2.973758 1_655
Co3 Sm3 2.973758 1_545
Co3 Sm5 3.007956 1_655
Co3 Sm5 3.007956 1_545
Co4 Sm4 2.883426 1_565
Co4 Sm4 2.883426 1_455
Co4 Sm0 2.992667 1_565
Co4 Sm0 2.992667 1_455
Co4 Sm2 2.992667 1_565
Co4 Sm2 2.992667 1_455
Co4 Sm4 3.070693 1_555
Co5 Sm5 2.883426 1_655
Co5 Sm5 2.883426 1_545
Co5 Sm3 2.992667 1_655
Co5 Sm3 2.992667 1_545
Co5 Sm1 2.992667 1_655
Co5 Sm1 2.992667 1_545
Co5 Sm5 3.070693 1_555
