# generated using pymatgen
data_AlNi(WO4)2
_symmetry_space_group_name_H-M   'P 1'
_cell_length_a   5.05956091
_cell_length_b   5.60836523
_cell_length_c   9.14069003
_cell_angle_alpha   89.97810279
_cell_angle_beta   90.89066668
_cell_angle_gamma   89.23798861
_symmetry_Int_Tables_number   1
_chemical_formula_structural   AlNi(WO4)2
_chemical_formula_sum   'Al2 Ni2 W4 O16'
_cell_volume   259.32067134
_cell_formula_units_Z   2
loop_
 _symmetry_equiv_pos_site_id
 _symmetry_equiv_pos_as_xyz
  1  'x, y, z'
loop_
 _atom_site_type_symbol
 _atom_site_label
 _atom_site_symmetry_multiplicity
 _atom_site_fract_x
 _atom_site_fract_y
 _atom_site_fract_z
 _atom_site_occupancy
  Al  Al0  1  0.25123800  0.64566300  0.24707400  1
  Al  Al1  1  0.74756400  0.34273300  0.74752500  1
  Ni  Ni0  1  0.74865900  0.35299400  0.24833500  1
  Ni  Ni1  1  0.25026600  0.64153100  0.74838100  1
  W  W0  1  0.24520800  0.17096000  0.50060800  1
  W  W1  1  0.23885800  0.17249000  0.99992700  1
  W  W2  1  0.74468000  0.83504500  0.49745900  1
  W  W3  1  0.75159300  0.83502200  0.99825800  1
  O  O0  1  0.40038100  0.39871700  0.13465400  1
  O  O1  1  0.10860300  0.39316700  0.36639600  1
  O  O2  1  0.61017300  0.60931300  0.87041000  1
  O  O3  1  0.89126000  0.61002700  0.62919900  1
  O  O4  1  0.42797100  0.88526200  0.61145600  1
  O  O5  1  0.06748500  0.88006300  0.88813400  1
  O  O6  1  0.58916600  0.11506300  0.39000100  1
  O  O7  1  0.92061000  0.11263200  0.11648200  1
  O  O8  1  0.92700700  0.63618800  0.13610700  1
  O  O9  1  0.57251800  0.63480900  0.36353200  1
  O  O10  1  0.06998900  0.36615500  0.85866500  1
  O  O11  1  0.43220500  0.37163100  0.64151500  1
  O  O12  1  0.42050300  0.88184400  0.11320000  1
  O  O13  1  0.59293400  0.11947800  0.88661800  1
  O  O14  1  0.07548000  0.87438300  0.38627200  1
  O  O15  1  0.91564600  0.11483000  0.61979300  1
loop_
_geom_bond_atom_site_label_1
_geom_bond_atom_site_label_2
_geom_bond_distance
_geom_bond_site_symmetry_2
Al0 O0 1.881726 1_555
Al0 O8 1.916616 1_455
Al0 O9 1.929448 1_555
Al0 O1 1.940666 1_555
Al0 O12 2.011698 1_555
Al0 O14 2.015245 1_555
Al1 O11 1.859043 1_555
Al1 O10 1.914370 1_655
Al1 O15 1.929562 1_555
Al1 O13 1.962668 1_555
Al1 O2 1.994515 1_555
Al1 O3 1.999462 1_555
Ni0 O7 2.007316 1_555
Ni0 O6 2.041682 1_555
Ni0 O0 2.044872 1_555
Ni0 O9 2.096193 1_555
Ni0 O8 2.110644 1_555
Ni0 O1 2.117065 1_655
Ni1 O11 2.021108 1_555
Ni1 O5 2.069265 1_555
Ni1 O10 2.073220 1_555
Ni1 O4 2.075992 1_555
Ni1 O3 2.112946 1_455
Ni1 O2 2.126197 1_555
O0 W1 1.947231 1_554
O1 W0 1.866906 1_555
O2 W3 1.865280 1_555
O3 W2 1.881191 1_555
O4 W2 1.942408 1_555
O4 W0 2.092674 1_565
O5 W3 1.921488 1_455
O5 W1 2.120685 1_565
O6 W2 1.998029 1_545
O6 W0 2.046812 1_555
O7 W1 1.976848 1_654
O7 W3 2.081133 1_544
O8 W3 1.885931 1_554
O9 W2 1.874146 1_555
O10 W1 1.875351 1_555
O11 W0 1.952488 1_555
O12 W3 2.005553 1_554
O12 W1 2.122032 1_564
O13 W3 2.042074 1_545
O13 W1 2.101007 1_555
O14 W2 1.986305 1_455
O14 W0 2.146563 1_565
O15 W0 2.033836 1_655
O15 W2 2.113816 1_545
