# generated using pymatgen
data_UVSe3
_symmetry_space_group_name_H-M   'P 1'
_cell_length_a   6.51063868
_cell_length_b   7.30833521
_cell_length_c   9.54962879
_cell_angle_alpha   90.00000000
_cell_angle_beta   90.00000000
_cell_angle_gamma   90.00000000
_symmetry_Int_Tables_number   1
_chemical_formula_structural   UVSe3
_chemical_formula_sum   'U4 V4 Se12'
_cell_volume   454.38976770
_cell_formula_units_Z   4
loop_
 _symmetry_equiv_pos_site_id
 _symmetry_equiv_pos_as_xyz
  1  'x, y, z'
loop_
 _atom_site_type_symbol
 _atom_site_label
 _atom_site_symmetry_multiplicity
 _atom_site_fract_x
 _atom_site_fract_y
 _atom_site_fract_z
 _atom_site_occupancy
  U  U0  1  0.55424763  0.11907437  0.75000000  1
  U  U1  1  0.94575237  0.61907437  0.75000000  1
  U  U2  1  0.44575237  0.88092563  0.25000000  1
  U  U3  1  0.05424763  0.38092563  0.25000000  1
  V  V0  1  0.50000000  0.50000000  -0.00000000  1
  V  V1  1  0.00000000  -0.00000000  0.50000000  1
  V  V2  1  0.50000000  0.50000000  0.50000000  1
  V  V3  1  0.00000000  -0.00000000  -0.00000000  1
  Se  Se0  1  0.33493990  0.18039384  0.43676113  1
  Se  Se1  1  0.16506010  0.68039384  0.06323887  1
  Se  Se2  1  0.66506010  0.81960616  0.93676113  1
  Se  Se3  1  0.83493990  0.31960616  0.56323887  1
  Se  Se4  1  0.66506010  0.81960616  0.56323887  1
  Se  Se5  1  0.83493990  0.31960616  0.93676113  1
  Se  Se6  1  0.33493990  0.18039384  0.06323887  1
  Se  Se7  1  0.16506010  0.68039384  0.43676113  1
  Se  Se8  1  0.35220423  0.46042544  0.75000000  1
  Se  Se9  1  0.14779577  0.96042544  0.75000000  1
  Se  Se10  1  0.64779577  0.53957456  0.25000000  1
  Se  Se11  1  0.85220423  0.03957456  0.25000000  1
loop_
_geom_bond_atom_site_label_1
_geom_bond_atom_site_label_2
_geom_bond_distance
_geom_bond_site_symmetry_2
Se0 V1 2.618809 1_555
Se0 V2 2.641113 1_555
Se0 U2 2.914002 1_545
Se0 U3 2.944218 1_555
Se0 U0 3.344773 1_555
Se1 V0 2.618809 1_555
Se1 V3 2.641113 1_565
Se1 U3 2.914002 1_555
Se1 U2 2.944218 1_555
Se1 U1 3.344773 1_454
Se2 V3 2.618809 1_666
Se2 V0 2.641113 1_556
Se2 U0 2.914002 1_565
Se2 U1 2.944218 1_555
Se2 U2 3.344773 1_556
Se3 V2 2.618809 1_555
Se3 V1 2.641113 1_655
Se3 U1 2.914002 1_555
Se3 U0 2.944218 1_555
Se3 U3 3.344773 1_655
Se4 V1 2.618809 1_665
Se4 V2 2.641113 1_555
Se4 U0 2.914002 1_565
Se4 U1 2.944218 1_555
Se4 U2 3.344773 1_555
Se5 V0 2.618809 1_556
Se5 V3 2.641113 1_656
Se5 U1 2.914002 1_555
Se5 U0 2.944218 1_555
Se5 U3 3.344773 1_656
Se6 V3 2.618809 1_555
Se6 V0 2.641113 1_555
Se6 U2 2.914002 1_545
Se6 U3 2.944218 1_555
Se6 U0 3.344773 1_554
Se7 V2 2.618809 1_555
Se7 V1 2.641113 1_565
Se7 U3 2.914002 1_555
Se7 U2 2.944218 1_555
Se7 U1 3.344773 1_455
Se8 V0 2.590228 1_556
Se8 V2 2.590228 1_555
Se8 U0 2.820271 1_555
Se8 U1 2.889125 1_455
Se9 V3 2.590228 1_566
Se9 V1 2.590228 1_565
Se9 U1 2.820271 1_455
Se9 U0 2.889125 1_565
Se10 V0 2.590228 1_555
Se10 V2 2.590228 1_555
Se10 U2 2.820271 1_555
Se10 U3 2.889125 1_655
Se11 V1 2.590228 1_655
Se11 V3 2.590228 1_655
Se11 U3 2.820271 1_655
Se11 U2 2.889125 1_545
