# generated using pymatgen
data_Zn2CoSbO6
_symmetry_space_group_name_H-M   'P 1'
_cell_length_a   7.70289900
_cell_length_b   5.27749200
_cell_length_c   5.28007381
_cell_angle_alpha   89.82436023
_cell_angle_beta   90.00000000
_cell_angle_gamma   90.00000000
_symmetry_Int_Tables_number   1
_chemical_formula_structural   Zn2CoSbO6
_chemical_formula_sum   'Zn4 Co2 Sb2 O12'
_cell_volume   214.64448779
_cell_formula_units_Z   2
loop_
 _symmetry_equiv_pos_site_id
 _symmetry_equiv_pos_as_xyz
  1  'x, y, z'
loop_
 _atom_site_type_symbol
 _atom_site_label
 _atom_site_symmetry_multiplicity
 _atom_site_fract_x
 _atom_site_fract_y
 _atom_site_fract_z
 _atom_site_occupancy
  Zn  Zn0  1  0.25000000  0.48790200  0.45121500  1
  Zn  Zn1  1  0.75000000  0.51209800  0.54878500  1
  Zn  Zn2  1  0.25000000  0.97786100  0.98194200  1
  Zn  Zn3  1  0.75000000  0.02213900  0.01805800  1
  Co  Co0  1  0.50000000  0.50000000  0.00000000  1
  Co  Co1  1  0.00000000  0.50000000  0.00000000  1
  Sb  Sb0  1  0.50000000  0.00000000  0.50000000  1
  Sb  Sb1  1  0.00000000  0.00000000  0.50000000  1
  O  O0  1  0.56521000  0.67992100  0.32544600  1
  O  O1  1  0.93352400  0.83041700  0.82486200  1
  O  O2  1  0.06521000  0.32007900  0.67455400  1
  O  O3  1  0.43352400  0.16958300  0.17513800  1
  O  O4  1  0.56647600  0.83041700  0.82486200  1
  O  O5  1  0.06647600  0.16958300  0.17513800  1
  O  O6  1  0.75000000  0.13077400  0.41930200  1
  O  O7  1  0.93479000  0.67992100  0.32544600  1
  O  O8  1  0.25000000  0.60845100  0.08342500  1
  O  O9  1  0.43479000  0.32007900  0.67455400  1
  O  O10  1  0.25000000  0.86922600  0.58069800  1
  O  O11  1  0.75000000  0.39154900  0.91657500  1
loop_
_geom_bond_atom_site_label_1
_geom_bond_atom_site_label_2
_geom_bond_distance
_geom_bond_site_symmetry_2
Co0 O0 2.028978 1_555
Co0 O9 2.028978 1_554
Co0 O3 2.036715 1_555
Co0 O4 2.036715 1_554
Co0 O8 2.057080 1_555
Co0 O11 2.057080 1_554
Co1 O7 2.028978 1_455
Co1 O2 2.028978 1_554
Co1 O5 2.036715 1_555
Co1 O1 2.036715 1_454
Co1 O8 2.057080 1_555
Co1 O11 2.057080 1_454
O0 Sb0 1.991169 1_565
O0 Zn1 2.048115 1_555
O1 Sb1 1.999001 1_665
O1 Zn3 2.017207 1_566
O2 Sb1 1.991169 1_555
O2 Zn0 2.048115 1_555
O3 Sb0 1.999001 1_555
O3 Zn2 2.017207 1_544
O4 Sb0 1.999001 1_565
O4 Zn3 2.017207 1_566
O5 Sb1 1.999001 1_555
O5 Zn2 2.017207 1_544
O6 Sb0 2.089135 1_555
O6 Sb1 2.089135 1_655
O6 Zn1 2.127380 1_555
O6 Zn3 2.196497 1_555
O7 Sb1 1.991169 1_665
O7 Zn1 2.048115 1_555
O8 Zn2 2.020271 1_554
O8 Zn0 2.041659 1_555
O9 Sb0 1.991169 1_555
O9 Zn0 2.048115 1_555
O10 Sb1 2.089135 1_565
O10 Sb0 2.089135 1_565
O10 Zn0 2.127380 1_555
O10 Zn2 2.196497 1_555
O11 Zn3 2.020271 1_556
O11 Zn1 2.041659 1_555
