# generated using pymatgen
data_KAs(HO2)2
_symmetry_space_group_name_H-M   'P 1'
_cell_length_a   6.55622069
_cell_length_b   6.55622069
_cell_length_c   6.55622069
_cell_angle_alpha   108.27210642
_cell_angle_beta   108.27210642
_cell_angle_gamma   111.89702398
_symmetry_Int_Tables_number   1
_chemical_formula_structural   KAs(HO2)2
_chemical_formula_sum   'K2 As2 H4 O8'
_cell_volume   216.64656763
_cell_formula_units_Z   2
loop_
 _symmetry_equiv_pos_site_id
 _symmetry_equiv_pos_as_xyz
  1  'x, y, z'
loop_
 _atom_site_type_symbol
 _atom_site_label
 _atom_site_symmetry_multiplicity
 _atom_site_fract_x
 _atom_site_fract_y
 _atom_site_fract_z
 _atom_site_occupancy
  K  K0  1  0.50000000  0.50000000  0.00000000  1
  K  K1  1  0.25000000  0.75000000  0.50000000  1
  As  As0  1  0.00000000  0.00000000  0.00000000  1
  As  As1  1  0.75000000  0.25000000  0.50000000  1
  H  H0  1  0.71889900  0.62500000  0.59389900  1
  H  H1  1  0.03110100  0.12500000  0.40610100  1
  H  H2  1  0.87500000  0.28110100  0.90610100  1
  H  H3  1  0.37500000  0.96889900  0.09389900  1
  O  O0  1  0.70568300  0.77268000  0.74873300  1
  O  O1  1  0.02394600  0.95695000  0.25126700  1
  O  O2  1  0.04305000  0.29431700  0.06699700  1
  O  O3  1  0.04431700  0.29305000  0.56699700  1
  O  O4  1  0.22732000  0.97605400  0.93300300  1
  O  O5  1  0.72605400  0.47732000  0.43300300  1
  O  O6  1  0.70695000  0.27394600  0.75126700  1
  O  O7  1  0.52268000  0.95568300  0.24873300  1
loop_
_geom_bond_atom_site_label_1
_geom_bond_atom_site_label_2
_geom_bond_distance
_geom_bond_site_symmetry_2
K0 O7 2.840519 1_555
K0 O3 2.840519 1_554
K0 O5 2.840520 1_555
K0 O6 2.840522 1_554
K0 O4 3.028177 1_544
K0 O1 3.028179 1_655
K0 O0 3.028183 1_554
K0 O2 3.028183 1_555
K1 O0 2.840519 1_555
K1 O2 2.840519 1_555
K1 O4 2.840520 1_555
K1 O1 2.840522 1_555
K1 O5 3.028177 1_455
K1 O6 3.028179 1_565
K1 O3 3.028183 1_555
K1 O7 3.028183 1_555
As0 O4 1.726422 1_544
As0 O2 1.726424 1_555
As0 O0 1.726424 1_444
As0 O1 1.726425 1_545
As1 O5 1.726422 1_555
As1 O3 1.726424 1_655
As1 O7 1.726424 1_545
As1 O6 1.726425 1_555
H0 O0 1.215259 1_555
H0 O5 1.215263 1_555
H1 O1 1.215256 1_545
H1 O3 1.215259 1_555
H2 O6 1.215256 1_555
H2 O2 1.215259 1_656
H3 O7 1.215259 1_555
H3 O4 1.215263 1_554
