# generated using pymatgen
data_K3Mo4O16F
_symmetry_space_group_name_H-M   'P 1'
_cell_length_a   7.99692200
_cell_length_b   10.55458568
_cell_length_c   10.87121361
_cell_angle_alpha   104.54294021
_cell_angle_beta   98.93865870
_cell_angle_gamma   104.75725234
_symmetry_Int_Tables_number   1
_chemical_formula_structural   K3Mo4O16F
_chemical_formula_sum   'K6 Mo8 O32 F2'
_cell_volume   834.96542413
_cell_formula_units_Z   2
loop_
 _symmetry_equiv_pos_site_id
 _symmetry_equiv_pos_as_xyz
  1  'x, y, z'
loop_
 _atom_site_type_symbol
 _atom_site_label
 _atom_site_symmetry_multiplicity
 _atom_site_fract_x
 _atom_site_fract_y
 _atom_site_fract_z
 _atom_site_occupancy
  K  K0  1  0.37945200  0.00196800  0.66695100  1
  K  K1  1  0.62054800  0.99803200  0.33304900  1
  K  K2  1  0.65188200  0.35255500  0.03200000  1
  K  K3  1  0.34811800  0.64744500  0.96800000  1
  K  K4  1  0.18401000  0.61404000  0.35589100  1
  K  K5  1  0.81599000  0.38596000  0.64410900  1
  Mo  Mo0  1  0.35652700  0.25604000  0.32404700  1
  Mo  Mo1  1  0.64347300  0.74396000  0.67595200  1
  Mo  Mo2  1  0.22923100  0.02091400  0.01338700  1
  Mo  Mo3  1  0.77076900  0.97908600  0.98661300  1
  Mo  Mo4  1  0.09589900  0.29280500  0.00492800  1
  Mo  Mo5  1  0.90410100  0.70719500  0.99507200  1
  Mo  Mo6  1  0.09944100  0.93570700  0.28617000  1
  Mo  Mo7  1  0.90055900  0.06429300  0.71383000  1
  O  O0  1  0.21246100  0.21853700  0.12656100  1
  O  O1  1  0.78753900  0.78146300  0.87343900  1
  O  O2  1  0.83757000  0.16111000  0.06402100  1
  O  O3  1  0.16243000  0.83889000  0.93597900  1
  O  O4  1  0.71569800  0.63006200  0.04541200  1
  O  O5  1  0.28430200  0.36993800  0.95458800  1
  O  O6  1  0.13864100  0.13476000  0.34308600  1
  O  O7  1  0.86135900  0.86524000  0.65691400  1
  O  O8  1  0.10018700  0.77106400  0.67673400  1
  O  O9  1  0.89981300  0.22893600  0.32326600  1
  O  O10  1  0.56622500  0.66723400  0.29241000  1
  O  O11  1  0.43377500  0.33276600  0.70759000  1
  O  O12  1  0.32117500  0.41178200  0.38966800  1
  O  O13  1  0.67882500  0.58821800  0.61033200  1
  O  O14  1  0.40522100  0.08910900  0.94876800  1
  O  O15  1  0.59477900  0.91089100  0.05123200  1
  O  O16  1  0.08243300  0.75780000  0.15768800  1
  O  O17  1  0.91756700  0.24220000  0.84231200  1
  O  O18  1  0.32418600  0.03441800  0.18895700  1
  O  O19  1  0.67581400  0.96558200  0.81104300  1
  O  O20  1  0.05189100  0.43176200  0.10702900  1
  O  O21  1  0.94810900  0.56823800  0.89297100  1
  O  O22  1  0.30950100  0.37069600  0.66531100  1
  O  O23  1  0.69049900  0.62930400  0.33468900  1
  O  O24  1  0.73357100  0.08234100  0.59920200  1
  O  O25  1  0.26642900  0.91765900  0.40079800  1
  O  O26  1  0.50525700  0.23350600  0.44757400  1
  O  O27  1  0.49474300  0.76649400  0.55242600  1
  O  O28  1  0.03647000  0.06374100  0.90736200  1
  O  O29  1  0.96353000  0.93625900  0.09263800  1
  O  O30  1  0.09426400  0.10908300  0.66022600  1
  O  O31  1  0.90573600  0.89091700  0.33977400  1
  F  F0  1  0.55348200  0.31953900  0.24218800  1
  F  F1  1  0.44651800  0.68046100  0.75781200  1
loop_
_geom_bond_atom_site_label_1
_geom_bond_atom_site_label_2
_geom_bond_distance
_geom_bond_site_symmetry_2
K0 O25 2.732233 1_545
K0 O30 2.790699 1_555
K0 O19 2.798254 1_545
K0 O8 2.892994 1_545
K0 O27 2.923536 1_545
K0 O14 2.926896 1_555
K0 O24 3.003264 1_555
K0 O11 3.311650 1_555
K1 O24 2.732233 1_565
K1 O31 2.790699 1_555
K1 O18 2.798254 1_565
K1 O9 2.892994 1_565
K1 O26 2.923536 1_565
K1 O15 2.926896 1_555
K1 O25 3.003264 1_555
K1 O10 3.311650 1_555
K2 O14 2.797992 1_554
K2 O4 2.803833 1_555
K2 O2 2.851374 1_555
K2 O5 2.994354 1_554
K2 O20 3.013492 1_655
K3 O15 2.797992 1_556
K3 O5 2.803833 1_555
K3 O3 2.851374 1_555
K3 O4 2.994354 1_556
K3 O21 3.013492 1_455
K4 O12 2.712306 1_555
K4 O20 2.756659 1_555
K4 O27 2.813443 1_555
K4 O25 2.996720 1_555
K4 O16 3.054638 1_555
K4 O10 3.179586 1_555
K5 O13 2.712306 1_555
K5 O21 2.756659 1_555
K5 O26 2.813443 1_555
K5 O24 2.996720 1_555
K5 O17 3.054638 1_555
K5 O11 3.179586 1_555
Mo0 O12 1.732452 1_555
Mo0 O26 1.755768 1_555
Mo0 O6 1.956084 1_555
Mo0 O0 2.159972 1_555
Mo0 O18 2.354514 1_555
Mo1 O13 1.732450 1_555
Mo1 O27 1.755760 1_555
Mo1 O7 1.956080 1_555
Mo1 O1 2.159981 1_555
Mo1 O19 2.354518 1_555
Mo2 O14 1.742805 1_554
Mo2 O3 1.791650 1_544
Mo2 O18 1.896776 1_555
Mo2 O28 1.993380 1_554
Mo2 O0 2.188006 1_555
Mo2 O29 2.458381 1_445
Mo3 O15 1.742805 1_556
Mo3 O2 1.791650 1_566
Mo3 O19 1.896776 1_555
Mo3 O29 1.993380 1_556
Mo3 O1 2.188006 1_555
Mo3 O28 2.458381 1_665
Mo4 O20 1.753189 1_555
Mo4 O5 1.757081 1_554
Mo4 O0 1.934312 1_555
Mo4 O17 1.948999 1_454
Mo4 O28 2.272924 1_554
Mo4 O2 2.451615 1_455
Mo5 O21 1.753189 1_555
Mo5 O4 1.757081 1_556
Mo5 O1 1.934312 1_555
Mo5 O16 1.948999 1_656
Mo5 O29 2.272924 1_556
Mo5 O3 2.451615 1_655
Mo6 O31 1.734476 1_455
Mo6 O25 1.761850 1_555
Mo6 O6 1.961211 1_565
Mo6 O16 1.997248 1_555
Mo6 O29 2.215088 1_455
Mo6 O18 2.371029 1_565
Mo7 O30 1.734476 1_655
Mo7 O24 1.761850 1_555
Mo7 O7 1.961211 1_545
Mo7 O17 1.997248 1_555
Mo7 O28 2.215088 1_655
Mo7 O19 2.371029 1_545
O10 O23 1.229769 1_555
O11 O22 1.229769 1_555
F0 Mo0 1.979687 1_555
F0 K2 2.603997 1_555
F1 Mo1 1.979694 1_555
F1 K3 2.603997 1_555
