# generated using pymatgen
data_Nb3Ni3C
_symmetry_space_group_name_H-M   'P 1'
_cell_length_a   8.06035404
_cell_length_b   8.06035404
_cell_length_c   8.06035404
_cell_angle_alpha   60.00000000
_cell_angle_beta   60.00000000
_cell_angle_gamma   60.00000000
_symmetry_Int_Tables_number   1
_chemical_formula_structural   Nb3Ni3C
_chemical_formula_sum   'Nb12 Ni12 C4'
_cell_volume   370.29458066
_cell_formula_units_Z   4
loop_
 _symmetry_equiv_pos_site_id
 _symmetry_equiv_pos_as_xyz
  1  'x, y, z'
loop_
 _atom_site_type_symbol
 _atom_site_label
 _atom_site_symmetry_multiplicity
 _atom_site_fract_x
 _atom_site_fract_y
 _atom_site_fract_z
 _atom_site_occupancy
  Nb  Nb0  1  0.80442400  0.80442400  0.19557600  1
  Nb  Nb1  1  0.19557600  0.19557600  0.80442400  1
  Nb  Nb2  1  0.80442400  0.19557600  0.80442400  1
  Nb  Nb3  1  0.19557600  0.80442400  0.19557600  1
  Nb  Nb4  1  0.19557600  0.80442400  0.80442400  1
  Nb  Nb5  1  0.80442400  0.19557600  0.19557600  1
  Nb  Nb6  1  0.44557600  0.44557600  0.05442400  1
  Nb  Nb7  1  0.05442400  0.05442400  0.44557600  1
  Nb  Nb8  1  0.44557600  0.05442400  0.44557600  1
  Nb  Nb9  1  0.05442400  0.44557600  0.05442400  1
  Nb  Nb10  1  0.05442400  0.44557600  0.44557600  1
  Nb  Nb11  1  0.44557600  0.05442400  0.05442400  1
  Ni  Ni0  1  0.12500000  0.62500000  0.62500000  1
  Ni  Ni1  1  0.62500000  0.12500000  0.62500000  1
  Ni  Ni2  1  0.62500000  0.62500000  0.12500000  1
  Ni  Ni3  1  0.62500000  0.62500000  0.62500000  1
  Ni  Ni4  1  0.74064000  0.41978700  0.41978700  1
  Ni  Ni5  1  0.41978700  0.74064000  0.41978700  1
  Ni  Ni6  1  0.41978700  0.41978700  0.74064000  1
  Ni  Ni7  1  0.41978700  0.41978700  0.41978700  1
  Ni  Ni8  1  0.50936000  0.83021300  0.83021300  1
  Ni  Ni9  1  0.83021300  0.50936000  0.83021300  1
  Ni  Ni10  1  0.83021300  0.83021300  0.50936000  1
  Ni  Ni11  1  0.83021300  0.83021300  0.83021300  1
  C  C0  1  0.62500000  0.12500000  0.12500000  1
  C  C1  1  0.12500000  0.62500000  0.12500000  1
  C  C2  1  0.12500000  0.12500000  0.62500000  1
  C  C3  1  0.12500000  0.12500000  0.12500000  1
loop_
_geom_bond_atom_site_label_1
_geom_bond_atom_site_label_2
_geom_bond_distance
_geom_bond_site_symmetry_2
Nb0 Ni10 2.752820 1_555
Nb0 Ni11 2.752828 1_554
Nb0 Ni5 2.864289 1_555
Nb0 Ni4 2.864289 1_555
Nb0 Ni3 2.871183 1_555
Nb0 Ni2 2.871183 1_555
Nb1 Ni8 2.752825 1_545
Nb1 Ni9 2.752825 1_455
Nb1 Ni7 2.864292 1_555
Nb1 Ni6 2.864296 1_555
Nb1 Ni0 2.871183 1_555
Nb1 Ni1 2.871183 1_555
Nb2 Ni9 2.752820 1_555
Nb2 Ni11 2.752828 1_545
Nb2 Ni6 2.864289 1_555
Nb2 Ni4 2.864289 1_555
Nb2 Ni3 2.871183 1_555
Nb2 Ni1 2.871183 1_555
Nb3 Ni8 2.752825 1_554
Nb3 Ni10 2.752825 1_455
Nb3 Ni7 2.864292 1_555
Nb3 Ni5 2.864296 1_555
Nb3 Ni0 2.871183 1_555
Nb3 Ni2 2.871183 1_555
Nb4 Ni8 2.752820 1_555
Nb4 Ni11 2.752828 1_455
Nb4 Ni5 2.864289 1_555
Nb4 Ni6 2.864289 1_555
Nb4 Ni0 2.871183 1_555
Nb4 Ni3 2.871183 1_555
Nb5 Ni9 2.752825 1_554
Nb5 Ni10 2.752825 1_545
Nb5 Ni7 2.864292 1_555
Nb5 Ni4 2.864296 1_555
Nb5 Ni1 2.871183 1_555
Nb5 Ni2 2.871183 1_555
Nb6 Ni6 2.752820 1_554
Nb6 Ni7 2.752828 1_555
Nb6 Ni9 2.864289 1_554
Nb6 Ni8 2.864289 1_554
Nb6 Ni3 2.871183 1_554
Nb6 Ni2 2.871183 1_555
Nb7 Ni5 2.752825 1_545
Nb7 Ni4 2.752825 1_455
Nb7 Ni11 2.864292 1_445
Nb7 Ni10 2.864296 1_445
Nb7 Ni1 2.871183 1_455
Nb7 Ni0 2.871183 1_545
Nb8 Ni5 2.752820 1_545
Nb8 Ni7 2.752828 1_555
Nb8 Ni8 2.864289 1_545
Nb8 Ni10 2.864289 1_545
Nb8 Ni1 2.871183 1_555
Nb8 Ni3 2.871183 1_545
Nb9 Ni6 2.752825 1_554
Nb9 Ni4 2.752825 1_455
Nb9 Ni11 2.864292 1_454
Nb9 Ni9 2.864296 1_454
Nb9 Ni0 2.871183 1_554
Nb9 Ni2 2.871183 1_455
Nb10 Ni4 2.752820 1_455
Nb10 Ni7 2.752828 1_555
Nb10 Ni9 2.864289 1_455
Nb10 Ni10 2.864289 1_455
Nb10 Ni0 2.871183 1_555
Nb10 Ni3 2.871183 1_455
Nb11 Ni6 2.752825 1_554
Nb11 Ni5 2.752825 1_545
Nb11 Ni11 2.864292 1_544
Nb11 Ni8 2.864296 1_544
Nb11 Ni1 2.871183 1_554
Nb11 Ni2 2.871183 1_545
Ni0 Ni7 2.448123 1_555
Ni0 Ni11 2.448123 1_455
Ni0 Ni10 2.448127 1_455
Ni0 Ni5 2.448127 1_555
Ni0 Ni9 2.448127 1_455
Ni0 Ni6 2.448127 1_555
Ni1 Ni11 2.448123 1_545
Ni1 Ni7 2.448123 1_555
Ni1 Ni4 2.448127 1_555
Ni1 Ni10 2.448127 1_545
Ni1 Ni8 2.448127 1_545
Ni1 Ni6 2.448127 1_555
Ni2 Ni7 2.448123 1_555
Ni2 Ni4 2.448127 1_555
Ni2 Ni9 2.448127 1_554
Ni2 Ni5 2.448127 1_555
Ni2 Ni8 2.448127 1_554
Ni3 Ni4 2.448120 1_555
Ni3 Ni8 2.448120 1_555
Ni3 Ni5 2.448120 1_555
Ni3 Ni9 2.448120 1_555
Ni3 Ni6 2.448120 1_555
Ni4 Ni7 2.586189 1_555
Ni4 Ni5 2.586189 1_555
Ni4 Ni6 2.586189 1_555
Ni5 Ni7 2.586189 1_555
Ni5 Ni6 2.586189 1_555
Ni6 Ni7 2.586189 1_555
Ni8 Ni9 2.586189 1_555
Ni10 Ni3 2.448120 1_555
Ni10 Ni11 2.586189 1_555
Ni10 Ni8 2.586189 1_555
Ni10 Ni9 2.586189 1_555
Ni11 Ni2 2.448123 1_556
Ni11 Ni8 2.586189 1_555
Ni11 Ni9 2.586189 1_555
C0 Nb0 2.169747 1_545
C0 Nb2 2.169747 1_554
C0 Nb11 2.169747 1_555
C0 Nb8 2.169747 1_555
C0 Nb5 2.169747 1_555
C0 Nb6 2.169747 1_555
C1 Nb0 2.169747 1_455
C1 Nb9 2.169747 1_555
C1 Nb4 2.169747 1_554
C1 Nb10 2.169747 1_555
C1 Nb6 2.169747 1_555
C1 Nb3 2.169747 1_555
C2 Nb7 2.169747 1_555
C2 Nb10 2.169747 1_555
C2 Nb4 2.169747 1_545
C2 Nb2 2.169747 1_455
C2 Nb8 2.169747 1_555
C2 Nb1 2.169747 1_555
C3 Nb1 2.169747 1_554
C3 Nb3 2.169747 1_545
C3 Nb5 2.169747 1_455
C3 Nb9 2.169747 1_555
C3 Nb11 2.169747 1_555
C3 Nb7 2.169747 1_555
