# generated using pymatgen
data_KDy(MoO4)2
_symmetry_space_group_name_H-M   'P 1'
_cell_length_a   7.50201371
_cell_length_b   7.50201371
_cell_length_c   7.77970902
_cell_angle_alpha   61.74712867
_cell_angle_beta   61.74712867
_cell_angle_gamma   88.11951204
_symmetry_Int_Tables_number   1
_chemical_formula_structural   KDy(MoO4)2
_chemical_formula_sum   'K2 Dy2 Mo4 O16'
_cell_volume   329.25215149
_cell_formula_units_Z   2
loop_
 _symmetry_equiv_pos_site_id
 _symmetry_equiv_pos_as_xyz
  1  'x, y, z'
loop_
 _atom_site_type_symbol
 _atom_site_label
 _atom_site_symmetry_multiplicity
 _atom_site_fract_x
 _atom_site_fract_y
 _atom_site_fract_z
 _atom_site_occupancy
  K  K0  1  0.20012800  0.79987200  0.75000000  1
  K  K1  1  0.79987200  0.20012800  0.25000000  1
  Dy  Dy0  1  0.77095600  0.22904400  0.75000000  1
  Dy  Dy1  1  0.22904400  0.77095600  0.25000000  1
  Mo  Mo0  1  0.69543100  0.69753700  0.76114800  1
  Mo  Mo1  1  0.30456900  0.30246300  0.23885200  1
  Mo  Mo2  1  0.30246300  0.30456900  0.73885200  1
  Mo  Mo3  1  0.69753700  0.69543100  0.26114800  1
  O  O0  1  0.61338000  0.76824900  0.56051800  1
  O  O1  1  0.38662000  0.23175100  0.43948200  1
  O  O2  1  0.23175100  0.38662000  0.93948200  1
  O  O3  1  0.76824900  0.61338000  0.06051800  1
  O  O4  1  0.38316300  0.06668000  0.87602900  1
  O  O5  1  0.61683700  0.93332000  0.12397100  1
  O  O6  1  0.93332000  0.61683700  0.62397100  1
  O  O7  1  0.06668000  0.38316300  0.37602900  1
  O  O8  1  0.58576400  0.36697400  0.97006700  1
  O  O9  1  0.41423600  0.63302600  0.02993300  1
  O  O10  1  0.63302600  0.41423600  0.52993300  1
  O  O11  1  0.36697400  0.58576400  0.47006700  1
  O  O12  1  0.79366100  0.95428200  0.69058800  1
  O  O13  1  0.20633900  0.04571800  0.30941200  1
  O  O14  1  0.04571800  0.20633900  0.80941200  1
  O  O15  1  0.95428200  0.79366100  0.19058800  1
loop_
_geom_bond_atom_site_label_1
_geom_bond_atom_site_label_2
_geom_bond_distance
_geom_bond_site_symmetry_2
K0 O2 2.792286 1_555
K0 O0 2.792286 1_555
K0 O3 2.824598 1_456
K0 O1 2.824598 1_565
K0 O15 3.003662 1_456
K0 O13 3.003662 1_565
K0 O9 3.080356 1_556
K0 O11 3.080356 1_555
K0 O6 3.188437 1_455
K0 O4 3.188437 1_565
K1 O1 2.792286 1_555
K1 O3 2.792286 1_555
K1 O0 2.824598 1_545
K1 O2 2.824598 1_654
K1 O12 3.003662 1_545
K1 O14 3.003662 1_654
K1 O8 3.080356 1_554
K1 O10 3.080356 1_555
K1 O5 3.188437 1_545
K1 O7 3.188437 1_655
Dy0 O8 2.294124 1_555
Dy0 O10 2.294124 1_555
Dy0 O14 2.301278 1_655
Dy0 O12 2.301278 1_545
Dy0 O5 2.365627 1_546
Dy0 O7 2.365627 1_655
Dy0 O6 2.703712 1_555
Dy0 O4 2.703712 1_555
Dy1 O11 2.294124 1_555
Dy1 O9 2.294124 1_555
Dy1 O13 2.301278 1_565
Dy1 O15 2.301278 1_455
Dy1 O6 2.365627 1_455
Dy1 O4 2.365627 1_564
Dy1 O5 2.703712 1_555
Dy1 O7 2.703712 1_555
Mo0 O0 1.789081 1_555
Mo0 O12 1.806505 1_555
Mo0 O6 1.851501 1_555
Mo0 O9 1.997408 1_556
Mo0 O8 2.126133 1_555
Mo0 O3 2.431279 1_556
Mo1 O1 1.789081 1_555
Mo1 O13 1.806505 1_555
Mo1 O7 1.851501 1_555
Mo1 O8 1.997408 1_554
Mo1 O9 2.126133 1_555
Mo1 O2 2.431279 1_554
Mo2 O2 1.789081 1_555
Mo2 O14 1.806505 1_555
Mo2 O4 1.851501 1_555
Mo2 O11 1.997408 1_555
Mo2 O10 2.126133 1_555
Mo2 O1 2.431279 1_555
Mo3 O3 1.789081 1_555
Mo3 O15 1.806505 1_555
Mo3 O5 1.851501 1_555
Mo3 O10 1.997408 1_555
Mo3 O11 2.126133 1_555
Mo3 O0 2.431279 1_555
