# generated using pymatgen
data_La5Mg
_symmetry_space_group_name_H-M   'P 1'
_cell_length_a   19.21248756
_cell_length_b   19.21248756
_cell_length_c   11.93718800
_cell_angle_alpha   90.00000000
_cell_angle_beta   90.00000000
_cell_angle_gamma   157.60876189
_symmetry_Int_Tables_number   1
_chemical_formula_structural   La5Mg
_chemical_formula_sum   'La40 Mg8'
_cell_volume   1678.46872689
_cell_formula_units_Z   8
loop_
 _symmetry_equiv_pos_site_id
 _symmetry_equiv_pos_as_xyz
  1  'x, y, z'
loop_
 _atom_site_type_symbol
 _atom_site_label
 _atom_site_symmetry_multiplicity
 _atom_site_fract_x
 _atom_site_fract_y
 _atom_site_fract_z
 _atom_site_occupancy
  La  La0_0  1  0.49727350  0.00272650  0.00000000  1
  La  La0_1  1  0.49727350  0.00272650  0.50000000  1
  La  La0_2  1  0.49727350  0.50272650  0.00000000  1
  La  La0_3  1  0.49727350  0.50272650  0.50000000  1
  La  La0_4  1  0.99727350  0.00272650  0.00000000  1
  La  La0_5  1  0.99727350  0.00272650  0.50000000  1
  La  La0_6  1  0.99727350  0.50272650  0.00000000  1
  La  La0_7  1  0.99727350  0.50272650  0.50000000  1
  La  La1_0  1  0.16329350  0.33670650  0.00000000  1
  La  La1_1  1  0.16329350  0.33670650  0.50000000  1
  La  La1_2  1  0.16329350  0.83670650  0.00000000  1
  La  La1_3  1  0.16329350  0.83670650  0.50000000  1
  La  La1_4  1  0.66329350  0.33670650  0.00000000  1
  La  La1_5  1  0.66329350  0.33670650  0.50000000  1
  La  La1_6  1  0.66329350  0.83670650  0.00000000  1
  La  La1_7  1  0.66329350  0.83670650  0.50000000  1
  La  La2_0  1  0.33384450  0.16615550  0.00000000  1
  La  La2_1  1  0.33384450  0.16615550  0.50000000  1
  La  La2_2  1  0.33384450  0.66615550  0.00000000  1
  La  La2_3  1  0.33384450  0.66615550  0.50000000  1
  La  La2_4  1  0.83384450  0.16615550  0.00000000  1
  La  La2_5  1  0.83384450  0.16615550  0.50000000  1
  La  La2_6  1  0.83384450  0.66615550  0.00000000  1
  La  La2_7  1  0.83384450  0.66615550  0.50000000  1
  La  La3_0  1  0.22171150  0.27828850  0.25000000  1
  La  La3_1  1  0.22171150  0.27828850  0.75000000  1
  La  La3_2  1  0.22171150  0.77828850  0.25000000  1
  La  La3_3  1  0.22171150  0.77828850  0.75000000  1
  La  La3_4  1  0.72171150  0.27828850  0.25000000  1
  La  La3_5  1  0.72171150  0.27828850  0.75000000  1
  La  La3_6  1  0.72171150  0.77828850  0.25000000  1
  La  La3_7  1  0.72171150  0.77828850  0.75000000  1
  La  La4_0  1  0.06080600  0.43919400  0.25000000  1
  La  La4_1  1  0.06080600  0.43919400  0.75000000  1
  La  La4_2  1  0.06080600  0.93919400  0.25000000  1
  La  La4_3  1  0.06080600  0.93919400  0.75000000  1
  La  La4_4  1  0.56080600  0.43919400  0.25000000  1
  La  La4_5  1  0.56080600  0.43919400  0.75000000  1
  La  La4_6  1  0.56080600  0.93919400  0.25000000  1
  La  La4_7  1  0.56080600  0.93919400  0.75000000  1
  Mg  Mg0_0  1  0.38974000  0.11026000  0.25000000  1
  Mg  Mg0_1  1  0.38974000  0.11026000  0.75000000  1
  Mg  Mg0_2  1  0.38974000  0.61026000  0.25000000  1
  Mg  Mg0_3  1  0.38974000  0.61026000  0.75000000  1
  Mg  Mg0_4  1  0.88974000  0.11026000  0.25000000  1
  Mg  Mg0_5  1  0.88974000  0.11026000  0.75000000  1
  Mg  Mg0_6  1  0.88974000  0.61026000  0.25000000  1
  Mg  Mg0_7  1  0.88974000  0.61026000  0.75000000  1
loop_
_geom_bond_atom_site_label_1
_geom_bond_atom_site_label_2
_geom_bond_distance
_geom_bond_site_symmetry_2
La0_0 La3_3 3.648722 1_544
La0_0 La3_2 3.648722 1_545
La0_0 La3_4 3.648722 1_555
La0_0 La3_5 3.648722 1_554
La0_0 La1_4 3.674136 1_555
La0_0 La1_2 3.674136 1_545
La0_0 La0_6 3.730284 1_555
La0_0 La0_6 3.730284 1_445
La0_0 La2_4 3.758608 1_555
La0_0 La2_2 3.758608 1_545
La0_0 La4_6 3.826355 1_545
La0_0 La4_7 3.826355 1_544
La0_1 La3_3 3.648722 1_545
La0_1 La3_2 3.648722 1_545
La0_1 La3_5 3.648722 1_555
La0_1 La3_4 3.648722 1_555
La0_1 La1_5 3.674136 1_555
La0_1 La1_3 3.674136 1_545
La0_1 La0_7 3.730284 1_555
La0_1 La0_7 3.730284 1_445
La0_1 La2_5 3.758608 1_555
La0_1 La2_3 3.758608 1_545
La0_1 La4_7 3.826355 1_545
La0_1 La4_6 3.826355 1_545
La0_2 La3_7 3.648722 1_554
La0_2 La3_6 3.648722 1_555
La0_2 La3_1 3.648722 1_554
La0_2 La3_0 3.648722 1_555
La0_2 La1_6 3.674136 1_555
La0_2 La1_0 3.674136 1_555
La0_2 La0_4 3.730284 1_565
La0_2 La0_4 3.730284 1_455
La0_2 La2_6 3.758608 1_555
La0_2 La2_0 3.758608 1_555
La0_2 La4_5 3.826355 1_554
La0_2 La4_4 3.826355 1_555
La0_3 La3_6 3.648722 1_555
La0_3 La3_7 3.648722 1_555
La0_3 La3_1 3.648722 1_555
La0_3 La3_0 3.648722 1_555
La0_3 La1_7 3.674136 1_555
La0_3 La1_1 3.674136 1_555
La0_3 La0_5 3.730284 1_565
La0_3 La0_5 3.730284 1_455
La0_3 La2_7 3.758608 1_555
La0_3 La2_1 3.758608 1_555
La0_3 La4_4 3.826355 1_555
La0_3 La4_5 3.826355 1_555
La0_4 La3_1 3.648722 1_654
La0_4 La3_0 3.648722 1_655
La0_4 La3_7 3.648722 1_544
La0_4 La3_6 3.648722 1_545
La0_4 La1_0 3.674136 1_655
La0_4 La1_6 3.674136 1_545
La0_4 La2_6 3.758608 1_545
La0_4 La2_0 3.758608 1_655
La0_4 La4_2 3.826355 1_645
La0_4 La4_3 3.826355 1_644
La0_5 La3_1 3.648722 1_655
La0_5 La3_0 3.648722 1_655
La0_5 La3_7 3.648722 1_545
La0_5 La3_6 3.648722 1_545
La0_5 La1_1 3.674136 1_655
La0_5 La1_7 3.674136 1_545
La0_5 La2_7 3.758608 1_545
La0_5 La2_1 3.758608 1_655
La0_5 La4_2 3.826355 1_645
La0_5 La4_3 3.826355 1_645
La0_6 La3_4 3.648722 1_555
La0_6 La3_5 3.648722 1_554
La0_6 La3_2 3.648722 1_655
La0_6 La3_3 3.648722 1_654
La0_6 La1_2 3.674136 1_655
La0_6 La1_4 3.674136 1_555
La0_6 La2_4 3.758608 1_555
La0_6 La2_2 3.758608 1_655
La0_6 La4_0 3.826355 1_655
La0_6 La4_1 3.826355 1_654
La0_7 La3_5 3.648722 1_555
La0_7 La3_4 3.648722 1_555
La0_7 La3_2 3.648722 1_655
La0_7 La3_3 3.648722 1_655
La0_7 La1_3 3.674136 1_655
La0_7 La1_5 3.674136 1_555
La0_7 La2_5 3.758608 1_555
La0_7 La2_3 3.758608 1_655
La0_7 La4_0 3.826355 1_655
La0_7 La4_1 3.826355 1_655
La1_0 La2_4 3.528054 1_455
La1_0 La2_2 3.528054 1_555
La1_0 Mg0_4 3.629464 1_455
La1_0 Mg0_5 3.629464 1_454
La1_0 Mg0_2 3.629464 1_555
La1_0 Mg0_3 3.629464 1_554
La1_0 La3_1 3.708747 1_554
La1_0 La3_0 3.708747 1_555
La1_0 La1_6 3.730284 1_445
La1_0 La1_6 3.730284 1_555
La1_1 La2_5 3.528054 1_455
La1_1 La2_3 3.528054 1_555
La1_1 Mg0_4 3.629464 1_455
La1_1 Mg0_5 3.629464 1_455
La1_1 Mg0_2 3.629464 1_555
La1_1 Mg0_3 3.629464 1_555
La1_1 La3_1 3.708747 1_555
La1_1 La3_0 3.708747 1_555
La1_1 La1_7 3.730284 1_555
La1_1 La1_7 3.730284 1_445
La1_2 La2_6 3.528054 1_455
La1_2 La2_0 3.528054 1_565
La1_2 Mg0_6 3.629464 1_455
La1_2 Mg0_7 3.629464 1_454
La1_2 Mg0_1 3.629464 1_564
La1_2 Mg0_0 3.629464 1_565
La1_2 La3_3 3.708747 1_554
La1_2 La3_2 3.708747 1_555
La1_2 La1_4 3.730284 1_565
La1_2 La1_4 3.730284 1_455
La1_3 La2_7 3.528054 1_455
La1_3 La2_1 3.528054 1_565
La1_3 Mg0_6 3.629464 1_455
La1_3 Mg0_7 3.629464 1_455
La1_3 Mg0_0 3.629464 1_565
La1_3 Mg0_1 3.629464 1_565
La1_3 La3_3 3.708747 1_555
La1_3 La3_2 3.708747 1_555
La1_3 La1_5 3.730284 1_565
La1_3 La1_5 3.730284 1_455
La1_4 La2_0 3.528054 1_555
La1_4 La2_6 3.528054 1_555
La1_4 Mg0_1 3.629464 1_554
La1_4 Mg0_0 3.629464 1_555
La1_4 Mg0_7 3.629464 1_554
La1_4 Mg0_6 3.629464 1_555
La1_4 La3_5 3.708747 1_554
La1_4 La3_4 3.708747 1_555
La1_5 La2_1 3.528054 1_555
La1_5 La2_7 3.528054 1_555
La1_5 Mg0_0 3.629464 1_555
La1_5 Mg0_1 3.629464 1_555
La1_5 Mg0_6 3.629464 1_555
La1_5 Mg0_7 3.629464 1_555
La1_5 La3_4 3.708747 1_555
La1_5 La3_5 3.708747 1_555
La1_6 La2_2 3.528054 1_555
La1_6 La2_4 3.528054 1_565
La1_6 Mg0_3 3.629464 1_554
La1_6 Mg0_2 3.629464 1_555
La1_6 Mg0_5 3.629464 1_564
La1_6 Mg0_4 3.629464 1_565
La1_6 La3_7 3.708747 1_554
La1_6 La3_6 3.708747 1_555
La1_7 La2_3 3.528054 1_555
La1_7 La2_5 3.528054 1_565
La1_7 Mg0_2 3.629464 1_555
La1_7 Mg0_3 3.629464 1_555
La1_7 Mg0_4 3.629464 1_565
La1_7 Mg0_5 3.629464 1_565
La1_7 La3_6 3.708747 1_555
La1_7 La3_7 3.708747 1_555
La2_0 La4_2 3.624764 1_545
La2_0 La4_3 3.624764 1_544
La2_0 La4_5 3.624764 1_554
La2_0 La4_4 3.624764 1_555
La2_0 Mg0_1 3.653095 1_554
La2_0 Mg0_0 3.653095 1_555
La2_0 La2_6 3.730284 1_555
La2_0 La2_6 3.730284 1_445
La2_1 La4_2 3.624764 1_545
La2_1 La4_3 3.624764 1_545
La2_1 La4_5 3.624764 1_555
La2_1 La4_4 3.624764 1_555
La2_1 Mg0_1 3.653095 1_555
La2_1 Mg0_0 3.653095 1_555
La2_1 La2_7 3.730284 1_445
La2_1 La2_7 3.730284 1_555
La2_2 La4_0 3.624764 1_555
La2_2 La4_1 3.624764 1_554
La2_2 La4_7 3.624764 1_554
La2_2 La4_6 3.624764 1_555
La2_2 Mg0_2 3.653095 1_555
La2_2 Mg0_3 3.653095 1_554
La2_2 La2_4 3.730284 1_565
La2_2 La2_4 3.730284 1_455
La2_3 La4_0 3.624764 1_555
La2_3 La4_1 3.624764 1_555
La2_3 La4_6 3.624764 1_555
La2_3 La4_7 3.624764 1_555
La2_3 Mg0_2 3.653095 1_555
La2_3 Mg0_3 3.653095 1_555
La2_3 La2_5 3.730284 1_565
La2_3 La2_5 3.730284 1_455
La2_4 La4_7 3.624764 1_544
La2_4 La4_6 3.624764 1_545
La2_4 La4_0 3.624764 1_655
La2_4 La4_1 3.624764 1_654
La2_4 Mg0_4 3.653095 1_555
La2_4 Mg0_5 3.653095 1_554
La2_5 La4_7 3.624764 1_545
La2_5 La4_6 3.624764 1_545
La2_5 La4_0 3.624764 1_655
La2_5 La4_1 3.624764 1_655
La2_5 Mg0_4 3.653095 1_555
La2_5 Mg0_5 3.653095 1_555
La2_6 La4_5 3.624764 1_554
La2_6 La4_4 3.624764 1_555
La2_6 La4_3 3.624764 1_654
La2_6 La4_2 3.624764 1_655
La2_6 Mg0_6 3.653095 1_555
La2_6 Mg0_7 3.653095 1_554
La2_7 La4_4 3.624764 1_555
La2_7 La4_5 3.624764 1_555
La2_7 La4_2 3.624764 1_655
La2_7 La4_3 3.624764 1_655
La2_7 Mg0_7 3.653095 1_555
La2_7 Mg0_6 3.653095 1_555
La3_0 Mg0_2 3.609113 1_555
La3_0 Mg0_4 3.609113 1_455
La3_0 La3_6 3.730284 1_445
La3_0 La3_6 3.730284 1_555
La3_0 La4_2 3.841480 1_545
La3_0 La4_4 3.841480 1_555
La3_1 Mg0_3 3.609113 1_555
La3_1 Mg0_5 3.609113 1_455
La3_1 La3_7 3.730284 1_555
La3_1 La3_7 3.730284 1_445
La3_1 La4_5 3.841480 1_555
La3_1 La4_3 3.841480 1_545
La3_2 Mg0_6 3.609113 1_455
La3_2 Mg0_0 3.609113 1_565
La3_2 La3_4 3.730284 1_455
La3_2 La3_4 3.730284 1_565
La3_2 La4_0 3.841480 1_555
La3_2 La4_6 3.841480 1_555
La3_3 Mg0_7 3.609113 1_455
La3_3 Mg0_1 3.609113 1_565
La3_3 La3_5 3.730284 1_455
La3_3 La3_5 3.730284 1_565
La3_3 La4_1 3.841480 1_555
La3_3 La4_7 3.841480 1_555
La3_4 Mg0_0 3.609113 1_555
La3_4 Mg0_6 3.609113 1_555
La3_4 La4_6 3.841480 1_545
La3_4 La4_0 3.841480 1_655
La3_5 Mg0_1 3.609113 1_555
La3_5 Mg0_7 3.609113 1_555
La3_5 La4_7 3.841480 1_545
La3_5 La4_1 3.841480 1_655
La3_6 Mg0_2 3.609113 1_555
La3_6 Mg0_4 3.609113 1_565
La3_6 La4_4 3.841480 1_555
La3_6 La4_2 3.841480 1_655
La3_7 Mg0_3 3.609113 1_555
La3_7 Mg0_5 3.609113 1_565
La3_7 La4_5 3.841480 1_555
La3_7 La4_3 3.841480 1_655
La4_0 Mg0_4 3.511591 1_455
La4_0 Mg0_2 3.511591 1_555
La4_0 La4_6 3.730284 1_555
La4_0 La4_6 3.730284 1_445
La4_1 Mg0_5 3.511591 1_455
La4_1 Mg0_3 3.511591 1_555
La4_1 La4_7 3.730284 1_555
La4_1 La4_7 3.730284 1_445
La4_2 Mg0_0 3.511591 1_565
La4_2 Mg0_6 3.511591 1_455
La4_2 La4_4 3.730284 1_565
La4_2 La4_4 3.730284 1_455
La4_3 Mg0_1 3.511591 1_565
La4_3 Mg0_7 3.511591 1_455
La4_3 La4_5 3.730284 1_565
La4_3 La4_5 3.730284 1_455
La4_4 Mg0_6 3.511591 1_555
La4_4 Mg0_0 3.511591 1_555
La4_5 Mg0_7 3.511591 1_555
La4_5 Mg0_1 3.511591 1_555
La4_6 Mg0_4 3.511591 1_565
La4_6 Mg0_2 3.511591 1_555
La4_7 Mg0_5 3.511591 1_565
La4_7 Mg0_3 3.511591 1_555
