# generated using pymatgen
data_Sr2B5H3O11
_symmetry_space_group_name_H-M   'P 1'
_cell_length_a   6.57421100
_cell_length_b   6.61995496
_cell_length_c   11.51095148
_cell_angle_alpha   94.48435108
_cell_angle_beta   88.91880755
_cell_angle_gamma   118.73177807
_symmetry_Int_Tables_number   1
_chemical_formula_structural   Sr2B5H3O11
_chemical_formula_sum   'Sr4 B10 H6 O22'
_cell_volume   437.84340848
_cell_formula_units_Z   2
loop_
 _symmetry_equiv_pos_site_id
 _symmetry_equiv_pos_as_xyz
  1  'x, y, z'
loop_
 _atom_site_type_symbol
 _atom_site_label
 _atom_site_symmetry_multiplicity
 _atom_site_fract_x
 _atom_site_fract_y
 _atom_site_fract_z
 _atom_site_occupancy
  Sr  Sr0  1  0.23615800  0.52524600  0.23181200  1
  Sr  Sr1  1  0.43158300  0.52773600  0.74601000  1
  Sr  Sr2  1  0.38686200  0.12651800  0.43744200  1
  Sr  Sr3  1  0.88070700  0.12140200  0.94288500  1
  B  B0  1  0.95588400  0.65726900  0.73821800  1
  B  B1  1  0.34405400  0.99857400  0.76357200  1
  B  B2  1  0.03061600  0.03178300  0.65838100  1
  B  B3  1  0.34089400  0.10252300  0.98936500  1
  B  B4  1  0.75886100  0.62115800  0.22164100  1
  B  B5  1  0.83974400  0.11537000  0.49639000  1
  B  B6  1  0.58680300  0.17153200  0.16606400  1
  B  B7  1  0.77079200  0.21432200  0.70320500  1
  B  B8  1  0.15079100  0.95230100  0.18102500  1
  B  B9  1  0.83698800  0.03153600  0.26985600  1
  H  H0  1  0.34931500  0.61469800  0.48434400  1
  H  H1  1  0.62111000  0.65676700  0.51329600  1
  H  H2  1  0.08935600  0.64661700  0.48650300  1
  H  H3  1  0.43845600  0.61404400  0.98487400  1
  H  H4  1  0.70601100  0.63113000  0.99347200  1
  H  H5  1  0.16976900  0.63109600  0.00219300  1
  O  O0  1  0.37825700  0.97945900  0.21121900  1
  O  O1  1  0.22556800  0.69207300  0.43875900  1
  O  O2  1  0.27565600  0.08974500  0.66732100  1
  O  O3  1  0.57657200  0.02570100  0.75829900  1
  O  O4  1  0.55854500  0.18018700  0.03642600  1
  O  O5  1  0.98847800  0.20644700  0.72622600  1
  O  O6  1  0.14768000  0.01688700  0.05921200  1
  O  O7  1  0.78663100  0.12082000  0.38244200  1
  O  O8  1  0.68060500  0.77531400  0.25630900  1
  O  O9  1  0.78932000  0.43486100  0.75513100  1
  O  O10  1  0.73510500  0.20268000  0.57482100  1
  O  O11  1  0.08349300  0.08598900  0.26646800  1
  O  O12  1  0.45922700  0.53673500  0.51834300  1
  O  O13  1  0.97895200  0.02697700  0.53066000  1
  O  O14  1  0.87466700  0.79694900  0.69769500  1
  O  O15  1  0.59988000  0.39078400  0.22708600  1
  O  O16  1  0.30189300  0.11490900  0.87379100  1
  O  O17  1  0.18611200  0.74106400  0.76516300  1
  O  O18  1  0.79651800  0.15282900  0.17833900  1
  O  O19  1  0.62411500  0.69465600  0.95281000  1
  O  O20  1  0.98065000  0.69745100  0.18191100  1
  O  O21  1  0.21844200  0.51434800  0.00774300  1
loop_
_geom_bond_atom_site_label_1
_geom_bond_atom_site_label_2
_geom_bond_distance
_geom_bond_site_symmetry_2
B0 O17 1.370547 1_655
B0 O9 1.375311 1_555
B0 O14 1.381743 1_555
B1 O3 1.451518 1_565
B1 O2 1.475903 1_565
B1 O17 1.512249 1_555
B1 O16 1.522747 1_565
B2 O2 1.469273 1_555
B2 O5 1.477222 1_455
B2 O14 1.494265 1_445
B2 O13 1.509627 1_455
B3 O4 1.372456 1_556
B3 O16 1.375676 1_555
B3 O6 1.386256 1_556
B4 O20 1.375936 1_555
B4 O8 1.377933 1_555
B4 O15 1.379186 1_555
B5 O7 1.371294 1_555
B5 O10 1.378264 1_555
B5 O13 1.378466 1_555
B6 O18 1.452701 1_555
B6 O0 1.472094 1_545
B6 O4 1.516143 1_555
B6 O15 1.526547 1_555
B7 O3 1.467008 1_555
B7 O9 1.482868 1_555
B7 O5 1.486347 1_555
B7 O10 1.490916 1_555
B8 O0 1.463125 1_555
B8 O11 1.473171 1_565
B8 O6 1.500859 1_565
B8 O20 1.511790 1_455
B9 O18 1.474284 1_555
B9 O7 1.480082 1_555
B9 O11 1.481858 1_655
B9 O8 1.498816 1_545
H0 O12 1.158649 1_555
H0 O1 1.287760 1_555
H1 O12 0.979417 1_555
H2 O1 0.970928 1_555
H3 O19 1.139453 1_555
H3 O21 1.300776 1_556
H3 Sr1 2.760930 1_555
H4 O19 0.971485 1_555
H5 O21 0.974707 1_555
O0 Sr2 2.699662 1_565
O0 Sr0 2.715263 1_555
O1 Sr2 2.543670 1_565
O1 Sr0 2.560364 1_555
O2 Sr1 2.654249 1_555
O2 Sr2 2.729900 1_555
O3 Sr3 2.765094 1_555
O3 Sr1 2.950717 1_545
O4 Sr3 2.537205 1_554
O5 Sr3 2.609238 1_555
O5 Sr1 2.655951 1_655
O6 Sr3 2.598710 1_454
O7 Sr2 2.708926 1_555
O8 Sr0 2.581691 1_555
O9 Sr1 2.707358 1_555
O10 Sr2 2.626510 1_555
O11 Sr0 2.642445 1_555
O11 Sr2 2.733876 1_555
O12 Sr2 2.616736 1_555
O12 Sr1 2.626878 1_555
O13 Sr2 2.660844 1_655
O14 Sr1 2.659585 1_555
O15 Sr0 2.923514 1_555
O15 Sr2 3.010627 1_555
O16 Sr3 2.885750 1_455
O16 Sr1 2.949613 1_555
O17 Sr1 2.603119 1_555
O18 Sr3 2.767899 1_554
O18 Sr0 2.791026 1_655
O19 Sr3 2.510183 1_565
O19 Sr1 2.616762 1_555
O20 Sr0 2.535936 1_655
O21 Sr3 2.541640 1_454
O21 Sr0 2.577877 1_555
