# generated using pymatgen
data_MgFe10O9F11
_symmetry_space_group_name_H-M   'P 1'
_cell_length_a   4.88036582
_cell_length_b   4.90373289
_cell_length_c   15.34344921
_cell_angle_alpha   89.83760205
_cell_angle_beta   89.92604353
_cell_angle_gamma   95.39063108
_symmetry_Int_Tables_number   1
_chemical_formula_structural   MgFe10O9F11
_chemical_formula_sum   'Mg1 Fe10 O9 F11'
_cell_volume   365.57367115
_cell_formula_units_Z   1
loop_
 _symmetry_equiv_pos_site_id
 _symmetry_equiv_pos_as_xyz
  1  'x, y, z'
loop_
 _atom_site_type_symbol
 _atom_site_label
 _atom_site_symmetry_multiplicity
 _atom_site_fract_x
 _atom_site_fract_y
 _atom_site_fract_z
 _atom_site_occupancy
  Mg  Mg0  1  0.99564400  0.49330800  0.30801800  1
  Fe  Fe0  1  0.99388300  0.99139400  0.99378300  1
  Fe  Fe1  1  0.99647600  0.99536100  0.19199900  1
  Fe  Fe2  1  0.99240600  0.99203000  0.41541900  1
  Fe  Fe3  1  0.03864400  0.01284600  0.61090600  1
  Fe  Fe4  1  0.02903300  0.01794900  0.79694200  1
  Fe  Fe5  1  0.49621900  0.49554700  0.10070700  1
  Fe  Fe6  1  0.49330600  0.48117000  0.49411600  1
  Fe  Fe7  1  0.49633700  0.49677400  0.29832600  1
  Fe  Fe8  1  0.44660800  0.52759300  0.70118100  1
  Fe  Fe9  1  0.49132500  0.48580400  0.90746400  1
  O  O0  1  0.20829800  0.81455000  0.69841100  1
  O  O1  1  0.28835000  0.29713700  0.00474900  1
  O  O2  1  0.24561100  0.32947900  0.19994400  1
  O  O3  1  0.25136500  0.33651100  0.39850000  1
  O  O4  1  0.30561900  0.32740700  0.59781900  1
  O  O5  1  0.31861300  0.33022200  0.80509200  1
  O  O6  1  0.70271400  0.68779300  0.00243300  1
  O  O7  1  0.74583700  0.66061000  0.19951400  1
  O  O8  1  0.74076200  0.64600000  0.40014400  1
  F  F0  1  0.20959600  0.82266500  0.09786900  1
  F  F1  1  0.21716200  0.84278400  0.29346300  1
  F  F2  1  0.23477600  0.81944800  0.50960600  1
  F  F3  1  0.20736500  0.80013900  0.90640100  1
  F  F4  1  0.71594200  0.70018100  0.60015400  1
  F  F5  1  0.70483700  0.70962700  0.80393400  1
  F  F6  1  0.78111500  0.16395900  0.09786800  1
  F  F7  1  0.77807700  0.18105900  0.51216900  1
  F  F8  1  0.77212900  0.14511700  0.29357700  1
  F  F9  1  0.79604000  0.19511700  0.90485400  1
  F  F10  1  0.80591200  0.20041600  0.69630600  1
loop_
_geom_bond_atom_site_label_1
_geom_bond_atom_site_label_2
_geom_bond_distance
_geom_bond_site_symmetry_2
Mg0 O3 2.062726 1_655
Mg0 O8 2.069421 1_555
Mg0 O2 2.251629 1_655
Mg0 O7 2.261959 1_555
Fe0 O6 1.963223 1_556
Fe0 O1 1.984604 1_666
Fe1 O2 1.950603 1_665
Fe1 O7 1.955875 1_555
Fe2 O8 2.013431 1_555
Fe2 O3 2.028226 1_665
Fe3 O0 1.892215 1_545
Fe3 O4 1.933205 1_555
Fe4 O5 1.988151 1_555
Fe4 O0 2.053021 1_545
Fe5 O1 1.992501 1_555
Fe5 O6 1.996870 1_555
Fe5 O7 2.064964 1_555
Fe5 O2 2.068452 1_555
Fe6 O4 1.949107 1_555
Fe6 O3 1.975529 1_555
Fe6 O8 1.999059 1_555
Fe7 O3 2.054568 1_555
Fe7 O7 2.057005 1_555
Fe7 O8 2.060660 1_555
Fe7 O2 2.066909 1_555
Fe8 O0 1.908365 1_555
Fe8 O5 1.934940 1_555
Fe8 O4 1.958828 1_555
Fe9 O5 1.910275 1_555
Fe9 O1 1.970150 1_556
Fe9 O6 1.997188 1_556
F0 Fe1 2.013324 1_455
F0 Fe0 2.122248 1_454
F0 Fe5 2.225557 1_555
F1 Mg0 1.950544 1_455
F1 Fe1 2.071852 1_455
F1 Fe7 2.274806 1_555
F1 Fe2 2.322408 1_455
F2 Fe2 2.095089 1_455
F2 Fe3 2.099175 1_565
F2 Fe6 2.189712 1_555
F3 Fe0 1.987407 1_455
F3 Fe9 2.167493 1_555
F3 Fe4 2.210696 1_565
F4 Fe3 2.099220 1_665
F4 Fe8 2.150615 1_555
F4 Fe6 2.185475 1_555
F5 Fe4 2.085655 1_665
F5 Fe9 2.141207 1_555
F5 Fe8 2.161576 1_555
F6 Fe1 2.008637 1_545
F6 Fe0 2.124449 1_544
F6 Fe5 2.236978 1_555
F7 Fe2 2.083987 1_545
F7 Fe6 2.134714 1_555
F7 Fe3 2.188068 1_655
F8 Mg0 1.951197 1_555
F8 Fe1 2.078543 1_545
F8 Fe7 2.286298 1_555
F8 Fe2 2.315826 1_545
F9 Fe0 1.992234 1_545
F9 Fe9 2.154880 1_555
F9 Fe4 2.231178 1_655
F10 Fe3 2.013045 1_655
F10 Fe4 2.133113 1_655
F10 Fe8 2.486662 1_555
