# generated using pymatgen
data_Fe3O4
_symmetry_space_group_name_H-M   'P 1'
_cell_length_a   5.97179853
_cell_length_b   5.97028597
_cell_length_c   5.97006760
_cell_angle_alpha   60.01949761
_cell_angle_beta   59.99471754
_cell_angle_gamma   59.99050118
_symmetry_Int_Tables_number   1
_chemical_formula_structural   Fe3O4
_chemical_formula_sum   'Fe6 O8'
_cell_volume   150.51505689
_cell_formula_units_Z   2
loop_
 _symmetry_equiv_pos_site_id
 _symmetry_equiv_pos_as_xyz
  1  'x, y, z'
loop_
 _atom_site_type_symbol
 _atom_site_label
 _atom_site_symmetry_multiplicity
 _atom_site_fract_x
 _atom_site_fract_y
 _atom_site_fract_z
 _atom_site_occupancy
  Fe  Fe0  1  0.87486095  0.87520887  0.87514198  1
  Fe  Fe1  1  0.00003858  0.50002372  0.49986910  1
  Fe  Fe2  1  0.49975642  0.50027536  0.50007724  1
  Fe  Fe3  1  0.12485791  0.12520719  0.12513777  1
  Fe  Fe4  1  0.49994434  0.00008791  0.50023870  1
  Fe  Fe5  1  0.50012994  0.49994507  0.99995687  1
  O  O0  1  0.74366390  0.74325511  0.26918542  1
  O  O1  1  0.73084474  0.25610164  0.25633043  1
  O  O2  1  0.25678137  0.25611405  0.25624534  1
  O  O3  1  0.26904047  0.74363617  0.74363374  1
  O  O4  1  0.25623964  0.73108131  0.25626586  1
  O  O5  1  0.74374174  0.74358169  0.74374672  1
  O  O6  1  0.25635678  0.25630637  0.73097179  1
  O  O7  1  0.74374521  0.26917553  0.74319803  1
loop_
_geom_bond_atom_site_label_1
_geom_bond_atom_site_label_2
_geom_bond_distance
_geom_bond_site_symmetry_2
Fe0 O7 1.920652 1_565
Fe0 O0 1.921037 1_556
Fe0 O5 1.921445 1_555
Fe0 O3 1.921692 1_655
Fe1 O0 2.058070 1_455
Fe1 O7 2.058563 1_455
Fe1 O5 2.058576 1_455
Fe1 O4 2.059024 1_555
Fe1 O2 2.059076 1_555
Fe1 O6 2.059547 1_555
Fe2 O3 2.056420 1_555
Fe2 O0 2.057451 1_555
Fe2 O7 2.058200 1_555
Fe2 O4 2.059209 1_555
Fe2 O6 2.059533 1_555
Fe2 O1 2.060680 1_555
Fe3 O2 1.920456 1_555
Fe3 O1 1.920885 1_455
Fe3 O4 1.921423 1_545
Fe3 O6 1.921630 1_554
Fe4 O6 2.056567 1_555
Fe4 O1 2.057568 1_555
Fe4 O2 2.058400 1_555
Fe4 O5 2.059117 1_545
Fe4 O3 2.059477 1_545
Fe4 O0 2.060541 1_545
Fe5 O1 2.058194 1_556
Fe5 O4 2.058616 1_556
Fe5 O2 2.058721 1_556
Fe5 O5 2.058986 1_555
Fe5 O7 2.059057 1_555
Fe5 O3 2.059514 1_555
