# generated using pymatgen
data_Sr6Ca2Fe3Co5O24
_symmetry_space_group_name_H-M   'P 1'
_cell_length_a   7.74635700
_cell_length_b   7.69044200
_cell_length_c   7.75600872
_cell_angle_alpha   89.97526001
_cell_angle_beta   90.00000000
_cell_angle_gamma   90.00000000
_symmetry_Int_Tables_number   1
_chemical_formula_structural   Sr6Ca2Fe3Co5O24
_chemical_formula_sum   'Sr6 Ca2 Fe3 Co5 O24'
_cell_volume   462.04796049
_cell_formula_units_Z   1
loop_
 _symmetry_equiv_pos_site_id
 _symmetry_equiv_pos_as_xyz
  1  'x, y, z'
loop_
 _atom_site_type_symbol
 _atom_site_label
 _atom_site_symmetry_multiplicity
 _atom_site_fract_x
 _atom_site_fract_y
 _atom_site_fract_z
 _atom_site_occupancy
  Sr  Sr0  1  0.24978200  0.74728000  0.75044000  1
  Sr  Sr1  1  0.24978700  0.74704800  0.24949600  1
  Sr  Sr2  1  0.75021600  0.74697500  0.24942900  1
  Sr  Sr3  1  0.24978700  0.25295200  0.75050400  1
  Sr  Sr4  1  0.24978200  0.25272000  0.24956000  1
  Sr  Sr5  1  0.75021600  0.25302500  0.75057100  1
  Ca  Ca0  1  0.75063400  0.74712300  0.75091800  1
  Ca  Ca1  1  0.75063400  0.25287700  0.24908200  1
  Fe  Fe0  1  0.99877900  0.00000000  0.00000000  1
  Fe  Fe1  1  0.99842900  0.00000000  0.50000000  1
  Fe  Fe2  1  0.50113500  0.00000000  0.00000000  1
  Co  Co0  1  0.50108100  0.00000000  0.50000000  1
  Co  Co1  1  0.99880900  0.50000000  0.00000000  1
  Co  Co2  1  0.99859300  0.50000000  0.50000000  1
  Co  Co3  1  0.50158600  0.50000000  0.00000000  1
  Co  Co4  1  0.50169000  0.50000000  0.50000000  1
  O  O0  1  0.99722300  0.73901900  0.99829900  1
  O  O1  1  0.99681900  0.74831000  0.50222500  1
  O  O2  1  0.50335700  0.74815600  0.99828400  1
  O  O3  1  0.50309700  0.73879000  0.50218800  1
  O  O4  1  0.99722300  0.26098100  0.00170100  1
  O  O5  1  0.99681900  0.25169000  0.49777500  1
  O  O6  1  0.50335700  0.25184400  0.00171600  1
  O  O7  1  0.50309700  0.26121000  0.49781200  1
  O  O8  1  0.24764600  0.00000000  0.00000000  1
  O  O9  1  0.25720600  0.00000000  0.50000000  1
  O  O10  1  0.75230000  0.00000000  0.00000000  1
  O  O11  1  0.74257900  0.00000000  0.50000000  1
  O  O12  1  0.25087500  0.50000000  0.00000000  1
  O  O13  1  0.23791000  0.50000000  0.50000000  1
  O  O14  1  0.74928600  0.50000000  0.00000000  1
  O  O15  1  0.76119300  0.50000000  0.50000000  1
  O  O16  1  0.99686100  0.99810000  0.75232500  1
  O  O17  1  0.99686100  0.00190000  0.24767500  1
  O  O18  1  0.50317500  0.99748200  0.74299200  1
  O  O19  1  0.50317500  0.00251800  0.25700800  1
  O  O20  1  0.99622900  0.50264400  0.74934700  1
  O  O21  1  0.99622900  0.49735600  0.25065300  1
  O  O22  1  0.50327100  0.50166400  0.76142100  1
  O  O23  1  0.50327100  0.49833600  0.23857900  1
loop_
_geom_bond_atom_site_label_1
_geom_bond_atom_site_label_2
_geom_bond_distance
_geom_bond_site_symmetry_2
Ca0 O20 2.674793 1_555
Ca0 O22 2.691012 1_555
Ca0 O0 2.708115 1_555
Ca0 O14 2.709419 1_556
Ca0 O2 2.711111 1_555
Ca0 O1 2.712449 1_555
Ca0 O16 2.713586 1_555
Ca0 O18 2.717583 1_555
Ca0 O3 2.720788 1_555
Ca0 O15 2.721970 1_555
Ca0 O10 2.741820 1_566
Ca0 O11 2.751366 1_565
Ca1 O21 2.674793 1_555
Ca1 O23 2.691012 1_555
Ca1 O4 2.708115 1_555
Ca1 O14 2.709419 1_555
Ca1 O6 2.711111 1_555
Ca1 O5 2.712449 1_555
Ca1 O17 2.713586 1_555
Ca1 O19 2.717583 1_555
Ca1 O7 2.720788 1_555
Ca1 O15 2.721970 1_555
Ca1 O10 2.741820 1_555
Ca1 O11 2.751366 1_555
Fe0 O10 1.909314 1_555
Fe0 O17 1.921089 1_555
Fe0 O16 1.921089 1_544
Fe0 O8 1.927813 1_655
Fe0 O4 2.007144 1_555
Fe0 O0 2.007144 1_544
Fe1 O1 1.935717 1_545
Fe1 O5 1.935717 1_555
Fe1 O16 1.957121 1_545
Fe1 O17 1.957121 1_555
Fe1 O11 1.981905 1_555
Fe1 O9 2.004579 1_655
Fe2 O6 1.936920 1_555
Fe2 O2 1.936920 1_544
Fe2 O10 1.945614 1_555
Fe2 O8 1.963616 1_555
Fe2 O18 1.993521 1_544
Fe2 O19 1.993521 1_555
Co0 O11 1.870730 1_555
Co0 O19 1.884809 1_555
Co0 O18 1.884809 1_545
Co0 O9 1.889143 1_555
Co0 O3 2.008945 1_545
Co0 O7 2.008945 1_555
Co1 O0 1.838244 1_554
Co1 O4 1.838244 1_555
Co1 O14 1.932894 1_555
Co1 O20 1.944267 1_554
Co1 O21 1.944267 1_555
Co1 O12 1.952593 1_655
Co2 O15 1.838985 1_555
Co2 O13 1.853835 1_655
Co2 O5 1.909749 1_555
Co2 O1 1.909749 1_555
Co2 O20 1.934140 1_555
Co2 O21 1.934140 1_555
Co3 O23 1.850506 1_555
Co3 O22 1.850506 1_554
Co3 O2 1.908519 1_554
Co3 O6 1.908519 1_555
Co3 O14 1.918773 1_555
Co3 O12 1.942097 1_555
Co4 O7 1.836519 1_555
Co4 O3 1.836519 1_555
Co4 O15 2.010203 1_555
Co4 O22 2.027666 1_555
Co4 O23 2.027666 1_555
Co4 O13 2.043334 1_555
O0 Sr2 2.731073 1_556
O0 Sr0 2.743554 1_655
O0 Sr1 2.761781 1_656
O1 Sr2 2.737439 1_555
O1 Sr0 2.747014 1_655
O1 Sr1 2.771701 1_655
O2 Sr2 2.729660 1_556
O2 Sr0 2.748386 1_555
O2 Sr1 2.766692 1_556
O3 Sr2 2.740705 1_555
O3 Sr0 2.749947 1_555
O3 Sr1 2.774059 1_555
O4 Sr5 2.731073 1_554
O4 Sr4 2.743554 1_655
O4 Sr3 2.761781 1_654
O5 Sr5 2.737439 1_555
O5 Sr4 2.747014 1_655
O5 Sr3 2.771701 1_655
O6 Sr5 2.729660 1_554
O6 Sr4 2.748386 1_555
O6 Sr3 2.766692 1_554
O7 Sr5 2.740705 1_555
O7 Sr4 2.749947 1_555
O7 Sr3 2.774059 1_555
O8 Sr3 2.743328 1_554
O8 Sr1 2.743328 1_545
O8 Sr0 2.743598 1_544
O8 Sr4 2.743598 1_555
O9 Sr4 2.747786 1_555
O9 Sr0 2.747786 1_545
O9 Sr3 2.750584 1_555
O9 Sr1 2.750584 1_545
O10 Sr2 2.743357 1_545
O10 Sr5 2.743357 1_554
O11 Sr5 2.751384 1_555
O11 Sr2 2.751384 1_545
O12 Sr1 2.712468 1_555
O12 Sr3 2.712468 1_554
O12 Sr0 2.712901 1_554
O12 Sr4 2.712901 1_555
O13 Sr1 2.718425 1_555
O13 Sr3 2.718425 1_555
O13 Sr4 2.720488 1_555
O13 Sr0 2.720488 1_555
O14 Sr2 2.711700 1_555
O14 Sr5 2.711700 1_554
O15 Sr5 2.718177 1_555
O15 Sr2 2.718177 1_555
O16 Sr5 2.737528 1_565
O16 Sr0 2.749452 1_655
O16 Sr3 2.771310 1_665
O17 Sr2 2.737528 1_545
O17 Sr4 2.749452 1_655
O17 Sr1 2.771310 1_645
O18 Sr5 2.743691 1_565
O18 Sr0 2.749276 1_555
O18 Sr3 2.777799 1_565
O19 Sr2 2.743691 1_545
O19 Sr4 2.749276 1_555
O19 Sr1 2.777799 1_545
O20 Sr5 2.704987 1_555
O20 Sr0 2.719804 1_655
O20 Sr3 2.746868 1_655
O21 Sr2 2.704987 1_555
O21 Sr4 2.719804 1_655
O21 Sr1 2.746868 1_655
O22 Sr5 2.706066 1_555
O22 Sr0 2.725955 1_555
O22 Sr3 2.742515 1_555
O23 Sr2 2.706066 1_555
O23 Sr4 2.725955 1_555
O23 Sr1 2.742515 1_555
