# generated using pymatgen
data_Tl2Co3NiSe4
_symmetry_space_group_name_H-M   'P 1'
_cell_length_a   3.84612500
_cell_length_b   3.84612500
_cell_length_c   13.81387100
_cell_angle_alpha   90.00000000
_cell_angle_beta   90.00000000
_cell_angle_gamma   90.00000000
_symmetry_Int_Tables_number   1
_chemical_formula_structural   Tl2Co3NiSe4
_chemical_formula_sum   'Tl2 Co3 Ni1 Se4'
_cell_volume   204.34413895
_cell_formula_units_Z   1
loop_
 _symmetry_equiv_pos_site_id
 _symmetry_equiv_pos_as_xyz
  1  'x, y, z'
loop_
 _atom_site_type_symbol
 _atom_site_label
 _atom_site_symmetry_multiplicity
 _atom_site_fract_x
 _atom_site_fract_y
 _atom_site_fract_z
 _atom_site_occupancy
  Tl  Tl0  1  0.50000000  0.00000000  0.75022800  1
  Tl  Tl1  1  0.00000000  0.50000000  0.24977200  1
  Co  Co0  1  0.00000000  0.00000000  0.50000000  1
  Co  Co1  1  0.00000000  0.00000000  0.00000000  1
  Co  Co2  1  0.50000000  0.50000000  0.50000000  1
  Ni  Ni0  1  0.50000000  0.50000000  0.00000000  1
  Se  Se0  1  0.00000000  0.50000000  0.89816000  1
  Se  Se1  1  0.50000000  0.00000000  0.40490700  1
  Se  Se2  1  0.50000000  0.00000000  0.10184000  1
  Se  Se3  1  0.00000000  0.50000000  0.59509300  1
loop_
_geom_bond_atom_site_label_1
_geom_bond_atom_site_label_2
_geom_bond_distance
_geom_bond_site_symmetry_2
Co0 Se1 2.328888 1_555
Co0 Se3 2.328888 1_555
Co0 Se1 2.328888 1_455
Co0 Se3 2.328888 1_545
Co1 Se0 2.382702 1_554
Co1 Se2 2.382702 1_455
Co1 Se2 2.382702 1_555
Co1 Se0 2.382702 1_544
Co2 Se1 2.328888 1_555
Co2 Se3 2.328888 1_555
Co2 Se1 2.328888 1_565
Co2 Se3 2.328888 1_655
Ni0 Se2 2.382702 1_565
Ni0 Se2 2.382702 1_555
Ni0 Se0 2.382702 1_654
Ni0 Se0 2.382702 1_554
