# generated using pymatgen
data_K4LiH3(SO4)4
_symmetry_space_group_name_H-M   'P 1'
_cell_length_a   7.45828140
_cell_length_b   7.45828140
_cell_length_c   31.29488868
_cell_angle_alpha   90.00000000
_cell_angle_beta   90.00000000
_cell_angle_gamma   90.00000000
_symmetry_Int_Tables_number   1
_chemical_formula_structural   K4LiH3(SO4)4
_chemical_formula_sum   'K16 Li4 H12 S16 O64'
_cell_volume   1740.80827103
_cell_formula_units_Z   4
loop_
 _symmetry_equiv_pos_site_id
 _symmetry_equiv_pos_as_xyz
  1  'x, y, z'
loop_
 _atom_site_type_symbol
 _atom_site_label
 _atom_site_symmetry_multiplicity
 _atom_site_fract_x
 _atom_site_fract_y
 _atom_site_fract_z
 _atom_site_occupancy
  K  K0  1  0.40253841  0.61097346  0.00134463  1
  K  K1  1  0.59746159  0.38902654  0.50134463  1
  K  K2  1  0.61097346  0.59746159  0.75134463  1
  K  K3  1  0.38902654  0.40253841  0.25134463  1
  K  K4  1  0.80219683  0.49937065  0.89556819  1
  K  K5  1  0.19780317  0.50062935  0.39556819  1
  K  K6  1  0.49937065  0.19780317  0.64556819  1
  K  K7  1  0.50062935  0.80219683  0.14556819  1
  K  K8  1  0.89046610  0.92515004  0.99154739  1
  K  K9  1  0.10953390  0.07484996  0.49154739  1
  K  K10  1  0.92515004  0.10953390  0.74154739  1
  K  K11  1  0.07484996  0.89046610  0.24154739  1
  K  K12  1  0.49348021  0.01423630  0.88128718  1
  K  K13  1  0.50651979  0.98576370  0.38128718  1
  K  K14  1  0.01423630  0.50651979  0.63128718  1
  K  K15  1  0.98576370  0.49348021  0.13128718  1
  Li  Li0  1  0.15171658  0.26693229  0.94093412  1
  Li  Li1  1  0.84828342  0.73306771  0.44093412  1
  Li  Li2  1  0.26693229  0.84828342  0.69093412  1
  Li  Li3  1  0.73306771  0.15171658  0.19093412  1
  H  H0  1  0.72287812  0.29811179  0.04533787  1
  H  H1  1  0.27712188  0.70188821  0.54533787  1
  H  H2  1  0.29811179  0.27712188  0.79533787  1
  H  H3  1  0.70188821  0.72287812  0.29533787  1
  H  H4  1  0.21383291  0.75862376  0.85046208  1
  H  H5  1  0.78616709  0.24137624  0.35046208  1
  H  H6  1  0.75862376  0.78616709  0.60046208  1
  H  H7  1  0.24137624  0.21383291  0.10046208  1
  H  H8  1  0.22402037  0.02857350  0.05115143  1
  H  H9  1  0.77597963  0.97142650  0.55115143  1
  H  H10  1  0.02857350  0.77597963  0.80115143  1
  H  H11  1  0.97142650  0.22402037  0.30115143  1
  S  S0  1  0.90035487  0.45986275  0.00622180  1
  S  S1  1  0.09964513  0.54013725  0.50622180  1
  S  S2  1  0.45986275  0.09964513  0.75622180  1
  S  S3  1  0.54013725  0.90035487  0.25622180  1
  S  S4  1  0.44334266  0.09001477  0.00215215  1
  S  S5  1  0.55665734  0.90998523  0.50215215  1
  S  S6  1  0.09001477  0.55665734  0.75215215  1
  S  S7  1  0.90998523  0.44334266  0.25215215  1
  S  S8  1  0.97349278  0.99487275  0.87664061  1
  S  S9  1  0.02650722  0.00512725  0.37664061  1
  S  S10  1  0.99487275  0.02650722  0.62664061  1
  S  S11  1  0.00512725  0.97349278  0.12664061  1
  S  S12  1  0.34793381  0.54271736  0.88792531  1
  S  S13  1  0.65206619  0.45728264  0.38792531  1
  S  S14  1  0.54271736  0.65206619  0.63792531  1
  S  S15  1  0.45728264  0.34793381  0.13792531  1
  O  O0  1  0.94296294  0.30391110  0.97876177  1
  O  O1  1  0.05703706  0.69608890  0.47876177  1
  O  O2  1  0.30391110  0.05703706  0.72876177  1
  O  O3  1  0.69608890  0.94296294  0.22876177  1
  O  O4  1  0.82674489  0.38297012  0.04991830  1
  O  O5  1  0.17325511  0.61702988  0.54991830  1
  O  O6  1  0.38297012  0.17325511  0.79991830  1
  O  O7  1  0.61702988  0.82674489  0.29991830  1
  O  O8  1  0.75823338  0.56970761  0.98681866  1
  O  O9  1  0.24176662  0.43029239  0.48681866  1
  O  O10  1  0.56970761  0.24176662  0.73681866  1
  O  O11  1  0.43029239  0.75823338  0.23681866  1
  O  O12  1  0.05553198  0.56564833  0.01930782  1
  O  O13  1  0.94446802  0.43435167  0.51930782  1
  O  O14  1  0.56564833  0.94446802  0.76930782  1
  O  O15  1  0.43435167  0.05553198  0.26930782  1
  O  O16  1  0.35753412  0.24561112  0.98160355  1
  O  O17  1  0.64246588  0.75438888  0.48160355  1
  O  O18  1  0.24561112  0.64246588  0.73160355  1
  O  O19  1  0.75438888  0.35753412  0.23160355  1
  O  O20  1  0.57500578  0.14025434  0.03465033  1
  O  O21  1  0.42499422  0.85974566  0.53465033  1
  O  O22  1  0.14025434  0.42499422  0.78465033  1
  O  O23  1  0.85974566  0.57500578  0.28465033  1
  O  O24  1  0.28760070  0.97529401  0.02506987  1
  O  O25  1  0.71239930  0.02470599  0.52506987  1
  O  O26  1  0.97529401  0.71239930  0.77506987  1
  O  O27  1  0.02470599  0.28760070  0.27506987  1
  O  O28  1  0.51387723  0.95959172  0.97161870  1
  O  O29  1  0.48612277  0.04040828  0.47161870  1
  O  O30  1  0.95959172  0.48612277  0.72161870  1
  O  O31  1  0.04040828  0.51387723  0.22161870  1
  O  O32  1  0.10665301  0.04924881  0.90992753  1
  O  O33  1  0.89334699  0.95075119  0.40992753  1
  O  O34  1  0.04924881  0.89334699  0.65992753  1
  O  O35  1  0.95075119  0.10665301  0.15992753  1
  O  O36  1  0.87803416  0.15075261  0.85864593  1
  O  O37  1  0.12196584  0.84924739  0.35864593  1
  O  O38  1  0.15075261  0.12196584  0.60864593  1
  O  O39  1  0.84924739  0.87803416  0.10864593  1
  O  O40  1  0.08078409  0.90241883  0.84095650  1
  O  O41  1  0.91921591  0.09758117  0.34095650  1
  O  O42  1  0.90241883  0.91921591  0.59095650  1
  O  O43  1  0.09758117  0.08078409  0.09095650  1
  O  O44  1  0.84508042  0.86356467  0.89509388  1
  O  O45  1  0.15491958  0.13643533  0.39509388  1
  O  O46  1  0.86356467  0.15491958  0.64509388  1
  O  O47  1  0.13643533  0.84508042  0.14509388  1
  O  O48  1  0.17236350  0.49055164  0.90608140  1
  O  O49  1  0.82763650  0.50944836  0.40608140  1
  O  O50  1  0.49055164  0.82763650  0.65608140  1
  O  O51  1  0.50944836  0.17236350  0.15608140  1
  O  O52  1  0.31291344  0.66054701  0.84687287  1
  O  O53  1  0.68708656  0.33945299  0.34687287  1
  O  O54  1  0.66054701  0.68708656  0.59687287  1
  O  O55  1  0.33945299  0.31291344  0.09687287  1
  O  O56  1  0.45067678  0.65666914  0.91739871  1
  O  O57  1  0.54932322  0.34333086  0.41739871  1
  O  O58  1  0.65666914  0.54932322  0.66739871  1
  O  O59  1  0.34333086  0.45067678  0.16739871  1
  O  O60  1  0.45248063  0.39004196  0.87240142  1
  O  O61  1  0.54751937  0.60995804  0.37240142  1
  O  O62  1  0.39004196  0.54751937  0.62240142  1
  O  O63  1  0.60995804  0.45248063  0.12240142  1
loop_
_geom_bond_atom_site_label_1
_geom_bond_atom_site_label_2
_geom_bond_distance
_geom_bond_site_symmetry_2
K0 O12 2.669908 1_555
K0 O56 2.673312 1_554
K0 O8 2.709079 1_554
K0 O16 2.814218 1_554
K0 O28 2.883651 1_554
K0 O24 2.944373 1_555
K1 O13 2.669908 1_555
K1 O57 2.673312 1_555
K1 O9 2.709079 1_555
K1 O17 2.814218 1_555
K1 O29 2.883651 1_555
K1 O25 2.944373 1_555
K2 O14 2.669908 1_555
K2 O58 2.673312 1_555
K2 O10 2.709079 1_555
K2 O18 2.814218 1_555
K2 O30 2.883651 1_555
K2 O26 2.944373 1_555
K3 O15 2.669908 1_555
K3 O59 2.673312 1_555
K3 O11 2.709079 1_555
K3 O19 2.814218 1_555
K3 O31 2.883651 1_555
K3 O27 2.944373 1_555
K4 O44 2.735067 1_555
K4 O48 2.781120 1_655
K4 O60 2.827304 1_555
K4 O36 2.900953 1_555
K4 O8 2.921914 1_555
K4 O56 2.952385 1_555
K4 O0 3.163192 1_555
K5 O45 2.735067 1_555
K5 O49 2.781120 1_455
K5 O61 2.827304 1_555
K5 O37 2.900953 1_555
K5 O9 2.921914 1_555
K5 O57 2.952385 1_555
K5 O1 3.163192 1_555
K6 O46 2.735067 1_555
K6 O50 2.781120 1_545
K6 O62 2.827304 1_555
K6 O38 2.900953 1_555
K6 O10 2.921914 1_555
K6 O58 2.952385 1_555
K6 O2 3.163192 1_555
K7 O47 2.735067 1_555
K7 O51 2.781120 1_565
K7 O63 2.827304 1_555
K7 O39 2.900953 1_555
K7 O11 2.921914 1_555
K7 O59 2.952385 1_555
K7 O3 3.163192 1_555
K8 O8 2.832365 1_555
K8 O0 2.879843 1_565
K8 O28 2.888559 1_555
K8 O44 3.071956 1_555
K8 O12 3.075638 1_656
K8 O20 3.151027 1_566
K8 O32 3.159243 1_665
K8 O24 3.164418 1_656
K9 O9 2.832365 1_555
K9 O1 2.879843 1_545
K9 O29 2.888559 1_555
K9 O45 3.071956 1_555
K9 O13 3.075638 1_455
K9 O21 3.151027 1_545
K9 O33 3.159243 1_445
K9 O25 3.164418 1_455
K10 O10 2.832365 1_555
K10 O2 2.879843 1_655
K10 O30 2.888559 1_555
K10 O46 3.071956 1_555
K10 O14 3.075638 1_545
K10 O22 3.151027 1_655
K10 O34 3.159243 1_645
K10 O26 3.164418 1_545
K11 O11 2.832365 1_555
K11 O3 2.879843 1_455
K11 O31 2.888559 1_555
K11 O47 3.071956 1_555
K11 O15 3.075638 1_565
K11 O23 3.151027 1_455
K11 O35 3.159243 1_465
K11 O27 3.164418 1_565
K12 O60 2.833175 1_555
K12 O28 2.860191 1_545
K12 O44 2.885505 1_545
K12 O56 2.913944 1_545
K12 O6 2.927499 1_555
K12 O32 3.032350 1_555
K12 O36 3.124868 1_555
K12 O52 3.151532 1_545
K13 O61 2.833175 1_555
K13 O29 2.860191 1_565
K13 O45 2.885505 1_565
K13 O57 2.913944 1_565
K13 O7 2.927499 1_555
K13 O33 3.032350 1_555
K13 O37 3.124868 1_555
K13 O53 3.151532 1_565
K14 O62 2.833175 1_555
K14 O30 2.860191 1_455
K14 O46 2.885505 1_455
K14 O58 2.913944 1_455
K14 O5 2.927499 1_555
K14 O34 3.032350 1_555
K14 O38 3.124868 1_555
K14 O54 3.151532 1_455
K15 O63 2.833175 1_555
K15 O31 2.860191 1_655
K15 O47 2.885505 1_655
K15 O59 2.913944 1_655
K15 O4 2.927499 1_555
K15 O35 3.032350 1_555
K15 O39 3.124868 1_555
K15 O55 3.151532 1_655
Li0 O32 1.921050 1_555
Li0 O0 1.975234 1_455
Li0 O48 1.998744 1_555
Li0 O16 2.000383 1_555
Li1 O33 1.921050 1_555
Li1 O1 1.975234 1_655
Li1 O49 1.998744 1_555
Li1 O17 2.000383 1_555
Li2 O34 1.921050 1_555
Li2 O2 1.975234 1_565
Li2 O50 1.998744 1_555
Li2 O18 2.000383 1_555
Li3 O35 1.921050 1_555
Li3 O3 1.975234 1_545
Li3 O51 1.998744 1_555
Li3 O19 2.000383 1_555
H0 O4 1.010553 1_555
H0 O20 1.647525 1_555
H1 O5 1.010553 1_555
H1 O21 1.647525 1_555
H2 O6 1.010553 1_555
H2 O22 1.647525 1_555
H3 O7 1.010553 1_555
H3 O23 1.647525 1_555
H4 O52 1.045831 1_555
H4 O40 1.491094 1_555
H4 K12 2.985826 1_565
H5 O53 1.045831 1_555
H5 O41 1.491094 1_555
H5 K13 2.985826 1_545
H6 O54 1.045831 1_555
H6 O42 1.491094 1_555
H6 K14 2.985826 1_655
H7 O55 1.045831 1_555
H7 O43 1.491094 1_555
H7 K15 2.985826 1_455
H8 O24 1.024200 1_545
H8 O43 1.610179 1_555
H9 O25 1.024200 1_565
H9 O42 1.610179 1_555
H10 O26 1.024200 1_455
H10 O40 1.610179 1_555
H11 O27 1.024200 1_655
H11 O41 1.610179 1_555
O0 S0 1.480661 1_556
O1 S1 1.480661 1_555
O2 S2 1.480661 1_555
O3 S3 1.480661 1_555
O4 S0 1.581229 1_555
O5 S1 1.581229 1_555
O6 S2 1.581229 1_555
O7 S3 1.581229 1_555
O8 S0 1.470868 1_556
O9 S1 1.470868 1_555
O10 S2 1.470868 1_555
O11 S3 1.470868 1_555
O12 S0 1.459338 1_455
O13 S1 1.459338 1_655
O14 S2 1.459338 1_565
O15 S3 1.459338 1_545
O16 S4 1.473035 1_556
O17 S5 1.473035 1_555
O18 S6 1.473035 1_555
O19 S7 1.473035 1_555
O20 S4 1.462542 1_555
O21 S5 1.462542 1_555
O22 S6 1.462542 1_555
O23 S7 1.462542 1_555
O24 S4 1.611121 1_565
O25 S5 1.611121 1_545
O26 S6 1.611121 1_655
O27 S7 1.611121 1_455
O28 S4 1.461510 1_566
O29 S5 1.461510 1_545
O30 S6 1.461510 1_655
O31 S7 1.461510 1_455
O32 S8 1.495317 1_445
O33 S9 1.495317 1_665
O34 S10 1.495317 1_465
O35 S11 1.495317 1_645
O36 S8 1.475005 1_545
O37 S9 1.475005 1_565
O38 S10 1.475005 1_455
O39 S11 1.475005 1_655
O40 S8 1.537171 1_455
O41 S9 1.537171 1_655
O42 S10 1.537171 1_565
O43 S11 1.537171 1_545
O44 S8 1.486556 1_555
O45 S9 1.486556 1_555
O46 S10 1.486556 1_555
O47 S11 1.486556 1_555
O48 S12 1.479487 1_555
O49 S13 1.479487 1_555
O50 S14 1.479487 1_555
O51 S15 1.479487 1_555
O52 S12 1.578308 1_555
O53 S13 1.578308 1_555
O54 S14 1.578308 1_555
O55 S15 1.578308 1_555
O56 S12 1.469782 1_555
O57 S13 1.469782 1_555
O58 S14 1.469782 1_555
O59 S15 1.469782 1_555
O60 S12 1.463093 1_555
O61 S13 1.463093 1_555
O62 S14 1.463093 1_555
O63 S15 1.463093 1_555
