# generated using pymatgen
data_SmInCo2
_symmetry_space_group_name_H-M   'P 1'
_cell_length_a   4.03961700
_cell_length_b   5.05455500
_cell_length_c   7.19050300
_cell_angle_alpha   90.00000000
_cell_angle_beta   90.00000000
_cell_angle_gamma   90.00000000
_symmetry_Int_Tables_number   1
_chemical_formula_structural   SmInCo2
_chemical_formula_sum   'Sm2 In2 Co4'
_cell_volume   146.81904322
_cell_formula_units_Z   2
loop_
 _symmetry_equiv_pos_site_id
 _symmetry_equiv_pos_as_xyz
  1  'x, y, z'
loop_
 _atom_site_type_symbol
 _atom_site_label
 _atom_site_symmetry_multiplicity
 _atom_site_fract_x
 _atom_site_fract_y
 _atom_site_fract_z
 _atom_site_occupancy
  Sm  Sm0  1  0.50000000  0.75000000  0.71740400  1
  Sm  Sm1  1  0.50000000  0.25000000  0.28259600  1
  In  In0  1  0.00000000  0.75000000  0.34669900  1
  In  In1  1  0.00000000  0.25000000  0.65330100  1
  Co  Co0  1  0.00000000  0.00000000  0.00000000  1
  Co  Co1  1  0.00000000  0.50000000  0.00000000  1
  Co  Co2  1  0.50000000  0.75000000  0.09097700  1
  Co  Co3  1  0.50000000  0.25000000  0.90902300  1
loop_
_geom_bond_atom_site_label_1
_geom_bond_atom_site_label_2
_geom_bond_distance
_geom_bond_site_symmetry_2
In0 Sm1 3.267907 1_465
In0 Sm1 3.267907 1_555
In0 Sm1 3.267907 1_455
In0 Sm1 3.267907 1_565
In0 Sm0 3.344370 1_555
In0 Sm0 3.344370 1_455
In0 In1 3.353728 1_555
In0 In1 3.353728 1_565
In1 Sm0 3.267907 1_455
In1 Sm0 3.267907 1_555
In1 Sm0 3.267907 1_445
In1 Sm0 3.267907 1_545
In1 Sm1 3.344370 1_555
In1 Sm1 3.344370 1_455
Co0 Co3 2.470698 1_454
Co0 Co2 2.470698 1_445
Co0 Co2 2.470698 1_545
Co0 Co3 2.470698 1_554
Co0 Co1 2.527277 1_545
Co0 Co1 2.527277 1_555
Co0 In1 2.794912 1_554
Co0 In0 2.794912 1_545
Co0 Sm0 3.131368 1_544
Co0 Sm0 3.131368 1_444
Co0 Sm1 3.131368 1_455
Co0 Sm1 3.131368 1_555
Co1 Co2 2.470698 1_555
Co1 Co3 2.470698 1_454
Co1 Co2 2.470698 1_455
Co1 Co3 2.470698 1_554
Co1 In1 2.794912 1_554
Co1 In0 2.794912 1_555
Co1 Sm0 3.131368 1_454
Co1 Sm0 3.131368 1_554
Co1 Sm1 3.131368 1_455
Co1 Sm1 3.131368 1_555
Co2 Sm0 2.686178 1_554
Co2 In0 2.731428 1_555
Co2 In0 2.731428 1_655
Co2 Sm1 2.878466 1_565
Co2 Sm1 2.878466 1_555
Co3 Sm1 2.686178 1_556
Co3 In1 2.731428 1_555
Co3 In1 2.731428 1_655
Co3 Sm0 2.878466 1_545
Co3 Sm0 2.878466 1_555
