# generated using pymatgen
data_LiHf8(N2O)4
_symmetry_space_group_name_H-M   'P 1'
_cell_length_a   5.87811698
_cell_length_b   5.83509858
_cell_length_c   10.87302638
_cell_angle_alpha   74.80145475
_cell_angle_beta   57.74160014
_cell_angle_gamma   59.33845354
_symmetry_Int_Tables_number   1
_chemical_formula_structural   LiHf8(N2O)4
_chemical_formula_sum   'Li1 Hf8 N8 O4'
_cell_volume   271.25817815
_cell_formula_units_Z   1
loop_
 _symmetry_equiv_pos_site_id
 _symmetry_equiv_pos_as_xyz
  1  'x, y, z'
loop_
 _atom_site_type_symbol
 _atom_site_label
 _atom_site_symmetry_multiplicity
 _atom_site_fract_x
 _atom_site_fract_y
 _atom_site_fract_z
 _atom_site_occupancy
  Li  Li0  1  0.91180400  0.02080400  0.33581300  1
  Hf  Hf0  1  0.20579000  0.34520000  0.37825100  1
  Hf  Hf1  1  0.15735200  0.98677700  0.74839500  1
  Hf  Hf2  1  0.26316500  0.33833700  0.00573500  1
  Hf  Hf3  1  0.60497200  0.34832800  0.65188200  1
  Hf  Hf4  1  0.53301700  0.67286500  0.37711400  1
  Hf  Hf5  1  0.80712500  0.98919100  0.09548600  1
  Hf  Hf6  1  0.55323100  0.66029400  0.03656900  1
  Hf  Hf7  1  0.85571700  0.66770600  0.72613400  1
  N  N0  1  0.59715200  0.00061900  0.32567100  1
  N  N1  1  0.40983700  0.35450400  0.13739600  1
  N  N2  1  0.27260200  0.69968100  0.61788600  1
  N  N3  1  0.83097600  0.33003800  0.42408700  1
  N  N4  1  0.39061400  0.63193900  0.86277500  1
  N  N5  1  0.79242400  0.62237500  0.13723100  1
  N  N6  1  0.00478000  0.32572200  0.61782300  1
  N  N7  1  0.72766500  0.98607600  0.89591800  1
  O  O0  1  0.14645000  0.00529200  0.10059900  1
  O  O1  1  0.18707100  0.69763000  0.37221600  1
  O  O2  1  0.99066900  0.36408700  0.88179400  1
  O  O3  1  0.57659200  0.00720400  0.66524800  1
loop_
_geom_bond_atom_site_label_1
_geom_bond_atom_site_label_2
_geom_bond_distance
_geom_bond_site_symmetry_2
Li0 O1 1.873781 1_645
Li0 N0 1.973228 1_555
Li0 N3 1.987399 1_555
Li0 O0 2.163303 1_655
Hf0 O1 1.987869 1_555
Hf0 N3 2.028268 1_455
Hf0 N0 2.035412 1_555
Hf0 N6 2.211471 1_555
Hf0 N1 2.222305 1_555
Hf1 N2 2.083680 1_555
Hf1 N7 2.152831 1_455
Hf1 O3 2.183885 1_565
Hf1 N6 2.193016 1_565
Hf1 N4 2.299637 1_555
Hf1 O2 2.422445 1_465
Hf2 N1 2.067080 1_555
Hf2 N4 2.140593 1_554
Hf2 N5 2.188515 1_455
Hf2 O0 2.205591 1_555
Hf2 N7 2.277787 1_544
Hf2 O2 2.521281 1_454
Hf3 O3 2.042579 1_555
Hf3 N3 2.095817 1_555
Hf3 N2 2.108342 1_555
Hf3 N6 2.111397 1_655
Hf3 N4 2.522516 1_555
Hf4 O1 1.992672 1_555
Hf4 N0 2.015423 1_565
Hf4 N3 2.043484 1_555
Hf4 N2 2.216729 1_555
Hf4 N5 2.216778 1_555
Hf5 O0 2.074259 1_665
Hf5 N5 2.105283 1_555
Hf5 N0 2.120825 1_565
Hf5 N1 2.121620 1_565
Hf5 N7 2.457281 1_554
Hf5 N4 2.953108 1_654
Hf6 O0 2.074371 1_565
Hf6 N5 2.102897 1_555
Hf6 N1 2.148950 1_555
Hf6 O2 2.191839 1_554
Hf6 N7 2.406990 1_554
Hf6 N4 2.601028 1_554
Hf7 O3 2.052171 1_565
Hf7 N6 2.117560 1_655
Hf7 N2 2.167351 1_655
Hf7 O2 2.249474 1_555
Hf7 N4 2.410131 1_555
Hf7 N7 2.512834 1_555
