# generated using pymatgen
data_InGaS3
_symmetry_space_group_name_H-M   'P 1'
_cell_length_a   3.93524823
_cell_length_b   3.93524823
_cell_length_c   18.88880900
_cell_angle_alpha   90.00000000
_cell_angle_beta   90.00000000
_cell_angle_gamma   120.00000381
_symmetry_Int_Tables_number   1
_chemical_formula_structural   InGaS3
_chemical_formula_sum   'In2 Ga2 S6'
_cell_volume   253.32581814
_cell_formula_units_Z   2
loop_
 _symmetry_equiv_pos_site_id
 _symmetry_equiv_pos_as_xyz
  1  'x, y, z'
loop_
 _atom_site_type_symbol
 _atom_site_label
 _atom_site_symmetry_multiplicity
 _atom_site_fract_x
 _atom_site_fract_y
 _atom_site_fract_z
 _atom_site_occupancy
  In  In0  1  0.33333300  0.66666700  0.49326500  1
  In  In1  1  0.66666700  0.33333300  0.13366000  1
  Ga  Ga0  1  0.00000000  0.00000000  0.87818000  1
  Ga  Ga1  1  0.66666700  0.33333300  0.69979800  1
  S  S0  1  0.00000000  0.00000000  0.74693800  1
  S  S1  1  0.66666700  0.33333300  0.25941300  1
  S  S2  1  0.66666700  0.33333300  0.58257700  1
  S  S3  1  0.00000000  0.00000000  0.43132200  1
  S  S4  1  0.66666700  0.33333300  0.90981700  1
  S  S5  1  0.00000000  0.00000000  0.07162900  1
loop_
_geom_bond_atom_site_label_1
_geom_bond_atom_site_label_2
_geom_bond_distance
_geom_bond_site_symmetry_2
In0 S3 2.555586 1_565
In0 S3 2.555589 1_555
In0 S3 2.555589 1_665
In0 S2 2.829843 1_455
In0 S2 2.829843 1_565
In0 S2 2.829848 1_555
In1 S1 2.375324 1_555
In1 S5 2.556347 1_655
In1 S5 2.556350 1_555
In1 S5 2.556350 1_665
Ga0 S4 2.349289 1_455
Ga0 S4 2.349292 1_445
Ga0 S4 2.349292 1_555
Ga0 S0 2.479005 1_555
Ga1 S2 2.214165 1_555
Ga1 S0 2.440265 1_655
Ga1 S0 2.440268 1_665
Ga1 S0 2.440268 1_555
