# generated using pymatgen
data_Na2H8WO12
_symmetry_space_group_name_H-M   'P 1'
_cell_length_a   8.62413200
_cell_length_b   9.97430130
_cell_length_c   12.44387042
_cell_angle_alpha   92.56803475
_cell_angle_beta   90.00000000
_cell_angle_gamma   90.00000000
_symmetry_Int_Tables_number   1
_chemical_formula_structural   Na2H8WO12
_chemical_formula_sum   'Na8 H32 W4 O48'
_cell_volume   1069.34289261
_cell_formula_units_Z   4
loop_
 _symmetry_equiv_pos_site_id
 _symmetry_equiv_pos_as_xyz
  1  'x, y, z'
loop_
 _atom_site_type_symbol
 _atom_site_label
 _atom_site_symmetry_multiplicity
 _atom_site_fract_x
 _atom_site_fract_y
 _atom_site_fract_z
 _atom_site_occupancy
  Na  Na0  1  0.29780300  0.37589500  0.76852400  1
  Na  Na1  1  0.79780300  0.62410500  0.73147600  1
  Na  Na2  1  0.70219700  0.62410500  0.23147600  1
  Na  Na3  1  0.20219700  0.37589500  0.26852400  1
  Na  Na4  1  0.16318700  0.15756100  0.02788000  1
  Na  Na5  1  0.66318700  0.84243900  0.47212000  1
  Na  Na6  1  0.83681300  0.84243900  0.97212000  1
  Na  Na7  1  0.33681300  0.15756100  0.52788000  1
  H  H0  1  0.40605700  0.03276000  0.91157000  1
  H  H1  1  0.90605700  0.96724000  0.58843000  1
  H  H2  1  0.59394300  0.96724000  0.08843000  1
  H  H3  1  0.09394300  0.03276000  0.41157000  1
  H  H4  1  0.37689400  0.16042100  0.85274900  1
  H  H5  1  0.87689400  0.83957900  0.64725100  1
  H  H6  1  0.62310600  0.83957900  0.14725100  1
  H  H7  1  0.12310600  0.16042100  0.35274900  1
  H  H8  1  0.25374400  0.03580000  0.72311300  1
  H  H9  1  0.75374400  0.96420000  0.77688700  1
  H  H10  1  0.74625600  0.96420000  0.27688700  1
  H  H11  1  0.24625600  0.03580000  0.22311300  1
  H  H12  1  0.12265600  0.13482800  0.68922900  1
  H  H13  1  0.62265600  0.86517200  0.81077100  1
  H  H14  1  0.87734400  0.86517200  0.31077100  1
  H  H15  1  0.37734400  0.13482800  0.18922900  1
  H  H16  1  0.06532100  0.40936600  0.61984800  1
  H  H17  1  0.56532100  0.59063400  0.88015200  1
  H  H18  1  0.93467900  0.59063400  0.38015200  1
  H  H19  1  0.43467900  0.40936600  0.11984800  1
  H  H20  1  0.19354400  0.48571200  0.55945900  1
  H  H21  1  0.69354400  0.51428800  0.94054100  1
  H  H22  1  0.80645600  0.51428800  0.44054100  1
  H  H23  1  0.30645600  0.48571200  0.05945900  1
  H  H24  1  0.05817600  0.48268900  0.89287000  1
  H  H25  1  0.55817600  0.51731100  0.60713000  1
  H  H26  1  0.94182400  0.51731100  0.10713000  1
  H  H27  1  0.44182400  0.48268900  0.39287000  1
  H  H28  1  0.98872100  0.33740400  0.89716300  1
  H  H29  1  0.48872100  0.66259600  0.60283700  1
  H  H30  1  0.01127900  0.66259600  0.10283700  1
  H  H31  1  0.51127900  0.33740400  0.39716300  1
  W  W0  1  0.72222500  0.23702100  0.62078000  1
  W  W1  1  0.22222500  0.76297900  0.87922000  1
  W  W2  1  0.27777500  0.76297900  0.37922000  1
  W  W3  1  0.77777500  0.23702100  0.12078000  1
  O  O0  1  0.56601400  0.30072700  0.72979700  1
  O  O1  1  0.06601400  0.69927300  0.77020300  1
  O  O2  1  0.43398600  0.69927300  0.27020300  1
  O  O3  1  0.93398600  0.30072700  0.22979700  1
  O  O4  1  0.52315500  0.34533300  0.61888400  1
  O  O5  1  0.02315500  0.65466700  0.88111600  1
  O  O6  1  0.47684500  0.65466700  0.38111600  1
  O  O7  1  0.97684500  0.34533300  0.11888400  1
  O  O8  1  0.82457300  0.14024300  0.73901800  1
  O  O9  1  0.32457300  0.85975700  0.76098200  1
  O  O10  1  0.17542700  0.85975700  0.26098200  1
  O  O11  1  0.67542700  0.14024300  0.23901800  1
  O  O12  1  0.92021700  0.13103000  0.63765000  1
  O  O13  1  0.42021700  0.86897000  0.86235000  1
  O  O14  1  0.07978300  0.86897000  0.36235000  1
  O  O15  1  0.57978300  0.13103000  0.13765000  1
  O  O16  1  0.60017400  0.07162400  0.58105500  1
  O  O17  1  0.10017400  0.92837600  0.91894500  1
  O  O18  1  0.39982600  0.92837600  0.41894500  1
  O  O19  1  0.89982600  0.07162400  0.08105500  1
  O  O20  1  0.65746500  0.14304800  0.48401400  1
  O  O21  1  0.15746500  0.85695200  0.01598600  1
  O  O22  1  0.34253500  0.85695200  0.51598600  1
  O  O23  1  0.84253500  0.14304800  0.98401400  1
  O  O24  1  0.34977400  0.59302200  0.85428300  1
  O  O25  1  0.84977400  0.40697800  0.64571700  1
  O  O26  1  0.65022600  0.40697800  0.14571700  1
  O  O27  1  0.15022600  0.59302200  0.35428300  1
  O  O28  1  0.32684800  0.63279100  0.97132900  1
  O  O29  1  0.82684800  0.36720900  0.52867100  1
  O  O30  1  0.67315200  0.36720900  0.02867100  1
  O  O31  1  0.17315200  0.63279100  0.47132900  1
  O  O32  1  0.38803200  0.13030800  0.92576300  1
  O  O33  1  0.88803200  0.86969200  0.57423700  1
  O  O34  1  0.61196800  0.86969200  0.07423700  1
  O  O35  1  0.11196800  0.13030800  0.42576300  1
  O  O36  1  0.23505300  0.12946100  0.70420400  1
  O  O37  1  0.73505300  0.87053900  0.79579600  1
  O  O38  1  0.76494700  0.87053900  0.29579600  1
  O  O39  1  0.26494700  0.12946100  0.20420400  1
  O  O40  1  0.17829300  0.41352100  0.60950000  1
  O  O41  1  0.67829300  0.58647900  0.89050000  1
  O  O42  1  0.82170700  0.58647900  0.39050000  1
  O  O43  1  0.32170700  0.41352100  0.10950000  1
  O  O44  1  0.08602300  0.38565100  0.89079000  1
  O  O45  1  0.58602300  0.61434900  0.60921000  1
  O  O46  1  0.91397700  0.61434900  0.10921000  1
  O  O47  1  0.41397700  0.38565100  0.39079000  1
loop_
_geom_bond_atom_site_label_1
_geom_bond_atom_site_label_2
_geom_bond_distance
_geom_bond_site_symmetry_2
Na0 O40 2.277195 1_555
Na0 O44 2.376311 1_555
Na0 O24 2.413059 1_555
Na0 O0 2.472318 1_555
Na0 O36 2.607486 1_555
Na0 O4 2.699358 1_555
Na1 O41 2.277195 1_555
Na1 O45 2.376311 1_555
Na1 O25 2.413059 1_555
Na1 O1 2.472318 1_655
Na1 O37 2.607486 1_555
Na1 O5 2.699358 1_655
Na2 O42 2.277195 1_555
Na2 O46 2.376311 1_555
Na2 O26 2.413059 1_555
Na2 O2 2.472318 1_555
Na2 O38 2.607486 1_555
Na2 O6 2.699358 1_555
Na3 O43 2.277195 1_555
Na3 O47 2.376311 1_555
Na3 O27 2.413059 1_555
Na3 O3 2.472318 1_455
Na3 O39 2.607486 1_555
Na3 O7 2.699358 1_455
Na4 O32 2.327612 1_554
Na4 O39 2.391263 1_555
Na4 O19 2.526267 1_455
Na4 O17 2.660982 1_544
Na4 O7 2.680050 1_455
Na5 O33 2.327612 1_555
Na5 O38 2.391263 1_555
Na5 O18 2.526267 1_555
Na5 O16 2.660982 1_565
Na5 O6 2.680050 1_555
Na6 O34 2.327612 1_556
Na6 O37 2.391263 1_555
Na6 O17 2.526267 1_655
Na6 O19 2.660982 1_566
Na6 O5 2.680050 1_655
Na7 O35 2.327612 1_555
Na7 O36 2.391263 1_555
Na7 O16 2.526267 1_555
Na7 O18 2.660982 1_545
Na7 O4 2.680050 1_555
H0 O32 0.993295 1_555
H0 O13 1.723175 1_545
H1 O33 0.993295 1_555
H1 O12 1.723175 1_565
H2 O34 0.993295 1_555
H2 O15 1.723175 1_565
H3 O35 0.993295 1_555
H3 O14 1.723175 1_545
H4 O32 0.974375 1_555
H4 Na0 2.526788 1_555
H5 O33 0.974375 1_555
H5 Na1 2.526788 1_555
H6 O34 0.974375 1_555
H6 Na2 2.526788 1_555
H7 O35 0.974375 1_555
H7 Na3 2.526788 1_555
H8 O36 0.986805 1_555
H9 O37 0.986805 1_555
H10 O38 0.986805 1_555
H11 O39 0.986805 1_555
H12 O36 0.988979 1_555
H13 O37 0.988979 1_555
H14 O38 0.988979 1_555
H15 O39 0.988979 1_555
H16 O40 0.983875 1_555
H17 O41 0.983875 1_555
H18 O42 0.983875 1_555
H19 O43 0.983875 1_555
H20 O40 0.981691 1_555
H21 O41 0.981691 1_555
H22 O42 0.981691 1_555
H23 O43 0.981691 1_555
H24 O44 0.996446 1_555
H24 O5 1.754297 1_555
H25 O45 0.996446 1_555
H25 O4 1.754297 1_555
H26 O46 0.996446 1_555
H26 O7 1.754297 1_555
H27 O47 0.996446 1_555
H27 O6 1.754297 1_555
H28 O44 0.972346 1_655
H29 O45 0.972346 1_555
H30 O46 0.972346 1_455
H31 O47 0.972346 1_555
O0 O4 1.514765 1_555
O0 W0 1.995437 1_555
O1 O5 1.514765 1_555
O1 W1 1.995437 1_555
O2 O6 1.514765 1_555
O2 W2 1.995437 1_555
O3 O7 1.514765 1_555
O3 W3 1.995437 1_555
O4 W0 2.029135 1_555
O5 W1 2.029135 1_555
O6 W2 2.029135 1_555
O7 W3 2.029135 1_555
O8 W0 2.000748 1_555
O9 W1 2.000748 1_555
O10 O14 1.506514 1_555
O10 W2 2.000748 1_555
O11 O15 1.506514 1_555
O11 W3 2.000748 1_555
O12 O8 1.506514 1_555
O12 W0 2.024151 1_555
O13 O9 1.506514 1_555
O13 W1 2.024151 1_555
O14 W2 2.024151 1_555
O15 W3 2.024151 1_555
O16 O20 1.512265 1_555
O16 W0 2.000198 1_555
O17 O21 1.512265 1_556
O17 W1 2.000198 1_555
O18 O22 1.512265 1_555
O18 W2 2.000198 1_555
O19 O23 1.512265 1_554
O19 W3 2.000198 1_555
O20 W0 1.985948 1_555
O21 W1 1.985948 1_554
O22 W2 1.985948 1_555
O23 W3 1.985948 1_556
O24 O28 1.505348 1_555
O24 W1 2.032945 1_555
O25 O29 1.505348 1_555
O25 W0 2.032945 1_555
O26 O30 1.505348 1_555
O26 W3 2.032945 1_555
O27 O31 1.505348 1_555
O27 W2 2.032945 1_555
O28 W1 1.986816 1_555
O29 W0 1.986816 1_555
O30 W3 1.986816 1_555
O31 W2 1.986816 1_555
