# generated using pymatgen
data_AgSb(SeF3)2
_symmetry_space_group_name_H-M   'P 1'
_cell_length_a   12.54601809
_cell_length_b   12.54601809
_cell_length_c   10.95627026
_cell_angle_alpha   64.30321282
_cell_angle_beta   64.30321282
_cell_angle_gamma   52.57067805
_symmetry_Int_Tables_number   1
_chemical_formula_structural   AgSb(SeF3)2
_chemical_formula_sum   'Ag6 Sb6 Se12 F36'
_cell_volume   1198.66920759
_cell_formula_units_Z   6
loop_
 _symmetry_equiv_pos_site_id
 _symmetry_equiv_pos_as_xyz
  1  'x, y, z'
loop_
 _atom_site_type_symbol
 _atom_site_label
 _atom_site_symmetry_multiplicity
 _atom_site_fract_x
 _atom_site_fract_y
 _atom_site_fract_z
 _atom_site_occupancy
  Ag  Ag0  1  0.51782600  0.48217400  0.25000000  1
  Ag  Ag1  1  0.48217400  0.51782600  0.75000000  1
  Ag  Ag2  1  0.81059100  0.85379000  0.65481100  1
  Ag  Ag3  1  0.14621000  0.18940900  0.84518900  1
  Ag  Ag4  1  0.18940900  0.14621000  0.34518900  1
  Ag  Ag5  1  0.85379000  0.81059100  0.15481100  1
  Sb  Sb0  1  0.00000000  0.50000000  0.00000000  1
  Sb  Sb1  1  0.50000000  0.00000000  0.50000000  1
  Sb  Sb2  1  0.01904500  0.98095500  0.75000000  1
  Sb  Sb3  1  0.98095500  0.01904500  0.25000000  1
  Sb  Sb4  1  0.00000000  0.50000000  0.50000000  1
  Sb  Sb5  1  0.50000000  0.00000000  0.00000000  1
  Se  Se0  1  0.71317200  0.37752600  0.89603700  1
  Se  Se1  1  0.62247400  0.28682800  0.60396300  1
  Se  Se2  1  0.28682800  0.62247400  0.10396300  1
  Se  Se3  1  0.37752600  0.71317200  0.39603700  1
  Se  Se4  1  0.62719900  0.57900500  0.96225800  1
  Se  Se5  1  0.42099500  0.37280100  0.53774200  1
  Se  Se6  1  0.37280100  0.42099500  0.03774200  1
  Se  Se7  1  0.57900500  0.62719900  0.46225800  1
  Se  Se8  1  0.40834700  0.72009700  0.90614100  1
  Se  Se9  1  0.27990300  0.59165300  0.59385900  1
  Se  Se10  1  0.59165300  0.27990300  0.09385900  1
  Se  Se11  1  0.72009700  0.40834700  0.40614100  1
  F  F0  1  0.91181300  0.63753000  0.84904600  1
  F  F1  1  0.36247000  0.08818700  0.65095400  1
  F  F2  1  0.08818700  0.36247000  0.15095400  1
  F  F3  1  0.63753000  0.91181300  0.34904600  1
  F  F4  1  0.04683000  0.61965600  0.00291300  1
  F  F5  1  0.38034400  0.95317000  0.49708700  1
  F  F6  1  0.95317000  0.38034400  0.99708700  1
  F  F7  1  0.61965600  0.04683000  0.50291300  1
  F  F8  1  0.82788400  0.58331200  0.13097600  1
  F  F9  1  0.41668800  0.17211600  0.36902400  1
  F  F10  1  0.17211600  0.41668800  0.86902400  1
  F  F11  1  0.58331200  0.82788400  0.63097600  1
  F  F12  1  0.93552400  0.89803300  0.73997600  1
  F  F13  1  0.10196700  0.06447600  0.76002400  1
  F  F14  1  0.06447600  0.10196700  0.26002400  1
  F  F15  1  0.89803300  0.93552400  0.23997600  1
  F  F16  1  0.84611700  0.15388300  0.75000000  1
  F  F17  1  0.15388300  0.84611700  0.25000000  1
  F  F18  1  0.19192200  0.80807800  0.75000000  1
  F  F19  1  0.80807800  0.19192200  0.25000000  1
  F  F20  1  0.96634300  0.92856500  0.95057300  1
  F  F21  1  0.07143500  0.03365700  0.54942700  1
  F  F22  1  0.03365700  0.07143500  0.04942700  1
  F  F23  1  0.92856500  0.96634300  0.45057300  1
  F  F24  1  0.92911100  0.67833200  0.52257500  1
  F  F25  1  0.32166800  0.07088900  0.97742500  1
  F  F26  1  0.07088900  0.32166800  0.47742500  1
  F  F27  1  0.67833200  0.92911100  0.02257500  1
  F  F28  1  0.82365700  0.51594400  0.59757000  1
  F  F29  1  0.48405600  0.17634300  0.90243000  1
  F  F30  1  0.17634300  0.48405600  0.40243000  1
  F  F31  1  0.51594400  0.82365700  0.09757000  1
  F  F32  1  0.94385100  0.58999200  0.32619900  1
  F  F33  1  0.41000800  0.05614900  0.17380100  1
  F  F34  1  0.05614900  0.41000800  0.67380100  1
  F  F35  1  0.58999200  0.94385100  0.82619900  1
loop_
_geom_bond_atom_site_label_1
_geom_bond_atom_site_label_2
_geom_bond_distance
_geom_bond_site_symmetry_2
Ag0 Se4 2.872452 1_554
Ag0 Se5 2.872452 1_555
Ag0 Se2 3.071710 1_555
Ag0 Se3 3.071710 1_555
Ag0 Se10 3.123765 1_555
Ag0 Se11 3.123765 1_555
Ag1 Se7 2.872452 1_555
Ag1 Se6 2.872452 1_556
Ag1 Se1 3.071710 1_555
Ag1 Se0 3.071710 1_555
Ag1 Se9 3.123765 1_555
Ag1 Se8 3.123765 1_555
Ag2 F35 2.448330 1_555
Ag2 F24 2.464653 1_555
Ag2 F23 2.473875 1_555
Ag2 F12 2.531920 1_555
Ag2 F0 2.578965 1_555
Ag2 F7 2.698742 1_565
Ag3 F34 2.448330 1_555
Ag3 F25 2.464653 1_555
Ag3 F22 2.473875 1_556
Ag3 F13 2.531920 1_555
Ag3 F1 2.578965 1_555
Ag3 F6 2.698742 1_455
Ag4 F33 2.448330 1_555
Ag4 F26 2.464653 1_555
Ag4 F21 2.473875 1_555
Ag4 F14 2.531920 1_555
Ag4 F2 2.578965 1_555
Ag4 F5 2.698742 1_545
Ag5 F32 2.448330 1_555
Ag5 F27 2.464653 1_555
Ag5 F20 2.473875 1_554
Ag5 F15 2.531920 1_555
Ag5 F3 2.578965 1_555
Ag5 F4 2.698742 1_655
Se0 Se10 2.371521 1_556
Se0 Se4 2.382637 1_555
Se1 Se11 2.371521 1_555
Se1 Se5 2.382637 1_555
Se2 Se8 2.371521 1_554
Se2 Se6 2.382637 1_555
Se3 Se9 2.371521 1_555
Se3 Se7 2.382637 1_555
Se4 Se8 2.379611 1_555
Se5 Se9 2.379611 1_555
Se10 Se6 2.379611 1_555
Se11 Se7 2.379611 1_555
F0 Sb0 1.930856 1_656
F1 Sb1 1.930856 1_555
F2 Sb0 1.930856 1_555
F3 Sb1 1.930856 1_565
F4 Sb0 1.931262 1_555
F5 Sb1 1.931262 1_565
F6 Sb0 1.931262 1_656
F7 Sb1 1.931262 1_555
F8 Sb0 1.919519 1_655
F9 Sb1 1.919519 1_555
F10 Sb0 1.919519 1_556
F11 Sb1 1.919519 1_565
F12 Sb2 1.927791 1_655
F13 Sb2 1.927791 1_545
F14 Sb3 1.927791 1_455
F15 Sb3 1.927791 1_565
F16 Sb2 1.921542 1_645
F17 Sb3 1.921542 1_465
F18 Sb2 1.920975 1_555
F19 Sb3 1.920975 1_555
F20 Sb2 1.927161 1_655
F21 Sb2 1.927161 1_545
F22 Sb3 1.927161 1_455
F23 Sb3 1.927161 1_565
F24 Sb4 1.930874 1_655
F25 Sb5 1.930874 1_556
F26 Sb4 1.930874 1_555
F27 Sb5 1.930874 1_565
F28 Sb4 1.916760 1_655
F29 Sb5 1.916760 1_556
F30 Sb4 1.916760 1_555
F31 Sb5 1.916760 1_565
F32 Sb4 1.931072 1_655
F33 Sb5 1.931072 1_555
F34 Sb4 1.931072 1_555
F35 Sb5 1.931072 1_566
