# generated using pymatgen
data_Be4CoGe
_symmetry_space_group_name_H-M   'P 1'
_cell_length_a   4.27582945
_cell_length_b   4.27582945
_cell_length_c   4.27582945
_cell_angle_alpha   60.00000000
_cell_angle_beta   60.00000000
_cell_angle_gamma   60.00000000
_symmetry_Int_Tables_number   1
_chemical_formula_structural   Be4CoGe
_chemical_formula_sum   'Be4 Co1 Ge1'
_cell_volume   55.27721130
_cell_formula_units_Z   1
loop_
 _symmetry_equiv_pos_site_id
 _symmetry_equiv_pos_as_xyz
  1  'x, y, z'
loop_
 _atom_site_type_symbol
 _atom_site_label
 _atom_site_symmetry_multiplicity
 _atom_site_fract_x
 _atom_site_fract_y
 _atom_site_fract_z
 _atom_site_occupancy
  Be  Be0  1  0.62340700  0.62340700  0.12977800  1
  Be  Be1  1  0.62340700  0.12977800  0.62340700  1
  Be  Be2  1  0.12977800  0.62340700  0.62340700  1
  Be  Be3  1  0.62340700  0.62340700  0.62340700  1
  Co  Co0  1  0.25000000  0.25000000  0.25000000  1
  Ge  Ge0  1  0.00000000  0.00000000  0.00000000  1
loop_
_geom_bond_atom_site_label_1
_geom_bond_atom_site_label_2
_geom_bond_distance
_geom_bond_site_symmetry_2
Be0 Be1 2.110673 1_555
Be0 Be2 2.110673 1_555
Be0 Be3 2.110673 1_555
Be0 Be2 2.165156 1_654
Be0 Be3 2.165156 1_554
Be0 Be1 2.165156 1_564
Be0 Co0 2.504075 1_555
Be0 Co0 2.504079 1_655
Be0 Co0 2.504079 1_565
Be0 Ge0 2.509884 1_565
Be0 Ge0 2.509884 1_655
Be0 Ge0 2.509887 1_665
Be1 Be2 2.110673 1_555
Be1 Be3 2.110673 1_555
Be1 Be3 2.165156 1_545
Be1 Be2 2.165156 1_645
Be1 Co0 2.504075 1_555
Be1 Co0 2.504079 1_655
Be1 Co0 2.504079 1_556
Be1 Ge0 2.509884 1_556
Be1 Ge0 2.509884 1_655
Be1 Ge0 2.509887 1_656
Be2 Be3 2.110673 1_555
Be2 Be3 2.165156 1_455
Be2 Co0 2.504075 1_555
Be2 Co0 2.504079 1_556
Be2 Co0 2.504079 1_565
Be2 Ge0 2.509884 1_556
Be2 Ge0 2.509884 1_565
Be2 Ge0 2.509887 1_566
Be3 Co0 2.504077 1_556
Be3 Co0 2.504077 1_565
Be3 Co0 2.504077 1_655
Be3 Ge0 2.509885 1_656
Be3 Ge0 2.509885 1_566
Be3 Ge0 2.509885 1_665
Co0 Ge0 2.618400 1_565
Co0 Ge0 2.618400 1_555
Co0 Ge0 2.618400 1_655
Co0 Ge0 2.618400 1_556
