# generated using pymatgen
data_MgCrCoS4
_symmetry_space_group_name_H-M   'P 1'
_cell_length_a   7.09143430
_cell_length_b   7.09313608
_cell_length_c   7.09326436
_cell_angle_alpha   59.98447635
_cell_angle_beta   60.01796413
_cell_angle_gamma   60.01911119
_symmetry_Int_Tables_number   1
_chemical_formula_structural   MgCrCoS4
_chemical_formula_sum   'Mg2 Cr2 Co2 S8'
_cell_volume   252.33305662
_cell_formula_units_Z   2
loop_
 _symmetry_equiv_pos_site_id
 _symmetry_equiv_pos_as_xyz
  1  'x, y, z'
loop_
 _atom_site_type_symbol
 _atom_site_label
 _atom_site_symmetry_multiplicity
 _atom_site_fract_x
 _atom_site_fract_y
 _atom_site_fract_z
 _atom_site_occupancy
  Mg  Mg0  1  0.87540200  0.87454300  0.87455800  1
  Mg  Mg1  1  0.12460400  0.12544500  0.12545800  1
  Cr  Cr0  1  0.49998300  0.50000000  0.00000700  1
  Cr  Cr1  1  0.50000600  0.00001200  0.50000400  1
  Co  Co0  1  0.49999700  0.50000600  0.49999100  1
  Co  Co1  1  0.00000100  0.49999600  0.50000000  1
  S  S0  1  0.74682900  0.72973300  0.72973400  1
  S  S1  1  0.26108300  0.27914300  0.69868000  1
  S  S2  1  0.26109800  0.69866500  0.27913100  1
  S  S3  1  0.70628100  0.27030800  0.27027100  1
  S  S4  1  0.73890000  0.30132500  0.72084200  1
  S  S5  1  0.29372800  0.72970500  0.72970300  1
  S  S6  1  0.25317600  0.27025000  0.27029100  1
  S  S7  1  0.73891600  0.72086500  0.30133100  1
loop_
_geom_bond_atom_site_label_1
_geom_bond_atom_site_label_2
_geom_bond_distance
_geom_bond_site_symmetry_2
Mg0 S0 2.422694 1_555
Mg0 S5 2.423891 1_655
Mg0 S7 2.472590 1_556
Mg0 S4 2.472632 1_565
Mg1 S6 2.422712 1_555
Mg1 S3 2.423871 1_455
Mg1 S2 2.472614 1_545
Mg1 S1 2.472622 1_554
Cr0 S6 2.401194 1_555
Cr0 S3 2.401217 1_555
Cr0 S5 2.401227 1_554
Cr0 S0 2.401294 1_554
Cr0 S2 2.414292 1_555
Cr0 S4 2.414559 1_554
Cr1 S6 2.401163 1_555
Cr1 S3 2.401209 1_555
Cr1 S0 2.401235 1_545
Cr1 S5 2.401289 1_545
Cr1 S1 2.414376 1_555
Cr1 S7 2.414449 1_545
Co0 S5 2.311108 1_555
Co0 S3 2.311137 1_555
Co0 S4 2.316894 1_555
Co0 S2 2.316935 1_555
Co0 S1 2.316950 1_555
Co0 S7 2.316976 1_555
Co1 S6 2.311406 1_555
Co1 S0 2.311481 1_455
Co1 S7 2.316935 1_455
Co1 S2 2.316941 1_555
Co1 S1 2.316974 1_555
Co1 S4 2.316978 1_455
