# generated using pymatgen
data_NaMnPCO7
_symmetry_space_group_name_H-M   'P 1'
_cell_length_a   8.17167373
_cell_length_b   8.17167373
_cell_length_c   10.27441394
_cell_angle_alpha   72.29860060
_cell_angle_beta   72.29860060
_cell_angle_gamma   100.43450390
_symmetry_Int_Tables_number   1
_chemical_formula_structural   NaMnPCO7
_chemical_formula_sum   'Na4 Mn4 P4 C4 O28'
_cell_volume   593.69729987
_cell_formula_units_Z   4
loop_
 _symmetry_equiv_pos_site_id
 _symmetry_equiv_pos_as_xyz
  1  'x, y, z'
loop_
 _atom_site_type_symbol
 _atom_site_label
 _atom_site_symmetry_multiplicity
 _atom_site_fract_x
 _atom_site_fract_y
 _atom_site_fract_z
 _atom_site_occupancy
  Na  Na0  1  0.26933400  0.98119700  0.75356100  1
  Na  Na1  1  0.98119700  0.26933400  0.75356100  1
  Na  Na2  1  0.50996200  0.75778200  0.23410200  1
  Na  Na3  1  0.75778200  0.50996200  0.23410200  1
  Mn  Mn0  1  0.93572600  0.93572600  0.65125700  1
  Mn  Mn1  1  0.44111300  0.44111300  0.66647000  1
  Mn  Mn2  1  0.56192900  0.06128900  0.34282700  1
  Mn  Mn3  1  0.06128900  0.56192900  0.34282700  1
  P  P0  1  0.20122900  0.69857300  0.56888800  1
  P  P1  1  0.69857300  0.20122900  0.56888800  1
  P  P2  1  0.30549800  0.30549800  0.43020200  1
  P  P3  1  0.79654100  0.79654100  0.43269800  1
  C  C0  1  0.78156900  0.78156900  0.91727200  1
  C  C1  1  0.27220200  0.27220200  0.93276100  1
  C  C2  1  0.71929000  0.22067000  0.07698600  1
  C  C3  1  0.22067000  0.71929000  0.07698600  1
  O  O0  1  0.30634400  0.79774200  0.94289900  1
  O  O1  1  0.79774200  0.30634400  0.94289900  1
  O  O2  1  0.41477800  0.41477800  0.87085300  1
  O  O3  1  0.92528600  0.92528600  0.85241300  1
  O  O4  1  0.73577600  0.73577600  0.81869000  1
  O  O5  1  0.23087700  0.23087700  0.82672000  1
  O  O6  1  0.26855300  0.57657600  0.67530600  1
  O  O7  1  0.09497300  0.78885000  0.66457100  1
  O  O8  1  0.78885000  0.09497300  0.66457100  1
  O  O9  1  0.57657600  0.26855300  0.67530600  1
  O  O10  1  0.15768700  0.15768700  0.57429600  1
  O  O11  1  0.57559100  0.07396800  0.52681800  1
  O  O12  1  0.07396800  0.57559100  0.52681800  1
  O  O13  1  0.65154300  0.65154300  0.57581800  1
  O  O14  1  0.35320900  0.84081400  0.42685600  1
  O  O15  1  0.43195700  0.43195700  0.47090500  1
  O  O16  1  0.92265100  0.92265100  0.47212900  1
  O  O17  1  0.84081400  0.35320900  0.42685600  1
  O  O18  1  0.22693600  0.42168000  0.33020400  1
  O  O19  1  0.42168000  0.22693600  0.33020400  1
  O  O20  1  0.71397200  0.90577600  0.33043800  1
  O  O21  1  0.90577600  0.71397200  0.33043800  1
  O  O22  1  0.76439100  0.26314300  0.17890900  1
  O  O23  1  0.26314300  0.76439100  0.17890900  1
  O  O24  1  0.57860900  0.07510200  0.14161400  1
  O  O25  1  0.07510200  0.57860900  0.14161400  1
  O  O26  1  0.70151600  0.70151600  0.05360800  1
  O  O27  1  0.18779000  0.18779000  0.06595700  1
loop_
_geom_bond_atom_site_label_1
_geom_bond_atom_site_label_2
_geom_bond_distance
_geom_bond_site_symmetry_2
Na0 O0 2.207205 1_555
Na0 O5 2.418227 1_565
Na0 O10 2.487544 1_565
Na0 O7 2.488289 1_555
Na0 O3 2.580820 1_455
Na0 O11 2.637895 1_565
Na0 O9 2.820062 1_565
Na1 O1 2.207205 1_555
Na1 O5 2.418227 1_655
Na1 O10 2.487544 1_655
Na1 O8 2.488289 1_555
Na1 O3 2.580820 1_545
Na1 O12 2.637895 1_655
Na1 O6 2.820062 1_655
Na2 O23 2.260273 1_555
Na2 O26 2.261557 1_555
Na2 O24 2.364748 1_565
Na2 O14 2.369091 1_555
Na2 O20 2.494505 1_555
Na2 O15 2.813850 1_555
Na2 O18 2.920375 1_555
Na3 O22 2.260273 1_555
Na3 O26 2.261557 1_555
Na3 O25 2.364748 1_655
Na3 O17 2.369091 1_555
Na3 O21 2.494505 1_555
Na3 O15 2.813850 1_555
Na3 O19 2.920375 1_555
Mn0 O16 1.909203 1_555
Mn0 O7 1.930497 1_655
Mn0 O8 1.930497 1_565
Mn0 O4 1.978175 1_555
Mn0 O3 2.017169 1_555
Mn0 O10 2.066144 1_665
Mn1 O13 1.939677 1_555
Mn1 O6 1.941819 1_555
Mn1 O9 1.941819 1_555
Mn1 O2 1.983904 1_555
Mn1 O5 2.025951 1_555
Mn1 O15 2.056541 1_555
Mn2 O19 1.925649 1_555
Mn2 O20 1.936213 1_545
Mn2 O11 1.959609 1_555
Mn2 O22 1.980442 1_555
Mn2 O14 1.986439 1_545
Mn2 O24 1.996598 1_555
Mn3 O18 1.925649 1_555
Mn3 O21 1.936213 1_455
Mn3 O12 1.959609 1_555
Mn3 O23 1.980442 1_555
Mn3 O17 1.986439 1_455
Mn3 O25 1.996598 1_555
C0 O26 1.244407 1_556
C0 O4 1.310047 1_555
C0 O3 1.323299 1_555
C1 O27 1.226374 1_556
C1 O2 1.313935 1_555
C1 O5 1.349546 1_555
C2 O1 1.230002 1_554
C2 O24 1.318187 1_555
C2 O22 1.327518 1_555
C3 O0 1.230002 1_554
C3 O25 1.318187 1_555
C3 O23 1.327518 1_555
O6 P0 1.547128 1_555
O7 P0 1.555175 1_555
O8 P1 1.555175 1_555
O9 P1 1.547128 1_555
O10 P2 1.551243 1_555
O11 P1 1.561158 1_555
O12 P0 1.561158 1_555
O13 P3 1.530541 1_555
O14 P0 1.538344 1_555
O15 P2 1.565069 1_555
O16 P3 1.552807 1_555
O17 P1 1.538344 1_555
O18 P2 1.548484 1_555
O19 P2 1.548484 1_555
O20 P3 1.560409 1_555
O21 P3 1.560409 1_555
