# generated using pymatgen
data_ZrFeAs
_symmetry_space_group_name_H-M   'P 1'
_cell_length_a   3.91088860
_cell_length_b   6.52111700
_cell_length_c   7.34505246
_cell_angle_alpha   90.00350993
_cell_angle_beta   90.00028704
_cell_angle_gamma   89.99972454
_symmetry_Int_Tables_number   1
_chemical_formula_structural   ZrFeAs
_chemical_formula_sum   'Zr4 Fe4 As4'
_cell_volume   187.32353261
_cell_formula_units_Z   4
loop_
 _symmetry_equiv_pos_site_id
 _symmetry_equiv_pos_as_xyz
  1  'x, y, z'
loop_
 _atom_site_type_symbol
 _atom_site_label
 _atom_site_symmetry_multiplicity
 _atom_site_fract_x
 _atom_site_fract_y
 _atom_site_fract_z
 _atom_site_occupancy
  Zr  Zr0  1  0.24999647  0.48598478  0.18982347  1
  Zr  Zr1  1  0.75001335  0.51402427  0.81018055  1
  Zr  Zr2  1  0.75001461  0.01400472  0.68981794  1
  Zr  Zr3  1  0.24999211  0.98598838  0.31015211  1
  Fe  Fe0  1  0.24999732  0.85066389  0.93300221  1
  Fe  Fe1  1  0.74999484  0.14933385  0.06701472  1
  Fe  Fe2  1  0.75001930  0.64935488  0.43298690  1
  Fe  Fe3  1  0.24999757  0.35067293  0.56696714  1
  As  As0  1  0.24999057  0.72516562  0.61147331  1
  As  As1  1  0.74999346  0.27479680  0.38859750  1
  As  As2  1  0.74999342  0.77480432  0.11142804  1
  As  As3  1  0.24999697  0.22520556  0.88855613  1
loop_
_geom_bond_atom_site_label_1
_geom_bond_atom_site_label_2
_geom_bond_distance
_geom_bond_site_symmetry_2
Fe0 Zr2 2.854604 1_465
Fe0 Zr2 2.854716 1_565
Fe0 Zr3 2.907297 1_556
Fe0 Zr0 3.035516 1_556
Fe0 Zr1 3.075115 1_455
Fe0 Zr1 3.075187 1_555
Fe1 Zr3 2.854439 1_645
Fe1 Zr3 2.854473 1_545
Fe1 Zr2 2.907635 1_554
Fe1 Zr1 3.035633 1_554
Fe1 Zr0 3.075168 1_555
Fe1 Zr0 3.075184 1_655
Fe2 Zr0 2.854496 1_655
Fe2 Zr0 2.854613 1_555
Fe2 Zr1 2.907719 1_555
Fe2 Zr2 3.035230 1_565
Fe2 Zr3 3.075172 1_655
Fe2 Zr3 3.075288 1_555
Fe3 Zr1 2.854699 1_455
Fe3 Zr1 2.854778 1_555
Fe3 Zr0 2.907332 1_555
Fe3 Zr3 3.035334 1_545
Fe3 Zr2 3.075393 1_455
Fe3 Zr2 3.075459 1_555
As0 Fe2 2.405479 1_455
As0 Fe2 2.405669 1_555
As0 Fe3 2.463873 1_555
As0 Fe0 2.499380 1_555
As0 Zr2 2.775275 1_465
As0 Zr2 2.775416 1_565
As0 Zr3 2.791364 1_555
As0 Zr1 2.801730 1_455
As0 Zr1 2.801835 1_555
As1 Fe3 2.405185 1_555
As1 Fe3 2.405204 1_655
As1 Fe2 2.464182 1_555
As1 Fe1 2.499678 1_555
As1 Zr3 2.775355 1_645
As1 Zr3 2.775371 1_545
As1 Zr2 2.790656 1_555
As1 Zr0 2.802169 1_555
As1 Zr0 2.802205 1_655
As2 Fe0 2.405410 1_554
As2 Fe0 2.405450 1_654
As2 Fe1 2.464060 1_565
As2 Fe2 2.499578 1_555
As2 Zr0 2.775384 1_655
As2 Zr0 2.775384 1_555
As2 Zr1 2.790600 1_554
As2 Zr3 2.801892 1_655
As2 Zr3 2.801900 1_555
As3 Fe1 2.405563 1_556
As3 Fe1 2.405591 1_456
As3 Fe0 2.464171 1_545
As3 Fe3 2.499825 1_555
As3 Zr1 2.775296 1_455
As3 Zr1 2.775404 1_555
As3 Zr0 2.790712 1_556
As3 Zr2 2.801955 1_455
As3 Zr2 2.802052 1_555
