# generated using pymatgen
data_FeHO2
_symmetry_space_group_name_H-M   'P 1'
_cell_length_a   5.99734900
_cell_length_b   11.08392868
_cell_length_c   11.98384008
_cell_angle_alpha   85.47174425
_cell_angle_beta   89.82857866
_cell_angle_gamma   89.78687066
_symmetry_Int_Tables_number   1
_chemical_formula_structural   FeHO2
_chemical_formula_sum   'Fe16 H16 O32'
_cell_volume   794.12102143
_cell_formula_units_Z   16
loop_
 _symmetry_equiv_pos_site_id
 _symmetry_equiv_pos_as_xyz
  1  'x, y, z'
loop_
 _atom_site_type_symbol
 _atom_site_label
 _atom_site_symmetry_multiplicity
 _atom_site_fract_x
 _atom_site_fract_y
 _atom_site_fract_z
 _atom_site_occupancy
  Fe  Fe0  1  0.02439400  0.66498200  0.08958600  1
  Fe  Fe1  1  0.99664100  0.85986100  0.64618500  1
  Fe  Fe2  1  0.21304900  0.15734400  0.56421500  1
  Fe  Fe3  1  0.25391300  0.33052600  0.13031800  1
  Fe  Fe4  1  0.03179700  0.33170300  0.86876500  1
  Fe  Fe5  1  0.97453800  0.14110300  0.31536500  1
  Fe  Fe6  1  0.20836100  0.82644500  0.37845700  1
  Fe  Fe7  1  0.23944300  0.63921400  0.80822400  1
  Fe  Fe8  1  0.51590900  0.65774400  0.08691300  1
  Fe  Fe9  1  0.47508600  0.83446300  0.64185000  1
  Fe  Fe10  1  0.71204100  0.15761700  0.57747400  1
  Fe  Fe11  1  0.74518000  0.28914800  0.13126600  1
  Fe  Fe12  1  0.52129700  0.33908000  0.86221500  1
  Fe  Fe13  1  0.48987400  0.11215600  0.31058700  1
  Fe  Fe14  1  0.71445400  0.82196100  0.38992100  1
  Fe  Fe15  1  0.76191800  0.65577200  0.82306600  1
  H  H0  1  0.97060300  0.98959400  0.46581500  1
  H  H1  1  0.98130500  0.61139600  0.62644700  1
  H  H2  1  0.32168600  0.20236600  0.76186000  1
  H  H3  1  0.23291400  0.09341300  0.12399900  1
  H  H4  1  0.93682400  0.30963200  0.65187900  1
  H  H5  1  0.00126400  0.37148200  0.31759300  1
  H  H6  1  0.25225400  0.50414500  0.99630400  1
  H  H7  1  0.42620900  0.69938700  0.28134200  1
  H  H8  1  0.54161900  0.59376700  0.64200500  1
  H  H9  1  0.44495600  0.78124600  0.90449100  1
  H  H10  1  0.76435500  0.48137600  0.96652300  1
  H  H11  1  0.47639100  0.99112400  0.49801100  1
  H  H12  1  0.50485100  0.33803200  0.32050400  1
  H  H13  1  0.78564500  0.81148800  0.16703500  1
  H  H14  1  0.75318700  0.50414500  0.20585800  1
  H  H15  1  0.75994400  0.89444400  0.82939300  1
  O  O0  1  0.95349500  0.75300600  0.31433500  1
  O  O1  1  0.96970900  0.96653900  0.38628800  1
  O  O2  1  0.98545200  0.63533200  0.70256700  1
  O  O3  1  0.00898700  0.66929500  0.92537000  1
  O  O4  1  0.28042000  0.21963500  0.84036100  1
  O  O5  1  0.26192600  0.46124100  0.84601500  1
  O  O6  1  0.24117600  0.14208000  0.18814600  1
  O  O7  1  0.24014800  0.17233000  0.40278600  1
  O  O8  1  0.96220300  0.27878700  0.57800500  1
  O  O9  1  0.97278400  0.03589100  0.60605400  1
  O  O10  1  0.99591700  0.33102500  0.24842000  1
  O  O11  1  0.00080600  0.31079200  0.03060300  1
  O  O12  1  0.28164900  0.73921300  0.14627100  1
  O  O13  1  0.26336700  0.52009700  0.07716500  1
  O  O14  1  0.24474600  0.82378300  0.75828100  1
  O  O15  1  0.22437000  0.80786600  0.54048600  1
  O  O16  1  0.46136900  0.70656900  0.36112000  1
  O  O17  1  0.47041900  0.94254200  0.35349000  1
  O  O18  1  0.51550900  0.64293200  0.70445100  1
  O  O19  1  0.48843000  0.69580500  0.92071800  1
  O  O20  1  0.78311500  0.27673400  0.79576600  1
  O  O21  1  0.73930100  0.48316900  0.88563400  1
  O  O22  1  0.74226500  0.12791700  0.19961400  1
  O  O23  1  0.71632400  0.17276500  0.41289000  1
  O  O24  1  0.45107300  0.23383700  0.63178000  1
  O  O25  1  0.47256500  0.01361700  0.57711000  1
  O  O26  1  0.50502500  0.35093400  0.23891300  1
  O  O27  1  0.50380300  0.30794000  0.02667700  1
  O  O28  1  0.76434900  0.77976200  0.09327200  1
  O  O29  1  0.76672600  0.54358600  0.13026900  1
  O  O30  1  0.74562300  0.84035100  0.76948800  1
  O  O31  1  0.74171900  0.80685500  0.55101800  1
loop_
_geom_bond_atom_site_label_1
_geom_bond_atom_site_label_2
_geom_bond_distance
_geom_bond_site_symmetry_2
Fe0 O12 1.903353 1_555
Fe0 O3 1.967182 1_554
Fe0 O28 2.011584 1_455
Fe0 O29 2.084128 1_455
Fe0 O13 2.162054 1_555
Fe1 O15 1.975095 1_655
Fe1 O9 1.977052 1_565
Fe1 O14 2.025153 1_655
Fe1 O31 2.026365 1_555
Fe1 O30 2.105993 1_555
Fe2 O24 1.880570 1_555
Fe2 O7 1.934949 1_555
Fe2 O9 2.010836 1_455
Fe2 O8 2.030031 1_455
Fe2 O25 2.219965 1_555
Fe3 O11 1.958220 1_555
Fe3 O27 1.971415 1_555
Fe3 O26 2.018308 1_555
Fe3 O10 2.094118 1_455
Fe3 O13 2.147858 1_555
Fe3 O6 2.149687 1_555
Fe4 O20 1.860001 1_455
Fe4 O11 1.943420 1_556
Fe4 O4 1.982946 1_555
Fe4 O5 1.997838 1_555
Fe4 O21 2.442569 1_455
Fe5 O7 1.956067 1_655
Fe5 O22 1.982706 1_555
Fe5 O23 1.984219 1_555
Fe5 O1 2.051216 1_545
Fe5 O10 2.196851 1_555
Fe5 O6 2.205575 1_655
Fe6 O0 1.924705 1_455
Fe6 O15 1.939012 1_555
Fe6 O16 2.034143 1_555
Fe6 O17 2.041307 1_555
Fe6 O1 2.115231 1_455
Fe7 O2 1.986466 1_455
Fe7 O5 1.992966 1_555
Fe7 O3 2.012741 1_555
Fe7 O18 2.066290 1_555
Fe7 O14 2.085989 1_555
Fe7 O19 2.143178 1_555
Fe8 O12 1.838821 1_555
Fe8 O29 2.005100 1_555
Fe8 O19 2.010123 1_554
Fe8 O28 2.021605 1_555
Fe8 O13 2.163716 1_555
Fe9 O14 1.957753 1_555
Fe9 O31 1.968283 1_555
Fe9 O15 1.973361 1_555
Fe9 O25 2.074091 1_565
Fe9 O18 2.207743 1_555
Fe9 O30 2.237820 1_555
Fe10 O24 1.912517 1_555
Fe10 O23 1.966328 1_555
Fe10 O8 2.017702 1_555
Fe10 O9 2.073056 1_555
Fe10 O25 2.151379 1_555
Fe11 O22 1.906262 1_555
Fe11 O27 1.917640 1_555
Fe11 O11 1.951688 1_655
Fe11 O26 2.080539 1_555
Fe11 O10 2.137416 1_555
Fe12 O20 1.910120 1_555
Fe12 O27 1.976398 1_556
Fe12 O4 1.994876 1_555
Fe12 O5 2.058009 1_555
Fe12 O21 2.104121 1_555
Fe13 O17 1.913365 1_545
Fe13 O23 1.986344 1_555
Fe13 O7 2.001938 1_555
Fe13 O22 2.010861 1_555
Fe13 O6 2.102438 1_555
Fe14 O0 1.885013 1_555
Fe14 O31 1.931963 1_555
Fe14 O17 2.004001 1_555
Fe14 O16 2.036191 1_555
Fe14 O1 2.218158 1_555
Fe15 O3 1.939762 1_655
Fe15 O2 1.992896 1_555
Fe15 O21 2.003859 1_555
Fe15 O18 2.066588 1_555
Fe15 O19 2.078876 1_555
Fe15 O30 2.097337 1_555
H0 O1 1.006036 1_555
H1 O2 0.970325 1_555
H2 O4 1.004775 1_555
H2 O24 1.750078 1_555
H3 O6 0.974821 1_555
H4 O8 0.985087 1_555
H5 O10 0.973778 1_455
H6 O13 1.001120 1_556
H7 O16 0.989028 1_555
H8 O18 0.971882 1_555
H9 O19 0.985917 1_555
H10 O21 0.980020 1_555
H11 O25 0.999179 1_565
H12 O26 0.976938 1_555
H13 O28 0.985624 1_555
H14 O29 0.977525 1_555
H15 O30 0.975160 1_555
