# generated using pymatgen
data_Ba2TbWO6
_symmetry_space_group_name_H-M   'P 1'
_cell_length_a   5.97230934
_cell_length_b   5.97230934
_cell_length_c   5.97012197
_cell_angle_alpha   60.02653751
_cell_angle_beta   60.02653751
_cell_angle_gamma   60.00640789
_symmetry_Int_Tables_number   1
_chemical_formula_structural   Ba2TbWO6
_chemical_formula_sum   'Ba2 Tb1 W1 O6'
_cell_volume   150.64264208
_cell_formula_units_Z   1
loop_
 _symmetry_equiv_pos_site_id
 _symmetry_equiv_pos_as_xyz
  1  'x, y, z'
loop_
 _atom_site_type_symbol
 _atom_site_label
 _atom_site_symmetry_multiplicity
 _atom_site_fract_x
 _atom_site_fract_y
 _atom_site_fract_z
 _atom_site_occupancy
  Ba  Ba0  1  0.24979184  0.24979184  0.25032443  1
  Ba  Ba1  1  0.75020816  0.75020816  0.74967557  1
  Tb  Tb0  1  0.50000000  0.50000000  0.50000000  1
  W  W0  1  -0.00000000  0.00000000  -0.00000000  1
  O  O0  1  0.76629006  0.76629006  0.23003109  1
  O  O1  1  0.23370994  0.23370994  0.76996891  1
  O  O2  1  0.76435215  0.23187871  0.23580099  1
  O  O3  1  0.23564785  0.76812129  0.76419901  1
  O  O4  1  0.76812129  0.23564785  0.76419901  1
  O  O5  1  0.23187871  0.76435215  0.23580099  1
loop_
_geom_bond_atom_site_label_1
_geom_bond_atom_site_label_2
_geom_bond_distance
_geom_bond_site_symmetry_2
Ba0 O1 2.966863 1_554
Ba0 O3 2.976601 1_545
Ba0 O4 2.976601 1_455
Ba0 O2 2.979481 1_555
Ba0 O5 2.979481 1_555
Ba0 O0 2.989781 1_455
Ba0 O0 2.989781 1_545
Ba0 O5 2.999142 1_545
Ba0 O2 2.999142 1_455
Ba0 O4 3.003243 1_554
Ba0 O3 3.003243 1_554
Ba0 O1 3.009441 1_555
Ba1 O0 2.966863 1_556
Ba1 O2 2.976601 1_565
Ba1 O5 2.976601 1_655
Ba1 O3 2.979481 1_555
Ba1 O4 2.979481 1_555
Ba1 O1 2.989781 1_655
Ba1 O1 2.989781 1_565
Ba1 O3 2.999142 1_655
Ba1 O4 2.999142 1_565
Ba1 O2 3.003243 1_556
Ba1 O5 3.003243 1_556
Ba1 O0 3.009441 1_555
O0 W0 1.974754 1_665
O0 Tb0 2.250025 1_555
O1 W0 1.974754 1_556
O1 Tb0 2.250025 1_555
O2 W0 1.974841 1_655
O2 Tb0 2.247771 1_555
O3 W0 1.974841 1_566
O3 Tb0 2.247771 1_555
O4 W0 1.974841 1_656
O4 Tb0 2.247771 1_555
O5 W0 1.974841 1_565
O5 Tb0 2.247771 1_555
