# generated using pymatgen
data_YbNdO3
_symmetry_space_group_name_H-M   'P 1'
_cell_length_a   4.19172943
_cell_length_b   4.19172943
_cell_length_c   4.19172943
_cell_angle_alpha   90.00000000
_cell_angle_beta   90.00000000
_cell_angle_gamma   90.00000000
_symmetry_Int_Tables_number   1
_chemical_formula_structural   YbNdO3
_chemical_formula_sum   'Yb1 Nd1 O3'
_cell_volume   73.65118250
_cell_formula_units_Z   1
loop_
 _symmetry_equiv_pos_site_id
 _symmetry_equiv_pos_as_xyz
  1  'x, y, z'
loop_
 _atom_site_type_symbol
 _atom_site_label
 _atom_site_symmetry_multiplicity
 _atom_site_fract_x
 _atom_site_fract_y
 _atom_site_fract_z
 _atom_site_occupancy
  Yb  Yb0  1  0.49999800  0.49999800  0.49999800  1
  Nd  Nd0  1  0.00000000  0.00000000  0.00000000  1
  O  O0  1  0.49999800  0.49999800  0.00000000  1
  O  O1  1  0.49999800  0.00000000  0.49999800  1
  O  O2  1  0.00000000  0.49999800  0.49999800  1
loop_
_geom_bond_atom_site_label_1
_geom_bond_atom_site_label_2
_geom_bond_distance
_geom_bond_site_symmetry_2
Nd0 O2 2.963988 1_555
Nd0 O1 2.963988 1_555
Nd0 O0 2.963988 1_555
Nd0 O2 2.964000 1_545
Nd0 O1 2.964000 1_455
Nd0 O1 2.964000 1_554
Nd0 O0 2.964000 1_545
Nd0 O2 2.964000 1_554
Nd0 O0 2.964000 1_455
Nd0 O2 2.964012 1_544
Nd0 O1 2.964012 1_454
Nd0 O0 2.964012 1_445
O0 Yb0 2.095856 1_555
O0 Yb0 2.095873 1_554
O1 Yb0 2.095856 1_555
O1 Yb0 2.095873 1_545
O2 Yb0 2.095856 1_555
O2 Yb0 2.095873 1_455
