# generated using pymatgen
data_Cs8Mg(Sn2O3)4
_symmetry_space_group_name_H-M   'P 1'
_cell_length_a   6.25716715
_cell_length_b   9.51060436
_cell_length_c   14.40188876
_cell_angle_alpha   86.23874000
_cell_angle_beta   92.78376695
_cell_angle_gamma   91.74221439
_symmetry_Int_Tables_number   1
_chemical_formula_structural   Cs8Mg(Sn2O3)4
_chemical_formula_sum   'Cs8 Mg1 Sn8 O12'
_cell_volume   853.87457060
_cell_formula_units_Z   1
loop_
 _symmetry_equiv_pos_site_id
 _symmetry_equiv_pos_as_xyz
  1  'x, y, z'
loop_
 _atom_site_type_symbol
 _atom_site_label
 _atom_site_symmetry_multiplicity
 _atom_site_fract_x
 _atom_site_fract_y
 _atom_site_fract_z
 _atom_site_occupancy
  Cs  Cs0  1  0.22626409  0.55416458  0.38104425  1
  Cs  Cs1  1  0.73070333  0.45917740  0.62406423  1
  Cs  Cs2  1  0.73945062  0.01626155  0.13735035  1
  Cs  Cs3  1  0.25680174  0.93524067  0.85914773  1
  Cs  Cs4  1  0.42988835  0.31415454  0.05264135  1
  Cs  Cs5  1  0.78069811  0.63049804  0.89904914  1
  Cs  Cs6  1  0.74864468  0.85981896  0.41155286  1
  Cs  Cs7  1  0.22108724  0.15012813  0.59056145  1
  Mg  Mg0  1  0.97510708  0.39143876  0.15448715  1
  Sn  Sn0  1  0.21206503  0.80736628  0.15714782  1
  Sn  Sn1  1  0.75207800  0.18296276  0.84176935  1
  Sn  Sn2  1  0.74253895  0.29443662  0.36220419  1
  Sn  Sn3  1  0.23420697  0.70443868  0.63824285  1
  Sn  Sn4  1  0.24598366  0.11373581  0.30129771  1
  Sn  Sn5  1  0.74128612  0.88428557  0.69120525  1
  Sn  Sn6  1  0.68967277  0.62490119  0.21338224  1
  Sn  Sn7  1  0.25040530  0.37981702  0.78715658  1
  O  O0  1  0.00340102  0.27363222  0.27261102  1
  O  O1  1  0.49438115  0.74152331  0.73011275  1
  O  O2  1  0.95354732  0.76139634  0.24396062  1
  O  O3  1  0.48656789  0.23973298  0.75240696  1
  O  O4  1  0.99043535  0.74213016  0.72804206  1
  O  O5  1  0.51390864  0.23584747  0.26216537  1
  O  O6  1  0.99235112  0.24438484  0.75106717  1
  O  O7  1  0.46317922  0.76595679  0.25652399  1
  O  O8  1  0.21900427  0.02775723  0.17282416  1
  O  O9  1  0.75511936  0.96741836  0.82177012  1
  O  O10  1  0.71902567  0.51271285  0.34449940  1
  O  O11  1  0.23427993  0.48468090  0.65430487  1
loop_
_geom_bond_atom_site_label_1
_geom_bond_atom_site_label_2
_geom_bond_distance
_geom_bond_site_symmetry_2
Cs0 O7 3.012244 1_555
Cs0 O2 3.171882 1_455
Cs0 O10 3.193411 1_555
Cs0 O10 3.208550 1_455
Cs0 O0 3.407435 1_555
Cs1 O6 3.101808 1_555
Cs1 O3 3.111288 1_555
Cs1 O11 3.164043 1_655
Cs1 O11 3.176176 1_555
Cs1 O4 3.485944 1_555
Cs1 O1 3.567749 1_555
Cs2 O8 3.019159 1_655
Cs2 O2 3.088176 1_545
Cs2 O5 3.240747 1_555
Cs2 O8 3.326930 1_555
Cs2 O7 3.332121 1_545
Cs2 O0 3.547000 1_655
Cs3 O4 3.111161 1_455
Cs3 O1 3.153054 1_555
Cs3 O9 3.179639 1_455
Cs3 O9 3.192038 1_555
Cs3 O3 3.491970 1_565
Cs3 O6 3.640143 1_465
Cs4 O5 3.084067 1_555
Cs4 O8 3.397199 1_555
Cs5 O4 2.966674 1_555
Cs5 O1 3.098167 1_555
Cs5 O9 3.328353 1_555
Cs6 O7 2.957966 1_555
Cs6 O2 3.002611 1_555
Cs7 O3 2.952477 1_555
Cs7 O6 2.977704 1_455
Cs7 O11 3.366501 1_555
Mg0 O0 1.978258 1_655
O0 Sn2 2.150820 1_455
O0 Sn4 2.187287 1_555
O1 Sn3 2.083822 1_555
O1 Sn5 2.097856 1_555
O2 Sn0 2.110127 1_655
O2 Sn6 2.116445 1_555
O3 Sn1 2.112722 1_555
O3 Sn7 2.118510 1_555
O4 Sn3 2.100798 1_655
O4 Sn5 2.119768 1_555
O5 Sn2 2.071100 1_555
O5 Sn4 2.089109 1_555
O6 Sn1 2.084505 1_555
O6 Sn7 2.101492 1_655
O7 Sn0 2.101799 1_555
O7 Sn6 2.122427 1_555
O8 Sn4 2.068908 1_555
O8 Sn0 2.121765 1_545
O9 Sn5 2.084112 1_555
O9 Sn1 2.089502 1_565
O10 Sn2 2.083666 1_555
O10 Sn6 2.109946 1_555
O11 Sn3 2.087666 1_555
O11 Sn7 2.098242 1_555
