# generated using pymatgen
data_RbLu(MoO4)2
_symmetry_space_group_name_H-M   'P 1'
_cell_length_a   7.45732546
_cell_length_b   7.45732546
_cell_length_c   7.67739128
_cell_angle_alpha   61.93379358
_cell_angle_beta   61.93379358
_cell_angle_gamma   87.96754432
_symmetry_Int_Tables_number   1
_chemical_formula_structural   RbLu(MoO4)2
_chemical_formula_sum   'Rb2 Lu2 Mo4 O16'
_cell_volume   322.82803430
_cell_formula_units_Z   2
loop_
 _symmetry_equiv_pos_site_id
 _symmetry_equiv_pos_as_xyz
  1  'x, y, z'
loop_
 _atom_site_type_symbol
 _atom_site_label
 _atom_site_symmetry_multiplicity
 _atom_site_fract_x
 _atom_site_fract_y
 _atom_site_fract_z
 _atom_site_occupancy
  Rb  Rb0  1  0.19776400  0.80223600  0.75000000  1
  Rb  Rb1  1  0.80223600  0.19776400  0.25000000  1
  Lu  Lu0  1  0.77155300  0.22844700  0.75000000  1
  Lu  Lu1  1  0.22844700  0.77155300  0.25000000  1
  Mo  Mo0  1  0.69747000  0.69670500  0.76415500  1
  Mo  Mo1  1  0.30253000  0.30329600  0.23584500  1
  Mo  Mo2  1  0.30329500  0.30253000  0.73584500  1
  Mo  Mo3  1  0.69670500  0.69747000  0.26415500  1
  O  O0  1  0.61468900  0.76644000  0.56057100  1
  O  O1  1  0.38531100  0.23356000  0.43942900  1
  O  O2  1  0.23356000  0.38531100  0.93942900  1
  O  O3  1  0.76644000  0.61468900  0.06057100  1
  O  O4  1  0.38042200  0.06331300  0.88084200  1
  O  O5  1  0.61957800  0.93668700  0.11915800  1
  O  O6  1  0.93668700  0.61957800  0.61915800  1
  O  O7  1  0.06331300  0.38042200  0.38084200  1
  O  O8  1  0.58814500  0.36642300  0.96585000  1
  O  O9  1  0.41185500  0.63357700  0.03415000  1
  O  O10  1  0.63357700  0.41185500  0.53415000  1
  O  O11  1  0.36642300  0.58814500  0.46585000  1
  O  O12  1  0.79139200  0.95629700  0.69421400  1
  O  O13  1  0.20860800  0.04370300  0.30578600  1
  O  O14  1  0.04370300  0.20860800  0.80578600  1
  O  O15  1  0.95629700  0.79139200  0.19421400  1
loop_
_geom_bond_atom_site_label_1
_geom_bond_atom_site_label_2
_geom_bond_distance
_geom_bond_site_symmetry_2
Lu0 O8 2.246654 1_555
Lu0 O10 2.246654 1_555
Lu0 O14 2.249719 1_655
Lu0 O12 2.249719 1_545
Lu0 O7 2.323950 1_655
Lu0 O5 2.323950 1_546
Lu0 O6 2.714206 1_555
Lu0 O4 2.714206 1_555
Lu1 O11 2.246654 1_555
Lu1 O9 2.246654 1_555
Lu1 O13 2.249719 1_565
Lu1 O15 2.249719 1_455
Lu1 O4 2.323950 1_564
Lu1 O6 2.323950 1_455
Lu1 O5 2.714206 1_555
Lu1 O7 2.714206 1_555
Mo0 O0 1.792985 1_555
Mo0 O12 1.814001 1_555
Mo0 O6 1.847548 1_555
Mo0 O9 2.013293 1_556
Mo0 O8 2.120043 1_555
Mo0 O3 2.363639 1_556
Mo1 O1 1.792984 1_555
Mo1 O13 1.814008 1_555
Mo1 O7 1.847544 1_555
Mo1 O8 2.013295 1_554
Mo1 O9 2.120037 1_555
Mo1 O2 2.363640 1_554
Mo2 O2 1.792985 1_555
Mo2 O14 1.814001 1_555
Mo2 O4 1.847548 1_555
Mo2 O11 2.013293 1_555
Mo2 O10 2.120043 1_555
Mo2 O1 2.363639 1_555
Mo3 O3 1.792985 1_555
Mo3 O15 1.814001 1_555
Mo3 O5 1.847548 1_555
Mo3 O10 2.013293 1_555
Mo3 O11 2.120043 1_555
Mo3 O0 2.363639 1_555
O0 Rb0 2.811528 1_555
O0 Rb1 2.819874 1_565
O1 Rb1 2.811528 1_555
O1 Rb0 2.819874 1_545
O2 Rb0 2.811528 1_555
O2 Rb1 2.819874 1_456
O3 Rb1 2.811528 1_555
O3 Rb0 2.819874 1_654
O4 Rb0 3.157696 1_545
O5 Rb1 3.157696 1_565
O6 Rb0 3.157696 1_655
O7 Rb1 3.157696 1_455
O8 Rb1 3.072948 1_556
O9 Rb0 3.072948 1_554
O10 Rb1 3.072948 1_555
O11 Rb0 3.072948 1_555
O12 Rb1 2.975239 1_565
O12 Rb0 3.346390 1_655
O13 Rb0 2.975239 1_545
O13 Rb1 3.346390 1_455
O14 Rb1 2.975239 1_456
O14 Rb0 3.346390 1_545
O15 Rb0 2.975239 1_654
O15 Rb1 3.346390 1_565
