# generated using pymatgen
data_Cs2NdN5O17
_symmetry_space_group_name_H-M   'P 1'
_cell_length_a   7.58102048
_cell_length_b   7.58102048
_cell_length_c   17.31565324
_cell_angle_alpha   78.34980268
_cell_angle_beta   78.34980268
_cell_angle_gamma   76.36115703
_symmetry_Int_Tables_number   1
_chemical_formula_structural   Cs2NdN5O17
_chemical_formula_sum   'Cs4 Nd2 N10 O34'
_cell_volume   934.64436060
_cell_formula_units_Z   2
loop_
 _symmetry_equiv_pos_site_id
 _symmetry_equiv_pos_as_xyz
  1  'x, y, z'
loop_
 _atom_site_type_symbol
 _atom_site_label
 _atom_site_symmetry_multiplicity
 _atom_site_fract_x
 _atom_site_fract_y
 _atom_site_fract_z
 _atom_site_occupancy
  Cs  Cs0  1  0.73506000  0.66023700  0.57973600  1
  Cs  Cs1  1  0.33976300  0.26494000  0.92026400  1
  Cs  Cs2  1  0.26494000  0.33976300  0.42026400  1
  Cs  Cs3  1  0.66023700  0.73506000  0.07973600  1
  Nd  Nd0  1  0.06004400  0.93995600  0.75000000  1
  Nd  Nd1  1  0.93995600  0.06004400  0.25000000  1
  N  N0  1  0.38161400  0.61838600  0.75000000  1
  N  N1  1  0.61838600  0.38161400  0.25000000  1
  N  N2  1  0.71222200  0.73508900  0.84671800  1
  N  N3  1  0.26491100  0.28777800  0.65328200  1
  N  N4  1  0.28777800  0.26491100  0.15328200  1
  N  N5  1  0.73508900  0.71222200  0.34671800  1
  N  N6  1  0.15961900  0.83685800  0.93984200  1
  N  N7  1  0.16314200  0.84038100  0.56015800  1
  N  N8  1  0.84038100  0.16314200  0.06015800  1
  N  N9  1  0.83685800  0.15961900  0.43984200  1
  O  O0  1  0.51376700  0.48623300  0.75000000  1
  O  O1  1  0.48623300  0.51376700  0.25000000  1
  O  O2  1  0.21754400  0.59803300  0.78183100  1
  O  O3  1  0.40196700  0.78245600  0.71816900  1
  O  O4  1  0.78245600  0.40196700  0.21816900  1
  O  O5  1  0.59803300  0.21754400  0.28183100  1
  O  O6  1  0.62549400  0.62455000  0.88802900  1
  O  O7  1  0.37545000  0.37450600  0.61197100  1
  O  O8  1  0.37450600  0.37545000  0.11197100  1
  O  O9  1  0.62455000  0.62549400  0.38802900  1
  O  O10  1  0.83060900  0.72007500  0.78640600  1
  O  O11  1  0.27992500  0.16939100  0.71359400  1
  O  O12  1  0.16939100  0.27992500  0.21359400  1
  O  O13  1  0.72007500  0.83060900  0.28640600  1
  O  O14  1  0.67267100  0.91268200  0.87530800  1
  O  O15  1  0.08731800  0.32732900  0.62469200  1
  O  O16  1  0.32732900  0.08731800  0.12469200  1
  O  O17  1  0.91268200  0.67267100  0.37530800  1
  O  O18  1  0.06822900  0.71395200  0.94777600  1
  O  O19  1  0.28604800  0.93177100  0.55222400  1
  O  O20  1  0.93177100  0.28604800  0.05222400  1
  O  O21  1  0.71395200  0.06822900  0.44777600  1
  O  O22  1  0.23099100  0.86075600  0.99490300  1
  O  O23  1  0.13924400  0.76900900  0.50509700  1
  O  O24  1  0.76900900  0.13924400  0.00509700  1
  O  O25  1  0.86075600  0.23099100  0.49490300  1
  O  O26  1  0.18199100  0.94509900  0.87106400  1
  O  O27  1  0.05490100  0.81800900  0.62893600  1
  O  O28  1  0.81800900  0.05490100  0.12893600  1
  O  O29  1  0.94509900  0.18199100  0.37106400  1
  O  O30  1  0.77232900  0.03449300  0.82601500  1
  O  O31  1  0.96550700  0.22767100  0.67398500  1
  O  O32  1  0.22767100  0.96550700  0.17398500  1
  O  O33  1  0.03449300  0.77232900  0.32601500  1
loop_
_geom_bond_atom_site_label_1
_geom_bond_atom_site_label_2
_geom_bond_distance
_geom_bond_site_symmetry_2
Cs0 O3 3.214012 1_555
Cs0 O27 3.263307 1_655
Cs0 O0 3.274446 1_555
Cs0 O23 3.301663 1_655
Cs0 O15 3.312786 1_655
Cs0 O21 3.445760 1_565
Cs0 O17 3.514589 1_555
Cs0 O31 3.571760 1_555
Cs0 O19 3.606342 1_555
Cs0 O9 3.656624 1_555
Cs0 O25 3.682116 1_555
Cs0 O7 3.757393 1_555
Cs1 O2 3.214012 1_555
Cs1 O26 3.263307 1_545
Cs1 O0 3.274446 1_555
Cs1 O22 3.301663 1_545
Cs1 O14 3.312786 1_545
Cs1 O20 3.445760 1_456
Cs1 O16 3.514589 1_556
Cs1 O30 3.571760 1_555
Cs1 O18 3.606342 1_555
Cs1 O8 3.656624 1_556
Cs1 O24 3.682116 1_556
Cs1 O6 3.757393 1_555
Cs2 O5 3.214012 1_555
Cs2 O29 3.263307 1_455
Cs2 O1 3.274446 1_555
Cs2 O25 3.301663 1_455
Cs2 O17 3.312786 1_455
Cs2 O19 3.445760 1_545
Cs2 O15 3.514589 1_555
Cs2 O33 3.571760 1_555
Cs2 O21 3.606342 1_555
Cs2 O7 3.656624 1_555
Cs2 O23 3.682116 1_555
Cs2 O9 3.757393 1_555
Cs3 O4 3.214012 1_555
Cs3 O28 3.263307 1_565
Cs3 O1 3.274446 1_555
Cs3 O24 3.301663 1_565
Cs3 O16 3.312786 1_565
Cs3 O18 3.445760 1_654
Cs3 O14 3.514589 1_554
Cs3 O32 3.571760 1_555
Cs3 O20 3.606342 1_555
Cs3 O6 3.656624 1_554
Cs3 O22 3.682116 1_554
Cs3 O8 3.757393 1_555
Nd0 O31 2.342635 1_465
Nd0 O30 2.342635 1_465
Nd0 O27 2.466451 1_555
Nd0 O26 2.466451 1_555
Nd0 O2 2.584129 1_555
Nd0 O3 2.584129 1_555
Nd0 O10 2.588722 1_455
Nd0 O11 2.588722 1_565
Nd1 O33 2.342635 1_645
Nd1 O32 2.342635 1_645
Nd1 O29 2.466451 1_555
Nd1 O28 2.466451 1_555
Nd1 O5 2.584129 1_555
Nd1 O4 2.584129 1_555
Nd1 O13 2.588722 1_545
Nd1 O12 2.588722 1_655
N0 O0 1.238577 1_555
N0 O2 1.286066 1_555
N0 O3 1.286066 1_555
N1 O1 1.238577 1_555
N1 O5 1.286066 1_555
N1 O4 1.286066 1_555
N2 O6 1.214091 1_555
N2 O10 1.237088 1_555
N2 O14 1.471890 1_555
N3 O7 1.214091 1_555
N3 O11 1.237088 1_555
N3 O15 1.471890 1_555
N4 O8 1.214091 1_555
N4 O12 1.237088 1_555
N4 O16 1.471890 1_555
N5 O9 1.214091 1_555
N5 O13 1.237088 1_555
N5 O17 1.471890 1_555
N6 O22 1.248568 1_555
N6 O18 1.257518 1_555
N6 O26 1.307598 1_555
N7 O23 1.248568 1_555
N7 O19 1.257518 1_555
N7 O27 1.307598 1_555
N8 O24 1.248568 1_555
N8 O20 1.257518 1_555
N8 O28 1.307598 1_555
N9 O25 1.248568 1_555
N9 O21 1.257518 1_555
N9 O29 1.307598 1_555
O14 O30 1.379254 1_565
O15 O31 1.379254 1_455
O16 O32 1.379254 1_545
O17 O33 1.379254 1_655
