# generated using pymatgen
data_Ca2Bi3O8
_symmetry_space_group_name_H-M   'P 1'
_cell_length_a   6.82089455
_cell_length_b   6.82089455
_cell_length_c   5.81278916
_cell_angle_alpha   71.60320577
_cell_angle_beta   71.60320577
_cell_angle_gamma   59.81237797
_symmetry_Int_Tables_number   1
_chemical_formula_structural   Ca2Bi3O8
_chemical_formula_sum   'Ca2 Bi3 O8'
_cell_volume   217.71870125
_cell_formula_units_Z   1
loop_
 _symmetry_equiv_pos_site_id
 _symmetry_equiv_pos_as_xyz
  1  'x, y, z'
loop_
 _atom_site_type_symbol
 _atom_site_label
 _atom_site_symmetry_multiplicity
 _atom_site_fract_x
 _atom_site_fract_y
 _atom_site_fract_z
 _atom_site_occupancy
  Ca  Ca0  1  0.72077700  0.72077700  0.35562100  1
  Ca  Ca1  1  0.27922300  0.27922300  0.64437900  1
  Bi  Bi0  1  0.00000000  0.00000000  0.50000000  1
  Bi  Bi1  1  0.73744300  0.26255700  0.00000000  1
  Bi  Bi2  1  0.26255700  0.73744300  0.00000000  1
  O  O0  1  0.39586900  0.39586900  0.91370100  1
  O  O1  1  0.60413100  0.60413100  0.08629900  1
  O  O2  1  0.89137600  0.89137600  0.94122000  1
  O  O3  1  0.10862400  0.10862400  0.05878000  1
  O  O4  1  0.35447000  0.88712100  0.61347700  1
  O  O5  1  0.88712100  0.35447000  0.61347700  1
  O  O6  1  0.11287900  0.64553000  0.38652300  1
  O  O7  1  0.64553000  0.11287900  0.38652300  1
loop_
_geom_bond_atom_site_label_1
_geom_bond_atom_site_label_2
_geom_bond_distance
_geom_bond_site_symmetry_2
Ca0 O4 2.373886 1_555
Ca0 O5 2.373886 1_555
Ca0 O1 2.434313 1_555
Ca0 O6 2.512597 1_655
Ca0 O7 2.512597 1_565
Ca0 O2 2.516706 1_554
Ca1 O7 2.373886 1_555
Ca1 O6 2.373886 1_555
Ca1 O0 2.434313 1_555
Ca1 O5 2.512597 1_455
Ca1 O4 2.512597 1_545
Ca1 O3 2.516706 1_556
Bi0 O4 2.384879 1_545
Bi0 O5 2.384879 1_455
Bi0 O7 2.384879 1_455
Bi0 O6 2.384879 1_545
Bi0 O3 2.414317 1_555
Bi0 O2 2.414317 1_445
Bi1 O7 2.188635 1_555
Bi1 O5 2.188635 1_554
Bi1 O1 2.196787 1_555
Bi1 O0 2.196787 1_554
Bi1 O2 2.296810 1_544
Bi1 O3 2.296810 1_655
Bi2 O6 2.188635 1_555
Bi2 O4 2.188635 1_554
Bi2 O1 2.196787 1_555
Bi2 O0 2.196787 1_554
Bi2 O2 2.296810 1_454
Bi2 O3 2.296810 1_565
