# generated using pymatgen
data_Mg3Sb
_symmetry_space_group_name_H-M   'P 1'
_cell_length_a   6.25865952
_cell_length_b   6.25865952
_cell_length_c   5.43952100
_cell_angle_alpha   90.00000000
_cell_angle_beta   90.00000000
_cell_angle_gamma   119.99999493
_symmetry_Int_Tables_number   1
_chemical_formula_structural   Mg3Sb
_chemical_formula_sum   'Mg6 Sb2'
_cell_volume   184.52446873
_cell_formula_units_Z   2
loop_
 _symmetry_equiv_pos_site_id
 _symmetry_equiv_pos_as_xyz
  1  'x, y, z'
loop_
 _atom_site_type_symbol
 _atom_site_label
 _atom_site_symmetry_multiplicity
 _atom_site_fract_x
 _atom_site_fract_y
 _atom_site_fract_z
 _atom_site_occupancy
  Mg  Mg0  1  0.32915900  0.16457900  0.25000000  1
  Mg  Mg1  1  0.83542100  0.16457900  0.25000000  1
  Mg  Mg2  1  0.83542100  0.67084100  0.25000000  1
  Mg  Mg3  1  0.67084100  0.83542100  0.75000000  1
  Mg  Mg4  1  0.16457900  0.32915900  0.75000000  1
  Mg  Mg5  1  0.16457900  0.83542100  0.75000000  1
  Sb  Sb0  1  0.33333300  0.66666700  0.25000000  1
  Sb  Sb1  1  0.66666700  0.33333300  0.75000000  1
loop_
_geom_bond_atom_site_label_1
_geom_bond_atom_site_label_2
_geom_bond_distance
_geom_bond_site_symmetry_2
Mg0 Mg1 3.090138 1_455
Mg0 Mg2 3.090138 1_445
Mg0 Sb0 3.129405 1_545
Mg0 Sb0 3.129418 1_555
Mg0 Mg1 3.168521 1_555
Mg0 Mg2 3.168522 1_555
Mg0 Mg5 3.252702 1_544
Mg0 Mg5 3.252702 1_545
Mg0 Mg4 3.252708 1_554
Mg0 Mg4 3.252708 1_555
Mg0 Sb1 3.277744 1_554
Mg0 Sb1 3.277744 1_555
Mg1 Mg2 3.090138 1_545
Mg1 Sb0 3.129412 1_545
Mg1 Sb0 3.129412 1_655
Mg1 Mg2 3.168521 1_555
Mg1 Mg4 3.252702 1_655
Mg1 Mg3 3.252702 1_545
Mg1 Mg3 3.252702 1_544
Mg1 Mg4 3.252702 1_654
Mg1 Sb1 3.277744 1_554
Mg1 Sb1 3.277744 1_555
Mg2 Sb0 3.129405 1_655
Mg2 Sb0 3.129418 1_555
Mg2 Mg5 3.252702 1_654
Mg2 Mg5 3.252702 1_655
Mg2 Mg3 3.252708 1_555
Mg2 Mg3 3.252708 1_554
Mg2 Sb1 3.277744 1_554
Mg2 Sb1 3.277744 1_555
Mg3 Mg5 3.090138 1_655
Mg3 Mg4 3.090138 1_665
Mg3 Sb1 3.129405 1_565
Mg3 Sb1 3.129418 1_555
Mg3 Mg5 3.168521 1_555
Mg3 Mg4 3.168522 1_555
Mg3 Sb0 3.277744 1_555
Mg3 Sb0 3.277744 1_556
Mg4 Mg5 3.090138 1_545
Mg4 Sb1 3.129405 1_455
Mg4 Sb1 3.129418 1_555
Mg4 Mg5 3.168521 1_555
Mg4 Sb0 3.277744 1_555
Mg4 Sb0 3.277744 1_556
Mg5 Sb1 3.129412 1_455
Mg5 Sb1 3.129412 1_565
Mg5 Sb0 3.277744 1_555
Mg5 Sb0 3.277744 1_556
