# generated using pymatgen
data_BaSrSi
_symmetry_space_group_name_H-M   'P 1'
_cell_length_a   5.34991672
_cell_length_b   5.34991680
_cell_length_c   5.34991700
_cell_angle_alpha   60.00000493
_cell_angle_beta   60.00000448
_cell_angle_gamma   60.00000344
_symmetry_Int_Tables_number   1
_chemical_formula_structural   BaSrSi
_chemical_formula_sum   'Ba1 Sr1 Si1'
_cell_volume   108.27448791
_cell_formula_units_Z   1
loop_
 _symmetry_equiv_pos_site_id
 _symmetry_equiv_pos_as_xyz
  1  'x, y, z'
loop_
 _atom_site_type_symbol
 _atom_site_label
 _atom_site_symmetry_multiplicity
 _atom_site_fract_x
 _atom_site_fract_y
 _atom_site_fract_z
 _atom_site_occupancy
  Ba  Ba0  1  0.00000000  0.00000000  0.00000000  1
  Sr  Sr0  1  0.25000000  0.25000000  0.25000000  1
  Si  Si0  1  0.50000000  0.50000000  0.50000000  1
loop_
_geom_bond_atom_site_label_1
_geom_bond_atom_site_label_2
_geom_bond_distance
_geom_bond_site_symmetry_2
Ba0 Sr0 3.276142 1_555
Ba0 Sr0 3.276142 1_455
Ba0 Sr0 3.276142 1_545
Ba0 Sr0 3.276142 1_554
Ba0 Si0 3.782963 1_445
Ba0 Si0 3.782963 1_554
Ba0 Si0 3.782963 1_544
Ba0 Si0 3.782963 1_545
Ba0 Si0 3.782963 1_455
Ba0 Si0 3.782963 1_454
Si0 Sr0 3.276142 1_555
Si0 Sr0 3.276142 1_655
Si0 Sr0 3.276142 1_565
Si0 Sr0 3.276142 1_556
