# generated using pymatgen
data_NaCaMg6
_symmetry_space_group_name_H-M   'P 1'
_cell_length_a   5.38780800
_cell_length_b   6.63114100
_cell_length_c   11.78920700
_cell_angle_alpha   90.00000000
_cell_angle_beta   90.00000000
_cell_angle_gamma   90.00000000
_symmetry_Int_Tables_number   1
_chemical_formula_structural   NaCaMg6
_chemical_formula_sum   'Na2 Ca2 Mg12'
_cell_volume   421.19670654
_cell_formula_units_Z   2
loop_
 _symmetry_equiv_pos_site_id
 _symmetry_equiv_pos_as_xyz
  1  'x, y, z'
loop_
 _atom_site_type_symbol
 _atom_site_label
 _atom_site_symmetry_multiplicity
 _atom_site_fract_x
 _atom_site_fract_y
 _atom_site_fract_z
 _atom_site_occupancy
  Na  Na0  1  0.50000000  0.50000000  0.16666900  1
  Na  Na1  1  0.50000000  0.00000000  0.66666900  1
  Ca  Ca0  1  0.50000000  0.00000000  0.16742000  1
  Ca  Ca1  1  0.50000000  0.50000000  0.66742000  1
  Mg  Mg0  1  0.50000000  0.24715100  0.41855400  1
  Mg  Mg1  1  0.50000000  0.75284900  0.41855400  1
  Mg  Mg2  1  0.00000000  0.74797000  0.07825900  1
  Mg  Mg3  1  0.00000000  0.25203000  0.07825900  1
  Mg  Mg4  1  0.00000000  0.00000000  0.33689400  1
  Mg  Mg5  1  0.00000000  0.50000000  0.33538700  1
  Mg  Mg6  1  0.50000000  0.74715100  0.91855400  1
  Mg  Mg7  1  0.50000000  0.25284900  0.91855400  1
  Mg  Mg8  1  0.00000000  0.24797000  0.57825900  1
  Mg  Mg9  1  0.00000000  0.75203000  0.57825900  1
  Mg  Mg10  1  0.00000000  0.50000000  0.83689400  1
  Mg  Mg11  1  0.00000000  0.00000000  0.83538700  1
loop_
_geom_bond_atom_site_label_1
_geom_bond_atom_site_label_2
_geom_bond_distance
_geom_bond_site_symmetry_2
Ca0 Na0 3.315582 1_545
Ca0 Na0 3.315582 1_555
Ca0 Mg2 3.339921 1_545
Ca0 Mg3 3.339921 1_555
Ca0 Mg3 3.339921 1_655
Ca0 Mg2 3.339921 1_645
Ca0 Mg4 3.353950 1_555
Ca0 Mg4 3.353950 1_655
Ca0 Mg7 3.379232 1_554
Ca0 Mg6 3.379232 1_544
Ca0 Mg0 3.384013 1_555
Ca0 Mg1 3.384013 1_545
Ca1 Na1 3.315582 1_565
Ca1 Na1 3.315582 1_555
Ca1 Mg8 3.339921 1_655
Ca1 Mg8 3.339921 1_555
Ca1 Mg9 3.339921 1_655
Ca1 Mg9 3.339921 1_555
Ca1 Mg10 3.353950 1_655
Ca1 Mg10 3.353950 1_555
Ca1 Mg1 3.379232 1_555
Ca1 Mg0 3.379232 1_555
Ca1 Mg7 3.384013 1_555
Ca1 Mg6 3.384013 1_555
Mg0 Mg1 3.277786 1_545
Mg0 Mg8 3.286650 1_555
Mg0 Mg8 3.286650 1_655
Mg0 Mg4 3.296952 1_555
Mg0 Mg4 3.296952 1_655
Mg0 Mg5 3.321098 1_655
Mg0 Mg5 3.321098 1_555
Mg0 Na1 3.352918 1_555
Mg0 Mg1 3.353355 1_555
Mg0 Na0 3.410179 1_555
Mg1 Mg9 3.286650 1_655
Mg1 Mg9 3.286650 1_555
Mg1 Mg4 3.296952 1_665
Mg1 Mg4 3.296952 1_565
Mg1 Mg5 3.321098 1_655
Mg1 Mg5 3.321098 1_555
Mg1 Na1 3.352918 1_565
Mg1 Na0 3.410179 1_555
Mg2 Mg6 3.286650 1_554
Mg2 Mg6 3.286650 1_454
Mg2 Mg3 3.288648 1_555
Mg2 Na0 3.323744 1_555
Mg2 Na0 3.323744 1_455
Mg2 Mg3 3.342493 1_565
Mg2 Mg5 3.448593 1_555
Mg2 Mg4 3.477080 1_565
Mg3 Mg7 3.286650 1_554
Mg3 Mg7 3.286650 1_454
Mg3 Na0 3.323744 1_455
Mg3 Na0 3.323744 1_555
Mg3 Mg5 3.448593 1_555
Mg3 Mg4 3.477080 1_555
Mg4 Mg9 3.286439 1_545
Mg4 Mg8 3.286439 1_555
Mg4 Mg5 3.315618 1_555
Mg4 Mg5 3.315618 1_545
Mg5 Mg9 3.315324 1_555
Mg5 Mg8 3.315324 1_555
Mg5 Na0 3.348648 1_455
Mg5 Na0 3.348648 1_555
Mg6 Mg7 3.277786 1_555
Mg6 Na0 3.352918 1_556
Mg6 Mg7 3.353355 1_565
Mg6 Na1 3.410179 1_565
Mg7 Na0 3.352918 1_556
Mg7 Na1 3.410179 1_555
Mg8 Mg9 3.288648 1_545
Mg8 Na1 3.323744 1_555
Mg8 Na1 3.323744 1_455
Mg8 Mg9 3.342493 1_555
Mg9 Na1 3.323744 1_465
Mg9 Na1 3.323744 1_565
Mg10 Mg3 3.286439 1_556
Mg10 Mg2 3.286439 1_556
Mg10 Mg6 3.296952 1_455
Mg10 Mg6 3.296952 1_555
Mg10 Mg7 3.296952 1_455
Mg10 Mg7 3.296952 1_555
Mg10 Mg11 3.315618 1_565
Mg10 Mg11 3.315618 1_555
Mg10 Mg8 3.477080 1_555
Mg10 Mg9 3.477080 1_555
Mg11 Mg2 3.315324 1_546
Mg11 Mg3 3.315324 1_556
Mg11 Mg6 3.321098 1_445
Mg11 Mg6 3.321098 1_545
Mg11 Mg7 3.321098 1_455
Mg11 Mg7 3.321098 1_555
Mg11 Na1 3.348648 1_455
Mg11 Na1 3.348648 1_555
Mg11 Mg9 3.448593 1_545
Mg11 Mg8 3.448593 1_555
