# generated using pymatgen
data_Li9Mn2Co5O16
_symmetry_space_group_name_H-M   'P 1'
_cell_length_a   5.07663500
_cell_length_b   5.14373153
_cell_length_c   11.19616116
_cell_angle_alpha   81.30837491
_cell_angle_beta   86.30879535
_cell_angle_gamma   80.30257802
_symmetry_Int_Tables_number   1
_chemical_formula_structural   Li9Mn2Co5O16
_chemical_formula_sum   'Li9 Mn2 Co5 O16'
_cell_volume   284.64915405
_cell_formula_units_Z   1
loop_
 _symmetry_equiv_pos_site_id
 _symmetry_equiv_pos_as_xyz
  1  'x, y, z'
loop_
 _atom_site_type_symbol
 _atom_site_label
 _atom_site_symmetry_multiplicity
 _atom_site_fract_x
 _atom_site_fract_y
 _atom_site_fract_z
 _atom_site_occupancy
  Li  Li0  1  0.25558600  0.44326400  0.06457700  1
  Li  Li1  1  0.74193100  0.56524100  0.94122600  1
  Li  Li2  1  0.24868600  0.68738000  0.81338000  1
  Li  Li3  1  0.25265300  0.18680000  0.30452900  1
  Li  Li4  1  0.74588500  0.31578500  0.18298700  1
  Li  Li5  1  0.24927900  0.93655300  0.56494000  1
  Li  Li6  1  0.75151900  0.05922000  0.43657600  1
  Li  Li7  1  0.74991900  0.81298800  0.68891100  1
  Li  Li8  1  0.49996200  0.87353300  0.12578500  1
  Mn  Mn0  1  0.00111700  0.99061100  0.00537000  1
  Mn  Mn1  1  0.50143500  0.63346000  0.36873200  1
  Co  Co0  1  0.49973500  0.11530300  0.88287300  1
  Co  Co1  1  0.00060300  0.24515300  0.75082500  1
  Co  Co2  1  0.50211600  0.37530900  0.62780400  1
  Co  Co3  1  0.00143100  0.50362600  0.50040000  1
  Co  Co4  1  0.00117100  0.75124300  0.24833100  1
  O  O0  1  0.10292000  0.06888400  0.15488400  1
  O  O1  1  0.64032000  0.20743700  0.02083800  1
  O  O2  1  0.11803800  0.31451500  0.90764300  1
  O  O3  1  0.14522200  0.82607800  0.39771000  1
  O  O4  1  0.64251400  0.93595500  0.28503400  1
  O  O5  1  0.11946600  0.58016700  0.65196500  1
  O  O6  1  0.62514000  0.70457000  0.52289800  1
  O  O7  1  0.62447000  0.45560400  0.77345000  1
  O  O8  1  0.35015400  0.80090700  0.96802900  1
  O  O9  1  0.87607400  0.91544500  0.85138900  1
  O  O10  1  0.37305200  0.04961200  0.72242000  1
  O  O11  1  0.36190600  0.54468400  0.22932200  1
  O  O12  1  0.89231900  0.67879700  0.09712700  1
  O  O13  1  0.38181800  0.31115300  0.47003100  1
  O  O14  1  0.86453500  0.44033300  0.34473500  1
  O  O15  1  0.87902300  0.17038900  0.59527900  1
loop_
_geom_bond_atom_site_label_1
_geom_bond_atom_site_label_2
_geom_bond_distance
_geom_bond_site_symmetry_2
Li0 O12 2.072625 1_455
Li0 O8 2.100685 1_554
Li0 O11 2.116498 1_555
Li0 O2 2.163071 1_554
Li0 O1 2.187299 1_555
Li0 O0 2.268209 1_555
Li1 O1 2.052479 1_556
Li1 O9 2.120802 1_555
Li1 O12 2.144938 1_556
Li1 O2 2.162132 1_655
Li1 O8 2.176261 1_555
Li1 O7 2.186289 1_555
Li2 O8 2.031284 1_555
Li2 O9 2.105975 1_455
Li2 O7 2.132050 1_555
Li2 O5 2.139224 1_555
Li2 O10 2.155781 1_565
Li2 O2 2.226837 1_555
Li3 O11 2.054448 1_555
Li3 O0 2.092667 1_555
Li3 O3 2.123956 1_545
Li3 O4 2.190617 1_545
Li3 O13 2.220054 1_555
Li3 O14 2.232290 1_455
Li4 O0 2.066161 1_655
Li4 O1 2.103647 1_555
Li4 O14 2.161920 1_555
Li4 O11 2.176335 1_555
Li4 O12 2.190074 1_555
Li4 O4 2.234155 1_545
Li5 O15 2.091604 1_465
Li5 O10 2.101772 1_565
Li5 O5 2.128048 1_555
Li5 O6 2.138544 1_555
Li5 O3 2.158159 1_555
Li5 O13 2.240646 1_565
Li6 O4 2.037454 1_545
Li6 O6 2.110708 1_545
Li6 O15 2.117330 1_555
Li6 O13 2.139843 1_555
Li6 O3 2.204651 1_645
Li6 O14 2.218823 1_555
Li7 O5 2.101849 1_655
Li7 O7 2.114638 1_555
Li7 O10 2.131584 1_565
Li7 O9 2.133216 1_555
Li7 O15 2.154797 1_565
Li7 O6 2.179669 1_555
Li8 O4 2.055058 1_555
Li8 O8 2.075022 1_554
Li8 O11 2.097224 1_555
Li8 O12 2.101538 1_555
Li8 O0 2.123837 1_565
Li8 O1 2.129028 1_565
Mn0 O0 1.901738 1_565
Mn0 O12 1.913193 1_455
Mn0 O8 1.926685 1_554
Mn0 O9 1.987377 1_454
Mn0 O1 1.989495 1_465
Mn0 O2 2.005967 1_564
Mn1 O11 1.900863 1_555
Mn1 O4 1.913223 1_555
Mn1 O3 1.942958 1_555
Mn1 O14 1.963891 1_555
Mn1 O6 1.978701 1_555
Mn1 O13 2.021330 1_555
Co0 O1 1.896611 1_556
Co0 O8 1.988813 1_545
Co0 O10 2.039723 1_555
Co0 O9 2.047524 1_545
Co0 O2 2.056575 1_555
Co0 O7 2.142722 1_555
Co1 O2 1.990268 1_555
Co1 O15 1.995624 1_455
Co1 O10 2.016541 1_555
Co1 O7 2.050943 1_455
Co1 O9 2.058152 1_445
Co1 O5 2.060724 1_555
Co2 O7 1.906805 1_555
Co2 O13 1.996296 1_555
Co2 O10 2.025381 1_555
Co2 O15 2.061952 1_555
Co2 O5 2.070270 1_555
Co2 O6 2.073325 1_555
Co3 O5 1.950903 1_555
Co3 O14 2.007529 1_455
Co3 O6 2.032866 1_455
Co3 O15 2.043578 1_455
Co3 O13 2.048898 1_555
Co3 O3 2.080674 1_555
Co4 O12 1.921106 1_455
Co4 O0 1.931073 1_565
Co4 O4 1.955925 1_455
Co4 O11 1.972449 1_555
Co4 O3 1.981669 1_555
Co4 O14 1.989808 1_455
