# generated using pymatgen
data_Li7Mn(BO3)3
_symmetry_space_group_name_H-M   'P 1'
_cell_length_a   8.46431600
_cell_length_b   9.28140967
_cell_length_c   11.40943462
_cell_angle_alpha   71.60967961
_cell_angle_beta   79.11812413
_cell_angle_gamma   71.51020999
_symmetry_Int_Tables_number   1
_chemical_formula_structural   Li7Mn(BO3)3
_chemical_formula_sum   'Li28 Mn4 B12 O36'
_cell_volume   802.72163902
_cell_formula_units_Z   4
loop_
 _symmetry_equiv_pos_site_id
 _symmetry_equiv_pos_as_xyz
  1  'x, y, z'
loop_
 _atom_site_type_symbol
 _atom_site_label
 _atom_site_symmetry_multiplicity
 _atom_site_fract_x
 _atom_site_fract_y
 _atom_site_fract_z
 _atom_site_occupancy
  Li  Li0  1  0.58154700  0.83617400  0.24331600  1
  Li  Li1  1  0.41845300  0.16382600  0.75668400  1
  Li  Li2  1  0.65186100  0.99023900  0.95866900  1
  Li  Li3  1  0.34813900  0.00976100  0.04133100  1
  Li  Li4  1  0.94371600  0.15461100  0.48620400  1
  Li  Li5  1  0.05628400  0.84538900  0.51379600  1
  Li  Li6  1  0.16840400  0.57849300  0.95767900  1
  Li  Li7  1  0.83159600  0.42150700  0.04232100  1
  Li  Li8  1  0.79664200  0.95535800  0.40745600  1
  Li  Li9  1  0.20335800  0.04464200  0.59254400  1
  Li  Li10  1  0.98994200  0.34721900  0.61466800  1
  Li  Li11  1  0.01005800  0.65278100  0.38533200  1
  Li  Li12  1  0.67473000  0.34589300  0.69437000  1
  Li  Li13  1  0.32527000  0.65410700  0.30563000  1
  Li  Li14  1  0.49499200  0.91878500  0.62032900  1
  Li  Li15  1  0.50500800  0.08121500  0.37967100  1
  Li  Li16  1  0.78730600  0.89228600  0.65017900  1
  Li  Li17  1  0.21269400  0.10771400  0.34982100  1
  Li  Li18  1  0.88980200  0.83592900  0.19189000  1
  Li  Li19  1  0.11019800  0.16407100  0.80811000  1
  Li  Li20  1  0.96257700  0.88931100  0.96638500  1
  Li  Li21  1  0.03742300  0.11068900  0.03361500  1
  Li  Li22  1  0.15486500  0.73391100  0.72698800  1
  Li  Li23  1  0.84513500  0.26608900  0.27301200  1
  Li  Li24  1  0.80029900  0.23953200  0.89931900  1
  Li  Li25  1  0.19970100  0.76046800  0.10068100  1
  Li  Li26  1  0.83085400  0.70534000  0.87447600  1
  Li  Li27  1  0.16914600  0.29466000  0.12552400  1
  Mn  Mn0  1  0.53870100  0.60639000  0.84364500  1
  Mn  Mn1  1  0.46129900  0.39361000  0.15635500  1
  Mn  Mn2  1  0.70334600  0.52899200  0.41934900  1
  Mn  Mn3  1  0.29665400  0.47100800  0.58065100  1
  B  B0  1  0.77926200  0.66069800  0.60089400  1
  B  B1  1  0.22073800  0.33930200  0.39910600  1
  B  B2  1  0.90657400  0.02515600  0.73688200  1
  B  B3  1  0.09342600  0.97484400  0.26311800  1
  B  B4  1  0.45270400  0.30308800  0.93090400  1
  B  B5  1  0.54729600  0.69691200  0.06909600  1
  B  B6  1  0.37777600  0.78170400  0.47958800  1
  B  B7  1  0.62222400  0.21829600  0.52041200  1
  B  B8  1  0.94388300  0.57504200  0.17440700  1
  B  B9  1  0.05611700  0.42495800  0.82559300  1
  B  B10  1  0.26724600  0.89919100  0.84563600  1
  B  B11  1  0.73275400  0.10080900  0.15436400  1
  O  O0  1  0.29025300  0.74279600  0.84798800  1
  O  O1  1  0.70974700  0.25720400  0.15201200  1
  O  O2  1  0.88290300  0.74699500  0.52173700  1
  O  O3  1  0.11709700  0.25300500  0.47826300  1
  O  O4  1  0.27307100  0.70305800  0.56817700  1
  O  O5  1  0.72692900  0.29694200  0.43182300  1
  O  O6  1  0.82572200  0.92670100  0.82910700  1
  O  O7  1  0.17427800  0.07329900  0.17089300  1
  O  O8  1  0.67296100  0.72580600  0.69253300  1
  O  O9  1  0.32703900  0.27419400  0.30746700  1
  O  O10  1  0.47744900  0.70797200  0.39067100  1
  O  O11  1  0.52255100  0.29202800  0.60932900  1
  O  O12  1  0.17905900  0.95277100  0.94746600  1
  O  O13  1  0.82094100  0.04722900  0.05253400  1
  O  O14  1  0.37129500  0.93376000  0.47626800  1
  O  O15  1  0.62870500  0.06624000  0.52373200  1
  O  O16  1  0.99492800  0.96746300  0.63619900  1
  O  O17  1  0.00507200  0.03253700  0.36380100  1
  O  O18  1  0.68179800  0.99361200  0.25907600  1
  O  O19  1  0.31820200  0.00638800  0.74092400  1
  O  O20  1  0.65624500  0.62166300  0.98408100  1
  O  O21  1  0.34375500  0.37833700  0.01591900  1
  O  O22  1  0.95502600  0.42684200  0.16850200  1
  O  O23  1  0.04497400  0.57315800  0.83149800  1
  O  O24  1  0.98190700  0.31938300  0.91798500  1
  O  O25  1  0.01809300  0.68061700  0.08201500  1
  O  O26  1  0.85597300  0.63116800  0.27722100  1
  O  O27  1  0.14402700  0.36883200  0.72277900  1
  O  O28  1  0.77713200  0.51658700  0.58862400  1
  O  O29  1  0.22286800  0.48341300  0.41137600  1
  O  O30  1  0.44696200  0.16170100  0.92053800  1
  O  O31  1  0.55303800  0.83829900  0.07946200  1
  O  O32  1  0.90090700  0.17436600  0.74081000  1
  O  O33  1  0.09909300  0.82563400  0.25919000  1
  O  O34  1  0.57530600  0.37366000  0.85595100  1
  O  O35  1  0.42469400  0.62634000  0.14404900  1
loop_
_geom_bond_atom_site_label_1
_geom_bond_atom_site_label_2
_geom_bond_distance
_geom_bond_site_symmetry_2
Li0 O31 1.922921 1_555
Li0 O10 1.965244 1_555
Li0 O18 1.974205 1_555
Li0 O26 2.497424 1_555
Li1 O30 1.922921 1_555
Li1 O11 1.965244 1_555
Li1 O19 1.974205 1_555
Li1 O27 2.497424 1_555
Li2 O31 1.916865 1_556
Li2 O30 1.956317 1_565
Li2 O6 1.968966 1_555
Li2 O13 2.211597 1_566
Li3 O30 1.916865 1_554
Li3 O31 1.956317 1_545
Li3 O7 1.968966 1_555
Li3 O12 2.211597 1_544
Li4 O3 1.934830 1_655
Li4 O17 1.963450 1_655
Li4 O5 1.967827 1_555
Li4 O16 2.015110 1_545
Li5 O2 1.934830 1_455
Li5 O16 1.963450 1_455
Li5 O4 1.967827 1_555
Li5 O17 2.015110 1_565
Li6 O23 1.952497 1_555
Li6 O25 1.982836 1_556
Li6 O21 1.985002 1_556
Li6 O0 2.064344 1_555
Li7 O22 1.952497 1_555
Li7 O24 1.982836 1_554
Li7 O20 1.985002 1_554
Li7 O1 2.064344 1_555
Li8 O2 1.961117 1_555
Li8 O18 1.990021 1_555
Li8 O15 2.015263 1_565
Li8 O17 2.029369 1_665
Li9 O3 1.961117 1_555
Li9 O19 1.990021 1_555
Li9 O14 2.015263 1_545
Li9 O16 2.029369 1_445
Li10 O28 1.978741 1_555
Li10 O3 1.993595 1_655
Li10 O32 2.028191 1_555
Li10 O27 2.047488 1_655
Li11 O29 1.978741 1_555
Li11 O2 1.993595 1_455
Li11 O33 2.028191 1_555
Li11 O26 2.047488 1_455
Li12 O34 1.936426 1_555
Li12 O28 1.996730 1_555
Li12 O11 2.009218 1_555
Li12 O32 2.097121 1_555
Li13 O35 1.936426 1_555
Li13 O29 1.996730 1_555
Li13 O10 2.009218 1_555
Li13 O33 2.097121 1_555
Li14 O15 1.982021 1_565
Li14 O19 1.987530 1_565
Li14 O8 1.995531 1_555
Li14 O14 2.056811 1_555
Li15 O14 1.982021 1_545
Li15 O18 1.987530 1_545
Li15 O9 1.995531 1_555
Li15 O15 2.056811 1_555
Li16 O8 1.964338 1_555
Li16 O16 2.049966 1_555
Li16 O15 2.092139 1_565
Li16 O2 2.174365 1_555
Li16 O6 2.259052 1_555
Li17 O9 1.964338 1_555
Li17 O17 2.049966 1_555
Li17 O14 2.092139 1_545
Li17 O3 2.174365 1_555
Li17 O7 2.259052 1_555
Li18 O26 1.927191 1_555
Li18 O33 2.024079 1_655
Li18 O13 2.090758 1_565
Li18 O18 2.096004 1_555
Li18 O25 2.112365 1_655
Li19 O27 1.927191 1_555
Li19 O32 2.024079 1_455
Li19 O12 2.090758 1_545
Li19 O19 2.096004 1_555
Li19 O24 2.112365 1_455
Li20 O25 1.938433 1_656
Li20 O13 1.975154 1_566
Li20 O6 2.000642 1_555
Li20 O12 2.050874 1_655
Li21 O24 1.938433 1_454
Li21 O12 1.975154 1_544
Li21 O7 2.000642 1_555
Li21 O13 2.050874 1_455
Li22 O4 1.956368 1_555
Li22 O23 1.962657 1_555
Li22 O0 1.988730 1_555
Li22 O16 2.203613 1_455
Li23 O5 1.956368 1_555
Li23 O22 1.962657 1_555
Li23 O1 1.988730 1_555
Li23 O17 2.203613 1_655
Li24 O34 1.970983 1_555
Li24 O24 1.975695 1_555
Li24 O32 2.035604 1_555
Li24 O13 2.054473 1_556
Li25 O35 1.970983 1_555
Li25 O25 1.975695 1_555
Li25 O33 2.035604 1_555
Li25 O12 2.054473 1_554
Li26 O23 1.914166 1_655
Li26 O20 1.941318 1_555
Li26 O6 1.942116 1_555
Li27 O22 1.914166 1_455
Li27 O21 1.941318 1_555
Li27 O7 1.942116 1_555
Mn0 O34 2.045030 1_555
Mn0 O0 2.083082 1_555
Mn0 O8 2.084658 1_555
Mn0 O20 2.100479 1_555
Mn1 O35 2.045030 1_555
Mn1 O1 2.083082 1_555
Mn1 O9 2.084658 1_555
Mn1 O21 2.100479 1_555
Mn2 O26 2.052719 1_555
Mn2 O5 2.059946 1_555
Mn2 O10 2.097907 1_555
Mn2 O28 2.098302 1_555
Mn3 O27 2.052719 1_555
Mn3 O4 2.059946 1_555
Mn3 O11 2.097907 1_555
Mn3 O29 2.098302 1_555
B0 O2 1.384503 1_555
B0 O28 1.394048 1_555
B0 O8 1.402326 1_555
B1 O3 1.384503 1_555
B1 O29 1.394048 1_555
B1 O9 1.402326 1_555
B2 O32 1.385069 1_555
B2 O6 1.388752 1_545
B2 O16 1.405480 1_545
B3 O33 1.385069 1_555
B3 O7 1.388752 1_565
B3 O17 1.405480 1_565
B4 O30 1.370751 1_555
B4 O21 1.400092 1_556
B4 O34 1.407083 1_555
B5 O31 1.370751 1_555
B5 O20 1.400092 1_554
B5 O35 1.407083 1_555
B6 O14 1.383526 1_555
B6 O4 1.395155 1_555
B6 O10 1.399280 1_555
B7 O15 1.383526 1_555
B7 O5 1.395155 1_555
B7 O11 1.399280 1_555
B8 O22 1.370852 1_555
B8 O25 1.398060 1_655
B8 O26 1.418183 1_555
B9 O23 1.370852 1_555
B9 O24 1.398060 1_455
B9 O27 1.418183 1_555
B10 O19 1.389553 1_565
B10 O0 1.394198 1_555
B10 O12 1.398567 1_555
B11 O18 1.389553 1_545
B11 O1 1.394198 1_555
B11 O13 1.398567 1_555
