# generated using pymatgen
data_CoH20C4SO10
_symmetry_space_group_name_H-M   'P 1'
_cell_length_a   13.51475258
_cell_length_b   13.51475258
_cell_length_c   13.51475267
_cell_angle_alpha   72.53700472
_cell_angle_beta   72.53700472
_cell_angle_gamma   72.53700378
_symmetry_Int_Tables_number   1
_chemical_formula_structural   CoH20C4SO10
_chemical_formula_sum   'Co6 H120 C24 S6 O60'
_cell_volume   2185.50092752
_cell_formula_units_Z   6
loop_
 _symmetry_equiv_pos_site_id
 _symmetry_equiv_pos_as_xyz
  1  'x, y, z'
loop_
 _atom_site_type_symbol
 _atom_site_label
 _atom_site_symmetry_multiplicity
 _atom_site_fract_x
 _atom_site_fract_y
 _atom_site_fract_z
 _atom_site_occupancy
  Co  Co0  1  0.42230758  0.07769771  0.75004003  1
  Co  Co1  1  0.07769771  0.75004003  0.42230758  1
  Co  Co2  1  0.75004003  0.42230758  0.07769771  1
  Co  Co3  1  0.92230758  0.25004003  0.57769771  1
  Co  Co4  1  0.25004003  0.57769771  0.92230758  1
  Co  Co5  1  0.57769771  0.92230758  0.25004003  1
  H  H0  1  0.58998923  0.08194311  0.81806580  1
  H  H1  1  0.08194311  0.81806580  0.58998923  1
  H  H2  1  0.81806580  0.58998923  0.08194311  1
  H  H3  1  0.08998923  0.31806580  0.58194311  1
  H  H4  1  0.31806580  0.58194311  0.08998923  1
  H  H5  1  0.58194311  0.08998923  0.31806580  1
  H  H6  1  0.40969467  0.91817653  0.18177449  1
  H  H7  1  0.91817653  0.18177449  0.40969467  1
  H  H8  1  0.18177449  0.40969467  0.91817653  1
  H  H9  1  0.90969467  0.68177449  0.41817653  1
  H  H10  1  0.68177449  0.41817653  0.90969467  1
  H  H11  1  0.41817653  0.90969467  0.68177449  1
  H  H12  1  0.58298632  0.13654067  0.57732597  1
  H  H13  1  0.13654067  0.57732597  0.58298632  1
  H  H14  1  0.57732597  0.58298632  0.13654067  1
  H  H15  1  0.08298632  0.07732597  0.63654067  1
  H  H16  1  0.07732597  0.63654067  0.08298632  1
  H  H17  1  0.63654067  0.08298632  0.07732597  1
  H  H18  1  0.41700222  0.86346438  0.42270927  1
  H  H19  1  0.86346438  0.42270927  0.41700222  1
  H  H20  1  0.42270927  0.41700222  0.86346438  1
  H  H21  1  0.91700222  0.92270927  0.36346438  1
  H  H22  1  0.92270927  0.36346438  0.91700222  1
  H  H23  1  0.36346438  0.91700222  0.92270927  1
  H  H24  1  0.58631470  0.93055772  0.95881074  1
  H  H25  1  0.93055772  0.95881074  0.58631470  1
  H  H26  1  0.95881074  0.58631470  0.93055772  1
  H  H27  1  0.08631470  0.45881074  0.43055772  1
  H  H28  1  0.45881074  0.43055772  0.08631470  1
  H  H29  1  0.43055772  0.08631470  0.45881074  1
  H  H30  1  0.41354024  0.06961761  0.04105289  1
  H  H31  1  0.06961761  0.04105289  0.41354024  1
  H  H32  1  0.04105289  0.41354024  0.06961761  1
  H  H33  1  0.91354024  0.54105289  0.56961761  1
  H  H34  1  0.54105289  0.56961761  0.91354024  1
  H  H35  1  0.56961761  0.91354024  0.54105289  1
  H  H36  1  0.68639850  0.89895727  0.84319463  1
  H  H37  1  0.89895727  0.84319463  0.68639850  1
  H  H38  1  0.84319463  0.68639850  0.89895727  1
  H  H39  1  0.18639850  0.34319463  0.39895727  1
  H  H40  1  0.34319463  0.39895727  0.18639850  1
  H  H41  1  0.39895727  0.18639850  0.34319463  1
  H  H42  1  0.31344377  0.10122354  0.15668557  1
  H  H43  1  0.10122354  0.15668557  0.31344377  1
  H  H44  1  0.15668557  0.31344377  0.10122354  1
  H  H45  1  0.81344377  0.65668557  0.60122354  1
  H  H46  1  0.65668557  0.60122354  0.81344377  1
  H  H47  1  0.60122354  0.81344377  0.65668557  1
  H  H48  1  0.55907205  0.86784929  0.87423614  1
  H  H49  1  0.86784929  0.87423614  0.55907205  1
  H  H50  1  0.87423614  0.55907205  0.86784929  1
  H  H51  1  0.05907205  0.37423614  0.36784929  1
  H  H52  1  0.37423614  0.36784929  0.05907205  1
  H  H53  1  0.36784929  0.05907205  0.37423614  1
  H  H54  1  0.44085490  0.13213926  0.12573964  1
  H  H55  1  0.13213926  0.12573964  0.44085490  1
  H  H56  1  0.12573964  0.44085490  0.13213926  1
  H  H57  1  0.94085490  0.62573964  0.63213926  1
  H  H58  1  0.62573964  0.63213926  0.94085490  1
  H  H59  1  0.63213926  0.94085490  0.62573964  1
  H  H60  1  0.39209050  0.30297083  0.60934580  1
  H  H61  1  0.30297083  0.60934580  0.39209050  1
  H  H62  1  0.60934580  0.39209050  0.30297083  1
  H  H63  1  0.89209050  0.10934580  0.80297083  1
  H  H64  1  0.10934580  0.80297083  0.89209050  1
  H  H65  1  0.80297083  0.89209050  0.10934580  1
  H  H66  1  0.60791043  0.69704002  0.39065367  1
  H  H67  1  0.69704002  0.39065367  0.60791043  1
  H  H68  1  0.39065367  0.60791043  0.69704002  1
  H  H69  1  0.10791043  0.89065367  0.19704002  1
  H  H70  1  0.89065367  0.19704002  0.10791043  1
  H  H71  1  0.19704002  0.10791043  0.89065367  1
  H  H72  1  0.47020662  0.27695254  0.48278423  1
  H  H73  1  0.27695254  0.48278423  0.47020662  1
  H  H74  1  0.48278423  0.47020662  0.27695254  1
  H  H75  1  0.97020662  0.98278423  0.77695254  1
  H  H76  1  0.98278423  0.77695254  0.97020662  1
  H  H77  1  0.77695254  0.97020662  0.98278423  1
  H  H78  1  0.52979467  0.72304671  0.51720773  1
  H  H79  1  0.72304671  0.51720773  0.52979467  1
  H  H80  1  0.51720773  0.52979467  0.72304671  1
  H  H81  1  0.02979467  0.01720773  0.22304671  1
  H  H82  1  0.01720773  0.22304671  0.02979467  1
  H  H83  1  0.22304671  0.02979467  0.01720773  1
  H  H84  1  0.52562376  0.32154225  0.56244622  1
  H  H85  1  0.32154225  0.56244622  0.52562376  1
  H  H86  1  0.56244622  0.52562376  0.32154225  1
  H  H87  1  0.02562376  0.06244622  0.82154225  1
  H  H88  1  0.06244622  0.82154225  0.02562376  1
  H  H89  1  0.82154225  0.02562376  0.06244622  1
  H  H90  1  0.47436981  0.67846032  0.43754446  1
  H  H91  1  0.67846032  0.43754446  0.47436981  1
  H  H92  1  0.43754446  0.47436981  0.67846032  1
  H  H93  1  0.97436981  0.93754446  0.17846032  1
  H  H94  1  0.93754446  0.17846032  0.97436981  1
  H  H95  1  0.17846032  0.97436981  0.93754446  1
  H  H96  1  0.41538835  0.23693938  0.83941314  1
  H  H97  1  0.23693938  0.83941314  0.41538835  1
  H  H98  1  0.83941314  0.41538835  0.23693938  1
  H  H99  1  0.91538835  0.33941314  0.73693938  1
  H  H100  1  0.33941314  0.73693938  0.91538835  1
  H  H101  1  0.73693938  0.91538835  0.33941314  1
  H  H102  1  0.58448506  0.76338514  0.16077275  1
  H  H103  1  0.76338514  0.16077275  0.58448506  1
  H  H104  1  0.16077275  0.58448506  0.76338514  1
  H  H105  1  0.08448506  0.66077275  0.26338514  1
  H  H106  1  0.66077275  0.26338514  0.08448506  1
  H  H107  1  0.26338514  0.08448506  0.66077275  1
  H  H108  1  0.29696650  0.25808628  0.82101512  1
  H  H109  1  0.25808628  0.82101512  0.29696650  1
  H  H110  1  0.82101512  0.29696650  0.25808628  1
  H  H111  1  0.79696650  0.32101512  0.75808628  1
  H  H112  1  0.32101512  0.75808628  0.79696650  1
  H  H113  1  0.75808628  0.79696650  0.32101512  1
  H  H114  1  0.70293206  0.74220912  0.17921181  1
  H  H115  1  0.74220912  0.17921181  0.70293206  1
  H  H116  1  0.17921181  0.70293206  0.74220912  1
  H  H117  1  0.20293206  0.67921181  0.24220912  1
  H  H118  1  0.67921181  0.24220912  0.20293206  1
  H  H119  1  0.24220912  0.20293206  0.67921181  1
  C  C0  1  0.60034632  0.92569763  0.87582985  1
  C  C1  1  0.92569763  0.87582985  0.60034632  1
  C  C2  1  0.87582985  0.60034632  0.92569763  1
  C  C3  1  0.10034632  0.37582985  0.42569763  1
  C  C4  1  0.37582985  0.42569763  0.10034632  1
  C  C5  1  0.42569763  0.10034632  0.37582985  1
  C  C6  1  0.39949667  0.07438907  0.12407765  1
  C  C7  1  0.07438907  0.12407765  0.39949667  1
  C  C8  1  0.12407765  0.39949667  0.07438907  1
  C  C9  1  0.89949667  0.62407765  0.57438907  1
  C  C10  1  0.62407765  0.57438907  0.89949667  1
  C  C11  1  0.57438907  0.89949667  0.62407765  1
  C  C12  1  0.47266647  0.27274694  0.56446373  1
  C  C13  1  0.27274694  0.56446373  0.47266647  1
  C  C14  1  0.56446373  0.47266647  0.27274694  1
  C  C15  1  0.97266647  0.06446373  0.77274694  1
  C  C16  1  0.06446373  0.77274694  0.97266647  1
  C  C17  1  0.77274694  0.97266647  0.06446373  1
  C  C18  1  0.52732503  0.72725369  0.43553332  1
  C  C19  1  0.72725369  0.43553332  0.52732503  1
  C  C20  1  0.43553332  0.52732503  0.72725369  1
  C  C21  1  0.02732503  0.93553332  0.22725369  1
  C  C22  1  0.93553332  0.22725369  0.02732503  1
  C  C23  1  0.22725369  0.02732503  0.93553332  1
  S  S0  1  0.10938836  0.39061192  0.74999233  1
  S  S1  1  0.39061192  0.74999233  0.10938836  1
  S  S2  1  0.74999233  0.10938836  0.39061192  1
  S  S3  1  0.60938836  0.24999233  0.89061192  1
  S  S4  1  0.24999233  0.89061192  0.60938836  1
  S  S5  1  0.89061192  0.60938836  0.24999233  1
  O  O0  1  0.55909882  0.02678788  0.81107723  1
  O  O1  1  0.02678788  0.81107723  0.55909882  1
  O  O2  1  0.81107723  0.55909882  0.02678788  1
  O  O3  1  0.05909882  0.31107723  0.52678788  1
  O  O4  1  0.31107723  0.52678788  0.05909882  1
  O  O5  1  0.52678788  0.05909882  0.31107723  1
  O  O6  1  0.44069808  0.97324214  0.18879066  1
  O  O7  1  0.97324214  0.18879066  0.44069808  1
  O  O8  1  0.18879066  0.44069808  0.97324214  1
  O  O9  1  0.94069808  0.68879066  0.47324214  1
  O  O10  1  0.68879066  0.47324214  0.94069808  1
  O  O11  1  0.47324214  0.94069808  0.68879066  1
  O  O12  1  0.50960650  0.16458515  0.61772751  1
  O  O13  1  0.16458515  0.61772751  0.50960650  1
  O  O14  1  0.61772751  0.50960650  0.16458515  1
  O  O15  1  0.00960650  0.11772751  0.66458515  1
  O  O16  1  0.11772751  0.66458515  0.00960650  1
  O  O17  1  0.66458515  0.00960650  0.11772751  1
  O  O18  1  0.49038492  0.83541806  0.38228666  1
  O  O19  1  0.83541806  0.38228666  0.49038492  1
  O  O20  1  0.38228666  0.49038492  0.83541806  1
  O  O21  1  0.99038492  0.88228666  0.33541806  1
  O  O22  1  0.88228666  0.33541806  0.99038492  1
  O  O23  1  0.33541806  0.99038492  0.88228666  1
  O  O24  1  0.16831941  0.34073482  0.83731097  1
  O  O25  1  0.34073482  0.83731097  0.16831941  1
  O  O26  1  0.83731097  0.16831941  0.34073482  1
  O  O27  1  0.66831941  0.33731097  0.84073482  1
  O  O28  1  0.33731097  0.84073482  0.66831941  1
  O  O29  1  0.84073482  0.66831941  0.33731097  1
  O  O30  1  0.83165118  0.65921920  0.16266554  1
  O  O31  1  0.65921920  0.16266554  0.83165118  1
  O  O32  1  0.16266554  0.83165118  0.65921920  1
  O  O33  1  0.33165118  0.66266554  0.15921920  1
  O  O34  1  0.66266554  0.15921920  0.33165118  1
  O  O35  1  0.15921920  0.33165118  0.66266554  1
  O  O36  1  0.11584391  0.50476902  0.70832070  1
  O  O37  1  0.50476902  0.70832070  0.11584391  1
  O  O38  1  0.70832070  0.11584391  0.50476902  1
  O  O39  1  0.61584391  0.20832070  0.00476902  1
  O  O40  1  0.20832070  0.00476902  0.61584391  1
  O  O41  1  0.00476902  0.61584391  0.20832070  1
  O  O42  1  0.88424354  0.49522829  0.29167193  1
  O  O43  1  0.49522829  0.29167193  0.88424354  1
  O  O44  1  0.29167193  0.88424354  0.49522829  1
  O  O45  1  0.38424354  0.79167193  0.99522829  1
  O  O46  1  0.79167193  0.99522829  0.38424354  1
  O  O47  1  0.99522829  0.38424354  0.79167193  1
  O  O48  1  0.36779395  0.20785523  0.81843096  1
  O  O49  1  0.20785523  0.81843096  0.36779395  1
  O  O50  1  0.81843096  0.36779395  0.20785523  1
  O  O51  1  0.86779395  0.31843096  0.70785523  1
  O  O52  1  0.31843096  0.70785523  0.86779395  1
  O  O53  1  0.70785523  0.86779395  0.31843096  1
  O  O54  1  0.63211722  0.79245440  0.18171347  1
  O  O55  1  0.79245440  0.18171347  0.63211722  1
  O  O56  1  0.18171347  0.63211722  0.79245440  1
  O  O57  1  0.13211722  0.68171347  0.29245440  1
  O  O58  1  0.68171347  0.29245440  0.13211722  1
  O  O59  1  0.29245440  0.13211722  0.68171347  1
loop_
_geom_bond_atom_site_label_1
_geom_bond_atom_site_label_2
_geom_bond_distance
_geom_bond_site_symmetry_2
Co0 O59 2.064887 1_555
Co0 O23 2.066876 1_545
Co0 O12 2.067238 1_555
Co0 O48 2.068971 1_555
Co0 O0 2.093507 1_555
Co0 O11 2.097638 1_545
Co1 O57 2.064887 1_555
Co1 O21 2.066876 1_455
Co1 O13 2.067238 1_555
Co1 O49 2.068971 1_555
Co1 O1 2.093507 1_555
Co1 O9 2.097638 1_455
Co2 O58 2.064887 1_555
Co2 O22 2.066876 1_554
Co2 O14 2.067238 1_555
Co2 O50 2.068971 1_555
Co2 O2 2.093507 1_555
Co2 O10 2.097638 1_554
Co3 O55 2.064887 1_555
Co3 O19 2.066876 1_555
Co3 O15 2.067238 1_655
Co3 O51 2.068971 1_555
Co3 O3 2.093507 1_655
Co3 O7 2.097638 1_555
Co4 O56 2.064887 1_555
Co4 O20 2.066876 1_555
Co4 O16 2.067238 1_556
Co4 O52 2.068971 1_555
Co4 O4 2.093507 1_556
Co4 O8 2.097638 1_555
Co5 O54 2.064887 1_555
Co5 O18 2.066876 1_555
Co5 O17 2.067238 1_565
Co5 O53 2.068971 1_555
Co5 O5 2.093507 1_565
Co5 O6 2.097638 1_555
H0 O0 0.995757 1_555
H1 O1 0.995757 1_555
H2 O2 0.995757 1_555
H3 O3 0.995757 1_555
H4 O4 0.995757 1_555
H5 O5 0.995757 1_555
H6 O6 0.995858 1_555
H7 O7 0.995858 1_555
H8 O8 0.995858 1_555
H9 O9 0.995858 1_555
H10 O10 0.995858 1_555
H11 O11 0.995858 1_555
H12 O12 0.999449 1_555
H12 O38 1.671028 1_555
H13 O13 0.999449 1_555
H13 O36 1.671028 1_555
H14 O14 0.999449 1_555
H14 O37 1.671028 1_555
H15 O15 0.999449 1_555
H15 O40 1.671028 1_555
H16 O16 0.999449 1_555
H16 O41 1.671028 1_555
H17 O17 0.999449 1_555
H17 O39 1.671028 1_555
H18 O18 0.999586 1_555
H18 O44 1.670858 1_555
H19 O19 0.999586 1_555
H19 O42 1.670858 1_555
H20 O20 0.999586 1_555
H20 O43 1.670858 1_555
H21 O21 0.999586 1_555
H21 O46 1.670858 1_555
H22 O22 0.999586 1_555
H22 O47 1.670858 1_555
H23 O23 0.999586 1_555
H23 O45 1.670858 1_555
H96 O48 0.988314 1_555
H97 O49 0.988314 1_555
H98 O50 0.988314 1_555
H99 O51 0.988314 1_555
H100 O52 0.988314 1_555
H101 O53 0.988314 1_555
H102 O54 0.988277 1_555
H103 O55 0.988277 1_555
H104 O56 0.988277 1_555
H105 O57 0.988277 1_555
H106 O58 0.988277 1_555
H107 O59 0.988277 1_555
H108 O48 0.991207 1_555
H109 O49 0.991207 1_555
H110 O50 0.991207 1_555
H111 O51 0.991207 1_555
H112 O52 0.991207 1_555
H113 O53 0.991207 1_555
H114 O54 0.991213 1_555
H115 O55 0.991213 1_555
H116 O56 0.991213 1_555
H117 O57 0.991213 1_555
H118 O58 0.991213 1_555
H119 O59 0.991213 1_555
C0 H48 1.096309 1_555
C0 H24 1.098661 1_555
C0 H36 1.101456 1_555
C0 O0 1.435699 1_565
C1 H49 1.096309 1_555
C1 H25 1.098661 1_555
C1 H37 1.101456 1_555
C1 O1 1.435699 1_655
C2 H50 1.096309 1_555
C2 H26 1.098661 1_555
C2 H38 1.101456 1_555
C2 O2 1.435699 1_556
C3 H51 1.096309 1_555
C3 H27 1.098661 1_555
C3 H39 1.101456 1_555
C3 O3 1.435699 1_555
C4 H52 1.096309 1_555
C4 H28 1.098661 1_555
C4 H40 1.101456 1_555
C4 O4 1.435699 1_555
C5 H53 1.096309 1_555
C5 H29 1.098661 1_555
C5 H41 1.101456 1_555
C5 O5 1.435699 1_555
C6 H54 1.096338 1_555
C6 H30 1.098846 1_555
C6 H42 1.101564 1_555
C6 O6 1.435786 1_545
C7 H55 1.096338 1_555
C7 H31 1.098846 1_555
C7 H43 1.101564 1_555
C7 O7 1.435786 1_455
C8 H56 1.096338 1_555
C8 H32 1.098846 1_555
C8 H44 1.101564 1_555
C8 O8 1.435786 1_554
C9 H57 1.096338 1_555
C9 H33 1.098846 1_555
C9 H45 1.101564 1_555
C9 O9 1.435786 1_555
C10 H58 1.096338 1_555
C10 H34 1.098846 1_555
C10 H46 1.101564 1_555
C10 O10 1.435786 1_555
C11 H59 1.096338 1_555
C11 H35 1.098846 1_555
C11 H47 1.101564 1_555
C11 O11 1.435786 1_555
C12 H60 1.098143 1_555
C12 H72 1.098234 1_555
C12 H84 1.099375 1_555
C12 O12 1.431910 1_555
C13 H61 1.098143 1_555
C13 H73 1.098234 1_555
C13 H85 1.099375 1_555
C13 O13 1.431910 1_555
C14 H62 1.098143 1_555
C14 H74 1.098234 1_555
C14 H86 1.099375 1_555
C14 O14 1.431910 1_555
C15 H63 1.098143 1_555
C15 H75 1.098234 1_545
C15 H87 1.099375 1_655
C15 O15 1.431910 1_655
C16 H64 1.098143 1_555
C16 H76 1.098234 1_455
C16 H88 1.099375 1_556
C16 O16 1.431910 1_556
C17 H65 1.098143 1_555
C17 H77 1.098234 1_554
C17 H89 1.099375 1_565
C17 O17 1.431910 1_565
C18 H66 1.098189 1_555
C18 H78 1.098202 1_555
C18 H90 1.099362 1_555
C18 O18 1.431867 1_555
C19 H67 1.098189 1_555
C19 H79 1.098202 1_555
C19 H91 1.099362 1_555
C19 O19 1.431867 1_555
C20 H68 1.098189 1_555
C20 H80 1.098202 1_555
C20 H92 1.099362 1_555
C20 O20 1.431867 1_555
C21 H69 1.098189 1_555
C21 H81 1.098202 1_565
C21 H93 1.099362 1_455
C21 O21 1.431867 1_455
C22 H70 1.098189 1_555
C22 H82 1.098202 1_655
C22 H94 1.099362 1_554
C22 O22 1.431867 1_554
C23 H71 1.098189 1_555
C23 H83 1.098202 1_556
C23 H95 1.099362 1_545
C23 O23 1.431867 1_545
O24 S0 1.498585 1_555
O25 S1 1.498585 1_555
O26 S2 1.498585 1_555
O27 S3 1.498585 1_555
O28 S4 1.498585 1_555
O29 S5 1.498585 1_555
O30 S5 1.498895 1_555
O31 S3 1.498895 1_555
O32 S4 1.498895 1_555
O33 S1 1.498895 1_555
O34 S2 1.498895 1_555
O35 S0 1.498895 1_555
O36 S0 1.494940 1_555
O37 S1 1.494940 1_555
O38 S2 1.494940 1_555
O39 S3 1.494940 1_554
O40 S4 1.494940 1_545
O41 S5 1.494940 1_455
O42 S5 1.494683 1_555
O43 S3 1.494683 1_555
O44 S4 1.494683 1_555
O45 S1 1.494683 1_556
O46 S2 1.494683 1_565
O47 S0 1.494683 1_655
