# generated using pymatgen
data_Li7SiPO8
_symmetry_space_group_name_H-M   'P 1'
_cell_length_a   5.10360700
_cell_length_b   6.59122562
_cell_length_c   10.58729886
_cell_angle_alpha   89.89848379
_cell_angle_beta   88.50928525
_cell_angle_gamma   89.75834994
_symmetry_Int_Tables_number   1
_chemical_formula_structural   Li7SiPO8
_chemical_formula_sum   'Li14 Si2 P2 O16'
_cell_volume   356.02221842
_cell_formula_units_Z   2
loop_
 _symmetry_equiv_pos_site_id
 _symmetry_equiv_pos_as_xyz
  1  'x, y, z'
loop_
 _atom_site_type_symbol
 _atom_site_label
 _atom_site_symmetry_multiplicity
 _atom_site_fract_x
 _atom_site_fract_y
 _atom_site_fract_z
 _atom_site_occupancy
  Li  Li0  1  0.87843500  0.13353300  0.94392600  1
  Li  Li1  1  0.15769100  0.78923200  0.08910200  1
  Li  Li2  1  0.55790900  0.03258200  0.50374200  1
  Li  Li3  1  0.93837800  0.46906100  0.01016900  1
  Li  Li4  1  0.63226800  0.36683800  0.45350200  1
  Li  Li5  1  0.33292700  0.71160200  0.56875300  1
  Li  Li6  1  0.61168200  0.54334300  0.18781300  1
  Li  Li7  1  0.34248000  0.47675500  0.81939900  1
  Li  Li8  1  0.15335200  0.47141800  0.33384500  1
  Li  Li9  1  0.83662300  0.51665900  0.66864400  1
  Li  Li10  1  0.36016300  0.02333200  0.81396600  1
  Li  Li11  1  0.65127000  0.99033700  0.18556300  1
  Li  Li12  1  0.87512200  0.95692800  0.66790100  1
  Li  Li13  1  0.15234800  0.03246800  0.33706200  1
  Si  Si0  1  0.85712800  0.75083800  0.41237100  1
  Si  Si1  1  0.15084100  0.24736700  0.58189700  1
  P  P0  1  0.34780700  0.25325600  0.07718700  1
  P  P1  1  0.64657300  0.74618400  0.91913600  1
  O  O0  1  0.77408700  0.54396400  0.33617600  1
  O  O1  1  0.22580600  0.45811900  0.65704500  1
  O  O2  1  0.24472800  0.45062700  0.14297200  1
  O  O3  1  0.74026500  0.54737500  0.85432900  1
  O  O4  1  0.25254100  0.03401200  0.64947200  1
  O  O5  1  0.76422100  0.96343100  0.34491200  1
  O  O6  1  0.73794200  0.93782000  0.84528900  1
  O  O7  1  0.26648700  0.05714600  0.14865700  1
  O  O8  1  0.28790100  0.25093200  0.43832000  1
  O  O9  1  0.72861300  0.74808400  0.55879500  1
  O  O10  1  0.76390000  0.74824800  0.05646600  1
  O  O11  1  0.22715600  0.25101200  0.94187400  1
  O  O12  1  0.65469400  0.26044400  0.07207000  1
  O  O13  1  0.34197600  0.75019000  0.92524400  1
  O  O14  1  0.18066600  0.75063500  0.40555900  1
  O  O15  1  0.82602200  0.23622700  0.58484400  1
loop_
_geom_bond_atom_site_label_1
_geom_bond_atom_site_label_2
_geom_bond_distance
_geom_bond_site_symmetry_2
Li0 O6 1.822165 1_545
Li0 O12 1.938976 1_556
Li0 O11 1.943468 1_655
Li1 O7 1.963323 1_565
Li1 O13 1.968507 1_554
Li1 O10 2.067007 1_455
Li1 O2 2.346048 1_555
Li2 O5 2.012629 1_545
Li2 O8 2.116449 1_555
Li2 O15 2.119444 1_555
Li2 O9 2.150311 1_545
Li2 O4 2.164316 1_555
Li3 O3 2.022469 1_554
Li3 O12 2.092996 1_555
Li3 O10 2.094310 1_555
Li3 O2 2.132684 1_655
Li3 O11 2.165842 1_654
Li4 O0 1.839853 1_555
Li4 O15 1.926839 1_555
Li4 O8 1.929971 1_555
Li5 O14 1.929216 1_555
Li5 O1 1.984872 1_555
Li5 O9 2.034686 1_555
Li5 O4 2.322808 1_565
Li6 O0 1.795021 1_555
Li6 O2 2.040373 1_555
Li6 O10 2.075415 1_555
Li6 O12 2.239951 1_555
Li7 O1 1.838168 1_555
Li7 O11 2.050011 1_555
Li7 O13 2.123895 1_555
Li7 O3 2.126625 1_555
Li8 O8 1.957657 1_555
Li8 O0 1.991388 1_455
Li8 O14 1.998883 1_555
Li8 O2 2.066741 1_555
Li9 O9 2.000797 1_555
Li9 O1 2.022402 1_655
Li9 O3 2.024320 1_555
Li9 O15 2.053236 1_555
Li10 O4 1.840825 1_555
Li10 O6 2.041669 1_545
Li10 O11 2.120731 1_555
Li10 O13 2.150824 1_545
Li11 O5 1.805175 1_555
Li11 O7 2.057921 1_565
Li11 O12 2.145995 1_565
Li11 O10 2.168821 1_555
Li12 O9 1.961517 1_555
Li12 O6 1.991136 1_555
Li12 O4 1.998700 1_665
Li12 O15 2.055938 1_565
Li13 O8 1.937471 1_555
Li13 O14 1.998996 1_545
Li13 O5 2.033870 1_445
Li13 O7 2.069737 1_555
O0 Si0 1.648094 1_555
O1 Si1 1.653255 1_555
O2 P0 1.559681 1_555
O3 P1 1.548349 1_555
O4 Si1 1.663865 1_555
O5 Si0 1.645262 1_555
O6 P1 1.551349 1_555
O7 P0 1.549306 1_555
O8 Si1 1.656871 1_555
O9 Si0 1.667587 1_555
O10 P1 1.586869 1_554
O11 P0 1.574091 1_556
O12 P0 1.566672 1_555
O13 P1 1.554321 1_555
O14 Si0 1.650905 1_455
O15 Si1 1.659163 1_655
