# generated using pymatgen
data_TmAlGa
_symmetry_space_group_name_H-M   'P 1'
_cell_length_a   5.64360675
_cell_length_b   5.64360675
_cell_length_c   6.92832962
_cell_angle_alpha   53.85762486
_cell_angle_beta   53.85762486
_cell_angle_gamma   43.96294620
_symmetry_Int_Tables_number   1
_chemical_formula_structural   TmAlGa
_chemical_formula_sum   'Tm2 Al2 Ga2'
_cell_volume   118.20904032
_cell_formula_units_Z   2
loop_
 _symmetry_equiv_pos_site_id
 _symmetry_equiv_pos_as_xyz
  1  'x, y, z'
loop_
 _atom_site_type_symbol
 _atom_site_label
 _atom_site_symmetry_multiplicity
 _atom_site_fract_x
 _atom_site_fract_y
 _atom_site_fract_z
 _atom_site_occupancy
  Tm  Tm0  1  0.55941760  0.55941760  0.18658549  1
  Tm  Tm1  1  0.44058240  0.44058240  0.81341451  1
  Al  Al0  1  0.16293295  0.16293295  0.39904486  1
  Al  Al1  1  0.83706705  0.83706705  0.60095514  1
  Ga  Ga0  1  0.83870392  0.83870392  0.20376906  1
  Ga  Ga1  1  0.16129608  0.16129608  0.79623094  1
loop_
_geom_bond_atom_site_label_1
_geom_bond_atom_site_label_2
_geom_bond_distance
_geom_bond_site_symmetry_2
Al0 Ga0 2.551717 1_455
Al0 Ga0 2.551717 1_545
Al0 Ga1 2.740971 1_555
Al0 Al1 2.742388 1_445
Al0 Tm1 3.101861 1_455
Al0 Tm1 3.101861 1_545
Al0 Tm0 3.135568 1_455
Al0 Tm0 3.135568 1_545
Al0 Tm1 3.147847 1_554
Al1 Ga1 2.551717 1_655
Al1 Ga1 2.551717 1_565
Al1 Ga0 2.740971 1_555
Al1 Tm0 3.101861 1_655
Al1 Tm0 3.101861 1_565
Al1 Tm1 3.135568 1_565
Al1 Tm1 3.135568 1_655
Al1 Tm0 3.147847 1_556
Ga0 Ga1 2.691774 1_664
Ga0 Tm0 3.000331 1_555
Ga0 Tm1 3.040612 1_654
Ga0 Tm1 3.040612 1_564
Ga0 Tm0 3.076276 1_655
Ga0 Tm0 3.076276 1_565
Ga1 Tm1 3.000331 1_555
Ga1 Tm0 3.040612 1_546
Ga1 Tm0 3.040612 1_456
Ga1 Tm1 3.076276 1_545
Ga1 Tm1 3.076276 1_455
