# generated using pymatgen
data_Mg3Ti
_symmetry_space_group_name_H-M   'P 1'
_cell_length_a   4.88579956
_cell_length_b   4.88579956
_cell_length_c   4.88579956
_cell_angle_alpha   60.00000000
_cell_angle_beta   60.00000000
_cell_angle_gamma   60.00000000
_symmetry_Int_Tables_number   1
_chemical_formula_structural   Mg3Ti
_chemical_formula_sum   'Mg3 Ti1'
_cell_volume   82.46923011
_cell_formula_units_Z   1
loop_
 _symmetry_equiv_pos_site_id
 _symmetry_equiv_pos_as_xyz
  1  'x, y, z'
loop_
 _atom_site_type_symbol
 _atom_site_label
 _atom_site_symmetry_multiplicity
 _atom_site_fract_x
 _atom_site_fract_y
 _atom_site_fract_z
 _atom_site_occupancy
  Mg  Mg0  1  0.00000000  0.00000000  0.00000000  1
  Mg  Mg1  1  0.25000000  0.25000000  0.25000000  1
  Mg  Mg2  1  0.75000000  0.75000000  0.75000000  1
  Ti  Ti0  1  0.50000000  0.50000000  0.50000000  1
loop_
_geom_bond_atom_site_label_1
_geom_bond_atom_site_label_2
_geom_bond_distance
_geom_bond_site_symmetry_2
Mg0 Mg1 2.991929 1_545
Mg0 Mg1 2.991929 1_555
Mg0 Mg2 2.991929 1_544
Mg0 Mg2 2.991929 1_444
Mg0 Mg2 2.991929 1_454
Mg0 Mg2 2.991929 1_445
Mg0 Mg1 2.991929 1_554
Mg0 Mg1 2.991929 1_455
Mg1 Ti0 2.991929 1_545
Mg1 Ti0 2.991929 1_555
Mg1 Ti0 2.991929 1_554
Mg1 Ti0 2.991929 1_455
Mg2 Ti0 2.991929 1_556
Mg2 Ti0 2.991929 1_555
Mg2 Ti0 2.991929 1_655
Mg2 Ti0 2.991929 1_565
