# generated using pymatgen
data_LiYMg14
_symmetry_space_group_name_H-M   'P 1'
_cell_length_a   6.49490939
_cell_length_b   6.44411985
_cell_length_c   10.38247723
_cell_angle_alpha   90.00000000
_cell_angle_beta   90.00000000
_cell_angle_gamma   119.74166070
_symmetry_Int_Tables_number   1
_chemical_formula_structural   LiYMg14
_chemical_formula_sum   'Li1 Y1 Mg14'
_cell_volume   377.30538500
_cell_formula_units_Z   1
loop_
 _symmetry_equiv_pos_site_id
 _symmetry_equiv_pos_as_xyz
  1  'x, y, z'
loop_
 _atom_site_type_symbol
 _atom_site_label
 _atom_site_symmetry_multiplicity
 _atom_site_fract_x
 _atom_site_fract_y
 _atom_site_fract_z
 _atom_site_occupancy
  Li  Li0  1  0.17510524  0.83755212  0.12500000  1
  Y  Y0  1  0.16322481  0.33161190  0.12500000  1
  Mg  Mg0  1  0.16645620  0.33322760  0.62500000  1
  Mg  Mg1  1  0.16600920  0.83300410  0.62500000  1
  Mg  Mg2  1  0.65741219  0.32089869  0.12500000  1
  Mg  Mg3  1  0.66690629  0.33408677  0.62500000  1
  Mg  Mg4  1  0.65741219  0.83651250  0.12500000  1
  Mg  Mg5  1  0.66690629  0.83281852  0.62500000  1
  Mg  Mg6  1  0.33502920  0.16583759  0.37868102  1
  Mg  Mg7  1  0.33502920  0.16583759  0.87131898  1
  Mg  Mg8  1  0.33502920  0.66919261  0.37868102  1
  Mg  Mg9  1  0.33502920  0.66919261  0.87131898  1
  Mg  Mg10  1  0.83364081  0.16682091  0.37989529  1
  Mg  Mg11  1  0.83364081  0.16682091  0.87010471  1
  Mg  Mg12  1  0.83658458  0.66829279  0.36821633  1
  Mg  Mg13  1  0.83658458  0.66829279  0.88178367  1
loop_
_geom_bond_atom_site_label_1
_geom_bond_atom_site_label_2
_geom_bond_distance
_geom_bond_site_symmetry_2
Li0 Mg2 3.135869 1_565
Li0 Mg4 3.135869 1_555
Li0 Mg13 3.165594 1_454
Li0 Mg12 3.165594 1_455
Li0 Mg8 3.211097 1_555
Li0 Mg9 3.211097 1_554
Li0 Mg6 3.211103 1_565
Li0 Mg7 3.211103 1_564
Li0 Y0 3.222756 1_565
Li0 Y0 3.222756 1_555
Li0 Mg2 3.359051 1_455
Li0 Mg4 3.359051 1_455
Mg0 Mg10 3.162053 1_455
Mg0 Mg11 3.162053 1_455
Mg0 Mg6 3.174014 1_555
Mg0 Mg7 3.174014 1_555
Mg0 Mg8 3.174020 1_555
Mg0 Mg9 3.174020 1_555
Mg0 Mg1 3.222061 1_545
Mg0 Mg1 3.222061 1_555
Mg0 Mg5 3.247281 1_445
Mg0 Mg3 3.247282 1_455
Mg0 Mg5 3.247635 1_555
Mg0 Mg3 3.247635 1_555
Mg1 Mg9 3.163780 1_555
Mg1 Mg8 3.163780 1_555
Mg1 Mg7 3.163786 1_565
Mg1 Mg6 3.163786 1_565
Mg1 Mg3 3.241035 1_455
Mg1 Mg5 3.241035 1_455
Mg1 Mg12 3.249464 1_455
Mg1 Mg13 3.249464 1_455
Mg1 Mg3 3.253874 1_565
Mg1 Mg5 3.253875 1_555
Mg2 Mg4 3.121443 1_545
Mg2 Mg7 3.200607 1_554
Mg2 Mg6 3.200607 1_555
Mg2 Y0 3.244505 1_555
Mg2 Y0 3.251511 1_655
Mg2 Mg4 3.322677 1_555
Mg3 Mg7 3.169115 1_555
Mg3 Mg6 3.169115 1_555
Mg3 Mg5 3.213887 1_555
Mg3 Mg5 3.230233 1_545
Mg4 Mg8 3.200607 1_555
Mg4 Mg9 3.200607 1_554
Mg4 Y0 3.244504 1_555
Mg4 Y0 3.251511 1_665
Mg5 Mg8 3.169115 1_555
Mg5 Mg9 3.169115 1_555
Mg6 Mg8 3.200440 1_545
Mg6 Y0 3.241318 1_555
Mg6 Mg8 3.243680 1_555
Mg7 Mg9 3.200440 1_545
Mg7 Y0 3.241318 1_556
Mg7 Mg9 3.243680 1_555
Mg8 Y0 3.241324 1_555
Mg9 Y0 3.241324 1_556
Mg10 Mg3 3.157320 1_555
Mg10 Mg5 3.157327 1_545
Mg10 Mg12 3.224383 1_555
Mg10 Mg12 3.224384 1_545
Mg10 Mg2 3.229112 1_555
Mg10 Mg4 3.229118 1_545
Mg10 Y0 3.233914 1_655
Mg10 Mg8 3.235323 1_545
Mg10 Mg6 3.235323 1_555
Mg10 Mg8 3.259644 1_655
Mg10 Mg6 3.259645 1_655
Mg11 Mg3 3.157320 1_555
Mg11 Mg5 3.157327 1_545
Mg11 Mg13 3.224383 1_555
Mg11 Mg13 3.224384 1_545
Mg11 Mg2 3.229112 1_556
Mg11 Mg4 3.229118 1_546
Mg11 Y0 3.233914 1_656
Mg11 Mg9 3.235323 1_545
Mg11 Mg7 3.235323 1_555
Mg11 Mg9 3.259644 1_655
Mg11 Mg7 3.259645 1_655
Mg12 Mg4 3.187089 1_555
Mg12 Mg2 3.187096 1_555
Mg12 Mg6 3.236304 1_665
Mg12 Mg8 3.236304 1_655
Mg12 Mg5 3.256636 1_555
Mg12 Mg3 3.256643 1_555
Mg12 Mg6 3.262247 1_555
Mg12 Mg8 3.262247 1_555
Mg13 Mg4 3.187089 1_556
Mg13 Mg2 3.187096 1_556
Mg13 Mg7 3.236304 1_665
Mg13 Mg9 3.236304 1_655
Mg13 Mg5 3.256636 1_555
Mg13 Mg3 3.256643 1_555
Mg13 Mg7 3.262247 1_555
Mg13 Mg9 3.262247 1_555
