# generated using pymatgen
data_Zn(NiS2)2
_symmetry_space_group_name_H-M   'P 1'
_cell_length_a   6.85122400
_cell_length_b   6.85117847
_cell_length_c   6.90286186
_cell_angle_alpha   60.99298720
_cell_angle_beta   60.36166959
_cell_angle_gamma   60.49539442
_symmetry_Int_Tables_number   1
_chemical_formula_structural   Zn(NiS2)2
_chemical_formula_sum   'Zn2 Ni4 S8'
_cell_volume   232.28715408
_cell_formula_units_Z   2
loop_
 _symmetry_equiv_pos_site_id
 _symmetry_equiv_pos_as_xyz
  1  'x, y, z'
loop_
 _atom_site_type_symbol
 _atom_site_label
 _atom_site_symmetry_multiplicity
 _atom_site_fract_x
 _atom_site_fract_y
 _atom_site_fract_z
 _atom_site_occupancy
  Zn  Zn0  1  0.00000000  0.00000000  0.00000000  1
  Zn  Zn1  1  0.00000000  0.50000000  0.50000000  1
  Ni  Ni0  1  0.00000000  0.50000000  0.00000000  1
  Ni  Ni1  1  0.50000000  0.00000000  0.00000000  1
  Ni  Ni2  1  0.50000000  0.50000000  0.00000000  1
  Ni  Ni3  1  0.50000000  0.50000000  0.50000000  1
  S  S0  1  0.24907100  0.71809500  0.78756700  1
  S  S1  1  0.24363600  0.28215700  0.75167200  1
  S  S2  1  0.26374200  0.26818500  0.20527700  1
  S  S3  1  0.29226500  0.73277700  0.23961200  1
  S  S4  1  0.73625800  0.73181500  0.79472300  1
  S  S5  1  0.75636400  0.71784300  0.24832800  1
  S  S6  1  0.70773500  0.26722300  0.76038800  1
  S  S7  1  0.75092900  0.28190500  0.21243300  1
loop_
_geom_bond_atom_site_label_1
_geom_bond_atom_site_label_2
_geom_bond_distance
_geom_bond_site_symmetry_2
Ni0 S1 2.269253 1_554
Ni0 S5 2.269253 1_455
Ni0 S0 2.281776 1_554
Ni0 S7 2.281776 1_455
Ni0 S2 2.306177 1_555
Ni0 S4 2.306177 1_454
Ni1 S2 2.308893 1_555
Ni1 S4 2.308893 1_544
Ni1 S3 2.326935 1_545
Ni1 S6 2.326935 1_554
Ni1 S5 2.485961 1_545
Ni1 S1 2.485961 1_554
Ni2 S7 2.275227 1_555
Ni2 S0 2.275227 1_554
Ni2 S4 2.287223 1_554
Ni2 S2 2.287223 1_555
Ni2 S3 2.301955 1_555
Ni2 S6 2.301955 1_554
Ni3 S6 2.305234 1_555
Ni3 S3 2.305234 1_555
Ni3 S5 2.319496 1_555
Ni3 S1 2.319496 1_555
Ni3 S0 2.469753 1_555
Ni3 S7 2.469753 1_555
S0 Zn0 2.412054 1_566
S1 Zn1 2.435451 1_555
S1 Zn0 2.568300 1_556
S2 Zn1 2.568546 1_555
S3 Zn1 2.566963 1_555
S3 Zn0 2.612474 1_565
S4 Zn1 2.568546 1_655
S5 Zn1 2.435451 1_655
S5 Zn0 2.568300 1_665
S6 Zn1 2.566963 1_655
S6 Zn0 2.612474 1_656
S7 Zn0 2.412054 1_655
