# generated using pymatgen
data_Dy3Ge3Ru2
_symmetry_space_group_name_H-M   'P 1'
_cell_length_a   5.80616299
_cell_length_b   5.80616299
_cell_length_c   13.90654109
_cell_angle_alpha   90.00000000
_cell_angle_beta   90.00000000
_cell_angle_gamma   137.15060911
_symmetry_Int_Tables_number   1
_chemical_formula_structural   Dy3Ge3Ru2
_chemical_formula_sum   'Dy6 Ge6 Ru4'
_cell_volume   318.82579715
_cell_formula_units_Z   2
loop_
 _symmetry_equiv_pos_site_id
 _symmetry_equiv_pos_as_xyz
  1  'x, y, z'
loop_
 _atom_site_type_symbol
 _atom_site_label
 _atom_site_symmetry_multiplicity
 _atom_site_fract_x
 _atom_site_fract_y
 _atom_site_fract_z
 _atom_site_occupancy
  Dy  Dy0  1  0.92086910  0.07913090  0.38736561  1
  Dy  Dy1  1  0.07913090  0.92086910  0.61263439  1
  Dy  Dy2  1  0.92086910  0.07913090  0.11263439  1
  Dy  Dy3  1  0.07913090  0.92086910  0.88736561  1
  Dy  Dy4  1  0.64668010  0.35331990  0.25000000  1
  Dy  Dy5  1  0.35331990  0.64668010  0.75000000  1
  Ge  Ge0  1  0.61727226  0.38272774  0.45936408  1
  Ge  Ge1  1  0.38272774  0.61727226  0.54063592  1
  Ge  Ge2  1  0.61727226  0.38272774  0.04063592  1
  Ge  Ge3  1  0.38272774  0.61727226  0.95936408  1
  Ge  Ge4  1  0.33516143  0.66483857  0.25000000  1
  Ge  Ge5  1  0.66483857  0.33516143  0.75000000  1
  Ru  Ru0  1  0.78639636  0.21360364  0.91808732  1
  Ru  Ru1  1  0.21360364  0.78639636  0.08191268  1
  Ru  Ru2  1  0.78639636  0.21360364  0.58191268  1
  Ru  Ru3  1  0.21360364  0.78639636  0.41808732  1
loop_
_geom_bond_atom_site_label_1
_geom_bond_atom_site_label_2
_geom_bond_distance
_geom_bond_site_symmetry_2
Dy0 Ge4 3.000937 1_545
Dy0 Ge4 3.000937 1_655
Dy0 Ge1 3.034993 1_545
Dy0 Ge1 3.034993 1_655
Dy0 Ru2 3.071264 1_555
Dy0 Ru3 3.114565 1_545
Dy0 Ru3 3.114565 1_655
Dy0 Ge0 3.163560 1_545
Dy0 Ge0 3.163560 1_655
Dy0 Ru3 3.193140 1_645
Dy0 Ge0 3.431187 1_555
Dy1 Ge5 3.000937 1_455
Dy1 Ge5 3.000937 1_565
Dy1 Ge0 3.034993 1_455
Dy1 Ge0 3.034993 1_565
Dy1 Ru3 3.071264 1_555
Dy1 Ru2 3.114565 1_455
Dy1 Ru2 3.114565 1_565
Dy1 Ge1 3.163560 1_455
Dy1 Ge1 3.163560 1_565
Dy1 Ru2 3.193140 1_465
Dy1 Ge1 3.431187 1_555
Dy2 Ge4 3.000937 1_545
Dy2 Ge4 3.000937 1_655
Dy2 Ge3 3.034993 1_544
Dy2 Ge3 3.034993 1_654
Dy2 Ru0 3.071264 1_554
Dy2 Ru1 3.114565 1_545
Dy2 Ru1 3.114565 1_655
Dy2 Ge2 3.163560 1_545
Dy2 Ge2 3.163560 1_655
Dy2 Ru1 3.193140 1_645
Dy2 Ge2 3.431187 1_555
Dy3 Ge5 3.000937 1_455
Dy3 Ge5 3.000937 1_565
Dy3 Ge2 3.034993 1_456
Dy3 Ge2 3.034993 1_566
Dy3 Ru1 3.071264 1_556
Dy3 Ru0 3.114565 1_455
Dy3 Ru0 3.114565 1_565
Dy3 Ge3 3.163560 1_455
Dy3 Ge3 3.163560 1_565
Dy3 Ru0 3.193140 1_465
Dy3 Ge3 3.431187 1_555
Dy4 Ge0 2.928834 1_555
Dy4 Ge2 2.928834 1_555
Dy4 Ge4 2.940973 1_545
Dy4 Ge4 2.940973 1_655
Dy4 Ru3 3.238116 1_545
Dy4 Ru1 3.238116 1_545
Dy4 Ru3 3.238116 1_655
Dy4 Ru1 3.238116 1_655
Dy4 Ge4 3.367485 1_555
Dy5 Ge1 2.928834 1_555
Dy5 Ge3 2.928834 1_555
Dy5 Ge5 2.940973 1_455
Dy5 Ge5 2.940973 1_565
Dy5 Ru0 3.238116 1_455
Dy5 Ru2 3.238116 1_455
Dy5 Ru0 3.238116 1_565
Dy5 Ru2 3.238116 1_565
Dy5 Ge5 3.367485 1_555
Ge0 Ru3 2.431446 1_545
Ge0 Ru3 2.431446 1_655
Ge0 Ru2 2.499351 1_555
Ge0 Ge1 2.775903 1_555
Ge1 Ru2 2.431446 1_455
Ge1 Ru2 2.431446 1_565
Ge1 Ru3 2.499351 1_555
Ge2 Ru1 2.431446 1_545
Ge2 Ru1 2.431446 1_655
Ge2 Ru0 2.499351 1_554
Ge2 Ge3 2.775903 1_554
Ge3 Ru0 2.431446 1_455
Ge3 Ru0 2.431446 1_565
Ge3 Ru1 2.499351 1_556
Ge4 Ru3 2.681536 1_555
Ge4 Ru1 2.681536 1_555
Ge5 Ru2 2.681536 1_555
Ge5 Ru0 2.681536 1_555
