# generated using pymatgen
data_SnMo3
_symmetry_space_group_name_H-M   'P 1'
_cell_length_a   5.77895491
_cell_length_b   5.77895491
_cell_length_c   17.68497000
_cell_angle_alpha   90.00000000
_cell_angle_beta   90.00000000
_cell_angle_gamma   109.73201269
_symmetry_Int_Tables_number   1
_chemical_formula_structural   SnMo3
_chemical_formula_sum   'Sn8 Mo24'
_cell_volume   555.93333810
_cell_formula_units_Z   8
loop_
 _symmetry_equiv_pos_site_id
 _symmetry_equiv_pos_as_xyz
  1  'x, y, z'
loop_
 _atom_site_type_symbol
 _atom_site_label
 _atom_site_symmetry_multiplicity
 _atom_site_fract_x
 _atom_site_fract_y
 _atom_site_fract_z
 _atom_site_occupancy
  Sn  Sn0_0  1  0.00000000  0.00000000  0.00000000  1
  Sn  Sn0_1  1  0.00000000  0.00000000  0.50000000  1
  Sn  Sn0_2  1  0.00000000  0.50000000  0.00000000  1
  Sn  Sn0_3  1  0.00000000  0.50000000  0.50000000  1
  Sn  Sn0_4  1  0.50000000  0.00000000  0.00000000  1
  Sn  Sn0_5  1  0.50000000  0.00000000  0.50000000  1
  Sn  Sn0_6  1  0.50000000  0.50000000  0.00000000  1
  Sn  Sn0_7  1  0.50000000  0.50000000  0.50000000  1
  Mo  Mo0_0  1  0.25000000  0.25000000  0.36863350  1
  Mo  Mo0_1  1  0.25000000  0.25000000  0.86863350  1
  Mo  Mo0_2  1  0.25000000  0.75000000  0.36863350  1
  Mo  Mo0_3  1  0.25000000  0.75000000  0.86863350  1
  Mo  Mo0_4  1  0.75000000  0.25000000  0.36863350  1
  Mo  Mo0_5  1  0.75000000  0.25000000  0.86863350  1
  Mo  Mo0_6  1  0.75000000  0.75000000  0.36863350  1
  Mo  Mo0_7  1  0.75000000  0.75000000  0.86863350  1
  Mo  Mo1_0  1  0.00000000  0.00000000  0.25000000  1
  Mo  Mo1_1  1  0.00000000  0.00000000  0.75000000  1
  Mo  Mo1_2  1  0.00000000  0.50000000  0.25000000  1
  Mo  Mo1_3  1  0.00000000  0.50000000  0.75000000  1
  Mo  Mo1_4  1  0.50000000  0.00000000  0.25000000  1
  Mo  Mo1_5  1  0.50000000  0.00000000  0.75000000  1
  Mo  Mo1_6  1  0.50000000  0.50000000  0.25000000  1
  Mo  Mo1_7  1  0.50000000  0.50000000  0.75000000  1
  Mo  Mo2_0  1  0.25000000  0.25000000  0.13136650  1
  Mo  Mo2_1  1  0.25000000  0.25000000  0.63136650  1
  Mo  Mo2_2  1  0.25000000  0.75000000  0.13136650  1
  Mo  Mo2_3  1  0.25000000  0.75000000  0.63136650  1
  Mo  Mo2_4  1  0.75000000  0.25000000  0.13136650  1
  Mo  Mo2_5  1  0.75000000  0.25000000  0.63136650  1
  Mo  Mo2_6  1  0.75000000  0.75000000  0.13136650  1
  Mo  Mo2_7  1  0.75000000  0.75000000  0.63136650  1
loop_
_geom_bond_atom_site_label_1
_geom_bond_atom_site_label_2
_geom_bond_distance
_geom_bond_site_symmetry_2
Mo0_0 Mo1_0 2.677098 1_555
Mo0_0 Mo1_6 2.677098 1_555
Mo0_0 Sn0_1 2.856999 1_555
Mo0_0 Sn0_7 2.856999 1_555
Mo0_0 Mo0_2 2.889477 1_555
Mo0_0 Mo0_4 2.889477 1_455
Mo0_0 Mo0_4 2.889477 1_555
Mo0_0 Mo0_2 2.889477 1_545
Mo0_1 Mo1_1 2.677098 1_555
Mo0_1 Mo1_7 2.677098 1_555
Mo0_1 Sn0_6 2.856999 1_556
Mo0_1 Sn0_0 2.856999 1_556
Mo0_1 Mo0_3 2.889477 1_555
Mo0_1 Mo0_5 2.889477 1_455
Mo0_1 Mo0_5 2.889477 1_555
Mo0_1 Mo0_3 2.889477 1_545
Mo0_2 Mo1_4 2.677098 1_565
Mo0_2 Mo1_2 2.677098 1_555
Mo0_2 Sn0_5 2.856999 1_565
Mo0_2 Sn0_3 2.856999 1_555
Mo0_2 Mo0_6 2.889477 1_555
Mo0_2 Mo0_6 2.889477 1_455
Mo0_3 Mo1_5 2.677098 1_565
Mo0_3 Mo1_3 2.677098 1_555
Mo0_3 Sn0_4 2.856999 1_566
Mo0_3 Sn0_2 2.856999 1_556
Mo0_3 Mo0_7 2.889477 1_555
Mo0_3 Mo0_7 2.889477 1_455
Mo0_4 Mo1_2 2.677098 1_655
Mo0_4 Mo1_4 2.677098 1_555
Mo0_4 Sn0_5 2.856999 1_555
Mo0_4 Sn0_3 2.856999 1_655
Mo0_4 Mo0_6 2.889477 1_555
Mo0_4 Mo0_6 2.889477 1_545
Mo0_5 Mo1_5 2.677098 1_555
Mo0_5 Mo1_3 2.677098 1_655
Mo0_5 Sn0_2 2.856999 1_656
Mo0_5 Sn0_4 2.856999 1_556
Mo0_5 Mo0_7 2.889477 1_555
Mo0_5 Mo0_7 2.889477 1_545
Mo0_6 Mo1_6 2.677098 1_555
Mo0_6 Mo1_0 2.677098 1_665
Mo0_6 Sn0_1 2.856999 1_665
Mo0_6 Sn0_7 2.856999 1_555
Mo0_7 Mo1_1 2.677098 1_665
Mo0_7 Mo1_7 2.677098 1_555
Mo0_7 Sn0_6 2.856999 1_556
Mo0_7 Sn0_0 2.856999 1_666
Mo1_0 Mo2_0 2.677098 1_555
Mo1_0 Mo2_6 2.677098 1_445
Mo1_0 Mo1_2 2.889477 1_555
Mo1_0 Mo1_4 2.889477 1_555
Mo1_0 Mo1_2 2.889477 1_545
Mo1_0 Mo1_4 2.889477 1_455
Mo1_1 Mo2_7 2.677098 1_445
Mo1_1 Mo2_1 2.677098 1_555
Mo1_1 Mo1_3 2.889477 1_555
Mo1_1 Mo1_3 2.889477 1_545
Mo1_1 Mo1_5 2.889477 1_455
Mo1_1 Mo1_5 2.889477 1_555
Mo1_2 Mo2_4 2.677098 1_455
Mo1_2 Mo2_2 2.677098 1_555
Mo1_2 Mo1_6 2.889477 1_555
Mo1_2 Mo1_6 2.889477 1_455
Mo1_3 Mo2_3 2.677098 1_555
Mo1_3 Mo2_5 2.677098 1_455
Mo1_3 Mo1_7 2.889477 1_555
Mo1_3 Mo1_7 2.889477 1_455
Mo1_4 Mo2_2 2.677098 1_545
Mo1_4 Mo2_4 2.677098 1_555
Mo1_4 Mo1_6 2.889477 1_555
Mo1_4 Mo1_6 2.889477 1_545
Mo1_5 Mo2_3 2.677098 1_545
Mo1_5 Mo2_5 2.677098 1_555
Mo1_5 Mo1_7 2.889477 1_555
Mo1_5 Mo1_7 2.889477 1_545
Mo1_6 Mo2_6 2.677098 1_555
Mo1_6 Mo2_0 2.677098 1_555
Mo1_7 Mo2_1 2.677098 1_555
Mo1_7 Mo2_7 2.677098 1_555
Mo2_0 Sn0_6 2.856999 1_555
Mo2_0 Sn0_0 2.856999 1_555
Mo2_0 Mo2_2 2.889477 1_555
Mo2_0 Mo2_4 2.889477 1_455
Mo2_0 Mo2_4 2.889477 1_555
Mo2_0 Mo2_2 2.889477 1_545
Mo2_1 Sn0_7 2.856999 1_555
Mo2_1 Sn0_1 2.856999 1_555
Mo2_1 Mo2_3 2.889477 1_555
Mo2_1 Mo2_5 2.889477 1_455
Mo2_1 Mo2_5 2.889477 1_555
Mo2_1 Mo2_3 2.889477 1_545
Mo2_2 Sn0_2 2.856999 1_555
Mo2_2 Sn0_4 2.856999 1_565
Mo2_2 Mo2_6 2.889477 1_555
Mo2_2 Mo2_6 2.889477 1_455
Mo2_3 Sn0_5 2.856999 1_565
Mo2_3 Sn0_3 2.856999 1_555
Mo2_3 Mo2_7 2.889477 1_555
Mo2_3 Mo2_7 2.889477 1_455
Mo2_4 Sn0_2 2.856999 1_655
Mo2_4 Sn0_4 2.856999 1_555
Mo2_4 Mo2_6 2.889477 1_555
Mo2_4 Mo2_6 2.889477 1_545
Mo2_5 Sn0_3 2.856999 1_655
Mo2_5 Sn0_5 2.856999 1_555
Mo2_5 Mo2_7 2.889477 1_555
Mo2_5 Mo2_7 2.889477 1_545
Mo2_6 Sn0_6 2.856999 1_555
Mo2_6 Sn0_0 2.856999 1_665
Mo2_7 Sn0_7 2.856999 1_555
Mo2_7 Sn0_1 2.856999 1_665
