# generated using pymatgen
data_Na2GeH14S3O7
_symmetry_space_group_name_H-M   'P 1'
_cell_length_a   7.09473400
_cell_length_b   9.58561440
_cell_length_c   10.11319496
_cell_angle_alpha   92.12095833
_cell_angle_beta   92.86397166
_cell_angle_gamma   107.25862361
_symmetry_Int_Tables_number   1
_chemical_formula_structural   Na2GeH14S3O7
_chemical_formula_sum   'Na4 Ge2 H28 S6 O14'
_cell_volume   655.01545090
_cell_formula_units_Z   2
loop_
 _symmetry_equiv_pos_site_id
 _symmetry_equiv_pos_as_xyz
  1  'x, y, z'
loop_
 _atom_site_type_symbol
 _atom_site_label
 _atom_site_symmetry_multiplicity
 _atom_site_fract_x
 _atom_site_fract_y
 _atom_site_fract_z
 _atom_site_occupancy
  Na  Na0  1  0.20014100  0.14096500  0.55412900  1
  Na  Na1  1  0.79985900  0.85903500  0.44587100  1
  Na  Na2  1  0.40055200  0.02934800  0.84580200  1
  Na  Na3  1  0.59944800  0.97065200  0.15419800  1
  Ge  Ge0  1  0.06974300  0.41379500  0.11257800  1
  Ge  Ge1  1  0.93025700  0.58620500  0.88742200  1
  H  H0  1  0.06098200  0.07723900  0.27760200  1
  H  H1  1  0.93901800  0.92276100  0.72239800  1
  H  H2  1  0.23513700  0.74288800  0.22784400  1
  H  H3  1  0.76486300  0.25711200  0.77215600  1
  H  H4  1  0.07428000  0.65909500  0.43167700  1
  H  H5  1  0.92572000  0.34090500  0.56832300  1
  H  H6  1  0.46159700  0.32582500  0.75622600  1
  H  H7  1  0.53840300  0.67417500  0.24377400  1
  H  H8  1  0.57551700  0.36106500  0.49737200  1
  H  H9  1  0.42448300  0.63893500  0.50262800  1
  H  H10  1  0.32647100  0.16511400  0.08145100  1
  H  H11  1  0.67352900  0.83488600  0.91854900  1
  H  H12  1  0.44415700  0.34341600  0.36579400  1
  H  H13  1  0.55584300  0.65658400  0.63420600  1
  H  H14  1  0.55143600  0.09944700  0.39616600  1
  H  H15  1  0.44856400  0.90055300  0.60383400  1
  H  H16  1  0.04287100  0.36141100  0.43852000  1
  H  H17  1  0.95712900  0.63858900  0.56148000  1
  H  H18  1  0.25914400  0.30559700  0.81681800  1
  H  H19  1  0.74085600  0.69440300  0.18318200  1
  H  H20  1  0.77630300  0.14073100  0.41434500  1
  H  H21  1  0.22369700  0.85926900  0.58565500  1
  H  H22  1  0.55072100  0.24604500  0.06321000  1
  H  H23  1  0.44927900  0.75395500  0.93679000  1
  H  H24  1  0.14949800  0.94922300  0.30292500  1
  H  H25  1  0.85050200  0.05077700  0.69707500  1
  H  H26  1  0.16654600  0.83129400  0.11547200  1
  H  H27  1  0.83345400  0.16870600  0.88452800  1
  S  S0  1  0.78498200  0.47814300  0.07291200  1
  S  S1  1  0.21501800  0.52185700  0.92708800  1
  S  S2  1  0.01279500  0.17874300  0.08590700  1
  S  S3  1  0.98720500  0.82125700  0.91409300  1
  S  S4  1  0.23375800  0.52224900  0.29880200  1
  S  S5  1  0.76624200  0.47775100  0.70119800  1
  O  O0  1  0.47798200  0.28873500  0.43872500  1
  O  O1  1  0.52201800  0.71126400  0.56127500  1
  O  O2  1  0.25022600  0.84354800  0.19945200  1
  O  O3  1  0.74977400  0.15645200  0.80054800  1
  O  O4  1  0.45552600  0.14800800  0.06702200  1
  O  O5  1  0.54447400  0.85199200  0.93297800  1
  O  O6  1  0.66041100  0.05852100  0.38091800  1
  O  O7  1  0.33958900  0.94147900  0.61908200  1
  O  O8  1  0.02496200  0.71310500  0.50028600  1
  O  O9  1  0.97503800  0.28689500  0.49971400  1
  O  O10  1  0.08449300  0.01449300  0.34863600  1
  O  O11  1  0.91550700  0.98550700  0.65136400  1
  O  O12  1  0.33257600  0.25211800  0.76544900  1
  O  O13  1  0.66742400  0.74788200  0.23455100  1
loop_
_geom_bond_atom_site_label_1
_geom_bond_atom_site_label_2
_geom_bond_distance
_geom_bond_site_symmetry_2
Na0 O10 2.348337 1_555
Na0 O12 2.371099 1_555
Na0 O11 2.405591 1_445
Na0 O0 2.439191 1_555
Na0 O9 2.470801 1_455
Na0 O7 2.493467 1_545
Na1 O11 2.348337 1_555
Na1 O13 2.371099 1_555
Na1 O10 2.405591 1_665
Na1 O1 2.439194 1_555
Na1 O8 2.470801 1_655
Na1 O6 2.493467 1_565
Na2 O7 2.386528 1_545
Na2 O5 2.400237 1_545
Na2 O4 2.431527 1_556
Na2 O12 2.480560 1_555
Na2 O3 2.489168 1_555
Na2 S3 3.144709 1_445
Na3 O6 2.386528 1_565
Na3 O4 2.400237 1_565
Na3 O5 2.431527 1_554
Na3 O13 2.480560 1_555
Na3 O2 2.489168 1_555
Na3 S2 3.144709 1_665
Ge0 S2 2.171750 1_555
Ge0 S4 2.213592 1_555
Ge0 S0 2.302122 1_455
Ge0 S1 2.314694 1_554
Ge1 S3 2.171750 1_555
Ge1 S5 2.213592 1_555
Ge1 S1 2.302122 1_655
Ge1 S0 2.314694 1_556
H0 O10 0.992565 1_555
H1 O11 0.992565 1_555
H2 O2 0.993580 1_555
H3 O3 0.993580 1_555
H4 O8 0.988463 1_555
H5 O9 0.988463 1_555
H6 O12 0.987643 1_555
H7 O13 0.987643 1_555
H8 O0 0.977338 1_555
H9 O1 0.977334 1_555
H10 O4 0.993574 1_555
H11 O5 0.993574 1_555
H12 O0 0.980761 1_555
H13 O1 0.980755 1_555
H14 O6 0.981248 1_555
H15 O7 0.981248 1_555
H16 O9 0.991621 1_455
H17 O8 0.991621 1_655
H18 O12 0.984835 1_555
H19 O13 0.984835 1_555
H20 O6 0.989629 1_555
H21 O7 0.989629 1_555
H22 O4 0.984595 1_555
H23 O5 0.984595 1_555
H24 O10 0.994465 1_565
H25 O11 0.994465 1_545
H26 O2 0.994200 1_555
H27 O3 0.994200 1_555
