# generated using pymatgen
data_YbSbIr
_symmetry_space_group_name_H-M   'P 1'
_cell_length_a   4.48096904
_cell_length_b   7.04437584
_cell_length_c   7.79780906
_cell_angle_alpha   90.00000000
_cell_angle_beta   90.00000000
_cell_angle_gamma   90.00000000
_symmetry_Int_Tables_number   1
_chemical_formula_structural   YbSbIr
_chemical_formula_sum   'Yb4 Sb4 Ir4'
_cell_volume   246.14275581
_cell_formula_units_Z   4
loop_
 _symmetry_equiv_pos_site_id
 _symmetry_equiv_pos_as_xyz
  1  'x, y, z'
loop_
 _atom_site_type_symbol
 _atom_site_label
 _atom_site_symmetry_multiplicity
 _atom_site_fract_x
 _atom_site_fract_y
 _atom_site_fract_z
 _atom_site_occupancy
  Yb  Yb0  1  0.25000000  0.01115368  0.30714302  1
  Yb  Yb1  1  0.25000000  0.51115368  0.19285698  1
  Yb  Yb2  1  0.75000000  0.98884632  0.69285698  1
  Yb  Yb3  1  0.75000000  0.48884632  0.80714302  1
  Sb  Sb0  1  0.25000000  0.67884096  0.58945129  1
  Sb  Sb1  1  0.25000000  0.17884096  0.91054871  1
  Sb  Sb2  1  0.75000000  0.32115904  0.41054871  1
  Sb  Sb3  1  0.75000000  0.82115904  0.08945129  1
  Ir  Ir0  1  0.25000000  0.28893989  0.58603634  1
  Ir  Ir1  1  0.25000000  0.78893989  0.91396366  1
  Ir  Ir2  1  0.75000000  0.71106011  0.41396366  1
  Ir  Ir3  1  0.75000000  0.21106011  0.08603634  1
loop_
_geom_bond_atom_site_label_1
_geom_bond_atom_site_label_2
_geom_bond_distance
_geom_bond_site_symmetry_2
Sb0 Yb3 3.113300 1_555
Sb0 Yb3 3.113300 1_455
Sb0 Yb0 3.213422 1_565
Sb0 Yb2 3.230930 1_455
Sb0 Yb2 3.230930 1_555
Sb0 Yb1 3.310487 1_555
Sb1 Yb2 3.113300 1_445
Sb1 Yb2 3.113300 1_545
Sb1 Yb1 3.213422 1_556
Sb1 Yb3 3.230930 1_555
Sb1 Yb3 3.230930 1_455
Sb1 Yb0 3.310487 1_556
Sb2 Yb1 3.113300 1_655
Sb2 Yb1 3.113300 1_555
Sb2 Yb2 3.213422 1_545
Sb2 Yb0 3.230930 1_555
Sb2 Yb0 3.230930 1_655
Sb2 Yb3 3.310487 1_555
Sb3 Yb0 3.113300 1_665
Sb3 Yb0 3.113300 1_565
Sb3 Yb3 3.213422 1_554
Sb3 Yb1 3.230930 1_655
Sb3 Yb1 3.230930 1_555
Sb3 Yb2 3.310487 1_554
Ir0 Sb2 2.635119 1_455
Ir0 Sb2 2.635119 1_555
Ir0 Sb1 2.646673 1_555
Ir0 Sb0 2.746739 1_555
Ir0 Yb0 2.925535 1_555
Ir0 Yb3 3.158406 1_555
Ir0 Yb3 3.158406 1_455
Ir0 Yb2 3.191000 1_445
Ir0 Yb2 3.191000 1_545
Ir0 Yb1 3.442429 1_555
Ir1 Sb3 2.635119 1_456
Ir1 Sb3 2.635119 1_556
Ir1 Sb0 2.646673 1_555
Ir1 Sb1 2.746739 1_565
Ir1 Yb1 2.925535 1_556
Ir1 Yb2 3.158406 1_455
Ir1 Yb2 3.158406 1_555
Ir1 Yb3 3.191000 1_555
Ir1 Yb3 3.191000 1_455
Ir1 Yb0 3.442429 1_566
Ir2 Sb0 2.635119 1_555
Ir2 Sb0 2.635119 1_655
Ir2 Sb3 2.646673 1_555
Ir2 Sb2 2.746739 1_555
Ir2 Yb2 2.925535 1_555
Ir2 Yb1 3.158406 1_555
Ir2 Yb1 3.158406 1_655
Ir2 Yb0 3.191000 1_565
Ir2 Yb0 3.191000 1_665
Ir2 Yb3 3.442429 1_555
Ir3 Sb1 2.635119 1_654
Ir3 Sb1 2.635119 1_554
Ir3 Sb2 2.646673 1_555
Ir3 Sb3 2.746739 1_545
Ir3 Yb3 2.925535 1_554
Ir3 Yb0 3.158406 1_555
Ir3 Yb0 3.158406 1_655
Ir3 Yb1 3.191000 1_655
Ir3 Yb1 3.191000 1_555
Ir3 Yb2 3.442429 1_544
