# generated using pymatgen
data_Na2CuBiF6
_symmetry_space_group_name_H-M   'P 1'
_cell_length_a   6.26193118
_cell_length_b   6.26193118
_cell_length_c   6.26193118
_cell_angle_alpha   60.00000000
_cell_angle_beta   60.00000000
_cell_angle_gamma   60.00000000
_symmetry_Int_Tables_number   1
_chemical_formula_structural   Na2CuBiF6
_chemical_formula_sum   'Na2 Cu1 Bi1 F6'
_cell_volume   173.62404618
_cell_formula_units_Z   1
loop_
 _symmetry_equiv_pos_site_id
 _symmetry_equiv_pos_as_xyz
  1  'x, y, z'
loop_
 _atom_site_type_symbol
 _atom_site_label
 _atom_site_symmetry_multiplicity
 _atom_site_fract_x
 _atom_site_fract_y
 _atom_site_fract_z
 _atom_site_occupancy
  Na  Na0  1  0.75000000  0.75000000  0.75000000  1
  Na  Na1  1  0.25000000  0.25000000  0.25000000  1
  Cu  Cu0  1  0.50000000  0.50000000  0.50000000  1
  Bi  Bi0  1  0.00000000  0.00000000  0.00000000  1
  F  F0  1  0.74345800  0.25654200  0.25654200  1
  F  F1  1  0.25654200  0.25654200  0.74345800  1
  F  F2  1  0.25654200  0.74345800  0.74345800  1
  F  F3  1  0.25654200  0.74345800  0.25654200  1
  F  F4  1  0.74345800  0.25654200  0.74345800  1
  F  F5  1  0.74345800  0.74345800  0.25654200  1
loop_
_geom_bond_atom_site_label_1
_geom_bond_atom_site_label_2
_geom_bond_distance
_geom_bond_site_symmetry_2
Cu0 F4 2.155993 1_555
Cu0 F5 2.155993 1_555
Cu0 F2 2.155993 1_555
Cu0 F3 2.155993 1_555
Cu0 F0 2.155993 1_555
Cu0 F1 2.155993 1_555
Bi0 F1 2.271861 1_554
Bi0 F3 2.271861 1_545
Bi0 F0 2.271861 1_455
Bi0 F5 2.271861 1_445
Bi0 F4 2.271861 1_454
Bi0 F2 2.271861 1_544
