# generated using pymatgen
data_U
_symmetry_space_group_name_H-M   'P 1'
_cell_length_a   3.74488708
_cell_length_b   3.74488421
_cell_length_c   5.30217991
_cell_angle_alpha   90.00069076
_cell_angle_beta   89.99930943
_cell_angle_gamma   89.99949455
_symmetry_Int_Tables_number   1
_chemical_formula_structural   U
_chemical_formula_sum   U4
_cell_volume   74.35866441
_cell_formula_units_Z   4
loop_
 _symmetry_equiv_pos_site_id
 _symmetry_equiv_pos_as_xyz
  1  'x, y, z'
loop_
 _atom_site_type_symbol
 _atom_site_label
 _atom_site_symmetry_multiplicity
 _atom_site_fract_x
 _atom_site_fract_y
 _atom_site_fract_z
 _atom_site_occupancy
  U  U0  1  0.00000000  0.50000000  0.50000000  1
  U  U1  1  0.50000000  -0.00000000  -0.00000000  1
  U  U2  1  -0.00000000  0.50000000  0.00000000  1
  U  U3  1  0.50000000  0.00000000  0.50000000  1
loop_
_geom_bond_atom_site_label_1
_geom_bond_atom_site_label_2
_geom_bond_distance
_geom_bond_site_symmetry_2
U0 U3 2.648022 1_555
U0 U3 2.648022 1_465
U0 U3 2.648046 1_455
U0 U3 2.648046 1_565
U0 U2 2.651090 1_555
U0 U2 2.651090 1_556
U1 U2 2.648022 1_645
U1 U2 2.648022 1_555
U1 U2 2.648046 1_655
U1 U2 2.648046 1_545
U1 U3 2.651090 1_555
U1 U3 2.651090 1_554
