# generated using pymatgen
data_Na8Zr3Si16Sn(H4O13)4
_symmetry_space_group_name_H-M   'P 1'
_cell_length_a   7.62482100
_cell_length_b   8.92465076
_cell_length_c   16.97876733
_cell_angle_alpha   90.34248732
_cell_angle_beta   91.48266135
_cell_angle_gamma   90.05261789
_symmetry_Int_Tables_number   1
_chemical_formula_structural   Na8Zr3Si16Sn(H4O13)4
_chemical_formula_sum   'Na8 Zr3 Si16 Sn1 H16 O52'
_cell_volume   1154.97771622
_cell_formula_units_Z   1
loop_
 _symmetry_equiv_pos_site_id
 _symmetry_equiv_pos_as_xyz
  1  'x, y, z'
loop_
 _atom_site_type_symbol
 _atom_site_label
 _atom_site_symmetry_multiplicity
 _atom_site_fract_x
 _atom_site_fract_y
 _atom_site_fract_z
 _atom_site_occupancy
  Na  Na0  1  0.39434600  0.81206100  0.60459100  1
  Na  Na1  1  0.89273300  0.81116100  0.10430000  1
  Na  Na2  1  0.60464000  0.31195100  0.89589000  1
  Na  Na3  1  0.10514600  0.31165700  0.39548900  1
  Na  Na4  1  0.10726700  0.18883900  0.89570000  1
  Na  Na5  1  0.60565400  0.18793900  0.39540900  1
  Na  Na6  1  0.89485400  0.68834300  0.60451100  1
  Na  Na7  1  0.39536000  0.68804900  0.10411000  1
  Zr  Zr0  1  0.00000000  0.00000000  0.50000000  1
  Zr  Zr1  1  0.50000000  0.50000000  0.50000000  1
  Zr  Zr2  1  0.00000000  0.50000000  0.00000000  1
  Si  Si0  1  0.88517200  0.34219000  0.58453300  1
  Si  Si1  1  0.38668100  0.33891800  0.08277200  1
  Si  Si2  1  0.11835800  0.84420200  0.91734600  1
  Si  Si3  1  0.61342000  0.84257600  0.41579900  1
  Si  Si4  1  0.61331900  0.66108200  0.91722800  1
  Si  Si5  1  0.11482800  0.65781000  0.41546700  1
  Si  Si6  1  0.38658000  0.15742400  0.58420100  1
  Si  Si7  1  0.88164200  0.15579800  0.08265400  1
  Si  Si8  1  0.74810500  0.05906700  0.66085000  1
  Si  Si9  1  0.24760900  0.05721000  0.15706300  1
  Si  Si10  1  0.25219600  0.56008800  0.84101700  1
  Si  Si11  1  0.75188100  0.55874100  0.34042600  1
  Si  Si12  1  0.75239100  0.94279000  0.84293700  1
  Si  Si13  1  0.25189500  0.94093300  0.33915000  1
  Si  Si14  1  0.24811900  0.44125900  0.65957400  1
  Si  Si15  1  0.74780400  0.43991200  0.15898300  1
  Sn  Sn0  1  0.50000000  0.00000000  0.00000000  1
  H  H0  1  0.07785100  0.89940400  0.67485900  1
  H  H1  1  0.57852300  0.89890200  0.17425400  1
  H  H2  1  0.92247600  0.39946000  0.82557000  1
  H  H3  1  0.42224200  0.39935900  0.32544600  1
  H  H4  1  0.42147700  0.10109800  0.82574600  1
  H  H5  1  0.92214900  0.10059600  0.32514100  1
  H  H6  1  0.57775800  0.60064100  0.67455400  1
  H  H7  1  0.07752400  0.60054000  0.17443000  1
  H  H8  1  0.16309200  0.80226100  0.74435000  1
  H  H9  1  0.66282000  0.80257500  0.24446100  1
  H  H10  1  0.83659900  0.30200300  0.75579500  1
  H  H11  1  0.33671600  0.30177200  0.25554500  1
  H  H12  1  0.33718000  0.19742500  0.75553900  1
  H  H13  1  0.83690800  0.19773900  0.25565000  1
  H  H14  1  0.66328400  0.69822800  0.74445500  1
  H  H15  1  0.16340100  0.69799700  0.24420500  1
  O  O0  1  0.87979900  0.95768800  0.60969500  1
  O  O1  1  0.38144800  0.95517700  0.10692600  1
  O  O2  1  0.12004100  0.45814100  0.89100000  1
  O  O3  1  0.62053900  0.45727300  0.39112200  1
  O  O4  1  0.61855200  0.04482300  0.89307400  1
  O  O5  1  0.12020100  0.04231200  0.39030500  1
  O  O6  1  0.37946100  0.54272700  0.60887800  1
  O  O7  1  0.87995900  0.54185900  0.10900000  1
  O  O8  1  0.74131800  0.46598700  0.55805200  1
  O  O9  1  0.24250600  0.46257100  0.05628300  1
  O  O10  1  0.26073000  0.97163100  0.94242900  1
  O  O11  1  0.75785200  0.96665800  0.44241900  1
  O  O12  1  0.75749400  0.53742900  0.94371700  1
  O  O13  1  0.25868200  0.53401300  0.44194800  1
  O  O14  1  0.24214800  0.03334200  0.55758100  1
  O  O15  1  0.73927000  0.02836900  0.05757100  1
  O  O16  1  0.81234500  0.23684300  0.65843100  1
  O  O17  1  0.31331800  0.23427800  0.15656300  1
  O  O18  1  0.18901300  0.73801500  0.84269500  1
  O  O19  1  0.68725700  0.73614400  0.34208900  1
  O  O20  1  0.68668200  0.76572200  0.84343700  1
  O  O21  1  0.18765500  0.76315700  0.34156900  1
  O  O22  1  0.31274300  0.26385600  0.65791100  1
  O  O23  1  0.81098700  0.26198500  0.15730500  1
  O  O24  1  0.15651000  0.81496600  0.68664300  1
  O  O25  1  0.65664200  0.81446900  0.18674500  1
  O  O26  1  0.84314800  0.31522400  0.81358700  1
  O  O27  1  0.34329200  0.31485600  0.31325900  1
  O  O28  1  0.34335800  0.18553100  0.81325500  1
  O  O29  1  0.84349000  0.18503400  0.31335700  1
  O  O30  1  0.65670800  0.68514400  0.68674100  1
  O  O31  1  0.15685200  0.68477600  0.18641300  1
  O  O32  1  0.04552300  0.44600800  0.62467300  1
  O  O33  1  0.54575300  0.44368100  0.12344900  1
  O  O34  1  0.95590000  0.94667300  0.87757000  1
  O  O35  1  0.45402800  0.94579800  0.37494200  1
  O  O36  1  0.45424700  0.55631900  0.87655100  1
  O  O37  1  0.95447700  0.55399200  0.37532700  1
  O  O38  1  0.54597200  0.05420200  0.62505800  1
  O  O39  1  0.04410000  0.05332700  0.12243000  1
  O  O40  1  0.94759400  0.23282600  0.51363500  1
  O  O41  1  0.44876100  0.23083500  0.01101400  1
  O  O42  1  0.05635900  0.73360200  0.98724800  1
  O  O43  1  0.55193500  0.73350700  0.48641200  1
  O  O44  1  0.55123900  0.76916500  0.98898600  1
  O  O45  1  0.05240600  0.76717400  0.48636500  1
  O  O46  1  0.44806500  0.26649300  0.51358800  1
  O  O47  1  0.94364100  0.26639800  0.01275200  1
  O  O48  1  0.25048400  0.50061900  0.75029600  1
  O  O49  1  0.74951600  0.49938100  0.24970400  1
  O  O50  1  0.74879400  0.00256500  0.75213000  1
  O  O51  1  0.25120600  0.99743500  0.24787000  1
loop_
_geom_bond_atom_site_label_1
_geom_bond_atom_site_label_2
_geom_bond_distance
_geom_bond_site_symmetry_2
Na0 O24 2.315283 1_555
Na0 O6 2.407910 1_555
Na0 O14 2.420532 1_565
Na0 O43 2.463937 1_555
Na0 O38 2.468409 1_565
Na1 O25 2.308875 1_555
Na1 O15 2.393950 1_565
Na1 O7 2.407193 1_555
Na1 O39 2.463103 1_665
Na1 O42 2.469591 1_654
Na2 O26 2.322224 1_555
Na2 O4 2.386729 1_555
Na2 O41 2.427550 1_556
Na2 O12 2.448336 1_555
Na2 O36 2.484506 1_555
Na3 O27 2.319239 1_555
Na3 O5 2.407847 1_555
Na3 O13 2.420745 1_555
Na3 O40 2.470234 1_455
Na3 O37 2.471347 1_455
Na4 O28 2.308875 1_555
Na4 O10 2.393950 1_545
Na4 O2 2.407193 1_555
Na4 O34 2.463103 1_445
Na4 O47 2.469591 1_456
Na5 O29 2.315283 1_555
Na5 O3 2.407910 1_555
Na5 O11 2.420532 1_545
Na5 O46 2.463937 1_555
Na5 O35 2.468409 1_545
Na6 O30 2.319239 1_555
Na6 O0 2.407847 1_555
Na6 O8 2.420745 1_555
Na6 O45 2.470234 1_655
Na6 O32 2.471347 1_655
Na7 O31 2.322224 1_555
Na7 O1 2.386729 1_555
Na7 O44 2.427550 1_554
Na7 O9 2.448336 1_555
Na7 O33 2.484506 1_555
H0 O24 0.981860 1_555
H1 O25 0.981724 1_555
H2 O26 0.981524 1_555
H3 O27 0.982246 1_555
H4 O28 0.981724 1_555
H5 O29 0.981860 1_555
H6 O30 0.982246 1_555
H7 O31 0.981524 1_555
H8 O24 0.986998 1_555
H9 O25 0.986228 1_555
H10 O26 0.987578 1_555
H11 O27 0.986132 1_555
H12 O28 0.986228 1_555
H13 O29 0.986998 1_555
H14 O30 0.986132 1_555
H15 O31 0.987578 1_555
O0 Si8 1.618240 1_565
O0 Zr0 2.132499 1_665
O1 Si9 1.622551 1_565
O1 Sn0 2.089499 1_565
O2 Si10 1.617156 1_555
O2 Zr2 2.117162 1_556
O3 Si11 1.617446 1_555
O3 Zr1 2.118406 1_555
O4 Si12 1.622551 1_545
O4 Sn0 2.089499 1_556
O5 Si13 1.618240 1_545
O5 Zr0 2.132499 1_555
O6 Si14 1.617446 1_555
O6 Zr1 2.118406 1_555
O7 Si15 1.617156 1_555
O7 Zr2 2.117162 1_655
O8 Si0 1.615111 1_555
O8 Zr1 2.088068 1_555
O9 Si1 1.615913 1_555
O9 Zr2 2.087423 1_555
O10 Si2 1.619010 1_555
O10 Sn0 2.062011 1_566
O11 Si3 1.615364 1_555
O11 Zr0 2.086962 1_665
O12 Si4 1.615913 1_555
O12 Zr2 2.087423 1_656
O13 Si5 1.615111 1_555
O13 Zr1 2.088068 1_555
O14 Si6 1.615364 1_555
O14 Zr0 2.086962 1_555
O15 Si7 1.619010 1_555
O15 Sn0 2.062011 1_555
O16 Si8 1.661104 1_555
O16 Si0 1.678023 1_555
O17 Si9 1.657490 1_555
O17 Si1 1.674525 1_555
O18 Si10 1.660126 1_555
O18 Si2 1.678320 1_555
O19 Si11 1.658893 1_555
O19 Si3 1.675920 1_555
O20 Si12 1.657490 1_555
O20 Si4 1.674525 1_555
O21 Si13 1.661104 1_555
O21 Si5 1.678023 1_555
O22 Si14 1.658893 1_555
O22 Si6 1.675920 1_555
O23 Si15 1.660126 1_555
O23 Si7 1.678320 1_555
O32 Si14 1.640814 1_555
O32 Si0 1.662851 1_455
O33 Si15 1.640374 1_555
O33 Si1 1.664070 1_555
O34 Si12 1.645372 1_555
O34 Si2 1.671233 1_655
O35 Si13 1.642457 1_555
O35 Si3 1.665226 1_555
O36 Si10 1.640374 1_555
O36 Si4 1.664070 1_555
O37 Si11 1.640814 1_555
O37 Si5 1.662851 1_655
O38 Si8 1.642457 1_555
O38 Si6 1.665226 1_555
O39 Si9 1.645372 1_555
O39 Si7 1.671233 1_455
O40 Si0 1.626246 1_555
O40 Zr0 2.128722 1_655
O41 Si1 1.629588 1_555
O41 Sn0 2.105318 1_555
O42 Si2 1.627443 1_555
O42 Zr2 2.141627 1_556
O43 Si3 1.626933 1_555
O43 Zr1 2.135866 1_555
O44 Si4 1.629588 1_555
O44 Sn0 2.105318 1_566
O45 Si5 1.626246 1_555
O45 Zr0 2.128722 1_565
O46 Si6 1.626933 1_555
O46 Zr1 2.135866 1_555
O47 Si7 1.627443 1_555
O47 Zr2 2.141627 1_655
O48 Si14 1.625558 1_555
O48 Si10 1.625930 1_555
O49 Si11 1.625558 1_555
O49 Si15 1.625930 1_555
O50 Si8 1.632538 1_555
O50 Si12 1.634055 1_545
O51 Si13 1.632538 1_555
O51 Si9 1.634055 1_565
