# generated using pymatgen
data_Fe12Ge3As2
_symmetry_space_group_name_H-M   'P 1'
_cell_length_a   6.64313233
_cell_length_b   6.64313233
_cell_length_c   6.64313287
_cell_angle_alpha   62.03184507
_cell_angle_beta   62.03184507
_cell_angle_gamma   62.03183706
_symmetry_Int_Tables_number   1
_chemical_formula_structural   Fe12Ge3As2
_chemical_formula_sum   'Fe12 Ge3 As2'
_cell_volume   216.72128204
_cell_formula_units_Z   1
loop_
 _symmetry_equiv_pos_site_id
 _symmetry_equiv_pos_as_xyz
  1  'x, y, z'
loop_
 _atom_site_type_symbol
 _atom_site_label
 _atom_site_symmetry_multiplicity
 _atom_site_fract_x
 _atom_site_fract_y
 _atom_site_fract_z
 _atom_site_occupancy
  Fe  Fe0  1  0.02400100  0.72546500  0.49631600  1
  Fe  Fe1  1  0.49631600  0.02400100  0.72546500  1
  Fe  Fe2  1  0.72546500  0.49631600  0.02400100  1
  Fe  Fe3  1  0.50368400  0.27453500  0.97599900  1
  Fe  Fe4  1  0.97599900  0.50368400  0.27453500  1
  Fe  Fe5  1  0.27453500  0.97599900  0.50368400  1
  Fe  Fe6  1  0.11487100  0.11487100  0.11487100  1
  Fe  Fe7  1  0.88512900  0.88512900  0.88512900  1
  Fe  Fe8  1  0.50000000  0.50000000  0.50000000  1
  Fe  Fe9  1  0.23967200  0.76032800  0.00000000  1
  Fe  Fe10  1  0.00000000  0.23967200  0.76032800  1
  Fe  Fe11  1  0.76032800  0.00000000  0.23967200  1
  Ge  Ge0  1  0.50000000  0.84719800  0.15280200  1
  Ge  Ge1  1  0.15280200  0.50000000  0.84719800  1
  Ge  Ge2  1  0.84719800  0.15280200  0.50000000  1
  As  As0  1  0.64554800  0.64554800  0.64554800  1
  As  As1  1  0.35445200  0.35445200  0.35445200  1
loop_
_geom_bond_atom_site_label_1
_geom_bond_atom_site_label_2
_geom_bond_distance
_geom_bond_site_symmetry_2
Fe0 Ge1 2.408906 1_555
Fe0 Fe11 2.487830 1_465
Fe0 Ge2 2.519914 1_465
Fe0 Fe9 2.853313 1_555
Fe0 Fe10 2.903038 1_555
Fe1 Ge2 2.408906 1_555
Fe1 Fe9 2.487830 1_546
Fe1 Ge0 2.519914 1_546
Fe1 Fe10 2.853312 1_555
Fe1 Fe11 2.903038 1_555
Fe2 Ge0 2.408906 1_555
Fe2 Ge1 2.519914 1_654
Fe2 Fe9 2.903037 1_555
Fe3 Ge1 2.408906 1_555
Fe3 Ge0 2.519914 1_546
Fe3 Fe9 2.903037 1_556
Fe4 Ge2 2.408906 1_555
Fe4 Fe9 2.487830 1_655
Fe4 Ge1 2.519914 1_654
Fe5 Ge0 2.408906 1_555
Fe5 Ge2 2.519914 1_465
Fe5 Fe9 2.853313 1_556
Fe6 Ge0 2.385038 1_545
Fe6 Ge1 2.385038 1_554
Fe6 Ge2 2.385038 1_455
Fe6 Fe9 2.465332 1_545
Fe7 Ge1 2.385038 1_655
Fe7 Ge0 2.385038 1_556
Fe7 Ge2 2.385038 1_565
Fe7 Fe9 2.465332 1_656
Fe8 Ge2 2.376951 1_555
Fe8 Ge1 2.376951 1_555
Fe8 Ge0 2.376951 1_555
Fe9 Ge0 2.736120 1_555
Fe9 Ge1 2.736120 1_554
Fe10 Fe7 2.465332 1_445
Fe10 Fe6 2.465332 1_556
Fe10 Fe5 2.487830 1_545
Fe10 Fe2 2.487830 1_456
Fe10 Ge1 2.736120 1_555
Fe10 Ge2 2.736120 1_455
Fe10 Fe9 2.841979 1_546
Fe10 Fe11 2.841980 1_456
Fe10 Fe3 2.853313 1_455
Fe10 Fe4 2.903038 1_455
Fe11 Fe6 2.465332 1_655
Fe11 Fe7 2.465332 1_544
Fe11 Fe3 2.487830 1_554
Fe11 Ge0 2.736120 1_545
Fe11 Ge2 2.736120 1_555
Fe11 Fe9 2.841979 1_645
Fe11 Fe4 2.853312 1_545
Fe11 Fe2 2.853313 1_555
Fe11 Fe5 2.903038 1_545
As0 Fe8 2.331376 1_555
As0 Fe1 2.450697 1_565
As0 Fe0 2.450697 1_655
As0 Fe2 2.450697 1_556
As0 Fe5 2.635370 1_555
As0 Fe4 2.635370 1_555
As0 Fe3 2.635370 1_555
As0 Fe10 2.682635 1_655
As0 Fe9 2.682635 1_556
As0 Fe11 2.682635 1_565
As1 Fe8 2.331376 1_555
As1 Fe4 2.450697 1_455
As1 Fe5 2.450697 1_545
As1 Fe3 2.450697 1_554
As1 Fe0 2.635370 1_555
As1 Fe1 2.635370 1_555
As1 Fe2 2.635370 1_555
As1 Fe11 2.682635 1_555
As1 Fe9 2.682635 1_555
As1 Fe10 2.682635 1_555
