# generated using pymatgen
data_K2ZnP4H8O15
_symmetry_space_group_name_H-M   'P 1'
_cell_length_a   6.70091926
_cell_length_b   7.63571691
_cell_length_c   7.63571691
_cell_angle_alpha   105.24705371
_cell_angle_beta   98.33543631
_cell_angle_gamma   98.33543631
_symmetry_Int_Tables_number   1
_chemical_formula_structural   K2ZnP4H8O15
_chemical_formula_sum   'K2 Zn1 P4 H8 O15'
_cell_volume   366.03349619
_cell_formula_units_Z   1
loop_
 _symmetry_equiv_pos_site_id
 _symmetry_equiv_pos_as_xyz
  1  'x, y, z'
loop_
 _atom_site_type_symbol
 _atom_site_label
 _atom_site_symmetry_multiplicity
 _atom_site_fract_x
 _atom_site_fract_y
 _atom_site_fract_z
 _atom_site_occupancy
  K  K0  1  0.91387500  0.29204300  0.29204300  1
  K  K1  1  0.08612500  0.70795700  0.70795700  1
  Zn  Zn0  1  0.50000000  0.50000000  0.50000000  1
  P  P0  1  0.33072600  0.25353800  0.73621300  1
  P  P1  1  0.33072600  0.73621300  0.25353800  1
  P  P2  1  0.66927400  0.74646200  0.26378700  1
  P  P3  1  0.66927400  0.26378700  0.74646200  1
  H  H0  1  0.24227600  0.99644600  0.50870900  1
  H  H1  1  0.24227600  0.50870900  0.99644600  1
  H  H2  1  0.75772400  0.00355400  0.49129100  1
  H  H3  1  0.75772400  0.49129100  0.00355400  1
  H  H4  1  0.60919400  0.72880300  0.86139000  1
  H  H5  1  0.60919400  0.86139000  0.72880300  1
  H  H6  1  0.39080600  0.27119700  0.13861000  1
  H  H7  1  0.39080600  0.13861000  0.27119700  1
  O  O0  1  0.28767700  0.31259300  0.93170200  1
  O  O1  1  0.28767700  0.93170200  0.31259300  1
  O  O2  1  0.71232300  0.68740700  0.06829800  1
  O  O3  1  0.71232300  0.06829800  0.68740700  1
  O  O4  1  0.26769800  0.37039400  0.60980700  1
  O  O5  1  0.26769800  0.60980700  0.37039400  1
  O  O6  1  0.73230200  0.62960600  0.39019300  1
  O  O7  1  0.73230200  0.39019300  0.62960600  1
  O  O8  1  0.22345000  0.04262200  0.64400600  1
  O  O9  1  0.22345000  0.64400600  0.04262200  1
  O  O10  1  0.77655000  0.95737800  0.35599400  1
  O  O11  1  0.77655000  0.35599400  0.95737800  1
  O  O12  1  0.54415100  0.74010000  0.74010000  1
  O  O13  1  0.45584900  0.25990000  0.25990000  1
  O  O14  1  0.00000000  0.00000000  0.00000000  1
loop_
_geom_bond_atom_site_label_1
_geom_bond_atom_site_label_2
_geom_bond_distance
_geom_bond_site_symmetry_2
K0 O11 2.778514 1_554
K0 O10 2.778514 1_545
K0 O14 2.899877 1_655
K0 O7 2.973780 1_555
K0 O6 2.973780 1_555
K0 O5 3.003964 1_655
K0 O4 3.003964 1_655
K0 O13 3.011966 1_555
K1 O9 2.778514 1_556
K1 O8 2.778514 1_565
K1 O14 2.899877 1_566
K1 O4 2.973780 1_555
K1 O5 2.973780 1_555
K1 O6 3.003964 1_455
K1 O7 3.003964 1_455
K1 O12 3.011966 1_555
H0 O8 1.032765 1_565
H0 O1 1.538096 1_555
H1 O9 1.032765 1_556
H1 O0 1.538096 1_555
H2 O10 1.032765 1_545
H2 O3 1.538096 1_555
H3 O11 1.032765 1_554
H3 O2 1.538096 1_555
H4 O12 0.995499 1_555
H5 O12 0.995499 1_555
H6 O13 0.995499 1_555
H7 O13 0.995499 1_555
O0 P0 1.524216 1_555
O1 P1 1.524216 1_555
O2 P2 1.524216 1_555
O3 P3 1.524216 1_555
O4 P0 1.533035 1_555
O4 Zn0 2.115112 1_555
O5 P1 1.533035 1_555
O5 Zn0 2.115112 1_555
O6 P2 1.533035 1_555
O6 Zn0 2.115112 1_555
O7 P3 1.533035 1_555
O7 Zn0 2.115112 1_555
O8 P0 1.589766 1_555
O9 P1 1.589766 1_555
O10 P2 1.589766 1_555
O11 P3 1.589766 1_555
O12 Zn0 2.174263 1_555
O13 Zn0 2.174263 1_555
