# generated using pymatgen
data_Zr20Sn13
_symmetry_space_group_name_H-M   'P 1'
_cell_length_a   5.91153506
_cell_length_b   8.60717963
_cell_length_c   14.93995203
_cell_angle_alpha   89.99999815
_cell_angle_beta   90.00000414
_cell_angle_gamma   90.01648498
_symmetry_Int_Tables_number   1
_chemical_formula_structural   Zr20Sn13
_chemical_formula_sum   'Zr20 Sn13'
_cell_volume   760.16929122
_cell_formula_units_Z   1
loop_
 _symmetry_equiv_pos_site_id
 _symmetry_equiv_pos_as_xyz
  1  'x, y, z'
loop_
 _atom_site_type_symbol
 _atom_site_label
 _atom_site_symmetry_multiplicity
 _atom_site_fract_x
 _atom_site_fract_y
 _atom_site_fract_z
 _atom_site_occupancy
  Zr  Zr0  1  0.50000000  0.99999800  0.33402600  1
  Zr  Zr1  1  0.50000600  0.49999800  0.83330800  1
  Zr  Zr2  1  0.50000600  0.49999800  0.16669200  1
  Zr  Zr3  1  0.50000000  0.99999800  0.66597400  1
  Zr  Zr4  1  0.99999700  0.49999900  0.16653500  1
  Zr  Zr5  1  0.99999800  0.99999600  0.66582800  1
  Zr  Zr6  1  0.99999800  0.99999600  0.33417200  1
  Zr  Zr7  1  0.99999700  0.49999900  0.83346500  1
  Zr  Zr8  1  0.76996600  0.26906600  0.00000000  1
  Zr  Zr9  1  0.75278100  0.74964900  0.50000000  1
  Zr  Zr10  1  0.75075500  0.37414000  0.37789300  1
  Zr  Zr11  1  0.76942000  0.86520600  0.86292200  1
  Zr  Zr12  1  0.76942000  0.86520600  0.13707800  1
  Zr  Zr13  1  0.75075500  0.37414000  0.62210700  1
  Zr  Zr14  1  0.23004600  0.73095300  0.00000000  1
  Zr  Zr15  1  0.24720100  0.25035000  0.50000000  1
  Zr  Zr16  1  0.23061000  0.13478500  0.13706800  1
  Zr  Zr17  1  0.24924700  0.62585500  0.62210800  1
  Zr  Zr18  1  0.24924700  0.62585500  0.37789200  1
  Zr  Zr19  1  0.23061000  0.13478500  0.86293200  1
  Sn  Sn0  1  0.74168400  0.61503100  0.00000000  1
  Sn  Sn1  1  0.74803600  0.10764900  0.50000000  1
  Sn  Sn2  1  0.74128100  0.19650800  0.19783600  1
  Sn  Sn3  1  0.75037200  0.69079400  0.69157900  1
  Sn  Sn4  1  0.75037200  0.69079400  0.30842100  1
  Sn  Sn5  1  0.74128100  0.19650800  0.80216400  1
  Sn  Sn6  1  0.25832900  0.38497700  0.00000000  1
  Sn  Sn7  1  0.25189100  0.89235800  0.50000000  1
  Sn  Sn8  1  0.24963400  0.30920600  0.30841700  1
  Sn  Sn9  1  0.25871700  0.80349700  0.80217100  1
  Sn  Sn10  1  0.25871700  0.80349700  0.19782900  1
  Sn  Sn11  1  0.24963400  0.30920600  0.69158300  1
  Sn  Sn12  1  0.49998900  0.99999800  0.00000000  1
loop_
_geom_bond_atom_site_label_1
_geom_bond_atom_site_label_2
_geom_bond_distance
_geom_bond_site_symmetry_2
Sn0 Zr11 2.976145 1_554
Sn0 Zr12 2.976145 1_555
Sn0 Zr8 2.982521 1_555
Sn0 Zr1 3.036873 1_554
Sn0 Zr2 3.036873 1_555
Sn0 Zr14 3.054253 1_655
Sn0 Zr4 3.082734 1_555
Sn0 Zr7 3.082734 1_554
Sn0 Zr14 3.185163 1_555
Sn1 Zr10 2.930773 1_555
Sn1 Zr13 2.930773 1_555
Sn1 Zr0 3.025945 1_545
Sn1 Zr3 3.025945 1_545
Sn1 Zr5 3.035743 1_545
Sn1 Zr6 3.035743 1_545
Sn1 Zr9 3.081506 1_545
Sn1 Zr15 3.195923 1_655
Sn1 Zr15 3.205693 1_555
Sn2 Zr12 2.997230 1_545
Sn2 Zr0 3.005624 1_545
Sn2 Zr2 3.012729 1_555
Sn2 Zr8 3.025665 1_555
Sn2 Zr6 3.057818 1_545
Sn2 Zr4 3.062527 1_555
Sn2 Zr16 3.078146 1_655
Sn2 Zr10 3.094671 1_555
Sn2 Zr16 3.196717 1_555
Sn3 Zr9 2.906699 1_555
Sn3 Zr13 2.916436 1_555
Sn3 Zr11 2.969686 1_555
Sn3 Zr7 3.060924 1_555
Sn3 Zr1 3.060964 1_555
Sn3 Zr5 3.066950 1_555
Sn3 Zr3 3.069554 1_555
Sn3 Zr17 3.176142 1_655
Sn3 Zr17 3.188198 1_555
Sn4 Zr9 2.906699 1_555
Sn4 Zr10 2.916436 1_555
Sn4 Zr12 2.969686 1_555
Sn4 Zr4 3.060924 1_555
Sn4 Zr2 3.060964 1_555
Sn4 Zr6 3.066950 1_555
Sn4 Zr0 3.069554 1_555
Sn4 Zr18 3.176142 1_655
Sn4 Zr18 3.188198 1_555
Sn5 Zr11 2.997230 1_545
Sn5 Zr3 3.005624 1_545
Sn5 Zr1 3.012729 1_555
Sn5 Zr8 3.025665 1_556
Sn5 Zr5 3.057818 1_545
Sn5 Zr7 3.062527 1_555
Sn5 Zr19 3.078146 1_655
Sn5 Zr13 3.094671 1_555
Sn5 Zr19 3.196717 1_555
Sn6 Zr16 2.976143 1_555
Sn6 Zr19 2.976143 1_554
Sn6 Zr14 2.982616 1_555
Sn6 Zr2 3.036837 1_555
Sn6 Zr1 3.036837 1_554
Sn6 Zr8 3.054228 1_455
Sn6 Zr7 3.082762 1_454
Sn6 Zr4 3.082762 1_455
Sn6 Zr8 3.185128 1_555
Sn7 Zr17 2.930861 1_555
Sn7 Zr18 2.930861 1_555
Sn7 Zr3 3.026125 1_555
Sn7 Zr0 3.026125 1_555
Sn7 Zr6 3.035504 1_455
Sn7 Zr5 3.035504 1_455
Sn7 Zr15 3.081434 1_565
Sn7 Zr9 3.195650 1_455
Sn7 Zr9 3.206019 1_555
Sn8 Zr15 2.906760 1_555
Sn8 Zr18 2.916412 1_555
Sn8 Zr16 2.969797 1_555
Sn8 Zr4 3.060907 1_455
Sn8 Zr2 3.060921 1_555
Sn8 Zr6 3.067045 1_445
Sn8 Zr0 3.069574 1_545
Sn8 Zr10 3.176181 1_455
Sn8 Zr10 3.188193 1_555
Sn9 Zr19 2.997118 1_565
Sn9 Zr3 3.005657 1_555
Sn9 Zr1 3.012820 1_555
Sn9 Zr14 3.025533 1_556
Sn9 Zr5 3.057832 1_455
Sn9 Zr7 3.062574 1_455
Sn9 Zr11 3.077872 1_455
Sn9 Zr17 3.094791 1_555
Sn9 Zr11 3.196803 1_555
Sn10 Zr16 2.997118 1_565
Sn10 Zr0 3.005657 1_555
Sn10 Zr2 3.012820 1_555
Sn10 Zr14 3.025533 1_555
Sn10 Zr6 3.057832 1_455
Sn10 Zr4 3.062574 1_455
Sn10 Zr12 3.077872 1_455
Sn10 Zr18 3.094791 1_555
Sn10 Zr12 3.196803 1_555
Sn11 Zr15 2.906760 1_555
Sn11 Zr17 2.916412 1_555
Sn11 Zr19 2.969797 1_555
Sn11 Zr7 3.060908 1_455
Sn11 Zr1 3.060921 1_555
Sn11 Zr5 3.067045 1_445
Sn11 Zr3 3.069574 1_545
Sn11 Zr13 3.176181 1_455
Sn11 Zr13 3.188193 1_555
Sn12 Zr14 2.811927 1_555
Sn12 Zr8 2.812204 1_565
Sn12 Zr19 2.841882 1_564
Sn12 Zr16 2.841883 1_565
Sn12 Zr12 2.842180 1_555
Sn12 Zr11 2.842180 1_554
