# generated using pymatgen
data_CsS2(O3F)2
_symmetry_space_group_name_H-M   'P 1'
_cell_length_a   7.99554474
_cell_length_b   7.99554474
_cell_length_c   8.67381363
_cell_angle_alpha   98.95656549
_cell_angle_beta   107.17241949
_cell_angle_gamma   120.71800150
_symmetry_Int_Tables_number   1
_chemical_formula_structural   CsS2(O3F)2
_chemical_formula_sum   'Cs2 S4 O12 F4'
_cell_volume   422.55409840
_cell_formula_units_Z   2
loop_
 _symmetry_equiv_pos_site_id
 _symmetry_equiv_pos_as_xyz
  1  'x, y, z'
loop_
 _atom_site_type_symbol
 _atom_site_label
 _atom_site_symmetry_multiplicity
 _atom_site_fract_x
 _atom_site_fract_y
 _atom_site_fract_z
 _atom_site_occupancy
  Cs  Cs0  1  0.85544600  0.60544600  0.75000000  1
  Cs  Cs1  1  0.14455400  0.39455400  0.25000000  1
  S  S0  1  0.20726700  0.32846100  0.72446600  1
  S  S1  1  0.60399600  0.98280200  0.77553400  1
  S  S2  1  0.79273300  0.67153900  0.27553400  1
  S  S3  1  0.39600400  0.01719800  0.22446600  1
  O  O0  1  0.35851000  0.36815700  0.65097200  1
  O  O1  1  0.71718500  0.20753800  0.84902800  1
  O  O2  1  0.64149000  0.63184300  0.34902800  1
  O  O3  1  0.28281500  0.79246200  0.15097200  1
  O  O4  1  0.03160900  0.33932100  0.63081300  1
  O  O5  1  0.70850800  0.90079600  0.86918700  1
  O  O6  1  0.96839100  0.66067900  0.36918700  1
  O  O7  1  0.29149200  0.09920400  0.13081300  1
  O  O8  1  0.30305700  0.43511800  0.91271800  1
  O  O9  1  0.52240000  0.89034000  0.58728200  1
  O  O10  1  0.69694300  0.56488200  0.08728200  1
  O  O11  1  0.47760000  0.10966000  0.41271800  1
  F  F0  1  0.08739600  0.08415400  0.69828900  1
  F  F1  1  0.38586500  0.88910600  0.80171100  1
  F  F2  1  0.91260400  0.91584600  0.30171100  1
  F  F3  1  0.61413500  0.11089400  0.19828900  1
loop_
_geom_bond_atom_site_label_1
_geom_bond_atom_site_label_2
_geom_bond_distance
_geom_bond_site_symmetry_2
Cs0 O0 3.146465 1_555
Cs0 O1 3.146465 1_555
Cs0 O5 3.288930 1_555
Cs0 O4 3.288930 1_655
Cs0 F1 3.473387 1_655
Cs0 F0 3.473387 1_665
Cs0 O2 3.485877 1_555
Cs0 O3 3.485877 1_656
Cs0 O10 3.512091 1_556
Cs0 O11 3.512096 1_555
Cs0 O7 3.705289 1_666
Cs0 O6 3.705289 1_555
Cs1 O2 3.146465 1_555
Cs1 O3 3.146465 1_555
Cs1 O7 3.288930 1_555
Cs1 O6 3.288930 1_455
Cs1 F3 3.473387 1_455
Cs1 F2 3.473387 1_445
Cs1 O0 3.485877 1_555
Cs1 O1 3.485877 1_454
Cs1 O8 3.512091 1_554
Cs1 O9 3.512096 1_555
Cs1 O4 3.705289 1_555
Cs1 O5 3.705289 1_444
O0 S0 1.447595 1_555
O1 S1 1.447589 1_545
O2 S2 1.447595 1_555
O3 S3 1.447589 1_565
O4 S0 1.453562 1_555
O5 S1 1.453563 1_555
O6 S2 1.453562 1_555
O7 S3 1.453563 1_555
O8 S0 1.463132 1_555
O9 S1 1.463130 1_555
O10 S2 1.463132 1_555
O11 S3 1.463130 1_555
F0 S0 1.614475 1_555
F1 S1 1.614481 1_555
F2 S2 1.614475 1_555
F3 S3 1.614481 1_555
