# generated using pymatgen
data_K3Bi3(PS4)4
_symmetry_space_group_name_H-M   'P 1'
_cell_length_a   13.75683231
_cell_length_b   21.09175672
_cell_length_c   21.09175672
_cell_angle_alpha   90.00000000
_cell_angle_beta   90.00000000
_cell_angle_gamma   90.00000000
_symmetry_Int_Tables_number   1
_chemical_formula_structural   K3Bi3(PS4)4
_chemical_formula_sum   'K24 Bi24 P32 S128'
_cell_volume   6119.89470758
_cell_formula_units_Z   8
loop_
 _symmetry_equiv_pos_site_id
 _symmetry_equiv_pos_as_xyz
  1  'x, y, z'
loop_
 _atom_site_type_symbol
 _atom_site_label
 _atom_site_symmetry_multiplicity
 _atom_site_fract_x
 _atom_site_fract_y
 _atom_site_fract_z
 _atom_site_occupancy
  K  K0  1  0.42303193  0.74240364  0.97244964  1
  K  K1  1  0.92303193  0.75759636  0.97244964  1
  K  K2  1  0.92303193  0.74240364  0.52755036  1
  K  K3  1  0.42303193  0.75759636  0.52755036  1
  K  K4  1  0.92303193  0.97244964  0.74240364  1
  K  K5  1  0.42303193  0.52755036  0.74240364  1
  K  K6  1  0.42303193  0.97244964  0.75759636  1
  K  K7  1  0.92303193  0.52755036  0.75759636  1
  K  K8  1  0.57696807  0.25759636  0.02755036  1
  K  K9  1  0.07696807  0.24240364  0.02755036  1
  K  K10  1  0.07696807  0.25759636  0.47244964  1
  K  K11  1  0.57696807  0.24240364  0.47244964  1
  K  K12  1  0.07696807  0.02755036  0.25759636  1
  K  K13  1  0.57696807  0.47244964  0.25759636  1
  K  K14  1  0.57696807  0.02755036  0.24240364  1
  K  K15  1  0.07696807  0.47244964  0.24240364  1
  K  K16  1  0.75000000  0.25000000  0.75000000  1
  K  K17  1  0.25000000  0.25000000  0.75000000  1
  K  K18  1  0.25000000  0.75000000  0.25000000  1
  K  K19  1  0.75000000  0.75000000  0.25000000  1
  K  K20  1  0.96943300  0.75000000  0.75000000  1
  K  K21  1  0.46943300  0.75000000  0.75000000  1
  K  K22  1  0.03056700  0.25000000  0.25000000  1
  K  K23  1  0.53056700  0.25000000  0.25000000  1
  Bi  Bi0  1  0.13875808  0.60105087  0.99397240  1
  Bi  Bi1  1  0.63875808  0.89894913  0.99397240  1
  Bi  Bi2  1  0.63875808  0.60105087  0.50602760  1
  Bi  Bi3  1  0.13875808  0.89894913  0.50602760  1
  Bi  Bi4  1  0.63875808  0.99397240  0.60105087  1
  Bi  Bi5  1  0.13875808  0.50602760  0.60105087  1
  Bi  Bi6  1  0.13875808  0.99397240  0.89894913  1
  Bi  Bi7  1  0.63875808  0.50602760  0.89894913  1
  Bi  Bi8  1  0.86124192  0.39894913  0.00602760  1
  Bi  Bi9  1  0.36124192  0.10105087  0.00602760  1
  Bi  Bi10  1  0.36124192  0.39894913  0.49397240  1
  Bi  Bi11  1  0.86124192  0.10105087  0.49397240  1
  Bi  Bi12  1  0.36124192  0.00602760  0.39894913  1
  Bi  Bi13  1  0.86124192  0.49397240  0.39894913  1
  Bi  Bi14  1  0.86124192  0.00602760  0.10105087  1
  Bi  Bi15  1  0.36124192  0.49397240  0.10105087  1
  Bi  Bi16  1  0.25000000  0.39996498  0.89996498  1
  Bi  Bi17  1  0.75000000  0.10003502  0.89996498  1
  Bi  Bi18  1  0.75000000  0.39996498  0.60003502  1
  Bi  Bi19  1  0.25000000  0.10003502  0.60003502  1
  Bi  Bi20  1  0.75000000  0.89996498  0.39996498  1
  Bi  Bi21  1  0.25000000  0.60003502  0.39996498  1
  Bi  Bi22  1  0.25000000  0.89996498  0.10003502  1
  Bi  Bi23  1  0.75000000  0.60003502  0.10003502  1
  P  P0  1  0.37056140  0.56483520  0.92165009  1
  P  P1  1  0.87056140  0.93516480  0.92165009  1
  P  P2  1  0.87056140  0.56483520  0.57834991  1
  P  P3  1  0.37056140  0.93516480  0.57834991  1
  P  P4  1  0.87056140  0.92165009  0.56483520  1
  P  P5  1  0.37056140  0.57834991  0.56483520  1
  P  P6  1  0.37056140  0.92165009  0.93516480  1
  P  P7  1  0.87056140  0.57834991  0.93516480  1
  P  P8  1  0.62943860  0.43516480  0.07834991  1
  P  P9  1  0.12943860  0.06483520  0.07834991  1
  P  P10  1  0.12943860  0.43516480  0.42165009  1
  P  P11  1  0.62943860  0.06483520  0.42165009  1
  P  P12  1  0.12943860  0.07834991  0.43516480  1
  P  P13  1  0.62943860  0.42165009  0.43516480  1
  P  P14  1  0.62943860  0.07834991  0.06483520  1
  P  P15  1  0.12943860  0.42165009  0.06483520  1
  P  P16  1  0.16828517  0.74796698  0.06292600  1
  P  P17  1  0.66828517  0.75203302  0.06292600  1
  P  P18  1  0.66828517  0.74796698  0.43707400  1
  P  P19  1  0.16828517  0.75203302  0.43707400  1
  P  P20  1  0.66828517  0.06292600  0.74796698  1
  P  P21  1  0.16828517  0.43707400  0.74796698  1
  P  P22  1  0.16828517  0.06292600  0.75203302  1
  P  P23  1  0.66828517  0.43707400  0.75203302  1
  P  P24  1  0.83171483  0.25203302  0.93707400  1
  P  P25  1  0.33171483  0.24796698  0.93707400  1
  P  P26  1  0.33171483  0.25203302  0.56292600  1
  P  P27  1  0.83171483  0.24796698  0.56292600  1
  P  P28  1  0.33171483  0.93707400  0.25203302  1
  P  P29  1  0.83171483  0.56292600  0.25203302  1
  P  P30  1  0.83171483  0.93707400  0.24796698  1
  P  P31  1  0.33171483  0.56292600  0.24796698  1
  S  S0  1  0.23905527  0.55895322  0.87716565  1
  S  S1  1  0.73905527  0.94104678  0.87716565  1
  S  S2  1  0.73905527  0.55895322  0.62283435  1
  S  S3  1  0.23905527  0.94104678  0.62283435  1
  S  S4  1  0.73905527  0.87716565  0.55895322  1
  S  S5  1  0.23905527  0.62283435  0.55895322  1
  S  S6  1  0.23905527  0.87716565  0.94104678  1
  S  S7  1  0.73905527  0.62283435  0.94104678  1
  S  S8  1  0.76094473  0.44104678  0.12283435  1
  S  S9  1  0.26094473  0.05895322  0.12283435  1
  S  S10  1  0.26094473  0.44104678  0.37716565  1
  S  S11  1  0.76094473  0.05895322  0.37716565  1
  S  S12  1  0.26094473  0.12283435  0.44104678  1
  S  S13  1  0.76094473  0.37716565  0.44104678  1
  S  S14  1  0.76094473  0.12283435  0.05895322  1
  S  S15  1  0.26094473  0.37716565  0.05895322  1
  S  S16  1  0.34073091  0.60351401  0.01160744  1
  S  S17  1  0.84073091  0.89648599  0.01160744  1
  S  S18  1  0.84073091  0.60351401  0.48839256  1
  S  S19  1  0.34073091  0.89648599  0.48839256  1
  S  S20  1  0.84073091  0.01160744  0.60351401  1
  S  S21  1  0.34073091  0.48839256  0.60351401  1
  S  S22  1  0.34073091  0.01160744  0.89648599  1
  S  S23  1  0.84073091  0.48839256  0.89648599  1
  S  S24  1  0.65926909  0.39648599  0.98839256  1
  S  S25  1  0.15926909  0.10351401  0.98839256  1
  S  S26  1  0.15926909  0.39648599  0.51160744  1
  S  S27  1  0.65926909  0.10351401  0.51160744  1
  S  S28  1  0.15926909  0.98839256  0.39648599  1
  S  S29  1  0.65926909  0.51160744  0.39648599  1
  S  S30  1  0.65926909  0.98839256  0.10351401  1
  S  S31  1  0.15926909  0.51160744  0.10351401  1
  S  S32  1  0.97163404  0.62531241  0.88159899  1
  S  S33  1  0.47163404  0.87468759  0.88159899  1
  S  S34  1  0.47163404  0.62531241  0.61840101  1
  S  S35  1  0.97163404  0.87468759  0.61840101  1
  S  S36  1  0.47163404  0.88159899  0.62531241  1
  S  S37  1  0.97163404  0.61840101  0.62531241  1
  S  S38  1  0.97163404  0.88159899  0.87468759  1
  S  S39  1  0.47163404  0.61840101  0.87468759  1
  S  S40  1  0.02836596  0.37468759  0.11840101  1
  S  S41  1  0.52836596  0.12531241  0.11840101  1
  S  S42  1  0.52836596  0.37468759  0.38159899  1
  S  S43  1  0.02836596  0.12531241  0.38159899  1
  S  S44  1  0.52836596  0.11840101  0.37468759  1
  S  S45  1  0.02836596  0.38159899  0.37468759  1
  S  S46  1  0.02836596  0.11840101  0.12531241  1
  S  S47  1  0.52836596  0.38159899  0.12531241  1
  S  S48  1  0.42641689  0.47542526  0.93478242  1
  S  S49  1  0.92641689  0.02457474  0.93478242  1
  S  S50  1  0.92641689  0.47542526  0.56521758  1
  S  S51  1  0.42641689  0.02457474  0.56521758  1
  S  S52  1  0.92641689  0.93478242  0.47542526  1
  S  S53  1  0.42641689  0.56521758  0.47542526  1
  S  S54  1  0.42641689  0.93478242  0.02457474  1
  S  S55  1  0.92641689  0.56521758  0.02457474  1
  S  S56  1  0.57358311  0.52457474  0.06521758  1
  S  S57  1  0.07358311  0.97542526  0.06521758  1
  S  S58  1  0.07358311  0.52457474  0.43478242  1
  S  S59  1  0.57358311  0.97542526  0.43478242  1
  S  S60  1  0.07358311  0.06521758  0.52457474  1
  S  S61  1  0.57358311  0.43478242  0.52457474  1
  S  S62  1  0.57358311  0.06521758  0.97542526  1
  S  S63  1  0.07358311  0.43478242  0.97542526  1
  S  S64  1  0.16524102  0.72659283  0.96571068  1
  S  S65  1  0.66524102  0.77340717  0.96571068  1
  S  S66  1  0.66524102  0.72659283  0.53428932  1
  S  S67  1  0.16524102  0.77340717  0.53428932  1
  S  S68  1  0.66524102  0.96571068  0.72659283  1
  S  S69  1  0.16524102  0.53428932  0.72659283  1
  S  S70  1  0.16524102  0.96571068  0.77340717  1
  S  S71  1  0.66524102  0.53428932  0.77340717  1
  S  S72  1  0.83475898  0.27340717  0.03428932  1
  S  S73  1  0.33475898  0.22659283  0.03428932  1
  S  S74  1  0.33475898  0.27340717  0.46571068  1
  S  S75  1  0.83475898  0.22659283  0.46571068  1
  S  S76  1  0.33475898  0.03428932  0.27340717  1
  S  S77  1  0.83475898  0.46571068  0.27340717  1
  S  S78  1  0.83475898  0.03428932  0.22659283  1
  S  S79  1  0.33475898  0.46571068  0.22659283  1
  S  S80  1  0.30537761  0.40397002  0.77392229  1
  S  S81  1  0.80537761  0.09602998  0.77392229  1
  S  S82  1  0.80537761  0.40397002  0.72607771  1
  S  S83  1  0.30537761  0.09602998  0.72607771  1
  S  S84  1  0.80537761  0.77392229  0.40397002  1
  S  S85  1  0.30537761  0.72607771  0.40397002  1
  S  S86  1  0.30537761  0.77392229  0.09602998  1
  S  S87  1  0.80537761  0.72607771  0.09602998  1
  S  S88  1  0.69462239  0.59602998  0.22607771  1
  S  S89  1  0.19462239  0.90397002  0.22607771  1
  S  S90  1  0.19462239  0.59602998  0.27392229  1
  S  S91  1  0.69462239  0.90397002  0.27392229  1
  S  S92  1  0.19462239  0.22607771  0.59602998  1
  S  S93  1  0.69462239  0.27392229  0.59602998  1
  S  S94  1  0.69462239  0.22607771  0.90397002  1
  S  S95  1  0.19462239  0.27392229  0.90397002  1
  S  S96  1  0.08030875  0.41528317  0.82204624  1
  S  S97  1  0.58030875  0.08471683  0.82204624  1
  S  S98  1  0.58030875  0.41528317  0.67795376  1
  S  S99  1  0.08030875  0.08471683  0.67795376  1
  S  S100  1  0.58030875  0.82204624  0.41528317  1
  S  S101  1  0.08030875  0.67795376  0.41528317  1
  S  S102  1  0.08030875  0.82204624  0.08471683  1
  S  S103  1  0.58030875  0.67795376  0.08471683  1
  S  S104  1  0.91969125  0.58471683  0.17795376  1
  S  S105  1  0.41969125  0.91528317  0.17795376  1
  S  S106  1  0.41969125  0.58471683  0.32204624  1
  S  S107  1  0.91969125  0.91528317  0.32204624  1
  S  S108  1  0.41969125  0.17795376  0.58471683  1
  S  S109  1  0.91969125  0.32204624  0.58471683  1
  S  S110  1  0.91969125  0.17795376  0.91528317  1
  S  S111  1  0.41969125  0.32204624  0.91528317  1
  S  S112  1  0.12351100  0.66658921  0.10651985  1
  S  S113  1  0.62351100  0.83341079  0.10651985  1
  S  S114  1  0.62351100  0.66658921  0.39348015  1
  S  S115  1  0.12351100  0.83341079  0.39348015  1
  S  S116  1  0.62351100  0.10651985  0.66658921  1
  S  S117  1  0.12351100  0.39348015  0.66658921  1
  S  S118  1  0.12351100  0.10651985  0.83341079  1
  S  S119  1  0.62351100  0.39348015  0.83341079  1
  S  S120  1  0.87648900  0.33341079  0.89348015  1
  S  S121  1  0.37648900  0.16658921  0.89348015  1
  S  S122  1  0.37648900  0.33341079  0.60651985  1
  S  S123  1  0.87648900  0.16658921  0.60651985  1
  S  S124  1  0.37648900  0.89348015  0.33341079  1
  S  S125  1  0.87648900  0.60651985  0.33341079  1
  S  S126  1  0.87648900  0.89348015  0.16658921  1
  S  S127  1  0.37648900  0.60651985  0.16658921  1
loop_
_geom_bond_atom_site_label_1
_geom_bond_atom_site_label_2
_geom_bond_distance
_geom_bond_site_symmetry_2
K0 S86 3.139367 1_556
K0 S16 3.247390 1_556
K0 S39 3.396950 1_555
K0 S65 3.398564 1_555
K0 S33 3.450149 1_555
K0 S103 3.483701 1_556
K0 S64 3.564866 1_555
K1 S87 3.139367 1_556
K1 S17 3.247390 1_556
K1 S38 3.396950 1_555
K1 S64 3.398564 1_655
K1 S32 3.450149 1_555
K1 S102 3.483701 1_656
K1 S65 3.564866 1_555
K2 S84 3.139367 1_555
K2 S18 3.247390 1_555
K2 S37 3.396950 1_555
K2 S67 3.398564 1_655
K2 S35 3.450149 1_555
K2 S101 3.483701 1_655
K2 S66 3.564866 1_555
K3 S85 3.139367 1_555
K3 S19 3.247390 1_555
K3 S36 3.396950 1_555
K3 S66 3.398564 1_555
K3 S34 3.450149 1_555
K3 S100 3.483701 1_555
K3 S67 3.564866 1_555
K4 S81 3.139367 1_565
K4 S20 3.247390 1_565
K4 S35 3.396950 1_555
K4 S70 3.398564 1_655
K4 S38 3.450149 1_555
K4 S99 3.483701 1_665
K4 S68 3.564866 1_555
K5 S80 3.139367 1_555
K5 S21 3.247390 1_555
K5 S34 3.396950 1_555
K5 S71 3.398564 1_555
K5 S39 3.450149 1_555
K5 S98 3.483701 1_555
K5 S69 3.564866 1_555
K6 S83 3.139367 1_565
K6 S22 3.247390 1_565
K6 S33 3.396950 1_555
K6 S68 3.398564 1_555
K6 S36 3.450149 1_555
K6 S97 3.483701 1_565
K6 S70 3.564866 1_555
K7 S82 3.139367 1_555
K7 S23 3.247390 1_555
K7 S32 3.396950 1_555
K7 S69 3.398564 1_655
K7 S37 3.450149 1_555
K7 S96 3.483701 1_655
K7 S71 3.564866 1_555
K8 S94 3.139367 1_554
K8 S24 3.247390 1_554
K8 S47 3.396950 1_555
K8 S73 3.398564 1_555
K8 S41 3.450149 1_555
K8 S111 3.483701 1_554
K8 S72 3.564866 1_555
K9 S95 3.139367 1_554
K9 S25 3.247390 1_554
K9 S46 3.396950 1_555
K9 S72 3.398564 1_455
K9 S40 3.450149 1_555
K9 S110 3.483701 1_454
K9 S73 3.564866 1_555
K10 S92 3.139367 1_555
K10 S26 3.247390 1_555
K10 S45 3.396950 1_555
K10 S75 3.398564 1_455
K10 S43 3.450149 1_555
K10 S109 3.483701 1_455
K10 S74 3.564866 1_555
K11 S93 3.139367 1_555
K11 S27 3.247390 1_555
K11 S44 3.396950 1_555
K11 S74 3.398564 1_555
K11 S42 3.450149 1_555
K11 S108 3.483701 1_555
K11 S75 3.564866 1_555
K12 S89 3.139367 1_545
K12 S28 3.247390 1_545
K12 S43 3.396950 1_555
K12 S78 3.398564 1_455
K12 S46 3.450149 1_555
K12 S107 3.483701 1_445
K12 S76 3.564866 1_555
K13 S88 3.139367 1_555
K13 S29 3.247390 1_555
K13 S42 3.396950 1_555
K13 S79 3.398564 1_555
K13 S47 3.450149 1_555
K13 S106 3.483701 1_555
K13 S77 3.564866 1_555
K14 S91 3.139367 1_545
K14 S30 3.247390 1_545
K14 S41 3.396950 1_555
K14 S76 3.398564 1_555
K14 S44 3.450149 1_555
K14 S105 3.483701 1_545
K14 S78 3.564866 1_555
K15 S90 3.139367 1_555
K15 S31 3.247390 1_555
K15 S40 3.396950 1_555
K15 S77 3.398564 1_455
K15 S45 3.450149 1_555
K15 S104 3.483701 1_455
K15 S79 3.564866 1_555
K16 S82 3.373603 1_555
K16 S81 3.373603 1_555
K16 S94 3.373603 1_555
K16 S93 3.373603 1_555
K17 S80 3.373603 1_555
K17 S83 3.373603 1_555
K17 S95 3.373603 1_555
K17 S92 3.373603 1_555
K18 S85 3.373603 1_555
K18 S86 3.373603 1_555
K18 S90 3.373603 1_555
K18 S89 3.373603 1_555
K19 S87 3.373603 1_555
K19 S84 3.373603 1_555
K19 S88 3.373603 1_555
K19 S91 3.373603 1_555
K20 S32 3.823799 1_555
K20 S35 3.823799 1_555
K20 S38 3.823799 1_555
K20 S37 3.823799 1_555
K21 S36 3.823799 1_555
K21 S34 3.823799 1_555
K21 S33 3.823799 1_555
K21 S39 3.823799 1_555
K22 S46 3.823799 1_555
K22 S43 3.823799 1_555
K22 S40 3.823799 1_555
K22 S45 3.823799 1_555
K23 S47 3.823799 1_555
K23 S41 3.823799 1_555
K23 S44 3.823799 1_555
K23 S42 3.823799 1_555
Bi0 S64 2.738509 1_555
Bi0 S112 2.754966 1_556
Bi0 S16 2.803774 1_556
Bi0 S0 2.960030 1_555
Bi0 S31 2.996103 1_556
Bi0 S55 3.085596 1_456
Bi1 S65 2.738509 1_555
Bi1 S113 2.754966 1_556
Bi1 S17 2.803774 1_556
Bi1 S1 2.960030 1_555
Bi1 S30 2.996103 1_556
Bi1 S54 3.085596 1_556
Bi2 S66 2.738509 1_555
Bi2 S114 2.754966 1_555
Bi2 S18 2.803774 1_555
Bi2 S2 2.960030 1_555
Bi2 S29 2.996103 1_555
Bi2 S53 3.085596 1_555
Bi3 S67 2.738509 1_555
Bi3 S115 2.754966 1_555
Bi3 S19 2.803774 1_555
Bi3 S3 2.960030 1_555
Bi3 S28 2.996103 1_555
Bi3 S52 3.085596 1_455
Bi4 S68 2.738509 1_555
Bi4 S116 2.754966 1_565
Bi4 S20 2.803774 1_565
Bi4 S4 2.960030 1_555
Bi4 S27 2.996103 1_565
Bi4 S51 3.085596 1_565
Bi5 S69 2.738509 1_555
Bi5 S117 2.754966 1_555
Bi5 S21 2.803774 1_555
Bi5 S5 2.960030 1_555
Bi5 S26 2.996103 1_555
Bi5 S50 3.085596 1_455
Bi6 S70 2.738509 1_555
Bi6 S118 2.754966 1_565
Bi6 S22 2.803774 1_565
Bi6 S6 2.960030 1_555
Bi6 S25 2.996103 1_565
Bi6 S49 3.085596 1_465
Bi7 S71 2.738509 1_555
Bi7 S119 2.754966 1_555
Bi7 S23 2.803774 1_555
Bi7 S7 2.960030 1_555
Bi7 S24 2.996103 1_555
Bi7 S48 3.085596 1_555
Bi8 S72 2.738509 1_555
Bi8 S120 2.754966 1_554
Bi8 S24 2.803774 1_554
Bi8 S8 2.960030 1_555
Bi8 S23 2.996103 1_554
Bi8 S63 3.085596 1_654
Bi9 S73 2.738509 1_555
Bi9 S121 2.754966 1_554
Bi9 S25 2.803774 1_554
Bi9 S9 2.960030 1_555
Bi9 S22 2.996103 1_554
Bi9 S62 3.085596 1_554
Bi10 S74 2.738509 1_555
Bi10 S122 2.754966 1_555
Bi10 S26 2.803774 1_555
Bi10 S10 2.960030 1_555
Bi10 S21 2.996103 1_555
Bi10 S61 3.085596 1_555
Bi11 S75 2.738509 1_555
Bi11 S123 2.754966 1_555
Bi11 S27 2.803774 1_555
Bi11 S11 2.960030 1_555
Bi11 S20 2.996103 1_555
Bi11 S60 3.085596 1_655
Bi12 S76 2.738509 1_555
Bi12 S124 2.754966 1_545
Bi12 S28 2.803774 1_545
Bi12 S12 2.960030 1_555
Bi12 S19 2.996103 1_545
Bi12 S59 3.085596 1_545
Bi13 S77 2.738509 1_555
Bi13 S125 2.754966 1_555
Bi13 S29 2.803774 1_555
Bi13 S13 2.960030 1_555
Bi13 S18 2.996103 1_555
Bi13 S58 3.085596 1_655
Bi14 S78 2.738509 1_555
Bi14 S126 2.754966 1_545
Bi14 S30 2.803774 1_545
Bi14 S14 2.960030 1_555
Bi14 S17 2.996103 1_545
Bi14 S57 3.085596 1_645
Bi15 S79 2.738509 1_555
Bi15 S127 2.754966 1_555
Bi15 S31 2.803774 1_555
Bi15 S15 2.960030 1_555
Bi15 S16 2.996103 1_555
Bi15 S56 3.085596 1_555
Bi16 S95 2.766754 1_555
Bi16 S80 2.766754 1_555
Bi16 S96 2.873113 1_555
Bi16 S111 2.873113 1_555
Bi16 S63 2.993739 1_555
Bi16 S48 2.993739 1_555
Bi17 S94 2.766754 1_555
Bi17 S81 2.766754 1_555
Bi17 S97 2.873113 1_555
Bi17 S110 2.873113 1_555
Bi17 S62 2.993739 1_555
Bi17 S49 2.993739 1_555
Bi18 S93 2.766754 1_555
Bi18 S82 2.766754 1_555
Bi18 S98 2.873113 1_555
Bi18 S109 2.873113 1_555
Bi18 S61 2.993739 1_555
Bi18 S50 2.993739 1_555
Bi19 S92 2.766754 1_555
Bi19 S83 2.766754 1_555
Bi19 S108 2.873113 1_555
Bi19 S99 2.873113 1_555
Bi19 S60 2.993739 1_555
Bi19 S51 2.993739 1_555
Bi20 S84 2.766754 1_555
Bi20 S91 2.766754 1_555
Bi20 S100 2.873113 1_555
Bi20 S107 2.873113 1_555
Bi20 S59 2.993739 1_555
Bi20 S52 2.993739 1_555
Bi21 S90 2.766754 1_555
Bi21 S85 2.766754 1_555
Bi21 S101 2.873113 1_555
Bi21 S106 2.873113 1_555
Bi21 S58 2.993739 1_555
Bi21 S53 2.993739 1_555
Bi22 S89 2.766754 1_555
Bi22 S86 2.766754 1_555
Bi22 S102 2.873113 1_555
Bi22 S105 2.873113 1_555
Bi22 S57 2.993739 1_555
Bi22 S54 2.993739 1_555
Bi23 S88 2.766754 1_555
Bi23 S87 2.766754 1_555
Bi23 S104 2.873113 1_555
Bi23 S103 2.873113 1_555
Bi23 S56 2.993739 1_555
Bi23 S55 2.993739 1_555
P0 S0 2.041711 1_555
P0 S39 2.047168 1_555
P0 S48 2.055101 1_555
P0 S16 2.105686 1_556
P1 S1 2.041711 1_555
P1 S38 2.047168 1_555
P1 S49 2.055101 1_565
P1 S17 2.105686 1_556
P2 S2 2.041711 1_555
P2 S37 2.047168 1_555
P2 S50 2.055101 1_555
P2 S18 2.105686 1_555
P3 S3 2.041711 1_555
P3 S36 2.047168 1_555
P3 S51 2.055101 1_565
P3 S19 2.105686 1_555
P4 S4 2.041711 1_555
P4 S35 2.047168 1_555
P4 S52 2.055101 1_555
P4 S20 2.105686 1_565
P5 S5 2.041711 1_555
P5 S34 2.047168 1_555
P5 S53 2.055101 1_555
P5 S21 2.105686 1_555
P6 S6 2.041711 1_555
P6 S33 2.047168 1_555
P6 S54 2.055101 1_556
P6 S22 2.105686 1_565
P7 S7 2.041711 1_555
P7 S32 2.047168 1_555
P7 S55 2.055101 1_556
P7 S23 2.105686 1_555
P8 S8 2.041711 1_555
P8 S47 2.047168 1_555
P8 S56 2.055101 1_555
P8 S24 2.105686 1_554
P9 S9 2.041711 1_555
P9 S46 2.047168 1_555
P9 S57 2.055101 1_545
P9 S25 2.105686 1_554
P10 S10 2.041711 1_555
P10 S45 2.047168 1_555
P10 S58 2.055101 1_555
P10 S26 2.105686 1_555
P11 S11 2.041711 1_555
P11 S44 2.047168 1_555
P11 S59 2.055101 1_545
P11 S27 2.105686 1_555
P12 S12 2.041711 1_555
P12 S43 2.047168 1_555
P12 S60 2.055101 1_555
P12 S28 2.105686 1_545
P13 S13 2.041711 1_555
P13 S42 2.047168 1_555
P13 S61 2.055101 1_555
P13 S29 2.105686 1_555
P14 S14 2.041711 1_555
P14 S41 2.047168 1_555
P14 S62 2.055101 1_554
P14 S30 2.105686 1_545
P15 S15 2.041711 1_555
P15 S40 2.047168 1_555
P15 S63 2.055101 1_554
P15 S31 2.105686 1_555
P16 S102 2.029112 1_555
P16 S112 2.042266 1_555
P16 S86 2.084237 1_555
P16 S64 2.099834 1_554
P17 S103 2.029112 1_555
P17 S113 2.042266 1_555
P17 S87 2.084237 1_555
P17 S65 2.099834 1_554
P18 S100 2.029112 1_555
P18 S114 2.042266 1_555
P18 S84 2.084237 1_555
P18 S66 2.099834 1_555
P19 S101 2.029112 1_555
P19 S115 2.042266 1_555
P19 S85 2.084237 1_555
P19 S67 2.099834 1_555
P20 S97 2.029112 1_555
P20 S116 2.042266 1_555
P20 S81 2.084237 1_555
P20 S68 2.099834 1_545
P21 S96 2.029112 1_555
P21 S117 2.042266 1_555
P21 S80 2.084237 1_555
P21 S69 2.099834 1_555
P22 S99 2.029112 1_555
P22 S118 2.042266 1_555
P22 S83 2.084237 1_555
P22 S70 2.099834 1_545
P23 S98 2.029112 1_555
P23 S119 2.042266 1_555
P23 S82 2.084237 1_555
P23 S71 2.099834 1_555
P24 S110 2.029112 1_555
P24 S120 2.042266 1_555
P24 S94 2.084237 1_555
P24 S72 2.099834 1_556
P25 S111 2.029112 1_555
P25 S121 2.042266 1_555
P25 S95 2.084237 1_555
P25 S73 2.099834 1_556
P26 S108 2.029112 1_555
P26 S122 2.042266 1_555
P26 S92 2.084237 1_555
P26 S74 2.099834 1_555
P27 S109 2.029112 1_555
P27 S123 2.042266 1_555
P27 S93 2.084237 1_555
P27 S75 2.099834 1_555
P28 S105 2.029112 1_555
P28 S124 2.042266 1_555
P28 S89 2.084237 1_555
P28 S76 2.099834 1_565
P29 S104 2.029112 1_555
P29 S125 2.042266 1_555
P29 S88 2.084237 1_555
P29 S77 2.099834 1_555
P30 S107 2.029112 1_555
P30 S126 2.042266 1_555
P30 S91 2.084237 1_555
P30 S78 2.099834 1_565
P31 S106 2.029112 1_555
P31 S127 2.042266 1_555
P31 S90 2.084237 1_555
P31 S79 2.099834 1_555
