# generated using pymatgen
data_Sr2Ta2O7
_symmetry_space_group_name_H-M   'P 1'
_cell_length_a   13.82912483
_cell_length_b   13.82912483
_cell_length_c   5.71142510
_cell_angle_alpha   90.00000000
_cell_angle_beta   90.00000000
_cell_angle_gamma   163.53329154
_symmetry_Int_Tables_number   1
_chemical_formula_structural   Sr2Ta2O7
_chemical_formula_sum   'Sr4 Ta4 O14'
_cell_volume   309.61562535
_cell_formula_units_Z   2
loop_
 _symmetry_equiv_pos_site_id
 _symmetry_equiv_pos_as_xyz
  1  'x, y, z'
loop_
 _atom_site_type_symbol
 _atom_site_label
 _atom_site_symmetry_multiplicity
 _atom_site_fract_x
 _atom_site_fract_y
 _atom_site_fract_z
 _atom_site_occupancy
  Sr  Sr0  1  0.28630084  0.71369916  0.75000000  1
  Sr  Sr1  1  0.71369916  0.28630084  0.25000000  1
  Sr  Sr2  1  0.44684556  0.55315444  0.25000000  1
  Sr  Sr3  1  0.55315444  0.44684556  0.75000000  1
  Ta  Ta0  1  0.84052799  0.15947201  0.25000000  1
  Ta  Ta1  1  0.15947201  0.84052799  0.75000000  1
  Ta  Ta2  1  0.94508996  0.05491004  0.75000000  1
  Ta  Ta3  1  0.05491004  0.94508996  0.25000000  1
  O  O0  1  -0.00000000  0.00000000  -0.00000000  1
  O  O1  1  -0.00000000  0.00000000  0.50000000  1
  O  O2  1  0.54672489  0.45327511  0.25000000  1
  O  O3  1  0.45327511  0.54672489  0.75000000  1
  O  O4  1  0.90089705  0.09910295  0.00810920  1
  O  O5  1  0.09910295  0.90089705  0.99189080  1
  O  O6  1  0.09910295  0.90089705  0.50810920  1
  O  O7  1  0.90089705  0.09910295  0.49189080  1
  O  O8  1  0.79384552  0.20615448  0.48829209  1
  O  O9  1  0.20615448  0.79384552  0.51170791  1
  O  O10  1  0.20615448  0.79384552  0.98829209  1
  O  O11  1  0.79384552  0.20615448  0.01170791  1
  O  O12  1  0.35098329  0.64901671  0.25000000  1
  O  O13  1  0.64901671  0.35098329  0.75000000  1
loop_
_geom_bond_atom_site_label_1
_geom_bond_atom_site_label_2
_geom_bond_distance
_geom_bond_site_symmetry_2
O0 Ta2 2.073155 1_454
O0 Ta3 2.073155 1_545
O0 Sr3 2.842148 1_444
O0 Sr2 2.842148 1_445
O0 Sr3 2.842148 1_554
O0 Sr2 2.842148 1_555
O1 Ta2 2.073155 1_455
O1 Ta3 2.073155 1_545
O1 Sr3 2.842148 1_445
O1 Sr2 2.842148 1_445
O1 Sr2 2.842148 1_555
O1 Sr3 2.842148 1_555
O2 Ta3 1.993035 1_655
O2 Ta3 1.993035 1_545
O2 Sr2 2.734015 1_555
O2 Sr3 2.861131 1_554
O2 Sr3 2.861131 1_555
O3 Ta2 1.993035 1_565
O3 Ta2 1.993035 1_455
O3 Sr3 2.734015 1_555
O3 Sr2 2.861131 1_556
O3 Sr2 2.861131 1_555
O4 Ta2 1.906976 1_554
O4 Ta0 2.153924 1_555
O4 Sr2 2.722608 1_545
O4 Sr2 2.722608 1_655
O5 Ta3 1.906976 1_556
O5 Ta1 2.153924 1_555
O5 Sr3 2.722608 1_455
O5 Sr3 2.722608 1_565
O6 Ta3 1.906976 1_555
O6 Ta1 2.153924 1_555
O6 Sr3 2.722608 1_455
O6 Sr3 2.722608 1_565
O7 Ta2 1.906976 1_555
O7 Ta0 2.153924 1_555
O7 Sr2 2.722608 1_545
O7 Sr2 2.722608 1_655
O8 Ta0 1.866864 1_555
O8 Sr0 2.489748 1_655
O8 Sr0 2.489748 1_545
O8 Sr1 2.581726 1_555
O9 Ta1 1.866864 1_555
O9 Sr1 2.489748 1_565
O9 Sr1 2.489748 1_455
O9 Sr0 2.581726 1_555
O10 Ta1 1.866864 1_555
O10 Sr1 2.489748 1_566
O10 Sr1 2.489748 1_456
O10 Sr0 2.581726 1_555
O11 Ta0 1.866864 1_555
O11 Sr0 2.489748 1_544
O11 Sr0 2.489748 1_654
O11 Sr1 2.581726 1_555
O12 Ta0 2.000974 1_565
O12 Ta0 2.000974 1_455
O12 Sr2 2.624055 1_555
O13 Ta1 2.000974 1_655
O13 Ta1 2.000974 1_545
O13 Sr3 2.624055 1_555
