# generated using pymatgen
data_Na2CaP2O11
_symmetry_space_group_name_H-M   'P 1'
_cell_length_a   9.98095173
_cell_length_b   9.98095173
_cell_length_c   6.01599628
_cell_angle_alpha   82.20642863
_cell_angle_beta   82.20642863
_cell_angle_gamma   119.43226859
_symmetry_Int_Tables_number   1
_chemical_formula_structural   Na2CaP2O11
_chemical_formula_sum   'Na4 Ca2 P4 O22'
_cell_volume   502.73581193
_cell_formula_units_Z   2
loop_
 _symmetry_equiv_pos_site_id
 _symmetry_equiv_pos_as_xyz
  1  'x, y, z'
loop_
 _atom_site_type_symbol
 _atom_site_label
 _atom_site_symmetry_multiplicity
 _atom_site_fract_x
 _atom_site_fract_y
 _atom_site_fract_z
 _atom_site_occupancy
  Na  Na0  1  0.78503200  0.92017100  0.68301400  1
  Na  Na1  1  0.92017100  0.78503200  0.18301400  1
  Na  Na2  1  0.30417600  0.15432800  0.21776800  1
  Na  Na3  1  0.15432800  0.30417600  0.71776800  1
  Ca  Ca0  1  0.49717500  0.01702700  0.53509700  1
  Ca  Ca1  1  0.01702700  0.49717500  0.03509700  1
  P  P0  1  0.64837300  0.22604200  0.95010200  1
  P  P1  1  0.22604200  0.64837300  0.45010200  1
  P  P2  1  0.82544600  0.08318300  0.12246200  1
  P  P3  1  0.08318300  0.82544600  0.62246200  1
  O  O0  1  0.79456000  0.39327200  0.87182800  1
  O  O1  1  0.39327200  0.79456000  0.37182800  1
  O  O2  1  0.71295400  0.10105500  0.95834200  1
  O  O3  1  0.10105500  0.71295400  0.45834200  1
  O  O4  1  0.53868800  0.17747700  0.78787300  1
  O  O5  1  0.17747700  0.53868800  0.28787300  1
  O  O6  1  0.55655100  0.19753900  0.19772300  1
  O  O7  1  0.19753900  0.55655100  0.69772300  1
  O  O8  1  0.97944300  0.24432500  0.06684100  1
  O  O9  1  0.24432500  0.97944300  0.56684100  1
  O  O10  1  0.85252700  0.95789600  0.03481300  1
  O  O11  1  0.95789600  0.85252700  0.53481300  1
  O  O12  1  0.73380800  0.03015800  0.37259800  1
  O  O13  1  0.03015800  0.73380800  0.87259800  1
  O  O14  1  0.76460400  0.44904500  0.23712800  1
  O  O15  1  0.44904500  0.76460400  0.73712800  1
  O  O16  1  0.44703800  0.45947200  0.02905100  1
  O  O17  1  0.45947200  0.44703800  0.52905100  1
  O  O18  1  0.57504600  0.58238100  0.46758300  1
  O  O19  1  0.58238100  0.57504600  0.96758300  1
  O  O20  1  0.07836900  0.13783800  0.43577800  1
  O  O21  1  0.13783800  0.07836900  0.93577800  1
loop_
_geom_bond_atom_site_label_1
_geom_bond_atom_site_label_2
_geom_bond_distance
_geom_bond_site_symmetry_2
Na0 O11 2.262397 1_555
Na0 O12 2.282204 1_565
Na0 O10 2.329883 1_556
Na0 O20 2.682431 1_665
Na0 O15 2.865681 1_555
Na1 O10 2.262397 1_555
Na1 O13 2.282204 1_654
Na1 O11 2.329883 1_555
Na1 O21 2.682431 1_664
Na1 O14 2.865681 1_555
Na2 O6 2.319794 1_555
Na2 O9 2.335514 1_545
Na2 O20 2.366843 1_555
Na2 O21 2.466715 1_554
Na2 O16 2.636883 1_555
Na3 O7 2.319794 1_555
Na3 O8 2.335514 1_456
Na3 O21 2.366843 1_555
Na3 O20 2.466715 1_555
Na3 O17 2.636883 1_555
Ca0 O4 2.286497 1_555
Ca0 O6 2.312875 1_555
Ca0 O9 2.337868 1_545
Ca0 O1 2.361196 1_545
Ca0 O12 2.363454 1_555
Ca0 O15 2.424295 1_545
Ca1 O5 2.286497 1_555
Ca1 O7 2.312875 1_554
Ca1 O8 2.337868 1_455
Ca1 O0 2.361196 1_454
Ca1 O13 2.363454 1_554
Ca1 O14 2.424295 1_455
O0 P0 1.530897 1_555
O1 P1 1.530897 1_555
O2 P2 1.648339 1_556
O2 P0 1.660220 1_555
O3 P3 1.648339 1_555
O3 P1 1.660220 1_555
O4 P0 1.510803 1_555
O5 P1 1.510803 1_555
O6 P0 1.548734 1_554
O7 P1 1.548734 1_555
O8 P2 1.531747 1_555
O9 P3 1.531747 1_555
O10 P2 1.545045 1_565
O11 P3 1.545045 1_655
O12 P2 1.521881 1_555
O13 P3 1.521881 1_555
O16 O19 1.228654 1_554
O17 O18 1.228654 1_555
