# generated using pymatgen
data_BaEuCr4O12
_symmetry_space_group_name_H-M   'P 1'
_cell_length_a   5.93110050
_cell_length_b   5.93110050
_cell_length_c   8.25792382
_cell_angle_alpha   90.00000000
_cell_angle_beta   90.00000000
_cell_angle_gamma   90.00000000
_symmetry_Int_Tables_number   1
_chemical_formula_structural   BaEuCr4O12
_chemical_formula_sum   'Ba1 Eu1 Cr4 O12'
_cell_volume   290.49685718
_cell_formula_units_Z   1
loop_
 _symmetry_equiv_pos_site_id
 _symmetry_equiv_pos_as_xyz
  1  'x, y, z'
loop_
 _atom_site_type_symbol
 _atom_site_label
 _atom_site_symmetry_multiplicity
 _atom_site_fract_x
 _atom_site_fract_y
 _atom_site_fract_z
 _atom_site_occupancy
  Ba  Ba0  1  0.50000000  0.50000000  -0.00000000  1
  Eu  Eu0  1  0.00000000  0.00000000  0.50000000  1
  Cr  Cr0  1  0.00000000  0.50000000  0.74940294  1
  Cr  Cr1  1  0.00000000  0.50000000  0.25059706  1
  Cr  Cr2  1  0.50000000  0.00000000  0.74940294  1
  Cr  Cr3  1  0.50000000  0.00000000  0.25059706  1
  O  O0  1  0.24538553  0.24538553  0.74487869  1
  O  O1  1  0.24538553  0.24538553  0.25512131  1
  O  O2  1  0.75461447  0.75461447  0.25512131  1
  O  O3  1  0.75461447  0.75461447  0.74487869  1
  O  O4  1  0.75461447  0.24538553  0.74487869  1
  O  O5  1  0.75461447  0.24538553  0.25512131  1
  O  O6  1  0.24538553  0.75461447  0.25512131  1
  O  O7  1  0.24538553  0.75461447  0.74487869  1
  O  O8  1  0.00000000  0.50000000  0.50000000  1
  O  O9  1  0.00000000  0.50000000  -0.00000000  1
  O  O10  1  0.50000000  0.00000000  0.50000000  1
  O  O11  1  0.50000000  0.00000000  -0.00000000  1
loop_
_geom_bond_atom_site_label_1
_geom_bond_atom_site_label_2
_geom_bond_distance
_geom_bond_site_symmetry_2
Ba0 O9 2.965550 1_655
Ba0 O11 2.965550 1_555
Ba0 O11 2.965550 1_565
Ba0 O9 2.965550 1_555
Ba0 O7 2.999927 1_554
Ba0 O1 2.999927 1_555
Ba0 O4 2.999927 1_554
Ba0 O0 2.999927 1_554
Ba0 O3 2.999927 1_554
Ba0 O6 2.999927 1_555
Ba0 O5 2.999927 1_555
Ba0 O2 2.999927 1_555
Eu0 O2 2.885423 1_445
Eu0 O5 2.885423 1_455
Eu0 O6 2.885423 1_545
Eu0 O1 2.885423 1_555
Eu0 O3 2.885423 1_445
Eu0 O7 2.885423 1_545
Eu0 O4 2.885423 1_455
Eu0 O0 2.885423 1_555
Eu0 O8 2.965550 1_545
Eu0 O10 2.965550 1_555
Eu0 O8 2.965550 1_555
Eu0 O10 2.965550 1_455
Cr0 O8 2.059550 1_555
Cr0 O9 2.069411 1_556
Cr0 O4 2.097651 1_455
Cr0 O7 2.097651 1_555
Cr0 O0 2.097651 1_555
Cr0 O3 2.097651 1_455
Cr1 O8 2.059550 1_555
Cr1 O9 2.069411 1_555
Cr1 O5 2.097651 1_455
Cr1 O1 2.097651 1_555
Cr1 O6 2.097651 1_555
Cr1 O2 2.097651 1_455
Cr2 O10 2.059550 1_555
Cr2 O11 2.069411 1_556
Cr2 O7 2.097651 1_545
Cr2 O0 2.097651 1_555
Cr2 O4 2.097651 1_555
Cr2 O3 2.097651 1_545
Cr3 O10 2.059550 1_555
Cr3 O11 2.069411 1_555
Cr3 O6 2.097651 1_545
Cr3 O1 2.097651 1_555
Cr3 O5 2.097651 1_555
Cr3 O2 2.097651 1_545
