# generated using pymatgen
data_SrLa7ZnCu3O16
_symmetry_space_group_name_H-M   'P 1'
_cell_length_a   10.81007083
_cell_length_b   5.46383995
_cell_length_c   7.06609711
_cell_angle_alpha   89.52853010
_cell_angle_beta   67.49876753
_cell_angle_gamma   89.96294536
_symmetry_Int_Tables_number   1
_chemical_formula_structural   SrLa7ZnCu3O16
_chemical_formula_sum   'Sr1 La7 Zn1 Cu3 O16'
_cell_volume   385.56827342
_cell_formula_units_Z   1
loop_
 _symmetry_equiv_pos_site_id
 _symmetry_equiv_pos_as_xyz
  1  'x, y, z'
loop_
 _atom_site_type_symbol
 _atom_site_label
 _atom_site_symmetry_multiplicity
 _atom_site_fract_x
 _atom_site_fract_y
 _atom_site_fract_z
 _atom_site_occupancy
  Sr  Sr0  1  0.92988700  0.49848000  0.27876500  1
  La  La0  1  0.17497500  0.98222300  0.27802100  1
  La  La1  1  0.06686000  0.49258800  0.72535500  1
  La  La2  1  0.42913200  0.50644700  0.28054100  1
  La  La3  1  0.32005100  0.01462700  0.71873200  1
  La  La4  1  0.68466000  0.98277000  0.27788600  1
  La  La5  1  0.57299400  0.49298800  0.72065900  1
  La  La6  1  0.82189200  0.01671300  0.71876300  1
  Zn  Zn0  1  0.49789600  0.99938600  0.00709800  1
  Cu  Cu0  1  0.99862400  0.99839100  0.00604800  1
  Cu  Cu1  1  0.24879100  0.49930200  0.99738500  1
  Cu  Cu2  1  0.75204800  0.49879100  0.99792800  1
  O  O0  1  0.13516800  0.75169300  0.97854600  1
  O  O1  1  0.16570600  0.55172500  0.37738800  1
  O  O2  1  0.08787400  0.03542500  0.63682900  1
  O  O3  1  0.37628100  0.74369000  0.98056400  1
  O  O4  1  0.12770200  0.25057600  0.00018600  1
  O  O5  1  0.41016400  0.96812500  0.35495300  1
  O  O6  1  0.34522700  0.45035900  0.62459000  1
  O  O7  1  0.63413800  0.75033300  0.98916900  1
  O  O8  1  0.36468500  0.24899300  0.01334500  1
  O  O9  1  0.64779500  0.54967600  0.37769100  1
  O  O10  1  0.59059700  0.03397800  0.64240600  1
  O  O11  1  0.87655300  0.74703900  0.98504700  1
  O  O12  1  0.62300800  0.25442500  0.02209800  1
  O  O13  1  0.91355300  0.98178900  0.35703500  1
  O  O14  1  0.83618100  0.45451500  0.64437600  1
  O  O15  1  0.86755600  0.24495300  0.00859600  1
loop_
_geom_bond_atom_site_label_1
_geom_bond_atom_site_label_2
_geom_bond_distance
_geom_bond_site_symmetry_2
La0 O2 2.362994 1_565
La0 O1 2.440292 1_555
La0 O8 2.617509 1_565
La0 O4 2.642866 1_565
La0 O0 2.644091 1_554
La0 O13 2.662756 1_455
La0 O3 2.718911 1_554
La0 O5 2.796820 1_555
La0 O1 3.188607 1_565
La1 O1 2.295244 1_555
La1 O2 2.568744 1_555
La1 O11 2.584799 1_455
La1 O0 2.608536 1_555
La1 O4 2.624238 1_556
La1 O15 2.671504 1_456
La1 O14 2.771965 1_455
La1 O6 2.824386 1_555
La1 O2 3.016865 1_565
La2 O6 2.264313 1_555
La2 O5 2.573000 1_555
La2 O12 2.594554 1_555
La2 O8 2.660930 1_555
La2 O1 2.673751 1_555
La2 O9 2.712893 1_555
La2 O3 2.716693 1_554
La2 O7 2.718858 1_554
La2 O5 2.977011 1_545
La3 O5 2.390564 1_545
La3 O6 2.453742 1_555
La3 O0 2.565273 1_545
La3 O3 2.607386 1_545
La3 O4 2.610426 1_556
La3 O8 2.649491 1_556
La3 O10 2.765434 1_555
La3 O2 2.785233 1_555
La3 O6 3.148968 1_545
La4 O10 2.398637 1_565
La4 O9 2.452437 1_555
La4 O15 2.580919 1_565
La4 O12 2.605878 1_565
La4 O7 2.639988 1_554
La4 O11 2.645503 1_554
La4 O13 2.737582 1_555
La4 O5 2.805481 1_555
La4 O9 3.173296 1_565
La5 O9 2.260738 1_555
La5 O10 2.563879 1_555
La5 O3 2.611423 1_555
La5 O7 2.649297 1_555
La5 O14 2.693781 1_555
La5 O12 2.713497 1_556
La5 O8 2.742115 1_556
La5 O6 2.803575 1_555
La5 O10 2.995412 1_565
La6 O13 2.370793 1_545
La6 O14 2.437177 1_555
La6 O15 2.609544 1_556
La6 O11 2.620082 1_545
La6 O7 2.622665 1_545
La6 O2 2.708905 1_655
La6 O12 2.723678 1_556
La6 O10 2.753725 1_555
La6 O14 3.114428 1_545
Cu0 O15 1.949638 1_565
Cu0 O4 1.950541 1_665
Cu0 O11 1.950646 1_554
Cu0 O0 1.953346 1_654
Cu0 O13 2.292502 1_555
Cu0 O2 2.417291 1_664
Cu1 O4 1.882214 1_556
Cu1 O0 1.883618 1_555
Cu1 O8 1.885771 1_556
Cu1 O3 1.889683 1_555
Cu1 O6 2.450849 1_555
Cu1 O1 2.503020 1_556
Cu2 O15 1.885860 1_556
Cu2 O11 1.888413 1_555
Cu2 O12 1.890505 1_556
Cu2 O7 1.890536 1_555
Cu2 O14 2.323237 1_555
Cu2 O9 2.499077 1_556
O0 Sr0 2.773310 1_456
O1 Sr0 2.903935 1_455
O3 Zn0 1.977547 1_556
O4 Sr0 2.664685 1_455
O5 Zn0 2.275811 1_555
O7 Zn0 1.973402 1_556
O8 Zn0 1.971139 1_545
O9 Sr0 2.869928 1_555
O10 Zn0 2.386685 1_546
O11 Sr0 2.711591 1_556
O12 Zn0 1.974036 1_545
O13 Sr0 2.694283 1_555
O13 Sr0 2.864830 1_565
O14 Sr0 2.396886 1_555
O15 Sr0 2.654542 1_555
