# generated using pymatgen
data_Te2MoWSeS
_symmetry_space_group_name_H-M   'P 1'
_cell_length_a   3.39466824
_cell_length_b   3.39466824
_cell_length_c   39.84093200
_cell_angle_alpha   90.00000000
_cell_angle_beta   90.00000000
_cell_angle_gamma   120.00000463
_symmetry_Int_Tables_number   1
_chemical_formula_structural   Te2MoWSeS
_chemical_formula_sum   'Te4 Mo2 W2 Se2 S2'
_cell_volume   397.60768931
_cell_formula_units_Z   2
loop_
 _symmetry_equiv_pos_site_id
 _symmetry_equiv_pos_as_xyz
  1  'x, y, z'
loop_
 _atom_site_type_symbol
 _atom_site_label
 _atom_site_symmetry_multiplicity
 _atom_site_fract_x
 _atom_site_fract_y
 _atom_site_fract_z
 _atom_site_occupancy
  Te  Te0  1  0.00000000  0.00000000  0.33012500  1
  Te  Te1  1  0.33333300  0.66666700  0.04544800  1
  Te  Te2  1  0.33333300  0.66666700  0.13950800  1
  Te  Te3  1  0.00000000  0.00000000  0.23607500  1
  Mo  Mo0  1  0.00000000  0.00000000  0.09242100  1
  Mo  Mo1  1  0.33333300  0.66666700  0.28306400  1
  W  W0  1  0.00000000  0.00000000  0.46978600  1
  W  W1  1  0.33333300  0.66666700  0.65762300  1
  Se  Se0  1  0.00000000  0.00000000  0.69914500  1
  Se  Se1  1  0.00000000  0.00000000  0.61605500  1
  S  S0  1  0.33333300  0.66666700  0.43186400  1
  S  S1  1  0.33333300  0.66666700  0.50763400  1
loop_
_geom_bond_atom_site_label_1
_geom_bond_atom_site_label_2
_geom_bond_distance
_geom_bond_site_symmetry_2
Mo0 Te1 2.709902 1_545
Mo0 Te1 2.709904 1_555
Mo0 Te1 2.709904 1_445
Mo0 Te2 2.713040 1_545
Mo0 Te2 2.713042 1_555
Mo0 Te2 2.713042 1_445
Mo1 Te3 2.710342 1_565
Mo1 Te3 2.710344 1_555
Mo1 Te3 2.710344 1_665
Mo1 Te0 2.712324 1_565
Mo1 Te0 2.712326 1_665
Mo1 Te0 2.712326 1_555
Se0 W1 2.564737 1_545
Se0 W1 2.564739 1_555
Se0 W1 2.564739 1_445
Se1 W1 2.565920 1_545
Se1 W1 2.565922 1_445
Se1 W1 2.565922 1_555
S0 W0 2.474654 1_565
S0 W0 2.474656 1_555
S0 W0 2.474656 1_665
S1 W0 2.472855 1_565
S1 W0 2.472857 1_665
S1 W0 2.472857 1_555
