# generated using pymatgen
data_Pr2Ni3Ge5
_symmetry_space_group_name_H-M   'P 1'
_cell_length_a   5.93453700
_cell_length_b   8.20450104
_cell_length_c   8.20450104
_cell_angle_alpha   73.24778738
_cell_angle_beta   68.79761177
_cell_angle_gamma   68.79761177
_symmetry_Int_Tables_number   1
_chemical_formula_structural   Pr2Ni3Ge5
_chemical_formula_sum   'Pr4 Ni6 Ge10'
_cell_volume   341.48176489
_cell_formula_units_Z   2
loop_
 _symmetry_equiv_pos_site_id
 _symmetry_equiv_pos_as_xyz
  1  'x, y, z'
loop_
 _atom_site_type_symbol
 _atom_site_label
 _atom_site_symmetry_multiplicity
 _atom_site_fract_x
 _atom_site_fract_y
 _atom_site_fract_z
 _atom_site_occupancy
  Pr  Pr0  1  0.86683800  0.87388200  0.39244100  1
  Pr  Pr1  1  0.13316200  0.12611800  0.60755900  1
  Pr  Pr2  1  0.36683800  0.39244100  0.87388200  1
  Pr  Pr3  1  0.63316200  0.60755900  0.12611800  1
  Ni  Ni0  1  0.25000000  0.00000000  0.00000000  1
  Ni  Ni1  1  0.75000000  0.00000000  0.00000000  1
  Ni  Ni2  1  0.63062200  0.25738700  0.48137000  1
  Ni  Ni3  1  0.36937800  0.74261300  0.51863000  1
  Ni  Ni4  1  0.13062200  0.48137000  0.25738700  1
  Ni  Ni5  1  0.86937800  0.51863000  0.74261300  1
  Ge  Ge0  1  0.25000000  0.50000000  0.50000000  1
  Ge  Ge1  1  0.75000000  0.50000000  0.50000000  1
  Ge  Ge2  1  0.00798200  0.24201800  0.24201800  1
  Ge  Ge3  1  0.49201800  0.75798200  0.75798200  1
  Ge  Ge4  1  0.99201800  0.75798200  0.75798200  1
  Ge  Ge5  1  0.50798200  0.24201800  0.24201800  1
  Ge  Ge6  1  0.60229800  0.04886600  0.74653700  1
  Ge  Ge7  1  0.39770200  0.95113400  0.25346300  1
  Ge  Ge8  1  0.10229800  0.74653700  0.04886600  1
  Ge  Ge9  1  0.89770200  0.25346300  0.95113400  1
loop_
_geom_bond_atom_site_label_1
_geom_bond_atom_site_label_2
_geom_bond_distance
_geom_bond_site_symmetry_2
Ni0 Pr2 3.330731 1_554
Ni0 Pr1 3.330731 1_554
Ni0 Pr3 3.330734 1_545
Ni0 Pr0 3.330734 1_445
Ni1 Pr0 3.330731 1_545
Ni1 Pr3 3.330731 1_545
Ni1 Pr1 3.330734 1_654
Ni1 Pr2 3.330734 1_554
Ni2 Pr0 3.129034 1_545
Ni2 Pr1 3.223892 1_555
Ni2 Pr1 3.223892 1_655
Ni2 Pr2 3.347384 1_555
Ni2 Pr3 3.452809 1_555
Ni3 Pr1 3.129034 1_565
Ni3 Pr0 3.223892 1_555
Ni3 Pr0 3.223892 1_455
Ni3 Pr3 3.347384 1_555
Ni3 Pr2 3.452809 1_555
Ni4 Pr2 3.129034 1_554
Ni4 Pr3 3.223892 1_455
Ni4 Pr3 3.223892 1_555
Ni4 Pr0 3.347384 1_455
Ni4 Pr1 3.452809 1_555
Ni5 Pr3 3.129034 1_556
Ni5 Pr2 3.223892 1_655
Ni5 Pr2 3.223892 1_555
Ni5 Pr1 3.347384 1_655
Ni5 Pr0 3.452809 1_555
Ge0 Ni3 2.400245 1_555
Ge0 Ni4 2.400245 1_555
Ge0 Ni2 2.400249 1_555
Ge0 Ni5 2.400249 1_455
Ge0 Pr2 3.194460 1_555
Ge0 Pr1 3.194460 1_555
Ge0 Pr0 3.194463 1_455
Ge0 Pr3 3.194463 1_555
Ge1 Ni5 2.400245 1_555
Ge1 Ni2 2.400245 1_555
Ge1 Ni3 2.400249 1_555
Ge1 Ni4 2.400249 1_655
Ge1 Pr0 3.194460 1_555
Ge1 Pr3 3.194460 1_555
Ge1 Pr2 3.194463 1_555
Ge1 Pr1 3.194463 1_655
Ge2 Ni2 2.375900 1_455
Ge2 Ni4 2.375904 1_555
Ge2 Ge9 2.662504 1_454
Ge2 Ge7 2.662508 1_545
Ge2 Ni0 2.845262 1_555
Ge2 Pr3 3.147565 1_455
Ge2 Pr1 3.147568 1_555
Ge2 Pr2 3.206364 1_554
Ge2 Pr0 3.206366 1_445
Ge3 Ni5 2.375900 1_555
Ge3 Ni3 2.375904 1_555
Ge3 Ge6 2.662504 1_565
Ge3 Ge8 2.662508 1_556
Ge3 Ni0 2.845262 1_566
Ge3 Pr0 3.147565 1_555
Ge3 Pr2 3.147568 1_555
Ge3 Pr1 3.206364 1_565
Ge3 Pr3 3.206366 1_556
Ge4 Ni3 2.375900 1_655
Ge4 Ni5 2.375904 1_555
Ge4 Ge8 2.662504 1_656
Ge4 Ge6 2.662508 1_565
Ge4 Ni1 2.845262 1_566
Ge4 Pr2 3.147565 1_655
Ge4 Pr0 3.147568 1_555
Ge4 Pr3 3.206364 1_556
Ge4 Pr1 3.206366 1_665
Ge5 Ni4 2.375900 1_555
Ge5 Ni2 2.375904 1_555
Ge5 Ge7 2.662504 1_545
Ge5 Ge9 2.662508 1_554
Ge5 Ni1 2.845262 1_555
Ge5 Pr1 3.147565 1_555
Ge5 Pr3 3.147568 1_555
Ge5 Pr0 3.206364 1_545
Ge5 Pr2 3.206366 1_554
Ge6 Ni2 2.342243 1_555
Ge6 Ni0 2.416029 1_556
Ge6 Ni1 2.416032 1_556
Ge6 Pr2 2.963579 1_555
Ge6 Pr1 3.171177 1_555
Ge6 Pr1 3.171188 1_655
Ge6 Pr0 3.231235 1_545
Ge7 Ni3 2.342243 1_555
Ge7 Ni1 2.416029 1_565
Ge7 Ni0 2.416032 1_565
Ge7 Pr3 2.963579 1_555
Ge7 Pr0 3.171177 1_555
Ge7 Pr0 3.171188 1_455
Ge7 Pr1 3.231235 1_565
Ge8 Ni4 2.342243 1_555
Ge8 Ni1 2.416029 1_465
Ge8 Ni0 2.416032 1_565
Ge8 Pr0 2.963579 1_455
Ge8 Pr3 3.171177 1_455
Ge8 Pr3 3.171188 1_555
Ge8 Pr2 3.231235 1_554
Ge9 Ni5 2.342243 1_555
Ge9 Ni0 2.416029 1_656
Ge9 Ni1 2.416032 1_556
Ge9 Pr1 2.963579 1_655
Ge9 Pr2 3.171177 1_655
Ge9 Pr2 3.171188 1_555
Ge9 Pr3 3.231235 1_556
