# generated using pymatgen
data_Sc2Se3O10
_symmetry_space_group_name_H-M   'P 1'
_cell_length_a   11.05261700
_cell_length_b   6.63940700
_cell_length_c   12.92111003
_cell_angle_alpha   76.77419546
_cell_angle_beta   90.00000000
_cell_angle_gamma   90.00000000
_symmetry_Int_Tables_number   1
_chemical_formula_structural   Sc2Se3O10
_chemical_formula_sum   'Sc8 Se12 O40'
_cell_volume   923.03776295
_cell_formula_units_Z   4
loop_
 _symmetry_equiv_pos_site_id
 _symmetry_equiv_pos_as_xyz
  1  'x, y, z'
loop_
 _atom_site_type_symbol
 _atom_site_label
 _atom_site_symmetry_multiplicity
 _atom_site_fract_x
 _atom_site_fract_y
 _atom_site_fract_z
 _atom_site_occupancy
  Sc  Sc0  1  0.84233400  0.19923500  0.59074000  1
  Sc  Sc1  1  0.34233400  0.80076500  0.90926000  1
  Sc  Sc2  1  0.15766600  0.80076500  0.40926000  1
  Sc  Sc3  1  0.65766600  0.19923500  0.09074000  1
  Sc  Sc4  1  0.70622600  0.73732300  0.53412900  1
  Sc  Sc5  1  0.20622600  0.26267700  0.96587100  1
  Sc  Sc6  1  0.29377400  0.26267700  0.46587100  1
  Sc  Sc7  1  0.79377400  0.73732300  0.03412900  1
  Se  Se0  1  0.96967800  0.67989300  0.64905900  1
  Se  Se1  1  0.46967800  0.32010700  0.85094100  1
  Se  Se2  1  0.03032200  0.32010700  0.35094100  1
  Se  Se3  1  0.53032200  0.67989300  0.14905900  1
  Se  Se4  1  0.60499200  0.28805800  0.45567200  1
  Se  Se5  1  0.10499200  0.71194200  0.04432800  1
  Se  Se6  1  0.39500800  0.71194200  0.54432800  1
  Se  Se7  1  0.89500800  0.28805800  0.95567200  1
  Se  Se8  1  0.64908100  0.86405400  0.77869200  1
  Se  Se9  1  0.14908100  0.13594600  0.72130800  1
  Se  Se10  1  0.35091900  0.13594600  0.22130800  1
  Se  Se11  1  0.85091900  0.86405400  0.27869200  1
  O  O0  1  0.86567200  0.87204100  0.58852700  1
  O  O1  1  0.36567200  0.12795900  0.91147300  1
  O  O2  1  0.13432800  0.12795900  0.41147300  1
  O  O3  1  0.63432800  0.87204100  0.08852700  1
  O  O4  1  0.07381200  0.69266500  0.55175800  1
  O  O5  1  0.57381200  0.30733500  0.94824200  1
  O  O6  1  0.92618800  0.30733500  0.44824200  1
  O  O7  1  0.42618800  0.69266500  0.05175800  1
  O  O8  1  0.87256000  0.48394200  0.63444400  1
  O  O9  1  0.37256000  0.51605800  0.86555600  1
  O  O10  1  0.12744000  0.51605800  0.36555600  1
  O  O11  1  0.62744000  0.48394200  0.13444400  1
  O  O12  1  0.68461300  0.41643600  0.53857700  1
  O  O13  1  0.18461300  0.58356400  0.96142300  1
  O  O14  1  0.31538700  0.58356400  0.46142300  1
  O  O15  1  0.81538700  0.41643600  0.03857700  1
  O  O16  1  0.69638500  0.07161000  0.49844800  1
  O  O17  1  0.19638500  0.92839000  0.00155200  1
  O  O18  1  0.30361500  0.92839000  0.50155200  1
  O  O19  1  0.80361500  0.07161000  0.99844800  1
  O  O20  1  0.47322300  0.23161700  0.52382500  1
  O  O21  1  0.97322300  0.76838300  0.97617500  1
  O  O22  1  0.52677700  0.76838300  0.47617500  1
  O  O23  1  0.02677700  0.23161700  0.02382500  1
  O  O24  1  0.63367100  0.71308800  0.69100600  1
  O  O25  1  0.13367100  0.28691200  0.80899400  1
  O  O26  1  0.36632900  0.28691200  0.30899400  1
  O  O27  1  0.86632900  0.71308800  0.19100600  1
  O  O28  1  0.72087300  0.08466400  0.72729300  1
  O  O29  1  0.22087300  0.91533600  0.77270700  1
  O  O30  1  0.27912700  0.91533600  0.27270700  1
  O  O31  1  0.77912700  0.08466400  0.22729300  1
  O  O32  1  0.72922100  0.73203100  0.88079800  1
  O  O33  1  0.22922100  0.26796900  0.61920200  1
  O  O34  1  0.27077900  0.26796900  0.11920200  1
  O  O35  1  0.77077900  0.73203100  0.38079800  1
  O  O36  1  0.51133000  0.91357800  0.81796100  1
  O  O37  1  0.01133000  0.08642200  0.68203900  1
  O  O38  1  0.48867000  0.08642200  0.18203900  1
  O  O39  1  0.98867000  0.91357800  0.31796100  1
loop_
_geom_bond_atom_site_label_1
_geom_bond_atom_site_label_2
_geom_bond_distance
_geom_bond_site_symmetry_2
O0 Se0 1.761857 1_555
O0 Sc4 2.165050 1_555
O0 Sc0 2.194308 1_565
O1 Se1 1.761857 1_555
O1 Sc5 2.165050 1_555
O1 Sc1 2.194308 1_545
O2 Se2 1.761857 1_555
O2 Sc6 2.165050 1_555
O2 Sc2 2.194308 1_545
O3 Se3 1.761857 1_555
O3 Sc7 2.165050 1_555
O3 Sc3 2.194308 1_565
O4 Se0 1.692260 1_455
O4 Sc2 2.039496 1_555
O5 Se1 1.692260 1_555
O5 Sc3 2.039496 1_556
O6 Se2 1.692260 1_655
O6 Sc0 2.039496 1_555
O7 Se3 1.692260 1_555
O7 Sc1 2.039496 1_554
O8 Se0 1.729995 1_555
O8 Sc0 2.119462 1_555
O8 Sc4 2.625309 1_555
O9 Se1 1.729995 1_555
O9 Sc1 2.119462 1_555
O9 Sc5 2.625309 1_555
O10 Se2 1.729995 1_555
O10 Sc2 2.119462 1_555
O10 Sc6 2.625309 1_555
O11 Se3 1.729995 1_555
O11 Sc3 2.119462 1_555
O11 Sc7 2.625309 1_555
O12 Se4 1.751075 1_555
O12 Sc4 2.131517 1_555
O12 Sc0 2.264506 1_555
O13 Se5 1.751075 1_556
O13 Sc5 2.131517 1_555
O13 Sc1 2.264506 1_555
O14 Se6 1.751075 1_555
O14 Sc6 2.131517 1_555
O14 Sc2 2.264506 1_555
O15 Se7 1.751075 1_554
O15 Sc7 2.131517 1_555
O15 Sc3 2.264506 1_555
O16 Se4 1.740006 1_555
O16 Sc4 2.163839 1_545
O16 Sc0 2.281365 1_555
O17 Se5 1.740006 1_555
O17 Sc5 2.163839 1_564
O17 Sc1 2.281365 1_554
O18 Se6 1.740006 1_555
O18 Sc6 2.163839 1_565
O18 Sc2 2.281365 1_555
O19 Se7 1.740006 1_555
O19 Sc7 2.163839 1_546
O19 Sc3 2.281365 1_556
O20 Se4 1.698818 1_555
O20 Sc6 2.113389 1_555
O21 Se5 1.698818 1_656
O21 Sc7 2.113389 1_556
O22 Se6 1.698818 1_555
O22 Sc4 2.113389 1_555
O23 Se7 1.698818 1_454
O23 Sc5 2.113389 1_554
O24 Se8 1.684338 1_555
O24 Sc4 2.151408 1_555
O25 Se9 1.684338 1_555
O25 Sc5 2.151408 1_555
O26 Se10 1.684338 1_555
O26 Sc6 2.151408 1_555
O27 Se11 1.684338 1_555
O27 Sc7 2.151408 1_555
O28 Se8 1.664627 1_545
O28 Sc0 2.209041 1_555
O29 Se9 1.664627 1_565
O29 Sc1 2.209041 1_555
O30 Se10 1.664627 1_565
O30 Sc2 2.209041 1_555
O31 Se11 1.664627 1_545
O31 Sc3 2.209041 1_555
O32 Se8 1.662635 1_555
O32 Sc7 2.113604 1_556
O33 Se9 1.662635 1_555
O33 Sc6 2.113604 1_555
O34 Se10 1.662635 1_555
O34 Sc5 2.113604 1_554
O35 Se11 1.662635 1_555
O35 Sc4 2.113604 1_555
O36 Se8 1.661308 1_555
O36 Sc1 2.244374 1_555
O37 Se9 1.661308 1_555
O37 Sc0 2.244374 1_455
O38 Se10 1.661308 1_555
O38 Sc3 2.244374 1_555
O39 Se11 1.661308 1_555
O39 Sc2 2.244374 1_655
