# generated using pymatgen
data_Dy7Co6Sn23
_symmetry_space_group_name_H-M   'P 1'
_cell_length_a   9.66411668
_cell_length_b   9.66408510
_cell_length_c   9.84342427
_cell_angle_alpha   89.99902541
_cell_angle_beta   90.00057724
_cell_angle_gamma   120.00074307
_symmetry_Int_Tables_number   1
_chemical_formula_structural   Dy7Co6Sn23
_chemical_formula_sum   'Dy7 Co6 Sn23'
_cell_volume   796.15292450
_cell_formula_units_Z   1
loop_
 _symmetry_equiv_pos_site_id
 _symmetry_equiv_pos_as_xyz
  1  'x, y, z'
loop_
 _atom_site_type_symbol
 _atom_site_label
 _atom_site_symmetry_multiplicity
 _atom_site_fract_x
 _atom_site_fract_y
 _atom_site_fract_z
 _atom_site_occupancy
  Dy  Dy0  1  0.00000344  -0.00001168  0.00002111  1
  Dy  Dy1  1  0.47825521  0.52174364  0.30636541  1
  Dy  Dy2  1  0.52176868  0.47823990  0.69364950  1
  Dy  Dy3  1  0.47825236  0.95650719  0.30636455  1
  Dy  Dy4  1  0.52175407  0.04352141  0.69364693  1
  Dy  Dy5  1  0.04349122  0.52174747  0.30636504  1
  Dy  Dy6  1  0.95647864  0.47825027  0.69364730  1
  Co  Co0  1  0.83270052  0.16729945  0.19678700  1
  Co  Co1  1  0.16729540  0.83270329  0.80318799  1
  Co  Co2  1  0.83269191  0.66538697  0.19679524  1
  Co  Co3  1  0.16731301  0.33461243  0.80318277  1
  Co  Co4  1  0.33460989  0.16730737  0.19679117  1
  Co  Co5  1  0.66539416  0.83268909  0.80318526  1
  Sn  Sn0  1  0.34696699  0.00001649  -0.00001860  1
  Sn  Sn1  1  0.65303892  0.00001012  0.99998228  1
  Sn  Sn2  1  -0.00000770  0.34696273  -0.00001851  1
  Sn  Sn3  1  -0.00002003  0.65303087  -0.00001776  1
  Sn  Sn4  1  0.65304608  0.65302779  -0.00001656  1
  Sn  Sn5  1  0.34697417  0.34695617  -0.00002141  1
  Sn  Sn6  1  0.33333189  0.66666120  0.81971831  1
  Sn  Sn7  1  0.66666578  0.33334783  0.18026012  1
  Sn  Sn8  1  0.00000082  -0.00000287  0.50001427  1
  Sn  Sn9  1  0.78075723  0.21924456  0.45115857  1
  Sn  Sn10  1  0.21924663  0.78075189  0.54887841  1
  Sn  Sn11  1  0.78075502  0.56151242  0.45115580  1
  Sn  Sn12  1  0.21924812  0.43848657  0.54887545  1
  Sn  Sn13  1  0.43848503  0.21924382  0.45115748  1
  Sn  Sn14  1  0.56150933  0.78074800  0.54887562  1
  Sn  Sn15  1  0.33333256  0.66666701  0.11432547  1
  Sn  Sn16  1  0.66666607  0.33334095  0.88565751  1
  Sn  Sn17  1  0.11667758  0.88331529  0.27548417  1
  Sn  Sn18  1  0.88330604  0.11670087  0.72453404  1
  Sn  Sn19  1  0.11669285  0.23338162  0.27548238  1
  Sn  Sn20  1  0.88330327  0.76660194  0.72452910  1
  Sn  Sn21  1  0.76662045  0.88330097  0.27548343  1
  Sn  Sn22  1  0.23339539  0.11669794  0.72452917  1
loop_
_geom_bond_atom_site_label_1
_geom_bond_atom_site_label_2
_geom_bond_distance
_geom_bond_site_symmetry_2
Dy0 Sn17 3.341582 1_545
Dy0 Sn21 3.341768 1_445
Dy0 Sn19 3.341825 1_555
Dy0 Sn20 3.342037 1_444
Dy0 Sn22 3.342048 1_554
Dy0 Sn18 3.342081 1_454
Dy0 Sn3 3.352913 1_545
Dy0 Sn0 3.352960 1_555
Dy0 Sn4 3.353009 1_445
Dy0 Sn5 3.353109 1_555
Dy0 Sn1 3.353211 1_454
Dy0 Sn2 3.353244 1_555
Dy1 Sn15 3.075366 1_555
Dy1 Sn13 3.098627 1_555
Dy1 Sn11 3.098644 1_555
Dy1 Sn21 3.214013 1_555
Dy1 Sn19 3.214044 1_555
Dy1 Sn14 3.255331 1_555
Dy1 Sn12 3.255331 1_555
Dy1 Sn4 3.378639 1_555
Dy1 Sn5 3.378685 1_555
Dy1 Sn7 3.389160 1_555
Dy2 Sn16 3.074845 1_555
Dy2 Sn14 3.098715 1_555
Dy2 Sn12 3.098798 1_555
Dy2 Sn20 3.213865 1_555
Dy2 Sn22 3.213939 1_555
Dy2 Sn11 3.255064 1_555
Dy2 Sn13 3.255109 1_555
Dy2 Sn5 3.378185 1_556
Dy2 Sn4 3.378217 1_556
Dy2 Sn6 3.389431 1_555
Dy3 Sn15 3.075342 1_555
Dy3 Sn9 3.098698 1_565
Dy3 Sn13 3.098727 1_565
Dy3 Sn21 3.214182 1_555
Dy3 Sn17 3.214211 1_555
Dy3 Sn10 3.255339 1_555
Dy3 Sn14 3.255368 1_555
Dy3 Sn1 3.378647 1_564
Dy3 Sn0 3.378658 1_565
Dy3 Sn7 3.389352 1_565
Dy4 Sn16 3.075033 1_555
Dy4 Sn10 3.098704 1_545
Dy4 Sn14 3.098881 1_545
Dy4 Sn22 3.213906 1_555
Dy4 Sn18 3.214041 1_555
Dy4 Sn13 3.255042 1_555
Dy4 Sn9 3.255100 1_555
Dy4 Sn0 3.378226 1_556
Dy4 Sn1 3.378242 1_555
Dy4 Sn6 3.389385 1_545
Dy5 Sn15 3.075341 1_555
Dy5 Sn9 3.098655 1_455
Dy5 Sn11 3.098701 1_455
Dy5 Sn19 3.214127 1_555
Dy5 Sn17 3.214148 1_555
Dy5 Sn10 3.255348 1_555
Dy5 Sn12 3.255375 1_555
Dy5 Sn3 3.378646 1_555
Dy5 Sn2 3.378666 1_555
Dy5 Sn7 3.389259 1_455
Dy6 Sn16 3.074973 1_555
Dy6 Sn10 3.098651 1_655
Dy6 Sn12 3.098893 1_655
Dy6 Sn20 3.213826 1_555
Dy6 Sn18 3.214023 1_555
Dy6 Sn11 3.255037 1_555
Dy6 Sn9 3.255131 1_555
Dy6 Sn3 3.378218 1_656
Dy6 Sn2 3.378243 1_656
Dy6 Sn6 3.389353 1_655
Co0 Sn1 2.564014 1_554
Co0 Sn2 2.564015 1_655
Co0 Sn19 2.605298 1_655
Co0 Sn21 2.605346 1_545
Co0 Sn9 2.650570 1_555
Co0 Sn7 2.784087 1_555
Co0 Dy3 3.173116 1_545
Co0 Dy5 3.173120 1_655
Co0 Dy0 3.405061 1_655
Co1 Sn3 2.564030 1_556
Co1 Sn0 2.564032 1_566
Co1 Sn20 2.605137 1_455
Co1 Sn22 2.605147 1_565
Co1 Sn10 2.650032 1_555
Co1 Sn6 2.784051 1_555
Co1 Dy6 3.173058 1_455
Co1 Dy4 3.173097 1_565
Co1 Dy0 3.405183 1_566
Co2 Sn4 2.563998 1_555
Co2 Sn3 2.564032 1_655
Co2 Sn21 2.605268 1_555
Co2 Sn17 2.605274 1_655
Co2 Sn11 2.650401 1_555
Co2 Sn7 2.783693 1_555
Co2 Dy1 3.173021 1_555
Co2 Dy5 3.173046 1_655
Co2 Dy0 3.404943 1_665
Co3 Sn5 2.564019 1_556
Co3 Sn2 2.564112 1_556
Co3 Sn22 2.605240 1_555
Co3 Sn18 2.605245 1_455
Co3 Sn12 2.649905 1_555
Co3 Sn6 2.783774 1_555
Co3 Dy2 3.173071 1_555
Co3 Dy6 3.173210 1_455
Co3 Dy0 3.405460 1_556
Co4 Sn5 2.563994 1_555
Co4 Sn0 2.564034 1_555
Co4 Sn17 2.605323 1_545
Co4 Sn19 2.605324 1_555
Co4 Sn13 2.650467 1_555
Co4 Sn7 2.783838 1_555
Co4 Dy1 3.173031 1_555
Co4 Dy3 3.173083 1_545
Co4 Dy0 3.404982 1_555
Co5 Sn4 2.564012 1_556
Co5 Sn1 2.564123 1_565
Co5 Sn20 2.605231 1_555
Co5 Sn18 2.605269 1_565
Co5 Sn14 2.649967 1_555
Co5 Sn6 2.783893 1_555
Co5 Dy2 3.173029 1_555
Co5 Dy4 3.173215 1_565
Co5 Dy0 3.405370 1_666
Sn10 Sn17 3.192112 1_555
Sn11 Sn20 3.191776 1_555
Sn12 Sn19 3.192010 1_555
Sn13 Sn22 3.191749 1_555
Sn14 Sn21 3.192016 1_555
Sn15 Sn6 2.899943 1_554
Sn16 Sn7 2.899898 1_556
Sn17 Sn8 2.949467 1_565
Sn18 Sn8 2.949612 1_655
Sn18 Sn9 3.191777 1_555
Sn19 Sn8 2.949564 1_555
Sn20 Sn8 2.949497 1_665
Sn21 Sn8 2.949555 1_665
Sn22 Sn8 2.949516 1_555
