# generated using pymatgen
data_K3Sm2(NO3)9
_symmetry_space_group_name_H-M   'P 1'
_cell_length_a   13.65664682
_cell_length_b   13.65664682
_cell_length_c   13.65664682
_cell_angle_alpha   90.00000000
_cell_angle_beta   90.00000000
_cell_angle_gamma   90.00000000
_symmetry_Int_Tables_number   1
_chemical_formula_structural   K3Sm2(NO3)9
_chemical_formula_sum   'K12 Sm8 N36 O108'
_cell_volume   2547.01929083
_cell_formula_units_Z   4
loop_
 _symmetry_equiv_pos_site_id
 _symmetry_equiv_pos_as_xyz
  1  'x, y, z'
loop_
 _atom_site_type_symbol
 _atom_site_label
 _atom_site_symmetry_multiplicity
 _atom_site_fract_x
 _atom_site_fract_y
 _atom_site_fract_z
 _atom_site_occupancy
  K  K0  1  0.12500000  0.18839367  0.43839367  1
  K  K1  1  0.37500000  0.81160633  0.93839367  1
  K  K2  1  0.87500000  0.68839367  0.06160633  1
  K  K3  1  0.43839367  0.12500000  0.18839367  1
  K  K4  1  0.93839367  0.37500000  0.81160633  1
  K  K5  1  0.62500000  0.31160633  0.56160633  1
  K  K6  1  0.56160633  0.62500000  0.31160633  1
  K  K7  1  0.06160633  0.87500000  0.68839367  1
  K  K8  1  0.18839367  0.43839367  0.12500000  1
  K  K9  1  0.68839367  0.06160633  0.87500000  1
  K  K10  1  0.31160633  0.56160633  0.62500000  1
  K  K11  1  0.81160633  0.93839367  0.37500000  1
  Sm  Sm0  1  0.04846667  0.04846667  0.04846667  1
  Sm  Sm1  1  0.45153333  0.95153333  0.54846667  1
  Sm  Sm2  1  0.95153333  0.54846667  0.45153333  1
  Sm  Sm3  1  0.79846667  0.29846667  0.20153333  1
  Sm  Sm4  1  0.54846667  0.45153333  0.95153333  1
  Sm  Sm5  1  0.70153333  0.70153333  0.70153333  1
  Sm  Sm6  1  0.29846667  0.20153333  0.79846667  1
  Sm  Sm7  1  0.20153333  0.79846667  0.29846667  1
  N  N0  1  0.10036964  0.41537868  0.36374820  1
  N  N1  1  0.39963036  0.58462132  0.86374820  1
  N  N2  1  0.89963036  0.91537868  0.13625180  1
  N  N3  1  0.36374820  0.10036964  0.41537868  1
  N  N4  1  0.16537868  0.35036964  0.88625180  1
  N  N5  1  0.60036964  0.08462132  0.63625180  1
  N  N6  1  0.86374820  0.39963036  0.58462132  1
  N  N7  1  0.33462132  0.64963036  0.38625180  1
  N  N8  1  0.13625180  0.89963036  0.91537868  1
  N  N9  1  0.66537868  0.14963036  0.11374820  1
  N  N10  1  0.63625180  0.60036964  0.08462132  1
  N  N11  1  0.83462132  0.85036964  0.61374820  1
  N  N12  1  0.41537868  0.36374820  0.10036964  1
  N  N13  1  0.85036964  0.61374820  0.83462132  1
  N  N14  1  0.91537868  0.13625180  0.89963036  1
  N  N15  1  0.64963036  0.38625180  0.33462132  1
  N  N16  1  0.08462132  0.63625180  0.60036964  1
  N  N17  1  0.35036964  0.88625180  0.16537868  1
  N  N18  1  0.58462132  0.86374820  0.39963036  1
  N  N19  1  0.14963036  0.11374820  0.66537868  1
  N  N20  1  0.88625180  0.16537868  0.35036964  1
  N  N21  1  0.38625180  0.33462132  0.64963036  1
  N  N22  1  0.61374820  0.83462132  0.85036964  1
  N  N23  1  0.11374820  0.66537868  0.14963036  1
  N  N24  1  0.12500000  0.01284979  0.26284979  1
  N  N25  1  0.37500000  0.98715021  0.76284979  1
  N  N26  1  0.87500000  0.51284979  0.23715021  1
  N  N27  1  0.26284979  0.12500000  0.01284979  1
  N  N28  1  0.76284979  0.37500000  0.98715021  1
  N  N29  1  0.62500000  0.48715021  0.73715021  1
  N  N30  1  0.73715021  0.62500000  0.48715021  1
  N  N31  1  0.23715021  0.87500000  0.51284979  1
  N  N32  1  0.01284979  0.26284979  0.12500000  1
  N  N33  1  0.51284979  0.23715021  0.87500000  1
  N  N34  1  0.48715021  0.73715021  0.62500000  1
  N  N35  1  0.98715021  0.76284979  0.37500000  1
  O  O0  1  0.12500000  0.94605678  0.19605678  1
  O  O1  1  0.37500000  0.05394322  0.69605678  1
  O  O2  1  0.87500000  0.44605678  0.30394322  1
  O  O3  1  0.19605678  0.12500000  0.94605678  1
  O  O4  1  0.69605678  0.37500000  0.05394322  1
  O  O5  1  0.62500000  0.55394322  0.80394322  1
  O  O6  1  0.80394322  0.62500000  0.55394322  1
  O  O7  1  0.30394322  0.87500000  0.44605678  1
  O  O8  1  0.94605678  0.19605678  0.12500000  1
  O  O9  1  0.44605678  0.30394322  0.87500000  1
  O  O10  1  0.55394322  0.80394322  0.62500000  1
  O  O11  1  0.05394322  0.69605678  0.37500000  1
  O  O12  1  0.05348951  0.39158747  0.44154629  1
  O  O13  1  0.44651049  0.60841253  0.94154629  1
  O  O14  1  0.94651049  0.89158747  0.05845371  1
  O  O15  1  0.44154629  0.05348951  0.39158747  1
  O  O16  1  0.14158747  0.30348951  0.80845371  1
  O  O17  1  0.55348951  0.10841253  0.55845371  1
  O  O18  1  0.94154629  0.44651049  0.60841253  1
  O  O19  1  0.35841253  0.69651049  0.30845371  1
  O  O20  1  0.05845371  0.94651049  0.89158747  1
  O  O21  1  0.64158747  0.19651049  0.19154629  1
  O  O22  1  0.55845371  0.55348951  0.10841253  1
  O  O23  1  0.85841253  0.80348951  0.69154629  1
  O  O24  1  0.39158747  0.44154629  0.05348951  1
  O  O25  1  0.80348951  0.69154629  0.85841253  1
  O  O26  1  0.89158747  0.05845371  0.94651049  1
  O  O27  1  0.69651049  0.30845371  0.35841253  1
  O  O28  1  0.10841253  0.55845371  0.55348951  1
  O  O29  1  0.30348951  0.80845371  0.14158747  1
  O  O30  1  0.60841253  0.94154629  0.44651049  1
  O  O31  1  0.19651049  0.19154629  0.64158747  1
  O  O32  1  0.80845371  0.14158747  0.30348951  1
  O  O33  1  0.30845371  0.35841253  0.69651049  1
  O  O34  1  0.69154629  0.85841253  0.80348951  1
  O  O35  1  0.19154629  0.64158747  0.19651049  1
  O  O36  1  0.08130205  0.49952120  0.32740718  1
  O  O37  1  0.41869795  0.50047880  0.82740718  1
  O  O38  1  0.91869795  0.99952120  0.17259282  1
  O  O39  1  0.32740718  0.08130205  0.49952120  1
  O  O40  1  0.24952120  0.33130205  0.92259282  1
  O  O41  1  0.58130205  0.00047880  0.67259282  1
  O  O42  1  0.82740718  0.41869795  0.50047880  1
  O  O43  1  0.25047880  0.66869795  0.42259282  1
  O  O44  1  0.17259282  0.91869795  0.99952120  1
  O  O45  1  0.74952120  0.16869795  0.07740718  1
  O  O46  1  0.67259282  0.58130205  0.00047880  1
  O  O47  1  0.75047880  0.83130205  0.57740718  1
  O  O48  1  0.49952120  0.32740718  0.08130205  1
  O  O49  1  0.83130205  0.57740718  0.75047880  1
  O  O50  1  0.99952120  0.17259282  0.91869795  1
  O  O51  1  0.66869795  0.42259282  0.25047880  1
  O  O52  1  0.00047880  0.67259282  0.58130205  1
  O  O53  1  0.33130205  0.92259282  0.24952120  1
  O  O54  1  0.50047880  0.82740718  0.41869795  1
  O  O55  1  0.16869795  0.07740718  0.74952120  1
  O  O56  1  0.92259282  0.24952120  0.33130205  1
  O  O57  1  0.42259282  0.25047880  0.66869795  1
  O  O58  1  0.57740718  0.75047880  0.83130205  1
  O  O59  1  0.07740718  0.74952120  0.16869795  1
  O  O60  1  0.16118825  0.35935040  0.32541871  1
  O  O61  1  0.33881175  0.64064960  0.82541871  1
  O  O62  1  0.83881175  0.85935040  0.17458129  1
  O  O63  1  0.32541871  0.16118825  0.35935040  1
  O  O64  1  0.10935040  0.41118825  0.92458129  1
  O  O65  1  0.66118825  0.14064960  0.67458129  1
  O  O66  1  0.82541871  0.33881175  0.64064960  1
  O  O67  1  0.39064960  0.58881175  0.42458129  1
  O  O68  1  0.17458129  0.83881175  0.85935040  1
  O  O69  1  0.60935040  0.08881175  0.07541871  1
  O  O70  1  0.67458129  0.66118825  0.14064960  1
  O  O71  1  0.89064960  0.91118825  0.57541871  1
  O  O72  1  0.35935040  0.32541871  0.16118825  1
  O  O73  1  0.91118825  0.57541871  0.89064960  1
  O  O74  1  0.85935040  0.17458129  0.83881175  1
  O  O75  1  0.58881175  0.42458129  0.39064960  1
  O  O76  1  0.14064960  0.67458129  0.66118825  1
  O  O77  1  0.41118825  0.92458129  0.10935040  1
  O  O78  1  0.64064960  0.82541871  0.33881175  1
  O  O79  1  0.08881175  0.07541871  0.60935040  1
  O  O80  1  0.92458129  0.10935040  0.41118825  1
  O  O81  1  0.42458129  0.39064960  0.58881175  1
  O  O82  1  0.57541871  0.89064960  0.91118825  1
  O  O83  1  0.07541871  0.60935040  0.08881175  1
  O  O84  1  0.09181178  0.09591083  0.24178028  1
  O  O85  1  0.40818822  0.90408917  0.74178028  1
  O  O86  1  0.90818822  0.59591083  0.25821972  1
  O  O87  1  0.24178028  0.09181178  0.09591083  1
  O  O88  1  0.84591083  0.34181178  0.00821972  1
  O  O89  1  0.59181178  0.40408917  0.75821972  1
  O  O90  1  0.74178028  0.40818822  0.90408917  1
  O  O91  1  0.65408917  0.65818822  0.50821972  1
  O  O92  1  0.25821972  0.90818822  0.59591083  1
  O  O93  1  0.34591083  0.15818822  0.99178028  1
  O  O94  1  0.75821972  0.59181178  0.40408917  1
  O  O95  1  0.15408917  0.84181178  0.49178028  1
  O  O96  1  0.09591083  0.24178028  0.09181178  1
  O  O97  1  0.84181178  0.49178028  0.15408917  1
  O  O98  1  0.59591083  0.25821972  0.90818822  1
  O  O99  1  0.65818822  0.50821972  0.65408917  1
  O  O100  1  0.40408917  0.75821972  0.59181178  1
  O  O101  1  0.34181178  0.00821972  0.84591083  1
  O  O102  1  0.90408917  0.74178028  0.40818822  1
  O  O103  1  0.15818822  0.99178028  0.34591083  1
  O  O104  1  0.00821972  0.84591083  0.34181178  1
  O  O105  1  0.50821972  0.65408917  0.65818822  1
  O  O106  1  0.49178028  0.15408917  0.84181178  1
  O  O107  1  0.99178028  0.34591083  0.15818822  1
loop_
_geom_bond_atom_site_label_1
_geom_bond_atom_site_label_2
_geom_bond_distance
_geom_bond_site_symmetry_2
K0 O79 2.841736 1_555
K0 O60 2.841736 1_555
K0 O12 2.942093 1_555
K0 O31 2.942093 1_555
K0 O80 2.965588 1_455
K0 O63 2.965588 1_555
K0 O84 3.001710 1_555
K0 O103 3.001710 1_545
K0 O56 3.236765 1_455
K0 O39 3.236765 1_555
K1 O61 2.841736 1_555
K1 O77 2.841736 1_556
K1 O29 2.942093 1_556
K1 O13 2.942093 1_555
K1 O68 2.965588 1_555
K1 O82 2.965588 1_555
K1 O85 3.001710 1_555
K1 O101 3.001710 1_565
K1 O44 3.236765 1_555
K1 O58 3.236765 1_555
K2 O73 2.841736 1_554
K2 O62 2.841736 1_555
K2 O25 2.942093 1_554
K2 O14 2.942093 1_555
K2 O70 2.965588 1_555
K2 O83 2.965588 1_655
K2 O97 3.001710 1_555
K2 O86 3.001710 1_555
K2 O46 3.236765 1_555
K2 O59 3.236765 1_655
K3 O69 2.841736 1_555
K3 O63 2.841736 1_555
K3 O15 2.942093 1_555
K3 O21 2.942093 1_555
K3 O72 2.965588 1_555
K3 O77 2.965588 1_545
K3 O93 3.001710 1_554
K3 O87 3.001710 1_555
K3 O48 3.236765 1_555
K3 O53 3.236765 1_545
K4 O66 2.841736 1_555
K4 O64 2.841736 1_655
K4 O16 2.942093 1_655
K4 O18 2.942093 1_555
K4 O73 2.965588 1_555
K4 O74 2.965588 1_555
K4 O88 3.001710 1_556
K4 O90 3.001710 1_555
K4 O50 3.236765 1_555
K4 O49 3.236765 1_555
K5 O65 2.841736 1_555
K5 O75 2.841736 1_555
K5 O17 2.942093 1_555
K5 O27 2.942093 1_555
K5 O81 2.965588 1_555
K5 O66 2.965588 1_555
K5 O89 3.001710 1_555
K5 O99 3.001710 1_555
K5 O57 3.236765 1_555
K5 O42 3.236765 1_555
K6 O70 2.841736 1_555
K6 O67 2.841736 1_555
K6 O22 2.942093 1_555
K6 O19 2.942093 1_555
K6 O75 2.965588 1_555
K6 O78 2.965588 1_555
K6 O94 3.001710 1_555
K6 O91 3.001710 1_555
K6 O51 3.236765 1_555
K6 O54 3.236765 1_555
K7 O71 2.841736 1_455
K7 O68 2.841736 1_555
K7 O23 2.942093 1_455
K7 O20 2.942093 1_555
K7 O76 2.965588 1_555
K7 O79 2.965588 1_565
K7 O95 3.001710 1_555
K7 O92 3.001710 1_555
K7 O52 3.236765 1_555
K7 O55 3.236765 1_565
K8 O83 2.841736 1_555
K8 O72 2.841736 1_555
K8 O24 2.942093 1_555
K8 O35 2.942093 1_555
K8 O60 2.965588 1_555
K8 O64 2.965588 1_554
K8 O107 3.001710 1_455
K8 O96 3.001710 1_555
K8 O36 3.236765 1_555
K8 O40 3.236765 1_554
K9 O82 2.841736 1_545
K9 O74 2.841736 1_555
K9 O34 2.942093 1_545
K9 O26 2.942093 1_555
K9 O65 2.965588 1_555
K9 O69 2.965588 1_556
K9 O106 3.001710 1_555
K9 O98 3.001710 1_555
K9 O41 3.236765 1_555
K9 O45 3.236765 1_556
K10 O76 2.841736 1_555
K10 O81 2.841736 1_555
K10 O33 2.942093 1_555
K10 O28 2.942093 1_555
K10 O67 2.965588 1_555
K10 O61 2.965588 1_555
K10 O100 3.001710 1_555
K10 O105 3.001710 1_555
K10 O43 3.236765 1_555
K10 O37 3.236765 1_555
K11 O78 2.841736 1_555
K11 O80 2.841736 1_565
K11 O32 2.942093 1_565
K11 O30 2.942093 1_555
K11 O71 2.965588 1_555
K11 O62 2.965588 1_555
K11 O104 3.001710 1_655
K11 O102 3.001710 1_555
K11 O38 3.236765 1_555
K11 O47 3.236765 1_555
N0 O60 1.244721 1_555
N0 O36 1.278499 1_555
N0 O12 1.282294 1_555
N1 O61 1.244721 1_555
N1 O37 1.278499 1_555
N1 O13 1.282294 1_555
N2 O62 1.244721 1_555
N2 O38 1.278499 1_555
N2 O14 1.282294 1_555
N3 O63 1.244721 1_555
N3 O39 1.278499 1_555
N3 O15 1.282294 1_555
N4 O64 1.244721 1_555
N4 O40 1.278499 1_555
N4 O16 1.282294 1_555
N5 O65 1.244721 1_555
N5 O41 1.278499 1_555
N5 O17 1.282294 1_555
N6 O66 1.244721 1_555
N6 O42 1.278499 1_555
N6 O18 1.282294 1_555
N7 O67 1.244721 1_555
N7 O43 1.278499 1_555
N7 O19 1.282294 1_555
N8 O68 1.244721 1_555
N8 O44 1.278499 1_555
N8 O20 1.282294 1_555
N9 O69 1.244721 1_555
N9 O45 1.278499 1_555
N9 O21 1.282294 1_555
N10 O70 1.244721 1_555
N10 O46 1.278499 1_555
N10 O22 1.282294 1_555
N11 O71 1.244721 1_555
N11 O47 1.278499 1_555
N11 O23 1.282294 1_555
N12 O72 1.244721 1_555
N12 O48 1.278499 1_555
N12 O24 1.282294 1_555
N13 O73 1.244721 1_555
N13 O49 1.278499 1_555
N13 O25 1.282294 1_555
N14 O74 1.244721 1_555
N14 O50 1.278499 1_555
N14 O26 1.282294 1_555
N15 O75 1.244721 1_555
N15 O51 1.278499 1_555
N15 O27 1.282294 1_555
N16 O76 1.244721 1_555
N16 O52 1.278499 1_555
N16 O28 1.282294 1_555
N17 O77 1.244721 1_555
N17 O53 1.278499 1_555
N17 O29 1.282294 1_555
N18 O78 1.244721 1_555
N18 O54 1.278499 1_555
N18 O30 1.282294 1_555
N19 O79 1.244721 1_555
N19 O55 1.278499 1_555
N19 O31 1.282294 1_555
N20 O80 1.244721 1_555
N20 O56 1.278499 1_555
N20 O32 1.282294 1_555
N21 O81 1.244721 1_555
N21 O57 1.278499 1_555
N21 O33 1.282294 1_555
N22 O82 1.244721 1_555
N22 O58 1.278499 1_555
N22 O34 1.282294 1_555
N23 O83 1.244721 1_555
N23 O59 1.278499 1_555
N23 O35 1.282294 1_555
N24 O103 1.254965 1_545
N24 O84 1.254965 1_555
N24 O0 1.290001 1_545
N25 O85 1.254965 1_555
N25 O101 1.254965 1_565
N25 O1 1.290001 1_565
N26 O97 1.254965 1_555
N26 O86 1.254965 1_555
N26 O2 1.290001 1_555
N27 O93 1.254965 1_554
N27 O87 1.254965 1_555
N27 O3 1.290001 1_554
N28 O88 1.254965 1_556
N28 O90 1.254965 1_555
N28 O4 1.290001 1_556
N29 O89 1.254965 1_555
N29 O99 1.254965 1_555
N29 O5 1.290001 1_555
N30 O94 1.254965 1_555
N30 O91 1.254965 1_555
N30 O6 1.290001 1_555
N31 O95 1.254965 1_555
N31 O92 1.254965 1_555
N31 O7 1.290001 1_555
N32 O107 1.254965 1_455
N32 O96 1.254965 1_555
N32 O8 1.290001 1_455
N33 O106 1.254965 1_555
N33 O98 1.254965 1_555
N33 O9 1.290001 1_555
N34 O100 1.254965 1_555
N34 O105 1.254965 1_555
N34 O10 1.290001 1_555
N35 O102 1.254965 1_555
N35 O104 1.254965 1_655
N35 O11 1.290001 1_655
O0 Sm7 2.666650 1_555
O0 Sm0 2.666650 1_565
O1 Sm6 2.666650 1_555
O1 Sm1 2.666650 1_545
O2 Sm3 2.666650 1_555
O2 Sm2 2.666650 1_555
O3 Sm6 2.666650 1_555
O3 Sm0 2.666650 1_556
O4 Sm3 2.666650 1_555
O4 Sm4 2.666650 1_554
O5 Sm5 2.666650 1_555
O5 Sm4 2.666650 1_555
O6 Sm2 2.666650 1_555
O6 Sm5 2.666650 1_555
O7 Sm7 2.666650 1_555
O7 Sm1 2.666650 1_555
O8 Sm3 2.666650 1_555
O8 Sm0 2.666650 1_655
O9 Sm6 2.666650 1_555
O9 Sm4 2.666650 1_555
O10 Sm5 2.666650 1_555
O10 Sm1 2.666650 1_555
O11 Sm7 2.666650 1_555
O11 Sm2 2.666650 1_455
O12 Sm2 2.558787 1_455
O13 Sm4 2.558787 1_555
O14 Sm0 2.558787 1_665
O15 Sm1 2.558787 1_545
O16 Sm6 2.558787 1_555
O17 Sm1 2.558787 1_545
O18 Sm2 2.558787 1_555
O19 Sm7 2.558787 1_555
O20 Sm0 2.558787 1_566
O21 Sm3 2.558787 1_555
O22 Sm4 2.558787 1_554
O23 Sm5 2.558787 1_555
O24 Sm4 2.558787 1_554
O25 Sm5 2.558787 1_555
O26 Sm0 2.558787 1_656
O27 Sm3 2.558787 1_555
O28 Sm2 2.558787 1_455
O29 Sm7 2.558787 1_555
O30 Sm1 2.558787 1_555
O31 Sm6 2.558787 1_555
O32 Sm3 2.558787 1_555
O33 Sm6 2.558787 1_555
O34 Sm5 2.558787 1_555
O35 Sm7 2.558787 1_555
O36 Sm2 2.541857 1_455
O37 Sm4 2.541857 1_555
O38 Sm0 2.541857 1_665
O39 Sm1 2.541857 1_545
O40 Sm6 2.541857 1_555
O41 Sm1 2.541857 1_545
O42 Sm2 2.541857 1_555
O43 Sm7 2.541857 1_555
O44 Sm0 2.541857 1_566
O45 Sm3 2.541857 1_555
O46 Sm4 2.541857 1_554
O47 Sm5 2.541857 1_555
O48 Sm4 2.541857 1_554
O49 Sm5 2.541857 1_555
O50 Sm0 2.541857 1_656
O51 Sm3 2.541857 1_555
O52 Sm2 2.541857 1_455
O53 Sm7 2.541857 1_555
O54 Sm1 2.541857 1_555
O55 Sm6 2.541857 1_555
O56 Sm3 2.541857 1_555
O57 Sm6 2.541857 1_555
O58 Sm5 2.541857 1_555
O59 Sm7 2.541857 1_555
O84 Sm0 2.782067 1_555
O85 Sm1 2.782067 1_555
O86 Sm2 2.782067 1_555
O87 Sm0 2.782067 1_555
O88 Sm3 2.782067 1_555
O89 Sm4 2.782067 1_555
O90 Sm4 2.782067 1_555
O91 Sm5 2.782067 1_555
O92 Sm1 2.782067 1_555
O93 Sm6 2.782067 1_555
O94 Sm2 2.782067 1_555
O95 Sm7 2.782067 1_555
O96 Sm0 2.782067 1_555
O97 Sm3 2.782067 1_555
O98 Sm4 2.782067 1_555
O99 Sm5 2.782067 1_555
O100 Sm1 2.782067 1_555
O101 Sm6 2.782067 1_555
O102 Sm2 2.782067 1_555
O103 Sm7 2.782067 1_555
O104 Sm7 2.782067 1_555
O105 Sm5 2.782067 1_555
O106 Sm6 2.782067 1_555
O107 Sm3 2.782067 1_555
