# generated using pymatgen
data_Tl2(SeO4)3
_symmetry_space_group_name_H-M   'P 1'
_cell_length_a   9.48020600
_cell_length_b   9.16628600
_cell_length_c   15.68709454
_cell_angle_alpha   55.26057943
_cell_angle_beta   90.00000000
_cell_angle_gamma   90.00000000
_symmetry_Int_Tables_number   1
_chemical_formula_structural   Tl2(SeO4)3
_chemical_formula_sum   'Tl8 Se12 O48'
_cell_volume   1120.19737925
_cell_formula_units_Z   4
loop_
 _symmetry_equiv_pos_site_id
 _symmetry_equiv_pos_as_xyz
  1  'x, y, z'
loop_
 _atom_site_type_symbol
 _atom_site_label
 _atom_site_symmetry_multiplicity
 _atom_site_fract_x
 _atom_site_fract_y
 _atom_site_fract_z
 _atom_site_occupancy
  Tl  Tl0  1  0.03202000  0.86277700  0.88790400  1
  Tl  Tl1  1  0.96798000  0.13722300  0.11209600  1
  Tl  Tl2  1  0.53202000  0.13722300  0.61209600  1
  Tl  Tl3  1  0.46798000  0.86277700  0.38790400  1
  Tl  Tl4  1  0.03487800  0.63804800  0.61429200  1
  Tl  Tl5  1  0.96512200  0.36195200  0.38570800  1
  Tl  Tl6  1  0.53487800  0.36195200  0.88570800  1
  Tl  Tl7  1  0.46512200  0.63804800  0.11429200  1
  Se  Se0  1  0.88197400  0.96306500  0.64729200  1
  Se  Se1  1  0.11802600  0.03693500  0.35270800  1
  Se  Se2  1  0.38197400  0.03693500  0.85270800  1
  Se  Se3  1  0.61802600  0.96306500  0.14729200  1
  Se  Se4  1  0.37852100  0.74321100  0.65613100  1
  Se  Se5  1  0.62147900  0.25678900  0.34386900  1
  Se  Se6  1  0.87852100  0.25678900  0.84386900  1
  Se  Se7  1  0.12147900  0.74321100  0.15613100  1
  Se  Se8  1  0.25284800  0.45639200  0.50292700  1
  Se  Se9  1  0.74715200  0.54360800  0.49707300  1
  Se  Se10  1  0.75284800  0.54360800  0.99707300  1
  Se  Se11  1  0.24715200  0.45639200  0.00292700  1
  O  O0  1  0.72304100  0.95511300  0.69668900  1
  O  O1  1  0.27695900  0.04488700  0.30331100  1
  O  O2  1  0.22304100  0.04488700  0.80331100  1
  O  O3  1  0.77695900  0.95511300  0.19668900  1
  O  O4  1  0.11544800  0.59761000  0.93458600  1
  O  O5  1  0.88455200  0.40239000  0.06541400  1
  O  O6  1  0.61544800  0.40239000  0.56541400  1
  O  O7  1  0.38455200  0.59761000  0.43458600  1
  O  O8  1  0.20392700  0.46367300  0.60319300  1
  O  O9  1  0.79607300  0.53632700  0.39680700  1
  O  O10  1  0.70392700  0.53632700  0.89680700  1
  O  O11  1  0.29607300  0.46367300  0.10319300  1
  O  O12  1  0.41991800  0.87273100  0.69637000  1
  O  O13  1  0.58008200  0.12726900  0.30363000  1
  O  O14  1  0.91991800  0.12726900  0.80363000  1
  O  O15  1  0.08008200  0.87273100  0.19637000  1
  O  O16  1  0.00368800  0.86998200  0.74098300  1
  O  O17  1  0.99631200  0.13001800  0.25901700  1
  O  O18  1  0.50368800  0.13001800  0.75901700  1
  O  O19  1  0.49631200  0.86998200  0.24098300  1
  O  O20  1  0.38011800  0.50985300  0.91902500  1
  O  O21  1  0.61988200  0.49014700  0.08097500  1
  O  O22  1  0.88011800  0.49014700  0.58097500  1
  O  O23  1  0.11988200  0.50985300  0.41902500  1
  O  O24  1  0.87896200  0.84645800  0.59421900  1
  O  O25  1  0.12103800  0.15354200  0.40578100  1
  O  O26  1  0.37896200  0.15354200  0.90578100  1
  O  O27  1  0.62103800  0.84645800  0.09421900  1
  O  O28  1  0.48542500  0.56536300  0.71179600  1
  O  O29  1  0.51457500  0.43463700  0.28820400  1
  O  O30  1  0.98542500  0.43463700  0.78820400  1
  O  O31  1  0.01457500  0.56536300  0.21179600  1
  O  O32  1  0.31098900  0.25093100  0.54816200  1
  O  O33  1  0.68901100  0.74906900  0.45183800  1
  O  O34  1  0.81098900  0.74906900  0.95183800  1
  O  O35  1  0.18901100  0.25093100  0.04816200  1
  O  O36  1  0.39052500  0.86020200  0.52672200  1
  O  O37  1  0.60947500  0.13979800  0.47327800  1
  O  O38  1  0.89052500  0.13979800  0.97327800  1
  O  O39  1  0.10947500  0.86020200  0.02672200  1
  O  O40  1  0.20954100  0.68496000  0.69278200  1
  O  O41  1  0.79045900  0.31504000  0.30721800  1
  O  O42  1  0.70954100  0.31504000  0.80721800  1
  O  O43  1  0.29045900  0.68496000  0.19278200  1
  O  O44  1  0.42261000  0.82280800  0.94103200  1
  O  O45  1  0.57739000  0.17719200  0.05896800  1
  O  O46  1  0.92261000  0.17719200  0.55896800  1
  O  O47  1  0.07739000  0.82280800  0.44103200  1
loop_
_geom_bond_atom_site_label_1
_geom_bond_atom_site_label_2
_geom_bond_distance
_geom_bond_site_symmetry_2
O0 Se0 1.676783 1_555
O0 Tl2 2.302669 1_565
O1 Se1 1.676783 1_555
O1 Tl3 2.302669 1_545
O2 Se2 1.676783 1_555
O2 Tl0 2.302669 1_545
O3 Se3 1.676783 1_555
O3 Tl1 2.302669 1_565
O4 Se11 1.674004 1_556
O4 Tl0 2.245226 1_555
O5 Se10 1.674004 1_554
O5 Tl1 2.245226 1_555
O6 Se9 1.674004 1_555
O6 Tl2 2.245226 1_555
O7 Se8 1.674004 1_555
O7 Tl3 2.245226 1_555
O8 Se8 1.677243 1_555
O8 Tl4 2.338945 1_555
O9 Se9 1.677243 1_555
O9 Tl5 2.338945 1_555
O10 Se10 1.677243 1_555
O10 Tl6 2.338945 1_555
O11 Se11 1.677243 1_555
O11 Tl7 2.338945 1_555
O12 Se4 1.678110 1_555
O12 Tl2 2.258782 1_565
O13 Se5 1.678110 1_555
O13 Tl3 2.258782 1_545
O14 Se6 1.678110 1_555
O14 Tl0 2.258782 1_645
O15 Se7 1.678110 1_555
O15 Tl1 2.258782 1_465
O16 Se0 1.670437 1_455
O16 Tl0 2.283629 1_555
O17 Se1 1.670437 1_655
O17 Tl1 2.283629 1_555
O18 Se2 1.670437 1_555
O18 Tl2 2.283629 1_555
O19 Se3 1.670437 1_555
O19 Tl3 2.283629 1_555
O20 Se11 1.681179 1_556
O20 Tl6 2.251926 1_555
O21 Se10 1.681179 1_554
O21 Tl7 2.251926 1_555
O22 Se9 1.681179 1_555
O22 Tl4 2.251926 1_655
O23 Se8 1.681179 1_555
O23 Tl5 2.251926 1_455
O24 Se0 1.688376 1_555
O24 Tl4 2.290814 1_655
O25 Se1 1.688376 1_555
O25 Tl5 2.290814 1_455
O26 Se2 1.688376 1_555
O26 Tl6 2.290814 1_555
O27 Se3 1.688376 1_555
O27 Tl7 2.290814 1_555
O28 Se4 1.680722 1_555
O28 Tl6 2.311248 1_555
O29 Se5 1.680722 1_555
O29 Tl7 2.311248 1_555
O30 Se6 1.680722 1_555
O30 Tl4 2.311248 1_655
O31 Se7 1.680722 1_555
O31 Tl5 2.311248 1_455
O32 Se8 1.682596 1_555
O32 Tl2 2.300358 1_555
O33 Se9 1.682596 1_555
O33 Tl3 2.300358 1_555
O34 Se10 1.682596 1_555
O34 Tl0 2.300358 1_655
O35 Se11 1.682596 1_555
O35 Tl1 2.300358 1_455
O36 Se4 1.674207 1_555
O36 Tl3 2.285459 1_555
O37 Se5 1.674207 1_555
O37 Tl2 2.285459 1_555
O38 Se6 1.674207 1_555
O38 Tl1 2.285459 1_556
O39 Se7 1.674207 1_555
O39 Tl0 2.285459 1_554
O40 Se4 1.682879 1_555
O40 Tl4 2.246373 1_555
O41 Se5 1.682879 1_555
O41 Tl5 2.246373 1_555
O42 Se6 1.682879 1_555
O42 Tl6 2.246373 1_555
O43 Se7 1.682879 1_555
O43 Tl7 2.246373 1_555
O44 Se2 1.679633 1_565
O44 Tl7 2.274160 1_556
O45 Se3 1.679633 1_545
O45 Tl6 2.274160 1_554
O46 Se0 1.679633 1_545
O46 Tl5 2.274160 1_555
O47 Se1 1.679633 1_565
O47 Tl4 2.274160 1_555
