# generated using pymatgen
data_La23Cd4Ir7
_symmetry_space_group_name_H-M   'P 1'
_cell_length_a   10.18739177
_cell_length_b   10.18739177
_cell_length_c   23.09234900
_cell_angle_alpha   90.00000000
_cell_angle_beta   90.00000000
_cell_angle_gamma   119.99999848
_symmetry_Int_Tables_number   1
_chemical_formula_structural   La23Cd4Ir7
_chemical_formula_sum   'La46 Cd8 Ir14'
_cell_volume   2075.50969417
_cell_formula_units_Z   2
loop_
 _symmetry_equiv_pos_site_id
 _symmetry_equiv_pos_as_xyz
  1  'x, y, z'
loop_
 _atom_site_type_symbol
 _atom_site_label
 _atom_site_symmetry_multiplicity
 _atom_site_fract_x
 _atom_site_fract_y
 _atom_site_fract_z
 _atom_site_occupancy
  La  La0  1  0.20677900  0.41355700  0.71886800  1
  La  La1  1  0.20677900  0.79322100  0.71886800  1
  La  La2  1  0.79322100  0.58644300  0.21886800  1
  La  La3  1  0.58644300  0.79322100  0.71886800  1
  La  La4  1  0.79322100  0.20677900  0.21886800  1
  La  La5  1  0.41355700  0.20677900  0.21886800  1
  La  La6  1  0.79321600  0.58643100  0.94775500  1
  La  La7  1  0.79321600  0.20678400  0.94775500  1
  La  La8  1  0.20678400  0.41356900  0.44775500  1
  La  La9  1  0.41356900  0.20678400  0.94775500  1
  La  La10  1  0.20678400  0.79321600  0.44775500  1
  La  La11  1  0.58643100  0.79321600  0.44775500  1
  La  La12  1  0.20833000  0.41666100  0.99042000  1
  La  La13  1  0.20833000  0.79167000  0.99042000  1
  La  La14  1  0.79167000  0.58333900  0.49042000  1
  La  La15  1  0.58333900  0.79167000  0.99042000  1
  La  La16  1  0.79167000  0.20833000  0.49042000  1
  La  La17  1  0.41666100  0.20833000  0.49042000  1
  La  La18  1  0.87224800  0.74449500  0.63497300  1
  La  La19  1  0.87224800  0.12775200  0.63497300  1
  La  La20  1  0.12775200  0.25550500  0.13497300  1
  La  La21  1  0.25550500  0.12775200  0.63497300  1
  La  La22  1  0.12775200  0.87224800  0.13497300  1
  La  La23  1  0.74449500  0.87224800  0.13497300  1
  La  La24  1  0.46050000  0.92100000  0.85564600  1
  La  La25  1  0.46050000  0.53950000  0.85564600  1
  La  La26  1  0.53950000  0.07900000  0.35564600  1
  La  La27  1  0.07900000  0.53950000  0.85564600  1
  La  La28  1  0.53950000  0.46050000  0.35564600  1
  La  La29  1  0.92100000  0.46050000  0.35564600  1
  La  La30  1  0.00000000  0.00000000  0.99972500  1
  La  La31  1  0.00000000  0.00000000  0.49972500  1
  La  La32  1  0.45987200  0.91974400  0.58577600  1
  La  La33  1  0.45987200  0.54012800  0.58577600  1
  La  La34  1  0.54012800  0.08025600  0.08577600  1
  La  La35  1  0.08025600  0.54012800  0.58577600  1
  La  La36  1  0.54012800  0.45987200  0.08577600  1
  La  La37  1  0.91974400  0.45987200  0.08577600  1
  La  La38  1  0.79608900  0.59217800  0.78175400  1
  La  La39  1  0.79608900  0.20391100  0.78175400  1
  La  La40  1  0.20391100  0.40782200  0.28175400  1
  La  La41  1  0.40782200  0.20391100  0.78175400  1
  La  La42  1  0.20391100  0.79608900  0.28175400  1
  La  La43  1  0.59217800  0.79608900  0.28175400  1
  La  La44  1  0.66666700  0.33333300  0.64642900  1
  La  La45  1  0.33333300  0.66666700  0.14642900  1
  Cd  Cd0  1  0.00000000  0.00000000  0.74961500  1
  Cd  Cd1  1  0.00000000  0.00000000  0.24961500  1
  Cd  Cd2  1  0.10610300  0.21220700  0.86291600  1
  Cd  Cd3  1  0.10610300  0.89389700  0.86291600  1
  Cd  Cd4  1  0.89389700  0.78779300  0.36291600  1
  Cd  Cd5  1  0.78779300  0.89389700  0.86291600  1
  Cd  Cd6  1  0.89389700  0.10610300  0.36291600  1
  Cd  Cd7  1  0.21220700  0.10610300  0.36291600  1
  Ir  Ir0  1  0.51985400  0.03970800  0.71075300  1
  Ir  Ir1  1  0.51985400  0.48014600  0.71075300  1
  Ir  Ir2  1  0.48014600  0.96029200  0.21075200  1
  Ir  Ir3  1  0.96029200  0.48014600  0.71075300  1
  Ir  Ir4  1  0.48014600  0.51985400  0.21075200  1
  Ir  Ir5  1  0.03970800  0.51985400  0.21075200  1
  Ir  Ir6  1  0.66666700  0.33333300  0.86560400  1
  Ir  Ir7  1  0.33333300  0.66666700  0.36560400  1
  Ir  Ir8  1  0.14431400  0.28862800  0.56306100  1
  Ir  Ir9  1  0.14431400  0.85568600  0.56306100  1
  Ir  Ir10  1  0.85568600  0.71137200  0.06306100  1
  Ir  Ir11  1  0.71137200  0.85568600  0.56306100  1
  Ir  Ir12  1  0.85568600  0.14431400  0.06306100  1
  Ir  Ir13  1  0.28862800  0.14431400  0.06306100  1
loop_
_geom_bond_atom_site_label_1
_geom_bond_atom_site_label_2
_geom_bond_distance
_geom_bond_site_symmetry_2
Cd0 Cd3 3.217234 1_545
Cd0 Cd2 3.217239 1_555
Cd0 Cd5 3.217239 1_445
Cd0 La19 3.477049 1_455
Cd0 La21 3.477055 1_555
Cd0 La18 3.477055 1_445
Cd0 La39 3.673772 1_455
Cd0 La41 3.673772 1_555
Cd0 La38 3.673772 1_445
Cd0 La3 3.717066 1_445
Cd0 La0 3.717066 1_555
Cd0 La1 3.717075 1_545
Cd1 Cd6 3.217234 1_455
Cd1 Cd4 3.217239 1_445
Cd1 Cd7 3.217239 1_555
Cd1 La22 3.477049 1_545
Cd1 La23 3.477055 1_445
Cd1 La20 3.477055 1_555
Cd1 La42 3.673772 1_545
Cd1 La40 3.673772 1_555
Cd1 La43 3.673772 1_445
Cd1 La5 3.717066 1_555
Cd1 La2 3.717066 1_445
Cd1 La4 3.717075 1_455
Cd2 Cd3 3.242749 1_545
Cd2 Cd5 3.242749 1_445
Cd2 La12 3.452970 1_555
Cd2 La27 3.484586 1_555
Cd2 La25 3.484592 1_555
Cd2 La39 3.636946 1_455
Cd2 La41 3.636954 1_555
Cd2 La30 3.672323 1_555
Cd2 La7 3.718242 1_455
Cd2 La9 3.718259 1_555
Cd2 La0 3.771027 1_555
Cd3 Cd5 3.242749 1_455
Cd3 La13 3.452970 1_555
Cd3 La24 3.484597 1_555
Cd3 La27 3.484597 1_555
Cd3 La41 3.636950 1_565
Cd3 La38 3.636950 1_455
Cd3 La30 3.672318 1_565
Cd3 La6 3.718251 1_455
Cd3 La9 3.718251 1_565
Cd3 La1 3.771035 1_555
Cd4 Cd6 3.242749 1_565
Cd4 Cd7 3.242749 1_665
Cd4 La14 3.452970 1_555
Cd4 La29 3.484586 1_555
Cd4 La28 3.484592 1_555
Cd4 La42 3.636946 1_655
Cd4 La43 3.636954 1_555
Cd4 La31 3.672323 1_665
Cd4 La10 3.718242 1_655
Cd4 La11 3.718259 1_555
Cd4 La2 3.771027 1_555
Cd5 La15 3.452970 1_555
Cd5 La24 3.484586 1_555
Cd5 La25 3.484592 1_555
Cd5 La39 3.636946 1_565
Cd5 La38 3.636954 1_555
Cd5 La30 3.672323 1_665
Cd5 La7 3.718242 1_565
Cd5 La6 3.718259 1_555
Cd5 La3 3.771027 1_555
Cd6 Cd7 3.242749 1_655
Cd6 La16 3.452970 1_555
Cd6 La29 3.484597 1_555
Cd6 La26 3.484597 1_555
Cd6 La40 3.636950 1_655
Cd6 La43 3.636950 1_545
Cd6 La31 3.672318 1_655
Cd6 La8 3.718251 1_655
Cd6 La11 3.718251 1_545
Cd6 La4 3.771035 1_555
Cd7 La17 3.452970 1_555
Cd7 La26 3.484586 1_555
Cd7 La28 3.484592 1_555
Cd7 La42 3.636946 1_545
Cd7 La40 3.636954 1_555
Cd7 La31 3.672323 1_555
Cd7 La10 3.718242 1_545
Cd7 La8 3.718259 1_555
Cd7 La5 3.771027 1_555
Ir0 La1 2.916180 1_545
Ir0 La3 2.916186 1_545
Ir0 La41 2.949283 1_555
Ir0 La39 2.949283 1_555
Ir0 La44 2.986164 1_555
Ir0 La32 3.073964 1_545
Ir0 La24 3.505999 1_545
Ir0 La21 3.678948 1_555
Ir0 La19 3.678956 1_555
Ir1 La3 2.916177 1_555
Ir1 La0 2.916177 1_555
Ir1 La41 2.949283 1_555
Ir1 La38 2.949283 1_555
Ir1 La44 2.986172 1_555
Ir1 La33 3.073963 1_555
Ir1 La25 3.505999 1_555
Ir1 La21 3.678954 1_555
Ir1 La18 3.678954 1_555
Ir2 La4 2.916181 1_565
Ir2 La5 2.916188 1_565
Ir2 La43 2.949296 1_555
Ir2 La42 2.949296 1_555
Ir2 La45 2.986153 1_555
Ir2 La34 3.073942 1_565
Ir2 La26 3.506021 1_565
Ir2 La23 3.678937 1_555
Ir2 La22 3.678945 1_555
Ir3 La1 2.916180 1_655
Ir3 La0 2.916186 1_655
Ir3 La38 2.949283 1_555
Ir3 La39 2.949283 1_555
Ir3 La44 2.986164 1_555
Ir3 La35 3.073964 1_655
Ir3 La27 3.505999 1_655
Ir3 La18 3.678948 1_555
Ir3 La19 3.678956 1_555
Ir4 La2 2.916178 1_555
Ir4 La5 2.916178 1_555
Ir4 La40 2.949296 1_555
Ir4 La43 2.949296 1_555
Ir4 La45 2.986160 1_555
Ir4 La36 3.073942 1_555
Ir4 La28 3.506021 1_555
Ir4 La20 3.678943 1_555
Ir4 La23 3.678943 1_555
Ir5 La4 2.916181 1_455
Ir5 La2 2.916188 1_455
Ir5 La40 2.949296 1_555
Ir5 La42 2.949296 1_555
Ir5 La45 2.986153 1_555
Ir5 La37 3.073942 1_455
Ir5 La29 3.506021 1_455
Ir5 La20 3.678937 1_555
Ir5 La22 3.678945 1_555
Ir6 La7 2.930013 1_555
Ir6 La9 2.930013 1_555
Ir6 La6 2.930013 1_555
Ir6 La39 2.994051 1_555
Ir6 La41 2.994058 1_555
Ir6 La38 2.994058 1_555
Ir6 La24 3.645085 1_545
Ir6 La27 3.645085 1_655
Ir6 La25 3.645094 1_555
Ir7 La10 2.930013 1_555
Ir7 La8 2.930013 1_555
Ir7 La11 2.930013 1_555
Ir7 La42 2.994051 1_555
Ir7 La43 2.994058 1_555
Ir7 La40 2.994058 1_555
Ir7 La29 3.645085 1_455
Ir7 La26 3.645085 1_565
Ir7 La28 3.645094 1_555
Ir8 La8 2.881832 1_555
Ir8 La19 2.929711 1_455
Ir8 La21 2.929717 1_555
Ir8 La31 2.936571 1_555
Ir8 La35 2.989569 1_555
Ir8 La33 2.989569 1_555
Ir8 La16 3.667485 1_455
Ir8 La17 3.667494 1_555
Ir9 La10 2.881829 1_555
Ir9 La18 2.929710 1_455
Ir9 La21 2.929710 1_565
Ir9 La31 2.936571 1_565
Ir9 La35 2.989569 1_555
Ir9 La32 2.989569 1_555
Ir9 La17 3.667488 1_565
Ir9 La14 3.667488 1_455
Ir10 La6 2.881832 1_554
Ir10 La22 2.929711 1_655
Ir10 La23 2.929717 1_555
Ir10 La30 2.936571 1_664
Ir10 La37 2.989569 1_555
Ir10 La36 2.989569 1_555
Ir10 La13 3.667485 1_654
Ir10 La15 3.667494 1_554
Ir11 La11 2.881832 1_555
Ir11 La19 2.929711 1_565
Ir11 La18 2.929717 1_555
Ir11 La31 2.936571 1_665
Ir11 La32 2.989569 1_555
Ir11 La33 2.989569 1_555
Ir11 La16 3.667485 1_565
Ir11 La14 3.667494 1_555
Ir12 La7 2.881829 1_554
Ir12 La23 2.929710 1_545
Ir12 La20 2.929710 1_655
Ir12 La30 2.936571 1_654
Ir12 La34 2.989569 1_555
Ir12 La37 2.989569 1_555
Ir12 La15 3.667488 1_544
Ir12 La12 3.667488 1_654
Ir13 La9 2.881832 1_554
Ir13 La22 2.929711 1_545
Ir13 La20 2.929717 1_555
Ir13 La30 2.936571 1_554
Ir13 La34 2.989569 1_555
Ir13 La36 2.989569 1_555
Ir13 La13 3.667485 1_544
Ir13 La12 3.667494 1_554
