# generated using pymatgen
data_CrCoPt2
_symmetry_space_group_name_H-M   'P 1'
_cell_length_a   17.67825237
_cell_length_b   17.67825237
_cell_length_c   17.67825164
_cell_angle_alpha   17.57077299
_cell_angle_beta   17.57077299
_cell_angle_gamma   17.57077098
_symmetry_Int_Tables_number   1
_chemical_formula_structural   CrCoPt2
_chemical_formula_sum   'Cr8 Co8 Pt16'
_cell_volume   439.45808605
_cell_formula_units_Z   8
loop_
 _symmetry_equiv_pos_site_id
 _symmetry_equiv_pos_as_xyz
  1  'x, y, z'
loop_
 _atom_site_type_symbol
 _atom_site_label
 _atom_site_symmetry_multiplicity
 _atom_site_fract_x
 _atom_site_fract_y
 _atom_site_fract_z
 _atom_site_occupancy
  Cr  Cr0_0  1  0.37270850  0.37270850  0.37270850  1
  Cr  Cr0_1  1  0.37270850  0.37270850  0.87270850  1
  Cr  Cr0_2  1  0.37270850  0.87270850  0.37270850  1
  Cr  Cr0_3  1  0.37270850  0.87270850  0.87270850  1
  Cr  Cr0_4  1  0.87270850  0.37270850  0.37270850  1
  Cr  Cr0_5  1  0.87270850  0.37270850  0.87270850  1
  Cr  Cr0_6  1  0.87270850  0.87270850  0.37270850  1
  Cr  Cr0_7  1  0.87270850  0.87270850  0.87270850  1
  Co  Co0_0  1  0.00285600  0.00285600  0.00285600  1
  Co  Co0_1  1  0.00285600  0.00285600  0.50285600  1
  Co  Co0_2  1  0.00285600  0.50285600  0.00285600  1
  Co  Co0_3  1  0.00285600  0.50285600  0.50285600  1
  Co  Co0_4  1  0.50285600  0.00285600  0.00285600  1
  Co  Co0_5  1  0.50285600  0.00285600  0.50285600  1
  Co  Co0_6  1  0.50285600  0.50285600  0.00285600  1
  Co  Co0_7  1  0.50285600  0.50285600  0.50285600  1
  Pt  Pt0_0  1  0.24664550  0.24664550  0.24664550  1
  Pt  Pt0_1  1  0.24664550  0.24664550  0.74664550  1
  Pt  Pt0_2  1  0.24664550  0.74664550  0.24664550  1
  Pt  Pt0_3  1  0.24664550  0.74664550  0.74664550  1
  Pt  Pt0_4  1  0.74664550  0.24664550  0.24664550  1
  Pt  Pt0_5  1  0.74664550  0.24664550  0.74664550  1
  Pt  Pt0_6  1  0.74664550  0.74664550  0.24664550  1
  Pt  Pt0_7  1  0.74664550  0.74664550  0.74664550  1
  Pt  Pt1_0  1  0.12779000  0.12779000  0.12779000  1
  Pt  Pt1_1  1  0.12779000  0.12779000  0.62779000  1
  Pt  Pt1_2  1  0.12779000  0.62779000  0.12779000  1
  Pt  Pt1_3  1  0.12779000  0.62779000  0.62779000  1
  Pt  Pt1_4  1  0.62779000  0.12779000  0.12779000  1
  Pt  Pt1_5  1  0.62779000  0.12779000  0.62779000  1
  Pt  Pt1_6  1  0.62779000  0.62779000  0.12779000  1
  Pt  Pt1_7  1  0.62779000  0.62779000  0.62779000  1
loop_
_geom_bond_atom_site_label_1
_geom_bond_atom_site_label_2
_geom_bond_distance
_geom_bond_site_symmetry_2
Cr0_0 Pt0_1 2.631167 1_555
Cr0_0 Pt0_4 2.631168 1_555
Cr0_0 Pt0_2 2.631168 1_555
Cr0_0 Cr0_6 2.700066 1_545
Cr0_0 Cr0_6 2.700066 1_455
Cr0_0 Cr0_5 2.700066 1_455
Cr0_0 Cr0_3 2.700066 1_545
Cr0_0 Cr0_3 2.700066 1_554
Cr0_0 Cr0_5 2.700066 1_554
Cr0_1 Pt0_0 2.631167 1_556
Cr0_1 Pt0_5 2.631168 1_555
Cr0_1 Pt0_3 2.631168 1_555
Cr0_1 Cr0_7 2.700066 1_545
Cr0_1 Cr0_7 2.700066 1_455
Cr0_1 Cr0_2 2.700066 1_555
Cr0_1 Cr0_4 2.700066 1_456
Cr0_1 Cr0_4 2.700066 1_555
Cr0_1 Cr0_2 2.700066 1_546
Cr0_2 Pt0_3 2.631167 1_555
Cr0_2 Pt0_6 2.631168 1_555
Cr0_2 Pt0_0 2.631168 1_565
Cr0_2 Cr0_4 2.700066 1_555
Cr0_2 Cr0_4 2.700066 1_465
Cr0_2 Cr0_7 2.700066 1_554
Cr0_2 Cr0_7 2.700066 1_455
Cr0_3 Pt0_2 2.631167 1_556
Cr0_3 Pt0_7 2.631168 1_555
Cr0_3 Pt0_1 2.631168 1_565
Cr0_3 Cr0_5 2.700066 1_555
Cr0_3 Cr0_5 2.700066 1_465
Cr0_3 Cr0_6 2.700066 1_555
Cr0_3 Cr0_6 2.700066 1_456
Cr0_4 Pt0_5 2.631167 1_555
Cr0_4 Pt0_6 2.631168 1_555
Cr0_4 Pt0_0 2.631168 1_655
Cr0_4 Cr0_7 2.700066 1_545
Cr0_4 Cr0_7 2.700066 1_554
Cr0_5 Pt0_4 2.631167 1_556
Cr0_5 Pt0_7 2.631168 1_555
Cr0_5 Pt0_1 2.631168 1_655
Cr0_5 Cr0_6 2.700066 1_555
Cr0_5 Cr0_6 2.700066 1_546
Cr0_6 Pt0_7 2.631167 1_555
Cr0_6 Pt0_4 2.631168 1_565
Cr0_6 Pt0_2 2.631168 1_655
Cr0_7 Pt0_6 2.631167 1_556
Cr0_7 Pt0_5 2.631168 1_565
Cr0_7 Pt0_3 2.631168 1_655
Co0_0 Cr0_6 2.462637 1_445
Co0_0 Cr0_5 2.462637 1_454
Co0_0 Cr0_3 2.462637 1_544
Co0_0 Pt1_1 2.678875 1_554
Co0_0 Pt1_4 2.678875 1_455
Co0_0 Pt1_2 2.678875 1_545
Co0_0 Co0_6 2.700066 1_455
Co0_0 Co0_6 2.700066 1_545
Co0_0 Co0_5 2.700066 1_455
Co0_0 Co0_3 2.700066 1_554
Co0_0 Co0_5 2.700066 1_554
Co0_0 Co0_3 2.700066 1_545
Co0_1 Cr0_7 2.462637 1_445
Co0_1 Cr0_2 2.462637 1_545
Co0_1 Cr0_4 2.462637 1_455
Co0_1 Pt1_0 2.678875 1_555
Co0_1 Pt1_5 2.678875 1_455
Co0_1 Pt1_3 2.678875 1_545
Co0_1 Co0_7 2.700066 1_545
Co0_1 Co0_7 2.700066 1_455
Co0_1 Co0_4 2.700066 1_555
Co0_1 Co0_2 2.700066 1_555
Co0_1 Co0_4 2.700066 1_456
Co0_1 Co0_2 2.700066 1_546
Co0_2 Cr0_4 2.462637 1_455
Co0_2 Cr0_1 2.462637 1_554
Co0_2 Cr0_7 2.462637 1_454
Co0_2 Pt1_3 2.678875 1_554
Co0_2 Pt1_6 2.678875 1_455
Co0_2 Pt1_0 2.678875 1_555
Co0_2 Co0_4 2.700066 1_555
Co0_2 Co0_4 2.700066 1_465
Co0_2 Co0_7 2.700066 1_554
Co0_2 Co0_7 2.700066 1_455
Co0_3 Cr0_5 2.462637 1_455
Co0_3 Cr0_6 2.462637 1_455
Co0_3 Cr0_0 2.462637 1_555
Co0_3 Pt1_2 2.678875 1_555
Co0_3 Pt1_7 2.678875 1_455
Co0_3 Pt1_1 2.678875 1_555
Co0_3 Co0_5 2.700066 1_555
Co0_3 Co0_5 2.700066 1_465
Co0_3 Co0_6 2.700066 1_555
Co0_3 Co0_6 2.700066 1_456
Co0_4 Cr0_2 2.462637 1_545
Co0_4 Cr0_1 2.462637 1_554
Co0_4 Cr0_7 2.462637 1_544
Co0_4 Pt1_5 2.678875 1_554
Co0_4 Pt1_0 2.678875 1_555
Co0_4 Pt1_6 2.678875 1_545
Co0_4 Co0_7 2.700066 1_545
Co0_4 Co0_7 2.700066 1_554
Co0_5 Cr0_3 2.462637 1_545
Co0_5 Cr0_6 2.462637 1_545
Co0_5 Cr0_0 2.462637 1_555
Co0_5 Pt1_4 2.678875 1_555
Co0_5 Pt1_7 2.678875 1_545
Co0_5 Pt1_1 2.678875 1_555
Co0_5 Co0_6 2.700066 1_555
Co0_5 Co0_6 2.700066 1_546
Co0_6 Cr0_0 2.462637 1_555
Co0_6 Cr0_5 2.462637 1_554
Co0_6 Cr0_3 2.462637 1_554
Co0_6 Pt1_7 2.678875 1_554
Co0_6 Pt1_4 2.678875 1_555
Co0_6 Pt1_2 2.678875 1_555
Co0_7 Cr0_1 2.462637 1_555
Co0_7 Cr0_2 2.462637 1_555
Co0_7 Cr0_4 2.462637 1_555
Co0_7 Pt1_6 2.678875 1_555
Co0_7 Pt1_5 2.678875 1_555
Co0_7 Pt1_3 2.678875 1_555
Pt0_0 Pt0_6 2.700066 1_455
Pt0_0 Pt0_6 2.700066 1_545
Pt0_0 Pt0_5 2.700066 1_554
Pt0_0 Pt0_3 2.700066 1_554
Pt0_0 Pt0_3 2.700066 1_545
Pt0_0 Pt0_5 2.700066 1_455
Pt0_0 Pt1_1 2.942733 1_555
Pt0_0 Pt1_4 2.942733 1_555
Pt0_0 Pt1_2 2.942733 1_555
Pt0_1 Pt0_7 2.700066 1_455
Pt0_1 Pt0_7 2.700066 1_545
Pt0_1 Pt0_4 2.700066 1_456
Pt0_1 Pt0_2 2.700066 1_546
Pt0_1 Pt0_4 2.700066 1_555
Pt0_1 Pt0_2 2.700066 1_555
Pt0_1 Pt1_0 2.942733 1_556
Pt0_1 Pt1_5 2.942733 1_555
Pt0_1 Pt1_3 2.942733 1_555
Pt0_2 Pt0_4 2.700066 1_555
Pt0_2 Pt0_4 2.700066 1_465
Pt0_2 Pt0_7 2.700066 1_455
Pt0_2 Pt0_7 2.700066 1_554
Pt0_2 Pt1_3 2.942733 1_555
Pt0_2 Pt1_0 2.942733 1_565
Pt0_2 Pt1_6 2.942733 1_555
Pt0_3 Pt0_5 2.700066 1_555
Pt0_3 Pt0_5 2.700066 1_465
Pt0_3 Pt0_6 2.700066 1_555
Pt0_3 Pt0_6 2.700066 1_456
Pt0_3 Pt1_2 2.942733 1_556
Pt0_3 Pt1_7 2.942733 1_555
Pt0_3 Pt1_1 2.942733 1_565
Pt0_4 Pt0_7 2.700066 1_554
Pt0_4 Pt0_7 2.700066 1_545
Pt0_4 Pt1_5 2.942733 1_555
Pt0_4 Pt1_6 2.942733 1_555
Pt0_4 Pt1_0 2.942733 1_655
Pt0_5 Pt0_6 2.700066 1_555
Pt0_5 Pt0_6 2.700066 1_546
Pt0_5 Pt1_4 2.942733 1_556
Pt0_5 Pt1_1 2.942733 1_655
Pt0_5 Pt1_7 2.942733 1_555
Pt0_6 Pt1_7 2.942733 1_555
Pt0_6 Pt1_2 2.942733 1_655
Pt0_6 Pt1_4 2.942733 1_565
Pt0_7 Pt1_6 2.942733 1_556
Pt0_7 Pt1_5 2.942733 1_565
Pt0_7 Pt1_3 2.942733 1_655
Pt1_0 Pt1_6 2.700066 1_455
Pt1_0 Pt1_6 2.700066 1_545
Pt1_0 Pt1_3 2.700066 1_554
Pt1_0 Pt1_5 2.700066 1_554
Pt1_0 Pt1_5 2.700066 1_455
Pt1_0 Pt1_3 2.700066 1_545
Pt1_1 Pt1_7 2.700066 1_455
Pt1_1 Pt1_7 2.700066 1_545
Pt1_1 Pt1_4 2.700066 1_456
Pt1_1 Pt1_4 2.700066 1_555
Pt1_1 Pt1_2 2.700066 1_555
Pt1_1 Pt1_2 2.700066 1_546
Pt1_2 Pt1_4 2.700066 1_555
Pt1_2 Pt1_4 2.700066 1_465
Pt1_2 Pt1_7 2.700066 1_554
Pt1_2 Pt1_7 2.700066 1_455
Pt1_3 Pt1_5 2.700066 1_465
Pt1_3 Pt1_5 2.700066 1_555
Pt1_3 Pt1_6 2.700066 1_456
Pt1_3 Pt1_6 2.700066 1_555
Pt1_4 Pt1_7 2.700066 1_554
Pt1_4 Pt1_7 2.700066 1_545
Pt1_5 Pt1_6 2.700066 1_555
Pt1_5 Pt1_6 2.700066 1_546
