# generated using pymatgen
data_Li3MnCoO5
_symmetry_space_group_name_H-M   'P 1'
_cell_length_a   5.03117200
_cell_length_b   5.12168067
_cell_length_c   7.73778282
_cell_angle_alpha   83.77569719
_cell_angle_beta   71.32247097
_cell_angle_gamma   71.05198099
_symmetry_Int_Tables_number   1
_chemical_formula_structural   Li3MnCoO5
_chemical_formula_sum   'Li6 Mn2 Co2 O10'
_cell_volume   178.64975605
_cell_formula_units_Z   2
loop_
 _symmetry_equiv_pos_site_id
 _symmetry_equiv_pos_as_xyz
  1  'x, y, z'
loop_
 _atom_site_type_symbol
 _atom_site_label
 _atom_site_symmetry_multiplicity
 _atom_site_fract_x
 _atom_site_fract_y
 _atom_site_fract_z
 _atom_site_occupancy
  Li  Li0  1  0.10489200  0.50271000  0.78778400  1
  Li  Li1  1  0.70443700  0.49912300  0.59368200  1
  Li  Li2  1  0.29054200  0.49893400  0.40879100  1
  Li  Li3  1  0.89686000  0.50145400  0.20496600  1
  Li  Li4  1  0.50293300  0.49959800  0.00154700  1
  Li  Li5  1  0.19673300  0.00359800  0.60051600  1
  Mn  Mn0  1  0.00306700  0.99829700  0.99666900  1
  Mn  Mn1  1  0.60226900  0.99898500  0.79604800  1
  Co  Co0  1  0.80419800  0.01001500  0.40677800  1
  Co  Co1  1  0.40274700  0.99074100  0.21424900  1
  O  O0  1  0.75585100  0.77871200  0.98957800  1
  O  O1  1  0.34503000  0.77861800  0.81400700  1
  O  O2  1  0.91425700  0.76600000  0.61137100  1
  O  O3  1  0.55030100  0.76953900  0.38788000  1
  O  O4  1  0.13426200  0.77362000  0.19204100  1
  O  O5  1  0.47196300  0.23250200  0.60934500  1
  O  O6  1  0.04756300  0.23577000  0.39065000  1
  O  O7  1  0.67072000  0.22892000  0.18645900  1
  O  O8  1  0.25943200  0.21285000  0.99461400  1
  O  O9  1  0.84194400  0.22001400  0.81302600  1
loop_
_geom_bond_atom_site_label_1
_geom_bond_atom_site_label_2
_geom_bond_distance
_geom_bond_site_symmetry_2
Li0 O2 2.049667 1_455
Li0 O5 2.086541 1_555
Li0 O0 2.151851 1_455
Li0 O1 2.196744 1_555
Li0 O9 2.213996 1_455
Li0 O8 2.214035 1_555
Li1 O2 2.017816 1_555
Li1 O5 2.039109 1_555
Li1 O6 2.116096 1_655
Li1 O3 2.161170 1_555
Li1 O9 2.233026 1_555
Li1 O1 2.258109 1_555
Li2 O6 2.133493 1_555
Li2 O3 2.155745 1_555
Li2 O5 2.177747 1_555
Li2 O2 2.189677 1_455
Li2 O4 2.241637 1_555
Li2 O7 2.284990 1_555
Li3 O6 2.023517 1_655
Li3 O3 2.052968 1_555
Li3 O4 2.086676 1_655
Li3 O7 2.107694 1_555
Li3 O0 2.210719 1_554
Li3 O8 2.242920 1_654
Li4 O7 2.065236 1_555
Li4 O1 2.080998 1_554
Li4 O9 2.088249 1_554
Li4 O4 2.142364 1_555
Li4 O0 2.179098 1_554
Li4 O8 2.210936 1_554
Li5 O9 2.085455 1_455
Li5 O6 2.096801 1_555
Li5 O5 2.104481 1_555
Li5 O1 2.105156 1_545
Li5 O3 2.115841 1_545
Li5 O2 2.128893 1_445
Mn0 O1 1.937494 1_555
Mn0 O9 1.938018 1_465
Mn0 O8 1.942917 1_565
Mn0 O0 1.944312 1_455
Mn0 O4 1.952907 1_556
Mn0 O7 1.966849 1_466
Mn1 O2 1.909582 1_555
Mn1 O5 1.915730 1_565
Mn1 O1 1.941022 1_555
Mn1 O9 1.942434 1_565
Mn1 O0 1.980141 1_555
Mn1 O8 1.994051 1_565
Co0 O6 1.908377 1_655
Co0 O5 2.005386 1_555
Co0 O2 2.014381 1_545
Co0 O4 2.085106 1_645
Co0 O3 2.085784 1_545
Co0 O7 2.108103 1_555
Co1 O3 1.844515 1_555
Co1 O6 1.996039 1_565
Co1 O7 2.043904 1_565
Co1 O4 2.063101 1_555
Co1 O8 2.129597 1_564
Co1 O0 2.129783 1_554
