# generated using pymatgen
data_TePb2Se
_symmetry_space_group_name_H-M   'P 1'
_cell_length_a   7.78041032
_cell_length_b   7.78041032
_cell_length_c   7.78040921
_cell_angle_alpha   33.57405273
_cell_angle_beta   33.57405273
_cell_angle_gamma   33.57404654
_symmetry_Int_Tables_number   1
_chemical_formula_structural   TePb2Se
_chemical_formula_sum   'Te1 Pb2 Se1'
_cell_volume   128.30246341
_cell_formula_units_Z   1
loop_
 _symmetry_equiv_pos_site_id
 _symmetry_equiv_pos_as_xyz
  1  'x, y, z'
loop_
 _atom_site_type_symbol
 _atom_site_label
 _atom_site_symmetry_multiplicity
 _atom_site_fract_x
 _atom_site_fract_y
 _atom_site_fract_z
 _atom_site_occupancy
  Te  Te0  1  0.50000000  0.50000000  0.50000000  1
  Pb  Pb0  1  0.25530263  0.25530263  0.25530263  1
  Pb  Pb1  1  0.74469737  0.74469737  0.74469737  1
  Se  Se0  1  0.00000000  -0.00000000  0.00000000  1
loop_
_geom_bond_atom_site_label_1
_geom_bond_atom_site_label_2
_geom_bond_distance
_geom_bond_site_symmetry_2
Pb0 Se0 3.111417 1_556
Pb0 Se0 3.111417 1_565
Pb0 Se0 3.111417 1_655
Pb0 Te0 3.246043 1_554
Pb0 Te0 3.246043 1_545
Pb0 Te0 3.246043 1_455
Pb1 Se0 3.111417 1_665
Pb1 Se0 3.111417 1_656
Pb1 Se0 3.111417 1_566
Pb1 Te0 3.246043 1_556
Pb1 Te0 3.246043 1_655
Pb1 Te0 3.246043 1_565
