# generated using pymatgen
data_CaSiNi2
_symmetry_space_group_name_H-M   'P 1'
_cell_length_a   3.95055584
_cell_length_b   3.95055643
_cell_length_c   9.90838653
_cell_angle_alpha   90.00000000
_cell_angle_beta   90.00000000
_cell_angle_gamma   120.00001181
_symmetry_Int_Tables_number   1
_chemical_formula_structural   CaSiNi2
_chemical_formula_sum   'Ca2 Si2 Ni4'
_cell_volume   133.92140430
_cell_formula_units_Z   2
loop_
 _symmetry_equiv_pos_site_id
 _symmetry_equiv_pos_as_xyz
  1  'x, y, z'
loop_
 _atom_site_type_symbol
 _atom_site_label
 _atom_site_symmetry_multiplicity
 _atom_site_fract_x
 _atom_site_fract_y
 _atom_site_fract_z
 _atom_site_occupancy
  Ca  Ca0  1  0.66666700  0.33333300  0.75000000  1
  Ca  Ca1  1  0.33333300  0.66666700  0.25000000  1
  Si  Si0  1  0.00000000  0.00000000  0.50000000  1
  Si  Si1  1  0.00000000  0.00000000  0.00000000  1
  Ni  Ni0  1  0.66666700  0.33333300  0.46059257  1
  Ni  Ni1  1  0.33333300  0.66666700  0.53940743  1
  Ni  Ni2  1  0.33333300  0.66666700  0.96059257  1
  Ni  Ni3  1  0.66666700  0.33333300  0.03940743  1
loop_
_geom_bond_atom_site_label_1
_geom_bond_atom_site_label_2
_geom_bond_distance
_geom_bond_site_symmetry_2
Ca0 Ni3 2.867561 1_556
Ca0 Ni0 2.867561 1_555
Ca0 Ni1 3.091330 1_655
Ca0 Ni2 3.091330 1_655
Ca0 Ni1 3.091330 1_545
Ca0 Ni2 3.091330 1_545
Ca0 Ni1 3.091335 1_555
Ca0 Ni2 3.091335 1_555
Ca0 Si0 3.367239 1_655
Ca0 Si1 3.367239 1_656
Ca0 Si0 3.367241 1_555
Ca0 Si1 3.367241 1_556
Ca0 Si0 3.367241 1_665
Ca0 Si1 3.367241 1_666
Ca1 Ni2 2.867561 1_554
Ca1 Ni1 2.867561 1_555
Ca1 Ni0 3.091330 1_455
Ca1 Ni3 3.091330 1_455
Ca1 Ni0 3.091330 1_565
Ca1 Ni3 3.091330 1_565
Ca1 Ni3 3.091335 1_555
Ca1 Ni0 3.091335 1_555
Ca1 Si1 3.367239 1_565
Ca1 Si0 3.367239 1_565
Ca1 Si1 3.367241 1_665
Ca1 Si0 3.367241 1_665
Ca1 Si0 3.367241 1_555
Ca1 Si1 3.367241 1_555
Ni0 Si0 2.314033 1_655
Ni0 Si0 2.314036 1_555
Ni0 Si0 2.314036 1_665
Ni0 Ni1 2.410837 1_655
Ni0 Ni1 2.410837 1_545
Ni0 Ni1 2.410844 1_555
Ni1 Si0 2.314033 1_565
Ni1 Si0 2.314036 1_665
Ni1 Si0 2.314036 1_555
Ni2 Si1 2.314033 1_566
Ni2 Si1 2.314036 1_666
Ni2 Si1 2.314036 1_556
Ni2 Ni3 2.410837 1_456
Ni2 Ni3 2.410837 1_566
Ni2 Ni3 2.410844 1_556
Ni3 Si1 2.314033 1_655
Ni3 Si1 2.314036 1_555
Ni3 Si1 2.314036 1_665
