# generated using pymatgen
data_Lu2(Ga3Rh)3
_symmetry_space_group_name_H-M   'P 1'
_cell_length_a   7.42939572
_cell_length_b   7.42939572
_cell_length_c   9.40708423
_cell_angle_alpha   90.00000000
_cell_angle_beta   90.00000000
_cell_angle_gamma   119.77076219
_symmetry_Int_Tables_number   1
_chemical_formula_structural   Lu2(Ga3Rh)3
_chemical_formula_sum   'Lu4 Ga18 Rh6'
_cell_volume   450.70379900
_cell_formula_units_Z   2
loop_
 _symmetry_equiv_pos_site_id
 _symmetry_equiv_pos_as_xyz
  1  'x, y, z'
loop_
 _atom_site_type_symbol
 _atom_site_label
 _atom_site_symmetry_multiplicity
 _atom_site_fract_x
 _atom_site_fract_y
 _atom_site_fract_z
 _atom_site_occupancy
  Lu  Lu0  1  0.99808303  0.66990513  0.25000000  1
  Lu  Lu1  1  0.00191697  0.33009487  0.75000000  1
  Lu  Lu2  1  0.66990513  0.99808303  0.25000000  1
  Lu  Lu3  1  0.33009487  0.00191697  0.75000000  1
  Ga  Ga0  1  0.33743405  0.54714696  0.25000000  1
  Ga  Ga1  1  0.66256595  0.45285304  0.75000000  1
  Ga  Ga2  1  0.54714696  0.33743405  0.25000000  1
  Ga  Ga3  1  0.45285304  0.66256595  0.75000000  1
  Ga  Ga4  1  0.00063139  0.33470727  0.07947805  1
  Ga  Ga5  1  0.99936861  0.66529273  0.92052195  1
  Ga  Ga6  1  0.99936861  0.66529273  0.57947805  1
  Ga  Ga7  1  0.33470727  0.00063139  0.42052195  1
  Ga  Ga8  1  0.00063139  0.33470727  0.42052195  1
  Ga  Ga9  1  0.66529273  0.99936861  0.57947805  1
  Ga  Ga10  1  0.66529273  0.99936861  0.92052195  1
  Ga  Ga11  1  0.33470727  0.00063139  0.07947805  1
  Ga  Ga12  1  0.33328843  0.33328843  0.56897739  1
  Ga  Ga13  1  0.66671157  0.66671157  0.43102261  1
  Ga  Ga14  1  0.66671157  0.66671157  0.06897739  1
  Ga  Ga15  1  0.33328843  0.33328843  0.93102261  1
  Ga  Ga16  1  0.12742600  0.12742600  0.25000000  1
  Ga  Ga17  1  0.87257400  0.87257400  0.75000000  1
  Rh  Rh0  1  0.67169550  0.32830450  -0.00000000  1
  Rh  Rh1  1  0.32830450  0.67169550  -0.00000000  1
  Rh  Rh2  1  0.32830450  0.67169550  0.50000000  1
  Rh  Rh3  1  0.67169550  0.32830450  0.50000000  1
  Rh  Rh4  1  -0.00000000  -0.00000000  -0.00000000  1
  Rh  Rh5  1  -0.00000000  -0.00000000  0.50000000  1
loop_
_geom_bond_atom_site_label_1
_geom_bond_atom_site_label_2
_geom_bond_distance
_geom_bond_site_symmetry_2
Ga0 Rh1 2.540467 1_555
Ga0 Rh2 2.540467 1_555
Ga0 Ga2 2.695483 1_555
Ga0 Ga16 2.706746 1_555
Ga0 Ga4 2.720943 1_555
Ga0 Ga8 2.720943 1_555
Ga0 Ga14 2.741437 1_555
Ga0 Ga13 2.741437 1_555
Ga0 Lu2 3.017810 1_555
Ga0 Lu0 3.077580 1_455
Ga1 Rh0 2.540467 1_556
Ga1 Rh3 2.540467 1_555
Ga1 Ga3 2.695483 1_555
Ga1 Ga17 2.706746 1_555
Ga1 Ga5 2.720943 1_555
Ga1 Ga6 2.720943 1_555
Ga1 Ga15 2.741437 1_555
Ga1 Ga12 2.741437 1_555
Ga1 Lu3 3.017810 1_555
Ga1 Lu1 3.077580 1_655
Ga2 Rh3 2.540467 1_555
Ga2 Rh0 2.540467 1_555
Ga2 Ga7 2.720943 1_555
Ga2 Lu0 3.017810 1_555
Ga2 Lu2 3.077580 1_545
Ga3 Rh1 2.540467 1_556
Ga3 Rh2 2.540467 1_555
Ga3 Ga9 2.720943 1_555
Ga3 Lu1 3.017810 1_555
Ga3 Lu3 3.077580 1_565
Ga4 Rh0 2.533366 1_455
Ga4 Rh1 2.588611 1_555
Ga4 Rh4 2.594411 1_555
Ga4 Ga5 2.879430 1_454
Ga4 Lu2 2.960190 1_445
Ga4 Lu0 2.970193 1_455
Ga4 Lu1 3.099684 1_554
Ga5 Rh1 2.533366 1_656
Ga5 Rh0 2.588611 1_556
Ga5 Rh4 2.594411 1_666
Ga5 Lu3 2.960190 1_665
Ga5 Lu1 2.970193 1_655
Ga5 Lu0 3.099684 1_556
Ga6 Rh2 2.533366 1_655
Ga6 Rh3 2.588611 1_555
Ga6 Rh5 2.594411 1_665
Ga6 Ga8 2.879430 1_655
Ga6 Ga7 2.913060 1_665
Ga6 Lu3 2.960190 1_665
Ga6 Lu1 2.970193 1_655
Ga6 Lu0 3.099684 1_555
Ga7 Rh2 2.533366 1_545
Ga7 Rh3 2.588611 1_555
Ga7 Rh5 2.594411 1_555
Ga7 Ga9 2.879430 1_545
Ga7 Lu0 2.960190 1_445
Ga7 Lu2 2.970193 1_545
Ga7 Lu3 3.099684 1_555
Ga8 Rh3 2.533366 1_455
Ga8 Rh2 2.588611 1_555
Ga8 Rh5 2.594411 1_555
Ga8 Ga9 2.913060 1_445
Ga8 Lu2 2.960190 1_445
Ga8 Lu0 2.970193 1_455
Ga8 Lu1 3.099684 1_555
Ga9 Rh3 2.533366 1_565
Ga9 Rh2 2.588611 1_555
Ga9 Rh5 2.594411 1_665
Ga9 Lu1 2.960190 1_665
Ga9 Lu3 2.970193 1_565
Ga9 Lu2 3.099684 1_555
Ga10 Rh0 2.533366 1_566
Ga10 Rh1 2.588611 1_556
Ga10 Rh4 2.594411 1_666
Ga10 Ga17 2.696792 1_555
Ga10 Ga3 2.720943 1_555
Ga10 Ga14 2.843291 1_556
Ga10 Ga11 2.879430 1_566
Ga10 Ga4 2.913060 1_666
Ga10 Lu1 2.960190 1_665
Ga10 Lu3 2.970193 1_565
Ga10 Lu2 3.099684 1_556
Ga11 Rh1 2.533366 1_545
Ga11 Rh0 2.588611 1_555
Ga11 Rh4 2.594411 1_555
Ga11 Ga16 2.696792 1_555
Ga11 Ga2 2.720943 1_555
Ga11 Ga15 2.843291 1_554
Ga11 Ga5 2.913060 1_444
Ga11 Lu0 2.960190 1_445
Ga11 Lu2 2.970193 1_545
Ga11 Lu3 3.099684 1_554
Ga12 Rh5 2.568035 1_555
Ga12 Rh2 2.614548 1_555
Ga12 Rh3 2.614548 1_555
Ga12 Ga3 2.741437 1_555
Ga12 Ga13 2.804089 1_555
Ga12 Ga7 2.843291 1_555
Ga12 Ga8 2.843291 1_555
Ga12 Lu1 2.983841 1_555
Ga12 Lu3 2.983841 1_555
Ga13 Rh5 2.568035 1_665
Ga13 Rh3 2.614548 1_555
Ga13 Rh2 2.614548 1_555
Ga13 Ga2 2.741437 1_555
Ga13 Ga6 2.843291 1_555
Ga13 Ga9 2.843291 1_555
Ga13 Lu0 2.983841 1_555
Ga13 Lu2 2.983841 1_555
Ga14 Rh4 2.568035 1_665
Ga14 Rh1 2.614548 1_555
Ga14 Rh0 2.614548 1_555
Ga14 Ga2 2.741437 1_555
Ga14 Ga15 2.804089 1_554
Ga14 Ga5 2.843291 1_554
Ga14 Lu0 2.983841 1_555
Ga14 Lu2 2.983841 1_555
Ga15 Rh4 2.568035 1_556
Ga15 Rh0 2.614548 1_556
Ga15 Rh1 2.614548 1_556
Ga15 Ga3 2.741437 1_555
Ga15 Ga4 2.843291 1_556
Ga15 Lu1 2.983841 1_555
Ga15 Lu3 2.983841 1_555
Ga16 Rh4 2.536392 1_555
Ga16 Rh5 2.536392 1_555
Ga16 Ga4 2.696792 1_555
Ga16 Ga7 2.696792 1_555
Ga16 Ga8 2.696792 1_555
Ga16 Ga2 2.706746 1_555
Ga16 Lu0 3.038690 1_445
Ga16 Lu2 3.038690 1_445
Ga17 Rh5 2.536392 1_665
Ga17 Rh4 2.536392 1_666
Ga17 Ga6 2.696792 1_555
Ga17 Ga9 2.696792 1_555
Ga17 Ga5 2.696792 1_555
Ga17 Ga3 2.706746 1_555
Ga17 Lu1 3.038690 1_665
Ga17 Lu3 3.038690 1_665
