# generated using pymatgen
data_SmMg149
_symmetry_space_group_name_H-M   'P 1'
_cell_length_a   16.01104135
_cell_length_b   16.01104674
_cell_length_c   15.64395009
_cell_angle_alpha   90.00000000
_cell_angle_beta   90.00000000
_cell_angle_gamma   120.00001546
_symmetry_Int_Tables_number   1
_chemical_formula_structural   SmMg149
_chemical_formula_sum   'Sm1 Mg149'
_cell_volume   3473.09202059
_cell_formula_units_Z   1
loop_
 _symmetry_equiv_pos_site_id
 _symmetry_equiv_pos_as_xyz
  1  'x, y, z'
loop_
 _atom_site_type_symbol
 _atom_site_label
 _atom_site_symmetry_multiplicity
 _atom_site_fract_x
 _atom_site_fract_y
 _atom_site_fract_z
 _atom_site_occupancy
  Sm  Sm0  1  -0.00000000  -0.00000000  -0.00000000  1
  Mg  Mg0  1  0.60008737  0.20017573  -0.00000000  1
  Mg  Mg1  1  0.40143587  0.20071743  -0.00000000  1
  Mg  Mg2  1  0.79928257  0.20071843  -0.00000000  1
  Mg  Mg3  1  0.00319926  0.20587144  -0.00000000  1
  Mg  Mg4  1  0.20267218  0.20587244  -0.00000000  1
  Mg  Mg5  1  0.60008737  0.39991163  -0.00000000  1
  Mg  Mg6  1  0.79982427  0.39991263  -0.00000000  1
  Mg  Mg7  1  0.00018658  0.40040389  -0.00000000  1
  Mg  Mg8  1  0.40021731  0.40040389  -0.00000000  1
  Mg  Mg9  1  0.20172348  0.40344696  -0.00000000  1
  Mg  Mg10  1  0.79928257  0.59856413  -0.00000000  1
  Mg  Mg11  1  0.00018658  0.59978269  -0.00000000  1
  Mg  Mg12  1  0.59959711  0.59978369  -0.00000000  1
  Mg  Mg13  1  0.39969497  0.60030503  -0.00000000  1
  Mg  Mg14  1  0.20061007  0.60030503  -0.00000000  1
  Mg  Mg15  1  0.00319926  0.79732682  -0.00000000  1
  Mg  Mg16  1  0.79412756  0.79732682  -0.00000000  1
  Mg  Mg17  1  0.20172348  0.79827652  -0.00000000  1
  Mg  Mg18  1  0.59655304  0.79827652  -0.00000000  1
  Mg  Mg19  1  0.39969497  0.79938993  -0.00000000  1
  Mg  Mg20  1  0.79412756  0.99680074  -0.00000000  1
  Mg  Mg21  1  0.20267218  0.99680074  -0.00000000  1
  Mg  Mg22  1  0.40021731  0.99981342  -0.00000000  1
  Mg  Mg23  1  0.59959711  0.99981342  -0.00000000  1
  Mg  Mg24  1  0.86823728  0.13176272  0.16444975  1
  Mg  Mg25  1  0.26352544  0.13176272  0.16444975  1
  Mg  Mg26  1  0.86823728  0.73647456  0.16444975  1
  Mg  Mg27  1  0.66666600  0.33333300  0.16605087  1
  Mg  Mg28  1  0.66742949  0.13297022  0.16650195  1
  Mg  Mg29  1  0.46554173  0.13297022  0.16650195  1
  Mg  Mg30  1  0.86702978  0.33257051  0.16650195  1
  Mg  Mg31  1  0.46554173  0.33257151  0.16650195  1
  Mg  Mg32  1  0.86702978  0.53445927  0.16650195  1
  Mg  Mg33  1  0.66742949  0.53445927  0.16650195  1
  Mg  Mg34  1  0.46662840  0.53337160  0.16730449  1
  Mg  Mg35  1  0.06674319  0.53337160  0.16730449  1
  Mg  Mg36  1  0.46662840  0.93325681  0.16730449  1
  Mg  Mg37  1  0.26716927  0.53433855  0.16734627  1
  Mg  Mg38  1  0.26716927  0.73283073  0.16734627  1
  Mg  Mg39  1  0.46566045  0.73283073  0.16734627  1
  Mg  Mg40  1  0.26774360  0.33585864  0.16777611  1
  Mg  Mg41  1  0.06811404  0.33585864  0.16777611  1
  Mg  Mg42  1  0.66414136  0.73225640  0.16777611  1
  Mg  Mg43  1  0.06811404  0.73225640  0.16777611  1
  Mg  Mg44  1  0.66414136  0.93188496  0.16777611  1
  Mg  Mg45  1  0.26774360  0.93188496  0.16777611  1
  Mg  Mg46  1  0.06825740  0.13651380  0.17036078  1
  Mg  Mg47  1  0.86348620  0.93174360  0.17036078  1
  Mg  Mg48  1  0.06825740  0.93174360  0.17036078  1
  Mg  Mg49  1  0.39964176  0.19982088  0.33276017  1
  Mg  Mg50  1  0.80017912  0.19982188  0.33276017  1
  Mg  Mg51  1  0.80017912  0.60035724  0.33276017  1
  Mg  Mg52  1  0.59997942  0.19995884  0.33273813  1
  Mg  Mg53  1  0.59997942  0.40002058  0.33273813  1
  Mg  Mg54  1  0.80004216  0.40002058  0.33273813  1
  Mg  Mg55  1  0.79935495  0.00007084  0.33359272  1
  Mg  Mg56  1  0.20071589  0.00007084  0.33359272  1
  Mg  Mg57  1  0.20071589  0.20064505  0.33359272  1
  Mg  Mg58  1  0.99992916  0.20064505  0.33359272  1
  Mg  Mg59  1  0.99992916  0.79928411  0.33359272  1
  Mg  Mg60  1  0.79935495  0.79928411  0.33359272  1
  Mg  Mg61  1  0.59970049  0.00017448  0.33375353  1
  Mg  Mg62  1  0.40047400  0.00017448  0.33375353  1
  Mg  Mg63  1  0.99982552  0.40029951  0.33375353  1
  Mg  Mg64  1  0.40047400  0.40029951  0.33375353  1
  Mg  Mg65  1  0.59970049  0.59952600  0.33375353  1
  Mg  Mg66  1  0.99982552  0.59952600  0.33375353  1
  Mg  Mg67  1  0.40007445  0.59992555  0.33369356  1
  Mg  Mg68  1  0.19985110  0.59992555  0.33369356  1
  Mg  Mg69  1  0.40007445  0.80014890  0.33369356  1
  Mg  Mg70  1  0.20020543  0.40040987  0.33415885  1
  Mg  Mg71  1  0.20020543  0.79979557  0.33415885  1
  Mg  Mg72  1  0.59959013  0.79979557  0.33415885  1
  Mg  Mg73  1  -0.00000000  -0.00000000  0.33467443  1
  Mg  Mg74  1  0.86641989  0.13357911  0.50000000  1
  Mg  Mg75  1  0.26715921  0.13358011  0.50000000  1
  Mg  Mg76  1  0.06678835  0.13357771  0.50000000  1
  Mg  Mg77  1  0.46704356  0.13422267  0.50000000  1
  Mg  Mg78  1  0.66717911  0.13422267  0.50000000  1
  Mg  Mg79  1  0.86577833  0.33282189  0.50000000  1
  Mg  Mg80  1  0.46704356  0.33282189  0.50000000  1
  Mg  Mg81  1  0.66666600  0.33333300  0.50000000  1
  Mg  Mg82  1  0.26673711  0.33358978  0.50000000  1
  Mg  Mg83  1  0.06685268  0.33358978  0.50000000  1
  Mg  Mg84  1  0.86577833  0.53295644  0.50000000  1
  Mg  Mg85  1  0.66717911  0.53295644  0.50000000  1
  Mg  Mg86  1  0.46699945  0.53299955  0.50000000  1
  Mg  Mg87  1  0.06600010  0.53300055  0.50000000  1
  Mg  Mg88  1  0.26676860  0.53353821  0.50000000  1
  Mg  Mg89  1  0.86641989  0.73284079  0.50000000  1
  Mg  Mg90  1  0.06685268  0.73326289  0.50000000  1
  Mg  Mg91  1  0.66641022  0.73326289  0.50000000  1
  Mg  Mg92  1  0.26676860  0.73323140  0.50000000  1
  Mg  Mg93  1  0.46646279  0.73323140  0.50000000  1
  Mg  Mg94  1  0.06678835  0.93321165  0.50000000  1
  Mg  Mg95  1  0.86642229  0.93321165  0.50000000  1
  Mg  Mg96  1  0.26673711  0.93314832  0.50000000  1
  Mg  Mg97  1  0.66641022  0.93314832  0.50000000  1
  Mg  Mg98  1  0.46699945  0.93399990  0.50000000  1
  Mg  Mg99  1  -0.00000000  -0.00000000  0.66532557  1
  Mg  Mg100  1  0.20020543  0.40040987  0.66584115  1
  Mg  Mg101  1  0.20020543  0.79979557  0.66584115  1
  Mg  Mg102  1  0.59959013  0.79979557  0.66584115  1
  Mg  Mg103  1  0.40007445  0.59992555  0.66630644  1
  Mg  Mg104  1  0.19985110  0.59992555  0.66630644  1
  Mg  Mg105  1  0.40007445  0.80014890  0.66630644  1
  Mg  Mg106  1  0.59970049  0.00017448  0.66624647  1
  Mg  Mg107  1  0.40047400  0.00017448  0.66624647  1
  Mg  Mg108  1  0.99982552  0.40029951  0.66624647  1
  Mg  Mg109  1  0.40047400  0.40029951  0.66624647  1
  Mg  Mg110  1  0.59970049  0.59952600  0.66624647  1
  Mg  Mg111  1  0.99982552  0.59952600  0.66624647  1
  Mg  Mg112  1  0.79935495  0.00007084  0.66640728  1
  Mg  Mg113  1  0.20071589  0.00007084  0.66640728  1
  Mg  Mg114  1  0.20071589  0.20064505  0.66640728  1
  Mg  Mg115  1  0.99992916  0.20064505  0.66640728  1
  Mg  Mg116  1  0.99992916  0.79928411  0.66640728  1
  Mg  Mg117  1  0.79935495  0.79928411  0.66640728  1
  Mg  Mg118  1  0.59997942  0.19995884  0.66726187  1
  Mg  Mg119  1  0.59997942  0.40002058  0.66726187  1
  Mg  Mg120  1  0.80004216  0.40002058  0.66726187  1
  Mg  Mg121  1  0.39964176  0.19982088  0.66723983  1
  Mg  Mg122  1  0.80017912  0.19982188  0.66723983  1
  Mg  Mg123  1  0.80017912  0.60035724  0.66723983  1
  Mg  Mg124  1  0.06825740  0.13651380  0.82963922  1
  Mg  Mg125  1  0.86348620  0.93174360  0.82963922  1
  Mg  Mg126  1  0.06825740  0.93174360  0.82963922  1
  Mg  Mg127  1  0.26774360  0.33585864  0.83222389  1
  Mg  Mg128  1  0.06811404  0.33585864  0.83222389  1
  Mg  Mg129  1  0.66414136  0.73225640  0.83222389  1
  Mg  Mg130  1  0.06811404  0.73225640  0.83222389  1
  Mg  Mg131  1  0.66414136  0.93188496  0.83222389  1
  Mg  Mg132  1  0.26774360  0.93188496  0.83222389  1
  Mg  Mg133  1  0.26716927  0.53433855  0.83265373  1
  Mg  Mg134  1  0.26716927  0.73283073  0.83265373  1
  Mg  Mg135  1  0.46566045  0.73283073  0.83265373  1
  Mg  Mg136  1  0.46662840  0.53337160  0.83269551  1
  Mg  Mg137  1  0.06674319  0.53337160  0.83269551  1
  Mg  Mg138  1  0.46662840  0.93325681  0.83269551  1
  Mg  Mg139  1  0.66742949  0.13297022  0.83349805  1
  Mg  Mg140  1  0.46554173  0.13297022  0.83349805  1
  Mg  Mg141  1  0.86702978  0.33257051  0.83349805  1
  Mg  Mg142  1  0.46554173  0.33257151  0.83349805  1
  Mg  Mg143  1  0.86702978  0.53445927  0.83349805  1
  Mg  Mg144  1  0.66742949  0.53445927  0.83349805  1
  Mg  Mg145  1  0.66666600  0.33333300  0.83394913  1
  Mg  Mg146  1  0.86823728  0.13176272  0.83555025  1
  Mg  Mg147  1  0.26352544  0.13176272  0.83555025  1
  Mg  Mg148  1  0.86823728  0.73647456  0.83555025  1
loop_
_geom_bond_atom_site_label_1
_geom_bond_atom_site_label_2
_geom_bond_distance
_geom_bond_site_symmetry_2
Mg0 Mg1 3.184963 1_555
Mg0 Mg2 3.184987 1_555
Mg0 Mg145 3.187009 1_554
Mg0 Mg27 3.187009 1_555
Mg0 Mg5 3.197981 1_555
Mg0 Mg6 3.197996 1_555
Mg0 Mg29 3.203935 1_555
Mg0 Mg140 3.203935 1_554
Mg0 Mg28 3.203951 1_555
Mg0 Mg139 3.203951 1_554
Mg0 Mg22 3.204076 1_545
Mg0 Mg23 3.204093 1_545
Mg1 Mg140 3.182474 1_554
Mg1 Mg29 3.182474 1_555
Mg1 Mg142 3.182482 1_554
Mg1 Mg31 3.182482 1_555
Mg1 Mg5 3.184971 1_555
Mg1 Mg147 3.205501 1_554
Mg1 Mg25 3.205501 1_555
Mg1 Mg22 3.206973 1_545
Mg1 Mg8 3.206989 1_555
Mg1 Mg21 3.224458 1_545
Mg1 Mg4 3.224475 1_555
Mg2 Mg30 3.182466 1_555
Mg2 Mg28 3.182473 1_555
Mg2 Mg6 3.184980 1_555
Mg2 Mg24 3.205502 1_555
Mg2 Mg7 3.206972 1_655
Mg2 Mg23 3.206980 1_545
Mg2 Mg3 3.224458 1_655
Mg2 Mg20 3.224459 1_545
Mg3 Mg7 3.139064 1_555
Mg3 Mg9 3.171012 1_555
Mg3 Mg41 3.183959 1_555
Mg3 Mg4 3.193761 1_555
Mg3 Mg46 3.252352 1_555
Mg3 Sm0 3.270906 1_555
Mg4 Mg8 3.139055 1_555
Mg4 Mg9 3.170997 1_555
Mg4 Mg40 3.183951 1_555
Mg4 Mg46 3.252344 1_555
Mg4 Sm0 3.270913 1_555
Mg5 Mg6 3.197988 1_555
Mg5 Mg8 3.204076 1_555
Mg6 Mg7 3.204084 1_655
Mg7 Mg9 3.202732 1_555
Mg8 Mg9 3.202732 1_555
Mg10 Mg143 3.182466 1_554
Mg10 Mg32 3.182466 1_555
Mg10 Mg144 3.182473 1_554
Mg10 Mg33 3.182473 1_555
Mg10 Mg6 3.184964 1_555
Mg10 Mg5 3.184987 1_555
Mg10 Mg148 3.205502 1_554
Mg10 Mg26 3.205502 1_555
Mg10 Mg11 3.206972 1_655
Mg10 Mg12 3.206980 1_555
Mg10 Mg15 3.224450 1_655
Mg10 Mg16 3.224460 1_555
Mg11 Mg15 3.139048 1_555
Mg11 Mg7 3.192263 1_555
Mg11 Mg143 3.192823 1_454
Mg11 Mg32 3.192823 1_455
Mg11 Mg35 3.201500 1_555
Mg11 Mg137 3.201500 1_554
Mg11 Mg17 3.202732 1_555
Mg11 Mg43 3.203716 1_555
Mg11 Mg130 3.203716 1_554
Mg11 Mg6 3.204076 1_455
Mg11 Mg14 3.204815 1_555
Mg12 Mg16 3.139031 1_555
Mg12 Mg8 3.192278 1_555
Mg12 Mg144 3.192823 1_554
Mg12 Mg33 3.192823 1_555
Mg12 Mg34 3.201508 1_555
Mg12 Mg136 3.201508 1_554
Mg12 Mg18 3.202726 1_555
Mg12 Mg42 3.203709 1_555
Mg12 Mg129 3.203709 1_554
Mg12 Mg5 3.204093 1_555
Mg12 Mg13 3.204823 1_555
Mg13 Mg9 3.160854 1_555
Mg13 Mg18 3.160854 1_555
Mg13 Mg14 3.187557 1_555
Mg13 Mg19 3.187558 1_555
Mg13 Mg37 3.198512 1_555
Mg13 Mg133 3.198512 1_554
Mg13 Mg39 3.198513 1_555
Mg13 Mg135 3.198513 1_554
Mg13 Mg8 3.204816 1_555
Mg13 Mg34 3.208696 1_555
Mg13 Mg136 3.208696 1_554
Mg14 Mg9 3.160855 1_555
Mg14 Mg17 3.160855 1_555
Mg14 Mg19 3.187556 1_555
Mg14 Mg37 3.198513 1_555
Mg14 Mg38 3.198513 1_555
Mg14 Mg7 3.204815 1_555
Mg14 Mg35 3.208696 1_555
Mg15 Mg17 3.171004 1_555
Mg15 Mg26 3.183051 1_455
Mg15 Mg43 3.183943 1_555
Mg15 Mg21 3.193777 1_555
Mg15 Mg48 3.252360 1_555
Mg15 Sm0 3.270922 1_565
Mg15 Mg16 3.347456 1_455
Mg16 Mg18 3.171004 1_555
Mg16 Mg26 3.183052 1_555
Mg16 Mg42 3.183951 1_555
Mg16 Mg20 3.193786 1_555
Mg16 Mg47 3.252360 1_555
Mg16 Sm0 3.270921 1_665
Mg17 Mg19 3.160854 1_555
Mg17 Mg21 3.171013 1_555
Mg17 Mg38 3.185546 1_555
Mg17 Mg22 3.202732 1_555
Mg17 Mg45 3.212674 1_555
Mg17 Mg43 3.212682 1_555
Mg18 Mg19 3.160854 1_555
Mg18 Mg20 3.171004 1_555
Mg18 Mg39 3.185553 1_555
Mg18 Mg23 3.202725 1_555
Mg18 Mg44 3.212674 1_555
Mg18 Mg42 3.212674 1_555
Mg19 Mg39 3.198505 1_555
Mg19 Mg38 3.198512 1_555
Mg19 Mg22 3.204816 1_555
Mg19 Mg23 3.204823 1_555
Mg19 Mg36 3.208696 1_555
Mg20 Mg23 3.139031 1_555
Mg20 Mg24 3.183052 1_565
Mg20 Mg44 3.183951 1_555
Mg20 Mg47 3.252353 1_555
Mg20 Sm0 3.270921 1_665
Mg20 Mg3 3.347447 1_665
Mg21 Mg22 3.139063 1_555
Mg21 Mg25 3.183051 1_565
Mg21 Mg45 3.183959 1_555
Mg21 Mg48 3.252344 1_555
Mg21 Sm0 3.270905 1_565
Mg21 Mg4 3.347457 1_565
Mg22 Mg23 3.192278 1_555
Mg22 Mg29 3.192823 1_565
Mg22 Mg36 3.201500 1_555
Mg22 Mg45 3.203716 1_555
Mg23 Mg28 3.192823 1_565
Mg23 Mg36 3.201508 1_555
Mg23 Mg44 3.203709 1_555
Mg24 Mg47 3.166517 1_545
Mg24 Mg46 3.166532 1_655
Mg24 Mg3 3.183051 1_655
Mg24 Mg58 3.215342 1_555
Mg24 Mg55 3.215342 1_555
Mg24 Mg28 3.225012 1_555
Mg24 Mg30 3.225013 1_555
Mg24 Mg41 3.234959 1_655
Mg24 Mg44 3.234967 1_545
Mg24 Mg50 3.239626 1_555
Mg25 Mg48 3.166516 1_545
Mg25 Mg46 3.166516 1_555
Mg25 Mg4 3.183060 1_555
Mg25 Mg56 3.215342 1_555
Mg25 Mg57 3.215342 1_555
Mg25 Mg31 3.225028 1_555
Mg25 Mg29 3.225028 1_555
Mg25 Mg40 3.234968 1_555
Mg25 Mg45 3.234968 1_545
Mg25 Mg49 3.239617 1_555
Mg26 Mg48 3.166531 1_655
Mg26 Mg47 3.166533 1_555
Mg26 Mg59 3.215342 1_555
Mg26 Mg60 3.215342 1_555
Mg26 Mg33 3.225012 1_555
Mg26 Mg32 3.225013 1_555
Mg26 Mg43 3.234951 1_655
Mg26 Mg42 3.234967 1_555
Mg26 Mg51 3.239625 1_555
Mg27 Mg5 3.187009 1_555
Mg27 Mg6 3.187017 1_555
Mg27 Mg52 3.196868 1_555
Mg27 Mg53 3.196868 1_555
Mg27 Mg54 3.196884 1_555
Mg27 Mg29 3.214138 1_555
Mg27 Mg31 3.214138 1_555
Mg27 Mg33 3.214155 1_555
Mg27 Mg28 3.214155 1_555
Mg27 Mg32 3.214162 1_555
Mg27 Mg30 3.214162 1_555
Mg28 Mg50 3.186394 1_555
Mg28 Mg44 3.193650 1_545
Mg28 Mg30 3.195808 1_555
Mg28 Mg61 3.199521 1_555
Mg28 Mg52 3.199694 1_555
Mg28 Mg36 3.206387 1_545
Mg28 Mg29 3.232433 1_555
Mg29 Mg49 3.186402 1_555
Mg29 Mg45 3.193657 1_545
Mg29 Mg31 3.195826 1_555
Mg29 Mg62 3.199521 1_555
Mg29 Mg52 3.199685 1_555
Mg29 Mg36 3.206380 1_545
Mg30 Mg50 3.186386 1_555
Mg30 Mg7 3.192823 1_655
Mg30 Mg41 3.193633 1_655
Mg30 Mg63 3.199521 1_555
Mg30 Mg54 3.199686 1_555
Mg30 Mg6 3.203951 1_555
Mg30 Mg35 3.206387 1_655
Mg30 Mg32 3.232450 1_555
Mg31 Mg49 3.186402 1_555
Mg31 Mg8 3.192823 1_555
Mg31 Mg40 3.193657 1_555
Mg31 Mg64 3.199521 1_555
Mg31 Mg53 3.199685 1_555
Mg31 Mg5 3.203935 1_555
Mg31 Mg34 3.206380 1_555
Mg31 Mg33 3.232433 1_555
Mg32 Mg51 3.186386 1_555
Mg32 Mg43 3.193640 1_655
Mg32 Mg33 3.195808 1_555
Mg32 Mg66 3.199521 1_555
Mg32 Mg54 3.199694 1_555
Mg32 Mg6 3.203943 1_555
Mg32 Mg35 3.206387 1_655
Mg33 Mg51 3.186394 1_555
Mg33 Mg42 3.193650 1_555
Mg33 Mg65 3.199521 1_555
Mg33 Mg53 3.199694 1_555
Mg33 Mg5 3.203951 1_555
Mg33 Mg34 3.206387 1_555
Mg34 Mg40 3.173436 1_555
Mg34 Mg42 3.173436 1_555
Mg34 Mg67 3.190927 1_555
Mg34 Mg65 3.191411 1_555
Mg34 Mg64 3.191411 1_555
Mg34 Mg37 3.201317 1_555
Mg34 Mg39 3.201327 1_555
Mg34 Mg8 3.201500 1_555
Mg35 Mg41 3.173429 1_555
Mg35 Mg43 3.173445 1_555
Mg35 Mg68 3.190927 1_555
Mg35 Mg66 3.191411 1_455
Mg35 Mg63 3.191411 1_455
Mg35 Mg38 3.201317 1_555
Mg35 Mg37 3.201317 1_555
Mg35 Mg7 3.201500 1_555
Mg36 Mg45 3.173436 1_555
Mg36 Mg44 3.173436 1_555
Mg36 Mg69 3.190927 1_555
Mg36 Mg61 3.191411 1_565
Mg36 Mg62 3.191411 1_565
Mg36 Mg39 3.201311 1_555
Mg36 Mg38 3.201317 1_555
Mg37 Mg39 3.178058 1_555
Mg37 Mg38 3.178068 1_555
Mg37 Mg40 3.182486 1_555
Mg37 Mg41 3.182493 1_555
Mg37 Mg9 3.185546 1_555
Mg37 Mg67 3.188798 1_555
Mg37 Mg68 3.188799 1_555
Mg37 Mg70 3.202919 1_555
Mg38 Mg39 3.178050 1_555
Mg38 Mg45 3.182486 1_555
Mg38 Mg43 3.182501 1_555
Mg38 Mg69 3.188798 1_555
Mg38 Mg68 3.188799 1_555
Mg38 Mg71 3.202919 1_555
Mg39 Mg44 3.182493 1_555
Mg39 Mg42 3.182501 1_555
Mg39 Mg69 3.188791 1_555
Mg39 Mg67 3.188799 1_555
Mg39 Mg72 3.202927 1_555
Mg40 Mg70 3.182788 1_555
Mg40 Mg64 3.182795 1_555
Mg40 Mg46 3.193107 1_555
Mg40 Mg41 3.196277 1_555
Mg40 Mg57 3.200655 1_555
Mg40 Mg8 3.203716 1_555
Mg40 Mg9 3.212674 1_555
Mg41 Mg63 3.182787 1_455
Mg41 Mg70 3.182804 1_555
Mg41 Mg46 3.193124 1_555
Mg41 Mg58 3.200655 1_455
Mg41 Mg7 3.203709 1_555
Mg41 Mg9 3.212682 1_555
Mg42 Mg65 3.182795 1_555
Mg42 Mg72 3.182796 1_555
Mg42 Mg47 3.193115 1_555
Mg42 Mg44 3.196262 1_555
Mg42 Mg60 3.200654 1_555
Mg43 Mg66 3.182795 1_455
Mg43 Mg71 3.182804 1_555
Mg43 Mg48 3.193108 1_555
Mg43 Mg45 3.196269 1_555
Mg43 Mg59 3.200647 1_455
Mg44 Mg72 3.182788 1_555
Mg44 Mg61 3.182795 1_565
Mg44 Mg47 3.193107 1_555
Mg44 Mg55 3.200654 1_565
Mg45 Mg71 3.182788 1_555
Mg45 Mg62 3.182795 1_565
Mg45 Mg48 3.193107 1_555
Mg45 Mg56 3.200655 1_565
Mg46 Mg57 3.145680 1_555
Mg46 Mg58 3.145688 1_455
Mg46 Mg73 3.192272 1_555
Mg46 Sm0 3.268929 1_555
Mg46 Mg48 3.278585 1_545
Mg46 Mg47 3.278592 1_445
Mg47 Mg55 3.145680 1_565
Mg47 Mg60 3.145688 1_555
Mg47 Mg73 3.192272 1_665
Mg47 Sm0 3.268929 1_665
Mg47 Mg48 3.278600 1_655
Mg48 Mg56 3.145680 1_565
Mg48 Mg59 3.145688 1_455
Mg48 Mg73 3.192272 1_565
Mg48 Sm0 3.268929 1_565
Mg49 Mg56 3.191655 1_555
Mg49 Mg57 3.191655 1_555
Mg49 Mg75 3.196802 1_555
Mg49 Mg77 3.200964 1_555
Mg49 Mg80 3.200972 1_555
Mg49 Mg64 3.203269 1_555
Mg49 Mg62 3.203269 1_555
Mg49 Mg53 3.206510 1_555
Mg49 Mg52 3.206511 1_555
Mg50 Mg58 3.191663 1_555
Mg50 Mg55 3.191672 1_555
Mg50 Mg74 3.196811 1_555
Mg50 Mg78 3.200963 1_555
Mg50 Mg79 3.200964 1_555
Mg50 Mg63 3.203259 1_555
Mg50 Mg61 3.203275 1_555
Mg50 Mg54 3.206488 1_555
Mg50 Mg52 3.206503 1_555
Mg51 Mg59 3.191663 1_555
Mg51 Mg60 3.191672 1_555
Mg51 Mg89 3.196811 1_555
Mg51 Mg85 3.200963 1_555
Mg51 Mg84 3.200964 1_555
Mg51 Mg66 3.203260 1_555
Mg51 Mg65 3.203276 1_555
Mg51 Mg53 3.206502 1_555
Mg51 Mg54 3.206504 1_555
Mg52 Mg62 3.196564 1_555
Mg52 Mg61 3.196566 1_555
Mg52 Mg77 3.200722 1_555
Mg52 Mg78 3.200722 1_555
Mg52 Mg53 3.203198 1_555
Mg52 Mg54 3.203205 1_555
Mg52 Mg81 3.204204 1_555
Mg53 Mg64 3.196564 1_555
Mg53 Mg65 3.196565 1_555
Mg53 Mg80 3.200722 1_555
Mg53 Mg85 3.200722 1_555
Mg53 Mg54 3.203213 1_555
Mg53 Mg81 3.204205 1_555
Mg54 Mg63 3.196548 1_555
Mg54 Mg66 3.196556 1_555
Mg54 Mg79 3.200714 1_555
Mg54 Mg84 3.200722 1_555
Mg54 Mg81 3.204220 1_555
Mg55 Mg97 3.189859 1_545
Mg55 Mg74 3.194377 1_555
Mg55 Mg61 3.197507 1_555
Mg55 Mg95 3.197739 1_545
Mg55 Mg72 3.202549 1_545
Mg55 Mg58 3.211402 1_555
Mg55 Mg73 3.213148 1_655
Mg55 Mg60 3.214806 1_545
Mg56 Mg96 3.189852 1_545
Mg56 Mg75 3.194385 1_555
Mg56 Mg62 3.197507 1_555
Mg56 Mg94 3.197746 1_545
Mg56 Mg71 3.202550 1_545
Mg56 Mg57 3.211403 1_555
Mg56 Mg73 3.213148 1_555
Mg56 Mg59 3.214804 1_445
Mg57 Mg82 3.189860 1_555
Mg57 Mg75 3.194377 1_555
Mg57 Mg64 3.197507 1_555
Mg57 Mg76 3.197746 1_555
Mg57 Mg70 3.202550 1_555
Mg57 Mg73 3.213148 1_555
Mg57 Mg58 3.214805 1_455
Mg58 Mg83 3.189860 1_655
Mg58 Mg74 3.194385 1_555
Mg58 Mg63 3.197508 1_555
Mg58 Mg76 3.197739 1_655
Mg58 Mg70 3.202557 1_655
Mg58 Mg73 3.213149 1_655
Mg59 Mg90 3.189860 1_655
Mg59 Mg89 3.194385 1_555
Mg59 Mg66 3.197508 1_555
Mg59 Mg94 3.197747 1_655
Mg59 Mg71 3.202557 1_655
Mg59 Mg60 3.211402 1_555
Mg59 Mg73 3.213149 1_665
Mg60 Mg91 3.189859 1_555
Mg60 Mg89 3.194377 1_555
Mg60 Mg65 3.197507 1_555
Mg60 Mg95 3.197747 1_555
Mg60 Mg72 3.202557 1_555
Mg60 Mg73 3.213148 1_665
Mg61 Mg98 3.185847 1_545
Mg61 Mg62 3.189824 1_555
Mg61 Mg97 3.194156 1_545
Mg61 Mg78 3.196679 1_555
Mg61 Mg69 3.199424 1_545
Mg61 Mg72 3.207399 1_545
Mg62 Mg98 3.185839 1_545
Mg62 Mg96 3.194164 1_545
Mg62 Mg77 3.196679 1_555
Mg62 Mg69 3.199425 1_545
Mg62 Mg71 3.207398 1_545
Mg63 Mg87 3.185847 1_655
Mg63 Mg66 3.189825 1_555
Mg63 Mg83 3.194164 1_655
Mg63 Mg79 3.196671 1_555
Mg63 Mg68 3.199424 1_655
Mg63 Mg70 3.207414 1_655
Mg64 Mg86 3.185839 1_555
Mg64 Mg65 3.189823 1_555
Mg64 Mg82 3.194164 1_555
Mg64 Mg80 3.196671 1_555
Mg64 Mg67 3.199425 1_555
Mg64 Mg70 3.207398 1_555
Mg65 Mg86 3.185847 1_555
Mg65 Mg91 3.194164 1_555
Mg65 Mg85 3.196679 1_555
Mg65 Mg67 3.199424 1_555
Mg65 Mg72 3.207416 1_555
Mg66 Mg87 3.185839 1_655
Mg66 Mg90 3.194164 1_655
Mg66 Mg84 3.196671 1_555
Mg66 Mg68 3.199424 1_655
Mg66 Mg71 3.207414 1_655
Mg67 Mg88 3.191464 1_555
Mg67 Mg93 3.191464 1_555
Mg67 Mg86 3.195846 1_555
Mg67 Mg70 3.197294 1_555
Mg67 Mg72 3.197302 1_555
Mg67 Mg68 3.205784 1_555
Mg67 Mg69 3.205785 1_555
Mg68 Mg88 3.191456 1_555
Mg68 Mg92 3.191464 1_555
Mg68 Mg87 3.195845 1_555
Mg68 Mg70 3.197304 1_555
Mg68 Mg71 3.197304 1_555
Mg68 Mg69 3.205784 1_555
Mg69 Mg92 3.191464 1_555
Mg69 Mg93 3.191464 1_555
Mg69 Mg98 3.195846 1_555
Mg69 Mg72 3.197294 1_555
Mg69 Mg71 3.197295 1_555
Mg70 Mg88 3.184103 1_555
Mg70 Mg82 3.185901 1_555
Mg70 Mg83 3.185908 1_555
Mg71 Mg92 3.184095 1_555
Mg71 Mg90 3.185908 1_555
Mg71 Mg96 3.185909 1_555
Mg72 Mg93 3.184095 1_555
Mg72 Mg97 3.185909 1_555
Mg72 Mg91 3.185909 1_555
Mg73 Mg94 3.181150 1_545
Mg73 Mg95 3.181158 1_445
Mg73 Mg76 3.181158 1_555
Mg74 Mg78 3.195217 1_555
Mg74 Mg79 3.195234 1_555
Mg74 Mg97 3.205739 1_545
Mg74 Mg83 3.205764 1_655
Mg74 Mg95 3.208112 1_545
Mg74 Mg76 3.208119 1_655
Mg75 Mg80 3.195225 1_555
Mg75 Mg77 3.195225 1_555
Mg75 Mg82 3.205749 1_555
Mg75 Mg96 3.205749 1_545
Mg75 Mg94 3.208127 1_545
Mg75 Mg76 3.208127 1_555
Mg76 Mg99 3.181158 1_555
Mg76 Mg83 3.201888 1_555
Mg76 Mg82 3.201895 1_555
Mg76 Mg95 3.208069 1_445
Mg76 Mg94 3.208070 1_545
Mg77 Mg80 3.179781 1_555
Mg77 Mg81 3.192071 1_555
Mg77 Mg78 3.204379 1_555
Mg77 Mg98 3.205423 1_545
Mg77 Mg96 3.213280 1_545
Mg78 Mg79 3.179780 1_555
Mg78 Mg81 3.192080 1_555
Mg78 Mg98 3.205430 1_545
Mg78 Mg97 3.213273 1_545
Mg79 Mg81 3.192095 1_555
Mg79 Mg84 3.204364 1_555
Mg79 Mg87 3.205414 1_655
Mg79 Mg83 3.213280 1_655
Mg80 Mg81 3.192079 1_555
Mg80 Mg85 3.204370 1_555
Mg80 Mg86 3.205407 1_555
Mg80 Mg82 3.213280 1_555
Mg81 Mg85 3.192080 1_555
Mg81 Mg84 3.192095 1_555
Mg82 Mg86 3.199605 1_555
Mg82 Mg83 3.200358 1_555
Mg82 Mg88 3.201132 1_555
Mg83 Mg87 3.199622 1_555
Mg83 Mg88 3.201122 1_555
Mg84 Mg85 3.179780 1_555
Mg84 Mg89 3.195234 1_555
Mg84 Mg87 3.205406 1_655
Mg84 Mg90 3.213280 1_655
Mg85 Mg89 3.195217 1_555
Mg85 Mg86 3.205430 1_555
Mg85 Mg91 3.213289 1_555
Mg86 Mg91 3.199621 1_555
Mg86 Mg88 3.210225 1_555
Mg86 Mg93 3.210226 1_555
Mg87 Mg90 3.199606 1_555
Mg87 Mg92 3.210217 1_555
Mg87 Mg88 3.210217 1_555
Mg88 Mg92 3.197297 1_555
Mg88 Mg93 3.197304 1_555
Mg89 Mg91 3.205748 1_555
Mg89 Mg90 3.205764 1_655
Mg89 Mg94 3.208127 1_655
Mg89 Mg95 3.208128 1_555
Mg90 Mg96 3.200366 1_555
Mg90 Mg92 3.201114 1_555
Mg90 Mg94 3.201904 1_555
Mg91 Mg97 3.200375 1_555
Mg91 Mg93 3.201115 1_555
Mg91 Mg95 3.201895 1_555
Mg92 Mg93 3.197312 1_555
Mg92 Mg96 3.201131 1_555
Mg92 Mg98 3.210217 1_555
Mg93 Mg97 3.201122 1_555
Mg93 Mg98 3.210226 1_555
Mg94 Mg99 3.181150 1_565
Mg94 Mg96 3.201895 1_555
Mg94 Mg95 3.208069 1_455
Mg95 Mg99 3.181158 1_665
Mg95 Mg97 3.201895 1_555
Mg96 Mg98 3.199613 1_555
Mg97 Mg98 3.199613 1_555
Mg100 Mg127 3.182788 1_555
Mg100 Mg128 3.182804 1_555
Mg100 Mg88 3.184103 1_555
Mg100 Mg82 3.185901 1_555
Mg100 Mg83 3.185908 1_555
Mg100 Mg103 3.197294 1_555
Mg100 Mg104 3.197304 1_555
Mg100 Mg114 3.202550 1_555
Mg100 Mg115 3.202557 1_455
Mg100 Mg133 3.202919 1_555
Mg100 Mg109 3.207398 1_555
Mg100 Mg108 3.207414 1_455
Mg101 Mg132 3.182788 1_555
Mg101 Mg130 3.182804 1_555
Mg101 Mg92 3.184095 1_555
Mg101 Mg90 3.185908 1_555
Mg101 Mg96 3.185909 1_555
Mg101 Mg105 3.197295 1_555
Mg101 Mg104 3.197304 1_555
Mg101 Mg113 3.202550 1_565
Mg101 Mg116 3.202557 1_455
Mg101 Mg134 3.202919 1_555
Mg101 Mg107 3.207398 1_565
Mg101 Mg111 3.207414 1_455
Mg102 Mg131 3.182788 1_555
Mg102 Mg129 3.182796 1_555
Mg102 Mg93 3.184095 1_555
Mg102 Mg97 3.185909 1_555
Mg102 Mg91 3.185909 1_555
Mg102 Mg105 3.197294 1_555
Mg102 Mg103 3.197302 1_555
Mg102 Mg112 3.202549 1_565
Mg102 Mg117 3.202557 1_555
Mg102 Mg135 3.202927 1_555
Mg102 Mg106 3.207399 1_565
Mg102 Mg110 3.207416 1_555
Mg103 Mg133 3.188798 1_555
Mg103 Mg135 3.188799 1_555
Mg103 Mg136 3.190927 1_555
Mg103 Mg88 3.191464 1_555
Mg103 Mg93 3.191464 1_555
Mg103 Mg86 3.195846 1_555
Mg103 Mg110 3.199424 1_555
Mg103 Mg109 3.199425 1_555
Mg103 Mg104 3.205784 1_555
Mg103 Mg105 3.205785 1_555
Mg104 Mg133 3.188799 1_555
Mg104 Mg134 3.188799 1_555
Mg104 Mg137 3.190927 1_555
Mg104 Mg88 3.191456 1_555
Mg104 Mg92 3.191464 1_555
Mg104 Mg87 3.195845 1_555
Mg104 Mg108 3.199424 1_455
Mg104 Mg111 3.199424 1_455
Mg104 Mg105 3.205784 1_555
Mg105 Mg135 3.188791 1_555
Mg105 Mg134 3.188798 1_555
Mg105 Mg138 3.190927 1_555
Mg105 Mg92 3.191464 1_555
Mg105 Mg93 3.191464 1_555
Mg105 Mg98 3.195846 1_555
Mg105 Mg106 3.199424 1_565
Mg105 Mg107 3.199425 1_565
Mg106 Mg131 3.182795 1_545
Mg106 Mg98 3.185847 1_545
Mg106 Mg107 3.189824 1_555
Mg106 Mg138 3.191411 1_545
Mg106 Mg97 3.194156 1_545
Mg106 Mg118 3.196566 1_555
Mg106 Mg78 3.196679 1_555
Mg106 Mg112 3.197507 1_555
Mg106 Mg139 3.199521 1_555
Mg106 Mg122 3.203275 1_555
Mg107 Mg132 3.182795 1_545
Mg107 Mg98 3.185839 1_545
Mg107 Mg138 3.191411 1_545
Mg107 Mg96 3.194164 1_545
Mg107 Mg118 3.196564 1_555
Mg107 Mg77 3.196679 1_555
Mg107 Mg113 3.197507 1_555
Mg107 Mg140 3.199521 1_555
Mg107 Mg121 3.203269 1_555
Mg108 Mg128 3.182787 1_655
Mg108 Mg87 3.185847 1_655
Mg108 Mg111 3.189825 1_555
Mg108 Mg137 3.191411 1_655
Mg108 Mg83 3.194164 1_655
Mg108 Mg120 3.196548 1_555
Mg108 Mg79 3.196671 1_555
Mg108 Mg115 3.197508 1_555
Mg108 Mg141 3.199521 1_555
Mg108 Mg122 3.203259 1_555
Mg109 Mg127 3.182795 1_555
Mg109 Mg86 3.185839 1_555
Mg109 Mg110 3.189823 1_555
Mg109 Mg136 3.191411 1_555
Mg109 Mg82 3.194164 1_555
Mg109 Mg119 3.196564 1_555
Mg109 Mg80 3.196671 1_555
Mg109 Mg114 3.197507 1_555
Mg109 Mg142 3.199521 1_555
Mg109 Mg121 3.203269 1_555
Mg110 Mg129 3.182795 1_555
Mg110 Mg86 3.185847 1_555
Mg110 Mg136 3.191411 1_555
Mg110 Mg91 3.194164 1_555
Mg110 Mg119 3.196565 1_555
Mg110 Mg85 3.196679 1_555
Mg110 Mg117 3.197507 1_555
Mg110 Mg144 3.199521 1_555
Mg110 Mg123 3.203276 1_555
Mg111 Mg130 3.182795 1_655
Mg111 Mg87 3.185839 1_655
Mg111 Mg137 3.191411 1_655
Mg111 Mg90 3.194164 1_655
Mg111 Mg120 3.196556 1_555
Mg111 Mg84 3.196671 1_555
Mg111 Mg116 3.197508 1_555
Mg111 Mg143 3.199521 1_555
Mg111 Mg123 3.203260 1_555
Mg112 Mg125 3.145680 1_545
Mg112 Mg97 3.189859 1_545
Mg112 Mg122 3.191672 1_555
Mg112 Mg74 3.194377 1_555
Mg112 Mg95 3.197739 1_545
Mg112 Mg131 3.200654 1_545
Mg112 Mg115 3.211402 1_555
Mg112 Mg99 3.213148 1_655
Mg112 Mg117 3.214806 1_545
Mg112 Mg146 3.215342 1_555
Mg113 Mg126 3.145680 1_545
Mg113 Mg96 3.189852 1_545
Mg113 Mg121 3.191655 1_555
Mg113 Mg75 3.194385 1_555
Mg113 Mg94 3.197746 1_545
Mg113 Mg132 3.200655 1_545
Mg113 Mg114 3.211403 1_555
Mg113 Mg99 3.213148 1_555
Mg113 Mg116 3.214804 1_445
Mg113 Mg147 3.215342 1_555
Mg114 Mg124 3.145680 1_555
Mg114 Mg82 3.189860 1_555
Mg114 Mg121 3.191655 1_555
Mg114 Mg75 3.194377 1_555
Mg114 Mg76 3.197746 1_555
Mg114 Mg127 3.200655 1_555
Mg114 Mg99 3.213148 1_555
Mg114 Mg115 3.214805 1_455
Mg114 Mg147 3.215342 1_555
Mg115 Mg124 3.145688 1_655
Mg115 Mg83 3.189860 1_655
Mg115 Mg122 3.191663 1_555
Mg115 Mg74 3.194385 1_555
Mg115 Mg76 3.197739 1_655
Mg115 Mg128 3.200655 1_655
Mg115 Mg99 3.213149 1_655
Mg115 Mg146 3.215342 1_555
Mg116 Mg126 3.145688 1_655
Mg116 Mg90 3.189860 1_655
Mg116 Mg123 3.191663 1_555
Mg116 Mg89 3.194385 1_555
Mg116 Mg94 3.197747 1_655
Mg116 Mg130 3.200647 1_655
Mg116 Mg117 3.211402 1_555
Mg116 Mg99 3.213149 1_665
Mg116 Mg148 3.215342 1_555
Mg117 Mg125 3.145688 1_555
Mg117 Mg91 3.189859 1_555
Mg117 Mg123 3.191672 1_555
Mg117 Mg89 3.194377 1_555
Mg117 Mg95 3.197747 1_555
Mg117 Mg129 3.200654 1_555
Mg117 Mg99 3.213148 1_665
Mg117 Mg148 3.215342 1_555
Mg118 Mg145 3.196868 1_555
Mg118 Mg140 3.199685 1_555
Mg118 Mg139 3.199694 1_555
Mg118 Mg77 3.200722 1_555
Mg118 Mg78 3.200722 1_555
Mg118 Mg119 3.203198 1_555
Mg118 Mg120 3.203205 1_555
Mg118 Mg81 3.204204 1_555
Mg118 Mg122 3.206503 1_555
Mg118 Mg121 3.206511 1_555
Mg119 Mg145 3.196868 1_555
Mg119 Mg142 3.199685 1_555
Mg119 Mg144 3.199694 1_555
Mg119 Mg80 3.200722 1_555
Mg119 Mg85 3.200722 1_555
Mg119 Mg120 3.203213 1_555
Mg119 Mg81 3.204205 1_555
Mg119 Mg123 3.206502 1_555
Mg119 Mg121 3.206510 1_555
Mg120 Mg145 3.196884 1_555
Mg120 Mg141 3.199686 1_555
Mg120 Mg143 3.199694 1_555
Mg120 Mg79 3.200714 1_555
Mg120 Mg84 3.200722 1_555
Mg120 Mg81 3.204220 1_555
Mg120 Mg122 3.206488 1_555
Mg120 Mg123 3.206504 1_555
Mg121 Mg142 3.186402 1_555
Mg121 Mg140 3.186402 1_555
Mg121 Mg75 3.196802 1_555
Mg121 Mg77 3.200964 1_555
Mg121 Mg80 3.200972 1_555
Mg121 Mg147 3.239617 1_555
Mg122 Mg141 3.186386 1_555
Mg122 Mg139 3.186394 1_555
Mg122 Mg74 3.196811 1_555
Mg122 Mg78 3.200963 1_555
Mg122 Mg79 3.200964 1_555
Mg122 Mg146 3.239626 1_555
Mg123 Mg143 3.186386 1_555
Mg123 Mg144 3.186394 1_555
Mg123 Mg89 3.196811 1_555
Mg123 Mg85 3.200963 1_555
Mg123 Mg84 3.200964 1_555
Mg123 Mg148 3.239625 1_555
Mg124 Mg147 3.166516 1_555
Mg124 Mg146 3.166532 1_455
Mg124 Mg99 3.192272 1_555
Mg124 Mg127 3.193107 1_555
Mg124 Mg128 3.193124 1_555
Mg124 Mg4 3.252344 1_556
Mg124 Mg3 3.252352 1_556
Mg124 Sm0 3.268929 1_556
Mg124 Mg126 3.278585 1_545
Mg124 Mg125 3.278592 1_445
Mg125 Mg146 3.166517 1_565
Mg125 Mg148 3.166533 1_555
Mg125 Mg99 3.192272 1_665
Mg125 Mg131 3.193107 1_555
Mg125 Mg129 3.193115 1_555
Mg125 Mg20 3.252353 1_556
Mg125 Mg16 3.252360 1_556
Mg125 Sm0 3.268929 1_666
Mg125 Mg126 3.278600 1_655
Mg126 Mg147 3.166516 1_565
Mg126 Mg148 3.166531 1_455
Mg126 Mg99 3.192272 1_565
Mg126 Mg132 3.193107 1_555
Mg126 Mg130 3.193108 1_555
Mg126 Mg21 3.252344 1_556
Mg126 Mg15 3.252360 1_556
Mg126 Sm0 3.268929 1_566
Mg127 Mg136 3.173436 1_555
Mg127 Mg133 3.182486 1_555
Mg127 Mg4 3.183951 1_556
Mg127 Mg142 3.193657 1_555
Mg127 Mg128 3.196277 1_555
Mg127 Mg8 3.203716 1_556
Mg127 Mg9 3.212674 1_556
Mg127 Mg147 3.234968 1_555
Mg128 Mg137 3.173429 1_555
Mg128 Mg133 3.182493 1_555
Mg128 Mg3 3.183959 1_556
Mg128 Mg141 3.193633 1_455
Mg128 Mg7 3.203709 1_556
Mg128 Mg9 3.212682 1_556
Mg128 Mg146 3.234959 1_455
Mg129 Mg136 3.173436 1_555
Mg129 Mg135 3.182501 1_555
Mg129 Mg16 3.183951 1_556
Mg129 Mg144 3.193650 1_555
Mg129 Mg131 3.196262 1_555
Mg129 Mg18 3.212674 1_556
Mg129 Mg148 3.234967 1_555
Mg130 Mg137 3.173445 1_555
Mg130 Mg134 3.182501 1_555
Mg130 Mg15 3.183943 1_556
Mg130 Mg143 3.193640 1_455
Mg130 Mg132 3.196269 1_555
Mg130 Mg17 3.212682 1_556
Mg130 Mg148 3.234951 1_455
Mg131 Mg138 3.173436 1_555
Mg131 Mg135 3.182493 1_555
Mg131 Mg20 3.183951 1_556
Mg131 Mg139 3.193650 1_565
Mg131 Mg23 3.203709 1_556
Mg131 Mg18 3.212674 1_556
Mg131 Mg146 3.234967 1_565
Mg132 Mg138 3.173436 1_555
Mg132 Mg134 3.182486 1_555
Mg132 Mg21 3.183959 1_556
Mg132 Mg140 3.193657 1_565
Mg132 Mg22 3.203716 1_556
Mg132 Mg17 3.212674 1_556
Mg132 Mg147 3.234968 1_565
Mg133 Mg135 3.178058 1_555
Mg133 Mg134 3.178068 1_555
Mg133 Mg9 3.185546 1_556
Mg133 Mg14 3.198513 1_556
Mg133 Mg137 3.201317 1_555
Mg133 Mg136 3.201317 1_555
Mg134 Mg135 3.178050 1_555
Mg134 Mg17 3.185546 1_556
Mg134 Mg19 3.198512 1_556
Mg134 Mg14 3.198513 1_556
Mg134 Mg137 3.201317 1_555
Mg134 Mg138 3.201317 1_555
Mg135 Mg18 3.185553 1_556
Mg135 Mg19 3.198505 1_556
Mg135 Mg138 3.201311 1_555
Mg135 Mg136 3.201327 1_555
Mg136 Mg8 3.201500 1_556
Mg136 Mg142 3.206380 1_555
Mg136 Mg144 3.206387 1_555
Mg137 Mg7 3.201500 1_556
Mg137 Mg141 3.206387 1_455
Mg137 Mg143 3.206387 1_455
Mg137 Mg14 3.208696 1_556
Mg138 Mg22 3.201500 1_556
Mg138 Mg23 3.201508 1_556
Mg138 Mg140 3.206380 1_565
Mg138 Mg139 3.206387 1_565
Mg138 Mg19 3.208696 1_556
Mg139 Mg2 3.182473 1_556
Mg139 Mg23 3.192823 1_546
Mg139 Mg141 3.195808 1_555
Mg139 Mg145 3.214155 1_555
Mg139 Mg146 3.225012 1_555
Mg139 Mg140 3.232433 1_555
Mg140 Mg22 3.192823 1_546
Mg140 Mg142 3.195826 1_555
Mg140 Mg145 3.214138 1_555
Mg140 Mg147 3.225028 1_555
Mg141 Mg2 3.182466 1_556
Mg141 Mg7 3.192823 1_656
Mg141 Mg6 3.203951 1_556
Mg141 Mg145 3.214162 1_555
Mg141 Mg146 3.225013 1_555
Mg141 Mg143 3.232450 1_555
Mg142 Mg8 3.192823 1_556
Mg142 Mg5 3.203935 1_556
Mg142 Mg145 3.214138 1_555
Mg142 Mg147 3.225028 1_555
Mg142 Mg144 3.232433 1_555
Mg143 Mg144 3.195808 1_555
Mg143 Mg6 3.203943 1_556
Mg143 Mg145 3.214162 1_555
Mg143 Mg148 3.225013 1_555
Mg144 Mg5 3.203951 1_556
Mg144 Mg145 3.214155 1_555
Mg144 Mg148 3.225012 1_555
Mg145 Mg5 3.187009 1_556
Mg145 Mg6 3.187017 1_556
Mg146 Mg3 3.183051 1_656
Mg146 Mg20 3.183052 1_546
Mg146 Mg2 3.205502 1_556
Mg147 Mg21 3.183051 1_546
Mg147 Mg4 3.183060 1_556
Mg148 Mg15 3.183051 1_656
Mg148 Mg16 3.183052 1_556
