# generated using pymatgen
data_SiC
_symmetry_space_group_name_H-M   'P 1'
_cell_length_a   3.07659534
_cell_length_b   3.07659534
_cell_length_c   42.81679088
_cell_angle_alpha   87.94077350
_cell_angle_beta   87.94077350
_cell_angle_gamma   59.99997716
_symmetry_Int_Tables_number   1
_chemical_formula_structural   SiC
_chemical_formula_sum   'Si17 C17'
_cell_volume   350.68020704
_cell_formula_units_Z   17
loop_
 _symmetry_equiv_pos_site_id
 _symmetry_equiv_pos_as_xyz
  1  'x, y, z'
loop_
 _atom_site_type_symbol
 _atom_site_label
 _atom_site_symmetry_multiplicity
 _atom_site_fract_x
 _atom_site_fract_y
 _atom_site_fract_z
 _atom_site_occupancy
  Si  Si0  1  0.00001149  0.00001149  0.99997338  1
  Si  Si1  1  0.96080069  0.96080069  0.11764473  1
  Si  Si2  1  0.88238997  0.88238997  0.35287551  1
  Si  Si3  1  0.84313738  0.84313738  0.47057841  1
  Si  Si4  1  0.76473718  0.76473718  0.70582062  1
  Si  Si5  1  0.72549244  0.72549244  0.82353044  1
  Si  Si6  1  0.64704010  0.64704010  0.05880970  1
  Si  Si7  1  0.58824256  0.58824256  0.23526775  1
  Si  Si8  1  0.52944067  0.52944067  0.41173166  1
  Si  Si9  1  0.47056904  0.47056904  0.58821804  1
  Si  Si10  1  0.41177605  0.41177605  0.76468132  1
  Si  Si11  1  0.35297057  0.35297057  0.94115269  1
  Si  Si12  1  0.27453386  0.27453386  0.17640139  1
  Si  Si13  1  0.23528197  0.23528197  0.29411498  1
  Si  Si14  1  0.15689135  0.15689135  0.52934569  1
  Si  Si15  1  0.11763611  0.11763611  0.64706434  1
  Si  Si16  1  0.03922682  0.03922682  0.88229500  1
  C  C0  1  0.98531120  0.98531120  0.04405732  1
  C  C1  1  0.94608179  0.94608179  0.16175677  1
  C  C2  1  0.86766974  0.86766974  0.39698387  1
  C  C3  1  0.82842729  0.82842729  0.51470101  1
  C  C4  1  0.75002294  0.75002294  0.74993035  1
  C  C5  1  0.71078282  0.71078282  0.86765084  1
  C  C6  1  0.63232154  0.63232154  0.10304532  1
  C  C7  1  0.57349479  0.57349479  0.27951634  1
  C  C8  1  0.51467629  0.51467629  0.45597662  1
  C  C9  1  0.45584363  0.45584363  0.63246545  1
  C  C10  1  0.39702312  0.39702312  0.80892704  1
  C  C11  1  0.33820326  0.33820326  0.98538715  1
  C  C12  1  0.25982354  0.25982354  0.22051534  1
  C  C13  1  0.22058692  0.22058692  0.33823546  1
  C  C14  1  0.14217418  0.14217418  0.57346534  1
  C  C15  1  0.10293912  0.10293912  0.69117725  1
  C  C16  1  0.02453560  0.02453560  0.92640287  1
loop_
_geom_bond_atom_site_label_1
_geom_bond_atom_site_label_2
_geom_bond_distance
_geom_bond_site_symmetry_2
C0 Si6 1.885008 1_655
C0 Si6 1.885008 1_565
C0 Si6 1.885156 1_555
C0 Si0 1.885907 1_664
C1 Si12 1.883516 1_655
C1 Si12 1.883516 1_565
C1 Si12 1.883524 1_665
C1 Si1 1.887110 1_555
C2 Si8 1.884887 1_555
C2 Si8 1.885044 1_565
C2 Si8 1.885044 1_655
C2 Si2 1.886952 1_555
C3 Si14 1.883487 1_655
C3 Si14 1.883487 1_565
C3 Si14 1.883585 1_665
C3 Si3 1.887561 1_555
C4 Si10 1.885016 1_555
C4 Si10 1.885047 1_565
C4 Si10 1.885047 1_655
C4 Si4 1.887011 1_555
C5 Si16 1.883476 1_665
C5 Si16 1.883530 1_565
C5 Si16 1.883530 1_655
C5 Si5 1.887467 1_555
C6 Si1 1.882843 1_545
C6 Si1 1.882843 1_455
C6 Si1 1.882942 1_555
C6 Si6 1.892396 1_555
C7 Si13 1.882833 1_655
C7 Si13 1.882833 1_565
C7 Si13 1.882929 1_555
C7 Si7 1.892951 1_555
C8 Si3 1.882889 1_555
C8 Si3 1.882921 1_455
C8 Si3 1.882921 1_545
C8 Si8 1.892796 1_555
C9 Si15 1.882851 1_565
C9 Si15 1.882851 1_655
C9 Si15 1.882905 1_555
C9 Si9 1.892901 1_555
C10 Si5 1.882921 1_455
C10 Si5 1.882921 1_545
C10 Si5 1.882956 1_555
C10 Si10 1.892828 1_555
C11 Si0 1.882668 1_555
C11 Si0 1.882700 1_565
C11 Si0 1.882700 1_655
C11 Si11 1.892347 1_555
C12 Si7 1.885048 1_545
C12 Si7 1.885048 1_455
C12 Si7 1.885077 1_555
C12 Si12 1.887191 1_555
C13 Si2 1.883368 1_445
C13 Si2 1.883496 1_545
C13 Si2 1.883496 1_455
C13 Si13 1.887471 1_555
C14 Si9 1.884960 1_555
C14 Si9 1.885112 1_545
C14 Si9 1.885112 1_455
C14 Si14 1.887435 1_555
C15 Si4 1.883435 1_445
C15 Si4 1.883534 1_455
C15 Si4 1.883534 1_545
C15 Si15 1.887147 1_555
C16 Si11 1.884973 1_545
C16 Si11 1.884973 1_455
C16 Si11 1.885116 1_555
C16 Si16 1.886931 1_555
