# generated using pymatgen
data_CuH9C4(NO2)3
_symmetry_space_group_name_H-M   'P 1'
_cell_length_a   8.97321800
_cell_length_b   9.24935200
_cell_length_c   11.47831300
_cell_angle_alpha   90.00000000
_cell_angle_beta   90.00000000
_cell_angle_gamma   90.00000000
_symmetry_Int_Tables_number   1
_chemical_formula_structural   CuH9C4(NO2)3
_chemical_formula_sum   'Cu4 H36 C16 N12 O24'
_cell_volume   952.65925228
_cell_formula_units_Z   4
loop_
 _symmetry_equiv_pos_site_id
 _symmetry_equiv_pos_as_xyz
  1  'x, y, z'
loop_
 _atom_site_type_symbol
 _atom_site_label
 _atom_site_symmetry_multiplicity
 _atom_site_fract_x
 _atom_site_fract_y
 _atom_site_fract_z
 _atom_site_occupancy
  Cu  Cu0  1  0.49753700  0.50136100  0.49848500  1
  Cu  Cu1  1  0.50246300  0.49863900  0.99848500  1
  Cu  Cu2  1  0.00246300  0.00136100  0.99848500  1
  Cu  Cu3  1  0.99753700  0.99863900  0.49848500  1
  H  H0  1  0.19084000  0.66484500  0.46261500  1
  H  H1  1  0.80916000  0.33515500  0.96261500  1
  H  H2  1  0.30916000  0.16484500  0.96261500  1
  H  H3  1  0.69084000  0.83515500  0.46261500  1
  H  H4  1  0.50876200  0.57713000  0.74768900  1
  H  H5  1  0.49123800  0.42287000  0.24768900  1
  H  H6  1  0.99123800  0.07713000  0.24768900  1
  H  H7  1  0.00876200  0.92287000  0.74768900  1
  H  H8  1  0.63196000  0.19355100  0.51942300  1
  H  H9  1  0.36804000  0.80644900  0.01942300  1
  H  H10  1  0.86804000  0.69355100  0.01942300  1
  H  H11  1  0.13196000  0.30644900  0.51942300  1
  H  H12  1  0.58363000  0.80232200  0.80174200  1
  H  H13  1  0.41637000  0.19767800  0.30174200  1
  H  H14  1  0.91637000  0.30232200  0.30174200  1
  H  H15  1  0.08363000  0.69767800  0.80174200  1
  H  H16  1  0.45202800  0.79833200  0.68604900  1
  H  H17  1  0.54797200  0.20166800  0.18604900  1
  H  H18  1  0.04797200  0.29833200  0.18604900  1
  H  H19  1  0.95202800  0.70166800  0.68604900  1
  H  H20  1  0.67280500  0.02288800  0.86735800  1
  H  H21  1  0.32719500  0.97711200  0.36735800  1
  H  H22  1  0.82719500  0.52288800  0.36735800  1
  H  H23  1  0.17280500  0.47711200  0.86735800  1
  H  H24  1  0.58130900  0.18441300  0.82467300  1
  H  H25  1  0.41869100  0.81558700  0.32467300  1
  H  H26  1  0.91869100  0.68441300  0.32467300  1
  H  H27  1  0.08130900  0.31558700  0.82467300  1
  H  H28  1  0.33984900  0.00840600  0.62614600  1
  H  H29  1  0.66015100  0.99159400  0.12614600  1
  H  H30  1  0.16015100  0.50840600  0.12614600  1
  H  H31  1  0.83984900  0.49159400  0.62614600  1
  H  H32  1  0.41228700  0.17848300  0.67211100  1
  H  H33  1  0.58771300  0.82151700  0.17211100  1
  H  H34  1  0.08771300  0.67848300  0.17211100  1
  H  H35  1  0.91228700  0.32151700  0.67211100  1
  C  C0  1  0.26064500  0.72039800  0.52879100  1
  C  C1  1  0.73935500  0.27960200  0.02879100  1
  C  C2  1  0.23935500  0.22039800  0.02879100  1
  C  C3  1  0.76064500  0.77960200  0.52879100  1
  C  C4  1  0.50650400  0.45846100  0.74757500  1
  C  C5  1  0.49349600  0.54153900  0.24757500  1
  C  C6  1  0.99349600  0.95846100  0.24757500  1
  C  C7  1  0.00650400  0.04153900  0.74757500  1
  C  C8  1  0.70433800  0.25706300  0.46022800  1
  C  C9  1  0.29566200  0.74293700  0.96022800  1
  C  C10  1  0.79566200  0.75706300  0.96022800  1
  C  C11  1  0.20433800  0.24293700  0.46022800  1
  C  C12  1  0.50668700  0.99968900  0.74631700  1
  C  C13  1  0.49331300  0.00031100  0.24631700  1
  C  C14  1  0.99331300  0.49968900  0.24631700  1
  C  C15  1  0.00668700  0.50031100  0.74631700  1
  N  N0  1  0.51546700  0.85568600  0.74372500  1
  N  N1  1  0.48453300  0.14431400  0.24372500  1
  N  N2  1  0.98453300  0.35568600  0.24372500  1
  N  N3  1  0.01546700  0.64431400  0.74372500  1
  N  N4  1  0.59516200  0.07511500  0.81784700  1
  N  N5  1  0.40483800  0.92488500  0.31784700  1
  N  N6  1  0.90483800  0.57511500  0.31784700  1
  N  N7  1  0.09516200  0.42488500  0.81784700  1
  N  N8  1  0.40942700  0.06849600  0.67727300  1
  N  N9  1  0.59057300  0.93150400  0.17727300  1
  N  N10  1  0.09057300  0.56849600  0.17727300  1
  N  N11  1  0.90942700  0.43150400  0.67727300  1
  O  O0  1  0.37685100  0.65347000  0.56708100  1
  O  O1  1  0.62314900  0.34653000  0.06708100  1
  O  O2  1  0.12314900  0.15347000  0.06708100  1
  O  O3  1  0.87685100  0.84653000  0.56708100  1
  O  O4  1  0.22447000  0.84354400  0.56381800  1
  O  O5  1  0.77553000  0.15645600  0.06381800  1
  O  O6  1  0.27553000  0.34354400  0.06381800  1
  O  O7  1  0.72447000  0.65645600  0.56381800  1
  O  O8  1  0.49857300  0.39112300  0.65110900  1
  O  O9  1  0.50142700  0.60887700  0.15110900  1
  O  O10  1  0.00142700  0.89112300  0.15110900  1
  O  O11  1  0.99857300  0.10887700  0.65110900  1
  O  O12  1  0.51189200  0.39076000  0.84403100  1
  O  O13  1  0.48810800  0.60924000  0.34403100  1
  O  O14  1  0.98810800  0.89076000  0.34403100  1
  O  O15  1  0.01189200  0.10924000  0.84403100  1
  O  O16  1  0.66482100  0.38813300  0.43700000  1
  O  O17  1  0.33517900  0.61186700  0.93700000  1
  O  O18  1  0.83517900  0.88813300  0.93700000  1
  O  O19  1  0.16482100  0.11186700  0.43700000  1
  O  O20  1  0.82024300  0.20067800  0.41951500  1
  O  O21  1  0.17975700  0.79932200  0.91951500  1
  O  O22  1  0.67975700  0.70067800  0.91951500  1
  O  O23  1  0.32024300  0.29932200  0.41951500  1
loop_
_geom_bond_atom_site_label_1
_geom_bond_atom_site_label_2
_geom_bond_distance
_geom_bond_site_symmetry_2
Cu0 O0 1.942190 1_555
Cu0 O16 1.961660 1_555
Cu0 O8 2.027009 1_555
Cu0 O13 2.036138 1_555
Cu0 O7 2.601314 1_555
Cu0 O23 2.616246 1_555
Cu1 O1 1.942190 1_556
Cu1 O17 1.961660 1_555
Cu1 O9 2.027009 1_556
Cu1 O12 2.036138 1_555
Cu1 O6 2.601314 1_556
Cu1 O22 2.616246 1_555
Cu2 O2 1.942190 1_556
Cu2 O18 1.961660 1_445
Cu2 O10 2.027009 1_546
Cu2 O15 2.036138 1_555
Cu2 O5 2.601314 1_456
Cu2 O21 2.616246 1_545
Cu3 O3 1.942190 1_555
Cu3 O19 1.961660 1_665
Cu3 O11 2.027009 1_565
Cu3 O14 2.036138 1_555
Cu3 O4 2.601314 1_655
Cu3 O20 2.616246 1_565
H12 N0 1.030146 1_555
H13 N1 1.030146 1_555
H14 N2 1.030146 1_555
H15 N3 1.030146 1_555
H16 N0 1.021636 1_555
H17 N1 1.021636 1_555
H18 N2 1.021636 1_455
H19 N3 1.021636 1_655
H20 N4 1.020648 1_555
H21 N5 1.020648 1_555
H22 N6 1.020648 1_555
H23 N7 1.020648 1_555
H24 N4 1.021559 1_555
H25 N5 1.021559 1_555
H26 N6 1.021559 1_555
H27 N7 1.021559 1_555
H28 N8 1.021323 1_555
H29 N9 1.021323 1_555
H30 N10 1.021323 1_555
H31 N11 1.021323 1_555
H32 N8 1.019356 1_555
H33 N9 1.019356 1_555
H34 N10 1.019356 1_555
H35 N11 1.019356 1_555
C0 H0 1.110559 1_555
C0 O4 1.250753 1_555
C0 O0 1.289840 1_555
C1 H1 1.110559 1_554
C1 O5 1.250753 1_555
C1 O1 1.289840 1_555
C2 H2 1.110559 1_554
C2 O6 1.250753 1_555
C2 O2 1.289840 1_555
C3 H3 1.110559 1_555
C3 O7 1.250753 1_555
C3 O3 1.289840 1_555
C4 H4 1.097799 1_555
C4 O8 1.272409 1_555
C4 O12 1.272886 1_555
C5 H5 1.097799 1_555
C5 O9 1.272409 1_555
C5 O13 1.272886 1_555
C6 H6 1.097799 1_565
C6 O10 1.272409 1_655
C6 O14 1.272886 1_555
C7 H7 1.097799 1_545
C7 O11 1.272409 1_455
C7 O15 1.272886 1_555
C8 H8 1.108404 1_555
C8 O20 1.253817 1_555
C8 O16 1.290939 1_555
C9 H9 1.108404 1_556
C9 O21 1.253817 1_555
C9 O17 1.290939 1_555
C10 H10 1.108404 1_556
C10 O22 1.253817 1_555
C10 O18 1.290939 1_555
C11 H11 1.108404 1_555
C11 O23 1.253817 1_555
C11 O19 1.290939 1_555
C12 N0 1.334594 1_555
C12 N4 1.338321 1_565
C12 N8 1.339689 1_565
C13 N1 1.334594 1_555
C13 N5 1.338321 1_545
C13 N9 1.339689 1_545
C14 N2 1.334594 1_555
C14 N6 1.338321 1_555
C14 N10 1.339689 1_655
C15 N3 1.334594 1_555
C15 N7 1.338321 1_555
C15 N11 1.339689 1_455
