# generated using pymatgen
data_Ba2Sn2F11
_symmetry_space_group_name_H-M   'P 1'
_cell_length_a   7.80426770
_cell_length_b   7.80426770
_cell_length_c   15.00167200
_cell_angle_alpha   90.00000000
_cell_angle_beta   90.00000000
_cell_angle_gamma   119.99999746
_symmetry_Int_Tables_number   1
_chemical_formula_structural   Ba2Sn2F11
_chemical_formula_sum   'Ba6 Sn6 F33'
_cell_volume   791.28808200
_cell_formula_units_Z   3
loop_
 _symmetry_equiv_pos_site_id
 _symmetry_equiv_pos_as_xyz
  1  'x, y, z'
loop_
 _atom_site_type_symbol
 _atom_site_label
 _atom_site_symmetry_multiplicity
 _atom_site_fract_x
 _atom_site_fract_y
 _atom_site_fract_z
 _atom_site_occupancy
  Ba  Ba0  1  0.84974000  0.81374700  0.65734200  1
  Ba  Ba1  1  0.47794900  0.08026700  0.80925600  1
  Ba  Ba2  1  0.96400700  0.15026000  0.99067500  1
  Ba  Ba3  1  0.91973300  0.39768200  0.47592300  1
  Ba  Ba4  1  0.60231800  0.52205100  0.14258900  1
  Ba  Ba5  1  0.18625300  0.03599300  0.32400800  1
  Sn  Sn0  1  0.87472700  0.63618600  0.89790800  1
  Sn  Sn1  1  0.17158400  0.46432700  0.72724900  1
  Sn  Sn2  1  0.53567300  0.70725700  0.39391600  1
  Sn  Sn3  1  0.76145900  0.12527300  0.23124200  1
  Sn  Sn4  1  0.29274300  0.82841600  0.06058300  1
  Sn  Sn5  1  0.36381400  0.23854100  0.56457500  1
  F  F0  1  0.99707000  0.72481700  0.04737900  1
  F  F1  1  0.75629900  0.34433200  0.94473500  1
  F  F2  1  0.72774700  0.00293000  0.38071200  1
  F  F3  1  0.48822800  0.15028500  0.46652900  1
  F  F4  1  0.88481500  0.95192400  0.18239000  1
  F  F5  1  0.27633900  0.25253000  0.18816500  1
  F  F6  1  0.84971500  0.33794300  0.13319600  1
  F  F7  1  0.74747000  0.02381000  0.85483100  1
  F  F8  1  0.06710900  0.11518500  0.51572300  1
  F  F9  1  0.58671800  0.95479700  0.08027000  1
  F  F10  1  0.66205700  0.51177200  0.79986200  1
  F  F11  1  0.27518300  0.27225300  0.71404600  1
  F  F12  1  0.68571600  0.68840100  0.97332200  1
  F  F13  1  0.33230800  0.09334800  0.02093600  1
  F  F14  1  0.00268500  0.31428400  0.30665500  1
  F  F15  1  0.65566800  0.41196600  0.61140200  1
  F  F16  1  0.28935300  0.78275000  0.92843100  1
  F  F17  1  0.36807900  0.41328200  0.41360300  1
  F  F18  1  0.28991100  0.72625700  0.40575500  1
  F  F19  1  0.31159900  0.99731500  0.63998800  1
  F  F20  1  0.43634600  0.71008900  0.73908800  1
  F  F21  1  0.90665200  0.23896000  0.68760300  1
  F  F22  1  0.76104000  0.66769200  0.35427000  1
  F  F23  1  0.49339600  0.71064700  0.26176500  1
  F  F24  1  0.04520300  0.63192100  0.74693600  1
  F  F25  1  0.04807600  0.93289100  0.84905600  1
  F  F26  1  0.58803400  0.24370100  0.27806800  1
  F  F27  1  0.15525500  0.39864800  0.85640100  1
  F  F28  1  0.24339300  0.84474500  0.18973400  1
  F  F29  1  0.27374300  0.56365400  0.07242200  1
  F  F30  1  0.97619000  0.72366100  0.52149800  1
  F  F31  1  0.21725000  0.50660400  0.59509800  1
  F  F32  1  0.60135200  0.75660700  0.52306800  1
loop_
_geom_bond_atom_site_label_1
_geom_bond_atom_site_label_2
_geom_bond_distance
_geom_bond_site_symmetry_2
Ba0 F30 2.512957 1_555
Ba0 F32 2.673891 1_555
Ba0 F15 2.802110 1_555
Ba0 F24 2.883007 1_655
Ba0 F10 2.969634 1_555
Ba0 F8 2.989123 1_665
Ba0 F21 3.153049 1_565
Ba0 F19 3.154133 1_655
Ba0 F20 3.155468 1_555
Ba0 F25 3.176913 1_655
Ba1 F7 2.452082 1_555
Ba1 F16 2.708579 1_545
Ba1 F19 2.777073 1_545
Ba1 F10 2.930239 1_555
Ba1 F1 2.935969 1_555
Ba1 F20 2.936257 1_545
Ba1 F25 3.012595 1_545
Ba1 F11 3.026566 1_555
Ba2 F7 2.512961 1_555
Ba2 F27 2.673891 1_655
Ba2 F1 2.802103 1_555
Ba2 F9 2.883014 1_546
Ba2 F6 2.969645 1_556
Ba2 F25 2.989123 1_645
Ba2 F13 3.153049 1_656
Ba2 F12 3.154132 1_545
Ba2 F29 3.155474 1_656
Ba2 F4 3.176927 1_546
Ba3 F30 2.452090 1_555
Ba3 F31 2.708578 1_655
Ba3 F14 2.777073 1_655
Ba3 F3 2.930239 1_555
Ba3 F15 2.935966 1_555
Ba3 F18 2.936257 1_655
Ba3 F8 3.012594 1_655
Ba3 F2 3.026573 1_555
Ba4 F5 2.452091 1_555
Ba4 F23 2.708593 1_555
Ba4 F12 2.777059 1_554
Ba4 F6 2.930238 1_555
Ba4 F26 2.935971 1_555
Ba4 F29 2.936252 1_555
Ba4 F4 3.012598 1_555
Ba4 F0 3.026566 1_555
Ba5 F5 2.512949 1_555
Ba5 F28 2.673891 1_545
Ba5 F26 2.802109 1_555
Ba5 F17 2.883014 1_555
Ba5 F3 2.969645 1_555
Ba5 F4 2.989112 1_445
Ba5 F22 3.153052 1_445
Ba5 F14 3.154132 1_555
Ba5 F18 3.155474 1_545
Ba5 F8 3.176926 1_555
F0 Sn4 2.037617 1_655
F0 Sn0 2.399506 1_554
F1 Sn0 2.104876 1_555
F2 Sn2 2.037617 1_545
F2 Sn3 2.399492 1_555
F3 Sn5 2.061396 1_555
F4 Sn3 2.143951 1_565
F6 Sn3 2.061396 1_555
F8 Sn5 2.143951 1_555
F9 Sn4 2.015145 1_555
F9 Sn3 2.635323 1_565
F10 Sn0 2.061396 1_555
F11 Sn1 2.037616 1_555
F11 Sn5 2.399506 1_555
F12 Sn0 2.054988 1_555
F13 Sn4 2.021297 1_545
F14 Sn3 2.054980 1_455
F15 Sn5 2.104875 1_555
F16 Sn4 2.012112 1_556
F17 Sn2 2.015145 1_555
F17 Sn5 2.635323 1_555
F18 Sn2 2.004153 1_555
F19 Sn5 2.054980 1_565
F20 Sn1 2.004153 1_555
F21 Sn1 2.021293 1_655
F22 Sn2 2.021292 1_555
F23 Sn2 2.012099 1_555
F24 Sn1 2.015144 1_555
F24 Sn0 2.635323 1_455
F25 Sn0 2.143951 1_455
F26 Sn3 2.104864 1_555
F27 Sn1 1.991870 1_555
F28 Sn4 1.991855 1_555
F29 Sn4 2.004153 1_555
F31 Sn1 2.012098 1_555
F32 Sn2 1.991870 1_555
