# generated using pymatgen
data_Th2Si3Ni
_symmetry_space_group_name_H-M   'P 1'
_cell_length_a   4.10076114
_cell_length_b   4.10076114
_cell_length_c   8.16943995
_cell_angle_alpha   90.00000000
_cell_angle_beta   90.00000000
_cell_angle_gamma   120.00001124
_symmetry_Int_Tables_number   1
_chemical_formula_structural   Th2Si3Ni
_chemical_formula_sum   'Th2 Si3 Ni1'
_cell_volume   118.97393155
_cell_formula_units_Z   1
loop_
 _symmetry_equiv_pos_site_id
 _symmetry_equiv_pos_as_xyz
  1  'x, y, z'
loop_
 _atom_site_type_symbol
 _atom_site_label
 _atom_site_symmetry_multiplicity
 _atom_site_fract_x
 _atom_site_fract_y
 _atom_site_fract_z
 _atom_site_occupancy
  Th  Th0  1  0.66666700  0.33333300  0.74303150  1
  Th  Th1  1  0.66666700  0.33333300  0.25696850  1
  Si  Si0  1  0.00000000  -0.00000000  -0.00000000  1
  Si  Si1  1  0.33333300  0.66666700  0.50000000  1
  Si  Si2  1  0.33333300  0.66666700  0.00000000  1
  Ni  Ni0  1  0.00000000  -0.00000000  0.50000000  1
loop_
_geom_bond_atom_site_label_1
_geom_bond_atom_site_label_2
_geom_bond_distance
_geom_bond_site_symmetry_2
Si0 Si2 2.367573 1_545
Si0 Si2 2.367576 1_445
Si0 Si2 2.367576 1_555
Si0 Th1 3.164240 1_455
Si0 Th0 3.164240 1_454
Si0 Th1 3.164243 1_445
Si0 Th1 3.164243 1_555
Si0 Th0 3.164243 1_554
Si0 Th0 3.164243 1_444
Si1 Th0 3.089877 1_455
Si1 Th1 3.089877 1_455
Si1 Th0 3.089877 1_565
Si1 Th1 3.089877 1_565
Si1 Th0 3.089883 1_555
Si1 Th1 3.089883 1_555
Si2 Th1 3.164240 1_455
Si2 Th0 3.164240 1_454
Si2 Th0 3.164240 1_564
Si2 Th1 3.164240 1_565
Si2 Th1 3.164246 1_555
Si2 Th0 3.164246 1_554
Ni0 Si1 2.367573 1_545
Ni0 Si1 2.367576 1_445
Ni0 Si1 2.367576 1_555
Ni0 Th0 3.089877 1_455
Ni0 Th1 3.089877 1_455
Ni0 Th1 3.089880 1_445
Ni0 Th0 3.089880 1_445
Ni0 Th1 3.089880 1_555
Ni0 Th0 3.089880 1_555
