# generated using pymatgen
data_CaTiFe5O8
_symmetry_space_group_name_H-M   'P 1'
_cell_length_a   6.08043365
_cell_length_b   6.20032756
_cell_length_c   6.34596154
_cell_angle_alpha   82.79617669
_cell_angle_beta   59.00091400
_cell_angle_gamma   110.25743801
_symmetry_Int_Tables_number   1
_chemical_formula_structural   CaTiFe5O8
_chemical_formula_sum   'Ca1 Ti1 Fe5 O8'
_cell_volume   178.14200549
_cell_formula_units_Z   1
loop_
 _symmetry_equiv_pos_site_id
 _symmetry_equiv_pos_as_xyz
  1  'x, y, z'
loop_
 _atom_site_type_symbol
 _atom_site_label
 _atom_site_symmetry_multiplicity
 _atom_site_fract_x
 _atom_site_fract_y
 _atom_site_fract_z
 _atom_site_occupancy
  Ca  Ca0  1  0.69239900  0.48501300  0.75140800  1
  Ti  Ti0  1  0.48894900  0.96452000  0.51664900  1
  Fe  Fe0  1  0.19851100  0.97610200  0.25044100  1
  Fe  Fe1  1  0.93585900  0.00610200  0.92277500  1
  Fe  Fe2  1  0.47470500  0.49110900  0.46044400  1
  Fe  Fe3  1  0.98436900  0.49688600  0.97360700  1
  Fe  Fe4  1  0.17602400  0.46983000  0.28084700  1
  O  O0  1  0.93669900  0.65236200  0.26260000  1
  O  O1  1  0.91719700  0.17438000  0.24354700  1
  O  O2  1  0.40997400  0.16112500  0.71956300  1
  O  O3  1  0.48575600  0.31191100  0.18986400  1
  O  O4  1  0.02507100  0.34122600  0.69219500  1
  O  O5  1  0.07149400  0.83016100  0.65884500  1
  O  O6  1  0.49741800  0.81114400  0.22930200  1
  O  O7  1  0.45557600  0.70312900  0.72291400  1
loop_
_geom_bond_atom_site_label_1
_geom_bond_atom_site_label_2
_geom_bond_distance
_geom_bond_site_symmetry_2
Ca0 O2 2.256968 1_555
Ca0 O5 2.261019 1_655
Ca0 O3 2.277859 1_556
Ca0 O7 2.343212 1_555
Ca0 O4 2.361690 1_655
Ca0 O0 2.506894 1_555
Fe0 O3 2.030507 1_565
Fe0 O0 2.047257 1_455
Fe0 O5 2.235707 1_555
Fe0 O6 2.331926 1_555
Fe0 O1 2.441096 1_465
Fe1 O6 2.046771 1_546
Fe1 O5 2.081800 1_645
Fe1 O4 2.095777 1_655
Fe1 O2 2.199671 1_655
Fe1 O1 2.371064 1_556
Fe2 O4 2.063331 1_555
Fe2 O0 2.138815 1_555
Fe2 O3 2.144473 1_555
Fe2 O7 2.229680 1_555
Fe2 O2 2.230897 1_555
Fe2 O6 2.231534 1_555
Fe3 O4 2.079511 1_655
Fe3 O0 2.113287 1_556
Fe3 O7 2.152388 1_655
Fe3 O1 2.225873 1_556
Fe3 O3 2.302638 1_556
Fe3 O5 2.378522 1_655
Fe4 O1 2.093963 1_455
Fe4 O0 2.166346 1_455
Fe4 O6 2.169937 1_555
Fe4 O4 2.189896 1_555
Fe4 O3 2.266633 1_555
O1 Ti0 1.979112 1_545
O2 Ti0 1.880647 1_545
O5 Ti0 1.984722 1_555
O6 Ti0 2.145750 1_555
O7 Ti0 1.829710 1_555
