# generated using pymatgen
data_BaNi4O7
_symmetry_space_group_name_H-M   'P 1'
_cell_length_a   6.23728812
_cell_length_b   6.23728812
_cell_length_c   10.26883300
_cell_angle_alpha   90.00000000
_cell_angle_beta   90.00000000
_cell_angle_gamma   120.00000130
_symmetry_Int_Tables_number   1
_chemical_formula_structural   BaNi4O7
_chemical_formula_sum   'Ba2 Ni8 O14'
_cell_volume   345.97389372
_cell_formula_units_Z   2
loop_
 _symmetry_equiv_pos_site_id
 _symmetry_equiv_pos_as_xyz
  1  'x, y, z'
loop_
 _atom_site_type_symbol
 _atom_site_label
 _atom_site_symmetry_multiplicity
 _atom_site_fract_x
 _atom_site_fract_y
 _atom_site_fract_z
 _atom_site_occupancy
  Ba  Ba0  1  0.66666700  0.33333300  0.50481300  1
  Ba  Ba1  1  0.33333300  0.66666700  0.00481300  1
  Ni  Ni0  1  0.82849300  0.17150700  0.18918800  1
  Ni  Ni1  1  0.65698600  0.82849300  0.68918800  1
  Ni  Ni2  1  0.17150700  0.34301400  0.68918800  1
  Ni  Ni3  1  0.82849300  0.65698600  0.18918800  1
  Ni  Ni4  1  0.34301400  0.17150700  0.18918800  1
  Ni  Ni5  1  0.17150700  0.82849300  0.68918800  1
  Ni  Ni6  1  0.00000000  0.00000000  0.44789600  1
  Ni  Ni7  1  0.00000000  0.00000000  0.94789600  1
  O  O0  1  0.84192900  0.15807100  0.01111300  1
  O  O1  1  0.68385800  0.84192900  0.51111300  1
  O  O2  1  0.15807100  0.31614200  0.51111300  1
  O  O3  1  0.84192900  0.68385800  0.01111300  1
  O  O4  1  0.31614200  0.15807100  0.01111300  1
  O  O5  1  0.15807100  0.84192900  0.51111300  1
  O  O6  1  0.00000000  0.00000000  0.75806000  1
  O  O7  1  0.00000000  0.00000000  0.25806000  1
  O  O8  1  0.50690400  0.49309600  0.24746100  1
  O  O9  1  0.01380800  0.50690400  0.74746100  1
  O  O10  1  0.49309600  0.98619200  0.74746100  1
  O  O11  1  0.50690400  0.01380800  0.24746100  1
  O  O12  1  0.49309600  0.50690400  0.74746100  1
  O  O13  1  0.98619200  0.49309600  0.24746100  1
loop_
_geom_bond_atom_site_label_1
_geom_bond_atom_site_label_2
_geom_bond_distance
_geom_bond_site_symmetry_2
Ba0 O9 3.118454 1_655
Ba0 O10 3.118454 1_545
Ba0 O12 3.118457 1_555
Ba0 O2 3.120694 1_655
Ba0 O1 3.120694 1_545
Ba0 O5 3.120697 1_655
Ba0 O5 3.120697 1_545
Ba0 O1 3.120700 1_555
Ba0 O2 3.120700 1_555
Ba0 O13 3.156396 1_555
Ba0 O11 3.156396 1_555
Ba0 O8 3.156399 1_555
Ba1 O11 3.118454 1_565
Ba1 O13 3.118454 1_455
Ba1 O8 3.118457 1_555
Ba1 O4 3.120694 1_565
Ba1 O3 3.120694 1_455
Ba1 O0 3.120697 1_565
Ba1 O0 3.120697 1_455
Ba1 O3 3.120700 1_555
Ba1 O4 3.120700 1_555
Ba1 O10 3.156396 1_554
Ba1 O9 3.156396 1_554
Ba1 O12 3.156399 1_554
Ni0 O0 1.834374 1_555
Ni0 O11 1.837391 1_555
Ni0 O13 1.837391 1_555
Ni0 O7 1.983231 1_655
Ni1 O1 1.834374 1_555
Ni1 O12 1.837391 1_555
Ni1 O10 1.837391 1_555
Ni1 O6 1.983230 1_665
Ni2 O2 1.834374 1_555
Ni2 O12 1.837391 1_555
Ni2 O9 1.837391 1_555
Ni2 O6 1.983230 1_555
Ni3 O3 1.834374 1_555
Ni3 O8 1.837391 1_555
Ni3 O13 1.837391 1_555
Ni3 O7 1.983230 1_665
Ni4 O4 1.834374 1_555
Ni4 O8 1.837391 1_555
Ni4 O11 1.837391 1_555
Ni4 O7 1.983230 1_555
Ni5 O5 1.834374 1_555
Ni5 O9 1.837391 1_555
Ni5 O10 1.837391 1_555
Ni5 O6 1.983231 1_565
Ni6 O1 1.826914 1_445
Ni6 O2 1.826914 1_555
Ni6 O5 1.826914 1_545
Ni6 O7 1.949394 1_555
Ni7 O4 1.826914 1_556
Ni7 O3 1.826914 1_446
Ni7 O0 1.826914 1_456
Ni7 O6 1.949394 1_555
