# generated using pymatgen
data_Pr2MoO6
_symmetry_space_group_name_H-M   'P 1'
_cell_length_a   10.21344677
_cell_length_b   10.21344677
_cell_length_c   5.57928071
_cell_angle_alpha   75.15596265
_cell_angle_beta   75.15596265
_cell_angle_gamma   68.64661170
_symmetry_Int_Tables_number   1
_chemical_formula_structural   Pr2MoO6
_chemical_formula_sum   'Pr8 Mo4 O24'
_cell_volume   515.30756283
_cell_formula_units_Z   4
loop_
 _symmetry_equiv_pos_site_id
 _symmetry_equiv_pos_as_xyz
  1  'x, y, z'
loop_
 _atom_site_type_symbol
 _atom_site_label
 _atom_site_symmetry_multiplicity
 _atom_site_fract_x
 _atom_site_fract_y
 _atom_site_fract_z
 _atom_site_occupancy
  Pr  Pr0  1  0.63192982  0.36807018  0.75000000  1
  Pr  Pr1  1  0.36807018  0.63192982  0.25000000  1
  Pr  Pr2  1  0.11129397  0.88870603  0.75000000  1
  Pr  Pr3  1  0.88870603  0.11129397  0.25000000  1
  Pr  Pr4  1  0.71072631  0.94442632  0.88297572  1
  Pr  Pr5  1  0.28927369  0.05557368  0.11702428  1
  Pr  Pr6  1  0.05557368  0.28927369  0.61702428  1
  Pr  Pr7  1  0.94442632  0.71072631  0.38297572  1
  Mo  Mo0  1  0.50960334  0.79666624  0.56062240  1
  Mo  Mo1  1  0.49039666  0.20333376  0.43937760  1
  Mo  Mo2  1  0.20333376  0.49039666  0.93937760  1
  Mo  Mo3  1  0.79666624  0.50960334  0.06062240  1
  O  O0  1  0.68452656  0.16413510  0.58506508  1
  O  O1  1  0.31547344  0.83586490  0.41493492  1
  O  O2  1  0.83586490  0.31547344  0.91493492  1
  O  O3  1  0.16413510  0.68452656  0.08506508  1
  O  O4  1  0.38714513  0.82694904  0.85578874  1
  O  O5  1  0.61285487  0.17305096  0.14421126  1
  O  O6  1  0.17305096  0.61285487  0.64421126  1
  O  O7  1  0.82694904  0.38714513  0.35578874  1
  O  O8  1  0.67399430  0.78551785  0.63778506  1
  O  O9  1  0.32600570  0.21448215  0.36221494  1
  O  O10  1  0.21448215  0.32600570  0.86221494  1
  O  O11  1  0.78551785  0.67399430  0.13778506  1
  O  O12  1  0.47372455  0.07206541  0.72703960  1
  O  O13  1  0.52627545  0.92793459  0.27296040  1
  O  O14  1  0.92793459  0.52627545  0.77296040  1
  O  O15  1  0.07206541  0.47372455  0.22703960  1
  O  O16  1  0.54510752  0.61806832  0.52022747  1
  O  O17  1  0.45489248  0.38193168  0.47977253  1
  O  O18  1  0.38193168  0.45489248  0.97977253  1
  O  O19  1  0.61806832  0.54510752  0.02022747  1
  O  O20  1  0.89097505  0.92299027  0.07924015  1
  O  O21  1  0.10902495  0.07700973  0.92075985  1
  O  O22  1  0.07700973  0.10902495  0.42075985  1
  O  O23  1  0.92299027  0.89097505  0.57924015  1
loop_
_geom_bond_atom_site_label_1
_geom_bond_atom_site_label_2
_geom_bond_distance
_geom_bond_site_symmetry_2
Mo0 O16 1.787932 1_555
Mo0 O8 1.795373 1_555
Mo0 O4 1.815458 1_555
Mo0 O13 1.823745 1_555
Mo0 O1 2.198447 1_555
Mo1 O17 1.787932 1_555
Mo1 O9 1.795373 1_555
Mo1 O5 1.815458 1_555
Mo1 O12 1.823745 1_555
Mo1 O0 2.198447 1_555
Mo2 O18 1.787932 1_555
Mo2 O10 1.795373 1_555
Mo2 O6 1.815458 1_555
Mo2 O15 1.823745 1_556
Mo2 O3 2.198447 1_556
Mo3 O19 1.787932 1_555
Mo3 O11 1.795373 1_555
Mo3 O7 1.815458 1_555
Mo3 O14 1.823745 1_554
Mo3 O2 2.198447 1_554
O0 Pr0 2.321147 1_555
O0 Pr4 2.397766 1_545
O0 Pr3 2.415504 1_555
O1 Pr1 2.321147 1_555
O1 Pr5 2.397766 1_565
O1 Pr2 2.415504 1_555
O2 Pr0 2.321147 1_555
O2 Pr6 2.397766 1_655
O2 Pr3 2.415504 1_556
O3 Pr1 2.321147 1_555
O3 Pr7 2.397766 1_455
O3 Pr2 2.415504 1_554
O4 Pr1 2.580915 1_556
O4 Pr5 2.805971 1_566
O4 Pr2 2.837438 1_555
O5 Pr0 2.580915 1_554
O5 Pr4 2.805971 1_544
O5 Pr3 2.837438 1_555
O6 Pr1 2.580915 1_555
O6 Pr7 2.805971 1_455
O6 Pr2 2.837438 1_555
O7 Pr0 2.580915 1_555
O7 Pr6 2.805971 1_655
O7 Pr3 2.837438 1_555
O8 Pr4 2.547598 1_555
O8 Pr7 2.691003 1_555
O9 Pr5 2.547598 1_555
O9 Pr6 2.691003 1_555
O10 Pr6 2.547598 1_555
O10 Pr5 2.691003 1_556
O11 Pr7 2.547598 1_555
O11 Pr4 2.691003 1_554
O12 Pr5 2.500937 1_556
O12 Pr4 2.552569 1_545
O13 Pr4 2.500937 1_554
O13 Pr5 2.552569 1_565
O14 Pr7 2.500937 1_555
O14 Pr6 2.552569 1_655
O15 Pr6 2.500937 1_555
O15 Pr7 2.552569 1_455
O16 Pr0 2.491136 1_555
O16 Pr1 2.581393 1_555
O17 Pr1 2.491136 1_555
O17 Pr0 2.581393 1_555
O18 Pr0 2.491136 1_555
O18 Pr1 2.581393 1_556
O19 Pr1 2.491136 1_555
O19 Pr0 2.581393 1_554
O20 Pr4 2.291869 1_554
O20 Pr3 2.345650 1_565
O20 Pr7 2.366327 1_555
O20 Pr2 2.489626 1_654
O21 Pr5 2.291869 1_556
O21 Pr2 2.345650 1_545
O21 Pr6 2.366327 1_555
O21 Pr3 2.489626 1_456
O22 Pr6 2.291869 1_555
O22 Pr3 2.345650 1_455
O22 Pr5 2.366327 1_555
O22 Pr2 2.489626 1_545
O23 Pr7 2.291869 1_555
O23 Pr2 2.345650 1_655
O23 Pr4 2.366327 1_555
O23 Pr3 2.489626 1_565
