# generated using pymatgen
data_LiCaMg6
_symmetry_space_group_name_H-M   'P 1'
_cell_length_a   5.27969400
_cell_length_b   6.51239600
_cell_length_c   11.54481000
_cell_angle_alpha   90.00000000
_cell_angle_beta   90.00000000
_cell_angle_gamma   90.00000000
_symmetry_Int_Tables_number   1
_chemical_formula_structural   LiCaMg6
_chemical_formula_sum   'Li2 Ca2 Mg12'
_cell_volume   396.95049076
_cell_formula_units_Z   2
loop_
 _symmetry_equiv_pos_site_id
 _symmetry_equiv_pos_as_xyz
  1  'x, y, z'
loop_
 _atom_site_type_symbol
 _atom_site_label
 _atom_site_symmetry_multiplicity
 _atom_site_fract_x
 _atom_site_fract_y
 _atom_site_fract_z
 _atom_site_occupancy
  Li  Li0  1  0.50000000  0.50000000  0.16538800  1
  Li  Li1  1  0.50000000  0.00000000  0.66538800  1
  Ca  Ca0  1  0.50000000  0.00000000  0.16717700  1
  Ca  Ca1  1  0.50000000  0.50000000  0.66717700  1
  Mg  Mg0  1  0.50000000  0.24660900  0.41818800  1
  Mg  Mg1  1  0.50000000  0.75339100  0.41818800  1
  Mg  Mg2  1  0.00000000  0.74293800  0.08152700  1
  Mg  Mg3  1  0.00000000  0.25706200  0.08152700  1
  Mg  Mg4  1  0.00000000  0.00000000  0.33629800  1
  Mg  Mg5  1  0.00000000  0.50000000  0.33170300  1
  Mg  Mg6  1  0.50000000  0.74660900  0.91818800  1
  Mg  Mg7  1  0.50000000  0.25339100  0.91818800  1
  Mg  Mg8  1  0.00000000  0.24293800  0.58152700  1
  Mg  Mg9  1  0.00000000  0.75706200  0.58152700  1
  Mg  Mg10  1  0.00000000  0.50000000  0.83629800  1
  Mg  Mg11  1  0.00000000  0.00000000  0.83170300  1
loop_
_geom_bond_atom_site_label_1
_geom_bond_atom_site_label_2
_geom_bond_distance
_geom_bond_site_symmetry_2
Li0 Mg2 3.226328 1_555
Li0 Mg2 3.226328 1_655
Li0 Mg3 3.226328 1_555
Li0 Mg3 3.226328 1_655
Li0 Mg5 3.264273 1_655
Li0 Mg5 3.264273 1_555
Li0 Mg6 3.274737 1_554
Li0 Mg7 3.274737 1_554
Li0 Mg0 3.352746 1_555
Li0 Mg1 3.352746 1_555
Li1 Mg8 3.226328 1_555
Li1 Mg8 3.226328 1_655
Li1 Mg9 3.226328 1_645
Li1 Mg9 3.226328 1_545
Li1 Mg11 3.264273 1_555
Li1 Mg11 3.264273 1_655
Li1 Mg1 3.274737 1_545
Li1 Mg0 3.274737 1_555
Li1 Mg6 3.352746 1_545
Li1 Mg7 3.352746 1_555
Ca0 Li0 3.256264 1_545
Ca0 Li0 3.256264 1_555
Ca0 Mg3 3.278585 1_655
Ca0 Mg2 3.278585 1_645
Ca0 Mg2 3.278585 1_545
Ca0 Mg3 3.278585 1_555
Ca0 Mg4 3.283433 1_655
Ca0 Mg4 3.283433 1_555
Ca0 Mg1 3.313150 1_545
Ca0 Mg0 3.313150 1_555
Ca0 Mg7 3.314518 1_554
Ca0 Mg6 3.314518 1_544
Ca1 Li1 3.256264 1_565
Ca1 Li1 3.256264 1_555
Ca1 Mg8 3.278585 1_555
Ca1 Mg9 3.278585 1_655
Ca1 Mg9 3.278585 1_555
Ca1 Mg8 3.278585 1_655
Ca1 Mg10 3.283433 1_655
Ca1 Mg10 3.283433 1_555
Ca1 Mg6 3.313150 1_555
Ca1 Mg7 3.313150 1_555
Ca1 Mg0 3.314518 1_555
Ca1 Mg1 3.314518 1_555
Mg0 Mg1 3.212031 1_545
Mg0 Mg4 3.231388 1_555
Mg0 Mg4 3.231388 1_655
Mg0 Mg8 3.244271 1_555
Mg0 Mg8 3.244271 1_655
Mg0 Mg5 3.269373 1_555
Mg0 Mg5 3.269373 1_655
Mg0 Mg1 3.300365 1_555
Mg1 Mg4 3.231388 1_565
Mg1 Mg4 3.231388 1_665
Mg1 Mg9 3.244271 1_655
Mg1 Mg9 3.244271 1_555
Mg1 Mg5 3.269373 1_555
Mg1 Mg5 3.269373 1_655
Mg2 Mg3 3.164217 1_555
Mg2 Mg6 3.244271 1_554
Mg2 Mg6 3.244271 1_454
Mg2 Mg5 3.293169 1_555
Mg2 Mg3 3.348179 1_565
Mg2 Mg4 3.384335 1_565
Mg3 Mg7 3.244271 1_554
Mg3 Mg7 3.244271 1_454
Mg3 Mg5 3.293169 1_555
Mg3 Mg4 3.384335 1_555
Mg4 Mg9 3.243196 1_545
Mg4 Mg8 3.243196 1_555
Mg4 Mg5 3.256630 1_545
Mg4 Mg5 3.256630 1_555
Mg5 Mg9 3.334819 1_555
Mg5 Mg8 3.334819 1_555
Mg6 Mg7 3.212031 1_555
Mg6 Mg7 3.300365 1_565
Mg8 Mg9 3.164217 1_545
Mg8 Mg9 3.348179 1_555
Mg10 Mg6 3.231388 1_555
Mg10 Mg7 3.231388 1_455
Mg10 Mg7 3.231388 1_555
Mg10 Mg6 3.231388 1_455
Mg10 Mg2 3.243196 1_556
Mg10 Mg3 3.243196 1_556
Mg10 Mg11 3.256630 1_565
Mg10 Mg11 3.256630 1_555
Mg10 Mg9 3.384335 1_555
Mg10 Mg8 3.384335 1_555
Mg11 Mg7 3.269373 1_555
Mg11 Mg6 3.269373 1_445
Mg11 Mg6 3.269373 1_545
Mg11 Mg7 3.269373 1_455
Mg11 Mg9 3.293169 1_545
Mg11 Mg8 3.293169 1_555
Mg11 Mg3 3.334819 1_556
Mg11 Mg2 3.334819 1_546
